drugbank_target|P78334 Gamma-aminobutyric acid receptor subunit epsilon (DB00186; DB00189; DB00228; DB00231; DB00237; DB00241; DB00252; DB00292; DB00306; DB00312; DB00349; DB00371; DB00402; DB00404; DB00463; DB00475; DB00543; DB00546; DB00555; DB00603; DB00628; DB00659; DB00683; DB00690; DB00753; DB00794; DB00801; DB00818; DB00829; DB00842; DB00897; DB01028; DB01043; DB01068; DB01107; DB01159; DB01189; DB01205; DB01215; DB01236; DB01437; DB01489; DB01511; DB01544; DB01545; DB01553; DB01558; DB01559; DB01587; DB01588; DB01589; DB01594; DB01595; DB01708; DB01956; DB09017; DB09118; DB09166; DB11582; DB11859; DB11901; DB12404; DB12537; DB13335; DB13437; DB13643; DB13837; DB13872; DB14028; DB14672; DB14715; DB14719; DB15489)
 OpenBabel12092120353D

  0  0  0     0  0            999 V3000
M  V30 BEGIN CTAB
M  V30 COUNTS 8112 8218 0 0 0
M  V30 BEGIN ATOM
M  V30 1 H -0.908 1.98254 -0.117106 0
M  V30 2 N 0 1.576 0 0
M  V30 3 C 0.933 2.03868 1.02534 0
M  V30 4 C 1.911 0.928543 1.3348 0
M  V30 5 O 3.095 1.19667 1.45644 0
M  V30 6 C 0.222 2.43627 2.35294 0
M  V30 7 C -0.732 3.65373 2.2001 0
M  V30 8 S 0.101 5.13292 1.52614 0
M  V30 9 C 1.257 5.56322 2.86805 0
M  V30 10 H 1.49 2.90518 0.631377 0
M  V30 11 H -0.977 1.52953 0.210867 0
M  V30 12 H 0.981 2.67203 3.11629 0
M  V30 13 H -0.358 1.57376 2.7183 0
M  V30 14 H -1.165 3.90944 3.18086 0
M  V30 15 H -1.563 3.418 1.51819 0
M  V30 16 H 0.729 5.58782 3.83104 0
M  V30 17 H 1.672 6.56266 2.65933 0
M  V30 18 H 2.08 4.83886 2.90714 0
M  V30 19 N 1.4781 -0.272755 1.55222 0
M  V30 20 C 2.4081 -1.34136 1.91127 0
M  V30 21 C 3.3891 -1.51513 0.773168 0
M  V30 22 O 4.5741 -1.64552 1.03132 0
M  V30 23 C 1.7041 -2.70083 2.1834 0
M  V30 24 C 0.6581 -2.67437 3.34158 0
M  V30 25 C -0.0159 -4.06938 3.46851 0
M  V30 26 C 1.2841 -2.26686 4.70543 0
M  V30 27 H 2.9781 -1.04333 2.80633 0
M  V30 28 H 0.5241 -0.500454 1.35024 0
M  V30 29 H 2.4771 -3.44952 2.42046 0
M  V30 30 H 1.2011 -3.01469 1.25634 0
M  V30 31 H -0.1399 -1.95026 3.1042 0
M  V30 32 H -0.4919 -4.35547 2.51611 0
M  V30 33 H -0.7919 -4.06062 4.2472 0
M  V30 34 H 0.7321 -4.83545 3.72849 0
M  V30 35 H 2.1461 -2.91277 4.93792 0
M  V30 36 H 0.5431 -2.36971 5.5133 0
M  V30 37 H 1.6131 -1.21818 4.69349 0
M  V30 38 N 2.9562 -1.48159 -0.537278 0
M  V30 39 C 4.1812 -1.59707 -1.32319 0
M  V30 40 C 4.6062 -0.254859 -1.86365 0
M  V30 41 O 3.9642 0.772378 -1.64024 0
M  V30 42 C 4.0122 -2.6412 -2.45505 0
M  V30 43 O 3.1162 -2.20774 -3.48328 0
M  V30 44 H 2.4572 -0.535791 -0.392204 0
M  V30 45 H 4.9872 -1.94092 -0.647268 0
M  V30 46 H 4.9972 -2.85166 -2.91795 0
M  V30 47 H 3.6722 -3.61567 -2.05528 0
M  V30 48 H 2.2492 -2.09911 -3.08207 0
M  V30 49 N 4.4343 0.785586 -1.36625 0
M  V30 50 C 5.3813 1.89838 -1.31264 0
M  V30 51 C 6.3513 1.65115 -0.180633 0
M  V30 52 O 7.5363 1.87222 -0.36777 0
M  V30 53 C 4.6763 3.26706 -1.11163 0
M  V30 54 C 3.7893 3.63476 -2.33472 0
M  V30 55 C 2.9243 4.89481 -2.06353 0
M  V30 56 C 1.9633 5.18941 -3.24602 0
M  V30 57 N 1.1003 6.36131 -2.97123 0
M  V30 58 H 5.9403 1.93756 -2.26413 0
M  V30 59 H 3.4773 0.947454 -1.12524 0
M  V30 60 H 5.4353 4.05639 -0.975337 0
M  V30 61 H 4.0653 3.222 -0.196674 0
M  V30 62 H 3.1173 2.79636 -2.57891 0
M  V30 63 H 4.4293 3.81193 -3.21704 0
M  V30 64 H 3.5833 5.76288 -1.89675 0
M  V30 65 H 2.3223 4.73841 -1.15437 0
M  V30 66 H 1.3273 4.30615 -3.41834 0
M  V30 67 H 2.5523 5.36498 -4.16349 0
M  V30 68 H 0.4983 6.21875 -2.08823 0
M  V30 69 H 0.4153 6.54198 -3.78894 0
M  V30 70 H 1.6833 7.2591 -2.84033 0
M  V30 71 N 5.9124 1.20967 1.01018 0
M  V30 72 C 7.1584 1.02526 1.74975 0
M  V30 73 C 7.4914 -0.4408 1.89131 0
M  V30 74 O 6.7664 -1.32718 1.42184 0
M  V30 75 C 7.0494 1.71699 3.1653 0
M  V30 76 C 6.9024 3.25791 3.10129 0
M  V30 77 C 8.2214 1.45531 4.15342 0
M  V30 78 H 5.3404 0.373863 0.635134 0
M  V30 79 H 7.9824 1.49071 1.17805 0
M  V30 80 H 6.1324 1.32128 3.65341 0
M  V30 81 H 7.8044 3.74697 2.69072 0
M  V30 82 H 6.0474 3.56363 2.47362 0
M  V30 83 H 6.7184 3.69353 4.10222 0
M  V30 84 H 9.1944 1.79872 3.75213 0
M  V30 85 H 8.0704 1.96453 5.1254 0
M  V30 86 H 8.3314 0.384237 4.40427 0
M  V30 87 N 7.3905 -1.2043 1.01659 0
M  V30 88 C 8.3205 -2.25466 0.607226 0
M  V30 89 C 9.3015 -1.65853 -0.377716 0
M  V30 90 O 10.4865 -1.92409 -0.263149 0
M  V30 91 C 7.6165 -3.47256 -0.0552949 0
M  V30 92 C 6.5705 -4.19462 0.850632 0
M  V30 93 C 5.8965 -5.34673 0.0538859 0
M  V30 94 C 7.1965 -4.75603 2.15868 0
M  V30 95 H 8.8905 -2.59962 1.48526 0
M  V30 96 H 6.4365 -1.2496 0.715605 0
M  V30 97 H 8.3895 -4.19917 -0.353233 0
M  V30 98 H 7.1135 -3.11924 -0.968045 0
M  V30 99 H 5.7725 -3.48667 1.13257 0
M  V30 100 H 5.4205 -4.95585 -0.860514 0
M  V30 101 H 5.1205 -5.83913 0.657192 0
M  V30 102 H 6.6445 -6.10138 -0.237598 0
M  V30 103 H 8.0585 -5.40083 1.92311 0
M  V30 104 H 6.4555 -5.3528 2.71284 0
M  V30 105 H 7.5255 -3.94346 2.82169 0
M  V30 106 N 8.8686 -0.792821 -1.36206 0
M  V30 107 C 10.2796 -0.429513 -1.81692 0
M  V30 108 C 10.6306 1.04695 -1.65932 0
M  V30 109 O 9.7556 1.81256 -1.18218 0
M  V30 110 C 10.3506 -0.772831 -3.29868 0
M  V30 111 C 8.9096 -0.462307 -3.7355 0
M  V30 112 C 8.0566 -1.00569 -2.5842 0
M  V30 113 H 11.0076 -0.985672 -1.24379 0
M  V30 114 H 11.0286 -0.0651928 -3.80444 0
M  V30 115 H 10.5406 -1.84747 -3.41307 0
M  V30 116 H 8.6416 0.604158 -3.67669 0
M  V30 117 H 8.7546 -0.985299 -4.68859 0
M  V30 118 H 7.1186 -0.428734 -2.51066 0
M  V30 119 H 7.9016 -2.08616 -2.72643 0
M  V30 120 N 10.3467 1.47872 -0.545128 0
M  V30 121 C 11.5927 2.02793 -0.0166104 0
M  V30 122 C 11.9257 1.41987 1.32489 0
M  V30 123 O 11.2007 0.571045 1.85928 0
M  V30 124 C 11.4837 3.59989 0.0893294 0
M  V30 125 C 11.3367 4.3125 -1.27841 0
M  V30 126 C 12.6557 4.32606 0.808724 0
M  V30 127 H 9.7747 0.736962 -0.00751035 0
M  V30 128 H 12.4167 1.76433 -0.705085 0
M  V30 129 H 10.5667 3.82579 0.675681 0
M  V30 130 H 12.2387 4.20035 -1.90704 0
M  V30 131 H 10.4817 3.92076 -1.85632 0
M  V30 132 H 11.1527 5.39736 -1.15713 0
M  V30 133 H 13.6287 4.14936 0.310992 0
M  V30 134 H 12.5047 5.42251 0.851782 0
M  V30 135 H 12.7657 4.00963 1.86229 0
M  V30 136 N 11.8248 0.280983 1.55075 0
M  V30 137 C 12.7548 -0.597469 2.25727 0
M  V30 138 C 13.7358 -1.15417 1.24952 0
M  V30 139 O 14.9208 -1.18722 1.53684 0
M  V30 140 C 12.0508 -1.7789 2.98283 0
M  V30 141 C 11.0048 -1.35347 4.06036 0
M  V30 142 C 10.3308 -2.61846 4.66198 0
M  V30 143 C 11.6308 -0.499354 5.19907 0
M  V30 144 H 13.3248 -0.00824265 2.99399 0
M  V30 145 H 10.8708 -0.0025244 1.44 0
M  V30 146 H 12.8238 -2.39937 3.46422 0
M  V30 147 H 11.5478 -2.39405 2.22155 0
M  V30 148 H 10.2068 -0.756156 3.58717 0
M  V30 149 H 9.8548 -3.21632 3.86732 0
M  V30 150 H 9.5548 -2.3409 5.38958 0
M  V30 151 H 11.0788 -3.24732 5.1709 0
M  V30 152 H 12.4928 -1.02498 5.64063 0
M  V30 153 H 10.8898 -0.316424 5.99265 0
M  V30 154 H 11.9598 0.480459 4.82514 0
M  V30 155 N 13.3029 -1.57598 0.00835791 0
M  V30 156 C 14.2329 -2.1198 -0.979113 0
M  V30 157 C 15.2139 -1.03091 -1.35301 0
M  V30 158 O 16.3989 -1.30818 -1.43528 0
M  V30 159 C 13.5289 -2.62995 -2.26828 0
M  V30 160 C 12.4829 -3.76485 -2.03576 0
M  V30 161 C 11.8089 -4.13846 -3.38579 0
M  V30 162 C 13.1089 -5.0342 -1.39161 0
M  V30 163 H 14.8029 -2.94738 -0.526281 0
M  V30 164 H 12.3489 -1.41783 -0.251704 0
M  V30 165 H 14.3019 -2.99669 -2.96271 0
M  V30 166 H 13.0259 -1.7737 -2.7424 0
M  V30 167 H 11.6849 -3.40217 -1.36557 0
M  V30 168 H 11.3329 -3.25232 -3.83709 0
M  V30 169 H 11.0329 -4.90312 -3.23834 0
M  V30 170 H 12.5569 -4.53086 -4.09323 0
M  V30 171 H 13.9709 -5.37812 -1.98573 0
M  V30 172 H 12.3679 -5.84746 -1.34878 0
M  V30 173 H 13.4379 -4.83548 -0.361868 0
M  V30 174 N 14.781 0.264519 -1.55364 0
M  V30 175 C 16.029 0.993021 -1.76021 0
M  V30 176 C 16.35 1.86511 -0.569099 0
M  V30 177 O 15.62 1.91438 0.415735 0
M  V30 178 H 14.2 0.369639 -0.649135 0
M  V30 179 H 16.862 0.286707 -1.9278 0
M  V30 180 H 15.958 1.62502 -2.66457 0
M  V30 181 N 16.2591 1.48442 0.529413 0
M  V30 182 C 17.5081 1.55742 1.28169 0
M  V30 183 C 17.8211 0.236511 1.94165 0
M  V30 184 O 19.0271 0.187761 2.7085 0
M  V30 185 C 17.4831 2.74667 2.32564 0
M  V30 186 C 17.0911 4.13402 1.72636 0
M  V30 187 C 18.8351 2.9128 3.08798 0
M  V30 188 C 16.7421 5.23587 2.74975 0
M  V30 189 H 15.6721 0.579796 0.48203 0
M  V30 190 H 18.3231 1.74776 0.559056 0
M  V30 191 H 16.7051 2.49067 3.07866 0
M  V30 192 H 17.8791 4.49022 1.03519 0
M  V30 193 H 16.1941 4.0191 1.08892 0
M  V30 194 H 18.7911 3.70767 3.85274 0
M  V30 195 H 19.1341 2.00757 3.64695 0
M  V30 196 H 19.6671 3.16782 2.40611 0
M  V30 197 H 16.4061 6.16076 2.23897 0
M  V30 198 H 15.9261 4.92454 3.42417 0
M  V30 199 H 17.6051 5.51724 3.37949 0
M  V30 200 N 17.7372 -0.778329 1.37039 0
M  V30 201 C 18.6672 -1.90546 1.34962 0
M  V30 202 C 19.6482 -1.68681 0.219274 0
M  V30 203 O 20.8332 -1.89634 0.418624 0
M  V30 204 C 17.9632 -3.27734 1.14925 0
M  V30 205 C 16.9172 -3.64147 2.24902 0
M  V30 206 C 16.2432 -4.99806 1.89996 0
M  V30 207 C 17.5432 -3.71579 3.67051 0
M  V30 208 H 19.2372 -1.92541 2.29277 0
M  V30 209 H 16.7832 -0.924948 1.10366 0
M  V30 210 H 18.7362 -4.06215 1.12104 0
M  V30 211 H 17.4602 -3.26154 0.170631 0
M  V30 212 H 16.1192 -2.8797 2.26868 0
M  V30 213 H 15.7672 -4.94759 0.906796 0
M  V30 214 H 15.4672 -5.25139 2.63634 0
M  V30 215 H 16.9912 -5.80694 1.88749 0
M  V30 216 H 18.4052 -4.40227 3.67251 0
M  V30 217 H 16.8022 -4.08405 4.39688 0
M  V30 218 H 17.8722 -2.72404 4.01154 0
M  V30 219 N 19.2153 -1.21501 -1.00376 0
M  V30 220 C 20.1453 -0.999478 -2.11028 0
M  V30 221 C 21.1263 0.0759671 -1.6993 0
M  V30 222 O 22.3113 -0.0841106 -1.94018 0
M  V30 223 C 19.4413 -0.564709 -3.42678 0
M  V30 224 C 18.3953 -1.58486 -3.97576 0
M  V30 225 C 17.7213 -1.00628 -5.25146 0
M  V30 226 C 19.0213 -2.97204 -4.29496 0
M  V30 227 H 20.7153 -1.92495 -2.29317 0
M  V30 228 H 18.2613 -0.92693 -1.102 0
M  V30 229 H 20.2143 -0.401091 -4.19487 0
M  V30 230 H 18.9383 0.396411 -3.24185 0
M  V30 231 H 17.5973 -1.73606 -3.22888 0
M  V30 232 H 17.2453 -0.0368439 -5.02987 0
M  V30 233 H 16.9453 -1.68771 -5.62841 0
M  V30 234 H 18.4693 -0.854015 -6.04598 0
M  V30 235 H 19.8833 -2.8552 -4.97143 0
M  V30 236 H 18.2803 -3.62372 -4.78338 0
M  V30 237 H 19.3503 -3.47956 -3.3772 0
M  V30 238 N 20.6934 1.19889 -1.02296 0
M  V30 239 C 21.9424 1.88743 -0.711257 0
M  V30 240 C 22.2554 1.80112 0.762817 0
M  V30 241 O 23.4614 2.44161 1.18733 0
M  V30 242 C 21.9174 3.38525 -1.22185 0
M  V30 243 C 21.5254 3.55727 -2.72328 0
M  V30 244 C 23.2694 4.12893 -0.985864 0
M  V30 245 C 21.1764 4.99369 -3.16835 0
M  V30 246 H 20.1064 0.706885 -0.262353 0
M  V30 247 H 22.7574 1.35586 -1.23648 0
M  V30 248 H 21.1394 3.91044 -0.624571 0
M  V30 249 H 22.3134 3.13564 -3.3766 0
M  V30 250 H 20.6284 2.94739 -2.9414 0
M  V30 251 H 23.2254 5.18813 -1.29374 0
M  V30 252 H 23.5684 4.16228 0.0775055 0
M  V30 253 H 24.1014 3.66494 -1.54684 0
M  V30 254 H 20.8404 5.01193 -4.22476 0
M  V30 255 H 20.3604 5.42317 -2.56228 0
M  V30 256 H 22.0394 5.67988 -3.09837 0
M  V30 257 N 22.1715 0.800033 1.35784 0
M  V30 258 C 23.1015 0.220184 2.3246 0
M  V30 259 C 24.0825 -0.65073 1.57161 0
M  V30 260 O 25.2675 -0.582359 1.85263 0
M  V30 261 C 22.3975 -0.637353 3.41402 0
M  V30 262 C 21.3515 0.134531 4.27789 0
M  V30 263 C 20.6775 -0.844285 5.27992 0
M  V30 264 C 21.9775 1.32979 5.05088 0
M  V30 265 H 23.6715 1.02787 2.81203 0
M  V30 266 H 21.2175 0.495717 1.35199 0
M  V30 267 H 23.1705 -1.05302 4.08031 0
M  V30 268 H 21.8945 -1.47785 2.91251 0
M  V30 269 H 20.5535 0.531296 3.6273 0
M  V30 270 H 20.2015 -1.68011 4.74111 0
M  V30 271 H 19.9015 -0.332184 5.8666 0
M  V30 272 H 21.4255 -1.2583 5.97494 0
M  V30 273 H 22.8395 0.98934 5.64699 0
M  V30 274 H 21.2365 1.77593 5.7322 0
M  V30 275 H 22.3065 2.11978 4.36111 0
M  V30 276 N 23.6496 -1.47581 0.552962 0
M  V30 277 C 24.5816 -2.27997 -0.234533 0
M  V30 278 C 25.5946 -1.36753 -0.883321 0
M  V30 279 O 26.7836 -1.61612 -0.757889 0
M  V30 280 C 23.8836 -3.10879 -1.34935 0
M  V30 281 C 23.0566 -4.30056 -0.798158 0
M  V30 282 C 22.1156 -4.94567 -1.79694 0
M  V30 283 O 21.1416 -5.53087 -1.34474 0
M  V30 284 N 22.3436 -4.88878 -3.13015 0
M  V30 285 H 25.1086 -2.96222 0.455255 0
M  V30 286 H 22.6696 -1.57163 0.388761 0
M  V30 287 H 24.6616 -3.50903 -2.01616 0
M  V30 288 H 23.2316 -2.44924 -1.94244 0
M  V30 289 H 22.4516 -3.94174 0.0453079 0
M  V30 290 H 23.7396 -5.07152 -0.409173 0
M  V30 291 H 23.1376 -4.42526 -3.52402 0
M  V30 292 H 21.6946 -5.32934 -3.75266 0
M  V30 293 N 25.1277 -0.289203 -1.54924 0
M  V30 294 C 26.3527 0.329299 -2.04769 0
M  V30 295 C 26.7777 1.4763 -1.16564 0
M  V30 296 O 26.1357 1.80527 -0.167186 0
M  V30 297 C 26.1837 0.774438 -3.52186 0
M  V30 298 O 25.2877 1.88038 -3.67036 0
M  V30 299 H 24.6287 0.0659259 -0.660719 0
M  V30 300 H 27.1587 -0.42761 -2.00082 0
M  V30 301 H 27.1687 1.06642 -3.93816 0
M  V30 302 H 25.8437 -0.0646707 -4.1585 0
M  V30 303 H 24.4207 1.58985 -3.3731 0
M  V30 304 N 26.6058 1.57591 -0.0167156 0
M  V30 305 C 28.0218 1.55946 0.339557 0
M  V30 306 C 28.2218 1.02109 1.73713 0
M  V30 307 O 27.2778 0.662303 2.43659 0
M  V30 308 C 28.5908 3.00037 0.199499 0
M  V30 309 C 30.1388 3.11805 0.273193 0
M  V30 310 C 30.6138 4.57713 0.162068 0
M  V30 311 N 32.1048 4.6268 0.219444 0
M  V30 312 C 32.8398 5.73185 0.157054 0
M  V30 313 N 32.3358 6.92786 0.0442936 0
M  V30 314 N 34.1288 5.61707 0.21014 0
M  V30 315 H 26.2798 1.90921 -0.930758 0
M  V30 316 H 28.5428 0.877674 -0.358319 0
M  V30 317 H 28.2488 3.4333 -0.76273 0
M  V30 318 H 28.1228 3.64387 0.974786 0
M  V30 319 H 30.5098 2.68433 1.22587 0
M  V30 320 H 30.5908 2.50201 -0.532256 0
M  V30 321 H 30.2348 5.01763 -0.78714 0
M  V30 322 H 30.1648 5.17283 0.986222 0
M  V30 323 H 32.6558 3.76649 0.307246 0
M  V30 324 H 32.9688 7.728 0.00304069 0
M  V30 325 H 31.3138 6.94999 0.00968457 0
M  V30 326 H 34.5048 4.6716 0.296546 0
M  V30 327 H 34.6778 6.47807 0.158054 0
M  V30 328 N 28.0839 -0.256276 1.55502 0
M  V30 329 C 29.3299 -0.987079 1.77157 0
M  V30 330 C 29.6629 -1.85327 0.580315 0
M  V30 331 O 28.9379 -1.89874 -0.421686 0
M  V30 332 C 29.2209 -1.85553 3.08613 0
M  V30 333 C 29.0739 -1.01816 4.38125 0
M  V30 334 C 30.3929 -2.8397 3.36228 0
M  V30 335 H 27.5119 -0.357428 0.644526 0
M  V30 336 H 30.1539 -0.258239 1.88237 0
M  V30 337 H 28.3039 -2.47695 2.99298 0
M  V30 338 H 29.9759 -0.416159 4.59419 0
M  V30 339 H 28.2189 -0.322178 4.32602 0
M  V30 340 H 28.8899 -1.65939 5.26468 0
M  V30 341 H 31.3659 -2.31964 3.45445 0
M  V30 342 H 30.2419 -3.41864 4.29442 0
M  V30 343 H 30.5029 -3.59955 2.56681 0
M  V30 344 N 29.562 -1.4872 -0.521534 0
M  V30 345 C 30.472 -1.66569 -1.65203 0
M  V30 346 C 31.488 -0.548197 -1.65139 0
M  V30 347 O 32.664 -0.820339 -1.83936 0
M  V30 348 C 29.729 -1.70917 -3.01642 0
M  V30 349 C 28.79 -2.94356 -3.12495 0
M  V30 350 C 28.023 -2.98487 -4.42426 0
M  V30 351 O 28.246 -2.10786 -5.30024 0
M  V30 352 O 27.18 -3.90746 -4.57822 0
M  V30 353 H 31.006 -2.62298 -1.5308 0
M  V30 354 H 28.591 -1.3222 -0.695565 0
M  V30 355 H 30.473 -1.7625 -3.82771 0
M  V30 356 H 29.148 -0.783633 -3.14071 0
M  V30 357 H 28.055 -2.94552 -2.3063 0
M  V30 358 H 29.388 -3.86322 -3.04986 0
M  V30 359 N 31.0401 0.771051 -1.3745 0
M  V30 360 C 32.2881 1.52661 -1.32435 0
M  V30 361 C 32.6091 1.9479 0.0905024 0
M  V30 362 O 31.8791 1.66348 1.03466 0
M  V30 363 H 30.4591 0.566218 -0.487244 0
M  V30 364 H 33.1211 0.917636 -1.71946 0
M  V30 365 H 32.2171 2.42568 -1.96385 0
M  V30 366 N 32.5182 1.22032 0.997298 0
M  V30 367 C 33.9292 1.0397 1.55071 0
M  V30 368 C 34.2802 -0.398192 1.92117 0
M  V30 369 O 33.4052 -1.28254 1.74298 0
M  V30 370 C 34.0002 1.88109 2.81781 0
M  V30 371 C 32.5592 1.74357 3.33581 0
M  V30 372 C 31.7062 1.84846 2.06706 0
M  V30 373 H 34.6572 1.35941 0.818883 0
M  V30 374 H 34.6782 1.39589 3.53971 0
M  V30 375 H 34.1902 2.92754 2.54787 0
M  V30 376 H 32.2912 0.72427 3.65493 0
M  V30 377 H 32.4042 2.56772 4.04481 0
M  V30 378 H 30.7682 1.28238 2.20062 0
M  V30 379 H 31.5512 2.91014 1.82114 0
M  V30 380 N 33.9963 -1.19345 1.0293 0
M  V30 381 C 34.9283 -2.22036 0.56857 0
M  V30 382 C 35.9413 -1.58865 -0.355779 0
M  V30 383 O 37.1303 -1.77851 -0.152103 0
M  V30 384 C 34.2303 -3.38363 -0.190752 0
M  V30 385 C 33.4033 -4.31118 0.738643 0
M  V30 386 C 32.4623 -5.26194 0.0246497 0
M  V30 387 O 31.4883 -5.65461 0.651354 0
M  V30 388 N 32.6903 -5.66971 -1.24594 0
M  V30 389 H 35.4553 -2.6219 1.45177 0
M  V30 390 H 33.0163 -1.34015 0.908381 0
M  V30 391 H 35.0083 -3.98981 -0.677961 0
M  V30 392 H 33.5783 -2.96994 -0.975366 0
M  V30 393 H 32.7983 -3.68276 1.40593 0
M  V30 394 H 34.0863 -4.90001 1.37029 0
M  V30 395 H 33.4843 -5.37104 -1.77583 0
M  V30 396 H 32.0413 -6.2984 -1.67764 0
M  V30 397 N 35.4744 -0.807222 -1.35358 0
M  V30 398 C 36.7024 -0.400377 -2.02989 0
M  V30 399 C 37.1174 0.988859 -1.60832 0
M  V30 400 O 36.4744 1.63729 -0.806175 0
M  V30 401 C 36.5254 -0.474867 -3.58368 0
M  V30 402 O 36.2464 -1.80933 -3.98992 0
M  V30 403 C 37.7474 -0.0609112 -4.43258 0
M  V30 404 H 34.9674 -0.162587 -0.651004 0
M  V30 405 H 37.5114 -1.09102 -1.72965 0
M  V30 406 H 35.6664 0.167534 -3.87038 0
M  V30 407 H 36.0804 -1.77256 -4.9364 0
M  V30 408 H 37.5544 -0.164145 -5.51756 0
M  V30 409 H 38.0314 0.993831 -4.27808 0
M  V30 410 H 38.6374 -0.676492 -4.19885 0
M  V30 411 N 36.9525 1.47285 -0.560781 0
M  V30 412 C 37.8625 2.33846 0.187954 0
M  V30 413 C 38.8785 1.48412 0.908293 0
M  V30 414 O 40.0545 1.81332 0.876388 0
M  V30 415 C 37.1195 3.25178 1.2025 0
M  V30 416 C 36.1805 4.26504 0.489208 0
M  V30 417 C 35.4135 5.13472 1.45542 0
M  V30 418 O 35.6365 5.02959 2.6905 0
M  V30 419 O 34.5705 5.93902 0.977963 0
M  V30 420 H 38.3965 2.99177 -0.522177 0
M  V30 421 H 35.9815 1.45903 -0.321364 0
M  V30 422 H 37.8635 3.81584 1.78805 0
M  V30 423 H 36.5385 2.6247 1.89449 0
M  V30 424 H 35.4455 3.73847 -0.137627 0
M  V30 425 H 36.7785 4.91935 -0.161399 0
M  V30 426 N 38.4306 0.297415 1.54768 0
M  V30 427 C 39.6556 -0.318435 2.04941 0
M  V30 428 C 40.0806 -1.4701 1.17345 0
M  V30 429 O 39.4386 -1.80436 0.176758 0
M  V30 430 C 39.4866 -0.755749 3.52592 0
M  V30 431 O 38.5906 -1.86088 3.68028 0
M  V30 432 H 37.9316 -0.062421 0.661059 0
M  V30 433 H 40.4616 0.438215 1.99852 0
M  V30 434 H 40.4716 -1.04552 3.94376 0
M  V30 435 H 39.1466 0.0867233 4.1581 0
M  V30 436 H 37.7236 -1.57193 3.38149 0
M  V30 437 N 39.9087 -1.5758 0.0250728 0
M  V30 438 C 40.8557 -2.09973 -0.958129 0
M  V30 439 C 41.8257 -1.00085 -1.3256 0
M  V30 440 O 43.0107 -1.27481 -1.41962 0
M  V30 441 C 40.1507 -2.62812 -2.2366 0
M  V30 442 C 39.2637 -3.86693 -1.92594 0
M  V30 443 C 38.3987 -4.27941 -3.14707 0
M  V30 444 C 37.4377 -5.44591 -2.79442 0
M  V30 445 N 36.5747 -5.81014 -3.94167 0
M  V30 446 H 41.4147 -2.937 -0.504428 0
M  V30 447 H 38.9517 -1.45172 -0.237392 0
M  V30 448 H 40.9097 -2.91536 -2.98434 0
M  V30 449 H 39.5397 -1.81922 -2.66654 0
M  V30 450 H 38.5917 -3.64723 -1.0808 0
M  V30 451 H 39.9037 -4.71547 -1.62619 0
M  V30 452 H 39.0577 -4.58079 -3.97804 0
M  V30 453 H 37.7967 -3.41845 -3.4784 0
M  V30 454 H 36.8017 -5.1415 -1.94755 0
M  V30 455 H 38.0267 -6.32382 -2.47528 0
M  V30 456 H 35.9727 -4.97874 -4.2715 0
M  V30 457 H 35.8897 -6.60498 -3.67801 0
M  V30 458 H 37.1577 -6.15756 -4.7798 0
M  V30 459 N 41.3868 0.248026 -1.55636 0
M  V30 460 C 42.3348 1.32683 -1.91045 0
M  V30 461 C 43.3288 1.49883 -0.789401 0
M  V30 462 O 44.5348 1.51371 -0.974007 0
M  V30 463 H 40.9098 0.444272 -0.606734 0
M  V30 464 H 42.8808 1.00085 -2.81115 0
M  V30 465 C 41.6298 2.6755 -2.22064 0
M  V30 466 H 40.9528 2.55114 -3.07826 0
M  V30 467 H 42.3928 3.41912 -2.50743 0
M  V30 468 C 40.8518 3.20556 -1.0366 0
M  V30 469 O 41.3818 4.00695 -0.284016 0
M  V30 470 N 39.5878 2.78568 -0.82753 0
M  V30 471 H 39.1348 2.1351 -1.44123 0
M  V30 472 H 39.0928 3.14378 -0.0369803 0
M  V30 473 N 42.8649 1.48995 0.513639 0
M  V30 474 C 43.7749 1.67443 1.64317 0
M  V30 475 C 44.7909 0.556947 1.64846 0
M  V30 476 O 45.9669 0.830082 1.83498 0
M  V30 477 C 43.0319 1.72515 3.00732 0
M  V30 478 C 42.0929 2.96009 3.1093 0
M  V30 479 C 41.3259 3.00829 4.40837 0
M  V30 480 O 41.5489 2.13594 5.28898 0
M  V30 481 O 40.4829 3.93168 4.55744 0
M  V30 482 H 44.3089 2.63106 1.51687 0
M  V30 483 H 41.8939 1.32588 0.688543 0
M  V30 484 H 43.7759 1.78277 3.81831 0
M  V30 485 H 42.4509 0.800278 3.13651 0
M  V30 486 H 41.3579 2.9577 2.29065 0
M  V30 487 H 42.6909 3.87934 3.02933 0
M  V30 488 N 44.343 -0.763751 1.37857 0
M  V30 489 C 45.306 -1.85889 1.34081 0
M  V30 490 C 46.306 -1.58949 0.243277 0
M  V30 491 O 47.496 -1.66882 0.499589 0
M  V30 492 C 44.628 -3.23176 1.08489 0
M  V30 493 H 45.821 -1.90648 2.31502 0
M  V30 494 H 43.374 -0.964367 1.23003 0
M  V30 495 H 44.109 -3.24091 0.116318 0
M  V30 496 H 43.894 -3.44124 1.8794 0
M  V30 497 H 45.384 -4.03254 1.08517 0
M  V30 498 N 45.8211 -1.22559 -0.990812 0
M  V30 499 C 47.0461 -1.07862 -1.77145 0
M  V30 500 C 47.4711 0.366447 -1.84496 0
M  V30 501 O 46.8291 1.26478 -1.29896 0
M  V30 502 C 46.8771 -1.69686 -3.18181 0
M  V30 503 O 45.9811 -0.951946 -4.01263 0
M  V30 504 H 45.3221 -0.378712 -0.545411 0
M  V30 505 H 47.8521 -1.62399 -1.2445 0
M  V30 506 H 47.8621 -1.74496 -3.68802 0
M  V30 507 H 46.5371 -2.74841 -3.12146 0
M  V30 508 H 45.1141 -0.980011 -3.59792 0
M  V30 509 N 47.2992 1.18797 -1.03562 0
M  V30 510 C 48.5242 1.9314 -0.755764 0
M  V30 511 C 48.9492 1.7537 0.68022 0
M  V30 512 O 48.3072 1.06046 1.47051 0
M  V30 513 C 48.3552 3.42747 -1.12058 0
M  V30 514 O 47.4592 4.11683 -0.243124 0
M  V30 515 H 46.8002 0.602724 -0.278604 0
M  V30 516 H 49.3302 1.50678 -1.3841 0
M  V30 517 H 49.3402 3.93437 -1.08035 0
M  V30 518 H 48.0152 3.55002 -2.16672 0
M  V30 519 H 46.5922 3.71323 -0.342539 0
M  V30 520 N 48.7773 0.814389 1.34928 0
M  V30 521 C 50.1933 0.499084 1.51596 0
M  V30 522 C 50.3933 -0.978319 1.76157 0
M  V30 523 O 49.4493 -1.76309 1.80752 0
M  V30 524 C 50.7623 1.35121 2.68631 0
M  V30 525 C 52.3103 1.34746 2.82511 0
M  V30 526 C 52.7853 2.18388 4.0258 0
M  V30 527 N 54.2763 2.15966 4.09772 0
M  V30 528 C 55.0113 2.77437 5.01813 0
M  V30 529 N 54.5073 3.47866 5.99134 0
M  V30 530 N 56.3003 2.67037 4.94619 0
M  V30 531 H 48.4513 1.7711 1.17243 0
M  V30 532 H 50.7143 0.754256 0.574284 0
M  V30 533 H 50.4203 2.40001 2.57085 0
M  V30 534 H 50.2943 1.00991 3.63429 0
M  V30 535 H 52.6813 0.30648 2.93504 0
M  V30 536 H 52.7623 1.72869 1.88547 0
M  V30 537 H 52.4063 3.2253 3.92347 0
M  V30 538 H 52.3363 1.77621 4.9574 0
M  V30 539 H 54.8273 1.64729 3.40107 0
M  V30 540 H 55.1403 3.92038 6.65977 0
M  V30 541 H 53.4853 3.51972 5.99284 0
M  V30 542 H 56.6763 2.11597 4.17546 0
M  V30 543 H 56.8493 3.15232 5.66156 0
M  V30 544 N 50.2554 -1.46986 0.568584 0
M  V30 545 C 51.5324 -1.95592 -0.0174074 0
M  V30 546 C 51.9124 -1.51124 -1.47393 0
M  V30 547 O 51.2604 -0.755329 -2.15655 0
M  V30 548 C 51.4704 -3.48719 0.139913 0
M  V30 549 C 52.8184 -4.246 0.000426376 0
M  V30 550 O 53.8424 -3.56135 0.0680316 0
M  V30 551 O 52.7014 -5.46302 -0.146988 0
M  V30 552 H 49.7954 -0.82498 -0.0577599 0
M  V30 553 H 52.3414 -1.57335 0.635909 0
M  V30 554 H 51.1134 -3.73927 1.15301 0
M  V30 555 H 50.7364 -3.93771 -0.550491 0
M  V30 556 N 51.7335 -0.305618 -1.54608 0
M  V30 557 C 52.9795 0.302746 -2.00528 0
M  V30 558 C 53.3125 1.53184 -1.19367 0
M  V30 559 O 52.5875 1.92598 -0.271321 0
M  V30 560 C 52.8705 0.654756 -3.54097 0
M  V30 561 C 52.7235 -0.583793 -4.45995 0
M  V30 562 C 54.0425 1.47947 -4.14487 0
M  V30 563 H 51.1615 0.108564 -0.72896 0
M  V30 564 H 53.8035 -0.418634 -1.85331 0
M  V30 565 H 51.9535 1.26935 -3.67178 0
M  V30 566 H 53.6255 -1.22224 -4.44814 0
M  V30 567 H 51.8685 -1.21615 -4.16404 0
M  V30 568 H 52.5395 -0.293287 -5.5122 0
M  V30 569 H 55.0155 0.96013 -4.04871 0
M  V30 570 H 53.8915 1.69454 -5.22088 0
M  V30 571 H 54.1525 2.47011 -3.66658 0
M  V30 572 N 53.2116 1.57565 -0.0334293 0
M  V30 573 C 54.4576 1.92262 0.645226 0
M  V30 574 C 54.7906 0.910543 1.71531 0
M  V30 575 O 54.0656 -0.066099 1.94388 0
M  V30 576 C 54.3486 3.37422 1.2577 0
M  V30 577 C 54.2016 4.49369 0.196891 0
M  V30 578 C 55.5206 3.82628 2.17449 0
M  V30 579 H 52.6396 0.699171 0.233085 0
M  V30 580 H 55.2816 1.89779 -0.0915694 0
M  V30 581 H 53.4316 3.39669 1.88566 0
M  V30 582 H 55.1036 4.59254 -0.433962 0
M  V30 583 H 53.3466 4.31168 -0.477137 0
M  V30 584 H 54.0176 5.47978 0.665124 0
M  V30 585 H 56.4936 3.82145 1.64634 0
M  V30 586 H 55.3696 4.84883 2.57254 0
M  V30 587 H 55.6306 3.18376 3.0674 0
M  V30 588 N 54.6897 -0.239769 1.55765 0
M  V30 589 C 55.9197 -0.982743 1.8173 0
M  V30 590 C 56.3277 -1.7917 0.607835 0
M  V30 591 O 55.6707 -1.78525 -0.432973 0
M  V30 592 C 55.7327 -1.96332 3.01155 0
M  V30 593 C 55.3967 -1.34062 4.36894 0
M  V30 594 C 56.3937 -0.739539 5.14613 0
M  V30 595 C 54.0787 -1.35784 4.83599 0
M  V30 596 C 56.0727 -0.163989 6.37189 0
M  V30 597 C 53.7597 -0.778441 6.06122 0
M  V30 598 C 54.7577 -0.182548 6.82756 0
M  V30 599 O 54.4457 0.387887 8.02964 0
M  V30 600 H 54.1777 -0.294481 0.608487 0
M  V30 601 H 56.7317 -0.26572 2.03674 0
M  V30 602 H 54.9617 -2.71884 2.74984 0
M  V30 603 H 56.6507 -2.57032 3.14149 0
M  V30 604 H 57.4167 -0.718687 4.79646 0
M  V30 605 H 53.2957 -1.81105 4.23936 0
M  V30 606 H 56.8397 0.301753 6.96947 0
M  V30 607 H 52.7367 -0.796645 6.40565 0
M  V30 608 H 53.5047 0.28044 8.18019 0
M  V30 609 N 56.1678 -1.49265 -0.50573 0
M  V30 610 C 57.4158 -1.582 -1.25766 0
M  V30 611 C 57.7368 -0.268482 -1.93143 0
M  V30 612 O 57.0068 0.711833 -1.8251 0
M  V30 613 H 55.5868 -0.582873 -0.467191 0
M  V30 614 H 58.2488 -1.85865 -0.586525 0
M  V30 615 H 57.3448 -2.37563 -2.02412 0
M  V30 616 N 57.6459 0.756429 -1.3826 0
M  V30 617 C 59.0569 1.33359 -1.30661 0
M  V30 618 C 59.4079 1.96161 0.0388875 0
M  V30 619 O 58.5329 1.94874 0.940918 0
M  V30 620 C 59.1279 2.42477 -2.36622 0
M  V30 621 C 57.6869 2.95922 -2.3261 0
M  V30 622 C 56.8339 1.69275 -2.19639 0
M  V30 623 H 59.7849 0.55552 -1.4866 0
M  V30 624 H 59.8059 3.22345 -2.02174 0
M  V30 625 H 59.3179 1.96739 -3.34538 0
M  V30 626 H 57.4189 3.45996 -1.38267 0
M  V30 627 H 57.5319 3.50494 -3.26636 0
M  V30 628 H 55.8959 1.92793 -1.66442 0
M  V30 629 H 56.6789 1.25619 -3.19491 0
M  V30 630 N 59.124 1.23083 0.984299 0
M  V30 631 C 60.056 0.96636 2.07832 0
M  V30 632 C 61.069 -0.0582135 1.62696 0
M  V30 633 O 62.258 0.176843 1.77622 0
M  V30 634 C 59.358 0.433397 3.36117 0
M  V30 635 C 58.531 1.51722 4.10243 0
M  V30 636 C 57.59 0.989821 5.16807 0
M  V30 637 O 56.616 1.67794 5.43906 0
M  V30 638 N 57.818 -0.184367 5.80207 0
M  V30 639 H 60.583 1.90824 2.31098 0
M  V30 640 H 58.144 1.13888 1.1507 0
M  V30 641 H 60.136 0.065699 4.04647 0
M  V30 642 H 58.706 -0.413806 3.09849 0
M  V30 643 H 57.926 2.05786 3.36223 0
M  V30 644 H 59.214 2.24619 4.56534 0
M  V30 645 H 58.612 -0.760062 5.60571 0
M  V30 646 H 57.169 -0.493366 6.4993 0
M  V30 647 N 60.6021 -1.18246 1.0419 0
M  V30 648 C 62.0131 -1.69914 0.773698 0
M  V30 649 C 62.3641 -1.83085 -0.705297 0
M  V30 650 O 61.4891 -1.51123 -1.5489 0
M  V30 651 C 62.0841 -3.08619 1.39784 0
M  V30 652 C 60.6431 -3.57494 1.17792 0
M  V30 653 C 59.7901 -2.34013 1.48773 0
M  V30 654 H 62.7411 -1.02904 1.20816 0
M  V30 655 H 62.7621 -3.71958 0.801714 0
M  V30 656 H 62.2741 -2.99001 2.47426 0
M  V30 657 H 60.3751 -3.72406 0.120295 0
M  V30 658 H 60.4881 -4.40852 1.87581 0
M  V30 659 H 58.8521 -2.37986 0.907463 0
M  V30 660 H 59.6351 -2.27013 2.57527 0
M  V30 661 N 62.0802 -0.821533 -1.34494 0
M  V30 662 C 63.0122 -0.199946 -2.28326 0
M  V30 663 C 64.0252 0.609377 -1.50965 0
M  V30 664 O 65.2142 0.439285 -1.7301 0
M  V30 665 C 62.3142 0.738431 -3.30757 0
M  V30 666 C 61.4872 -0.0277632 -4.37391 0
M  V30 667 C 60.5462 0.831332 -5.19591 0
M  V30 668 O 59.5722 0.276822 -5.68526 0
M  V30 669 N 60.7742 2.15132 -5.39165 0
M  V30 670 H 63.5392 -1.00609 -2.82308 0
M  V30 671 H 61.1002 -0.678366 -1.47003 0
M  V30 672 H 63.0922 1.31773 -3.82646 0
M  V30 673 H 61.6622 1.44533 -2.7718 0
M  V30 674 H 60.8822 -0.788359 -3.86236 0
M  V30 675 H 62.1702 -0.555251 -5.05761 0
M  V30 676 H 61.5682 2.62559 -5.01078 0
M  V30 677 H 60.1252 2.6795 -5.94177 0
M  V30 678 N 63.5583 1.46682 -0.576371 0
M  V30 679 C 64.9693 1.86112 -0.148091 0
M  V30 680 C 65.3203 1.48073 1.2872 0
M  V30 681 O 64.4453 0.892656 1.97131 0
M  V30 682 C 65.0403 3.37786 -0.261982 0
M  V30 683 C 63.5993 3.76235 0.111384 0
M  V30 684 C 62.7463 2.70713 -0.60083 0
M  V30 685 H 65.6973 1.37927 -0.78497 0
M  V30 686 H 65.7183 3.77007 0.514364 0
M  V30 687 H 65.2303 3.6544 -1.30671 0
M  V30 688 H 63.3313 3.54198 1.15649 0
M  V30 689 H 63.4443 4.78391 -0.26052 0
M  V30 690 H 61.8083 2.54666 -0.0417783 0
M  V30 691 H 62.5913 3.01208 -1.64708 0
M  V30 692 N 65.0364 0.313813 1.54444 0
M  V30 693 C 65.9664 -0.549454 2.26943 0
M  V30 694 C 66.9474 -1.12741 1.27372 0
M  V30 695 O 68.1324 -1.15436 1.56167 0
M  V30 696 C 65.2624 -1.71523 3.01989 0
M  V30 697 C 64.2164 -1.26703 4.08816 0
M  V30 698 C 63.5424 -2.51898 4.71647 0
M  V30 699 C 64.8424 -0.388962 5.2085 0
M  V30 700 H 66.5364 0.0552661 2.99349 0
M  V30 701 H 64.0824 0.0280207 1.43973 0
M  V30 702 H 66.0354 -2.32535 3.51433 0
M  V30 703 H 64.7594 -2.34639 2.27183 0
M  V30 704 H 63.4184 -0.679896 3.6024 0
M  V30 705 H 63.0664 -3.13356 3.93468 0
M  V30 706 H 62.7664 -2.22605 5.43802 0
M  V30 707 H 64.2904 -3.1369 5.23861 0
M  V30 708 H 65.7044 -0.905107 5.6611 0
M  V30 709 H 64.1014 -0.18924 5.99802 0
M  V30 710 H 65.1714 0.582699 4.81386 0
M  V30 711 N 66.5145 -1.57545 0.0417849 0
M  V30 712 C 67.4245 -2.14451 -0.951213 0
M  V30 713 C 68.4405 -1.09992 -1.34825 0
M  V30 714 O 69.6165 -1.42114 -1.42708 0
M  V30 715 C 66.6815 -2.67063 -2.21084 0
M  V30 716 C 65.7425 -3.86284 -1.87304 0
M  V30 717 C 64.9755 -4.36378 -3.07261 0
M  V30 718 O 65.1985 -3.85587 -4.20332 0
M  V30 719 O 64.1325 -5.28077 -2.88822 0
M  V30 720 H 67.9585 -2.99601 -0.497287 0
M  V30 721 H 65.5435 -1.48317 -0.179567 0
M  V30 722 H 67.4255 -3.00914 -2.95006 0
M  V30 723 H 66.1005 -1.84989 -2.65633 0
M  V30 724 H 65.0075 -3.57338 -1.10727 0
M  V30 725 H 66.3405 -4.6956 -1.47562 0
M  V30 726 N 67.9926 0.231505 -1.5589 0
M  V30 727 C 68.9406 1.30649 -1.92441 0
M  V30 728 C 69.9346 1.49037 -0.805254 0
M  V30 729 O 71.1406 1.50329 -0.990007 0
M  V30 730 H 67.5156 0.437812 -0.611412 0
M  V30 731 H 69.4866 0.970973 -2.82161 0
M  V30 732 C 68.2356 2.65179 -2.24889 0
M  V30 733 H 67.5586 2.51835 -3.10514 0
M  V30 734 H 68.9986 3.39234 -2.54355 0
M  V30 735 C 67.4576 3.19439 -1.07054 0
M  V30 736 O 67.9876 4.00371 -0.326499 0
M  V30 737 N 66.1936 2.77675 -0.85703 0
M  V30 738 H 65.7406 2.11969 -1.46379 0
M  V30 739 H 65.6986 3.14321 -0.0703223 0
M  V30 740 N 69.4707 1.49531 0.497807 0
M  V30 741 C 70.4027 1.62559 1.61578 0
M  V30 742 C 71.4157 0.508134 1.54667 0
M  V30 743 O 72.6047 0.780309 1.60541 0
M  V30 744 C 69.7047 1.56925 3.00379 0
M  V30 745 C 68.8777 2.84257 3.3244 0
M  V30 746 C 67.9367 2.71632 4.50669 0
M  V30 747 O 66.9627 3.4557 4.52294 0
M  V30 748 N 68.1647 1.83391 5.5077 0
M  V30 749 H 70.9297 2.58981 1.50828 0
M  V30 750 H 68.4907 1.4666 0.685743 0
M  V30 751 H 70.4827 1.46129 3.77397 0
M  V30 752 H 69.0527 0.683483 3.05037 0
M  V30 753 H 68.2727 3.09381 2.44289 0
M  V30 754 H 69.5607 3.68666 3.5066 0
M  V30 755 H 68.9587 1.22583 5.52259 0
M  V30 756 H 67.5157 1.78515 6.26878 0
M  V30 757 N 70.9488 -0.749086 1.3866 0
M  V30 758 C 71.8788 -1.8764 1.38973 0
M  V30 759 C 72.8598 -1.68178 0.255004 0
M  V30 760 O 74.0448 -1.88704 0.458754 0
M  V30 761 C 71.1748 -3.25222 1.21851 0
M  V30 762 C 70.1288 -3.59295 2.32575 0
M  V30 763 C 69.4548 -4.95663 2.00555 0
M  V30 764 C 70.7548 -3.63709 3.7485 0
M  V30 765 H 72.4488 -1.87635 2.3331 0
M  V30 766 H 69.9948 -0.901329 1.12303 0
M  V30 767 H 71.9478 -4.03746 1.20695 0
M  V30 768 H 70.6718 -3.25719 0.239775 0
M  V30 769 H 69.3308 -2.83093 2.32925 0
M  V30 770 H 68.9788 -4.92724 1.01154 0
M  V30 771 H 68.6788 -5.19429 2.74714 0
M  V30 772 H 70.2028 -5.7656 2.01024 0
M  V30 773 H 71.6168 -4.32338 3.76506 0
M  V30 774 H 70.0138 -3.98986 4.48252 0
M  V30 775 H 71.0838 -2.63834 4.06841 0
M  V30 776 N 72.4269 -1.23603 -0.977757 0
M  V30 777 C 73.3569 -1.04401 -2.0886 0
M  V30 778 C 74.3379 0.0399052 -1.70053 0
M  V30 779 O 75.5229 -0.125246 -1.93796 0
M  V30 780 C 72.6529 -0.637269 -3.41403 0
M  V30 781 C 71.6069 -1.66883 -3.94124 0
M  V30 782 C 70.9329 -1.11745 -5.22893 0
M  V30 783 C 72.2329 -3.06247 -4.23096 0
M  V30 784 H 73.9269 -1.97316 -2.25182 0
M  V30 785 H 71.4729 -0.950096 -1.08209 0
M  V30 786 H 73.4259 -0.48998 -4.18542 0
M  V30 787 H 72.1499 0.327557 -3.24953 0
M  V30 788 H 70.8089 -1.80416 -3.19133 0
M  V30 789 H 70.4569 -0.143527 -5.02795 0
M  V30 790 H 70.1569 -1.80672 -5.59134 0
M  V30 791 H 71.6809 -0.982067 -6.02651 0
M  V30 792 H 73.0949 -2.96001 -4.90975 0
M  V30 793 H 71.4919 -3.72436 -4.70544 0
M  V30 794 H 72.5619 -3.55041 -3.30263 0
M  V30 795 N 73.905 1.17692 -1.04816 0
M  V30 796 C 75.13 1.92327 -0.776207 0
M  V30 797 C 75.555 1.76082 0.661581 0
M  V30 798 O 74.913 1.076 1.45917 0
M  V30 799 C 74.961 3.41539 -1.15687 0
M  V30 800 O 74.065 4.11402 -0.286775 0
M  V30 801 H 73.406 0.599735 -0.284981 0
M  V30 802 H 75.936 1.49201 -1.4 0
M  V30 803 H 75.946 3.92269 -1.12202 0
M  V30 804 H 74.621 3.52684 -2.20425 0
M  V30 805 H 73.198 3.70939 -0.381903 0
M  V30 806 N 75.3831 0.828654 1.34056 0
M  V30 807 C 76.2931 0.256725 2.33191 0
M  V30 808 C 77.3091 -0.611898 1.62886 0
M  V30 809 O 78.4851 -0.51844 1.94613 0
M  V30 810 C 75.5501 -0.567238 3.42028 0
M  V30 811 C 74.6111 0.324458 4.28072 0
M  V30 812 C 73.8441 -0.460274 5.31712 0
M  V30 813 O 74.0671 -1.693 5.44696 0
M  V30 814 O 73.0011 0.160391 6.01686 0
M  V30 815 H 76.8271 1.07739 2.83947 0
M  V30 816 H 74.4121 0.59093 1.37217 0
M  V30 817 H 76.2941 -1.03582 4.08471 0
M  V30 818 H 74.9691 -1.36513 2.93506 0
M  V30 819 H 73.8761 0.840659 3.64532 0
M  V30 820 H 75.2091 1.08685 4.8005 0
M  V30 821 N 76.8612 -1.46375 0.584142 0
M  V30 822 C 77.7712 -2.34115 -0.150728 0
M  V30 823 C 78.7872 -1.49838 -0.884567 0
M  V30 824 O 79.9632 -1.82704 -0.847429 0
M  V30 825 C 77.0282 -3.2705 -1.15062 0
M  V30 826 C 76.0892 -4.27228 -0.421293 0
M  V30 827 C 75.3222 -5.15722 -1.37355 0
M  V30 828 O 75.5452 -5.07176 -2.61014 0
M  V30 829 O 74.4792 -5.95383 -0.883355 0
M  V30 830 H 78.3052 -2.98309 0.569708 0
M  V30 831 H 75.8902 -1.45373 0.344535 0
M  V30 832 H 77.7722 -3.84381 -1.72712 0
M  V30 833 H 76.4472 -2.65451 -1.8525 0
M  V30 834 H 75.3542 -3.7358 0.197085 0
M  V30 835 H 76.6872 -4.91616 0.239641 0
M  V30 836 N 78.3393 -0.321999 -1.54275 0
M  V30 837 C 79.5673 0.283052 -2.04955 0
M  V30 838 C 79.9823 1.45904 -1.19823 0
M  V30 839 O 79.3393 1.81063 -0.228545 0
M  V30 840 C 79.3903 0.719028 -3.54277 0
M  V30 841 O 79.1113 -0.410175 -4.36176 0
M  V30 842 C 80.6123 1.38705 -4.21041 0
M  V30 843 H 77.8323 0.0584616 -0.668448 0
M  V30 844 H 80.3763 -0.467734 -1.99079 0
M  V30 845 H 78.5313 1.41979 -3.60445 0
M  V30 846 H 78.9453 -0.0669416 -5.24457 0
M  V30 847 H 80.4193 1.64306 -5.2698 0
M  V30 848 H 80.8963 2.33385 -3.72059 0
M  V30 849 H 81.5023 0.728906 -4.19007 0
M  V30 850 N 79.8174 1.5752 -0.0501392 0
M  V30 851 C 80.7644 2.1147 0.924603 0
M  V30 852 C 81.7344 1.02182 1.30951 0
M  V30 853 O 82.9194 1.29723 1.39916 0
M  V30 854 C 80.0594 2.66337 2.19451 0
M  V30 855 C 79.1724 3.89708 1.86418 0
M  V30 856 C 78.3074 4.32893 3.07859 0
M  V30 857 C 77.3464 5.48967 2.70742 0
M  V30 858 N 76.4834 5.87211 3.84874 0
M  V30 859 H 81.3234 2.94465 0.457639 0
M  V30 860 H 78.8604 1.45531 0.214266 0
M  V30 861 H 80.8184 2.96247 2.93758 0
M  V30 862 H 79.4484 1.86141 2.63726 0
M  V30 863 H 78.5004 3.66396 1.02264 0
M  V30 864 H 79.8124 4.74074 1.55096 0
M  V30 865 H 78.9664 4.6435 3.90466 0
M  V30 866 H 77.7054 3.47336 3.42358 0
M  V30 867 H 76.7104 5.17183 1.86551 0
M  V30 868 H 77.9354 6.3624 2.37436 0
M  V30 869 H 75.8814 5.04607 4.19175 0
M  V30 870 H 75.7984 6.66266 3.57247 0
M  V30 871 H 77.0664 6.23282 4.68123 0
M  V30 872 N 81.2955 -0.223234 1.56011 0
M  V30 873 C 82.5205 -0.968978 1.83373 0
M  V30 874 C 82.9455 -1.77227 0.630254 0
M  V30 875 O 82.3035 -1.76345 -0.420959 0
M  V30 876 C 82.3515 -1.86363 3.08709 0
M  V30 877 O 81.4555 -2.95873 2.87285 0
M  V30 878 H 80.7965 -0.274461 0.604622 0
M  V30 879 H 83.3265 -0.237056 2.03222 0
M  V30 880 H 83.3365 -2.27376 3.38768 0
M  V30 881 H 82.0115 -1.27319 3.95933 0
M  V30 882 H 80.5885 -2.58818 2.68454 0
M  V30 883 N 82.7736 -1.49793 -0.48987 0
M  V30 884 C 84.0016 -1.63568 -1.26701 0
M  V30 885 C 84.4166 -0.311465 -1.86213 0
M  V30 886 O 83.7736 0.704416 -1.68357 0
M  V30 887 C 83.8246 -2.71284 -2.38929 0
M  V30 888 O 83.5456 -3.9857 -1.81861 0
M  V30 889 C 85.0466 -2.95864 -3.3012 0
M  V30 890 H 82.2666 -0.550342 -0.383881 0
M  V30 891 H 84.8106 -1.95898 -0.586864 0
M  V30 892 H 82.9656 -2.417 -3.02753 0
M  V30 893 H 83.3796 -4.57993 -2.55622 0
M  V30 894 H 84.8536 -3.74941 -4.05121 0
M  V30 895 H 85.3306 -2.06206 -3.87783 0
M  V30 896 H 85.9366 -3.26907 -2.72051 0
M  V30 897 N 84.2517 0.741722 -1.39055 0
M  V30 898 C 85.1617 1.88621 -1.39496 0
M  V30 899 C 86.1777 1.71557 -0.290578 0
M  V30 900 O 87.3537 1.94275 -0.530954 0
M  V30 901 C 84.4187 3.24134 -1.23037 0
M  V30 902 C 83.4797 3.5364 -2.43387 0
M  V30 903 C 82.7127 4.82687 -2.27703 0
M  V30 904 O 82.9357 5.55922 -1.27696 0
M  V30 905 O 81.8697 5.1194 -3.16545 0
M  V30 906 H 85.6957 1.91203 -2.35956 0
M  V30 907 H 83.2807 0.888625 -1.20099 0
M  V30 908 H 85.1627 4.0513 -1.15964 0
M  V30 909 H 83.8377 3.22337 -0.296691 0
M  V30 910 H 82.7447 2.72758 -2.56035 0
M  V30 911 H 84.0777 3.60209 -3.35425 0
M  V30 912 N 85.7298 1.2412 0.971189 0
M  V30 913 C 86.9578 1.10575 1.74874 0
M  V30 914 C 87.3728 -0.342017 1.85676 0
M  V30 915 O 86.7298 -1.23617 1.34258 0
M  V30 916 C 86.7808 1.73579 3.171 0
M  V30 917 O 86.5018 3.12695 3.06844 0
M  V30 918 C 88.0028 1.65598 4.11208 0
M  V30 919 H 85.2228 0.386504 0.548503 0
M  V30 920 H 87.7668 1.64156 1.21955 0
M  V30 921 H 85.9218 1.24009 3.67016 0
M  V30 922 H 86.3358 3.43412 3.96445 0
M  V30 923 H 87.8098 2.1437 5.08674 0
M  V30 924 H 88.2868 0.616532 4.34851 0
M  V30 925 H 88.8928 2.14578 3.67201 0
M  V30 926 N 87.2079 -1.17134 1.05439 0
M  V30 927 C 88.1179 -2.24878 0.668365 0
M  V30 928 C 89.1339 -1.71186 -0.311687 0
M  V30 929 O 90.3099 -2.00738 -0.163161 0
M  V30 930 C 87.3749 -3.46662 0.051648 0
M  V30 931 C 86.4359 -4.15429 1.08246 0
M  V30 932 C 85.6689 -5.31399 0.495082 0
M  V30 933 O 85.8919 -5.66153 -0.694743 0
M  V30 934 O 84.8259 -5.89187 1.23056 0
M  V30 935 H 88.6519 -2.60189 1.56637 0
M  V30 936 H 86.2369 -1.24482 0.826104 0
M  V30 937 H 88.1189 -4.20394 -0.290966 0
M  V30 938 H 86.7939 -3.13142 -0.819971 0
M  V30 939 H 85.7009 -3.43704 1.47711 0
M  V30 940 H 87.0339 -4.52982 1.92532 0
M  V30 941 N 88.686 -0.835752 -1.33615 0
M  V30 942 C 89.914 -0.443344 -2.02094 0
M  V30 943 C 90.329 0.954522 -1.62894 0
M  V30 944 O 89.686 1.61982 -0.840723 0
M  V30 945 C 89.737 -0.550775 -3.5728 0
M  V30 946 O 89.458 -1.89356 -3.95065 0
M  V30 947 C 90.959 -0.154919 -4.43029 0
M  V30 948 H 88.179 -0.176359 -0.647409 0
M  V30 949 H 90.723 -1.12746 -1.70612 0
M  V30 950 H 88.878 0.0853997 -3.87306 0
M  V30 951 H 89.292 -1.87687 -4.89769 0
M  V30 952 H 90.766 -0.281144 -5.51284 0
M  V30 953 H 91.243 0.902863 -4.2982 0
M  V30 954 H 91.849 -0.765404 -4.18356 0
M  V30 955 N 90.1641 1.46063 -0.591896 0
M  V30 956 C 91.4121 2.01938 -0.0808391 0
M  V30 957 C 91.7331 1.46475 1.28725 0
M  V30 958 O 91.0031 0.652944 1.84698 0
M  V30 959 H 89.5831 0.746516 -0.0268938 0
M  V30 960 H 92.2451 1.79055 -0.769752 0
M  V30 961 H 91.3411 3.12094 -0.0187578 0
M  V30 962 N 91.6422 0.330177 1.54103 0
M  V30 963 C 92.8672 -0.274893 2.0557 0
M  V30 964 C 93.2922 -1.44487 1.20437 0
M  V30 965 O 92.6502 -1.80021 0.214991 0
M  V30 966 C 92.6982 -0.68079 3.54115 0
M  V30 967 O 91.8022 -1.7824 3.71893 0
M  V30 968 H 91.1432 -0.0483849 0.662235 0
M  V30 969 H 93.6732 0.480508 1.98878 0
M  V30 970 H 93.6832 -0.961635 3.96505 0
M  V30 971 H 92.3582 0.174903 4.15532 0
M  V30 972 H 90.9352 -1.49985 3.41407 0
M  V30 973 N 93.1203 -1.57491 0.0584922 0
M  V30 974 C 94.5363 -1.56792 -0.298091 0
M  V30 975 C 94.7363 -1.06679 -1.70944 0
M  V30 976 O 93.7923 -0.726672 -2.41818 0
M  V30 977 C 95.1053 -3.00461 -0.119879 0
M  V30 978 C 96.6533 -3.1242 -0.190428 0
M  V30 979 C 97.1283 -4.57982 -0.0406567 0
M  V30 980 N 98.6193 -4.63099 -0.0966958 0
M  V30 981 C 99.3543 -5.734 -0.00502943 0
M  V30 982 N 98.8503 -6.9266 0.139402 0
M  V30 983 N 100.643 -5.62067 -0.0611391 0
M  V30 984 H 92.7943 -1.88386 0.98105 0
M  V30 985 H 95.0573 -0.867865 0.381463 0
M  V30 986 H 94.7633 -3.41187 0.85349 0
M  V30 987 H 94.6373 -3.66843 -0.877833 0
M  V30 988 H 97.0243 -2.71589 -1.15427 0
M  V30 989 H 97.1053 -2.48702 0.598405 0
M  V30 990 H 96.7493 -4.995 0.919897 0
M  V30 991 H 96.6793 -5.19715 -0.848727 0
M  V30 992 H 99.1703 -3.77331 -0.207277 0
M  V30 993 H 99.4833 -7.72536 0.201855 0
M  V30 994 H 97.8283 -6.94781 0.174586 0
M  V30 995 H 101.019 -4.67782 -0.172583 0
M  V30 996 H 101.192 -6.47999 0.0137562 0
M  V30 997 N 94.5984 0.214957 -1.56127 0
M  V30 998 C 95.8444 0.939762 -1.79712 0
M  V30 999 C 96.1774 1.83723 -0.629247 0
M  V30 1000 O 95.4524 1.90925 0.371197 0
M  V30 1001 C 95.7354 1.77306 -3.13424 0
M  V30 1002 C 95.5884 0.90164 -4.40671 0
M  V30 1003 C 96.9074 2.74956 -3.43638 0
M  V30 1004 H 94.0264 0.340214 -0.653776 0
M  V30 1005 H 96.6684 0.20824 -1.88855 0
M  V30 1006 H 94.8184 2.39673 -3.0576 0
M  V30 1007 H 96.4904 0.294206 -4.60361 0
M  V30 1008 H 94.7334 0.207368 -4.33304 0
M  V30 1009 H 95.4044 1.51923 -5.30682 0
M  V30 1010 H 97.8804 2.22724 -3.51473 0
M  V30 1011 H 96.7564 3.30358 -4.38355 0
M  V30 1012 H 97.0174 3.53023 -2.66134 0
M  V30 1013 N 96.0765 1.50051 0.48192 0
M  V30 1014 C 97.3245 1.60181 1.23234 0
M  V30 1015 C 97.6455 0.299176 1.92691 0
M  V30 1016 O 96.9155 -0.682708 1.83619 0
M  V30 1017 H 95.4955 0.590232 0.457859 0
M  V30 1018 H 98.1575 1.86775 0.556881 0
M  V30 1019 H 97.2535 2.40753 1.98607 0
M  V30 1020 N 97.5546 -0.734337 1.39446 0
M  V30 1021 C 98.5016 -1.84835 1.38219 0
M  V30 1022 C 99.4716 -1.64331 0.24179 0
M  V30 1023 O 100.657 -1.85728 0.437002 0
M  V30 1024 C 97.7966 -3.22355 1.23212 0
M  V30 1025 C 96.9096 -3.5456 2.46801 0
M  V30 1026 C 96.0446 -4.81485 2.24377 0
M  V30 1027 C 95.0836 -5.06536 3.43639 0
M  V30 1028 N 94.2206 -6.24665 3.20528 0
M  V30 1029 H 99.0606 -1.85219 2.33448 0
M  V30 1030 H 96.5976 -0.905039 1.15963 0
M  V30 1031 H 98.5556 -4.0174 1.12522 0
M  V30 1032 H 97.1856 -3.21248 0.316121 0
M  V30 1033 H 96.2376 -2.69872 2.68092 0
M  V30 1034 H 97.5496 -3.6899 3.3563 0
M  V30 1035 H 96.7036 -5.68852 2.10933 0
M  V30 1036 H 95.4426 -4.6923 1.32944 0
M  V30 1037 H 94.4476 -4.17632 3.5758 0
M  V30 1038 H 95.6726 -5.20676 4.35974 0
M  V30 1039 H 93.6186 -6.13696 2.3176 0
M  V30 1040 H 93.5356 -6.39685 4.02913 0
M  V30 1041 H 94.8036 -7.14868 3.10779 0
M  V30 1042 N 99.0327 -1.24633 -0.964593 0
M  V30 1043 C 99.9627 -1.06611 -2.07741 0
M  V30 1044 C 100.944 0.0218666 -1.70086 0
M  V30 1045 O 102.129 -0.145793 -1.93652 0
M  V30 1046 C 99.2587 -0.673444 -3.40708 0
M  V30 1047 C 98.2127 -1.71054 -3.92332 0
M  V30 1048 C 97.5387 -1.17285 -5.21678 0
M  V30 1049 C 98.8387 -3.10718 -4.19824 0
M  V30 1050 H 100.533 -1.99693 -2.23076 0
M  V30 1051 H 98.0787 -0.96152 -1.07195 0
M  V30 1052 H 100.032 -0.534345 -4.17998 0
M  V30 1053 H 98.7557 0.293073 -3.25282 0
M  V30 1054 H 97.4147 -1.83791 -3.17201 0
M  V30 1055 H 97.0627 -0.196847 -5.02615 0
M  V30 1056 H 96.7627 -1.86592 -5.57187 0
M  V30 1057 H 98.2867 -1.04593 -6.01575 0
M  V30 1058 H 99.7007 -3.01192 -4.87808 0
M  V30 1059 H 98.0977 -3.77406 -4.66567 0
M  V30 1060 H 99.1677 -3.58524 -3.26479 0
M  V30 1061 N 100.511 1.16574 -1.06058 0
M  V30 1062 C 101.922 1.68662 -0.800632 0
M  V30 1063 C 102.273 1.84184 0.67608 0
M  V30 1064 O 101.398 1.53568 1.52466 0
M  V30 1065 C 101.993 3.06356 -1.44676 0
M  V30 1066 C 100.552 3.55575 -1.23465 0
M  V30 1067 C 99.6988 2.31616 -1.52477 0
M  V30 1068 H 102.65 1.00969 -1.22438 0
M  V30 1069 H 102.671 3.70636 -0.860788 0
M  V30 1070 H 102.183 2.95027 -2.52152 0
M  V30 1071 H 100.284 3.72167 -0.179527 0
M  V30 1072 H 100.397 4.37812 -1.94571 0
M  V30 1073 H 98.7608 2.36512 -0.945209 0
M  V30 1074 H 99.5438 2.22887 -2.61106 0
M  V30 1075 N 101.989 0.842826 1.3317 0
M  V30 1076 C 102.899 0.281444 2.32906 0
M  V30 1077 C 103.915 -0.594587 1.63526 0
M  V30 1078 O 105.091 -0.49777 1.95152 0
M  V30 1079 C 102.156 -0.530929 3.42611 0
M  V30 1080 C 101.217 0.369843 4.27704 0
M  V30 1081 C 100.45 -0.403853 5.3217 0
M  V30 1082 O 100.673 -1.63513 5.46461 0
M  V30 1083 O 99.6069 0.224199 6.01482 0
M  V30 1084 H 103.433 1.10744 2.82789 0
M  V30 1085 H 101.018 0.60545 1.36582 0
M  V30 1086 H 102.9 -0.992437 4.09547 0
M  V30 1087 H 101.575 -1.33392 2.94938 0
M  V30 1088 H 100.482 0.879275 3.6362 0
M  V30 1089 H 101.815 1.13771 4.78871 0
M  V30 1090 N 103.467 -1.45747 0.599634 0
M  V30 1091 C 104.43 -2.28917 -0.113835 0
M  V30 1092 C 105.43 -1.3933 -0.802729 0
M  V30 1093 O 106.62 -1.61534 -0.652103 0
M  V30 1094 C 103.752 -3.20152 -1.17114 0
M  V30 1095 H 104.945 -2.93478 0.617289 0
M  V30 1096 H 102.498 -1.52137 0.358327 0
M  V30 1097 H 103.233 -2.60374 -1.93329 0
M  V30 1098 H 103.018 -3.86133 -0.681468 0
M  V30 1099 H 104.508 -3.82708 -1.67105 0
M  V30 1100 N 104.945 -0.338344 -1.53925 0
M  V30 1101 C 106.17 0.263987 -2.05713 0
M  V30 1102 C 106.595 1.43847 -1.21201 0
M  V30 1103 O 105.953 1.79904 -0.224535 0
M  V30 1104 C 106.001 0.662 -3.54471 0
M  V30 1105 O 105.105 1.76265 -3.72833 0
M  V30 1106 H 104.446 0.0448722 -0.662482 0
M  V30 1107 H 106.976 -0.491048 -1.9862 0
M  V30 1108 H 106.986 0.940594 -3.9701 0
M  V30 1109 H 105.661 -0.196937 -4.15433 0
M  V30 1110 H 104.238 1.48173 -3.42198 0
M  V30 1111 N 106.423 1.57458 -0.0668435 0
M  V30 1112 C 107.839 1.56947 0.289772 0
M  V30 1113 C 108.039 1.07584 1.70376 0
M  V30 1114 O 107.095 0.739486 2.41429 0
M  V30 1115 C 108.408 3.0052 0.103943 0
M  V30 1116 C 109.956 3.12517 0.173857 0
M  V30 1117 C 110.431 4.57997 0.0163682 0
M  V30 1118 N 111.922 4.63144 0.0721352 0
M  V30 1119 C 112.657 5.73394 -0.0253794 0
M  V30 1120 N 112.153 6.92576 -0.176133 0
M  V30 1121 N 113.946 5.62091 0.0313305 0
M  V30 1122 H 106.097 1.87863 -0.991027 0
M  V30 1123 H 108.36 0.86583 -0.38606 0
M  V30 1124 H 108.066 3.40729 -0.871572 0
M  V30 1125 H 107.94 3.67304 0.858366 0
M  V30 1126 H 110.327 2.72197 1.13985 0
M  V30 1127 H 110.408 2.48381 -0.611586 0
M  V30 1128 H 110.052 4.99005 -0.946374 0
M  V30 1129 H 109.982 5.20158 0.821153 0
M  V30 1130 H 112.473 3.77436 0.187263 0
M  V30 1131 H 112.786 7.72418 -0.242821 0
M  V30 1132 H 111.131 6.94678 -0.211429 0
M  V30 1133 H 114.322 4.67867 0.147773 0
M  V30 1134 H 114.495 6.47982 -0.048121 0
M  V30 1135 N 107.901 -0.206675 1.56239 0
M  V30 1136 C 109.15 -0.926964 1.79138 0
M  V30 1137 C 109.463 -1.84901 0.638043 0
M  V30 1138 O 110.669 -2.60906 0.751033 0
M  V30 1139 C 109.125 -1.6986 3.17294 0
M  V30 1140 C 108.733 -0.821956 4.40395 0
M  V30 1141 C 110.477 -2.40922 3.4951 0
M  V30 1142 C 108.384 -1.59179 5.69575 0
M  V30 1143 H 107.314 -0.349864 0.667915 0
M  V30 1144 H 109.965 -0.180487 1.8261 0
M  V30 1145 H 108.347 -2.48853 3.08039 0
M  V30 1146 H 109.521 -0.0715019 4.60745 0
M  V30 1147 H 107.836 -0.222741 4.15804 0
M  V30 1148 H 110.433 -2.99047 4.43255 0
M  V30 1149 H 110.776 -3.14542 2.72707 0
M  V30 1150 H 111.309 -1.68905 3.60161 0
M  V30 1151 H 108.048 -0.898589 6.49312 0
M  V30 1152 H 107.568 -2.31648 5.53262 0
M  V30 1153 H 109.247 -2.14862 6.10281 0
M  V30 1154 N 109.379 -1.50304 -0.473955 0
M  V30 1155 C 110.309 -1.71886 -1.58042 0
M  V30 1156 C 111.29 -0.567799 -1.60344 0
M  V30 1157 O 112.475 -0.806623 -1.76656 0
M  V30 1158 C 109.605 -1.81036 -2.96384 0
M  V30 1159 C 108.559 -2.962 -3.08949 0
M  V30 1160 C 107.885 -2.9049 -4.48909 0
M  V30 1161 C 109.185 -4.36752 -2.86434 0
M  V30 1162 H 110.879 -2.64527 -1.40234 0
M  V30 1163 H 108.425 -1.27295 -0.673201 0
M  V30 1164 H 110.378 -1.94719 -3.73714 0
M  V30 1165 H 109.102 -0.850147 -3.15341 0
M  V30 1166 H 107.761 -2.82164 -2.3405 0
M  V30 1167 H 107.409 -1.92321 -4.64781 0
M  V30 1168 H 107.109 -3.67802 -4.58253 0
M  V30 1169 H 108.633 -3.06218 -5.28264 0
M  V30 1170 H 110.047 -4.5133 -3.53517 0
M  V30 1171 H 108.444 -5.15493 -3.07225 0
M  V30 1172 H 109.514 -4.49321 -1.82316 0
M  V30 1173 N 110.857 0.726932 -1.39834 0
M  V30 1174 C 111.805 1.86235 -1.39353 0
M  V30 1175 C 112.799 1.67144 -0.275555 0
M  V30 1176 O 114.005 1.74387 -0.44601 0
M  V30 1177 H 110.38 0.613174 -0.43534 0
M  V30 1178 H 112.351 1.83756 -2.35109 0
M  V30 1179 C 111.1 3.23995 -1.26185 0
M  V30 1180 H 110.423 3.39285 -2.11484 0
M  V30 1181 H 111.863 4.03609 -1.29907 0
M  V30 1182 C 110.322 3.36888 0.0290018 0
M  V30 1183 O 110.852 3.89152 0.99619 0
M  V30 1184 N 109.058 2.90446 0.0947437 0
M  V30 1185 H 108.605 2.48102 -0.693035 0
M  V30 1186 H 108.563 2.99451 0.957932 0
M  V30 1187 N 112.336 1.25143 0.95797 0
M  V30 1188 C 113.564 1.12424 1.73691 0
M  V30 1189 C 113.979 -0.322304 1.86029 0
M  V30 1190 O 113.336 -1.22186 1.35561 0
M  V30 1191 C 113.387 1.76933 3.15241 0
M  V30 1192 O 113.108 3.15932 3.03511 0
M  V30 1193 C 114.609 1.6995 4.09429 0
M  V30 1194 H 111.829 0.3923 0.544373 0
M  V30 1195 H 114.373 1.6544 1.20207 0
M  V30 1196 H 112.528 1.27895 3.6568 0
M  V30 1197 H 112.942 3.47598 3.9278 0
M  V30 1198 H 114.416 2.19753 5.06372 0
M  V30 1199 H 114.893 0.662619 4.34173 0
M  V30 1200 H 115.499 2.18461 3.64904 0
M  V30 1201 N 113.814 -1.1601 1.06675 0
M  V30 1202 C 115.063 -1.85973 0.780818 0
M  V30 1203 C 115.376 -1.82819 -0.695444 0
M  V30 1204 O 116.582 -2.484 -1.09589 0
M  V30 1205 C 115.038 -3.33757 1.34665 0
M  V30 1206 C 114.646 -3.45374 2.85343 0
M  V30 1207 C 116.39 -4.0895 1.13843 0
M  V30 1208 C 114.297 -4.87266 3.35151 0
M  V30 1209 H 113.227 -0.696661 0.288407 0
M  V30 1210 H 115.878 -1.30903 1.28595 0
M  V30 1211 H 114.26 -3.88456 0.769274 0
M  V30 1212 H 115.434 -3.00816 3.49065 0
M  V30 1213 H 113.749 -2.83619 3.04876 0
M  V30 1214 H 116.346 -5.13654 1.4854 0
M  V30 1215 H 116.689 -4.16229 0.0770282 0
M  V30 1216 H 117.222 -3.605 1.68179 0
M  V30 1217 H 113.961 -4.85168 4.40786 0
M  V30 1218 H 113.481 -5.32433 2.76179 0
M  V30 1219 H 115.16 -5.56097 3.30704 0
M  V30 1220 N 115.292 -0.849877 -1.32721 0
M  V30 1221 C 116.222 -0.306308 -2.31482 0
M  V30 1222 C 117.203 0.591952 -1.59468 0
M  V30 1223 O 118.388 0.513199 -1.87296 0
M  V30 1224 C 115.518 0.510204 -3.43532 0
M  V30 1225 C 114.472 -0.293209 -4.26994 0
M  V30 1226 C 113.798 0.647743 -5.30762 0
M  V30 1227 C 115.098 -1.51634 -4.99804 0
M  V30 1228 H 116.792 -1.13153 -2.77195 0
M  V30 1229 H 114.338 -0.545553 -1.33266 0
M  V30 1230 H 116.291 0.900856 -4.11658 0
M  V30 1231 H 115.015 1.36874 -2.96535 0
M  V30 1232 H 113.674 -0.665555 -3.60508 0
M  V30 1233 H 113.322 1.50299 -4.8002 0
M  V30 1234 H 113.022 0.11422 -5.87489 0
M  V30 1235 H 114.546 1.03567 -6.01753 0
M  V30 1236 H 115.96 -1.19824 -5.60638 0
M  V30 1237 H 114.357 -1.98745 -5.66234 0
M  V30 1238 H 115.427 -2.28018 -4.27943 0
M  V30 1239 N 116.77 1.45427 -0.607355 0
M  V30 1240 C 117.995 2.07124 -0.107006 0
M  V30 1241 C 118.42 1.44906 1.19933 0
M  V30 1242 O 117.778 0.541687 1.73019 0
M  V30 1243 C 117.826 3.60595 0.0194119 0
M  V30 1244 O 116.93 3.98285 1.0697 0
M  V30 1245 H 116.271 0.659868 -0.0739597 0
M  V30 1246 H 118.801 1.86683 -0.837297 0
M  V30 1247 H 118.811 4.07419 0.2177 0
M  V30 1248 H 117.486 4.05266 -0.934453 0
M  V30 1249 H 116.063 3.63133 0.847889 0
M  V30 1250 N 118.248 0.346503 1.53744 0
M  V30 1251 C 119.196 -0.52422 2.26616 0
M  V30 1252 C 120.19 -1.09948 1.28871 0
M  V30 1253 O 121.396 -1.04488 1.46568 0
M  V30 1254 H 117.771 -0.187743 0.728187 0
M  V30 1255 H 119.742 0.11239 2.98188 0
M  V30 1256 C 118.491 -1.66186 3.05414 0
M  V30 1257 H 117.814 -1.22848 3.80458 0
M  V30 1258 H 119.254 -2.24622 3.59612 0
M  V30 1259 C 117.713 -2.59302 2.1509 0
M  V30 1260 O 118.243 -3.61628 1.74895 0
M  V30 1261 N 116.449 -2.28055 1.8011 0
M  V30 1262 H 115.996 -1.44883 2.12994 0
M  V30 1263 H 115.954 -2.90615 1.19958 0
M  V30 1264 N 119.726 -1.57421 0.075193 0
M  V30 1265 C 120.956 -1.97659 -0.601203 0
M  V30 1266 C 121.364 -0.952427 -1.63479 0
M  V30 1267 O 120.707 0.0688241 -1.83571 0
M  V30 1268 C 120.769 -3.34218 -1.32434 0
M  V30 1269 C 120.433 -4.5484 -0.443826 0
M  V30 1270 C 121.43 -5.19034 0.299969 0
M  V30 1271 C 119.115 -5.00952 -0.367709 0
M  V30 1272 C 121.109 -6.27695 1.10807 0
M  V30 1273 C 118.796 -6.09484 0.444058 0
M  V30 1274 C 119.794 -6.72719 1.18061 0
M  V30 1275 O 119.482 -7.79161 1.97898 0
M  V30 1276 H 119.214 -0.65494 -0.167422 0
M  V30 1277 H 121.768 -2.04886 0.145157 0
M  V30 1278 H 119.998 -3.23615 -2.11685 0
M  V30 1279 H 121.687 -3.59038 -1.89331 0
M  V30 1280 H 122.453 -4.84351 0.250776 0
M  V30 1281 H 118.332 -4.51509 -0.930638 0
M  V30 1282 H 121.876 -6.76982 1.68347 0
M  V30 1283 H 117.773 -6.43601 0.494803 0
M  V30 1284 H 118.541 -7.96055 1.90367 0
M  V30 1285 N 121.204 0.198386 -1.56346 0
M  V30 1286 C 122.481 0.944982 -1.71258 0
M  V30 1287 C 122.861 2.0151 -0.629048 0
M  V30 1288 O 122.209 2.25639 0.360473 0
M  V30 1289 C 122.419 1.5344 -3.1346 0
M  V30 1290 C 123.767 2.01778 -3.73591 0
M  V30 1291 O 124.791 1.63288 -3.16568 0
M  V30 1292 O 123.65 2.72594 -4.73661 0
M  V30 1293 H 120.744 0.442939 -0.69838 0
M  V30 1294 H 123.29 0.188342 -1.68652 0
M  V30 1295 H 122.062 0.762869 -3.83792 0
M  V30 1296 H 121.685 2.35596 -3.20282 0
M  V30 1297 N 122.682 1.50554 0.465978 0
M  V30 1298 C 123.632 1.66177 1.56106 0
M  V30 1299 C 124.616 0.516265 1.52393 0
M  V30 1300 O 125.808 0.770906 1.5933 0
M  V30 1301 C 122.937 1.76396 2.94515 0
M  V30 1302 C 122.023 2.9664 3.03093 0
M  V30 1303 N 122.414 4.20245 2.81474 0
M  V30 1304 C 120.712 2.95304 3.34233 0
M  V30 1305 C 121.413 5.01259 2.95151 0
M  V30 1306 N 120.389 4.35318 3.25576 0
M  V30 1307 H 124.191 2.59434 1.38099 0
M  V30 1308 H 121.705 1.47808 0.6728 0
M  V30 1309 H 123.702 1.85694 3.73261 0
M  V30 1310 H 122.362 0.843017 3.13565 0
M  V30 1311 H 123.373 4.4966 2.56956 0
M  V30 1312 H 120.05 2.12729 3.59239 0
M  V30 1313 H 121.44 6.09564 2.82632 0
M  V30 1314 N 124.16 -0.719506 1.40217 0
M  V30 1315 C 125.107 -1.83359 1.40172 0
M  V30 1316 C 126.077 -1.64065 0.259206 0
M  V30 1317 O 127.262 -1.85254 0.456677 0
M  V30 1318 C 124.402 -3.2103 1.26624 0
M  V30 1319 C 123.515 -3.51923 2.50548 0
M  V30 1320 C 122.65 -4.79079 2.29471 0
M  V30 1321 C 121.689 -5.02863 3.48992 0
M  V30 1322 N 120.826 -6.2123 3.27135 0
M  V30 1323 H 125.666 -1.82733 2.35399 0
M  V30 1324 H 123.203 -0.892688 1.16917 0
M  V30 1325 H 125.161 -4.00524 1.16776 0
M  V30 1326 H 123.791 -3.20895 0.350176 0
M  V30 1327 H 122.843 -2.67014 2.70939 0
M  V30 1328 H 124.155 -3.6541 3.39525 0
M  V30 1329 H 123.309 -5.66582 2.16955 0
M  V30 1330 H 122.048 -4.67794 1.37913 0
M  V30 1331 H 121.053 -4.13816 3.6199 0
M  V30 1332 H 122.278 -5.16023 4.41472 0
M  V30 1333 H 120.224 -6.11204 2.38256 0
M  V30 1334 H 120.141 -6.35375 4.09675 0
M  V30 1335 H 121.409 -7.11532 3.18344 0
M  V30 1336 N 125.638 -1.25649 -0.95132 0
M  V30 1337 C 126.568 -1.08808 -2.06599 0
M  V30 1338 C 127.549 0.00382547 -1.701 0
M  V30 1339 O 128.734 -0.166325 -1.93486 0
M  V30 1340 C 125.864 -0.709542 -3.39975 0
M  V30 1341 C 124.818 -1.75206 -3.90496 0
M  V30 1342 C 124.144 -1.22811 -5.20405 0
M  V30 1343 C 125.444 -3.15153 -4.16504 0
M  V30 1344 H 127.138 -2.02048 -2.20946 0
M  V30 1345 H 124.684 -0.972835 -1.06169 0
M  V30 1346 H 126.637 -0.578649 -4.17408 0
M  V30 1347 H 125.361 0.258556 -3.25575 0
M  V30 1348 H 124.02 -1.87145 -3.15234 0
M  V30 1349 H 123.668 -0.250145 -5.02378 0
M  V30 1350 H 123.368 -1.92492 -5.55176 0
M  V30 1351 H 124.892 -1.10968 -6.00432 0
M  V30 1352 H 126.306 -3.06349 -4.84586 0
M  V30 1353 H 124.703 -3.82333 -4.62538 0
M  V30 1354 H 125.773 -3.61966 -3.22658 0
M  V30 1355 N 127.117 1.15442 -1.07289 0
M  V30 1356 C 128.533 1.38201 -0.798288 0
M  V30 1357 C 128.733 1.92429 0.597769 0
M  V30 1358 O 127.789 2.12962 1.3566 0
M  V30 1359 C 129.102 2.35357 -1.87156 0
M  V30 1360 C 130.65 2.49021 -1.89624 0
M  V30 1361 C 131.125 3.49468 -2.96034 0
M  V30 1362 N 132.616 3.57003 -2.95132 0
M  V30 1363 C 133.351 4.34543 -3.74112 0
M  V30 1364 N 132.847 5.15421 -4.6294 0
M  V30 1365 N 134.64 4.29625 -3.62462 0
M  V30 1366 H 126.791 0.78584 -1.97328 0
M  V30 1367 H 129.054 0.408065 -0.855679 0
M  V30 1368 H 128.76 2.02626 -2.87464 0
M  V30 1369 H 128.634 3.35129 -1.73114 0
M  V30 1370 H 131.021 2.81051 -0.899687 0
M  V30 1371 H 131.102 1.4925 -2.07745 0
M  V30 1372 H 130.746 3.18173 -3.95889 0
M  V30 1373 H 130.676 4.48992 -2.75161 0
M  V30 1374 H 133.167 2.99276 -2.30743 0
M  V30 1375 H 133.48 5.7183 -5.19837 0
M  V30 1376 H 131.825 5.14729 -4.66989 0
M  V30 1377 H 135.016 3.65505 -2.92444 0
M  V30 1378 H 135.189 4.89807 -4.24256 0
M  V30 1379 N 128.595 0.856903 1.32268 0
M  V30 1380 C 130.006 0.515711 1.79436 0
M  V30 1381 C 130.357 -0.966586 1.70738 0
M  V30 1382 O 129.482 -1.75409 1.26731 0
M  V30 1383 C 130.077 0.929335 3.25805 0
M  V30 1384 C 128.636 0.640006 3.70919 0
M  V30 1385 C 127.783 1.12784 2.53328 0
M  V30 1386 H 130.734 1.04389 1.19535 0
M  V30 1387 H 130.755 0.246633 3.797 0
M  V30 1388 H 130.267 2.00821 3.32103 0
M  V30 1389 H 128.368 -0.428051 3.70133 0
M  V30 1390 H 128.481 1.20788 4.63624 0
M  V30 1391 H 126.845 0.548033 2.48734 0
M  V30 1392 H 127.628 2.21387 2.62379 0
M  V30 1393 N 130.073 -1.45103 0.615059 0
M  V30 1394 C 131.321 -2.01784 0.112955 0
M  V30 1395 C 131.642 -1.48504 -1.26378 0
M  V30 1396 O 130.912 -0.682245 -1.83636 0
M  V30 1397 H 129.492 -0.745993 0.0387668 0
M  V30 1398 H 132.154 -1.77808 0.798141 0
M  V30 1399 H 131.25 -3.12025 0.0684069 0
M  V30 1400 N 131.551 -0.354651 -1.53558 0
M  V30 1401 C 132.8 0.239504 -2.00273 0
M  V30 1402 C 133.113 1.50759 -1.24623 0
M  V30 1403 O 134.319 2.17968 -1.61871 0
M  V30 1404 C 132.775 0.477341 -3.5672 0
M  V30 1405 C 132.383 -0.775488 -4.41237 0
M  V30 1406 C 134.127 1.02975 -4.11821 0
M  V30 1407 C 132.034 -0.507838 -5.89216 0
M  V30 1408 H 130.964 0.0932743 -0.748208 0
M  V30 1409 H 133.615 -0.471701 -1.77334 0
M  V30 1410 H 131.997 1.24953 -3.7577 0
M  V30 1411 H 133.171 -1.54963 -4.33962 0
M  V30 1412 H 131.486 -1.25033 -3.97185 0
M  V30 1413 H 134.083 1.24513 -5.2 0
M  V30 1414 H 134.426 1.98862 -3.65731 0
M  V30 1415 H 134.959 0.317994 -3.96527 0
M  V30 1416 H 131.698 -1.43674 -6.39561 0
M  V30 1417 H 131.218 0.228011 -5.99366 0
M  V30 1418 H 132.897 -0.129238 -6.46871 0
M  V30 1419 N 133.029 1.57378 -0.0835403 0
M  V30 1420 C 134.277 1.93547 0.581718 0
M  V30 1421 C 134.598 0.96524 1.69435 0
M  V30 1422 O 133.868 0.0153369 1.95894 0
M  V30 1423 H 132.448 0.714521 0.217874 0
M  V30 1424 H 135.11 1.94366 -0.144158 0
M  V30 1425 H 134.206 2.95665 0.999423 0
M  V30 1426 N 134.507 -0.190092 1.56449 0
M  V30 1427 C 135.417 -1.25591 1.98152 0
M  V30 1428 C 136.433 -1.49519 0.889944 0
M  V30 1429 O 137.609 -1.62036 1.19609 0
M  V30 1430 C 134.674 -2.57916 2.3169 0
M  V30 1431 C 133.735 -2.42015 3.5458 0
M  V30 1432 C 132.968 -3.6803 3.8651 0
M  V30 1433 O 133.191 -4.72413 3.1966 0
M  V30 1434 O 132.125 -3.6326 4.79923 0
M  V30 1435 H 135.951 -0.931988 2.89046 0
M  V30 1436 H 133.536 -0.395488 1.4407 0
M  V30 1437 H 135.418 -3.36008 2.54316 0
M  V30 1438 H 134.093 -2.89925 1.43963 0
M  V30 1439 H 133 -1.62017 3.37196 0
M  V30 1440 H 134.333 -2.14937 4.4279 0
M  V30 1441 N 135.985 -1.50799 -0.457987 0
M  V30 1442 C 136.932 -1.70617 -1.5543 0
M  V30 1443 C 137.902 -0.547562 -1.56815 0
M  V30 1444 O 139.087 -0.779647 -1.74144 0
M  V30 1445 C 136.227 -1.81831 -2.93311 0
M  V30 1446 C 135.34 -3.09278 -3.01615 0
M  V30 1447 C 134.475 -3.11209 -4.30491 0
M  V30 1448 C 133.514 -4.33055 -4.32585 0
M  V30 1449 N 132.651 -4.32652 -5.52952 0
M  V30 1450 H 137.491 -2.64207 -1.37836 0
M  V30 1451 H 135.028 -1.30959 -0.669937 0
M  V30 1452 H 136.986 -1.86314 -3.73287 0
M  V30 1453 H 135.616 -0.916685 -3.0951 0
M  V30 1454 H 134.668 -3.14203 -2.1443 0
M  V30 1455 H 135.98 -3.99233 -2.99022 0
M  V30 1456 H 135.134 -3.14494 -5.18824 0
M  V30 1457 H 133.873 -2.19106 -4.35711 0
M  V30 1458 H 132.878 -4.29969 -3.42647 0
M  V30 1459 H 134.103 -5.264 -4.29046 0
M  V30 1460 H 132.049 -3.43409 -5.58933 0
M  V30 1461 H 131.966 -5.16392 -5.52155 0
M  V30 1462 H 133.234 -4.40101 -6.43375 0
M  V30 1463 N 137.463 0.71206 -1.40597 0
M  V30 1464 C 138.874 1.29135 -1.34837 0
M  V30 1465 C 139.225 1.96186 -0.0235395 0
M  V30 1466 O 138.35 1.97768 0.878444 0
M  V30 1467 C 138.945 2.34827 -2.44217 0
M  V30 1468 C 137.504 2.88371 -2.41907 0
M  V30 1469 C 136.651 1.62202 -2.24913 0
M  V30 1470 H 139.602 0.507944 -1.50352 0
M  V30 1471 H 139.623 3.15749 -2.12327 0
M  V30 1472 H 139.135 1.85996 -3.40627 0
M  V30 1473 H 137.236 3.41422 -1.49204 0
M  V30 1474 H 137.349 3.39925 -3.37621 0
M  V30 1475 H 135.713 1.874 -1.72492 0
M  V30 1476 H 136.496 1.15391 -3.23326 0
M  V30 1477 N 138.941 1.26152 0.944643 0
M  V30 1478 C 140.169 1.14259 1.72489 0
M  V30 1479 C 140.584 -0.302555 1.8636 0
M  V30 1480 O 139.941 -1.20741 1.36849 0
M  V30 1481 C 139.992 1.80266 3.13347 0
M  V30 1482 O 139.713 3.19133 3.00143 0
M  V30 1483 C 141.214 1.74283 4.07603 0
M  V30 1484 H 138.434 0.398051 0.540181 0
M  V30 1485 H 140.978 1.66706 1.18446 0
M  V30 1486 H 139.133 1.31766 3.64303 0
M  V30 1487 H 139.547 3.51744 3.89071 0
M  V30 1488 H 141.021 2.25111 5.04013 0
M  V30 1489 H 141.498 0.708631 4.33446 0
M  V30 1490 H 142.104 2.22319 3.62567 0
M  V30 1491 N 140.419 -1.14872 1.07899 0
M  V30 1492 C 141.665 -1.86064 0.806725 0
M  V30 1493 C 141.998 -1.82434 -0.665706 0
M  V30 1494 O 141.273 -1.25138 -1.48899 0
M  V30 1495 C 141.556 -3.34929 1.32267 0
M  V30 1496 C 141.409 -3.47161 2.86006 0
M  V30 1497 C 142.728 -4.29863 0.943717 0
M  V30 1498 H 139.847 -0.675591 0.294526 0
M  V30 1499 H 142.489 -1.34925 1.33773 0
M  V30 1500 H 140.639 -3.78611 0.870974 0
M  V30 1501 H 142.311 -3.12302 3.39507 0
M  V30 1502 H 140.554 -2.88539 3.23925 0
M  V30 1503 H 141.225 -4.51777 3.17177 0
M  V30 1504 H 143.701 -3.9417 1.33302 0
M  V30 1505 H 142.577 -5.32494 1.33198 0
M  V30 1506 H 142.838 -4.41846 -0.149796 0
M  V30 1507 N 141.898 -0.863906 -1.31812 0
M  V30 1508 C 143.144 -0.472535 -1.97218 0
M  V30 1509 C 143.477 0.971394 -1.68159 0
M  V30 1510 O 142.752 1.68309 -0.974798 0
M  V30 1511 C 143.035 -0.723054 -3.52766 0
M  V30 1512 C 142.888 -2.21608 -3.91421 0
M  V30 1513 C 144.207 -0.185522 -4.39709 0
M  V30 1514 H 141.326 -0.173158 -0.71637 0
M  V30 1515 H 143.968 -1.08403 -1.56041 0
M  V30 1516 H 142.118 -0.202577 -3.87971 0
M  V30 1517 H 143.79 -2.80334 -3.66347 0
M  V30 1518 H 142.033 -2.691 -3.40246 0
M  V30 1519 H 142.704 -2.34203 -4.99853 0
M  V30 1520 H 145.18 -0.630726 -4.11292 0
M  V30 1521 H 144.056 -0.390306 -5.47511 0
M  V30 1522 H 144.317 0.912229 -4.32586 0
M  V30 1523 N 143.376 1.44774 -0.622745 0
M  V30 1524 C 144.604 2.06487 -0.130722 0
M  V30 1525 C 145.019 1.46476 1.19123 0
M  V30 1526 O 144.376 0.584502 1.72887 0
M  V30 1527 C 144.427 3.615 -0.000807207 0
M  V30 1528 O 144.148 4.19274 -1.27048 0
M  V30 1529 C 145.649 4.40229 0.520898 0
M  V30 1530 H 142.869 0.666704 -0.0758106 0
M  V30 1531 H 145.413 1.85779 -0.854774 0
M  V30 1532 H 143.568 3.81498 0.673643 0
M  V30 1533 H 143.982 5.12622 -1.1099 0
M  V30 1534 H 145.456 5.49144 0.560838 0
M  V30 1535 H 145.933 4.1108 1.54627 0
M  V30 1536 H 146.539 4.25131 -0.120018 0
M  V30 1537 N 144.854 0.36279 1.53368 0
M  V30 1538 C 146.1 -0.228113 2.01513 0
M  V30 1539 C 146.433 -1.48648 1.2497 0
M  V30 1540 O 145.708 -1.91459 0.342616 0
M  V30 1541 C 145.991 -0.522884 3.56284 0
M  V30 1542 C 145.844 0.74892 4.43521 0
M  V30 1543 C 147.163 -1.32461 4.19693 0
M  V30 1544 H 144.282 -0.0814343 0.732487 0
M  V30 1545 H 146.924 0.48713 1.83649 0
M  V30 1546 H 145.074 -1.1322 3.71636 0
M  V30 1547 H 146.746 1.38648 4.39971 0
M  V30 1548 H 144.989 1.36986 4.11603 0
M  V30 1549 H 145.66 0.497667 5.49752 0
M  V30 1550 H 148.136 -0.809203 4.08156 0
M  V30 1551 H 147.012 -1.49961 5.28018 0
M  V30 1552 H 147.273 -2.33232 3.75573 0
M  V30 1553 N 146.332 -1.57332 0.0918853 0
M  V30 1554 C 147.242 -2.17368 -0.882505 0
M  V30 1555 C 148.258 -1.14226 -1.31257 0
M  V30 1556 O 149.434 -1.46582 -1.38115 0
M  V30 1557 C 146.499 -2.73962 -2.12476 0
M  V30 1558 C 145.56 -3.92048 -1.7492 0
M  V30 1559 C 144.793 -4.45933 -2.93223 0
M  V30 1560 O 145.016 -3.98764 -4.07852 0
M  V30 1561 O 143.95 -5.36999 -2.71875 0
M  V30 1562 H 147.776 -3.01031 -0.40172 0
M  V30 1563 H 145.361 -1.48813 -0.132291 0
M  V30 1564 H 147.243 -3.10147 -2.85283 0
M  V30 1565 H 145.918 -1.93347 -2.59613 0
M  V30 1566 H 144.825 -3.6068 -0.993025 0
M  V30 1567 H 146.158 -4.74017 -1.32548 0
M  V30 1568 N 147.81 0.181792 -1.56548 0
M  V30 1569 C 149.059 0.898348 -1.8059 0
M  V30 1570 C 149.372 1.83862 -0.667379 0
M  V30 1571 O 150.578 2.59678 -0.792446 0
M  V30 1572 C 149.034 1.64791 -3.19956 0
M  V30 1573 C 148.642 0.751789 -4.41647 0
M  V30 1574 C 150.386 2.35331 -3.53298 0
M  V30 1575 C 148.293 1.50098 -5.72035 0
M  V30 1576 H 147.223 0.339194 -0.673397 0
M  V30 1577 H 149.874 0.151413 -1.82874 0
M  V30 1578 H 148.256 2.43921 -3.11959 0
M  V30 1579 H 149.43 -0.0018076 -4.608 0
M  V30 1580 H 147.745 0.156562 -4.16106 0
M  V30 1581 H 150.342 2.91958 -4.47956 0
M  V30 1582 H 150.685 3.10164 -2.77676 0
M  V30 1583 H 151.218 1.63154 -3.62803 0
M  V30 1584 H 147.957 0.795175 -6.50659 0
M  V30 1585 H 147.477 2.22817 -5.56878 0
M  V30 1586 H 149.156 2.05125 -6.13622 0
M  V30 1587 N 149.288 1.51039 0.449983 0
M  V30 1588 C 150.513 1.6715 1.22783 0
M  V30 1589 C 150.938 0.363081 1.84563 0
M  V30 1590 O 150.296 -0.675433 1.68249 0
M  V30 1591 C 150.344 2.77985 2.29689 0
M  V30 1592 O 149.448 2.40707 3.34864 0
M  V30 1593 H 148.789 0.557746 0.360299 0
M  V30 1594 H 151.319 1.97535 0.533005 0
M  V30 1595 H 151.329 3.01693 2.74673 0
M  V30 1596 H 150.004 3.72935 1.84098 0
M  V30 1597 H 148.581 2.27523 2.95445 0
M  V30 1598 N 150.766 -0.704594 1.40972 0
M  V30 1599 C 152.012 -1.46675 1.40051 0
M  V30 1600 C 152.345 -1.94199 0.00641102 0
M  V30 1601 O 151.62 -1.68916 -0.964235 0
M  V30 1602 C 151.903 -2.68505 2.39952 0
M  V30 1603 C 151.756 -2.26805 3.88432 0
M  V30 1604 C 153.075 -3.70686 2.37233 0
M  V30 1605 H 150.194 -0.532015 0.510028 0
M  V30 1606 H 152.836 -0.803255 1.72185 0
M  V30 1607 H 150.986 -3.25114 2.1268 0
M  V30 1608 H 152.658 -1.75592 4.26574 0
M  V30 1609 H 150.901 -1.58685 4.03734 0
M  V30 1610 H 151.572 -3.14181 4.53866 0
M  V30 1611 H 154.048 -3.23731 2.61415 0
M  V30 1612 H 152.924 -4.53553 3.09162 0
M  V30 1613 H 153.185 -4.19754 1.38777 0
M  V30 1614 N 152.244 -1.26651 -0.937939 0
M  V30 1615 C 153.192 -1.08308 -2.05845 0
M  V30 1616 C 154.186 -0.0090757 -1.69398 0
M  V30 1617 O 155.392 -0.166007 -1.79233 0
M  V30 1618 H 151.767 -0.333416 -0.674046 0
M  V30 1619 H 153.738 -2.03261 -2.18467 0
M  V30 1620 C 152.487 -0.736229 -3.39816 0
M  V30 1621 H 151.81 -1.55453 -3.6834 0
M  V30 1622 H 153.25 -0.64769 -4.19024 0
M  V30 1623 C 151.709 0.558824 -3.32233 0
M  V30 1624 O 152.239 1.59621 -3.68624 0
M  V30 1625 N 150.445 0.550657 -2.85335 0
M  V30 1626 H 149.992 -0.293943 -2.55917 0
M  V30 1627 H 149.95 1.41726 -2.80644 0
M  V30 1628 N 153.722 1.14298 -1.08507 0
M  V30 1629 C 154.947 1.8976 -0.837001 0
M  V30 1630 C 155.372 1.78097 0.605228 0
M  V30 1631 O 154.73 1.12188 1.4242 0
M  V30 1632 C 154.778 3.37685 -1.26495 0
M  V30 1633 O 153.882 4.10281 -0.417514 0
M  V30 1634 H 153.223 0.590365 -0.303917 0
M  V30 1635 H 155.753 1.44672 -1.44676 0
M  V30 1636 H 155.763 3.88501 -1.24625 0
M  V30 1637 H 154.438 3.45492 -2.31534 0
M  V30 1638 H 153.015 3.69536 -0.499722 0
M  V30 1639 N 155.201 0.870884 1.31352 0
M  V30 1640 C 156.131 0.343096 2.30966 0
M  V30 1641 C 157.112 -0.566507 1.60389 0
M  V30 1642 O 158.297 -0.483336 1.88089 0
M  V30 1643 C 155.427 -0.455487 3.443 0
M  V30 1644 C 154.381 0.361103 4.26474 0
M  V30 1645 C 153.707 -0.563221 5.31725 0
M  V30 1646 C 155.007 1.59566 4.97329 0
M  V30 1647 H 156.701 1.17548 2.75359 0
M  V30 1648 H 154.247 0.566686 1.32381 0
M  V30 1649 H 156.2 -0.83525 4.13039 0
M  V30 1650 H 154.924 -1.32139 2.98675 0
M  V30 1651 H 153.583 0.722825 3.59403 0
M  V30 1652 H 153.231 -1.42643 4.82351 0
M  V30 1653 H 152.931 -0.0207409 5.87596 0
M  V30 1654 H 154.455 -0.939808 6.03324 0
M  V30 1655 H 155.869 1.28728 5.58661 0
M  V30 1656 H 154.266 2.07728 5.63 0
M  V30 1657 H 155.336 2.34798 4.24262 0
M  V30 1658 N 156.679 -1.44442 0.630414 0
M  V30 1659 C 157.927 -2.01653 0.134351 0
M  V30 1660 C 158.248 -1.49836 -1.24796 0
M  V30 1661 O 157.518 -0.701684 -1.82902 0
M  V30 1662 H 156.098 -0.74554 0.0466769 0
M  V30 1663 H 158.76 -1.76952 0.816955 0
M  V30 1664 H 157.856 -3.11935 0.101498 0
M  V30 1665 N 158.157 -0.370918 -1.53173 0
M  V30 1666 C 159.568 0.107139 -1.86392 0
M  V30 1667 C 159.919 1.47714 -1.29132 0
M  V30 1668 O 159.044 2.07464 -0.615439 0
M  V30 1669 C 159.639 0.201187 -3.38202 0
M  V30 1670 C 158.198 0.623507 -3.712 0
M  V30 1671 C 157.345 -0.225978 -2.76378 0
M  V30 1672 H 160.296 -0.58951 -1.47345 0
M  V30 1673 H 160.317 1.02377 -3.66468 0
M  V30 1674 H 159.829 -0.796058 -3.79848 0
M  V30 1675 H 157.93 1.62879 -3.35114 0
M  V30 1676 H 158.043 0.394414 -4.77474 0
M  V30 1677 H 156.407 0.305962 -2.52856 0
M  V30 1678 H 157.19 -1.22086 -3.20858 0
M  V30 1679 N 159.635 1.57281 -0.100228 0
M  V30 1680 C 160.565 2.17328 0.853857 0
M  V30 1681 C 161.546 1.10804 1.2906 0
M  V30 1682 O 162.731 1.38963 1.35657 0
M  V30 1683 C 159.861 2.75772 2.11109 0
M  V30 1684 C 158.815 3.87713 1.81279 0
M  V30 1685 C 158.141 4.32882 3.13874 0
M  V30 1686 C 159.441 5.10677 1.09574 0
M  V30 1687 H 161.135 2.97305 0.353545 0
M  V30 1688 H 158.681 1.43009 0.168612 0
M  V30 1689 H 160.634 3.16433 2.78296 0
M  V30 1690 H 159.358 1.93057 2.63432 0
M  V30 1691 H 158.017 3.476 1.16489 0
M  V30 1692 H 157.665 3.47051 3.64095 0
M  V30 1693 H 157.365 5.08358 2.94696 0
M  V30 1694 H 158.889 4.7618 3.82211 0
M  V30 1695 H 160.303 5.48474 1.66879 0
M  V30 1696 H 158.7 5.91615 1.00557 0
M  V30 1697 H 159.77 4.84835 0.0793299 0
M  V30 1698 N 161.113 -0.173488 1.56642 0
M  V30 1699 C 162.338 -0.910149 1.86363 0
M  V30 1700 C 162.763 -1.75132 0.686318 0
M  V30 1701 O 162.121 -1.77595 -0.364643 0
M  V30 1702 C 162.169 -1.76447 3.14482 0
M  V30 1703 O 161.273 -2.86584 2.96553 0
M  V30 1704 H 160.614 -0.255086 0.613047 0
M  V30 1705 H 163.144 -0.172283 2.03873 0
M  V30 1706 H 163.154 -2.16483 3.45831 0
M  V30 1707 H 161.829 -1.14658 3.99783 0
M  V30 1708 H 160.406 -2.50146 2.76553 0
M  V30 1709 N 162.591 -1.51276 -0.441967 0
M  V30 1710 C 163.84 -1.6295 -1.18871 0
M  V30 1711 C 164.153 -0.349312 -1.92456 0
M  V30 1712 O 165.359 -0.345355 -2.69295 0
M  V30 1713 C 163.815 -2.87759 -2.16155 0
M  V30 1714 C 163.423 -4.22764 -1.48239 0
M  V30 1715 C 165.167 -3.08788 -2.91291 0
M  V30 1716 C 163.074 -5.38728 -2.4398 0
M  V30 1717 H 162.004 -0.606913 -0.447406 0
M  V30 1718 H 164.655 -1.77739 -0.456205 0
M  V30 1719 H 163.037 -2.66593 -2.92821 0
M  V30 1720 H 164.211 -4.54293 -0.771635 0
M  V30 1721 H 162.526 -4.07575 -0.852741 0
M  V30 1722 H 165.123 -3.92599 -3.63002 0
M  V30 1723 H 165.466 -2.21679 -3.5237 0
M  V30 1724 H 165.999 -3.30272 -2.21733 0
M  V30 1725 H 162.738 -6.28082 -1.87598 0
M  V30 1726 H 162.258 -5.1158 -3.13123 0
M  V30 1727 H 163.937 -5.70489 -3.05207 0
M  V30 1728 N 164.069 0.697108 -1.41344 0
M  V30 1729 C 164.999 1.82353 -1.45841 0
M  V30 1730 C 165.98 1.67115 -0.317247 0
M  V30 1731 O 167.165 1.86871 -0.528474 0
M  V30 1732 C 164.295 3.20476 -1.33838 0
M  V30 1733 C 163.249 3.50415 -2.4575 0
M  V30 1734 C 162.575 4.87878 -2.18813 0
M  V30 1735 C 163.875 3.49546 -3.88091 0
M  V30 1736 H 165.569 1.78846 -2.40113 0
M  V30 1737 H 163.115 0.859028 -1.15571 0
M  V30 1738 H 165.068 3.98988 -1.35596 0
M  V30 1739 H 163.792 3.24604 -0.360498 0
M  V30 1740 H 162.451 2.74253 -2.43271 0
M  V30 1741 H 162.099 4.8863 -1.19371 0
M  V30 1742 H 161.799 5.08875 -2.93803 0
M  V30 1743 H 163.323 5.68702 -2.22284 0
M  V30 1744 H 164.737 4.18066 -3.92293 0
M  V30 1745 H 163.134 3.82075 -4.62751 0
M  V30 1746 H 164.204 2.48552 -4.16353 0
M  V30 1747 N 165.547 1.27147 0.931209 0
M  V30 1748 C 166.824 1.0401 1.65654 0
M  V30 1749 C 167.204 -0.426297 2.06751 0
M  V30 1750 O 166.552 -1.40879 1.79904 0
M  V30 1751 C 166.762 1.99834 2.86125 0
M  V30 1752 C 168.11 2.29007 3.57549 0
M  V30 1753 O 169.134 1.97779 2.96246 0
M  V30 1754 O 167.993 2.82222 4.67989 0
M  V30 1755 H 165.087 0.396239 0.725895 0
M  V30 1756 H 167.633 1.38397 0.982056 0
M  V30 1757 H 166.405 2.98744 2.52721 0
M  V30 1758 H 166.028 1.65987 3.61295 0
M  V30 1759 N 167.025 -1.13721 1.09112 0
M  V30 1760 C 167.958 -2.18094 0.67158 0
M  V30 1761 C 168.936 -1.59414 -0.320299 0
M  V30 1762 O 170.12 -1.87183 -0.222444 0
M  V30 1763 C 167.247 -3.38698 -0.0111189 0
M  V30 1764 C 166.293 -4.15966 0.942055 0
M  V30 1765 S 167.126 -4.7604 2.45246 0
M  V30 1766 C 168.282 -5.99994 1.78208 0
M  V30 1767 H 168.515 -2.53344 1.55577 0
M  V30 1768 H 166.048 -1.24967 0.906789 0
M  V30 1769 H 168.006 -4.08559 -0.398716 0
M  V30 1770 H 166.667 -3.01756 -0.871905 0
M  V30 1771 H 165.86 -5.02318 0.411396 0
M  V30 1772 H 165.462 -3.51745 1.2709 0
M  V30 1773 H 167.754 -6.68441 1.10424 0
M  V30 1774 H 168.697 -6.57662 2.62463 0
M  V30 1775 H 169.105 -5.50432 1.25238 0
M  V30 1776 N 168.503 -0.877838 -1.30888 0
M  V30 1777 C 169.413 -0.343096 -2.32078 0
M  V30 1778 C 170.429 0.551022 -1.65045 0
M  V30 1779 O 171.605 0.445854 -1.96403 0
M  V30 1780 C 168.67 0.439905 -3.43898 0
M  V30 1781 C 167.731 -0.483111 -4.26573 0
M  V30 1782 C 166.964 0.262616 -5.33053 0
M  V30 1783 O 167.187 1.48967 -5.50604 0
M  V30 1784 O 166.121 -0.383593 -6.00676 0
M  V30 1785 H 169.947 -1.18203 -2.79753 0
M  V30 1786 H 167.532 -0.64145 -1.34929 0
M  V30 1787 H 169.414 0.883504 -4.12034 0
M  V30 1788 H 168.089 1.25526 -2.98371 0
M  V30 1789 H 166.996 -0.975374 -3.61161 0
M  V30 1790 H 168.329 -1.26427 -4.75686 0
M  V30 1791 N 169.982 1.44106 -0.638065 0
M  V30 1792 C 171.212 2.06037 -0.152394 0
M  V30 1793 C 171.62 1.47808 1.18108 0
M  V30 1794 O 170.963 0.598092 1.73691 0
M  V30 1795 C 171.025 3.59488 0.0293714 0
M  V30 1796 C 170.689 4.4022 -1.22702 0
M  V30 1797 C 171.686 4.73256 -2.15232 0
M  V30 1798 C 169.371 4.8048 -1.46437 0
M  V30 1799 C 171.365 5.45444 -3.29802 0
M  V30 1800 C 169.052 5.52417 -2.61303 0
M  V30 1801 C 170.05 5.84819 -3.52811 0
M  V30 1802 O 169.738 6.55289 -4.65673 0
M  V30 1803 H 169.47 0.671233 -0.0801401 0
M  V30 1804 H 172.024 1.85851 -0.874563 0
M  V30 1805 H 170.254 3.78191 0.806758 0
M  V30 1806 H 171.943 4.03164 0.470475 0
M  V30 1807 H 172.709 4.42684 -1.98131 0
M  V30 1808 H 168.588 4.54676 -0.760977 0
M  V30 1809 H 172.132 5.70653 -4.01249 0
M  V30 1810 H 168.029 5.82404 -2.78344 0
M  V30 1811 H 168.797 6.73762 -4.64744 0
M  V30 1812 N 171.46 0.379036 1.52974 0
M  V30 1813 C 172.688 -0.20679 2.05864 0
M  V30 1814 C 173.103 -1.41356 1.25155 0
M  V30 1815 O 172.46 -1.8009 0.295588 0
M  V30 1816 C 172.511 -0.587045 3.56702 0
M  V30 1817 O 172.232 0.571776 4.34353 0
M  V30 1818 C 173.733 -1.22983 4.25899 0
M  V30 1819 H 170.953 -0.0336123 0.670158 0
M  V30 1820 H 173.497 0.541298 1.97206 0
M  V30 1821 H 171.652 -1.28504 3.65466 0
M  V30 1822 H 172.066 0.261544 5.23847 0
M  V30 1823 H 173.54 -1.44635 5.32715 0
M  V30 1824 H 174.017 -2.19416 3.80465 0
M  V30 1825 H 174.623 -0.572892 4.21424 0
M  V30 1826 N 172.938 -1.57226 0.108567 0
M  V30 1827 C 174.187 -1.94008 -0.551703 0
M  V30 1828 C 174.5 -0.993442 -1.68494 0
M  V30 1829 O 175.706 -1.25551 -2.40726 0
M  V30 1830 C 174.162 -3.44763 -1.03279 0
M  V30 1831 C 173.77 -4.47943 0.0714193 0
M  V30 1832 C 175.514 -3.90483 -1.66503 0
M  V30 1833 C 173.421 -5.89865 -0.425779 0
M  V30 1834 H 172.351 -0.724206 -0.209863 0
M  V30 1835 H 175.002 -1.82547 0.186741 0
M  V30 1836 H 173.384 -3.51422 -1.82533 0
M  V30 1837 H 174.558 -4.52942 0.847365 0
M  V30 1838 H 172.873 -4.11913 0.609669 0
M  V30 1839 H 175.47 -4.93925 -2.04798 0
M  V30 1840 H 175.813 -3.29877 -2.53942 0
M  V30 1841 H 176.346 -3.86581 -0.938074 0
M  V30 1842 H 173.085 -6.54202 0.412316 0
M  V30 1843 H 172.605 -5.88309 -1.16843 0
M  V30 1844 H 174.284 -6.40844 -0.890397 0
M  V30 1845 N 174.416 0.165178 -1.56732 0
M  V30 1846 C 175.693 0.908443 -1.73224 0
M  V30 1847 C 176.073 2.0013 -0.67165 0
M  V30 1848 O 175.421 2.26353 0.31253 0
M  V30 1849 C 175.631 1.46756 -3.16644 0
M  V30 1850 C 176.979 1.93809 -3.77787 0
M  V30 1851 O 178.003 1.56537 -3.1996 0
M  V30 1852 O 176.862 2.62486 -4.79336 0
M  V30 1853 H 173.956 0.428025 -0.707618 0
M  V30 1854 H 176.502 0.152526 -1.69013 0
M  V30 1855 H 175.274 0.68129 -3.85323 0
M  V30 1856 H 174.897 2.28749 -3.25207 0
M  V30 1857 N 175.894 1.51508 0.433938 0
M  V30 1858 C 177.143 1.63578 1.18005 0
M  V30 1859 C 177.456 0.359514 1.92268 0
M  V30 1860 O 178.662 0.359632 2.69108 0
M  V30 1861 C 177.118 2.88901 2.14626 0
M  V30 1862 C 176.726 4.23544 1.45995 0
M  V30 1863 C 178.47 3.10328 2.89649 0
M  V30 1864 C 176.377 5.40014 2.4112 0
M  V30 1865 H 175.307 0.609277 0.444182 0
M  V30 1866 H 177.958 1.77978 0.446773 0
M  V30 1867 H 176.34 2.68142 2.91403 0
M  V30 1868 H 177.514 4.54696 0.747532 0
M  V30 1869 H 175.829 4.08021 0.831115 0
M  V30 1870 H 178.426 3.94518 3.60915 0
M  V30 1871 H 178.769 2.23544 3.51189 0
M  V30 1872 H 179.302 3.31443 2.19978 0
M  V30 1873 H 176.041 6.29068 1.84264 0
M  V30 1874 H 175.561 5.13233 3.10406 0
M  V30 1875 H 177.24 5.72099 3.02177 0
M  V30 1876 N 177.372 -0.689602 1.41712 0
M  V30 1877 C 178.621 -1.44534 1.40686 0
M  V30 1878 C 178.934 -1.95588 0.0213352 0
M  V30 1879 O 180.14 -2.71271 -0.111534 0
M  V30 1880 C 178.596 -2.61387 2.47396 0
M  V30 1881 C 178.204 -2.17094 3.91885 0
M  V30 1882 C 179.948 -3.38986 2.55517 0
M  V30 1883 C 177.855 -3.3094 4.90135 0
M  V30 1884 H 176.785 -0.542925 0.52321 0
M  V30 1885 H 179.436 -0.748054 1.6756 0
M  V30 1886 H 177.818 -3.33412 2.13664 0
M  V30 1887 H 178.992 -1.52318 4.34897 0
M  V30 1888 H 177.307 -1.52473 3.8748 0
M  V30 1889 H 179.904 -4.23747 3.26102 0
M  V30 1890 H 180.247 -3.84578 1.59391 0
M  V30 1891 H 180.78 -2.74021 2.8837 0
M  V30 1892 H 177.519 -2.90355 5.87685 0
M  V30 1893 H 177.039 -3.94546 4.51767 0
M  V30 1894 H 178.718 -3.9663 5.11169 0
M  V30 1895 N 178.85 -1.27639 -0.924453 0
M  V30 1896 C 180.097 -1.14167 -1.67249 0
M  V30 1897 C 180.425 0.311863 -1.91984 0
M  V30 1898 O 179.68 1.24425 -1.51053 0
M  V30 1899 C 179.979 -1.87407 -3.04325 0
M  V30 1900 C 179.645 -3.37249 -2.99289 0
M  V30 1901 C 178.307 -3.7812 -2.97622 0
M  V30 1902 C 180.659 -4.32845 -2.90336 0
M  V30 1903 C 177.987 -5.12944 -2.8479 0
M  V30 1904 C 180.339 -5.6773 -2.79045 0
M  V30 1905 C 179.003 -6.07889 -2.7573 0
M  V30 1906 H 178.273 -0.417766 -0.612007 0
M  V30 1907 H 180.92 -1.58286 -1.07786 0
M  V30 1908 H 179.225 -1.35805 -3.67511 0
M  V30 1909 H 180.922 -1.74408 -3.61086 0
M  V30 1910 H 177.512 -3.04748 -3.01374 0
M  V30 1911 H 181.696 -4.02239 -2.90719 0
M  V30 1912 H 176.952 -5.432 -2.80612 0
M  V30 1913 H 181.126 -6.41472 -2.71083 0
M  V30 1914 H 178.753 -7.12314 -2.65544 0
M  V30 1915 N 180.328 1.1314 -1.09713 0
M  V30 1916 C 181.553 1.88862 -0.857081 0
M  V30 1917 C 181.978 1.78729 0.586304 0
M  V30 1918 O 181.336 1.13692 1.41222 0
M  V30 1919 C 181.384 3.36325 -1.30069 0
M  V30 1920 O 180.488 4.09815 -0.461007 0
M  V30 1921 H 179.829 0.587108 -0.310162 0
M  V30 1922 H 182.359 1.43129 -1.46203 0
M  V30 1923 H 182.369 3.87157 -1.28738 0
M  V30 1924 H 181.044 3.43017 -2.35185 0
M  V30 1925 H 179.621 3.68986 -0.538888 0
M  V30 1926 N 181.806 0.884767 1.30421 0
M  V30 1927 C 182.738 0.308655 2.27112 0
M  V30 1928 C 183.751 -0.536655 1.53701 0
M  V30 1929 O 184.94 -0.35624 1.74909 0
M  V30 1930 C 182.04 -0.579782 3.33904 0
M  V30 1931 C 181.213 0.236417 4.36761 0
M  V30 1932 C 180.272 -0.582482 5.22966 0
M  V30 1933 O 179.298 -0.00525502 5.692 0
M  V30 1934 N 180.5 -1.89163 5.48815 0
M  V30 1935 H 183.265 1.13964 2.77186 0
M  V30 1936 H 180.826 0.747731 1.43599 0
M  V30 1937 H 182.818 -1.13366 3.88497 0
M  V30 1938 H 181.388 -1.31144 2.83761 0
M  V30 1939 H 180.608 0.97174 3.82035 0
M  V30 1940 H 181.896 0.795924 5.02536 0
M  V30 1941 H 181.294 -2.38352 5.13035 0
M  V30 1942 H 179.851 -2.39296 6.06284 0
M  V30 1943 N 183.284 -1.43765 0.645699 0
M  V30 1944 C 184.512 -2.06253 0.163556 0
M  V30 1945 C 184.927 -1.48352 -1.16778 0
M  V30 1946 O 184.284 -0.611932 -1.71935 0
M  V30 1947 C 184.335 -3.61453 0.0583186 0
M  V30 1948 O 184.056 -4.172 1.33702 0
M  V30 1949 C 185.557 -4.41002 -0.450795 0
M  V30 1950 H 182.777 -0.665413 0.0864077 0
M  V30 1951 H 185.321 -1.84396 0.884222 0
M  V30 1952 H 183.476 -3.82522 -0.612865 0
M  V30 1953 H 183.89 -5.10791 1.19131 0
M  V30 1954 H 185.364 -5.49966 -0.473403 0
M  V30 1955 H 185.841 -4.13488 -1.48068 0
M  V30 1956 H 186.447 -4.24886 0.187637 0
M  V30 1957 N 184.763 -0.387143 -1.52771 0
M  V30 1958 C 186.009 0.188506 -2.02525 0
M  V30 1959 C 186.364 1.44649 -1.26864 0
M  V30 1960 O 185.657 1.88189 -0.359945 0
M  V30 1961 C 185.851 0.512209 -3.53711 0
M  V30 1962 C 185.68 -0.712855 -4.44014 0
M  V30 1963 C 184.45 -1.23147 -4.90064 0
M  V30 1964 C 186.648 -1.58453 -4.89282 0
M  V30 1965 N 184.63 -2.41431 -5.64433 0
M  V30 1966 C 186.001 -2.61381 -5.6221 0
M  V30 1967 C 188.056 -1.60488 -4.71326 0
M  V30 1968 C 186.759 -3.66227 -6.19088 0
M  V30 1969 C 188.785 -2.6424 -5.29085 0
M  V30 1970 C 188.147 -3.6589 -6.01917 0
M  V30 1971 H 184.246 0.0311236 -0.78138 0
M  V30 1972 H 186.83 -0.536548 -1.87161 0
M  V30 1973 H 185.001 1.20632 -3.69192 0
M  V30 1974 H 186.733 1.07482 -3.90166 0
M  V30 1975 H 183.488 -0.792795 -4.66917 0
M  V30 1976 H 183.912 -3.01274 -6.0627 0
M  V30 1977 H 188.554 -0.83247 -4.14524 0
M  V30 1978 H 186.272 -4.44337 -6.74974 0
M  V30 1979 H 189.858 -2.66695 -5.17074 0
M  V30 1980 H 188.738 -4.44855 -6.45813 0
M  V30 1981 N 186.241 1.57166 -0.116904 0
M  V30 1982 C 187.471 1.99184 0.548586 0
M  V30 1983 C 187.879 0.995436 1.60897 0
M  V30 1984 O 187.222 -0.0201293 1.83689 0
M  V30 1985 C 187.284 3.37611 1.23526 0
M  V30 1986 C 186.948 4.55857 0.323077 0
M  V30 1987 C 187.945 5.18056 -0.437476 0
M  V30 1988 C 185.63 5.01751 0.234761 0
M  V30 1989 C 187.624 6.24536 -1.2741 0
M  V30 1990 C 185.311 6.08093 -0.605496 0
M  V30 1991 C 186.309 6.69352 -1.35856 0
M  V30 1992 O 185.997 7.7364 -2.18487 0
M  V30 1993 H 185.729 0.659148 0.149999 0
M  V30 1994 H 188.283 2.0443 -0.199428 0
M  V30 1995 H 186.513 3.29113 2.0303 0
M  V30 1996 H 188.202 3.63932 1.79745 0
M  V30 1997 H 188.968 4.83516 -0.379105 0
M  V30 1998 H 184.847 4.53817 0.810601 0
M  V30 1999 H 188.391 6.72281 -1.86237 0
M  V30 2000 H 184.288 6.42063 -0.665268 0
M  V30 2001 H 185.056 7.90727 -2.11406 0
M  V30 2002 N 187.719 -0.156864 1.56817 0
M  V30 2003 C 188.996 -0.899244 1.73704 0
M  V30 2004 C 189.376 -1.99771 0.682254 0
M  V30 2005 O 188.724 -2.26515 -0.300522 0
M  V30 2006 C 188.934 -1.45075 3.17418 0
M  V30 2007 C 190.282 -1.91802 3.7881 0
M  V30 2008 O 191.306 -1.54838 3.20786 0
M  V30 2009 O 190.165 -2.5994 4.80722 0
M  V30 2010 H 187.259 -0.424267 0.709878 0
M  V30 2011 H 189.805 -0.143561 1.69092 0
M  V30 2012 H 188.577 -0.660846 3.85679 0
M  V30 2013 H 188.2 -2.27021 3.26416 0
M  V30 2014 N 189.197 -1.51736 -0.425897 0
M  V30 2015 C 190.107 -1.76738 -1.54275 0
M  V30 2016 C 191.123 -0.65211 -1.61318 0
M  V30 2017 O 192.299 -0.935654 -1.78346 0
M  V30 2018 C 189.364 -1.89755 -2.90162 0
M  V30 2019 C 188.425 -3.13633 -2.93143 0
M  V30 2020 C 187.658 -3.2602 -4.22548 0
M  V30 2021 O 187.881 -2.44067 -5.15546 0
M  V30 2022 O 186.815 -4.19071 -4.32046 0
M  V30 2023 H 190.641 -2.71502 -1.36089 0
M  V30 2024 H 188.226 -1.36376 -0.610069 0
M  V30 2025 H 190.108 -2.00236 -3.70788 0
M  V30 2026 H 188.783 -0.981785 -3.08452 0
M  V30 2027 H 187.69 -3.08622 -2.11431 0
M  V30 2028 H 189.023 -4.04936 -2.798 0
M  V30 2029 N 190.675 0.682077 -1.42076 0
M  V30 2030 C 192.091 0.994324 -1.24841 0
M  V30 2031 C 192.291 2.0096 -0.147389 0
M  V30 2032 O 191.347 2.47822 0.483782 0
M  V30 2033 C 192.66 1.50607 -2.60265 0
M  V30 2034 C 194.208 1.62421 -2.6756 0
M  V30 2035 C 194.683 2.16994 -4.03333 0
M  V30 2036 N 196.174 2.24337 -4.0525 0
M  V30 2037 C 196.909 2.67621 -5.07116 0
M  V30 2038 N 196.405 3.1041 -6.19368 0
M  V30 2039 N 198.198 2.67305 -4.94474 0
M  V30 2040 H 190.349 0.00973908 -2.12398 0
M  V30 2041 H 192.612 0.0668593 -0.945639 0
M  V30 2042 H 192.318 0.834583 -3.41654 0
M  V30 2043 H 192.192 2.48602 -2.83684 0
M  V30 2044 H 194.579 2.28678 -1.86521 0
M  V30 2045 H 194.66 0.629352 -2.47937 0
M  V30 2046 H 194.304 1.51349 -4.84826 0
M  V30 2047 H 194.234 3.17258 -4.20304 0
M  V30 2048 H 196.725 1.94158 -3.24209 0
M  V30 2049 H 197.038 3.42103 -6.92954 0
M  V30 2050 H 195.383 3.08286 -6.22884 0
M  V30 2051 H 198.574 2.33233 -4.05857 0
M  V30 2052 H 198.747 3.00718 -5.73997 0
M  V30 2053 N 192.153 1.28127 0.917671 0
M  V30 2054 C 193.083 1.14248 2.03641 0
M  V30 2055 C 194.064 0.0412748 1.7005 0
M  V30 2056 O 195.249 0.217566 1.92977 0
M  V30 2057 C 192.379 0.799431 3.37974 0
M  V30 2058 C 191.333 1.85497 3.85713 0
M  V30 2059 C 190.659 1.36565 5.16966 0
M  V30 2060 C 191.959 3.26085 4.08002 0
M  V30 2061 H 193.653 2.07835 2.15511 0
M  V30 2062 H 191.199 1.00064 1.03553 0
M  V30 2063 H 193.152 0.689114 4.15727 0
M  V30 2064 H 191.876 -0.172145 3.26146 0
M  V30 2065 H 190.535 1.95437 3.10161 0
M  V30 2066 H 190.183 0.383253 5.01538 0
M  V30 2067 H 189.883 2.07143 5.49878 0
M  V30 2068 H 191.407 1.26848 5.97279 0
M  V30 2069 H 192.821 3.19089 4.76293 0
M  V30 2070 H 191.218 3.94462 4.52238 0
M  V30 2071 H 192.288 3.70394 3.12948 0
M  V30 2072 N 193.631 -1.12557 1.10312 0
M  V30 2073 C 194.871 -1.8568 0.854543 0
M  V30 2074 C 195.235 -1.82091 -0.608843 0
M  V30 2075 O 196.436 -2.50544 -0.973717 0
M  V30 2076 C 194.707 -3.2942 1.38626 0
M  V30 2077 S 196.266 -4.19931 1.27293 0
M  V30 2078 H 193.084 -0.640427 0.308827 0
M  V30 2079 H 195.686 -1.35599 1.40831 0
M  V30 2080 H 194.39 -3.2959 2.44537 0
M  V30 2081 H 193.921 -3.84566 0.82902 0
M  V30 2082 H 195.936 -4.95668 0.229776 0
M  V30 2083 N 195.109 -0.891671 -1.2995 0
M  V30 2084 C 196.339 -0.527893 -1.99742 0
M  V30 2085 C 196.747 0.88979 -1.66971 0
M  V30 2086 O 196.09 1.59766 -0.906667 0
M  V30 2087 C 196.152 -0.630804 -3.53922 0
M  V30 2088 C 195.816 -2.01401 -4.10228 0
M  V30 2089 C 196.813 -2.98422 -4.25724 0
M  V30 2090 C 194.498 -2.32121 -4.45449 0
M  V30 2091 C 196.492 -4.24293 -4.75662 0
M  V30 2092 C 194.179 -3.58237 -4.95086 0
M  V30 2093 C 195.177 -4.54137 -5.10146 0
M  V30 2094 O 194.865 -5.78014 -5.58708 0
M  V30 2095 H 194.597 -0.201953 -0.645129 0
M  V30 2096 H 197.151 -1.20076 -1.66646 0
M  V30 2097 H 195.381 0.0990616 -3.86573 0
M  V30 2098 H 197.07 -0.277338 -4.04951 0
M  V30 2099 H 197.836 -2.76001 -3.98809 0
M  V30 2100 H 193.715 -1.5824 -4.32991 0
M  V30 2101 H 197.259 -4.99153 -4.87332 0
M  V30 2102 H 193.156 -3.80491 -5.21437 0
M  V30 2103 H 193.924 -5.8049 -5.77039 0
M  V30 2104 N 196.587 1.43421 -0.653314 0
M  V30 2105 C 197.535 2.32546 0.0501531 0
M  V30 2106 C 198.529 1.48617 0.812985 0
M  V30 2107 O 199.735 1.64825 0.723375 0
M  V30 2108 H 196.11 0.751185 0.0350032 0
M  V30 2109 H 198.081 2.89602 -0.719261 0
M  V30 2110 C 196.83 3.32925 1.00279 0
M  V30 2111 H 196.153 3.97532 0.425236 0
M  V30 2112 H 197.593 3.9792 1.46409 0
M  V30 2113 C 196.052 2.63532 2.09886 0
M  V30 2114 O 196.582 2.45092 3.18265 0
M  V30 2115 N 194.788 2.22905 1.86445 0
M  V30 2116 H 194.335 2.38103 0.98309 0
M  V30 2117 H 194.293 1.76805 2.59976 0
M  V30 2118 N 198.065 0.39524 1.52563 0
M  V30 2119 C 199.342 -0.242908 1.94086 0
M  V30 2120 C 199.722 -1.63841 1.33114 0
M  V30 2121 O 199.07 -2.22928 0.501529 0
M  V30 2122 C 199.28 -0.26327 3.48006 0
M  V30 2123 C 200.628 -0.489354 4.21771 0
M  V30 2124 O 201.652 -0.343226 3.54543 0
M  V30 2125 O 200.511 -0.776169 5.4096 0
M  V30 2126 H 197.605 -0.152536 0.812811 0
M  V30 2127 H 200.151 0.450178 1.6362 0
M  V30 2128 H 198.923 0.713985 3.84731 0
M  V30 2129 H 198.546 -1.00103 3.84792 0
M  V30 2130 N 199.544 -1.57102 0.125237 0
M  V30 2131 C 200.772 -1.99761 -0.538797 0
M  V30 2132 C 201.187 -1.00503 -1.59827 0
M  V30 2133 O 200.544 0.00119474 -1.825 0
M  V30 2134 C 200.595 -3.42408 -1.15927 0
M  V30 2135 O 200.316 -4.37869 -0.142143 0
M  V30 2136 C 201.817 -4.00232 -1.90602 0
M  V30 2137 H 199.037 -0.655772 -0.14214 0
M  V30 2138 H 201.581 -2.03383 0.213413 0
M  V30 2139 H 199.736 -3.39706 -1.86223 0
M  V30 2140 H 200.15 -5.21128 -0.593775 0
M  V30 2141 H 201.624 -5.02105 -2.29335 0
M  V30 2142 H 202.101 -3.39721 -2.78363 0
M  V30 2143 H 202.707 -4.06499 -1.25055 0
M  V30 2144 N 201.022 0.148545 -1.56898 0
M  V30 2145 C 202.269 0.861418 -1.83264 0
M  V30 2146 C 202.597 1.81239 -0.705883 0
M  V30 2147 O 201.852 1.93305 0.305212 0
M  V30 2148 C 202.151 1.67064 -3.1595 0
M  V30 2149 C 201.817 0.866591 -4.42494 0
M  V30 2150 C 200.479 0.644762 -4.76861 0
M  V30 2151 C 202.831 0.30418 -5.20312 0
M  V30 2152 C 200.159 -0.15021 -5.86508 0
M  V30 2153 C 202.511 -0.477824 -6.30793 0
M  V30 2154 C 201.175 -0.710244 -6.63711 0
M  V30 2155 H 200.445 0.315215 -0.670612 0
M  V30 2156 H 203.092 0.125142 -1.91091 0
M  V30 2157 H 201.397 2.47698 -3.03567 0
M  V30 2158 H 203.094 2.22566 -3.33565 0
M  V30 2159 H 199.684 1.04955 -4.15551 0
M  V30 2160 H 203.868 0.462844 -4.94137 0
M  V30 2161 H 199.124 -0.339796 -6.10455 0
M  V30 2162 H 203.298 -0.92076 -6.90286 0
M  V30 2163 H 200.925 -1.3281 -7.48509 0
M  V30 2164 N 202.5 1.5196 0.417844 0
M  V30 2165 C 203.41 1.77554 1.53336 0
M  V30 2166 C 204.426 0.660655 1.6097 0
M  V30 2167 O 205.602 0.945099 1.77848 0
M  V30 2168 C 202.667 1.91291 2.89152 0
M  V30 2169 C 201.728 3.15183 2.91475 0
M  V30 2170 C 200.961 3.28256 4.20813 0
M  V30 2171 O 201.184 2.46798 5.14244 0
M  V30 2172 O 200.118 4.21356 4.29817 0
M  V30 2173 H 203.944 2.7222 1.34647 0
M  V30 2174 H 201.529 1.36698 0.602828 0
M  V30 2175 H 203.411 2.02199 3.69721 0
M  V30 2176 H 202.086 0.998129 3.07927 0
M  V30 2177 H 200.993 3.09739 2.09791 0
M  V30 2178 H 202.326 4.06414 2.77648 0
M  V30 2179 N 203.978 -0.674533 1.42435 0
M  V30 2180 C 205.203 -1.46784 1.46524 0
M  V30 2181 C 205.628 -1.87938 0.078066 0
M  V30 2182 O 204.986 -1.56014 -0.92354 0
M  V30 2183 C 205.034 -2.69307 2.39805 0
M  V30 2184 O 204.138 -3.67587 1.86959 0
M  V30 2185 H 203.479 -0.440959 0.496439 0
M  V30 2186 H 206.009 -0.827326 1.87127 0
M  V30 2187 H 206.019 -3.17374 2.56393 0
M  V30 2188 H 204.694 -2.38692 3.40586 0
M  V30 2189 H 203.271 -3.2662 1.79927 0
M  V30 2190 N 205.456 -1.28612 -0.910864 0
M  V30 2191 C 206.386 -1.15326 -2.03032 0
M  V30 2192 C 207.367 -0.0502924 -1.70026 0
M  V30 2193 O 208.552 -0.227797 -1.92859 0
M  V30 2194 C 205.682 -0.817343 -3.37545 0
M  V30 2195 C 204.636 -1.8754 -3.84724 0
M  V30 2196 C 203.962 -1.39305 -5.16235 0
M  V30 2197 C 205.262 -3.28244 -4.06267 0
M  V30 2198 H 206.956 -2.08975 -2.14406 0
M  V30 2199 H 204.502 -1.00612 -1.03021 0
M  V30 2200 H 206.455 -0.711151 -4.15356 0
M  V30 2201 H 205.179 0.154846 -3.26233 0
M  V30 2202 H 203.838 -1.97079 -3.09121 0
M  V30 2203 H 203.486 -0.409846 -5.01328 0
M  V30 2204 H 203.186 -2.10057 -5.48771 0
M  V30 2205 H 204.71 -1.30014 -5.96598 0
M  V30 2206 H 206.124 -3.21611 -4.74594 0
M  V30 2207 H 204.521 -3.96855 -4.5014 0
M  V30 2208 H 205.591 -3.72048 -3.10979 0
M  V30 2209 N 206.934 1.1197 -1.10907 0
M  V30 2210 C 208.18 1.8386 -0.855773 0
M  V30 2211 C 208.513 1.84134 0.617103 0
M  V30 2212 O 207.788 1.29041 1.45529 0
M  V30 2213 C 208.071 3.31305 -1.411 0
M  V30 2214 C 207.924 3.39456 -2.9511 0
M  V30 2215 C 209.243 4.2721 -1.05736 0
M  V30 2216 H 206.362 0.667545 -0.312334 0
M  V30 2217 H 209.004 1.31331 -1.37303 0
M  V30 2218 H 207.154 3.76169 -0.97105 0
M  V30 2219 H 208.826 3.03191 -3.47668 0
M  V30 2220 H 207.069 2.79849 -3.31462 0
M  V30 2221 H 207.74 4.43209 -3.29044 0
M  V30 2222 H 210.216 3.90497 -1.43706 0
M  V30 2223 H 209.092 5.28775 -1.47269 0
M  V30 2224 H 209.353 4.42088 0.0325958 0
M  V30 2225 N 208.412 0.89855 1.29475 0
M  V30 2226 C 209.342 0.39201 2.30186 0
M  V30 2227 C 210.323 -0.532359 1.61555 0
M  V30 2228 O 211.508 -0.443331 1.89072 0
M  V30 2229 C 208.638 -0.382353 3.45189 0
M  V30 2230 C 207.592 0.451483 4.25612 0
M  V30 2231 C 206.918 -0.450307 5.328 0
M  V30 2232 C 208.218 1.70079 4.93832 0
M  V30 2233 H 209.912 1.23362 2.72804 0
M  V30 2234 H 207.458 0.594638 1.31149 0
M  V30 2235 H 209.411 -0.747451 4.14718 0
M  V30 2236 H 208.135 -1.25774 3.01411 0
M  V30 2237 H 206.794 0.798897 3.57789 0
M  V30 2238 H 206.442 -1.32379 4.85268 0
M  V30 2239 H 206.142 0.103902 5.87508 0
M  V30 2240 H 207.666 -0.811623 6.05182 0
M  V30 2241 H 209.08 1.40549 5.55805 0
M  V30 2242 H 207.477 2.19623 5.58467 0
M  V30 2243 H 208.547 2.43744 4.19186 0
M  V30 2244 N 209.89 -1.43072 0.660911 0
M  V30 2245 C 210.838 -2.32569 -0.0378199 0
M  V30 2246 C 211.832 -1.49046 -0.805092 0
M  V30 2247 O 213.038 -1.65206 -0.714624 0
M  V30 2248 H 209.413 -0.75136 -0.031019 0
M  V30 2249 H 211.384 -2.89216 0.734609 0
M  V30 2250 C 210.133 -3.33453 -0.985124 0
M  V30 2251 H 209.456 -3.97752 -0.404147 0
M  V30 2252 H 210.896 -3.98691 -1.44297 0
M  V30 2253 C 209.355 -2.64642 -2.08486 0
M  V30 2254 O 209.885 -2.46776 -3.16961 0
M  V30 2255 N 208.091 -2.23891 -1.8526 0
M  V30 2256 H 207.638 -2.38621 -0.970449 0
M  V30 2257 H 207.596 -1.78181 -2.59034 0
M  V30 2258 N 211.368 -0.403325 -1.52352 0
M  V30 2259 C 212.616 0.174003 -2.0135 0
M  V30 2260 C 212.937 1.46139 -1.29106 0
M  V30 2261 O 212.207 1.91448 -0.415253 0
M  V30 2262 H 210.787 0.0672911 -0.743963 0
M  V30 2263 H 213.449 -0.538235 -1.87321 0
M  V30 2264 H 212.545 0.374254 -3.09848 0
M  V30 2265 N 212.846 1.57033 -0.133567 0
M  V30 2266 C 213.794 2.17348 0.828412 0
M  V30 2267 C 214.788 1.12671 1.26498 0
M  V30 2268 O 215.994 1.30947 1.23502 0
M  V30 2269 H 212.369 0.695775 0.285309 0
M  V30 2270 H 214.34 2.96935 0.295372 0
M  V30 2271 C 213.089 2.79893 2.06289 0
M  V30 2272 H 212.412 3.60147 1.73592 0
M  V30 2273 H 213.852 3.25615 2.71572 0
M  V30 2274 C 212.311 1.77713 2.86216 0
M  V30 2275 O 212.841 1.23937 3.82103 0
M  V30 2276 N 211.047 1.47321 2.50489 0
M  V30 2277 H 210.594 1.91243 1.7258 0
M  V30 2278 H 210.552 0.79199 3.04261 0
M  V30 2279 N 214.325 -0.140222 1.56975 0
M  V30 2280 C 215.571 -0.852949 1.83991 0
M  V30 2281 C 215.904 -1.80512 0.716187 0
M  V30 2282 O 215.179 -1.92479 -0.279681 0
M  V30 2283 C 215.462 -1.6215 3.21527 0
M  V30 2284 C 215.315 -0.690363 4.4447 0
M  V30 2285 C 216.634 -2.58247 3.56366 0
M  V30 2286 H 213.753 -0.308634 0.669264 0
M  V30 2287 H 216.395 -0.117898 1.89634 0
M  V30 2288 H 214.545 -2.24812 3.16847 0
M  V30 2289 H 216.217 -0.0742264 4.6124 0
M  V30 2290 H 214.46 -0.000396433 4.338 0
M  V30 2291 H 215.131 -1.2643 5.37326 0
M  V30 2292 H 217.607 -2.05701 3.61699 0
M  V30 2293 H 216.483 -3.09067 4.53617 0
M  V30 2294 H 216.744 -3.39923 2.82674 0
M  V30 2295 N 215.803 -1.52179 -0.40978 0
M  V30 2296 C 217.049 -1.66453 -1.15851 0
M  V30 2297 C 217.382 -0.392972 -1.90182 0
M  V30 2298 O 216.657 0.608579 -1.84734 0
M  V30 2299 C 216.94 -2.88612 -2.15349 0
M  V30 2300 C 216.793 -4.25815 -1.44918 0
M  V30 2301 C 218.112 -3.06294 -3.16026 0
M  V30 2302 H 215.231 -0.60575 -0.419805 0
M  V30 2303 H 217.873 -1.84732 -0.444314 0
M  V30 2304 H 216.023 -2.73158 -2.76255 0
M  V30 2305 H 217.695 -4.52995 -0.871365 0
M  V30 2306 H 215.938 -4.27247 -0.751159 0
M  V30 2307 H 216.609 -5.07337 -2.17516 0
M  V30 2308 H 219.085 -3.20641 -2.65195 0
M  V30 2309 H 217.961 -3.93283 -3.8291 0
M  V30 2310 H 218.222 -2.19579 -3.83715 0
M  V30 2311 N 217.281 0.66697 -1.42791 0
M  V30 2312 C 218.506 1.46004 -1.47301 0
M  V30 2313 C 218.931 1.87894 -0.0880317 0
M  V30 2314 O 218.289 1.56502 0.915253 0
M  V30 2315 C 218.337 2.68031 -2.41229 0
M  V30 2316 O 217.441 3.6659 -1.88906 0
M  V30 2317 H 216.782 0.43832 -0.49877 0
M  V30 2318 H 219.312 0.817391 -1.87563 0
M  V30 2319 H 219.322 3.1601 -2.58073 0
M  V30 2320 H 217.997 2.36883 -3.41847 0
M  V30 2321 H 216.574 3.25661 -1.81656 0
M  V30 2322 N 218.759 1.29093 0.90403 0
M  V30 2323 C 219.691 1.09658 2.01266 0
M  V30 2324 C 220.704 0.0453729 1.62737 0
M  V30 2325 O 221.893 0.289446 1.76138 0
M  V30 2326 C 218.993 0.646278 3.32681 0
M  V30 2327 C 218.166 1.77505 3.99763 0
M  V30 2328 C 217.225 1.31649 5.09465 0
M  V30 2329 O 216.251 2.02045 5.32134 0
M  V30 2330 N 217.453 0.184997 5.80205 0
M  V30 2331 H 220.218 2.05135 2.18494 0
M  V30 2332 H 217.779 1.20975 1.07594 0
M  V30 2333 H 219.771 0.322906 4.0341 0
M  V30 2334 H 218.341 -0.215916 3.11853 0
M  V30 2335 H 217.561 2.26752 3.22455 0
M  V30 2336 H 218.849 2.53198 4.41325 0
M  V30 2337 H 218.247 -0.402021 5.6427 0
M  V30 2338 H 216.804 -0.0790358 6.51752 0
M  V30 2339 N 220.237 -1.11381 1.11499 0
M  V30 2340 C 221.167 -2.19509 0.796125 0
M  V30 2341 C 222.148 -1.68458 -0.235796 0
M  V30 2342 O 223.333 -1.93947 -0.0991344 0
M  V30 2343 C 220.463 -3.46475 0.239205 0
M  V30 2344 C 219.417 -4.10744 1.20307 0
M  V30 2345 C 218.743 -5.32293 0.50683 0
M  V30 2346 C 220.043 -4.55597 2.55399 0
M  V30 2347 H 221.737 -2.46439 1.70024 0
M  V30 2348 H 219.283 -1.18446 0.818935 0
M  V30 2349 H 221.236 -4.214 0.00392006 0
M  V30 2350 H 219.96 -3.19006 -0.700206 0
M  V30 2351 H 218.619 -3.37813 1.42399 0
M  V30 2352 H 218.267 -5.01095 -0.437408 0
M  V30 2353 H 217.967 -5.76243 1.1497 0
M  V30 2354 H 219.491 -6.09956 0.280351 0
M  V30 2355 H 220.905 -5.21841 2.37391 0
M  V30 2356 H 219.302 -5.10363 3.15673 0
M  V30 2357 H 220.372 -3.69013 3.14575 0
M  V30 2358 N 221.715 -0.905404 -1.28997 0
M  V30 2359 C 222.961 -0.544465 -1.95977 0
M  V30 2360 C 223.316 0.90041 -1.70031 0
M  V30 2361 O 222.609 1.63064 -1.00601 0
M  V30 2362 C 222.803 -0.779906 -3.48787 0
M  V30 2363 C 222.632 -2.24612 -3.89589 0
M  V30 2364 C 221.402 -2.89464 -4.14172 0
M  V30 2365 C 223.6 -3.22182 -4.00878 0
M  V30 2366 N 221.582 -4.26469 -4.41585 0
M  V30 2367 C 222.953 -4.44323 -4.32409 0
M  V30 2368 C 225.008 -3.17694 -3.83373 0
M  V30 2369 C 223.711 -5.62546 -4.48258 0
M  V30 2370 C 225.737 -4.35208 -4.00435 0
M  V30 2371 C 225.099 -5.56121 -4.3233 0
M  V30 2372 H 221.198 -0.248948 -0.741316 0
M  V30 2373 H 223.782 -1.1674 -1.5582 0
M  V30 2374 H 221.953 -0.186308 -3.87953 0
M  V30 2375 H 223.685 -0.383833 -4.02876 0
M  V30 2376 H 220.44 -2.40232 -4.08149 0
M  V30 2377 H 220.864 -4.97283 -4.5939 0
M  V30 2378 H 225.506 -2.25297 -3.57773 0
M  V30 2379 H 223.224 -6.55429 -4.72692 0
M  V30 2380 H 226.81 -4.33228 -3.88336 0
M  V30 2381 H 225.69 -6.45537 -4.45255 0
M  V30 2382 N 223.193 1.4272 -0.668489 0
M  V30 2383 C 224.442 2.00846 -0.185389 0
M  V30 2384 C 224.755 1.53442 1.21305 0
M  V30 2385 O 225.961 2.03944 1.79218 0
M  V30 2386 C 224.417 3.58805 -0.280591 0
M  V30 2387 C 224.025 4.15198 -1.68268 0
M  V30 2388 C 225.769 4.24255 0.14412 0
M  V30 2389 C 223.676 5.655 -1.73099 0
M  V30 2390 H 222.606 0.751145 -0.0655475 0
M  V30 2391 H 225.257 1.63516 -0.832752 0
M  V30 2392 H 223.639 3.93608 0.434553 0
M  V30 2393 H 224.813 3.91866 -2.42441 0
M  V30 2394 H 223.128 3.62176 -2.05469 0
M  V30 2395 H 225.725 5.34547 0.128086 0
M  V30 2396 H 226.068 3.99277 1.17827 0
M  V30 2397 H 226.601 3.94389 -0.519798 0
M  V30 2398 H 223.34 5.95268 -2.74475 0
M  V30 2399 H 222.86 5.90842 -1.03274 0
M  V30 2400 H 224.539 6.29808 -1.48158 0
M  V30 2401 N 224.671 0.411399 1.52136 0
M  V30 2402 C 226.082 -0.0576826 1.86611 0
M  V30 2403 C 226.433 -1.44238 1.33003 0
M  V30 2404 O 225.558 -2.05759 0.670228 0
M  V30 2405 C 226.153 -0.111448 3.38617 0
M  V30 2406 C 224.712 -0.52487 3.72723 0
M  V30 2407 C 223.859 0.299176 2.75681 0
M  V30 2408 H 226.81 0.628368 1.4573 0
M  V30 2409 H 226.831 -0.926252 3.69054 0
M  V30 2410 H 226.343 0.896488 3.77604 0
M  V30 2411 H 224.444 -1.53936 3.39315 0
M  V30 2412 H 224.557 -0.267681 4.78352 0
M  V30 2413 H 222.921 -0.238814 2.53578 0
M  V30 2414 H 223.704 1.3055 3.17508 0
M  V30 2415 N 226.149 -1.5696 0.141893 0
M  V30 2416 C 227.426 -1.87553 -0.555281 0
M  V30 2417 C 227.806 -1.04699 -1.83306 0
M  V30 2418 O 227.154 -0.132346 -2.28116 0
M  V30 2419 C 227.364 -3.39093 -0.825664 0
M  V30 2420 C 228.712 -4.08199 -1.16869 0
M  V30 2421 O 229.736 -3.44242 -0.915185 0
M  V30 2422 O 228.595 -5.21139 -1.6455 0
M  V30 2423 H 225.689 -0.777188 -0.282679 0
M  V30 2424 H 228.235 -1.68763 0.17812 0
M  V30 2425 H 227.007 -3.91221 0.0788633 0
M  V30 2426 H 226.63 -3.63393 -1.61343 0
M  V30 2427 N 227.627 0.131896 -1.57047 0
M  V30 2428 C 228.855 0.856461 -1.88341 0
M  V30 2429 C 229.27 1.74042 -0.731757 0
M  V30 2430 O 228.627 1.80051 0.297945 0
M  V30 2431 C 228.678 1.70064 -3.18999 0
M  V30 2432 O 228.399 0.852278 -4.2973 0
M  V30 2433 C 229.9 2.53148 -3.63911 0
M  V30 2434 H 227.12 0.246885 -0.62393 0
M  V30 2435 H 229.664 0.120152 -2.04147 0
M  V30 2436 H 227.819 2.38984 -3.04902 0
M  V30 2437 H 228.233 1.43329 -5.04537 0
M  V30 2438 H 229.707 3.07931 -4.58129 0
M  V30 2439 H 230.184 3.29901 -2.89935 0
M  V30 2440 H 230.79 1.89492 -3.80753 0
M  V30 2441 N 229.106 1.52395 0.401703 0
M  V30 2442 C 230.353 1.66817 1.14796 0
M  V30 2443 C 230.681 0.401772 1.90305 0
M  V30 2444 O 229.936 -0.615487 1.85769 0
M  V30 2445 C 230.235 2.84578 2.16217 0
M  V30 2446 C 229.901 4.22513 1.5746 0
M  V30 2447 C 228.563 4.60029 1.41161 0
M  V30 2448 C 230.915 5.0844 1.14622 0
M  V30 2449 C 228.243 5.81144 0.80552 0
M  V30 2450 C 230.595 6.30167 0.55428 0
M  V30 2451 C 229.259 6.66426 0.378482 0
M  V30 2452 H 228.529 0.610428 0.420069 0
M  V30 2453 H 231.176 1.86512 0.434212 0
M  V30 2454 H 229.481 2.59248 2.93764 0
M  V30 2455 H 231.178 2.92933 2.73845 0
M  V30 2456 H 227.768 3.92953 1.71132 0
M  V30 2457 H 231.952 4.80034 1.26021 0
M  V30 2458 H 227.208 6.07855 0.657399 0
M  V30 2459 H 231.382 6.96071 0.213983 0
M  V30 2460 H 229.009 7.60143 -0.0932606 0
M  V30 2461 N 230.584 -0.659388 1.43143 0
M  V30 2462 C 231.831 -1.41935 1.44433 0
M  V30 2463 C 232.159 -1.94387 0.0663522 0
M  V30 2464 O 231.414 -1.72314 -0.927706 0
M  V30 2465 C 231.713 -2.62206 2.42864 0
M  V30 2466 C 231.379 -2.28208 3.88886 0
M  V30 2467 C 230.041 -2.18647 4.28657 0
M  V30 2468 C 232.393 -2.00887 4.8093 0
M  V30 2469 C 229.721 -1.79914 5.58433 0
M  V30 2470 C 232.073 -1.63653 6.11065 0
M  V30 2471 C 230.737 -1.52614 6.49819 0
M  V30 2472 H 230.007 -0.519376 0.528517 0
M  V30 2473 H 232.654 -0.750453 1.76183 0
M  V30 2474 H 230.959 -3.34199 2.04495 0
M  V30 2475 H 232.656 -3.2041 2.41119 0
M  V30 2476 H 229.246 -2.36557 3.57406 0
M  V30 2477 H 233.43 -2.07198 4.5098 0
M  V30 2478 H 228.686 -1.69948 5.87305 0
M  V30 2479 H 232.86 -1.41543 6.81864 0
M  V30 2480 H 230.487 -1.22371 7.50286 0
M  V30 2481 N 232.062 -1.29571 -0.897171 0
M  V30 2482 C 233.478 -1.07637 -1.17841 0
M  V30 2483 C 233.678 0.170713 -2.00776 0
M  V30 2484 O 232.734 0.867768 -2.3712 0
M  V30 2485 C 234.047 -2.3332 -1.8969 0
M  V30 2486 C 235.595 -2.38664 -2.02505 0
M  V30 2487 C 236.07 -3.64157 -2.77765 0
M  V30 2488 N 237.561 -3.64894 -2.85318 0
M  V30 2489 C 238.296 -4.58679 -3.44094 0
M  V30 2490 N 237.792 -5.62799 -4.04017 0
M  V30 2491 N 239.585 -4.46245 -3.41793 0
M  V30 2492 H 231.736 -2.09598 -0.343883 0
M  V30 2493 H 233.999 -0.923333 -0.214848 0
M  V30 2494 H 233.705 -3.24262 -1.36187 0
M  V30 2495 H 233.579 -2.41025 -2.9015 0
M  V30 2496 H 235.966 -1.48208 -2.55183 0
M  V30 2497 H 236.047 -2.34943 -1.01171 0
M  V30 2498 H 235.691 -4.54965 -2.25763 0
M  V30 2499 H 235.621 -3.65137 -3.7945 0
M  V30 2500 H 238.112 -2.89613 -2.42761 0
M  V30 2501 H 238.425 -6.3048 -4.46895 0
M  V30 2502 H 236.77 -5.66605 -4.02472 0
M  V30 2503 H 239.961 -3.64094 -2.94199 0
M  V30 2504 H 240.134 -5.19518 -3.87304 0
M  V30 2505 N 233.54 1.10788 -1.12088 0
M  V30 2506 C 234.488 2.19111 -0.780587 0
M  V30 2507 C 235.482 1.67818 0.230961 0
M  V30 2508 O 236.688 1.79777 0.0895427 0
M  V30 2509 H 233.063 0.714477 -0.234578 0
M  V30 2510 H 235.034 2.45055 -1.70266 0
M  V30 2511 C 233.783 3.46818 -0.24747 0
M  V30 2512 H 233.106 3.86646 -1.01712 0
M  V30 2513 H 234.546 4.23973 -0.0476291 0
M  V30 2514 C 233.005 3.20968 1.02378 0
M  V30 2515 O 233.535 3.42298 2.10226 0
M  V30 2516 N 231.741 2.74658 0.949271 0
M  V30 2517 H 231.288 2.57501 0.0715173 0
M  V30 2518 H 231.246 2.57739 1.80049 0
M  V30 2519 N 235.018 0.912232 1.28515 0
M  V30 2520 C 236.243 0.559774 1.99703 0
M  V30 2521 C 236.668 -0.851393 1.67729 0
M  V30 2522 O 236.026 -1.56875 0.908834 0
M  V30 2523 C 236.074 0.773874 3.52198 0
M  V30 2524 O 235.178 -0.167842 4.12058 0
M  V30 2525 H 234.519 0.21723 0.627461 0
M  V30 2526 H 237.049 1.22725 1.63706 0
M  V30 2527 H 237.059 0.683386 4.02236 0
M  V30 2528 H 235.734 1.80261 3.74805 0
M  V30 2529 H 234.311 -0.0287509 3.72889 0
M  V30 2530 N 236.496 -1.42363 0.676048 0
M  V30 2531 C 237.443 -2.308 -0.00150904 0
M  V30 2532 C 238.413 -1.46032 -0.791444 0
M  V30 2533 O 239.598 -1.74861 -0.76344 0
M  V30 2534 C 236.738 -3.31883 -0.945919 0
M  V30 2535 C 235.851 -4.31741 -0.149675 0
M  V30 2536 C 234.986 -5.19898 -1.08995 0
M  V30 2537 C 234.025 -6.11434 -0.285465 0
M  V30 2538 N 233.162 -6.92138 -1.17851 0
M  V30 2539 H 238.002 -2.88187 0.758455 0
M  V30 2540 H 235.539 -1.41952 0.38576 0
M  V30 2541 H 237.497 -3.89019 -1.50731 0
M  V30 2542 H 236.127 -2.76093 -1.6725 0
M  V30 2543 H 235.179 -3.76713 0.528359 0
M  V30 2544 H 236.491 -4.96534 0.474866 0
M  V30 2545 H 235.645 -5.81772 -1.72123 0
M  V30 2546 H 234.384 -4.55284 -1.74837 0
M  V30 2547 H 233.389 -5.48627 0.359018 0
M  V30 2548 H 234.614 -6.78097 0.368883 0
M  V30 2549 H 232.56 -6.30152 -1.82332 0
M  V30 2550 H 232.477 -7.53542 -0.609082 0
M  V30 2551 H 233.745 -7.58499 -1.79722 0
M  V30 2552 N 237.974 -0.419461 -1.51915 0
M  V30 2553 C 239.39 -0.0708431 -1.59443 0
M  V30 2554 C 239.59 1.41796 -1.43164 0
M  V30 2555 O 238.646 2.18596 -1.26381 0
M  V30 2556 C 239.959 -0.574991 -2.95151 0
M  V30 2557 C 241.507 -0.533867 -3.08413 0
M  V30 2558 C 241.982 -1.01469 -4.46618 0
M  V30 2559 N 243.473 -0.971939 -4.52888 0
M  V30 2560 C 244.208 -1.31505 -5.58116 0
M  V30 2561 N 243.704 -1.73014 -6.70849 0
M  V30 2562 N 245.497 -1.23436 -5.48379 0
M  V30 2563 H 237.648 -1.38836 -1.60743 0
M  V30 2564 H 239.911 -0.570998 -0.756747 0
M  V30 2565 H 239.617 -1.61597 -3.12377 0
M  V30 2566 H 239.491 0.00979777 -3.77199 0
M  V30 2567 H 241.878 0.498086 -2.90866 0
M  V30 2568 H 241.959 -1.15484 -2.28248 0
M  V30 2569 H 241.603 -2.04502 -4.6491 0
M  V30 2570 H 241.533 -0.370433 -5.25295 0
M  V30 2571 H 244.024 -0.666893 -3.71969 0
M  V30 2572 H 244.337 -1.97479 -7.47143 0
M  V30 2573 H 242.682 -1.76926 -6.72103 0
M  V30 2574 H 245.873 -0.908869 -4.59192 0
M  V30 2575 H 246.046 -1.50506 -6.30279 0
M  V30 2576 N 239.452 1.56882 -0.150215 0
M  V30 2577 C 240.68 2.00593 0.506948 0
M  V30 2578 C 241.095 1.03033 1.58208 0
M  V30 2579 O 240.452 0.0278396 1.82479 0
M  V30 2580 C 240.503 3.44209 1.10465 0
M  V30 2581 O 240.224 4.3804 0.0724636 0
M  V30 2582 C 241.725 4.03214 1.84211 0
M  V30 2583 H 238.945 0.65795 0.13169 0
M  V30 2584 H 241.489 2.03018 -0.245743 0
M  V30 2585 H 239.644 3.42625 1.80795 0
M  V30 2586 H 240.058 5.22007 0.510793 0
M  V30 2587 H 241.532 5.0569 2.21318 0
M  V30 2588 H 242.009 3.44107 2.72923 0
M  V30 2589 H 242.615 4.08437 1.18572 0
M  V30 2590 N 240.93 -0.123565 1.57115 0
M  V30 2591 C 241.88 -1.1575 1.96433 0
M  V30 2592 C 242.864 -1.37313 0.838686 0
M  V30 2593 O 244.056 -1.38482 1.10235 0
M  V30 2594 C 241.185 -2.48526 2.36833 0
M  V30 2595 C 240.271 -2.30457 3.5602 0
M  V30 2596 N 240.662 -1.8219 4.71848 0
M  V30 2597 C 238.96 -2.61129 3.61563 0
M  V30 2598 C 239.661 -1.77721 5.53886 0
M  V30 2599 N 238.637 -2.21899 4.96248 0
M  V30 2600 H 242.439 -0.776797 2.83449 0
M  V30 2601 H 239.953 -0.331364 1.58983 0
M  V30 2602 H 241.95 -3.233 2.63216 0
M  V30 2603 H 240.61 -2.87358 1.5118 0
M  V30 2604 H 241.621 -1.51805 4.95152 0
M  V30 2605 H 238.298 -3.03678 2.86507 0
M  V30 2606 H 239.688 -1.41697 6.56789 0
M  V30 2607 N 242.408 -1.52605 -0.393616 0
M  V30 2608 C 243.318 -1.79971 -1.50492 0
M  V30 2609 C 244.334 -0.686181 -1.59899 0
M  V30 2610 O 245.51 -0.973274 -1.76322 0
M  V30 2611 C 242.575 -1.95867 -2.86072 0
M  V30 2612 C 241.636 -3.19781 -2.86424 0
M  V30 2613 C 240.869 -3.34909 -4.15538 0
M  V30 2614 O 241.092 -2.54948 -5.10253 0
M  V30 2615 O 240.026 -4.28141 -4.23059 0
M  V30 2616 H 243.852 -2.74328 -1.30299 0
M  V30 2617 H 241.437 -1.3764 -0.581005 0
M  V30 2618 H 243.319 -2.08056 -3.66457 0
M  V30 2619 H 241.994 -1.04699 -3.063 0
M  V30 2620 H 240.901 -3.13038 -2.04837 0
M  V30 2621 H 242.234 -4.1078 -2.71147 0
M  V30 2622 N 243.887 0.651787 -1.4349 0
M  V30 2623 C 244.837 1.75783 -1.45205 0
M  V30 2624 C 245.821 1.57679 -0.320328 0
M  V30 2625 O 247.013 1.67767 -0.564211 0
M  V30 2626 C 244.142 3.14377 -1.3792 0
M  V30 2627 C 243.228 3.38023 -2.56127 0
M  V30 2628 N 243.619 3.32135 -3.81471 0
M  V30 2629 C 241.917 3.68747 -2.50882 0
M  V30 2630 C 242.618 3.55902 -4.60118 0
M  V30 2631 N 241.594 3.77783 -3.90872 0
M  V30 2632 H 245.396 1.69657 -2.39987 0
M  V30 2633 H 242.91 0.853508 -1.38163 0
M  V30 2634 H 244.907 3.93666 -1.37231 0
M  V30 2635 H 243.567 3.21683 -0.441596 0
M  V30 2636 H 244.578 3.11515 -4.13738 0
M  V30 2637 H 241.255 3.8316 -1.65816 0
M  V30 2638 H 242.645 3.57116 -5.69138 0
M  V30 2639 N 245.365 1.30045 0.890287 0
M  V30 2640 C 246.275 1.17885 2.02831 0
M  V30 2641 C 247.291 0.0999609 1.73713 0
M  V30 2642 O 248.467 0.313867 1.98939 0
M  V30 2643 C 245.532 0.866079 3.35708 0
M  V30 2644 C 244.593 2.02979 3.78283 0
M  V30 2645 C 243.826 1.73184 5.0482 0
M  V30 2646 O 244.049 0.657237 5.66601 0
M  V30 2647 O 242.983 2.58267 5.43674 0
M  V30 2648 H 246.809 2.13474 2.16015 0
M  V30 2649 H 244.394 1.09587 1.01543 0
M  V30 2650 H 246.276 0.706623 4.15433 0
M  V30 2651 H 244.951 -0.0599443 3.23644 0
M  V30 2652 H 243.858 2.24454 2.99285 0
M  V30 2653 H 245.191 2.93734 3.94944 0
M  V30 2654 N 246.843 -1.10192 1.12674 0
M  V30 2655 C 248.092 -1.81573 0.8783 0
M  V30 2656 C 248.405 -1.86249 -0.597557 0
M  V30 2657 O 249.611 -2.5386 -0.962681 0
M  V30 2658 C 248.067 -3.26149 1.52167 0
M  V30 2659 C 247.675 -3.29763 3.03249 0
M  V30 2660 C 249.419 -4.0234 1.3536 0
M  V30 2661 C 247.326 -4.68815 3.60508 0
M  V30 2662 H 246.256 -0.680394 0.324931 0
M  V30 2663 H 248.907 -1.23902 1.35353 0
M  V30 2664 H 247.289 -3.83832 0.974104 0
M  V30 2665 H 248.463 -2.8189 3.6452 0
M  V30 2666 H 246.778 -2.67059 3.19481 0
M  V30 2667 H 249.375 -5.05058 1.75559 0
M  V30 2668 H 249.718 -4.15235 0.297554 0
M  V30 2669 H 250.251 -3.51079 1.87052 0
M  V30 2670 H 246.99 -4.61121 4.65884 0
M  V30 2671 H 246.51 -5.17045 3.04014 0
M  V30 2672 H 248.189 -5.37785 3.59717 0
M  V30 2673 N 248.321 -0.919034 -1.28029 0
M  V30 2674 C 249.549 -0.570971 -1.98866 0
M  V30 2675 C 249.964 0.848996 -1.68634 0
M  V30 2676 O 249.321 1.56307 -0.942036 0
M  V30 2677 C 249.372 -0.776876 -3.53054 0
M  V30 2678 O 249.093 -2.14097 -3.82222 0
M  V30 2679 C 250.594 -0.436356 -4.41147 0
M  V30 2680 H 247.814 -0.217175 -0.634883 0
M  V30 2681 H 250.358 -1.23368 -1.63097 0
M  V30 2682 H 248.513 -0.161085 -3.87065 0
M  V30 2683 H 248.927 -2.18455 -4.76841 0
M  V30 2684 H 250.401 -0.63117 -5.4838 0
M  V30 2685 H 250.878 0.627686 -4.34692 0
M  V30 2686 H 251.484 -1.02991 -4.12641 0
M  V30 2687 N 249.799 1.42003 -0.683588 0
M  V30 2688 C 250.732 2.28166 0.039592 0
M  V30 2689 C 251.71 1.41562 0.799942 0
M  V30 2690 O 252.894 1.70997 0.793248 0
M  V30 2691 C 250.021 3.21575 1.06335 0
M  V30 2692 C 249.067 4.24643 0.397562 0
M  V30 2693 S 249.9 5.2869 -0.851296 0
M  V30 2694 C 251.056 6.25666 0.171166 0
M  V30 2695 H 251.289 2.89153 -0.691229 0
M  V30 2696 H 248.822 1.46962 -0.473435 0
M  V30 2697 H 250.78 3.75928 1.6489 0
M  V30 2698 H 249.441 2.59707 1.76667 0
M  V30 2699 H 248.634 4.90223 1.17035 0
M  V30 2700 H 248.236 3.73824 -0.114611 0
M  V30 2701 H 250.528 6.69653 1.02819 0
M  V30 2702 H 251.471 7.06666 -0.450397 0
M  V30 2703 H 251.879 5.62095 0.520578 0
M  V30 2704 N 251.277 0.427512 1.51691 0
M  V30 2705 C 252.688 -0.0378867 1.86662 0
M  V30 2706 C 253.039 -1.42819 1.34525 0
M  V30 2707 O 252.164 -2.05037 0.692014 0
M  V30 2708 C 252.759 -0.0755266 3.38716 0
M  V30 2709 C 251.318 -0.485309 3.73258 0
M  V30 2710 C 250.465 0.328399 2.75349 0
M  V30 2711 H 253.416 0.64379 1.45055 0
M  V30 2712 H 253.437 -0.887056 3.70016 0
M  V30 2713 H 252.949 0.936487 3.76632 0
M  V30 2714 H 251.05 -1.50329 3.40928 0
M  V30 2715 H 251.163 -0.21693 4.78609 0
M  V30 2716 H 249.527 -0.211905 2.53817 0
M  V30 2717 H 250.31 1.3391 3.16106 0
M  V30 2718 N 252.755 -1.56801 0.158532 0
M  V30 2719 C 253.703 -2.18638 -0.793729 0
M  V30 2720 C 254.697 -1.14669 -1.24689 0
M  V30 2721 O 255.903 -1.32895 -1.21403 0
M  V30 2722 H 252.278 -0.700226 -0.274204 0
M  V30 2723 H 254.249 -2.97367 -0.248095 0
M  V30 2724 C 252.998 -2.83139 -2.0181 0
M  V30 2725 H 252.321 -3.62863 -1.67841 0
M  V30 2726 H 253.761 -3.29894 -2.66357 0
M  V30 2727 C 252.22 -1.82244 -2.83353 0
M  V30 2728 O 252.75 -1.3 -3.80083 0
M  V30 2729 N 250.956 -1.51288 -2.48114 0
M  V30 2730 H 250.503 -1.93964 -1.69516 0
M  V30 2731 H 250.461 -0.840296 -3.02963 0
M  V30 2732 N 254.233 0.115231 -1.57178 0
M  V30 2733 C 255.165 1.16694 -1.97269 0
M  V30 2734 C 256.178 1.37445 -0.872502 0
M  V30 2735 O 257.367 1.36454 -1.15077 0
M  V30 2736 C 254.467 2.52627 -2.25905 0
M  V30 2737 C 253.64 2.52427 -3.57211 0
M  V30 2738 C 252.699 3.70134 -3.74016 0
M  V30 2739 O 251.725 3.53546 -4.46087 0
M  V30 2740 N 252.927 4.88844 -3.13068 0
M  V30 2741 H 255.692 0.82588 -2.88096 0
M  V30 2742 H 253.253 0.304461 -1.59011 0
M  V30 2743 H 255.245 3.29937 -2.34359 0
M  V30 2744 H 253.815 2.789 -1.41186 0
M  V30 2745 H 253.035 1.60805 -3.5991 0
M  V30 2746 H 254.323 2.49353 -4.43509 0
M  V30 2747 H 253.721 5.05225 -2.54489 0
M  V30 2748 H 252.278 5.63817 -3.27037 0
M  V30 2749 N 255.711 1.52812 0.385517 0
M  V30 2750 C 256.644 1.72592 1.49289 0
M  V30 2751 C 257.622 0.573819 1.52138 0
M  V30 2752 O 258.806 0.80404 1.70492 0
M  V30 2753 C 255.933 1.78669 2.87741 0
M  V30 2754 C 254.979 3.00455 3.02703 0
M  V30 2755 S 255.812 4.60366 2.73538 0
M  V30 2756 C 256.968 4.69263 4.14177 0
M  V30 2757 H 257.201 2.66248 1.32285 0
M  V30 2758 H 254.734 1.43148 0.578611 0
M  V30 2759 H 256.692 1.82855 3.67524 0
M  V30 2760 H 255.353 0.861 3.02069 0
M  V30 2761 H 254.546 3.01258 4.04054 0
M  V30 2762 H 254.148 2.94278 2.30817 0
M  V30 2763 H 256.44 4.48092 5.08153 0
M  V30 2764 H 257.383 5.71276 4.18388 0
M  V30 2765 H 257.791 3.98072 4.00249 0
M  V30 2766 N 257.189 -0.644168 1.43834 0
M  V30 2767 C 258.435 -1.40603 1.46146 0
M  V30 2768 C 258.768 -1.93997 0.0887717 0
M  V30 2769 O 258.043 -1.72854 -0.891724 0
M  V30 2770 C 258.326 -2.58086 2.51124 0
M  V30 2771 C 258.179 -2.10126 3.97702 0
M  V30 2772 C 259.498 -3.60291 2.52742 0
M  V30 2773 H 256.617 -0.509905 0.532134 0
M  V30 2774 H 259.259 -0.729502 1.75437 0
M  V30 2775 H 257.409 -3.15801 2.26278 0
M  V30 2776 H 259.081 -1.57342 4.33637 0
M  V30 2777 H 257.324 -1.41419 4.10101 0
M  V30 2778 H 257.995 -2.94649 4.66783 0
M  V30 2779 H 260.471 -3.12352 2.7491 0
M  V30 2780 H 259.347 -4.40032 3.28121 0
M  V30 2781 H 259.608 -4.1349 1.56455 0
M  V30 2782 N 258.668 -1.30515 -0.883378 0
M  V30 2783 C 260.084 -1.08881 -1.16692 0
M  V30 2784 C 260.284 0.149409 -2.00945 0
M  V30 2785 O 259.34 0.84257 -2.38027 0
M  V30 2786 C 260.653 -2.35319 -1.87204 0
M  V30 2787 C 262.201 -2.40799 -1.99962 0
M  V30 2788 C 262.676 -3.67083 -2.73887 0
M  V30 2789 N 264.167 -3.679 -2.81432 0
M  V30 2790 C 264.902 -4.62303 -3.3921 0
M  V30 2791 N 264.398 -5.67052 -3.98025 0
M  V30 2792 N 266.191 -4.49845 -3.3704 0
M  V30 2793 H 258.342 -2.09951 -0.321633 0
M  V30 2794 H 260.605 -0.92556 -0.205043 0
M  V30 2795 H 260.311 -3.25689 -1.3274 0
M  V30 2796 H 260.185 -2.44089 -2.87577 0
M  V30 2797 H 262.572 -1.50907 -2.53597 0
M  V30 2798 H 262.653 -2.36003 -0.98673 0
M  V30 2799 H 262.297 -4.57334 -2.20925 0
M  V30 2800 H 262.227 -3.69141 -3.75556 0
M  V30 2801 H 264.718 -2.92171 -2.39676 0
M  V30 2802 H 265.031 -6.35184 -4.40183 0
M  V30 2803 H 263.376 -5.70842 -3.96439 0
M  V30 2804 H 266.567 -3.67194 -2.90321 0
M  V30 2805 H 266.74 -5.23597 -3.81772 0
M  V30 2806 N 260.146 1.09593 -1.13257 0
M  V30 2807 C 261.395 1.81105 -0.887917 0
M  V30 2808 C 261.708 1.86563 0.587672 0
M  V30 2809 O 262.914 2.54367 0.949204 0
M  V30 2810 C 261.37 3.25338 -1.53895 0
M  V30 2811 C 260.978 3.28151 -3.04994 0
M  V30 2812 C 262.722 4.01617 -1.37492 0
M  V30 2813 C 260.629 4.66897 -3.6299 0
M  V30 2814 H 259.559 0.678661 -0.328534 0
M  V30 2815 H 262.21 1.23183 -1.36008 0
M  V30 2816 H 260.592 3.8331 -0.994446 0
M  V30 2817 H 261.766 2.79953 -3.66009 0
M  V30 2818 H 260.081 2.65361 -3.20893 0
M  V30 2819 H 262.678 5.04119 -1.78235 0
M  V30 2820 H 263.021 4.15072 -0.31957 0
M  V30 2821 H 263.554 3.50082 -1.88912 0
M  V30 2822 H 260.293 4.58643 -4.68323 0
M  V30 2823 H 259.813 5.15426 -3.06752 0
M  V30 2824 H 261.492 5.3587 -3.62563 0
M  V30 2825 N 261.624 0.925811 1.2754 0
M  V30 2826 C 262.854 0.580666 1.98272 0
M  V30 2827 C 263.262 -0.845207 1.69272 0
M  V30 2828 O 262.605 -1.57306 0.948707 0
M  V30 2829 C 262.667 0.724418 3.52126 0
M  V30 2830 C 262.331 2.12206 4.04744 0
M  V30 2831 C 263.328 3.09604 4.17662 0
M  V30 2832 C 261.013 2.4385 4.39138 0
M  V30 2833 C 263.007 4.36755 4.64246 0
M  V30 2834 C 260.694 3.71237 4.85414 0
M  V30 2835 C 261.692 4.67503 4.97926 0
M  V30 2836 O 261.38 5.92624 5.43187 0
M  V30 2837 H 261.112 0.218987 0.639547 0
M  V30 2838 H 263.666 1.24452 1.63404 0
M  V30 2839 H 261.896 0.0034663 3.867 0
M  V30 2840 H 263.585 0.384607 4.04074 0
M  V30 2841 H 264.351 2.86478 3.91351 0
M  V30 2842 H 260.23 1.69665 4.28643 0
M  V30 2843 H 263.774 5.11898 4.73927 0
M  V30 2844 H 259.671 3.94182 5.11166 0
M  V30 2845 H 260.439 5.95585 5.61445 0
M  V30 2846 N 263.102 -1.41638 0.69111 0
M  V30 2847 C 264.049 -2.30789 0.0229705 0
M  V30 2848 C 265.019 -1.46863 -0.775911 0
M  V30 2849 O 266.204 -1.75661 -0.74485 0
M  V30 2850 C 263.344 -3.32868 -0.910666 0
M  V30 2851 C 262.457 -4.31875 -0.103874 0
M  V30 2852 C 261.592 -5.21024 -1.03475 0
M  V30 2853 C 260.631 -6.11702 -0.220598 0
M  V30 2854 N 259.768 -6.93349 -1.10504 0
M  V30 2855 H 264.608 -2.87366 0.788978 0
M  V30 2856 H 262.145 -1.41535 0.400794 0
M  V30 2857 H 264.103 -3.90596 -1.46597 0
M  V30 2858 H 262.733 -2.77851 -1.64312 0
M  V30 2859 H 261.785 -3.76131 0.568285 0
M  V30 2860 H 263.097 -4.96003 0.527504 0
M  V30 2861 H 262.251 -5.83565 -1.65943 0
M  V30 2862 H 260.99 -4.57112 -1.69999 0
M  V30 2863 H 259.995 -5.48215 0.417187 0
M  V30 2864 H 261.22 -6.77668 0.440784 0
M  V30 2865 H 259.166 -6.3205 -1.75638 0
M  V30 2866 H 259.083 -7.54146 -0.529125 0
M  V30 2867 H 260.351 -7.60362 -1.71667 0
M  V30 2868 N 264.58 -0.43555 -1.51462 0
M  V30 2869 C 265.857 0.191364 -1.94662 0
M  V30 2870 C 266.237 1.60254 -1.37411 0
M  V30 2871 O 265.585 2.2152 -0.560458 0
M  V30 2872 C 265.795 0.17091 -3.48581 0
M  V30 2873 C 267.143 0.377357 -4.2292 0
M  V30 2874 O 268.167 0.249104 -3.55328 0
M  V30 2875 O 267.026 0.63247 -5.42828 0
M  V30 2876 H 264.12 0.130932 -0.816569 0
M  V30 2877 H 266.666 -0.4934 -1.62369 0
M  V30 2878 H 265.438 -0.815738 -3.82703 0
M  V30 2879 H 265.061 0.898659 -3.87311 0
M  V30 2880 N 266.058 1.56714 -0.166846 0
M  V30 2881 C 267.306 1.96358 0.478305 0
M  V30 2882 C 267.627 1.0537 1.6408 0
M  V30 2883 O 266.897 0.119154 1.95537 0
M  V30 2884 H 265.477 0.725065 0.179692 0
M  V30 2885 H 268.139 1.93329 -0.246985 0
M  V30 2886 H 267.235 3.00547 0.841292 0
M  V30 2887 N 267.536 -0.106894 1.57237 0
M  V30 2888 C 268.483 -1.13049 2.01217 0
M  V30 2889 C 269.453 -1.40471 0.886403 0
M  V30 2890 O 270.638 -1.52133 1.15153 0
M  V30 2891 C 267.778 -2.4487 2.43172 0
M  V30 2892 C 266.891 -2.24281 3.69218 0
M  V30 2893 C 266.026 -3.49417 4.00101 0
M  V30 2894 C 265.065 -3.24038 5.19294 0
M  V30 2895 N 264.202 -4.41409 5.45988 0
M  V30 2896 H 269.042 -0.748456 2.88448 0
M  V30 2897 H 266.579 -0.358054 1.42676 0
M  V30 2898 H 268.537 -3.21786 2.65537 0
M  V30 2899 H 267.167 -2.80944 1.58967 0
M  V30 2900 H 266.219 -1.38224 3.54398 0
M  V30 2901 H 267.531 -2.01512 4.56283 0
M  V30 2902 H 266.685 -4.34746 4.2318 0
M  V30 2903 H 265.424 -3.75229 3.11535 0
M  V30 2904 H 264.429 -2.37102 4.96047 0
M  V30 2905 H 265.654 -2.99584 6.09447 0
M  V30 2906 H 263.6 -4.67319 4.60379 0
M  V30 2907 H 263.517 -4.21788 6.274 0
M  V30 2908 H 264.785 -5.27836 5.73593 0
M  V30 2909 N 269.014 -1.53014 -0.377408 0
M  V30 2910 C 270.26 -1.68872 -1.12294 0
M  V30 2911 C 270.593 -0.433224 -1.89306 0
M  V30 2912 O 269.868 0.569258 -1.85983 0
M  V30 2913 C 270.151 -2.93115 -2.09179 0
M  V30 2914 C 270.004 -4.28794 -1.35853 0
M  V30 2915 C 271.323 -3.12928 -3.09458 0
M  V30 2916 H 268.442 -0.614518 -0.406862 0
M  V30 2917 H 271.084 -1.85633 -0.40503 0
M  V30 2918 H 269.234 -2.78956 -2.70399 0
M  V30 2919 H 270.906 -4.54742 -0.775082 0
M  V30 2920 H 269.149 -4.28744 -0.660364 0
M  V30 2921 H 269.82 -5.11837 -2.06706 0
M  V30 2922 H 272.296 -3.26194 -2.58334 0
M  V30 2923 H 271.172 -4.01316 -3.74482 0
M  V30 2924 H 271.433 -2.27669 -3.78971 0
M  V30 2925 N 270.492 0.636531 -1.44174 0
M  V30 2926 C 271.422 1.76003 -1.53444 0
M  V30 2927 C 272.403 1.65619 -0.387841 0
M  V30 2928 O 273.588 1.84461 -0.607257 0
M  V30 2929 C 270.718 3.14511 -1.4731 0
M  V30 2930 C 269.672 3.39677 -2.60391 0
M  V30 2931 C 268.998 4.78159 -2.39308 0
M  V30 2932 C 270.298 3.32772 -4.02567 0
M  V30 2933 H 271.992 1.68501 -2.47483 0
M  V30 2934 H 269.538 0.809237 -1.19111 0
M  V30 2935 H 271.491 3.92878 -1.52397 0
M  V30 2936 H 270.215 3.22783 -0.49785 0
M  V30 2937 H 268.874 2.63688 -2.54684 0
M  V30 2938 H 268.522 4.83128 -1.39988 0
M  V30 2939 H 268.222 4.95956 -3.15122 0
M  V30 2940 H 269.746 5.58762 -2.46205 0
M  V30 2941 H 271.16 4.01051 -4.09672 0
M  V30 2942 H 269.557 3.62104 -4.7854 0
M  V30 2943 H 270.627 2.30669 -4.2652 0
M  V30 2944 N 271.97 1.30982 0.876444 0
M  V30 2945 C 273.2 1.23063 1.65949 0
M  V30 2946 C 273.608 -0.207537 1.88058 0
M  V30 2947 O 272.951 -1.14781 1.43426 0
M  V30 2948 C 273.013 1.89768 3.05333 0
M  V30 2949 C 272.677 3.39106 3.0636 0
M  V30 2950 C 273.674 4.3496 2.84791 0
M  V30 2951 C 271.359 3.80693 3.27686 0
M  V30 2952 C 273.353 5.70375 2.84519 0
M  V30 2953 C 271.04 5.16223 3.27043 0
M  V30 2954 C 272.038 6.10875 3.05485 0
M  V30 2955 O 271.726 7.43928 3.04674 0
M  V30 2956 H 271.458 0.426685 0.524324 0
M  V30 2957 H 274.012 1.7329 1.10271 0
M  V30 2958 H 272.242 1.34082 3.6271 0
M  V30 2959 H 273.931 1.75853 3.65829 0
M  V30 2960 H 274.697 4.0416 2.68103 0
M  V30 2961 H 270.576 3.07457 3.43499 0
M  V30 2962 H 274.12 6.44228 2.67611 0
M  V30 2963 H 270.017 5.4666 3.43269 0
M  V30 2964 H 270.785 7.53022 3.2078 0
M  V30 2965 N 273.449 -1.08991 1.13837 0
M  V30 2966 C 274.677 -1.85011 0.926202 0
M  V30 2967 C 275.092 -1.8135 -0.525127 0
M  V30 2968 O 274.449 -1.21287 -1.36366 0
M  V30 2969 C 274.5 -3.32802 1.41155 0
M  V30 2970 O 274.221 -3.36444 2.80601 0
M  V30 2971 C 275.722 -4.25649 1.23847 0
M  V30 2972 H 272.942 -0.584249 0.32999 0
M  V30 2973 H 275.486 -1.37688 1.51202 0
M  V30 2974 H 273.641 -3.77536 0.868631 0
M  V30 2975 H 274.055 -4.28657 3.02248 0
M  V30 2976 H 275.529 -5.27485 1.62675 0
M  V30 2977 H 276.006 -4.38828 0.18065 0
M  V30 2978 H 276.612 -3.86735 1.76964 0
M  V30 2979 N 274.927 -0.932562 -1.27047 0
M  V30 2980 C 276.176 -0.571351 -1.93439 0
M  V30 2981 C 276.489 0.892467 -1.74053 0
M  V30 2982 O 277.695 1.36267 -2.34826 0
M  V30 2983 C 276.151 -0.97106 -3.46552 0
M  V30 2984 C 275.759 -2.4559 -3.74686 0
M  V30 2985 C 277.503 -0.681333 -4.18997 0
M  V30 2986 C 275.41 -2.79475 -5.21198 0
M  V30 2987 H 274.34 -0.209966 -0.724176 0
M  V30 2988 H 276.991 -1.13403 -1.44263 0
M  V30 2989 H 275.373 -0.336983 -3.94564 0
M  V30 2990 H 276.547 -3.13829 -3.37414 0
M  V30 2991 H 274.862 -2.71802 -3.15456 0
M  V30 2992 H 277.459 -0.910939 -5.26883 0
M  V30 2993 H 277.802 0.381628 -4.14547 0
M  V30 2994 H 278.335 -1.27473 -3.76823 0
M  V30 2995 H 275.074 -3.847 -5.30741 0
M  V30 2996 H 274.594 -2.1589 -5.596 0
M  V30 2997 H 276.273 -2.67478 -5.89122 0
M  V30 2998 N 276.405 1.4127 -0.698611 0
M  V30 2999 C 277.821 1.55241 -0.370462 0
M  V30 3000 C 278.021 1.67351 1.12231 0
M  V30 3001 O 277.077 1.65363 1.90818 0
M  V30 3002 C 278.39 2.78997 -1.12165 0
M  V30 3003 C 279.938 2.92797 -1.1063 0
M  V30 3004 C 280.413 4.19445 -1.8393 0
M  V30 3005 N 281.904 4.26409 -1.80914 0
M  V30 3006 C 282.639 5.23271 -2.34467 0
M  V30 3007 N 282.135 6.26145 -2.96504 0
M  V30 3008 N 283.928 5.15232 -2.24706 0
M  V30 3009 H 276.079 1.31654 -1.66676 0
M  V30 3010 H 278.342 0.635393 -0.703548 0
M  V30 3011 H 278.048 2.76268 -2.17644 0
M  V30 3012 H 277.922 3.70606 -0.702209 0
M  V30 3013 H 280.309 2.95039 -0.0597713 0
M  V30 3014 H 280.39 2.02353 -1.56483 0
M  V30 3015 H 280.034 4.17964 -2.88563 0
M  V30 3016 H 279.964 5.08866 -1.35509 0
M  V30 3017 H 282.455 3.527 -1.35687 0
M  V30 3018 H 282.768 6.96451 -3.34927 0
M  V30 3019 H 281.113 6.26638 -3.00583 0
M  V30 3020 H 284.304 4.33789 -1.7591 0
M  V30 3021 H 284.477 5.90552 -2.66745 0
M  V30 3022 N 277.883 0.443576 1.51229 0
M  V30 3023 C 278.816 -0.410089 2.24485 0
M  V30 3024 C 279.794 -1.01949 1.26669 0
M  V30 3025 O 280.978 -1.06075 1.55821 0
M  V30 3026 C 278.105 -1.57211 3.00004 0
M  V30 3027 C 277.151 -1.08279 4.12526 0
M  V30 3028 S 277.984 -0.0197476 5.35496 0
M  V30 3029 C 279.14 -1.18629 6.14555 0
M  V30 3030 H 279.373 0.211832 2.96544 0
M  V30 3031 H 276.906 0.228156 1.52705 0
M  V30 3032 H 278.864 -2.23825 3.44111 0
M  V30 3033 H 277.525 -2.16547 2.27522 0
M  V30 3034 H 276.718 -1.95193 4.64667 0
M  V30 3035 H 276.32 -0.494797 3.70713 0
M  V30 3036 H 278.612 -2.10344 6.4402 0
M  V30 3037 H 279.555 -0.70472 7.04584 0
M  V30 3038 H 279.963 -1.42768 5.46148 0
M  V30 3039 N 279.361 -1.56624 0.175154 0
M  V30 3040 C 280.589 -2.01374 -0.474971 0
M  V30 3041 C 281.004 -1.05537 -1.56548 0
M  V30 3042 O 280.361 -0.0568668 -1.82411 0
M  V30 3043 C 280.412 -3.45923 -1.04975 0
M  V30 3044 O 280.133 -4.381 -0.00276605 0
M  V30 3045 C 281.634 -4.06093 -1.77773 0
M  V30 3046 H 278.854 -0.659962 -0.121206 0
M  V30 3047 H 281.398 -2.02601 0.27801 0
M  V30 3048 H 279.553 -3.45458 -1.75321 0
M  V30 3049 H 279.967 -5.22753 -0.427681 0
M  V30 3050 H 281.441 -5.09147 -2.13245 0
M  V30 3051 H 281.918 -3.48405 -2.67414 0
M  V30 3052 H 282.524 -4.10272 -1.12059 0
M  V30 3053 N 280.839 0.0985539 -1.57292 0
M  V30 3054 C 282.088 0.801358 -1.85098 0
M  V30 3055 C 282.401 1.80066 -0.763902 0
M  V30 3056 O 283.607 2.55112 -0.928981 0
M  V30 3057 C 282.063 1.47599 -3.28242 0
M  V30 3058 C 281.671 0.516624 -4.45011 0
M  V30 3059 C 283.415 2.16272 -3.65276 0
M  V30 3060 C 281.322 1.19564 -5.79188 0
M  V30 3061 H 280.252 0.303022 -0.69043 0
M  V30 3062 H 282.903 0.0542623 -1.8342 0
M  V30 3063 H 281.285 2.27042 -3.2445 0
M  V30 3064 H 282.459 -0.246065 -4.60143 0
M  V30 3065 H 280.774 -0.064227 -4.1635 0
M  V30 3066 H 283.371 2.67802 -4.62803 0
M  V30 3067 H 283.714 2.95009 -2.93727 0
M  V30 3068 H 284.247 1.43693 -3.70941 0
M  V30 3069 H 280.986 0.449157 -6.53959 0
M  V30 3070 H 280.506 1.92984 -5.67906 0
M  V30 3071 H 282.185 1.7231 -6.23633 0
M  V30 3072 N 282.317 1.53212 0.369288 0
M  V30 3073 C 283.594 1.59815 1.12776 0
M  V30 3074 C 283.974 0.403402 2.0721 0
M  V30 3075 O 283.322 -0.606667 2.20299 0
M  V30 3076 C 283.532 2.94664 1.87013 0
M  V30 3077 C 284.88 3.49109 2.41677 0
M  V30 3078 O 285.904 2.96669 1.97144 0
M  V30 3079 O 284.763 4.40775 3.23079 0
M  V30 3080 H 281.857 0.645376 0.517125 0
M  V30 3081 H 284.403 1.65553 0.37285 0
M  V30 3082 H 283.175 3.73061 1.18071 0
M  V30 3083 H 282.798 2.92401 2.69421 0
M  V30 3084 N 283.795 -0.628877 1.44509 0
M  V30 3085 C 284.758 -1.72263 1.51188 0
M  V30 3086 C 285.758 -1.55907 0.39367 0
M  V30 3087 O 286.948 -1.61361 0.656377 0
M  V30 3088 C 284.08 -3.11365 1.38798 0
M  V30 3089 H 285.273 -1.67714 2.4862 0
M  V30 3090 H 282.826 -0.842737 1.31634 0
M  V30 3091 H 283.561 -3.21507 0.424693 0
M  V30 3092 H 283.346 -3.24644 2.19884 0
M  V30 3093 H 284.836 -3.91075 1.46458 0
M  V30 3094 N 285.273 -1.31445 -0.869486 0
M  V30 3095 C 286.521 -1.20918 -1.61936 0
M  V30 3096 C 286.842 0.232683 -1.93607 0
M  V30 3097 O 286.112 1.15352 -1.58338 0
M  V30 3098 H 284.692 -0.44454 -0.600328 0
M  V30 3099 H 287.354 -1.64776 -1.0409 0
M  V30 3100 H 286.45 -1.78124 -2.56278 0
M  V30 3101 N 286.751 1.08385 -1.14413 0
M  V30 3102 C 287.991 1.8238 -0.922868 0
M  V30 3103 C 288.355 1.84225 0.540842 0
M  V30 3104 O 289.556 2.53985 0.880058 0
M  V30 3105 C 287.827 3.24048 -1.50757 0
M  V30 3106 S 289.386 4.14917 -1.4279 0
M  V30 3107 H 286.204 0.628524 -0.332384 0
M  V30 3108 H 288.806 1.30278 -1.45766 0
M  V30 3109 H 287.51 3.20288 -2.56601 0
M  V30 3110 H 287.041 3.81224 -0.971178 0
M  V30 3111 H 289.056 4.94473 -0.413582 0
M  V30 3112 N 288.23 0.939286 1.26551 0
M  V30 3113 C 289.455 0.602008 1.98471 0
M  V30 3114 C 289.88 -0.815624 1.69497 0
M  V30 3115 O 289.238 -1.54912 0.941905 0
M  V30 3116 C 289.286 0.848407 3.50477 0
M  V30 3117 O 288.39 -0.0804009 4.12322 0
M  V30 3118 H 287.731 0.23049 0.622712 0
M  V30 3119 H 290.261 1.2617 1.61066 0
M  V30 3120 H 290.271 0.768553 4.00696 0
M  V30 3121 H 288.946 1.88171 3.70897 0
M  V30 3122 H 287.523 0.0503508 3.72866 0
M  V30 3123 N 289.708 -1.40897 0.706093 0
M  V30 3124 C 290.638 -2.33418 0.0620085 0
M  V30 3125 C 291.619 -1.52385 -0.755827 0
M  V30 3126 O 292.804 -1.80886 -0.706674 0
M  V30 3127 C 289.934 -3.36293 -0.867445 0
M  V30 3128 C 288.888 -4.27716 -0.155932 0
M  V30 3129 C 288.214 -5.2105 -1.20046 0
M  V30 3130 C 289.514 -5.12944 0.984149 0
M  V30 3131 H 291.208 -2.87527 0.83477 0
M  V30 3132 H 288.754 -1.38249 0.402875 0
M  V30 3133 H 290.707 -3.99949 -1.32735 0
M  V30 3134 H 289.431 -2.80556 -1.67199 0
M  V30 3135 H 288.09 -3.65498 0.284047 0
M  V30 3136 H 287.738 -4.61624 -1.99781 0
M  V30 3137 H 287.438 -5.83056 -0.729328 0
M  V30 3138 H 288.962 -5.87584 -1.66066 0
M  V30 3139 H 290.376 -5.70109 0.604048 0
M  V30 3140 H 288.773 -5.83945 1.38304 0
M  V30 3141 H 289.843 -4.49485 1.81911 0
M  V30 3142 N 291.186 -0.45159 -1.50991 0
M  V30 3143 C 292.136 0.370861 -2.24964 0
M  V30 3144 C 293.12 0.978074 -1.2776 0
M  V30 3145 O 294.312 0.893854 -1.52772 0
M  V30 3146 C 291.441 1.46344 -3.10545 0
M  V30 3147 C 290.527 0.864924 -4.15187 0
M  V30 3148 N 290.918 -0.00311354 -5.058 0
M  V30 3149 C 289.216 1.13099 -4.31422 0
M  V30 3150 C 289.917 -0.340772 -5.80701 0
M  V30 3151 N 288.893 0.279203 -5.42883 0
M  V30 3152 H 292.695 -0.298134 -2.92384 0
M  V30 3153 H 290.209 -0.264528 -1.60231 0
M  V30 3154 H 292.206 2.06565 -3.62128 0
M  V30 3155 H 290.866 2.13463 -2.4467 0
M  V30 3156 H 291.877 -0.37058 -5.16572 0
M  V30 3157 H 288.554 1.79861 -3.76771 0
M  V30 3158 H 289.944 -1.048 -6.63677 0
M  V30 3159 N 292.664 1.56529 -0.183458 0
M  V30 3160 C 293.597 2.14417 0.781052 0
M  V30 3161 C 294.575 1.07761 1.21763 0
M  V30 3162 O 295.759 1.35807 1.30724 0
M  V30 3163 C 292.886 2.69361 2.05335 0
M  V30 3164 C 291.932 3.885 1.75982 0
M  V30 3165 S 292.765 5.27568 0.918256 0
M  V30 3166 C 293.921 5.85926 2.20095 0
M  V30 3167 H 294.154 2.95893 0.2889 0
M  V30 3168 H 291.687 1.54368 0.0313844 0
M  V30 3169 H 293.645 3.01662 2.78406 0
M  V30 3170 H 292.306 1.87949 2.51663 0
M  V30 3171 H 291.499 4.25314 2.70415 0
M  V30 3172 H 291.101 3.57149 1.10999 0
M  V30 3173 H 293.393 5.99579 3.15453 0
M  V30 3174 H 294.336 6.82761 1.87731 0
M  V30 3175 H 294.744 5.14438 2.32409 0
M  V30 3176 N 294.142 -0.090211 1.57342 0
M  V30 3177 C 295.072 -1.10976 2.05443 0
M  V30 3178 C 296.053 -1.41482 0.944284 0
M  V30 3179 O 297.238 -1.51428 1.21586 0
M  V30 3180 C 294.368 -2.42831 2.48295 0
M  V30 3181 C 293.322 -2.26721 3.63018 0
M  V30 3182 C 292.648 -3.63796 3.91863 0
M  V30 3183 C 293.948 -1.7037 4.93732 0
M  V30 3184 H 295.642 -0.709564 2.9087 0
M  V30 3185 H 293.188 -0.339874 1.39932 0
M  V30 3186 H 295.141 -3.14431 2.80555 0
M  V30 3187 H 293.865 -2.84795 1.59873 0
M  V30 3188 H 292.524 -1.57565 3.31012 0
M  V30 3189 H 292.172 -4.03297 3.00601 0
M  V30 3190 H 291.872 -3.53861 4.69101 0
M  V30 3191 H 293.396 -4.36855 4.26603 0
M  V30 3192 H 294.81 -2.31816 5.24342 0
M  V30 3193 H 293.207 -1.71181 5.75167 0
M  V30 3194 H 294.277 -0.663542 4.80339 0
M  V30 3195 N 295.62 -1.53406 -0.361157 0
M  V30 3196 C 297.036 -1.43277 -0.703124 0
M  V30 3197 C 297.236 -0.575384 -1.9311 0
M  V30 3198 O 296.292 -0.0595362 -2.5243 0
M  V30 3199 C 297.605 -2.8653 -0.9122 0
M  V30 3200 C 299.153 -2.96191 -1.01193 0
M  V30 3201 C 299.628 -4.40514 -1.25345 0
M  V30 3202 N 301.119 -4.43962 -1.32105 0
M  V30 3203 C 301.854 -5.52746 -1.5251 0
M  V30 3204 N 301.35 -6.71567 -1.70203 0
M  V30 3205 N 303.143 -5.40331 -1.54916 0
M  V30 3206 H 295.294 -2.07654 0.446475 0
M  V30 3207 H 297.557 -0.937944 0.137715 0
M  V30 3208 H 297.263 -3.51605 -0.0816414 0
M  V30 3209 H 297.137 -3.30441 -1.81903 0
M  V30 3210 H 299.524 -2.31266 -1.83303 0
M  V30 3211 H 299.605 -2.55667 -0.0823929 0
M  V30 3212 H 299.249 -5.06014 -0.437346 0
M  V30 3213 H 299.179 -4.78614 -2.19627 0
M  V30 3214 H 301.67 -3.58332 -1.20028 0
M  V30 3215 H 301.983 -7.50241 -1.85359 0
M  V30 3216 H 300.328 -6.74545 -1.67373 0
M  V30 3217 H 303.519 -4.46465 -1.40663 0
M  V30 3218 H 303.692 -6.25173 -1.70477 0
M  V30 3219 N 297.098 0.621204 -1.44841 0
M  V30 3220 C 298.345 1.38055 -1.48145 0
M  V30 3221 C 298.673 1.94143 -0.117867 0
M  V30 3222 O 297.928 1.74713 0.881694 0
M  V30 3223 C 298.227 2.55675 -2.4973 0
M  V30 3224 C 297.893 2.17817 -3.94799 0
M  V30 3225 C 296.555 2.07205 -4.34303 0
M  V30 3226 C 298.907 1.88065 -4.86087 0
M  V30 3227 C 296.235 1.65045 -5.63007 0
M  V30 3228 C 298.587 1.47394 -6.15189 0
M  V30 3229 C 297.251 1.35331 -6.53637 0
M  V30 3230 H 296.521 0.505181 -0.542101 0
M  V30 3231 H 299.168 0.703477 -1.78111 0
M  V30 3232 H 297.473 3.2866 -2.13284 0
M  V30 3233 H 299.17 3.13904 -2.4953 0
M  V30 3234 H 295.76 2.26998 -3.63552 0
M  V30 3235 H 299.944 1.95168 -4.56315 0
M  V30 3236 H 295.2 1.54317 -5.91605 0
M  V30 3237 H 299.374 1.23415 -6.85377 0
M  V30 3238 H 297.001 1.02435 -7.53267 0
M  V30 3239 N 298.576 1.31904 0.862503 0
M  V30 3240 C 299.987 1.19803 1.43193 0
M  V30 3241 C 300.338 -0.192567 1.95253 0
M  V30 3242 O 299.463 -1.09081 1.86896 0
M  V30 3243 C 300.058 2.16883 2.60283 0
M  V30 3244 C 298.617 2.08692 3.13248 0
M  V30 3245 C 297.764 2.05691 1.85975 0
M  V30 3246 H 300.715 1.43846 0.670365 0
M  V30 3247 H 300.736 1.76278 3.37204 0
M  V30 3248 H 300.248 3.18083 2.22363 0
M  V30 3249 H 298.349 1.10713 3.55771 0
M  V30 3250 H 298.462 2.9815 3.75025 0
M  V30 3251 H 296.826 1.50814 2.05249 0
M  V30 3252 H 297.609 3.08659 1.50282 0
M  V30 3253 N 300.054 -1.07777 1.14986 0
M  V30 3254 C 300.987 -2.14228 0.786243 0
M  V30 3255 C 301.965 -1.60888 -0.235347 0
M  V30 3256 O 303.149 -1.88099 -0.122909 0
M  V30 3257 C 300.276 -3.38281 0.168433 0
M  V30 3258 C 299.322 -4.10387 1.16123 0
M  V30 3259 S 300.155 -4.62371 2.70135 0
M  V30 3260 C 301.311 -5.89704 2.09762 0
M  V30 3261 H 301.544 -2.44741 1.68787 0
M  V30 3262 H 299.077 -1.19984 0.971756 0
M  V30 3263 H 301.035 -4.10098 -0.181588 0
M  V30 3264 H 299.696 -3.05953 -0.710725 0
M  V30 3265 H 298.889 -4.99431 0.677086 0
M  V30 3266 H 298.491 -3.44513 1.45556 0
M  V30 3267 H 300.783 -6.61648 1.45701 0
M  V30 3268 H 301.726 -6.42824 2.96955 0
M  V30 3269 H 302.134 -5.4302 1.54239 0
M  V30 3270 N 301.532 -0.945985 -1.26051 0
M  V30 3271 C 302.809 -0.513816 -1.88731 0
M  V30 3272 C 303.189 1.00872 -1.8544 0
M  V30 3273 O 302.537 1.8708 -1.312 0
M  V30 3274 C 302.747 -1.08062 -3.31849 0
M  V30 3275 C 304.095 -1.1522 -4.08668 0
M  V30 3276 O 305.119 -1.03155 -3.40936 0
M  V30 3277 O 303.978 -1.34044 -5.29806 0
M  V30 3278 H 301.072 -0.168193 -0.809716 0
M  V30 3279 H 303.618 -1.03886 -1.34186 0
M  V30 3280 H 302.39 -2.1241 -3.2863 0
M  V30 3281 H 302.013 -0.538307 -3.93939 0
M  V30 3282 N 303.011 1.40521 -0.713556 0
M  V30 3283 C 304.236 2.05759 -0.26035 0
M  V30 3284 C 304.661 1.53403 1.08854 0
M  V30 3285 O 304.019 0.668535 1.68524 0
M  V30 3286 C 304.067 3.59745 -0.248122 0
M  V30 3287 O 303.171 4.05123 0.77131 0
M  V30 3288 H 302.512 0.652564 -0.122703 0
M  V30 3289 H 305.042 1.79958 -0.973467 0
M  V30 3290 H 305.052 4.07911 -0.0851129 0
M  V30 3291 H 303.727 3.97218 -1.2325 0
M  V30 3292 H 302.304 3.68422 0.57619 0
M  V30 3293 N 304.489 0.459591 1.5075 0
M  V30 3294 C 305.439 -0.358926 2.25157 0
M  V30 3295 C 306.423 -0.971285 1.28276 0
M  V30 3296 O 307.615 -0.885739 1.53244 0
M  V30 3297 C 304.744 -1.44695 3.11317 0
M  V30 3298 C 303.83 -0.842894 4.15639 0
M  V30 3299 N 304.221 0.0299373 5.05791 0
M  V30 3300 C 302.519 -1.10809 4.32015 0
M  V30 3301 C 303.22 0.371563 5.80512 0
M  V30 3302 N 302.196 -0.250409 5.43023 0
M  V30 3303 H 305.998 0.313636 2.92222 0
M  V30 3304 H 303.512 0.273021 1.60089 0
M  V30 3305 H 305.509 -2.04641 3.63218 0
M  V30 3306 H 304.169 -2.12162 2.45799 0
M  V30 3307 H 305.18 0.39797 5.16369 0
M  V30 3308 H 301.857 -1.7786 3.77719 0
M  V30 3309 H 303.247 1.08319 6.63111 0
M  V30 3310 N 305.967 -1.56429 0.191757 0
M  V30 3311 C 307.192 -2.02309 -0.456706 0
M  V30 3312 C 307.617 -1.07103 -1.5463 0
M  V30 3313 O 306.975 -0.0539677 -1.8122 0
M  V30 3314 C 307.023 -3.46654 -0.993159 0
M  V30 3315 O 306.127 -3.54559 -2.10622 0
M  V30 3316 H 305.468 -0.655303 -0.107114 0
M  V30 3317 H 307.998 -2.02364 0.301653 0
M  V30 3318 H 308.008 -3.86377 -1.31061 0
M  V30 3319 H 306.683 -4.1544 -0.195504 0
M  V30 3320 H 305.26 -3.26708 -1.79767 0
M  V30 3321 N 307.445 0.0818655 -1.57387 0
M  V30 3322 C 308.685 0.788375 -1.88584 0
M  V30 3323 C 309.049 1.75248 -0.784351 0
M  V30 3324 O 310.25 2.50334 -0.979105 0
M  V30 3325 C 308.521 1.48654 -3.25018 0
M  V30 3326 S 310.08 2.22951 -3.7794 0
M  V30 3327 H 306.898 0.262383 -0.660815 0
M  V30 3328 H 309.5 0.0448995 -1.95448 0
M  V30 3329 H 308.204 0.770919 -4.03094 0
M  V30 3330 H 307.735 2.26965 -3.21326 0
M  V30 3331 H 309.75 3.49309 -3.52417 0
M  V30 3332 N 308.923 1.53595 0.353017 0
M  V30 3333 C 310.334 1.61937 0.929153 0
M  V30 3334 C 310.685 0.494686 1.89861 0
M  V30 3335 O 309.81 -0.377017 2.1309 0
M  V30 3336 C 310.405 2.93526 1.69199 0
M  V30 3337 C 308.964 3.04161 2.21727 0
M  V30 3338 C 308.111 2.57322 1.03348 0
M  V30 3339 H 311.062 1.58155 0.131431 0
M  V30 3340 H 311.083 2.82034 2.55416 0
M  V30 3341 H 310.595 3.75362 0.986144 0
M  V30 3342 H 308.696 2.26938 2.95516 0
M  V30 3343 H 308.809 4.09465 2.48748 0
M  V30 3344 H 307.173 2.12499 1.40414 0
M  V30 3345 H 307.956 3.41588 0.342428 0
M  V30 3346 N 310.401 -0.613514 1.45168 0
M  V30 3347 C 311.331 -1.7354 1.56225 0
M  V30 3348 C 312.312 -1.64981 0.41414 0
M  V30 3349 O 313.497 -1.83472 0.636526 0
M  V30 3350 C 310.627 -3.12128 1.52295 0
M  V30 3351 C 309.581 -3.35491 2.65762 0
M  V30 3352 C 308.907 -4.74291 2.46885 0
M  V30 3353 C 310.207 -3.26325 4.0781 0
M  V30 3354 H 311.901 -1.64543 2.50132 0
M  V30 3355 H 309.447 -0.790185 1.20383 0
M  V30 3356 H 311.4 -3.90404 1.58628 0
M  V30 3357 H 310.124 -3.2195 0.549139 0
M  V30 3358 H 308.783 -2.59603 2.58847 0
M  V30 3359 H 308.431 -4.80839 1.47657 0
M  V30 3360 H 308.131 -4.9088 3.22972 0
M  V30 3361 H 309.655 -5.54775 2.55063 0
M  V30 3362 H 311.069 -3.94483 4.16 0
M  V30 3363 H 309.466 -3.54445 4.8424 0
M  V30 3364 H 310.536 -2.23855 4.30136 0
M  V30 3365 N 311.879 -1.3236 -0.855495 0
M  V30 3366 C 313.104 -1.2601 -1.64731 0
M  V30 3367 C 313.529 0.169068 -1.87339 0
M  V30 3368 O 312.887 1.12016 -1.42556 0
M  V30 3369 C 312.935 -2.02417 -2.98429 0
M  V30 3370 O 312.039 -1.3714 -3.8893 0
M  V30 3371 H 311.38 -0.434325 -0.502253 0
M  V30 3372 H 313.91 -1.74661 -1.06558 0
M  V30 3373 H 313.92 -2.12559 -3.48257 0
M  V30 3374 H 312.595 -3.06343 -2.81295 0
M  V30 3375 H 311.172 -1.3554 -3.47395 0
M  V30 3376 N 313.357 1.07166 -1.15556 0
M  V30 3377 C 314.604 1.79798 -0.931604 0
M  V30 3378 C 314.932 1.8682 0.54115 0
M  V30 3379 O 314.187 1.34942 1.41736 0
M  V30 3380 C 314.486 3.24707 -1.49332 0
M  V30 3381 C 314.152 3.37781 -2.98688 0
M  V30 3382 C 312.814 3.41057 -3.39461 0
M  V30 3383 C 315.166 3.40424 -3.94665 0
M  V30 3384 C 312.494 3.4458 -4.74849 0
M  V30 3385 C 314.846 3.45485 -5.29927 0
M  V30 3386 C 313.51 3.47039 -5.70193 0
M  V30 3387 H 312.78 0.657928 -0.340898 0
M  V30 3388 H 315.427 1.26091 -1.44129 0
M  V30 3389 H 313.732 3.81208 -0.904859 0
M  V30 3390 H 315.429 3.79486 -1.29582 0
M  V30 3391 H 312.019 3.35932 -2.66172 0
M  V30 3392 H 316.203 3.37113 -3.64237 0
M  V30 3393 H 311.459 3.44083 -5.05388 0
M  V30 3394 H 315.633 3.46476 -6.04092 0
M  V30 3395 H 313.26 3.49522 -6.75084 0
M  V30 3396 N 314.835 0.952656 1.25548 0
M  V30 3397 C 316.06 0.623025 1.97821 0
M  V30 3398 C 316.485 -0.7976 1.70352 0
M  V30 3399 O 315.843 -1.53905 0.958283 0
M  V30 3400 C 315.891 0.885532 3.49558 0
M  V30 3401 O 314.995 -0.0366641 4.12384 0
M  V30 3402 H 314.336 0.237082 0.620232 0
M  V30 3403 H 316.866 1.27871 1.59719 0
M  V30 3404 H 316.876 0.811009 3.99858 0
M  V30 3405 H 315.551 1.92094 3.6888 0
M  V30 3406 H 314.128 0.0898954 3.72792 0
M  V30 3407 N 316.313 -1.40141 0.720998 0
M  V30 3408 C 317.538 -2.05618 0.271258 0
M  V30 3409 C 317.963 -1.53978 -1.08039 0
M  V30 3410 O 317.321 -0.677463 -1.68167 0
M  V30 3411 C 317.369 -3.59609 0.267197 0
M  V30 3412 O 316.473 -4.05526 -0.749814 0
M  V30 3413 H 315.814 -0.651904 0.126162 0
M  V30 3414 H 318.344 -1.79439 0.982997 0
M  V30 3415 H 318.354 -4.0786 0.106744 0
M  V30 3416 H 317.029 -3.96559 1.25354 0
M  V30 3417 H 315.606 -3.68722 -0.556644 0
M  V30 3418 N 317.792 -0.46758 -1.50504 0
M  V30 3419 C 319.039 0.0886219 -2.02306 0
M  V30 3420 C 319.367 1.40037 -1.34981 0
M  V30 3421 O 318.622 1.90136 -0.463318 0
M  V30 3422 C 318.921 0.323995 -3.55928 0
M  V30 3423 C 318.587 -0.905618 -4.41712 0
M  V30 3424 C 317.249 -1.24275 -4.64875 0
M  V30 3425 C 319.601 -1.72448 -4.91845 0
M  V30 3426 C 316.929 -2.39888 -5.35417 0
M  V30 3427 C 319.281 -2.87185 -5.63656 0
M  V30 3428 C 317.945 -3.21317 -5.85074 0
M  V30 3429 H 317.215 0.0324291 -0.74029 0
M  V30 3430 H 319.862 -0.620945 -1.81153 0
M  V30 3431 H 318.167 1.11577 -3.75577 0
M  V30 3432 H 319.864 0.76826 -3.93572 0
M  V30 3433 H 316.454 -0.632956 -4.239 0
M  V30 3434 H 320.638 -1.4772 -4.73806 0
M  V30 3435 H 315.894 -2.66611 -5.50208 0
M  V30 3436 H 320.068 -3.50985 -6.01484 0
M  V30 3437 H 317.695 -4.1101 -6.39511 0
M  V30 3438 N 319.27 1.56325 -0.20005 0
M  V30 3439 C 320.495 2.02548 0.44597 0
M  V30 3440 C 320.92 1.07922 1.5406 0
M  V30 3441 O 320.278 0.0635775 1.81188 0
M  V30 3442 C 320.326 3.47175 0.974761 0
M  V30 3443 O 319.43 3.55671 2.08739 0
M  V30 3444 H 318.771 0.655862 0.103638 0
M  V30 3445 H 321.301 2.02201 -0.312381 0
M  V30 3446 H 321.311 3.87067 1.2901 0
M  V30 3447 H 319.986 4.15538 0.17347 0
M  V30 3448 H 318.563 3.27657 1.78032 0
M  V30 3449 N 320.748 -0.0735177 1.57428 0
M  V30 3450 C 321.978 -0.78483 1.91112 0
M  V30 3451 C 322.386 -1.71729 0.7941 0
M  V30 3452 O 321.729 -1.82105 -0.241542 0
M  V30 3453 C 321.791 -1.63346 3.20247 0
M  V30 3454 C 321.455 -0.870557 4.48632 0
M  V30 3455 C 322.452 -0.19058 5.19551 0
M  V30 3456 C 320.137 -0.838242 4.95256 0
M  V30 3457 C 322.131 0.511503 6.35344 0
M  V30 3458 C 319.818 -0.132386 6.10957 0
M  V30 3459 C 320.816 0.541288 6.80852 0
M  V30 3460 O 320.504 1.23578 7.94345 0
M  V30 3461 H 320.236 -0.228408 0.636244 0
M  V30 3462 H 322.79 -0.0486039 2.05342 0
M  V30 3463 H 321.02 -2.41245 3.02222 0
M  V30 3464 H 322.709 -2.22329 3.39595 0
M  V30 3465 H 323.475 -0.206864 4.84559 0
M  V30 3466 H 319.354 -1.35206 4.40727 0
M  V30 3467 H 322.898 1.03789 6.89836 0
M  V30 3468 H 318.795 -0.114023 6.45399 0
M  V30 3469 H 319.563 1.14487 8.10454 0
M  V30 3470 N 322.226 -1.5378 -0.344866 0
M  V30 3471 C 323.637 -1.62428 -0.920552 0
M  V30 3472 C 323.988 -0.504747 -1.89596 0
M  V30 3473 O 323.113 0.365711 -2.13287 0
M  V30 3474 C 323.708 -2.94419 -1.67639 0
M  V30 3475 C 322.267 -3.05333 -2.20111 0
M  V30 3476 C 321.414 -2.57866 -1.01982 0
M  V30 3477 H 324.365 -1.58222 -0.123042 0
M  V30 3478 H 324.386 -2.83384 -2.53917 0
M  V30 3479 H 323.898 -3.7588 -0.966224 0
M  V30 3480 H 321.999 -2.28502 -2.94308 0
M  V30 3481 H 322.112 -4.10778 -2.46573 0
M  V30 3482 H 320.476 -2.13241 -1.39285 0
M  V30 3483 H 321.259 -3.41765 -0.324308 0
M  V30 3484 N 323.704 0.605807 -1.45491 0
M  V30 3485 C 324.614 1.74466 -1.56839 0
M  V30 3486 C 325.63 1.68006 -0.452772 0
M  V30 3487 O 326.806 1.8833 -0.713708 0
M  V30 3488 C 323.871 3.10931 -1.53371 0
M  V30 3489 C 322.932 3.28832 -2.75986 0
M  V30 3490 C 322.165 4.58787 -2.72673 0
M  V30 3491 O 322.388 5.4122 -1.80102 0
M  V30 3492 O 321.322 4.79438 -3.63899 0
M  V30 3493 H 325.148 1.67843 -2.53106 0
M  V30 3494 H 322.733 0.770108 -1.28022 0
M  V30 3495 H 324.615 3.92233 -1.54051 0
M  V30 3496 H 323.29 3.18042 -0.602572 0
M  V30 3497 H 322.197 2.47112 -2.80867 0
M  V30 3498 H 323.53 3.26599 -3.68231 0
M  V30 3499 N 325.182 1.32811 0.848464 0
M  V30 3500 C 326.13 1.22231 1.97895 0
M  V30 3501 C 327.124 0.125749 1.68933 0
M  V30 3502 O 328.33 0.289083 1.77663 0
M  V30 3503 H 324.705 0.379058 0.649476 0
M  V30 3504 H 326.676 2.17828 2.03945 0
M  V30 3505 C 325.425 0.968572 3.33937 0
M  V30 3506 H 324.748 1.80458 3.56756 0
M  V30 3507 H 326.188 0.934808 4.13567 0
M  V30 3508 C 324.647 -0.328628 3.35293 0
M  V30 3509 O 325.177 -1.33848 3.78745 0
M  V30 3510 N 323.383 -0.352788 2.88451 0
M  V30 3511 H 322.93 0.469541 2.53285 0
M  V30 3512 H 322.888 -1.22057 2.89741 0
M  V30 3513 N 326.66 -1.06551 1.16123 0
M  V30 3514 C 327.57 -2.17484 0.879662 0
M  V30 3515 C 328.586 -1.73377 -0.147104 0
M  V30 3516 O 329.762 -2.01379 0.0289128 0
M  V30 3517 C 326.827 -3.44591 0.381829 0
M  V30 3518 C 325.888 -4.0322 1.4735 0
M  V30 3519 C 325.121 -5.24261 0.999324 0
M  V30 3520 O 325.344 -5.70198 -0.151957 0
M  V30 3521 O 324.278 -5.74775 1.78653 0
M  V30 3522 H 328.104 -2.44075 1.80724 0
M  V30 3523 H 325.689 -1.16042 0.940992 0
M  V30 3524 H 327.571 -4.21254 0.111053 0
M  V30 3525 H 326.246 -3.19532 -0.51777 0
M  V30 3526 H 325.153 -3.2806 1.79798 0
M  V30 3527 H 326.486 -4.32568 2.34831 0
M  V30 3528 N 328.138 -0.959301 -1.25041 0
M  V30 3529 C 329.071 -0.427418 -2.24161 0
M  V30 3530 C 330.049 0.493837 -1.54919 0
M  V30 3531 O 331.233 0.427144 -1.83597 0
M  V30 3532 C 328.36 0.383893 -3.36517 0
M  V30 3533 C 327.406 -0.478431 -4.23808 0
M  V30 3534 S 328.239 -1.91353 -5.00144 0
M  V30 3535 C 329.395 -1.11077 -6.15965 0
M  V30 3536 H 329.628 -1.26743 -2.6893 0
M  V30 3537 H 327.161 -0.763714 -1.34189 0
M  V30 3538 H 329.119 0.846039 -4.01687 0
M  V30 3539 H 327.78 1.19878 -2.90324 0
M  V30 3540 H 326.973 0.14406 -5.03794 0
M  V30 3541 H 326.575 -0.87597 -3.63597 0
M  V30 3542 H 328.867 -0.361699 -6.76534 0
M  V30 3543 H 329.81 -1.88472 -6.82557 0
M  V30 3544 H 330.218 -0.638843 -5.60873 0
M  V30 3545 N 329.616 1.39756 -0.72842 0
M  V30 3546 C 330.865 1.99879 -0.270407 0
M  V30 3547 C 331.178 1.58449 1.14688 0
M  V30 3548 O 332.384 2.11362 1.70407 0
M  V30 3549 C 330.84 3.57292 -0.43252 0
M  V30 3550 C 330.448 4.07688 -1.85727 0
M  V30 3551 C 332.192 4.24485 -0.0359507 0
M  V30 3552 C 330.099 5.5765 -1.96928 0
M  V30 3553 H 329.029 0.747689 -0.0973472 0
M  V30 3554 H 331.68 1.59837 -0.901355 0
M  V30 3555 H 330.062 3.95097 0.267219 0
M  V30 3556 H 331.236 3.81231 -2.58843 0
M  V30 3557 H 329.551 3.53135 -2.20646 0
M  V30 3558 H 332.148 5.34609 -0.0987484 0
M  V30 3559 H 332.491 4.03915 1.00787 0
M  V30 3560 H 333.024 3.9183 -0.686604 0
M  V30 3561 H 329.763 5.8309 -2.99476 0
M  V30 3562 H 329.283 5.8593 -1.28241 0
M  V30 3563 H 330.962 6.22957 -1.74737 0
M  V30 3564 N 331.094 0.475555 1.50254 0
M  V30 3565 C 332.324 -0.0753399 2.06463 0
M  V30 3566 C 332.732 -1.33661 1.33908 0
M  V30 3567 O 332.075 -1.79219 0.403257 0
M  V30 3568 C 332.137 -0.424921 3.5698 0
M  V30 3569 C 331.801 0.734965 4.51051 0
M  V30 3570 C 332.798 1.61827 4.94073 0
M  V30 3571 C 330.483 0.926557 4.9368 0
M  V30 3572 C 332.477 2.67754 5.78434 0
M  V30 3573 C 330.164 1.98904 5.77824 0
M  V30 3574 C 331.162 2.8629 6.20103 0
M  V30 3575 O 330.85 3.90708 7.02568 0
M  V30 3576 H 330.582 0.00576308 0.675975 0
M  V30 3577 H 333.136 0.664662 1.94349 0
M  V30 3578 H 331.366 -1.21817 3.67012 0
M  V30 3579 H 333.055 -0.911422 3.95535 0
M  V30 3580 H 333.821 1.48196 4.61804 0
M  V30 3581 H 329.7 0.25584 4.6029 0
M  V30 3582 H 333.244 3.35992 6.11355 0
M  V30 3583 H 329.141 2.12541 6.09505 0
M  V30 3584 H 329.909 3.87751 7.20827 0
M  V30 3585 N 332.573 -1.56217 0.208337 0
M  V30 3586 C 333.52 -2.19699 -0.707192 0
M  V30 3587 C 334.49 -1.14836 -1.20008 0
M  V30 3588 O 335.675 -1.4314 -1.26157 0
M  V30 3589 C 332.815 -2.87061 -1.91546 0
M  V30 3590 C 331.928 -4.06483 -1.46271 0
M  V30 3591 C 331.063 -4.61665 -2.62752 0
M  V30 3592 C 330.102 -5.73417 -2.14147 0
M  V30 3593 N 329.239 -6.22948 -3.23853 0
M  V30 3594 H 334.079 -2.97575 -0.159111 0
M  V30 3595 H 331.616 -1.46948 -0.0667874 0
M  V30 3596 H 333.574 -3.24294 -2.62468 0
M  V30 3597 H 332.204 -2.11725 -2.43664 0
M  V30 3598 H 331.256 -3.74825 -0.648886 0
M  V30 3599 H 332.568 -4.87271 -1.06622 0
M  V30 3600 H 331.722 -5.01272 -3.41776 0
M  V30 3601 H 330.461 -3.80013 -3.05682 0
M  V30 3602 H 329.466 -5.33326 -1.33581 0
M  V30 3603 H 330.691 -6.56897 -1.72232 0
M  V30 3604 H 328.637 -5.44213 -3.6629 0
M  V30 3605 H 328.554 -6.98823 -2.88414 0
M  V30 3606 H 329.822 -6.6721 -4.03052 0
M  V30 3607 N 334.051 0.0651679 -1.57465 0
M  V30 3608 C 335.297 0.758912 -1.88712 0
M  V30 3609 C 335.652 1.7485 -0.802819 0
M  V30 3610 O 334.945 1.90632 0.192359 0
M  V30 3611 C 335.139 1.50081 -3.24362 0
M  V30 3612 C 334.968 0.584579 -4.45884 0
M  V30 3613 C 333.738 0.219039 -5.04825 0
M  V30 3614 C 335.936 -0.121559 -5.14156 0
M  V30 3615 N 333.918 -0.702222 -6.09871 0
M  V30 3616 C 335.289 -0.899767 -6.13436 0
M  V30 3617 C 337.344 -0.192331 -4.97528 0
M  V30 3618 C 336.047 -1.74218 -6.97883 0
M  V30 3619 C 338.073 -1.02174 -5.82507 0
M  V30 3620 C 337.435 -1.78798 -6.8133 0
M  V30 3621 H 333.534 0.25293 -0.739967 0
M  V30 3622 H 336.118 0.0201744 -1.9469 0
M  V30 3623 H 334.289 2.21023 -3.1938 0
M  V30 3624 H 336.021 2.14409 -3.43236 0
M  V30 3625 H 332.776 0.57336 -4.70117 0
M  V30 3626 H 333.2 -1.15629 -6.67052 0
M  V30 3627 H 337.842 0.385741 -4.21037 0
M  V30 3628 H 335.56 -2.3312 -7.73745 0
M  V30 3629 H 339.146 -1.07957 -5.71696 0
M  V30 3630 H 338.026 -2.41942 -7.45945 0
M  V30 3631 N 335.529 1.53961 0.336706 0
M  V30 3632 C 336.439 1.85432 1.43708 0
M  V30 3633 C 337.455 0.745053 1.57242 0
M  V30 3634 O 338.631 1.03804 1.72588 0
M  V30 3635 C 335.696 2.06349 2.78605 0
M  V30 3636 C 334.757 3.30191 2.74358 0
M  V30 3637 C 333.99 3.50101 4.02822 0
M  V30 3638 O 334.213 2.7371 5.00439 0
M  V30 3639 O 333.147 4.43547 4.06878 0
M  V30 3640 H 336.973 2.78975 1.20028 0
M  V30 3641 H 334.558 1.39701 0.52952 0
M  V30 3642 H 336.44 2.21513 3.58483 0
M  V30 3643 H 335.115 1.15995 3.02203 0
M  V30 3644 H 334.022 3.20425 1.93078 0
M  V30 3645 H 335.355 4.2056 2.55715 0
M  V30 3646 N 337.007 -0.598083 1.45811 0
M  V30 3647 C 337.955 -1.72932 1.55555 0
M  V30 3648 C 338.949 -1.63984 0.424921 0
M  V30 3649 O 340.155 -1.69663 0.601205 0
M  V30 3650 H 336.53 -0.571489 0.488779 0
M  V30 3651 H 338.501 -1.61842 2.50699 0
M  V30 3652 C 337.25 -3.11318 1.54843 0
M  V30 3653 H 336.573 -3.18867 2.41172 0
M  V30 3654 H 338.013 -3.90274 1.65717 0
M  V30 3655 C 336.472 -3.3578 0.274427 0
M  V30 3656 O 337.002 -3.9654 -0.641778 0
M  V30 3657 N 335.208 -2.90119 0.167139 0
M  V30 3658 H 334.755 -2.40855 0.913596 0
M  V30 3659 H 334.713 -3.0686 -0.684435 0
M  V30 3660 N 338.485 -1.33259 -0.841409 0
M  V30 3661 C 339.732 -1.24572 -1.5965 0
M  V30 3662 C 340.06 0.189137 -1.93578 0
M  V30 3663 O 339.315 1.14566 -1.5866 0
M  V30 3664 C 339.614 -2.06381 -2.9179 0
M  V30 3665 C 339.28 -3.556 -2.77235 0
M  V30 3666 C 337.942 -3.96282 -2.72973 0
M  V30 3667 C 340.294 -4.50433 -2.62221 0
M  V30 3668 C 337.622 -5.30017 -2.51592 0
M  V30 3669 C 339.974 -5.84327 -2.42374 0
M  V30 3670 C 338.638 -6.24194 -2.36512 0
M  V30 3671 H 337.908 -0.455842 -0.5842 0
M  V30 3672 H 340.555 -1.6482 -0.975016 0
M  V30 3673 H 338.86 -1.58903 -3.5813 0
M  V30 3674 H 340.557 -1.97019 -3.49263 0
M  V30 3675 H 337.147 -3.23298 -2.81384 0
M  V30 3676 H 341.331 -4.19914 -2.64549 0
M  V30 3677 H 336.587 -5.59947 -2.45499 0
M  V30 3678 H 340.761 -6.57414 -2.29739 0
M  V30 3679 H 338.388 -7.27759 -2.19706 0
M  V30 3680 N 339.963 1.05934 -1.16686 0
M  V30 3681 C 340.91 2.13499 -0.876748 0
M  V30 3682 C 341.88 1.65162 0.176299 0
M  V30 3683 O 343.065 1.90757 0.0407143 0
M  V30 3684 C 340.205 3.42912 -0.387967 0
M  V30 3685 C 339.318 4.04964 -1.50426 0
M  V30 3686 C 338.453 5.22266 -0.970125 0
M  V30 3687 C 337.492 5.76309 -2.06238 0
M  V30 3688 N 336.629 6.84922 -1.54356 0
M  V30 3689 H 341.469 2.37654 -1.7979 0
M  V30 3690 H 339.006 1.16598 -0.896843 0
M  V30 3691 H 340.964 4.17111 -0.086186 0
M  V30 3692 H 339.594 3.18963 0.496235 0
M  V30 3693 H 338.646 3.28277 -1.92193 0
M  V30 3694 H 339.958 4.41122 -2.32836 0
M  V30 3695 H 339.112 6.03506 -0.621743 0
M  V30 3696 H 337.851 4.87564 -0.115377 0
M  V30 3697 H 336.856 4.93704 -2.41942 0
M  V30 3698 H 338.081 6.13062 -2.92115 0
M  V30 3699 H 336.027 6.52131 -0.711406 0
M  V30 3700 H 335.944 7.20043 -2.30379 0
M  V30 3701 H 337.212 7.69832 -1.22387 0
M  V30 3702 N 341.441 0.965919 1.2453 0
M  V30 3703 C 342.371 0.513476 2.27784 0
M  V30 3704 C 343.352 -0.445974 1.6415 0
M  V30 3705 O 344.537 -0.342485 1.91156 0
M  V30 3706 C 341.667 -0.198839 3.4673 0
M  V30 3707 C 340.621 0.676456 4.2262 0
M  V30 3708 C 339.947 -0.167248 5.34438 0
M  V30 3709 C 341.247 1.96017 4.84123 0
M  V30 3710 H 342.941 1.3765 2.65881 0
M  V30 3711 H 340.487 0.663321 1.27813 0
M  V30 3712 H 342.44 -0.526567 4.18097 0
M  V30 3713 H 341.164 -1.0962 3.07654 0
M  V30 3714 H 339.823 0.98743 3.53052 0
M  V30 3715 H 339.471 -1.0647 4.91603 0
M  V30 3716 H 339.171 0.415181 5.86131 0
M  V30 3717 H 340.695 -0.489688 6.08633 0
M  V30 3718 H 342.109 1.69814 5.47573 0
M  V30 3719 H 340.506 2.48918 5.4604 0
M  V30 3720 H 341.576 2.65622 4.05676 0
M  V30 3721 N 342.919 -1.39368 0.735821 0
M  V30 3722 C 343.829 -2.34395 0.0979693 0
M  V30 3723 C 344.845 -1.58361 -0.720968 0
M  V30 3724 O 346.021 -1.90648 -0.649245 0
M  V30 3725 C 343.086 -3.37393 -0.797916 0
M  V30 3726 C 342.147 -4.29287 0.0333662 0
M  V30 3727 C 341.38 -5.27365 -0.819854 0
M  V30 3728 O 341.603 -5.31959 -2.05855 0
M  V30 3729 O 340.537 -6.01389 -0.248079 0
M  V30 3730 H 344.363 -2.90601 0.882315 0
M  V30 3731 H 341.948 -1.40909 0.4965 0
M  V30 3732 H 343.83 -4.00505 -1.31048 0
M  V30 3733 H 342.505 -2.83571 -1.56106 0
M  V30 3734 H 341.412 -3.69395 0.591475 0
M  V30 3735 H 342.745 -4.86317 0.758752 0
M  V30 3736 N 344.397 -0.483516 -1.5 0
M  V30 3737 C 345.646 0.0689102 -2.01582 0
M  V30 3738 C 345.959 1.39655 -1.36952 0
M  V30 3739 O 347.165 2.03465 -1.79762 0
M  V30 3740 C 345.621 0.173302 -3.59483 0
M  V30 3741 C 345.229 -1.14665 -4.33077 0
M  V30 3742 C 346.973 0.677024 -4.19066 0
M  V30 3743 C 344.88 -1.00537 -5.82792 0
M  V30 3744 H 343.81 0.0295277 -0.753422 0
M  V30 3745 H 346.461 -0.620295 -1.72698 0
M  V30 3746 H 344.843 0.926569 -3.85007 0
M  V30 3747 H 346.017 -1.91184 -4.19268 0
M  V30 3748 H 344.332 -1.58244 -3.85159 0
M  V30 3749 H 346.929 0.799952 -5.28682 0
M  V30 3750 H 347.272 1.67151 -3.81269 0
M  V30 3751 H 347.805 -0.0192083 -3.97795 0
M  V30 3752 H 344.544 -1.9736 -6.25083 0
M  V30 3753 H 344.064 -0.280776 -5.99142 0
M  V30 3754 H 345.743 -0.677 -6.43448 0
M  V30 3755 N 345.875 1.56104 -0.216619 0
M  V30 3756 C 346.823 2.21434 0.712036 0
M  V30 3757 C 347.817 1.19218 1.20348 0
M  V30 3758 O 349.023 1.3731 1.16387 0
M  V30 3759 H 345.398 0.70992 0.248026 0
M  V30 3760 H 347.369 2.98083 0.137558 0
M  V30 3761 C 346.118 2.90434 1.91163 0
M  V30 3762 H 345.441 3.68842 1.54258 0
M  V30 3763 H 346.881 3.39552 2.5393 0
M  V30 3764 C 345.34 1.92635 2.76394 0
M  V30 3765 O 345.87 1.44017 3.74996 0
M  V30 3766 N 344.076 1.60392 2.42328 0
M  V30 3767 H 343.623 2.00122 1.622 0
M  V30 3768 H 343.581 0.952159 2.99635 0
M  V30 3769 N 347.353 -0.0568162 1.57498 0
M  V30 3770 C 348.263 -1.08346 2.08083 0
M  V30 3771 C 349.279 -1.41439 1.01346 0
M  V30 3772 O 350.455 -1.51316 1.32912 0
M  V30 3773 C 347.52 -2.37352 2.52715 0
M  V30 3774 C 346.581 -2.11093 3.73816 0
M  V30 3775 C 345.814 -3.33949 4.1631 0
M  V30 3776 O 346.037 -4.43622 3.58547 0
M  V30 3777 O 344.971 -3.21279 5.08983 0
M  V30 3778 H 348.797 -0.683667 2.95905 0
M  V30 3779 H 346.382 -0.271965 1.46904 0
M  V30 3780 H 348.264 -3.13246 2.81877 0
M  V30 3781 H 346.939 -2.76681 1.68016 0
M  V30 3782 H 345.846 -1.32856 3.49714 0
M  V30 3783 H 347.179 -1.76637 4.59413 0
M  V30 3784 N 348.832 -1.54138 -0.328536 0
M  V30 3785 C 349.779 -1.83176 -1.40411 0
M  V30 3786 C 350.749 -0.678494 -1.5161 0
M  V30 3787 O 351.934 -0.92443 -1.6691 0
M  V30 3788 C 349.074 -2.06035 -2.76846 0
M  V30 3789 C 348.187 -3.33727 -2.74318 0
M  V30 3790 C 347.322 -3.46574 -4.02567 0
M  V30 3791 C 346.361 -4.68159 -3.94327 0
M  V30 3792 N 345.498 -4.77959 -5.14296 0
M  V30 3793 H 350.338 -2.74938 -1.14948 0
M  V30 3794 H 347.875 -1.36166 -0.556538 0
M  V30 3795 H 349.833 -2.1728 -3.56153 0
M  V30 3796 H 348.463 -1.1757 -3.00628 0
M  V30 3797 H 347.515 -3.31246 -1.8703 0
M  V30 3798 H 348.827 -4.23139 -2.64111 0
M  V30 3799 H 347.981 -3.57333 -4.90304 0
M  V30 3800 H 346.72 -2.55245 -4.15574 0
M  V30 3801 H 345.725 -4.57461 -3.04974 0
M  V30 3802 H 346.95 -5.60868 -3.82889 0
M  V30 3803 H 344.896 -3.89544 -5.27818 0
M  V30 3804 H 344.813 -5.6133 -5.06404 0
M  V30 3805 H 346.081 -4.93044 -6.03761 0
M  V30 3806 N 350.31 0.590341 -1.46126 0
M  V30 3807 C 351.258 1.72105 -1.5647 0
M  V30 3808 C 352.252 1.63756 -0.433612 0
M  V30 3809 O 353.458 1.69342 -0.610194 0
M  V30 3810 H 349.833 0.568889 -0.491802 0
M  V30 3811 H 351.804 1.6051 -2.51553 0
M  V30 3812 C 350.553 3.10493 -1.56491 0
M  V30 3813 H 349.876 3.17583 -2.4286 0
M  V30 3814 H 351.316 3.8939 -1.67785 0
M  V30 3815 C 349.775 3.3563 -0.292231 0
M  V30 3816 O 350.305 3.96875 0.620739 0
M  V30 3817 N 348.511 2.90026 -0.182523 0
M  V30 3818 H 348.058 2.40367 -0.926356 0
M  V30 3819 H 348.016 3.07218 0.668152 0
M  V30 3820 N 351.788 1.33704 0.83433 0
M  V30 3821 C 353.013 1.28615 1.62705 0
M  V30 3822 C 353.438 -0.139242 1.87584 0
M  V30 3823 O 352.796 -1.09734 1.4432 0
M  V30 3824 C 352.844 2.07139 2.95171 0
M  V30 3825 O 351.948 1.4331 3.86699 0
M  V30 3826 H 351.289 0.44226 0.49528 0
M  V30 3827 H 353.819 1.76335 1.03766 0
M  V30 3828 H 353.829 2.18073 3.44831 0
M  V30 3829 H 352.504 3.10779 2.76386 0
M  V30 3830 H 351.081 1.4105 3.45195 0
M  V30 3831 N 353.266 -1.05314 1.17247 0
M  V30 3832 C 354.512 -1.78699 0.971513 0
M  V30 3833 C 354.867 -1.85932 -0.494692 0
M  V30 3834 O 354.16 -1.34716 -1.36243 0
M  V30 3835 C 354.354 -3.2229 1.54479 0
M  V30 3836 C 354.183 -3.29052 3.06521 0
M  V30 3837 C 352.953 -3.3841 3.75242 0
M  V30 3838 C 355.151 -3.18095 4.04129 0
M  V30 3839 N 353.133 -3.34289 5.14902 0
M  V30 3840 C 354.504 -3.21331 5.30232 0
M  V30 3841 C 356.559 -3.02049 3.95817 0
M  V30 3842 C 355.262 -3.10169 6.4899 0
M  V30 3843 C 357.288 -2.92228 5.14156 0
M  V30 3844 C 356.65 -2.96096 6.39145 0
M  V30 3845 H 352.749 -0.66628 0.409383 0
M  V30 3846 H 355.333 -1.25553 1.4881 0
M  V30 3847 H 353.504 -3.7381 1.05455 0
M  V30 3848 H 355.236 -3.83905 1.28059 0
M  V30 3849 H 351.991 -3.43621 3.25917 0
M  V30 3850 H 352.415 -3.35702 5.87906 0
M  V30 3851 H 357.057 -2.97897 3.00029 0
M  V30 3852 H 354.775 -3.13076 7.44989 0
M  V30 3853 H 358.361 -2.80885 5.09505 0
M  V30 3854 H 357.241 -2.88568 7.29176 0
M  V30 3855 N 354.744 -0.972509 -1.24016 0
M  V30 3856 C 355.691 -0.505969 -2.25186 0
M  V30 3857 C 356.661 0.451009 -1.5986 0
M  V30 3858 O 357.846 0.360307 -1.87367 0
M  V30 3859 C 354.986 0.193089 -3.44559 0
M  V30 3860 C 354.099 -0.803222 -4.24467 0
M  V30 3861 C 353.234 -0.0797793 -5.3114 0
M  V30 3862 C 352.273 -1.06583 -6.02749 0
M  V30 3863 N 351.41 -0.372074 -7.01113 0
M  V30 3864 H 356.25 -1.37351 -2.64459 0
M  V30 3865 H 353.787 -0.688419 -1.29997 0
M  V30 3866 H 355.745 0.615125 -4.1264 0
M  V30 3867 H 354.375 1.02455 -3.06109 0
M  V30 3868 H 353.427 -1.34368 -3.55878 0
M  V30 3869 H 354.739 -1.55494 -4.73944 0
M  V30 3870 H 353.893 0.400015 -6.0538 0
M  V30 3871 H 352.632 0.704597 -4.82583 0
M  V30 3872 H 351.637 -1.55645 -5.27309 0
M  V30 3873 H 352.862 -1.85074 -6.53395 0
M  V30 3874 H 350.808 0.393238 -6.5482 0
M  V30 3875 H 350.725 -1.06258 -7.48495 0
M  V30 3876 H 351.993 0.0855932 -7.79453 0
M  V30 3877 N 356.222 1.38976 -0.743202 0
M  V30 3878 C 357.152 2.33171 -0.123873 0
M  V30 3879 C 358.133 1.54336 0.71516 0
M  V30 3880 O 359.318 1.82696 0.658467 0
M  V30 3881 C 356.448 3.38474 0.777978 0
M  V30 3882 C 355.402 4.27979 0.0424758 0
M  V30 3883 C 354.728 5.2405 1.06189 0
M  V30 3884 C 356.028 5.10155 -1.1198 0
M  V30 3885 H 357.722 2.85213 -0.910709 0
M  V30 3886 H 355.268 1.37133 -0.439388 0
M  V30 3887 H 357.221 4.03328 1.22084 0
M  V30 3888 H 355.945 2.84891 1.59702 0
M  V30 3889 H 354.604 3.64616 -0.380853 0
M  V30 3890 H 354.252 4.66758 1.87472 0
M  V30 3891 H 353.952 5.84785 0.574485 0
M  V30 3892 H 355.476 5.9178 1.50428 0
M  V30 3893 H 356.89 5.68307 -0.75499 0
M  V30 3894 H 355.287 5.80073 -1.53738 0
M  V30 3895 H 356.357 4.44504 -1.93764 0
M  V30 3896 N 357.7 0.491464 1.49741 0
M  V30 3897 C 358.947 -0.0564256 2.02421 0
M  V30 3898 C 359.275 -1.37872 1.37192 0
M  V30 3899 O 358.53 -1.89375 0.493508 0
M  V30 3900 C 358.829 -0.267329 3.56399 0
M  V30 3901 C 358.495 0.975775 4.40215 0
M  V30 3902 C 357.157 1.31655 4.62839 0
M  V30 3903 C 359.509 1.80251 4.89039 0
M  V30 3904 C 356.837 2.48375 5.31532 0
M  V30 3905 C 359.189 2.96116 5.59015 0
M  V30 3906 C 357.853 3.30585 5.79888 0
M  V30 3907 H 357.123 -0.0206476 0.740712 0
M  V30 3908 H 359.77 0.649686 1.80143 0
M  V30 3909 H 358.075 -1.05588 3.77304 0
M  V30 3910 H 359.772 -0.705549 3.94744 0
M  V30 3911 H 356.362 0.700315 4.2284 0
M  V30 3912 H 360.546 1.55239 4.71396 0
M  V30 3913 H 355.802 2.7533 5.45897 0
M  V30 3914 H 359.976 3.60509 5.95824 0
M  V30 3915 H 357.603 4.21132 6.32892 0
M  V30 3916 N 359.178 -1.55987 0.224894 0
M  V30 3917 C 360.11 -2.17722 -0.716224 0
M  V30 3918 C 361.123 -1.14723 -1.15509 0
M  V30 3919 O 362.312 -1.41688 -1.08567 0
M  V30 3920 C 359.412 -2.74873 -1.98238 0
M  V30 3921 C 358.585 -4.03074 -1.69853 0
M  V30 3922 C 357.644 -4.44757 -2.81208 0
M  V30 3923 O 356.67 -5.11587 -2.49534 0
M  V30 3924 N 357.872 -4.10716 -4.10235 0
M  V30 3925 H 360.637 -2.99109 -0.188123 0
M  V30 3926 H 358.198 -1.6184 0.0440123 0
M  V30 3927 H 360.19 -2.99727 -2.7193 0
M  V30 3928 H 358.76 -1.9777 -2.42086 0
M  V30 3929 H 357.98 -3.86041 -0.797875 0
M  V30 3930 H 359.268 -4.86701 -1.48324 0
M  V30 3931 H 358.666 -3.57019 -4.38809 0
M  V30 3932 H 357.223 -4.40455 -4.80461 0
M  V30 3933 N 360.656 0.0484629 -1.57525 0
M  V30 3934 C 361.903 0.743125 -1.88372 0
M  V30 3935 C 362.231 1.76383 -0.819715 0
M  V30 3936 O 361.486 1.94855 0.181659 0
M  V30 3937 C 361.785 1.46632 -3.25935 0
M  V30 3938 C 361.451 0.583427 -4.4711 0
M  V30 3939 C 360.113 0.340191 -4.79996 0
M  V30 3940 C 362.465 -0.0273345 -5.21193 0
M  V30 3941 C 359.793 -0.522903 -5.84365 0
M  V30 3942 C 362.145 -0.878017 -6.26477 0
M  V30 3943 C 360.809 -1.1309 -6.5785 0
M  V30 3944 H 360.079 0.271929 -0.689301 0
M  V30 3945 H 362.726 0.00336166 -1.915 0
M  V30 3946 H 361.031 2.2789 -3.18706 0
M  V30 3947 H 362.728 2.00902 -3.47044 0
M  V30 3948 H 359.318 0.783151 -4.21384 0
M  V30 3949 H 363.502 0.147654 -4.9608 0
M  V30 3950 H 358.758 -0.727335 -6.07058 0
M  V30 3951 H 362.932 -1.35789 -6.83033 0
M  V30 3952 H 360.559 -1.80144 -7.38547 0
M  V30 3953 N 362.134 1.5431 0.320358 0
M  V30 3954 C 363.411 1.63322 1.07635 0
M  V30 3955 C 363.791 0.46912 2.05821 0
M  V30 3956 O 363.139 -0.536274 2.22118 0
M  V30 3957 C 363.349 3.00465 1.77544 0
M  V30 3958 C 364.697 3.56621 2.30449 0
M  V30 3959 O 365.721 3.02791 1.87606 0
M  V30 3960 O 364.58 4.5083 3.08892 0
M  V30 3961 H 361.674 0.661502 0.496331 0
M  V30 3962 H 364.22 1.66656 0.319992 0
M  V30 3963 H 362.992 3.76629 1.06143 0
M  V30 3964 H 362.615 3.00824 2.59982 0
M  V30 3965 N 363.613 -0.582584 1.46437 0
M  V30 3966 C 364.86 -1.34079 1.51753 0
M  V30 3967 C 365.188 -1.93762 0.169299 0
M  V30 3968 O 364.443 -1.76989 -0.835062 0
M  V30 3969 C 364.742 -2.48964 2.56421 0
M  V30 3970 C 364.408 -2.07273 4.00436 0
M  V30 3971 C 363.07 -1.95618 4.39644 0
M  V30 3972 C 365.422 -1.75111 4.90903 0
M  V30 3973 C 362.75 -1.5006 5.67185 0
M  V30 3974 C 365.102 -1.31032 6.18881 0
M  V30 3975 C 363.766 -1.17954 6.56996 0
M  V30 3976 H 363.036 -0.49063 0.555304 0
M  V30 3977 H 365.683 -0.656007 1.79913 0
M  V30 3978 H 363.988 -3.22889 2.21923 0
M  V30 3979 H 365.685 -3.07178 2.57765 0
M  V30 3980 H 362.275 -2.17279 3.69443 0
M  V30 3981 H 366.459 -1.83001 4.61329 0
M  V30 3982 H 361.715 -1.38577 5.95488 0
M  V30 3983 H 365.889 -1.052 6.88408 0
M  V30 3984 H 363.516 -0.824279 7.55718 0
M  V30 3985 N 365.091 -1.34144 -0.827227 0
M  V30 3986 C 366.319 -1.29325 -1.61501 0
M  V30 3987 C 366.734 0.13354 -1.88327 0
M  V30 3988 O 366.091 1.0793 -1.47164 0
M  V30 3989 C 366.142 -2.07746 -2.95844 0
M  V30 3990 O 365.863 -3.4486 -2.70191 0
M  V30 3991 C 367.364 -2.10273 -3.90256 0
M  V30 3992 H 364.584 -0.445069 -0.50215 0
M  V30 3993 H 367.128 -1.76693 -1.02955 0
M  V30 3994 H 365.283 -1.6403 -3.5096 0
M  V30 3995 H 365.697 -3.85345 -3.55822 0
M  V30 3996 H 367.171 -2.69575 -4.81698 0
M  V30 3997 H 367.648 -1.096 -4.25305 0
M  V30 3998 H 368.254 -2.54059 -3.41078 0
M  V30 3999 N 366.569 1.04691 -1.17803 0
M  V30 4000 C 367.817 1.7743 -0.967617 0
M  V30 4001 C 368.138 1.88359 0.504574 0
M  V30 4002 O 367.408 1.40402 1.36617 0
M  V30 4003 H 365.988 0.657242 -0.355024 0
M  V30 4004 H 368.65 1.2638 -1.48371 0
M  V30 4005 H 367.746 2.78924 -1.40027 0
M  V30 4006 N 368.047 0.979072 1.23499 0
M  V30 4007 C 369.293 0.648178 1.92163 0
M  V30 4008 C 369.626 -0.816049 1.76222 0
M  V30 4009 O 368.901 -1.58849 1.12237 0
M  V30 4010 C 369.184 1.03773 3.44824 0
M  V30 4011 C 369.037 2.55948 3.69879 0
M  V30 4012 C 370.356 0.580653 4.36253 0
M  V30 4013 H 367.475 0.236952 0.69787 0
M  V30 4014 H 370.117 1.22012 1.45647 0
M  V30 4015 H 368.267 0.551058 3.84572 0
M  V30 4016 H 369.939 3.12179 3.3962 0
M  V30 4017 H 368.182 2.98641 3.14636 0
M  V30 4018 H 368.853 2.78255 4.76737 0
M  V30 4019 H 371.329 0.998465 4.03943 0
M  V30 4020 H 370.205 0.881663 5.41773 0
M  V30 4021 H 370.466 -0.519052 4.39042 0
M  V30 4022 N 369.525 -1.3858 0.750561 0
M  V30 4023 C 370.75 -2.04997 0.314812 0
M  V30 4024 C 371.175 -1.56235 -1.04749 0
M  V30 4025 O 370.533 -0.712981 -1.66692 0
M  V30 4026 C 370.581 -3.58961 0.343415 0
M  V30 4027 O 369.685 -4.07025 -0.663628 0
M  V30 4028 H 369.026 -0.649081 0.139962 0
M  V30 4029 H 371.556 -1.77313 1.02084 0
M  V30 4030 H 371.566 -4.07542 0.193233 0
M  V30 4031 H 370.241 -3.93811 1.33738 0
M  V30 4032 H 368.818 -3.6982 -0.478307 0
M  V30 4033 N 371.003 -0.499398 -1.49478 0
M  V30 4034 C 371.951 0.293604 -2.3074 0
M  V30 4035 C 372.945 0.96427 -1.39277 0
M  V30 4036 O 374.151 0.892141 -1.56336 0
M  V30 4037 H 370.526 0.113541 -0.743379 0
M  V30 4038 H 372.497 -0.411772 -2.95545 0
M  V30 4039 C 371.246 1.3462 -3.20582 0
M  V30 4040 H 370.569 0.83954 -3.90886 0
M  V30 4041 H 372.009 1.87308 -3.80384 0
M  V30 4042 C 370.468 2.36351 -2.40083 0
M  V30 4043 O 370.998 3.422 -2.10385 0
M  V30 4044 N 369.204 2.0878 -2.02137 0
M  V30 4045 H 368.751 1.22723 -2.26488 0
M  V30 4046 H 368.709 2.77075 -1.48583 0
M  V30 4047 N 372.481 1.55866 -0.233164 0
M  V30 4048 C 373.428 2.20796 0.67215 0
M  V30 4049 C 374.398 1.16731 1.18166 0
M  V30 4050 O 375.583 1.45129 1.23864 0
M  V30 4051 C 372.723 2.90072 1.86955 0
M  V30 4052 C 371.836 4.08759 1.39786 0
M  V30 4053 C 370.971 4.65787 2.55374 0
M  V30 4054 C 370.01 5.76752 2.04998 0
M  V30 4055 N 369.147 6.28021 3.13901 0
M  V30 4056 H 373.987 2.9779 0.111749 0
M  V30 4057 H 371.524 1.47036 0.0434007 0
M  V30 4058 H 373.482 3.28428 2.57276 0
M  V30 4059 H 372.112 2.15575 2.40265 0
M  V30 4060 H 371.164 3.7581 0.589173 0
M  V30 4061 H 372.476 4.88906 0.98856 0
M  V30 4062 H 371.63 5.06646 3.33758 0
M  V30 4063 H 370.369 3.84828 2.99598 0
M  V30 4064 H 369.374 5.35383 1.25079 0
M  V30 4065 H 370.599 6.59553 1.61759 0
M  V30 4066 H 368.545 5.49971 3.57586 0
M  V30 4067 H 368.462 7.03323 2.7726 0
M  V30 4068 H 369.73 6.73538 3.92386 0
M  V30 4069 N 373.959 -0.0401083 1.57549 0
M  V30 4070 C 375.187 -0.745196 1.93014 0
M  V30 4071 C 375.602 -1.6948 0.831984 0
M  V30 4072 O 374.959 -1.81482 -0.192463 0
M  V30 4073 C 375.01 -1.51176 3.28372 0
M  V30 4074 O 374.731 -0.600284 4.33968 0
M  V30 4075 C 376.232 -2.315 3.78051 0
M  V30 4076 H 373.452 -0.210088 0.637263 0
M  V30 4077 H 375.996 -0.000924689 2.045 0
M  V30 4078 H 374.151 -2.20801 3.18317 0
M  V30 4079 H 374.565 -1.13669 5.12035 0
M  V30 4080 H 376.039 -2.80697 4.75303 0
M  V30 4081 H 376.516 -3.12436 3.08675 0
M  V30 4082 H 377.122 -1.66971 3.91153 0
M  V30 4083 N 375.437 -1.54477 -0.31217 0
M  V30 4084 C 376.347 -1.87695 -1.4074 0
M  V30 4085 C 377.363 -0.769975 -1.56036 0
M  V30 4086 O 378.539 -1.06537 -1.70915 0
M  V30 4087 C 375.604 -2.10755 -2.75287 0
M  V30 4088 C 374.665 -3.34514 -2.69071 0
M  V30 4089 C 373.898 -3.56465 -3.97201 0
M  V30 4090 O 374.121 -2.81637 -4.96021 0
M  V30 4091 O 373.055 -4.49964 -3.9977 0
M  V30 4092 H 376.881 -2.80849 -1.15574 0
M  V30 4093 H 374.466 -1.40526 -0.507228 0
M  V30 4094 H 376.348 -2.27188 -3.54913 0
M  V30 4095 H 375.023 -1.20788 -3.0032 0
M  V30 4096 H 373.93 -3.23456 -1.87955 0
M  V30 4097 H 375.263 -4.24575 -2.48992 0
M  V30 4098 N 376.915 0.57481 -1.46744 0
M  V30 4099 C 378.164 1.32898 -1.51727 0
M  V30 4100 C 378.477 1.948 -0.176692 0
M  V30 4101 O 379.683 2.71299 -0.104385 0
M  V30 4102 C 378.139 2.40901 -2.67385 0
M  V30 4103 C 377.747 1.85266 -4.07898 0
M  V30 4104 C 379.491 3.17609 -2.81646 0
M  V30 4105 C 377.398 2.90945 -5.14883 0
M  V30 4106 H 376.328 0.499631 -0.564699 0
M  V30 4107 H 378.979 0.612536 -1.72975 0
M  V30 4108 H 377.361 3.15379 -2.39483 0
M  V30 4109 H 378.535 1.17278 -4.45626 0
M  V30 4110 H 376.85 1.21199 -3.98371 0
M  V30 4111 H 379.447 3.96493 -3.58744 0
M  V30 4112 H 379.79 3.70696 -1.89448 0
M  V30 4113 H 380.323 2.50239 -3.09233 0
M  V30 4114 H 377.062 2.42736 -6.089 0
M  V30 4115 H 376.582 3.57398 -4.81691 0
M  V30 4116 H 378.261 3.54755 -5.41071 0
M  V30 4117 N 378.394 1.34581 0.820102 0
M  V30 4118 C 379.643 1.26437 1.57151 0
M  V30 4119 C 379.956 -0.163111 1.94919 0
M  V30 4120 O 381.162 -0.366722 2.69012 0
M  V30 4121 C 379.618 2.21658 2.83541 0
M  V30 4122 C 379.226 3.69679 2.53065 0
M  V30 4123 C 380.97 2.22428 3.61561 0
M  V30 4124 C 378.877 4.56761 3.75664 0
M  V30 4125 H 377.807 0.469707 0.589823 0
M  V30 4126 H 380.458 1.59763 0.902656 0
M  V30 4127 H 378.84 1.81287 3.52067 0
M  V30 4128 H 380.014 4.18605 1.92631 0
M  V30 4129 H 378.329 3.71384 1.88316 0
M  V30 4130 H 380.926 2.8471 4.52597 0
M  V30 4131 H 381.269 1.22434 3.97889 0
M  V30 4132 H 381.802 2.61259 2.99981 0
M  V30 4133 H 378.541 5.57702 3.44454 0
M  V30 4134 H 378.061 4.12568 4.35371 0
M  V30 4135 H 379.74 4.71509 4.43044 0
M  V30 4136 N 379.872 -1.04064 1.18357 0
M  V30 4137 C 381.1 -1.80916 1.00384 0
M  V30 4138 C 381.515 -1.83414 -0.447738 0
M  V30 4139 O 380.872 -1.26962 -1.31099 0
M  V30 4140 C 380.923 -3.26516 1.55144 0
M  V30 4141 O 380.644 -3.2424 2.94618 0
M  V30 4142 C 382.145 -4.20013 1.41789 0
M  V30 4143 H 379.365 -0.569728 0.354474 0
M  V30 4144 H 381.909 -1.31151 1.56906 0
M  V30 4145 H 380.064 -3.73512 1.02798 0
M  V30 4146 H 380.478 -4.15452 3.20156 0
M  V30 4147 H 381.952 -5.20111 1.84901 0
M  V30 4148 H 382.429 -4.37667 0.36661 0
M  V30 4149 H 383.035 -3.78881 1.93207 0
M  V30 4150 N 381.35 -0.985608 -1.22978 0
M  V30 4151 C 382.578 -0.675582 -1.95559 0
M  V30 4152 C 382.993 0.758413 -1.72897 0
M  V30 4153 O 382.35 1.51094 -1.02357 0
M  V30 4154 C 382.401 -0.96293 -3.48439 0
M  V30 4155 O 382.122 -2.34057 -3.70336 0
M  V30 4156 C 383.623 -0.669585 -4.38214 0
M  V30 4157 H 380.843 -0.250523 -0.622478 0
M  V30 4158 H 383.387 -1.3184 -1.56328 0
M  V30 4159 H 381.542 -0.366033 -3.85667 0
M  V30 4160 H 381.956 -2.43424 -4.64591 0
M  V30 4161 H 383.43 -0.920967 -5.44263 0
M  V30 4162 H 383.907 0.396383 -4.37408 0
M  V30 4163 H 384.513 -1.2472 -4.06602 0
M  V30 4164 N 382.828 1.3818 -0.7579 0
M  V30 4165 C 384.239 1.82726 -0.383134 0
M  V30 4166 C 384.59 1.63214 1.08884 0
M  V30 4167 O 383.715 1.13566 1.84205 0
M  V30 4168 C 384.31 3.31728 -0.688631 0
M  V30 4169 C 382.869 3.74606 -0.367091 0
M  V30 4170 C 382.016 2.60896 -0.939599 0
M  V30 4171 H 384.967 1.26847 -0.953699 0
M  V30 4172 H 384.988 3.80487 0.0316492 0
M  V30 4173 H 384.5 3.45898 -1.76001 0
M  V30 4174 H 382.601 3.66013 0.697532 0
M  V30 4175 H 382.714 4.71215 -0.865658 0
M  V30 4176 H 381.078 2.52075 -0.3647 0
M  V30 4177 H 381.861 2.77864 -2.0161 0
M  V30 4178 N 384.306 0.507319 1.49211 0
M  V30 4179 C 385.552 -0.0350047 2.0277 0
M  V30 4180 C 385.885 -1.3606 1.38569 0
M  V30 4181 O 385.16 -1.87321 0.523542 0
M  V30 4182 C 385.443 -0.180916 3.59645 0
M  V30 4183 C 385.296 1.16825 4.34364 0
M  V30 4184 C 386.615 -0.918558 4.30407 0
M  V30 4185 H 383.734 -0.0112473 0.736914 0
M  V30 4186 H 386.376 0.659956 1.7817 0
M  V30 4187 H 384.526 -0.772826 3.80736 0
M  V30 4188 H 386.198 1.79952 4.24753 0
M  V30 4189 H 384.441 1.75594 3.96673 0
M  V30 4190 H 385.112 1.01939 5.42506 0
M  V30 4191 H 387.588 -0.41649 4.1401 0
M  V30 4192 H 386.464 -0.989505 5.39907 0
M  V30 4193 H 386.725 -1.96373 3.96093 0
M  V30 4194 N 385.784 -1.5574 0.241426 0
M  V30 4195 C 387.032 -1.98417 -0.384075 0
M  V30 4196 C 387.353 -1.13078 -1.58866 0
M  V30 4197 O 386.623 -0.212312 -1.94746 0
M  V30 4198 H 385.203 -0.732813 -0.144894 0
M  V30 4199 H 387.865 -1.9193 0.338943 0
M  V30 4200 H 386.961 -3.04219 -0.696939 0
M  V30 4201 N 387.262 0.0317525 -1.57568 0
M  V30 4202 C 388.539 0.758366 -1.803 0
M  V30 4203 C 388.919 1.93718 -0.838845 0
M  V30 4204 O 388.267 2.28187 0.119571 0
M  V30 4205 C 388.477 1.19392 -3.27943 0
M  V30 4206 C 389.825 1.61094 -3.92854 0
M  V30 4207 O 390.849 1.28857 -3.32076 0
M  V30 4208 O 389.708 2.20918 -4.99858 0
M  V30 4209 H 386.802 0.366514 -0.741348 0
M  V30 4210 H 389.348 0.00873765 -1.69698 0
M  V30 4211 H 388.12 0.352275 -3.89711 0
M  V30 4212 H 387.743 2.00365 -3.43424 0
M  V30 4213 N 388.74 1.54641 0.303973 0
M  V30 4214 C 389.987 1.7378 1.03955 0
M  V30 4215 C 390.315 0.521986 1.87365 0
M  V30 4216 O 389.57 -0.496099 1.89308 0
M  V30 4217 C 389.869 2.97753 1.97681 0
M  V30 4218 C 389.535 4.31671 1.30271 0
M  V30 4219 C 388.197 4.68075 1.11619 0
M  V30 4220 C 390.549 5.147 0.82055 0
M  V30 4221 C 387.877 5.8509 0.434304 0
M  V30 4222 C 390.229 6.32416 0.152395 0
M  V30 4223 C 388.893 6.67484 -0.0461067 0
M  V30 4224 H 388.163 0.635908 0.380398 0
M  V30 4225 H 390.81 1.88896 0.314718 0
M  V30 4226 H 389.115 2.77406 2.76682 0
M  V30 4227 H 390.812 3.09756 2.54661 0
M  V30 4228 H 387.402 4.03041 1.45795 0
M  V30 4229 H 391.586 4.87077 0.952374 0
M  V30 4230 H 386.842 6.10806 0.269495 0
M  V30 4231 H 391.016 6.96023 -0.229126 0
M  V30 4232 H 388.643 7.58011 -0.576494 0
M  V30 4233 N 390.218 -0.567019 1.47046 0
M  V30 4234 C 391.151 -1.69016 1.53326 0
M  V30 4235 C 392.129 -1.57949 0.386126 0
M  V30 4236 O 393.313 -1.78945 0.592529 0
M  V30 4237 C 390.44 -3.07191 1.42658 0
M  V30 4238 C 389.486 -3.36733 2.6175 0
M  V30 4239 S 390.319 -3.27069 4.24012 0
M  V30 4240 C 391.475 -4.67755 4.1588 0
M  V30 4241 H 391.708 -1.63434 2.48348 0
M  V30 4242 H 389.241 -0.747048 1.35124 0
M  V30 4243 H 391.199 -3.86897 1.37191 0
M  V30 4244 H 389.86 -3.10249 0.490369 0
M  V30 4245 H 389.053 -4.37441 2.50323 0
M  V30 4246 H 388.655 -2.64627 2.64289 0
M  V30 4247 H 390.947 -5.58491 3.83529 0
M  V30 4248 H 391.89 -4.84239 5.16641 0
M  V30 4249 H 392.298 -4.45341 3.46889 0
M  V30 4250 N 391.696 -1.35014 -0.812953 0
M  V30 4251 C 392.942 -1.2812 -1.57204 0
M  V30 4252 C 393.275 0.145869 -1.93651 0
M  V30 4253 O 392.55 1.0937 -1.60836 0
M  V30 4254 C 392.833 -2.18162 -2.86492 0
M  V30 4255 C 392.686 -3.69454 -2.56561 0
M  V30 4256 C 394.005 -2.07439 -3.88145 0
M  V30 4257 H 391.124 -0.466746 -0.570366 0
M  V30 4258 H 393.766 -1.65357 -0.935783 0
M  V30 4259 H 391.916 -1.86535 -3.40789 0
M  V30 4260 H 393.588 -4.11493 -2.08497 0
M  V30 4261 H 391.831 -3.9005 -1.89851 0
M  V30 4262 H 392.502 -4.27835 -3.48799 0
M  V30 4263 H 394.978 -2.35228 -3.4323 0
M  V30 4264 H 393.854 -2.7265 -4.76396 0
M  V30 4265 H 394.115 -1.05439 -4.29343 0
M  V30 4266 N 393.175 1.03435 -1.18907 0
M  V30 4267 C 394.108 2.11162 -0.86521 0
M  V30 4268 C 395.086 1.6165 0.175473 0
M  V30 4269 O 396.27 1.88425 0.0530129 0
M  V30 4270 C 393.397 3.37423 -0.293868 0
M  V30 4271 C 392.443 4.05795 -1.31274 0
M  V30 4272 S 393.276 4.52027 -2.8711 0
M  V30 4273 C 394.432 5.81513 -2.31504 0
M  V30 4274 H 394.665 2.38308 -1.77754 0
M  V30 4275 H 392.198 1.16295 -1.01562 0
M  V30 4276 H 394.156 4.1049 0.0292572 0
M  V30 4277 H 392.817 3.0838 0.596682 0
M  V30 4278 H 392.01 4.96574 -0.86198 0
M  V30 4279 H 391.612 3.38874 -1.58242 0
M  V30 4280 H 393.904 6.55784 -1.70157 0
M  V30 4281 H 394.847 6.3136 -3.20608 0
M  V30 4282 H 395.255 5.36921 -1.74286 0
M  V30 4283 N 394.653 0.992116 1.22453 0
M  V30 4284 C 395.881 0.685944 1.95198 0
M  V30 4285 C 396.296 -0.749233 1.73297 0
M  V30 4286 O 395.653 -1.50549 1.03156 0
M  V30 4287 C 395.704 0.981395 3.47924 0
M  V30 4288 O 395.425 2.36018 3.6909 0
M  V30 4289 C 396.926 0.692815 4.37853 0
M  V30 4290 H 394.146 0.253821 0.621141 0
M  V30 4291 H 396.69 1.32668 1.55626 0
M  V30 4292 H 394.845 0.386481 3.85467 0
M  V30 4293 H 395.259 2.45884 4.63294 0
M  V30 4294 H 396.733 0.949818 5.43767 0
M  V30 4295 H 397.21 -0.373181 4.37612 0
M  V30 4296 H 397.816 1.26874 4.05935 0
M  V30 4297 N 396.131 -1.37776 0.765217 0
M  V30 4298 C 397.38 -1.99092 0.323307 0
M  V30 4299 C 397.693 -1.61434 -1.10446 0
M  V30 4300 O 398.899 -2.15805 -1.64743 0
M  V30 4301 C 397.355 -3.56019 0.527098 0
M  V30 4302 C 396.963 -4.0262 1.96471 0
M  V30 4303 C 398.707 -4.2424 0.148483 0
M  V30 4304 C 396.614 -5.52233 2.11644 0
M  V30 4305 H 395.544 -0.744846 0.117137 0
M  V30 4306 H 398.195 -1.57391 0.943417 0
M  V30 4307 H 396.577 -3.95667 -0.162372 0
M  V30 4308 H 397.751 -3.74234 2.68859 0
M  V30 4309 H 396.066 -3.47161 2.29931 0
M  V30 4310 H 398.663 -5.34159 0.240456 0
M  V30 4311 H 399.006 -4.06446 -0.900422 0
M  V30 4312 H 399.539 -3.89872 0.79025 0
M  V30 4313 H 396.278 -5.74945 3.1483 0
M  V30 4314 H 395.798 -5.82324 1.4373 0
M  V30 4315 H 397.477 -6.18106 1.91193 0
M  V30 4316 N 397.609 -0.515225 -1.4894 0
M  V30 4317 C 398.856 0.024215 -2.02486 0
M  V30 4318 C 399.184 1.35671 -1.39368 0
M  V30 4319 O 398.439 1.88566 -0.523574 0
M  V30 4320 C 398.738 0.210595 -3.56779 0
M  V30 4321 C 398.404 -1.04569 -4.38607 0
M  V30 4322 C 397.066 -1.39002 -4.60686 0
M  V30 4323 C 399.418 -1.88008 -4.86109 0
M  V30 4324 C 396.746 -2.568 -5.27514 0
M  V30 4325 C 399.098 -3.04972 -5.54234 0
M  V30 4326 C 397.762 -3.39768 -5.74555 0
M  V30 4327 H 397.032 0.00886088 -0.740947 0
M  V30 4328 H 399.679 -0.678263 -1.79086 0
M  V30 4329 H 397.984 0.99572 -3.78936 0
M  V30 4330 H 399.681 0.642659 -3.95817 0
M  V30 4331 H 396.271 -0.767497 -4.21672 0
M  V30 4332 H 400.455 -1.62719 -4.68867 0
M  V30 4333 H 395.711 -2.8398 -5.41447 0
M  V30 4334 H 399.885 -3.69943 -5.90013 0
M  V30 4335 H 397.512 -4.31148 -6.26112 0
M  V30 4336 N 399.087 1.5561 -0.249682 0
M  V30 4337 C 400.334 1.99011 0.374287 0
M  V30 4338 C 400.662 1.13785 1.57744 0
M  V30 4339 O 399.917 0.189326 1.94782 0
M  V30 4340 C 400.216 3.4775 0.824887 0
M  V30 4341 C 399.882 4.50086 -0.270819 0
M  V30 4342 C 398.544 4.77791 -0.571746 0
M  V30 4343 C 400.896 5.11312 -1.01041 0
M  V30 4344 C 398.224 5.63997 -1.61629 0
M  V30 4345 C 400.576 5.98651 -2.0445 0
M  V30 4346 C 399.24 6.24688 -2.35204 0
M  V30 4347 H 398.51 0.728233 0.136961 0
M  V30 4348 H 401.157 1.88122 -0.358087 0
M  V30 4349 H 399.462 3.55985 1.63651 0
M  V30 4350 H 401.159 3.78721 1.31799 0
M  V30 4351 H 397.749 4.28592 -0.026136 0
M  V30 4352 H 401.933 4.89953 -0.791177 0
M  V30 4353 H 397.189 5.82425 -1.85988 0
M  V30 4354 H 401.363 6.45135 -2.62248 0
M  V30 4355 H 398.99 6.91281 -3.16282 0
M  V30 4356 N 400.565 -0.0233959 1.57583 0
M  V30 4357 C 401.513 -1.04063 2.08023 0
M  V30 4358 C 402.507 -1.37084 0.995204 0
M  V30 4359 O 403.713 -1.35923 1.18004 0
M  V30 4360 H 400.088 -0.353144 0.663922 0
M  V30 4361 H 402.059 -0.589453 2.9252 0
M  V30 4362 C 400.808 -2.33123 2.57971 0
M  V30 4363 H 400.131 -2.08577 3.4108 0
M  V30 4364 H 401.571 -3.02632 2.96967 0
M  V30 4365 C 400.03 -3.02483 1.48342 0
M  V30 4366 O 400.56 -3.92541 0.852898 0
M  V30 4367 N 398.766 -2.63909 1.21658 0
M  V30 4368 H 398.313 -1.90758 1.73116 0
M  V30 4369 H 398.271 -3.10633 0.485218 0
M  V30 4370 N 402.043 -1.548 -0.295768 0
M  V30 4371 C 403.289 -1.74588 -1.03184 0
M  V30 4372 C 403.622 -0.532962 -1.86744 0
M  V30 4373 O 402.897 0.469872 -1.88739 0
M  V30 4374 C 403.18 -3.03791 -1.93347 0
M  V30 4375 C 403.033 -4.35392 -1.12933 0
M  V30 4376 C 404.352 -3.28892 -2.92435 0
M  V30 4377 H 401.471 -0.635221 -0.373715 0
M  V30 4378 H 404.113 -1.87519 -0.30606 0
M  V30 4379 H 402.263 -2.92898 -2.55232 0
M  V30 4380 H 403.935 -4.58211 -0.532943 0
M  V30 4381 H 402.178 -4.31642 -0.432168 0
M  V30 4382 H 402.849 -5.22074 -1.79284 0
M  V30 4383 H 405.325 -3.39429 -2.4068 0
M  V30 4384 H 404.201 -4.20603 -3.52682 0
M  V30 4385 H 404.462 -2.47437 -3.6637 0
M  V30 4386 N 403.521 0.559213 -1.47345 0
M  V30 4387 C 404.746 1.34676 -1.57725 0
M  V30 4388 C 405.171 1.86723 -0.227164 0
M  V30 4389 O 404.529 1.6286 0.796642 0
M  V30 4390 C 404.577 2.49399 -2.60447 0
M  V30 4391 O 403.681 3.51567 -2.15578 0
M  V30 4392 H 403.022 0.400115 -0.52991 0
M  V30 4393 H 405.552 0.676009 -1.93109 0
M  V30 4394 H 405.562 2.95996 -2.80803 0
M  V30 4395 H 404.237 2.10873 -3.58477 0
M  V30 4396 H 402.814 3.11289 -2.05313 0
M  V30 4397 N 404.999 1.35443 0.805782 0
M  V30 4398 C 406.415 1.15499 1.10146 0
M  V30 4399 C 406.615 -0.0319975 2.01475 0
M  V30 4400 O 405.671 -0.70236 2.42535 0
M  V30 4401 C 406.984 2.45833 1.73166 0
M  V30 4402 C 408.532 2.52047 1.85583 0
M  V30 4403 C 409.007 3.82427 2.52019 0
M  V30 4404 N 410.498 3.83682 2.59504 0
M  V30 4405 C 411.233 4.81294 3.11679 0
M  V30 4406 N 410.729 5.89294 3.64287 0
M  V30 4407 N 412.522 4.6873 3.1024 0
M  V30 4408 H 404.673 2.11469 0.198678 0
M  V30 4409 H 406.936 0.93594 0.150731 0
M  V30 4410 H 406.642 3.32874 1.13526 0
M  V30 4411 H 406.516 2.6044 2.72857 0
M  V30 4412 H 408.903 1.65435 2.44367 0
M  V30 4413 H 408.984 2.41354 0.847455 0
M  V30 4414 H 408.628 4.69437 1.93885 0
M  V30 4415 H 408.558 3.90409 3.53395 0
M  V30 4416 H 411.049 3.05648 2.22234 0
M  V30 4417 H 411.362 6.59768 4.02401 0
M  V30 4418 H 409.707 5.92985 3.62483 0
M  V30 4419 H 412.898 3.83496 2.68419 0
M  V30 4420 H 413.071 5.44965 3.50596 0
M  V30 4421 N 406.477 -1.02803 1.19454 0
M  V30 4422 C 407.893 -1.28473 0.946937 0
M  V30 4423 C 408.093 -1.97881 -0.380202 0
M  V30 4424 O 407.149 -2.26719 -1.11151 0
M  V30 4425 C 408.462 -2.13099 2.12154 0
M  V30 4426 C 410.01 -2.26404 2.16126 0
M  V30 4427 C 410.485 -3.14402 3.33039 0
M  V30 4428 N 411.976 -3.21991 3.32981 0
M  V30 4429 C 412.711 -3.90272 4.20089 0
M  V30 4430 N 412.207 -4.60777 5.17355 0
M  V30 4431 N 414 -3.8668 4.07964 0
M  V30 4432 H 406.151 -0.561665 2.04839 0
M  V30 4433 H 408.414 -0.310438 0.89573 0
M  V30 4434 H 408.12 -1.69422 3.08203 0
M  V30 4435 H 407.994 -3.13813 2.09287 0
M  V30 4436 H 410.381 -2.69311 1.20647 0
M  V30 4437 H 410.462 -1.25237 2.23045 0
M  V30 4438 H 410.106 -2.72204 4.28798 0
M  V30 4439 H 410.036 -4.1563 3.23356 0
M  V30 4440 H 412.527 -2.71778 2.62574 0
M  V30 4441 H 412.84 -5.10513 5.80169 0
M  V30 4442 H 411.185 -4.5964 5.21302 0
M  V30 4443 H 414.376 -3.30739 3.31254 0
M  V30 4444 H 414.549 -4.39621 4.76064 0
M  V30 4445 N 407.956 -0.998596 -1.21925 0
M  V30 4446 C 409.203 -0.677663 -1.90824 0
M  V30 4447 C 409.531 0.790905 -1.77693 0
M  V30 4448 O 408.786 1.58817 -1.14349 0
M  V30 4449 C 409.085 -1.03648 -3.42041 0
M  V30 4450 C 408.751 -2.49825 -3.75364 0
M  V30 4451 C 407.413 -2.8977 -3.8417 0
M  V30 4452 C 409.765 -3.44545 -3.91073 0
M  V30 4453 C 407.093 -4.23412 -4.06127 0
M  V30 4454 C 409.445 -4.77853 -4.14535 0
M  V30 4455 C 408.109 -5.17531 -4.21566 0
M  V30 4456 H 407.379 -0.247975 -0.698276 0
M  V30 4457 H 410.026 -1.25584 -1.44571 0
M  V30 4458 H 408.331 -0.376457 -3.89987 0
M  V30 4459 H 410.028 -0.766113 -3.93614 0
M  V30 4460 H 406.618 -2.17866 -3.69097 0
M  V30 4461 H 410.802 -3.14853 -3.83642 0
M  V30 4462 H 406.058 -4.53734 -4.09799 0
M  V30 4463 H 410.232 -5.51189 -4.25633 0
M  V30 4464 H 407.859 -6.21102 -4.38333 0
M  V30 4465 N 409.434 1.37368 -0.772513 0
M  V30 4466 C 410.682 1.99279 -0.336516 0
M  V30 4467 C 411.003 1.6163 1.09091 0
M  V30 4468 O 410.273 0.882109 1.74916 0
M  V30 4469 H 408.853 0.737063 -0.121435 0
M  V30 4470 H 411.515 1.67836 -0.990809 0
M  V30 4471 H 410.611 3.09332 -0.414763 0
M  V30 4472 N 410.912 0.523116 1.48665 0
M  V30 4473 C 412.142 -0.00961724 2.06598 0
M  V30 4474 C 412.55 -1.29333 1.38093 0
M  V30 4475 O 411.893 -1.77846 0.46007 0
M  V30 4476 C 411.955 -0.311135 3.58151 0
M  V30 4477 C 411.619 0.878092 4.48485 0
M  V30 4478 C 412.616 1.77464 4.88674 0
M  V30 4479 C 410.301 1.08315 4.90483 0
M  V30 4480 C 412.295 2.86021 5.69623 0
M  V30 4481 C 409.982 2.17187 5.71203 0
M  V30 4482 C 410.98 3.05873 6.10681 0
M  V30 4483 O 410.668 4.12862 6.89783 0
M  V30 4484 H 410.4 0.0272658 0.67545 0
M  V30 4485 H 412.954 0.726156 1.92136 0
M  V30 4486 H 411.184 -1.10079 3.70701 0
M  V30 4487 H 412.873 -0.785125 3.98234 0
M  V30 4488 H 413.639 1.62813 4.56855 0
M  V30 4489 H 409.518 0.402149 4.59243 0
M  V30 4490 H 413.062 3.55272 6.00356 0
M  V30 4491 H 408.959 2.31824 6.02435 0
M  V30 4492 H 409.727 4.10487 7.08126 0
M  V30 4493 N 412.39 -1.55475 0.257931 0
M  V30 4494 C 413.636 -1.99502 -0.364266 0
M  V30 4495 C 413.969 -1.146 -1.56782 0
M  V30 4496 O 413.244 -0.211968 -1.93342 0
M  V30 4497 C 413.527 -3.51917 -0.763333 0
M  V30 4498 C 413.38 -4.4758 0.446371 0
M  V30 4499 C 414.699 -4.09742 -1.60623 0
M  V30 4500 H 411.818 -0.725277 -0.130929 0
M  V30 4501 H 414.46 -1.8653 0.361446 0
M  V30 4502 H 412.61 -3.63101 -1.38166 0
M  V30 4503 H 414.282 -4.48362 1.08487 0
M  V30 4504 H 412.525 -4.19947 1.08753 0
M  V30 4505 H 413.196 -5.51862 0.123645 0
M  V30 4506 H 415.672 -4.01727 -1.08418 0
M  V30 4507 H 414.548 -5.16631 -1.85429 0
M  V30 4508 H 414.809 -3.58889 -2.58169 0
M  V30 4509 N 413.868 0.0150385 -1.57593 0
M  V30 4510 C 414.831 0.995996 -2.06428 0
M  V30 4511 C 415.831 1.2818 -0.970903 0
M  V30 4512 O 417.021 1.22949 -1.23406 0
M  V30 4513 C 414.153 2.32506 -2.49307 0
M  V30 4514 H 415.346 0.573873 -2.94358 0
M  V30 4515 H 412.899 0.262186 -1.54085 0
M  V30 4516 H 413.634 2.79438 -1.64575 0
M  V30 4517 H 413.419 2.13087 -3.29145 0
M  V30 4518 H 414.909 3.02906 -2.87468 0
M  V30 4519 N 415.346 1.54954 0.287554 0
M  V30 4520 C 416.593 1.74873 1.02106 0
M  V30 4521 C 416.921 0.541829 1.86801 0
M  V30 4522 O 416.176 -0.475992 1.89823 0
M  V30 4523 C 416.475 2.99833 1.94512 0
M  V30 4524 C 416.141 4.33029 1.25686 0
M  V30 4525 C 414.803 4.69233 1.06649 0
M  V30 4526 C 417.155 5.15542 0.765913 0
M  V30 4527 C 414.483 5.85518 0.372222 0
M  V30 4528 C 416.835 6.32542 0.0853101 0
M  V30 4529 C 415.499 6.67398 -0.1169 0
M  V30 4530 H 414.769 0.639906 0.373632 0
M  V30 4531 H 417.416 1.89219 0.294665 0
M  V30 4532 H 415.721 2.80325 2.73725 0
M  V30 4533 H 417.418 3.1244 2.51361 0
M  V30 4534 H 414.008 4.04564 1.41512 0
M  V30 4535 H 418.192 4.88059 0.90066 0
M  V30 4536 H 413.448 6.11057 0.204695 0
M  V30 4537 H 417.622 6.95741 -0.302936 0
M  V30 4538 H 415.249 7.57357 -0.656859 0
M  V30 4539 N 416.824 -0.551391 1.4764 0
M  V30 4540 C 417.756 -1.67333 1.56628 0
M  V30 4541 C 418.769 -1.56398 0.452045 0
M  V30 4542 O 419.958 -1.6325 0.721926 0
M  V30 4543 C 417.058 -3.05841 1.45994 0
M  V30 4544 C 416.231 -3.42472 2.72088 0
M  V30 4545 C 415.29 -4.60168 2.55209 0
M  V30 4546 O 414.316 -4.64458 3.2904 0
M  V30 4547 N 415.518 -5.57024 1.63416 0
M  V30 4548 H 418.283 -1.60066 2.53375 0
M  V30 4549 H 415.844 -0.738169 1.44093 0
M  V30 4550 H 417.836 -3.8242 1.32428 0
M  V30 4551 H 416.406 -3.07302 0.573071 0
M  V30 4552 H 415.626 -2.55284 3.00373 0
M  V30 4553 H 416.914 -3.63723 3.55785 0
M  V30 4554 H 416.312 -5.56319 1.02594 0
M  V30 4555 H 414.869 -6.32906 1.558 0
M  V30 4556 N 418.302 -1.35869 -0.798587 0
M  V30 4557 C 419.25 -1.29491 -1.93222 0
M  V30 4558 C 420.244 -0.18836 -1.6835 0
M  V30 4559 O 421.45 -0.354822 -1.76468 0
M  V30 4560 H 417.825 -0.402901 -0.63496 0
M  V30 4561 H 419.796 -2.25247 -1.9572 0
M  V30 4562 C 418.545 -1.09184 -3.30112 0
M  V30 4563 H 417.868 -1.93574 -3.49813 0
M  V30 4564 H 419.308 -1.08766 -4.09812 0
M  V30 4565 C 417.767 0.203959 -3.36282 0
M  V30 4566 O 418.297 1.19699 -3.83451 0
M  V30 4567 N 416.503 0.245488 -2.89561 0
M  V30 4568 H 416.05 -0.563223 -2.51367 0
M  V30 4569 H 416.008 1.11219 -2.94071 0
M  V30 4570 N 419.78 1.02168 -1.19998 0
M  V30 4571 C 421.01 1.79036 -1.031 0
M  V30 4572 C 421.418 1.84409 0.423078 0
M  V30 4573 O 420.761 1.29228 1.30559 0
M  V30 4574 C 420.823 3.25185 -1.53281 0
M  V30 4575 C 420.487 3.43431 -3.01503 0
M  V30 4576 C 421.484 3.33063 -3.99206 0
M  V30 4577 C 419.169 3.69412 -3.40353 0
M  V30 4578 C 421.163 3.48413 -5.33748 0
M  V30 4579 C 418.85 3.84406 -4.75053 0
M  V30 4580 C 419.848 3.7391 -5.71559 0
M  V30 4581 O 419.536 3.88452 -7.03818 0
M  V30 4582 H 419.268 0.570043 -0.363355 0
M  V30 4583 H 421.822 1.29524 -1.59414 0
M  V30 4584 H 420.052 3.75756 -0.913483 0
M  V30 4585 H 421.741 3.83671 -1.32481 0
M  V30 4586 H 422.507 3.12934 -3.70537 0
M  V30 4587 H 418.386 3.76671 -2.65782 0
M  V30 4588 H 421.93 3.40137 -6.09059 0
M  V30 4589 H 417.827 4.04035 -5.03415 0
M  V30 4590 H 418.595 4.055 -7.10993 0
M  V30 4591 N 421.258 1.00505 1.21394 0
M  V30 4592 C 422.504 0.688793 1.90745 0
M  V30 4593 C 422.837 -0.778486 1.77914 0
M  V30 4594 O 422.112 -1.56433 1.15581 0
M  V30 4595 C 422.395 1.11063 3.42545 0
M  V30 4596 C 422.248 2.63737 3.64367 0
M  V30 4597 C 423.567 0.673059 4.34923 0
M  V30 4598 H 420.686 0.251702 0.692687 0
M  V30 4599 H 423.328 1.25074 1.43026 0
M  V30 4600 H 421.478 0.632508 3.83317 0
M  V30 4601 H 423.15 3.19313 3.32922 0
M  V30 4602 H 421.393 3.05248 3.08231 0
M  V30 4603 H 422.064 2.88305 4.70727 0
M  V30 4604 H 424.54 1.08392 4.01734 0
M  V30 4605 H 423.416 0.996383 5.39781 0
M  V30 4606 H 423.677 -0.425808 4.40045 0
M  V30 4607 N 422.737 -1.36956 0.779787 0
M  V30 4608 C 424.148 -1.82094 0.412156 0
M  V30 4609 C 424.499 -1.64926 -1.06273 0
M  V30 4610 O 423.624 -1.16483 -1.82375 0
M  V30 4611 C 424.219 -3.3059 0.741319 0
M  V30 4612 C 422.778 -3.73974 0.426641 0
M  V30 4613 C 421.925 -2.59368 0.980987 0
M  V30 4614 H 424.876 -1.25314 0.973758 0
M  V30 4615 H 424.897 -3.80489 0.028887 0
M  V30 4616 H 424.409 -3.43054 1.81482 0
M  V30 4617 H 422.51 -3.67076 -0.639215 0
M  V30 4618 H 422.623 -4.69778 0.940515 0
M  V30 4619 H 420.987 -2.51463 0.404757 0
M  V30 4620 H 421.77 -2.74621 2.06005 0
M  V30 4621 N 424.215 -0.530993 -1.48385 0
M  V30 4622 C 425.44 0.000729535 -2.074 0
M  V30 4623 C 425.865 1.27298 -1.3848 0
M  V30 4624 O 425.223 1.75599 -0.451081 0
M  V30 4625 C 425.271 0.206697 -3.60007 0
M  V30 4626 O 424.375 1.27514 -3.92191 0
M  V30 4627 H 423.716 -0.039583 -0.662819 0
M  V30 4628 H 426.246 -0.739194 -1.9078 0
M  V30 4629 H 426.256 0.42904 -4.05738 0
M  V30 4630 H 424.931 -0.722675 -4.09573 0
M  V30 4631 H 423.508 1.03537 -3.58238 0
M  V30 4632 N 425.693 1.55336 -0.266172 0
M  V30 4633 C 426.918 2.04258 0.359661 0
M  V30 4634 C 427.343 1.14359 1.49344 0
M  V30 4635 O 426.701 0.140369 1.80756 0
M  V30 4636 C 426.749 3.50997 0.826635 0
M  V30 4637 O 425.853 3.64204 1.93466 0
M  V30 4638 H 425.194 0.659668 0.075727 0
M  V30 4639 H 427.724 2.00694 -0.39786 0
M  V30 4640 H 427.734 3.9219 1.12477 0
M  V30 4641 H 426.409 4.159 -0.00293032 0
M  V30 4642 H 424.986 3.34913 1.63974 0
M  V30 4643 N 427.171 -0.0066808 1.57599 0
M  V30 4644 C 428.417 -0.693947 1.90558 0
M  V30 4645 C 428.75 -1.73792 0.866594 0
M  V30 4646 O 428.025 -1.94156 -0.115548 0
M  V30 4647 C 428.308 -1.34317 3.34112 0
M  V30 4648 C 428.161 -0.311189 4.48722 0
M  V30 4649 C 429.48 -2.27116 3.7697 0
M  V30 4650 H 426.599 -0.250803 0.693013 0
M  V30 4651 H 429.241 0.043242 1.89951 0
M  V30 4652 H 427.391 -1.9715 3.3476 0
M  V30 4653 H 429.063 0.316944 4.6021 0
M  V30 4654 H 427.306 0.367253 4.32243 0
M  V30 4655 H 427.977 -0.804366 5.46108 0
M  V30 4656 H 430.453 -1.74306 3.77831 0
M  V30 4657 H 429.329 -2.69511 4.78179 0
M  V30 4658 H 429.59 -3.14743 3.10466 0
M  V30 4659 N 428.649 -1.55105 -0.279332 0
M  V30 4660 C 429.877 -1.7943 -1.03017 0
M  V30 4661 C 430.292 -0.564456 -1.80165 0
M  V30 4662 O 429.649 0.466326 -1.76442 0
M  V30 4663 C 429.7 -3.0155 -1.99374 0
M  V30 4664 O 429.421 -4.19784 -1.25352 0
M  V30 4665 C 430.922 -3.3843 -2.86321 0
M  V30 4666 H 428.142 -0.597882 -0.304594 0
M  V30 4667 H 430.686 -2.02105 -0.312035 0
M  V30 4668 H 428.841 -2.81019 -2.66659 0
M  V30 4669 H 429.255 -4.88781 -1.90246 0
M  V30 4670 H 430.729 -4.27066 -3.49741 0
M  V30 4671 H 431.206 -2.57549 -3.5576 0
M  V30 4672 H 431.812 -3.61197 -2.24536 0
M  V30 4673 N 430.127 0.543554 -1.4793 0
M  V30 4674 C 431.355 1.32516 -1.58894 0
M  V30 4675 C 431.77 1.87215 -0.244131 0
M  V30 4676 O 431.127 1.65709 0.764652 0
M  V30 4677 C 431.178 2.48554 -2.62494 0
M  V30 4678 O 430.899 1.96112 -3.91755 0
M  V30 4679 C 432.4 3.40572 -2.8377 0
M  V30 4680 H 429.62 0.403472 -0.536145 0
M  V30 4681 H 432.164 0.657106 -1.93655 0
M  V30 4682 H 430.319 3.1127 -2.30629 0
M  V30 4683 H 430.733 2.71967 -4.4848 0
M  V30 4684 H 432.207 4.18375 -3.60093 0
M  V30 4685 H 432.684 3.94965 -1.92092 0
M  V30 4686 H 433.29 2.8366 -3.16887 0
M  V30 4687 N 431.605 1.3629 0.791371 0
M  V30 4688 C 432.538 1.24816 1.9104 0
M  V30 4689 C 433.516 0.132739 1.62057 0
M  V30 4690 O 434.7 0.303527 1.8604 0
M  V30 4691 C 431.827 0.925355 3.25814 0
M  V30 4692 C 430.873 2.05495 3.7373 0
M  V30 4693 S 431.706 3.67255 3.89723 0
M  V30 4694 C 432.862 3.37084 5.27376 0
M  V30 4695 H 433.095 2.19533 2.00481 0
M  V30 4696 H 430.628 1.21684 0.950393 0
M  V30 4697 H 432.586 0.745924 4.03666 0
M  V30 4698 H 431.247 -0.00400098 3.141 0
M  V30 4699 H 430.44 1.7836 4.71385 0
M  V30 4700 H 430.042 2.1935 3.02922 0
M  V30 4701 H 432.334 2.90856 6.1189 0
M  V30 4702 H 433.277 4.33995 5.59512 0
M  V30 4703 H 433.685 2.7248 4.94383 0
M  V30 4704 N 433.083 -1.0153 1.20538 0
M  V30 4705 C 434.013 -2.11972 0.979295 0
M  V30 4706 C 434.994 -1.6985 -0.0921787 0
M  V30 4707 O 436.179 -1.94089 0.0655932 0
M  V30 4708 C 433.309 -3.43201 0.531984 0
M  V30 4709 C 432.263 -3.9907 1.54685 0
M  V30 4710 C 431.589 -5.26082 0.956127 0
M  V30 4711 C 432.889 -4.32313 2.93092 0
M  V30 4712 H 434.583 -2.31143 1.90298 0
M  V30 4713 H 432.129 -1.11079 0.916372 0
M  V30 4714 H 434.082 -4.1985 0.361044 0
M  V30 4715 H 432.806 -3.23792 -0.427327 0
M  V30 4716 H 431.465 -3.2453 1.70517 0
M  V30 4717 H 431.113 -5.02999 -0.0111538 0
M  V30 4718 H 430.813 -5.64426 1.63393 0
M  V30 4719 H 432.337 -6.05386 0.796284 0
M  V30 4720 H 433.751 -4.99845 2.80763 0
M  V30 4721 H 432.148 -4.81774 3.57791 0
M  V30 4722 H 433.218 -3.41025 3.44717 0
M  V30 4723 N 434.561 -1.01147 -1.20859 0
M  V30 4724 C 435.786 -0.716698 -1.94623 0
M  V30 4725 C 436.211 0.715415 -1.73964 0
M  V30 4726 O 435.569 1.49157 -1.03062 0
M  V30 4727 C 435.617 -1.0513 -3.44935 0
M  V30 4728 O 434.721 -0.160131 -4.12089 0
M  V30 4729 H 434.062 -0.266404 -0.608214 0
M  V30 4730 H 436.592 -1.35346 -1.53436 0
M  V30 4731 H 436.602 -1.00086 -3.95533 0
M  V30 4732 H 435.277 -2.09475 -3.59295 0
M  V30 4733 H 433.854 -0.267657 -3.71938 0
M  V30 4734 N 436.039 1.36541 -0.78704 0
M  V30 4735 C 437.285 2.00044 -0.367938 0
M  V30 4736 C 437.64 1.61345 1.04812 0
M  V30 4737 O 436.933 0.856936 1.71368 0
M  V30 4738 C 437.127 3.54343 -0.466485 0
M  V30 4739 C 436.956 4.08029 -1.89058 0
M  V30 4740 C 435.726 4.38284 -2.51466 0
M  V30 4741 C 437.924 4.27954 -2.85236 0
M  V30 4742 N 435.906 4.77778 -3.85488 0
M  V30 4743 C 437.277 4.70227 -4.04088 0
M  V30 4744 C 439.332 4.10119 -2.82324 0
M  V30 4745 C 438.035 4.96532 -5.20432 0
M  V30 4746 C 440.061 4.37569 -3.97854 0
M  V30 4747 C 439.423 4.80095 -5.15449 0
M  V30 4748 H 435.522 0.760525 -0.182004 0
M  V30 4749 H 438.106 1.65589 -1.02413 0
M  V30 4750 H 436.277 3.88072 0.159606 0
M  V30 4751 H 438.009 4.04693 -0.0238577 0
M  V30 4752 H 434.764 4.27905 -2.02965 0
M  V30 4753 H 435.188 5.01813 -4.54437 0
M  V30 4754 H 439.83 3.76399 -1.92571 0
M  V30 4755 H 437.548 5.29134 -6.10773 0
M  V30 4756 H 441.134 4.25341 -3.96958 0
M  V30 4757 H 440.014 5.00925 -6.0336 0
M  V30 4758 N 437.518 0.538854 1.48102 0
M  V30 4759 C 438.764 0.00801365 2.02798 0
M  V30 4760 C 439.097 -1.3309 1.41424 0
M  V30 4761 O 438.372 -1.86169 0.563158 0
M  V30 4762 C 438.655 -0.104589 3.59948 0
M  V30 4763 C 438.508 1.26012 4.31788 0
M  V30 4764 C 439.827 -0.827055 4.32259 0
M  V30 4765 H 436.946 0.00438624 0.736987 0
M  V30 4766 H 439.588 0.6976 1.7673 0
M  V30 4767 H 437.738 -0.691893 3.82289 0
M  V30 4768 H 439.41 1.88922 4.2084 0
M  V30 4769 H 437.653 1.83968 3.92859 0
M  V30 4770 H 438.324 1.13424 5.40221 0
M  V30 4771 H 440.8 -0.328578 4.14801 0
M  V30 4772 H 439.676 -0.87476 5.41885 0
M  V30 4773 H 439.937 -1.87927 4.0017 0
M  V30 4774 N 438.996 -1.55193 0.274407 0
M  V30 4775 C 440.221 -2.04446 -0.348824 0
M  V30 4776 C 440.646 -1.15149 -1.48735 0
M  V30 4777 O 440.004 -0.149952 -1.80679 0
M  V30 4778 C 440.052 -3.51431 -0.808009 0
M  V30 4779 O 439.156 -3.65225 -1.91531 0
M  V30 4780 H 438.497 -0.66006 -0.0722276 0
M  V30 4781 H 441.027 -2.00481 0.408498 0
M  V30 4782 H 441.037 -3.92781 -1.10395 0
M  V30 4783 H 439.712 -4.15892 0.0249865 0
M  V30 4784 H 438.289 -3.35778 -1.62196 0
M  V30 4785 N 440.474 -0.00167713 -1.576 0
M  V30 4786 C 441.721 0.68282 -1.90641 0
M  V30 4787 C 442.049 1.73686 -0.875415 0
M  V30 4788 O 441.304 1.95334 0.119575 0
M  V30 4789 C 441.603 1.36189 -3.30435 0
M  V30 4790 C 441.269 0.440887 -4.48739 0
M  V30 4791 C 439.931 0.187312 -4.80835 0
M  V30 4792 C 442.283 -0.193134 -5.20842 0
M  V30 4793 C 439.611 -0.70855 -5.82406 0
M  V30 4794 C 441.963 -1.07688 -6.23367 0
M  V30 4795 C 440.627 -1.33962 -6.53919 0
M  V30 4796 H 439.897 0.249862 -0.697603 0
M  V30 4797 H 442.544 -0.0575642 -1.91413 0
M  V30 4798 H 440.849 2.17636 -3.25794 0
M  V30 4799 H 442.546 1.89759 -3.5326 0
M  V30 4800 H 439.136 0.648694 -4.23663 0
M  V30 4801 H 443.32 -0.0102445 -4.96299 0
M  V30 4802 H 438.576 -0.920097 -6.04437 0
M  V30 4803 H 442.75 -1.57451 -6.78367 0
M  V30 4804 H 440.377 -2.03549 -7.32442 0
M  V30 4805 N 441.952 1.55251 0.271103 0
M  V30 4806 C 443.198 1.7713 0.999832 0
M  V30 4807 C 443.553 0.56659 1.83868 0
M  V30 4808 O 442.846 -0.44069 1.86463 0
M  V30 4809 C 443.04 3.01879 1.91321 0
M  V30 4810 C 442.869 4.34368 1.16426 0
M  V30 4811 C 441.639 4.97593 0.879169 0
M  V30 4812 C 443.837 5.1131 0.553749 0
M  V30 4813 N 441.819 6.13813 0.103618 0
M  V30 4814 C 443.19 6.19938 -0.0875442 0
M  V30 4815 C 445.245 4.95754 0.461782 0
M  V30 4816 C 443.948 7.14703 -0.811942 0
M  V30 4817 C 445.974 5.90875 -0.249027 0
M  V30 4818 C 445.336 6.98893 -0.879051 0
M  V30 4819 H 441.435 0.700407 0.347784 0
M  V30 4820 H 444.019 1.92744 0.275314 0
M  V30 4821 H 442.19 2.87637 2.60997 0
M  V30 4822 H 443.922 3.12154 2.57569 0
M  V30 4823 H 440.677 4.58538 1.18491 0
M  V30 4824 H 441.101 6.76455 -0.271543 0
M  V30 4825 H 445.743 4.12342 0.934552 0
M  V30 4826 H 443.461 7.97634 -1.29639 0
M  V30 4827 H 447.047 5.80916 -0.320529 0
M  V30 4828 H 445.927 7.71231 -1.42031 0
M  V30 4829 N 443.43 -0.535701 1.48216 0
M  V30 4830 C 444.679 -1.28828 1.55197 0
M  V30 4831 C 444.992 -1.94263 0.228278 0
M  V30 4832 O 446.198 -2.70927 0.176278 0
M  V30 4833 C 444.654 -2.33727 2.73678 0
M  V30 4834 C 444.262 -1.74386 4.12666 0
M  V30 4835 C 446.006 -3.1003 2.89968 0
M  V30 4836 C 443.913 -2.77192 5.22416 0
M  V30 4837 H 442.843 -0.484484 0.577747 0
M  V30 4838 H 445.494 -0.56646 1.74538 0
M  V30 4839 H 443.876 -3.08919 2.4776 0
M  V30 4840 H 445.05 -1.05421 4.48579 0
M  V30 4841 H 443.365 -1.10595 4.01445 0
M  V30 4842 H 445.962 -3.86842 3.6913 0
M  V30 4843 H 446.305 -3.65542 1.9921 0
M  V30 4844 H 446.838 -2.41952 3.15759 0
M  V30 4845 H 443.577 -2.26507 6.15122 0
M  V30 4846 H 443.097 -3.44502 4.90998 0
M  V30 4847 H 444.776 -3.40285 5.50286 0
M  V30 4848 N 444.908 -1.36708 -0.784132 0
M  V30 4849 C 445.855 -1.31466 -1.89698 0
M  V30 4850 C 446.825 -0.18239 -1.65096 0
M  V30 4851 O 448.01 -0.369762 -1.87183 0
M  V30 4852 C 445.15 -1.1151 -3.26588 0
M  V30 4853 C 444.263 -2.33859 -3.63227 0
M  V30 4854 C 443.398 -2.06873 -4.89262 0
M  V30 4855 C 442.437 -3.25154 -5.18595 0
M  V30 4856 N 441.574 -2.978 -6.35814 0
M  V30 4857 H 446.414 -2.26619 -1.93515 0
M  V30 4858 H 443.951 -1.12625 -0.946256 0
M  V30 4859 H 445.909 -0.979653 -4.05535 0
M  V30 4860 H 444.539 -0.200103 -3.22179 0
M  V30 4861 H 443.591 -2.58188 -2.79362 0
M  V30 4862 H 444.903 -3.22109 -3.8085 0
M  V30 4863 H 444.057 -1.90289 -5.76086 0
M  V30 4864 H 442.796 -1.15942 -4.73718 0
M  V30 4865 H 441.801 -3.42292 -4.30251 0
M  V30 4866 H 443.026 -4.1692 -5.36055 0
M  V30 4867 H 440.972 -2.09485 -6.21653 0
M  V30 4868 H 440.889 -3.7959 -6.53794 0
M  V30 4869 H 442.157 -2.84805 -7.25607 0
M  V30 4870 N 446.386 1.0089 -1.21074 0
M  V30 4871 C 447.614 1.78191 -1.05145 0
M  V30 4872 C 448.029 1.84537 0.398952 0
M  V30 4873 O 447.386 1.30393 1.27687 0
M  V30 4874 C 447.437 3.22288 -1.63746 0
M  V30 4875 O 447.158 3.16315 -3.03111 0
M  V30 4876 C 448.659 4.16106 -1.52875 0
M  V30 4877 H 445.879 0.560129 -0.369454 0
M  V30 4878 H 448.423 1.26945 -1.60328 0
M  V30 4879 H 446.578 3.70655 -1.12664 0
M  V30 4880 H 446.992 4.06817 -3.31059 0
M  V30 4881 H 448.466 5.15026 -1.98626 0
M  V30 4882 H 448.943 4.36541 -0.482521 0
M  V30 4883 H 449.549 3.73625 -2.03185 0
M  V30 4884 N 447.864 1.01787 1.20321 0
M  V30 4885 C 448.774 0.598898 2.26827 0
M  V30 4886 C 449.79 -0.36418 1.70146 0
M  V30 4887 O 450.966 -0.224812 2.00141 0
M  V30 4888 C 448.031 -0.0549769 3.46656 0
M  V30 4889 C 447.092 0.954205 4.18561 0
M  V30 4890 C 446.325 0.331439 5.3267 0
M  V30 4891 O 446.548 -0.86851 5.63749 0
M  V30 4892 O 445.482 1.0488 5.92692 0
M  V30 4893 H 449.308 1.48562 2.64883 0
M  V30 4894 H 446.893 0.787434 1.26964 0
M  V30 4895 H 448.775 -0.420102 4.19301 0
M  V30 4896 H 447.45 -0.915876 3.10473 0
M  V30 4897 H 446.357 1.37072 3.48083 0
M  V30 4898 H 447.69 1.78511 4.58688 0
M  V30 4899 N 449.342 -1.36122 0.79427 0
M  V30 4900 C 450.567 -2.03891 0.379871 0
M  V30 4901 C 450.992 -1.59488 -0.997251 0
M  V30 4902 O 450.35 -0.765652 -1.64339 0
M  V30 4903 C 450.398 -3.57687 0.457442 0
M  V30 4904 O 449.502 -4.08931 -0.5338 0
M  V30 4905 H 448.843 -0.6443 0.160541 0
M  V30 4906 H 451.373 -1.73976 1.07673 0
M  V30 4907 H 451.383 -4.06721 0.322792 0
M  V30 4908 H 450.058 -3.89357 1.46199 0
M  V30 4909 H 448.635 -3.71154 -0.360409 0
M  V30 4910 N 450.82 -0.546701 -1.47814 0
M  V30 4911 C 451.783 0.196287 -2.28358 0
M  V30 4912 C 452.783 0.852437 -1.36346 0
M  V30 4913 O 453.973 0.709913 -1.59078 0
M  V30 4914 C 451.105 1.28579 -3.15722 0
M  V30 4915 H 452.298 -0.511086 -2.95513 0
M  V30 4916 H 449.851 -0.303248 -1.5333 0
M  V30 4917 H 450.586 2.0259 -2.53235 0
M  V30 4918 H 450.371 0.820229 -3.83425 0
M  V30 4919 H 451.861 1.80793 -3.76435 0
M  V30 4920 N 452.299 1.55045 -0.282633 0
M  V30 4921 C 453.71 1.85473 0.213655 0
M  V30 4922 C 454.061 1.20465 1.54863 0
M  V30 4923 O 453.186 0.495676 2.10647 0
M  V30 4924 C 453.781 3.36496 0.394445 0
M  V30 4925 C 452.34 3.67022 0.834961 0
M  V30 4926 C 451.487 2.77218 -0.0674081 0
M  V30 4927 H 454.438 1.50478 -0.504202 0
M  V30 4928 H 454.459 3.60007 1.23186 0
M  V30 4929 H 453.971 3.83782 -0.577326 0
M  V30 4930 H 452.072 3.25241 1.81794 0
M  V30 4931 H 452.185 4.74433 0.667075 0
M  V30 4932 H 450.549 2.5069 0.450196 0
M  V30 4933 H 451.332 3.2732 -1.0352 0
M  V30 4934 N 453.777 0.010035 1.57597 0
M  V30 4935 C 454.74 -0.963029 2.07986 0
M  V30 4936 C 455.74 -1.26619 0.991173 0
M  V30 4937 O 456.93 -1.2097 1.25347 0
M  V30 4938 C 454.062 -2.2851 2.52974 0
M  V30 4939 H 455.255 -0.526971 2.95234 0
M  V30 4940 H 452.808 -0.237639 1.54483 0
M  V30 4941 H 453.543 -2.76784 1.69 0
M  V30 4942 H 453.328 -2.07824 3.32493 0
M  V30 4943 H 454.818 -2.98294 2.9225 0
M  V30 4944 N 455.255 -1.55392 -0.262866 0
M  V30 4945 C 456.671 -1.47459 -0.610582 0
M  V30 4946 C 456.871 -0.697031 -1.8906 0
M  V30 4947 O 455.927 -0.219952 -2.5154 0
M  V30 4948 C 457.24 -2.91751 -0.728131 0
M  V30 4949 C 458.788 -3.02027 -0.821517 0
M  V30 4950 C 459.263 -4.47594 -0.97076 0
M  V30 4951 N 460.754 -4.51465 -1.03603 0
M  V30 4952 C 461.489 -5.61326 -1.17049 0
M  V30 4953 N 460.985 -6.81032 -1.2715 0
M  V30 4954 N 462.778 -5.49089 -1.20239 0
M  V30 4955 H 454.929 -2.04395 0.577632 0
M  V30 4956 H 457.192 -0.927287 0.197086 0
M  V30 4957 H 456.898 -3.51413 0.142132 0
M  V30 4958 H 456.772 -3.4134 -1.6052 0
M  V30 4959 H 459.159 -2.42456 -1.68224 0
M  V30 4960 H 459.24 -2.55674 0.0803688 0
M  V30 4961 H 458.884 -5.07771 -0.114655 0
M  V30 4962 H 458.814 -4.91613 -1.88745 0
M  V30 4963 H 461.305 -3.6524 -0.96996 0
M  V30 4964 H 461.618 -7.60511 -1.37271 0
M  V30 4965 H 459.963 -6.83824 -1.24136 0
M  V30 4966 H 463.154 -4.54507 -1.11985 0
M  V30 4967 H 463.327 -6.34749 -1.30373 0
M  V30 4968 N 456.733 0.527833 -1.48498 0
M  V30 4969 C 457.961 1.30823 -1.6029 0
M  V30 4970 C 458.376 1.86945 -0.263974 0
M  V30 4971 O 457.733 1.6651 0.747034 0
M  V30 4972 C 457.784 2.45756 -2.65116 0
M  V30 4973 O 457.505 1.91946 -3.93813 0
M  V30 4974 C 459.006 3.37543 -2.87367 0
M  V30 4975 H 456.226 0.397763 -0.540394 0
M  V30 4976 H 458.77 0.636529 -1.94341 0
M  V30 4977 H 456.925 3.08806 -2.33917 0
M  V30 4978 H 457.339 2.67195 -4.51339 0
M  V30 4979 H 458.813 4.14532 -3.6451 0
M  V30 4980 H 459.29 3.92905 -1.9627 0
M  V30 4981 H 459.896 2.80283 -3.19878 0
M  V30 4982 N 458.211 1.37122 0.776871 0
M  V30 4983 C 459.436 1.354 1.57104 0
M  V30 4984 C 459.861 -0.0595562 1.88006 0
M  V30 4985 O 459.219 -1.03514 1.48844 0
M  V30 4986 C 459.267 2.19472 2.8612 0
M  V30 4987 O 458.371 1.59582 3.80273 0
M  V30 4988 H 457.712 0.462869 0.476076 0
M  V30 4989 H 460.242 1.80577 0.961932 0
M  V30 4990 H 460.252 2.32502 3.35271 0
M  V30 4991 H 458.927 3.22222 2.62956 0
M  V30 4992 H 457.504 1.55564 3.38902 0
M  V30 4993 N 459.689 -1.00246 1.21608 0
M  V30 4994 C 460.619 -2.10921 1.00172 0
M  V30 4995 C 461.6 -1.69938 -0.0741587 0
M  V30 4996 O 462.785 -1.94009 0.0861753 0
M  V30 4997 C 459.915 -3.42618 0.568355 0
M  V30 4998 C 458.869 -3.97407 1.58909 0
M  V30 4999 C 458.195 -5.25038 1.01187 0
M  V30 5000 C 459.495 -4.2918 2.97661 0
M  V30 5001 H 461.189 -2.29112 1.92739 0
M  V30 5002 H 458.735 -1.10101 0.928102 0
M  V30 5003 H 460.688 -4.19444 0.405555 0
M  V30 5004 H 459.412 -3.24227 -0.392961 0
M  V30 5005 H 458.071 -3.22703 1.73949 0
M  V30 5006 H 457.719 -5.02982 0.0421965 0
M  V30 5007 H 457.419 -5.62661 1.6937 0
M  V30 5008 H 458.943 -6.04507 0.860448 0
M  V30 5009 H 460.357 -4.96839 2.86049 0
M  V30 5010 H 458.754 -4.77952 3.6288 0
M  V30 5011 H 459.824 -3.3735 3.48315 0
M  V30 5012 N 461.167 -1.02423 -1.1978 0
M  V30 5013 C 462.415 -0.716569 -1.8897 0
M  V30 5014 C 462.736 0.756769 -1.79716 0
M  V30 5015 O 462.006 1.5449 -1.20456 0
M  V30 5016 H 460.586 -0.262062 -0.699523 0
M  V30 5017 H 463.248 -1.29747 -1.45436 0
M  V30 5018 H 462.344 -1.00675 -2.95417 0
M  V30 5019 N 462.645 1.35699 -0.801477 0
M  V30 5020 C 463.894 1.98165 -0.375979 0
M  V30 5021 C 464.207 1.64306 1.06127 0
M  V30 5022 O 465.413 2.20097 1.58964 0
M  V30 5023 C 463.869 3.54497 -0.621305 0
M  V30 5024 C 463.477 3.9727 -2.07076 0
M  V30 5025 C 465.221 4.23697 -0.26091 0
M  V30 5026 C 463.128 5.46427 -2.26211 0
M  V30 5027 H 462.058 0.741478 -0.136844 0
M  V30 5028 H 464.709 1.54834 -0.984814 0
M  V30 5029 H 463.091 3.95958 0.0574112 0
M  V30 5030 H 464.265 3.66974 -2.78687 0
M  V30 5031 H 462.58 3.40943 -2.39054 0
M  V30 5032 H 465.177 5.33334 -0.381994 0
M  V30 5033 H 465.52 4.0869 0.792344 0
M  V30 5034 H 466.053 3.87639 -0.893339 0
M  V30 5035 H 462.792 5.66396 -3.29963 0
M  V30 5036 H 462.312 5.78309 -1.59119 0
M  V30 5037 H 463.991 6.12819 -2.07513 0
M  V30 5038 N 464.123 0.554532 1.47522 0
M  V30 5039 C 465.351 0.034257 2.06872 0
M  V30 5040 C 465.766 -1.25826 1.40759 0
M  V30 5041 O 465.123 -1.75425 0.503217 0
M  V30 5042 C 465.174 -0.167827 3.6111 0
M  V30 5043 O 464.895 1.07351 4.24744 0
M  V30 5044 C 466.396 -0.72569 4.3732 0
M  V30 5045 H 463.616 0.0446275 0.669514 0
M  V30 5046 H 466.16 0.767181 1.89564 0
M  V30 5047 H 464.315 -0.850872 3.7794 0
M  V30 5048 H 464.729 0.869563 5.17242 0
M  V30 5049 H 466.203 -0.816394 5.45929 0
M  V30 5050 H 466.68 -1.73635 4.0342 0
M  V30 5051 H 467.286 -0.0784292 4.25228 0
M  V30 5052 N 465.601 -1.54893 0.290851 0
M  V30 5053 C 466.826 -2.04804 -0.32712 0
M  V30 5054 C 467.251 -1.16721 -1.47506 0
M  V30 5055 O 466.609 -0.169107 -1.8051 0
M  V30 5056 C 466.657 -3.52268 -0.770689 0
M  V30 5057 O 465.761 -3.67236 -1.87647 0
M  V30 5058 H 465.102 -0.660789 -0.0652227 0
M  V30 5059 H 467.632 -2.00036 0.429739 0
M  V30 5060 H 467.642 -3.9393 -1.06223 0
M  V30 5061 H 466.317 -4.15843 0.069096 0
M  V30 5062 H 464.894 -3.37479 -1.58626 0
M  V30 5063 N 467.08 -0.0183926 -1.57589 0
M  V30 5064 C 468.326 0.663543 -1.91638 0
M  V30 5065 C 468.659 1.72392 -0.894134 0
M  V30 5066 O 467.934 1.94316 0.0846449 0
M  V30 5067 C 468.217 1.28984 -3.36207 0
M  V30 5068 C 468.07 0.239761 -4.49161 0
M  V30 5069 C 469.389 2.2109 -3.80536 0
M  V30 5070 H 466.508 0.239746 -0.696915 0
M  V30 5071 H 469.15 -0.073456 -1.89858 0
M  V30 5072 H 467.3 1.91799 -3.37854 0
M  V30 5073 H 468.972 -0.390119 -4.59647 0
M  V30 5074 H 467.215 -0.435972 -4.31604 0
M  V30 5075 H 467.886 0.717383 -5.47319 0
M  V30 5076 H 470.362 1.68273 -3.80557 0
M  V30 5077 H 469.238 2.61869 -4.82406 0
M  V30 5078 H 469.499 3.09764 -3.15434 0
M  V30 5079 N 468.558 1.5553 0.254621 0
M  V30 5080 C 469.488 1.9268 1.31897 0
M  V30 5081 C 470.469 0.790797 1.506 0
M  V30 5082 O 471.654 1.05045 1.63337 0
M  V30 5083 C 468.784 2.21477 2.67517 0
M  V30 5084 C 467.738 3.37256 2.63519 0
M  V30 5085 C 467.064 3.51576 4.02862 0
M  V30 5086 C 468.364 4.73157 2.21179 0
M  V30 5087 H 470.058 2.81832 1.01051 0
M  V30 5088 H 467.604 1.35599 0.484662 0
M  V30 5089 H 469.557 2.46055 3.42104 0
M  V30 5090 H 468.281 1.29144 2.99982 0
M  V30 5091 H 466.94 3.12675 1.9139 0
M  V30 5092 H 466.588 2.56676 4.32581 0
M  V30 5093 H 466.288 4.2943 4.01078 0
M  V30 5094 H 467.812 3.78467 4.79161 0
M  V30 5095 H 469.226 4.97158 2.85494 0
M  V30 5096 H 467.623 5.54058 2.30521 0
M  V30 5097 H 468.693 4.70739 1.16332 0
M  V30 5098 N 470.036 -0.519951 1.48776 0
M  V30 5099 C 471.264 -1.29971 1.60982 0
M  V30 5100 C 471.679 -1.86803 0.273885 0
M  V30 5101 O 471.036 -1.66904 -0.738193 0
M  V30 5102 C 471.087 -2.44346 2.66415 0
M  V30 5103 O 470.808 -1.89855 3.94825 0
M  V30 5104 C 472.309 -3.36014 2.89153 0
M  V30 5105 H 469.529 -0.394891 0.542496 0
M  V30 5106 H 472.073 -0.626214 1.94676 0
M  V30 5107 H 470.228 -3.07562 2.35552 0
M  V30 5108 H 470.642 -2.64798 4.5275 0
M  V30 5109 H 472.116 -4.12593 3.66703 0
M  V30 5110 H 472.593 -3.91859 1.98351 0
M  V30 5111 H 473.199 -2.78582 3.21359 0
M  V30 5112 N 471.514 -1.37532 -0.769588 0
M  V30 5113 C 472.447 -1.27839 -1.8903 0
M  V30 5114 C 473.425 -0.158504 -1.61826 0
M  V30 5115 O 474.609 -0.333086 -1.85534 0
M  V30 5116 C 471.736 -0.977072 -3.24301 0
M  V30 5117 C 470.782 -2.11414 -3.70414 0
M  V30 5118 S 471.615 -3.73409 -3.83831 0
M  V30 5119 C 472.771 -3.45432 -5.21946 0
M  V30 5120 H 473.004 -2.22694 -1.96963 0
M  V30 5121 H 470.537 -1.2318 -0.930914 0
M  V30 5122 H 472.495 -0.810049 -4.02428 0
M  V30 5123 H 471.156 -0.0459701 -3.14066 0
M  V30 5124 H 470.349 -1.85837 -4.68488 0
M  V30 5125 H 469.951 -2.24141 -2.99394 0
M  V30 5126 H 472.243 -3.00554 -6.07185 0
M  V30 5127 H 473.186 -4.42841 -5.52537 0
M  V30 5128 H 473.594 -2.80311 -4.89986 0
M  V30 5129 N 472.992 0.995999 -1.22138 0
M  V30 5130 C 474.22 1.77066 -1.07029 0
M  V30 5131 C 474.635 1.8495 0.379357 0
M  V30 5132 O 473.992 1.3174 1.26297 0
M  V30 5133 C 474.043 3.20533 -1.67155 0
M  V30 5134 O 473.764 3.13082 -3.06449 0
M  V30 5135 C 475.265 4.14461 -1.5728 0
M  V30 5136 H 472.485 0.556179 -0.375374 0
M  V30 5137 H 475.029 1.25238 -1.61666 0
M  V30 5138 H 473.184 3.6944 -1.16589 0
M  V30 5139 H 473.598 4.03283 -3.35355 0
M  V30 5140 H 475.072 5.1289 -2.04078 0
M  V30 5141 H 475.549 4.36005 -0.528795 0
M  V30 5142 H 476.155 3.71449 -2.07136 0
M  V30 5143 N 474.47 1.03057 1.19235 0
M  V30 5144 C 475.698 0.747697 1.92917 0
M  V30 5145 C 476.113 -0.69372 1.75593 0
M  V30 5146 O 475.47 -1.47191 1.07894 0
M  V30 5147 C 475.521 1.09159 3.44625 0
M  V30 5148 O 475.242 2.47641 3.61394 0
M  V30 5149 C 476.743 0.831763 4.35427 0
M  V30 5150 H 473.963 0.273453 0.612751 0
M  V30 5151 H 476.507 1.37552 1.51327 0
M  V30 5152 H 474.662 0.508919 3.84043 0
M  V30 5153 H 475.076 2.60499 4.55237 0
M  V30 5154 H 476.55 1.12233 5.4047 0
M  V30 5155 H 477.027 -0.233769 4.38577 0
M  V30 5156 H 477.633 1.39725 4.01693 0
M  V30 5157 N 475.948 -1.35272 0.808662 0
M  V30 5158 C 476.878 -2.32315 0.234981 0
M  V30 5159 C 477.859 -1.57572 -0.64071 0
M  V30 5160 O 479.044 -1.8563 -0.570551 0
M  V30 5161 C 476.174 -3.41801 -0.615601 0
M  V30 5162 C 475.128 -4.27694 0.161767 0
M  V30 5163 C 474.454 -5.28519 -0.810649 0
M  V30 5164 C 475.754 -5.04231 1.36193 0
M  V30 5165 H 477.448 -2.80543 1.04575 0
M  V30 5166 H 474.994 -1.3488 0.504315 0
M  V30 5167 H 476.947 -4.08693 -1.02702 0
M  V30 5168 H 475.671 -2.92186 -1.45928 0
M  V30 5169 H 474.33 -3.62384 0.554382 0
M  V30 5170 H 473.978 -4.75171 -1.64988 0
M  V30 5171 H 473.678 -5.8686 -0.294822 0
M  V30 5172 H 475.202 -5.98283 -1.22023 0
M  V30 5173 H 476.616 -5.64058 1.02528 0
M  V30 5174 H 475.013 -5.72077 1.81239 0
M  V30 5175 H 476.083 -4.34753 2.14751 0
M  V30 5176 N 477.426 -0.562348 -1.47226 0
M  V30 5177 C 478.674 -0.0401371 -2.0206 0
M  V30 5178 C 478.995 1.3165 -1.43852 0
M  V30 5179 O 478.265 1.85976 -0.615599 0
M  V30 5180 H 476.845 -0.0118479 -0.746906 0
M  V30 5181 H 479.507 -0.73352 -1.8057 0
M  V30 5182 H 478.603 0.0441254 -3.12069 0
M  V30 5183 N 478.904 1.54736 -0.299062 0
M  V30 5184 C 480.132 2.04512 0.313447 0
M  V30 5185 C 480.547 1.17643 1.47667 0
M  V30 5186 O 479.904 0.20164 1.81383 0
M  V30 5187 C 479.955 3.53171 0.771542 0
M  V30 5188 O 479.676 4.36736 -0.345379 0
M  V30 5189 C 481.177 4.18936 1.4494 0
M  V30 5190 H 478.397 0.667507 0.0683784 0
M  V30 5191 H 480.941 1.99752 -0.438129 0
M  V30 5192 H 479.096 3.58298 1.47314 0
M  V30 5193 H 479.51 5.24499 0.0109219 0
M  V30 5194 H 480.984 5.24482 1.72111 0
M  V30 5195 H 481.461 3.68554 2.38883 0
M  V30 5196 H 482.067 4.17879 0.791028 0
M  V30 5197 N 480.382 0.0267497 1.57577 0
M  V30 5198 C 481.629 -0.652404 1.91703 0
M  V30 5199 C 481.957 -1.72271 0.902936 0
M  V30 5200 O 481.212 -1.955 -0.0884843 0
M  V30 5201 C 481.511 -1.30914 3.3256 0
M  V30 5202 C 481.177 -0.369441 4.49384 0
M  V30 5203 C 479.839 -0.110791 4.81072 0
M  V30 5204 C 482.191 0.275971 5.20469 0
M  V30 5205 C 479.519 0.801116 5.81205 0
M  V30 5206 C 481.871 1.17592 6.21575 0
M  V30 5207 C 480.535 1.44348 6.51705 0
M  V30 5208 H 479.805 -0.238732 0.70149 0
M  V30 5209 H 482.452 0.0880091 1.91298 0
M  V30 5210 H 480.757 -2.12425 3.29216 0
M  V30 5211 H 482.454 -1.84115 3.56234 0
M  V30 5212 H 479.044 -0.581211 4.24641 0
M  V30 5213 H 483.228 0.0892 4.9622 0
M  V30 5214 H 478.484 1.01614 6.02897 0
M  V30 5215 H 482.658 1.68223 6.75777 0
M  V30 5216 H 480.285 2.15176 7.29111 0
M  V30 5217 N 481.861 -1.55662 -0.24637 0
M  V30 5218 C 483.086 -1.81914 -0.996093 0
M  V30 5219 C 483.511 -0.603875 -1.78143 0
M  V30 5220 O 482.869 0.447091 -1.75701 0
M  V30 5221 C 482.917 -3.05908 -1.90925 0
M  V30 5222 O 482.021 -2.82861 -3.00105 0
M  V30 5223 H 481.362 -0.600481 -0.283406 0
M  V30 5224 H 483.892 -2.02848 -0.267199 0
M  V30 5225 H 483.902 -3.35356 -2.3238 0
M  V30 5226 H 482.577 -3.93999 -1.33183 0
M  V30 5227 H 481.154 -2.64583 -2.62775 0
M  V30 5228 N 483.339 0.512053 -1.4905 0
M  V30 5229 C 484.755 0.84224 -1.35567 0
M  V30 5230 C 484.955 1.97878 -0.380319 0
M  V30 5231 O 484.011 2.51769 0.19201 0
M  V30 5232 C 485.324 1.19286 -2.76028 0
M  V30 5233 C 486.872 1.30171 -2.84648 0
M  V30 5234 C 487.347 1.68568 -4.25851 0
M  V30 5235 N 488.838 1.75638 -4.28609 0
M  V30 5236 C 489.573 2.06769 -5.34821 0
M  V30 5237 N 489.069 2.36201 -6.51292 0
M  V30 5238 N 490.862 2.07927 -5.22229 0
M  V30 5239 H 483.013 -0.237574 -2.11067 0
M  V30 5240 H 485.276 -0.0436747 -0.946993 0
M  V30 5241 H 484.982 0.431199 -3.49047 0
M  V30 5242 H 484.856 2.13889 -3.10695 0
M  V30 5243 H 487.243 2.05411 -2.11873 0
M  V30 5244 H 487.324 0.336457 -2.53578 0
M  V30 5245 H 486.968 0.938824 -4.99148 0
M  V30 5246 H 486.898 2.66174 -4.54377 0
M  V30 5247 H 489.389 1.55097 -3.44606 0
M  V30 5248 H 489.702 2.59112 -7.28066 0
M  V30 5249 H 488.047 2.33681 -6.54536 0
M  V30 5250 H 491.238 1.84403 -4.30248 0
M  V30 5251 H 491.411 2.31856 -6.05101 0
M  V30 5252 N 484.817 1.37938 0.762283 0
M  V30 5253 C 485.764 1.34467 1.87583 0
M  V30 5254 C 486.734 0.208633 1.64785 0
M  V30 5255 O 487.919 0.399494 1.86571 0
M  V30 5256 C 485.059 1.16692 3.24772 0
M  V30 5257 C 484.172 2.39608 3.59461 0
M  V30 5258 C 483.307 2.14631 4.85908 0
M  V30 5259 C 482.346 3.33364 5.13357 0
M  V30 5260 N 481.483 3.07877 6.30996 0
M  V30 5261 H 486.323 2.29669 1.89885 0
M  V30 5262 H 483.86 1.14116 0.928219 0
M  V30 5263 H 485.818 1.04405 4.03925 0
M  V30 5264 H 484.448 0.251333 3.2182 0
M  V30 5265 H 483.5 2.626 2.75219 0
M  V30 5266 H 484.812 3.28128 3.75678 0
M  V30 5267 H 483.966 1.99429 5.72986 0
M  V30 5268 H 482.705 1.23463 4.71814 0
M  V30 5269 H 481.71 3.49094 4.24751 0
M  V30 5270 H 482.935 4.25395 5.29354 0
M  V30 5271 H 480.881 2.19348 6.18241 0
M  V30 5272 H 480.798 3.89944 6.47673 0
M  V30 5273 H 482.066 2.96313 7.20985 0
M  V30 5274 N 486.295 -0.989507 1.22664 0
M  V30 5275 C 487.243 -2.10148 0.997035 0
M  V30 5276 C 488.237 -1.6929 -0.0609783 0
M  V30 5277 O 489.443 -1.79766 0.0917523 0
M  V30 5278 H 485.818 -0.687256 0.305259 0
M  V30 5279 H 487.789 -2.26685 1.94053 0
M  V30 5280 C 486.538 -3.4257 0.595085 0
M  V30 5281 H 485.861 -3.74453 1.40089 0
M  V30 5282 H 487.301 -4.21344 0.473869 0
M  V30 5283 C 485.76 -3.29638 -0.695725 0
M  V30 5284 O 486.29 -3.61709 -1.74727 0
M  V30 5285 N 484.496 -2.82814 -0.668173 0
M  V30 5286 H 484.043 -2.56914 0.18787 0
M  V30 5287 H 484.001 -2.74544 -1.5321 0
M  V30 5288 N 487.773 -1.03688 -1.18687 0
M  V30 5289 C 489.02 -0.73803 -1.88572 0
M  V30 5290 C 489.348 0.733973 -1.8012 0
M  V30 5291 O 488.603 1.55098 -1.19344 0
M  V30 5292 C 488.902 -1.14477 -3.3857 0
M  V30 5293 C 488.568 -2.61641 -3.67226 0
M  V30 5294 C 487.23 -3.01846 -3.74757 0
M  V30 5295 C 489.582 -3.56812 -3.79914 0
M  V30 5296 C 486.91 -4.36118 -3.92451 0
M  V30 5297 C 489.262 -4.90799 -3.99123 0
M  V30 5298 C 487.926 -5.3068 -4.04888 0
M  V30 5299 H 487.196 -0.270064 -0.690034 0
M  V30 5300 H 489.843 -1.3012 -1.40503 0
M  V30 5301 H 488.148 -0.500337 -3.88592 0
M  V30 5302 H 489.845 -0.89095 -3.90977 0
M  V30 5303 H 486.435 -2.29498 -3.61979 0
M  V30 5304 H 490.619 -3.26899 -3.73431 0
M  V30 5305 H 485.875 -4.66542 -3.95157 0
M  V30 5306 H 490.049 -5.64451 -4.07882 0
M  V30 5307 H 487.676 -6.34733 -4.18351 0
M  V30 5308 N 489.251 1.34841 -0.815825 0
M  V30 5309 C 490.662 1.80937 -0.46029 0
M  V30 5310 C 491.013 1.67685 1.01863 0
M  V30 5311 O 490.138 1.21277 1.79223 0
M  V30 5312 C 490.733 3.28509 -0.828708 0
M  V30 5313 C 489.292 3.72712 -0.525644 0
M  V30 5314 C 488.439 2.56676 -1.04941 0
M  V30 5315 H 491.39 1.22688 -1.00664 0
M  V30 5316 H 491.411 3.80279 -0.129757 0
M  V30 5317 H 490.923 3.38122 -1.90513 0
M  V30 5318 H 489.024 3.68642 0.541666 0
M  V30 5319 H 489.137 4.67119 -1.06474 0
M  V30 5320 H 487.501 2.50302 -0.471286 0
M  V30 5321 H 488.284 2.69063 -2.13214 0
M  V30 5322 N 490.729 0.570148 1.46925 0
M  V30 5323 C 492.145 0.23087 1.57921 0
M  V30 5324 C 492.345 -1.26676 1.56702 0
M  V30 5325 O 491.401 -2.04774 1.47729 0
M  V30 5326 C 492.714 0.868973 2.8787 0
M  V30 5327 C 494.262 0.841397 3.01479 0
M  V30 5328 C 494.737 1.45881 4.34146 0
M  V30 5329 N 496.228 1.42258 4.40814 0
M  V30 5330 C 496.963 1.8698 5.42057 0
M  V30 5331 N 496.459 2.39618 6.50042 0
M  V30 5332 N 498.252 1.77972 5.33181 0
M  V30 5333 H 490.403 1.54301 1.45962 0
M  V30 5334 H 492.666 0.644224 0.69547 0
M  V30 5335 H 492.372 1.922 2.94537 0
M  V30 5336 H 492.246 0.369682 3.75384 0
M  V30 5337 H 494.633 -0.202973 2.94401 0
M  V30 5338 H 494.714 1.37858 2.15474 0
M  V30 5339 H 494.358 2.50231 4.4198 0
M  V30 5340 H 494.288 0.896958 5.18905 0
M  V30 5341 H 496.779 1.03768 3.63374 0
M  V30 5342 H 497.092 2.71633 7.23488 0
M  V30 5343 H 495.437 2.43636 6.50897 0
M  V30 5344 H 498.628 1.36617 4.4772 0
M  V30 5345 H 498.801 2.13143 6.11943 0
M  V30 5346 N 492.207 -1.54576 0.307264 0
M  V30 5347 C 493.453 -2.0056 -0.300612 0
M  V30 5348 C 493.786 -1.1953 -1.53057 0
M  V30 5349 O 493.061 -0.27337 -1.92569 0
M  V30 5350 C 493.344 -3.54167 -0.650987 0
M  V30 5351 C 493.197 -4.45933 0.588539 0
M  V30 5352 C 494.516 -4.14645 -1.47506 0
M  V30 5353 H 491.635 -0.729075 -0.107788 0
M  V30 5354 H 494.277 -1.85286 0.420606 0
M  V30 5355 H 492.427 -3.67313 -1.26544 0
M  V30 5356 H 494.099 -4.44683 1.22697 0
M  V30 5357 H 492.342 -4.16274 1.22058 0
M  V30 5358 H 493.013 -5.51189 0.299153 0
M  V30 5359 H 495.489 -4.04973 -0.955821 0
M  V30 5360 H 494.365 -5.22269 -1.68899 0
M  V30 5361 H 494.626 -3.66921 -2.4662 0
M  V30 5362 N 493.685 -0.035106 -1.57561 0
M  V30 5363 C 494.91 0.655802 -1.96759 0
M  V30 5364 C 495.335 1.64523 -0.911809 0
M  V30 5365 O 494.693 1.80857 0.126673 0
M  V30 5366 C 494.741 1.33326 -3.35047 0
M  V30 5367 O 493.845 2.44866 -3.31835 0
M  V30 5368 H 493.186 0.171807 -0.641388 0
M  V30 5369 H 495.716 -0.0987369 -2.04362 0
M  V30 5370 H 495.726 1.68867 -3.71413 0
M  V30 5371 H 494.401 0.608033 -4.11431 0
M  V30 5372 H 492.978 2.11392 -3.07193 0
M  V30 5373 N 495.163 1.55791 0.238111 0
M  V30 5374 C 496.393 1.81834 0.980809 0
M  V30 5375 C 496.801 0.609741 1.79106 0
M  V30 5376 O 496.144 -0.431073 1.78571 0
M  V30 5377 C 496.206 3.01363 1.96011 0
M  V30 5378 C 495.87 4.37037 1.33597 0
M  V30 5379 C 496.867 5.14692 0.734063 0
M  V30 5380 C 494.552 4.83743 1.3527 0
M  V30 5381 C 496.546 6.37206 0.157208 0
M  V30 5382 C 494.233 6.06204 0.77199 0
M  V30 5383 C 495.231 6.82775 0.175282 0
M  V30 5384 O 494.919 8.02922 -0.396432 0
M  V30 5385 H 494.651 0.6088 0.293834 0
M  V30 5386 H 497.205 2.03702 0.263552 0
M  V30 5387 H 495.435 2.75273 2.71591 0
M  V30 5388 H 497.124 3.14422 2.56697 0
M  V30 5389 H 497.89 4.79722 0.713582 0
M  V30 5390 H 493.769 4.24129 1.80653 0
M  V30 5391 H 497.313 6.96915 -0.30917 0
M  V30 5392 H 493.21 6.4065 0.789828 0
M  V30 5393 H 493.978 8.17989 -0.289145 0
M  V30 5394 N 496.642 -0.504142 1.49319 0
M  V30 5395 C 497.891 -1.25507 1.57895 0
M  V30 5396 C 498.204 -1.93735 0.269433 0
M  V30 5397 O 499.41 -2.70492 0.233706 0
M  V30 5398 C 497.866 -2.27869 2.78574 0
M  V30 5399 C 497.474 -1.65594 4.16272 0
M  V30 5400 C 499.218 -3.0381 2.96479 0
M  V30 5401 C 497.125 -2.66048 5.28178 0
M  V30 5402 H 496.055 -0.47212 0.587894 0
M  V30 5403 H 498.706 -0.52931 1.757 0
M  V30 5404 H 497.088 -3.03594 2.54257 0
M  V30 5405 H 498.262 -0.958826 4.50714 0
M  V30 5406 H 496.577 -1.02055 4.037 0
M  V30 5407 H 499.174 -3.78925 3.77253 0
M  V30 5408 H 499.517 -3.61235 2.06918 0
M  V30 5409 H 500.05 -2.352 3.20821 0
M  V30 5410 H 496.789 -2.13408 6.19788 0
M  V30 5411 H 496.309 -3.34009 4.98195 0
M  V30 5412 H 497.988 -3.28536 5.57381 0
M  V30 5413 N 498.12 -1.38341 -0.754957 0
M  V30 5414 C 499.348 -1.37704 -1.54419 0
M  V30 5415 C 499.763 0.0335243 -1.8877 0
M  V30 5416 O 499.12 0.999773 -1.52679 0
M  V30 5417 C 499.171 -2.23136 -2.84416 0
M  V30 5418 O 498.892 -3.58697 -2.51531 0
M  V30 5419 C 500.393 -2.30664 -3.78562 0
M  V30 5420 H 497.613 -0.471061 -0.477852 0
M  V30 5421 H 500.157 -1.81902 -0.934446 0
M  V30 5422 H 498.312 -1.82403 -3.41772 0
M  V30 5423 H 498.726 -4.03665 -3.34896 0
M  V30 5424 H 500.2 -2.9473 -4.66732 0
M  V30 5425 H 500.677 -1.3199 -4.18898 0
M  V30 5426 H 501.283 -2.71781 -3.27131 0
M  V30 5427 N 499.598 0.982988 -1.23187 0
M  V30 5428 C 500.561 2.05649 -1.01198 0
M  V30 5429 C 501.561 1.6078 0.0252464 0
M  V30 5430 O 502.751 1.72878 -0.214243 0
M  V30 5431 C 499.883 3.36744 -0.530656 0
M  V30 5432 H 501.076 2.2659 -1.96461 0
M  V30 5433 H 498.629 1.15602 -1.05195 0
M  V30 5434 H 499.364 3.21492 0.425873 0
M  V30 5435 H 499.149 3.7065 -1.2791 0
M  V30 5436 H 500.639 4.15705 -0.397366 0
M  V30 5437 N 501.076 1.04316 1.18135 0
M  V30 5438 C 502.006 0.657299 2.24058 0
M  V30 5439 C 502.987 -0.340678 1.66654 0
M  V30 5440 O 504.172 -0.220223 1.92947 0
M  V30 5441 C 501.302 0.0220715 3.47293 0
M  V30 5442 C 500.256 0.943857 4.17463 0
M  V30 5443 C 499.582 0.172973 5.3442 0
M  V30 5444 C 500.882 2.26409 4.70677 0
M  V30 5445 H 502.576 1.5428 2.56589 0
M  V30 5446 H 500.122 0.743263 1.23335 0
M  V30 5447 H 502.075 -0.259607 4.206 0
M  V30 5448 H 500.799 -0.898323 3.14003 0
M  V30 5449 H 499.458 1.20996 3.46057 0
M  V30 5450 H 499.106 -0.749907 4.97379 0
M  V30 5451 H 498.806 0.787098 5.82304 0
M  V30 5452 H 500.33 -0.101628 6.10515 0
M  V30 5453 H 501.744 2.04294 5.35665 0
M  V30 5454 H 500.141 2.8314 5.29105 0
M  V30 5455 H 501.211 2.90883 3.87962 0
M  V30 5456 N 502.554 -1.34406 0.822964 0
M  V30 5457 C 503.831 -1.92733 0.333641 0
M  V30 5458 C 504.211 -1.75107 -1.17901 0
M  V30 5459 O 503.559 -1.12983 -1.98613 0
M  V30 5460 C 503.769 -3.40557 0.763023 0
M  V30 5461 C 505.117 -4.17709 0.761879 0
M  V30 5462 O 506.141 -3.49141 0.705606 0
M  V30 5463 O 505 -5.40082 0.835109 0
M  V30 5464 H 502.094 -0.821964 0.0911249 0
M  V30 5465 H 504.64 -1.4338 0.907757 0
M  V30 5466 H 503.412 -3.47187 1.8049 0
M  V30 5467 H 503.035 -3.97259 0.164605 0
M  V30 5468 N 504.032 -0.577932 -1.46621 0
M  V30 5469 C 505.279 -0.0616879 -2.02406 0
M  V30 5470 C 505.607 1.29638 -1.44997 0
M  V30 5471 O 504.862 1.86176 -0.60308 0
M  V30 5472 C 505.161 0.0590832 -3.57351 0
M  V30 5473 C 504.827 -1.23077 -4.33777 0
M  V30 5474 C 503.489 -1.58416 -4.54376 0
M  V30 5475 C 505.841 -2.08457 -4.77698 0
M  V30 5476 C 503.169 -2.78943 -5.16147 0
M  V30 5477 C 505.521 -3.28204 -5.408 0
M  V30 5478 C 504.185 -3.63832 -5.59627 0
M  V30 5479 H 503.455 -0.0225732 -0.740656 0
M  V30 5480 H 506.102 -0.753609 -1.76048 0
M  V30 5481 H 504.407 0.834104 -3.82818 0
M  V30 5482 H 506.104 0.474202 -3.98186 0
M  V30 5483 H 502.694 -0.945652 -4.18038 0
M  V30 5484 H 506.878 -1.82459 -4.61544 0
M  V30 5485 H 502.134 -3.06689 -5.28916 0
M  V30 5486 H 506.308 -3.94634 -5.73792 0
M  V30 5487 H 503.935 -4.57315 -6.07262 0
M  V30 5488 N 505.51 1.54411 -0.315457 0
M  V30 5489 C 506.74 2.04536 0.291315 0
M  V30 5490 C 507.148 1.19162 1.4696 0
M  V30 5491 O 506.491 0.213199 1.82459 0
M  V30 5492 C 506.553 3.5056 0.796725 0
M  V30 5493 C 506.217 4.5627 -0.258178 0
M  V30 5494 C 507.214 5.08312 -1.09153 0
M  V30 5495 C 504.899 5.00672 -0.404036 0
M  V30 5496 C 506.893 6.03312 -2.05655 0
M  V30 5497 C 504.58 5.95488 -1.37248 0
M  V30 5498 C 505.578 6.46693 -2.19721 0
M  V30 5499 O 505.266 7.39648 -3.14921 0
M  V30 5500 H 504.998 0.672856 0.0651165 0
M  V30 5501 H 507.552 2.00244 -0.457308 0
M  V30 5502 H 505.782 3.52223 1.59612 0
M  V30 5503 H 507.471 3.83804 1.32096 0
M  V30 5504 H 508.237 4.74793 -0.98979 0
M  V30 5505 H 504.116 4.60436 0.22799 0
M  V30 5506 H 507.66 6.43203 -2.70067 0
M  V30 5507 H 503.557 6.28424 -1.47489 0
M  V30 5508 H 504.325 7.57496 -3.10067 0
M  V30 5509 N 506.988 0.0434614 1.5754 0
M  V30 5510 C 508.237 -0.631454 1.91561 0
M  V30 5511 C 508.55 -1.72457 0.92292 0
M  V30 5512 O 509.756 -2.45712 1.15489 0
M  V30 5513 C 508.212 -1.17447 3.40197 0
M  V30 5514 C 507.82 -0.113867 4.47855 0
M  V30 5515 C 509.564 -1.82507 3.83264 0
M  V30 5516 C 507.471 -0.669326 5.876 0
M  V30 5517 H 506.401 -0.239629 0.714908 0
M  V30 5518 H 509.052 0.111097 1.83163 0
M  V30 5519 H 507.434 -1.96909 3.43574 0
M  V30 5520 H 508.608 0.659348 4.56058 0
M  V30 5521 H 506.923 0.438821 4.14081 0
M  V30 5522 H 509.52 -2.25047 4.85034 0
M  V30 5523 H 509.863 -2.67365 3.19095 0
M  V30 5524 H 510.396 -1.09712 3.82372 0
M  V30 5525 H 507.135 0.141449 6.55347 0
M  V30 5526 H 506.655 -1.4107 5.82974 0
M  V30 5527 H 508.334 -1.15463 6.36614 0
M  V30 5528 N 508.466 -1.55915 -0.229846 0
M  V30 5529 C 509.429 -1.90914 -1.26824 0
M  V30 5530 C 510.429 -0.786999 -1.40225 0
M  V30 5531 O 511.619 -1.05484 -1.38632 0
M  V30 5532 C 508.751 -2.15264 -2.64337 0
M  V30 5533 H 509.944 -2.8378 -0.969998 0
M  V30 5534 H 507.497 -1.49069 -0.4699 0
M  V30 5535 H 508.232 -1.24923 -2.99274 0
M  V30 5536 H 508.017 -2.97005 -2.55989 0
M  V30 5537 H 509.507 -2.43467 -3.39284 0
M  V30 5538 N 509.944 0.496216 -1.49584 0
M  V30 5539 C 511.193 1.24668 -1.58558 0
M  V30 5540 C 511.506 1.9359 -0.279703 0
M  V30 5541 O 512.712 2.70365 -0.248048 0
M  V30 5542 C 511.168 2.26388 -2.79779 0
M  V30 5543 C 510.776 1.63384 -4.17145 0
M  V30 5544 C 512.52 3.02233 -2.98086 0
M  V30 5545 C 510.427 2.63243 -5.29582 0
M  V30 5546 H 509.357 0.468995 -0.590389 0
M  V30 5547 H 512.008 0.519985 -1.75978 0
M  V30 5548 H 510.39 3.02241 -2.55863 0
M  V30 5549 H 511.564 0.93491 -4.51216 0
M  V30 5550 H 509.879 0.999121 -4.04236 0
M  V30 5551 H 512.476 3.76919 -3.79257 0
M  V30 5552 H 512.819 3.60132 -2.08831 0
M  V30 5553 H 513.352 2.33495 -3.22063 0
M  V30 5554 H 510.091 2.10119 -6.20911 0
M  V30 5555 H 509.611 3.31363 -4.99959 0
M  V30 5556 H 511.29 3.25575 -5.59115 0
M  V30 5557 N 511.423 1.38739 0.74761 0
M  V30 5558 C 512.663 1.36695 1.51966 0
M  V30 5559 C 513.027 -0.0411889 1.91956 0
M  V30 5560 O 514.228 -0.186543 2.68152 0
M  V30 5561 C 512.499 2.30119 2.73459 0
M  V30 5562 S 514.058 2.4615 3.63257 0
M  V30 5563 H 510.876 0.484929 0.519966 0
M  V30 5564 H 513.478 1.7472 0.877104 0
M  V30 5565 H 512.182 3.31312 2.422 0
M  V30 5566 H 511.713 1.93265 3.42655 0
M  V30 5567 H 513.728 1.69001 4.66533 0
M  V30 5568 N 512.901 -0.976442 1.23707 0
M  V30 5569 C 514.148 -1.71827 1.07153 0
M  V30 5570 C 514.476 -1.9053 -0.390982 0
M  V30 5571 O 513.731 -1.45779 -1.30564 0
M  V30 5572 C 514.03 -3.11814 1.74662 0
M  V30 5573 C 513.696 -3.12978 3.24585 0
M  V30 5574 C 512.358 -3.13003 3.6549 0
M  V30 5575 C 514.71 -3.07986 4.20469 0
M  V30 5576 C 512.038 -3.05757 5.00729 0
M  V30 5577 C 514.39 -3.02282 5.55705 0
M  V30 5578 C 513.054 -3.00631 5.95968 0
M  V30 5579 H 512.324 -0.628758 0.392102 0
M  V30 5580 H 514.971 -1.14239 1.53693 0
M  V30 5581 H 513.276 -3.72812 1.20492 0
M  V30 5582 H 514.973 -3.67989 1.59328 0
M  V30 5583 H 511.563 -3.13718 2.92026 0
M  V30 5584 H 515.747 -3.07103 3.89874 0
M  V30 5585 H 511.003 -3.02834 5.31132 0
M  V30 5586 H 515.177 -2.97376 6.29714 0
M  V30 5587 H 512.804 -2.94771 7.00724 0
M  V30 5588 N 514.379 -1.04941 -1.1758 0
M  V30 5589 C 515.625 -0.759112 -1.88057 0
M  V30 5590 C 515.958 0.711918 -1.8068 0
M  V30 5591 O 515.233 1.52035 -1.21308 0
M  V30 5592 C 515.516 -1.237 -3.38187 0
M  V30 5593 C 515.369 -2.77078 -3.54327 0
M  V30 5594 C 516.688 -0.834014 -4.32125 0
M  V30 5595 H 513.807 -0.277237 -0.682868 0
M  V30 5596 H 516.449 -1.30296 -1.38286 0
M  V30 5597 H 514.599 -0.774337 -3.80705 0
M  V30 5598 H 516.271 -3.31449 -3.20842 0
M  V30 5599 H 514.514 -3.16477 -2.96689 0
M  V30 5600 H 515.185 -3.05577 -4.59703 0
M  V30 5601 H 517.661 -1.23228 -3.97434 0
M  V30 5602 H 516.537 -1.19603 -5.35711 0
M  V30 5603 H 516.798 0.262195 -4.41322 0
M  V30 5604 N 515.857 1.33968 -0.830081 0
M  V30 5605 C 517.104 1.98063 -0.421566 0
M  V30 5606 C 517.432 1.65787 1.0171 0
M  V30 5607 O 516.687 0.925348 1.72441 0
M  V30 5608 C 516.986 3.52679 -0.57898 0
M  V30 5609 C 516.652 4.04884 -1.98443 0
M  V30 5610 C 515.314 4.18852 -2.36888 0
M  V30 5611 C 517.666 4.32879 -2.90285 0
M  V30 5612 C 514.994 4.58145 -3.66497 0
M  V30 5613 C 517.346 4.7362 -4.19364 0
M  V30 5614 C 516.01 4.85794 -4.57778 0
M  V30 5615 H 515.28 0.724765 -0.154262 0
M  V30 5616 H 517.927 1.59792 -1.05541 0
M  V30 5617 H 516.232 3.91556 0.138219 0
M  V30 5618 H 517.929 4.00261 -0.243317 0
M  V30 5619 H 514.519 3.9448 -1.67581 0
M  V30 5620 H 518.703 4.21619 -2.61823 0
M  V30 5621 H 513.959 4.65762 -3.96075 0
M  V30 5622 H 518.133 4.9424 -4.90612 0
M  V30 5623 H 515.76 5.15998 -5.58256 0
M  V30 5624 N 517.335 0.585699 1.46312 0
M  V30 5625 C 518.575 0.0751432 2.04262 0
M  V30 5626 C 518.939 -1.26201 1.44697 0
M  V30 5627 O 520.14 -1.86198 1.93865 0
M  V30 5628 C 518.411 0.013478 3.57397 0
M  V30 5629 S 519.97 -0.439068 4.36598 0
M  V30 5630 H 516.788 0.0389228 0.709934 0
M  V30 5631 H 519.39 0.778871 1.79315 0
M  V30 5632 H 518.094 0.990558 3.98266 0
M  V30 5633 H 517.625 -0.712927 3.86886 0
M  V30 5634 H 519.64 -1.6932 4.66417 0
M  V30 5635 N 518.813 -1.54241 0.323641 0
M  V30 5636 C 520.06 -2.0057 -0.27891 0
M  V30 5637 C 520.388 -1.21181 -1.52136 0
M  V30 5638 O 519.643 -0.282043 -1.93657 0
M  V30 5639 C 519.942 -3.5129 -0.658031 0
M  V30 5640 C 519.608 -4.48281 0.485252 0
M  V30 5641 C 518.27 -4.74519 0.799055 0
M  V30 5642 C 520.622 -5.05909 1.25322 0
M  V30 5643 C 517.95 -5.55643 1.88354 0
M  V30 5644 C 520.302 -5.88215 2.32779 0
M  V30 5645 C 518.966 -6.12755 2.64741 0
M  V30 5646 H 518.236 -0.733938 -0.10206 0
M  V30 5647 H 520.883 -1.862 0.447435 0
M  V30 5648 H 519.188 -3.63388 -1.4648 0
M  V30 5649 H 520.885 -3.84578 -1.1358 0
M  V30 5650 H 517.475 -4.27979 0.230593 0
M  V30 5651 H 521.659 -4.8562 1.02404 0
M  V30 5652 H 516.915 -5.72888 2.13564 0
M  V30 5653 H 521.089 -6.31888 2.92729 0
M  V30 5654 H 518.716 -6.75404 3.48904 0
M  V30 5655 N 520.291 -0.0518155 -1.57515 0
M  V30 5656 C 521.531 0.625712 -1.94587 0
M  V30 5657 C 521.895 1.6797 -0.930053 0
M  V30 5658 O 523.096 2.41135 -1.18774 0
M  V30 5659 C 521.367 1.20574 -3.36447 0
M  V30 5660 S 522.926 1.90118 -3.95475 0
M  V30 5661 H 519.744 0.205434 -0.680675 0
M  V30 5662 H 522.346 -0.120906 -1.95126 0
M  V30 5663 H 521.05 0.426521 -4.08178 0
M  V30 5664 H 520.581 1.98916 -3.39405 0
M  V30 5665 H 522.596 3.18184 -3.80753 0
M  V30 5666 N 521.769 1.56035 0.221574 0
M  V30 5667 C 522.732 1.91584 1.2581 0
M  V30 5668 C 523.732 0.794425 1.39805 0
M  V30 5669 O 524.922 1.06217 1.38071 0
M  V30 5670 C 522.054 2.16663 2.63192 0
M  V30 5671 H 523.247 2.8429 0.954935 0
M  V30 5672 H 520.8 1.49316 0.461988 0
M  V30 5673 H 521.535 1.26508 2.98607 0
M  V30 5674 H 521.32 2.98358 2.5441 0
M  V30 5675 H 522.81 2.45262 3.37988 0
M  V30 5676 N 523.247 -0.488276 1.49845 0
M  V30 5677 C 524.177 -1.59675 1.70371 0
M  V30 5678 C 525.158 -1.60878 0.552473 0
M  V30 5679 O 526.343 -1.77417 0.78973 0
M  V30 5680 C 523.473 -2.98098 1.782 0
M  V30 5681 C 522.427 -3.11761 2.93239 0
M  V30 5682 C 521.753 -4.51661 2.86193 0
M  V30 5683 C 523.053 -2.90589 4.33999 0
M  V30 5684 H 524.747 -1.42752 2.63177 0
M  V30 5685 H 522.293 -0.685317 1.26647 0
M  V30 5686 H 524.246 -3.75555 1.91144 0
M  V30 5687 H 522.97 -3.16138 0.820018 0
M  V30 5688 H 521.629 -2.36732 2.79917 0
M  V30 5689 H 521.277 -4.66595 1.87877 0
M  V30 5690 H 520.977 -4.61742 3.63412 0
M  V30 5691 H 522.501 -5.31162 3.01163 0
M  V30 5692 H 523.915 -3.57807 4.47936 0
M  V30 5693 H 522.312 -3.1213 5.12538 0
M  V30 5694 H 523.382 -1.86595 4.4756 0
M  V30 5695 N 524.725 -1.39134 -0.740242 0
M  V30 5696 C 525.655 -1.40165 -1.86751 0
M  V30 5697 C 526.636 -0.265708 -1.68012 0
M  V30 5698 O 527.821 -0.47076 -1.88408 0
M  V30 5699 C 524.951 -1.2392 -3.2444 0
M  V30 5700 C 523.905 -2.34858 -3.57807 0
M  V30 5701 C 523.231 -2.03707 -4.94376 0
M  V30 5702 C 524.531 -3.77159 -3.61315 0
M  V30 5703 H 526.225 -2.345 -1.86145 0
M  V30 5704 H 523.771 -1.12875 -0.89416 0
M  V30 5705 H 525.724 -1.23263 -4.02969 0
M  V30 5706 H 524.448 -0.26051 -3.25559 0
M  V30 5707 H 523.107 -2.34723 -2.81604 0
M  V30 5708 H 522.755 -1.04289 -4.9207 0
M  V30 5709 H 522.455 -2.78016 -5.17669 0
M  V30 5710 H 523.979 -2.04691 -5.75268 0
M  V30 5711 H 525.393 -3.79252 -4.29931 0
M  V30 5712 H 523.79 -4.50784 -3.96124 0
M  V30 5713 H 524.86 -4.08513 -2.61238 0
M  V30 5714 N 526.204 0.969867 -1.24223 0
M  V30 5715 C 527.114 2.09806 -1.0497 0
M  V30 5716 C 528.13 1.73998 0.00886455 0
M  V30 5717 O 529.306 2.00513 -0.188848 0
M  V30 5718 C 526.371 3.40467 -0.654452 0
M  V30 5719 C 525.432 3.90236 -1.78926 0
M  V30 5720 C 524.665 5.14662 -1.41277 0
M  V30 5721 O 524.888 5.69602 -0.301632 0
M  V30 5722 O 523.822 5.58761 -2.23763 0
M  V30 5723 H 527.648 2.28942 -1.99548 0
M  V30 5724 H 525.233 1.08197 -1.03023 0
M  V30 5725 H 527.115 4.19039 -0.445452 0
M  V30 5726 H 525.79 3.22636 0.262216 0
M  V30 5727 H 524.697 3.12735 -2.05299 0
M  V30 5728 H 526.03 4.1254 -2.68462 0
M  V30 5729 N 527.682 1.05563 1.17022 0
M  V30 5730 C 528.929 0.767937 1.87374 0
M  V30 5731 C 529.257 -0.705224 1.81265 0
M  V30 5732 O 528.512 -1.5318 1.21796 0
M  V30 5733 C 528.811 1.19849 3.36706 0
M  V30 5734 C 528.477 2.6745 3.63017 0
M  V30 5735 C 527.139 3.0777 3.69907 0
M  V30 5736 C 529.491 3.62811 3.74189 0
M  V30 5737 C 526.819 4.42307 3.85463 0
M  V30 5738 C 529.171 4.97087 3.91264 0
M  V30 5739 C 527.835 5.37055 3.96394 0
M  V30 5740 H 527.105 0.281008 0.68565 0
M  V30 5741 H 529.752 1.32339 1.38415 0
M  V30 5742 H 528.057 0.562096 3.87747 0
M  V30 5743 H 529.754 0.953038 3.8951 0
M  V30 5744 H 526.344 2.35228 3.58282 0
M  V30 5745 H 530.528 3.32798 3.68183 0
M  V30 5746 H 525.784 4.72769 3.87684 0
M  V30 5747 H 529.958 5.70869 3.9885 0
M  V30 5748 H 527.585 6.41308 4.082 0
M  V30 5749 N 529.16 -1.33526 0.837174 0
M  V30 5750 C 530.123 -2.27551 0.274421 0
M  V30 5751 C 531.123 -1.50886 -0.555881 0
M  V30 5752 O 532.313 -1.70227 -0.369918 0
M  V30 5753 C 529.445 -3.35332 -0.613605 0
M  V30 5754 H 530.638 -2.78837 1.10408 0
M  V30 5755 H 528.191 -1.439 0.610126 0
M  V30 5756 H 528.926 -2.89285 -1.46577 0
M  V30 5757 H 528.711 -3.92095 -0.0195341 0
M  V30 5758 H 530.201 -4.05433 -1.00068 0
M  V30 5759 N 530.638 -0.59345 -1.46 0
M  V30 5760 C 531.884 -0.0832754 -2.02629 0
M  V30 5761 C 532.217 1.27749 -1.46266 0
M  V30 5762 O 531.492 1.8395 -0.631866 0
M  V30 5763 C 531.775 -0.0290756 -3.60088 0
M  V30 5764 C 531.628 -1.41951 -4.26814 0
M  V30 5765 C 532.947 0.666055 -4.35031 0
M  V30 5766 H 530.066 -0.031736 -0.736316 0
M  V30 5767 H 532.708 -0.762711 -1.74019 0
M  V30 5768 H 530.858 0.549532 -3.84594 0
M  V30 5769 H 532.53 -2.04411 -4.13538 0
M  V30 5770 H 530.773 -1.98422 -3.8576 0
M  V30 5771 H 531.444 -1.33395 -5.3564 0
M  V30 5772 H 533.92 0.174401 -4.15734 0
M  V30 5773 H 532.796 0.673041 -5.44758 0
M  V30 5774 H 533.057 1.72946 -4.06869 0
M  V30 5775 N 532.116 1.54067 -0.331816 0
M  V30 5776 C 533.046 2.27569 0.522932 0
M  V30 5777 C 534.027 1.28679 1.11247 0
M  V30 5778 O 535.212 1.57504 1.13605 0
M  V30 5779 C 532.342 3.0397 1.67987 0
M  V30 5780 C 531.296 4.10267 1.21924 0
M  V30 5781 C 530.622 4.74555 2.46377 0
M  V30 5782 C 531.922 5.21268 0.32815 0
M  V30 5783 H 533.616 2.99264 -0.0901977 0
M  V30 5784 H 531.162 1.4393 -0.044821 0
M  V30 5785 H 533.115 3.54123 2.28418 0
M  V30 5786 H 531.839 2.29906 2.31971 0
M  V30 5787 H 530.498 3.61009 0.637809 0
M  V30 5788 H 530.146 3.97098 3.08743 0
M  V30 5789 H 529.846 5.46363 2.16243 0
M  V30 5790 H 531.37 5.27487 3.07555 0
M  V30 5791 H 532.784 5.67128 0.838978 0
M  V30 5792 H 531.181 5.99982 0.119228 0
M  V30 5793 H 532.251 4.80673 -0.638839 0
M  V30 5794 N 533.594 0.0601682 1.57485 0
M  V30 5795 C 534.542 -0.928899 2.13247 0
M  V30 5796 C 535.536 -1.31616 1.06647 0
M  V30 5797 O 536.742 -1.29476 1.25043 0
M  V30 5798 H 533.117 -0.317455 0.681708 0
M  V30 5799 H 535.088 -0.433566 2.95233 0
M  V30 5800 C 533.837 -2.19121 2.69965 0
M  V30 5801 H 533.16 -1.90204 3.51657 0
M  V30 5802 H 534.6 -2.86465 3.12592 0
M  V30 5803 C 533.059 -2.94195 1.64168 0
M  V30 5804 O 533.589 -3.87468 1.05978 0
M  V30 5805 N 531.795 -2.57089 1.35476 0
M  V30 5806 H 531.342 -1.81314 1.82984 0
M  V30 5807 H 531.3 -3.07624 0.649196 0
M  V30 5808 N 535.072 -1.5615 -0.213296 0
M  V30 5809 C 536.319 -1.79546 -0.936462 0
M  V30 5810 C 536.647 -0.630337 -1.84003 0
M  V30 5811 O 535.902 0.384883 -1.91878 0
M  V30 5812 C 536.201 -3.08772 -1.79985 0
M  V30 5813 C 535.867 -4.38532 -1.04882 0
M  V30 5814 C 534.529 -4.73787 -0.841393 0
M  V30 5815 C 536.881 -5.18609 -0.51907 0
M  V30 5816 C 534.209 -5.86627 -0.0924403 0
M  V30 5817 C 536.561 -6.32229 0.216581 0
M  V30 5818 C 535.225 -6.6608 0.435191 0
M  V30 5819 H 534.495 -0.657004 -0.342676 0
M  V30 5820 H 537.142 -1.9041 -0.204051 0
M  V30 5821 H 535.447 -2.93065 -2.60038 0
M  V30 5822 H 537.144 -3.24077 -2.36168 0
M  V30 5823 H 533.734 -4.10855 -1.22048 0
M  V30 5824 H 537.918 -4.91801 -0.666775 0
M  V30 5825 H 533.174 -6.11338 0.087081 0
M  V30 5826 H 537.348 -6.93503 0.634538 0
M  V30 5827 H 534.975 -7.5336 1.01746 0
M  V30 5828 N 536.55 0.480323 -1.50102 0
M  V30 5829 C 537.48 1.58769 -1.71215 0
M  V30 5830 C 538.461 1.60583 -0.560997 0
M  V30 5831 O 539.646 1.76996 -0.799127 0
M  V30 5832 C 536.776 2.97148 -1.79778 0
M  V30 5833 C 535.73 3.10201 -2.94888 0
M  V30 5834 C 535.056 4.50137 -2.88584 0
M  V30 5835 C 536.356 2.88283 -4.35534 0
M  V30 5836 H 538.05 1.41354 -2.6393 0
M  V30 5837 H 535.596 0.678591 -1.27008 0
M  V30 5838 H 537.549 3.74536 -1.93133 0
M  V30 5839 H 536.273 3.15699 -0.836772 0
M  V30 5840 H 534.932 2.35244 -2.81169 0
M  V30 5841 H 534.58 4.65593 -1.90349 0
M  V30 5842 H 534.28 4.59808 -3.65856 0
M  V30 5843 H 535.804 5.29558 -3.03976 0
M  V30 5844 H 537.218 3.55427 -4.49827 0
M  V30 5845 H 535.615 3.09408 -5.14186 0
M  V30 5846 H 536.685 1.84219 -4.48544 0
M  V30 5847 N 538.028 1.39524 0.732853 0
M  V30 5848 C 539.277 1.36175 1.48792 0
M  V30 5849 C 539.59 -0.0388195 1.95561 0
M  V30 5850 O 540.796 -0.194899 2.708 0
M  V30 5851 C 539.252 2.39242 2.68871 0
M  V30 5852 C 538.86 3.85024 2.29042 0
M  V30 5853 C 540.604 2.44972 3.46683 0
M  V30 5854 C 538.511 4.79727 3.45856 0
M  V30 5855 H 537.441 0.506267 0.558757 0
M  V30 5856 H 540.092 1.65181 0.799226 0
M  V30 5857 H 538.474 2.0331 3.39825 0
M  V30 5858 H 539.648 4.30008 1.6562 0
M  V30 5859 H 537.963 3.82609 1.64316 0
M  V30 5860 H 540.56 3.12918 4.33574 0
M  V30 5861 H 540.903 1.4749 3.89297 0
M  V30 5862 H 541.436 2.79808 2.82759 0
M  V30 5863 H 538.175 5.78479 3.08289 0
M  V30 5864 H 537.695 4.39421 4.08251 0
M  V30 5865 H 539.374 4.98731 4.12161 0
M  V30 5866 N 539.506 -0.963266 1.24736 0
M  V30 5867 C 540.736 -1.73913 1.11524 0
M  V30 5868 C 541.144 -1.86218 -0.334612 0
M  V30 5869 O 540.487 -1.3531 -1.24245 0
M  V30 5870 C 540.549 -3.17501 1.68622 0
M  V30 5871 C 540.213 -3.28655 3.17546 0
M  V30 5872 C 541.21 -3.13637 4.14642 0
M  V30 5873 C 538.895 -3.52753 3.5759 0
M  V30 5874 C 540.889 -3.2255 5.49764 0
M  V30 5875 C 538.576 -3.61303 4.92852 0
M  V30 5876 C 539.574 -3.46214 5.88748 0
M  V30 5877 O 539.262 -3.5443 7.2155 0
M  V30 5878 H 538.994 -0.552057 0.390139 0
M  V30 5879 H 541.548 -1.2177 1.65412 0
M  V30 5880 H 539.778 -3.70969 1.09172 0
M  V30 5881 H 541.467 -3.76914 1.50635 0
M  V30 5882 H 542.233 -2.94899 3.85045 0
M  V30 5883 H 538.112 -3.63561 2.83451 0
M  V30 5884 H 541.656 -3.1069 6.24594 0
M  V30 5885 H 537.553 -3.79556 5.22118 0
M  V30 5886 H 538.321 -3.71116 7.29531 0
M  V30 5887 N 540.985 -1.06182 -1.16461 0
M  V30 5888 C 541.933 -0.665716 -2.2287 0
M  V30 5889 C 542.927 0.317822 -1.66392 0
M  V30 5890 O 544.133 0.182807 -1.79069 0
M  V30 5891 H 540.508 -0.197148 -0.725697 0
M  V30 5892 H 542.479 -1.57307 -2.53569 0
M  V30 5893 C 541.228 -0.0669803 -3.47635 0
M  V30 5894 H 540.551 -0.814899 -3.91407 0
M  V30 5895 H 541.991 0.172669 -4.23648 0
M  V30 5896 C 540.45 1.18913 -3.15216 0
M  V30 5897 O 540.98 2.27723 -3.30916 0
M  V30 5898 N 539.186 1.09066 -2.69357 0
M  V30 5899 H 538.733 0.20518 -2.56782 0
M  V30 5900 H 538.691 1.93195 -2.48039 0
M  V30 5901 N 542.463 1.3308 -0.844243 0
M  V30 5902 C 543.395 2.27954 -0.238671 0
M  V30 5903 C 544.408 1.51978 0.583665 0
M  V30 5904 O 545.597 1.73731 0.409857 0
M  V30 5905 C 542.697 3.31963 0.682185 0
M  V30 5906 C 541.87 4.37281 -0.101998 0
M  V30 5907 C 540.929 5.20928 0.743022 0
M  V30 5908 O 539.955 5.68914 0.180285 0
M  V30 5909 N 541.157 5.42738 2.0595 0
M  V30 5910 H 543.922 2.8056 -1.05386 0
M  V30 5911 H 541.483 1.4583 -0.70322 0
M  V30 5912 H 543.475 3.84828 1.25259 0
M  V30 5913 H 542.045 2.79594 1.39808 0
M  V30 5914 H 541.265 3.84843 -0.853802 0
M  V30 5915 H 542.553 5.04746 -0.641015 0
M  V30 5916 H 541.951 5.05463 2.54016 0
M  V30 5917 H 540.508 5.98639 2.57827 0
M  V30 5918 N 543.941 0.601185 1.45683 0
M  V30 5919 C 545.169 0.100054 2.06658 0
M  V30 5920 C 545.584 -1.21285 1.44691 0
M  V30 5921 O 544.941 -1.73735 0.558772 0
M  V30 5922 C 544.992 -0.0528579 3.61461 0
M  V30 5923 O 544.713 1.20809 4.21114 0
M  V30 5924 C 546.214 -0.586193 4.39407 0
M  V30 5925 H 543.434 0.065905 0.667756 0
M  V30 5926 H 545.978 0.827101 1.87028 0
M  V30 5927 H 544.133 -0.730203 3.80456 0
M  V30 5928 H 544.547 1.03368 5.14213 0
M  V30 5929 H 546.021 -0.642297 5.4825 0
M  V30 5930 H 546.498 -1.60713 4.0874 0
M  V30 5931 H 547.104 0.0568935 4.25262 0
M  V30 5932 N 545.419 -1.53889 0.339982 0
M  V30 5933 C 546.366 -2.24902 -0.518452 0
M  V30 5934 C 547.336 -1.24593 -1.09844 0
M  V30 5935 O 548.521 -1.53317 -1.13572 0
M  V30 5936 C 545.661 -3.02262 -1.66529 0
M  V30 5937 C 544.774 -4.17418 -1.11295 0
M  V30 5938 C 543.909 -4.82273 -2.2268 0
M  V30 5939 C 542.948 -5.89503 -1.6478 0
M  V30 5940 N 542.085 -6.48153 -2.69893 0
M  V30 5941 H 546.925 -2.97853 0.0936579 0
M  V30 5942 H 544.462 -1.46986 0.0579924 0
M  V30 5943 H 546.42 -3.45371 -2.3404 0
M  V30 5944 H 545.05 -2.31614 -2.24844 0
M  V30 5945 H 544.102 -3.78976 -0.328886 0
M  V30 5946 H 545.414 -4.94554 -0.649414 0
M  V30 5947 H 544.568 -5.28435 -2.98063 0
M  V30 5948 H 543.307 -4.04552 -2.72376 0
M  V30 5949 H 542.312 -5.42728 -0.879004 0
M  V30 5950 H 543.537 -6.6913 -1.1594 0
M  V30 5951 H 541.483 -5.73298 -3.1885 0
M  V30 5952 H 541.4 -7.20752 -2.28151 0
M  V30 5953 H 542.668 -6.98968 -3.45056 0
M  V30 5954 N 546.897 -0.0685191 -1.57451 0
M  V30 5955 C 547.86 0.885173 -2.11417 0
M  V30 5956 C 548.86 1.22853 -1.03748 0
M  V30 5957 O 550.05 1.16235 -1.2975 0
M  V30 5958 C 547.182 2.18964 -2.61281 0
M  V30 5959 H 548.375 0.417034 -2.96986 0
M  V30 5960 H 545.928 0.18014 -1.55258 0
M  V30 5961 H 546.663 2.70321 -1.79156 0
M  V30 5962 H 546.448 1.9534 -3.39977 0
M  V30 5963 H 547.938 2.87242 -3.0312 0
M  V30 5964 N 548.375 1.56261 0.205012 0
M  V30 5965 C 549.325 1.90155 1.25798 0
M  V30 5966 C 550.309 0.766227 1.41484 0
M  V30 5967 O 551.501 1.02893 1.44021 0
M  V30 5968 C 548.63 2.23603 2.60493 0
M  V30 5969 C 547.716 3.43568 2.48639 0
M  V30 5970 N 548.107 4.61747 2.06455 0
M  V30 5971 C 546.405 3.4751 2.79558 0
M  V30 5972 C 547.106 5.43907 2.06253 0
M  V30 5973 N 546.082 4.84051 2.47377 0
M  V30 5974 H 549.884 2.79031 0.922986 0
M  V30 5975 H 547.398 1.57048 0.413501 0
M  V30 5976 H 549.395 2.46067 3.36537 0
M  V30 5977 H 548.055 1.36049 2.94823 0
M  V30 5978 H 549.066 4.86598 1.77321 0
M  V30 5979 H 545.743 2.70345 3.18151 0
M  V30 5980 H 547.133 6.48542 1.75622 0
M  V30 5981 N 549.853 -0.472356 1.50355 0
M  V30 5982 C 550.816 -1.5529 1.68576 0
M  V30 5983 C 551.816 -1.50863 0.556511 0
M  V30 5984 O 553.006 -1.53505 0.823516 0
M  V30 5985 C 550.138 -2.94921 1.70981 0
M  V30 5986 H 551.331 -1.40451 2.64978 0
M  V30 5987 H 548.884 -0.698645 1.39816 0
M  V30 5988 H 549.619 -3.15204 0.762675 0
M  V30 5989 H 549.404 -2.99541 2.53017 0
M  V30 5990 H 550.894 -3.73372 1.87037 0
M  V30 5991 N 551.331 -1.39911 -0.725443 0
M  V30 5992 C 552.556 -1.41137 -1.5197 0
M  V30 5993 C 552.981 -0.010262 -1.88097 0
M  V30 5994 O 552.339 0.979184 -1.52583 0
M  V30 5995 C 552.387 -2.2994 -2.77777 0
M  V30 5996 O 551.491 -1.73586 -3.74088 0
M  V30 5997 H 550.832 -0.480219 -0.458569 0
M  V30 5998 H 553.362 -1.84023 -0.894249 0
M  V30 5999 H 553.372 -2.44785 -3.26411 0
M  V30 6000 H 552.047 -3.31759 -2.50816 0
M  V30 6001 H 550.624 -1.68035 -3.32894 0
M  V30 6002 N 552.809 0.956637 -1.25245 0
M  V30 6003 C 554.22 1.51569 -1.09012 0
M  V30 6004 C 554.571 1.93322 0.334813 0
M  V30 6005 O 553.696 1.78421 1.22454 0
M  V30 6006 C 554.291 2.75444 -1.97271 0
M  V30 6007 C 552.85 3.27669 -1.8523 0
M  V30 6008 C 551.997 2.00517 -1.91542 0
M  V30 6009 H 554.948 0.773746 -1.3856 0
M  V30 6010 H 554.969 3.4919 -1.51151 0
M  V30 6011 H 554.481 2.45024 -3.00973 0
M  V30 6012 H 552.582 3.62914 -0.844045 0
M  V30 6013 H 552.695 3.9582 -2.69932 0
M  V30 6014 H 551.059 2.15727 -1.35404 0
M  V30 6015 H 551.842 1.72448 -2.96844 0
M  V30 6016 N 554.287 1.06798 1.15896 0
M  V30 6017 C 555.234 0.683314 2.20453 0
M  V30 6018 C 556.204 -0.32255 1.62938 0
M  V30 6019 O 557.389 -0.210276 1.89638 0
M  V30 6020 C 554.529 0.0813266 3.45004 0
M  V30 6021 C 553.642 1.13799 4.16742 0
M  V30 6022 C 552.777 0.501598 5.28826 0
M  V30 6023 C 551.816 1.54144 5.92373 0
M  V30 6024 N 550.953 0.928038 6.9594 0
M  V30 6025 H 555.793 1.57932 2.52708 0
M  V30 6026 H 553.33 0.789544 1.24115 0
M  V30 6027 H 555.288 -0.285274 4.16224 0
M  V30 6028 H 553.918 -0.77806 3.13283 0
M  V30 6029 H 552.97 1.62223 3.44075 0
M  V30 6030 H 554.282 1.92664 4.60089 0
M  V30 6031 H 553.436 0.0823162 6.06644 0
M  V30 6032 H 552.175 -0.318883 4.86656 0
M  V30 6033 H 551.18 1.97056 5.13273 0
M  V30 6034 H 552.405 2.3641 6.36621 0
M  V30 6035 H 550.351 0.12836 6.55874 0
M  V30 6036 H 550.268 1.65401 7.37685 0
M  V30 6037 H 551.536 0.534071 7.77668 0
M  V30 6038 N 555.766 -1.3263 0.851289 0
M  V30 6039 C 556.696 -2.31449 0.308771 0
M  V30 6040 C 557.677 -1.59531 -0.590255 0
M  V30 6041 O 558.862 -1.87351 -0.511205 0
M  V30 6042 C 555.992 -3.43586 -0.506548 0
M  V30 6043 C 554.946 -4.26963 0.297753 0
M  V30 6044 C 554.272 -5.30831 -0.642094 0
M  V30 6045 C 555.572 -4.99643 1.52166 0
M  V30 6046 H 557.266 -2.77074 1.13447 0
M  V30 6047 H 554.812 -1.33207 0.546971 0
M  V30 6048 H 556.765 -4.11754 -0.896474 0
M  V30 6049 H 555.489 -2.96681 -1.36558 0
M  V30 6050 H 554.148 -3.60437 0.669391 0
M  V30 6051 H 553.796 -4.8018 -1.49788 0
M  V30 6052 H 553.496 -5.87501 -0.107968 0
M  V30 6053 H 555.02 -6.01862 -1.02927 0
M  V30 6054 H 556.434 -5.6051 1.20421 0
M  V30 6055 H 554.831 -5.66022 1.99347 0
M  V30 6056 H 555.901 -4.27701 2.28474 0
M  V30 6057 N 557.244 -0.608902 -1.45362 0
M  V30 6058 C 558.66 -0.272659 -1.57254 0
M  V30 6059 C 558.86 1.22477 -1.60005 0
M  V30 6060 O 557.916 2.00785 -1.53106 0
M  V30 6061 C 559.229 -0.944991 -2.85465 0
M  V30 6062 C 560.777 -0.921033 -2.99142 0
M  V30 6063 C 561.252 -1.5734 -4.30126 0
M  V30 6064 N 562.743 -1.53895 -4.36887 0
M  V30 6065 C 563.478 -2.01286 -5.36909 0
M  V30 6066 N 562.974 -2.56768 -6.43461 0
M  V30 6067 N 564.767 -1.92046 -5.28275 0
M  V30 6068 H 556.918 -1.58117 -1.4182 0
M  V30 6069 H 559.181 -0.662437 -0.678146 0
M  V30 6070 H 558.887 -1.99941 -2.89338 0
M  V30 6071 H 558.761 -0.469079 -3.74272 0
M  V30 6072 H 561.148 0.124846 -2.94836 0
M  V30 6073 H 561.229 -1.43522 -2.11743 0
M  V30 6074 H 560.873 -2.61862 -4.35191 0
M  V30 6075 H 560.803 -1.03422 -5.16344 0
M  V30 6076 H 563.294 -1.13366 -3.60495 0
M  V30 6077 H 563.607 -2.9072 -7.16032 0
M  V30 6078 H 561.952 -2.60808 -6.44208 0
M  V30 6079 H 565.143 -1.48439 -4.43941 0
M  V30 6080 H 565.316 -2.29293 -6.06077 0
M  V30 6081 N 558.722 1.53707 -0.348139 0
M  V30 6082 C 559.672 2.2193 0.522592 0
M  V30 6083 C 560.656 1.20831 1.06248 0
M  V30 6084 O 561.848 1.46357 0.995415 0
M  V30 6085 C 558.977 2.99904 1.6707 0
M  V30 6086 C 558.063 4.08364 1.14454 0
M  V30 6087 N 558.454 5.04656 0.339958 0
M  V30 6088 C 556.752 4.22757 1.421 0
M  V30 6089 C 557.453 5.81675 0.0538806 0
M  V30 6090 N 556.429 5.39739 0.646776 0
M  V30 6091 H 560.231 2.93733 -0.099135 0
M  V30 6092 H 557.745 1.61656 -0.15524 0
M  V30 6093 H 559.742 3.47284 2.30651 0
M  V30 6094 H 558.402 2.29629 2.29566 0
M  V30 6095 H 559.413 5.17896 -0.0193552 0
M  V30 6096 H 556.09 3.63704 2.05002 0
M  V30 6097 H 557.48 6.69256 -0.595443 0
M  V30 6098 N 560.2 0.0768682 1.57412 0
M  V30 6099 C 561.611 -0.455037 1.8107 0
M  V30 6100 C 561.962 -1.69323 0.991162 0
M  V30 6101 O 561.087 -2.15328 0.215156 0
M  V30 6102 C 561.682 -0.832316 3.28417 0
M  V30 6103 C 560.241 -1.30906 3.52903 0
M  V30 6104 C 559.388 -0.296714 2.75708 0
M  V30 6105 H 562.339 0.302514 1.5579 0
M  V30 6106 H 562.36 -1.69333 3.40744 0
M  V30 6107 H 561.872 0.0690532 3.88039 0
M  V30 6108 H 559.973 -2.22875 2.98592 0
M  V30 6109 H 560.086 -1.28348 4.61588 0
M  V30 6110 H 558.45 -0.775059 2.42621 0
M  V30 6111 H 559.233 0.597015 3.38069 0
M  V30 6112 N 561.678 -1.56367 -0.196722 0
M  V30 6113 C 563.094 -1.49916 -0.54749 0
M  V30 6114 C 563.294 -0.77659 -1.85934 0
M  V30 6115 O 562.35 -0.32644 -2.50381 0
M  V30 6116 C 563.663 -2.94577 -0.603734 0
M  V30 6117 C 565.211 -3.05239 -0.692677 0
M  V30 6118 C 565.686 -4.51308 -0.780046 0
M  V30 6119 N 567.177 -4.55453 -0.843616 0
M  V30 6120 C 567.912 -5.65786 -0.931358 0
M  V30 6121 N 567.408 -6.85812 -0.981503 0
M  V30 6122 N 569.201 -5.53695 -0.968421 0
M  V30 6123 H 561.352 -2.01761 0.663803 0
M  V30 6124 H 563.615 -0.918094 0.236238 0
M  V30 6125 H 563.321 -3.50494 0.29105 0
M  V30 6126 H 563.195 -3.47841 -1.45898 0
M  V30 6127 H 565.582 -2.49372 -1.57789 0
M  V30 6128 H 565.663 -2.55103 0.188736 0
M  V30 6129 H 565.307 -5.078 0.100811 0
M  V30 6130 H 565.237 -4.99176 -1.67724 0
M  V30 6131 H 567.728 -3.69025 -0.814176 0
M  V30 6132 H 568.041 -7.65648 -1.04892 0
M  V30 6133 H 566.386 -6.88474 -0.950208 0
M  V30 6134 H 569.577 -4.58848 -0.926072 0
M  V30 6135 H 569.75 -6.39708 -1.03334 0
M  V30 6136 N 563.156 0.464375 -1.50603 0
M  V30 6137 C 564.405 1.21277 -1.61167 0
M  V30 6138 C 564.718 1.92953 -0.320704 0
M  V30 6139 O 565.924 2.69778 -0.30534 0
M  V30 6140 C 564.38 2.20403 -2.84518 0
M  V30 6141 C 563.988 1.54499 -4.20516 0
M  V30 6142 C 565.732 2.95843 -3.0443 0
M  V30 6143 C 563.639 2.51951 -5.35047 0
M  V30 6144 H 562.569 0.456367 -0.600204 0
M  V30 6145 H 565.22 0.48254 -1.77042 0
M  V30 6146 H 563.602 2.96746 -2.62217 0
M  V30 6147 H 564.776 0.83899 -4.53098 0
M  V30 6148 H 563.091 0.913152 -4.06264 0
M  V30 6149 H 565.688 3.6879 -3.87167 0
M  V30 6150 H 566.031 3.55622 -2.16423 0
M  V30 6151 H 566.564 2.26611 -3.26944 0
M  V30 6152 H 563.303 1.96901 -6.25228 0
M  V30 6153 H 562.823 3.20683 -5.06875 0
M  V30 6154 H 564.502 3.13643 -5.65895 0
M  V30 6155 N 564.634 1.40294 0.718013 0
M  V30 6156 C 565.582 1.40536 1.85344 0
M  V30 6157 C 566.576 0.286192 1.66965 0
M  V30 6158 O 567.782 0.457105 1.74099 0
M  V30 6159 H 564.157 0.439236 0.61039 0
M  V30 6160 H 566.128 2.36275 1.82255 0
M  V30 6161 C 564.877 1.28245 3.23185 0
M  V30 6162 H 564.2 2.1364 3.37932 0
M  V30 6163 H 565.64 1.32474 4.02774 0
M  V30 6164 C 564.099 -0.0075503 3.36899 0
M  V30 6165 O 564.629 -0.971391 3.89778 0
M  V30 6166 N 562.835 -0.0762479 2.905 0
M  V30 6167 H 562.382 0.708819 2.47656 0
M  V30 6168 H 562.34 -0.938846 3.00055 0
M  V30 6169 N 566.112 -0.949982 1.2575 0
M  V30 6170 C 567.337 -1.73503 1.13628 0
M  V30 6171 C 567.762 -1.85601 -0.30559 0
M  V30 6172 O 567.12 -1.33984 -1.22139 0
M  V30 6173 C 567.168 -3.1243 1.80055 0
M  V30 6174 O 566.272 -3.97916 1.08336 0
M  V30 6175 H 565.613 -0.532665 0.396439 0
M  V30 6176 H 568.143 -1.19043 1.66403 0
M  V30 6177 H 568.153 -3.62866 1.86527 0
M  V30 6178 H 566.828 -3.02941 2.84956 0
M  V30 6179 H 565.405 -3.56375 1.09777 0
M  V30 6180 N 567.59 -1.07411 -1.15328 0
M  V30 6181 C 569.006 -0.799759 -1.38116 0
M  V30 6182 C 569.206 0.59572 -1.92493 0
M  V30 6183 O 568.262 1.35433 -2.13106 0
M  V30 6184 C 569.575 -1.87407 -2.35158 0
M  V30 6185 C 571.123 -1.89889 -2.48819 0
M  V30 6186 C 571.598 -2.96406 -3.49153 0
M  V30 6187 N 573.089 -2.95512 -3.56689 0
M  V30 6188 C 573.824 -3.74575 -4.34144 0
M  V30 6189 N 573.32 -4.63488 -5.14928 0
M  V30 6190 N 575.113 -3.62919 -4.29239 0
M  V30 6191 H 567.264 -1.97411 -0.78374 0
M  V30 6192 H 569.527 -0.856113 -0.407154 0
M  V30 6193 H 569.233 -2.8768 -2.0232 0
M  V30 6194 H 569.107 -1.73471 -3.34944 0
M  V30 6195 H 571.494 -0.902677 -2.80955 0
M  V30 6196 H 571.575 -2.07904 -1.49029 0
M  V30 6197 H 571.219 -3.96227 -3.17752 0
M  V30 6198 H 571.149 -2.75638 -4.48699 0
M  V30 6199 H 573.64 -2.31061 -2.99031 0
M  V30 6200 H 573.953 -5.20445 -5.71276 0
M  V30 6201 H 572.298 -4.67537 -5.14232 0
M  V30 6202 H 575.489 -2.92833 -3.65194 0
M  V30 6203 H 575.662 -4.24777 -4.89355 0
M  V30 6204 N 569.068 1.32177 -0.85831 0
M  V30 6205 C 570.031 2.27086 -0.310588 0
M  V30 6206 C 571.031 1.51751 0.531806 0
M  V30 6207 O 572.221 1.70794 0.34279 0
M  V30 6208 C 569.353 3.36266 0.560179 0
M  V30 6209 H 570.546 2.77045 -1.1483 0
M  V30 6210 H 568.099 1.42911 -0.632942 0
M  V30 6211 H 568.834 2.9158 1.41956 0
M  V30 6212 H 568.619 3.92077 -0.0428473 0
M  V30 6213 H 570.109 4.06974 0.936056 0
M  V30 6214 N 570.547 0.616602 1.45037 0
M  V30 6215 C 571.497 -0.118543 2.27692 0
M  V30 6216 C 572.481 -0.830025 1.37838 0
M  V30 6217 O 573.673 -0.718528 1.6176 0
M  V30 6218 C 570.802 -1.10924 3.24886 0
M  V30 6219 C 569.888 -0.398134 4.22227 0
M  V30 6220 N 570.279 0.565233 5.02632 0
M  V30 6221 C 568.577 -0.644506 4.41319 0
M  V30 6222 C 569.278 0.984043 5.73316 0
M  V30 6223 N 568.254 0.325879 5.42622 0
M  V30 6224 H 572.056 0.621239 2.87259 0
M  V30 6225 H 569.57 0.440968 1.56299 0
M  V30 6226 H 571.567 -1.65038 3.82842 0
M  V30 6227 H 570.227 -1.84948 2.66879 0
M  V30 6228 H 571.238 0.942395 5.09254 0
M  V30 6229 H 567.915 -1.36873 3.94426 0
M  V30 6230 H 569.305 1.77911 6.47918 0
M  V30 6231 N 572.025 -1.5352 0.356285 0
M  V30 6232 C 572.988 -2.24071 -0.482182 0
M  V30 6233 C 573.988 -1.24531 -1.01729 0
M  V30 6234 O 575.178 -1.48876 -0.904513 0
M  V30 6235 C 572.31 -2.97025 -1.67299 0
M  V30 6236 H 573.503 -2.99596 0.135031 0
M  V30 6237 H 571.056 -1.55928 0.107825 0
M  V30 6238 H 571.791 -2.25719 -2.32855 0
M  V30 6239 H 571.576 -3.7005 -1.29636 0
M  V30 6240 H 573.066 -3.50683 -2.26741 0
M  V30 6241 N 573.503 -0.0852151 -1.57369 0
M  V30 6242 C 574.919 0.271436 -1.57275 0
M  V30 6243 C 575.119 1.69109 -1.09565 0
M  V30 6244 O 574.175 2.40549 -0.767611 0
M  V30 6245 C 575.488 0.0688638 -3.00621 0
M  V30 6246 C 577.036 0.137373 -3.12698 0
M  V30 6247 C 577.511 -0.0370832 -4.57985 0
M  V30 6248 N 579.002 0.0180794 -4.63196 0
M  V30 6249 C 579.737 -0.0922953 -5.73326 0
M  V30 6250 N 579.233 -0.256948 -6.92323 0
M  V30 6251 N 581.026 -0.0342702 -5.6209 0
M  V30 6252 H 573.177 -1.01288 -1.86693 0
M  V30 6253 H 575.44 -0.396138 -0.861266 0
M  V30 6254 H 575.146 -0.911277 -3.39689 0
M  V30 6255 H 575.02 0.815442 -3.6828 0
M  V30 6256 H 577.407 1.10801 -2.73509 0
M  V30 6257 H 577.488 -0.640532 -2.47651 0
M  V30 6258 H 577.132 -1.00455 -4.97867 0
M  V30 6259 H 577.062 0.760392 -5.21081 0
M  V30 6260 H 579.553 0.143202 -3.77629 0
M  V30 6261 H 579.866 -0.332949 -7.72082 0
M  V30 6262 H 578.211 -0.292487 -6.94384 0
M  V30 6263 H 581.402 0.0931605 -4.68007 0
M  V30 6264 H 581.575 -0.12374 -6.47882 0
M  V30 6265 N 574.981 1.5647 0.188427 0
M  V30 6266 C 576.209 1.85131 0.923803 0
M  V30 6267 C 576.624 0.668537 1.76567 0
M  V30 6268 O 575.981 -0.362662 1.7886 0
M  V30 6269 C 576.032 3.12661 1.81453 0
M  V30 6270 O 575.753 4.26378 1.00665 0
M  V30 6271 C 577.254 3.54548 2.66103 0
M  V30 6272 H 574.474 0.614624 0.269218 0
M  V30 6273 H 577.018 2.03581 0.193671 0
M  V30 6274 H 575.173 2.96088 2.49821 0
M  V30 6275 H 575.587 4.99041 1.61425 0
M  V30 6276 H 577.061 4.4673 3.24247 0
M  V30 6277 H 577.538 2.77853 3.40139 0
M  V30 6278 H 578.144 3.73674 2.03096 0
M  V30 6279 N 576.459 -0.456382 1.50847 0
M  V30 6280 C 577.875 -0.791345 1.386 0
M  V30 6281 C 578.075 -1.9633 0.453498 0
M  V30 6282 O 577.131 -2.52308 -0.0984353 0
M  V30 6283 C 578.444 -1.08959 2.80265 0
M  V30 6284 C 579.992 -1.19517 2.89283 0
M  V30 6285 C 580.467 -1.52647 4.31814 0
M  V30 6286 N 581.958 -1.59609 4.34832 0
M  V30 6287 C 582.693 -1.86777 5.42127 0
M  V30 6288 N 582.189 -2.11866 6.59609 0
M  V30 6289 N 583.982 -1.88402 5.29586 0
M  V30 6290 H 576.133 0.315746 2.1004 0
M  V30 6291 H 578.396 0.0787916 0.94472 0
M  V30 6292 H 578.102 -0.301355 3.50407 0
M  V30 6293 H 577.976 -2.02211 3.18419 0
M  V30 6294 H 580.363 -1.97406 2.19351 0
M  V30 6295 H 580.444 -0.242111 2.54652 0
M  V30 6296 H 580.088 -0.752922 5.02288 0
M  V30 6297 H 580.018 -2.49127 4.63943 0
M  V30 6298 H 582.509 -1.42201 3.50125 0
M  V30 6299 H 582.822 -2.31912 7.37182 0
M  V30 6300 H 581.167 -2.09228 6.62758 0
M  V30 6301 H 584.358 -1.68307 4.36795 0
M  V30 6302 H 584.531 -2.09238 6.13289 0
M  V30 6303 N 577.937 -1.40673 -0.710563 0
M  V30 6304 C 578.9 -1.4108 -1.80635 0
M  V30 6305 C 579.9 -0.303783 -1.57904 0
M  V30 6306 O 581.09 -0.562937 -1.64853 0
M  V30 6307 C 578.222 -1.20748 -3.18799 0
M  V30 6308 H 579.415 -2.38612 -1.81671 0
M  V30 6309 H 576.968 -1.26595 -0.916704 0
M  V30 6310 H 577.703 -0.239964 -3.23411 0
M  V30 6311 H 577.488 -2.00941 -3.36698 0
M  V30 6312 H 578.978 -1.23833 -3.98817 0
M  V30 6313 N 579.415 0.9433 -1.26252 0
M  V30 6314 C 580.831 1.21644 -1.03319 0
M  V30 6315 C 581.031 2.0003 0.242983 0
M  V30 6316 O 580.087 2.33838 0.952688 0
M  V30 6317 C 581.4 1.97978 -2.2633 0
M  V30 6318 C 582.948 2.10978 -2.31209 0
M  V30 6319 C 583.423 2.90713 -3.53907 0
M  V30 6320 N 584.914 2.98287 -3.54371 0
M  V30 6321 C 585.649 3.60406 -4.45976 0
M  V30 6322 N 585.145 4.24043 -5.47868 0
M  V30 6323 N 586.938 3.57658 -4.33633 0
M  V30 6324 H 579.089 0.419221 -2.08222 0
M  V30 6325 H 581.352 0.247995 -0.914988 0
M  V30 6326 H 581.058 1.47788 -3.19142 0
M  V30 6327 H 580.932 2.9865 -2.30408 0
M  V30 6328 H 583.319 2.6036 -1.38913 0
M  V30 6329 H 583.4 1.09575 -2.31143 0
M  V30 6330 H 583.044 2.42018 -4.46531 0
M  V30 6331 H 582.974 3.92367 -3.5122 0
M  V30 6332 H 585.465 2.53044 -2.80673 0
M  V30 6333 H 585.778 4.69334 -6.13959 0
M  V30 6334 H 584.123 4.22637 -5.51728 0
M  V30 6335 H 587.314 3.07134 -3.53251 0
M  V30 6336 H 587.487 4.05782 -5.05218 0
M  V30 6337 N 580.893 1.08022 1.14757 0
M  V30 6338 C 582.118 0.82895 1.90114 0
M  V30 6339 C 582.543 -0.612772 1.77839 0
M  V30 6340 O 581.901 -1.42895 1.11583 0
M  V30 6341 C 581.949 1.25062 3.38219 0
M  V30 6342 O 581.053 0.400119 4.10454 0
M  V30 6343 H 580.394 0.301412 0.591648 0
M  V30 6344 H 582.924 1.44062 1.45284 0
M  V30 6345 H 582.934 1.22977 3.89025 0
M  V30 6346 H 581.609 2.30067 3.46471 0
M  V30 6347 H 580.186 0.484052 3.69745 0
M  V30 6348 N 582.371 -1.3172 0.865308 0
M  V30 6349 C 583.787 -1.4958 0.556596 0
M  V30 6350 C 583.987 -1.79763 -0.910353 0
M  V30 6351 O 583.043 -1.87351 -1.6928 0
M  V30 6352 C 584.356 -2.63277 1.45279 0
M  V30 6353 C 585.904 -2.77161 1.45433 0
M  V30 6354 C 586.379 -3.93949 2.33598 0
M  V30 6355 N 587.87 -4.01228 2.31453 0
M  V30 6356 C 588.605 -4.90855 2.96393 0
M  V30 6357 N 588.101 -5.85416 3.70486 0
M  V30 6358 N 589.894 -4.84063 2.85726 0
M  V30 6359 H 582.045 -1.10396 1.81456 0
M  V30 6360 H 584.308 -0.54507 0.775631 0
M  V30 6361 H 584.014 -2.47734 2.49641 0
M  V30 6362 H 583.888 -3.59309 1.14792 0
M  V30 6363 H 586.275 -2.9212 0.41831 0
M  V30 6364 H 586.356 -1.8181 1.79941 0
M  V30 6365 H 586 -3.79748 3.37274 0
M  V30 6366 H 585.93 -4.88598 1.96417 0
M  V30 6367 H 588.421 -3.3357 1.77593 0
M  V30 6368 H 588.734 -6.50525 4.17178 0
M  V30 6369 H 587.079 -5.85409 3.74594 0
M  V30 6370 H 590.27 -4.09163 2.27384 0
M  V30 6371 H 590.443 -5.53708 3.36617 0
M  V30 6372 N 583.85 -0.624285 -1.44708 0
M  V30 6373 C 584.812 0.0749638 -2.29077 0
M  V30 6374 C 585.812 0.778965 -1.40673 0
M  V30 6375 O 587.003 0.624591 -1.62618 0
M  V30 6376 C 584.135 1.11663 -3.22094 0
M  V30 6377 H 585.327 -0.667013 -2.92388 0
M  V30 6378 H 582.88 -0.384098 -1.51507 0
M  V30 6379 H 583.615 1.88881 -2.63618 0
M  V30 6380 H 583.401 0.61583 -3.87234 0
M  V30 6381 H 584.891 1.60585 -3.8549 0
M  V30 6382 N 585.328 1.53329 -0.364422 0
M  V30 6383 C 586.568 2.0315 0.22572 0
M  V30 6384 C 586.932 1.24589 1.46087 0
M  V30 6385 O 588.133 1.64411 2.12656 0
M  V30 6386 C 586.404 3.53718 0.511663 0
M  V30 6387 S 587.963 4.25412 1.07564 0
M  V30 6388 H 584.781 0.70795 0.0657843 0
M  V30 6389 H 587.383 1.88811 -0.507019 0
M  V30 6390 H 586.087 4.08497 -0.394784 0
M  V30 6391 H 585.618 3.72217 1.27351 0
M  V30 6392 H 587.633 4.36486 2.35997 0
M  V30 6393 N 586.806 0.0935595 1.57322 0
M  V30 6394 C 587.769 -0.851426 2.12799 0
M  V30 6395 C 588.769 -1.21187 1.0569 0
M  V30 6396 O 589.959 -1.14156 1.31583 0
M  V30 6397 C 587.091 -2.14779 2.64731 0
M  V30 6398 H 588.284 -0.369733 2.97612 0
M  V30 6399 H 585.837 -0.155417 1.55525 0
M  V30 6400 H 586.572 -2.67437 1.83434 0
M  V30 6401 H 586.357 -1.89907 3.43042 0
M  V30 6402 H 587.847 -2.82383 3.07651 0
M  V30 6403 N 588.284 -1.56567 -0.180126 0
M  V30 6404 C 589.7 -1.50488 -0.531559 0
M  V30 6405 C 589.9 -0.796267 -1.851 0
M  V30 6406 O 588.956 -0.352978 -2.50021 0
M  V30 6407 C 590.269 -2.95201 -0.572456 0
M  V30 6408 C 591.817 -3.05957 -0.660264 0
M  V30 6409 C 592.292 -4.5211 -0.732135 0
M  V30 6410 N 593.783 -4.56322 -0.795262 0
M  V30 6411 C 594.518 -5.66742 -0.871296 0
M  V30 6412 N 594.014 -6.86815 -0.908708 0
M  V30 6413 N 595.807 -5.54691 -0.909639 0
M  V30 6414 H 587.958 -2.01045 0.685165 0
M  V30 6415 H 590.221 -0.915536 0.245962 0
M  V30 6416 H 589.927 -3.50165 0.328208 0
M  V30 6417 H 589.801 -3.49369 -1.422 0
M  V30 6418 H 592.188 -2.51032 -1.55136 0
M  V30 6419 H 592.269 -2.54888 0.215783 0
M  V30 6420 H 591.913 -5.07664 0.154664 0
M  V30 6421 H 591.843 -5.00926 -1.6242 0
M  V30 6422 H 594.334 -3.69868 -0.77499 0
M  V30 6423 H 594.647 -7.66718 -0.967654 0
M  V30 6424 H 592.992 -6.89443 -0.877132 0
M  V30 6425 H 596.183 -4.59804 -0.877353 0
M  V30 6426 H 596.356 -6.40768 -0.965434 0
M  V30 6427 N 589.762 0.448376 -1.51087 0
M  V30 6428 C 590.694 1.56146 -1.67783 0
M  V30 6429 C 591.707 1.52913 -0.55871 0
M  V30 6430 O 592.896 1.57889 -0.83267 0
M  V30 6431 C 589.996 2.95057 -1.66716 0
M  V30 6432 C 589.169 3.22915 -2.95033 0
M  V30 6433 C 588.228 4.41495 -2.86302 0
M  V30 6434 O 587.254 4.40688 -3.60254 0
M  V30 6435 N 588.456 5.44443 -2.014 0
M  V30 6436 H 591.221 1.42232 -2.638 0
M  V30 6437 H 588.782 0.637153 -1.48835 0
M  V30 6438 H 590.774 3.72388 -1.58458 0
M  V30 6439 H 589.344 3.02624 -0.783403 0
M  V30 6440 H 588.564 2.33985 -3.17245 0
M  V30 6441 H 589.852 3.38349 -3.79996 0
M  V30 6442 H 589.25 5.4793 -1.40674 0
M  V30 6443 H 587.807 6.2067 -1.99029 0
M  V30 6444 N 591.24 1.41047 0.703093 0
M  V30 6445 C 592.19 1.38774 1.80903 0
M  V30 6446 C 593.174 0.263275 1.58731 0
M  V30 6447 O 594.366 0.503362 1.69692 0
M  V30 6448 C 591.495 1.26497 3.19145 0
M  V30 6449 C 590.581 2.43775 3.47037 0
M  V30 6450 N 590.972 3.69249 3.45672 0
M  V30 6451 C 589.27 2.37425 3.77552 0
M  V30 6452 C 589.971 4.46989 3.72258 0
M  V30 6453 N 588.947 3.76998 3.91629 0
M  V30 6454 H 592.749 2.33714 1.78199 0
M  V30 6455 H 590.263 1.34996 0.902762 0
M  V30 6456 H 592.26 1.2295 3.98358 0
M  V30 6457 H 590.92 0.32534 3.23066 0
M  V30 6458 H 591.931 4.02239 3.26228 0
M  V30 6459 H 588.608 1.51895 3.88888 0
M  V30 6460 H 589.998 5.55894 3.77402 0
M  V30 6461 N 592.718 -0.936591 1.26751 0
M  V30 6462 C 593.65 -2.03991 1.045 0
M  V30 6463 C 594.663 -1.628 0.00394261 0
M  V30 6464 O 595.852 -1.76817 0.244526 0
M  V30 6465 C 592.952 -3.34218 0.561403 0
M  V30 6466 C 592.125 -4.04151 1.67274 0
M  V30 6467 C 591.184 -5.12651 1.1864 0
M  V30 6468 O 590.21 -5.37104 1.88437 0
M  V30 6469 N 591.412 -5.80488 0.037278 0
M  V30 6470 H 594.177 -2.23644 1.99508 0
M  V30 6471 H 591.738 -1.10638 1.18198 0
M  V30 6472 H 593.73 -4.04101 0.220136 0
M  V30 6473 H 592.3 -3.11203 -0.295211 0
M  V30 6474 H 591.52 -3.28121 2.18472 0
M  V30 6475 H 592.808 -4.47626 2.41885 0
M  V30 6476 H 592.206 -5.63064 -0.545494 0
M  V30 6477 H 590.763 -6.5134 -0.244877 0
M  V30 6478 N 594.196 -1.08629 -1.14182 0
M  V30 6479 C 595.106 -0.730126 -2.22949 0
M  V30 6480 C 596.122 0.26436 -1.7198 0
M  V30 6481 O 597.298 0.107742 -2.01112 0
M  V30 6482 C 594.363 -0.147227 -3.46387 0
M  V30 6483 C 593.424 -1.19662 -4.12286 0
M  V30 6484 C 592.657 -0.641437 -5.29831 0
M  V30 6485 O 592.88 0.538351 -5.67854 0
M  V30 6486 O 591.814 -1.39257 -5.85569 0
M  V30 6487 H 595.64 -1.63753 -2.55771 0
M  V30 6488 H 593.225 -0.860118 -1.22157 0
M  V30 6489 H 595.107 0.174923 -4.21037 0
M  V30 6490 H 593.782 0.733304 -3.15285 0
M  V30 6491 H 592.689 -1.57133 -3.395 0
M  V30 6492 H 594.022 -2.0495 -4.475 0
M  V30 6493 N 595.674 1.31259 -0.872281 0
M  V30 6494 C 596.637 2.26744 -0.334656 0
M  V30 6495 C 597.637 1.52307 0.515681 0
M  V30 6496 O 598.827 1.71148 0.324656 0
M  V30 6497 C 595.959 3.36841 0.524482 0
M  V30 6498 H 597.152 2.75812 -1.17762 0
M  V30 6499 H 594.705 1.42232 -0.648064 0
M  V30 6500 H 595.44 2.93069 1.38855 0
M  V30 6501 H 595.225 3.92009 -0.0844299 0
M  V30 6502 H 596.715 4.07944 0.892838 0
M  V30 6503 N 597.152 0.631951 1.44375 0
M  V30 6504 C 598.399 0.136767 2.02038 0
M  V30 6505 C 598.727 -1.24168 1.49709 0
M  V30 6506 O 597.982 -1.83809 0.671763 0
M  V30 6507 C 598.281 0.0735861 3.57324 0
M  V30 6508 C 597.947 1.39092 4.28911 0
M  V30 6509 C 596.609 1.75171 4.48184 0
M  V30 6510 C 598.961 2.26042 4.69632 0
M  V30 6511 C 596.289 2.97907 5.05439 0
M  V30 6512 C 598.641 3.4805 5.28246 0
M  V30 6513 C 597.305 3.84351 5.45738 0
M  V30 6514 H 596.575 0.0500466 0.739308 0
M  V30 6515 H 599.222 0.818429 1.7313 0
M  V30 6516 H 597.527 -0.691449 3.8565 0
M  V30 6517 H 599.224 -0.326091 3.99672 0
M  V30 6518 H 595.814 1.10015 4.1424 0
M  V30 6519 H 599.998 1.99463 4.54454 0
M  V30 6520 H 595.254 3.26108 5.17169 0
M  V30 6521 H 599.428 4.15658 5.5875 0
M  V30 6522 H 597.055 4.79538 5.8987 0
M  V30 6523 N 598.631 -1.53133 0.372548 0
M  V30 6524 C 599.877 -2.01654 -0.215277 0
M  V30 6525 C 600.21 -1.25914 -1.47849 0
M  V30 6526 O 599.485 -0.3548 -1.91237 0
M  V30 6527 C 599.768 -3.56609 -0.500187 0
M  V30 6528 C 599.621 -4.43036 0.777145 0
M  V30 6529 C 600.94 -4.20528 -1.29786 0
M  V30 6530 H 598.059 -0.732991 -0.0767686 0
M  V30 6531 H 600.701 -1.83335 0.498814 0
M  V30 6532 H 598.851 -3.7235 -1.10852 0
M  V30 6533 H 600.523 -4.39079 1.41447 0
M  V30 6534 H 598.766 -4.10723 1.39604 0
M  V30 6535 H 599.437 -5.49424 0.532662 0
M  V30 6536 H 601.913 -4.08663 -0.783198 0
M  V30 6537 H 600.789 -5.28962 -1.46596 0
M  V30 6538 H 601.05 -3.77051 -2.30836 0
M  V30 6539 N 600.109 -0.101901 -1.5727 0
M  V30 6540 C 601.349 0.563489 -1.96479 0
M  V30 6541 C 601.713 1.64926 -0.983021 0
M  V30 6542 O 602.914 2.37234 -1.26386 0
M  V30 6543 C 601.185 1.09809 -3.40113 0
M  V30 6544 S 602.744 1.7744 -4.01323 0
M  V30 6545 H 599.562 0.183675 -0.686866 0
M  V30 6546 H 602.164 -0.182922 -1.94642 0
M  V30 6547 H 600.868 0.296447 -4.09328 0
M  V30 6548 H 600.399 1.88018 -3.45562 0
M  V30 6549 H 602.414 3.0591 -3.90683 0
M  V30 6550 N 601.587 1.56661 0.17182 0
M  V30 6551 C 602.519 1.92934 1.2373 0
M  V30 6552 C 603.532 0.822385 1.40502 0
M  V30 6553 O 604.721 1.10083 1.40514 0
M  V30 6554 C 601.821 2.16651 2.60607 0
M  V30 6555 C 600.994 3.47878 2.6514 0
M  V30 6556 C 600.053 3.60429 3.83377 0
M  V30 6557 O 599.079 4.33051 3.69398 0
M  V30 6558 N 600.281 2.95241 4.99813 0
M  V30 6559 H 603.046 2.84931 0.929205 0
M  V30 6560 H 600.607 1.5781 0.361588 0
M  V30 6561 H 602.599 2.22312 3.38171 0
M  V30 6562 H 601.169 1.3104 2.83809 0
M  V30 6563 H 600.389 3.53879 1.73675 0
M  V30 6564 H 601.677 4.34232 2.6518 0
M  V30 6565 H 601.075 2.3611 5.14071 0
M  V30 6566 H 599.632 3.06499 5.75241 0
M  V30 6567 N 603.065 -0.440357 1.51323 0
M  V30 6568 C 604.314 -1.18697 1.63076 0
M  V30 6569 C 604.627 -1.92418 0.35136 0
M  V30 6570 O 605.833 -2.69258 0.348221 0
M  V30 6571 C 604.289 -2.15849 2.87988 0
M  V30 6572 C 603.897 -1.47789 4.22921 0
M  V30 6573 C 605.641 -2.90962 3.09098 0
M  V30 6574 C 603.548 -2.43407 5.38987 0
M  V30 6575 H 602.478 -0.44676 0.607389 0
M  V30 6576 H 605.129 -0.454313 1.77787 0
M  V30 6577 H 603.511 -2.92537 2.66905 0
M  V30 6578 H 604.685 -0.7668 4.54375 0
M  V30 6579 H 603 -0.848404 4.07665 0
M  V30 6580 H 605.597 -3.62584 3.92985 0
M  V30 6581 H 605.94 -3.52133 2.22053 0
M  V30 6582 H 606.473 -2.21381 3.30507 0
M  V30 6583 H 603.212 -1.86929 6.28282 0
M  V30 6584 H 602.732 -3.12579 5.11913 0
M  V30 6585 H 604.411 -3.046 5.70813 0
M  V30 6586 N 604.543 -1.41418 -0.695603 0
M  V30 6587 C 605.789 -1.40982 -1.4578 0
M  V30 6588 C 606.122 -0.0187763 -1.94191 0
M  V30 6589 O 605.397 0.95346 -1.69527 0
M  V30 6590 C 605.68 -2.41657 -2.66972 0
M  V30 6591 C 605.533 -3.89869 -2.24327 0
M  V30 6592 C 606.852 -2.39589 -3.69168 0
M  V30 6593 H 603.971 -0.513405 -0.528757 0
M  V30 6594 H 606.613 -1.72693 -0.792275 0
M  V30 6595 H 604.763 -2.14746 -3.23754 0
M  V30 6596 H 606.435 -4.27683 -1.72872 0
M  V30 6597 H 604.678 -4.04737 -1.56111 0
M  V30 6598 H 605.349 -4.55857 -3.11285 0
M  V30 6599 H 607.825 -2.63471 -3.2206 0
M  V30 6600 H 606.701 -3.12044 -4.51575 0
M  V30 6601 H 606.962 -1.41447 -4.18862 0
M  V30 6602 N 606.021 0.929856 -1.27246 0
M  V30 6603 C 607.249 1.71144 -1.16265 0
M  V30 6604 C 607.664 1.867 0.280786 0
M  V30 6605 O 607.021 1.38249 1.19136 0
M  V30 6606 C 607.072 3.11222 -1.83911 0
M  V30 6607 O 606.793 2.96398 -3.22614 0
M  V30 6608 C 608.294 4.05541 -1.79028 0
M  V30 6609 H 605.514 0.535499 -0.404328 0
M  V30 6610 H 608.058 1.16492 -1.68077 0
M  V30 6611 H 606.213 3.6274 -1.36009 0
M  V30 6612 H 606.627 3.8494 -3.56261 0
M  V30 6613 H 608.101 5.01351 -2.30978 0
M  V30 6614 H 608.578 4.32589 -0.759168 0
M  V30 6615 H 609.184 3.59947 -2.26535 0
M  V30 6616 N 607.499 1.09233 1.13605 0
M  V30 6617 C 608.727 0.848908 1.88683 0
M  V30 6618 C 609.142 -0.599667 1.79024 0
M  V30 6619 O 608.499 -1.41265 1.15544 0
M  V30 6620 C 608.55 1.27273 3.38355 0
M  V30 6621 O 608.271 2.66449 3.47759 0
M  V30 6622 C 609.772 1.0614 4.30406 0
M  V30 6623 H 606.992 0.305549 0.597395 0
M  V30 6624 H 609.536 1.4538 1.43823 0
M  V30 6625 H 607.691 0.711776 3.80805 0
M  V30 6626 H 608.105 2.84264 4.40788 0
M  V30 6627 H 609.579 1.40725 5.33761 0
M  V30 6628 H 610.056 -0.000960332 4.392 0
M  V30 6629 H 610.662 1.60821 3.93722 0
M  V30 6630 N 608.977 -1.30795 0.87923 0
M  V30 6631 C 609.887 -2.32041 0.345565 0
M  V30 6632 C 610.903 -1.65103 -0.549265 0
M  V30 6633 O 612.079 -1.9645 -0.443763 0
M  V30 6634 C 609.144 -3.43944 -0.436245 0
M  V30 6635 C 608.205 -4.26521 0.48765 0
M  V30 6636 C 607.438 -5.33081 -0.256943 0
M  V30 6637 O 607.661 -5.50762 -1.48381 0
M  V30 6638 O 606.595 -6.00635 0.389985 0
M  V30 6639 H 610.421 -2.79627 1.18501 0
M  V30 6640 H 608.006 -1.3486 0.642885 0
M  V30 6641 H 609.888 -4.12128 -0.879119 0
M  V30 6642 H 608.563 -2.98504 -1.25208 0
M  V30 6643 H 607.47 -3.61057 0.979216 0
M  V30 6644 H 608.803 -4.75551 1.26933 0
M  V30 6645 N 610.455 -0.639598 -1.44038 0
M  V30 6646 C 611.703 -0.147188 -2.01563 0
M  V30 6647 C 612.024 1.2384 -1.50628 0
M  V30 6648 O 611.294 1.82452 -0.713316 0
M  V30 6649 H 609.874 -0.0514231 -0.745228 0
M  V30 6650 H 612.536 -0.828205 -1.76428 0
M  V30 6651 H 611.632 -0.121358 -3.11864 0
M  V30 6652 N 611.933 1.52934 -0.380664 0
M  V30 6653 C 613.158 2.06363 0.207157 0
M  V30 6654 C 613.583 1.25122 1.4045 0
M  V30 6655 O 612.941 0.274062 1.79217 0
M  V30 6656 C 612.989 3.56162 0.563996 0
M  V30 6657 O 612.093 3.77552 1.65917 0
M  V30 6658 H 611.434 0.663468 0.0265859 0
M  V30 6659 H 613.964 1.9719 -0.545635 0
M  V30 6660 H 613.974 3.99453 0.830752 0
M  V30 6661 H 612.649 4.14732 -0.311427 0
M  V30 6662 H 611.226 3.46154 1.3868 0
M  V30 6663 N 613.412 0.11024 1.57214 0
M  V30 6664 C 614.689 -0.592956 1.86396 0
M  V30 6665 C 615.069 -1.85379 1.00985 0
M  V30 6666 O 614.417 -2.28337 0.0863592 0
M  V30 6667 C 614.627 -0.893816 3.3736 0
M  V30 6668 C 615.975 -1.25069 4.05762 0
M  V30 6669 O 616.999 -0.984356 3.42329 0
M  V30 6670 O 615.858 -1.75017 5.17718 0
M  V30 6671 H 612.952 -0.29828 0.771335 0
M  V30 6672 H 615.498 0.144083 1.69087 0
M  V30 6673 H 614.27 2.6031e-05 3.913 0
M  V30 6674 H 613.893 -1.68631 3.60068 0
M  V30 6675 N 614.89 -1.56749 -0.16351 0
M  V30 6676 C 616.138 -1.82074 -0.87713 0
M  V30 6677 C 616.459 -0.688503 -1.82441 0
M  V30 6678 O 615.729 0.291085 -1.93725 0
M  V30 6679 H 614.309 -0.671677 -0.326893 0
M  V30 6680 H 616.971 -1.9423 -0.161459 0
M  V30 6681 H 616.067 -2.76407 -1.44934 0
M  V30 6682 N 616.368 0.432326 -1.51554 0
M  V30 6683 C 617.278 1.55023 -1.76082 0
M  V30 6684 C 618.294 1.61593 -0.645265 0
M  V30 6685 O 619.47 1.78742 -0.928086 0
M  V30 6686 C 616.535 2.90964 -1.88523 0
M  V30 6687 C 615.596 2.9447 -3.12388 0
M  V30 6688 C 614.829 4.23926 -3.24225 0
M  V30 6689 O 615.052 5.16576 -2.4188 0
M  V30 6690 O 613.986 4.33818 -4.17235 0
M  V30 6691 H 617.812 1.37238 -2.70923 0
M  V30 6692 H 615.397 0.615845 -1.36117 0
M  V30 6693 H 617.279 3.71633 -1.98662 0
M  V30 6694 H 615.954 3.08865 -0.9687 0
M  V30 6695 H 614.861 2.12737 -3.07723 0
M  V30 6696 H 616.194 2.81514 -4.03746 0
M  V30 6697 N 617.846 1.41785 0.688094 0
M  V30 6698 C 618.756 1.46596 1.83158 0
M  V30 6699 C 619.772 0.355862 1.70322 0
M  V30 6700 O 620.948 0.604737 1.92106 0
M  V30 6701 C 618.013 1.35322 3.192 0
M  V30 6702 C 617.074 2.56711 3.4409 0
M  V30 6703 C 616.307 2.45965 4.73642 0
M  V30 6704 O 616.53 1.48827 5.50642 0
M  V30 6705 O 615.464 3.35859 4.99482 0
M  V30 6706 H 619.29 2.43083 1.82056 0
M  V30 6707 H 616.875 1.23404 0.842126 0
M  V30 6708 H 618.757 1.31347 4.00407 0
M  V30 6709 H 617.432 0.419536 3.2097 0
M  V30 6710 H 616.339 2.66262 2.62784 0
M  V30 6711 H 617.672 3.48933 3.47141 0
M  V30 6712 N 619.324 -0.923095 1.27737 0
M  V30 6713 C 620.74 -1.19985 1.05241 0
M  V30 6714 C 620.94 -2.00391 -0.21113 0
M  V30 6715 O 619.996 -2.35324 -0.915366 0
M  V30 6716 C 621.309 -1.94352 2.29451 0
M  V30 6717 C 622.857 -2.07273 2.34536 0
M  V30 6718 C 623.332 -2.85046 3.58487 0
M  V30 6719 N 624.823 -2.92612 3.59072 0
M  V30 6720 C 625.558 -3.53266 4.51654 0
M  V30 6721 N 625.054 -4.15274 5.54545 0
M  V30 6722 N 626.847 -3.50714 4.39268 0
M  V30 6723 H 618.998 -0.386042 2.08862 0
M  V30 6724 H 621.261 -0.233407 0.918817 0
M  V30 6725 H 620.967 -1.42692 3.21453 0
M  V30 6726 H 620.841 -2.94947 2.3513 0
M  V30 6727 H 623.228 -2.58117 1.43037 0
M  V30 6728 H 623.309 -1.05884 2.32857 0
M  V30 6729 H 622.953 -2.34884 4.50324 0
M  V30 6730 H 622.883 -3.8673 3.57418 0
M  V30 6731 H 625.374 -2.48547 2.84663 0
M  V30 6732 H 625.687 -4.59507 6.21348 0
M  V30 6733 H 624.032 -4.13806 5.58382 0
M  V30 6734 H 627.223 -3.01475 3.58093 0
M  V30 6735 H 627.396 -3.97693 5.1161 0
M  V30 6736 N 620.802 -1.09834 -1.13024 0
M  V30 6737 C 622.213 -0.855651 -1.65938 0
M  V30 6738 C 622.564 0.615159 -1.86307 0
M  V30 6739 O 621.689 1.47335 -1.58497 0
M  V30 6740 C 622.284 -1.5467 -3.01434 0
M  V30 6741 C 620.843 -1.35088 -3.51323 0
M  V30 6742 C 619.99 -1.6001 -2.26478 0
M  V30 6743 H 622.941 -1.25691 -0.968889 0
M  V30 6744 H 622.962 -0.982179 -3.67605 0
M  V30 6745 H 622.474 -2.61715 -2.86578 0
M  V30 6746 H 620.575 -0.30179 -3.71376 0
M  V30 6747 H 620.688 -2.0886 -4.31178 0
M  V30 6748 H 619.052 -1.02246 -2.33276 0
M  V30 6749 H 619.835 -2.68293 -2.14182 0
M  V30 6750 N 622.28 1.30327 -0.886154 0
M  V30 6751 C 623.505 2.0079 -0.519425 0
M  V30 6752 C 623.93 1.65979 0.885013 0
M  V30 6753 O 623.288 0.877043 1.58675 0
M  V30 6754 C 623.336 3.53686 -0.702758 0
M  V30 6755 O 622.44 4.11637 0.250828 0
M  V30 6756 H 621.781 0.63171 -0.204544 0
M  V30 6757 H 624.311 1.66145 -1.19402 0
M  V30 6758 H 624.321 4.03531 -0.602207 0
M  V30 6759 H 622.996 3.78361 -1.72673 0
M  V30 6760 H 621.573 3.72755 0.103873 0
M  V30 6761 N 623.758 0.647228 1.43697 0
M  V30 6762 C 624.998 0.16171 2.03759 0
M  V30 6763 C 625.362 -1.19951 1.49919 0
M  V30 6764 O 626.563 -1.77808 2.01588 0
M  V30 6765 C 624.834 0.16505 3.57019 0
M  V30 6766 S 626.393 -0.253497 4.38067 0
M  V30 6767 H 623.211 0.0689985 0.707644 0
M  V30 6768 H 625.813 0.854224 1.7585 0
M  V30 6769 H 624.517 1.15858 3.93707 0
M  V30 6770 H 624.048 -0.548194 3.89562 0
M  V30 6771 H 626.063 -1.49385 4.73179 0
M  V30 6772 N 625.236 -1.5273 0.388769 0
M  V30 6773 C 626.461 -2.0647 -0.19621 0
M  V30 6774 C 626.886 -1.25865 -1.39784 0
M  V30 6775 O 626.244 -0.283562 -1.79069 0
M  V30 6776 C 626.292 -3.56456 -0.5451 0
M  V30 6777 O 625.396 -3.78426 -1.63912 0
M  V30 6778 H 624.737 -0.663599 -0.023067 0
M  V30 6779 H 627.267 -1.96898 0.556084 0
M  V30 6780 H 627.277 -3.99888 -0.809557 0
M  V30 6781 H 625.952 -4.14561 0.333417 0
M  V30 6782 H 624.529 -3.46884 -1.36842 0
M  V30 6783 N 626.714 -0.118576 -1.57153 0
M  V30 6784 C 627.677 0.817464 -2.14127 0
M  V30 6785 C 628.677 1.1949 -1.07604 0
M  V30 6786 O 629.867 1.12048 -1.33382 0
M  V30 6787 C 626.999 2.10541 -2.68115 0
M  V30 6788 H 628.192 0.322339 -2.98163 0
M  V30 6789 H 625.745 0.130655 -1.55753 0
M  V30 6790 H 626.48 2.64485 -1.87665 0
M  V30 6791 H 626.265 1.84425 -3.4602 0
M  V30 6792 H 627.755 2.77453 -3.12105 0
M  V30 6793 N 628.193 1.56834 0.155195 0
M  V30 6794 C 629.125 1.94235 1.21677 0
M  V30 6795 C 630.138 0.83724 1.39621 0
M  V30 6796 O 631.327 1.11567 1.39338 0
M  V30 6797 C 628.427 2.19402 2.58294 0
M  V30 6798 C 627.6 3.50671 2.61436 0
M  V30 6799 C 626.659 3.64475 3.79532 0
M  V30 6800 O 625.685 4.36945 3.64784 0
M  V30 6801 N 626.887 3.00526 4.96653 0
M  V30 6802 H 629.652 2.85901 0.898932 0
M  V30 6803 H 627.213 1.58185 0.34483 0
M  V30 6804 H 629.205 2.25886 3.35794 0
M  V30 6805 H 627.775 1.34042 2.82403 0
M  V30 6806 H 626.995 3.55702 1.69912 0
M  V30 6807 H 628.283 4.3702 2.60559 0
M  V30 6808 H 627.681 2.41549 5.11538 0
M  V30 6809 H 626.238 3.12583 5.71958 0
M  V30 6810 N 629.671 -0.424282 1.51781 0
M  V30 6811 C 630.603 -1.53457 1.70246 0
M  V30 6812 C 631.616 -1.52004 0.582967 0
M  V30 6813 O 632.805 -1.56544 0.857683 0
M  V30 6814 C 629.905 -2.92368 1.71389 0
M  V30 6815 C 629.078 -3.1818 3.00133 0
M  V30 6816 C 628.137 -4.36884 2.9329 0
M  V30 6817 O 627.163 -4.34901 3.67219 0
M  V30 6818 N 628.365 -5.4117 2.10036 0
M  V30 6819 H 631.13 -1.38017 2.66029 0
M  V30 6820 H 628.691 -0.613394 1.4983 0
M  V30 6821 H 630.683 -3.6982 1.64362 0
M  V30 6822 H 629.253 -3.0134 0.831449 0
M  V30 6823 H 628.473 -2.28908 3.20928 0
M  V30 6824 H 629.761 -3.32261 3.85331 0
M  V30 6825 H 629.159 -5.45623 1.49373 0
M  V30 6826 H 627.716 -6.17425 2.08878 0
M  V30 6827 N 631.149 -1.42148 -0.680565 0
M  V30 6828 C 632.56 -1.3768 -1.26099 0
M  V30 6829 C 632.911 -0.0672348 -1.96085 0
M  V30 6830 O 632.036 0.834172 -1.99676 0
M  V30 6831 C 632.631 -2.49387 -2.29328 0
M  V30 6832 C 631.19 -2.4827 -2.82911 0
M  V30 6833 C 630.337 -2.2847 -1.57152 0
M  V30 6834 H 633.288 -1.51446 -0.474326 0
M  V30 6835 H 633.309 -2.19307 -3.10941 0
M  V30 6836 H 632.821 -3.44686 -1.78363 0
M  V30 6837 H 630.922 -1.56773 -3.38013 0
M  V30 6838 H 631.035 -3.45109 -3.3232 0
M  V30 6839 H 629.399 -1.76623 -1.83511 0
M  V30 6840 H 630.182 -3.25816 -1.0816 0
M  V30 6841 N 632.627 0.916307 -1.28225 0
M  V30 6842 C 634.038 1.48024 -1.13779 0
M  V30 6843 C 634.389 1.94289 0.273139 0
M  V30 6844 O 633.514 1.82226 1.16716 0
M  V30 6845 C 634.109 2.69029 -2.05935 0
M  V30 6846 C 632.668 3.2161 -1.95561 0
M  V30 6847 C 631.815 1.94321 -1.97825 0
M  V30 6848 H 634.766 0.729272 -1.40951 0
M  V30 6849 H 634.787 3.44204 -1.62184 0
M  V30 6850 H 634.299 2.35325 -3.08616 0
M  V30 6851 H 632.4 3.60045 -0.959076 0
M  V30 6852 H 632.513 3.87032 -2.82388 0
M  V30 6853 H 630.877 2.1131 -1.42198 0
M  V30 6854 H 631.66 1.62917 -3.0218 0
M  V30 6855 N 634.105 1.10431 1.1244 0
M  V30 6856 C 635.33 0.869089 1.88313 0
M  V30 6857 C 635.755 -0.574912 1.79099 0
M  V30 6858 O 635.113 -1.40496 1.14589 0
M  V30 6859 C 635.161 1.32208 3.3549 0
M  V30 6860 O 634.265 0.487092 4.09513 0
M  V30 6861 H 633.606 0.313894 0.585121 0
M  V30 6862 H 636.136 1.47111 1.42195 0
M  V30 6863 H 636.146 1.31201 3.86329 0
M  V30 6864 H 634.821 2.37364 3.41513 0
M  V30 6865 H 633.398 0.562372 3.68635 0
M  V30 6866 N 635.583 -1.29855 0.893053 0
M  V30 6867 C 636.994 -1.77946 0.564998 0
M  V30 6868 C 637.345 -1.73339 -0.919134 0
M  V30 6869 O 636.47 -1.3152 -1.71847 0
M  V30 6870 C 637.065 -3.23118 1.01883 0
M  V30 6871 C 635.624 -3.69013 0.742051 0
M  V30 6872 C 634.771 -2.50121 1.19727 0
M  V30 6873 H 637.722 -1.16611 1.07646 0
M  V30 6874 H 637.743 -3.78875 0.351249 0
M  V30 6875 H 637.255 -3.26439 2.09903 0
M  V30 6876 H 635.356 -3.71173 -0.325816 0
M  V30 6877 H 635.469 -4.60117 1.33527 0
M  V30 6878 H 633.833 -2.47128 0.616418 0
M  V30 6879 H 634.616 -2.56174 2.28538 0
M  V30 6880 N 637.061 -0.65484 -1.43351 0
M  V30 6881 C 638.309 -0.168559 -2.01396 0
M  V30 6882 C 638.63 1.22235 -1.51933 0
M  V30 6883 O 637.9 1.81685 -0.732627 0
M  V30 6884 H 636.48 -0.0593244 -0.744641 0
M  V30 6885 H 639.142 -0.846871 -1.75539 0
M  V30 6886 H 638.238 -0.154428 -3.11718 0
M  V30 6887 N 638.539 1.52521 -0.396863 0
M  V30 6888 C 639.764 2.06571 0.185258 0
M  V30 6889 C 640.189 1.26605 1.39115 0
M  V30 6890 O 639.547 0.293055 1.78916 0
M  V30 6891 C 639.595 3.5674 0.526189 0
M  V30 6892 O 638.699 3.7929 1.61903 0
M  V30 6893 H 638.04 0.663712 0.0195474 0
M  V30 6894 H 640.57 1.966 -0.566519 0
M  V30 6895 H 640.58 4.00311 0.788338 0
M  V30 6896 H 639.255 4.14379 -0.355397 0
M  V30 6897 H 637.832 3.47605 1.35 0
M  V30 6898 N 640.017 0.126909 1.57088 0
M  V30 6899 C 641.428 -0.397201 1.82426 0
M  V30 6900 C 641.779 -1.66084 1.04453 0
M  V30 6901 O 640.904 -2.14534 0.283552 0
M  V30 6902 C 641.499 -0.727411 3.30899 0
M  V30 6903 C 640.058 -1.19612 3.56889 0
M  V30 6904 C 639.205 -0.20885 2.76512 0
M  V30 6905 H 642.156 0.351924 1.54749 0
M  V30 6906 H 642.177 -1.58407 3.45959 0
M  V30 6907 H 641.689 0.19247 3.87622 0
M  V30 6908 H 639.79 -2.13263 3.05532 0
M  V30 6909 H 639.903 -1.13598 4.65438 0
M  V30 6910 H 638.267 -0.697479 2.44964 0
M  V30 6911 H 639.05 0.704267 3.35998 0
M  V30 6912 N 641.495 -1.56914 -0.146875 0
M  V30 6913 C 642.405 -2.0154 -1.20079 0
M  V30 6914 C 643.421 -0.930838 -1.47008 0
M  V30 6915 O 644.597 -1.24032 -1.58676 0
M  V30 6916 C 641.662 -2.38715 -2.51428 0
M  V30 6917 C 640.723 -3.6112 -2.32145 0
M  V30 6918 C 639.956 -3.96512 -3.57231 0
M  V30 6919 O 640.179 -3.32566 -4.63418 0
M  V30 6920 O 639.113 -4.89758 -3.49887 0
M  V30 6921 H 642.939 -2.91506 -0.851924 0
M  V30 6922 H 640.524 -1.45106 -0.355607 0
M  V30 6923 H 642.406 -2.63485 -3.28867 0
M  V30 6924 H 641.081 -1.51903 -2.85845 0
M  V30 6925 H 639.988 -3.41536 -1.52656 0
M  V30 6926 H 641.321 -4.48549 -2.02644 0
M  V30 6927 N 642.974 0.416227 -1.52004 0
M  V30 6928 C 644.222 1.16153 -1.65387 0
M  V30 6929 C 644.543 1.91208 -0.382669 0
M  V30 6930 O 643.813 1.86413 0.602231 0
M  V30 6931 H 642.393 0.431765 -0.60958 0
M  V30 6932 H 645.055 0.475151 -1.89019 0
M  V30 6933 H 644.151 1.87952 -2.4916 0
M  V30 6934 N 644.452 1.42507 0.673017 0
M  V30 6935 C 645.863 1.38347 1.25367 0
M  V30 6936 C 646.214 0.0776327 1.96046 0
M  V30 6937 O 645.339 -0.823571 2.00116 0
M  V30 6938 C 645.934 2.506 2.28002 0
M  V30 6939 C 644.493 2.49767 2.81591 0
M  V30 6940 C 643.64 2.293 1.55938 0
M  V30 6941 H 646.591 1.51695 0.466288 0
M  V30 6942 H 646.612 2.20953 3.09774 0
M  V30 6943 H 646.124 3.45627 1.76532 0
M  V30 6944 H 644.225 1.58563 3.37177 0
M  V30 6945 H 644.338 3.46867 3.30485 0
M  V30 6946 H 642.702 1.77594 1.82572 0
M  V30 6947 H 643.485 3.26385 1.06431 0
M  V30 6948 N 645.93 -0.909495 1.28709 0
M  V30 6949 C 647.346 -1.18862 1.06508 0
M  V30 6950 C 647.546 -2.00604 -0.189864 0
M  V30 6951 O 646.602 -2.36281 -0.890355 0
M  V30 6952 C 647.915 -1.91908 2.31499 0
M  V30 6953 C 649.463 -2.04773 2.36721 0
M  V30 6954 C 649.938 -2.81228 3.6149 0
M  V30 6955 N 651.429 -2.88787 3.62155 0
M  V30 6956 C 652.164 -3.48455 4.55375 0
M  V30 6957 N 651.66 -4.09369 5.58918 0
M  V30 6958 N 653.453 -3.46035 4.42963 0
M  V30 6959 H 645.604 -0.363867 2.0926 0
M  V30 6960 H 647.867 -0.223649 0.921241 0
M  V30 6961 H 647.573 -1.39275 3.22948 0
M  V30 6962 H 647.447 -2.92436 2.38245 0
M  V30 6963 H 649.834 -2.56585 1.45767 0
M  V30 6964 H 649.915 -1.03408 2.33967 0
M  V30 6965 H 649.559 -2.30094 4.5279 0
M  V30 6966 H 649.489 -3.82917 3.61499 0
M  V30 6967 H 651.98 -2.45514 2.87283 0
M  V30 6968 H 652.293 -4.52891 6.26187 0
M  V30 6969 H 650.638 -4.0786 5.62739 0
M  V30 6970 H 653.829 -2.9766 3.6127 0
M  V30 6971 H 654.002 -3.92244 5.15799 0
M  V30 6972 N 647.408 -1.11026 -1.11852 0
M  V30 6973 C 648.633 -0.879064 -1.87849 0
M  V30 6974 C 649.058 0.565406 -1.79401 0
M  V30 6975 O 648.416 1.39886 -1.15333 0
M  V30 6976 C 648.464 -1.33985 -3.34784 0
M  V30 6977 O 647.568 -0.508803 -4.09249 0
M  V30 6978 H 646.909 -0.316992 -0.583448 0
M  V30 6979 H 649.439 -1.47863 -1.41413 0
M  V30 6980 H 649.449 -1.33248 -3.85628 0
M  V30 6981 H 648.124 -2.39172 -3.40249 0
M  V30 6982 H 646.701 -0.581913 -3.68332 0
M  V30 6983 N 648.886 1.2938 -0.899927 0
M  V30 6984 C 649.816 2.30144 -0.39446 0
M  V30 6985 C 650.797 1.61611 0.530639 0
M  V30 6986 O 651.982 1.89119 0.441319 0
M  V30 6987 C 649.112 3.45229 0.37868 0
M  V30 6988 C 648.066 4.25564 -0.456012 0
M  V30 6989 C 647.392 5.32848 0.444637 0
M  V30 6990 C 648.692 4.93651 -1.70605 0
M  V30 6991 H 650.386 2.72673 -1.23653 0
M  V30 6992 H 647.932 1.31086 -0.596034 0
M  V30 6993 H 649.885 4.14797 0.743037 0
M  V30 6994 H 648.609 3.01545 1.25453 0
M  V30 6995 H 647.268 3.57704 -0.802704 0
M  V30 6996 H 646.916 4.85408 1.31863 0
M  V30 6997 H 646.616 5.87497 -0.110154 0
M  V30 6998 H 648.14 6.05268 0.805182 0
M  V30 6999 H 649.554 5.55655 -1.41141 0
M  V30 7000 H 647.951 5.58233 -2.20217 0
M  V30 7001 H 649.021 4.18926 -2.4419 0
M  V30 7002 N 650.364 0.662433 1.43002 0
M  V30 7003 C 651.604 0.183312 2.03576 0
M  V30 7004 C 651.968 -1.18354 1.51183 0
M  V30 7005 O 653.169 -1.7566 2.03462 0
M  V30 7006 C 651.44 0.202908 3.56824 0
M  V30 7007 S 652.999 -0.20702 4.38311 0
M  V30 7008 H 649.817 0.0765001 0.706872 0
M  V30 7009 H 652.419 0.872827 1.74934 0
M  V30 7010 H 651.123 1.20028 3.92456 0
M  V30 7011 H 650.654 -0.506845 3.90121 0
M  V30 7012 H 652.669 -1.44358 4.74737 0
M  V30 7013 N 651.842 -1.52309 0.404946 0
M  V30 7014 C 653.067 -2.06666 -0.1743 0
M  V30 7015 C 653.492 -1.27341 -1.38441 0
M  V30 7016 O 652.85 -0.302539 -1.78758 0
M  V30 7017 C 652.898 -3.57014 -0.507262 0
M  V30 7018 O 652.002 -3.80144 -1.59889 0
M  V30 7019 H 651.343 -0.663807 -0.0160273 0
M  V30 7020 H 653.873 -1.96297 0.576937 0
M  V30 7021 H 653.883 -4.00724 -0.767098 0
M  V30 7022 H 652.558 -4.14184 0.377368 0
M  V30 7023 H 651.135 -3.48316 -1.33155 0
M  V30 7024 N 653.32 -0.135238 -1.57019 0
M  V30 7025 C 654.267 0.808908 -2.1616 0
M  V30 7026 C 655.237 1.25234 -1.09113 0
M  V30 7027 O 656.422 1.32697 -1.37099 0
M  V30 7028 C 653.562 2.04729 -2.77813 0
M  V30 7029 C 652.675 1.65074 -3.99218 0
M  V30 7030 C 651.81 2.84002 -4.48906 0
M  V30 7031 C 650.849 2.40663 -5.62803 0
M  V30 7032 N 649.986 3.5256 -6.07162 0
M  V30 7033 H 654.826 0.297751 -2.96509 0
M  V30 7034 H 652.363 0.135264 -1.46477 0
M  V30 7035 H 654.321 2.7731 -3.11697 0
M  V30 7036 H 652.951 2.53275 -2.00128 0
M  V30 7037 H 652.003 0.823029 -3.7139 0
M  V30 7038 H 653.315 1.29236 -4.81767 0
M  V30 7039 H 652.469 3.64788 -4.84783 0
M  V30 7040 H 651.208 3.23076 -3.65339 0
M  V30 7041 H 650.213 1.58314 -5.26514 0
M  V30 7042 H 651.438 2.02687 -6.48147 0
M  V30 7043 H 649.384 3.91278 -5.26534 0
M  V30 7044 H 649.301 3.20699 -6.84608 0
M  V30 7045 H 650.569 4.33738 -6.47682 0
M  V30 7046 N 654.798 1.5699 0.138552 0
M  V30 7047 C 655.728 2.01933 1.17241 0
M  V30 7048 C 656.709 0.90033 1.44319 0
M  V30 7049 O 657.894 1.16872 1.55095 0
M  V30 7050 C 655.024 2.40711 2.50351 0
M  V30 7051 C 653.978 3.55874 2.37776 0
M  V30 7052 C 653.304 3.80491 3.75674 0
M  V30 7053 C 654.604 4.8826 1.85472 0
M  V30 7054 H 656.298 2.88551 0.798672 0
M  V30 7055 H 653.844 1.3882 0.382743 0
M  V30 7056 H 655.797 2.70754 3.22909 0
M  V30 7057 H 654.521 1.5104 2.89576 0
M  V30 7058 H 653.18 3.2601 1.67669 0
M  V30 7059 H 652.828 2.88057 4.12349 0
M  V30 7060 H 652.528 4.57998 3.68119 0
M  V30 7061 H 654.052 4.12967 4.49767 0
M  V30 7062 H 655.466 5.16965 2.4783 0
M  V30 7063 H 653.863 5.69631 1.88787 0
M  V30 7064 H 654.933 4.78071 0.810935 0
M  V30 7065 N 656.276 -0.40816 1.52223 0
M  V30 7066 C 657.239 -1.48 1.7501 0
M  V30 7067 C 658.239 -1.48367 0.619996 0
M  V30 7068 O 659.429 -1.49874 0.887881 0
M  V30 7069 C 656.561 -2.87403 1.83336 0
M  V30 7070 H 657.754 -1.29086 2.70697 0
M  V30 7071 H 655.307 -0.638715 1.42654 0
M  V30 7072 H 656.042 -3.11686 0.895677 0
M  V30 7073 H 655.827 -2.8854 2.65494 0
M  V30 7074 H 657.317 -3.65103 2.02705 0
M  V30 7075 N 657.755 -1.42862 -0.66545 0
M  V30 7076 C 658.995 -1.45323 -1.43738 0
M  V30 7077 C 659.359 -0.0707969 -1.91869 0
M  V30 7078 O 660.56 0.0298852 -2.68783 0
M  V30 7079 C 658.831 -2.45671 -2.59577 0
M  V30 7080 S 660.39 -2.6691 -3.48288 0
M  V30 7081 H 657.208 -0.51442 -0.490809 0
M  V30 7082 H 659.81 -1.79537 -0.773745 0
M  V30 7083 H 658.514 -3.44869 -2.22471 0
M  V30 7084 H 658.045 -2.12914 -3.30804 0
M  V30 7085 H 660.06 -1.95914 -4.55886 0
M  V30 7086 N 659.233 0.902656 -1.29189 0
M  V30 7087 C 660.473 1.6672 -1.18254 0
M  V30 7088 C 660.837 1.90199 0.262336 0
M  V30 7089 O 662.038 2.6421 0.494612 0
M  V30 7090 C 660.309 2.98178 -1.9704 0
M  V30 7091 S 661.868 3.89226 -2.02605 0
M  V30 7092 H 658.686 0.572432 -0.421714 0
M  V30 7093 H 661.288 1.07279 -1.63436 0
M  V30 7094 H 659.992 2.788 -3.01163 0
M  V30 7095 H 659.523 3.62661 -1.5245 0
M  V30 7096 H 661.538 4.82913 -1.14059 0
M  V30 7097 N 660.711 1.11618 1.11262 0
M  V30 7098 C 661.621 0.78898 2.20935 0
M  V30 7099 C 662.637 -0.21867 1.7262 0
M  V30 7100 O 663.813 -0.0543826 2.01327 0
M  V30 7101 C 660.878 0.239014 3.45875 0
M  V30 7102 C 659.939 1.3055 4.08968 0
M  V30 7103 C 659.172 0.781687 5.27944 0
M  V30 7104 O 659.395 -0.387605 5.69082 0
M  V30 7105 O 658.329 1.54734 5.81671 0
M  V30 7106 H 662.155 1.70477 2.51339 0
M  V30 7107 H 659.74 0.892203 1.19834 0
M  V30 7108 H 661.622 -0.0632312 4.21353 0
M  V30 7109 H 660.297 -0.649454 3.17118 0
M  V30 7110 H 659.204 1.66079 3.35214 0
M  V30 7111 H 660.537 2.16743 4.41909 0
M  V30 7112 N 662.189 -1.289 0.906776 0
M  V30 7113 C 663.435 -1.95919 0.546551 0
M  V30 7114 C 663.79 -1.70126 -0.8986 0
M  V30 7115 O 663.083 -1.00775 -1.62957 0
M  V30 7116 C 663.277 -3.48704 0.783617 0
M  V30 7117 C 663.106 -3.8935 2.25026 0
M  V30 7118 C 661.876 -4.13864 2.89905 0
M  V30 7119 C 664.074 -4.00535 3.22608 0
M  V30 7120 N 662.056 -4.41131 4.26939 0
M  V30 7121 C 663.427 -4.31936 4.44783 0
M  V30 7122 C 665.482 -3.83035 3.18102 0
M  V30 7123 C 664.185 -4.47659 5.63022 0
M  V30 7124 C 666.211 -3.99971 4.35634 0
M  V30 7125 C 665.573 -4.31738 5.5658 0
M  V30 7126 H 661.672 -0.74105 0.249737 0
M  V30 7127 H 664.256 -1.55696 1.16906 0
M  V30 7128 H 662.427 -3.87933 0.190437 0
M  V30 7129 H 664.159 -4.02835 0.38812 0
M  V30 7130 H 660.914 -4.07893 2.40666 0
M  V30 7131 H 661.338 -4.5886 4.97771 0
M  V30 7132 H 665.98 -3.57533 2.25677 0
M  V30 7133 H 663.698 -4.71995 6.55932 0
M  V30 7134 H 667.284 -3.87874 4.33641 0
M  V30 7135 H 666.164 -4.44568 6.4601 0
M  V30 7136 N 663.667 -0.670007 -1.42649 0
M  V30 7137 C 664.907 -0.194106 -2.03476 0
M  V30 7138 C 665.271 1.1755 -1.51809 0
M  V30 7139 O 666.472 1.74579 -2.04391 0
M  V30 7140 C 664.743 -0.221828 -3.56711 0
M  V30 7141 S 666.302 0.183772 -4.38415 0
M  V30 7142 H 663.12 -0.0802478 -0.706457 0
M  V30 7143 H 665.722 -0.882092 -1.74469 0
M  V30 7144 H 664.426 -1.22107 -3.91814 0
M  V30 7145 H 663.957 0.486149 -3.90385 0
M  V30 7146 H 665.972 1.41839 -4.75496 0
M  V30 7147 N 665.145 1.52092 -0.413018 0
M  V30 7148 C 666.092 2.27119 0.410558 0
M  V30 7149 C 667.062 1.29692 1.03774 0
M  V30 7150 O 668.247 1.58561 1.06128 0
M  V30 7151 C 665.387 3.09863 1.51918 0
M  V30 7152 C 664.5 4.22252 0.912528 0
M  V30 7153 C 663.635 4.92348 1.99417 0
M  V30 7154 C 662.674 5.96694 1.36466 0
M  V30 7155 N 661.811 6.60292 2.38661 0
M  V30 7156 H 666.651 2.97067 -0.235661 0
M  V30 7157 H 664.188 1.46542 -0.128055 0
M  V30 7158 H 666.146 3.56144 2.17295 0
M  V30 7159 H 664.776 2.42078 2.13537 0
M  V30 7160 H 663.828 3.80113 0.147697 0
M  V30 7161 H 665.14 4.9709 0.412717 0
M  V30 7162 H 664.294 5.42054 2.72512 0
M  V30 7163 H 663.033 4.17087 2.52764 0
M  V30 7164 H 662.038 5.46304 0.61906 0
M  V30 7165 H 663.263 6.73899 0.838827 0
M  V30 7166 H 661.209 5.87858 2.91134 0
M  V30 7167 H 661.126 7.30816 1.93503 0
M  V30 7168 H 662.394 7.14635 3.11314 0
M  V30 7169 N 666.623 0.143563 1.56945 0
M  V30 7170 C 668.039 -0.212877 1.58174 0
M  V30 7171 C 668.239 -1.64926 1.15766 0
M  V30 7172 O 667.295 -2.37535 0.856361 0
M  V30 7173 C 668.608 0.0427573 3.0067 0
M  V30 7174 C 670.156 -0.0212221 3.12993 0
M  V30 7175 C 670.631 0.207036 4.57532 0
M  V30 7176 N 672.122 0.153845 4.62944 0
M  V30 7177 C 672.857 0.305018 5.72588 0
M  V30 7178 N 672.353 0.513722 6.90893 0
M  V30 7179 N 674.146 0.242862 5.61575 0
M  V30 7180 H 666.297 1.08148 1.82805 0
M  V30 7181 H 668.56 0.427831 0.84597 0
M  V30 7182 H 668.266 1.03672 3.36073 0
M  V30 7183 H 668.14 -0.678195 3.71053 0
M  V30 7184 H 670.527 -1.00574 2.77433 0
M  V30 7185 H 670.608 0.732004 2.45103 0
M  V30 7186 H 670.252 1.18863 4.93795 0
M  V30 7187 H 670.182 -0.566473 5.23544 0
M  V30 7188 H 672.673 -0.00294866 3.779 0
M  V30 7189 H 672.986 0.619273 7.70315 0
M  V30 7190 H 671.331 0.550001 6.9282 0
M  V30 7191 H 674.522 0.0806015 4.68031 0
M  V30 7192 H 674.695 0.364112 6.46976 0
M  V30 7193 N 668.101 -1.57061 -0.130224 0
M  V30 7194 C 669.348 -1.84257 -0.839972 0
M  V30 7195 C 669.676 -0.726986 -1.80403 0
M  V30 7196 O 668.931 0.282632 -1.93648 0
M  V30 7197 C 669.23 -3.17878 -1.63365 0
M  V30 7198 C 668.896 -4.43475 -0.814891 0
M  V30 7199 C 667.558 -4.77581 -0.589066 0
M  V30 7200 C 669.91 -5.20631 -0.243437 0
M  V30 7201 C 667.238 -5.86292 0.218648 0
M  V30 7202 C 669.59 -6.30192 0.551408 0
M  V30 7203 C 668.254 -6.62837 0.787653 0
M  V30 7204 H 667.524 -0.674245 -0.307367 0
M  V30 7205 H 670.171 -1.91224 -0.102832 0
M  V30 7206 H 668.476 -3.06437 -2.44138 0
M  V30 7207 H 670.173 -3.3614 -2.18658 0
M  V30 7208 H 666.763 -4.16747 -1.00098 0
M  V30 7209 H 670.947 -4.94644 -0.405145 0
M  V30 7210 H 666.203 -6.10017 0.411016 0
M  V30 7211 H 670.377 -6.89165 1.00126 0
M  V30 7212 H 668.004 -7.46908 1.41537 0
M  V30 7213 N 669.579 0.400081 -1.52437 0
M  V30 7214 C 670.526 1.48803 -1.76426 0
M  V30 7215 C 671.496 1.5461 -0.607032 0
M  V30 7216 O 672.681 1.71041 -0.845563 0
M  V30 7217 C 669.821 2.86156 -1.92896 0
M  V30 7218 C 668.934 2.89587 -3.20567 0
M  V30 7219 C 668.069 4.18296 -3.27417 0
M  V30 7220 C 667.108 4.15736 -4.49255 0
M  V30 7221 N 666.245 5.36032 -4.53447 0
M  V30 7222 H 671.085 1.27649 -2.69276 0
M  V30 7223 H 668.622 0.619451 -1.33421 0
M  V30 7224 H 670.58 3.65901 -2.00429 0
M  V30 7225 H 669.21 3.05785 -1.03418 0
M  V30 7226 H 668.262 2.02278 -3.22161 0
M  V30 7227 H 669.574 2.83562 -4.10358 0
M  V30 7228 H 668.728 5.06439 -3.34072 0
M  V30 7229 H 667.467 4.27028 -2.35581 0
M  V30 7230 H 666.472 3.25982 -4.42737 0
M  V30 7231 H 667.697 4.08636 -5.42396 0
M  V30 7232 H 665.643 5.45415 -3.64498 0
M  V30 7233 H 665.56 5.32038 -5.37096 0
M  V30 7234 H 666.828 6.26104 -4.64343 0
M  V30 7235 N 671.057 1.43213 0.657864 0
M  V30 7236 C 672.004 1.48011 1.77092 0
M  V30 7237 C 672.974 0.330291 1.62783 0
M  V30 7238 O 674.159 0.536787 1.83094 0
M  V30 7239 C 671.299 1.40461 3.15222 0
M  V30 7240 C 670.412 2.65612 3.40697 0
M  V30 7241 C 669.547 2.50083 4.68649 0
M  V30 7242 C 668.586 3.70525 4.87214 0
M  V30 7243 N 667.723 3.53835 6.0642 0
M  V30 7244 H 672.563 2.43121 1.72326 0
M  V30 7245 H 670.1 1.20687 0.841013 0
M  V30 7246 H 672.058 1.34079 3.95068 0
M  V30 7247 H 670.688 0.489359 3.19069 0
M  V30 7248 H 669.74 2.82292 2.54982 0
M  V30 7249 H 671.052 3.5509 3.50303 0
M  V30 7250 H 670.206 2.41383 5.56614 0
M  V30 7251 H 668.945 1.58121 4.61356 0
M  V30 7252 H 667.95 3.79639 3.97686 0
M  V30 7253 H 669.175 4.63489 4.96341 0
M  V30 7254 H 667.121 2.64604 6.00267 0
M  V30 7255 H 667.038 4.36912 6.16963 0
M  V30 7256 H 668.306 3.48978 6.97019 0
M  V30 7257 N 672.536 -0.895792 1.29666 0
M  V30 7258 C 673.766 -1.67757 1.20586 0
M  V30 7259 C 674.174 -1.87729 -0.235432 0
M  V30 7260 O 673.517 -1.41706 -1.16898 0
M  V30 7261 C 673.579 -3.08117 1.85215 0
M  V30 7262 C 673.243 -3.1136 3.3452 0
M  V30 7263 C 674.24 -2.91217 4.30684 0
M  V30 7264 C 671.925 -3.33302 3.75786 0
M  V30 7265 C 673.919 -2.92955 5.66089 0
M  V30 7266 C 671.606 -3.3467 5.11311 0
M  V30 7267 C 672.604 -3.14519 6.06273 0
M  V30 7268 O 672.292 -3.15684 7.39323 0
M  V30 7269 H 672.024 -0.530601 0.418854 0
M  V30 7270 H 674.578 -1.12831 1.71634 0
M  V30 7271 H 672.808 -3.64661 1.28683 0
M  V30 7272 H 674.497 -3.68399 1.70403 0
M  V30 7273 H 675.263 -2.74074 4.00136 0
M  V30 7274 H 671.142 -3.48025 3.02324 0
M  V30 7275 H 674.686 -2.77145 6.40185 0
M  V30 7276 H 670.583 -3.51346 5.41504 0
M  V30 7277 H 671.351 -3.31924 7.48177 0
M  V30 7278 N 674.014 -1.12206 -1.10668 0
M  V30 7279 C 675.261 -0.875875 -1.82578 0
M  V30 7280 C 675.589 0.598342 -1.85068 0
M  V30 7281 O 674.844 1.45818 -1.3052 0
M  V30 7282 C 675.143 -1.39276 -3.29146 0
M  V30 7283 C 674.809 -2.8816 -3.46806 0
M  V30 7284 C 673.471 -3.28813 -3.51334 0
M  V30 7285 C 675.823 -3.8401 -3.52399 0
M  V30 7286 C 673.151 -4.64028 -3.59019 0
M  V30 7287 C 675.503 -5.19053 -3.61617 0
M  V30 7288 C 674.167 -5.59252 -3.64408 0
M  V30 7289 H 673.437 -0.320505 -0.6681 0
M  V30 7290 H 676.084 -1.40184 -1.30464 0
M  V30 7291 H 674.389 -0.787207 -3.8381 0
M  V30 7292 H 676.086 -1.17851 -3.83291 0
M  V30 7293 H 672.676 -2.55716 -3.43958 0
M  V30 7294 H 676.86 -3.53698 -3.48154 0
M  V30 7295 H 672.116 -4.94568 -3.59461 0
M  V30 7296 H 676.29 -5.93152 -3.64889 0
M  V30 7297 H 673.917 -6.64017 -3.70116 0
M  V30 7298 N 675.492 1.28418 -0.913599 0
M  V30 7299 C 676.732 1.96756 -0.553771 0
M  V30 7300 C 677.096 1.70334 0.886013 0
M  V30 7301 O 678.297 2.32242 1.35341 0
M  V30 7302 C 676.568 3.47041 -0.854249 0
M  V30 7303 S 678.127 4.34667 -0.600816 0
M  V30 7304 H 674.945 0.680831 -0.204915 0
M  V30 7305 H 677.547 1.55947 -1.17902 0
M  V30 7306 H 676.251 3.63766 -1.90007 0
M  V30 7307 H 675.782 3.92797 -0.217651 0
M  V30 7308 H 677.797 4.93166 0.547906 0
M  V30 7309 N 676.97 0.677563 1.42291 0
M  V30 7310 C 677.903 -0.0492638 2.28147 0
M  V30 7311 C 678.881 -0.805936 1.41221 0
M  V30 7312 O 680.065 -0.80049 1.70659 0
M  V30 7313 C 677.192 -1.07697 3.21122 0
M  V30 7314 C 676.238 -0.41556 4.24471 0
M  V30 7315 S 677.071 0.828876 5.29046 0
M  V30 7316 C 678.227 -0.197687 6.25588 0
M  V30 7317 H 678.46 0.678965 2.89443 0
M  V30 7318 H 675.993 0.467201 1.47162 0
M  V30 7319 H 677.951 -1.66482 3.75225 0
M  V30 7320 H 676.612 -1.77766 2.58956 0
M  V30 7321 H 675.805 -1.19112 4.89723 0
M  V30 7322 H 675.407 0.0987632 3.7387 0
M  V30 7323 H 677.699 -1.05656 6.69211 0
M  V30 7324 H 678.642 0.420437 7.06851 0
M  V30 7325 H 679.05 -0.544401 5.61869 0
M  V30 7326 N 678.448 -1.51871 0.421078 0
M  V30 7327 C 679.694 -2.02237 -0.151014 0
M  V30 7328 C 680.027 -1.30554 -1.43768 0
M  V30 7329 O 679.302 -0.41546 -1.90011 0
M  V30 7330 C 679.585 -3.5802 -0.386482 0
M  V30 7331 C 679.438 -4.40339 0.9177 0
M  V30 7332 C 680.757 -4.24444 -1.16342 0
M  V30 7333 H 677.876 -0.735062 -0.0534102 0
M  V30 7334 H 680.518 -1.81656 0.556888 0
M  V30 7335 H 678.668 -3.75688 -0.989494 0
M  V30 7336 H 680.34 -4.34357 1.55344 0
M  V30 7337 H 678.583 -4.06073 1.526 0
M  V30 7338 H 679.254 -5.47451 0.707187 0
M  V30 7339 H 681.73 -4.10948 -0.652788 0
M  V30 7340 H 680.606 -5.33358 -1.29693 0
M  V30 7341 H 680.867 -3.84204 -2.18724 0
M  V30 7342 N 679.926 -0.151884 -1.56866 0
M  V30 7343 C 681.337 0.368128 -1.83035 0
M  V30 7344 C 681.688 1.64402 -1.07082 0
M  V30 7345 O 680.813 2.14056 -0.317647 0
M  V30 7346 C 681.408 0.674676 -3.32014 0
M  V30 7347 C 679.967 1.13919 -3.58747 0
M  V30 7348 C 679.114 0.164833 -2.7681 0
M  V30 7349 H 682.065 -0.376499 -1.54169 0
M  V30 7350 H 682.086 1.52883 -3.48435 0
M  V30 7351 H 681.598 -0.254113 -3.87267 0
M  V30 7352 H 679.699 2.08375 -3.08886 0
M  V30 7353 H 679.812 1.06179 -4.67186 0
M  V30 7354 H 678.176 0.658419 -2.46043 0
M  V30 7355 H 678.959 -0.757633 -3.34836 0
M  V30 7356 N 681.404 1.57128 0.121893 0
M  V30 7357 C 682.681 1.75664 0.860327 0
M  V30 7358 C 683.061 0.726585 1.98202 0
M  V30 7359 O 682.409 -0.24999 2.27128 0
M  V30 7360 C 682.619 3.20571 1.37968 0
M  V30 7361 C 683.967 3.82988 1.83317 0
M  V30 7362 O 684.991 3.24156 1.47654 0
M  V30 7363 O 683.85 4.86393 2.49168 0
M  V30 7364 H 680.944 0.719153 0.408348 0
M  V30 7365 H 683.49 1.6937 0.105859 0
M  V30 7366 H 682.262 3.87056 0.57477 0
M  V30 7367 H 681.885 3.31392 2.19694 0
M  V30 7368 N 682.882 -0.391992 1.52647 0
M  V30 7369 C 684.122 -1.1463 1.69232 0
M  V30 7370 C 684.486 -1.87312 0.421684 0
M  V30 7371 O 685.687 -2.64768 0.463852 0
M  V30 7372 C 683.958 -2.10088 2.89133 0
M  V30 7373 S 685.517 -2.93395 3.2629 0
M  V30 7374 H 682.335 -0.388076 0.59575 0
M  V30 7375 H 684.937 -0.431149 1.90687 0
M  V30 7376 H 683.641 -1.55408 3.79837 0
M  V30 7377 H 683.172 -2.86116 2.70003 0
M  V30 7378 H 685.187 -4.12193 2.76244 0
M  V30 7379 N 684.36 -1.4356 -0.65026 0
M  V30 7380 C 685.27 -1.514 -1.79207 0
M  V30 7381 C 686.286 -0.400895 -1.69319 0
M  V30 7382 O 687.462 -0.655458 -1.90436 0
M  V30 7383 C 684.527 -1.43737 -3.155 0
M  V30 7384 C 683.588 -2.65743 -3.37163 0
M  V30 7385 C 682.821 -2.58436 -4.66954 0
M  V30 7386 O 683.044 -1.63374 -5.46503 0
M  V30 7387 O 681.978 -3.48984 -4.90402 0
M  V30 7388 H 685.804 -2.47825 -1.75547 0
M  V30 7389 H 683.389 -1.25594 -0.809111 0
M  V30 7390 H 685.271 -1.41916 -3.96784 0
M  V30 7391 H 683.946 -0.504488 -3.19745 0
M  V30 7392 H 682.853 -2.73136 -2.55632 0
M  V30 7393 H 684.186 -3.58014 -3.37768 0
M  V30 7394 N 685.838 0.888903 -1.30139 0
M  V30 7395 C 687.086 1.63713 -1.18501 0
M  V30 7396 C 687.407 1.9324 0.261399 0
M  V30 7397 O 686.677 1.56608 1.17689 0
M  V30 7398 H 685.257 0.606861 -0.435579 0
M  V30 7399 H 687.919 1.06525 -1.63213 0
M  V30 7400 H 687.015 2.58894 -1.743 0
M  V30 7401 N 687.317 1.12792 1.10072 0
M  V30 7402 C 688.542 0.908838 1.86427 0
M  V30 7403 C 688.967 -0.536793 1.80278 0
M  V30 7404 O 688.325 -1.38033 1.17543 0
M  V30 7405 C 688.373 1.39295 3.3261 0
M  V30 7406 O 687.477 0.573846 4.08388 0
M  V30 7407 H 686.818 0.326234 0.578331 0
M  V30 7408 H 689.348 1.50094 1.39043 0
M  V30 7409 H 689.358 1.39366 3.83459 0
M  V30 7410 H 688.033 2.44555 3.36401 0
M  V30 7411 H 686.61 0.640438 3.67359 0
M  V30 7412 N 688.795 -1.27931 0.920396 0
M  V30 7413 C 690.023 -1.98805 0.573087 0
M  V30 7414 C 690.438 -1.68724 -0.847201 0
M  V30 7415 O 689.795 -0.943699 -1.56207 0
M  V30 7416 C 689.846 -3.52971 0.780633 0
M  V30 7417 O 689.567 -3.81994 2.14504 0
M  V30 7418 C 691.068 -4.411 0.44105 0
M  V30 7419 H 688.288 -0.634651 0.21785 0
M  V30 7420 H 690.832 -1.62965 1.23542 0
M  V30 7421 H 688.987 -3.87048 0.165204 0
M  V30 7422 H 689.401 -4.76609 2.18962 0
M  V30 7423 H 690.875 -5.48312 0.637006 0
M  V30 7424 H 691.352 -4.34758 -0.62306 0
M  V30 7425 H 691.958 -4.12532 1.0343 0
M  V30 7426 N 690.273 -0.685099 -1.4193 0
M  V30 7427 C 691.519 -0.220688 -2.02199 0
M  V30 7428 C 691.874 1.16329 -1.5325 0
M  V30 7429 O 691.167 1.77175 -0.729345 0
M  V30 7430 C 691.361 -0.206154 -3.56805 0
M  V30 7431 C 691.19 -1.58718 -4.2076 0
M  V30 7432 C 689.96 -2.18747 -4.55497 0
M  V30 7433 C 692.158 -2.53182 -4.47664 0
M  V30 7434 N 690.14 -3.49523 -5.04685 0
M  V30 7435 C 691.511 -3.68625 -4.98514 0
M  V30 7436 C 693.566 -2.51582 -4.29664 0
M  V30 7437 C 692.269 -4.82734 -5.33255 0
M  V30 7438 C 694.295 -3.64795 -4.65487 0
M  V30 7439 C 693.657 -4.78967 -5.16498 0
M  V30 7440 H 689.756 -0.12591 -0.771797 0
M  V30 7441 H 692.34 -0.900316 -1.72634 0
M  V30 7442 H 690.511 0.442923 -3.85866 0
M  V30 7443 H 692.243 0.272103 -4.03784 0
M  V30 7444 H 688.998 -1.71135 -4.41599 0
M  V30 7445 H 689.422 -4.1653 -5.33696 0
M  V30 7446 H 694.064 -1.64535 -3.89472 0
M  V30 7447 H 691.782 -5.7045 -5.72375 0
M  V30 7448 H 695.368 -3.64796 -4.53227 0
M  V30 7449 H 694.248 -5.6512 -5.437 0
M  V30 7450 N 691.751 1.51645 -0.429126 0
M  V30 7451 C 692.683 2.25279 0.422124 0
M  V30 7452 C 693.696 1.28986 0.993299 0
M  V30 7453 O 694.885 1.54797 0.888836 0
M  V30 7454 C 691.985 2.98666 1.60162 0
M  V30 7455 C 691.158 4.2199 1.15078 0
M  V30 7456 C 690.217 4.78028 2.19946 0
M  V30 7457 O 689.243 5.40084 1.79716 0
M  V30 7458 N 690.445 4.61342 3.5234 0
M  V30 7459 H 693.21 2.98971 -0.208931 0
M  V30 7460 H 690.771 1.59838 -0.257568 0
M  V30 7461 H 692.763 3.33044 2.29922 0
M  V30 7462 H 691.333 2.28036 2.13818 0
M  V30 7463 H 690.553 3.932 0.280552 0
M  V30 7464 H 691.841 5.02037 0.826831 0
M  V30 7465 H 691.239 4.11894 3.87763 0
M  V30 7466 H 689.796 5.00104 4.18019 0
M  V30 7467 N 693.229 0.160201 1.56784 0
M  V30 7468 C 694.161 -0.80564 2.14574 0
M  V30 7469 C 695.174 -1.20154 1.09849 0
M  V30 7470 O 696.363 -1.14333 1.37078 0
M  V30 7471 C 693.463 -2.09434 2.6644 0
M  V30 7472 C 692.636 -1.86375 3.95706 0
M  V30 7473 C 691.695 -2.99358 4.32749 0
M  V30 7474 O 690.721 -2.70475 5.00831 0
M  V30 7475 N 691.923 -4.26867 3.93402 0
M  V30 7476 H 694.688 -0.311644 2.98075 0
M  V30 7477 H 692.249 -0.0229465 1.61884 0
M  V30 7478 H 694.241 -2.84091 2.88226 0
M  V30 7479 H 692.811 -2.50057 1.8759 0
M  V30 7480 H 692.031 -0.956821 3.82412 0
M  V30 7481 H 693.319 -1.68322 4.80151 0
M  V30 7482 H 692.717 -4.53197 3.38569 0
M  V30 7483 H 691.274 -4.98263 4.20211 0
M  V30 7484 N 694.707 -1.5719 -0.113559 0
M  V30 7485 C 695.955 -1.84772 -0.818761 0
M  V30 7486 C 696.276 -0.746196 -1.80158 0
M  V30 7487 O 695.546 0.229305 -1.94553 0
M  V30 7488 H 694.126 -0.681737 -0.305359 0
M  V30 7489 H 696.788 -1.94645 -0.0995845 0
M  V30 7490 H 695.884 -2.80878 -1.36067 0
M  V30 7491 N 696.185 0.383891 -1.52853 0
M  V30 7492 C 697.601 0.724316 -1.42218 0
M  V30 7493 C 697.801 1.93943 -0.546654 0
M  V30 7494 O 696.857 2.5249 -0.0220562 0
M  V30 7495 C 698.17 0.954635 -2.85144 0
M  V30 7496 C 699.718 1.05579 -2.94656 0
M  V30 7497 C 700.193 1.3187 -4.38605 0
M  V30 7498 N 701.684 1.38681 -4.41952 0
M  V30 7499 C 702.419 1.60699 -5.50421 0
M  V30 7500 N 701.915 1.80154 -6.68967 0
M  V30 7501 N 703.708 1.6292 -5.37972 0
M  V30 7502 H 695.859 -0.4156 -2.08294 0
M  V30 7503 H 698.122 -0.123776 -0.939885 0
M  V30 7504 H 697.828 0.133829 -3.51445 0
M  V30 7505 H 697.702 1.86788 -3.27704 0
M  V30 7506 H 700.089 1.86716 -2.2852 0
M  V30 7507 H 700.17 0.120338 -2.55517 0
M  V30 7508 H 699.814 0.512416 -5.05309 0
M  V30 7509 H 699.744 2.26708 -4.75301 0
M  V30 7510 H 702.235 1.25334 -3.56511 0
M  V30 7511 H 702.548 1.96476 -7.47407 0
M  V30 7512 H 700.893 1.77368 -6.71986 0
M  V30 7513 H 704.084 1.47276 -4.44328 0
M  V30 7514 H 704.257 1.79739 -6.22574 0
M  V30 7515 N 697.663 1.43903 0.642637 0
M  V30 7516 C 698.593 1.52697 1.76652 0
M  V30 7517 C 699.574 0.380816 1.65782 0
M  V30 7518 O 700.759 0.599432 1.84717 0
M  V30 7519 C 697.889 1.45975 3.15133 0
M  V30 7520 C 696.843 2.58949 3.40778 0
M  V30 7521 C 696.169 2.37279 4.79169 0
M  V30 7522 C 697.469 4.01153 3.34475 0
M  V30 7523 H 699.163 2.46766 1.69549 0
M  V30 7524 H 696.709 1.18767 0.814279 0
M  V30 7525 H 698.662 1.5073 3.93521 0
M  V30 7526 H 697.386 0.484162 3.22991 0
M  V30 7527 H 696.045 2.53564 2.64765 0
M  V30 7528 H 695.693 1.37939 4.83717 0
M  V30 7529 H 695.393 3.13016 4.97287 0
M  V30 7530 H 696.917 2.43834 5.59801 0
M  V30 7531 H 698.331 4.07968 4.02784 0
M  V30 7532 H 696.728 4.77001 3.64129 0
M  V30 7533 H 697.798 4.25539 2.32475 0
M  V30 7534 N 699.141 -0.881989 1.30609 0
M  V30 7535 C 700.381 -1.64817 1.20891 0
M  V30 7536 C 700.745 -1.90593 -0.232043 0
M  V30 7537 O 701.946 -2.64964 -0.452516 0
M  V30 7538 C 700.217 -2.95006 2.01758 0
M  V30 7539 S 701.776 -3.85953 2.08771 0
M  V30 7540 H 698.594 -0.565651 0.430767 0
M  V30 7541 H 701.196 -1.04665 1.65122 0
M  V30 7542 H 699.9 -2.73973 3.0556 0
M  V30 7543 H 699.431 -3.60189 1.582 0
M  V30 7544 H 701.446 -4.81037 1.21727 0
M  V30 7545 N 700.619 -1.13374 -1.09472 0
M  V30 7546 C 701.868 -0.889844 -1.8101 0
M  V30 7547 C 702.181 0.585686 -1.86625 0
M  V30 7548 O 703.387 0.946497 -2.54467 0
M  V30 7549 C 701.843 -1.54241 -3.25174 0
M  V30 7550 C 701.451 -3.05343 -3.27826 0
M  V30 7551 C 703.195 -1.37919 -4.0147 0
M  V30 7552 C 701.102 -3.63486 -4.6651 0
M  V30 7553 H 700.032 -0.329256 -0.678311 0
M  V30 7554 H 702.683 -1.36139 -1.23038 0
M  V30 7555 H 701.065 -0.998525 -3.83204 0
M  V30 7556 H 702.239 -3.66307 -2.79563 0
M  V30 7557 H 700.554 -3.21175 -2.65019 0
M  V30 7558 H 703.151 -1.78771 -5.03929 0
M  V30 7559 H 703.494 -0.323987 -4.15037 0
M  V30 7560 H 704.027 -1.89284 -3.49881 0
M  V30 7561 H 700.766 -4.68811 -4.58145 0
M  V30 7562 H 700.286 -3.073 -5.15099 0
M  V30 7563 H 701.965 -3.63134 -5.35484 0
M  V30 7564 N 702.098 1.27442 -0.927168 0
M  V30 7565 C 703.048 2.24519 -0.396878 0
M  V30 7566 C 704.032 1.52981 0.498555 0
M  V30 7567 O 705.224 1.7378 0.336087 0
M  V30 7568 C 702.353 3.41514 0.349694 0
M  V30 7569 C 701.439 4.20357 -0.562226 0
M  V30 7570 N 701.83 4.7702 -1.68182 0
M  V30 7571 C 700.128 4.44503 -0.365135 0
M  V30 7572 C 700.829 5.36467 -2.24895 0
M  V30 7573 N 699.805 5.21371 -1.5386 0
M  V30 7574 H 703.607 2.65911 -1.25173 0
M  V30 7575 H 701.121 1.42366 -0.78138 0
M  V30 7576 H 703.118 4.10161 0.746536 0
M  V30 7577 H 701.778 3.01653 1.20148 0
M  V30 7578 H 702.789 4.74985 -2.06421 0
M  V30 7579 H 699.466 4.15111 0.446037 0
M  V30 7580 H 700.856 5.91264 -3.1915 0
M  V30 7581 N 703.576 0.692616 1.41565 0
M  V30 7582 C 704.822 0.222664 2.01574 0
M  V30 7583 C 705.155 -1.1737 1.54719 0
M  V30 7584 O 704.43 -1.79161 0.757084 0
M  V30 7585 C 704.713 0.277064 3.59033 0
M  V30 7586 C 704.566 1.71016 4.16021 0
M  V30 7587 C 705.885 -0.36479 4.38586 0
M  V30 7588 H 703.004 0.0823839 0.732381 0
M  V30 7589 H 705.646 0.880778 1.68352 0
M  V30 7590 H 703.796 -0.283288 3.87466 0
M  V30 7591 H 705.468 2.32413 3.98475 0
M  V30 7592 H 703.711 2.24525 3.71175 0
M  V30 7593 H 704.382 1.69978 5.25178 0
M  V30 7594 H 706.858 0.112404 4.15948 0
M  V30 7595 H 705.734 -0.296169 5.481 0
M  V30 7596 H 705.995 -1.44506 4.17816 0
M  V30 7597 N 705.054 -1.51416 0.437162 0
M  V30 7598 C 706.284 -2.06204 -0.127859 0
M  V30 7599 C 706.692 -1.30463 -1.37026 0
M  V30 7600 O 706.035 -0.357516 -1.80187 0
M  V30 7601 C 706.097 -3.55783 -0.515632 0
M  V30 7602 C 705.761 -4.52776 0.619937 0
M  V30 7603 C 706.758 -4.98031 1.49201 0
M  V30 7604 C 704.443 -4.95878 0.800618 0
M  V30 7605 C 706.437 -5.85061 2.52947 0
M  V30 7606 C 704.124 -5.82699 1.84135 0
M  V30 7607 C 705.122 -6.27188 2.70416 0
M  V30 7608 O 704.81 -7.12284 3.72702 0
M  V30 7609 H 704.542 -0.675903 -0.011442 0
M  V30 7610 H 707.096 -1.95977 0.614986 0
M  V30 7611 H 705.326 -3.63793 -1.31118 0
M  V30 7612 H 707.015 -3.93087 -1.01179 0
M  V30 7613 H 707.781 -4.65426 1.36395 0
M  V30 7614 H 703.66 -4.60792 0.138617 0
M  V30 7615 H 707.204 -6.19708 3.20325 0
M  V30 7616 H 703.101 -6.14717 1.9696 0
M  V30 7617 H 703.869 -7.30462 3.69281 0
M  V30 7618 N 706.532 -0.168513 -1.56696 0
M  V30 7619 C 707.948 0.187686 -1.58493 0
M  V30 7620 C 708.148 1.63063 -1.18375 0
M  V30 7621 O 707.204 2.36142 -0.894042 0
M  V30 7622 C 708.517 -0.0905858 -3.00564 0
M  V30 7623 C 710.065 -0.028575 -3.12987 0
M  V30 7624 C 710.54 -0.279799 -4.57145 0
M  V30 7625 N 712.031 -0.227476 -4.62641 0
M  V30 7626 C 712.766 -0.396073 -5.7203 0
M  V30 7627 N 712.262 -0.623572 -6.89988 0
M  V30 7628 N 714.055 -0.332173 -5.61118 0
M  V30 7629 H 706.206 -1.11042 -1.81062 0
M  V30 7630 H 708.469 -0.441235 -0.839056 0
M  V30 7631 H 708.175 -1.09006 -3.34381 0
M  V30 7632 H 708.049 0.619078 -3.72085 0
M  V30 7633 H 710.436 0.961471 -2.78998 0
M  V30 7634 H 710.517 -0.770905 -2.43907 0
M  V30 7635 H 710.161 -1.26704 -4.91842 0
M  V30 7636 H 710.091 0.48311 -5.24379 0
M  V30 7637 H 712.582 -0.0571723 -3.77857 0
M  V30 7638 H 712.895 -0.741745 -7.69232 0
M  V30 7639 H 711.24 -0.660153 -6.91858 0
M  V30 7640 H 714.431 -0.155051 -4.67843 0
M  V30 7641 H 714.604 -0.466994 -6.46315 0
M  V30 7642 N 708.01 1.57248 0.105221 0
M  V30 7643 C 708.94 2.04374 1.12931 0
M  V30 7644 C 709.921 0.93074 1.42377 0
M  V30 7645 O 711.106 1.20136 1.52581 0
M  V30 7646 C 708.236 2.45967 2.45189 0
M  V30 7647 C 707.19 3.60838 2.30174 0
M  V30 7648 C 706.516 3.88374 3.67518 0
M  V30 7649 C 707.816 4.92084 1.75073 0
M  V30 7650 H 709.51 2.9018 0.737287 0
M  V30 7651 H 707.056 1.39601 0.353211 0
M  V30 7652 H 709.009 2.77542 3.17094 0
M  V30 7653 H 707.733 1.57148 2.86308 0
M  V30 7654 H 706.392 3.29493 1.60716 0
M  V30 7655 H 706.04 2.96739 4.06147 0
M  V30 7656 H 705.74 4.65703 3.58321 0
M  V30 7657 H 707.264 4.22415 4.40906 0
M  V30 7658 H 708.678 5.22106 2.36809 0
M  V30 7659 H 707.075 5.73507 1.76662 0
M  V30 7660 H 708.145 4.79684 0.709347 0
M  V30 7661 N 709.488 -0.375779 1.53054 0
M  V30 7662 C 710.765 -1.13453 1.59336 0
M  V30 7663 C 711.145 -2.07379 0.394614 0
M  V30 7664 O 710.493 -2.2004 -0.616 0
M  V30 7665 C 710.703 -1.8826 2.93869 0
M  V30 7666 C 712.051 -2.43155 3.48081 0
M  V30 7667 O 713.075 -1.984 2.95831 0
M  V30 7668 O 711.934 -3.24944 4.39401 0
M  V30 7669 H 709.028 -0.519856 0.643179 0
M  V30 7670 H 711.574 -0.379865 1.65394 0
M  V30 7671 H 710.346 -1.19652 3.72558 0
M  V30 7672 H 709.969 -2.70658 2.91256 0
M  V30 7673 N 710.966 -1.44241 -0.634997 0
M  V30 7674 C 711.914 -1.51103 -1.76835 0
M  V30 7675 C 712.908 -0.383051 -1.65012 0
M  V30 7676 O 714.114 -0.557832 -1.71138 0
M  V30 7677 H 710.489 -0.474076 -0.583743 0
M  V30 7678 H 712.46 -2.46499 -1.68169 0
M  V30 7679 C 711.209 -1.4687 -3.15158 0
M  V30 7680 H 710.532 -2.32979 -3.24901 0
M  V30 7681 H 711.972 -1.55731 -3.94365 0
M  V30 7682 C 710.431 -0.188884 -3.3637 0
M  V30 7683 O 710.961 0.742487 -3.94778 0
M  V30 7684 N 709.167 -0.0932516 -2.9045 0
M  V30 7685 H 708.714 -0.852004 -2.43102 0
M  V30 7686 H 708.672 0.762308 -3.05018 0
M  V30 7687 N 712.444 0.87505 -1.31075 0
M  V30 7688 C 713.674 1.65818 -1.2324 0
M  V30 7689 C 714.082 1.8808 0.205536 0
M  V30 7690 O 713.425 1.43548 1.14628 0
M  V30 7691 C 713.487 3.05131 -1.90093 0
M  V30 7692 C 713.151 3.05999 -3.39432 0
M  V30 7693 C 714.148 2.84328 -4.35263 0
M  V30 7694 C 711.833 3.27281 -3.81041 0
M  V30 7695 C 713.827 2.83912 -5.70678 0
M  V30 7696 C 711.514 3.26493 -5.16571 0
M  V30 7697 C 712.512 3.04834 -6.112 0
M  V30 7698 O 712.2 3.03882 -7.44252 0
M  V30 7699 H 711.932 0.52387 -0.427242 0
M  V30 7700 H 714.486 1.10086 -1.73408 0
M  V30 7701 H 712.716 3.62568 -1.34468 0
M  V30 7702 H 714.405 3.65641 -1.76242 0
M  V30 7703 H 715.171 2.67673 -4.04445 0
M  V30 7704 H 711.05 3.43171 -3.07822 0
M  V30 7705 H 714.594 2.66925 -6.44513 0
M  V30 7706 H 710.491 3.42687 -5.47025 0
M  V30 7707 H 711.259 3.19979 -7.53363 0
M  V30 7708 N 713.922 1.13953 1.08869 0
M  V30 7709 C 715.147 0.928559 1.85452 0
M  V30 7710 C 715.572 -0.517642 1.80837 0
M  V30 7711 O 714.93 -1.36779 1.19001 0
M  V30 7712 C 714.978 1.42814 3.31114 0
M  V30 7713 O 714.082 0.617129 4.07756 0
M  V30 7714 H 713.423 0.33235 0.574839 0
M  V30 7715 H 715.953 1.5156 1.37443 0
M  V30 7716 H 715.963 1.43425 3.8196 0
M  V30 7717 H 714.638 2.48109 3.33788 0
M  V30 7718 H 713.215 0.679365 3.66659 0
M  V30 7719 N 715.4 -1.26948 0.933913 0
M  V30 7720 C 716.816 -1.46419 0.635103 0
M  V30 7721 C 717.016 -1.84336 -0.813785 0
M  V30 7722 O 716.072 -1.96061 -1.59111 0
M  V30 7723 C 717.385 -2.55206 1.5903 0
M  V30 7724 C 718.933 -2.69062 1.5992 0
M  V30 7725 C 719.408 -3.81013 2.54152 0
M  V30 7726 N 720.899 -3.88395 2.52395 0
M  V30 7727 C 721.634 -4.74454 3.21996 0
M  V30 7728 N 721.13 -5.64954 4.00997 0
M  V30 7729 N 722.923 -4.68237 3.10983 0
M  V30 7730 H 715.074 -1.00622 1.87053 0
M  V30 7731 H 717.337 -0.503189 0.803433 0
M  V30 7732 H 717.043 -2.34153 2.62422 0
M  V30 7733 H 716.917 -3.52719 1.33677 0
M  V30 7734 H 719.304 -2.89492 0.572569 0
M  V30 7735 H 719.385 -1.72016 1.89325 0
M  V30 7736 H 719.029 -3.61336 3.5693 0
M  V30 7737 H 718.959 -4.77499 2.22041 0
M  V30 7738 H 721.45 -3.23687 1.95025 0
M  V30 7739 H 721.763 -6.27496 4.51074 0
M  V30 7740 H 720.108 -5.6473 4.05099 0
M  V30 7741 H 723.299 -3.96535 2.48753 0
M  V30 7742 H 723.472 -5.35087 3.65494 0
M  V30 7743 N 716.879 -0.700114 -1.41195 0
M  V30 7744 C 718.125 -0.233351 -2.01453 0
M  V30 7745 C 718.458 1.16548 -1.55339 0
M  V30 7746 O 717.733 1.78756 -0.766575 0
M  V30 7747 C 718.016 -0.2961 -3.58881 0
M  V30 7748 C 717.869 -1.7322 -4.15108 0
M  V30 7749 C 719.188 0.341525 -4.38773 0
M  V30 7750 H 716.307 -0.0862667 -0.731934 0
M  V30 7751 H 718.949 -0.889693 -1.67882 0
M  V30 7752 H 717.099 0.262736 -3.87611 0
M  V30 7753 H 718.771 -2.34523 -3.97236 0
M  V30 7754 H 717.014 -2.2649 -3.69979 0
M  V30 7755 H 717.685 -1.7276 -5.24269 0
M  V30 7756 H 720.161 -0.134461 -4.15883 0
M  V30 7757 H 719.037 0.267098 -5.4825 0
M  V30 7758 H 719.298 1.42289 -4.18577 0
M  V30 7759 N 718.357 1.51182 -0.445186 0
M  V30 7760 C 719.603 2.02452 0.11882 0
M  V30 7761 C 719.936 1.32824 1.41673 0
M  V30 7762 O 719.211 0.445637 1.89326 0
M  V30 7763 C 719.494 3.5859 0.329475 0
M  V30 7764 C 719.347 4.38823 -0.987638 0
M  V30 7765 C 720.666 4.26241 1.09575 0
M  V30 7766 H 717.785 0.735819 0.0417092 0
M  V30 7767 H 720.427 1.80747 -0.585718 0
M  V30 7768 H 718.577 3.77214 0.9296 0
M  V30 7769 H 720.249 4.3183 -1.62235 0
M  V30 7770 H 718.492 4.03594 -1.59041 0
M  V30 7771 H 719.163 5.46257 -0.794192 0
M  V30 7772 H 721.639 4.11934 0.587328 0
M  V30 7773 H 720.515 5.35354 1.21191 0
M  V30 7774 H 720.776 3.87635 2.12584 0
M  V30 7775 N 719.835 0.176821 1.56605 0
M  V30 7776 C 721.082 -0.466715 1.97048 0
M  V30 7777 C 721.41 -1.6288 1.06302 0
M  V30 7778 O 720.665 -1.95453 0.0982571 0
M  V30 7779 C 720.964 -0.986208 3.43524 0
M  V30 7780 C 720.63 0.0605667 4.50859 0
M  V30 7781 C 719.292 0.348242 4.79938 0
M  V30 7782 C 721.644 0.770794 5.15469 0
M  V30 7783 C 718.972 1.35144 5.70923 0
M  V30 7784 C 721.324 1.76301 6.07537 0
M  V30 7785 C 719.988 2.05808 6.3498 0
M  V30 7786 H 719.258 -0.170783 0.721051 0
M  V30 7787 H 721.905 0.269942 1.89588 0
M  V30 7788 H 720.21 -1.80079 3.47964 0
M  V30 7789 H 721.907 -1.49323 3.72161 0
M  V30 7790 H 718.497 -0.173823 4.28247 0
M  V30 7791 H 722.681 0.56176 4.9311 0
M  V30 7792 H 717.937 1.58616 5.90467 0
M  V30 7793 H 722.111 2.31868 6.56666 0
M  V30 7794 H 719.738 2.8369 7.05283 0
M  V30 7795 N 721.313 -1.57302 -0.09688 0
M  V30 7796 C 722.724 -1.7496 -0.651595 0
M  V30 7797 C 723.075 -0.798746 -1.79205 0
M  V30 7798 O 722.2 0.0231858 -2.16388 0
M  V30 7799 C 722.795 -3.17259 -1.18878 0
M  V30 7800 C 721.354 -3.36348 -1.68958 0
M  V30 7801 C 720.501 -2.70766 -0.598413 0
M  V30 7802 H 723.452 -1.58173 0.12918 0
M  V30 7803 H 723.473 -3.20033 -2.05814 0
M  V30 7804 H 722.985 -3.8644 -0.358523 0
M  V30 7805 H 721.086 -2.72243 -2.5439 0
M  V30 7806 H 721.199 -4.44654 -1.7838 0
M  V30 7807 H 719.563 -2.32615 -1.03743 0
M  V30 7808 H 720.346 -3.42586 0.221238 0
M  V30 7809 N 722.791 0.367657 -1.53252 0
M  V30 7810 C 724.037 1.11216 -1.69584 0
M  V30 7811 C 724.37 1.89026 -0.445269 0
M  V30 7812 O 723.645 1.86342 0.557404 0
M  V30 7813 C 723.928 2.07308 -2.94441 0
M  V30 7814 C 723.781 1.3312 -4.2965 0
M  V30 7815 C 725.1 3.07459 -3.14892 0
M  V30 7816 H 722.219 0.40294 -0.617096 0
M  V30 7817 H 724.861 0.393201 -1.85887 0
M  V30 7818 H 723.011 2.68617 -2.80673 0
M  V30 7819 H 724.683 0.746111 -4.55226 0
M  V30 7820 H 722.926 0.633051 -4.29156 0
M  V30 7821 H 723.597 2.03443 -5.13142 0
M  V30 7822 H 726.073 2.56252 -3.27832 0
M  V30 7823 H 724.949 3.71919 -4.03693 0
M  V30 7824 H 725.21 3.77514 -2.30077 0
M  V30 7825 N 724.269 1.44576 0.627338 0
M  V30 7826 C 725.497 1.51048 1.41394 0
M  V30 7827 C 725.912 0.136568 1.88305 0
M  V30 7828 O 725.269 -0.858251 1.6106 0
M  V30 7829 C 725.32 2.47837 2.63172 0
M  V30 7830 O 725.041 3.79887 2.18215 0
M  V30 7831 C 726.542 2.63811 3.56257 0
M  V30 7832 H 723.762 0.512171 0.4335 0
M  V30 7833 H 726.306 1.89576 0.766878 0
M  V30 7834 H 724.461 2.12433 3.23961 0
M  V30 7835 H 724.875 4.32177 2.97192 0
M  V30 7836 H 726.349 3.35554 4.38301 0
M  V30 7837 H 726.826 1.69169 4.05313 0
M  V30 7838 H 727.432 3.0013 3.01333 0
M  V30 7839 N 725.747 -0.868086 1.31537 0
M  V30 7840 C 726.994 -1.62127 1.2133 0
M  V30 7841 C 727.322 -1.93158 -0.2281 0
M  V30 7842 O 726.577 -1.5632 -1.1774 0
M  V30 7843 C 726.876 -2.95889 2.0046 0
M  V30 7844 C 726.542 -2.84343 3.49943 0
M  V30 7845 C 725.204 -2.80901 3.90702 0
M  V30 7846 C 727.556 -2.71243 4.45058 0
M  V30 7847 C 724.884 -2.6222 5.24841 0
M  V30 7848 C 727.236 -2.54098 5.79325 0
M  V30 7849 C 725.9 -2.4904 6.19302 0
M  V30 7850 H 725.17 -0.593265 0.443979 0
M  V30 7851 H 727.817 -1.00803 1.62822 0
M  V30 7852 H 726.122 -3.61259 1.51655 0
M  V30 7853 H 727.819 -3.53161 1.89942 0
M  V30 7854 H 724.409 -2.8784 3.17563 0
M  V30 7855 H 728.593 -2.72956 4.14498 0
M  V30 7856 H 723.849 -2.56731 5.54887 0
M  V30 7857 H 728.023 -2.42938 6.52652 0
M  V30 7858 H 725.65 -2.34324 7.23185 0
M  V30 7859 N 727.225 -1.14528 -1.08264 0
M  V30 7860 C 728.472 -0.914405 -1.80679 0
M  V30 7861 C 728.8 0.558952 -1.86295 0
M  V30 7862 O 728.055 1.43017 -1.33584 0
M  V30 7863 C 728.354 -1.46226 -3.26117 0
M  V30 7864 C 728.02 -2.95451 -3.40616 0
M  V30 7865 C 726.682 -3.36191 -3.4428 0
M  V30 7866 C 729.034 -3.91399 -3.44175 0
M  V30 7867 C 726.362 -4.71539 -3.49096 0
M  V30 7868 C 728.714 -5.26606 -3.50526 0
M  V30 7869 C 727.378 -5.66856 -3.52464 0
M  V30 7870 H 726.648 -0.334604 -0.661151 0
M  V30 7871 H 729.295 -1.4292 -1.27461 0
M  V30 7872 H 727.6 -0.868442 -3.82054 0
M  V30 7873 H 729.297 -1.25955 -3.80705 0
M  V30 7874 H 725.887 -2.62955 -3.38456 0
M  V30 7875 H 730.071 -3.61004 -3.40573 0
M  V30 7876 H 725.327 -5.02082 -3.4889 0
M  V30 7877 H 729.501 -6.00758 -3.52225 0
M  V30 7878 H 727.128 -6.71718 -3.55948 0
M  V30 7879 N 728.703 1.26451 -0.940633 0
M  V30 7880 C 729.95 1.93778 -0.587909 0
M  V30 7881 C 730.278 1.73811 0.872935 0
M  V30 7882 O 729.533 1.06816 1.63978 0
M  V30 7883 C 729.832 3.46503 -0.875794 0
M  V30 7884 C 729.498 3.86609 -2.32043 0
M  V30 7885 C 728.16 3.97269 -2.71534 0
M  V30 7886 C 730.512 4.0672 -3.25927 0
M  V30 7887 C 727.84 4.25436 -4.04006 0
M  V30 7888 C 730.192 4.36375 -4.57995 0
M  V30 7889 C 728.856 4.45249 -4.97302 0
M  V30 7890 H 728.126 0.709084 -0.215131 0
M  V30 7891 H 730.773 1.50272 -1.18704 0
M  V30 7892 H 729.078 3.91319 -0.194124 0
M  V30 7893 H 730.775 3.96759 -0.581665 0
M  V30 7894 H 727.365 3.78858 -2.00411 0
M  V30 7895 H 731.549 3.97912 -2.96614 0
M  V30 7896 H 726.805 4.30519 -4.34124 0
M  V30 7897 H 730.979 4.50882 -5.30734 0
M  V30 7898 H 728.606 4.66829 -5.99979 0
M  V30 7899 N 730.181 0.707592 1.40822 0
M  V30 7900 C 731.428 0.243671 2.01029 0
M  V30 7901 C 731.756 -1.16057 1.5608 0
M  V30 7902 O 731.011 -1.7999 0.768251 0
M  V30 7903 C 731.31 0.262892 3.56432 0
M  V30 7904 C 730.976 1.61632 4.20935 0
M  V30 7905 C 729.638 1.98682 4.38268 0
M  V30 7906 C 731.99 2.50619 4.5699 0
M  V30 7907 C 729.318 3.2428 4.88937 0
M  V30 7908 C 731.67 3.75562 5.09054 0
M  V30 7909 C 730.334 4.12739 5.24598 0
M  V30 7910 H 729.604 0.0891654 0.735616 0
M  V30 7911 H 732.251 0.909051 1.68548 0
M  V30 7912 H 730.556 -0.486052 3.88773 0
M  V30 7913 H 732.253 -0.113775 4.00839 0
M  V30 7914 H 728.843 1.31818 4.07826 0
M  V30 7915 H 733.027 2.23272 4.43242 0
M  V30 7916 H 728.283 3.53064 4.99155 0
M  V30 7917 H 732.457 4.44692 5.35931 0
M  V30 7918 H 730.084 5.10132 5.63622 0
M  V30 7919 N 731.66 -1.50943 0.453197 0
M  V30 7920 C 732.608 -2.29728 -0.364419 0
M  V30 7921 C 733.602 -1.36246 -1.00664 0
M  V30 7922 O 734.808 -1.53518 -0.939794 0
M  V30 7923 H 731.183 -0.739536 -0.136347 0
M  V30 7924 H 733.154 -2.96672 0.320696 0
M  V30 7925 C 731.903 -3.1629 -1.44415 0
M  V30 7926 H 731.226 -3.88119 -0.959343 0
M  V30 7927 H 732.666 -3.74444 -1.98917 0
M  V30 7928 C 731.125 -2.32702 -2.43622 0
M  V30 7929 O 731.655 -1.99763 -3.48508 0
M  V30 7930 N 729.861 -1.95621 -2.14897 0
M  V30 7931 H 729.408 -2.22607 -1.29629 0
M  V30 7932 H 729.366 -1.39993 -2.81513 0
M  V30 7933 N 733.138 -0.185124 -1.56509 0
M  V30 7934 C 734.384 0.456934 -1.97585 0
M  V30 7935 C 734.717 1.61957 -1.07161 0
M  V30 7936 O 733.992 1.9412 -0.121546 0
M  V30 7937 C 734.275 0.926666 -3.47973 0
M  V30 7938 C 734.128 -0.237097 -4.49175 0
M  V30 7939 C 735.447 1.79561 -4.01803 0
M  V30 7940 H 732.566 0.164619 -0.71838 0
M  V30 7941 H 735.208 -0.274039 -1.88013 0
M  V30 7942 H 733.358 1.54954 -3.56261 0
M  V30 7943 H 735.03 -0.87454 -4.52934 0
M  V30 7944 H 733.273 -0.890446 -4.24563 0
M  V30 7945 H 733.944 0.133924 -5.51838 0
M  V30 7946 H 736.42 1.27039 -3.96232 0
M  V30 7947 H 735.296 2.09327 -5.07418 0
M  V30 7948 H 735.557 2.74629 -3.46455 0
M  V30 7949 N 734.616 1.57351 0.0885366 0
M  V30 7950 C 735.546 2.05561 1.10757 0
M  V30 7951 C 736.527 0.945789 1.41382 0
M  V30 7952 O 737.712 1.21747 1.51299 0
M  V30 7953 C 734.842 2.48554 2.42566 0
M  V30 7954 C 733.796 3.63259 2.26334 0
M  V30 7955 C 733.122 3.9225 3.63378 0
M  V30 7956 C 734.422 4.93913 1.69844 0
M  V30 7957 H 736.116 2.90946 0.706468 0
M  V30 7958 H 733.662 1.39968 0.338385 0
M  V30 7959 H 735.615 2.8089 3.14132 0
M  V30 7960 H 734.339 1.60176 2.84625 0
M  V30 7961 H 732.998 3.31179 1.57213 0
M  V30 7962 H 732.646 3.0103 4.02976 0
M  V30 7963 H 732.346 4.69478 3.53362 0
M  V30 7964 H 733.87 4.27067 4.36401 0
M  V30 7965 H 735.284 5.24588 2.31258 0
M  V30 7966 H 733.681 5.75349 1.70569 0
M  V30 7967 H 734.751 4.80409 0.65843 0
M  V30 7968 N 736.094 -0.359525 1.53444 0
M  V30 7969 C 737.324 -1.12036 1.73585 0
M  V30 7970 C 737.732 -1.83335 0.467438 0
M  V30 7971 O 737.075 -1.74641 -0.569753 0
M  V30 7972 C 737.137 -2.19036 2.85068 0
M  V30 7973 C 736.801 -1.67451 4.25217 0
M  V30 7974 C 737.798 -1.13534 5.07352 0
M  V30 7975 C 735.483 -1.72781 4.71648 0
M  V30 7976 C 737.477 -0.656321 6.34012 0
M  V30 7977 C 735.164 -1.2449 5.98285 0
M  V30 7978 C 736.162 -0.710068 6.79299 0
M  V30 7979 O 735.85 -0.234314 8.03558 0
M  V30 7980 H 735.582 -0.340662 0.583888 0
M  V30 7981 H 738.136 -0.422452 2.01009 0
M  V30 7982 H 736.366 -2.92338 2.53131 0
M  V30 7983 H 738.055 -2.80559 2.93328 0
M  V30 7984 H 738.821 -1.08751 4.7265 0
M  V30 7985 H 734.7 -2.13351 4.08659 0
M  V30 7986 H 738.244 -0.238193 6.97193 0
M  V30 7987 H 734.141 -1.28969 6.32485 0
M  V30 7988 H 734.909 -0.353084 8.17738 0
M  V30 7989 N 737.572 -1.44907 -0.619662 0
M  V30 7990 C 738.818 -1.49504 -1.37914 0
M  V30 7991 C 739.173 -0.130158 -1.91959 0
M  V30 7992 O 738.466 0.856263 -1.71402 0
M  V30 7993 C 738.66 -2.50002 -2.55409 0
M  V30 7994 C 738.489 -3.96128 -2.12867 0
M  V30 7995 C 737.259 -4.64204 -1.99606 0
M  V30 7996 C 739.457 -4.85014 -1.71074 0
M  V30 7997 N 737.439 -5.95104 -1.50748 0
M  V30 7998 C 738.81 -6.05447 -1.33544 0
M  V30 7999 C 740.865 -4.71979 -1.58557 0
M  V30 8000 C 739.568 -7.1429 -0.847484 0
M  V30 8001 C 741.594 -5.80858 -1.11165 0
M  V30 8002 C 740.956 -7.00439 -0.745932 0
M  V30 8003 H 737.055 -0.60207 -0.499034 0
M  V30 8004 H 739.639 -1.81305 -0.70968 0
M  V30 8005 H 737.81 -2.20172 -3.19967 0
M  V30 8006 H 739.542 -2.44823 -3.22248 0
M  V30 8007 H 736.297 -4.19182 -2.20417 0
M  V30 8008 H 736.721 -6.64676 -1.28585 0
M  V30 8009 H 741.363 -3.79953 -1.85461 0
M  V30 8010 H 739.081 -8.06116 -0.565974 0
M  V30 8011 H 742.667 -5.72803 -1.01923 0
M  V30 8012 H 741.547 -7.83255 -0.384848 0
M  V30 8013 N 739.05 0.861098 -1.31996 0
M  V30 8014 C 739.98 1.98482 -1.22993 0
M  V30 8015 C 740.961 1.6971 -0.115168 0
M  V30 8016 O 742.146 1.91849 -0.30126 0
M  V30 8017 C 739.276 3.34179 -0.945615 0
M  V30 8018 C 738.23 3.77284 -2.02091 0
M  V30 8019 C 737.556 5.1054 -1.58912 0
M  V30 8020 C 738.856 3.93439 -3.43515 0
M  V30 8021 H 740.55 2.06271 -2.17008 0
M  V30 8022 H 738.096 0.991043 -1.04472 0
M  V30 8023 H 740.049 4.12338 -0.869206 0
M  V30 8024 H 738.773 3.26586 0.0301849 0
M  V30 8025 H 737.432 3.01371 -2.08737 0
M  V30 8026 H 737.08 4.99397 -0.600942 0
M  V30 8027 H 736.78 5.40352 -2.30854 0
M  V30 8028 H 738.304 5.91199 -1.52696 0
M  V30 8029 H 739.718 4.6197 -3.39495 0
M  V30 8030 H 738.115 4.34661 -4.13751 0
M  V30 8031 H 739.185 2.96548 -3.8365 0
M  V30 8032 N 740.528 1.15101 1.07655 0
M  V30 8033 C 741.774 0.925343 1.80458 0
M  V30 8034 C 742.107 -0.546354 1.86356 0
M  V30 8035 O 741.382 -1.40496 1.34503 0
M  V30 8036 C 741.665 1.53646 3.25676 0
M  V30 8037 C 741.518 3.07854 3.27942 0
M  V30 8038 C 742.837 1.21968 4.22861 0
M  V30 8039 H 739.956 0.337592 0.655134 0
M  V30 8040 H 742.598 1.42217 1.25993 0
M  V30 8041 H 740.748 1.11395 3.72187 0
M  V30 8042 H 742.42 3.58989 2.89697 0
M  V30 8043 H 740.663 3.41904 2.66991 0
M  V30 8044 H 741.334 3.45725 4.30324 0
M  V30 8045 H 743.81 1.5851 3.84726 0
M  V30 8046 H 742.686 1.67349 5.22767 0
M  V30 8047 H 742.947 0.136207 4.4189 0
M  V30 8048 N 742.006 -1.2595 0.947325 0
M  V30 8049 C 743.246 -1.95218 0.605743 0
M  V30 8050 C 743.61 -1.72624 -0.84054 0
M  V30 8051 O 744.811 -2.35748 -1.29136 0
M  V30 8052 C 743.082 -3.44654 0.94596 0
M  V30 8053 S 744.641 -4.32922 0.715849 0
M  V30 8054 H 741.459 -0.675159 0.222894 0
M  V30 8055 H 744.061 -1.52766 1.21995 0
M  V30 8056 H 742.765 -3.586 1.99585 0
M  V30 8057 H 742.296 -3.92082 0.321718 0
M  V30 8058 H 744.311 -4.94445 -0.416959 0
M  V30 8059 N 743.484 -0.715051 -1.40445 0
M  V30 8060 C 744.414 -0.0768699 -2.33373 0
M  V30 8061 C 745.395 0.746109 -1.52863 0
M  V30 8062 O 746.58 0.695142 -1.81332 0
M  V30 8063 C 743.71 0.846014 -3.36838 0
M  V30 8064 C 742.664 0.128694 -4.27806 0
M  V30 8065 C 741.99 1.16726 -5.21804 0
M  V30 8066 C 743.29 -1.01679 -5.12307 0
M  V30 8067 H 744.984 -0.853061 -2.8699 0
M  V30 8068 H 742.53 -0.41167 -1.3799 0
M  V30 8069 H 744.483 1.30185 -4.00786 0
M  V30 8070 H 743.207 1.6541 -2.81615 0
M  V30 8071 H 741.866 -0.307314 -3.6531 0
M  V30 8072 H 741.514 1.96838 -4.62887 0
M  V30 8073 H 741.214 0.692188 -5.83509 0
M  V30 8074 H 742.738 1.62321 -5.88629 0
M  V30 8075 H 744.152 -0.640337 -5.69713 0
M  V30 8076 H 742.549 -1.4202 -5.83053 0
M  V30 8077 H 743.619 -1.84769 -4.48317 0
M  V30 8078 N 744.962 1.50701 -0.461195 0
M  V30 8079 C 745.91 2.29918 0.352231 0
M  V30 8080 C 746.904 1.36778 0.999403 0
M  V30 8081 O 748.11 1.54015 0.931639 0
M  V30 8082 H 744.485 0.740249 0.132423 0
M  V30 8083 H 746.456 2.96497 -0.336424 0
M  V30 8084 C 745.205 3.17052 1.42736 0
M  V30 8085 H 744.528 3.88623 0.938747 0
M  V30 8086 H 745.968 3.75493 1.96928 0
M  V30 8087 C 744.427 2.3399 2.42384 0
M  V30 8088 O 744.957 2.01608 3.47444 0
M  V30 8089 N 743.163 1.96758 2.13857 0
M  V30 8090 H 742.71 2.23292 1.28447 0
M  V30 8091 H 742.668 1.41484 2.80766 0
M  V30 8092 N 746.441 0.193421 1.56409 0
M  V30 8093 C 747.371 -0.723334 2.22014 0
M  V30 8094 C 748.352 -1.22254 1.1827 0
M  V30 8095 O 749.537 -1.27168 1.46771 0
M  V30 8096 C 746.667 -1.94366 2.87818 0
M  V30 8097 C 745.621 -1.57943 3.97791 0
M  V30 8098 C 744.947 -2.87623 4.50752 0
M  V30 8099 C 746.247 -0.790639 5.16281 0
M  V30 8100 H 747.941 -0.176426 2.9888 0
M  V30 8101 H 745.487 -0.0834166 1.43758 0
M  V30 8102 H 747.44 -2.5902 3.32396 0
M  V30 8103 H 746.164 -2.51507 2.08355 0
M  V30 8104 H 744.823 -0.956482 3.53903 0
M  V30 8105 H 744.471 -3.4285 3.68053 0
M  V30 8106 H 744.171 -2.63998 5.24956 0
M  V30 8107 H 745.695 -3.53268 4.9803 0
M  V30 8108 H 747.109 -1.34024 5.57414 0
M  V30 8109 H 745.506 -0.65258 5.96541 0
M  V30 8110 H 746.576 0.208633 4.84451 0
M  V30 8111 O 747.958 -1.61402 0.0562482 0
M  V30 8112 H 748.649 -1.85658 -0.552338 0
M  V30 END ATOM
M  V30 BEGIN BOND
M  V30 END BOND
M  V30 END CTAB
M  END
$$$$
