drugbank_target|P53779 Mitogen-activated protein kinase 10 (DB01782; DB02388; DB03084; DB03623; DB04395; DB06933; DB07010; DB07217; DB08005; DB08010; DB08011; DB08015; DB08021; DB08023; DB08025; DB08026; DB08555; DB12010)
 OpenBabel12092119473D

  0  0  0     0  0            999 V3000
M  V30 BEGIN CTAB
M  V30 COUNTS 7367 7449 0 0 0
M  V30 BEGIN ATOM
M  V30 1 H -0.908 1.98254 -0.117106 0
M  V30 2 N 0 1.576 0 0
M  V30 3 C 0.933 2.03868 1.02534 0
M  V30 4 C 1.911 0.928543 1.3348 0
M  V30 5 O 3.095 1.19667 1.45644 0
M  V30 6 C 0.222 2.43627 2.35294 0
M  V30 7 C -0.732 3.65373 2.2001 0
M  V30 8 S 0.101 5.13292 1.52614 0
M  V30 9 C 1.257 5.56322 2.86805 0
M  V30 10 H 1.49 2.90518 0.631377 0
M  V30 11 H -0.977 1.52953 0.210867 0
M  V30 12 H 0.981 2.67203 3.11629 0
M  V30 13 H -0.358 1.57376 2.7183 0
M  V30 14 H -1.165 3.90944 3.18086 0
M  V30 15 H -1.563 3.418 1.51819 0
M  V30 16 H 0.729 5.58782 3.83104 0
M  V30 17 H 1.672 6.56266 2.65933 0
M  V30 18 H 2.08 4.83886 2.90714 0
M  V30 19 N 1.4781 -0.272755 1.55222 0
M  V30 20 C 2.7031 -1.02683 1.80197 0
M  V30 21 C 3.1281 -1.79142 0.573551 0
M  V30 22 O 2.4861 -1.74917 -0.476849 0
M  V30 23 C 2.5341 -1.9609 3.02624 0
M  V30 24 O 1.6381 -3.04863 2.77727 0
M  V30 25 H 0.9791 -0.293557 0.595584 0
M  V30 26 H 3.5091 -0.30159 2.02365 0
M  V30 27 H 3.5191 -2.38039 3.31363 0
M  V30 28 H 2.1941 -1.39851 3.91682 0
M  V30 29 H 0.7711 -2.67228 2.60084 0
M  V30 30 N 2.9562 -1.48159 -0.537278 0
M  V30 31 C 3.8862 -1.65029 -1.6519 0
M  V30 32 C 4.8672 -0.499281 -1.62607 0
M  V30 33 O 6.0522 -0.730972 -1.79918 0
M  V30 34 C 3.1822 -1.68303 -3.03795 0
M  V30 35 C 2.1362 -2.8283 -3.21234 0
M  V30 36 C 1.4622 -2.71189 -4.60826 0
M  V30 37 C 2.7622 -4.24211 -3.04701 0
M  V30 38 H 4.4562 -2.58341 -1.51328 0
M  V30 39 H 2.0022 -1.24325 -0.726585 0
M  V30 40 H 3.9552 -1.78693 -3.81637 0
M  V30 41 H 2.6792 -0.715635 -3.18663 0
M  V30 42 H 1.3382 -2.71983 -2.45807 0
M  V30 43 H 0.9862 -1.72435 -4.7252 0
M  V30 44 H 0.6862 -3.48035 -4.7344 0
M  V30 45 H 2.2102 -2.83537 -5.40777 0
M  V30 46 H 3.6242 -4.3593 -3.72341 0
M  V30 47 H 2.0212 -5.01998 -3.28813 0
M  V30 48 H 3.0912 -4.41184 -2.01209 0
M  V30 49 N 4.4343 0.785586 -1.36625 0
M  V30 50 C 5.3843 1.88822 -1.27789 0
M  V30 51 C 6.3683 1.60014 -0.168579 0
M  V30 52 O 7.5603 1.72381 -0.401737 0
M  V30 53 C 4.6893 3.26092 -1.07327 0
M  V30 54 C 3.7753 3.60897 -2.22743 0
M  V30 55 N 4.1663 3.66982 -3.48077 0
M  V30 56 C 2.4643 3.90981 -2.14593 0
M  V30 57 C 3.1653 3.98137 -4.24101 0
M  V30 58 N 2.1413 4.13319 -3.53084 0
M  V30 59 H 5.9433 1.91759 -2.22723 0
M  V30 60 H 3.4573 0.981311 -1.29399 0
M  V30 61 H 5.4543 4.04954 -0.990842 0
M  V30 62 H 4.1143 3.24428 -0.132977 0
M  V30 63 H 5.1253 3.49531 -3.82163 0
M  V30 64 H 1.8023 3.9722 -1.2854 0
M  V30 65 H 3.1923 4.09737 -5.32509 0
M  V30 66 N 5.9124 1.20967 1.01018 0
M  V30 67 C 7.1594 1.02374 1.74716 0
M  V30 68 C 7.4874 -0.443375 1.89379 0
M  V30 69 O 6.7424 -1.34535 1.42123 0
M  V30 70 C 7.0414 1.65997 3.16512 0
M  V30 71 C 6.7074 3.15831 3.2181 0
M  V30 72 C 5.3694 3.56719 3.22963 0
M  V30 73 C 7.7214 4.11816 3.19464 0
M  V30 74 C 5.0494 4.92107 3.19449 0
M  V30 75 C 7.4014 5.47158 3.17491 0
M  V30 76 C 6.0654 5.87451 3.16951 0
M  V30 77 H 5.3354 0.374614 0.639332 0
M  V30 78 H 7.9824 1.50485 1.18434 0
M  V30 79 H 6.2874 1.10166 3.75993 0
M  V30 80 H 7.9844 1.49119 3.72242 0
M  V30 81 H 4.5744 2.83263 3.21652 0
M  V30 82 H 8.7584 3.81257 3.17737 0
M  V30 83 H 4.0144 5.22579 3.17366 0
M  V30 84 H 8.1884 6.21274 3.14629 0
M  V30 85 H 5.8154 6.92329 3.13983 0
M  V30 86 N 7.3905 -1.2043 1.01659 0
M  V30 87 C 8.3205 -2.25466 0.607226 0
M  V30 88 C 9.3015 -1.65853 -0.377716 0
M  V30 89 O 10.4865 -1.92409 -0.263149 0
M  V30 90 C 7.6165 -3.47256 -0.0552949 0
M  V30 91 C 6.5705 -4.19462 0.850632 0
M  V30 92 C 5.8965 -5.34673 0.0538859 0
M  V30 93 C 7.1965 -4.75603 2.15868 0
M  V30 94 H 8.8905 -2.59962 1.48526 0
M  V30 95 H 6.4365 -1.2496 0.715605 0
M  V30 96 H 8.3895 -4.19917 -0.353233 0
M  V30 97 H 7.1135 -3.11924 -0.968045 0
M  V30 98 H 5.7725 -3.48667 1.13257 0
M  V30 99 H 5.4205 -4.95585 -0.860514 0
M  V30 100 H 5.1205 -5.83913 0.657192 0
M  V30 101 H 6.6445 -6.10138 -0.237598 0
M  V30 102 H 8.0585 -5.40083 1.92311 0
M  V30 103 H 6.4555 -5.3528 2.71284 0
M  V30 104 H 7.5255 -3.94346 2.82169 0
M  V30 105 N 8.8686 -0.792821 -1.36206 0
M  V30 106 C 10.0986 -0.378275 -2.03107 0
M  V30 107 C 10.5066 1.01119 -1.59911 0
M  V30 108 O 9.8496 1.66052 -0.785658 0
M  V30 109 C 9.9116 -0.366535 -3.57627 0
M  V30 110 C 9.5756 -1.70416 -4.24037 0
M  V30 111 C 10.5726 -2.6602 -4.46687 0
M  V30 112 C 8.2576 -1.98439 -4.6144 0
M  V30 113 C 10.2516 -3.8784 -5.05825 0
M  V30 114 C 7.9386 -3.20525 -5.20295 0
M  V30 115 C 8.9366 -4.15044 -5.42427 0
M  V30 116 O 8.6246 -5.34978 -6.00045 0
M  V30 117 H 8.3566 -0.153543 -0.658332 0
M  V30 118 H 10.9106 -1.07383 -1.75094 0
M  V30 119 H 9.1406 0.385539 -3.84773 0
M  V30 120 H 10.8296 0.0238088 -4.05893 0
M  V30 121 H 11.5956 -2.45658 -4.18183 0
M  V30 122 H 7.4746 -1.25686 -4.43536 0
M  V30 123 H 11.0186 -4.61628 -5.23015 0
M  V30 124 H 6.9156 -3.40764 -5.48225 0
M  V30 125 H 7.6836 -5.36088 -6.18508 0
M  V30 126 N 10.3467 1.47872 -0.545128 0
M  V30 127 C 11.5767 2.06589 -0.0210534 0
M  V30 128 C 11.9847 1.39997 1.27269 0
M  V30 129 O 11.3277 0.486421 1.77143 0
M  V30 130 C 11.3897 3.58574 0.257933 0
M  V30 131 C 11.0537 4.47132 -0.944573 0
M  V30 132 C 12.0507 4.85986 -1.84699 0
M  V30 133 C 9.7357 4.88821 -1.15584 0
M  V30 134 C 11.7297 5.65314 -2.94446 0
M  V30 135 C 9.4167 5.67916 -2.25642 0
M  V30 136 C 10.4147 6.06073 -3.14905 0
M  V30 137 O 10.1027 6.83578 -4.23057 0
M  V30 138 H 9.8347 0.674971 -0.0372899 0
M  V30 139 H 12.3887 1.91037 -0.754599 0
M  V30 140 H 10.6187 3.72295 1.04564 0
M  V30 141 H 12.3077 3.99356 0.72592 0
M  V30 142 H 13.0737 4.54388 -1.69577 0
M  V30 143 H 8.9527 4.58595 -0.470279 0
M  V30 144 H 12.4967 5.95016 -3.64145 0
M  V30 145 H 8.3937 5.98927 -2.40742 0
M  V30 146 H 9.1617 7.01954 -4.20954 0
M  V30 147 N 11.8248 0.280983 1.55075 0
M  V30 148 C 13.0648 -0.335234 2.01632 0
M  V30 149 C 13.4288 -1.5261 1.16508 0
M  V30 150 O 14.6298 -2.21235 1.52672 0
M  V30 151 C 12.9008 -0.702172 3.50434 0
M  V30 152 S 14.4598 -1.30409 4.18974 0
M  V30 153 H 11.2778 -0.103967 0.703358 0
M  V30 154 H 13.8798 0.404187 1.91276 0
M  V30 155 H 12.5838 0.17333 4.10034 0
M  V30 156 H 12.1148 -1.4729 3.64786 0
M  V30 157 H 14.1298 -2.59253 4.23087 0
M  V30 158 N 13.3029 -1.57598 0.00835791 0
M  V30 159 C 14.5279 -1.95617 -0.689103 0
M  V30 160 C 14.9529 -0.883753 -1.66046 0
M  V30 161 O 14.3109 0.157352 -1.80616 0
M  V30 162 C 14.3589 -3.32736 -1.38994 0
M  V30 163 O 13.4629 -3.27631 -2.50463 0
M  V30 164 H 12.8039 -0.638379 -0.182668 0
M  V30 165 H 15.3339 -2.045 0.064036 0
M  V30 166 H 15.3439 -3.68494 -1.75147 0
M  V30 167 H 14.0189 -4.1034 -0.677778 0
M  V30 168 H 12.5959 -3.03561 -2.16576 0
M  V30 169 N 14.781 0.264519 -1.55364 0
M  V30 170 C 15.691 1.34902 -1.91934 0
M  V30 171 C 16.707 1.53595 -0.817593 0
M  V30 172 O 17.883 1.67558 -1.11742 0
M  V30 173 C 14.948 2.68676 -2.19121 0
M  V30 174 C 14.009 2.58657 -3.4263 0
M  V30 175 C 13.242 3.86051 -3.68511 0
M  V30 176 O 13.465 4.87126 -2.96757 0
M  V30 177 O 12.399 3.85744 -4.62045 0
M  V30 178 H 16.225 1.06883 -2.8427 0
M  V30 179 H 13.81 0.463775 -1.42019 0
M  V30 180 H 15.692 3.47759 -2.37995 0
M  V30 181 H 14.367 2.96463 -1.29966 0
M  V30 182 H 13.274 1.7792 -3.29082 0
M  V30 183 H 14.607 2.35818 -4.32031 0
M  V30 184 N 16.2591 1.48442 0.529413 0
M  V30 185 C 17.6701 1.5002 1.11134 0
M  V30 186 C 18.0211 0.27031 1.94329 0
M  V30 187 O 17.1461 -0.622507 2.07253 0
M  V30 188 C 17.7411 2.71834 2.02217 0
M  V30 189 C 16.3001 2.76283 2.55627 0
M  V30 190 C 15.4471 2.43542 1.326 0
M  V30 191 H 18.3981 1.5555 0.314641 0
M  V30 192 H 18.4191 2.50384 2.8651 0
M  V30 193 H 17.9311 3.61331 1.41639 0
M  V30 194 H 16.0321 1.90995 3.19924 0
M  V30 195 H 16.1451 3.77725 2.94721 0
M  V30 196 H 14.5091 1.94709 1.64196 0
M  V30 197 H 15.2921 3.3528 0.737734 0
M  V30 198 N 17.7372 -0.778329 1.37039 0
M  V30 199 C 18.9652 -1.56734 1.35063 0
M  V30 200 C 19.3802 -1.88686 -0.0655597 0
M  V30 201 O 18.7372 -1.5096 -1.02554 0
M  V30 202 C 18.7882 -2.88163 2.18276 0
M  V30 203 O 18.5092 -2.57583 3.54376 0
M  V30 204 C 20.0102 -3.82422 2.24206 0
M  V30 205 H 17.2302 -0.485778 0.462883 0
M  V30 206 H 19.7742 -0.965185 1.8029 0
M  V30 207 H 17.9292 -3.44818 1.76576 0
M  V30 208 H 18.3432 -3.41699 3.97922 0
M  V30 209 H 19.8172 -4.71667 2.86765 0
M  V30 210 H 20.2942 -4.21078 1.24861 0
M  V30 211 H 20.9002 -3.31697 2.6619 0
M  V30 212 N 19.2153 -1.21501 -1.00376 0
M  V30 213 C 20.1453 -0.999478 -2.11028 0
M  V30 214 C 21.1263 0.0759671 -1.6993 0
M  V30 215 O 22.3113 -0.0841106 -1.94018 0
M  V30 216 C 19.4413 -0.564709 -3.42678 0
M  V30 217 C 18.3953 -1.58486 -3.97576 0
M  V30 218 C 17.7213 -1.00628 -5.25146 0
M  V30 219 C 19.0213 -2.97204 -4.29496 0
M  V30 220 H 20.7153 -1.92495 -2.29317 0
M  V30 221 H 18.2613 -0.92693 -1.102 0
M  V30 222 H 20.2143 -0.401091 -4.19487 0
M  V30 223 H 18.9383 0.396411 -3.24185 0
M  V30 224 H 17.5973 -1.73606 -3.22888 0
M  V30 225 H 17.2453 -0.0368439 -5.02987 0
M  V30 226 H 16.9453 -1.68771 -5.62841 0
M  V30 227 H 18.4693 -0.854015 -6.04598 0
M  V30 228 H 19.8833 -2.8552 -4.97143 0
M  V30 229 H 18.2803 -3.62372 -4.78338 0
M  V30 230 H 19.3503 -3.47956 -3.3772 0
M  V30 231 N 20.6934 1.19889 -1.02296 0
M  V30 232 C 21.9704 1.85148 -0.630832 0
M  V30 233 C 22.3504 1.91385 0.890782 0
M  V30 234 O 21.6984 1.42642 1.78509 0
M  V30 235 C 21.9084 3.24442 -1.28602 0
M  V30 236 C 23.2564 4.00663 -1.4055 0
M  V30 237 O 24.2804 3.33818 -1.24273 0
M  V30 238 O 23.1394 5.20387 -1.66913 0
M  V30 239 H 20.2334 0.797613 -0.218499 0
M  V30 240 H 22.7794 1.27427 -1.12074 0
M  V30 241 H 21.5514 3.14704 -2.32545 0
M  V30 242 H 21.1744 3.89802 -0.7836 0
M  V30 243 N 22.1715 0.800033 1.35784 0
M  V30 244 C 23.4175 0.377901 1.99248 0
M  V30 245 C 23.7505 -1.05052 1.63333 0
M  V30 246 O 23.0255 -1.72768 0.893385 0
M  V30 247 C 23.3085 0.553922 3.55814 0
M  V30 248 C 23.1615 2.0268 4.01548 0
M  V30 249 C 24.4805 -0.0244802 4.40093 0
M  V30 250 H 21.5995 0.138782 0.723815 0
M  V30 251 H 24.2415 1.00835 1.61035 0
M  V30 252 H 22.3915 0.0172398 3.88496 0
M  V30 253 H 24.0635 2.62536 3.79305 0
M  V30 254 H 22.3065 2.5256 3.52698 0
M  V30 255 H 22.9775 2.10087 5.10458 0
M  V30 256 H 25.4535 0.433775 4.13833 0
M  V30 257 H 24.3295 0.128637 5.48749 0
M  V30 258 H 24.5905 -1.11758 4.27741 0
M  V30 259 N 23.6496 -1.47581 0.552962 0
M  V30 260 C 24.5966 -2.29957 -0.197108 0
M  V30 261 C 25.5666 -1.38799 -0.912359 0
M  V30 262 O 26.7516 -1.67761 -0.908888 0
M  V30 263 C 23.8916 -3.22672 -1.22379 0
M  V30 264 C 23.0046 -4.28919 -0.515038 0
M  V30 265 C 22.1396 -5.0879 -1.52664 0
M  V30 266 C 21.1786 -6.06815 -0.802631 0
M  V30 267 N 20.3156 -6.7966 -1.76086 0
M  V30 268 H 25.1556 -2.93578 0.511486 0
M  V30 269 H 22.6926 -1.4471 0.264067 0
M  V30 270 H 24.6506 -3.74845 -1.83159 0
M  V30 271 H 23.2806 -2.60925 -1.90047 0
M  V30 272 H 22.3326 -3.79835 0.207192 0
M  V30 273 H 23.6446 -4.98773 0.0523425 0
M  V30 274 H 22.7986 -5.65091 -2.20809 0
M  V30 275 H 21.5376 -4.38828 -2.12794 0
M  V30 276 H 20.5426 -5.49695 -0.107238 0
M  V30 277 H 21.7676 -6.78784 -0.207135 0
M  V30 278 H 19.7136 -6.12432 -2.35081 0
M  V30 279 H 19.6306 -7.45669 -1.24552 0
M  V30 280 H 20.8986 -7.40538 -2.43359 0
M  V30 281 N 25.1277 -0.289203 -1.54924 0
M  V30 282 C 26.3767 0.324231 -1.99077 0
M  V30 283 C 26.6897 1.5591 -1.18117 0
M  V30 284 O 27.8957 2.24637 -1.52481 0
M  V30 285 C 26.3517 0.628209 -3.54375 0
M  V30 286 C 25.9597 -0.587647 -4.44129 0
M  V30 287 C 27.7037 1.20349 -4.07083 0
M  V30 288 C 25.6107 -0.257475 -5.90839 0
M  V30 289 H 24.5407 0.124924 -0.743579 0
M  V30 290 H 27.1917 -0.396063 -1.79175 0
M  V30 291 H 25.5737 1.40778 -3.70132 0
M  V30 292 H 26.7477 -1.36418 -4.40144 0
M  V30 293 H 25.0627 -1.08074 -4.0213 0
M  V30 294 H 27.6597 1.46456 -5.14252 0
M  V30 295 H 28.0027 2.14195 -3.56968 0
M  V30 296 H 28.5357 0.485889 -3.94821 0
M  V30 297 H 25.2747 -1.16419 -6.45079 0
M  V30 298 H 24.7947 0.482018 -5.9786 0
M  V30 299 H 26.4737 0.145238 -6.46837 0
M  V30 300 N 26.6058 1.57591 -0.0167156 0
M  V30 301 C 27.5688 2.08393 0.954204 0
M  V30 302 C 28.5688 0.996531 1.26198 0
M  V30 303 O 29.7588 1.25858 1.20438 0
M  V30 304 C 26.8908 2.5394 2.27436 0
M  V30 305 H 28.0838 2.95455 0.514451 0
M  V30 306 H 25.6368 1.54582 0.231089 0
M  V30 307 H 26.3718 1.70171 2.76066 0
M  V30 308 H 26.1568 3.33371 2.06412 0
M  V30 309 H 27.6468 2.93512 2.97053 0
M  V30 310 N 28.0839 -0.256276 1.55502 0
M  V30 311 C 29.3309 -0.985619 1.76895 0
M  V30 312 C 29.6589 -1.85671 0.579355 0
M  V30 313 O 28.9139 -1.90744 -0.437651 0
M  V30 314 C 29.2129 -1.88432 3.03691 0
M  V30 315 C 28.8789 -1.16936 4.35473 0
M  V30 316 C 27.5409 -0.97173 4.71286 0
M  V30 317 C 29.8929 -0.661889 5.1698 0
M  V30 318 C 27.2209 -0.254179 5.86149 0
M  V30 319 C 29.5729 0.042149 6.32586 0
M  V30 320 C 28.2369 0.25134 6.67027 0
M  V30 321 H 27.5069 -0.360663 0.647304 0
M  V30 322 H 30.1539 -0.256483 1.89775 0
M  V30 323 H 28.4589 -2.68021 2.85783 0
M  V30 324 H 30.1559 -2.45015 3.1744 0
M  V30 325 H 26.7459 -1.33332 4.07333 0
M  V30 326 H 30.9299 -0.802145 4.89775 0
M  V30 327 H 26.1859 -0.0815408 6.11346 0
M  V30 328 H 30.3599 0.443049 6.94989 0
M  V30 329 H 27.9869 0.809314 7.5588 0
M  V30 330 N 29.562 -1.4872 -0.521534 0
M  V30 331 C 30.802 -1.58771 -1.28729 0
M  V30 332 C 31.166 -0.259394 -1.9024 0
M  V30 333 O 32.367 -0.234942 -2.67771 0
M  V30 334 C 30.638 -2.70039 -2.34124 0
M  V30 335 S 32.197 -2.9991 -3.20312 0
M  V30 336 H 29.015 -0.560251 -0.437767 0
M  V30 337 H 31.617 -1.86283 -0.593188 0
M  V30 338 H 30.321 -3.65101 -1.87429 0
M  V30 339 H 29.852 -2.44455 -3.08229 0
M  V30 340 H 31.867 -2.39855 -4.34378 0
M  V30 341 N 31.0401 0.771051 -1.3745 0
M  V30 342 C 31.9721 1.89352 -1.29146 0
M  V30 343 C 32.9851 1.61477 -0.207124 0
M  V30 344 O 34.1741 1.72382 -0.463324 0
M  V30 345 C 31.2741 3.24596 -0.974195 0
M  V30 346 C 30.4471 3.80111 -2.16413 0
M  V30 347 C 29.5061 4.93832 -1.81703 0
M  V30 348 O 28.5321 5.09382 -2.54006 0
M  V30 349 N 29.7341 5.75483 -0.761573 0
M  V30 350 H 32.4991 1.96991 -2.25864 0
M  V30 351 H 30.0601 0.950191 -1.31084 0
M  V30 352 H 32.0521 3.98193 -0.722828 0
M  V30 353 H 30.6221 3.12454 -0.0955527 0
M  V30 354 H 29.8421 2.98284 -2.57721 0
M  V30 355 H 31.1301 4.13932 -2.95867 0
M  V30 356 H 30.5281 5.65469 -0.161609 0
M  V30 357 H 29.0851 6.49302 -0.570064 0
M  V30 358 N 32.5182 1.22032 0.997298 0
M  V30 359 C 33.7662 1.04016 1.73278 0
M  V30 360 C 34.0872 -0.426255 1.90284 0
M  V30 361 O 33.3572 -1.30694 1.45931 0
M  V30 362 H 31.9372 0.381897 0.642 0
M  V30 363 H 34.5992 1.5347 1.20137 0
M  V30 364 H 33.6952 1.51441 2.72896 0
M  V30 365 N 33.9963 -1.19345 1.0293 0
M  V30 366 C 35.2433 -1.89038 0.726008 0
M  V30 367 C 35.5713 -1.79649 -0.745427 0
M  V30 368 O 34.8263 -1.18354 -1.55855 0
M  V30 369 C 35.1253 -3.39292 1.12319 0
M  V30 370 C 34.7913 -3.68885 2.59297 0
M  V30 371 C 33.4533 -3.76671 2.99453 0
M  V30 372 C 35.8053 -3.82178 3.54386 0
M  V30 373 C 33.1333 -3.9522 4.33611 0
M  V30 374 C 35.4853 -4.0224 4.88248 0
M  V30 375 C 34.1493 -4.08259 5.28092 0
M  V30 376 H 33.4193 -0.691739 0.265665 0
M  V30 377 H 36.0663 -1.41328 1.29223 0
M  V30 378 H 34.3713 -3.88903 0.475584 0
M  V30 379 H 36.0683 -3.91536 0.866037 0
M  V30 380 H 32.6583 -3.63433 2.27189 0
M  V30 381 H 36.8423 -3.75505 3.24514 0
M  V30 382 H 32.0983 -3.98119 4.64016 0
M  V30 383 H 36.2723 -4.11468 5.61843 0
M  V30 384 H 33.8993 -4.22384 6.32057 0
M  V30 385 N 35.4744 -0.807222 -1.35358 0
M  V30 386 C 36.7514 -0.311126 -1.9311 0
M  V30 387 C 37.1314 1.19937 -1.73719 0
M  V30 388 O 36.4794 1.99918 -1.10657 0
M  V30 389 C 36.6894 -0.723226 -3.41424 0
M  V30 390 C 38.0374 -0.713078 -4.18569 0
M  V30 391 O 39.0614 -0.664811 -3.49941 0
M  V30 392 O 37.9204 -0.772022 -5.41019 0
M  V30 393 H 35.0144 -0.081526 -0.822972 0
M  V30 394 H 37.5604 -0.890962 -1.4443 0
M  V30 395 H 36.3324 -1.76426 -3.4927 0
M  V30 396 H 35.9554 -0.118232 -3.97424 0
M  V30 397 N 36.9525 1.47285 -0.560781 0
M  V30 398 C 37.8995 2.30058 0.18491 0
M  V30 399 C 38.8695 1.39281 0.904986 0
M  V30 400 O 40.0545 1.68241 0.899979 0
M  V30 401 C 37.1945 3.23317 1.20666 0
M  V30 402 C 36.3075 4.29186 0.492285 0
M  V30 403 C 35.4425 5.09592 1.49964 0
M  V30 404 C 34.4815 6.07232 0.770439 0
M  V30 405 N 33.6185 6.80584 1.72479 0
M  V30 406 H 38.4585 2.93302 -0.527048 0
M  V30 407 H 35.9955 1.44568 -0.271738 0
M  V30 408 H 37.9535 3.75811 1.81168 0
M  V30 409 H 36.5835 2.61929 1.88661 0
M  V30 410 H 35.6355 3.7972 -0.227333 0
M  V30 411 H 36.9475 4.98738 -0.0787929 0
M  V30 412 H 36.1015 5.66254 2.17809 0
M  V30 413 H 34.8405 4.3995 2.10464 0
M  V30 414 H 33.8455 5.49745 0.0780846 0
M  V30 415 H 35.0705 6.78884 0.171134 0
M  V30 416 H 33.0165 6.1367 2.3183 0
M  V30 417 H 32.9335 7.46319 1.20596 0
M  V30 418 H 34.2015 7.41818 2.39428 0
M  V30 419 N 38.4306 0.297415 1.54768 0
M  V30 420 C 39.3626 -0.613881 2.20826 0
M  V30 421 C 40.3756 -1.10032 1.19987 0
M  V30 422 O 41.5646 -1.01839 1.46598 0
M  V30 423 C 38.6646 -1.852 2.83821 0
M  V30 424 C 37.8376 -1.50865 4.10559 0
M  V30 425 C 36.8966 -2.60154 4.57391 0
M  V30 426 O 35.9226 -2.25398 5.2267 0
M  V30 427 N 37.1246 -3.90629 4.29406 0
M  V30 428 H 39.8896 -0.048389 2.99661 0
M  V30 429 H 37.4506 0.11946 1.61459 0
M  V30 430 H 39.4426 -2.57652 3.12086 0
M  V30 431 H 38.0126 -2.32597 2.08847 0
M  V30 432 H 37.2326 -0.616925 3.89343 0
M  V30 433 H 38.5206 -1.25458 4.9309 0
M  V30 434 H 37.9186 -4.21677 3.77101 0
M  V30 435 H 36.4756 -4.59391 4.62388 0
M  V30 436 N 39.9087 -1.5758 0.0250728 0
M  V30 437 C 41.1547 -1.91917 -0.655413 0
M  V30 438 C 41.4877 -0.901433 -1.72011 0
M  V30 439 O 40.7627 0.0764069 -1.9435 0
M  V30 440 C 41.0457 -3.36751 -1.27558 0
M  V30 441 C 40.8987 -4.49258 -0.220719 0
M  V30 442 C 42.2177 -3.81469 -2.19475 0
M  V30 443 H 39.3367 -0.697925 -0.23679 0
M  V30 444 H 41.9787 -1.89825 0.0815036 0
M  V30 445 H 40.1287 -3.38664 -1.90365 0
M  V30 446 H 41.8007 -4.59478 0.409601 0
M  V30 447 H 40.0437 -4.31415 0.454264 0
M  V30 448 H 40.7147 -5.47618 -0.694175 0
M  V30 449 H 43.1907 -3.81266 -1.66659 0
M  V30 450 H 42.0667 -4.83512 -2.59822 0
M  V30 451 H 42.3277 -3.16744 -3.08424 0
M  V30 452 N 41.3868 0.248026 -1.55636 0
M  V30 453 C 42.6638 0.998988 -1.68165 0
M  V30 454 C 43.0438 2.03409 -0.564621 0
M  V30 455 O 42.3918 2.24378 0.432076 0
M  V30 456 C 42.6018 1.63334 -3.0842 0
M  V30 457 C 43.9498 2.13562 -3.66983 0
M  V30 458 O 44.9738 1.73277 -3.11213 0
M  V30 459 O 43.8328 2.87526 -4.64749 0
M  V30 460 H 40.9268 0.464933 -0.683935 0
M  V30 461 H 43.4728 0.241902 -1.67967 0
M  V30 462 H 42.2448 0.884583 -3.8117 0
M  V30 463 H 41.8678 2.45666 -3.12624 0
M  V30 464 N 42.8649 1.48995 0.513639 0
M  V30 465 C 44.1109 1.58076 1.27042 0
M  V30 466 C 44.4439 0.261026 1.92438 0
M  V30 467 O 43.7189 -0.734393 1.80103 0
M  V30 468 C 44.0019 2.73091 2.34719 0
M  V30 469 C 43.8549 4.14821 1.73907 0
M  V30 470 C 45.1739 2.83796 3.36375 0
M  V30 471 H 42.2929 0.575391 0.460536 0
M  V30 472 H 44.9349 1.81232 0.570516 0
M  V30 473 H 43.0849 2.53479 2.94416 0
M  V30 474 H 44.7569 4.45917 1.18135 0
M  V30 475 H 42.9999 4.21058 1.0437 0
M  V30 476 H 43.6709 4.91147 2.51949 0
M  V30 477 H 46.1469 3.01611 2.86653 0
M  V30 478 H 45.0229 3.65971 4.09093 0
M  V30 479 H 45.2839 1.92624 3.9793 0
M  V30 480 N 44.343 -0.763751 1.37857 0
M  V30 481 C 45.568 -1.55805 1.36893 0
M  V30 482 C 45.993 -1.88054 -0.0416135 0
M  V30 483 O 45.351 -1.49825 -1.02089 0
M  V30 484 C 45.399 -2.84012 2.22192 0
M  V30 485 O 44.503 -3.78732 1.63204 0
M  V30 486 H 43.844 -0.471638 0.46739 0
M  V30 487 H 46.374 -0.944657 1.81487 0
M  V30 488 H 46.384 -3.33037 2.35691 0
M  V30 489 H 45.059 -2.59869 3.24716 0
M  V30 490 H 43.636 -3.37402 1.58791 0
M  V30 491 N 45.8211 -1.22559 -0.990812 0
M  V30 492 C 47.0511 -1.07623 -1.76355 0
M  V30 493 C 47.4591 0.37601 -1.85426 0
M  V30 494 O 46.8021 1.27228 -1.32509 0
M  V30 495 C 46.8641 -1.61507 -3.21179 0
M  V30 496 C 46.5281 -3.10146 -3.35646 0
M  V30 497 C 47.5251 -4.07553 -3.22796 0
M  V30 498 C 45.2101 -3.49644 -3.60631 0
M  V30 499 C 47.2041 -5.42442 -3.34716 0
M  V30 500 C 44.8911 -4.84682 -3.72192 0
M  V30 501 C 45.8891 -5.8089 -3.59243 0
M  V30 502 O 45.5771 -7.13476 -3.70415 0
M  V30 503 H 45.3091 -0.377745 -0.560611 0
M  V30 504 H 47.8631 -1.62658 -1.25425 0
M  V30 505 H 46.0931 -1.00881 -3.73309 0
M  V30 506 H 47.7821 -1.42202 -3.80175 0
M  V30 507 H 48.5481 -3.78381 -3.03403 0
M  V30 508 H 44.4271 -2.75282 -3.69785 0
M  V30 509 H 47.9711 -6.17518 -3.24526 0
M  V30 510 H 43.8681 -5.13534 -3.91092 0
M  V30 511 H 44.6361 -7.21083 -3.87275 0
M  V30 512 N 47.2992 1.18797 -1.03562 0
M  V30 513 C 48.5482 1.87978 -0.731235 0
M  V30 514 C 48.8612 1.80911 0.743671 0
M  V30 515 O 50.0672 2.45407 1.16137 0
M  V30 516 C 48.5232 3.3721 -1.25768 0
M  V30 517 C 48.1312 3.52818 -2.76085 0
M  V30 518 C 49.8752 4.11825 -1.0296 0
M  V30 519 C 47.7822 4.9598 -3.22114 0
M  V30 520 H 46.7122 0.704063 -0.269835 0
M  V30 521 H 49.3632 1.34266 -1.25079 0
M  V30 522 H 47.7452 3.90359 -0.666011 0
M  V30 523 H 48.9192 3.09965 -3.40966 0
M  V30 524 H 47.2342 2.91602 -2.97249 0
M  V30 525 H 49.8312 5.17411 -1.34869 0
M  V30 526 H 50.1742 4.16287 0.0333546 0
M  V30 527 H 50.7072 3.64833 -1.58562 0
M  V30 528 H 47.4462 4.96684 -4.27768 0
M  V30 529 H 46.9662 5.39569 -2.61965 0
M  V30 530 H 48.6452 5.6467 -3.15844 0
M  V30 531 N 48.7773 0.814389 1.34928 0
M  V30 532 C 49.7403 0.235759 2.27984 0
M  V30 533 C 50.7403 -0.581412 1.49921 0
M  V30 534 O 51.9303 -0.398758 1.69575 0
M  V30 535 C 49.0623 -0.670433 3.34242 0
M  V30 536 H 50.2553 1.05659 2.80671 0
M  V30 537 H 47.8083 0.585614 1.44915 0
M  V30 538 H 48.5433 -1.51466 2.86755 0
M  V30 539 H 48.3283 -0.0860822 3.92005 0
M  V30 540 H 49.8183 -1.06935 4.03676 0
M  V30 541 N 50.2554 -1.46986 0.568584 0
M  V30 542 C 51.2024 -2.30153 -0.172707 0
M  V30 543 C 52.1724 -1.39759 -0.897586 0
M  V30 544 O 53.3574 -1.68716 -0.891044 0
M  V30 545 C 50.4974 -3.23952 -1.1895 0
M  V30 546 C 49.6104 -4.29441 -0.469517 0
M  V30 547 C 48.7454 -5.1038 -1.47259 0
M  V30 548 C 47.7844 -6.07632 -0.738225 0
M  V30 549 N 46.9214 -6.8149 -1.68868 0
M  V30 550 H 51.7614 -2.93019 0.542596 0
M  V30 551 H 49.2984 -1.44422 0.279401 0
M  V30 552 H 51.2564 -3.76767 -1.79173 0
M  V30 553 H 49.8864 -2.62926 -1.87269 0
M  V30 554 H 48.9384 -3.79594 0.247467 0
M  V30 555 H 50.2504 -4.98689 0.105241 0
M  V30 556 H 49.4044 -5.67402 -2.14803 0
M  V30 557 H 48.1434 -4.4106 -2.08128 0
M  V30 558 H 47.1484 -5.49778 -0.0489293 0
M  V30 559 H 48.3734 -6.78966 -0.135129 0
M  V30 560 H 46.3194 -6.14891 -2.28573 0
M  V30 561 H 46.2364 -7.46948 -1.16636 0
M  V30 562 H 47.5044 -7.43078 -2.3549 0
M  V30 563 N 51.7335 -0.305618 -1.54608 0
M  V30 564 C 52.6835 0.583595 -2.20405 0
M  V30 565 C 53.6675 1.09539 -1.17856 0
M  V30 566 O 54.8595 1.0354 -1.43557 0
M  V30 567 C 51.9885 1.75277 -2.95183 0
M  V30 568 C 51.0745 1.25672 -4.05052 0
M  V30 569 N 51.4655 0.478998 -5.03527 0
M  V30 570 C 49.7635 1.53704 -4.18678 0
M  V30 571 C 50.4645 0.214269 -5.81305 0
M  V30 572 N 49.4405 0.795374 -5.3775 0
M  V30 573 H 53.2425 -0.0180946 -2.93894 0
M  V30 574 H 50.7565 -0.110601 -1.62023 0
M  V30 575 H 52.7535 2.4014 -3.40791 0
M  V30 576 H 51.4135 2.35812 -2.23211 0
M  V30 577 H 52.4245 0.123473 -5.17753 0
M  V30 578 H 49.1015 2.14954 -3.57912 0
M  V30 579 H 50.4915 -0.410656 -6.70644 0
M  V30 580 N 53.2116 1.57565 -0.0334293 0
M  V30 581 C 54.4416 1.95996 0.653398 0
M  V30 582 C 54.8496 0.908749 1.65947 0
M  V30 583 O 54.1926 -0.117471 1.83324 0
M  V30 584 C 54.2546 3.30589 1.41249 0
M  V30 585 C 53.9186 4.53503 0.564263 0
M  V30 586 C 54.9156 5.19647 -0.16225 0
M  V30 587 C 52.6006 4.99801 0.500398 0
M  V30 588 C 54.5946 6.30412 -0.941255 0
M  V30 589 C 52.2816 6.10448 -0.282308 0
M  V30 590 C 53.2796 6.75612 -1.00184 0
M  V30 591 O 52.9676 7.84134 -1.77171 0
M  V30 592 H 52.6996 0.65027 0.184728 0
M  V30 593 H 55.2536 2.05199 -0.0907841 0
M  V30 594 H 53.4836 3.17888 2.20191 0
M  V30 595 H 55.1726 3.53892 1.98784 0
M  V30 596 H 55.9386 4.84846 -0.12227 0
M  V30 597 H 51.8176 4.48883 1.05002 0
M  V30 598 H 55.3616 6.81208 -1.50339 0
M  V30 599 H 51.2586 6.44686 -0.323989 0
M  V30 600 H 52.0266 8.00822 -1.69194 0
M  V30 601 N 54.6897 -0.239769 1.55765 0
M  V30 602 C 55.6377 -1.31668 1.91745 0
M  V30 603 C 56.6317 -1.49462 0.797338 0
M  V30 604 O 57.8377 -1.50852 0.982021 0
M  V30 605 H 54.2127 -0.441048 0.609082 0
M  V30 606 H 56.1837 -0.985923 2.81642 0
M  V30 607 C 54.9327 -2.66368 2.2348 0
M  V30 608 H 54.2557 -2.53478 3.09175 0
M  V30 609 H 55.6957 -3.40578 2.52553 0
M  V30 610 C 54.1547 -3.20002 1.05359 0
M  V30 611 O 54.6847 -4.00538 0.305261 0
M  V30 612 N 52.8907 -2.78126 0.842292 0
M  V30 613 H 52.4377 -2.12742 1.45253 0
M  V30 614 H 52.3957 -3.14354 0.053652 0
M  V30 615 N 56.1678 -1.49265 -0.50573 0
M  V30 616 C 57.1008 -1.60183 -1.62532 0
M  V30 617 C 58.0788 -0.451107 -1.56217 0
M  V30 618 O 59.2628 -0.666016 -1.76342 0
M  V30 619 C 56.3898 -1.55238 -3.01029 0
M  V30 620 C 55.4358 -2.7545 -3.25621 0
M  V30 621 S 56.2688 -4.37174 -3.09256 0
M  V30 622 C 57.4248 -4.34866 -4.50158 0
M  V30 623 H 57.6578 -2.54894 -1.53025 0
M  V30 624 H 55.1908 -1.38098 -0.690535 0
M  V30 625 H 57.1488 -1.53071 -3.80893 0
M  V30 626 H 55.8098 -0.618238 -3.07956 0
M  V30 627 H 55.0028 -2.68197 -4.26716 0
M  V30 628 H 54.6048 -2.75005 -2.53472 0
M  V30 629 H 56.8968 -4.06295 -5.42154 0
M  V30 630 H 57.8398 -5.36223 -4.62462 0
M  V30 631 H 58.2478 -3.65007 -4.30616 0
M  V30 632 N 57.6459 0.756429 -1.3826 0
M  V30 633 C 58.8709 1.55077 -1.37717 0
M  V30 634 C 59.2959 1.88073 0.03164 0
M  V30 635 O 58.6539 1.50364 1.01293 0
M  V30 636 C 58.7019 2.8283 -2.23695 0
M  V30 637 O 57.8059 3.77862 -1.6521 0
M  V30 638 H 57.1469 0.469152 -0.469885 0
M  V30 639 H 59.6769 0.935019 -1.81985 0
M  V30 640 H 59.6869 3.31783 -2.37453 0
M  V30 641 H 58.3619 2.58144 -3.2609 0
M  V30 642 H 56.9389 3.36555 -1.60578 0
M  V30 643 N 59.124 1.23083 0.984299 0
M  V30 644 C 60.071 1.00854 2.07598 0
M  V30 645 C 61.041 -0.0726709 1.65941 0
M  V30 646 O 62.226 0.0786535 1.90638 0
M  V30 647 C 59.366 0.601645 3.39815 0
M  V30 648 C 58.479 1.75456 3.94765 0
M  V30 649 C 57.614 1.29482 5.15177 0
M  V30 650 C 56.653 2.41873 5.62284 0
M  V30 651 N 55.79 1.96885 6.73929 0
M  V30 652 H 60.63 1.943 2.25946 0
M  V30 653 H 58.167 0.968001 1.10762 0
M  V30 654 H 60.125 0.346854 4.15756 0
M  V30 655 H 58.755 -0.295803 3.21442 0
M  V30 656 H 57.807 2.12346 3.15616 0
M  V30 657 H 59.119 2.59965 4.25699 0
M  V30 658 H 58.273 0.997923 5.98437 0
M  V30 659 H 57.012 0.420046 4.85888 0
M  V30 660 H 56.017 2.72342 4.77608 0
M  V30 661 H 57.242 3.29881 5.93595 0
M  V30 662 H 55.188 1.11782 6.46406 0
M  V30 663 H 55.105 2.74956 7.04227 0
M  V30 664 H 56.373 1.70289 7.60672 0
M  V30 665 N 60.6021 -1.18246 1.0419 0
M  V30 666 C 61.8271 -1.92736 0.765996 0
M  V30 667 C 62.2521 -1.75728 -0.67091 0
M  V30 668 O 61.6101 -1.06825 -1.46486 0
M  V30 669 C 61.6581 -3.42148 1.13875 0
M  V30 670 O 60.7621 -4.11548 0.264954 0
M  V30 671 H 60.1031 -0.601238 0.281797 0
M  V30 672 H 62.6331 -1.49942 1.39207 0
M  V30 673 H 62.6431 -3.92858 1.1012 0
M  V30 674 H 61.3181 -3.53848 2.18551 0
M  V30 675 H 59.8951 -3.71137 0.362226 0
M  V30 676 N 62.0802 -0.821533 -1.34494 0
M  V30 677 C 63.0272 -0.240397 -2.29545 0
M  V30 678 C 63.9972 0.634031 -1.53523 0
M  V30 679 O 65.1822 0.575966 -1.81899 0
M  V30 680 C 62.3222 0.592869 -3.39969 0
M  V30 681 C 61.4352 -0.30365 -4.30932 0
M  V30 682 C 60.5702 0.539049 -5.28458 0
M  V30 683 C 59.6092 -0.356942 -6.11058 0
M  V30 684 N 58.7462 0.446603 -7.00678 0
M  V30 685 H 63.5862 -1.05632 -2.7865 0
M  V30 686 H 61.1232 -0.532413 -1.37127 0
M  V30 687 H 63.0812 1.09129 -4.02675 0
M  V30 688 H 61.7112 1.37392 -2.92102 0
M  V30 689 H 60.7632 -0.920276 -3.691 0
M  V30 690 H 62.0752 -0.992661 -4.88823 0
M  V30 691 H 61.2292 1.102 -5.96608 0
M  V30 692 H 59.9682 1.26157 -4.71101 0
M  V30 693 H 58.9732 -0.932047 -5.41842 0
M  V30 694 H 60.1982 -1.07755 -6.70497 0
M  V30 695 H 58.1442 1.15282 -6.45791 0
M  V30 696 H 58.0612 -0.184048 -7.55776 0
M  V30 697 H 59.3292 0.992352 -7.73158 0
M  V30 698 N 63.5583 1.46682 -0.576371 0
M  V30 699 C 64.8043 2.02712 -0.0596221 0
M  V30 700 C 65.1373 1.44765 1.29448 0
M  V30 701 O 64.4123 0.610355 1.84675 0
M  V30 702 C 64.6953 3.60098 0.0129503 0
M  V30 703 C 64.5483 4.28441 -1.3696 0
M  V30 704 C 65.8673 4.34224 0.71678 0
M  V30 705 H 62.9863 0.736637 -0.0231407 0
M  V30 706 H 65.6283 1.74898 -0.742351 0
M  V30 707 H 63.7783 3.83926 0.594378 0
M  V30 708 H 65.4503 4.15896 -1.9957 0
M  V30 709 H 63.6933 3.8805 -1.93907 0
M  V30 710 H 64.3643 5.3716 -1.27135 0
M  V30 711 H 66.8403 4.15503 0.222908 0
M  V30 712 H 65.7163 5.43936 0.73657 0
M  V30 713 H 65.9773 4.04823 1.77682 0
M  V30 714 N 65.0364 0.313813 1.54444 0
M  V30 715 C 66.3134 -0.345447 1.92525 0
M  V30 716 C 66.6934 -1.70667 1.24242 0
M  V30 717 O 66.0414 -2.25273 0.382654 0
M  V30 718 C 66.2514 -0.44737 3.46121 0
M  V30 719 C 67.5994 -0.712238 4.18584 0
M  V30 720 O 68.6234 -0.530678 3.52225 0
M  V30 721 O 67.4824 -1.06183 5.36085 0
M  V30 722 H 64.5764 -0.195407 0.803583 0
M  V30 723 H 67.1224 0.362813 1.65776 0
M  V30 724 H 65.8944 0.509043 3.87975 0
M  V30 725 H 65.5174 -1.20359 3.78945 0
M  V30 726 N 66.5145 -1.57545 0.0417849 0
M  V30 727 C 67.4625 -2.12148 -0.953723 0
M  V30 728 C 68.4565 -1.05104 -1.32852 0
M  V30 729 O 69.6625 -1.23524 -1.30927 0
M  V30 730 H 66.0375 -0.677957 -0.325389 0
M  V30 731 H 68.0085 -2.94707 -0.467991 0
M  V30 732 C 66.7575 -2.6739 -2.22257 0
M  V30 733 H 66.0805 -3.49413 -1.94295 0
M  V30 734 H 67.5205 -3.09227 -2.90094 0
M  V30 735 C 65.9795 -1.60723 -2.96091 0
M  V30 736 O 66.5095 -1.01449 -3.88679 0
M  V30 737 N 64.7155 -1.32466 -2.58652 0
M  V30 738 H 64.2625 -1.80856 -1.83437 0
M  V30 739 H 64.2205 -0.61325 -3.08361 0
M  V30 740 N 67.9926 0.231505 -1.5589 0
M  V30 741 C 68.9246 1.31006 -1.8807 0
M  V30 742 C 69.9376 1.43539 -0.768145 0
M  V30 743 O 71.1266 1.44614 -1.04638 0
M  V30 744 C 68.2266 2.68688 -2.06543 0
M  V30 745 C 67.3996 2.78228 -3.37502 0
M  V30 746 C 66.4586 3.96857 -3.4553 0
M  V30 747 O 65.4846 3.85662 -4.18633 0
M  V30 748 N 66.6866 5.1072 -2.75944 0
M  V30 749 H 69.4516 1.03731 -2.81176 0
M  V30 750 H 67.0126 0.421573 -1.56315 0
M  V30 751 H 69.0046 3.46412 -2.09239 0
M  V30 752 H 67.5746 2.88605 -1.20109 0
M  V30 753 H 66.7946 1.87059 -3.46991 0
M  V30 754 H 68.0826 2.81564 -4.23791 0
M  V30 755 H 67.4806 5.2271 -2.16311 0
M  V30 756 H 66.0376 5.86523 -2.84314 0
M  V30 757 N 69.4707 1.49531 0.497807 0
M  V30 758 C 70.7177 1.59179 1.25173 0
M  V30 759 C 71.0457 0.279932 1.92475 0
M  V30 760 O 70.3007 -0.732383 1.81479 0
M  V30 761 C 70.5997 2.70252 2.33878 0
M  V30 762 C 70.2657 4.11644 1.84012 0
M  V30 763 C 68.9277 4.50121 1.70132 0
M  V30 764 C 71.2797 5.00121 1.46725 0
M  V30 765 C 68.6077 5.74845 1.17348 0
M  V30 766 C 70.9597 6.25366 0.95392 0
M  V30 767 C 69.6237 6.6267 0.801538 0
M  V30 768 H 68.8937 0.582478 0.45804 0
M  V30 769 H 71.5407 1.83373 0.551948 0
M  V30 770 H 69.8457 2.40041 3.09657 0
M  V30 771 H 71.5427 2.74925 2.9192 0
M  V30 772 H 68.1327 3.81274 1.95775 0
M  V30 773 H 72.3167 4.71048 1.56294 0
M  V30 774 H 67.5727 6.02444 1.04264 0
M  V30 775 H 71.7467 6.93301 0.656225 0
M  V30 776 H 69.3737 7.59197 0.390351 0
M  V30 777 N 70.9488 -0.749086 1.3866 0
M  V30 778 C 72.1788 -1.53611 1.38157 0
M  V30 779 C 72.5868 -1.89177 -0.0293595 0
M  V30 780 O 71.9298 -1.53606 -1.00752 0
M  V30 781 C 71.9918 -2.86087 2.17702 0
M  V30 782 C 71.6558 -2.73034 3.66472 0
M  V30 783 C 72.6528 -2.42526 4.59866 0
M  V30 784 C 70.3378 -2.90345 4.09884 0
M  V30 785 C 72.3318 -2.29492 5.94653 0
M  V30 786 C 70.0188 -2.7693 5.4475 0
M  V30 787 C 71.0168 -2.46547 6.36949 0
M  V30 788 O 70.7048 -2.33199 7.69333 0
M  V30 789 H 70.4368 -0.481773 0.474205 0
M  V30 790 H 72.9908 -0.934465 1.82912 0
M  V30 791 H 71.2208 -3.48458 1.67672 0
M  V30 792 H 72.9098 -3.47625 2.09551 0
M  V30 793 H 73.6758 -2.28816 4.27631 0
M  V30 794 H 69.5548 -3.1299 3.38464 0
M  V30 795 H 73.0988 -2.05698 6.66584 0
M  V30 796 H 68.9958 -2.90215 5.76581 0
M  V30 797 H 69.7638 -2.48376 7.79905 0
M  V30 798 N 72.4269 -1.23603 -0.977757 0
M  V30 799 C 73.6519 -1.09735 -1.75991 0
M  V30 800 C 74.0769 0.346858 -1.84874 0
M  V30 801 O 73.4349 1.25093 -1.3123 0
M  V30 802 C 73.4829 -1.73051 -3.16363 0
M  V30 803 O 72.5869 -0.994452 -4.0023 0
M  V30 804 H 71.9279 -0.384476 -0.541364 0
M  V30 805 H 74.4579 -1.6371 -1.2272 0
M  V30 806 H 74.4679 -1.78398 -3.66931 0
M  V30 807 H 73.1429 -2.78137 -3.09213 0
M  V30 808 H 71.7199 -1.01812 -3.58732 0
M  V30 809 N 73.905 1.17692 -1.04816 0
M  V30 810 C 75.151 1.88137 -0.75711 0
M  V30 811 C 75.484 1.80604 0.713841 0
M  V30 812 O 74.759 1.21146 1.52164 0
M  V30 813 C 75.042 3.38318 -1.2334 0
M  V30 814 C 74.895 3.54622 -2.76701 0
M  V30 815 C 76.214 4.32214 -0.829415 0
M  V30 816 H 73.333 0.683163 -0.27651 0
M  V30 817 H 75.975 1.38424 -1.30149 0
M  V30 818 H 74.125 3.80787 -0.770286 0
M  V30 819 H 75.797 3.21194 -3.31107 0
M  V30 820 H 74.04 2.97026 -3.16161 0
M  V30 821 H 74.711 4.60028 -3.05088 0
M  V30 822 H 77.187 3.97565 -1.22805 0
M  V30 823 H 76.063 5.35838 -1.19033 0
M  V30 824 H 76.324 4.41294 0.266891 0
M  V30 825 N 75.3831 0.828654 1.34056 0
M  V30 826 C 76.2931 0.256725 2.33191 0
M  V30 827 C 77.3091 -0.611898 1.62886 0
M  V30 828 O 78.4851 -0.51844 1.94613 0
M  V30 829 C 75.5501 -0.567238 3.42028 0
M  V30 830 C 74.6111 0.324458 4.28072 0
M  V30 831 C 73.8441 -0.460274 5.31712 0
M  V30 832 O 74.0671 -1.693 5.44696 0
M  V30 833 O 73.0011 0.160391 6.01686 0
M  V30 834 H 76.8271 1.07739 2.83947 0
M  V30 835 H 74.4121 0.59093 1.37217 0
M  V30 836 H 76.2941 -1.03582 4.08471 0
M  V30 837 H 74.9691 -1.36513 2.93506 0
M  V30 838 H 73.8761 0.840659 3.64532 0
M  V30 839 H 75.2091 1.08685 4.8005 0
M  V30 840 N 76.8612 -1.46375 0.584142 0
M  V30 841 C 78.1072 -2.02678 0.0703716 0
M  V30 842 C 78.4402 -1.4545 -1.28678 0
M  V30 843 O 77.7152 -0.62014 -1.84349 0
M  V30 844 C 77.9982 -3.60099 0.00614674 0
M  V30 845 C 77.8512 -4.27709 1.3923 0
M  V30 846 C 79.1702 -4.34598 -0.693742 0
M  V30 847 H 76.2892 -0.736504 0.027047 0
M  V30 848 H 78.9312 -1.74501 0.751615 0
M  V30 849 H 77.0812 -3.84236 -0.574009 0
M  V30 850 H 78.7532 -4.14832 2.01773 0
M  V30 851 H 76.9962 -3.87016 1.95962 0
M  V30 852 H 77.6672 -5.36478 1.29982 0
M  V30 853 H 80.1432 -4.15615 -0.200869 0
M  V30 854 H 79.0192 -5.44318 -0.707714 0
M  V30 855 H 79.2802 -4.05759 -1.75533 0
M  V30 856 N 78.3393 -0.321999 -1.54275 0
M  V30 857 C 79.5873 0.280489 -2.00144 0
M  V30 858 C 79.9083 1.52777 -1.21178 0
M  V30 859 O 79.1783 1.9338 -0.313187 0
M  V30 860 H 77.7583 0.106632 -0.73935 0
M  V30 861 H 80.4203 -0.438184 -1.8991 0
M  V30 862 H 79.5163 0.537972 -3.07428 0
M  V30 863 N 79.8174 1.5752 -0.0501392 0
M  V30 864 C 81.0944 1.83996 0.663685 0
M  V30 865 C 81.4744 0.938339 1.89099 0
M  V30 866 O 80.8224 -0.00087759 2.285 0
M  V30 867 C 81.0324 3.33702 1.02196 0
M  V30 868 C 82.3804 4.00691 1.40469 0
M  V30 869 O 83.4044 3.38321 1.11433 0
M  V30 870 O 82.2634 5.10658 1.94654 0
M  V30 871 H 79.3574 0.759385 0.32751 0
M  V30 872 H 81.9034 1.69514 -0.0794238 0
M  V30 873 H 80.6754 3.91015 0.149364 0
M  V30 874 H 80.2984 3.53368 1.82255 0
M  V30 875 N 81.2955 -0.223234 1.56011 0
M  V30 876 C 82.5205 -0.968978 1.83373 0
M  V30 877 C 82.9455 -1.77227 0.630254 0
M  V30 878 O 82.3035 -1.76345 -0.420959 0
M  V30 879 C 82.3515 -1.86363 3.08709 0
M  V30 880 O 81.4555 -2.95873 2.87285 0
M  V30 881 H 80.7965 -0.274461 0.604622 0
M  V30 882 H 83.3265 -0.237056 2.03222 0
M  V30 883 H 83.3365 -2.27376 3.38768 0
M  V30 884 H 82.0115 -1.27319 3.95933 0
M  V30 885 H 80.5885 -2.58818 2.68454 0
M  V30 886 N 82.7736 -1.49793 -0.48987 0
M  V30 887 C 84.0016 -1.63568 -1.26701 0
M  V30 888 C 84.4166 -0.311465 -1.86213 0
M  V30 889 O 83.7736 0.704416 -1.68357 0
M  V30 890 C 83.8246 -2.71284 -2.38929 0
M  V30 891 O 83.5456 -3.9857 -1.81861 0
M  V30 892 C 85.0466 -2.95864 -3.3012 0
M  V30 893 H 82.2666 -0.550342 -0.383881 0
M  V30 894 H 84.8106 -1.95898 -0.586864 0
M  V30 895 H 82.9656 -2.417 -3.02753 0
M  V30 896 H 83.3796 -4.57993 -2.55622 0
M  V30 897 H 84.8536 -3.74941 -4.05121 0
M  V30 898 H 85.3306 -2.06206 -3.87783 0
M  V30 899 H 85.9366 -3.26907 -2.72051 0
M  V30 900 N 84.2517 0.741722 -1.39055 0
M  V30 901 C 85.4987 1.50114 -1.35912 0
M  V30 902 C 85.8267 1.94443 0.0470937 0
M  V30 903 O 85.0817 1.66612 1.02659 0
M  V30 904 C 85.3807 2.7592 -2.27163 0
M  V30 905 C 85.0467 2.50493 -3.74919 0
M  V30 906 C 83.7087 2.43267 -4.1518 0
M  V30 907 C 86.0607 2.28585 -4.684 0
M  V30 908 C 83.3887 2.12166 -5.46994 0
M  V30 909 C 85.7407 1.99002 -6.00484 0
M  V30 910 C 84.4047 1.90241 -6.39816 0
M  V30 911 H 83.6747 0.549306 -0.497336 0
M  V30 912 H 86.3217 0.851896 -1.71508 0
M  V30 913 H 84.6267 3.45553 -1.84663 0
M  V30 914 H 86.3237 3.33923 -2.22028 0
M  V30 915 H 82.9137 2.56992 -3.43006 0
M  V30 916 H 87.0977 2.33139 -4.38132 0
M  V30 917 H 82.3537 2.03901 -5.76398 0
M  V30 918 H 86.5277 1.81057 -6.72452 0
M  V30 919 H 84.1547 1.65907 -7.41875 0
M  V30 920 N 85.7298 1.2412 0.971189 0
M  V30 921 C 86.9578 1.10575 1.74874 0
M  V30 922 C 87.3728 -0.342017 1.85676 0
M  V30 923 O 86.7298 -1.23617 1.34258 0
M  V30 924 C 86.7808 1.73579 3.171 0
M  V30 925 O 86.5018 3.12695 3.06844 0
M  V30 926 C 88.0028 1.65598 4.11208 0
M  V30 927 H 85.2228 0.386504 0.548503 0
M  V30 928 H 87.7668 1.64156 1.21955 0
M  V30 929 H 85.9218 1.24009 3.67016 0
M  V30 930 H 86.3358 3.43412 3.96445 0
M  V30 931 H 87.8098 2.1437 5.08674 0
M  V30 932 H 88.2868 0.616532 4.34851 0
M  V30 933 H 88.8928 2.14578 3.67201 0
M  V30 934 N 87.2079 -1.17134 1.05439 0
M  V30 935 C 88.4539 -1.87733 0.767077 0
M  V30 936 C 88.7869 -1.8098 -0.704253 0
M  V30 937 O 88.0619 -1.21951 -1.5152 0
M  V30 938 C 88.3449 -3.37659 1.25133 0
M  V30 939 C 88.1979 -3.53149 2.78578 0
M  V30 940 C 89.5169 -4.31768 0.852324 0
M  V30 941 H 86.6359 -0.681687 0.280129 0
M  V30 942 H 89.2779 -1.37732 1.30881 0
M  V30 943 H 87.4279 -3.80373 0.790469 0
M  V30 944 H 89.0999 -3.19434 3.32806 0
M  V30 945 H 87.3429 -2.95345 3.17732 0
M  V30 946 H 88.0139 -4.58403 3.07523 0
M  V30 947 H 90.4899 -3.96909 1.24911 0
M  V30 948 H 89.3659 -5.35199 1.21873 0
M  V30 949 H 89.6269 -4.41429 -0.243485 0
M  V30 950 N 88.686 -0.835752 -1.33615 0
M  V30 951 C 89.616 -0.281739 -2.31794 0
M  V30 952 C 90.597 0.608833 -1.58831 0
M  V30 953 O 91.782 0.533035 -1.86741 0
M  V30 954 C 88.912 0.546612 -3.42971 0
M  V30 955 C 87.866 -0.247904 -4.27281 0
M  V30 956 C 87.192 0.704001 -5.30045 0
M  V30 957 C 88.492 -1.46324 -5.01385 0
M  V30 958 H 90.186 -1.10206 -2.78379 0
M  V30 959 H 87.732 -0.531388 -1.33837 0
M  V30 960 H 89.685 0.944467 -4.1068 0
M  V30 961 H 88.409 1.40011 -2.95067 0
M  V30 962 H 87.068 -0.627281 -3.61194 0
M  V30 963 H 86.716 1.55381 -4.78399 0
M  V30 964 H 86.416 0.176524 -5.87335 0
M  V30 965 H 87.94 1.09944 -6.0062 0
M  V30 966 H 89.354 -1.13871 -5.61877 0
M  V30 967 H 87.751 -1.92728 -5.6831 0
M  V30 968 H 88.821 -2.23467 -4.30338 0
M  V30 969 N 90.1641 1.46063 -0.591896 0
M  V30 970 C 91.1111 2.30399 0.136069 0
M  V30 971 C 92.0811 1.41169 0.875238 0
M  V30 972 O 93.2661 1.70112 0.86409 0
M  V30 973 C 90.4061 3.25804 1.13781 0
M  V30 974 C 89.5191 4.30134 0.401137 0
M  V30 975 C 88.6541 5.12659 1.39121 0
M  V30 976 C 87.6931 6.0873 0.641462 0
M  V30 977 N 86.8301 6.8409 1.58004 0
M  V30 978 H 91.6701 2.92118 -0.589144 0
M  V30 979 H 89.2071 1.43959 -0.302342 0
M  V30 980 H 91.1651 3.79569 1.73156 0
M  V30 981 H 89.7951 2.65872 1.83062 0
M  V30 982 H 88.8471 3.79152 -0.307826 0
M  V30 983 H 90.1591 4.98458 -0.184565 0
M  V30 984 H 89.3131 5.70747 2.05749 0
M  V30 985 H 88.0521 4.44316 2.01084 0
M  V30 986 H 87.0571 5.49786 -0.0385419 0
M  V30 987 H 88.2821 6.79095 0.0270945 0
M  V30 988 H 86.2281 6.18449 2.18761 0
M  V30 989 H 86.1451 7.48709 1.04738 0
M  V30 990 H 87.4131 7.4673 2.23639 0
M  V30 991 N 91.6422 0.330177 1.54103 0
M  V30 992 C 93.0582 -0.0222371 1.59585 0
M  V30 993 C 93.2582 -1.49902 1.34654 0
M  V30 994 O 92.3142 -2.25592 1.13421 0
M  V30 995 C 93.6272 0.401932 2.98002 0
M  V30 996 C 95.1752 0.353145 3.11001 0
M  V30 997 C 95.6502 0.752576 4.51775 0
M  V30 998 N 97.1412 0.706239 4.57784 0
M  V30 999 C 97.8762 0.987417 5.64834 0
M  V30 1000 N 97.3722 1.33607 6.79795 0
M  V30 1001 N 99.1652 0.91254 5.54643 0
M  V30 1002 H 91.3162 1.29228 1.68564 0
M  V30 1003 H 93.5792 0.525906 0.78875 0
M  V30 1004 H 93.2852 1.4311 3.21267 0
M  V30 1005 H 93.1592 -0.229699 3.765 0
M  V30 1006 H 95.5462 -0.666822 2.87467 0
M  V30 1007 H 95.6272 1.0198 2.34593 0
M  V30 1008 H 95.2712 1.77049 4.76042 0
M  V30 1009 H 95.2012 0.0635409 5.26562 0
M  V30 1010 H 97.6922 0.44889 3.75224 0
M  V30 1011 H 98.0052 1.53582 7.57385 0
M  V30 1012 H 96.3502 1.37439 6.81275 0
M  V30 1013 H 99.5412 0.639601 4.6371 0
M  V30 1014 H 99.7142 1.13503 6.37982 0
M  V30 1015 N 93.1203 -1.57491 0.0584922 0
M  V30 1016 C 94.3503 -1.9701 -0.622134 0
M  V30 1017 C 94.7583 -0.935034 -1.6448 0
M  V30 1018 O 94.1013 0.0882904 -1.83488 0
M  V30 1019 C 94.1633 -3.32794 -1.35972 0
M  V30 1020 C 93.8273 -4.54343 -0.492043 0
M  V30 1021 C 94.8243 -5.19323 0.244901 0
M  V30 1022 C 92.5093 -5.00534 -0.420821 0
M  V30 1023 C 94.5033 -6.28835 1.04143 0
M  V30 1024 C 92.1903 -6.09921 0.379389 0
M  V30 1025 C 93.1883 -6.73933 1.10919 0
M  V30 1026 O 92.8763 -7.81216 1.89623 0
M  V30 1027 H 92.6083 -0.653127 -0.174359 0
M  V30 1028 H 95.1623 -2.05029 0.123418 0
M  V30 1029 H 93.3923 -3.21351 -2.15105 0
M  V30 1030 H 95.0813 -3.5701 -1.93129 0
M  V30 1031 H 95.8473 -4.8459 0.19939 0
M  V30 1032 H 91.7263 -4.50496 -0.978474 0
M  V30 1033 H 95.2703 -6.7873 1.61157 0
M  V30 1034 H 91.1673 -6.44089 0.426512 0
M  V30 1035 H 91.9353 -7.98029 1.81913 0
M  V30 1036 N 94.5984 0.214957 -1.56127 0
M  V30 1037 C 95.5304 1.29004 -1.89448 0
M  V30 1038 C 96.5434 1.42716 -0.783326 0
M  V30 1039 O 97.7324 1.43496 -1.06166 0
M  V30 1040 C 94.8324 2.66482 -2.09381 0
M  V30 1041 C 94.0054 2.74633 -3.40434 0
M  V30 1042 C 93.0644 3.9317 -3.49719 0
M  V30 1043 O 92.0904 3.812 -4.227 0
M  V30 1044 N 93.2924 5.07765 -2.81346 0
M  V30 1045 H 96.0574 1.00743 -2.82261 0
M  V30 1046 H 93.6184 0.40497 -1.56753 0
M  V30 1047 H 95.6104 3.44173 -2.12901 0
M  V30 1048 H 94.1804 2.87314 -1.23163 0
M  V30 1049 H 93.4004 1.83368 -3.48955 0
M  V30 1050 H 94.6884 2.77054 -4.26754 0
M  V30 1051 H 94.0864 5.20386 -2.21843 0
M  V30 1052 H 92.6434 5.83474 -2.90519 0
M  V30 1053 N 96.0765 1.50051 0.48192 0
M  V30 1054 C 97.0245 1.68635 1.60203 0
M  V30 1055 C 98.0185 0.552184 1.60148 0
M  V30 1056 O 99.2245 0.732377 1.64427 0
M  V30 1057 H 95.5995 0.532081 0.531407 0
M  V30 1058 H 97.5705 2.62616 1.41688 0
M  V30 1059 C 96.3195 1.78775 2.9822 0
M  V30 1060 H 95.6425 2.6543 2.98976 0
M  V30 1061 H 97.0825 1.95806 3.7608 0
M  V30 1062 C 95.5415 0.536849 3.32595 0
M  V30 1063 O 96.0715 -0.328897 4.00351 0
M  V30 1064 N 94.2775 0.394091 2.87915 0
M  V30 1065 H 93.8245 1.09962 2.32951 0
M  V30 1066 H 93.7825 -0.441737 3.11281 0
M  V30 1067 N 97.5546 -0.734337 1.39446 0
M  V30 1068 C 98.4846 -1.86155 1.40955 0
M  V30 1069 C 99.4656 -1.67898 0.272827 0
M  V30 1070 O 100.651 -1.88207 0.478743 0
M  V30 1071 C 97.7806 -3.23912 1.25294 0
M  V30 1072 C 96.7346 -3.56808 2.36373 0
M  V30 1073 C 96.0606 -4.93508 2.058 0
M  V30 1074 C 97.3606 -3.59713 3.78687 0
M  V30 1075 H 99.0546 -1.8515 2.35287 0
M  V30 1076 H 96.6006 -0.889367 1.13253 0
M  V30 1077 H 98.5536 -4.02443 1.2497 0
M  V30 1078 H 97.2776 -3.25446 0.274308 0
M  V30 1079 H 95.9366 -2.80606 2.35914 0
M  V30 1080 H 95.5846 -4.91623 1.06374 0
M  V30 1081 H 95.2846 -5.16486 2.80208 0
M  V30 1082 H 96.8086 -5.74396 2.07128 0
M  V30 1083 H 98.2226 -4.2832 3.81071 0
M  V30 1084 H 96.6196 -3.94209 4.52459 0
M  V30 1085 H 97.6896 -2.59504 4.09617 0
M  V30 1086 N 99.0327 -1.24633 -0.964593 0
M  V30 1087 C 99.9797 -1.04144 -2.05968 0
M  V30 1088 C 100.95 0.046262 -1.66036 0
M  V30 1089 O 102.135 -0.108972 -1.90489 0
M  V30 1090 C 99.2747 -0.65563 -3.38815 0
M  V30 1091 C 98.3877 -1.81714 -3.91923 0
M  V30 1092 C 97.5227 -1.37662 -5.13052 0
M  V30 1093 C 96.5617 -2.50788 -5.58365 0
M  V30 1094 N 95.6987 -2.07582 -6.70712 0
M  V30 1095 H 100.539 -1.9787 -2.22827 0
M  V30 1096 H 98.0757 -0.9855 -1.09208 0
M  V30 1097 H 100.034 -0.412954 -4.15151 0
M  V30 1098 H 98.6637 0.244627 -3.21872 0
M  V30 1099 H 97.7157 -2.1734 -3.12198 0
M  V30 1100 H 99.0277 -2.66705 -4.21509 0
M  V30 1101 H 98.1817 -1.093 -5.96773 0
M  V30 1102 H 96.9207 -0.497293 -4.85158 0
M  V30 1103 H 95.9257 -2.79906 -4.73215 0
M  V30 1104 H 97.1507 -3.39283 -5.88272 0
M  V30 1105 H 95.0967 -1.22051 -6.44546 0
M  V30 1106 H 95.0137 -2.86125 -6.99763 0
M  V30 1107 H 96.2817 -1.82369 -7.57867 0
M  V30 1108 N 100.511 1.16574 -1.06058 0
M  V30 1109 C 101.922 1.68662 -0.800632 0
M  V30 1110 C 102.273 1.84184 0.67608 0
M  V30 1111 O 101.398 1.53568 1.52466 0
M  V30 1112 C 101.993 3.06356 -1.44676 0
M  V30 1113 C 100.552 3.55575 -1.23465 0
M  V30 1114 C 99.6988 2.31616 -1.52477 0
M  V30 1115 H 102.65 1.00969 -1.22438 0
M  V30 1116 H 102.671 3.70636 -0.860788 0
M  V30 1117 H 102.183 2.95027 -2.52152 0
M  V30 1118 H 100.284 3.72167 -0.179527 0
M  V30 1119 H 100.397 4.37812 -1.94571 0
M  V30 1120 H 98.7608 2.36512 -0.945209 0
M  V30 1121 H 99.5438 2.22887 -2.61106 0
M  V30 1122 N 101.989 0.842826 1.3317 0
M  V30 1123 C 103.238 0.436738 1.96915 0
M  V30 1124 C 103.551 -1.01025 1.67491 0
M  V30 1125 O 104.757 -1.5212 2.24881 0
M  V30 1126 C 103.213 0.730021 3.52418 0
M  V30 1127 C 102.821 2.19195 3.90714 0
M  V30 1128 C 104.565 0.391076 4.22695 0
M  V30 1129 C 102.472 2.42907 5.39212 0
M  V30 1130 H 101.402 0.15958 0.736919 0
M  V30 1131 H 104.053 1.03196 1.51733 0
M  V30 1132 H 102.435 0.0643755 3.95948 0
M  V30 1133 H 103.609 2.8984 3.58231 0
M  V30 1134 H 101.924 2.49425 3.33431 0
M  V30 1135 H 104.521 0.545817 5.31907 0
M  V30 1136 H 104.864 -0.666294 4.10933 0
M  V30 1137 H 105.397 1.01212 3.84709 0
M  V30 1138 H 102.136 3.47224 5.55982 0
M  V30 1139 H 101.656 1.76827 5.73142 0
M  V30 1140 H 103.335 2.2626 6.06148 0
M  V30 1141 N 103.467 -1.45747 0.599634 0
M  V30 1142 C 104.715 -2.01893 0.0915472 0
M  V30 1143 C 105.036 -1.47155 -1.27946 0
M  V30 1144 O 104.306 -0.66273 -1.84349 0
M  V30 1145 H 102.886 -0.746363 0.0308524 0
M  V30 1146 H 105.548 -1.78645 0.779237 0
M  V30 1147 H 104.644 -3.1208 0.0353086 0
M  V30 1148 N 104.945 -0.338344 -1.53925 0
M  V30 1149 C 106.17 0.263987 -2.05713 0
M  V30 1150 C 106.595 1.43847 -1.21201 0
M  V30 1151 O 105.953 1.79904 -0.224535 0
M  V30 1152 C 106.001 0.662 -3.54471 0
M  V30 1153 O 105.105 1.76265 -3.72833 0
M  V30 1154 H 104.446 0.0448722 -0.662482 0
M  V30 1155 H 106.976 -0.491048 -1.9862 0
M  V30 1156 H 106.986 0.940594 -3.9701 0
M  V30 1157 H 105.661 -0.196937 -4.15433 0
M  V30 1158 H 104.238 1.48173 -3.42198 0
M  V30 1159 N 106.423 1.57458 -0.0668435 0
M  V30 1160 C 107.671 1.92919 0.602214 0
M  V30 1161 C 107.992 0.947215 1.70449 0
M  V30 1162 O 107.262 -0.00544117 1.95899 0
M  V30 1163 H 105.842 0.71217 0.22544 0
M  V30 1164 H 108.504 1.94508 -0.123535 0
M  V30 1165 H 107.6 2.94589 1.03073 0
M  V30 1166 N 107.901 -0.206675 1.56239 0
M  V30 1167 C 108.864 -1.23976 1.92776 0
M  V30 1168 C 109.864 -1.39041 0.807729 0
M  V30 1169 O 111.054 -1.37051 1.0753 0
M  V30 1170 C 108.186 -2.61112 2.19165 0
M  V30 1171 H 109.379 -0.927764 2.85189 0
M  V30 1172 H 106.932 -0.447718 1.4975 0
M  V30 1173 H 107.667 -2.97386 1.29352 0
M  V30 1174 H 107.452 -2.51552 3.00772 0
M  V30 1175 H 108.942 -3.35633 2.48476 0
M  V30 1176 N 109.379 -1.50304 -0.473955 0
M  V30 1177 C 110.311 -1.65109 -1.58971 0
M  V30 1178 C 111.324 -0.532676 -1.53839 0
M  V30 1179 O 112.513 -0.805751 -1.59279 0
M  V30 1180 C 109.613 -1.61684 -2.97845 0
M  V30 1181 C 108.786 -2.8951 -3.27876 0
M  V30 1182 C 107.845 -2.78768 -4.4629 0
M  V30 1183 O 106.871 -3.52722 -4.46739 0
M  V30 1184 N 108.073 -1.9213 -5.47783 0
M  V30 1185 H 110.838 -2.61347 -1.46689 0
M  V30 1186 H 108.399 -1.47732 -0.662324 0
M  V30 1187 H 110.391 -1.52114 -3.75024 0
M  V30 1188 H 108.961 -0.731925 -3.03911 0
M  V30 1189 H 108.181 -3.13228 -2.39336 0
M  V30 1190 H 109.469 -3.74199 -3.4475 0
M  V30 1191 H 108.867 -1.31353 -5.50239 0
M  V30 1192 H 107.424 -1.88466 -6.23958 0
M  V30 1193 N 110.857 0.726932 -1.39834 0
M  V30 1194 C 112.105 1.4837 -1.37225 0
M  V30 1195 C 112.426 1.94979 0.0284857 0
M  V30 1196 O 111.696 1.69555 0.981213 0
M  V30 1197 H 110.276 0.55043 -0.505011 0
M  V30 1198 H 112.938 0.862468 -1.74778 0
M  V30 1199 H 112.034 2.36198 -2.04003 0
M  V30 1200 N 112.336 1.25143 0.95797 0
M  V30 1201 C 113.585 1.0909 1.69654 0
M  V30 1202 C 113.898 -0.368548 1.92097 0
M  V30 1203 O 115.104 -0.649455 2.63618 0
M  V30 1204 C 113.56 1.90395 3.05414 0
M  V30 1205 C 113.168 3.4081 2.90779 0
M  V30 1206 C 114.912 1.82901 3.83076 0
M  V30 1207 C 112.819 4.14423 4.21909 0
M  V30 1208 H 111.749 0.404625 0.636235 0
M  V30 1209 H 114.4 1.4931 1.06672 0
M  V30 1210 H 112.782 1.42996 3.69281 0
M  V30 1211 H 113.956 3.95859 2.35865 0
M  V30 1212 H 112.271 3.49361 2.26575 0
M  V30 1213 H 114.868 2.35196 4.80195 0
M  V30 1214 H 115.211 0.796224 4.08615 0
M  V30 1215 H 115.744 2.28033 3.25954 0
M  V30 1216 H 112.483 5.18102 4.01561 0
M  V30 1217 H 112.003 3.64159 4.76601 0
M  V30 1218 H 113.682 4.21956 4.90471 0
M  V30 1219 N 113.814 -1.1601 1.06675 0
M  V30 1220 C 115.06 -1.86909 0.786945 0
M  V30 1221 C 115.393 -1.81717 -0.685018 0
M  V30 1222 O 114.668 -1.23551 -1.50218 0
M  V30 1223 C 114.951 -3.36313 1.28707 0
M  V30 1224 C 114.804 -3.50175 2.82308 0
M  V30 1225 C 116.123 -4.3084 0.898071 0
M  V30 1226 H 113.242 -0.678677 0.287343 0
M  V30 1227 H 115.884 -1.36336 1.32334 0
M  V30 1228 H 114.034 -3.79513 0.830768 0
M  V30 1229 H 115.706 -3.15886 3.36175 0
M  V30 1230 H 113.949 -2.91959 3.20847 0
M  V30 1231 H 114.62 -4.55116 3.12368 0
M  V30 1232 H 117.096 -3.95561 1.29114 0
M  V30 1233 H 115.972 -5.33876 1.27543 0
M  V30 1234 H 116.233 -4.41662 -0.196651 0
M  V30 1235 N 115.292 -0.849877 -1.32721 0
M  V30 1236 C 116.532 -0.457146 -1.99222 0
M  V30 1237 C 116.896 0.968038 -1.6581 0
M  V30 1238 O 118.097 1.46507 -2.25364 0
M  V30 1239 C 116.368 -0.683966 -3.50794 0
M  V30 1240 S 117.927 -0.388095 -4.3708 0
M  V30 1241 H 114.745 -0.171464 -0.690015 0
M  V30 1242 H 117.347 -1.10155 -1.61512 0
M  V30 1243 H 116.051 -1.72038 -3.726 0
M  V30 1244 H 115.582 -0.0258086 -3.93392 0
M  V30 1245 H 117.597 0.787791 -4.89906 0
M  V30 1246 N 116.77 1.45427 -0.607355 0
M  V30 1247 C 117.733 2.28974 0.101693 0
M  V30 1248 C 118.733 1.39754 0.795329 0
M  V30 1249 O 119.923 1.61878 0.643527 0
M  V30 1250 C 117.055 3.20768 1.15414 0
M  V30 1251 H 118.248 2.93147 -0.632844 0
M  V30 1252 H 115.801 1.51945 -0.366391 0
M  V30 1253 H 116.536 2.61395 1.91945 0
M  V30 1254 H 116.321 3.86489 0.66098 0
M  V30 1255 H 117.811 3.83589 1.65073 0
M  V30 1256 N 118.248 0.346503 1.53744 0
M  V30 1257 C 119.211 -0.496439 2.23759 0
M  V30 1258 C 120.211 -1.0252 1.2388 0
M  V30 1259 O 121.401 -0.913974 1.48297 0
M  V30 1260 C 118.533 -1.69187 2.95954 0
M  V30 1261 H 119.726 0.115952 2.99676 0
M  V30 1262 H 117.279 0.0978939 1.55993 0
M  V30 1263 H 118.014 -2.34288 2.24231 0
M  V30 1264 H 117.799 -1.31989 3.69217 0
M  V30 1265 H 119.289 -2.28969 3.49232 0
M  V30 1266 N 119.726 -1.57421 0.075193 0
M  V30 1267 C 120.956 -1.97659 -0.601203 0
M  V30 1268 C 121.364 -0.952427 -1.63479 0
M  V30 1269 O 120.707 0.0688241 -1.83571 0
M  V30 1270 C 120.769 -3.34218 -1.32434 0
M  V30 1271 C 120.433 -4.5484 -0.443826 0
M  V30 1272 C 121.43 -5.19034 0.299969 0
M  V30 1273 C 119.115 -5.00952 -0.367709 0
M  V30 1274 C 121.109 -6.27695 1.10807 0
M  V30 1275 C 118.796 -6.09484 0.444058 0
M  V30 1276 C 119.794 -6.72719 1.18061 0
M  V30 1277 O 119.482 -7.79161 1.97898 0
M  V30 1278 H 119.214 -0.65494 -0.167422 0
M  V30 1279 H 121.768 -2.04886 0.145157 0
M  V30 1280 H 119.998 -3.23615 -2.11685 0
M  V30 1281 H 121.687 -3.59038 -1.89331 0
M  V30 1282 H 122.453 -4.84351 0.250776 0
M  V30 1283 H 118.332 -4.51509 -0.930638 0
M  V30 1284 H 121.876 -6.76982 1.68347 0
M  V30 1285 H 117.773 -6.43601 0.494803 0
M  V30 1286 H 118.541 -7.96055 1.90367 0
M  V30 1287 N 121.204 0.198386 -1.56346 0
M  V30 1288 C 122.481 0.944982 -1.71258 0
M  V30 1289 C 122.861 2.0151 -0.629048 0
M  V30 1290 O 122.209 2.25639 0.360473 0
M  V30 1291 C 122.419 1.5344 -3.1346 0
M  V30 1292 C 123.767 2.01778 -3.73591 0
M  V30 1293 O 124.791 1.63288 -3.16568 0
M  V30 1294 O 123.65 2.72594 -4.73661 0
M  V30 1295 H 120.744 0.442939 -0.69838 0
M  V30 1296 H 123.29 0.188342 -1.68652 0
M  V30 1297 H 122.062 0.762869 -3.83792 0
M  V30 1298 H 121.685 2.35596 -3.20282 0
M  V30 1299 N 122.682 1.50554 0.465978 0
M  V30 1300 C 123.645 1.69233 1.54574 0
M  V30 1301 C 124.645 0.562901 1.50626 0
M  V30 1302 O 125.835 0.830016 1.53155 0
M  V30 1303 C 122.967 1.7223 2.94193 0
M  V30 1304 H 124.16 2.65571 1.39327 0
M  V30 1305 H 121.713 1.40111 0.692711 0
M  V30 1306 H 122.448 0.77603 3.14878 0
M  V30 1307 H 122.233 2.54285 2.98466 0
M  V30 1308 H 123.723 1.88618 3.72576 0
M  V30 1309 N 124.16 -0.719506 1.40217 0
M  V30 1310 C 125.406 -1.48152 1.38488 0
M  V30 1311 C 125.739 -1.94195 -0.0141867 0
M  V30 1312 O 125.014 -1.67884 -0.982096 0
M  V30 1313 C 125.297 -2.71035 2.37091 0
M  V30 1314 C 125.15 -2.30912 3.86005 0
M  V30 1315 C 126.469 -3.73182 2.33288 0
M  V30 1316 H 123.588 -0.537395 0.504357 0
M  V30 1317 H 126.23 -0.821472 1.71324 0
M  V30 1318 H 124.38 -3.27352 2.0922 0
M  V30 1319 H 126.052 -1.80107 4.24687 0
M  V30 1320 H 124.295 -1.62958 4.02029 0
M  V30 1321 H 124.966 -3.18978 4.50508 0
M  V30 1322 H 127.442 -3.26485 2.57966 0
M  V30 1323 H 126.318 -4.56806 3.04334 0
M  V30 1324 H 126.579 -4.21202 1.34317 0
M  V30 1325 N 125.638 -1.25649 -0.95132 0
M  V30 1326 C 126.568 -1.08808 -2.06599 0
M  V30 1327 C 127.549 0.00382547 -1.701 0
M  V30 1328 O 128.734 -0.166325 -1.93486 0
M  V30 1329 C 125.864 -0.709542 -3.39975 0
M  V30 1330 C 124.818 -1.75206 -3.90496 0
M  V30 1331 C 124.144 -1.22811 -5.20405 0
M  V30 1332 C 125.444 -3.15153 -4.16504 0
M  V30 1333 H 127.138 -2.02048 -2.20946 0
M  V30 1334 H 124.684 -0.972835 -1.06169 0
M  V30 1335 H 126.637 -0.578649 -4.17408 0
M  V30 1336 H 125.361 0.258556 -3.25575 0
M  V30 1337 H 124.02 -1.87145 -3.15234 0
M  V30 1338 H 123.668 -0.250145 -5.02378 0
M  V30 1339 H 123.368 -1.92492 -5.55176 0
M  V30 1340 H 124.892 -1.10968 -6.00432 0
M  V30 1341 H 126.306 -3.06349 -4.84586 0
M  V30 1342 H 124.703 -3.82333 -4.62538 0
M  V30 1343 H 125.773 -3.61966 -3.22658 0
M  V30 1344 N 127.117 1.15442 -1.07289 0
M  V30 1345 C 128.394 1.82306 -0.708792 0
M  V30 1346 C 128.774 1.94991 0.808807 0
M  V30 1347 O 128.122 1.50085 1.72298 0
M  V30 1348 C 128.332 3.18695 -1.42247 0
M  V30 1349 C 129.68 3.94341 -1.57417 0
M  V30 1350 O 130.704 3.28247 -1.38319 0
M  V30 1351 O 129.563 5.12839 -1.88834 0
M  V30 1352 H 126.657 0.787628 -0.252132 0
M  V30 1353 H 129.203 1.22559 -1.17377 0
M  V30 1354 H 127.975 3.04557 -2.45684 0
M  V30 1355 H 127.598 3.86128 -0.948223 0
M  V30 1356 N 128.595 0.856903 1.32268 0
M  V30 1357 C 130.011 0.547061 1.49931 0
M  V30 1358 C 130.211 -0.921781 1.7918 0
M  V30 1359 O 129.267 -1.70469 1.8627 0
M  V30 1360 C 130.58 1.43599 2.64196 0
M  V30 1361 C 132.128 1.43665 2.78081 0
M  V30 1362 C 132.603 2.31085 3.95428 0
M  V30 1363 N 134.094 2.28893 4.02694 0
M  V30 1364 C 134.829 2.93262 4.92732 0
M  V30 1365 N 134.325 3.66751 5.87763 0
M  V30 1366 N 136.118 2.82638 4.85873 0
M  V30 1367 H 128.269 1.8075 1.11549 0
M  V30 1368 H 130.532 0.772144 0.549997 0
M  V30 1369 H 130.238 2.48058 2.49319 0
M  V30 1370 H 130.112 1.12502 3.60032 0
M  V30 1371 H 132.499 0.399701 2.92381 0
M  V30 1372 H 132.58 1.7878 1.82952 0
M  V30 1373 H 132.224 3.34849 3.81888 0
M  V30 1374 H 132.154 1.93302 4.89839 0
M  V30 1375 H 134.645 1.75466 3.34694 0
M  V30 1376 H 134.958 4.13027 6.53168 0
M  V30 1377 H 133.303 3.70859 5.87783 0
M  V30 1378 H 136.494 2.24774 4.10602 0
M  V30 1379 H 136.667 3.33084 5.55841 0
M  V30 1380 N 130.073 -1.45103 0.615059 0
M  V30 1381 C 131.021 -2.32331 -0.111791 0
M  V30 1382 C 132.015 -1.46409 -0.852102 0
M  V30 1383 O 133.221 -1.62849 -0.766821 0
M  V30 1384 H 129.596 -0.749993 -0.0549072 0
M  V30 1385 H 131.567 -2.91407 0.642225 0
M  V30 1386 C 130.316 -3.3015 -1.09071 0
M  V30 1387 H 129.639 -3.96265 -0.530485 0
M  V30 1388 H 131.079 -3.93898 -1.56908 0
M  V30 1389 C 129.538 -2.57875 -2.168 0
M  V30 1390 O 130.068 -2.36567 -3.24652 0
M  V30 1391 N 128.274 -2.17884 -1.92289 0
M  V30 1392 H 127.821 -2.35413 -1.04587 0
M  V30 1393 H 127.779 -1.6985 -2.64572 0
M  V30 1394 N 131.551 -0.354651 -1.53558 0
M  V30 1395 C 132.797 0.238797 -2.01389 0
M  V30 1396 C 133.13 1.49309 -1.2418 0
M  V30 1397 O 132.405 1.91638 -0.332457 0
M  V30 1398 C 132.688 0.541771 -3.56001 0
M  V30 1399 C 132.541 -0.725388 -4.43912 0
M  V30 1400 C 133.86 1.34685 -4.18984 0
M  V30 1401 H 130.979 0.0853177 -0.732045 0
M  V30 1402 H 133.621 -0.477384 -1.83905 0
M  V30 1403 H 131.771 1.15189 -3.71031 0
M  V30 1404 H 133.443 -1.36313 -4.407 0
M  V30 1405 H 131.686 -1.34801 -4.12324 0
M  V30 1406 H 132.357 -0.468505 -5.50008 0
M  V30 1407 H 134.833 0.830837 -4.07721 0
M  V30 1408 H 133.709 1.52759 -5.27215 0
M  V30 1409 H 133.97 2.35221 -3.74331 0
M  V30 1410 N 133.029 1.57378 -0.0835403 0
M  V30 1411 C 133.992 2.12252 0.864959 0
M  V30 1412 C 134.992 1.04916 1.21858 0
M  V30 1413 O 136.182 1.30853 1.14991 0
M  V30 1414 C 133.314 2.63358 2.16461 0
M  V30 1415 H 134.507 2.97371 0.388676 0
M  V30 1416 H 132.06 1.55423 0.165317 0
M  V30 1417 H 132.795 1.81727 2.686 0
M  V30 1418 H 132.58 3.41826 1.92087 0
M  V30 1419 H 134.07 3.05847 2.84337 0
M  V30 1420 N 134.507 -0.190092 1.56449 0
M  V30 1421 C 135.756 -0.907912 1.80111 0
M  V30 1422 C 136.069 -1.84214 0.657619 0
M  V30 1423 O 137.275 -2.60094 0.778663 0
M  V30 1424 C 135.731 -1.66485 3.19078 0
M  V30 1425 C 135.339 -0.7752 4.41242 0
M  V30 1426 C 137.083 -2.37201 3.52045 0
M  V30 1427 C 134.99 -1.53129 5.71231 0
M  V30 1428 H 133.92 -0.34276 0.671589 0
M  V30 1429 H 136.571 -0.161109 1.82791 0
M  V30 1430 H 134.953 -2.45572 3.10661 0
M  V30 1431 H 136.127 -0.0226298 4.60794 0
M  V30 1432 H 134.442 -0.178627 4.16017 0
M  V30 1433 H 137.039 -2.94329 4.46402 0
M  V30 1434 H 137.382 -3.11632 2.76028 0
M  V30 1435 H 137.915 -1.65075 3.61932 0
M  V30 1436 H 134.654 -0.82967 6.50228 0
M  V30 1437 H 134.174 -2.25767 5.55688 0
M  V30 1438 H 135.853 -2.08377 6.12526 0
M  V30 1439 N 135.985 -1.50799 -0.457987 0
M  V30 1440 C 136.932 -1.70617 -1.5543 0
M  V30 1441 C 137.902 -0.547562 -1.56815 0
M  V30 1442 O 139.087 -0.779647 -1.74144 0
M  V30 1443 C 136.227 -1.81831 -2.93311 0
M  V30 1444 C 135.34 -3.09278 -3.01615 0
M  V30 1445 C 134.475 -3.11209 -4.30491 0
M  V30 1446 C 133.514 -4.33055 -4.32585 0
M  V30 1447 N 132.651 -4.32652 -5.52952 0
M  V30 1448 H 137.491 -2.64207 -1.37836 0
M  V30 1449 H 135.028 -1.30959 -0.669937 0
M  V30 1450 H 136.986 -1.86314 -3.73287 0
M  V30 1451 H 135.616 -0.916685 -3.0951 0
M  V30 1452 H 134.668 -3.14203 -2.1443 0
M  V30 1453 H 135.98 -3.99233 -2.99022 0
M  V30 1454 H 135.134 -3.14494 -5.18824 0
M  V30 1455 H 133.873 -2.19106 -4.35711 0
M  V30 1456 H 132.878 -4.29969 -3.42647 0
M  V30 1457 H 134.103 -5.264 -4.29046 0
M  V30 1458 H 132.049 -3.43409 -5.58933 0
M  V30 1459 H 131.966 -5.16392 -5.52155 0
M  V30 1460 H 133.234 -4.40101 -6.43375 0
M  V30 1461 N 137.463 0.71206 -1.40597 0
M  V30 1462 C 138.41 1.82613 -1.41142 0
M  V30 1463 C 139.38 1.63925 -0.267903 0
M  V30 1464 O 140.565 1.85009 -0.466495 0
M  V30 1465 C 137.705 3.20354 -1.28324 0
M  V30 1466 C 136.818 3.50589 -2.52411 0
M  V30 1467 C 135.953 4.77855 -2.32009 0
M  V30 1468 C 134.992 5.01005 -3.51654 0
M  V30 1469 N 134.129 6.19487 -3.30425 0
M  V30 1470 H 138.969 1.81482 -2.36365 0
M  V30 1471 H 136.506 0.886475 -1.17388 0
M  V30 1472 H 138.464 3.99899 -1.18899 0
M  V30 1473 H 137.094 3.20705 -0.367189 0
M  V30 1474 H 136.146 2.65573 -2.72351 0
M  V30 1475 H 137.458 3.63604 -3.41458 0
M  V30 1476 H 136.612 5.65424 -2.19956 0
M  V30 1477 H 135.351 4.67056 -1.40392 0
M  V30 1478 H 134.356 4.1189 -3.64179 0
M  V30 1479 H 135.581 5.13674 -4.44202 0
M  V30 1480 H 133.527 6.09932 -2.41494 0
M  V30 1481 H 133.444 6.33194 -4.13039 0
M  V30 1482 H 134.712 7.09834 -3.22113 0
M  V30 1483 N 138.941 1.26152 0.944643 0
M  V30 1484 C 139.871 1.09902 2.06019 0
M  V30 1485 C 140.852 0.00519538 1.70099 0
M  V30 1486 O 142.037 0.176583 1.93396 0
M  V30 1487 C 139.167 0.727562 3.39594 0
M  V30 1488 C 138.121 1.77274 3.89561 0
M  V30 1489 C 137.447 1.25569 5.19747 0
M  V30 1490 C 138.747 3.17357 4.14827 0
M  V30 1491 H 140.441 2.03217 2.19871 0
M  V30 1492 H 137.987 0.978452 1.05652 0
M  V30 1493 H 139.94 0.600777 4.17095 0
M  V30 1494 H 138.664 -0.241287 3.25707 0
M  V30 1495 H 137.323 1.88814 3.14237 0
M  V30 1496 H 136.971 0.276783 5.02238 0
M  V30 1497 H 136.671 1.95433 5.54148 0
M  V30 1498 H 138.195 1.1415 5.99835 0
M  V30 1499 H 139.609 3.08914 4.82954 0
M  V30 1500 H 138.006 3.84781 4.60504 0
M  V30 1501 H 139.076 3.63673 3.20734 0
M  V30 1502 N 140.419 -1.14872 1.07899 0
M  V30 1503 C 141.644 -1.90202 0.826926 0
M  V30 1504 C 142.069 -1.77774 -0.614664 0
M  V30 1505 O 141.427 -1.11431 -1.43013 0
M  V30 1506 C 141.475 -3.38352 1.24702 0
M  V30 1507 O 140.579 -4.10497 0.39575 0
M  V30 1508 H 139.92 -0.591968 0.300782 0
M  V30 1509 H 142.45 -1.45437 1.43907 0
M  V30 1510 H 142.46 -3.89156 1.22563 0
M  V30 1511 H 141.135 -3.46715 2.29698 0
M  V30 1512 H 139.712 -3.69796 0.480117 0
M  V30 1513 N 141.898 -0.863906 -1.31812 0
M  V30 1514 C 143.314 -0.555004 -1.49639 0
M  V30 1515 C 143.514 0.912266 -1.79666 0
M  V30 1516 O 142.57 1.69479 -1.87171 0
M  V30 1517 C 143.883 -1.44998 -2.63431 0
M  V30 1518 C 145.431 -1.45138 -2.77316 0
M  V30 1519 C 145.906 -2.33179 -3.94197 0
M  V30 1520 N 147.397 -2.31025 -4.01474 0
M  V30 1521 C 148.132 -2.95871 -4.9117 0
M  V30 1522 N 147.628 -3.69863 -5.8581 0
M  V30 1523 N 149.421 -2.85211 -4.84367 0
M  V30 1524 H 141.572 -1.81339 -1.10589 0
M  V30 1525 H 143.835 -0.77505 -0.545895 0
M  V30 1526 H 143.541 -2.49377 -2.48 0
M  V30 1527 H 143.415 -1.14409 -3.59431 0
M  V30 1528 H 145.802 -0.415201 -2.92164 0
M  V30 1529 H 145.883 -1.79747 -1.82001 0
M  V30 1530 H 145.527 -3.3687 -3.80107 0
M  V30 1531 H 145.457 -1.95897 -4.88807 0
M  V30 1532 H 147.948 -1.77238 -3.33759 0
M  V30 1533 H 148.261 -4.16486 -6.50968 0
M  V30 1534 H 146.606 -3.73971 -5.85808 0
M  V30 1535 H 149.797 -2.26948 -4.09405 0
M  V30 1536 H 149.97 -3.36027 -5.54066 0
M  V30 1537 N 143.376 1.44774 -0.622745 0
M  V30 1538 C 144.787 1.85546 -0.207226 0
M  V30 1539 C 145.138 1.52093 1.23944 0
M  V30 1540 O 144.263 0.95492 1.94191 0
M  V30 1541 C 144.858 3.36781 -0.369313 0
M  V30 1542 C 143.417 3.76399 -0.00836847 0
M  V30 1543 C 142.564 2.68664 -0.686651 0
M  V30 1544 H 145.515 1.3536 -0.828454 0
M  V30 1545 H 145.536 3.78453 0.394162 0
M  V30 1546 H 145.048 3.61098 -1.42231 0
M  V30 1547 H 143.149 3.57698 1.04322 0
M  V30 1548 H 143.262 4.7732 -0.412584 0
M  V30 1549 H 141.626 2.54404 -0.122777 0
M  V30 1550 H 142.409 2.95815 -1.74208 0
M  V30 1551 N 144.854 0.36279 1.53368 0
M  V30 1552 C 146.101 -0.227776 2.01215 0
M  V30 1553 C 146.429 -1.49003 1.25014 0
M  V30 1554 O 145.684 -1.92876 0.331236 0
M  V30 1555 C 145.983 -0.568417 3.52851 0
M  V30 1556 C 145.649 0.59918 4.46901 0
M  V30 1557 C 144.311 0.919559 4.72332 0
M  V30 1558 C 146.663 1.38156 5.02556 0
M  V30 1559 C 143.991 2.02434 5.5067 0
M  V30 1560 C 146.343 2.47674 5.821 0
M  V30 1561 C 145.007 2.8025 6.05819 0
M  V30 1562 H 144.277 -0.083349 0.736297 0
M  V30 1563 H 146.924 0.494677 1.85001 0
M  V30 1564 H 145.229 -1.37185 3.66998 0
M  V30 1565 H 146.926 -1.03756 3.87344 0
M  V30 1566 H 143.516 0.339437 4.27254 0
M  V30 1567 H 147.7 1.14729 4.82857 0
M  V30 1568 H 142.956 2.28075 5.67267 0
M  V30 1569 H 147.13 3.08716 6.24234 0
M  V30 1570 H 144.757 3.65979 6.66306 0
M  V30 1571 N 146.332 -1.57332 0.0918853 0
M  V30 1572 C 147.264 -2.10869 -0.898168 0
M  V30 1573 C 148.277 -1.04521 -1.24817 0
M  V30 1574 O 149.466 -1.31977 -1.20184 0
M  V30 1575 C 146.566 -2.57083 -2.2082 0
M  V30 1576 C 145.739 -3.87229 -2.03402 0
M  V30 1577 C 144.798 -4.19324 -3.17889 0
M  V30 1578 O 143.824 -4.88598 -2.91994 0
M  V30 1579 N 145.026 -3.74471 -4.43567 0
M  V30 1580 H 147.791 -2.96439 -0.440943 0
M  V30 1581 H 145.352 -1.61631 -0.0933064 0
M  V30 1582 H 147.344 -2.75602 -2.96354 0
M  V30 1583 H 145.914 -1.76541 -2.57977 0
M  V30 1584 H 145.134 -3.7789 -1.12218 0
M  V30 1585 H 146.422 -4.72379 -1.89038 0
M  V30 1586 H 145.82 -3.18546 -4.67488 0
M  V30 1587 H 144.377 -3.98151 -5.16061 0
M  V30 1588 N 147.81 0.181792 -1.56548 0
M  V30 1589 C 148.758 1.24461 -1.965 0
M  V30 1590 C 149.752 1.464 -0.852261 0
M  V30 1591 O 150.958 1.47103 -1.03733 0
M  V30 1592 H 147.333 0.418138 -0.625031 0
M  V30 1593 H 149.304 0.880714 -2.85107 0
M  V30 1594 C 148.053 2.57891 -2.33212 0
M  V30 1595 H 147.376 2.41829 -3.18369 0
M  V30 1596 H 148.816 3.3097 -2.65019 0
M  V30 1597 C 147.275 3.15871 -1.17163 0
M  V30 1598 O 147.805 3.9913 -0.453708 0
M  V30 1599 N 146.011 2.74808 -0.944936 0
M  V30 1600 H 145.558 2.07205 -1.53049 0
M  V30 1601 H 145.516 3.13939 -0.170286 0
M  V30 1602 N 149.288 1.51039 0.449983 0
M  V30 1603 C 150.22 1.67617 1.56324 0
M  V30 1604 C 151.233 0.557083 1.52972 0
M  V30 1605 O 152.422 0.830989 1.57977 0
M  V30 1606 C 149.522 1.66402 2.95235 0
M  V30 1607 C 148.695 2.9469 3.23229 0
M  V30 1608 C 147.754 2.85832 4.41799 0
M  V30 1609 O 146.78 3.59785 4.41071 0
M  V30 1610 N 147.982 2.00821 5.44657 0
M  V30 1611 H 150.747 2.63648 1.42512 0
M  V30 1612 H 148.308 1.48767 0.638737 0
M  V30 1613 H 150.3 1.58062 3.72557 0
M  V30 1614 H 148.87 0.780182 3.02708 0
M  V30 1615 H 148.09 3.16996 2.34323 0
M  V30 1616 H 149.378 3.79636 3.38754 0
M  V30 1617 H 148.776 1.40091 5.48079 0
M  V30 1618 H 147.333 1.98368 6.20881 0
M  V30 1619 N 150.766 -0.704594 1.40972 0
M  V30 1620 C 151.994 -1.49354 1.43182 0
M  V30 1621 C 152.409 -1.88768 0.0345508 0
M  V30 1622 O 151.766 -1.56184 -0.944081 0
M  V30 1623 C 151.817 -2.76187 2.33244 0
M  V30 1624 O 151.538 -2.38436 3.67532 0
M  V30 1625 C 153.039 -3.7 2.44162 0
M  V30 1626 H 150.259 -0.460559 0.487982 0
M  V30 1627 H 152.803 -0.868261 1.85153 0
M  V30 1628 H 150.958 -3.34974 1.94606 0
M  V30 1629 H 151.372 -3.20126 4.15475 0
M  V30 1630 H 152.846 -4.55803 3.11364 0
M  V30 1631 H 153.323 -4.13867 1.47006 0
M  V30 1632 H 153.929 -3.17121 2.83398 0
M  V30 1633 N 152.244 -1.26651 -0.937939 0
M  V30 1634 C 153.194 -1.05156 -2.02302 0
M  V30 1635 C 154.178 0.0171233 -1.60891 0
M  V30 1636 O 155.37 -0.200213 -1.75864 0
M  V30 1637 C 152.499 -0.689962 -3.36295 0
M  V30 1638 C 151.585 -1.79626 -3.84181 0
M  V30 1639 N 151.976 -3.03422 -4.04684 0
M  V30 1640 C 150.274 -1.6806 -4.13124 0
M  V30 1641 C 150.975 -3.75345 -4.444 0
M  V30 1642 N 149.951 -3.03051 -4.51288 0
M  V30 1643 H 153.753 -1.99117 -2.1617 0
M  V30 1644 H 151.267 -1.17216 -1.12402 0
M  V30 1645 H 153.264 -0.517112 -4.13681 0
M  V30 1646 H 151.924 0.242139 -3.23796 0
M  V30 1647 H 152.935 -3.39293 -3.91281 0
M  V30 1648 H 149.612 -0.818629 -4.09396 0
M  V30 1649 H 151.002 -4.81691 -4.68427 0
M  V30 1650 N 153.722 1.14298 -1.08507 0
M  V30 1651 C 154.685 2.17607 -0.719711 0
M  V30 1652 C 155.685 1.58907 0.245997 0
M  V30 1653 O 156.875 1.74181 0.0254081 0
M  V30 1654 C 154.007 3.40842 -0.0627695 0
M  V30 1655 H 155.2 2.51443 -1.63452 0
M  V30 1656 H 152.753 1.28963 -0.88307 0
M  V30 1657 H 153.488 3.12587 0.863716 0
M  V30 1658 H 153.273 3.84713 -0.757504 0
M  V30 1659 H 154.763 4.17221 0.177786 0
M  V30 1660 N 155.201 0.870884 1.31352 0
M  V30 1661 C 156.148 0.325425 2.28494 0
M  V30 1662 C 157.118 -0.576615 1.5577 0
M  V30 1663 O 158.303 -0.508059 1.83911 0
M  V30 1664 C 155.443 -0.466283 3.41935 0
M  V30 1665 C 154.556 0.463378 4.29508 0
M  V30 1666 C 153.691 -0.342544 5.30094 0
M  V30 1667 C 152.73 0.583486 6.09313 0
M  V30 1668 N 151.867 -0.186244 7.01853 0
M  V30 1669 H 156.707 1.15901 2.74538 0
M  V30 1670 H 154.244 0.58294 1.35056 0
M  V30 1671 H 156.202 -0.941085 4.06447 0
M  V30 1672 H 154.832 -1.26456 2.97 0
M  V30 1673 H 153.884 1.05663 3.65431 0
M  V30 1674 H 155.196 1.1734 4.84802 0
M  V30 1675 H 154.35 -0.879816 6.00287 0
M  V30 1676 H 153.089 -1.08585 4.75458 0
M  V30 1677 H 152.094 1.13251 5.3801 0
M  V30 1678 H 153.319 1.32566 6.66035 0
M  V30 1679 H 151.265 -0.912348 6.49625 0
M  V30 1680 H 151.182 0.464422 7.54572 0
M  V30 1681 H 152.45 -0.704716 7.76308 0
M  V30 1682 N 156.679 -1.44442 0.630414 0
M  V30 1683 C 158.095 -1.56832 0.295973 0
M  V30 1684 C 158.295 -1.61806 -1.20088 0
M  V30 1685 O 157.351 -1.5607 -1.9849 0
M  V30 1686 C 158.664 -2.84031 0.987264 0
M  V30 1687 C 160.212 -2.97742 0.96534 0
M  V30 1688 C 160.687 -4.27743 1.63708 0
M  V30 1689 N 162.178 -4.34555 1.60364 0
M  V30 1690 C 162.913 -5.33862 2.09234 0
M  V30 1691 N 162.409 -6.39578 2.66292 0
M  V30 1692 N 164.202 -5.25366 1.99867 0
M  V30 1693 H 156.353 -1.39457 1.60205 0
M  V30 1694 H 158.616 -0.668237 0.672431 0
M  V30 1695 H 158.322 -2.86338 2.04215 0
M  V30 1696 H 158.196 -3.73534 0.524588 0
M  V30 1697 H 160.583 -2.94989 -0.0810639 0
M  V30 1698 H 160.664 -2.09589 1.4665 0
M  V30 1699 H 160.308 -4.31255 2.68293 0
M  V30 1700 H 160.238 -5.14752 1.11076 0
M  V30 1701 H 162.729 -3.58772 1.18705 0
M  V30 1702 H 163.042 -7.11637 3.01317 0
M  V30 1703 H 161.387 -6.40265 2.70343 0
M  V30 1704 H 164.578 -4.41688 1.55013 0
M  V30 1705 H 164.751 -6.02606 2.38265 0
M  V30 1706 N 158.157 -0.370918 -1.53173 0
M  V30 1707 C 159.12 0.460778 -2.24521 0
M  V30 1708 C 160.12 1.00536 -1.25496 0
M  V30 1709 O 161.31 0.890266 -1.49733 0
M  V30 1710 C 158.442 1.64457 -2.98608 0
M  V30 1711 H 159.635 -0.163613 -2.99453 0
M  V30 1712 H 157.188 -0.122699 -1.55818 0
M  V30 1713 H 157.923 2.30691 -2.2793 0
M  V30 1714 H 157.708 1.26099 -3.7127 0
M  V30 1715 H 159.198 2.23384 -3.5283 0
M  V30 1716 N 159.635 1.57281 -0.100228 0
M  V30 1717 C 160.865 1.98591 0.569681 0
M  V30 1718 C 161.273 0.978315 1.61943 0
M  V30 1719 O 160.616 -0.0396108 1.83657 0
M  V30 1720 C 160.678 3.36282 1.271 0
M  V30 1721 C 160.342 4.55488 0.371409 0
M  V30 1722 C 161.339 5.18491 -0.382504 0
M  V30 1723 C 159.024 5.01474 0.287965 0
M  V30 1724 C 161.018 6.25852 -1.20779 0
M  V30 1725 C 158.705 6.08701 -0.540965 0
M  V30 1726 C 159.703 6.70755 -1.28749 0
M  V30 1727 O 159.391 7.75914 -2.10269 0
M  V30 1728 H 159.123 0.65752 0.156982 0
M  V30 1729 H 161.677 2.0463 -0.177734 0
M  V30 1730 H 159.907 3.26941 2.0651 0
M  V30 1731 H 161.596 3.62005 1.83595 0
M  V30 1732 H 162.362 4.83891 -0.3278 0
M  V30 1733 H 158.241 4.52932 0.858689 0
M  V30 1734 H 161.785 6.74218 -1.79096 0
M  V30 1735 H 157.682 6.42732 -0.597131 0
M  V30 1736 H 158.45 7.92925 -2.03007 0
M  V30 1737 N 161.113 -0.173488 1.56642 0
M  V30 1738 C 162.529 -0.525174 1.50712 0
M  V30 1739 C 162.729 -1.8476 0.804107 0
M  V30 1740 O 161.785 -2.49869 0.363574 0
M  V30 1741 C 163.098 -0.559937 2.95441 0
M  V30 1742 C 164.646 -0.647288 3.06234 0
M  V30 1743 C 165.121 -0.712963 4.52417 0
M  V30 1744 N 166.612 -0.775911 4.56655 0
M  V30 1745 C 167.347 -0.847264 5.67106 0
M  V30 1746 N 166.843 -0.879585 6.87194 0
M  V30 1747 N 168.636 -0.886117 5.55071 0
M  V30 1748 H 160.787 0.693681 2.00753 0
M  V30 1749 H 163.05 0.249841 0.914485 0
M  V30 1750 H 162.756 0.343049 3.50023 0
M  V30 1751 H 162.63 -1.40718 3.49969 0
M  V30 1752 H 165.017 -1.5407 2.51687 0
M  V30 1753 H 165.098 0.226586 2.54794 0
M  V30 1754 H 164.742 0.176183 5.07594 0
M  V30 1755 H 164.672 -1.60295 5.0161 0
M  V30 1756 H 167.163 -0.759304 3.70193 0
M  V30 1757 H 167.476 -0.935144 7.67121 0
M  V30 1758 H 165.821 -0.847898 6.89808 0
M  V30 1759 H 169.012 -0.857853 4.60172 0
M  V30 1760 H 169.185 -0.938263 6.41171 0
M  V30 1761 N 162.591 -1.51276 -0.441967 0
M  V30 1762 C 163.501 -1.75092 -1.56141 0
M  V30 1763 C 164.517 -0.634963 -1.62001 0
M  V30 1764 O 165.693 -0.916686 -1.79329 0
M  V30 1765 C 162.758 -1.86666 -2.92158 0
M  V30 1766 C 161.819 -3.10506 -2.96453 0
M  V30 1767 C 161.052 -3.21519 -4.25982 0
M  V30 1768 O 161.275 -2.38586 -5.18105 0
M  V30 1769 O 160.209 -4.14465 -4.36466 0
M  V30 1770 H 164.035 -2.70044 -1.38961 0
M  V30 1771 H 161.62 -1.35722 -0.624499 0
M  V30 1772 H 163.502 -1.96292 -3.72891 0
M  V30 1773 H 162.177 -0.949014 -3.09476 0
M  V30 1774 H 161.084 -3.06363 -2.14692 0
M  V30 1775 H 162.417 -4.01945 -2.84079 0
M  V30 1776 N 164.069 0.697108 -1.41344 0
M  V30 1777 C 164.999 1.82353 -1.45841 0
M  V30 1778 C 165.98 1.67115 -0.317247 0
M  V30 1779 O 167.165 1.86871 -0.528474 0
M  V30 1780 C 164.295 3.20476 -1.33838 0
M  V30 1781 C 163.249 3.50415 -2.4575 0
M  V30 1782 C 162.575 4.87878 -2.18813 0
M  V30 1783 C 163.875 3.49546 -3.88091 0
M  V30 1784 H 165.569 1.78846 -2.40113 0
M  V30 1785 H 163.115 0.859028 -1.15571 0
M  V30 1786 H 165.068 3.98988 -1.35596 0
M  V30 1787 H 163.792 3.24604 -0.360498 0
M  V30 1788 H 162.451 2.74253 -2.43271 0
M  V30 1789 H 162.099 4.8863 -1.19371 0
M  V30 1790 H 161.799 5.08875 -2.93803 0
M  V30 1791 H 163.323 5.68702 -2.22284 0
M  V30 1792 H 164.737 4.18066 -3.92293 0
M  V30 1793 H 163.134 3.82075 -4.62751 0
M  V30 1794 H 164.204 2.48552 -4.16353 0
M  V30 1795 N 165.547 1.27147 0.931209 0
M  V30 1796 C 166.793 1.13446 1.68101 0
M  V30 1797 C 167.126 -0.319628 1.91552 0
M  V30 1798 O 166.401 -1.23407 1.50336 0
M  V30 1799 C 166.684 1.91482 3.0497 0
M  V30 1800 C 166.537 3.44855 2.88782 0
M  V30 1801 C 167.856 1.71651 4.05246 0
M  V30 1802 H 164.975 0.413498 0.610072 0
M  V30 1803 H 167.617 1.56261 1.08086 0
M  V30 1804 H 165.767 1.55095 3.56199 0
M  V30 1805 H 167.439 3.9105 2.44698 0
M  V30 1806 H 165.682 3.71373 2.24198 0
M  V30 1807 H 166.353 3.94694 3.85902 0
M  V30 1808 H 168.829 2.0337 3.63015 0
M  V30 1809 H 167.705 2.28651 4.99009 0
M  V30 1810 H 167.966 0.663555 4.37092 0
M  V30 1811 N 167.025 -1.13721 1.09112 0
M  V30 1812 C 167.955 -2.21148 0.749385 0
M  V30 1813 C 168.936 -1.6792 -0.271475 0
M  V30 1814 O 170.121 -1.93693 -0.140251 0
M  V30 1815 C 167.251 -3.46905 0.165659 0
M  V30 1816 C 166.205 -4.13203 1.11567 0
M  V30 1817 C 165.531 -5.33248 0.393809 0
M  V30 1818 C 166.831 -4.60912 2.45678 0
M  V30 1819 H 168.525 -2.4999 1.64758 0
M  V30 1820 H 166.071 -1.20156 0.793626 0
M  V30 1821 H 168.024 -4.21313 -0.085466 0
M  V30 1822 H 166.748 -3.17449 -0.767714 0
M  V30 1823 H 165.407 -3.40758 1.35202 0
M  V30 1824 H 165.055 -5.00054 -0.543599 0
M  V30 1825 H 164.755 -5.78552 1.02721 0
M  V30 1826 H 166.279 -6.10413 0.150908 0
M  V30 1827 H 167.693 -5.26759 2.26269 0
M  V30 1828 H 166.09 -5.16944 3.04776 0
M  V30 1829 H 167.16 -3.75603 3.06677 0
M  V30 1830 N 168.503 -0.877838 -1.30888 0
M  V30 1831 C 169.436 -0.283995 -2.26426 0
M  V30 1832 C 170.414 0.591361 -1.51465 0
M  V30 1833 O 171.598 0.54304 -1.80509 0
M  V30 1834 C 168.725 0.597129 -3.33395 0
M  V30 1835 C 167.771 -0.207937 -4.25993 0
M  V30 1836 S 168.604 -1.59158 -5.11301 0
M  V30 1837 C 169.76 -0.716791 -6.21782 0
M  V30 1838 H 169.993 -1.09383 -2.76446 0
M  V30 1839 H 167.526 -0.676828 -1.38775 0
M  V30 1840 H 169.484 1.09978 -3.95493 0
M  V30 1841 H 168.145 1.38099 -2.82113 0
M  V30 1842 H 167.338 0.464163 -5.01858 0
M  V30 1843 H 166.94 -0.642963 -3.68432 0
M  V30 1844 H 169.232 0.0692833 -6.77465 0
M  V30 1845 H 170.175 -1.44682 -6.93161 0
M  V30 1846 H 170.583 -0.280855 -5.63801 0
M  V30 1847 N 169.982 1.44106 -0.638065 0
M  V30 1848 C 170.929 2.30715 0.062701 0
M  V30 1849 C 171.899 1.43882 0.829883 0
M  V30 1850 O 173.084 1.72775 0.809532 0
M  V30 1851 C 170.224 3.29258 1.03358 0
M  V30 1852 C 169.337 4.31192 0.26409 0
M  V30 1853 C 168.472 5.16825 1.22741 0
M  V30 1854 C 167.511 6.10462 0.447475 0
M  V30 1855 N 166.648 6.8877 1.36161 0
M  V30 1856 H 171.488 2.90096 -0.681781 0
M  V30 1857 H 169.025 1.42925 -0.347988 0
M  V30 1858 H 170.983 3.84886 1.60992 0
M  V30 1859 H 169.613 2.71562 1.74511 0
M  V30 1860 H 168.665 3.77981 -0.428295 0
M  V30 1861 H 169.977 4.97619 -0.343052 0
M  V30 1862 H 169.131 5.77004 1.87487 0
M  V30 1863 H 167.87 4.50488 1.86847 0
M  V30 1864 H 166.875 5.49386 -0.213433 0
M  V30 1865 H 168.1 6.78837 -0.188968 0
M  V30 1866 H 166.046 6.25096 1.98975 0
M  V30 1867 H 165.963 7.51663 0.808656 0
M  V30 1868 H 167.231 7.53467 1.99769 0
M  V30 1869 N 171.46 0.379036 1.52974 0
M  V30 1870 C 172.7 -0.206325 2.03356 0
M  V30 1871 C 173.064 -1.44892 1.25977 0
M  V30 1872 O 174.265 -2.11078 1.66432 0
M  V30 1873 C 172.536 -0.477887 3.54191 0
M  V30 1874 S 174.095 -1.035 4.26419 0
M  V30 1875 H 170.913 -0.0590259 0.708546 0
M  V30 1876 H 173.515 0.525013 1.88319 0
M  V30 1877 H 172.219 0.433745 4.08101 0
M  V30 1878 H 171.75 -1.23793 3.73415 0
M  V30 1879 H 173.765 -2.31821 4.38718 0
M  V30 1880 N 172.938 -1.57226 0.108567 0
M  V30 1881 C 174.184 -1.95121 -0.552761 0
M  V30 1882 C 174.517 -0.991345 -1.66991 0
M  V30 1883 O 173.792 -0.0267211 -1.94482 0
M  V30 1884 C 174.075 -3.43039 -1.09528 0
M  V30 1885 C 173.928 -4.49797 0.0177332 0
M  V30 1886 C 175.247 -3.92567 -1.98945 0
M  V30 1887 H 172.366 -0.709496 -0.199461 0
M  V30 1888 H 175.008 -1.89126 0.182011 0
M  V30 1889 H 173.158 -3.48279 -1.72146 0
M  V30 1890 H 174.83 -4.56661 0.652584 0
M  V30 1891 H 173.073 -4.284 0.682309 0
M  V30 1892 H 173.744 -5.50528 -0.402919 0
M  V30 1893 H 176.22 -3.89565 -1.46214 0
M  V30 1894 H 175.096 -4.96605 -2.33827 0
M  V30 1895 H 175.357 -3.32648 -2.91201 0
M  V30 1896 N 174.416 0.165178 -1.56732 0
M  V30 1897 C 175.364 1.22369 -1.97809 0
M  V30 1898 C 176.358 1.45488 -0.867741 0
M  V30 1899 O 177.564 1.45995 -1.05288 0
M  V30 1900 H 173.939 0.411486 -0.629431 0
M  V30 1901 H 175.91 0.850425 -2.86025 0
M  V30 1902 C 174.659 2.55403 -2.35934 0
M  V30 1903 H 173.982 2.38438 -3.20916 0
M  V30 1904 H 175.422 3.2814 -2.68514 0
M  V30 1905 C 173.881 3.14611 -1.20506 0
M  V30 1906 O 174.411 3.98626 -0.496016 0
M  V30 1907 N 172.617 2.7379 -0.97403 0
M  V30 1908 H 172.164 2.0557 -1.55238 0
M  V30 1909 H 172.122 3.1374 -0.203573 0
M  V30 1910 N 175.894 1.51508 0.433938 0
M  V30 1911 C 176.844 1.69451 1.52546 0
M  V30 1912 C 177.828 0.548474 1.51263 0
M  V30 1913 O 179.02 0.804529 1.57659 0
M  V30 1914 C 176.149 1.82604 2.90707 0
M  V30 1915 C 175.235 3.03002 2.96733 0
M  V30 1916 N 175.626 4.26121 2.72496 0
M  V30 1917 C 173.924 3.02327 3.27894 0
M  V30 1918 C 174.625 5.07407 2.84452 0
M  V30 1919 N 173.601 4.42126 3.16269 0
M  V30 1920 H 177.403 2.62305 1.32564 0
M  V30 1921 H 174.917 1.49202 0.641297 0
M  V30 1922 H 176.914 1.93569 3.69238 0
M  V30 1923 H 175.574 0.909339 3.11707 0
M  V30 1924 H 176.585 4.55009 2.4736 0
M  V30 1925 H 173.262 2.20301 3.54646 0
M  V30 1926 H 174.652 6.15422 2.69639 0
M  V30 1927 N 177.372 -0.689602 1.41712 0
M  V30 1928 C 178.319 -1.80345 1.44029 0
M  V30 1929 C 179.289 -1.63478 0.293948 0
M  V30 1930 O 180.474 -1.84244 0.495869 0
M  V30 1931 C 177.614 -3.18272 1.33405 0
M  V30 1932 C 176.727 -3.46529 2.57956 0
M  V30 1933 C 175.862 -4.74103 2.39582 0
M  V30 1934 C 174.901 -4.95347 3.5958 0
M  V30 1935 N 174.038 -6.14151 3.40239 0
M  V30 1936 H 178.878 -1.77698 2.39222 0
M  V30 1937 H 176.415 -0.867688 1.18784 0
M  V30 1938 H 178.373 -3.97956 1.25246 0
M  V30 1939 H 177.003 -3.2008 0.418164 0
M  V30 1940 H 176.055 -2.61207 2.76542 0
M  V30 1941 H 177.367 -3.58126 3.47199 0
M  V30 1942 H 176.521 -5.61853 2.28924 0
M  V30 1943 H 175.26 -4.64763 1.47805 0
M  V30 1944 H 174.265 -4.06044 3.70686 0
M  V30 1945 H 175.49 -5.06542 4.52318 0
M  V30 1946 H 173.436 -6.06013 2.51167 0
M  V30 1947 H 173.353 -6.26543 4.23061 0
M  V30 1948 H 174.621 -7.04619 3.33365 0
M  V30 1949 N 178.85 -1.27639 -0.924453 0
M  V30 1950 C 179.798 -1.10485 -2.04685 0
M  V30 1951 C 180.792 -0.0270421 -1.69378 0
M  V30 1952 O 181.998 -0.185008 -1.79047 0
M  V30 1953 H 178.373 -0.340546 -0.670472 0
M  V30 1954 H 180.344 -2.05566 -2.16298 0
M  V30 1955 C 179.093 -0.772229 -3.39016 0
M  V30 1956 H 178.416 -1.59351 -3.66671 0
M  V30 1957 H 179.856 -0.692097 -4.18313 0
M  V30 1958 C 178.315 0.523554 -3.32807 0
M  V30 1959 O 178.845 1.55702 -3.70297 0
M  V30 1960 N 177.051 0.520363 -2.85903 0
M  V30 1961 H 176.598 -0.32107 -2.55591 0
M  V30 1962 H 176.556 1.38742 -2.82131 0
M  V30 1963 N 180.328 1.1314 -1.09713 0
M  V30 1964 C 181.577 1.83838 -0.829851 0
M  V30 1965 C 181.89 1.84599 0.646728 0
M  V30 1966 O 183.096 2.51218 1.02965 0
M  V30 1967 C 181.552 3.30069 -1.43466 0
M  V30 1968 C 181.16 3.37688 -2.94399 0
M  V30 1969 C 182.904 4.05788 -1.24645 0
M  V30 1970 C 180.811 4.78209 -3.47952 0
M  V30 1971 H 179.741 0.68877 -0.306777 0
M  V30 1972 H 182.392 1.27448 -1.3202 0
M  V30 1973 H 180.774 3.8628 -0.871996 0
M  V30 1974 H 181.948 2.91456 -3.56918 0
M  V30 1975 H 180.263 2.75436 -3.12289 0
M  V30 1976 H 182.86 5.09535 -1.62107 0
M  V30 1977 H 183.203 4.15878 -0.187357 0
M  V30 1978 H 183.736 3.55915 -1.77678 0
M  V30 1979 H 180.475 4.73311 -4.53495 0
M  V30 1980 H 179.995 5.24924 -2.90198 0
M  V30 1981 H 181.674 5.47133 -3.45332 0
M  V30 1982 N 181.806 0.884767 1.30421 0
M  V30 1983 C 183.055 0.499164 1.95426 0
M  V30 1984 C 183.368 -0.95645 1.70621 0
M  V30 1985 O 184.574 -1.44889 2.29607 0
M  V30 1986 C 183.03 0.84177 3.49917 0
M  V30 1987 C 182.638 2.31514 3.83543 0
M  V30 1988 C 184.382 0.525355 4.21237 0
M  V30 1989 C 182.289 2.59939 5.31212 0
M  V30 1990 H 181.219 0.182944 0.73147 0
M  V30 1991 H 183.87 1.07971 1.48373 0
M  V30 1992 H 182.252 0.190311 3.95542 0
M  V30 1993 H 183.426 3.0109 3.48829 0
M  V30 1994 H 181.741 2.59907 3.25326 0
M  V30 1995 H 184.338 0.714762 5.29901 0
M  V30 1996 H 184.681 -0.535222 4.12845 0
M  V30 1997 H 185.214 1.134 3.81294 0
M  V30 1998 H 181.953 3.64736 5.44654 0
M  V30 1999 H 181.473 1.94972 5.67227 0
M  V30 2000 H 183.152 2.45429 5.98643 0
M  V30 2001 N 183.284 -1.43765 0.645699 0
M  V30 2002 C 184.509 -2.06767 0.161883 0
M  V30 2003 C 184.934 -1.48034 -1.16049 0
M  V30 2004 O 184.292 -0.587369 -1.71522 0
M  V30 2005 C 184.34 -3.60519 0.0762003 0
M  V30 2006 O 183.444 -4.00982 -0.963721 0
M  V30 2007 H 182.785 -0.657675 0.091429 0
M  V30 2008 H 185.315 -1.84397 0.886499 0
M  V30 2009 H 185.325 -4.07853 -0.109604 0
M  V30 2010 H 184 -4.02646 1.04157 0
M  V30 2011 H 182.577 -3.65253 -0.751312 0
M  V30 2012 N 184.763 -0.387143 -1.52771 0
M  V30 2013 C 185.693 0.440551 -2.29306 0
M  V30 2014 C 186.674 1.06535 -1.32606 0
M  V30 2015 O 187.859 1.07853 -1.61497 0
M  V30 2016 C 184.989 1.56919 -3.09829 0
M  V30 2017 C 183.943 1.07054 -4.14395 0
M  V30 2018 C 183.269 2.29109 -4.83129 0
M  V30 2019 C 184.569 0.140015 -5.22112 0
M  V30 2020 H 186.263 -0.198026 -2.98744 0
M  V30 2021 H 183.809 -0.09668 -1.43675 0
M  V30 2022 H 185.762 2.15503 -3.62128 0
M  V30 2023 H 184.486 2.23532 -2.3812 0
M  V30 2024 H 183.145 0.507247 -3.63074 0
M  V30 2025 H 182.793 2.94227 -4.0797 0
M  V30 2026 H 182.493 1.96406 -5.53804 0
M  V30 2027 H 184.017 2.88339 -5.38231 0
M  V30 2028 H 185.431 0.633978 -5.69784 0
M  V30 2029 H 183.828 -0.0971485 -6.00021 0
M  V30 2030 H 184.898 -0.811711 -4.78058 0
M  V30 2031 N 186.241 1.57166 -0.116904 0
M  V30 2032 C 187.171 2.18222 0.830759 0
M  V30 2033 C 188.152 1.12167 1.27877 0
M  V30 2034 O 189.337 1.40394 1.34176 0
M  V30 2035 C 186.467 2.77996 2.08172 0
M  V30 2036 C 185.421 3.89614 1.77157 0
M  V30 2037 C 184.747 4.36187 3.09265 0
M  V30 2038 C 186.047 5.1181 1.04151 0
M  V30 2039 H 187.741 2.97664 0.321992 0
M  V30 2040 H 185.287 1.4318 0.153434 0
M  V30 2041 H 187.24 3.19366 2.74924 0
M  V30 2042 H 185.964 1.9584 2.6137 0
M  V30 2043 H 184.623 3.48816 1.12796 0
M  V30 2044 H 184.271 3.50893 3.60393 0
M  V30 2045 H 183.971 5.11455 2.89288 0
M  V30 2046 H 185.495 4.80207 3.77139 0
M  V30 2047 H 186.909 5.50214 1.61052 0
M  V30 2048 H 185.306 5.92648 0.942762 0
M  V30 2049 H 186.376 4.84892 0.0279022 0
M  V30 2050 N 187.719 -0.156864 1.56817 0
M  V30 2051 C 188.667 -1.21319 1.98455 0
M  V30 2052 C 189.661 -1.45025 0.875444 0
M  V30 2053 O 190.867 -1.45435 1.0606 0
M  V30 2054 H 187.242 -0.408142 0.631605 0
M  V30 2055 H 189.213 -0.835244 2.86472 0
M  V30 2056 C 187.962 -2.54148 2.37285 0
M  V30 2057 H 187.285 -2.36733 3.22176 0
M  V30 2058 H 188.725 -3.26712 2.70251 0
M  V30 2059 C 187.184 -3.13967 1.22173 0
M  V30 2060 O 187.714 -3.98357 0.517149 0
M  V30 2061 N 185.92 -2.7327 0.988536 0
M  V30 2062 H 185.467 -2.04744 1.56326 0
M  V30 2063 H 185.425 -3.13628 0.220209 0
M  V30 2064 N 189.197 -1.51736 -0.425897 0
M  V30 2065 C 190.443 -1.65214 -1.1761 0
M  V30 2066 C 190.776 -0.372778 -1.90589 0
M  V30 2067 O 190.051 0.628139 -1.84078 0
M  V30 2068 C 190.334 -2.86312 -2.18398 0
M  V30 2069 C 190.187 -4.24254 -1.49426 0
M  V30 2070 C 191.506 -3.02925 -3.19256 0
M  V30 2071 H 188.625 -0.601263 -0.426206 0
M  V30 2072 H 191.267 -1.8425 -0.463882 0
M  V30 2073 H 189.417 -2.70213 -2.79137 0
M  V30 2074 H 191.089 -4.52046 -0.919362 0
M  V30 2075 H 189.332 -4.26426 -0.796432 0
M  V30 2076 H 190.003 -5.05001 -2.22885 0
M  V30 2077 H 192.479 -3.1781 -2.68581 0
M  V30 2078 H 191.355 -3.89199 -3.8706 0
M  V30 2079 H 191.616 -2.15497 -3.86023 0
M  V30 2080 N 190.675 0.682077 -1.42076 0
M  V30 2081 C 191.922 1.44215 -1.42156 0
M  V30 2082 C 192.25 1.94468 -0.0354186 0
M  V30 2083 O 191.505 1.70816 0.955002 0
M  V30 2084 C 191.804 2.66036 -2.38662 0
M  V30 2085 C 191.47 2.34366 -3.85206 0
M  V30 2086 C 190.132 2.25439 -4.25124 0
M  V30 2087 C 192.484 2.08513 -4.77673 0
M  V30 2088 C 189.812 1.88775 -5.55501 0
M  V30 2089 C 192.164 1.73354 -6.08384 0
M  V30 2090 C 190.828 1.62933 -6.47309 0
M  V30 2091 H 190.098 0.527718 -0.520187 0
M  V30 2092 H 192.745 0.778387 -1.74967 0
M  V30 2093 H 191.05 3.3741 -1.99152 0
M  V30 2094 H 192.747 3.24205 -2.35991 0
M  V30 2095 H 189.337 2.42213 -3.53597 0
M  V30 2096 H 193.521 2.14346 -4.47626 0
M  V30 2097 H 188.777 1.7927 -5.84527 0
M  V30 2098 H 192.951 1.52373 -6.79526 0
M  V30 2099 H 190.578 1.34292 -7.48244 0
M  V30 2100 N 192.153 1.28127 0.917671 0
M  V30 2101 C 193.381 1.17892 1.70026 0
M  V30 2102 C 193.796 -0.262958 1.8696 0
M  V30 2103 O 193.153 -1.17811 1.3938 0
M  V30 2104 C 193.204 1.86872 3.09453 0
M  V30 2105 O 192.925 3.25428 2.93306 0
M  V30 2106 C 194.426 1.8289 4.03815 0
M  V30 2107 H 191.646 0.40942 0.531617 0
M  V30 2108 H 194.19 1.69181 1.14883 0
M  V30 2109 H 192.345 1.39464 3.61426 0
M  V30 2110 H 192.759 3.59918 3.81523 0
M  V30 2111 H 194.233 2.35751 4.99125 0
M  V30 2112 H 194.71 0.800412 4.31845 0
M  V30 2113 H 195.316 2.29959 3.57769 0
M  V30 2114 N 193.631 -1.12557 1.10312 0
M  V30 2115 C 195.042 -1.65574 0.862678 0
M  V30 2116 C 195.393 -1.86566 -0.607256 0
M  V30 2117 O 194.518 -1.59121 -1.46662 0
M  V30 2118 C 195.113 -3.00776 1.55947 0
M  V30 2119 C 193.672 -3.50748 1.36576 0
M  V30 2120 C 192.819 -2.25797 1.60968 0
M  V30 2121 H 195.77 -0.963552 1.26101 0
M  V30 2122 H 195.791 -3.67185 0.997753 0
M  V30 2123 H 195.303 -2.85465 2.62928 0
M  V30 2124 H 193.404 -3.71245 0.317531 0
M  V30 2125 H 193.517 -4.30289 2.10686 0
M  V30 2126 H 191.881 -2.32841 1.03234 0
M  V30 2127 H 192.664 -2.13043 2.69198 0
M  V30 2128 N 195.109 -0.891671 -1.2995 0
M  V30 2129 C 196.041 -0.320695 -2.26945 0
M  V30 2130 C 197.054 0.528497 -1.53983 0
M  V30 2131 O 198.243 0.346959 -1.75096 0
M  V30 2132 C 195.343 0.562066 -3.34207 0
M  V30 2133 C 194.516 -0.259576 -4.36629 0
M  V30 2134 C 193.575 0.554739 -5.23268 0
M  V30 2135 O 192.601 -0.0249311 -5.69195 0
M  V30 2136 N 193.803 1.8625 -5.4981 0
M  V30 2137 H 196.568 -1.15432 -2.76578 0
M  V30 2138 H 194.129 -0.755336 -1.432 0
M  V30 2139 H 196.121 1.11304 -3.89093 0
M  V30 2140 H 194.691 1.29637 -2.84452 0
M  V30 2141 H 193.911 -0.991986 -3.81514 0
M  V30 2142 H 195.199 -0.822564 -5.02107 0
M  V30 2143 H 194.597 2.35628 -5.14292 0
M  V30 2144 H 193.154 2.36078 -6.07545 0
M  V30 2145 N 196.587 1.43421 -0.653314 0
M  V30 2146 C 197.534 2.30768 0.0382271 0
M  V30 2147 C 198.504 1.44755 0.814576 0
M  V30 2148 O 199.689 1.73624 0.791162 0
M  V30 2149 C 196.829 3.30336 0.998599 0
M  V30 2150 C 195.942 4.31448 0.218342 0
M  V30 2151 C 195.077 5.18098 1.17252 0
M  V30 2152 C 194.116 6.10902 0.382702 0
M  V30 2153 N 193.253 6.90176 1.28848 0
M  V30 2154 H 198.093 2.89357 -0.712511 0
M  V30 2155 H 195.63 1.42548 -0.363128 0
M  V30 2156 H 197.588 3.86572 1.56901 0
M  V30 2157 H 196.218 2.73397 1.71621 0
M  V30 2158 H 195.27 3.77506 -0.46836 0
M  V30 2159 H 196.582 4.97227 -0.395812 0
M  V30 2160 H 195.736 5.7896 1.81356 0
M  V30 2161 H 194.475 4.52444 1.82058 0
M  V30 2162 H 193.48 5.49128 -0.27169 0
M  V30 2163 H 194.705 6.78598 -0.260957 0
M  V30 2164 H 192.651 6.27171 1.92334 0
M  V30 2165 H 192.568 7.52478 0.728887 0
M  V30 2166 H 193.836 7.55543 1.91766 0
M  V30 2167 N 198.065 0.39524 1.52563 0
M  V30 2168 C 199.293 -0.184943 2.06072 0
M  V30 2169 C 199.708 -1.40021 1.26647 0
M  V30 2170 O 199.065 -1.79767 0.314672 0
M  V30 2171 C 199.116 -0.549179 3.57304 0
M  V30 2172 O 198.837 0.617813 4.33722 0
M  V30 2173 C 200.338 -1.18459 4.2718 0
M  V30 2174 H 197.558 -0.0265025 0.670476 0
M  V30 2175 H 200.102 0.562184 1.96621 0
M  V30 2176 H 198.257 -1.2462 3.66809 0
M  V30 2177 H 198.671 0.317091 5.23541 0
M  V30 2178 H 200.145 -1.38976 5.34219 0
M  V30 2179 H 200.622 -2.15368 3.82771 0
M  V30 2180 H 201.228 -0.528163 4.22008 0
M  V30 2181 N 199.544 -1.57102 0.125237 0
M  V30 2182 C 200.474 -2.18659 -0.819174 0
M  V30 2183 C 201.455 -1.12843 -1.27281 0
M  V30 2184 O 202.64 -1.41104 -1.33429 0
M  V30 2185 C 199.77 -2.79096 -2.06695 0
M  V30 2186 C 198.724 -3.90548 -1.75088 0
M  V30 2187 C 198.05 -4.37821 -3.06948 0
M  V30 2188 C 199.35 -5.12356 -1.01435 0
M  V30 2189 H 201.044 -2.9783 -0.306202 0
M  V30 2190 H 198.59 -1.4326 -0.145839 0
M  V30 2191 H 200.543 -3.2082 -2.73226 0
M  V30 2192 H 199.267 -1.97223 -2.60328 0
M  V30 2193 H 197.926 -3.49409 -1.10944 0
M  V30 2194 H 197.574 -3.52799 -3.58527 0
M  V30 2195 H 197.274 -5.12982 -2.86571 0
M  V30 2196 H 198.798 -4.822 -3.74587 0
M  V30 2197 H 200.212 -5.5106 -1.58132 0
M  V30 2198 H 198.609 -5.9314 -0.911319 0
M  V30 2199 H 199.679 -4.849 -0.00218681 0
M  V30 2200 N 201.022 0.148545 -1.56898 0
M  V30 2201 C 201.932 1.20293 -2.01412 0
M  V30 2202 C 202.948 1.47107 -0.929273 0
M  V30 2203 O 204.124 1.58807 -1.23863 0
M  V30 2204 C 201.189 2.51682 -2.38447 0
M  V30 2205 C 200.25 2.32529 -3.60872 0
M  V30 2206 C 199.483 3.57653 -3.96132 0
M  V30 2207 O 199.706 4.63771 -3.32073 0
M  V30 2208 O 198.64 3.50408 -4.89385 0
M  V30 2209 H 202.466 0.855025 -2.91416 0
M  V30 2210 H 200.051 0.357151 -1.45068 0
M  V30 2211 H 201.933 3.29147 -2.63135 0
M  V30 2212 H 200.608 2.86006 -1.51599 0
M  V30 2213 H 199.515 1.53019 -3.41373 0
M  V30 2214 H 200.848 2.03121 -4.48333 0
M  V30 2215 N 202.5 1.5196 0.417844 0
M  V30 2216 C 203.41 1.77554 1.53336 0
M  V30 2217 C 204.426 0.660655 1.6097 0
M  V30 2218 O 205.602 0.945099 1.77848 0
M  V30 2219 C 202.667 1.91291 2.89152 0
M  V30 2220 C 201.728 3.15183 2.91475 0
M  V30 2221 C 200.961 3.28256 4.20813 0
M  V30 2222 O 201.184 2.46798 5.14244 0
M  V30 2223 O 200.118 4.21356 4.29817 0
M  V30 2224 H 203.944 2.7222 1.34647 0
M  V30 2225 H 201.529 1.36698 0.602828 0
M  V30 2226 H 203.411 2.02199 3.69721 0
M  V30 2227 H 202.086 0.998129 3.07927 0
M  V30 2228 H 200.993 3.09739 2.09791 0
M  V30 2229 H 202.326 4.06414 2.77648 0
M  V30 2230 N 203.978 -0.674533 1.42435 0
M  V30 2231 C 205.225 -1.43459 1.42919 0
M  V30 2232 C 205.553 -1.94446 0.0457312 0
M  V30 2233 O 204.808 -1.7132 -0.94593 0
M  V30 2234 C 205.107 -2.64767 2.40069 0
M  V30 2235 C 204.773 -2.3232 3.86443 0
M  V30 2236 C 203.435 -2.23182 4.26314 0
M  V30 2237 C 205.787 -2.05977 4.78773 0
M  V30 2238 C 203.115 -1.85827 5.56494 0
M  V30 2239 C 205.467 -1.70125 6.09295 0
M  V30 2240 C 204.131 -1.59498 6.48164 0
M  V30 2241 H 203.401 -0.524952 0.522978 0
M  V30 2242 H 206.048 -0.769097 1.75377 0
M  V30 2243 H 204.353 -3.36349 2.00939 0
M  V30 2244 H 206.05 -3.22949 2.37707 0
M  V30 2245 H 202.64 -2.40334 3.54877 0
M  V30 2246 H 206.824 -2.11969 4.48757 0
M  V30 2247 H 202.08 -1.76168 5.8547 0
M  V30 2248 H 206.254 -1.48767 6.80324 0
M  V30 2249 H 203.881 -1.30322 7.48946 0
M  V30 2250 N 205.456 -1.28612 -0.910864 0
M  V30 2251 C 206.388 -1.08589 -2.01844 0
M  V30 2252 C 207.401 -0.0367419 -1.62759 0
M  V30 2253 O 208.59 -0.280101 -1.76289 0
M  V30 2254 C 205.69 -0.628626 -3.33019 0
M  V30 2255 C 204.863 -1.75382 -4.00699 0
M  V30 2256 C 203.922 -1.28945 -5.10156 0
M  V30 2257 O 202.948 -1.9922 -5.33198 0
M  V30 2258 N 204.15 -0.154224 -5.80295 0
M  V30 2259 H 206.915 -2.03973 -2.19579 0
M  V30 2260 H 204.476 -1.20403 -1.08234 0
M  V30 2261 H 206.468 -0.301508 -4.03575 0
M  V30 2262 H 205.038 0.232451 -3.11735 0
M  V30 2263 H 204.258 -2.25039 -3.23653 0
M  V30 2264 H 205.546 -2.50854 -4.42662 0
M  V30 2265 H 204.944 0.43194 -5.64049 0
M  V30 2266 H 203.501 0.113599 -6.51701 0
M  V30 2267 N 206.934 1.1197 -1.10907 0
M  V30 2268 C 208.211 1.79959 -0.766432 0
M  V30 2269 C 208.591 1.97466 0.746363 0
M  V30 2270 O 207.939 1.55491 1.67436 0
M  V30 2271 C 208.149 3.14009 -1.52314 0
M  V30 2272 C 209.497 3.89134 -1.69883 0
M  V30 2273 O 210.521 3.2368 -1.48692 0
M  V30 2274 O 209.38 5.06572 -2.05054 0
M  V30 2275 H 206.474 0.779208 -0.277062 0
M  V30 2276 H 209.02 1.18762 -1.21217 0
M  V30 2277 H 207.792 2.96587 -2.55249 0
M  V30 2278 H 207.415 3.82915 -1.07059 0
M  V30 2279 N 208.412 0.89855 1.29475 0
M  V30 2280 C 209.658 0.524658 1.95896 0
M  V30 2281 C 209.991 -0.926468 1.70676 0
M  V30 2282 O 209.266 -1.65665 1.01908 0
M  V30 2283 C 209.549 0.81633 3.50725 0
M  V30 2284 C 209.402 2.31907 3.85408 0
M  V30 2285 C 210.721 0.302038 4.39062 0
M  V30 2286 H 207.84 0.19209 0.711527 0
M  V30 2287 H 210.482 1.12502 1.53112 0
M  V30 2288 H 208.632 0.305369 3.87298 0
M  V30 2289 H 210.304 2.89949 3.58786 0
M  V30 2290 H 208.547 2.78027 3.32992 0
M  V30 2291 H 209.218 2.47373 4.93468 0
M  V30 2292 H 211.694 0.739551 4.09475 0
M  V30 2293 H 210.57 0.535331 5.46283 0
M  V30 2294 H 210.831 -0.797216 4.34853 0
M  V30 2295 N 209.89 -1.43072 0.660911 0
M  V30 2296 C 211.12 -2.05769 0.185153 0
M  V30 2297 C 211.528 -1.49668 -1.15742 0
M  V30 2298 O 210.871 -0.625649 -1.72717 0
M  V30 2299 C 210.933 -3.59489 0.0278237 0
M  V30 2300 C 210.597 -4.38212 1.2969 0
M  V30 2301 C 211.594 -4.69772 2.22734 0
M  V30 2302 C 209.279 -4.7809 1.54063 0
M  V30 2303 C 211.273 -5.40129 3.38437 0
M  V30 2304 C 208.96 -5.4819 2.70058 0
M  V30 2305 C 209.958 -5.79132 3.62071 0
M  V30 2306 O 209.646 -6.47798 4.76039 0
M  V30 2307 H 209.378 -0.669873 0.0908086 0
M  V30 2308 H 211.932 -1.84436 0.90402 0
M  V30 2309 H 210.162 -3.79426 -0.746489 0
M  V30 2310 H 211.851 -4.03862 -0.406275 0
M  V30 2311 H 212.617 -4.39476 2.05149 0
M  V30 2312 H 208.496 -4.53408 0.833215 0
M  V30 2313 H 212.04 -5.64198 4.10277 0
M  V30 2314 H 207.937 -5.77902 2.87574 0
M  V30 2315 H 208.705 -6.66283 4.75404 0
M  V30 2316 N 211.368 -0.403325 -1.52352 0
M  V30 2317 C 212.298 0.416205 -2.29761 0
M  V30 2318 C 213.279 1.05123 -1.33728 0
M  V30 2319 O 214.464 1.06134 -1.62632 0
M  V30 2320 C 211.594 1.53624 -3.11475 0
M  V30 2321 C 210.548 1.02653 -4.15507 0
M  V30 2322 C 209.874 2.23971 -4.85532 0
M  V30 2323 C 211.174 0.08463 -5.22231 0
M  V30 2324 H 212.868 -0.229701 -2.98518 0
M  V30 2325 H 210.414 -0.111913 -1.43564 0
M  V30 2326 H 212.367 2.1165 -3.64393 0
M  V30 2327 H 211.091 2.20994 -2.40477 0
M  V30 2328 H 209.75 0.46871 -3.63591 0
M  V30 2329 H 209.398 2.89883 -4.11068 0
M  V30 2330 H 209.098 1.90521 -5.55856 0
M  V30 2331 H 210.622 2.82614 -5.41259 0
M  V30 2332 H 212.036 0.573509 -5.70424 0
M  V30 2333 H 210.433 -0.160783 -5.99885 0
M  V30 2334 H 211.503 -0.86237 -4.7717 0
M  V30 2335 N 212.846 1.57033 -0.133567 0
M  V30 2336 C 214.092 1.95976 0.521649 0
M  V30 2337 C 214.425 1.01779 1.65393 0
M  V30 2338 O 213.7 0.0576581 1.94415 0
M  V30 2339 C 213.983 3.44738 1.04057 0
M  V30 2340 C 213.836 4.49711 -0.0892897 0
M  V30 2341 C 215.155 3.95682 1.92675 0
M  V30 2342 H 212.274 0.712579 0.188149 0
M  V30 2343 H 214.916 1.88813 -0.212076 0
M  V30 2344 H 213.066 3.50973 1.66583 0
M  V30 2345 H 214.738 4.55565 -0.725152 0
M  V30 2346 H 212.981 4.27261 -0.750378 0
M  V30 2347 H 213.652 5.51099 0.315284 0
M  V30 2348 H 216.128 3.91841 1.39998 0
M  V30 2349 H 215.004 5.00262 2.25897 0
M  V30 2350 H 215.265 3.37239 2.85872 0
M  V30 2351 N 214.325 -0.140222 1.56975 0
M  V30 2352 C 215.258 -1.20266 1.93936 0
M  V30 2353 C 216.236 -1.41212 0.806099 0
M  V30 2354 O 217.42 -1.55713 1.06234 0
M  V30 2355 C 214.547 -2.56037 2.21726 0
M  V30 2356 C 213.593 -2.51646 3.44349 0
M  V30 2357 S 214.426 -1.97678 4.97678 0
M  V30 2358 C 215.582 -3.35165 5.28597 0
M  V30 2359 H 215.815 -0.887358 2.83749 0
M  V30 2360 H 213.348 -0.346119 1.50471 0
M  V30 2361 H 215.306 -3.34167 2.38416 0
M  V30 2362 H 213.967 -2.84755 1.32566 0
M  V30 2363 H 213.16 -3.51608 3.61092 0
M  V30 2364 H 212.762 -1.81628 3.26936 0
M  V30 2365 H 215.054 -4.31302 5.2248 0
M  V30 2366 H 215.997 -3.23269 6.30002 0
M  V30 2367 H 216.405 -3.32614 4.56101 0
M  V30 2368 N 215.803 -1.52179 -0.40978 0
M  V30 2369 C 216.713 -1.78364 -1.52392 0
M  V30 2370 C 217.729 -0.669183 -1.60617 0
M  V30 2371 O 218.905 -0.954518 -1.77344 0
M  V30 2372 C 215.97 -1.92822 -2.88133 0
M  V30 2373 C 215.031 -3.16725 -2.898 0
M  V30 2374 C 214.264 -3.30483 -4.19067 0
M  V30 2375 O 214.487 -2.49522 -5.12928 0
M  V30 2376 O 213.421 -4.2363 -4.27576 0
M  V30 2377 H 217.247 -2.72931 -1.33201 0
M  V30 2378 H 214.832 -1.37016 -0.59557 0
M  V30 2379 H 216.714 -2.04157 -3.68643 0
M  V30 2380 H 215.389 -1.01444 -3.07393 0
M  V30 2381 H 214.296 -3.10848 -2.08146 0
M  V30 2382 H 215.629 -4.07881 -2.75489 0
M  V30 2383 N 217.281 0.66697 -1.42791 0
M  V30 2384 C 218.211 1.79218 -1.49677 0
M  V30 2385 C 219.192 1.66405 -0.352623 0
M  V30 2386 O 220.377 1.85708 -0.567993 0
M  V30 2387 C 217.507 3.17565 -1.40605 0
M  V30 2388 C 216.461 3.45124 -2.53127 0
M  V30 2389 C 215.787 4.83127 -2.29112 0
M  V30 2390 C 217.087 3.41236 -3.95418 0
M  V30 2391 H 218.781 1.73713 -2.43853 0
M  V30 2392 H 216.327 0.83432 -1.17367 0
M  V30 2393 H 218.28 3.96022 -1.44029 0
M  V30 2394 H 217.004 3.23767 -0.429271 0
M  V30 2395 H 215.663 2.69031 -2.49034 0
M  V30 2396 H 215.311 4.85988 -1.29709 0
M  V30 2397 H 215.011 5.02528 -3.04531 0
M  V30 2398 H 216.535 5.63859 -2.34297 0
M  V30 2399 H 217.949 4.09651 -4.01073 0
M  V30 2400 H 216.346 3.72173 -4.70752 0
M  V30 2401 H 217.416 2.39665 -4.21532 0
M  V30 2402 N 218.759 1.29093 0.90403 0
M  V30 2403 C 219.692 1.08176 2.00931 0
M  V30 2404 C 220.67 -0.005083 1.62599 0
M  V30 2405 O 221.854 0.144765 1.87943 0
M  V30 2406 C 218.981 0.645897 3.32484 0
M  V30 2407 C 218.027 1.73081 3.89801 0
M  V30 2408 S 218.86 3.32905 4.19446 0
M  V30 2409 C 220.016 2.91176 5.54046 0
M  V30 2410 H 220.249 2.01752 2.18365 0
M  V30 2411 H 217.782 1.13191 1.0501 0
M  V30 2412 H 219.74 0.401131 4.08535 0
M  V30 2413 H 218.401 -0.270188 3.12936 0
M  V30 2414 H 217.594 1.37768 4.84805 0
M  V30 2415 H 217.196 1.92888 3.20422 0
M  V30 2416 H 219.488 2.37952 6.34338 0
M  V30 2417 H 220.431 3.85014 5.94281 0
M  V30 2418 H 220.839 2.296 5.15698 0
M  V30 2419 N 220.237 -1.11381 1.11499 0
M  V30 2420 C 221.514 -1.7955 0.775965 0
M  V30 2421 C 221.894 -1.97859 -0.73588 0
M  V30 2422 O 221.242 -1.56376 -1.66609 0
M  V30 2423 C 221.452 -3.13196 1.53977 0
M  V30 2424 C 222.8 -3.88227 1.71944 0
M  V30 2425 O 223.824 -3.22887 1.50407 0
M  V30 2426 O 222.683 -5.05477 2.07738 0
M  V30 2427 H 219.777 -0.777728 0.28119 0
M  V30 2428 H 222.323 -1.18118 1.21845 0
M  V30 2429 H 221.095 -2.95229 2.56818 0
M  V30 2430 H 220.718 -3.82342 1.09088 0
M  V30 2431 N 221.715 -0.905404 -1.28997 0
M  V30 2432 C 222.678 -0.392253 -2.25819 0
M  V30 2433 C 223.678 0.476753 -1.5357 0
M  V30 2434 O 224.868 0.280994 -1.71919 0
M  V30 2435 C 222 0.438588 -3.38067 0
M  V30 2436 H 223.193 -1.24743 -2.72725 0
M  V30 2437 H 220.746 -0.684051 -1.40536 0
M  V30 2438 H 221.481 1.31352 -2.96508 0
M  V30 2439 H 221.266 -0.184167 -3.91667 0
M  V30 2440 H 222.756 0.78873 -4.10084 0
M  V30 2441 N 223.193 1.4272 -0.668489 0
M  V30 2442 C 224.141 2.32586 0.0254857 0
M  V30 2443 C 225.135 1.49471 0.797176 0
M  V30 2444 O 226.341 1.65583 0.705853 0
M  V30 2445 H 222.716 0.751514 0.0270339 0
M  V30 2446 H 224.687 2.88823 -0.749936 0
M  V30 2447 C 223.436 3.3397 0.967427 0
M  V30 2448 H 222.759 3.97961 0.383048 0
M  V30 2449 H 224.199 3.9945 1.42181 0
M  V30 2450 C 222.658 2.65744 2.0708 0
M  V30 2451 O 223.188 2.48454 3.15648 0
M  V30 2452 N 221.394 2.2487 1.8407 0
M  V30 2453 H 220.941 2.39132 0.95778 0
M  V30 2454 H 220.899 1.79552 2.58086 0
M  V30 2455 N 224.671 0.411399 1.52136 0
M  V30 2456 C 225.601 -0.404015 2.29978 0
M  V30 2457 C 226.582 -1.04412 1.34284 0
M  V30 2458 O 227.767 -1.0527 1.63192 0
M  V30 2459 C 224.897 -1.5197 3.12286 0
M  V30 2460 C 223.851 -1.00448 4.16046 0
M  V30 2461 C 223.177 -2.21393 4.86712 0
M  V30 2462 C 224.477 -0.0569336 5.22269 0
M  V30 2463 H 226.171 0.245529 2.98392 0
M  V30 2464 H 223.717 0.119525 1.43503 0
M  V30 2465 H 225.67 -2.09715 3.6551 0
M  V30 2466 H 224.394 -2.19716 2.41646 0
M  V30 2467 H 223.053 -0.449421 3.63835 0
M  V30 2468 H 222.701 -2.87699 4.12599 0
M  V30 2469 H 222.401 -1.87571 5.56858 0
M  V30 2470 H 223.925 -2.7974 5.4275 0
M  V30 2471 H 225.339 -0.54325 5.7072 0
M  V30 2472 H 223.736 0.192594 5.99791 0
M  V30 2473 H 224.806 0.887663 4.76706 0
M  V30 2474 N 226.149 -1.5696 0.141893 0
M  V30 2475 C 227.389 -1.9785 -0.513304 0
M  V30 2476 C 227.753 -1.02467 -1.62371 0
M  V30 2477 O 228.954 -1.32382 -2.33941 0
M  V30 2478 C 227.225 -3.42797 -1.01118 0
M  V30 2479 S 228.784 -4.05709 -1.67169 0
M  V30 2480 H 225.602 -0.691318 -0.166135 0
M  V30 2481 H 228.204 -1.94114 0.232398 0
M  V30 2482 H 226.908 -4.0995 -0.192179 0
M  V30 2483 H 226.439 -3.50235 -1.79162 0
M  V30 2484 H 228.454 -3.98342 -2.95868 0
M  V30 2485 N 227.627 0.131896 -1.57047 0
M  V30 2486 C 228.559 1.1878 -1.9602 0
M  V30 2487 C 229.572 1.38363 -0.857875 0
M  V30 2488 O 230.761 1.37666 -1.13623 0
M  V30 2489 C 227.861 2.55008 -2.23213 0
M  V30 2490 C 227.034 2.56201 -3.54513 0
M  V30 2491 C 226.093 3.7408 -3.70069 0
M  V30 2492 O 225.119 3.58258 -4.42312 0
M  V30 2493 N 226.321 4.92137 -3.07866 0
M  V30 2494 H 229.086 0.85639 -2.87204 0
M  V30 2495 H 226.647 0.321309 -1.5868 0
M  V30 2496 H 228.639 3.32404 -2.30846 0
M  V30 2497 H 227.209 2.80382 -1.3822 0
M  V30 2498 H 226.429 1.64613 -3.58185 0
M  V30 2499 H 227.717 2.54043 -4.4084 0
M  V30 2500 H 227.115 5.07895 -2.49116 0
M  V30 2501 H 225.672 5.67254 -3.21039 0
M  V30 2502 N 229.106 1.52395 0.401703 0
M  V30 2503 C 230.352 1.67065 1.14966 0
M  V30 2504 C 230.685 0.403052 1.89971 0
M  V30 2505 O 229.96 -0.598774 1.85054 0
M  V30 2506 C 230.243 2.8975 2.13815 0
M  V30 2507 C 230.096 4.26578 1.42658 0
M  V30 2508 C 231.415 3.07965 3.14397 0
M  V30 2509 H 228.534 0.607968 0.416587 0
M  V30 2510 H 231.176 1.84965 0.434511 0
M  V30 2511 H 229.326 2.74619 2.74803 0
M  V30 2512 H 230.998 4.53451 0.847329 0
M  V30 2513 H 229.241 4.27639 0.72849 0
M  V30 2514 H 229.912 5.08483 2.14823 0
M  V30 2515 H 232.388 3.22043 2.63491 0
M  V30 2516 H 231.264 3.95308 3.80819 0
M  V30 2517 H 231.525 2.21611 3.82545 0
M  V30 2518 N 230.584 -0.659388 1.43143 0
M  V30 2519 C 231.833 -1.41518 1.43721 0
M  V30 2520 C 232.146 -1.95499 0.0628176 0
M  V30 2521 O 233.352 -2.71446 -0.0539683 0
M  V30 2522 C 231.808 -2.5608 2.52885 0
M  V30 2523 C 231.416 -2.08733 3.96402 0
M  V30 2524 C 233.16 -3.3349 2.62649 0
M  V30 2525 C 231.067 -3.20469 4.97045 0
M  V30 2526 H 229.997 -0.531705 0.534608 0
M  V30 2527 H 232.648 -0.712343 1.69109 0
M  V30 2528 H 231.03 -3.28805 2.20688 0
M  V30 2529 H 232.204 -1.43059 4.3803 0
M  V30 2530 H 230.519 -1.44219 3.90627 0
M  V30 2531 H 233.116 -4.16734 3.35017 0
M  V30 2532 H 233.459 -3.8111 1.67513 0
M  V30 2533 H 233.992 -2.67842 2.94118 0
M  V30 2534 H 230.731 -2.77824 5.93712 0
M  V30 2535 H 230.251 -3.84874 4.60034 0
M  V30 2536 H 231.93 -3.85698 5.19467 0
M  V30 2537 N 232.062 -1.29571 -0.897171 0
M  V30 2538 C 232.994 -1.10724 -2.00681 0
M  V30 2539 C 234.007 -0.0540026 -1.6271 0
M  V30 2540 O 235.196 -0.298783 -1.75982 0
M  V30 2541 C 232.296 -0.663912 -3.32333 0
M  V30 2542 C 231.469 -1.79622 -3.98816 0
M  V30 2543 C 230.528 -1.34349 -5.0876 0
M  V30 2544 O 229.554 -2.04864 -5.31055 0
M  V30 2545 N 230.756 -0.215764 -5.80099 0
M  V30 2546 H 233.521 -2.06291 -2.17403 0
M  V30 2547 H 231.082 -1.21544 -1.06951 0
M  V30 2548 H 233.074 -0.344295 -4.03233 0
M  V30 2549 H 231.644 0.199375 -3.11964 0
M  V30 2550 H 230.864 -2.28459 -3.21248 0
M  V30 2551 H 232.152 -2.55535 -4.39976 0
M  V30 2552 H 231.55 0.372091 -5.64475 0
M  V30 2553 H 230.107 0.0444707 -6.51785 0
M  V30 2554 N 233.54 1.10788 -1.12088 0
M  V30 2555 C 234.473 2.16237 -0.729168 0
M  V30 2556 C 235.451 1.60207 0.277921 0
M  V30 2557 O 236.635 1.87707 0.172737 0
M  V30 2558 C 233.762 3.38609 -0.0786848 0
M  V30 2559 C 232.808 4.13322 -1.05201 0
M  V30 2560 S 233.641 4.69371 -2.57781 0
M  V30 2561 C 234.797 5.95058 -1.94053 0
M  V30 2562 H 235.03 2.4913 -1.62239 0
M  V30 2563 H 232.563 1.22519 -0.939603 0
M  V30 2564 H 234.521 4.09473 0.290254 0
M  V30 2565 H 233.182 3.03962 0.791593 0
M  V30 2566 H 232.375 5.01051 -0.544433 0
M  V30 2567 H 231.977 3.48251 -1.36371 0
M  V30 2568 H 234.269 6.65278 -1.28107 0
M  V30 2569 H 235.212 6.50472 -2.79807 0
M  V30 2570 H 235.62 5.46918 -1.39787 0
M  V30 2571 N 235.018 0.912232 1.28515 0
M  V30 2572 C 235.928 0.404506 2.31086 0
M  V30 2573 C 236.944 -0.50707 1.66448 0
M  V30 2574 O 238.12 -0.393624 1.97516 0
M  V30 2575 C 235.185 -0.348572 3.44943 0
M  V30 2576 C 234.246 0.59604 4.25142 0
M  V30 2577 C 233.479 -0.121194 5.33562 0
M  V30 2578 O 233.702 -1.34317 5.5436 0
M  V30 2579 O 232.636 0.542716 5.99448 0
M  V30 2580 H 236.462 1.25579 2.76521 0
M  V30 2581 H 234.047 0.676998 1.33181 0
M  V30 2582 H 235.929 -0.77395 4.14232 0
M  V30 2583 H 234.604 -1.17571 3.01594 0
M  V30 2584 H 233.511 1.07079 3.58448 0
M  V30 2585 H 234.844 1.38995 4.72167 0
M  V30 2586 N 236.496 -1.42363 0.676048 0
M  V30 2587 C 237.426 -2.33497 0.0124832 0
M  V30 2588 C 238.407 -1.50748 -0.787981 0
M  V30 2589 O 239.592 -1.79346 -0.744884 0
M  V30 2590 C 236.722 -3.34377 -0.938582 0
M  V30 2591 C 235.676 -4.27289 -0.246622 0
M  V30 2592 C 235.002 -5.18386 -1.31071 0
M  V30 2593 C 236.302 -5.14916 0.875125 0
M  V30 2594 H 237.996 -2.89233 0.773593 0
M  V30 2595 H 235.542 -1.39073 0.37346 0
M  V30 2596 H 237.495 -3.97044 -1.41188 0
M  V30 2597 H 236.219 -2.76947 -1.73113 0
M  V30 2598 H 234.878 -3.66018 0.206456 0
M  V30 2599 H 234.526 -4.57282 -2.09528 0
M  V30 2600 H 234.226 -5.81378 -0.852839 0
M  V30 2601 H 235.75 -5.83929 -1.78492 0
M  V30 2602 H 237.164 -5.71262 0.482983 0
M  V30 2603 H 235.561 -5.86747 1.25887 0
M  V30 2604 H 236.631 -4.53242 1.72335 0
M  V30 2605 N 237.974 -0.419461 -1.51915 0
M  V30 2606 C 239.251 0.211999 -1.94448 0
M  V30 2607 C 239.631 1.61703 -1.35703 0
M  V30 2608 O 238.979 2.22102 -0.536931 0
M  V30 2609 C 239.189 0.207872 -3.4838 0
M  V30 2610 C 240.537 0.422192 -4.22496 0
M  V30 2611 O 241.561 0.286778 -3.55044 0
M  V30 2612 O 240.42 0.690009 -5.42126 0
M  V30 2613 H 237.514 0.139586 -0.815135 0
M  V30 2614 H 240.06 -0.476151 -1.62883 0
M  V30 2615 H 238.832 -0.775102 -3.83546 0
M  V30 2616 H 238.455 0.939688 -3.86336 0
M  V30 2617 N 239.452 1.56882 -0.150215 0
M  V30 2618 C 240.402 2.13501 0.800071 0
M  V30 2619 C 241.386 1.06368 1.20726 0
M  V30 2620 O 242.578 1.32538 1.17314 0
M  V30 2621 C 239.707 2.76271 2.03787 0
M  V30 2622 C 238.793 3.90533 1.65364 0
M  V30 2623 N 239.184 4.96259 0.977794 0
M  V30 2624 C 237.482 4.013 1.94613 0
M  V30 2625 C 238.183 5.76286 0.791794 0
M  V30 2626 N 237.159 5.27163 1.32666 0
M  V30 2627 H 240.961 2.92615 0.274517 0
M  V30 2628 H 238.475 1.62319 0.0512144 0
M  V30 2629 H 240.472 3.15197 2.72867 0
M  V30 2630 H 239.132 1.98631 2.56857 0
M  V30 2631 H 240.143 5.13953 0.638193 0
M  V30 2632 H 236.82 3.3474 2.4951 0
M  V30 2633 H 238.21 6.71401 0.258894 0
M  V30 2634 N 240.93 -0.123565 1.57115 0
M  V30 2635 C 241.84 -1.17074 2.033 0
M  V30 2636 C 242.856 -1.4561 0.952559 0
M  V30 2637 O 244.032 -1.56817 1.26374 0
M  V30 2638 C 241.097 -2.47857 2.42421 0
M  V30 2639 C 240.158 -2.26758 3.64526 0
M  V30 2640 C 239.391 -3.51305 4.01771 0
M  V30 2641 O 239.614 -4.5843 3.39409 0
M  V30 2642 O 238.548 -3.42578 4.94898 0
M  V30 2643 H 242.374 -0.808555 2.92739 0
M  V30 2644 H 239.959 -0.334027 1.45618 0
M  V30 2645 H 241.841 -3.2492 2.68338 0
M  V30 2646 H 240.516 -2.83558 1.5613 0
M  V30 2647 H 239.423 -1.47569 3.43765 0
M  V30 2648 H 240.756 -1.95963 4.51508 0
M  V30 2649 N 242.408 -1.52605 -0.393616 0
M  V30 2650 C 243.824 -1.41753 -0.733357 0
M  V30 2651 C 244.024 -0.534293 -1.94287 0
M  V30 2652 O 243.08 -0.0059787 -2.52499 0
M  V30 2653 C 244.393 -2.84531 -0.972772 0
M  V30 2654 C 245.941 -2.93978 -1.07453 0
M  V30 2655 C 246.416 -4.37756 -1.3466 0
M  V30 2656 N 247.907 -4.4106 -1.41492 0
M  V30 2657 C 248.642 -5.49387 -1.642 0
M  V30 2658 N 248.138 -6.67806 -1.8441 0
M  V30 2659 N 249.931 -5.36923 -1.66342 0
M  V30 2660 H 242.082 -2.08555 0.402328 0
M  V30 2661 H 244.345 -0.940654 0.117789 0
M  V30 2662 H 244.051 -3.51353 -0.156204 0
M  V30 2663 H 243.925 -3.26508 -1.88871 0
M  V30 2664 H 246.312 -2.27326 -1.88167 0
M  V30 2665 H 246.393 -2.55435 -0.136605 0
M  V30 2666 H 246.037 -5.04972 -0.544581 0
M  V30 2667 H 245.967 -4.73848 -2.2973 0
M  V30 2668 H 248.458 -3.55705 -1.27601 0
M  V30 2669 H 248.771 -7.46141 -2.01231 0
M  V30 2670 H 247.116 -6.70843 -1.81644 0
M  V30 2671 H 250.307 -4.43381 -1.50102 0
M  V30 2672 H 250.48 -6.21416 -1.837 0
M  V30 2673 N 243.887 0.651787 -1.4349 0
M  V30 2674 C 244.82 1.77668 -1.43211 0
M  V30 2675 C 245.798 1.59931 -0.29338 0
M  V30 2676 O 246.982 1.82095 -0.487191 0
M  V30 2677 C 244.109 3.14986 -1.24505 0
M  V30 2678 C 243.155 3.51421 -2.41673 0
M  V30 2679 S 243.988 3.51234 -4.04222 0
M  V30 2680 C 245.144 4.91206 -3.87902 0
M  V30 2681 H 245.377 1.77635 -2.38397 0
M  V30 2682 H 242.91 0.824558 -1.30539 0
M  V30 2683 H 244.868 3.94237 -1.144 0
M  V30 2684 H 243.529 3.1258 -0.308651 0
M  V30 2685 H 242.722 4.51291 -2.24393 0
M  V30 2686 H 242.324 2.79585 -2.48411 0
M  V30 2687 H 244.616 5.79902 -3.50315 0
M  V30 2688 H 245.559 5.13537 -4.8753 0
M  V30 2689 H 245.967 4.64808 -3.20334 0
M  V30 2690 N 245.365 1.30045 0.890287 0
M  V30 2691 C 246.59 1.21598 1.68014 0
M  V30 2692 C 247.015 -0.218678 1.86825 0
M  V30 2693 O 246.373 -1.15756 1.39536 0
M  V30 2694 C 246.421 1.94434 3.03691 0
M  V30 2695 O 245.525 1.2678 3.92429 0
M  V30 2696 H 244.866 0.420856 0.513592 0
M  V30 2697 H 247.396 1.71775 1.11151 0
M  V30 2698 H 247.406 2.03251 3.5377 0
M  V30 2699 H 246.081 2.98777 2.89318 0
M  V30 2700 H 244.658 1.26282 3.50866 0
M  V30 2701 N 246.843 -1.10192 1.12674 0
M  V30 2702 C 248.073 -1.85713 0.905213 0
M  V30 2703 C 248.481 -1.81056 -0.549108 0
M  V30 2704 O 247.824 -1.19927 -1.39151 0
M  V30 2705 C 247.886 -3.34972 1.30516 0
M  V30 2706 C 247.55 -3.63385 2.77129 0
M  V30 2707 C 248.547 -3.59772 3.75313 0
M  V30 2708 C 246.232 -3.91981 3.14096 0
M  V30 2709 C 248.226 -3.84354 5.08479 0
M  V30 2710 C 245.913 -4.16218 4.47443 0
M  V30 2711 C 246.911 -4.12395 5.44444 0
M  V30 2712 O 246.599 -4.36014 6.75387 0
M  V30 2713 H 246.331 -0.593719 0.323223 0
M  V30 2714 H 248.885 -1.40198 1.50112 0
M  V30 2715 H 247.115 -3.81156 0.652463 0
M  V30 2716 H 248.804 -3.91886 1.05736 0
M  V30 2717 H 249.57 -3.37716 3.48099 0
M  V30 2718 H 245.449 -3.94085 2.39202 0
M  V30 2719 H 248.993 -3.81285 5.84181 0
M  V30 2720 H 244.89 -4.37754 4.74386 0
M  V30 2721 H 245.658 -4.53516 6.8137 0
M  V30 2722 N 248.321 -0.919034 -1.28029 0
M  V30 2723 C 249.251 -0.428581 -2.29533 0
M  V30 2724 C 250.232 0.50659 -1.62381 0
M  V30 2725 O 251.417 0.413195 -1.89753 0
M  V30 2726 C 248.547 0.327388 -3.45753 0
M  V30 2727 C 247.501 -0.519137 -4.2484 0
M  V30 2728 C 246.827 0.365486 -5.33449 0
M  V30 2729 C 248.127 -1.77914 -4.91064 0
M  V30 2730 H 249.821 -1.27687 -2.70807 0
M  V30 2731 H 247.367 -0.615428 -1.30186 0
M  V30 2732 H 249.32 0.681378 -4.15855 0
M  V30 2733 H 248.044 1.20963 -3.03374 0
M  V30 2734 H 246.703 -0.855717 -3.56473 0
M  V30 2735 H 246.351 1.24642 -4.87312 0
M  V30 2736 H 246.051 -0.197356 -5.87268 0
M  V30 2737 H 247.575 0.715241 -6.06396 0
M  V30 2738 H 248.989 -1.49374 -5.53498 0
M  V30 2739 H 247.386 -2.2848 -5.54903 0
M  V30 2740 H 248.456 -2.50382 -4.15255 0
M  V30 2741 N 249.799 1.42003 -0.683588 0
M  V30 2742 C 250.729 2.33487 -0.024866 0
M  V30 2743 C 251.71 1.51163 0.779975 0
M  V30 2744 O 252.895 1.79739 0.735362 0
M  V30 2745 C 250.025 3.3487 0.920836 0
M  V30 2746 C 248.979 4.27414 0.223958 0
M  V30 2747 C 248.305 5.19074 1.2832 0
M  V30 2748 C 249.605 5.14445 -0.90242 0
M  V30 2749 H 251.299 2.88819 -0.788921 0
M  V30 2750 H 248.845 1.38873 -0.38083 0
M  V30 2751 H 250.798 3.97787 1.39081 0
M  V30 2752 H 249.522 2.77861 1.71642 0
M  V30 2753 H 248.181 3.65904 -0.225864 0
M  V30 2754 H 247.829 4.58387 2.071 0
M  V30 2755 H 247.529 5.81822 0.821995 0
M  V30 2756 H 249.053 5.84867 1.75392 0
M  V30 2757 H 250.467 5.70998 -0.513272 0
M  V30 2758 H 248.864 5.86072 -1.28997 0
M  V30 2759 H 249.934 4.52322 -1.74737 0
M  V30 2760 N 251.277 0.427512 1.51691 0
M  V30 2761 C 252.507 -0.140986 2.06118 0
M  V30 2762 C 252.915 -1.37854 1.29588 0
M  V30 2763 O 252.258 -1.80411 0.346036 0
M  V30 2764 C 252.32 -0.538276 3.55447 0
M  V30 2765 C 251.984 0.591095 4.53161 0
M  V30 2766 C 252.981 1.46027 4.98971 0
M  V30 2767 C 250.666 0.769028 4.96378 0
M  V30 2768 C 252.66 2.49216 5.8666 0
M  V30 2769 C 250.347 1.80421 5.83859 0
M  V30 2770 C 251.345 2.66417 6.28897 0
M  V30 2771 O 251.033 3.68159 7.14643 0
M  V30 2772 H 250.765 -0.0157455 0.675817 0
M  V30 2773 H 253.319 0.602495 1.96365 0
M  V30 2774 H 251.549 -1.33432 3.6295 0
M  V30 2775 H 253.238 -1.0368 3.92435 0
M  V30 2776 H 254.004 1.33429 4.66285 0
M  V30 2777 H 249.883 0.109273 4.6087 0
M  V30 2778 H 253.427 3.16372 6.21735 0
M  V30 2779 H 249.324 1.93042 6.15959 0
M  V30 2780 H 250.092 3.64622 7.32798 0
M  V30 2781 N 252.755 -1.56801 0.158532 0
M  V30 2782 C 253.687 -2.14488 -0.807923 0
M  V30 2783 C 254.7 -1.09721 -1.20271 0
M  V30 2784 O 255.889 -1.36956 -1.14478 0
M  V30 2785 C 252.989 -2.66217 -2.09718 0
M  V30 2786 C 252.162 -3.95507 -1.86796 0
M  V30 2787 C 251.221 -4.3243 -2.99818 0
M  V30 2788 O 250.247 -5.00543 -2.71008 0
M  V30 2789 N 251.449 -3.92947 -4.27285 0
M  V30 2790 H 254.214 -2.98042 -0.314816 0
M  V30 2791 H 251.775 -1.61881 -0.0246692 0
M  V30 2792 H 253.767 -2.87924 -2.84398 0
M  V30 2793 H 252.337 -1.87324 -2.50257 0
M  V30 2794 H 251.557 -3.82309 -0.96089 0
M  V30 2795 H 252.845 -4.79972 -1.68833 0
M  V30 2796 H 252.243 -3.38087 -4.53557 0
M  V30 2797 H 250.8 -4.19681 -4.9871 0
M  V30 2798 N 254.233 0.115231 -1.57178 0
M  V30 2799 C 255.166 1.17166 -1.95825 0
M  V30 2800 C 256.144 1.39912 -0.828463 0
M  V30 2801 O 257.328 1.54004 -1.08697 0
M  V30 2802 C 254.455 2.52478 -2.25771 0
M  V30 2803 C 253.501 2.46136 -3.48309 0
M  V30 2804 S 254.334 1.89736 -5.0076 0
M  V30 2805 C 255.49 3.26713 -5.33863 0
M  V30 2806 H 255.723 0.842103 -2.85124 0
M  V30 2807 H 253.256 0.322136 -1.51002 0
M  V30 2808 H 255.214 3.30332 -2.43702 0
M  V30 2809 H 253.875 2.82609 -1.37079 0
M  V30 2810 H 253.068 3.45819 -3.66641 0
M  V30 2811 H 252.67 1.76404 -3.29784 0
M  V30 2812 H 254.962 4.22935 -5.29275 0
M  V30 2813 H 255.905 3.13205 -6.35065 0
M  V30 2814 H 256.313 3.25316 -4.61335 0
M  V30 2815 N 255.711 1.52812 0.385517 0
M  V30 2816 C 256.641 1.80808 1.47752 0
M  V30 2817 C 257.622 0.660318 1.5676 0
M  V30 2818 O 258.807 0.908246 1.71652 0
M  V30 2819 C 255.937 1.98008 2.85324 0
M  V30 2820 C 254.891 3.13709 2.91154 0
M  V30 2821 C 254.217 3.16169 4.31209 0
M  V30 2822 C 255.517 4.52709 2.60483 0
M  V30 2823 H 257.211 2.72253 1.24573 0
M  V30 2824 H 254.757 1.31003 0.597839 0
M  V30 2825 H 256.71 2.16176 3.61726 0
M  V30 2826 H 255.434 1.03255 3.09848 0
M  V30 2827 H 254.093 2.95329 2.17201 0
M  V30 2828 H 253.741 2.19092 4.52778 0
M  V30 2829 H 253.441 3.93894 4.36029 0
M  V30 2830 H 254.965 3.36496 5.09512 0
M  V30 2831 H 256.379 4.71173 3.26602 0
M  V30 2832 H 254.776 5.32528 2.76648 0
M  V30 2833 H 255.846 4.59186 1.55809 0
M  V30 2834 N 257.189 -0.644168 1.43834 0
M  V30 2835 C 258.429 -1.41565 1.47441 0
M  V30 2836 C 258.793 -1.91743 0.0992723 0
M  V30 2837 O 259.994 -2.68798 0.0100192 0
M  V30 2838 C 258.265 -2.55902 2.49498 0
M  V30 2839 S 259.824 -3.44287 2.72051 0
M  V30 2840 H 256.642 -0.483118 0.521649 0
M  V30 2841 H 259.244 -0.747008 1.80666 0
M  V30 2842 H 257.948 -2.17327 3.48134 0
M  V30 2843 H 257.479 -3.27607 2.17801 0
M  V30 2844 H 259.494 -4.52927 2.0266 0
M  V30 2845 N 258.668 -1.30515 -0.883378 0
M  V30 2846 C 259.916 -1.19194 -1.63209 0
M  V30 2847 C 260.237 0.253205 -1.93349 0
M  V30 2848 O 259.507 1.17025 -1.57105 0
M  V30 2849 H 258.087 -0.438148 -0.605009 0
M  V30 2850 H 260.749 -1.63663 -1.05832 0
M  V30 2851 H 259.845 -1.75396 -2.58153 0
M  V30 2852 N 260.146 1.09593 -1.13257 0
M  V30 2853 C 261.395 1.81105 -0.887917 0
M  V30 2854 C 261.708 1.86563 0.587672 0
M  V30 2855 O 262.914 2.54367 0.949204 0
M  V30 2856 C 261.37 3.25338 -1.53895 0
M  V30 2857 C 260.978 3.28151 -3.04994 0
M  V30 2858 C 262.722 4.01617 -1.37492 0
M  V30 2859 C 260.629 4.66897 -3.6299 0
M  V30 2860 H 259.559 0.678661 -0.328534 0
M  V30 2861 H 262.21 1.23183 -1.36008 0
M  V30 2862 H 260.592 3.8331 -0.994446 0
M  V30 2863 H 261.766 2.79953 -3.66009 0
M  V30 2864 H 260.081 2.65361 -3.20893 0
M  V30 2865 H 262.678 5.04119 -1.78235 0
M  V30 2866 H 263.021 4.15072 -0.31957 0
M  V30 2867 H 263.554 3.50082 -1.88912 0
M  V30 2868 H 260.293 4.58643 -4.68323 0
M  V30 2869 H 259.813 5.15426 -3.06752 0
M  V30 2870 H 261.492 5.3587 -3.62563 0
M  V30 2871 N 261.624 0.925811 1.2754 0
M  V30 2872 C 262.571 0.422045 2.26908 0
M  V30 2873 C 263.541 -0.510029 1.58076 0
M  V30 2874 O 264.726 -0.429599 1.85901 0
M  V30 2875 C 261.866 -0.320837 3.43605 0
M  V30 2876 C 260.979 0.64513 4.27156 0
M  V30 2877 C 260.114 -0.117405 5.3107 0
M  V30 2878 C 259.153 0.841391 6.0629 0
M  V30 2879 N 258.29 0.111604 7.02011 0
M  V30 2880 H 263.13 1.27441 2.69375 0
M  V30 2881 H 260.667 0.639697 1.32462 0
M  V30 2882 H 262.625 -0.76785 4.10073 0
M  V30 2883 H 261.255 -1.13745 3.02096 0
M  V30 2884 H 260.307 1.21067 3.6062 0
M  V30 2885 H 261.619 1.37797 4.79389 0
M  V30 2886 H 260.773 -0.624422 6.03478 0
M  V30 2887 H 259.512 -0.883219 4.79636 0
M  V30 2888 H 258.517 1.35967 5.32722 0
M  V30 2889 H 259.742 1.60696 6.59813 0
M  V30 2890 H 257.688 -0.635999 6.5291 0
M  V30 2891 H 257.605 0.784044 7.51923 0
M  V30 2892 H 258.873 -0.374823 7.78598 0
M  V30 2893 N 263.102 -1.41638 0.69111 0
M  V30 2894 C 264.052 -2.28 -0.000107832 0
M  V30 2895 C 265.036 -1.41964 -0.757304 0
M  V30 2896 O 266.228 -1.65274 -0.633532 0
M  V30 2897 C 263.357 -3.30209 -0.938983 0
M  V30 2898 C 262.443 -4.23725 -0.17827 0
M  V30 2899 N 262.834 -4.99017 0.825563 0
M  V30 2900 C 261.132 -4.44071 -0.414392 0
M  V30 2901 C 261.833 -5.67431 1.28052 0
M  V30 2902 N 260.809 -5.40197 0.607304 0
M  V30 2903 H 264.611 -2.83644 0.769617 0
M  V30 2904 H 262.125 -1.53797 0.521562 0
M  V30 2905 H 264.122 -3.90898 -1.44929 0
M  V30 2906 H 262.782 -2.76126 -1.70836 0
M  V30 2907 H 263.793 -5.03671 1.20566 0
M  V30 2908 H 260.47 -4.01004 -1.162 0
M  V30 2909 H 261.86 -6.37801 2.11327 0
M  V30 2910 N 264.58 -0.43555 -1.51462 0
M  V30 2911 C 265.51 0.367376 -2.30592 0
M  V30 2912 C 266.491 1.02263 -1.35928 0
M  V30 2913 O 267.676 1.02661 -1.64847 0
M  V30 2914 C 264.806 1.46983 -3.14664 0
M  V30 2915 C 263.76 0.938161 -4.17591 0
M  V30 2916 C 263.086 2.13622 -4.90173 0
M  V30 2917 C 264.386 -0.0261621 -5.22293 0
M  V30 2918 H 266.08 -0.292969 -2.97963 0
M  V30 2919 H 263.626 -0.14234 -1.43295 0
M  V30 2920 H 265.579 2.03873 -3.688 0
M  V30 2921 H 264.303 2.15843 -2.4511 0
M  V30 2922 H 262.962 0.391481 -3.64504 0
M  V30 2923 H 262.61 2.81098 -4.17124 0
M  V30 2924 H 262.31 1.78688 -5.59772 0
M  V30 2925 H 263.834 2.7107 -5.47132 0
M  V30 2926 H 265.248 0.452384 -5.71512 0
M  V30 2927 H 263.645 -0.287992 -5.99409 0
M  V30 2928 H 264.715 -0.963391 -4.75233 0
M  V30 2929 N 266.058 1.56714 -0.166846 0
M  V30 2930 C 267.008 2.14338 0.777382 0
M  V30 2931 C 267.992 1.07642 1.19591 0
M  V30 2932 O 269.184 1.33775 1.15902 0
M  V30 2933 C 266.313 2.78417 2.00846 0
M  V30 2934 C 265.399 3.92264 1.61212 0
M  V30 2935 N 265.79 4.97268 0.925104 0
M  V30 2936 C 264.088 4.03342 1.90346 0
M  V30 2937 C 264.789 5.77093 0.730627 0
M  V30 2938 N 263.765 5.2854 1.27067 0
M  V30 2939 H 267.567 2.9289 0.243466 0
M  V30 2940 H 265.081 1.62364 0.0339954 0
M  V30 2941 H 267.078 3.18073 2.69509 0
M  V30 2942 H 265.738 2.01344 2.54736 0
M  V30 2943 H 266.749 5.14601 0.583646 0
M  V30 2944 H 263.426 3.37368 2.45946 0
M  V30 2945 H 264.816 6.71638 0.187668 0
M  V30 2946 N 267.536 -0.106894 1.57237 0
M  V30 2947 C 268.761 -0.830287 1.90055 0
M  V30 2948 C 269.186 -1.72064 0.75998 0
M  V30 2949 O 268.544 -1.78982 -0.288991 0
M  V30 2950 C 268.592 -1.6295 3.21683 0
M  V30 2951 O 267.696 -2.73748 3.08441 0
M  V30 2952 H 267.037 -0.228855 0.623315 0
M  V30 2953 H 269.567 -0.085658 2.04421 0
M  V30 2954 H 269.577 -2.01621 3.54701 0
M  V30 2955 H 268.252 -0.975989 4.04286 0
M  V30 2956 H 266.829 -2.38192 2.86913 0
M  V30 2957 N 269.014 -1.53014 -0.377408 0
M  V30 2958 C 269.977 -1.77957 -1.44444 0
M  V30 2959 C 270.977 -0.649763 -1.47087 0
M  V30 2960 O 272.167 -0.917897 -1.48055 0
M  V30 2961 C 269.299 -1.89089 -2.83651 0
M  V30 2962 H 270.492 -2.73243 -1.23606 0
M  V30 2963 H 268.045 -1.43912 -0.609844 0
M  V30 2964 H 268.78 -0.958293 -3.09818 0
M  V30 2965 H 268.565 -2.71254 -2.83132 0
M  V30 2966 H 270.055 -2.1002 -3.60945 0
M  V30 2967 N 270.492 0.636531 -1.44174 0
M  V30 2968 C 271.74 1.39343 -1.46383 0
M  V30 2969 C 272.061 1.94766 -0.0955715 0
M  V30 2970 O 271.331 1.75452 0.871395 0
M  V30 2971 H 269.911 0.517199 -0.538994 0
M  V30 2972 H 272.573 0.74957 -1.7991 0
M  V30 2973 H 271.669 2.22746 -2.18611 0
M  V30 2974 N 271.97 1.30982 0.876444 0
M  V30 2975 C 273.219 1.19658 1.62373 0
M  V30 2976 C 273.532 -0.245636 1.94052 0
M  V30 2977 O 274.738 -0.48049 2.67214 0
M  V30 2978 C 273.194 2.09433 2.92687 0
M  V30 2979 C 272.802 3.58613 2.68516 0
M  V30 2980 C 274.546 2.06893 3.70669 0
M  V30 2981 C 272.453 4.40416 3.94699 0
M  V30 2982 H 271.383 0.444268 0.609214 0
M  V30 2983 H 274.034 1.55791 0.969605 0
M  V30 2984 H 272.416 1.66191 3.59439 0
M  V30 2985 H 273.59 4.10058 2.10212 0
M  V30 2986 H 271.905 3.63063 2.03898 0
M  V30 2987 H 274.502 2.65258 4.64265 0
M  V30 2988 H 274.845 1.05448 4.02724 0
M  V30 2989 H 275.378 2.48301 3.10792 0
M  V30 2990 H 272.117 5.42591 3.67798 0
M  V30 2991 H 271.637 3.93731 4.52477 0
M  V30 2992 H 273.316 4.52294 4.62644 0
M  V30 2993 N 273.449 -1.08991 1.13837 0
M  V30 2994 C 274.698 -1.80631 0.897509 0
M  V30 2995 C 275.011 -1.86872 -0.57777 0
M  V30 2996 O 276.217 -2.54866 -0.935701 0
M  V30 2997 C 274.673 -3.24517 1.55618 0
M  V30 2998 C 274.281 -3.26529 3.0673 0
M  V30 2999 C 276.025 -4.00882 1.3962 0
M  V30 3000 C 273.932 -4.64965 3.65461 0
M  V30 3001 H 272.862 -0.67691 0.332129 0
M  V30 3002 H 275.513 -1.2246 1.3666 0
M  V30 3003 H 273.895 -3.82778 1.01476 0
M  V30 3004 H 275.069 -2.78008 3.67489 0
M  V30 3005 H 273.384 -2.63656 3.22296 0
M  V30 3006 H 275.981 -5.03167 1.80906 0
M  V30 3007 H 276.324 -4.14896 0.341578 0
M  V30 3008 H 276.857 -3.49075 1.90766 0
M  V30 3009 H 273.596 -4.56153 4.70749 0
M  V30 3010 H 273.116 -5.13792 3.09481 0
M  V30 3011 H 274.795 -5.3394 3.654 0
M  V30 3012 N 274.927 -0.932562 -1.27047 0
M  V30 3013 C 275.877 -0.406392 -2.24349 0
M  V30 3014 C 276.861 0.492066 -1.53191 0
M  V30 3015 O 278.053 0.328717 -1.73921 0
M  V30 3016 C 275.182 0.335214 -3.41659 0
M  V30 3017 C 274.268 -0.58004 -4.20115 0
M  V30 3018 N 274.659 -1.70203 -4.76303 0
M  V30 3019 C 272.957 -0.383974 -4.44344 0
M  V30 3020 C 273.658 -2.27167 -5.35509 0
M  V30 3021 N 272.634 -1.56068 -5.20715 0
M  V30 3022 H 276.436 -1.26299 -2.65378 0
M  V30 3023 H 273.95 -0.787408 -1.42034 0
M  V30 3024 H 275.947 0.729142 -4.10474 0
M  V30 3025 H 274.607 1.18868 -3.0216 0
M  V30 3026 H 275.618 -2.08433 -4.74106 0
M  V30 3027 H 272.295 0.428436 -4.15296 0
M  V30 3028 H 273.685 -3.21654 -5.89905 0
M  V30 3029 N 276.405 1.4127 -0.698611 0
M  V30 3030 C 277.821 1.55241 -0.370462 0
M  V30 3031 C 278.021 1.67351 1.12231 0
M  V30 3032 O 277.077 1.65363 1.90818 0
M  V30 3033 C 278.39 2.78997 -1.12165 0
M  V30 3034 C 279.938 2.92797 -1.1063 0
M  V30 3035 C 280.413 4.19445 -1.8393 0
M  V30 3036 N 281.904 4.26409 -1.80914 0
M  V30 3037 C 282.639 5.23271 -2.34467 0
M  V30 3038 N 282.135 6.26145 -2.96504 0
M  V30 3039 N 283.928 5.15232 -2.24706 0
M  V30 3040 H 276.079 1.31654 -1.66676 0
M  V30 3041 H 278.342 0.635393 -0.703548 0
M  V30 3042 H 278.048 2.76268 -2.17644 0
M  V30 3043 H 277.922 3.70606 -0.702209 0
M  V30 3044 H 280.309 2.95039 -0.0597713 0
M  V30 3045 H 280.39 2.02353 -1.56483 0
M  V30 3046 H 280.034 4.17964 -2.88563 0
M  V30 3047 H 279.964 5.08866 -1.35509 0
M  V30 3048 H 282.455 3.527 -1.35687 0
M  V30 3049 H 282.768 6.96451 -3.34927 0
M  V30 3050 H 281.113 6.26638 -3.00583 0
M  V30 3051 H 284.304 4.33789 -1.7591 0
M  V30 3052 H 284.477 5.90552 -2.66745 0
M  V30 3053 N 277.883 0.443576 1.51229 0
M  V30 3054 C 279.16 -0.181038 1.9476 0
M  V30 3055 C 279.54 -1.59523 1.38259 0
M  V30 3056 O 278.888 -2.2122 0.572198 0
M  V30 3057 C 279.098 -0.152422 3.48667 0
M  V30 3058 C 280.446 -0.354923 4.23114 0
M  V30 3059 O 281.47 -0.230257 3.55455 0
M  V30 3060 O 280.329 -0.603674 5.43156 0
M  V30 3061 H 277.423 -0.1266 0.817252 0
M  V30 3062 H 279.969 0.502004 1.62105 0
M  V30 3063 H 278.741 0.836022 3.82265 0
M  V30 3064 H 278.364 -0.878107 3.87782 0
M  V30 3065 N 279.361 -1.56624 0.175154 0
M  V30 3066 C 280.291 -2.21155 -0.749195 0
M  V30 3067 C 281.272 -1.16836 -1.23626 0
M  V30 3068 O 282.457 -1.45277 -1.28873 0
M  V30 3069 C 279.587 -2.8553 -1.97711 0
M  V30 3070 C 278.541 -3.95921 -1.62575 0
M  V30 3071 C 277.867 -4.47365 -2.92864 0
M  V30 3072 C 279.167 -5.15323 -0.850838 0
M  V30 3073 H 280.861 -2.98653 -0.211295 0
M  V30 3074 H 278.407 -1.43651 -0.100188 0
M  V30 3075 H 280.36 -3.2935 -2.62881 0
M  V30 3076 H 279.084 -2.05406 -2.53921 0
M  V30 3077 H 277.743 -3.52762 -0.997719 0
M  V30 3078 H 277.391 -3.64027 -3.47122 0
M  V30 3079 H 277.091 -5.21839 -2.70106 0
M  V30 3080 H 278.615 -4.93873 -3.59056 0
M  V30 3081 H 280.029 -5.55812 -1.40521 0
M  V30 3082 H 278.426 -5.95739 -0.722154 0
M  V30 3083 H 279.496 -4.84661 0.152082 0
M  V30 3084 N 280.839 0.0985539 -1.57292 0
M  V30 3085 C 281.786 1.11981 -2.01814 0
M  V30 3086 C 282.756 1.39999 -0.89384 0
M  V30 3087 O 283.941 1.5152 -1.15958 0
M  V30 3088 C 281.081 2.43577 -2.44467 0
M  V30 3089 C 280.194 2.2232 -3.70402 0
M  V30 3090 C 279.329 3.4729 -4.01949 0
M  V30 3091 C 278.368 3.2128 -5.21005 0
M  V30 3092 N 277.505 4.38507 -5.48321 0
M  V30 3093 H 282.345 0.733149 -2.88841 0
M  V30 3094 H 279.882 0.350482 -1.42864 0
M  V30 3095 H 281.84 3.20373 -2.6724 0
M  V30 3096 H 280.47 2.80097 -1.60455 0
M  V30 3097 H 279.522 1.36343 -3.55126 0
M  V30 3098 H 280.834 1.99089 -4.57345 0
M  V30 3099 H 279.988 4.32495 -4.25479 0
M  V30 3100 H 278.727 3.73572 -3.13521 0
M  V30 3101 H 277.732 2.34468 -4.97298 0
M  V30 3102 H 278.957 2.96348 -6.11028 0
M  V30 3103 H 276.903 4.64871 -4.62851 0
M  V30 3104 H 276.82 4.18455 -6.29628 0
M  V30 3105 H 278.088 5.24787 -5.76385 0
M  V30 3106 N 282.317 1.53212 0.369288 0
M  V30 3107 C 283.728 1.60943 0.946276 0
M  V30 3108 C 284.079 0.47452 1.90375 0
M  V30 3109 O 283.204 -0.399597 2.12679 0
M  V30 3110 C 283.799 2.91715 1.72302 0
M  V30 3111 C 282.358 3.01792 2.24941 0
M  V30 3112 C 281.505 2.56211 1.06072 0
M  V30 3113 H 284.456 1.58007 0.148198 0
M  V30 3114 H 284.477 2.79309 2.58393 0
M  V30 3115 H 283.989 3.74295 1.0259 0
M  V30 3116 H 282.09 2.23791 2.97906 0
M  V30 3117 H 282.203 4.06803 2.53077 0
M  V30 3118 H 280.567 2.10998 1.4266 0
M  V30 3119 H 281.35 3.41206 0.378639 0
M  V30 3120 N 283.795 -0.628877 1.44509 0
M  V30 3121 C 285.02 -1.42048 1.5112 0
M  V30 3122 C 285.445 -1.87594 0.137818 0
M  V30 3123 O 284.803 -1.58873 -0.873437 0
M  V30 3124 C 284.851 -2.61541 2.48251 0
M  V30 3125 O 283.955 -3.61453 1.98559 0
M  V30 3126 H 283.296 -0.424942 0.510216 0
M  V30 3127 H 285.826 -0.767374 1.89664 0
M  V30 3128 H 285.836 -3.09057 2.66361 0
M  V30 3129 H 284.511 -2.27736 3.48007 0
M  V30 3130 H 283.088 -3.20731 1.90227 0
M  V30 3131 N 285.273 -1.31445 -0.869486 0
M  V30 3132 C 286.221 -1.19067 -1.99814 0
M  V30 3133 C 287.215 -0.0988569 -1.69111 0
M  V30 3134 O 288.421 -0.260781 -1.78101 0
M  V30 3135 H 284.796 -0.368677 -0.655425 0
M  V30 3136 H 286.767 -2.14555 -2.07385 0
M  V30 3137 C 285.516 -0.915323 -3.35436 0
M  V30 3138 H 284.839 -1.74759 -3.59582 0
M  V30 3139 H 286.279 -0.868895 -4.15001 0
M  V30 3140 C 284.738 0.381928 -3.34728 0
M  V30 3141 O 285.268 1.39857 -3.76567 0
M  V30 3142 N 283.474 0.398633 -2.87853 0
M  V30 3143 H 283.021 -0.429186 -2.54 0
M  V30 3144 H 282.979 1.26651 -2.87762 0
M  V30 3145 N 286.751 1.08385 -1.14413 0
M  V30 3146 C 288 1.80153 -0.907076 0
M  V30 3147 C 288.313 1.87176 0.567851 0
M  V30 3148 O 289.519 2.55359 0.922172 0
M  V30 3149 C 287.975 3.23687 -1.57336 0
M  V30 3150 C 287.583 3.24897 -3.08457 0
M  V30 3151 C 289.327 4.00136 -1.41744 0
M  V30 3152 C 287.234 4.6302 -3.67921 0
M  V30 3153 H 286.164 0.675139 -0.335714 0
M  V30 3154 H 288.815 1.21733 -1.37307 0
M  V30 3155 H 287.197 3.82234 -1.03505 0
M  V30 3156 H 288.371 2.76055 -3.68958 0
M  V30 3157 H 286.686 2.61943 -3.2369 0
M  V30 3158 H 289.283 5.02201 -1.83572 0
M  V30 3159 H 289.626 4.14709 -0.363576 0
M  V30 3160 H 290.159 3.48058 -1.92614 0
M  V30 3161 H 286.898 4.5365 -4.73161 0
M  V30 3162 H 286.418 5.12143 -3.12201 0
M  V30 3163 H 288.097 5.31994 -3.68227 0
M  V30 3164 N 288.23 0.939286 1.26551 0
M  V30 3165 C 289.476 0.586715 1.94128 0
M  V30 3166 C 289.809 -0.8717 1.73537 0
M  V30 3167 O 289.084 -1.62339 1.07127 0
M  V30 3168 C 289.367 0.927497 3.4795 0
M  V30 3169 C 289.22 2.44052 3.77834 0
M  V30 3170 C 290.539 0.441569 4.37879 0
M  V30 3171 H 287.658 0.21463 0.705055 0
M  V30 3172 H 290.3 1.17316 1.49455 0
M  V30 3173 H 288.45 0.428431 3.8613 0
M  V30 3174 H 290.122 3.01216 3.4938 0
M  V30 3175 H 288.365 2.8848 3.23978 0
M  V30 3176 H 289.036 2.62947 4.85348 0
M  V30 3177 H 291.512 0.869448 4.06915 0
M  V30 3178 H 290.388 0.708856 5.44304 0
M  V30 3179 H 290.649 -0.658467 4.37169 0
M  V30 3180 N 289.708 -1.40897 0.706093 0
M  V30 3181 C 290.954 -2.01352 0.241889 0
M  V30 3182 C 291.287 -1.55832 -1.15888 0
M  V30 3183 O 290.562 -0.774145 -1.7843 0
M  V30 3184 C 290.845 -3.58752 0.311311 0
M  V30 3185 C 290.698 -4.1437 1.74978 0
M  V30 3186 C 292.017 -4.38914 -0.322922 0
M  V30 3187 H 289.136 -0.731562 0.0893687 0
M  V30 3188 H 291.778 -1.67504 0.896802 0
M  V30 3189 H 289.928 -3.87718 -0.246302 0
M  V30 3190 H 291.6 -3.96239 2.36205 0
M  V30 3191 H 289.843 -3.69016 2.28057 0
M  V30 3192 H 290.514 -5.23532 1.74981 0
M  V30 3193 H 292.99 -4.15822 0.152089 0
M  V30 3194 H 291.866 -5.48358 -0.243855 0
M  V30 3195 H 292.127 -4.19176 -1.40513 0
M  V30 3196 N 291.186 -0.45159 -1.50991 0
M  V30 3197 C 292.133 0.352625 -2.2809 0
M  V30 3198 C 293.103 1.0044 -1.32291 0
M  V30 3199 O 294.288 1.02058 -1.6121 0
M  V30 3200 C 291.428 1.43983 -3.13629 0
M  V30 3201 C 290.541 0.804772 -4.24438 0
M  V30 3202 C 289.676 1.86822 -4.97263 0
M  V30 3203 C 288.715 1.21236 -5.99973 0
M  V30 3204 N 287.852 2.2178 -6.66152 0
M  V30 3205 H 292.692 -0.311186 -2.96371 0
M  V30 3206 H 290.229 -0.165308 -1.46168 0
M  V30 3207 H 292.187 2.08161 -3.61559 0
M  V30 3208 H 290.817 2.07307 -2.47434 0
M  V30 3209 H 289.869 0.0509129 -3.80366 0
M  V30 3210 H 291.181 0.286076 -4.97979 0
M  V30 3211 H 290.335 2.58628 -5.48813 0
M  V30 3212 H 289.074 2.42068 -4.23385 0
M  V30 3213 H 288.079 0.479828 -5.47702 0
M  V30 3214 H 289.304 0.667051 -6.75816 0
M  V30 3215 H 287.25 2.76079 -5.95077 0
M  V30 3216 H 287.167 1.74841 -7.35504 0
M  V30 3217 H 288.435 2.93026 -7.22327 0
M  V30 3218 N 292.664 1.56529 -0.183458 0
M  V30 3219 C 293.889 2.02064 0.467428 0
M  V30 3220 C 294.314 1.06282 1.55196 0
M  V30 3221 O 293.672 0.0443565 1.81246 0
M  V30 3222 C 293.72 3.46122 1.01153 0
M  V30 3223 O 292.824 3.53437 2.12499 0
M  V30 3224 H 292.165 0.654726 0.110588 0
M  V30 3225 H 294.695 2.02521 -0.290917 0
M  V30 3226 H 294.705 3.85676 1.33108 0
M  V30 3227 H 293.38 4.15331 0.217533 0
M  V30 3228 H 291.957 3.2575 1.81497 0
M  V30 3229 N 294.142 -0.090211 1.57342 0
M  V30 3230 C 295.419 -0.824761 1.77361 0
M  V30 3231 C 295.799 -1.96698 0.76637 0
M  V30 3232 O 295.147 -2.27586 -0.204179 0
M  V30 3233 C 295.357 -1.31481 3.23286 0
M  V30 3234 C 296.705 -1.75563 3.86604 0
M  V30 3235 O 297.729 -1.41093 3.27065 0
M  V30 3236 O 296.588 -2.39317 4.91314 0
M  V30 3237 H 293.682 -0.393776 0.727234 0
M  V30 3238 H 296.228 -0.0717138 1.69548 0
M  V30 3239 H 295 -0.496671 3.88135 0
M  V30 3240 H 294.623 -2.12973 3.35751 0
M  V30 3241 N 295.62 -1.53406 -0.361157 0
M  V30 3242 C 296.86 -1.71507 -1.11197 0
M  V30 3243 C 297.224 -0.459337 -1.86425 0
M  V30 3244 O 298.425 -0.517102 -2.63779 0
M  V30 3245 C 296.696 -2.93307 -2.0422 0
M  V30 3246 S 298.255 -3.32135 -2.86761 0
M  V30 3247 H 295.073 -0.603448 -0.375995 0
M  V30 3248 H 297.675 -1.91516 -0.392642 0
M  V30 3249 H 296.379 -3.82891 -1.47724 0
M  V30 3250 H 295.91 -2.75712 -2.80618 0
M  V30 3251 H 297.925 -2.84493 -4.06544 0
M  V30 3252 N 297.098 0.621204 -1.44841 0
M  V30 3253 C 298.326 1.40752 -1.51646 0
M  V30 3254 C 298.741 1.88246 -0.144549 0
M  V30 3255 O 298.098 1.61422 0.851416 0
M  V30 3256 C 298.149 2.62119 -2.4895 0
M  V30 3257 O 297.87 2.16602 -3.80808 0
M  V30 3258 C 299.371 3.55135 -2.65319 0
M  V30 3259 H 296.591 0.431325 -0.514004 0
M  V30 3260 H 299.135 0.758835 -1.899 0
M  V30 3261 H 297.29 3.23058 -2.13805 0
M  V30 3262 H 297.704 2.95358 -4.33433 0
M  V30 3263 H 299.178 4.36874 -3.37409 0
M  V30 3264 H 299.655 4.04592 -1.70886 0
M  V30 3265 H 300.261 3.00058 -3.01405 0
M  V30 3266 N 298.576 1.31904 0.862503 0
M  V30 3267 C 299.506 1.22782 1.98612 0
M  V30 3268 C 300.487 0.113362 1.69722 0
M  V30 3269 O 301.672 0.299218 1.91881 0
M  V30 3270 C 298.802 0.942058 3.34279 0
M  V30 3271 C 297.756 2.0169 3.77499 0
M  V30 3272 C 297.082 1.58369 5.10709 0
M  V30 3273 C 298.382 3.43096 3.93805 0
M  V30 3274 H 300.076 2.16788 2.06502 0
M  V30 3275 H 297.622 1.04366 0.992154 0
M  V30 3276 H 299.575 0.864818 4.1243 0
M  V30 3277 H 298.299 -0.0336603 3.26583 0
M  V30 3278 H 296.958 2.08416 3.01593 0
M  V30 3279 H 296.606 0.595628 4.99461 0
M  V30 3280 H 296.306 2.30279 5.40597 0
M  V30 3281 H 297.83 1.52067 5.91361 0
M  V30 3282 H 299.244 3.39003 4.62331 0
M  V30 3283 H 297.641 4.13288 4.35101 0
M  V30 3284 H 298.711 3.83334 2.96957 0
M  V30 3285 N 300.054 -1.07777 1.14986 0
M  V30 3286 C 301.001 -2.14867 0.842672 0
M  V30 3287 C 301.971 -1.6486 -0.202552 0
M  V30 3288 O 303.156 -1.90668 -0.0710568 0
M  V30 3289 C 300.296 -3.43486 0.333363 0
M  V30 3290 C 299.409 -4.07306 1.43965 0
M  V30 3291 C 298.544 -5.23744 0.886914 0
M  V30 3292 C 297.583 -5.79517 1.97043 0
M  V30 3293 N 296.72 -6.87291 1.4344 0
M  V30 3294 H 301.56 -2.40485 1.75986 0
M  V30 3295 H 299.097 -1.1801 0.878179 0
M  V30 3296 H 301.055 -4.17195 0.0198163 0
M  V30 3297 H 299.685 -3.18133 -0.546916 0
M  V30 3298 H 298.737 -3.31293 1.86946 0
M  V30 3299 H 300.049 -4.44771 2.25788 0
M  V30 3300 H 299.203 -6.04419 0.525651 0
M  V30 3301 H 297.942 -4.87685 0.0377957 0
M  V30 3302 H 296.947 -4.97491 2.34057 0
M  V30 3303 H 298.172 -6.17632 2.82325 0
M  V30 3304 H 296.118 -6.5318 0.607567 0
M  V30 3305 H 296.035 -7.23617 2.18895 0
M  V30 3306 H 297.303 -7.71682 1.10124 0
M  V30 3307 N 301.532 -0.945985 -1.26051 0
M  V30 3308 C 302.781 -0.591836 -1.92822 0
M  V30 3309 C 303.094 0.873956 -1.7499 0
M  V30 3310 O 304.3 1.33769 -2.36259 0
M  V30 3311 C 302.756 -1.00776 -3.45503 0
M  V30 3312 C 302.364 -2.4955 -3.7206 0
M  V30 3313 C 304.108 -0.725735 -4.1825 0
M  V30 3314 C 302.015 -2.84988 -5.18205 0
M  V30 3315 H 300.945 -0.217635 -0.721908 0
M  V30 3316 H 303.596 -1.14927 -1.43052 0
M  V30 3317 H 301.978 -0.378812 -3.94184 0
M  V30 3318 H 303.152 -3.1739 -3.34066 0
M  V30 3319 H 301.467 -2.75133 -3.12555 0
M  V30 3320 H 304.064 -0.966771 -5.25887 0
M  V30 3321 H 304.407 0.337639 -4.14929 0
M  V30 3322 H 304.94 -1.31463 -3.7545 0
M  V30 3323 H 301.679 -3.90307 -5.26631 0
M  V30 3324 H 301.199 -2.21813 -5.57278 0
M  V30 3325 H 302.878 -2.73712 -5.86252 0
M  V30 3326 N 303.011 1.40521 -0.713556 0
M  V30 3327 C 303.941 2.33381 -0.0743864 0
M  V30 3328 C 304.922 1.52784 0.747735 0
M  V30 3329 O 306.107 1.81258 0.697071 0
M  V30 3330 C 303.237 3.36748 0.849598 0
M  V30 3331 C 302.191 4.27793 0.133247 0
M  V30 3332 C 301.517 5.21679 1.17281 0
M  V30 3333 C 302.817 5.12415 -1.01134 0
M  V30 3334 H 304.511 2.87081 -0.850007 0
M  V30 3335 H 302.057 1.38034 -0.410201 0
M  V30 3336 H 304.01 4.00648 1.30612 0
M  V30 3337 H 302.734 2.81439 1.65709 0
M  V30 3338 H 301.393 3.65342 -0.303426 0
M  V30 3339 H 301.041 4.62677 1.9733 0
M  V30 3340 H 300.741 5.83435 0.698397 0
M  V30 3341 H 302.265 5.88456 1.62947 0
M  V30 3342 H 303.679 5.69781 -0.634274 0
M  V30 3343 H 302.076 5.83203 -1.41399 0
M  V30 3344 H 303.146 4.48514 -1.84292 0
M  V30 3345 N 304.489 0.459591 1.5075 0
M  V30 3346 C 305.766 -0.160371 1.94941 0
M  V30 3347 C 306.146 -1.58048 1.39943 0
M  V30 3348 O 305.494 -2.206 0.595629 0
M  V30 3349 C 305.704 -0.115432 3.48809 0
M  V30 3350 C 307.052 -0.310026 4.23467 0
M  V30 3351 O 308.076 -0.192543 3.55679 0
M  V30 3352 O 306.935 -0.546031 5.43765 0
M  V30 3353 H 304.029 -0.117925 0.818549 0
M  V30 3354 H 306.575 0.519169 1.61563 0
M  V30 3355 H 305.347 0.87652 3.81357 0
M  V30 3356 H 304.97 -0.836928 3.88692 0
M  V30 3357 N 305.967 -1.56429 0.191757 0
M  V30 3358 C 307.214 -1.97485 -0.447891 0
M  V30 3359 C 307.542 -1.07852 -1.61859 0
M  V30 3360 O 306.797 -0.116903 -1.95351 0
M  V30 3361 C 307.096 -3.44449 -0.953384 0
M  V30 3362 C 306.762 -4.50781 0.103586 0
M  V30 3363 C 305.424 -4.79584 0.394023 0
M  V30 3364 C 307.776 -5.1471 0.819946 0
M  V30 3365 C 305.104 -5.69607 1.40585 0
M  V30 3366 C 307.456 -6.05827 1.8209 0
M  V30 3367 C 306.12 -6.32987 2.11857 0
M  V30 3368 H 305.39 -0.722648 -0.163895 0
M  V30 3369 H 308.037 -1.89322 0.28802 0
M  V30 3370 H 306.342 -3.49666 -1.76751 0
M  V30 3371 H 308.039 -3.73569 -1.45765 0
M  V30 3372 H 304.629 -4.28394 -0.132951 0
M  V30 3373 H 308.813 -4.92552 0.608789 0
M  V30 3374 H 304.069 -5.88926 1.64243 0
M  V30 3375 H 308.243 -6.54424 2.38123 0
M  V30 3376 H 305.87 -7.02544 2.90407 0
M  V30 3377 N 307.445 0.0818655 -1.57387 0
M  V30 3378 C 308.693 0.781368 -1.86384 0
M  V30 3379 C 309.014 1.78618 -0.782342 0
M  V30 3380 O 308.284 1.94976 0.190061 0
M  V30 3381 H 306.864 0.291562 -0.687751 0
M  V30 3382 H 309.526 0.060348 -1.94807 0
M  V30 3383 H 308.622 1.3038 -2.83562 0
M  V30 3384 N 308.923 1.53595 0.353017 0
M  V30 3385 C 309.853 1.83902 1.43883 0
M  V30 3386 C 310.834 0.693421 1.55324 0
M  V30 3387 O 312.019 0.944452 1.69687 0
M  V30 3388 C 309.149 2.04016 2.8106 0
M  V30 3389 C 308.103 3.19814 2.84434 0
M  V30 3390 C 307.429 3.25244 4.24406 0
M  V30 3391 C 308.729 4.58133 2.50822 0
M  V30 3392 H 310.423 2.74835 1.1877 0
M  V30 3393 H 307.969 1.32242 0.569917 0
M  V30 3394 H 309.922 2.238 3.57059 0
M  V30 3395 H 308.646 1.09804 3.07588 0
M  V30 3396 H 307.305 2.9987 2.10887 0
M  V30 3397 H 306.953 2.28646 4.48029 0
M  V30 3398 H 306.653 4.03054 4.27576 0
M  V30 3399 H 308.177 3.47228 5.0226 0
M  V30 3400 H 309.591 4.77995 3.16534 0
M  V30 3401 H 307.988 5.38276 2.6529 0
M  V30 3402 H 309.058 4.62387 1.46034 0
M  V30 3403 N 310.401 -0.613514 1.45168 0
M  V30 3404 C 311.364 -1.7065 1.53007 0
M  V30 3405 C 312.364 -1.5548 0.410184 0
M  V30 3406 O 313.554 -1.60656 0.673455 0
M  V30 3407 C 310.686 -3.09875 1.42093 0
M  V30 3408 H 311.879 -1.65068 2.50385 0
M  V30 3409 H 309.432 -0.828728 1.32521 0
M  V30 3410 H 310.167 -3.21039 0.458769 0
M  V30 3411 H 309.952 -3.22293 2.23315 0
M  V30 3412 H 311.442 -3.895 1.50598 0
M  V30 3413 N 311.879 -1.3236 -0.855495 0
M  V30 3414 C 313.295 -1.11332 -1.14356 0
M  V30 3415 C 313.495 0.106751 -2.01217 0
M  V30 3416 O 312.551 0.791891 -2.39761 0
M  V30 3417 C 313.864 -2.39237 -1.82171 0
M  V30 3418 C 315.412 -2.44986 -1.9481 0
M  V30 3419 C 315.887 -3.7281 -2.66039 0
M  V30 3420 N 317.378 -3.73787 -2.73565 0
M  V30 3421 C 318.113 -4.69394 -3.29327 0
M  V30 3422 N 317.609 -5.75367 -3.85907 0
M  V30 3423 N 319.402 -4.56893 -3.27423 0
M  V30 3424 H 311.553 -2.10586 -0.277027 0
M  V30 3425 H 313.816 -0.929701 -0.185364 0
M  V30 3426 H 313.522 -3.28431 -1.25802 0
M  V30 3427 H 313.396 -2.50134 -2.82335 0
M  V30 3428 H 315.783 -1.56252 -2.50338 0
M  V30 3429 H 315.864 -2.38043 -0.936448 0
M  V30 3430 H 315.508 -4.61918 -2.11174 0
M  V30 3431 H 315.438 -3.77024 -3.67642 0
M  V30 3432 H 317.929 -2.97189 -2.33424 0
M  V30 3433 H 318.242 -6.44378 -4.26611 0
M  V30 3434 H 316.587 -5.79123 -3.84242 0
M  V30 3435 H 319.778 -3.73269 -2.82467 0
M  V30 3436 H 319.951 -5.31577 -3.7058 0
M  V30 3437 N 313.357 1.07166 -1.15556 0
M  V30 3438 C 314.585 1.83514 -0.955519 0
M  V30 3439 C 315 1.82163 0.49621 0
M  V30 3440 O 314.357 1.23441 1.34419 0
M  V30 3441 C 314.408 3.30515 -1.46432 0
M  V30 3442 O 314.129 3.31937 -2.85918 0
M  V30 3443 C 315.63 4.23625 -1.30603 0
M  V30 3444 H 312.85 0.578926 -0.339244 0
M  V30 3445 H 315.394 1.35265 -1.53374 0
M  V30 3446 H 313.549 3.76106 -0.928584 0
M  V30 3447 H 313.963 4.23794 -3.09029 0
M  V30 3448 H 315.437 5.24831 -1.71047 0
M  V30 3449 H 315.914 4.38485 -0.250441 0
M  V30 3450 H 316.52 3.83871 -1.83094 0
M  V30 3451 N 314.835 0.952656 1.25548 0
M  V30 3452 C 315.798 0.475794 2.24207 0
M  V30 3453 C 316.798 -0.419428 1.55234 0
M  V30 3454 O 317.988 -0.216994 1.72843 0
M  V30 3455 C 315.12 -0.312814 3.39462 0
M  V30 3456 H 316.313 1.34779 2.67908 0
M  V30 3457 H 313.866 0.735739 1.37901 0
M  V30 3458 H 314.601 -1.20257 3.01179 0
M  V30 3459 H 314.386 0.329404 3.90714 0
M  V30 3460 H 315.876 -0.635986 4.12729 0
M  V30 3461 N 316.313 -1.40141 0.720998 0
M  V30 3462 C 317.561 -2.0039 0.262323 0
M  V30 3463 C 317.882 -1.57469 -1.15015 0
M  V30 3464 O 317.152 -0.816582 -1.78069 0
M  V30 3465 H 315.732 -0.741063 0.093996 0
M  V30 3466 H 318.394 -1.71398 0.927835 0
M  V30 3467 H 317.49 -3.10658 0.299671 0
M  V30 3468 N 317.792 -0.46758 -1.50504 0
M  V30 3469 C 319.02 0.0864133 -2.06719 0
M  V30 3470 C 319.435 1.33819 -1.33184 0
M  V30 3471 O 318.792 1.78061 -0.400083 0
M  V30 3472 C 318.843 0.378079 -3.59517 0
M  V30 3473 O 318.564 -0.824044 -4.3028 0
M  V30 3474 C 320.065 0.979426 -4.32345 0
M  V30 3475 H 317.285 -0.00551697 -0.670977 0
M  V30 3476 H 319.829 -0.655354 -1.93715 0
M  V30 3477 H 317.984 1.06977 -3.72337 0
M  V30 3478 H 318.398 -0.566518 -5.21432 0
M  V30 3479 H 319.872 1.1333 -5.40241 0
M  V30 3480 H 320.349 1.9686 -3.9261 0
M  V30 3481 H 320.955 0.326216 -4.24047 0
M  V30 3482 N 319.27 1.56325 -0.20005 0
M  V30 3483 C 320.495 2.02548 0.44597 0
M  V30 3484 C 320.92 1.07922 1.5406 0
M  V30 3485 O 320.278 0.0635775 1.81188 0
M  V30 3486 C 320.326 3.47175 0.974761 0
M  V30 3487 O 319.43 3.55671 2.08739 0
M  V30 3488 H 318.771 0.655862 0.103638 0
M  V30 3489 H 321.301 2.02201 -0.312381 0
M  V30 3490 H 321.311 3.87067 1.2901 0
M  V30 3491 H 319.986 4.15538 0.17347 0
M  V30 3492 H 318.563 3.27657 1.78032 0
M  V30 3493 N 320.748 -0.0735177 1.57428 0
M  V30 3494 C 321.995 -0.772999 1.87166 0
M  V30 3495 C 322.323 -1.77665 0.791551 0
M  V30 3496 O 321.578 -1.94541 -0.212636 0
M  V30 3497 C 321.877 -1.51799 3.23561 0
M  V30 3498 C 321.543 -0.654484 4.46125 0
M  V30 3499 C 320.205 -0.416511 4.79394 0
M  V30 3500 C 322.557 -0.0555862 5.2117 0
M  V30 3501 C 319.885 0.429869 5.85123 0
M  V30 3502 C 322.237 0.778239 6.27795 0
M  V30 3503 C 320.901 1.0261 6.59566 0
M  V30 3504 H 320.171 -0.282861 0.684888 0
M  V30 3505 H 322.818 -0.0338272 1.9147 0
M  V30 3506 H 321.123 -2.32932 3.1504 0
M  V30 3507 H 322.82 -2.06397 3.43804 0
M  V30 3508 H 319.41 -0.850091 4.20085 0
M  V30 3509 H 323.594 -0.226558 4.95783 0
M  V30 3510 H 318.85 0.630665 6.08139 0
M  V30 3511 H 323.024 1.24906 6.85107 0
M  V30 3512 H 320.651 1.68371 7.4132 0
M  V30 3513 N 322.226 -1.5378 -0.344866 0
M  V30 3514 C 323.159 -1.7649 -1.4466 0
M  V30 3515 C 324.137 -0.613954 -1.50563 0
M  V30 3516 O 325.321 -0.84896 -1.683 0
M  V30 3517 C 322.448 -1.86235 -2.82903 0
M  V30 3518 C 321.494 -3.08375 -2.94631 0
M  V30 3519 S 322.327 -4.67457 -2.61236 0
M  V30 3520 C 323.483 -4.80079 -4.0159 0
M  V30 3521 H 323.716 -2.69661 -1.2518 0
M  V30 3522 H 321.249 -1.44632 -0.540455 0
M  V30 3523 H 323.207 -1.92535 -3.62547 0
M  V30 3524 H 321.868 -0.940786 -2.9968 0
M  V30 3525 H 321.061 -3.11865 -3.95925 0
M  V30 3526 H 320.663 -3.00294 -2.22934 0
M  V30 3527 H 322.955 -4.61407 -4.96094 0
M  V30 3528 H 323.898 -5.82168 -4.03095 0
M  V30 3529 H 324.306 -4.08544 -3.89554 0
M  V30 3530 N 323.704 0.605807 -1.45491 0
M  V30 3531 C 324.637 1.73022 -1.48791 0
M  V30 3532 C 325.615 1.58917 -0.344112 0
M  V30 3533 O 326.799 1.80453 -0.544876 0
M  V30 3534 C 323.926 3.10865 -1.34463 0
M  V30 3535 C 322.972 3.43554 -2.5273 0
M  V30 3536 S 323.805 3.38196 -4.15191 0
M  V30 3537 C 324.961 4.78616 -4.03333 0
M  V30 3538 H 325.194 1.69961 -2.43928 0
M  V30 3539 H 322.727 0.782611 -1.33096 0
M  V30 3540 H 324.685 3.90398 -1.26884 0
M  V30 3541 H 323.346 3.1144 -0.40794 0
M  V30 3542 H 322.539 4.43924 -2.38637 0
M  V30 3543 H 322.141 2.71541 -2.5718 0
M  V30 3544 H 324.433 5.68463 -3.68587 0
M  V30 3545 H 325.376 4.97767 -5.03621 0
M  V30 3546 H 325.784 4.54381 -3.34959 0
M  V30 3547 N 325.182 1.32811 0.848464 0
M  V30 3548 C 326.41 1.26739 1.63538 0
M  V30 3549 C 326.825 -0.163484 1.88091 0
M  V30 3550 O 326.182 -1.10258 1.45429 0
M  V30 3551 C 326.233 2.03013 2.99112 0
M  V30 3552 O 325.954 3.40518 2.75643 0
M  V30 3553 C 327.455 2.04038 3.93552 0
M  V30 3554 H 324.675 0.437024 0.509167 0
M  V30 3555 H 327.219 1.75033 1.05753 0
M  V30 3556 H 325.374 1.58426 3.53525 0
M  V30 3557 H 325.788 3.79635 3.61908 0
M  V30 3558 H 327.262 2.61877 4.85926 0
M  V30 3559 H 327.739 1.0282 4.26995 0
M  V30 3560 H 328.345 2.486 3.45077 0
M  V30 3561 N 326.66 -1.06551 1.16123 0
M  V30 3562 C 328.071 -1.60768 0.949232 0
M  V30 3563 C 328.422 -1.89523 -0.507508 0
M  V30 3564 O 327.547 -1.66671 -1.38021 0
M  V30 3565 C 328.142 -2.92086 1.71671 0
M  V30 3566 C 326.701 -3.43015 1.54977 0
M  V30 3567 C 325.848 -2.16947 1.72711 0
M  V30 3568 H 328.799 -0.895354 1.31031 0
M  V30 3569 H 328.82 -3.6138 1.19099 0
M  V30 3570 H 328.332 -2.71127 2.7769 0
M  V30 3571 H 326.433 -3.69039 0.513873 0
M  V30 3572 H 326.546 -4.18516 2.33198 0
M  V30 3573 H 324.91 -2.27041 1.15431 0
M  V30 3574 H 325.693 -1.98473 2.80113 0
M  V30 3575 N 328.138 -0.959301 -1.25041 0
M  V30 3576 C 329.368 -0.63303 -1.96663 0
M  V30 3577 C 329.776 0.800031 -1.71453 0
M  V30 3578 O 329.119 1.54736 -0.99008 0
M  V30 3579 C 329.181 -0.817523 -3.50081 0
M  V30 3580 C 328.845 -2.22863 -3.98975 0
M  V30 3581 C 329.842 -3.20569 -4.09306 0
M  V30 3582 C 327.527 -2.55407 -4.32519 0
M  V30 3583 C 329.521 -4.4891 -4.52503 0
M  V30 3584 C 327.208 -3.83976 -4.754 0
M  V30 3585 C 328.206 -4.8054 -4.85356 0
M  V30 3586 O 327.894 -6.06817 -5.27284 0
M  V30 3587 H 327.626 -0.235866 -0.633516 0
M  V30 3588 H 330.18 -1.2874 -1.60047 0
M  V30 3589 H 328.41 -0.105992 -3.86555 0
M  V30 3590 H 330.099 -0.491604 -4.02912 0
M  V30 3591 H 330.865 -2.96753 -3.83618 0
M  V30 3592 H 326.744 -1.8097 -4.23994 0
M  V30 3593 H 330.288 -5.24283 -4.60188 0
M  V30 3594 H 326.185 -4.07596 -5.00535 0
M  V30 3595 H 326.953 -6.10262 -5.45457 0
M  V30 3596 N 329.616 1.39756 -0.72842 0
M  V30 3597 C 330.862 2.00942 -0.273892 0
M  V30 3598 C 331.195 1.57656 1.13394 0
M  V30 3599 O 330.47 0.802434 1.77176 0
M  V30 3600 C 330.753 3.58211 -0.368346 0
M  V30 3601 C 330.606 4.11534 -1.81548 0
M  V30 3602 C 331.925 4.39372 0.253054 0
M  V30 3603 H 329.044 0.730047 -0.100996 0
M  V30 3604 H 331.686 1.66056 -0.923337 0
M  V30 3605 H 329.836 3.88061 0.184588 0
M  V30 3606 H 331.508 3.92431 -2.42478 0
M  V30 3607 H 329.751 3.65341 -2.33898 0
M  V30 3608 H 330.422 5.20682 -1.83288 0
M  V30 3609 H 332.898 4.15527 -0.218224 0
M  V30 3610 H 331.774 5.48677 0.156585 0
M  V30 3611 H 332.035 4.21358 1.33826 0
M  V30 3612 N 331.094 0.475555 1.50254 0
M  V30 3613 C 332.34 -0.0780073 2.0265 0
M  V30 3614 C 332.673 -1.38968 1.35652 0
M  V30 3615 O 331.948 -1.8839 0.483691 0
M  V30 3616 C 332.231 -0.257161 3.59181 0
M  V30 3617 C 332.084 1.07585 4.36744 0
M  V30 3618 C 333.403 -1.00965 4.28362 0
M  V30 3619 H 330.522 -0.0268758 0.73651 0
M  V30 3620 H 333.164 0.622015 1.7953 0
M  V30 3621 H 331.314 -0.853412 3.79011 0
M  V30 3622 H 332.986 1.70902 4.28474 0
M  V30 3623 H 331.229 1.6714 4.00308 0
M  V30 3624 H 331.9 0.904088 5.44546 0
M  V30 3625 H 334.376 -0.504214 4.13034 0
M  V30 3626 H 333.252 -1.10381 5.37687 0
M  V30 3627 H 333.513 -2.04731 3.91839 0
M  V30 3628 N 332.573 -1.56217 0.208337 0
M  V30 3629 C 333.801 -2.02337 -0.43215 0
M  V30 3630 C 334.216 -1.08834 -1.54275 0
M  V30 3631 O 333.573 -0.0955462 -1.8225 0
M  V30 3632 C 333.624 -3.48072 -0.976138 0
M  V30 3633 O 333.345 -4.38007 0.0901621 0
M  V30 3634 C 334.846 -4.09773 -1.69119 0
M  V30 3635 H 332.066 -0.662385 -0.10718 0
M  V30 3636 H 334.61 -2.01966 0.320923 0
M  V30 3637 H 332.765 -3.49099 -1.67954 0
M  V30 3638 H 333.179 -5.23543 -0.316701 0
M  V30 3639 H 334.653 -5.13556 -2.02397 0
M  V30 3640 H 335.13 -3.53999 -2.59964 0
M  V30 3641 H 335.736 -4.12556 -1.03332 0
M  V30 3642 N 334.051 0.0651679 -1.57465 0
M  V30 3643 C 335.467 0.420105 -1.53972 0
M  V30 3644 C 335.667 1.78782 -0.929474 0
M  V30 3645 O 334.723 2.46771 -0.534839 0
M  V30 3646 C 336.036 0.355084 -2.98596 0
M  V30 3647 C 337.584 0.434792 -3.09965 0
M  V30 3648 C 338.059 0.399609 -4.56253 0
M  V30 3649 N 339.55 0.459488 -4.60915 0
M  V30 3650 C 340.285 0.454584 -5.71595 0
M  V30 3651 N 339.781 0.404102 -6.9162 0
M  V30 3652 N 341.574 0.501635 -5.59857 0
M  V30 3653 H 333.725 -0.830328 -1.95498 0
M  V30 3654 H 335.988 -0.312244 -0.895102 0
M  V30 3655 H 335.694 -0.583357 -3.46828 0
M  V30 3656 H 335.568 1.16275 -3.58831 0
M  V30 3657 H 337.955 1.36366 -2.61703 0
M  V30 3658 H 338.036 -0.40157 -2.52628 0
M  V30 3659 H 337.68 -0.525436 -5.05175 0
M  V30 3660 H 337.61 1.25359 -5.11461 0
M  V30 3661 H 340.101 0.502482 -3.74544 0
M  V30 3662 H 340.414 0.404468 -7.71741 0
M  V30 3663 H 338.759 0.37069 -6.94011 0
M  V30 3664 H 341.95 0.538812 -4.64989 0
M  V30 3665 H 342.123 0.494345 -6.46112 0
M  V30 3666 N 335.529 1.53961 0.336706 0
M  V30 3667 C 336.759 1.75229 1.09446 0
M  V30 3668 C 337.167 0.494602 1.82621 0
M  V30 3669 O 336.51 -0.543764 1.75468 0
M  V30 3670 C 336.572 2.88288 2.1478 0
M  V30 3671 C 336.236 4.27656 1.6112 0
M  V30 3672 C 337.233 5.08981 1.0599 0
M  V30 3673 C 334.918 4.74161 1.6576 0
M  V30 3674 C 336.912 6.34916 0.562129 0
M  V30 3675 C 334.599 6.00067 1.15595 0
M  V30 3676 C 335.597 6.80278 0.609147 0
M  V30 3677 O 335.285 8.03818 0.114999 0
M  V30 3678 H 335.017 0.588881 0.331956 0
M  V30 3679 H 337.571 2.01614 0.392566 0
M  V30 3680 H 335.801 2.57443 2.88548 0
M  V30 3681 H 337.49 2.97461 2.76174 0
M  V30 3682 H 338.256 4.74213 1.01722 0
M  V30 3683 H 334.135 4.11781 2.07261 0
M  V30 3684 H 337.679 6.9747 0.134668 0
M  V30 3685 H 333.576 6.3433 1.19566 0
M  V30 3686 H 334.344 8.18172 0.231651 0
M  V30 3687 N 337.007 -0.598083 1.45811 0
M  V30 3688 C 338.237 -1.38121 1.53643 0
M  V30 3689 C 338.645 -1.88425 0.171081 0
M  V30 3690 O 337.988 -1.63409 -0.839237 0
M  V30 3691 C 338.05 -2.61432 2.46766 0
M  V30 3692 C 337.714 -2.32702 3.93318 0
M  V30 3693 C 338.711 -1.92479 4.82957 0
M  V30 3694 C 336.396 -2.45321 4.38318 0
M  V30 3695 C 338.39 -1.65248 6.15607 0
M  V30 3696 C 336.077 -2.17703 5.71007 0
M  V30 3697 C 337.075 -1.7773 6.5947 0
M  V30 3698 O 336.763 -1.50441 7.89698 0
M  V30 3699 H 336.495 -0.428863 0.522544 0
M  V30 3700 H 339.049 -0.73557 1.91777 0
M  V30 3701 H 337.279 -3.28749 2.0362 0
M  V30 3702 H 338.968 -3.23487 2.45175 0
M  V30 3703 H 339.734 -1.82258 4.49452 0
M  V30 3704 H 335.613 -2.75399 3.69697 0
M  V30 3705 H 339.157 -1.33973 6.84614 0
M  V30 3706 H 335.054 -2.27544 6.04065 0
M  V30 3707 H 335.822 -1.64415 8.01817 0
M  V30 3708 N 338.485 -1.33259 -0.841409 0
M  V30 3709 C 339.901 -1.12538 -1.13169 0
M  V30 3710 C 340.101 0.0854037 -2.01319 0
M  V30 3711 O 339.157 0.766417 -2.40587 0
M  V30 3712 C 340.47 -2.41156 -1.79623 0
M  V30 3713 C 342.018 -2.47038 -1.922 0
M  V30 3714 C 342.493 -3.7561 -2.6207 0
M  V30 3715 N 343.984 -3.76667 -2.69585 0
M  V30 3716 C 344.719 -4.72861 -3.2433 0
M  V30 3717 N 344.215 -5.79428 -3.79783 0
M  V30 3718 N 346.008 -4.6034 -3.22558 0
M  V30 3719 H 338.159 -2.10868 -0.254676 0
M  V30 3720 H 340.422 -0.931615 -0.175493 0
M  V30 3721 H 340.128 -3.29747 -1.22311 0
M  V30 3722 H 340.002 -2.53114 -2.79666 0
M  V30 3723 H 342.389 -1.58898 -2.48667 0
M  V30 3724 H 342.47 -2.39022 -0.911148 0
M  V30 3725 H 342.114 -4.64131 -2.06263 0
M  V30 3726 H 342.044 -3.80902 -3.63622 0
M  V30 3727 H 344.535 -2.99648 -2.30259 0
M  V30 3728 H 344.848 -6.48867 -4.19752 0
M  V30 3729 H 343.193 -5.83166 -3.78078 0
M  V30 3730 H 346.384 -3.76244 -2.78492 0
M  V30 3731 H 346.557 -5.35478 -3.64921 0
M  V30 3732 N 339.963 1.05934 -1.16686 0
M  V30 3733 C 340.926 2.11669 -0.879144 0
M  V30 3734 C 341.926 1.60294 0.127445 0
M  V30 3735 O 343.116 1.7389 -0.103865 0
M  V30 3736 C 340.248 3.39438 -0.315425 0
M  V30 3737 H 341.441 2.38626 -1.81653 0
M  V30 3738 H 338.994 1.22058 -0.976299 0
M  V30 3739 H 339.729 3.18132 0.629468 0
M  V30 3740 H 339.514 3.78034 -1.04079 0
M  V30 3741 H 341.004 4.17391 -0.132189 0
M  V30 3742 N 341.441 0.965919 1.2453 0
M  V30 3743 C 342.852 0.665929 1.7442 0
M  V30 3744 C 343.203 -0.818407 1.78316 0
M  V30 3745 O 342.328 -1.64037 1.41141 0
M  V30 3746 C 342.923 1.20211 3.16757 0
M  V30 3747 C 341.482 0.952059 3.6416 0
M  V30 3748 C 340.629 1.33848 2.42858 0
M  V30 3749 H 343.58 1.14144 1.10258 0
M  V30 3750 H 343.601 0.567544 3.76244 0
M  V30 3751 H 343.113 2.28244 3.13889 0
M  V30 3752 H 341.214 -0.112821 3.72429 0
M  V30 3753 H 341.327 1.59645 4.51719 0
M  V30 3754 H 339.691 0.756864 2.43195 0
M  V30 3755 H 340.474 2.42827 2.42673 0
M  V30 3756 N 342.919 -1.39368 0.735821 0
M  V30 3757 C 343.829 -2.34395 0.0979693 0
M  V30 3758 C 344.845 -1.58361 -0.720968 0
M  V30 3759 O 346.021 -1.90648 -0.649245 0
M  V30 3760 C 343.086 -3.37393 -0.797916 0
M  V30 3761 C 342.147 -4.29287 0.0333662 0
M  V30 3762 C 341.38 -5.27365 -0.819854 0
M  V30 3763 O 341.603 -5.31959 -2.05855 0
M  V30 3764 O 340.537 -6.01389 -0.248079 0
M  V30 3765 H 344.363 -2.90601 0.882315 0
M  V30 3766 H 341.948 -1.40909 0.4965 0
M  V30 3767 H 343.83 -4.00505 -1.31048 0
M  V30 3768 H 342.505 -2.83571 -1.56106 0
M  V30 3769 H 341.412 -3.69395 0.591475 0
M  V30 3770 H 342.745 -4.86317 0.758752 0
M  V30 3771 N 344.397 -0.483516 -1.5 0
M  V30 3772 C 345.643 0.0672592 -2.02688 0
M  V30 3773 C 345.976 1.38247 -1.36387 0
M  V30 3774 O 345.251 1.88131 -0.493675 0
M  V30 3775 C 345.534 0.238109 -3.59312 0
M  V30 3776 C 345.387 -1.099 -4.36168 0
M  V30 3777 C 346.706 0.986916 -4.28892 0
M  V30 3778 H 343.825 0.0229696 -0.736642 0
M  V30 3779 H 346.467 -0.631527 -1.79197 0
M  V30 3780 H 344.617 0.8333 -3.79458 0
M  V30 3781 H 346.289 -1.73172 -4.27562 0
M  V30 3782 H 344.532 -1.69261 -3.99416 0
M  V30 3783 H 345.203 -0.932954 -5.44059 0
M  V30 3784 H 347.679 0.482302 -4.13295 0
M  V30 3785 H 346.555 1.07527 -5.38265 0
M  V30 3786 H 346.816 2.0265 -3.92919 0
M  V30 3787 N 345.875 1.56104 -0.216619 0
M  V30 3788 C 347.124 1.97348 0.416744 0
M  V30 3789 C 347.437 1.10715 1.6125 0
M  V30 3790 O 348.643 1.41836 2.31506 0
M  V30 3791 C 347.099 3.51059 0.792835 0
M  V30 3792 C 346.707 4.46387 -0.379828 0
M  V30 3793 C 348.451 4.01026 1.39208 0
M  V30 3794 C 346.358 5.91397 0.0184223 0
M  V30 3795 H 345.288 0.736942 0.159475 0
M  V30 3796 H 347.939 1.80827 -0.31205 0
M  V30 3797 H 346.321 3.63162 1.57891 0
M  V30 3798 H 347.495 4.46029 -1.15737 0
M  V30 3799 H 345.81 4.06734 -0.891979 0
M  V30 3800 H 348.407 5.0686 1.70286 0
M  V30 3801 H 348.75 3.46587 2.30614 0
M  V30 3802 H 349.283 3.92125 0.669537 0
M  V30 3803 H 346.022 6.49807 -0.862002 0
M  V30 3804 H 345.542 5.94961 0.760384 0
M  V30 3805 H 347.221 6.45455 0.446818 0
M  V30 3806 N 347.353 -0.0568162 1.57498 0
M  V30 3807 C 348.283 -1.06593 2.0775 0
M  V30 3808 C 349.264 -1.39448 0.974082 0
M  V30 3809 O 350.449 -1.48815 1.24771 0
M  V30 3810 C 347.579 -2.37509 2.5339 0
M  V30 3811 C 346.533 -2.1897 3.67745 0
M  V30 3812 C 345.859 -3.55402 3.99492 0
M  V30 3813 C 347.159 -1.59859 4.97235 0
M  V30 3814 H 348.853 -0.647706 2.9231 0
M  V30 3815 H 346.399 -0.310116 1.40621 0
M  V30 3816 H 348.352 -3.08409 2.87162 0
M  V30 3817 H 347.076 -2.8134 1.65878 0
M  V30 3818 H 345.735 -1.50508 3.3428 0
M  V30 3819 H 345.383 -3.9683 3.09088 0
M  V30 3820 H 345.083 -3.43831 4.76502 0
M  V30 3821 H 346.607 -4.27708 4.35773 0
M  V30 3822 H 348.021 -2.20642 5.29141 0
M  V30 3823 H 346.418 -1.58942 5.78669 0
M  V30 3824 H 347.488 -0.561506 4.81638 0
M  V30 3825 N 348.832 -1.54138 -0.328536 0
M  V30 3826 C 350.08 -1.71765 -1.06496 0
M  V30 3827 C 350.401 -0.49149 -1.88704 0
M  V30 3828 O 349.671 0.494539 -1.89555 0
M  V30 3829 H 348.251 -0.633295 -0.396164 0
M  V30 3830 H 350.913 -1.91429 -0.366176 0
M  V30 3831 H 350.009 -2.5951 -1.73381 0
M  V30 3832 N 350.31 0.590341 -1.46126 0
M  V30 3833 C 351.243 1.71434 -1.50617 0
M  V30 3834 C 352.221 1.58543 -0.360948 0
M  V30 3835 O 353.405 1.79865 -0.563985 0
M  V30 3836 C 350.532 3.09422 -1.37753 0
M  V30 3837 C 349.578 3.40854 -2.5636 0
M  V30 3838 S 350.411 3.33773 -4.18755 0
M  V30 3839 C 351.567 4.74312 -4.08386 0
M  V30 3840 H 351.8 1.67364 -2.45717 0
M  V30 3841 H 349.333 0.76845 -1.33919 0
M  V30 3842 H 351.291 3.8903 -1.31018 0
M  V30 3843 H 349.952 3.10989 -0.440949 0
M  V30 3844 H 349.145 4.41368 -2.43332 0
M  V30 3845 H 348.747 2.68798 -2.60046 0
M  V30 3846 H 351.039 5.64522 -3.74595 0
M  V30 3847 H 351.982 4.92397 -5.08872 0
M  V30 3848 H 352.39 4.50803 -3.3976 0
M  V30 3849 N 351.788 1.33704 0.83433 0
M  V30 3850 C 353.036 1.25169 1.58673 0
M  V30 3851 C 353.357 -0.18127 1.94156 0
M  V30 3852 O 352.627 -1.11113 1.6134 0
M  V30 3853 H 351.207 0.4603 0.58833 0
M  V30 3854 H 353.869 1.67478 0.996847 0
M  V30 3855 H 352.965 1.84856 2.51465 0
M  V30 3856 N 353.266 -1.05314 1.17247 0
M  V30 3857 C 354.496 -1.81707 0.983166 0
M  V30 3858 C 354.904 -1.83222 -0.471822 0
M  V30 3859 O 354.247 -1.25721 -1.3394 0
M  V30 3860 C 354.309 -3.29134 1.44606 0
M  V30 3861 C 353.973 -3.51304 2.92292 0
M  V30 3862 C 354.97 -3.4353 3.90235 0
M  V30 3863 C 352.655 -3.78306 3.30439 0
M  V30 3864 C 354.649 -3.62442 5.24323 0
M  V30 3865 C 352.336 -3.96866 4.64694 0
M  V30 3866 C 353.334 -3.88933 5.61445 0
M  V30 3867 O 353.022 -4.06976 6.93272 0
M  V30 3868 H 352.754 -0.579476 0.348114 0
M  V30 3869 H 355.308 -1.33705 1.55924 0
M  V30 3870 H 353.538 -3.78046 0.813537 0
M  V30 3871 H 355.227 -3.87049 1.22262 0
M  V30 3872 H 355.993 -3.22648 3.62109 0
M  V30 3873 H 351.872 -3.83585 2.55702 0
M  V30 3874 H 355.416 -3.56165 5.99827 0
M  V30 3875 H 351.313 -4.1724 4.92525 0
M  V30 3876 H 352.081 -4.24209 6.99992 0
M  V30 3877 N 354.744 -0.972509 -1.24016 0
M  V30 3878 C 355.691 -0.505969 -2.25186 0
M  V30 3879 C 356.661 0.451009 -1.5986 0
M  V30 3880 O 357.846 0.360307 -1.87367 0
M  V30 3881 C 354.986 0.193089 -3.44559 0
M  V30 3882 C 354.099 -0.803222 -4.24467 0
M  V30 3883 C 353.234 -0.0797793 -5.3114 0
M  V30 3884 C 352.273 -1.06583 -6.02749 0
M  V30 3885 N 351.41 -0.372074 -7.01113 0
M  V30 3886 H 356.25 -1.37351 -2.64459 0
M  V30 3887 H 353.787 -0.688419 -1.29997 0
M  V30 3888 H 355.745 0.615125 -4.1264 0
M  V30 3889 H 354.375 1.02455 -3.06109 0
M  V30 3890 H 353.427 -1.34368 -3.55878 0
M  V30 3891 H 354.739 -1.55494 -4.73944 0
M  V30 3892 H 353.893 0.400015 -6.0538 0
M  V30 3893 H 352.632 0.704597 -4.82583 0
M  V30 3894 H 351.637 -1.55645 -5.27309 0
M  V30 3895 H 352.862 -1.85074 -6.53395 0
M  V30 3896 H 350.808 0.393238 -6.5482 0
M  V30 3897 H 350.725 -1.06258 -7.48495 0
M  V30 3898 H 351.993 0.0855932 -7.79453 0
M  V30 3899 N 356.222 1.38976 -0.743202 0
M  V30 3900 C 357.132 2.3434 -0.110399 0
M  V30 3901 C 358.148 1.58741 0.712559 0
M  V30 3902 O 359.324 1.9099 0.639125 0
M  V30 3903 C 356.389 3.37812 0.780012 0
M  V30 3904 C 355.45 4.29263 -0.0561319 0
M  V30 3905 C 354.683 5.27793 0.791875 0
M  V30 3906 O 354.906 5.33043 2.03031 0
M  V30 3907 O 353.84 6.01512 0.216183 0
M  V30 3908 H 357.666 2.90129 -0.897714 0
M  V30 3909 H 355.251 1.40643 -0.503966 0
M  V30 3910 H 357.133 4.01194 1.28923 0
M  V30 3911 H 355.808 2.84395 1.546 0
M  V30 3912 H 354.715 3.69076 -0.611056 0
M  V30 3913 H 356.048 4.85907 -0.784531 0
M  V30 3914 N 357.7 0.491464 1.49741 0
M  V30 3915 C 358.648 -0.305837 2.30581 0
M  V30 3916 C 359.642 -0.971642 1.38764 0
M  V30 3917 O 360.848 -0.90042 1.5586 0
M  V30 3918 H 357.223 -0.117482 0.742767 0
M  V30 3919 H 359.194 0.396093 2.95759 0
M  V30 3920 C 357.943 -1.36319 3.19863 0
M  V30 3921 H 357.266 -0.860258 3.90435 0
M  V30 3922 H 358.706 -1.89323 3.79385 0
M  V30 3923 C 357.165 -2.37621 2.38826 0
M  V30 3924 O 357.695 -3.43311 2.08567 0
M  V30 3925 N 355.901 -2.09849 2.01026 0
M  V30 3926 H 355.448 -1.23922 2.25834 0
M  V30 3927 H 355.406 -2.77859 1.47112 0
M  V30 3928 N 359.178 -1.55987 0.224894 0
M  V30 3929 C 360.424 -1.98684 -0.406502 0
M  V30 3930 C 360.757 -1.11248 -1.59177 0
M  V30 3931 O 360.032 -0.170909 -1.93748 0
M  V30 3932 C 360.315 -3.50218 -0.837808 0
M  V30 3933 C 360.168 -4.48426 0.351332 0
M  V30 3934 C 361.487 -4.06243 -1.69278 0
M  V30 3935 H 358.606 -0.722337 -0.146283 0
M  V30 3936 H 361.248 -1.87255 0.321799 0
M  V30 3937 H 359.398 -3.60089 -1.45837 0
M  V30 3938 H 361.07 -4.50562 0.989526 0
M  V30 3939 H 359.313 -4.22159 0.998207 0
M  V30 3940 H 359.984 -5.52 0.00655905 0
M  V30 3941 H 362.46 -3.99337 -1.16914 0
M  V30 3942 H 361.336 -5.12581 -1.96346 0
M  V30 3943 H 361.597 -3.53332 -2.65723 0
M  V30 3944 N 360.656 0.0484629 -1.57525 0
M  V30 3945 C 361.933 0.777447 -1.79486 0
M  V30 3946 C 362.313 1.94597 -0.818251 0
M  V30 3947 O 361.661 2.28047 0.143767 0
M  V30 3948 C 361.871 1.22864 -3.26658 0
M  V30 3949 C 363.219 1.65251 -3.91123 0
M  V30 3950 O 364.243 1.32372 -3.3069 0
M  V30 3951 O 363.102 2.26207 -4.97486 0
M  V30 3952 H 360.196 0.374357 -0.737419 0
M  V30 3953 H 362.742 0.0267359 -1.69679 0
M  V30 3954 H 361.514 0.393589 -3.89316 0
M  V30 3955 H 361.137 2.03996 -3.41279 0
M  V30 3956 N 362.134 1.5431 0.320358 0
M  V30 3957 C 363.383 1.7188 1.05546 0
M  V30 3958 C 363.696 0.501143 1.89071 0
M  V30 3959 O 364.902 0.558258 2.65699 0
M  V30 3960 C 363.358 3.04025 1.92605 0
M  V30 3961 C 362.966 4.33207 1.14176 0
M  V30 3962 C 364.71 3.30959 2.65832 0
M  V30 3963 C 362.617 5.56412 2.00399 0
M  V30 3964 H 361.547 0.640547 0.397763 0
M  V30 3965 H 364.198 1.80802 0.313522 0
M  V30 3966 H 362.58 2.89019 2.7071 0
M  V30 3967 H 363.754 4.58989 0.40819 0
M  V30 3968 H 362.069 4.13062 0.526165 0
M  V30 3969 H 364.666 4.20203 3.30656 0
M  V30 3970 H 365.009 2.48979 3.33639 0
M  V30 3971 H 365.542 3.46847 1.94787 0
M  V30 3972 H 362.281 6.41004 1.37094 0
M  V30 3973 H 361.801 5.34844 2.7148 0
M  V30 3974 H 363.48 5.92938 2.58908 0
M  V30 3975 N 363.613 -0.582584 1.46437 0
M  V30 3976 C 364.859 -1.34064 1.52965 0
M  V30 3977 C 365.214 -1.91566 0.178968 0
M  V30 3978 O 364.507 -1.73526 -0.812365 0
M  V30 3979 C 364.701 -2.48964 2.56421 0
M  V30 3980 C 364.53 -2.02717 4.01417 0
M  V30 3981 C 363.3 -1.87728 4.69134 0
M  V30 3982 C 365.498 -1.58675 4.8921 0
M  V30 3983 N 363.48 -1.35554 5.98747 0
M  V30 3984 C 364.851 -1.18093 6.08649 0
M  V30 3985 C 366.906 -1.46494 4.75861 0
M  V30 3986 C 365.609 -0.665427 7.16215 0
M  V30 3987 C 367.635 -0.96347 5.83499 0
M  V30 3988 C 366.997 -0.567432 7.02111 0
M  V30 3989 H 363.096 -0.483551 0.614575 0
M  V30 3990 H 365.68 -0.663309 1.83053 0
M  V30 3991 H 363.851 -3.1426 2.28244 0
M  V30 3992 H 365.583 -3.15913 2.52944 0
M  V30 3993 H 362.338 -2.09678 4.24655 0
M  V30 3994 H 362.762 -1.11628 6.67734 0
M  V30 3995 H 367.404 -1.75731 3.8455 0
M  V30 3996 H 365.122 -0.360639 8.07295 0
M  V30 3997 H 368.708 -0.873129 5.75211 0
M  V30 3998 H 367.588 -0.185389 7.83981 0
M  V30 3999 N 365.091 -1.34144 -0.827227 0
M  V30 4000 C 366.316 -1.29476 -1.62021 0
M  V30 4001 C 366.741 0.129292 -1.87655 0
M  V30 4002 O 366.099 1.08967 -1.449 0
M  V30 4003 C 366.147 -2.08702 -2.94068 0
M  V30 4004 O 365.251 -1.45359 -3.85933 0
M  V30 4005 H 364.592 -0.444881 -0.492927 0
M  V30 4006 H 367.122 -1.76882 -1.02829 0
M  V30 4007 H 367.132 -2.19898 -3.43669 0
M  V30 4008 H 365.807 -3.12241 -2.74734 0
M  V30 4009 H 364.384 -1.42879 -3.44442 0
M  V30 4010 N 366.569 1.04691 -1.17803 0
M  V30 4011 C 367.815 1.78045 -0.970969 0
M  V30 4012 C 368.148 1.87686 0.498751 0
M  V30 4013 O 367.423 1.38035 1.37027 0
M  V30 4014 C 367.706 3.2166 -1.61884 0
M  V30 4015 C 367.559 3.20001 -3.161 0
M  V30 4016 C 368.878 4.1962 -1.3269 0
M  V30 4017 H 365.997 0.64633 -0.354155 0
M  V30 4018 H 368.639 1.22333 -1.45378 0
M  V30 4019 H 366.789 3.69232 -1.20831 0
M  V30 4020 H 368.461 2.80467 -3.66246 0
M  V30 4021 H 366.704 2.58203 -3.48588 0
M  V30 4022 H 367.375 4.21386 -3.56564 0
M  V30 4023 H 369.851 3.80567 -1.68249 0
M  V30 4024 H 368.727 5.18339 -1.80599 0
M  V30 4025 H 368.988 4.414 -0.248622 0
M  V30 4026 N 368.047 0.979072 1.23499 0
M  V30 4027 C 369.295 0.645941 1.91499 0
M  V30 4028 C 369.616 -0.822948 1.76784 0
M  V30 4029 O 368.886 -1.58854 1.14639 0
M  V30 4030 H 367.466 0.235919 0.708767 0
M  V30 4031 H 370.128 1.2426 1.50152 0
M  V30 4032 H 369.224 0.896411 2.9895 0
M  V30 4033 N 369.525 -1.3858 0.750561 0
M  V30 4034 C 370.765 -2.02032 0.310258 0
M  V30 4035 C 371.129 -1.58288 -1.08668 0
M  V30 4036 O 372.33 -2.14049 -1.62593 0
M  V30 4037 C 370.601 -3.54856 0.425647 0
M  V30 4038 S 372.16 -4.38748 0.0674797 0
M  V30 4039 H 368.978 -0.700705 0.120554 0
M  V30 4040 H 371.58 -1.69134 0.980512 0
M  V30 4041 H 370.284 -3.84182 1.44335 0
M  V30 4042 H 369.815 -3.92527 -0.261894 0
M  V30 4043 H 371.83 -4.82835 -1.14388 0
M  V30 4044 N 371.003 -0.499398 -1.49478 0
M  V30 4045 C 372.252 0.0475259 -2.01644 0
M  V30 4046 C 372.565 1.38195 -1.38425 0
M  V30 4047 O 373.771 2.01547 -1.8191 0
M  V30 4048 C 372.227 0.135164 -3.59646 0
M  V30 4049 C 371.835 -1.19252 -4.31837 0
M  V30 4050 C 373.579 0.632538 -4.19761 0
M  V30 4051 C 371.486 -1.06713 -5.81693 0
M  V30 4052 H 370.416 0.0215349 -0.753692 0
M  V30 4053 H 373.067 -0.638577 -1.7203 0
M  V30 4054 H 371.449 0.885681 -3.85969 0
M  V30 4055 H 372.623 -1.9562 -4.17216 0
M  V30 4056 H 370.938 -1.62321 -3.83459 0
M  V30 4057 H 373.535 0.743833 -5.29501 0
M  V30 4058 H 373.878 1.63098 -3.83021 0
M  V30 4059 H 374.411 -0.0613987 -3.97753 0
M  V30 4060 H 371.15 -2.03979 -6.22955 0
M  V30 4061 H 370.67 -0.344307 -5.98811 0
M  V30 4062 H 372.349 -0.745208 -6.42694 0
M  V30 4063 N 372.481 1.55866 -0.233164 0
M  V30 4064 C 373.414 2.16794 0.712442 0
M  V30 4065 C 374.392 1.1158 1.18273 0
M  V30 4066 O 375.576 1.39897 1.26337 0
M  V30 4067 C 372.703 2.75757 1.96661 0
M  V30 4068 C 371.749 3.93902 1.63533 0
M  V30 4069 S 372.582 5.30223 0.74995 0
M  V30 4070 C 373.738 5.92631 2.01343 0
M  V30 4071 H 373.971 2.96662 0.194617 0
M  V30 4072 H 371.504 1.5439 -0.0177425 0
M  V30 4073 H 373.462 3.10367 2.68668 0
M  V30 4074 H 372.123 1.9586 2.45556 0
M  V30 4075 H 371.316 4.33702 2.56747 0
M  V30 4076 H 370.918 3.60499 0.995804 0
M  V30 4077 H 373.21 6.09312 2.96219 0
M  V30 4078 H 374.153 6.88388 1.65915 0
M  V30 4079 H 374.561 5.21571 2.15925 0
M  V30 4080 N 373.959 -0.0401083 1.57549 0
M  V30 4081 C 375.207 -0.731677 1.8839 0
M  V30 4082 C 375.528 -1.76481 0.829425 0
M  V30 4083 O 374.798 -1.95411 -0.1383 0
M  V30 4084 H 373.378 -0.273225 0.695239 0
M  V30 4085 H 376.04 -0.00867725 1.94898 0
M  V30 4086 H 375.136 -1.22816 2.86919 0
M  V30 4087 N 375.437 -1.54477 -0.31217 0
M  V30 4088 C 376.347 -1.87695 -1.4074 0
M  V30 4089 C 377.363 -0.769975 -1.56036 0
M  V30 4090 O 378.539 -1.06537 -1.70915 0
M  V30 4091 C 375.604 -2.10755 -2.75287 0
M  V30 4092 C 374.665 -3.34514 -2.69071 0
M  V30 4093 C 373.898 -3.56465 -3.97201 0
M  V30 4094 O 374.121 -2.81637 -4.96021 0
M  V30 4095 O 373.055 -4.49964 -3.9977 0
M  V30 4096 H 376.881 -2.80849 -1.15574 0
M  V30 4097 H 374.466 -1.40526 -0.507228 0
M  V30 4098 H 376.348 -2.27188 -3.54913 0
M  V30 4099 H 375.023 -1.20788 -3.0032 0
M  V30 4100 H 373.93 -3.23456 -1.87955 0
M  V30 4101 H 375.263 -4.24575 -2.48992 0
M  V30 4102 N 376.915 0.57481 -1.46744 0
M  V30 4103 C 377.848 1.69827 -1.52427 0
M  V30 4104 C 378.826 1.58151 -0.377744 0
M  V30 4105 O 380.01 1.79257 -0.58303 0
M  V30 4106 C 377.137 3.07943 -1.41027 0
M  V30 4107 C 376.183 3.38116 -2.59961 0
M  V30 4108 S 377.016 3.29313 -4.22272 0
M  V30 4109 C 378.172 4.69953 -4.13394 0
M  V30 4110 H 378.405 1.64748 -2.47478 0
M  V30 4111 H 375.938 0.754203 -1.34726 0
M  V30 4112 H 377.896 3.87619 -1.35137 0
M  V30 4113 H 376.557 3.10504 -0.473909 0
M  V30 4114 H 375.75 4.38762 -2.47999 0
M  V30 4115 H 375.352 2.66024 -2.62882 0
M  V30 4116 H 377.644 5.60517 -3.80562 0
M  V30 4117 H 378.587 4.86972 -5.14066 0
M  V30 4118 H 378.995 4.47174 -3.44522 0
M  V30 4119 N 378.394 1.34581 0.820102 0
M  V30 4120 C 379.64 1.27285 1.57881 0
M  V30 4121 C 379.973 -0.156137 1.93571 0
M  V30 4122 O 379.248 -1.10222 1.60254 0
M  V30 4123 C 379.531 2.16639 2.87645 0
M  V30 4124 C 379.384 3.68088 2.58517 0
M  V30 4125 C 380.703 2.05378 3.8924 0
M  V30 4126 H 377.822 0.463714 0.572833 0
M  V30 4127 H 380.464 1.64859 0.944539 0
M  V30 4128 H 378.614 1.84725 3.41773 0
M  V30 4129 H 380.286 4.10382 2.10676 0
M  V30 4130 H 378.529 3.89038 1.91917 0
M  V30 4131 H 379.2 4.2598 3.51063 0
M  V30 4132 H 381.676 2.33404 3.44473 0
M  V30 4133 H 380.552 2.7012 4.77835 0
M  V30 4134 H 380.813 1.0316 4.29896 0
M  V30 4135 N 379.872 -1.04064 1.18357 0
M  V30 4136 C 381.288 -1.2947 0.933258 0
M  V30 4137 C 381.488 -1.97466 -0.401169 0
M  V30 4138 O 380.544 -2.25528 -1.13549 0
M  V30 4139 C 381.857 -2.15337 2.09882 0
M  V30 4140 C 383.405 -2.28683 2.13712 0
M  V30 4141 C 383.88 -3.17917 3.29686 0
M  V30 4142 N 385.371 -3.25504 3.29547 0
M  V30 4143 C 386.106 -3.94706 4.15926 0
M  V30 4144 N 385.602 -4.66239 5.12439 0
M  V30 4145 N 387.395 -3.90986 4.0384 0
M  V30 4146 H 379.546 -0.583359 2.04232 0
M  V30 4147 H 381.809 -0.319921 0.892387 0
M  V30 4148 H 381.515 -1.72682 3.06389 0
M  V30 4149 H 381.389 -3.16015 2.05947 0
M  V30 4150 H 383.776 -2.70575 1.17784 0
M  V30 4151 H 383.857 -1.27596 2.21705 0
M  V30 4152 H 383.501 -2.76736 4.25887 0
M  V30 4153 H 383.431 -4.19036 3.1893 0
M  V30 4154 H 385.922 -2.74547 2.59677 0
M  V30 4155 H 386.235 -5.16638 5.74722 0
M  V30 4156 H 384.58 -4.65143 5.16398 0
M  V30 4157 H 387.771 -3.34234 3.27727 0
M  V30 4158 H 387.944 -4.44646 4.71375 0
M  V30 4159 N 381.35 -0.985608 -1.22978 0
M  V30 4160 C 382.3 -0.50118 -2.22423 0
M  V30 4161 C 383.284 0.426649 -1.5514 0
M  V30 4162 O 384.476 0.254656 -1.75159 0
M  V30 4163 C 381.605 0.190003 -3.42774 0
M  V30 4164 C 380.691 -0.757703 -4.17276 0
M  V30 4165 N 381.082 -1.90251 -4.68656 0
M  V30 4166 C 379.38 -0.57209 -4.42316 0
M  V30 4167 C 380.081 -2.49676 -5.25392 0
M  V30 4168 N 379.057 -1.78013 -5.13627 0
M  V30 4169 H 382.859 -1.37441 -2.59783 0
M  V30 4170 H 380.373 -0.846941 -1.38567 0
M  V30 4171 H 382.37 0.55439 -4.13197 0
M  V30 4172 H 381.03 1.05946 -3.06929 0
M  V30 4173 H 382.041 -2.28354 -4.64839 0
M  V30 4174 H 378.718 0.251909 -4.16739 0
M  V30 4175 H 380.108 -3.46384 -5.75732 0
M  V30 4176 N 382.828 1.3818 -0.7579 0
M  V30 4177 C 383.775 2.30416 -0.133057 0
M  V30 4178 C 384.745 1.50398 0.704957 0
M  V30 4179 O 385.93 1.79014 0.660192 0
M  V30 4180 C 383.07 3.36834 0.750813 0
M  V30 4181 C 382.183 4.31879 -0.102297 0
M  V30 4182 C 381.318 5.25368 0.784979 0
M  V30 4183 C 380.357 6.12058 -0.0715046 0
M  V30 4184 N 379.494 6.97832 0.772972 0
M  V30 4185 H 384.334 2.83274 -0.925186 0
M  V30 4186 H 381.871 1.39461 -0.467866 0
M  V30 4187 H 383.829 3.97145 1.27794 0
M  V30 4188 H 382.459 2.85374 1.50868 0
M  V30 4189 H 381.511 3.72991 -0.747095 0
M  V30 4190 H 382.823 4.92921 -0.763552 0
M  V30 4191 H 381.977 5.90818 1.37911 0
M  V30 4192 H 380.716 4.64703 1.47996 0
M  V30 4193 H 379.721 5.456 -0.678272 0
M  V30 4194 H 380.946 6.74793 -0.763606 0
M  V30 4195 H 378.892 6.3971 1.45282 0
M  V30 4196 H 378.809 7.55812 0.168709 0
M  V30 4197 H 380.077 7.67687 1.35194 0
M  V30 4198 N 384.306 0.507319 1.49211 0
M  V30 4199 C 385.555 -0.0368315 2.01666 0
M  V30 4200 C 385.868 -1.37459 1.39156 0
M  V30 4201 O 387.074 -2.00579 1.82976 0
M  V30 4202 C 385.53 -0.116089 3.59713 0
M  V30 4203 C 385.138 1.2154 4.31198 0
M  V30 4204 C 386.882 -0.610268 4.2009 0
M  V30 4205 C 384.789 1.09796 5.81119 0
M  V30 4206 H 383.719 -0.0175376 0.753796 0
M  V30 4207 H 386.37 0.647691 1.71689 0
M  V30 4208 H 384.752 -0.8652 3.86433 0
M  V30 4209 H 385.926 1.9783 4.16173 0
M  V30 4210 H 384.241 1.64352 3.82593 0
M  V30 4211 H 386.838 -0.715742 5.29888 0
M  V30 4212 H 387.181 -1.61064 3.8388 0
M  V30 4213 H 387.714 0.0824916 3.97714 0
M  V30 4214 H 384.453 2.0728 6.21864 0
M  V30 4215 H 383.973 0.376058 5.9862 0
M  V30 4216 H 385.652 0.779281 6.4229 0
M  V30 4217 N 385.784 -1.5574 0.241426 0
M  V30 4218 C 386.714 -2.24133 -0.654722 0
M  V30 4219 C 387.695 -1.21974 -1.1856 0
M  V30 4220 O 388.88 -1.50612 -1.22595 0
M  V30 4221 C 386.01 -2.93659 -1.85423 0
M  V30 4222 C 384.964 -4.0246 -1.45636 0
M  V30 4223 C 384.29 -4.59383 -2.73626 0
M  V30 4224 C 385.59 -5.18468 -0.631506 0
M  V30 4225 H 387.284 -2.99281 -0.0844353 0
M  V30 4226 H 384.83 -1.43947 -0.0391707 0
M  V30 4227 H 386.783 -3.40203 -2.48676 0
M  V30 4228 H 385.507 -2.15991 -2.44981 0
M  V30 4229 H 384.166 -3.56676 -0.847202 0
M  V30 4230 H 383.814 -3.78422 -3.3137 0
M  V30 4231 H 383.514 -5.32826 -2.4773 0
M  V30 4232 H 385.038 -5.08658 -3.37786 0
M  V30 4233 H 386.452 -5.61272 -1.1682 0
M  V30 4234 H 384.849 -5.98266 -0.468831 0
M  V30 4235 H 385.919 -4.8358 0.357506 0
M  V30 4236 N 387.262 0.0317525 -1.57568 0
M  V30 4237 C 388.509 0.723104 -1.89149 0
M  V30 4238 C 388.837 1.75504 -0.838377 0
M  V30 4239 O 388.092 1.95037 0.160982 0
M  V30 4240 C 388.391 1.43167 -3.27472 0
M  V30 4241 C 388.057 0.535972 -4.47703 0
M  V30 4242 C 386.719 0.289262 -4.8033 0
M  V30 4243 C 389.071 -0.0826125 -5.21135 0
M  V30 4244 C 386.399 -0.584853 -5.83778 0
M  V30 4245 C 388.751 -0.944414 -6.25511 0
M  V30 4246 C 387.415 -1.20061 -6.56614 0
M  V30 4247 H 386.685 0.264602 -0.692146 0
M  V30 4248 H 389.332 -0.0169496 -1.91492 0
M  V30 4249 H 387.637 2.24497 -3.21105 0
M  V30 4250 H 389.334 1.97209 -3.49155 0
M  V30 4251 H 385.924 0.738414 -4.22191 0
M  V30 4252 H 390.108 0.0950302 -4.96209 0
M  V30 4253 H 385.364 -0.79168 -6.06253 0
M  V30 4254 H 389.538 -1.43026 -6.81554 0
M  V30 4255 H 387.165 -1.87967 -7.36595 0
M  V30 4256 N 388.74 1.54641 0.303973 0
M  V30 4257 C 390.151 1.64811 0.877163 0
M  V30 4258 C 390.502 0.554838 1.88191 0
M  V30 4259 O 389.627 -0.309033 2.14182 0
M  V30 4260 C 390.222 2.9876 1.59775 0
M  V30 4261 C 388.781 3.11061 2.11938 0
M  V30 4262 C 387.928 2.60479 0.951097 0
M  V30 4263 H 390.879 1.58493 0.0810486 0
M  V30 4264 H 390.9 2.90017 2.46314 0
M  V30 4265 H 390.412 3.7831 0.866226 0
M  V30 4266 H 388.513 2.36225 2.88146 0
M  V30 4267 H 388.626 4.17171 2.35595 0
M  V30 4268 H 386.99 2.16859 1.33583 0
M  V30 4269 H 387.773 3.42504 0.233581 0
M  V30 4270 N 390.218 -0.567019 1.47046 0
M  V30 4271 C 391.466 -1.322 1.52864 0
M  V30 4272 C 391.787 -1.94088 0.188388 0
M  V30 4273 O 391.057 -1.7941 -0.786693 0
M  V30 4274 H 389.637 -0.490894 0.563056 0
M  V30 4275 H 392.299 -0.662879 1.83281 0
M  V30 4276 H 391.395 -2.12062 2.2899 0
M  V30 4277 N 391.696 -1.35014 -0.812953 0
M  V30 4278 C 393.112 -1.14914 -1.10757 0
M  V30 4279 C 393.312 0.0426818 -2.01455 0
M  V30 4280 O 392.368 0.715212 -2.42159 0
M  V30 4281 C 393.681 -2.44911 -1.74468 0
M  V30 4282 C 395.229 -2.5106 -1.86917 0
M  V30 4283 C 395.704 -3.81085 -2.54044 0
M  V30 4284 N 397.195 -3.82301 -2.61535 0
M  V30 4285 C 397.93 -4.79634 -3.14227 0
M  V30 4286 N 397.426 -5.87353 -3.67407 0
M  V30 4287 N 399.219 -4.67078 -3.12721 0
M  V30 4288 H 391.37 -2.1136 -0.20989 0
M  V30 4289 H 393.633 -0.935128 -0.155692 0
M  V30 4290 H 393.339 -3.32267 -1.15289 0
M  V30 4291 H 393.213 -2.58989 -2.74234 0
M  V30 4292 H 395.6 -1.64137 -2.45241 0
M  V30 4293 H 395.681 -2.40901 -0.860242 0
M  V30 4294 H 395.325 -4.68402 -1.96372 0
M  V30 4295 H 395.255 -3.88529 -3.55461 0
M  V30 4296 H 397.746 -3.04465 -2.23851 0
M  V30 4297 H 398.059 -6.57624 -4.05894 0
M  V30 4298 H 396.404 -5.91054 -3.65623 0
M  V30 4299 H 399.595 -3.82067 -2.70449 0
M  V30 4300 H 399.768 -5.43098 -3.53481 0
M  V30 4301 N 393.175 1.03435 -1.18907 0
M  V30 4302 C 394.452 1.73778 -0.89781 0
M  V30 4303 C 394.832 2.02458 0.597832 0
M  V30 4304 O 394.18 1.67482 1.55441 0
M  V30 4305 C 394.39 3.01845 -1.75187 0
M  V30 4306 C 395.738 3.7546 -1.9828 0
M  V30 4307 O 396.762 3.11759 -1.72293 0
M  V30 4308 O 395.621 4.89966 -2.42065 0
M  V30 4309 H 392.715 0.75651 -0.334098 0
M  V30 4310 H 395.261 1.09444 -1.29693 0
M  V30 4311 H 394.033 2.76836 -2.76545 0
M  V30 4312 H 393.656 3.73919 -1.35167 0
M  V30 4313 N 394.653 0.992116 1.22453 0
M  V30 4314 C 395.883 0.684949 1.94915 0
M  V30 4315 C 396.291 -0.754292 1.73514 0
M  V30 4316 O 395.634 -1.52056 1.03076 0
M  V30 4317 C 395.696 0.910054 3.47791 0
M  V30 4318 C 395.36 2.33363 3.92926 0
M  V30 4319 C 396.357 3.31308 4.00663 0
M  V30 4320 C 394.042 2.66785 4.25595 0
M  V30 4321 C 396.036 4.6075 4.40441 0
M  V30 4322 C 393.723 3.96446 4.65053 0
M  V30 4323 C 394.721 4.9324 4.72444 0
M  V30 4324 O 394.409 6.20584 5.1101 0
M  V30 4325 H 394.141 0.25258 0.62704 0
M  V30 4326 H 396.695 1.32939 1.56577 0
M  V30 4327 H 394.925 0.208443 3.86138 0
M  V30 4328 H 396.614 0.598257 4.01467 0
M  V30 4329 H 397.38 3.0682 3.75615 0
M  V30 4330 H 393.259 1.92148 4.19047 0
M  V30 4331 H 396.803 5.363 4.46126 0
M  V30 4332 H 392.7 4.20724 4.89552 0
M  V30 4333 H 393.468 6.24509 5.29085 0
M  V30 4334 N 396.131 -1.37776 0.765217 0
M  V30 4335 C 397.38 -1.99092 0.323307 0
M  V30 4336 C 397.693 -1.61434 -1.10446 0
M  V30 4337 O 398.899 -2.15805 -1.64743 0
M  V30 4338 C 397.355 -3.56019 0.527098 0
M  V30 4339 C 396.963 -4.0262 1.96471 0
M  V30 4340 C 398.707 -4.2424 0.148483 0
M  V30 4341 C 396.614 -5.52233 2.11644 0
M  V30 4342 H 395.544 -0.744846 0.117137 0
M  V30 4343 H 398.195 -1.57391 0.943417 0
M  V30 4344 H 396.577 -3.95667 -0.162372 0
M  V30 4345 H 397.751 -3.74234 2.68859 0
M  V30 4346 H 396.066 -3.47161 2.29931 0
M  V30 4347 H 398.663 -5.34159 0.240456 0
M  V30 4348 H 399.006 -4.06446 -0.900422 0
M  V30 4349 H 399.539 -3.89872 0.79025 0
M  V30 4350 H 396.278 -5.74945 3.1483 0
M  V30 4351 H 395.798 -5.82324 1.4373 0
M  V30 4352 H 397.477 -6.18106 1.91193 0
M  V30 4353 N 397.609 -0.515225 -1.4894 0
M  V30 4354 C 398.886 0.0879088 -1.95402 0
M  V30 4355 C 399.266 1.52745 -1.45712 0
M  V30 4356 O 398.614 2.18238 -0.677093 0
M  V30 4357 C 398.824 -0.0141055 -3.48997 0
M  V30 4358 C 400.172 0.152646 -4.24326 0
M  V30 4359 O 401.196 0.0604025 -3.56149 0
M  V30 4360 O 400.055 0.34384 -5.45417 0
M  V30 4361 H 397.149 0.0874636 -0.822362 0
M  V30 4362 H 399.695 -0.578775 -1.59525 0
M  V30 4363 H 398.467 -1.01745 -3.77841 0
M  V30 4364 H 398.09 0.692091 -3.9153 0
M  V30 4365 N 399.087 1.5561 -0.249682 0
M  V30 4366 C 400.019 2.18834 0.681496 0
M  V30 4367 C 401.032 1.16546 1.1367 0
M  V30 4368 O 402.221 1.43397 1.06299 0
M  V30 4369 C 399.321 2.77992 1.9384 0
M  V30 4370 C 398.494 4.05725 1.63419 0
M  V30 4371 C 397.553 4.49174 2.74096 0
M  V30 4372 O 396.579 5.15492 2.41364 0
M  V30 4373 N 397.781 4.17191 4.03649 0
M  V30 4374 H 400.546 2.9937 0.140514 0
M  V30 4375 H 398.107 1.6175 -0.0697541 0
M  V30 4376 H 400.099 3.04015 2.67127 0
M  V30 4377 H 398.669 2.01596 2.38909 0
M  V30 4378 H 397.889 3.87261 0.736358 0
M  V30 4379 H 399.177 4.88999 1.40562 0
M  V30 4380 H 398.575 3.63955 4.33074 0
M  V30 4381 H 397.132 4.48043 4.73393 0
M  V30 4382 N 400.565 -0.0233959 1.57583 0
M  V30 4383 C 401.811 -0.708611 1.90657 0
M  V30 4384 C 402.166 -1.7266 0.848895 0
M  V30 4385 O 401.459 -1.91075 -0.141749 0
M  V30 4386 C 401.653 -1.41428 3.28227 0
M  V30 4387 C 401.482 -0.466155 4.47277 0
M  V30 4388 C 400.252 -0.085117 5.05228 0
M  V30 4389 C 402.45 0.257836 5.13653 0
M  V30 4390 N 400.432 0.863672 6.07794 0
M  V30 4391 C 401.803 1.06209 6.10835 0
M  V30 4392 C 403.858 0.324174 4.96844 0
M  V30 4393 C 402.561 1.9266 6.93018 0
M  V30 4394 C 404.587 1.17583 5.79593 0
M  V30 4395 C 403.949 1.96799 6.7635 0
M  V30 4396 H 400.048 -0.233222 0.746412 0
M  V30 4397 H 402.632 0.0314512 1.94675 0
M  V30 4398 H 400.803 -2.12477 3.25128 0
M  V30 4399 H 402.535 -2.05233 3.488 0
M  V30 4400 H 399.29 -0.448516 4.71471 0
M  V30 4401 H 399.714 1.33274 6.63752 0
M  V30 4402 H 404.356 -0.273975 4.21911 0
M  V30 4403 H 402.074 2.53552 7.67292 0
M  V30 4404 H 405.66 1.23076 5.68633 0
M  V30 4405 H 404.54 2.61635 7.39268 0
M  V30 4406 N 402.043 -1.548 -0.295768 0
M  V30 4407 C 402.991 -1.86874 -1.38495 0
M  V30 4408 C 403.985 -0.742938 -1.52239 0
M  V30 4409 O 405.191 -0.926999 -1.54294 0
M  V30 4410 H 401.566 -0.592786 -0.462719 0
M  V30 4411 H 403.537 -2.77904 -1.08682 0
M  V30 4412 C 402.286 -2.13732 -2.74252 0
M  V30 4413 H 401.609 -2.99835 -2.64459 0
M  V30 4414 H 403.049 -2.4011 -3.49461 0
M  V30 4415 C 401.508 -0.937539 -3.23592 0
M  V30 4416 O 402.038 -0.160665 -4.01379 0
M  V30 4417 N 400.244 -0.741478 -2.80981 0
M  V30 4418 H 399.791 -1.37489 -2.1784 0
M  V30 4419 H 399.749 0.0597103 -3.14343 0
M  V30 4420 N 403.521 0.559213 -1.47345 0
M  V30 4421 C 404.468 1.66645 -1.59682 0
M  V30 4422 C 405.438 1.60168 -0.43994 0
M  V30 4423 O 406.623 1.79031 -0.659736 0
M  V30 4424 C 403.763 3.04969 -1.61518 0
M  V30 4425 C 402.876 3.21897 -2.88108 0
M  V30 4426 C 402.011 4.50608 -2.81294 0
M  V30 4427 C 401.05 4.60961 -4.02717 0
M  V30 4428 N 400.187 5.81024 -3.94151 0
M  V30 4429 H 405.027 1.55439 -2.54249 0
M  V30 4430 H 402.564 0.757219 -1.26113 0
M  V30 4431 H 404.522 3.85064 -1.60566 0
M  V30 4432 H 403.152 3.15015 -0.704645 0
M  V30 4433 H 402.204 2.35248 -2.98936 0
M  V30 4434 H 403.516 3.25412 -3.78032 0
M  V30 4435 H 402.67 5.3896 -2.7858 0
M  V30 4436 H 401.409 4.49568 -1.89049 0
M  V30 4437 H 400.414 3.71021 -4.05738 0
M  V30 4438 H 401.639 4.63761 -4.96087 0
M  V30 4439 H 399.585 5.80938 -3.04708 0
M  V30 4440 H 399.502 5.85909 -4.77752 0
M  V30 4441 H 400.77 6.71744 -3.9545 0
M  V30 4442 N 404.999 1.35443 0.805782 0
M  V30 4443 C 406.245 1.28952 1.56522 0
M  V30 4444 C 406.578 -0.135597 1.93726 0
M  V30 4445 O 405.853 -1.08516 1.61414 0
M  V30 4446 C 406.136 2.19678 2.85331 0
M  V30 4447 C 405.989 3.7081 2.54598 0
M  V30 4448 C 407.308 2.09495 3.8704 0
M  V30 4449 H 404.427 0.469764 0.567883 0
M  V30 4450 H 407.069 1.65851 0.927001 0
M  V30 4451 H 405.219 1.8834 3.39795 0
M  V30 4452 H 406.891 4.12593 2.06312 0
M  V30 4453 H 405.134 3.91051 1.8778 0
M  V30 4454 H 405.805 4.29679 3.46525 0
M  V30 4455 H 408.281 2.37045 3.41978 0
M  V30 4456 H 407.157 2.75173 4.74943 0
M  V30 4457 H 407.418 1.07714 4.28777 0
M  V30 4458 N 406.477 -1.02803 1.19454 0
M  V30 4459 C 407.726 -1.7562 0.991996 0
M  V30 4460 C 408.039 -1.89672 -0.477901 0
M  V30 4461 O 409.245 -2.59468 -0.799287 0
M  V30 4462 C 407.701 -3.15812 1.72601 0
M  V30 4463 C 407.309 -3.0981 3.23607 0
M  V30 4464 C 409.053 -3.92918 1.60674 0
M  V30 4465 C 406.96 -4.44939 3.89594 0
M  V30 4466 H 405.89 -0.658352 0.367543 0
M  V30 4467 H 408.541 -1.15044 1.42959 0
M  V30 4468 H 406.923 -3.7686 1.21624 0
M  V30 4469 H 408.097 -2.58138 3.81709 0
M  V30 4470 H 406.412 -2.46201 3.35819 0
M  V30 4471 H 409.009 -4.9287 2.07323 0
M  V30 4472 H 409.352 -4.12502 0.561025 0
M  V30 4473 H 409.885 -3.38472 2.09001 0
M  V30 4474 H 406.624 -4.30559 4.94267 0
M  V30 4475 H 406.144 -4.96664 3.36281 0
M  V30 4476 H 407.823 -5.1382 3.93189 0
M  V30 4477 N 407.956 -0.998596 -1.21925 0
M  V30 4478 C 408.866 -0.562736 -2.27751 0
M  V30 4479 C 409.882 0.391203 -1.69545 0
M  V30 4480 O 411.058 0.256625 -1.99758 0
M  V30 4481 C 408.123 0.11012 -3.46525 0
M  V30 4482 C 407.184 -0.887495 -4.20026 0
M  V30 4483 C 406.417 -0.246654 -5.3313 0
M  V30 4484 O 406.64 0.958088 -5.62296 0
M  V30 4485 O 405.574 -0.954374 -5.94286 0
M  V30 4486 H 409.4 -1.44329 -2.67213 0
M  V30 4487 H 406.985 -0.767135 -1.28201 0
M  V30 4488 H 408.867 0.486756 -4.18579 0
M  V30 4489 H 407.542 0.965154 -3.08976 0
M  V30 4490 H 406.449 -1.31517 -3.5022 0
M  V30 4491 H 407.782 -1.71191 -4.6147 0
M  V30 4492 N 409.434 1.37368 -0.772513 0
M  V30 4493 C 410.366 2.28899 -0.117502 0
M  V30 4494 C 411.379 1.4867 0.663405 0
M  V30 4495 O 412.568 1.71314 0.501372 0
M  V30 4496 C 409.668 3.2788 0.857192 0
M  V30 4497 C 408.841 4.37207 0.129938 0
M  V30 4498 C 407.9 5.16257 1.01811 0
M  V30 4499 O 406.926 5.67159 0.481601 0
M  V30 4500 N 408.128 5.31058 2.3443 0
M  V30 4501 H 410.893 2.85752 -0.903662 0
M  V30 4502 H 408.454 1.49353 -0.62493 0
M  V30 4503 H 410.446 3.77647 1.45482 0
M  V30 4504 H 409.016 2.7179 1.54432 0
M  V30 4505 H 408.236 3.88827 -0.648605 0
M  V30 4506 H 409.524 5.07434 -0.372559 0
M  V30 4507 H 408.922 4.91287 2.80452 0
M  V30 4508 H 407.479 5.84131 2.89197 0
M  V30 4509 N 410.912 0.523116 1.48665 0
M  V30 4510 C 411.842 -0.23231 2.32342 0
M  V30 4511 C 412.823 -0.941637 1.41659 0
M  V30 4512 O 414.008 -0.928751 1.70552 0
M  V30 4513 C 411.138 -1.28387 3.22698 0
M  V30 4514 C 410.092 -0.693098 4.22351 0
M  V30 4515 C 409.418 -1.8468 5.01794 0
M  V30 4516 C 410.718 0.33063 5.21252 0
M  V30 4517 H 412.412 0.466192 2.95748 0
M  V30 4518 H 409.958 0.225643 1.42221 0
M  V30 4519 H 411.911 -1.82024 3.80059 0
M  V30 4520 H 410.635 -2.01186 2.57278 0
M  V30 4521 H 409.294 -0.178299 3.66166 0
M  V30 4522 H 408.942 -2.56301 4.32804 0
M  V30 4523 H 408.642 -1.45747 5.69238 0
M  V30 4524 H 410.166 -2.38709 5.62006 0
M  V30 4525 H 411.58 -0.118407 5.73178 0
M  V30 4526 H 409.977 0.636974 5.9671 0
M  V30 4527 H 411.047 1.23883 4.68808 0
M  V30 4528 N 412.39 -1.55475 0.257931 0
M  V30 4529 C 413.638 -1.98813 -0.363009 0
M  V30 4530 C 413.959 -1.14757 -1.57657 0
M  V30 4531 O 413.229 -0.232956 -1.9451 0
M  V30 4532 H 411.809 -0.734308 -0.137113 0
M  V30 4533 H 414.471 -1.9156 0.359281 0
M  V30 4534 H 413.567 -3.04941 -0.664634 0
M  V30 4535 N 413.868 0.0150385 -1.57593 0
M  V30 4536 C 415.096 0.714395 -1.94175 0
M  V30 4537 C 415.511 1.68135 -0.858841 0
M  V30 4538 O 414.868 1.81766 0.163567 0
M  V30 4539 C 414.919 1.45933 -3.30735 0
M  V30 4540 O 414.64 0.531167 -4.34868 0
M  V30 4541 C 416.141 2.25456 -3.81686 0
M  V30 4542 H 413.361 0.199923 -0.640525 0
M  V30 4543 H 415.905 -0.0316096 -2.04476 0
M  V30 4544 H 414.06 2.15709 -3.21789 0
M  V30 4545 H 414.474 1.05509 -5.13778 0
M  V30 4546 H 415.948 2.731 -4.79709 0
M  V30 4547 H 416.425 3.07485 -3.13607 0
M  V30 4548 H 417.031 1.60727 -3.9376 0
M  V30 4549 N 415.346 1.54954 0.287554 0
M  V30 4550 C 416.757 1.65732 0.859634 0
M  V30 4551 C 417.108 0.574767 1.87592 0
M  V30 4552 O 416.233 -0.286299 2.14498 0
M  V30 4553 C 416.828 3.00438 1.56597 0
M  V30 4554 C 415.387 3.13292 2.08627 0
M  V30 4555 C 414.534 2.61473 0.923416 0
M  V30 4556 H 417.485 1.5857 0.0642338 0
M  V30 4557 H 417.506 2.92613 2.43224 0
M  V30 4558 H 417.018 3.79207 0.826053 0
M  V30 4559 H 415.119 2.39268 2.85625 0
M  V30 4560 H 415.232 4.19647 2.31157 0
M  V30 4561 H 413.596 2.18264 1.31275 0
M  V30 4562 H 414.379 3.42733 0.197241 0
M  V30 4563 N 416.824 -0.551391 1.4764 0
M  V30 4564 C 418.064 -1.31901 1.56145 0
M  V30 4565 C 418.428 -1.90724 0.221013 0
M  V30 4566 O 419.629 -2.6819 0.180945 0
M  V30 4567 C 417.9 -2.39517 2.65267 0
M  V30 4568 S 419.459 -3.26289 2.93395 0
M  V30 4569 H 416.277 -0.448965 0.551318 0
M  V30 4570 H 418.879 -0.630599 1.85051 0
M  V30 4571 H 417.583 -1.94747 3.6125 0
M  V30 4572 H 417.114 -3.13092 2.38195 0
M  V30 4573 H 419.129 -4.39122 2.31055 0
M  V30 4574 N 418.302 -1.35869 -0.798587 0
M  V30 4575 C 419.713 -1.26498 -1.37314 0
M  V30 4576 C 420.064 0.0991899 -1.95949 0
M  V30 4577 O 419.189 1.0004 -1.91888 0
M  V30 4578 C 419.784 -2.29054 -2.49639 0
M  V30 4579 C 418.343 -2.234 -3.02935 0
M  V30 4580 C 417.49 -2.14329 -1.75949 0
M  V30 4581 H 420.441 -1.46881 -0.600971 0
M  V30 4582 H 420.462 -1.92166 -3.28409 0
M  V30 4583 H 419.974 -3.2833 -2.06933 0
M  V30 4584 H 418.075 -1.27562 -3.50084 0
M  V30 4585 H 418.188 -3.15703 -3.60372 0
M  V30 4586 H 416.552 -1.60435 -1.9782 0
M  V30 4587 H 417.335 -3.15477 -1.35384 0
M  V30 4588 N 419.78 1.02168 -1.19998 0
M  V30 4589 C 420.69 2.14069 -0.959774 0
M  V30 4590 C 421.706 1.73804 0.082655 0
M  V30 4591 O 422.882 2.01133 -0.103633 0
M  V30 4592 C 419.947 3.42936 -0.509459 0
M  V30 4593 C 419.008 3.97474 -1.62213 0
M  V30 4594 C 418.241 5.2019 -1.19321 0
M  V30 4595 O 418.464 5.70369 -0.0597726 0
M  V30 4596 O 417.398 5.67749 -1.99863 0
M  V30 4597 H 421.224 2.37199 -1.89658 0
M  V30 4598 H 418.809 1.12469 -0.983411 0
M  V30 4599 H 420.691 4.20551 -0.267322 0
M  V30 4600 H 419.366 3.21234 0.398821 0
M  V30 4601 H 418.273 3.21161 -1.9185 0
M  V30 4602 H 419.606 4.23555 -2.50723 0
M  V30 4603 N 421.258 1.00505 1.21394 0
M  V30 4604 C 422.505 0.687774 1.90462 0
M  V30 4605 C 422.833 -0.78147 1.7811 0
M  V30 4606 O 422.088 -1.58208 1.1519 0
M  V30 4607 C 422.387 1.0546 3.41486 0
M  V30 4608 C 422.053 2.51812 3.74034 0
M  V30 4609 C 420.715 2.91804 3.82628 0
M  V30 4610 C 423.067 3.46614 3.8924 0
M  V30 4611 C 420.395 4.2556 4.03876 0
M  V30 4612 C 422.747 4.80044 4.11995 0
M  V30 4613 C 421.411 5.19759 4.18816 0
M  V30 4614 H 420.681 0.251674 0.696951 0
M  V30 4615 H 423.328 1.26349 1.43903 0
M  V30 4616 H 421.633 0.397133 3.89782 0
M  V30 4617 H 423.33 0.786976 3.93202 0
M  V30 4618 H 419.92 2.1982 3.67936 0
M  V30 4619 H 424.104 3.16883 3.81967 0
M  V30 4620 H 419.36 4.55901 4.07387 0
M  V30 4621 H 423.534 5.53439 4.22704 0
M  V30 4622 H 421.161 6.23418 4.35033 0
M  V30 4623 N 422.737 -1.36956 0.779787 0
M  V30 4624 C 423.67 -2.27896 0.117681 0
M  V30 4625 C 424.648 -1.46736 -0.700523 0
M  V30 4626 O 425.832 -1.76055 -0.673568 0
M  V30 4627 C 422.959 -3.28136 -0.839296 0
M  V30 4628 C 422.005 -4.26373 -0.10409 0
M  V30 4629 S 422.838 -5.2157 1.21348 0
M  V30 4630 C 423.994 -6.25359 0.260249 0
M  V30 4631 H 424.227 -2.83704 0.888778 0
M  V30 4632 H 421.76 -1.43352 0.57355 0
M  V30 4633 H 423.718 -3.86394 -1.38601 0
M  V30 4634 H 422.379 -2.7126 -1.58356 0
M  V30 4635 H 421.572 -4.97121 -0.82986 0
M  V30 4636 H 421.174 -3.72147 0.371858 0
M  V30 4637 H 423.466 -6.75145 -0.564435 0
M  V30 4638 H 424.409 -7.01885 0.936135 0
M  V30 4639 H 424.817 -5.64345 -0.132127 0
M  V30 4640 N 424.215 -0.530993 -1.48385 0
M  V30 4641 C 425.162 0.231223 -2.29639 0
M  V30 4642 C 426.132 0.932864 -1.37429 0
M  V30 4643 O 427.317 0.933692 -1.66394 0
M  V30 4644 C 424.457 1.27155 -3.2082 0
M  V30 4645 C 423.57 0.578655 -4.28107 0
M  V30 4646 C 422.705 1.602 -5.06467 0
M  V30 4647 C 421.744 0.892625 -6.05556 0
M  V30 4648 N 420.881 1.86157 -6.76971 0
M  V30 4649 H 425.721 -0.467848 -2.94305 0
M  V30 4650 H 423.258 -0.242556 -1.45086 0
M  V30 4651 H 425.216 1.88703 -3.72085 0
M  V30 4652 H 423.846 1.939 -2.58075 0
M  V30 4653 H 422.898 -0.150782 -3.80101 0
M  V30 4654 H 424.21 0.0217065 -4.98795 0
M  V30 4655 H 423.364 2.29173 -5.61751 0
M  V30 4656 H 422.103 2.19285 -4.35621 0
M  V30 4657 H 421.108 0.188829 -5.49476 0
M  V30 4658 H 422.333 0.307878 -6.78402 0
M  V30 4659 H 420.279 2.44147 -6.08875 0
M  V30 4660 H 420.196 1.35608 -7.43738 0
M  V30 4661 H 421.464 2.54325 -7.36844 0
M  V30 4662 N 425.693 1.55336 -0.266172 0
M  V30 4663 C 426.64 2.22172 0.625165 0
M  V30 4664 C 427.61 1.19211 1.15663 0
M  V30 4665 O 428.795 1.47723 1.20758 0
M  V30 4666 C 425.935 2.93972 1.8076 0
M  V30 4667 C 425.048 4.11632 1.31084 0
M  V30 4668 C 424.183 4.71099 2.45436 0
M  V30 4669 C 423.222 5.8097 1.92718 0
M  V30 4670 N 422.359 6.34538 3.00509 0
M  V30 4671 H 427.199 2.9796 0.0485582 0
M  V30 4672 H 424.736 1.47095 0.0122024 0
M  V30 4673 H 426.694 3.33811 2.50251 0
M  V30 4674 H 425.324 2.20623 2.35638 0
M  V30 4675 H 424.376 3.76975 0.509326 0
M  V30 4676 H 425.688 4.90893 0.884633 0
M  V30 4677 H 424.842 5.13612 3.22936 0
M  V30 4678 H 423.581 3.91096 2.91368 0
M  V30 4679 H 422.586 5.37916 1.13695 0
M  V30 4680 H 423.811 6.62836 1.47733 0
M  V30 4681 H 421.757 5.57433 3.45839 0
M  V30 4682 H 421.674 7.09046 2.62279 0
M  V30 4683 H 422.942 6.81709 3.78011 0
M  V30 4684 N 427.171 -0.0066808 1.57599 0
M  V30 4685 C 428.101 -0.999296 2.11036 0
M  V30 4686 C 429.082 -1.36278 1.01795 0
M  V30 4687 O 430.267 -1.4477 1.29442 0
M  V30 4688 C 427.397 -2.29328 2.60818 0
M  V30 4689 C 426.351 -2.07159 3.74525 0
M  V30 4690 C 425.677 -3.42512 4.10596 0
M  V30 4691 C 426.977 -1.43959 5.02069 0
M  V30 4692 H 428.671 -0.554382 2.94223 0
M  V30 4693 H 426.217 -0.265221 1.41536 0
M  V30 4694 H 428.17 -2.99117 2.96828 0
M  V30 4695 H 426.894 -2.7592 1.74745 0
M  V30 4696 H 425.553 -1.39797 3.38899 0
M  V30 4697 H 425.201 -3.86795 3.21556 0
M  V30 4698 H 424.901 -3.28498 4.87199 0
M  V30 4699 H 426.425 -4.13628 4.4916 0
M  V30 4700 H 427.839 -2.03696 5.35893 0
M  V30 4701 H 426.236 -1.40452 5.83432 0
M  V30 4702 H 427.306 -0.407992 4.83181 0
M  V30 4703 N 428.649 -1.55105 -0.279332 0
M  V30 4704 C 429.581 -1.83952 -1.36727 0
M  V30 4705 C 430.594 -0.723642 -1.45833 0
M  V30 4706 O 431.783 -1.00141 -1.47763 0
M  V30 4707 C 428.883 -1.98183 -2.74912 0
M  V30 4708 C 428.056 -3.28787 -2.88475 0
M  V30 4709 C 427.115 -3.33162 -4.07295 0
M  V30 4710 O 426.141 -4.06576 -3.98353 0
M  V30 4711 N 427.343 -2.60109 -5.18964 0
M  V30 4712 H 430.108 -2.77853 -1.12328 0
M  V30 4713 H 427.669 -1.54945 -0.469442 0
M  V30 4714 H 429.661 -1.98488 -3.52682 0
M  V30 4715 H 428.231 -1.11177 -2.92162 0
M  V30 4716 H 427.451 -3.41075 -1.97641 0
M  V30 4717 H 428.739 -4.14933 -2.94463 0
M  V30 4718 H 428.137 -2.00136 -5.29115 0
M  V30 4719 H 426.694 -2.66143 -5.94988 0
M  V30 4720 N 430.127 0.543554 -1.4793 0
M  V30 4721 C 431.538 1.12561 -1.48953 0
M  V30 4722 C 431.889 1.94578 -0.251754 0
M  V30 4723 O 431.014 2.0665 0.642255 0
M  V30 4724 C 431.609 2.04801 -2.69892 0
M  V30 4725 C 430.168 2.58251 -2.73831 0
M  V30 4726 C 429.315 1.34918 -2.42265 0
M  V30 4727 H 432.266 0.32947 -1.55242 0
M  V30 4728 H 432.287 2.88886 -2.47639 0
M  V30 4729 H 431.799 1.4508 -3.59963 0
M  V30 4730 H 429.9 3.21732 -1.87934 0
M  V30 4731 H 430.013 2.98312 -3.74895 0
M  V30 4732 H 428.377 1.66046 -1.93134 0
M  V30 4733 H 429.16 0.769693 -3.3456 0
M  V30 4734 N 431.605 1.3629 0.791371 0
M  V30 4735 C 432.833 1.33562 1.58016 0
M  V30 4736 C 433.248 -0.0835616 1.88615 0
M  V30 4737 O 432.605 -1.0399 1.49974 0
M  V30 4738 C 432.656 2.15517 2.90232 0
M  V30 4739 O 432.377 3.51902 2.60953 0
M  V30 4740 C 433.878 2.20546 3.84544 0
M  V30 4741 H 431.098 0.458226 0.490173 0
M  V30 4742 H 433.642 1.79361 0.982345 0
M  V30 4743 H 431.797 1.73278 3.46487 0
M  V30 4744 H 432.211 3.94644 3.4548 0
M  V30 4745 H 433.685 2.82252 4.74382 0
M  V30 4746 H 434.162 1.20838 4.2225 0
M  V30 4747 H 434.768 2.63013 3.34222 0
M  V30 4748 N 433.083 -1.0153 1.20538 0
M  V30 4749 C 434.329 -1.75408 1.01783 0
M  V30 4750 C 434.662 -1.88943 -0.448814 0
M  V30 4751 O 433.937 -1.4162 -1.33319 0
M  V30 4752 C 434.22 -3.17255 1.70356 0
M  V30 4753 C 434.073 -3.11508 3.24473 0
M  V30 4754 C 435.392 -4.15955 1.43769 0
M  V30 4755 H 432.511 -0.636713 0.371167 0
M  V30 4756 H 435.153 -1.18436 1.4857 0
M  V30 4757 H 433.303 -3.65898 1.30578 0
M  V30 4758 H 434.975 -2.70658 3.73553 0
M  V30 4759 H 433.218 -2.4887 3.55311 0
M  V30 4760 H 433.889 -4.11784 3.67611 0
M  V30 4761 H 436.365 -3.75973 1.7828 0
M  V30 4762 H 435.241 -5.13368 1.94279 0
M  V30 4763 H 435.502 -4.40586 0.365564 0
M  V30 4764 N 434.561 -1.01147 -1.20859 0
M  V30 4765 C 435.977 -0.725422 -1.42161 0
M  V30 4766 C 436.177 0.696919 -1.89064 0
M  V30 4767 O 435.233 1.46539 -2.05627 0
M  V30 4768 C 436.546 -1.74678 -2.44761 0
M  V30 4769 C 438.094 -1.76433 -2.58535 0
M  V30 4770 C 438.569 -2.77481 -3.64374 0
M  V30 4771 N 440.06 -2.76189 -3.71852 0
M  V30 4772 C 440.795 -3.51035 -4.53389 0
M  V30 4773 N 440.291 -4.35541 -5.38773 0
M  V30 4774 N 442.084 -3.39655 -4.47873 0
M  V30 4775 H 434.235 -1.92979 -0.887282 0
M  V30 4776 H 436.498 -0.833327 -0.451962 0
M  V30 4777 H 436.204 -2.76551 -2.17285 0
M  V30 4778 H 436.078 -1.55472 -3.43669 0
M  V30 4779 H 438.465 -0.75248 -2.85345 0
M  V30 4780 H 438.546 -1.99712 -1.5984 0
M  V30 4781 H 438.19 -3.78827 -3.38308 0
M  V30 4782 H 438.12 -2.51466 -4.6268 0
M  V30 4783 H 440.611 -2.14885 -3.10858 0
M  V30 4784 H 440.924 -4.89432 -5.98061 0
M  V30 4785 H 439.269 -4.39621 -5.38292 0
M  V30 4786 H 442.46 -2.73063 -3.80203 0
M  V30 4787 H 442.633 -3.9824 -5.11184 0
M  V30 4788 N 436.039 1.36541 -0.78704 0
M  V30 4789 C 436.987 2.31965 -0.171724 0
M  V30 4790 C 437.981 1.55689 0.667631 0
M  V30 4791 O 439.187 1.70969 0.562981 0
M  V30 4792 H 435.562 0.751101 -0.0367545 0
M  V30 4793 H 437.533 2.81428 -0.992017 0
M  V30 4794 C 436.282 3.40968 0.680904 0
M  V30 4795 H 435.605 3.99775 0.0443961 0
M  V30 4796 H 437.045 4.10063 1.07815 0
M  V30 4797 C 435.504 2.82338 1.83813 0
M  V30 4798 O 436.034 2.74311 2.93456 0
M  V30 4799 N 434.24 2.39661 1.6435 0
M  V30 4800 H 433.787 2.46389 0.751668 0
M  V30 4801 H 433.745 2.00779 2.4194 0
M  V30 4802 N 437.518 0.538854 1.48102 0
M  V30 4803 C 438.748 0.0122958 2.06596 0
M  V30 4804 C 439.156 -1.27861 1.39457 0
M  V30 4805 O 438.499 -1.77348 0.478907 0
M  V30 4806 C 438.561 -0.273131 3.58461 0
M  V30 4807 C 438.225 0.92561 4.47528 0
M  V30 4808 C 439.222 1.82637 4.86765 0
M  V30 4809 C 436.907 1.13511 4.89306 0
M  V30 4810 C 438.901 2.92047 5.66558 0
M  V30 4811 C 436.588 2.23233 5.68868 0
M  V30 4812 C 437.586 3.12333 6.07402 0
M  V30 4813 O 437.274 4.20155 6.85365 0
M  V30 4814 H 437.006 0.0344283 0.675123 0
M  V30 4815 H 439.56 0.746494 1.91355 0
M  V30 4816 H 437.79 -1.06141 3.71848 0
M  V30 4817 H 439.479 -0.742842 3.99045 0
M  V30 4818 H 440.245 1.67649 4.55103 0
M  V30 4819 H 436.124 0.450835 4.5879 0
M  V30 4820 H 439.668 3.6162 5.96554 0
M  V30 4821 H 435.565 2.38201 5.99942 0
M  V30 4822 H 436.333 4.17975 7.03732 0
M  V30 4823 N 438.996 -1.55193 0.274407 0
M  V30 4824 C 440.242 -1.99877 -0.343086 0
M  V30 4825 C 440.575 -1.16256 -1.55558 0
M  V30 4826 O 439.85 -0.232462 -1.93106 0
M  V30 4827 C 440.133 -3.52706 -0.725965 0
M  V30 4828 C 439.986 -4.47081 0.493818 0
M  V30 4829 C 441.305 -4.11422 -1.56268 0
M  V30 4830 H 438.424 -0.726625 -0.123229 0
M  V30 4831 H 441.066 -1.86136 0.38121 0
M  V30 4832 H 439.216 -3.64546 -1.34307 0
M  V30 4833 H 440.888 -4.47186 1.13237 0
M  V30 4834 H 439.131 -4.1877 1.13201 0
M  V30 4835 H 439.802 -5.51699 0.18217 0
M  V30 4836 H 442.278 -4.02855 -1.04151 0
M  V30 4837 H 441.154 -5.18568 -1.79939 0
M  V30 4838 H 441.415 -3.61607 -2.54348 0
M  V30 4839 N 440.474 -0.00167713 -1.576 0
M  V30 4840 C 441.384 1.00548 -2.1196 0
M  V30 4841 C 442.4 1.3758 -1.06526 0
M  V30 4842 O 443.576 1.46278 -1.38436 0
M  V30 4843 C 440.641 2.27809 -2.6135 0
M  V30 4844 C 439.702 1.97074 -3.81393 0
M  V30 4845 C 438.935 3.18267 -4.28417 0
M  V30 4846 O 439.158 4.30009 -3.74765 0
M  V30 4847 O 438.092 3.02167 -5.20556 0
M  V30 4848 H 441.918 0.573373 -2.98238 0
M  V30 4849 H 439.503 0.217255 -1.47812 0
M  V30 4850 H 441.385 3.02568 -2.93309 0
M  V30 4851 H 440.06 2.70254 -1.78169 0
M  V30 4852 H 438.967 1.19785 -3.54404 0
M  V30 4853 H 440.3 1.59464 -4.65652 0
M  V30 4854 N 441.952 1.55251 0.271103 0
M  V30 4855 C 442.9 1.89054 1.35504 0
M  V30 4856 C 443.894 0.767064 1.51038 0
M  V30 4857 O 445.1 0.951429 1.528 0
M  V30 4858 H 441.475 0.600072 0.45323 0
M  V30 4859 H 443.446 2.79598 1.04247 0
M  V30 4860 C 442.195 2.18068 2.70817 0
M  V30 4861 H 441.518 3.04005 2.59656 0
M  V30 4862 H 442.958 2.4564 3.45597 0
M  V30 4863 C 441.417 0.988901 3.2206 0
M  V30 4864 O 441.947 0.224501 4.01072 0
M  V30 4865 N 440.153 0.786085 2.79766 0
M  V30 4866 H 439.7 1.40937 2.15626 0
M  V30 4867 H 439.658 -0.00969349 3.14399 0
M  V30 4868 N 443.43 -0.535701 1.48216 0
M  V30 4869 C 444.846 -0.863701 1.3421 0
M  V30 4870 C 445.046 -1.98458 0.34879 0
M  V30 4871 O 444.102 -2.51432 -0.23204 0
M  V30 4872 C 445.415 -1.23662 2.74095 0
M  V30 4873 C 446.963 -1.34683 2.82541 0
M  V30 4874 C 447.438 -1.75322 4.23115 0
M  V30 4875 N 448.929 -1.82434 4.2576 0
M  V30 4876 C 449.664 -2.15252 5.31464 0
M  V30 4877 N 449.16 -2.46533 6.47452 0
M  V30 4878 N 450.953 -2.16209 5.18855 0
M  V30 4879 H 443.104 0.203965 2.11418 0
M  V30 4880 H 445.367 0.0286033 0.947568 0
M  V30 4881 H 445.073 -0.486674 3.48316 0
M  V30 4882 H 444.947 -2.18805 3.07253 0
M  V30 4883 H 447.334 -2.08756 2.08579 0
M  V30 4884 H 447.415 -0.376756 2.5301 0
M  V30 4885 H 447.059 -1.01812 4.97591 0
M  V30 4886 H 446.989 -2.7337 4.50085 0
M  V30 4887 H 449.48 -1.6056 3.42095 0
M  V30 4888 H 449.793 -2.70662 7.23852 0
M  V30 4889 H 448.138 -2.44065 6.50736 0
M  V30 4890 H 451.329 -1.91224 4.2726 0
M  V30 4891 H 451.502 -2.41453 6.01335 0
M  V30 4892 N 444.908 -1.36708 -0.784132 0
M  V30 4893 C 446.319 -1.27947 -1.35965 0
M  V30 4894 C 446.67 0.0784013 -1.96043 0
M  V30 4895 O 445.795 0.979989 -1.92938 0
M  V30 4896 C 446.39 -2.31689 -2.47195 0
M  V30 4897 C 444.949 -2.26601 -3.00548 0
M  V30 4898 C 444.096 -2.16184 -1.73666 0
M  V30 4899 H 447.047 -1.4751 -0.585358 0
M  V30 4900 H 447.068 -1.95638 -3.26352 0
M  V30 4901 H 446.58 -3.30506 -2.03439 0
M  V30 4902 H 444.681 -1.31268 -3.48711 0
M  V30 4903 H 444.794 -3.19508 -3.57004 0
M  V30 4904 H 443.158 -1.62524 -1.96107 0
M  V30 4905 H 443.941 -3.16896 -1.32031 0
M  V30 4906 N 446.386 1.0089 -1.21074 0
M  V30 4907 C 447.333 2.09588 -0.966512 0
M  V30 4908 C 448.303 1.65761 0.106089 0
M  V30 4909 O 449.488 1.90758 -0.0402287 0
M  V30 4910 C 446.628 3.40958 -0.533058 0
M  V30 4911 C 445.741 3.9822 -1.67467 0
M  V30 4912 C 444.876 5.17682 -1.19076 0
M  V30 4913 C 443.915 5.67043 -2.30496 0
M  V30 4914 N 443.052 6.77759 -1.83267 0
M  V30 4915 H 447.892 2.29815 -1.89708 0
M  V30 4916 H 445.429 1.12689 -0.945489 0
M  V30 4917 H 447.387 4.1637 -0.263019 0
M  V30 4918 H 446.017 3.20781 0.360505 0
M  V30 4919 H 445.069 3.1983 -2.05944 0
M  V30 4920 H 446.381 4.3085 -2.51336 0
M  V30 4921 H 445.535 6.00326 -0.877151 0
M  V30 4922 H 444.274 4.86635 -0.322066 0
M  V30 4923 H 443.279 4.82999 -2.62664 0
M  V30 4924 H 444.504 6.00121 -3.17855 0
M  V30 4925 H 442.45 6.48527 -0.987356 0
M  V30 4926 H 442.367 7.09624 -2.60711 0
M  V30 4927 H 443.635 7.63949 -1.54928 0
M  V30 4928 N 447.864 1.01787 1.20321 0
M  V30 4929 C 449.094 0.72614 1.93419 0
M  V30 4930 C 449.502 -0.717317 1.75075 0
M  V30 4931 O 448.845 -1.49836 1.06278 0
M  V30 4932 C 448.907 0.983621 3.45782 0
M  V30 4933 C 448.571 2.41645 3.87888 0
M  V30 4934 C 449.568 3.39732 3.93545 0
M  V30 4935 C 447.253 2.75752 4.19841 0
M  V30 4936 C 449.247 4.69988 4.30569 0
M  V30 4937 C 446.934 4.06221 4.56539 0
M  V30 4938 C 447.932 5.0315 4.61876 0
M  V30 4939 O 447.62 6.31284 4.97731 0
M  V30 4940 H 447.352 0.265824 0.621541 0
M  V30 4941 H 449.906 1.3623 1.53722 0
M  V30 4942 H 448.136 0.290301 3.85609 0
M  V30 4943 H 449.825 0.683279 4.00108 0
M  V30 4944 H 450.591 3.14718 3.69022 0
M  V30 4945 H 446.47 2.00993 4.14877 0
M  V30 4946 H 450.014 5.45642 4.3465 0
M  V30 4947 H 445.911 4.31013 4.80518 0
M  V30 4948 H 446.679 6.35591 5.15719 0
M  V30 4949 N 449.342 -1.36122 0.79427 0
M  V30 4950 C 450.305 -2.28309 0.201889 0
M  V30 4951 C 451.305 -1.49041 -0.603603 0
M  V30 4952 O 452.495 -1.68964 -0.423888 0
M  V30 4953 C 449.627 -3.3321 -0.719978 0
M  V30 4954 H 450.82 -2.82208 1.01481 0
M  V30 4955 H 448.373 -1.45768 0.564037 0
M  V30 4956 H 449.108 -2.84475 -1.55706 0
M  V30 4957 H 448.893 -3.91835 -0.144266 0
M  V30 4958 H 450.383 -4.02044 -1.12916 0
M  V30 4959 N 450.82 -0.546701 -1.47814 0
M  V30 4960 C 452.068 -0.0187037 -2.02091 0
M  V30 4961 C 452.389 1.33168 -1.42447 0
M  V30 4962 O 451.659 1.86619 -0.595839 0
M  V30 4963 H 450.239 -0.00392531 -0.74699 0
M  V30 4964 H 452.901 -0.714327 -1.81338 0
M  V30 4965 H 451.997 0.0772219 -3.12004 0
M  V30 4966 N 452.299 1.55045 -0.282633 0
M  V30 4967 C 453.229 2.2579 0.595066 0
M  V30 4968 C 454.21 1.25074 1.15284 0
M  V30 4969 O 455.395 1.5381 1.18559 0
M  V30 4970 C 452.525 2.98472 1.77572 0
M  V30 4971 C 451.479 4.0618 1.34914 0
M  V30 4972 C 450.805 4.66477 2.6135 0
M  V30 4973 C 452.105 5.1996 0.493821 0
M  V30 4974 H 453.799 2.994 0.00505653 0
M  V30 4975 H 451.345 1.44 0.000992001 0
M  V30 4976 H 453.298 3.46677 2.39568 0
M  V30 4977 H 452.022 2.2241 2.39168 0
M  V30 4978 H 450.681 3.58797 0.752338 0
M  V30 4979 H 450.329 3.87074 3.2122 0
M  V30 4980 H 450.029 5.39207 2.33516 0
M  V30 4981 H 451.553 5.17435 3.24181 0
M  V30 4982 H 452.967 5.64172 1.01898 0
M  V30 4983 H 451.364 5.99299 0.310047 0
M  V30 4984 H 452.434 4.82462 -0.485593 0
M  V30 4985 N 453.777 0.010035 1.57597 0
M  V30 4986 C 455.005 -0.683413 1.95287 0
M  V30 4987 C 455.42 -1.66747 0.885481 0
M  V30 4988 O 454.777 -1.82003 -0.134629 0
M  V30 4989 C 454.828 -1.40652 3.33015 0
M  V30 4990 O 454.549 -0.461916 4.35658 0
M  V30 4991 C 456.05 -2.19356 3.85225 0
M  V30 4992 H 453.27 -0.189708 0.643624 0
M  V30 4993 H 455.814 0.0641359 2.04399 0
M  V30 4994 H 453.969 -2.10562 3.2518 0
M  V30 4995 H 454.383 -0.973215 5.15392 0
M  V30 4996 H 455.857 -2.65433 4.83993 0
M  V30 4997 H 456.334 -3.02457 3.18459 0
M  V30 4998 H 456.94 -1.54442 3.96267 0
M  V30 4999 N 455.255 -1.55392 -0.262866 0
M  V30 5000 C 456.502 -1.76476 -0.993109 0
M  V30 5001 C 456.83 -0.571479 -1.85915 0
M  V30 5002 O 456.085 0.445733 -1.90556 0
M  V30 5003 C 456.384 -3.02889 -1.89718 0
M  V30 5004 C 456.05 -4.34974 -1.18781 0
M  V30 5005 C 454.712 -4.7087 -0.991699 0
M  V30 5006 C 457.064 -5.16695 -0.683798 0
M  V30 5007 C 454.392 -5.86036 -0.279024 0
M  V30 5008 C 456.744 -6.32598 0.0153327 0
M  V30 5009 C 455.408 -6.67127 0.223062 0
M  V30 5010 H 454.678 -0.64577 -0.363404 0
M  V30 5011 H 457.325 -1.89664 -0.264525 0
M  V30 5012 H 455.63 -2.84644 -2.6923 0
M  V30 5013 H 457.327 -3.16399 -2.46359 0
M  V30 5014 H 453.917 -4.06765 -1.35058 0
M  V30 5015 H 458.101 -4.8943 -0.8229 0
M  V30 5016 H 453.357 -6.11306 -0.107456 0
M  V30 5017 H 457.531 -6.95171 0.413584 0
M  V30 5018 H 455.158 -7.56216 0.777265 0
M  V30 5019 N 456.733 0.527833 -1.48498 0
M  V30 5020 C 458.144 1.10975 -1.50138 0
M  V30 5021 C 458.495 1.943 -0.272378 0
M  V30 5022 O 457.62 2.07319 0.620301 0
M  V30 5023 C 458.215 2.01927 -2.72049 0
M  V30 5024 C 456.774 2.55332 -2.76554 0
M  V30 5025 C 455.921 1.32341 -2.43683 0
M  V30 5026 H 458.872 0.312986 -1.55583 0
M  V30 5027 H 458.893 2.86244 -2.50689 0
M  V30 5028 H 458.405 1.41254 -3.61481 0
M  V30 5029 H 456.506 3.19721 -1.91336 0
M  V30 5030 H 456.619 2.94319 -3.78038 0
M  V30 5031 H 454.983 1.63989 -1.94884 0
M  V30 5032 H 455.766 0.734165 -3.35358 0
M  V30 5033 N 458.211 1.37122 0.776871 0
M  V30 5034 C 459.158 1.3247 1.88998 0
M  V30 5035 C 460.128 0.191143 1.64997 0
M  V30 5036 O 461.313 0.379683 1.86984 0
M  V30 5037 C 458.453 1.13241 3.25992 0
M  V30 5038 C 457.566 2.35782 3.61982 0
M  V30 5039 C 456.701 2.09465 4.88158 0
M  V30 5040 C 455.74 3.279 5.16864 0
M  V30 5041 N 454.877 3.01167 6.34226 0
M  V30 5042 H 459.717 2.27642 1.9231 0
M  V30 5043 H 457.254 1.13125 0.94027 0
M  V30 5044 H 459.212 1.00115 4.0501 0
M  V30 5045 H 457.842 0.217186 3.22069 0
M  V30 5046 H 456.894 2.59666 2.77989 0
M  V30 5047 H 458.206 3.24125 3.79137 0
M  V30 5048 H 457.36 1.93341 5.75069 0
M  V30 5049 H 456.099 1.18452 4.73097 0
M  V30 5050 H 455.104 3.44569 4.2843 0
M  V30 5051 H 456.329 4.19757 5.33836 0
M  V30 5052 H 454.275 2.12779 6.20533 0
M  V30 5053 H 454.192 3.83052 6.51772 0
M  V30 5054 H 455.46 2.88649 7.24087 0
M  V30 5055 N 459.689 -1.00246 1.21608 0
M  V30 5056 C 460.619 -2.10921 1.00172 0
M  V30 5057 C 461.6 -1.69938 -0.0741587 0
M  V30 5058 O 462.785 -1.94009 0.0861753 0
M  V30 5059 C 459.915 -3.42618 0.568355 0
M  V30 5060 C 458.869 -3.97407 1.58909 0
M  V30 5061 C 458.195 -5.25038 1.01187 0
M  V30 5062 C 459.495 -4.2918 2.97661 0
M  V30 5063 H 461.189 -2.29112 1.92739 0
M  V30 5064 H 458.735 -1.10101 0.928102 0
M  V30 5065 H 460.688 -4.19444 0.405555 0
M  V30 5066 H 459.412 -3.24227 -0.392961 0
M  V30 5067 H 458.071 -3.22703 1.73949 0
M  V30 5068 H 457.719 -5.02982 0.0421965 0
M  V30 5069 H 457.419 -5.62661 1.6937 0
M  V30 5070 H 458.943 -6.04507 0.860448 0
M  V30 5071 H 460.357 -4.96839 2.86049 0
M  V30 5072 H 458.754 -4.77952 3.6288 0
M  V30 5073 H 459.824 -3.3735 3.48315 0
M  V30 5074 N 461.167 -1.02423 -1.1978 0
M  V30 5075 C 462.414 -0.717988 -1.89344 0
M  V30 5076 C 462.742 0.753036 -1.79331 0
M  V30 5077 O 461.997 1.56355 -1.17692 0
M  V30 5078 C 462.296 -1.1088 -3.39765 0
M  V30 5079 C 461.962 -2.57731 -3.6998 0
M  V30 5080 C 460.624 -2.97854 -3.77937 0
M  V30 5081 C 462.976 -3.52763 -3.83677 0
M  V30 5082 C 460.304 -4.31931 -3.97054 0
M  V30 5083 C 462.656 -4.86538 -4.04306 0
M  V30 5084 C 461.32 -5.26356 -4.10494 0
M  V30 5085 H 460.59 -0.26273 -0.692859 0
M  V30 5086 H 463.237 -1.28623 -1.41875 0
M  V30 5087 H 461.542 -0.459094 -3.89101 0
M  V30 5088 H 463.239 -0.849432 -3.919 0
M  V30 5089 H 459.829 -2.25646 -3.64393 0
M  V30 5090 H 464.013 -3.2292 -3.76877 0
M  V30 5091 H 459.269 -4.62324 -4.00083 0
M  V30 5092 H 463.443 -5.60093 -4.13846 0
M  V30 5093 H 461.07 -6.3026 -4.2506 0
M  V30 5094 N 462.645 1.35699 -0.801477 0
M  V30 5095 C 464.056 1.81415 -0.441073 0
M  V30 5096 C 464.407 1.66595 1.03636 0
M  V30 5097 O 463.532 1.19369 1.80499 0
M  V30 5098 C 464.127 3.29369 -0.793819 0
M  V30 5099 C 462.686 3.73248 -0.486083 0
M  V30 5100 C 461.833 2.57775 -1.02213 0
M  V30 5101 H 464.784 1.23749 -0.993572 0
M  V30 5102 H 464.805 3.80395 -0.0894158 0
M  V30 5103 H 464.317 3.40123 -1.86917 0
M  V30 5104 H 462.418 3.68046 0.580735 0
M  V30 5105 H 462.531 4.68222 -1.01513 0
M  V30 5106 H 460.895 2.50788 -0.444712 0
M  V30 5107 H 461.678 2.71309 -2.10348 0
M  V30 5108 N 464.123 0.554532 1.47522 0
M  V30 5109 C 465.4 -0.0360704 1.95567 0
M  V30 5110 C 465.78 -1.48828 1.49711 0
M  V30 5111 O 465.128 -2.16366 0.734717 0
M  V30 5112 C 465.338 0.106631 3.48837 0
M  V30 5113 C 466.686 -0.0400899 4.24581 0
M  V30 5114 O 467.71 0.0340453 3.56184 0
M  V30 5115 O 466.569 -0.199111 5.46137 0
M  V30 5116 H 463.663 -0.0656294 0.824392 0
M  V30 5117 H 466.209 0.620867 1.57935 0
M  V30 5118 H 464.981 1.11727 3.7501 0
M  V30 5119 H 464.604 -0.58804 3.93227 0
M  V30 5120 N 465.601 -1.54893 0.290851 0
M  V30 5121 C 466.826 -2.04804 -0.32712 0
M  V30 5122 C 467.251 -1.16721 -1.47506 0
M  V30 5123 O 466.609 -0.169107 -1.8051 0
M  V30 5124 C 466.657 -3.52268 -0.770689 0
M  V30 5125 O 465.761 -3.67236 -1.87647 0
M  V30 5126 H 465.102 -0.660789 -0.0652227 0
M  V30 5127 H 467.632 -2.00036 0.429739 0
M  V30 5128 H 467.642 -3.9393 -1.06223 0
M  V30 5129 H 466.317 -4.15843 0.069096 0
M  V30 5130 H 464.894 -3.37479 -1.58626 0
M  V30 5131 N 467.08 -0.0183926 -1.57589 0
M  V30 5132 C 468.01 0.965596 -2.12599 0
M  V30 5133 C 468.991 1.34641 -1.0395 0
M  V30 5134 O 470.176 1.42693 -1.31729 0
M  V30 5135 C 467.306 2.25149 -2.64434 0
M  V30 5136 C 466.26 2.01175 -3.77773 0
M  V30 5137 C 465.586 3.35937 -4.15994 0
M  V30 5138 C 466.886 1.35953 -5.04296 0
M  V30 5139 H 468.58 0.507504 -2.95067 0
M  V30 5140 H 466.126 0.242671 -1.41941 0
M  V30 5141 H 468.079 2.94357 -3.01549 0
M  V30 5142 H 466.803 2.73105 -1.79112 0
M  V30 5143 H 465.462 1.34388 -3.4108 0
M  V30 5144 H 465.11 3.81631 -3.27669 0
M  V30 5145 H 464.81 3.20705 -4.92364 0
M  V30 5146 H 466.334 4.0643 -4.55683 0
M  V30 5147 H 467.748 1.95144 -5.39065 0
M  V30 5148 H 466.145 1.31152 -5.85593 0
M  V30 5149 H 467.215 0.331071 -4.83768 0
M  V30 5150 N 468.558 1.5553 0.254621 0
M  V30 5151 C 469.805 1.77 0.983736 0
M  V30 5152 C 470.133 0.58133 1.85609 0
M  V30 5153 O 469.388 -0.435621 1.9079 0
M  V30 5154 C 469.687 3.03891 1.88109 0
M  V30 5155 C 469.353 4.35597 1.16472 0
M  V30 5156 C 468.015 4.7139 0.966714 0
M  V30 5157 C 470.367 5.1705 0.656387 0
M  V30 5158 C 467.695 5.86176 0.247942 0
M  V30 5159 C 470.047 6.32581 -0.0488807 0
M  V30 5160 C 468.711 6.67 -0.258438 0
M  V30 5161 H 467.981 0.647688 0.359974 0
M  V30 5162 H 470.628 1.89802 0.254463 0
M  V30 5163 H 468.933 2.86068 2.67717 0
M  V30 5164 H 470.63 3.17701 2.44677 0
M  V30 5165 H 467.22 4.07475 1.32899 0
M  V30 5166 H 471.404 4.8986 0.796933 0
M  V30 5167 H 466.66 6.11354 0.075035 0
M  V30 5168 H 470.834 6.94942 -0.450444 0
M  V30 5169 H 468.461 7.55793 -0.817358 0
M  V30 5170 N 470.036 -0.519951 1.48776 0
M  V30 5171 C 471.447 -1.10177 1.50725 0
M  V30 5172 C 471.798 -1.94153 0.282678 0
M  V30 5173 O 470.923 -2.07645 -0.609298 0
M  V30 5174 C 471.518 -2.00482 2.73116 0
M  V30 5175 C 470.077 -2.53862 2.77905 0
M  V30 5176 C 469.224 -1.31047 2.44381 0
M  V30 5177 H 472.175 -0.30473 1.55747 0
M  V30 5178 H 472.196 -2.8491 2.52203 0
M  V30 5179 H 471.708 -1.39335 3.62225 0
M  V30 5180 H 469.809 -3.18702 1.93029 0
M  V30 5181 H 469.922 -2.9231 3.79594 0
M  V30 5182 H 468.286 -1.62953 1.95751 0
M  V30 5183 H 469.069 -0.71637 3.35743 0
M  V30 5184 N 471.514 -1.37532 -0.769588 0
M  V30 5185 C 472.477 -1.33292 -1.86456 0
M  V30 5186 C 473.477 -0.236537 -1.59051 0
M  V30 5187 O 474.667 -0.492511 -1.67093 0
M  V30 5188 C 471.799 -1.07118 -3.23633 0
M  V30 5189 H 472.992 -2.30692 -1.91628 0
M  V30 5190 H 470.545 -1.22593 -0.969572 0
M  V30 5191 H 471.28 -0.102578 -3.24138 0
M  V30 5192 H 471.065 -1.86479 -3.44917 0
M  V30 5193 H 472.555 -1.06806 -4.03711 0
M  V30 5194 N 472.992 0.995999 -1.22138 0
M  V30 5195 C 474.269 1.70834 -0.952642 0
M  V30 5196 C 474.649 2.04257 0.533119 0
M  V30 5197 O 473.997 1.72343 1.50034 0
M  V30 5198 C 474.207 2.96119 -1.84701 0
M  V30 5199 C 475.555 3.68962 -2.10124 0
M  V30 5200 O 476.579 3.0612 -1.82124 0
M  V30 5201 O 475.438 4.82017 -2.57531 0
M  V30 5202 H 472.532 0.745498 -0.357997 0
M  V30 5203 H 475.078 1.05262 -1.33109 0
M  V30 5204 H 473.85 2.67898 -2.85213 0
M  V30 5205 H 473.473 3.6943 -1.46995 0
M  V30 5206 N 474.47 1.03057 1.19235 0
M  V30 5207 C 475.695 0.74757 1.93458 0
M  V30 5208 C 476.12 -0.687648 1.7508 0
M  V30 5209 O 475.478 -1.47499 1.05422 0
M  V30 5210 C 475.526 1.10604 3.43219 0
M  V30 5211 O 474.63 0.225671 4.11782 0
M  V30 5212 H 473.971 0.276047 0.603899 0
M  V30 5213 H 476.501 1.3777 1.51263 0
M  V30 5214 H 476.511 1.06366 3.93891 0
M  V30 5215 H 475.186 2.15165 3.55917 0
M  V30 5216 H 473.763 0.326795 3.71465 0
M  V30 5217 N 475.948 -1.35272 0.808662 0
M  V30 5218 C 476.858 -2.33546 0.222079 0
M  V30 5219 C 477.874 -1.6196 -0.636011 0
M  V30 5220 O 479.05 -1.93822 -0.547274 0
M  V30 5221 C 476.115 -3.41148 -0.61795 0
M  V30 5222 C 475.176 -4.28507 0.260875 0
M  V30 5223 C 474.409 -5.3097 -0.539156 0
M  V30 5224 O 474.632 -5.42123 -1.77367 0
M  V30 5225 O 473.566 -6.01858 0.0710526 0
M  V30 5226 H 477.392 -2.85515 1.03512 0
M  V30 5227 H 474.977 -1.38079 0.570495 0
M  V30 5228 H 476.859 -4.06889 -1.09634 0
M  V30 5229 H 475.534 -2.91447 -1.40855 0
M  V30 5230 H 474.441 -3.6574 0.786451 0
M  V30 5231 H 475.774 -4.81611 1.01547 0
M  V30 5232 N 477.426 -0.562348 -1.47226 0
M  V30 5233 C 478.376 0.202967 -2.27095 0
M  V30 5234 C 479.36 0.880611 -1.34663 0
M  V30 5235 O 480.552 0.778069 -1.58981 0
M  V30 5236 C 477.681 1.22906 -3.20545 0
M  V30 5237 C 476.767 0.554566 -4.20459 0
M  V30 5238 N 477.158 -0.378295 -5.04383 0
M  V30 5239 C 475.456 0.807854 -4.38623 0
M  V30 5240 C 476.157 -0.770583 -5.76573 0
M  V30 5241 N 475.133 -0.124263 -5.43458 0
M  V30 5242 H 478.935 -0.514196 -2.89367 0
M  V30 5243 H 476.449 -0.382655 -1.57827 0
M  V30 5244 H 478.446 1.79134 -3.76453 0
M  V30 5245 H 477.106 1.94726 -2.59831 0
M  V30 5246 H 478.117 -0.75274 -5.124 0
M  V30 5247 H 474.794 1.51418 -3.89075 0
M  V30 5248 H 476.184 -1.53742 -6.54074 0
M  V30 5249 N 478.904 1.54736 -0.299062 0
M  V30 5250 C 479.852 2.24897 0.593658 0
M  V30 5251 C 480.846 1.25429 1.13859 0
M  V30 5252 O 482.052 1.43286 1.08945 0
M  V30 5253 H 478.427 0.72207 0.210046 0
M  V30 5254 H 480.398 2.98393 -0.0206421 0
M  V30 5255 C 479.147 3.00159 1.75499 0
M  V30 5256 H 478.47 3.76501 1.34489 0
M  V30 5257 H 479.91 3.52535 2.35574 0
M  V30 5258 C 478.369 2.07015 2.65794 0
M  V30 5259 O 478.899 1.63692 3.66835 0
M  V30 5260 N 477.105 1.73012 2.33485 0
M  V30 5261 H 476.652 2.08439 1.51364 0
M  V30 5262 H 476.61 1.10965 2.94167 0
M  V30 5263 N 480.382 0.0267497 1.57577 0
M  V30 5264 C 481.329 -0.955894 2.10075 0
M  V30 5265 C 482.299 -1.32453 1.00226 0
M  V30 5266 O 483.484 -1.41826 1.27632 0
M  V30 5267 C 480.624 -2.2338 2.6305 0
M  V30 5268 C 479.737 -1.92183 3.86898 0
M  V30 5269 C 478.872 -3.14251 4.28275 0
M  V30 5270 C 477.911 -2.78862 5.44888 0
M  V30 5271 N 477.048 -3.93548 5.81433 0
M  V30 5272 H 481.888 -0.501303 2.93753 0
M  V30 5273 H 479.425 -0.235847 1.45197 0
M  V30 5274 H 481.383 -2.98124 2.91853 0
M  V30 5275 H 480.013 -2.6646 1.82205 0
M  V30 5276 H 479.065 -1.07692 3.64838 0
M  V30 5277 H 480.377 -1.62117 4.7172 0
M  V30 5278 H 479.531 -3.97317 4.58502 0
M  V30 5279 H 478.27 -3.47476 3.42215 0
M  V30 5280 H 477.275 -1.94208 5.14357 0
M  V30 5281 H 478.5 -2.46855 6.32645 0
M  V30 5282 H 476.446 -4.2662 4.98328 0
M  V30 5283 H 476.363 -3.67098 6.6089 0
M  V30 5284 H 477.631 -4.77325 6.16264 0
M  V30 5285 N 481.861 -1.55662 -0.24637 0
M  V30 5286 C 482.791 -1.93377 -1.30873 0
M  V30 5287 C 483.772 -0.798773 -1.50179 0
M  V30 5288 O 484.957 -1.0591 -1.62778 0
M  V30 5289 C 482.087 -2.22893 -2.66338 0
M  V30 5290 C 481.041 -3.38649 -2.61727 0
M  V30 5291 C 480.367 -3.53708 -4.00992 0
M  V30 5292 C 481.667 -4.74323 -2.18666 0
M  V30 5293 H 483.361 -2.82363 -0.995552 0
M  V30 5294 H 480.907 -1.35854 -0.477464 0
M  V30 5295 H 482.86 -2.47866 -3.40794 0
M  V30 5296 H 481.584 -1.30733 -2.99293 0
M  V30 5297 H 480.243 -3.13685 -1.89729 0
M  V30 5298 H 479.891 -2.58967 -4.31214 0
M  V30 5299 H 479.591 -4.31551 -3.98795 0
M  V30 5300 H 481.115 -3.81003 -4.77147 0
M  V30 5301 H 482.529 -4.98665 -2.82854 0
M  V30 5302 H 480.926 -5.55273 -2.27579 0
M  V30 5303 H 481.996 -4.71349 -1.13834 0
M  V30 5304 N 483.339 0.512053 -1.4905 0
M  V30 5305 C 484.286 1.6148 -1.64902 0
M  V30 5306 C 485.256 1.58687 -0.490673 0
M  V30 5307 O 486.441 1.76842 -0.71636 0
M  V30 5308 C 483.581 2.99676 -1.71139 0
M  V30 5309 C 482.694 3.12568 -2.98203 0
M  V30 5310 C 481.829 4.4143 -2.95487 0
M  V30 5311 C 480.868 4.47916 -4.17179 0
M  V30 5312 N 480.005 5.68191 -4.12437 0
M  V30 5313 H 484.845 1.47271 -2.59066 0
M  V30 5314 H 482.382 0.716713 -1.28459 0
M  V30 5315 H 484.34 3.79761 -1.72736 0
M  V30 5316 H 482.97 3.12614 -0.804508 0
M  V30 5317 H 482.022 2.25618 -3.06269 0
M  V30 5318 H 483.334 3.1322 -3.88194 0
M  V30 5319 H 482.488 5.29825 -2.95585 0
M  V30 5320 H 481.227 4.43326 -2.03256 0
M  V30 5321 H 480.232 3.57925 -4.17337 0
M  V30 5322 H 481.457 4.47744 -5.1059 0
M  V30 5323 H 479.403 5.7095 -3.23036 0
M  V30 5324 H 479.32 5.70413 -4.96151 0
M  V30 5325 H 480.588 6.58823 -4.16621 0
M  V30 5326 N 484.817 1.37938 0.762283 0
M  V30 5327 C 485.78 1.34279 1.85747 0
M  V30 5328 C 486.78 0.244969 1.58923 0
M  V30 5329 O 487.97 0.501365 1.66829 0
M  V30 5330 C 485.102 1.08833 3.23061 0
M  V30 5331 H 486.295 2.31705 1.90401 0
M  V30 5332 H 483.848 1.23105 0.963057 0
M  V30 5333 H 484.583 0.119767 3.24079 0
M  V30 5334 H 484.368 1.88306 3.43923 0
M  V30 5335 H 485.858 1.08946 4.03138 0
M  V30 5336 N 486.295 -0.989507 1.22664 0
M  V30 5337 C 487.52 -1.77031 1.08051 0
M  V30 5338 C 487.945 -1.84535 -0.364483 0
M  V30 5339 O 487.303 -1.3003 -1.2634 0
M  V30 5340 C 487.351 -3.18 1.70024 0
M  V30 5341 O 486.455 -4.01161 0.956216 0
M  V30 5342 H 485.796 -0.545008 0.379292 0
M  V30 5343 H 488.326 -1.24277 1.62531 0
M  V30 5344 H 488.336 -3.68616 1.74888 0
M  V30 5345 H 487.011 -3.11853 2.75174 0
M  V30 5346 H 485.588 -3.59687 0.98384 0
M  V30 5347 N 487.773 -1.03688 -1.18687 0
M  V30 5348 C 488.705 -0.582696 -2.21669 0
M  V30 5349 C 489.718 0.345656 -1.59088 0
M  V30 5350 O 490.907 0.140776 -1.77944 0
M  V30 5351 C 488.007 0.169204 -3.38477 0
M  V30 5352 C 487.18 -0.766079 -4.30639 0
M  V30 5353 C 486.239 -0.0581541 -5.26168 0
M  V30 5354 O 485.265 -0.687346 -5.65035 0
M  V30 5355 N 486.467 1.20981 -5.67753 0
M  V30 5356 H 489.232 -1.46843 -2.61261 0
M  V30 5357 H 486.793 -0.916896 -1.33434 0
M  V30 5358 H 488.785 0.652543 -3.99405 0
M  V30 5359 H 487.355 0.956435 -2.97609 0
M  V30 5360 H 486.575 -1.42935 -3.67373 0
M  V30 5361 H 487.863 -1.40146 -4.89118 0
M  V30 5362 H 487.261 1.74159 -5.38224 0
M  V30 5363 H 485.818 1.6375 -6.30896 0
M  V30 5364 N 489.251 1.34841 -0.815825 0
M  V30 5365 C 490.214 2.27959 -0.238185 0
M  V30 5366 C 491.214 1.49983 0.579816 0
M  V30 5367 O 492.404 1.69617 0.396953 0
M  V30 5368 C 489.536 3.34314 0.666876 0
M  V30 5369 H 490.729 2.80558 -1.05958 0
M  V30 5370 H 488.282 1.44852 -0.587156 0
M  V30 5371 H 489.017 2.86916 1.5116 0
M  V30 5372 H 488.802 3.92014 0.0819106 0
M  V30 5373 H 490.292 4.0379 1.06506 0
M  V30 5374 N 490.729 0.570148 1.46925 0
M  V30 5375 C 492.145 0.23087 1.57921 0
M  V30 5376 C 492.345 -1.26676 1.56702 0
M  V30 5377 O 491.401 -2.04774 1.47729 0
M  V30 5378 C 492.714 0.868973 2.8787 0
M  V30 5379 C 494.262 0.841397 3.01479 0
M  V30 5380 C 494.737 1.45881 4.34146 0
M  V30 5381 N 496.228 1.42258 4.40814 0
M  V30 5382 C 496.963 1.8698 5.42057 0
M  V30 5383 N 496.459 2.39618 6.50042 0
M  V30 5384 N 498.252 1.77972 5.33181 0
M  V30 5385 H 490.403 1.54301 1.45962 0
M  V30 5386 H 492.666 0.644224 0.69547 0
M  V30 5387 H 492.372 1.922 2.94537 0
M  V30 5388 H 492.246 0.369682 3.75384 0
M  V30 5389 H 494.633 -0.202973 2.94401 0
M  V30 5390 H 494.714 1.37858 2.15474 0
M  V30 5391 H 494.358 2.50231 4.4198 0
M  V30 5392 H 494.288 0.896958 5.18905 0
M  V30 5393 H 496.779 1.03768 3.63374 0
M  V30 5394 H 497.092 2.71633 7.23488 0
M  V30 5395 H 495.437 2.43636 6.50897 0
M  V30 5396 H 498.628 1.36617 4.4772 0
M  V30 5397 H 498.801 2.13143 6.11943 0
M  V30 5398 N 492.207 -1.54576 0.307264 0
M  V30 5399 C 493.484 -1.92377 -0.353605 0
M  V30 5400 C 493.864 -1.23517 -1.71192 0
M  V30 5401 O 493.212 -0.373101 -2.25433 0
M  V30 5402 C 493.422 -3.45928 -0.462039 0
M  V30 5403 C 494.77 -4.18278 -0.729975 0
M  V30 5404 O 495.794 -3.51997 -0.545605 0
M  V30 5405 O 494.653 -5.3563 -1.08454 0
M  V30 5406 H 491.747 -0.802747 -0.198812 0
M  V30 5407 H 494.293 -1.65929 0.355783 0
M  V30 5408 H 493.065 -3.88187 0.492592 0
M  V30 5409 H 492.688 -3.78431 -1.21965 0
M  V30 5410 N 493.685 -0.035106 -1.57561 0
M  V30 5411 C 494.615 0.942993 -2.13612 0
M  V30 5412 C 495.596 1.33531 -1.05373 0
M  V30 5413 O 496.781 1.41287 -1.33235 0
M  V30 5414 C 493.911 2.22332 -2.66807 0
M  V30 5415 C 492.865 1.97156 -3.79886 0
M  V30 5416 C 492.191 3.31506 -4.19533 0
M  V30 5417 C 493.491 1.30596 -5.05709 0
M  V30 5418 H 495.185 0.476179 -2.95589 0
M  V30 5419 H 492.731 0.227602 -1.4219 0
M  V30 5420 H 494.684 2.91142 -3.04654 0
M  V30 5421 H 493.408 2.7119 -1.81999 0
M  V30 5422 H 492.067 1.30763 -3.42486 0
M  V30 5423 H 491.715 3.78134 -3.31698 0
M  V30 5424 H 491.415 3.15465 -4.95738 0
M  V30 5425 H 492.939 4.01574 -4.59968 0
M  V30 5426 H 494.353 1.89416 -5.41105 0
M  V30 5427 H 492.75 1.24934 -5.86951 0
M  V30 5428 H 493.82 0.279742 -4.84092 0
M  V30 5429 N 495.163 1.55791 0.238111 0
M  V30 5430 C 496.093 1.94068 1.29846 0
M  V30 5431 C 497.074 0.806726 1.49753 0
M  V30 5432 O 498.259 1.06772 1.62214 0
M  V30 5433 C 495.389 2.24302 2.65153 0
M  V30 5434 C 494.343 3.40032 2.59927 0
M  V30 5435 C 493.669 3.55829 3.99111 0
M  V30 5436 C 494.969 4.75476 2.16148 0
M  V30 5437 H 496.663 2.82887 0.980563 0
M  V30 5438 H 494.209 1.36105 0.470253 0
M  V30 5439 H 496.162 2.4967 3.39475 0
M  V30 5440 H 494.886 1.32318 2.98596 0
M  V30 5441 H 493.545 3.14687 1.88063 0
M  V30 5442 H 493.193 2.6125 4.29834 0
M  V30 5443 H 492.893 4.3366 3.96501 0
M  V30 5444 H 494.417 3.83528 4.7512 0
M  V30 5445 H 495.831 5.00158 2.80205 0
M  V30 5446 H 494.228 5.56472 2.24631 0
M  V30 5447 H 495.298 4.71946 1.11333 0
M  V30 5448 N 496.642 -0.504142 1.49319 0
M  V30 5449 C 497.867 -1.28729 1.62615 0
M  V30 5450 C 498.292 -1.85752 0.296309 0
M  V30 5451 O 497.65 -1.65704 -0.735649 0
M  V30 5452 C 497.698 -2.39561 2.69524 0
M  V30 5453 O 496.802 -3.43324 2.28478 0
M  V30 5454 H 496.143 -0.380172 0.544395 0
M  V30 5455 H 498.673 -0.603872 1.95485 0
M  V30 5456 H 498.683 -2.8537 2.91595 0
M  V30 5457 H 497.358 -1.97423 3.66056 0
M  V30 5458 H 495.935 -3.03455 2.16725 0
M  V30 5459 N 498.12 -1.38341 -0.754957 0
M  V30 5460 C 499.067 -1.3546 -1.86867 0
M  V30 5461 C 500.037 -0.217369 -1.64672 0
M  V30 5462 O 501.222 -0.409383 -1.86356 0
M  V30 5463 C 498.362 -1.18413 -3.24149 0
M  V30 5464 C 497.475 -2.41511 -3.58185 0
M  V30 5465 C 496.61 -2.17205 -4.84763 0
M  V30 5466 C 495.649 -3.36081 -5.11582 0
M  V30 5467 N 494.786 -3.11219 -6.29354 0
M  V30 5468 H 499.626 -2.30672 -1.88664 0
M  V30 5469 H 497.163 -1.14607 -0.922154 0
M  V30 5470 H 499.121 -1.06545 -4.03366 0
M  V30 5471 H 497.751 -0.268397 -3.21682 0
M  V30 5472 H 496.803 -2.64056 -2.73822 0
M  V30 5473 H 498.115 -3.30115 -3.73932 0
M  V30 5474 H 497.269 -2.02465 -5.7192 0
M  V30 5475 H 496.008 -1.25964 -4.71152 0
M  V30 5476 H 495.013 -3.51341 -4.22894 0
M  V30 5477 H 496.238 -4.28196 -5.27091 0
M  V30 5478 H 494.184 -2.22624 -6.17069 0
M  V30 5479 H 494.101 -3.93373 -6.45596 0
M  V30 5480 H 495.369 -3.00132 -7.19403 0
M  V30 5481 N 499.598 0.982988 -1.23187 0
M  V30 5482 C 500.531 2.07302 -0.953993 0
M  V30 5483 C 501.509 1.62249 0.106753 0
M  V30 5484 O 502.693 1.88481 -0.0269525 0
M  V30 5485 C 499.82 3.35873 -0.436716 0
M  V30 5486 C 498.866 3.99862 -1.48367 0
M  V30 5487 S 499.699 4.39443 -3.06023 0
M  V30 5488 C 500.855 5.7117 -2.55959 0
M  V30 5489 H 501.088 2.30554 -1.87702 0
M  V30 5490 H 498.621 1.11883 -1.06403 0
M  V30 5491 H 500.579 4.10244 -0.144872 0
M  V30 5492 H 499.24 3.10634 0.465351 0
M  V30 5493 H 498.433 4.92471 -1.07182 0
M  V30 5494 H 498.035 3.31857 -1.72473 0
M  V30 5495 H 500.327 6.47977 -1.97818 0
M  V30 5496 H 501.27 6.17194 -3.47098 0
M  V30 5497 H 501.678 5.29046 -1.96902 0
M  V30 5498 N 501.076 1.04316 1.18135 0
M  V30 5499 C 502.006 0.657299 2.24058 0
M  V30 5500 C 502.987 -0.340678 1.66654 0
M  V30 5501 O 504.172 -0.220223 1.92947 0
M  V30 5502 C 501.302 0.0220715 3.47293 0
M  V30 5503 C 500.256 0.943857 4.17463 0
M  V30 5504 C 499.582 0.172973 5.3442 0
M  V30 5505 C 500.882 2.26409 4.70677 0
M  V30 5506 H 502.576 1.5428 2.56589 0
M  V30 5507 H 500.122 0.743263 1.23335 0
M  V30 5508 H 502.075 -0.259607 4.206 0
M  V30 5509 H 500.799 -0.898323 3.14003 0
M  V30 5510 H 499.458 1.20996 3.46057 0
M  V30 5511 H 499.106 -0.749907 4.97379 0
M  V30 5512 H 498.806 0.787098 5.82304 0
M  V30 5513 H 500.33 -0.101628 6.10515 0
M  V30 5514 H 501.744 2.04294 5.35665 0
M  V30 5515 H 500.141 2.8314 5.29105 0
M  V30 5516 H 501.211 2.90883 3.87962 0
M  V30 5517 N 502.554 -1.34406 0.822964 0
M  V30 5518 C 503.8 -1.98578 0.411666 0
M  V30 5519 C 504.133 -1.65093 -1.02264 0
M  V30 5520 O 503.408 -0.92258 -1.71227 0
M  V30 5521 C 503.691 -3.54823 0.614235 0
M  V30 5522 C 503.544 -3.9805 2.09466 0
M  V30 5523 C 504.863 -4.40071 0.050221 0
M  V30 5524 H 501.982 -0.721355 0.151047 0
M  V30 5525 H 504.624 -1.59301 1.03554 0
M  V30 5526 H 502.774 -3.88411 0.0831774 0
M  V30 5527 H 504.446 -3.74795 2.68936 0
M  V30 5528 H 502.689 -3.4836 2.5851 0
M  V30 5529 H 503.36 -5.06819 2.18721 0
M  V30 5530 H 505.836 -4.13037 0.503953 0
M  V30 5531 H 504.712 -5.48452 0.221759 0
M  V30 5532 H 504.973 -4.29576 -1.04482 0
M  V30 5533 N 504.032 -0.577932 -1.46621 0
M  V30 5534 C 505.281 -0.0594281 -2.01612 0
M  V30 5535 C 505.594 1.30663 -1.45556 0
M  V30 5536 O 506.8 1.91621 -1.92337 0
M  V30 5537 C 505.256 -0.0556666 -3.59857 0
M  V30 5538 C 504.864 -1.41975 -4.24908 0
M  V30 5539 C 506.608 0.409143 -4.22524 0
M  V30 5540 C 504.515 -1.37397 -5.75218 0
M  V30 5541 H 503.445 -0.0184469 -0.753774 0
M  V30 5542 H 506.096 -0.728869 -1.68404 0
M  V30 5543 H 504.478 0.679843 -3.90121 0
M  V30 5544 H 505.652 -2.17461 -4.0626 0
M  V30 5545 H 503.967 -1.82419 -3.74316 0
M  V30 5546 H 506.564 0.46211 -5.32699 0
M  V30 5547 H 506.907 1.42565 -3.91128 0
M  V30 5548 H 507.44 -0.272152 -3.96868 0
M  V30 5549 H 504.179 -2.36714 -6.11267 0
M  V30 5550 H 503.699 -0.661239 -5.96144 0
M  V30 5551 H 505.378 -1.08484 -6.3784 0
M  V30 5552 N 505.51 1.54411 -0.315457 0
M  V30 5553 C 506.787 1.92562 0.343398 0
M  V30 5554 C 507.167 1.24423 1.70535 0
M  V30 5555 O 506.515 0.385051 2.25232 0
M  V30 5556 C 506.725 3.46168 0.443687 0
M  V30 5557 C 508.073 4.18659 0.707783 0
M  V30 5558 O 509.097 3.52281 0.52693 0
M  V30 5559 O 507.956 5.36198 1.05612 0
M  V30 5560 H 505.05 0.80379 0.194552 0
M  V30 5561 H 507.596 1.65738 -0.364577 0
M  V30 5562 H 506.368 3.8792 -0.513172 0
M  V30 5563 H 505.991 3.79073 1.19956 0
M  V30 5564 N 506.988 0.0434614 1.5754 0
M  V30 5565 C 508.399 -0.493343 1.80064 0
M  V30 5566 C 508.75 -1.71388 0.955023 0
M  V30 5567 O 507.875 -2.15736 0.169434 0
M  V30 5568 C 508.47 -0.90179 3.26578 0
M  V30 5569 C 507.029 -1.38362 3.50047 0
M  V30 5570 C 506.176 -0.355129 2.75017 0
M  V30 5571 H 509.127 0.2694 1.56397 0
M  V30 5572 H 509.148 -1.76523 3.37075 0
M  V30 5573 H 508.66 -0.013271 3.88098 0
M  V30 5574 H 506.761 -2.29159 2.93798 0
M  V30 5575 H 506.874 -1.3811 4.58762 0
M  V30 5576 H 505.238 -0.826348 2.40922 0
M  V30 5577 H 506.021 0.525172 3.39259 0
M  V30 5578 N 508.466 -1.55915 -0.229846 0
M  V30 5579 C 509.429 -1.90914 -1.26824 0
M  V30 5580 C 510.429 -0.786999 -1.40225 0
M  V30 5581 O 511.619 -1.05484 -1.38632 0
M  V30 5582 C 508.751 -2.15264 -2.64337 0
M  V30 5583 H 509.944 -2.8378 -0.969998 0
M  V30 5584 H 507.497 -1.49069 -0.4699 0
M  V30 5585 H 508.232 -1.24923 -2.99274 0
M  V30 5586 H 508.017 -2.97005 -2.55989 0
M  V30 5587 H 509.507 -2.43467 -3.39284 0
M  V30 5588 N 509.944 0.496216 -1.49584 0
M  V30 5589 C 510.891 1.59722 -1.66606 0
M  V30 5590 C 511.861 1.58158 -0.507477 0
M  V30 5591 O 513.046 1.76072 -0.735076 0
M  V30 5592 C 510.186 2.97844 -1.74308 0
M  V30 5593 C 509.299 3.09388 -3.01502 0
M  V30 5594 C 508.434 4.38271 -3.00153 0
M  V30 5595 C 507.473 4.43466 -4.21906 0
M  V30 5596 N 506.61 5.63784 -4.1844 0
M  V30 5597 H 511.45 1.44515 -2.60613 0
M  V30 5598 H 508.987 0.703048 -1.29212 0
M  V30 5599 H 510.945 3.77907 -1.76754 0
M  V30 5600 H 509.575 3.11743 -0.837619 0
M  V30 5601 H 508.627 2.22357 -3.08645 0
M  V30 5602 H 509.939 3.09085 -3.91494 0
M  V30 5603 H 509.093 5.2666 -3.01188 0
M  V30 5604 H 507.832 4.41146 -2.07947 0
M  V30 5605 H 506.837 3.53478 -4.21109 0
M  V30 5606 H 508.062 4.42303 -5.1531 0
M  V30 5607 H 506.008 5.67491 -3.29074 0
M  V30 5608 H 505.925 5.65118 -5.02173 0
M  V30 5609 H 507.193 6.54367 -4.23585 0
M  V30 5610 N 511.423 1.38739 0.74761 0
M  V30 5611 C 512.839 1.20067 1.05148 0
M  V30 5612 C 513.039 0.0534835 2.01429 0
M  V30 5613 O 512.095 -0.59886 2.45296 0
M  V30 5614 C 513.408 2.52957 1.62584 0
M  V30 5615 C 514.956 2.59692 1.74726 0
M  V30 5616 C 515.431 3.92772 2.35573 0
M  V30 5617 N 516.922 3.94343 2.42997 0
M  V30 5618 C 517.657 4.9408 2.90985 0
M  V30 5619 N 517.153 6.04214 3.38965 0
M  V30 5620 N 518.946 4.81466 2.9008 0
M  V30 5621 H 511.097 2.12121 0.108808 0
M  V30 5622 H 513.36 0.941491 0.110899 0
M  V30 5623 H 513.066 3.37389 0.993051 0
M  V30 5624 H 512.94 2.71779 2.61565 0
M  V30 5625 H 515.327 1.75651 2.3713 0
M  V30 5626 H 515.408 2.44731 0.744326 0
M  V30 5627 H 515.052 4.77238 1.738 0
M  V30 5628 H 514.982 4.05046 3.36519 0
M  V30 5629 H 517.473 3.14799 2.0907 0
M  V30 5630 H 517.786 6.76241 3.74056 0
M  V30 5631 H 516.131 6.07825 3.37007 0
M  V30 5632 H 519.322 3.94535 2.51912 0
M  V30 5633 H 519.495 5.59344 3.27166 0
M  V30 5634 N 512.901 -0.976442 1.23707 0
M  V30 5635 C 514.15 -1.71254 1.06559 0
M  V30 5636 C 514.463 -1.91528 -0.397024 0
M  V30 5637 O 515.669 -2.62625 -0.688518 0
M  V30 5638 C 514.125 -3.08207 1.8584 0
M  V30 5639 C 513.733 -2.95806 3.36456 0
M  V30 5640 C 515.477 -3.85749 1.77194 0
M  V30 5641 C 513.384 -4.28015 4.08114 0
M  V30 5642 H 512.314 -0.642171 0.395136 0
M  V30 5643 H 514.965 -1.08877 1.4771 0
M  V30 5644 H 513.347 -3.71363 1.37498 0
M  V30 5645 H 514.521 -2.41716 3.92314 0
M  V30 5646 H 512.836 -2.31736 3.45959 0
M  V30 5647 H 515.433 -4.83633 2.28041 0
M  V30 5648 H 515.776 -4.09752 0.735477 0
M  V30 5649 H 516.309 -3.29303 2.23169 0
M  V30 5650 H 513.048 -4.09208 5.12083 0
M  V30 5651 H 512.568 -4.81955 3.57043 0
M  V30 5652 H 514.247 -4.96681 4.14629 0
M  V30 5653 N 514.379 -1.04941 -1.1758 0
M  V30 5654 C 515.604 -0.778253 -1.92245 0
M  V30 5655 C 516.029 0.659707 -1.76152 0
M  V30 5656 O 515.387 1.45803 -1.07755 0
M  V30 5657 C 515.435 -1.16051 -3.41416 0
M  V30 5658 O 514.539 -0.291153 -4.11371 0
M  V30 5659 H 513.88 -0.285619 -0.599431 0
M  V30 5660 H 516.41 -1.40159 -1.49052 0
M  V30 5661 H 516.42 -1.12619 -3.92149 0
M  V30 5662 H 515.095 -2.208 -3.52449 0
M  V30 5663 H 513.672 -0.385851 -3.70898 0
M  V30 5664 N 515.857 1.33968 -0.830081 0
M  V30 5665 C 517.103 1.98357 -0.422191 0
M  V30 5666 C 517.436 1.65633 1.01387 0
M  V30 5667 O 516.711 0.931648 1.70735 0
M  V30 5668 C 516.994 3.54492 -0.633043 0
M  V30 5669 C 516.847 3.96934 -2.11574 0
M  V30 5670 C 518.166 4.40039 -0.0735584 0
M  V30 5671 H 515.285 0.720544 -0.154871 0
M  V30 5672 H 517.927 1.58749 -1.04397 0
M  V30 5673 H 516.077 3.88361 -0.103775 0
M  V30 5674 H 517.749 3.73363 -2.7092 0
M  V30 5675 H 515.992 3.46984 -2.60354 0
M  V30 5676 H 516.663 5.05651 -2.21406 0
M  V30 5677 H 519.139 4.12764 -0.52585 0
M  V30 5678 H 518.015 5.48327 -0.250841 0
M  V30 5679 H 518.276 4.30124 1.02202 0
M  V30 5680 N 517.335 0.585699 1.46312 0
M  V30 5681 C 518.612 0.00542031 1.95599 0
M  V30 5682 C 518.992 -1.45619 1.52834 0
M  V30 5683 O 518.34 -2.14759 0.780446 0
M  V30 5684 C 518.55 0.180601 3.48532 0
M  V30 5685 C 519.898 0.049979 4.24571 0
M  V30 5686 O 520.922 0.109589 3.56031 0
M  V30 5687 O 519.781 -0.0832226 5.46437 0
M  V30 5688 H 516.875 -0.0481281 0.825598 0
M  V30 5689 H 519.421 0.654227 1.56582 0
M  V30 5690 H 518.193 1.19657 3.72556 0
M  V30 5691 H 517.816 -0.504498 3.94386 0
M  V30 5692 N 518.813 -1.54241 0.323641 0
M  V30 5693 C 520.09 -1.92741 -0.333181 0
M  V30 5694 C 520.47 -1.25326 -1.69872 0
M  V30 5695 O 519.818 -0.396991 -2.25025 0
M  V30 5696 C 520.028 -3.46399 -0.425322 0
M  V30 5697 C 521.376 -4.19029 -0.68557 0
M  V30 5698 O 522.4 -3.52555 -0.50824 0
M  V30 5699 O 521.259 -5.36751 -1.02767 0
M  V30 5700 H 518.353 -0.804811 -0.190286 0
M  V30 5701 H 520.899 -1.65542 0.373361 0
M  V30 5702 H 519.671 -3.87643 0.533737 0
M  V30 5703 H 519.294 -3.79704 -1.17944 0
M  V30 5704 N 520.291 -0.0518155 -1.57515 0
M  V30 5705 C 521.254 0.907547 -2.10467 0
M  V30 5706 C 522.254 1.23947 -1.02439 0
M  V30 5707 O 523.444 1.17604 -1.2851 0
M  V30 5708 C 520.576 2.21723 -2.58944 0
M  V30 5709 H 521.769 0.44851 -2.96527 0
M  V30 5710 H 519.322 0.196598 -1.55059 0
M  V30 5711 H 520.057 2.72206 -1.76279 0
M  V30 5712 H 519.842 1.98935 -3.37886 0
M  V30 5713 H 521.332 2.90441 -3.00056 0
M  V30 5714 N 521.769 1.56035 0.221574 0
M  V30 5715 C 522.699 1.95434 1.2778 0
M  V30 5716 C 523.68 0.822564 1.48889 0
M  V30 5717 O 524.865 1.08486 1.61072 0
M  V30 5718 C 521.995 2.27102 2.62759 0
M  V30 5719 C 520.949 3.4277 2.56306 0
M  V30 5720 C 520.275 3.60043 3.95314 0
M  V30 5721 C 521.575 4.77742 2.11093 0
M  V30 5722 H 523.269 2.83912 0.950504 0
M  V30 5723 H 520.815 1.36596 0.455791 0
M  V30 5724 H 522.768 2.53256 3.36807 0
M  V30 5725 H 521.492 1.35478 2.97176 0
M  V30 5726 H 520.151 3.16664 1.84715 0
M  V30 5727 H 519.799 2.65794 4.27039 0
M  V30 5728 H 519.499 4.37841 3.91879 0
M  V30 5729 H 521.023 3.88545 4.71025 0
M  V30 5730 H 522.437 5.03102 2.74885 0
M  V30 5731 H 520.834 5.58823 2.18716 0
M  V30 5732 H 521.904 4.731 1.06321 0
M  V30 5733 N 523.247 -0.488276 1.49845 0
M  V30 5734 C 524.179 -1.60539 1.63584 0
M  V30 5735 C 525.192 -1.5434 0.517972 0
M  V30 5736 O 526.381 -1.60041 0.790516 0
M  V30 5737 C 523.481 -2.99374 1.58835 0
M  V30 5738 C 522.654 -3.30624 2.86368 0
M  V30 5739 C 521.713 -4.4893 2.74496 0
M  V30 5740 O 520.739 -4.50085 3.48443 0
M  V30 5741 N 521.941 -5.49591 1.86894 0
M  V30 5742 H 524.706 -1.49176 2.59936 0
M  V30 5743 H 522.267 -0.67639 1.47094 0
M  V30 5744 H 524.259 -3.76459 1.48529 0
M  V30 5745 H 522.829 -3.04595 0.702892 0
M  V30 5746 H 522.049 -2.42314 3.1093 0
M  V30 5747 H 523.337 -3.48305 3.70892 0
M  V30 5748 H 522.735 -5.51467 1.26097 0
M  V30 5749 H 521.292 -6.25728 1.82503 0
M  V30 5750 N 524.725 -1.39134 -0.740242 0
M  V30 5751 C 525.675 -1.33928 -1.84519 0
M  V30 5752 C 526.659 -0.221097 -1.59374 0
M  V30 5753 O 527.851 -0.458195 -1.70967 0
M  V30 5754 C 524.98 -1.17991 -3.22387 0
M  V30 5755 C 524.066 -2.34488 -3.53378 0
M  V30 5756 N 524.457 -3.59954 -3.5534 0
M  V30 5757 C 522.755 -2.27331 -3.83714 0
M  V30 5758 C 523.456 -4.36962 -3.83978 0
M  V30 5759 N 522.432 -3.66482 -4.01487 0
M  V30 5760 H 526.234 -2.28907 -1.84333 0
M  V30 5761 H 523.748 -1.32555 -0.938237 0
M  V30 5762 H 525.745 -1.12345 -4.01478 0
M  V30 5763 H 524.405 -0.23957 -3.23815 0
M  V30 5764 H 525.416 -3.93448 -3.36778 0
M  V30 5765 H 522.093 -1.41531 -3.92779 0
M  V30 5766 H 523.483 -5.45692 -3.92008 0
M  V30 5767 N 526.204 0.969867 -1.24223 0
M  V30 5768 C 527.615 1.52717 -1.07399 0
M  V30 5769 C 527.966 1.92956 0.355298 0
M  V30 5770 O 527.091 1.77112 1.2434 0
M  V30 5771 C 527.686 2.77521 -1.94339 0
M  V30 5772 C 526.245 3.29615 -1.81744 0
M  V30 5773 C 525.392 2.02537 -1.89405 0
M  V30 5774 H 528.343 0.788399 -1.37732 0
M  V30 5775 H 528.364 3.50773 -1.47439 0
M  V30 5776 H 527.876 2.48203 -2.98357 0
M  V30 5777 H 525.977 3.63789 -0.805505 0
M  V30 5778 H 526.09 3.98661 -2.65718 0
M  V30 5779 H 524.454 2.17151 -1.33108 0
M  V30 5780 H 525.237 1.75587 -2.94999 0
M  V30 5781 N 527.682 1.05563 1.17022 0
M  V30 5782 C 528.912 0.787307 1.91011 0
M  V30 5783 C 529.32 -0.661256 1.77268 0
M  V30 5784 O 528.663 -1.46379 1.10991 0
M  V30 5785 C 528.725 1.09313 3.42478 0
M  V30 5786 C 528.389 2.53863 3.80004 0
M  V30 5787 C 529.386 3.52081 3.82538 0
M  V30 5788 C 527.071 2.88969 4.10855 0
M  V30 5789 C 529.065 4.83449 4.15399 0
M  V30 5790 C 526.752 4.2054 4.43384 0
M  V30 5791 C 527.75 5.17589 4.45635 0
M  V30 5792 O 527.438 6.46799 4.77395 0
M  V30 5793 H 527.17 0.285463 0.61277 0
M  V30 5794 H 529.724 1.41051 1.49311 0
M  V30 5795 H 527.954 0.412833 3.8449 0
M  V30 5796 H 529.643 0.810224 3.97731 0
M  V30 5797 H 530.409 3.26299 3.58823 0
M  V30 5798 H 526.288 2.1409 4.08272 0
M  V30 5799 H 529.832 5.59194 4.1707 0
M  V30 5800 H 525.729 4.46083 4.66563 0
M  V30 5801 H 526.497 6.51677 4.95237 0
M  V30 5802 N 529.16 -1.33526 0.837174 0
M  V30 5803 C 530.409 -1.97098 0.428387 0
M  V30 5804 C 530.722 -1.67062 -1.01734 0
M  V30 5805 O 531.928 -2.24235 -1.53072 0
M  V30 5806 C 530.384 -3.52725 0.715075 0
M  V30 5807 C 529.992 -3.9164 2.17537 0
M  V30 5808 C 531.736 -4.22857 0.373154 0
M  V30 5809 C 529.643 -5.40237 2.40619 0
M  V30 5810 H 528.573 -0.737589 0.156455 0
M  V30 5811 H 531.224 -1.52169 1.02552 0
M  V30 5812 H 529.606 -3.95971 0.0475904 0
M  V30 5813 H 530.78 -3.59456 2.88319 0
M  V30 5814 H 529.095 -3.34485 2.4801 0
M  V30 5815 H 531.692 -5.32133 0.523264 0
M  V30 5816 H 532.035 -4.10647 -0.683708 0
M  V30 5817 H 532.568 -3.85135 0.995801 0
M  V30 5818 H 529.307 -5.57449 3.44864 0
M  V30 5819 H 528.827 -5.73887 1.74396 0
M  V30 5820 H 530.506 -6.07102 2.23688 0
M  V30 5821 N 530.638 -0.59345 -1.46 0
M  V30 5822 C 531.586 0.146268 -2.3214 0
M  V30 5823 C 532.58 0.873743 -1.45128 0
M  V30 5824 O 533.786 0.790912 -1.61693 0
M  V30 5825 H 530.161 0.0660349 -0.749095 0
M  V30 5826 H 532.132 -0.598895 -2.92328 0
M  V30 5827 C 530.881 1.1396 -3.28494 0
M  V30 5828 H 530.204 0.589252 -3.95434 0
M  V30 5829 H 531.644 1.62738 -3.91526 0
M  V30 5830 C 530.103 2.20604 -2.54628 0
M  V30 5831 O 530.633 3.28128 -2.31722 0
M  V30 5832 N 528.839 1.95502 -2.15005 0
M  V30 5833 H 528.386 1.0807 -2.33834 0
M  V30 5834 H 528.344 2.67064 -1.65904 0
M  V30 5835 N 532.116 1.54067 -0.331816 0
M  V30 5836 C 533.362 2.01012 0.268667 0
M  V30 5837 C 533.695 1.2195 1.51136 0
M  V30 5838 O 532.97 0.303972 1.9211 0
M  V30 5839 C 533.253 3.55158 0.59456 0
M  V30 5840 C 533.106 4.4494 -0.659409 0
M  V30 5841 C 534.425 4.16939 1.4089 0
M  V30 5842 H 531.544 0.730698 0.0961756 0
M  V30 5843 H 534.186 1.84593 -0.450031 0
M  V30 5844 H 532.336 3.6928 1.20685 0
M  V30 5845 H 534.008 4.42675 -1.29756 0
M  V30 5846 H 532.251 4.1428 -1.28665 0
M  V30 5847 H 532.922 5.50643 -0.386804 0
M  V30 5848 H 535.398 4.06443 0.891272 0
M  V30 5849 H 534.274 5.24889 1.60569 0
M  V30 5850 H 534.535 3.70798 2.40752 0
M  V30 5851 N 533.594 0.0601682 1.57485 0
M  V30 5852 C 534.84 -0.606552 1.94146 0
M  V30 5853 C 535.195 -1.67918 0.939225 0
M  V30 5854 O 534.488 -1.91558 -0.0402649 0
M  V30 5855 C 534.682 -1.23831 3.35262 0
M  V30 5856 C 534.511 -0.228408 4.4912 0
M  V30 5857 C 533.281 0.182813 5.04969 0
M  V30 5858 C 535.479 0.52975 5.11564 0
M  V30 5859 N 533.461 1.18464 6.02362 0
M  V30 5860 C 534.832 1.38439 6.04346 0
M  V30 5861 C 536.887 0.587084 4.94427 0
M  V30 5862 C 535.59 2.29125 6.81832 0
M  V30 5863 C 537.616 1.4814 5.72546 0
M  V30 5864 C 536.978 2.32375 6.64967 0
M  V30 5865 H 533.077 -0.193328 0.757726 0
M  V30 5866 H 535.661 0.1346 1.94234 0
M  V30 5867 H 533.832 -1.94944 3.35933 0
M  V30 5868 H 535.564 -1.86456 3.59188 0
M  V30 5869 H 532.319 -0.197968 4.73186 0
M  V30 5870 H 532.743 1.68271 6.55754 0
M  V30 5871 H 537.385 -0.049944 4.22771 0
M  V30 5872 H 535.103 2.93868 7.52773 0
M  V30 5873 H 538.689 1.53045 5.6131 0
M  V30 5874 H 537.569 3.00454 7.2436 0
M  V30 5875 N 535.072 -1.5615 -0.213296 0
M  V30 5876 C 536.302 -1.83372 -0.951757 0
M  V30 5877 C 536.71 -0.638158 -1.78113 0
M  V30 5878 O 536.053 0.402609 -1.79234 0
M  V30 5879 C 536.115 -3.04444 -1.91192 0
M  V30 5880 C 535.779 -4.39107 -1.26627 0
M  V30 5881 C 536.776 -5.15794 -0.652087 0
M  V30 5882 C 534.461 -4.85834 -1.27556 0
M  V30 5883 C 536.455 -6.37376 -0.055814 0
M  V30 5884 C 534.142 -6.07356 -0.675451 0
M  V30 5885 C 535.14 -6.82967 -0.0666367 0
M  V30 5886 O 534.828 -8.0219 0.524119 0
M  V30 5887 H 534.56 -0.613398 -0.284111 0
M  V30 5888 H 537.114 -2.04096 -0.231112 0
M  V30 5889 H 535.344 -2.79559 -2.67178 0
M  V30 5890 H 537.033 -3.18466 -2.51662 0
M  V30 5891 H 537.799 -4.80796 -0.637172 0
M  V30 5892 H 533.678 -4.26949 -1.73883 0
M  V30 5893 H 537.222 -6.96334 0.420004 0
M  V30 5894 H 533.119 -6.41825 -0.687806 0
M  V30 5895 H 533.887 -8.17426 0.419243 0
M  V30 5896 N 536.55 0.480323 -1.50102 0
M  V30 5897 C 537.827 1.24159 -1.51142 0
M  V30 5898 C 538.207 2.09605 -0.250818 0
M  V30 5899 O 537.555 2.15274 0.766118 0
M  V30 5900 C 537.765 2.08057 -2.80202 0
M  V30 5901 C 539.113 2.66556 -3.30504 0
M  V30 5902 O 540.137 2.18308 -2.81461 0
M  V30 5903 O 538.996 3.54442 -4.15973 0
M  V30 5904 H 536.09 0.562928 -0.605839 0
M  V30 5905 H 538.636 0.492899 -1.62384 0
M  V30 5906 H 537.408 1.45032 -3.6343 0
M  V30 5907 H 537.031 2.90079 -2.71919 0
M  V30 5908 N 538.028 1.39524 0.732853 0
M  V30 5909 C 539.439 1.32905 1.31122 0
M  V30 5910 C 539.79 -0.00558708 1.96199 0
M  V30 5911 O 538.915 -0.907706 1.96443 0
M  V30 5912 C 539.51 2.40704 2.38426 0
M  V30 5913 C 538.069 2.37599 2.91931 0
M  V30 5914 C 537.216 2.2248 1.65523 0
M  V30 5915 H 540.167 1.49581 0.530207 0
M  V30 5916 H 540.188 2.07616 3.18867 0
M  V30 5917 H 539.7 3.37829 1.91033 0
M  V30 5918 H 537.801 1.44119 3.43599 0
M  V30 5919 H 537.914 3.32538 3.44899 0
M  V30 5920 H 536.278 1.69691 1.8994 0
M  V30 5921 H 537.061 3.21577 1.20178 0
M  V30 5922 N 539.506 -0.963266 1.24736 0
M  V30 5923 C 540.469 -2.04013 1.04457 0
M  V30 5924 C 541.469 -1.608 0.000335555 0
M  V30 5925 O 542.659 -1.72515 0.241719 0
M  V30 5926 C 539.791 -3.35858 0.584162 0
M  V30 5927 H 540.984 -2.23436 2.00041 0
M  V30 5928 H 538.537 -1.13914 1.07021 0
M  V30 5929 H 539.272 -3.22128 -0.374673 0
M  V30 5930 H 539.057 -3.68568 1.3379 0
M  V30 5931 H 540.547 -4.1502 0.463451 0
M  V30 5932 N 540.985 -1.06182 -1.16461 0
M  V30 5933 C 541.895 -0.682671 -2.24448 0
M  V30 5934 C 542.911 0.30078 -1.71381 0
M  V30 5935 O 544.087 0.150376 -2.00838 0
M  V30 5936 C 541.152 -0.0737202 -3.46622 0
M  V30 5937 C 540.213 -1.10889 -4.14731 0
M  V30 5938 C 539.446 -0.528908 -5.31073 0
M  V30 5939 O 539.669 0.65868 -5.66584 0
M  V30 5940 O 538.603 -1.26805 -5.88391 0
M  V30 5941 H 542.429 -1.58291 -2.59187 0
M  V30 5942 H 540.014 -0.834013 -1.23954 0
M  V30 5943 H 541.896 0.264192 -4.20571 0
M  V30 5944 H 540.571 0.800015 -3.13658 0
M  V30 5945 H 539.478 -1.49896 -3.42756 0
M  V30 5946 H 540.811 -1.95412 -4.51747 0
M  V30 5947 N 542.463 1.3308 -0.844243 0
M  V30 5948 C 543.709 1.97898 -0.443206 0
M  V30 5949 C 544.042 1.66699 0.99625 0
M  V30 5950 O 543.317 0.949704 1.69738 0
M  V30 5951 C 543.6 3.53801 -0.670606 0
M  V30 5952 C 543.453 3.94667 -2.15772 0
M  V30 5953 C 544.772 4.39936 -0.120226 0
M  V30 5954 H 541.891 0.718861 -0.162504 0
M  V30 5955 H 544.533 1.57633 -1.06075 0
M  V30 5956 H 542.683 3.88229 -0.14496 0
M  V30 5957 H 544.355 3.70469 -2.74865 0
M  V30 5958 H 542.598 3.44203 -2.6402 0
M  V30 5959 H 543.269 5.03275 -2.26757 0
M  V30 5960 H 545.745 4.12183 -0.5696 0
M  V30 5961 H 544.621 5.4803 -0.308984 0
M  V30 5962 H 544.882 4.31184 0.976347 0
M  V30 5963 N 543.941 0.601185 1.45683 0
M  V30 5964 C 544.851 -0.123395 2.34275 0
M  V30 5965 C 545.867 -0.86702 1.5086 0
M  V30 5966 O 547.043 -0.826049 1.8368 0
M  V30 5967 C 544.108 -1.11237 3.2837 0
M  V30 5968 C 543.169 -0.371405 4.2769 0
M  V30 5969 C 542.402 -1.31327 5.1729 0
M  V30 5970 O 542.625 -2.55078 5.10188 0
M  V30 5971 O 541.559 -0.813811 5.96373 0
M  V30 5972 H 545.385 0.604483 2.97623 0
M  V30 5973 H 542.97 0.361477 1.44961 0
M  V30 5974 H 544.852 -1.68214 3.8637 0
M  V30 5975 H 543.527 -1.82139 2.67595 0
M  V30 5976 H 542.434 0.24067 3.73325 0
M  V30 5977 H 543.767 0.296998 4.91303 0
M  V30 5978 N 545.419 -1.53889 0.339982 0
M  V30 5979 C 546.382 -2.23547 -0.50592 0
M  V30 5980 C 547.382 -1.23445 -1.03044 0
M  V30 5981 O 548.572 -1.47909 -0.920253 0
M  V30 5982 C 545.704 -2.95234 -1.7044 0
M  V30 5983 H 546.897 -2.99722 0.103247 0
M  V30 5984 H 544.45 -1.56033 0.0912804 0
M  V30 5985 H 545.185 -2.23236 -2.35236 0
M  V30 5986 H 544.97 -3.68654 -1.33553 0
M  V30 5987 H 546.46 -3.48258 -2.30447 0
M  V30 5988 N 546.897 -0.0685191 -1.57451 0
M  V30 5989 C 548.308 0.464634 -1.80826 0
M  V30 5990 C 548.659 1.69847 -0.982169 0
M  V30 5991 O 547.784 2.15439 -0.203734 0
M  V30 5992 C 548.379 0.849721 -3.27971 0
M  V30 5993 C 546.938 1.32776 -3.52204 0
M  V30 5994 C 546.085 0.311332 -2.75547 0
M  V30 5995 H 549.036 -0.294248 -1.55948 0
M  V30 5996 H 549.057 1.71138 -3.39841 0
M  V30 5997 H 548.569 -0.0484736 -3.8807 0
M  V30 5998 H 546.67 2.24456 -2.97406 0
M  V30 5999 H 546.783 1.30794 -4.60901 0
M  V30 6000 H 545.147 0.787915 -2.42206 0
M  V30 6001 H 545.93 -0.579078 -3.38381 0
M  V30 6002 N 548.375 1.56261 0.205012 0
M  V30 6003 C 549.786 1.70056 0.770574 0
M  V30 6004 C 550.137 0.673398 1.84282 0
M  V30 6005 O 549.262 -0.172196 2.15714 0
M  V30 6006 C 549.857 3.08316 1.40451 0
M  V30 6007 C 548.416 3.2391 1.91727 0
M  V30 6008 C 547.563 2.66001 0.783516 0
M  V30 6009 H 550.514 1.58688 -0.019911 0
M  V30 6010 H 550.535 3.05094 2.27371 0
M  V30 6011 H 550.047 3.83053 0.623882 0
M  V30 6012 H 548.148 2.54072 2.7254 0
M  V30 6013 H 548.261 4.3131 2.08588 0
M  V30 6014 H 546.625 2.24915 1.19521 0
M  V30 6015 H 547.408 3.43297 0.0152883 0
M  V30 6016 N 549.853 -0.472356 1.50355 0
M  V30 6017 C 551.264 -1.05326 1.54154 0
M  V30 6018 C 551.615 -1.93155 0.344303 0
M  V30 6019 O 550.74 -2.09479 -0.542928 0
M  V30 6020 C 551.335 -1.91691 2.79356 0
M  V30 6021 C 549.894 -2.44892 2.8584 0
M  V30 6022 C 549.041 -1.23205 2.48426 0
M  V30 6023 H 551.992 -0.255027 1.56637 0
M  V30 6024 H 552.013 -2.76742 2.6114 0
M  V30 6025 H 551.525 -1.27741 3.66475 0
M  V30 6026 H 549.626 -3.12399 2.0307 0
M  V30 6027 H 549.739 -2.80086 3.88701 0
M  V30 6028 H 548.103 -1.56643 2.00836 0
M  V30 6029 H 548.886 -0.609194 3.37852 0
M  V30 6030 N 551.331 -1.39911 -0.725443 0
M  V30 6031 C 552.263 -1.35301 -1.85003 0
M  V30 6032 C 553.276 -0.260102 -1.60709 0
M  V30 6033 O 554.465 -0.519749 -1.70766 0
M  V30 6034 C 551.565 -1.08039 -3.21218 0
M  V30 6035 C 550.738 -2.28793 -3.7279 0
M  V30 6036 C 549.797 -1.97841 -4.87591 0
M  V30 6037 O 548.823 -2.70616 -5.00755 0
M  V30 6038 N 550.025 -0.950367 -5.72668 0
M  V30 6039 H 552.79 -2.32218 -1.89459 0
M  V30 6040 H 550.351 -1.34137 -0.90658 0
M  V30 6041 H 552.343 -0.853354 -3.95601 0
M  V30 6042 H 550.913 -0.198229 -3.11971 0
M  V30 6043 H 550.133 -2.67388 -2.8965 0
M  V30 6044 H 551.421 -3.09317 -4.03981 0
M  V30 6045 H 550.819 -0.347436 -5.64632 0
M  V30 6046 H 549.376 -0.783232 -6.47077 0
M  V30 6047 N 552.809 0.956637 -1.25245 0
M  V30 6048 C 554.058 1.69537 -1.0927 0
M  V30 6049 C 554.371 1.92136 0.366503 0
M  V30 6050 O 555.577 2.63687 0.64665 0
M  V30 6051 C 554.033 3.05211 -1.9072 0
M  V30 6052 C 553.641 2.90416 -3.41119 0
M  V30 6053 C 555.385 3.82882 -1.83308 0
M  V30 6054 C 553.292 4.21468 -4.14872 0
M  V30 6055 H 552.222 0.635804 -0.405302 0
M  V30 6056 H 554.873 1.06513 -1.49423 0
M  V30 6057 H 553.255 3.69128 -1.43389 0
M  V30 6058 H 554.429 2.35444 -3.9611 0
M  V30 6059 H 552.744 2.26203 -3.49602 0
M  V30 6060 H 555.341 4.79944 -2.35706 0
M  V30 6061 H 555.684 4.0853 -0.800572 0
M  V30 6062 H 556.217 3.25711 -2.28379 0
M  V30 6063 H 552.956 4.01009 -5.18529 0
M  V30 6064 H 552.476 4.76213 -3.64665 0
M  V30 6065 H 554.155 4.90022 -4.22478 0
M  V30 6066 N 554.287 1.06798 1.15896 0
M  V30 6067 C 555.517 0.807522 1.90165 0
M  V30 6068 C 555.925 -0.642417 1.7796 0
M  V30 6069 O 555.268 -1.45193 1.12537 0
M  V30 6070 C 555.33 1.12939 3.41299 0
M  V30 6071 C 554.994 2.57879 3.7729 0
M  V30 6072 C 555.991 3.56118 3.78782 0
M  V30 6073 C 553.676 2.93311 4.07767 0
M  V30 6074 C 555.67 4.87827 4.10248 0
M  V30 6075 C 553.357 4.25219 4.38899 0
M  V30 6076 C 554.355 5.22287 4.4012 0
M  V30 6077 O 554.043 6.51826 4.70508 0
M  V30 6078 H 553.775 0.291946 0.609708 0
M  V30 6079 H 556.329 1.42627 1.47806 0
M  V30 6080 H 554.559 0.45359 3.84031 0
M  V30 6081 H 556.248 0.852363 3.9685 0
M  V30 6082 H 557.014 3.30086 3.55342 0
M  V30 6083 H 552.893 2.18409 4.05979 0
M  V30 6084 H 556.437 5.63586 4.11116 0
M  V30 6085 H 552.334 4.51006 4.61805 0
M  V30 6086 H 553.102 6.56893 4.88298 0
M  V30 6087 N 555.766 -1.3263 0.851289 0
M  V30 6088 C 557.043 -1.91982 0.374448 0
M  V30 6089 C 557.423 -1.77568 -1.14161 0
M  V30 6090 O 556.771 -1.1717 -1.96172 0
M  V30 6091 C 556.981 -3.38862 0.835088 0
M  V30 6092 C 558.329 -4.15999 0.850309 0
M  V30 6093 O 559.353 -3.47566 0.779505 0
M  V30 6094 O 558.212 -5.38189 0.949481 0
M  V30 6095 H 555.306 -0.819846 0.10854 0
M  V30 6096 H 557.852 -1.41422 0.937966 0
M  V30 6097 H 556.624 -3.43281 1.87814 0
M  V30 6098 H 556.247 -3.96821 0.248833 0
M  V30 6099 N 557.244 -0.608902 -1.45362 0
M  V30 6100 C 558.191 0.109172 -2.30542 0
M  V30 6101 C 559.161 0.858704 -1.42181 0
M  V30 6102 O 560.346 0.844178 -1.71109 0
M  V30 6103 C 557.486 1.09971 -3.27109 0
M  V30 6104 C 556.599 0.350911 -4.30572 0
M  V30 6105 C 555.734 1.33129 -5.14247 0
M  V30 6106 C 554.773 0.570377 -6.09437 0
M  V30 6107 N 553.91 1.5001 -6.85887 0
M  V30 6108 H 558.75 -0.623195 -2.91411 0
M  V30 6109 H 556.287 -0.319122 -1.43597 0
M  V30 6110 H 558.245 1.68714 -3.81564 0
M  V30 6111 H 556.875 1.79947 -2.67991 0
M  V30 6112 H 555.927 -0.352054 -3.78767 0
M  V30 6113 H 557.239 -0.242725 -4.98209 0
M  V30 6114 H 556.393 1.99074 -5.73109 0
M  V30 6115 H 555.132 1.95885 -4.46632 0
M  V30 6116 H 554.137 -0.102702 -5.49704 0
M  V30 6117 H 555.362 -0.0521607 -6.7908 0
M  V30 6118 H 553.308 2.11529 -6.2096 0
M  V30 6119 H 553.225 0.959934 -7.49881 0
M  V30 6120 H 554.493 2.14909 -7.49289 0
M  V30 6121 N 558.722 1.53707 -0.348139 0
M  V30 6122 C 559.654 2.22725 0.540946 0
M  V30 6123 C 560.667 1.2354 1.06027 0
M  V30 6124 O 561.856 1.49867 0.96964 0
M  V30 6125 C 558.956 2.89756 1.75768 0
M  V30 6126 C 558.129 4.15297 1.37285 0
M  V30 6127 C 557.188 4.65697 2.44976 0
M  V30 6128 O 556.214 5.29798 2.08092 0
M  V30 6129 N 557.416 4.42017 3.763 0
M  V30 6130 H 560.181 2.99658 -0.0501592 0
M  V30 6131 H 557.742 1.60979 -0.17248 0
M  V30 6132 H 559.734 3.20388 2.47252 0
M  V30 6133 H 558.304 2.16382 2.25605 0
M  V30 6134 H 557.524 3.9116 0.488584 0
M  V30 6135 H 558.812 4.96948 1.09179 0
M  V30 6136 H 558.21 3.9076 4.09051 0
M  V30 6137 H 556.767 4.77242 4.4394 0
M  V30 6138 N 560.2 0.0768682 1.57412 0
M  V30 6139 C 561.13 -0.886026 2.16037 0
M  V30 6140 C 562.111 -1.30691 1.08876 0
M  V30 6141 O 563.296 -1.37705 1.36934 0
M  V30 6142 C 560.426 -2.1518 2.72608 0
M  V30 6143 C 559.38 -1.87015 3.8498 0
M  V30 6144 C 558.706 -3.20266 4.28175 0
M  V30 6145 C 560.006 -1.17143 5.08994 0
M  V30 6146 H 561.7 -0.397642 2.96748 0
M  V30 6147 H 559.246 -0.189823 1.42743 0
M  V30 6148 H 561.199 -2.82962 3.12266 0
M  V30 6149 H 559.923 -2.66269 1.89125 0
M  V30 6150 H 558.582 -1.21636 3.45833 0
M  V30 6151 H 558.23 -3.69207 3.41607 0
M  V30 6152 H 557.93 -3.0221 5.03927 0
M  V30 6153 H 559.454 -3.89237 4.70454 0
M  V30 6154 H 560.868 -1.75003 5.45937 0
M  V30 6155 H 559.265 -1.09328 5.90057 0
M  V30 6156 H 560.335 -0.151295 4.84664 0
M  V30 6157 N 561.678 -1.56367 -0.196722 0
M  V30 6158 C 562.955 -1.71359 -0.943159 0
M  V30 6159 C 563.335 -0.631192 -2.01443 0
M  V30 6160 O 562.683 0.358071 -2.25677 0
M  V30 6161 C 562.893 -3.13623 -1.53106 0
M  V30 6162 C 564.241 -3.73806 -2.01381 0
M  V30 6163 O 565.265 -3.16742 -1.62951 0
M  V30 6164 O 564.124 -4.73951 -2.7209 0
M  V30 6165 H 561.218 -0.698851 -0.442195 0
M  V30 6166 H 563.764 -1.68672 -0.186547 0
M  V30 6167 H 562.536 -3.83873 -0.758785 0
M  V30 6168 H 562.159 -3.20532 -2.35255 0
M  V30 6169 N 563.156 0.464375 -1.50603 0
M  V30 6170 C 564.066 1.58723 -1.72754 0
M  V30 6171 C 565.082 1.62925 -0.610844 0
M  V30 6172 O 566.258 1.8067 -0.889963 0
M  V30 6173 C 563.323 2.94897 -1.82309 0
M  V30 6174 C 562.384 3.0103 -3.06071 0
M  V30 6175 C 561.617 4.30708 -3.1516 0
M  V30 6176 O 561.84 5.2159 -2.30868 0
M  V30 6177 O 560.774 4.42571 -4.0794 0
M  V30 6178 H 564.6 1.42954 -2.67951 0
M  V30 6179 H 562.185 0.644579 -1.3478 0
M  V30 6180 H 564.067 3.75764 -1.90735 0
M  V30 6181 H 562.742 3.10851 -0.902967 0
M  V30 6182 H 561.649 2.19217 -3.03142 0
M  V30 6183 H 562.982 2.90014 -3.97684 0
M  V30 6184 N 564.634 1.40294 0.718013 0
M  V30 6185 C 566.05 1.2227 1.02577 0
M  V30 6186 C 566.25 0.0961976 2.0127 0
M  V30 6187 O 565.306 -0.546695 2.46511 0
M  V30 6188 C 566.619 2.56348 1.57182 0
M  V30 6189 C 568.167 2.6334 1.69178 0
M  V30 6190 C 568.642 3.9768 2.27188 0
M  V30 6191 N 570.133 3.99409 2.34578 0
M  V30 6192 C 570.868 5.00141 2.8044 0
M  V30 6193 N 570.364 6.11268 3.26073 0
M  V30 6194 N 572.157 4.87511 2.79802 0
M  V30 6195 H 564.308 2.12304 0.0637899 0
M  V30 6196 H 566.571 0.943632 0.0909036 0
M  V30 6197 H 566.277 3.3942 0.921262 0
M  V30 6198 H 566.151 2.77266 2.55741 0
M  V30 6199 H 568.538 1.80641 2.33351 0
M  V30 6200 H 568.619 2.46255 0.692247 0
M  V30 6201 H 568.263 4.80817 1.63638 0
M  V30 6202 H 568.193 4.12093 3.27852 0
M  V30 6203 H 570.684 3.19162 2.02346 0
M  V30 6204 H 570.997 6.84023 3.59628 0
M  V30 6205 H 569.342 6.14837 3.24038 0
M  V30 6206 H 572.533 3.9979 2.43487 0
M  V30 6207 H 572.706 5.66158 3.15228 0
M  V30 6208 N 566.112 -0.949982 1.2575 0
M  V30 6209 C 567.022 -2.08109 1.08295 0
M  V30 6210 C 568.038 -1.7399 0.0188181 0
M  V30 6211 O 569.214 -2.00187 0.220724 0
M  V30 6212 C 566.279 -3.39383 0.708534 0
M  V30 6213 C 565.34 -3.8734 1.85111 0
M  V30 6214 C 564.573 -5.12349 1.49447 0
M  V30 6215 O 564.796 -5.6905 0.392212 0
M  V30 6216 O 563.73 -5.5513 2.32624 0
M  V30 6217 H 567.556 -2.25738 2.03165 0
M  V30 6218 H 565.141 -1.06545 1.04731 0
M  V30 6219 H 567.023 -4.18277 0.512061 0
M  V30 6220 H 565.698 -3.23013 -0.210854 0
M  V30 6221 H 564.605 -3.09429 2.10248 0
M  V30 6222 H 565.938 -4.08216 2.74991 0
M  V30 6223 N 567.59 -1.07411 -1.15328 0
M  V30 6224 C 568.54 -0.664788 -2.18093 0
M  V30 6225 C 569.524 0.310395 -1.57878 0
M  V30 6226 O 570.716 0.124026 -1.76565 0
M  V30 6227 C 567.845 -0.0647822 -3.43239 0
M  V30 6228 C 566.931 -1.06514 -4.10506 0
M  V30 6229 N 567.322 -2.24491 -4.53252 0
M  V30 6230 C 565.62 -0.898613 -4.36853 0
M  V30 6231 C 566.321 -2.8796 -5.05424 0
M  V30 6232 N 565.297 -2.15622 -4.99007 0
M  V30 6233 H 569.099 -1.56333 -2.48872 0
M  V30 6234 H 566.613 -0.947393 -1.31902 0
M  V30 6235 H 568.61 0.246363 -4.16171 0
M  V30 6236 H 567.27 0.828866 -3.13943 0
M  V30 6237 H 568.281 -2.62205 -4.46619 0
M  V30 6238 H 564.958 -0.0579118 -4.1746 0
M  V30 6239 H 566.348 -3.88137 -5.48452 0
M  V30 6240 N 569.068 1.32177 -0.85831 0
M  V30 6241 C 570.296 2.01313 -0.477582 0
M  V30 6242 C 570.711 1.6449 0.926736 0
M  V30 6243 O 570.068 0.868096 1.60531 0
M  V30 6244 C 570.119 3.56293 -0.611337 0
M  V30 6245 O 569.84 3.91794 -1.96034 0
M  V30 6246 C 571.341 4.42702 -0.230093 0
M  V30 6247 H 568.561 0.644323 -0.187322 0
M  V30 6248 H 571.105 1.68674 -1.15626 0
M  V30 6249 H 569.26 3.87395 0.0196494 0
M  V30 6250 H 569.674 4.86513 -1.95973 0
M  V30 6251 H 571.148 5.50727 -0.374674 0
M  V30 6252 H 571.625 4.3129 0.829779 0
M  V30 6253 H 572.231 4.16997 -0.836302 0
M  V30 6254 N 570.547 0.616602 1.45037 0
M  V30 6255 C 571.796 0.112861 2.01384 0
M  V30 6256 C 572.109 -1.26758 1.48969 0
M  V30 6257 O 573.315 -1.86454 1.9735 0
M  V30 6258 C 571.771 0.151057 3.59583 0
M  V30 6259 C 571.379 1.53191 4.20995 0
M  V30 6260 C 573.123 -0.296974 4.2346 0
M  V30 6261 C 571.03 1.526 5.71373 0
M  V30 6262 H 569.96 0.0384254 0.75302 0
M  V30 6263 H 572.611 0.773262 1.66412 0
M  V30 6264 H 570.993 -0.57617 3.91786 0
M  V30 6265 H 572.167 2.28156 4.00352 0
M  V30 6266 H 570.482 1.92279 3.69348 0
M  V30 6267 H 573.079 -0.320712 5.33737 0
M  V30 6268 H 573.422 -1.32145 3.9477 0
M  V30 6269 H 573.955 0.377279 3.96007 0
M  V30 6270 H 570.694 2.52837 6.04776 0
M  V30 6271 H 570.214 0.819064 5.94181 0
M  V30 6272 H 571.893 1.25357 6.3474 0
M  V30 6273 N 572.025 -1.5352 0.356285 0
M  V30 6274 C 572.935 -2.29151 -0.502712 0
M  V30 6275 C 573.951 -1.34753 -1.1008 0
M  V30 6276 O 575.127 -1.67803 -1.11374 0
M  V30 6277 C 572.192 -3.05911 -1.63154 0
M  V30 6278 C 571.253 -4.15958 -1.06194 0
M  V30 6279 C 570.486 -4.8905 -2.13696 0
M  V30 6280 O 570.709 -4.61919 -3.34645 0
M  V30 6281 O 569.643 -5.75202 -1.77275 0
M  V30 6282 H 573.469 -3.03492 0.112466 0
M  V30 6283 H 571.054 -1.4891 0.120942 0
M  V30 6284 H 572.936 -3.53874 -2.28804 0
M  V30 6285 H 571.611 -2.34415 -2.23229 0
M  V30 6286 H 570.518 -3.7227 -0.369603 0
M  V30 6287 H 571.851 -4.89593 -0.505872 0
M  V30 6288 N 573.503 -0.0852151 -1.57369 0
M  V30 6289 C 574.413 0.891712 -2.16992 0
M  V30 6290 C 575.429 1.3174 -1.13669 0
M  V30 6291 O 576.605 1.38735 -1.45995 0
M  V30 6292 C 573.67 2.13635 -2.73059 0
M  V30 6293 C 572.731 1.7658 -3.91303 0
M  V30 6294 C 571.964 2.95111 -4.44686 0
M  V30 6295 O 572.187 4.09539 -3.97032 0
M  V30 6296 O 571.121 2.74149 -5.35841 0
M  V30 6297 H 574.947 0.414477 -3.00858 0
M  V30 6298 H 572.532 0.138598 -1.48756 0
M  V30 6299 H 574.414 2.86595 -3.08935 0
M  V30 6300 H 573.089 2.6043 -1.92244 0
M  V30 6301 H 571.996 1.00831 -3.60255 0
M  V30 6302 H 573.329 1.34557 -4.7345 0
M  V30 6303 N 574.981 1.5647 0.188427 0
M  V30 6304 C 576.227 1.82181 0.904534 0
M  V30 6305 C 576.582 0.663258 1.80606 0
M  V30 6306 O 575.875 -0.341231 1.88537 0
M  V30 6307 C 576.069 3.11596 1.7505 0
M  V30 6308 C 575.898 4.39928 0.932372 0
M  V30 6309 C 574.668 5.01554 0.61417 0
M  V30 6310 C 576.866 5.13527 0.281936 0
M  V30 6311 N 574.848 6.13499 -0.221896 0
M  V30 6312 C 576.219 6.18603 -0.416037 0
M  V30 6313 C 578.274 4.97505 0.198345 0
M  V30 6314 C 576.977 7.09394 -1.18965 0
M  V30 6315 C 579.003 5.88725 -0.561887 0
M  V30 6316 C 578.365 6.93251 -1.24828 0
M  V30 6317 H 574.464 0.717858 0.310168 0
M  V30 6318 H 577.048 1.93932 0.172757 0
M  V30 6319 H 575.219 3.01068 2.45383 0
M  V30 6320 H 576.951 3.25369 2.4066 0
M  V30 6321 H 573.706 4.64174 0.940187 0
M  V30 6322 H 574.13 6.74065 -0.629735 0
M  V30 6323 H 578.772 4.16716 0.714665 0
M  V30 6324 H 576.49 7.8964 -1.71737 0
M  V30 6325 H 580.076 5.78401 -0.628009 0
M  V30 6326 H 578.956 7.62618 -1.82712 0
M  V30 6327 N 576.459 -0.456382 1.50847 0
M  V30 6328 C 577.406 -1.55249 1.70782 0
M  V30 6329 C 578.376 -1.56757 0.549231 0
M  V30 6330 O 579.561 -1.74061 0.7815 0
M  V30 6331 C 576.701 -2.93118 1.82143 0
M  V30 6332 C 575.814 -3.01285 3.09598 0
M  V30 6333 C 574.949 -4.30159 3.11667 0
M  V30 6334 C 573.988 -4.32124 4.33515 0
M  V30 6335 N 573.125 -5.52492 4.3324 0
M  V30 6336 H 577.965 -1.37555 2.64353 0
M  V30 6337 H 575.502 -0.668543 1.3103 0
M  V30 6338 H 577.46 -3.73088 1.86711 0
M  V30 6339 H 576.09 -3.09413 0.919978 0
M  V30 6340 H 575.142 -2.14096 3.14431 0
M  V30 6341 H 576.454 -2.98597 3.99551 0
M  V30 6342 H 575.608 -5.18489 3.15046 0
M  V30 6343 H 574.347 -4.35477 2.1957 0
M  V30 6344 H 573.352 -3.42189 4.30333 0
M  V30 6345 H 574.577 -4.28485 5.26856 0
M  V30 6346 H 572.523 -5.58567 3.44004 0
M  V30 6347 H 572.44 -5.51605 5.16979 0
M  V30 6348 H 573.708 -6.42906 4.40786 0
M  V30 6349 N 577.937 -1.40673 -0.710563 0
M  V30 6350 C 578.847 -1.43663 -1.85467 0
M  V30 6351 C 579.863 -0.328721 -1.70867 0
M  V30 6352 O 581.039 -0.574098 -1.93044 0
M  V30 6353 C 578.104 -1.30226 -3.21313 0
M  V30 6354 C 577.165 -2.51204 -3.48131 0
M  V30 6355 C 576.398 -2.38398 -4.77495 0
M  V30 6356 O 576.621 -1.40048 -5.5294 0
M  V30 6357 O 575.555 -3.2787 -5.04762 0
M  V30 6358 H 579.381 -2.40156 -1.859 0
M  V30 6359 H 576.966 -1.22049 -0.861652 0
M  V30 6360 H 578.848 -1.2496 -4.02446 0
M  V30 6361 H 577.523 -0.368419 -3.21597 0
M  V30 6362 H 576.43 -2.62048 -2.66987 0
M  V30 6363 H 577.763 -3.43366 -3.52648 0
M  V30 6364 N 579.415 0.9433 -1.26252 0
M  V30 6365 C 580.345 2.05902 -1.10122 0
M  V30 6366 C 581.326 1.70099 -0.00700552 0
M  V30 6367 O 582.511 1.93377 -0.178641 0
M  V30 6368 C 579.641 3.39516 -0.731175 0
M  V30 6369 C 578.595 3.89372 -1.77688 0
M  V30 6370 C 577.921 5.19613 -1.26122 0
M  V30 6371 C 579.221 4.14489 -3.17799 0
M  V30 6372 H 580.915 2.19655 -2.03451 0
M  V30 6373 H 578.461 1.05548 -0.979576 0
M  V30 6374 H 580.414 4.17031 -0.605215 0
M  V30 6375 H 579.138 3.25733 0.23782 0
M  V30 6376 H 577.797 3.14036 -1.89148 0
M  V30 6377 H 577.445 5.02208 -0.282128 0
M  V30 6378 H 577.145 5.53939 -1.96023 0
M  V30 6379 H 578.669 5.99713 -1.14789 0
M  V30 6380 H 580.083 4.82625 -3.09428 0
M  V30 6381 H 578.48 4.60094 -3.85271 0
M  V30 6382 H 579.55 3.20347 -3.64014 0
M  V30 6383 N 580.893 1.08022 1.14757 0
M  V30 6384 C 582.142 0.802468 1.8505 0
M  V30 6385 C 582.455 -0.674061 1.83619 0
M  V30 6386 O 583.661 -1.06683 2.49662 0
M  V30 6387 C 582.117 1.38551 3.32162 0
M  V30 6388 C 581.725 2.89354 3.42021 0
M  V30 6389 C 583.469 1.18608 4.07594 0
M  V30 6390 C 581.376 3.40815 4.83321 0
M  V30 6391 H 580.306 0.296518 0.693248 0
M  V30 6392 H 582.957 1.30114 1.29393 0
M  V30 6393 H 581.339 0.814556 3.87532 0
M  V30 6394 H 582.513 3.52552 2.96722 0
M  V30 6395 H 580.828 3.08165 2.80041 0
M  V30 6396 H 583.425 1.54525 5.11885 0
M  V30 6397 H 583.768 0.125599 4.1611 0
M  V30 6398 H 584.301 1.72375 3.58513 0
M  V30 6399 H 581.04 4.46418 4.79991 0
M  V30 6400 H 580.56 2.82374 5.29174 0
M  V30 6401 H 582.239 3.37171 5.522 0
M  V30 6402 N 582.371 -1.3172 0.865308 0
M  V30 6403 C 583.601 -2.00765 0.487543 0
M  V30 6404 C 584.009 -1.65145 -0.92325 0
M  V30 6405 O 583.352 -0.874294 -1.61561 0
M  V30 6406 C 583.414 -3.55122 0.559369 0
M  V30 6407 C 583.078 -4.14202 1.93095 0
M  V30 6408 C 584.075 -4.3165 2.89784 0
M  V30 6409 C 581.76 -4.50036 2.23099 0
M  V30 6410 C 583.754 -4.84114 4.14623 0
M  V30 6411 C 581.441 -5.02203 3.48189 0
M  V30 6412 C 582.439 -5.19192 4.43767 0
M  V30 6413 O 582.127 -5.70241 5.6664 0
M  V30 6414 H 581.859 -0.649066 0.188915 0
M  V30 6415 H 584.413 -1.69032 1.16694 0
M  V30 6416 H 582.643 -3.86295 -0.176926 0
M  V30 6417 H 584.332 -4.05428 0.195694 0
M  V30 6418 H 585.098 -4.04288 2.6791 0
M  V30 6419 H 580.977 -4.36091 1.49485 0
M  V30 6420 H 584.521 -4.9729 4.89233 0
M  V30 6421 H 580.418 -5.28997 3.69908 0
M  V30 6422 H 581.186 -5.88617 5.68746 0
M  V30 6423 N 583.85 -0.624285 -1.44708 0
M  V30 6424 C 584.797 0.0847135 -2.30644 0
M  V30 6425 C 585.767 0.843575 -1.43084 0
M  V30 6426 O 586.952 0.825982 -1.71995 0
M  V30 6427 C 584.091 1.06495 -3.28257 0
M  V30 6428 C 583.205 0.305224 -4.3092 0
M  V30 6429 C 582.34 1.27667 -5.1563 0
M  V30 6430 C 581.379 0.505706 -6.10007 0
M  V30 6431 N 580.516 1.42727 -6.8744 0
M  V30 6432 H 585.356 -0.654068 -2.90733 0
M  V30 6433 H 582.893 -0.334334 -1.4325 0
M  V30 6434 H 584.851 1.64658 -3.83332 0
M  V30 6435 H 583.481 1.77094 -2.69884 0
M  V30 6436 H 582.533 -0.392207 -3.78373 0
M  V30 6437 H 583.845 -0.295553 -4.97924 0
M  V30 6438 H 582.999 1.92984 -5.75189 0
M  V30 6439 H 581.738 1.91137 -4.48685 0
M  V30 6440 H 580.743 -0.160999 -5.49564 0
M  V30 6441 H 581.968 -0.124183 -6.78986 0
M  V30 6442 H 579.913 2.04931 -6.23169 0
M  V30 6443 H 579.831 0.880345 -7.50857 0
M  V30 6444 H 581.099 2.0695 -7.51526 0
M  V30 6445 N 585.328 1.53329 -0.364422 0
M  V30 6446 C 586.238 2.29414 0.490552 0
M  V30 6447 C 587.254 1.35335 1.09363 0
M  V30 6448 O 588.43 1.68391 1.10483 0
M  V30 6449 C 585.495 3.06772 1.61529 0
M  V30 6450 C 584.556 4.16516 1.03986 0
M  V30 6451 C 583.789 4.90176 2.111 0
M  V30 6452 O 584.012 4.63687 3.32191 0
M  V30 6453 O 582.946 5.76134 1.74222 0
M  V30 6454 H 586.772 3.03428 -0.12856 0
M  V30 6455 H 584.357 1.48843 -0.128837 0
M  V30 6456 H 586.239 3.55082 2.26924 0
M  V30 6457 H 584.914 2.35596 2.21983 0
M  V30 6458 H 583.821 3.7246 0.349856 0
M  V30 6459 H 585.154 4.89855 0.4799 0
M  V30 6460 N 586.806 0.0935595 1.57322 0
M  V30 6461 C 588.052 -0.571355 1.94585 0
M  V30 6462 C 588.385 -1.67929 0.975366 0
M  V30 6463 O 587.66 -1.94498 0.00816206 0
M  V30 6464 C 587.943 -1.12797 3.41978 0
M  V30 6465 C 587.796 -0.0251881 4.49793 0
M  V30 6466 C 589.115 -2.02682 3.90651 0
M  V30 6467 H 586.234 -0.206223 0.70756 0
M  V30 6468 H 588.876 0.163956 1.89291 0
M  V30 6469 H 587.026 -1.75461 3.4662 0
M  V30 6470 H 588.698 0.608979 4.57263 0
M  V30 6471 H 586.941 0.641399 4.29032 0
M  V30 6472 H 587.612 -0.455433 5.50118 0
M  V30 6473 H 590.088 -1.49925 3.88152 0
M  V30 6474 H 588.964 -2.38555 4.94351 0
M  V30 6475 H 589.225 -2.94362 3.29854 0
M  V30 6476 N 588.284 -1.56567 -0.180126 0
M  V30 6477 C 589.217 -1.90813 -1.25163 0
M  V30 6478 C 590.195 -0.7699 -1.43218 0
M  V30 6479 O 591.379 -1.02236 -1.58367 0
M  V30 6480 C 588.506 -2.15138 -2.61597 0
M  V30 6481 C 587.552 -3.37834 -2.60328 0
M  V30 6482 S 588.385 -4.92486 -2.1028 0
M  V30 6483 C 589.541 -5.19896 -3.48509 0
M  V30 6484 H 589.774 -2.81398 -0.959283 0
M  V30 6485 H 587.307 -1.49541 -0.3843 0
M  V30 6486 H 589.265 -2.29835 -3.40127 0
M  V30 6487 H 587.926 -1.25276 -2.88036 0
M  V30 6488 H 587.119 -3.52027 -3.60684 0
M  V30 6489 H 586.721 -3.22208 -1.8989 0
M  V30 6490 H 589.013 -5.11334 -4.44459 0
M  V30 6491 H 589.956 -6.21571 -3.39198 0
M  V30 6492 H 590.364 -4.47489 -3.44114 0
M  V30 6493 N 589.762 0.448376 -1.51087 0
M  V30 6494 C 590.71 1.56407 -1.72161 0
M  V30 6495 C 591.704 1.58878 -0.587721 0
M  V30 6496 O 592.91 1.62755 -0.768822 0
M  V30 6497 H 589.285 0.519423 -0.543786 0
M  V30 6498 H 591.256 1.35803 -2.65707 0
M  V30 6499 C 590.005 2.94163 -1.85373 0
M  V30 6500 H 589.328 2.9299 -2.72024 0
M  V30 6501 H 590.768 3.71625 -2.04135 0
M  V30 6502 C 589.227 3.31317 -0.610803 0
M  V30 6503 O 589.757 4.00985 0.239636 0
M  V30 6504 N 587.963 2.86966 -0.458127 0
M  V30 6505 H 587.51 2.30443 -1.15124 0
M  V30 6506 H 587.468 3.12188 0.372289 0
M  V30 6507 N 591.24 1.41047 0.703093 0
M  V30 6508 C 592.465 1.43537 1.49706 0
M  V30 6509 C 592.89 0.0401853 1.88057 0
M  V30 6510 O 592.248 -0.954785 1.54122 0
M  V30 6511 C 592.296 2.3433 2.74084 0
M  V30 6512 O 591.4 1.79515 3.71279 0
M  V30 6513 H 590.741 0.487454 0.450871 0
M  V30 6514 H 593.271 1.85422 0.86486 0
M  V30 6515 H 593.281 2.49947 3.22476 0
M  V30 6516 H 591.956 3.35708 2.45506 0
M  V30 6517 H 590.533 1.7331 3.30179 0
M  V30 6518 N 592.718 -0.936591 1.26751 0
M  V30 6519 C 593.628 -2.06949 1.10496 0
M  V30 6520 C 594.644 -1.7396 0.037271 0
M  V30 6521 O 595.82 -1.99941 0.241944 0
M  V30 6522 C 592.885 -3.38612 0.744491 0
M  V30 6523 C 591.946 -3.85355 1.89209 0
M  V30 6524 C 591.179 -5.10735 1.54873 0
M  V30 6525 O 591.402 -5.68602 0.452546 0
M  V30 6526 O 590.336 -5.52632 2.38499 0
M  V30 6527 H 594.162 -2.23571 2.05547 0
M  V30 6528 H 591.747 -1.05428 1.05855 0
M  V30 6529 H 593.629 -4.17711 0.556396 0
M  V30 6530 H 592.304 -3.23218 -0.176582 0
M  V30 6531 H 591.211 -3.07182 2.13518 0
M  V30 6532 H 592.544 -4.05277 2.79305 0
M  V30 6533 N 594.196 -1.08629 -1.14182 0
M  V30 6534 C 595.106 -0.730126 -2.22949 0
M  V30 6535 C 596.122 0.26436 -1.7198 0
M  V30 6536 O 597.298 0.107742 -2.01112 0
M  V30 6537 C 594.363 -0.147227 -3.46387 0
M  V30 6538 C 593.424 -1.19662 -4.12286 0
M  V30 6539 C 592.657 -0.641437 -5.29831 0
M  V30 6540 O 592.88 0.538351 -5.67854 0
M  V30 6541 O 591.814 -1.39257 -5.85569 0
M  V30 6542 H 595.64 -1.63753 -2.55771 0
M  V30 6543 H 593.225 -0.860118 -1.22157 0
M  V30 6544 H 595.107 0.174923 -4.21037 0
M  V30 6545 H 593.782 0.733304 -3.15285 0
M  V30 6546 H 592.689 -1.57133 -3.395 0
M  V30 6547 H 594.022 -2.0495 -4.475 0
M  V30 6548 N 595.674 1.31259 -0.872281 0
M  V30 6549 C 596.621 2.28459 -0.327857 0
M  V30 6550 C 597.591 1.55831 0.574957 0
M  V30 6551 O 598.776 1.83965 0.506101 0
M  V30 6552 C 595.916 3.41985 0.462644 0
M  V30 6553 C 595.029 4.29458 -0.467949 0
M  V30 6554 C 594.164 5.30131 0.336903 0
M  V30 6555 C 593.203 6.0925 -0.58997 0
M  V30 6556 N 592.34 7.01872 0.178775 0
M  V30 6557 H 597.18 2.74414 -1.16193 0
M  V30 6558 H 594.717 1.34994 -0.584376 0
M  V30 6559 H 596.675 4.06547 0.936759 0
M  V30 6560 H 595.305 2.97134 1.2614 0
M  V30 6561 H 594.357 3.65318 -1.06052 0
M  V30 6562 H 595.669 4.84677 -1.17856 0
M  V30 6563 H 594.823 6.0038 0.873427 0
M  V30 6564 H 593.562 4.75573 1.08079 0
M  V30 6565 H 592.567 5.37889 -1.13823 0
M  V30 6566 H 593.792 6.65894 -1.33275 0
M  V30 6567 H 591.738 6.49721 0.905435 0
M  V30 6568 H 591.655 7.54522 -0.472452 0
M  V30 6569 H 592.923 7.76382 0.696454 0
M  V30 6570 N 597.152 0.631951 1.44375 0
M  V30 6571 C 598.38 0.143867 2.06399 0
M  V30 6572 C 598.795 -1.18188 1.47231 0
M  V30 6573 O 598.152 -1.72511 0.595498 0
M  V30 6574 C 598.203 0.0238253 3.61492 0
M  V30 6575 O 597.924 1.29715 4.18456 0
M  V30 6576 C 599.425 -0.492856 4.40552 0
M  V30 6577 H 596.645 0.0800542 0.666207 0
M  V30 6578 H 599.189 0.866586 1.85231 0
M  V30 6579 H 597.344 -0.649338 3.81919 0
M  V30 6580 H 597.758 1.14252 5.11905 0
M  V30 6581 H 599.232 -0.525861 5.49489 0
M  V30 6582 H 599.709 -1.52006 4.12057 0
M  V30 6583 H 600.315 0.147085 4.25046 0
M  V30 6584 N 598.631 -1.53133 0.372548 0
M  V30 6585 C 599.578 -2.25951 -0.470631 0
M  V30 6586 C 600.548 -1.26895 -1.07176 0
M  V30 6587 O 601.733 -1.55691 -1.10294 0
M  V30 6588 C 598.873 -3.05726 -1.6008 0
M  V30 6589 C 597.986 -4.19684 -1.02416 0
M  V30 6590 C 597.121 -4.86888 -2.124 0
M  V30 6591 C 596.16 -5.92866 -1.52238 0
M  V30 6592 N 595.297 -6.53732 -2.56084 0
M  V30 6593 H 600.137 -2.97587 0.156816 0
M  V30 6594 H 597.674 -1.4683 0.0891571 0
M  V30 6595 H 599.632 -3.50258 -2.26661 0
M  V30 6596 H 598.262 -2.36331 -2.1988 0
M  V30 6597 H 597.314 -3.79588 -0.248426 0
M  V30 6598 H 598.626 -4.95821 -0.544366 0
M  V30 6599 H 597.78 -5.34638 -2.86787 0
M  V30 6600 H 596.519 -4.10239 -2.63734 0
M  V30 6601 H 595.524 -5.4447 -0.763685 0
M  V30 6602 H 596.749 -6.71439 -1.0172 0
M  V30 6603 H 594.695 -5.79932 -3.06618 0
M  V30 6604 H 594.612 -7.25429 -2.12811 0
M  V30 6605 H 595.88 -7.0613 -3.30152 0
M  V30 6606 N 600.109 -0.101901 -1.5727 0
M  V30 6607 C 601.057 0.872034 -2.15635 0
M  V30 6608 C 602.051 1.28742 -1.10099 0
M  V30 6609 O 603.257 1.26116 -1.28432 0
M  V30 6610 H 599.632 0.299269 -0.689886 0
M  V30 6611 H 601.603 0.355137 -2.96279 0
M  V30 6612 C 600.352 2.11886 -2.7568 0
M  V30 6613 H 599.675 1.80813 -3.56576 0
M  V30 6614 H 601.115 2.78077 -3.20077 0
M  V30 6615 C 599.574 2.89739 -1.7191 0
M  V30 6616 O 600.104 3.84522 -1.16213 0
M  V30 6617 N 598.31 2.53407 -1.42245 0
M  V30 6618 H 597.857 1.76398 -1.87727 0
M  V30 6619 H 597.815 3.05795 -0.730529 0
M  V30 6620 N 601.587 1.56661 0.17182 0
M  V30 6621 C 602.835 1.81606 0.886774 0
M  V30 6622 C 603.156 0.678818 1.82803 0
M  V30 6623 O 602.426 -0.301354 1.93568 0
M  V30 6624 H 601.006 0.669934 0.330451 0
M  V30 6625 H 603.668 1.94142 0.171757 0
M  V30 6626 H 602.764 2.75634 1.46398 0
M  V30 6627 N 603.065 -0.440357 1.51323 0
M  V30 6628 C 604.311 -1.19181 1.64085 0
M  V30 6629 C 604.644 -1.90936 0.354575 0
M  V30 6630 O 603.919 -1.8347 -0.645675 0
M  V30 6631 C 604.202 -2.2112 2.84215 0
M  V30 6632 C 604.055 -1.53468 4.22809 0
M  V30 6633 C 605.374 -3.22133 2.99864 0
M  V30 6634 H 602.493 -0.431924 0.597169 0
M  V30 6635 H 605.135 -0.481443 1.83799 0
M  V30 6636 H 603.285 -2.81703 2.67537 0
M  V30 6637 H 604.957 -0.962455 4.51148 0
M  V30 6638 H 603.2 -0.837086 4.25647 0
M  V30 6639 H 603.871 -2.27694 5.02852 0
M  V30 6640 H 606.347 -2.71601 3.15233 0
M  V30 6641 H 605.223 -3.90756 3.85488 0
M  V30 6642 H 605.484 -3.88061 2.11804 0
M  V30 6643 N 604.543 -1.41418 -0.695603 0
M  V30 6644 C 605.789 -1.40982 -1.4578 0
M  V30 6645 C 606.122 -0.0187763 -1.94191 0
M  V30 6646 O 605.397 0.95346 -1.69527 0
M  V30 6647 C 605.68 -2.41657 -2.66972 0
M  V30 6648 C 605.533 -3.89869 -2.24327 0
M  V30 6649 C 606.852 -2.39589 -3.69168 0
M  V30 6650 H 603.971 -0.513405 -0.528757 0
M  V30 6651 H 606.613 -1.72693 -0.792275 0
M  V30 6652 H 604.763 -2.14746 -3.23754 0
M  V30 6653 H 606.435 -4.27683 -1.72872 0
M  V30 6654 H 604.678 -4.04737 -1.56111 0
M  V30 6655 H 605.349 -4.55857 -3.11285 0
M  V30 6656 H 607.825 -2.63471 -3.2206 0
M  V30 6657 H 606.701 -3.12044 -4.51575 0
M  V30 6658 H 606.962 -1.41447 -4.18862 0
M  V30 6659 N 606.021 0.929856 -1.27246 0
M  V30 6660 C 606.968 2.03017 -1.09785 0
M  V30 6661 C 607.938 1.661 0.000456744 0
M  V30 6662 O 609.123 1.90116 -0.161462 0
M  V30 6663 C 606.263 3.36878 -0.748816 0
M  V30 6664 C 605.376 3.86763 -1.92453 0
M  V30 6665 C 604.511 5.09061 -1.51758 0
M  V30 6666 C 603.55 5.51237 -2.66091 0
M  V30 6667 N 602.687 6.64732 -2.25999 0
M  V30 6668 H 607.527 2.17285 -2.03939 0
M  V30 6669 H 605.064 1.06448 -1.01524 0
M  V30 6670 H 607.022 4.13855 -0.527283 0
M  V30 6671 H 605.652 3.22424 0.155771 0
M  V30 6672 H 604.704 3.06086 -2.25867 0
M  V30 6673 H 606.016 4.13994 -2.78227 0
M  V30 6674 H 605.17 5.93532 -1.25716 0
M  V30 6675 H 603.909 4.83602 -0.630896 0
M  V30 6676 H 602.914 4.65316 -2.92849 0
M  V30 6677 H 604.139 5.78692 -3.55377 0
M  V30 6678 H 602.085 6.40935 -1.3978 0
M  V30 6679 H 602.002 6.91607 -3.05313 0
M  V30 6680 H 603.27 7.52549 -2.03199 0
M  V30 6681 N 607.499 1.09233 1.13605 0
M  V30 6682 C 608.747 0.825525 1.84471 0
M  V30 6683 C 609.068 -0.650702 1.83823 0
M  V30 6684 O 608.338 -1.47204 1.29259 0
M  V30 6685 H 606.918 0.3024 0.683054 0
M  V30 6686 H 609.58 1.38006 1.37624 0
M  V30 6687 H 608.676 1.17727 2.89045 0
M  V30 6688 N 608.977 -1.30795 0.87923 0
M  V30 6689 C 609.909 -2.27241 0.299025 0
M  V30 6690 C 610.922 -1.53472 -0.543166 0
M  V30 6691 O 612.111 -1.74756 -0.363651 0
M  V30 6692 C 609.211 -3.33655 -0.593931 0
M  V30 6693 C 608.384 -4.36857 0.2179 0
M  V30 6694 C 607.443 -5.22715 -0.604646 0
M  V30 6695 O 606.469 -5.69192 -0.0293838 0
M  V30 6696 N 607.671 -5.48008 -1.91488 0
M  V30 6697 H 610.436 -2.77667 1.12788 0
M  V30 6698 H 607.997 -1.43914 0.741637 0
M  V30 6699 H 609.989 -3.88013 -1.15012 0
M  V30 6700 H 608.559 -2.83202 -1.32346 0
M  V30 6701 H 607.779 -3.82444 0.955536 0
M  V30 6702 H 609.067 -5.02869 0.774614 0
M  V30 6703 H 608.465 -5.1202 -2.40525 0
M  V30 6704 H 607.022 -6.05264 -2.41864 0
M  V30 6705 N 610.455 -0.639598 -1.44038 0
M  V30 6706 C 611.866 -0.228866 -1.85292 0
M  V30 6707 C 612.217 1.22161 -1.53529 0
M  V30 6708 O 611.342 1.93064 -0.977518 0
M  V30 6709 C 611.937 -0.408592 -3.36327 0
M  V30 6710 C 610.496 -0.0522953 -3.76364 0
M  V30 6711 C 609.643 -0.717959 -2.67844 0
M  V30 6712 H 612.594 -0.844194 -1.34384 0
M  V30 6713 H 612.615 0.349968 -3.78887 0
M  V30 6714 H 612.127 -1.46435 -3.59414 0
M  V30 6715 H 610.228 1.0014 -3.58891 0
M  V30 6716 H 610.341 -0.468261 -4.76806 0
M  V30 6717 H 608.705 -0.152459 -2.54243 0
M  V30 6718 H 609.488 -1.77648 -2.93762 0
M  V30 6719 N 611.933 1.52934 -0.380664 0
M  V30 6720 C 613.158 2.06363 0.207157 0
M  V30 6721 C 613.583 1.25122 1.4045 0
M  V30 6722 O 612.941 0.274062 1.79217 0
M  V30 6723 C 612.989 3.56162 0.563996 0
M  V30 6724 O 612.093 3.77552 1.65917 0
M  V30 6725 H 611.434 0.663468 0.0265859 0
M  V30 6726 H 613.964 1.9719 -0.545635 0
M  V30 6727 H 613.974 3.99453 0.830752 0
M  V30 6728 H 612.649 4.14732 -0.311427 0
M  V30 6729 H 611.226 3.46154 1.3868 0
M  V30 6730 N 613.412 0.11024 1.57214 0
M  V30 6731 C 614.823 -0.416527 1.81994 0
M  V30 6732 C 615.174 -1.67183 1.02686 0
M  V30 6733 O 614.299 -2.14823 0.260782 0
M  V30 6734 C 614.894 -0.762466 3.30109 0
M  V30 6735 C 613.453 -1.23391 3.556 0
M  V30 6736 C 612.6 -0.238166 2.76275 0
M  V30 6737 H 615.551 0.335491 1.55113 0
M  V30 6738 H 615.572 -1.62068 3.44259 0
M  V30 6739 H 615.084 0.151346 3.87805 0
M  V30 6740 H 613.185 -2.16492 3.03253 0
M  V30 6741 H 613.298 -1.18528 4.64207 0
M  V30 6742 H 611.662 -0.723421 2.4421 0
M  V30 6743 H 612.445 0.668591 3.36727 0
M  V30 6744 N 614.89 -1.56749 -0.16351 0
M  V30 6745 C 616.115 -1.86938 -0.898264 0
M  V30 6746 C 616.54 -0.697456 -1.74692 0
M  V30 6747 O 615.898 0.353327 -1.77824 0
M  V30 6748 C 615.946 -3.15599 -1.74441 0
M  V30 6749 O 615.05 -2.98371 -2.8469 0
M  V30 6750 H 614.391 -0.614659 -0.251178 0
M  V30 6751 H 616.921 -2.03979 -0.159298 0
M  V30 6752 H 616.931 -3.47202 -2.14277 0
M  V30 6753 H 615.606 -4.00505 -1.1211 0
M  V30 6754 H 614.183 -2.7814 -2.4838 0
M  V30 6755 N 616.368 0.432326 -1.51554 0
M  V30 6756 C 617.616 1.17901 -1.64146 0
M  V30 6757 C 617.937 1.91604 -0.362367 0
M  V30 6758 O 617.207 1.85764 0.621968 0
M  V30 6759 H 615.787 0.438206 -0.604966 0
M  V30 6760 H 618.449 0.495172 -1.88505 0
M  V30 6761 H 617.545 1.90584 -2.47152 0
M  V30 6762 N 617.846 1.41785 0.688094 0
M  V30 6763 C 618.809 1.43936 1.78368 0
M  V30 6764 C 619.809 0.328866 1.57401 0
M  V30 6765 O 620.999 0.589093 1.63937 0
M  V30 6766 C 618.131 1.25804 3.16838 0
M  V30 6767 H 619.324 2.41472 1.77852 0
M  V30 6768 H 616.877 1.28037 0.896448 0
M  V30 6769 H 617.612 0.291386 3.22988 0
M  V30 6770 H 617.397 2.06272 3.33458 0
M  V30 6771 H 618.887 1.30162 3.96797 0
M  V30 6772 N 619.324 -0.923095 1.27737 0
M  V30 6773 C 620.287 -2.00587 1.10894 0
M  V30 6774 C 621.287 -1.60718 0.0514927 0
M  V30 6775 O 622.477 -1.71658 0.296481 0
M  V30 6776 C 619.609 -3.33829 0.690717 0
M  V30 6777 H 620.802 -2.16959 2.07048 0
M  V30 6778 H 618.355 -1.10451 1.1059 0
M  V30 6779 H 619.09 -3.23157 -0.272 0
M  V30 6780 H 618.875 -3.64125 1.45448 0
M  V30 6781 H 620.365 -4.13336 0.595252 0
M  V30 6782 N 620.802 -1.09834 -1.13024 0
M  V30 6783 C 622.048 -0.83819 -1.84668 0
M  V30 6784 C 622.381 0.634645 -1.83537 0
M  V30 6785 O 621.656 1.46753 -1.27647 0
M  V30 6786 C 621.939 -1.37933 -3.32636 0
M  V30 6787 C 621.792 -2.91857 -3.42257 0
M  V30 6788 C 623.111 -1.01654 -4.28199 0
M  V30 6789 H 620.23 -0.30595 -0.670495 0
M  V30 6790 H 622.872 -1.36044 -1.32635 0
M  V30 6791 H 621.022 -0.935111 -3.77078 0
M  V30 6792 H 622.694 -3.44759 -3.06495 0
M  V30 6793 H 620.937 -3.28776 -2.83 0
M  V30 6794 H 621.608 -3.24799 -4.46329 0
M  V30 6795 H 624.084 -1.39973 -3.9185 0
M  V30 6796 H 622.96 -1.42217 -5.30156 0
M  V30 6797 H 623.221 0.0747794 -4.42037 0
M  V30 6798 N 622.28 1.30327 -0.886154 0
M  V30 6799 C 623.228 2.30052 -0.343317 0
M  V30 6800 C 624.222 1.60212 0.550305 0
M  V30 6801 O 625.428 1.74674 0.434609 0
M  V30 6802 H 621.803 0.746306 -0.0923681 0
M  V30 6803 H 623.774 2.73294 -1.19804 0
M  V30 6804 C 622.523 3.45079 0.426107 0
M  V30 6805 H 621.846 3.99003 -0.25227 0
M  V30 6806 H 623.286 4.16931 0.771009 0
M  V30 6807 C 621.745 2.95195 1.62363 0
M  V30 6808 O 622.275 2.95323 2.723 0
M  V30 6809 N 620.481 2.51192 1.4612 0
M  V30 6810 H 620.028 2.51286 0.566832 0
M  V30 6811 H 619.986 2.18173 2.2638 0
M  V30 6812 N 623.758 0.647228 1.43697 0
M  V30 6813 C 624.983 0.164083 2.0675 0
M  V30 6814 C 625.408 -1.15892 1.48158 0
M  V30 6815 O 624.766 -1.71459 0.589194 0
M  V30 6816 C 624.814 0.0800368 3.60511 0
M  V30 6817 O 623.918 -0.959453 4.01084 0
M  V30 6818 H 623.259 0.0921288 0.657578 0
M  V30 6819 H 625.789 0.88846 1.84303 0
M  V30 6820 H 625.799 -0.105263 4.07864 0
M  V30 6821 H 624.474 1.04586 4.02535 0
M  V30 6822 H 623.051 -0.747425 3.65333 0
M  V30 6823 N 625.236 -1.5273 0.388769 0
M  V30 6824 C 626.461 -2.0647 -0.19621 0
M  V30 6825 C 626.886 -1.25865 -1.39784 0
M  V30 6826 O 626.244 -0.283562 -1.79069 0
M  V30 6827 C 626.292 -3.56456 -0.5451 0
M  V30 6828 O 625.396 -3.78426 -1.63912 0
M  V30 6829 H 624.737 -0.663599 -0.023067 0
M  V30 6830 H 627.267 -1.96898 0.556084 0
M  V30 6831 H 627.277 -3.99888 -0.809557 0
M  V30 6832 H 625.952 -4.14561 0.333417 0
M  V30 6833 H 624.529 -3.46884 -1.36842 0
M  V30 6834 N 626.714 -0.118576 -1.57153 0
M  V30 6835 C 627.624 0.845484 -2.18835 0
M  V30 6836 C 628.64 1.29299 -1.16438 0
M  V30 6837 O 629.816 1.35607 -1.48905 0
M  V30 6838 C 626.881 2.07795 -2.77529 0
M  V30 6839 C 625.942 1.6824 -3.9496 0
M  V30 6840 C 625.175 2.85612 -4.50845 0
M  V30 6841 O 625.398 4.01025 -4.05629 0
M  V30 6842 O 624.332 2.62721 -5.41536 0
M  V30 6843 H 628.158 0.350568 -3.0167 0
M  V30 6844 H 625.743 0.107013 -1.49016 0
M  V30 6845 H 627.625 2.79978 -3.14945 0
M  V30 6846 H 626.3 2.56294 -1.97725 0
M  V30 6847 H 625.207 0.931663 -3.62313 0
M  V30 6848 H 626.54 1.24484 -4.76198 0
M  V30 6849 N 628.193 1.56834 0.155195 0
M  V30 6850 C 629.418 1.87412 0.888337 0
M  V30 6851 C 629.843 0.70671 1.74319 0
M  V30 6852 O 629.201 -0.343892 1.78009 0
M  V30 6853 C 629.249 3.1652 1.72765 0
M  V30 6854 O 628.353 2.99877 2.83103 0
M  V30 6855 H 627.694 0.615983 0.247914 0
M  V30 6856 H 630.224 2.04061 0.148478 0
M  V30 6857 H 630.234 3.48334 2.12433 0
M  V30 6858 H 628.909 4.01094 1.09985 0
M  V30 6859 H 627.486 2.79453 2.46902 0
M  V30 6860 N 629.671 -0.424282 1.51781 0
M  V30 6861 C 630.601 -1.52305 1.7699 0
M  V30 6862 C 631.582 -1.5839 0.620209 0
M  V30 6863 O 632.767 -1.73908 0.864268 0
M  V30 6864 C 629.897 -2.90271 1.90683 0
M  V30 6865 C 628.851 -2.99043 3.06198 0
M  V30 6866 C 628.177 -4.39116 3.05092 0
M  V30 6867 C 629.477 -2.7192 4.45934 0
M  V30 6868 H 631.171 -1.31461 2.68995 0
M  V30 6869 H 628.717 -0.630985 1.29439 0
M  V30 6870 H 630.67 -3.6711 2.06901 0
M  V30 6871 H 629.394 -3.12376 0.953365 0
M  V30 6872 H 628.053 -2.24646 2.89706 0
M  V30 6873 H 627.701 -4.58207 2.07498 0
M  V30 6874 H 627.401 -4.45912 3.82669 0
M  V30 6875 H 628.925 -5.17911 3.2342 0
M  V30 6876 H 630.339 -3.38487 4.62709 0
M  V30 6877 H 628.736 -2.90111 5.25315 0
M  V30 6878 H 629.806 -1.67445 4.55072 0
M  V30 6879 N 631.149 -1.42148 -0.680565 0
M  V30 6880 C 632.56 -1.3768 -1.26099 0
M  V30 6881 C 632.911 -0.0672348 -1.96085 0
M  V30 6882 O 632.036 0.834172 -1.99676 0
M  V30 6883 C 632.631 -2.49387 -2.29328 0
M  V30 6884 C 631.19 -2.4827 -2.82911 0
M  V30 6885 C 630.337 -2.2847 -1.57152 0
M  V30 6886 H 633.288 -1.51446 -0.474326 0
M  V30 6887 H 633.309 -2.19307 -3.10941 0
M  V30 6888 H 632.821 -3.44686 -1.78363 0
M  V30 6889 H 630.922 -1.56773 -3.38013 0
M  V30 6890 H 631.035 -3.45109 -3.3232 0
M  V30 6891 H 629.399 -1.76623 -1.83511 0
M  V30 6892 H 630.182 -3.25816 -1.0816 0
M  V30 6893 N 632.627 0.916307 -1.28225 0
M  V30 6894 C 634.038 1.48024 -1.13779 0
M  V30 6895 C 634.389 1.94289 0.273139 0
M  V30 6896 O 633.514 1.82226 1.16716 0
M  V30 6897 C 634.109 2.69029 -2.05935 0
M  V30 6898 C 632.668 3.2161 -1.95561 0
M  V30 6899 C 631.815 1.94321 -1.97825 0
M  V30 6900 H 634.766 0.729272 -1.40951 0
M  V30 6901 H 634.787 3.44204 -1.62184 0
M  V30 6902 H 634.299 2.35325 -3.08616 0
M  V30 6903 H 632.4 3.60045 -0.959076 0
M  V30 6904 H 632.513 3.87032 -2.82388 0
M  V30 6905 H 630.877 2.1131 -1.42198 0
M  V30 6906 H 631.66 1.62917 -3.0218 0
M  V30 6907 N 634.105 1.10431 1.1244 0
M  V30 6908 C 635.33 0.869089 1.88313 0
M  V30 6909 C 635.755 -0.574912 1.79099 0
M  V30 6910 O 635.113 -1.40496 1.14589 0
M  V30 6911 C 635.161 1.32208 3.3549 0
M  V30 6912 O 634.265 0.487092 4.09513 0
M  V30 6913 H 633.606 0.313894 0.585121 0
M  V30 6914 H 636.136 1.47111 1.42195 0
M  V30 6915 H 636.146 1.31201 3.86329 0
M  V30 6916 H 634.821 2.37364 3.41513 0
M  V30 6917 H 633.398 0.562372 3.68635 0
M  V30 6918 N 635.583 -1.29855 0.893053 0
M  V30 6919 C 636.808 -2.00512 0.530066 0
M  V30 6920 C 637.233 -1.66446 -0.876199 0
M  V30 6921 O 636.591 -0.885446 -1.58207 0
M  V30 6922 C 636.639 -3.53308 0.721505 0
M  V30 6923 O 635.743 -4.11764 -0.228994 0
M  V30 6924 H 635.084 -0.630617 0.207891 0
M  V30 6925 H 637.614 -1.6551 1.20282 0
M  V30 6926 H 637.624 -4.03206 0.623599 0
M  V30 6927 H 636.299 -3.77439 1.74678 0
M  V30 6928 H 634.876 -3.72805 -0.0841034 0
M  V30 6929 N 637.061 -0.65484 -1.43351 0
M  V30 6930 C 638.286 -0.175046 -2.0666 0
M  V30 6931 C 638.711 1.15104 -1.4877 0
M  V30 6932 O 638.069 1.71144 -0.598279 0
M  V30 6933 C 638.117 -0.0991544 -3.60464 0
M  V30 6934 O 637.221 0.938169 -4.01587 0
M  V30 6935 H 636.562 -0.0956148 -0.65708 0
M  V30 6936 H 639.092 -0.898222 -1.83829 0
M  V30 6937 H 639.102 0.083632 -4.07914 0
M  V30 6938 H 637.777 -1.06719 -4.01975 0
M  V30 6939 H 636.354 0.72804 -3.65724 0
M  V30 6940 N 638.539 1.52521 -0.396863 0
M  V30 6941 C 639.785 2.01971 0.183169 0
M  V30 6942 C 640.118 1.2825 1.45827 0
M  V30 6943 O 639.393 0.385179 1.90648 0
M  V30 6944 C 639.676 3.5736 0.443391 0
M  V30 6945 C 639.529 4.41743 -0.84753 0
M  V30 6946 C 640.848 4.22539 1.2308 0
M  V30 6947 H 637.967 0.734119 0.0650976 0
M  V30 6948 H 640.609 1.82519 -0.527918 0
M  V30 6949 H 638.759 3.74066 1.04914 0
M  V30 6950 H 640.431 4.36773 -1.48414 0
M  V30 6951 H 638.674 4.0845 -1.4612 0
M  V30 6952 H 639.345 5.48507 -0.620003 0
M  V30 6953 H 641.821 4.09857 0.718084 0
M  V30 6954 H 640.697 5.31227 1.38162 0
M  V30 6955 H 640.958 3.80675 2.24808 0
M  V30 6956 N 640.017 0.126909 1.57088 0
M  V30 6957 C 640.965 -0.837618 2.16995 0
M  V30 6958 C 641.959 -1.26974 1.12133 0
M  V30 6959 O 643.165 -1.24056 1.30423 0
M  V30 6960 H 639.54 -0.288256 0.694559 0
M  V30 6961 H 641.511 -0.307957 2.96807 0
M  V30 6962 C 640.26 -2.07474 2.79016 0
M  V30 6963 H 639.583 -1.75117 3.59408 0
M  V30 6964 H 641.023 -2.72949 3.24461 0
M  V30 6965 C 639.482 -2.86967 1.76498 0
M  V30 6966 O 640.012 -3.82625 1.22316 0
M  V30 6967 N 638.218 -2.51111 1.46258 0
M  V30 6968 H 637.765 -1.73389 1.90509 0
M  V30 6969 H 637.723 -3.04594 0.779085 0
M  V30 6970 N 641.495 -1.56914 -0.146875 0
M  V30 6971 C 642.772 -1.74273 -0.888165 0
M  V30 6972 C 643.152 -0.69496 -1.99333 0
M  V30 6973 O 642.5 0.286093 -2.26702 0
M  V30 6974 C 642.71 -3.18336 -1.43051 0
M  V30 6975 C 644.058 -3.80024 -1.89387 0
M  V30 6976 O 645.082 -3.21765 -1.52792 0
M  V30 6977 O 643.941 -4.82367 -2.56874 0
M  V30 6978 H 641.035 -0.712565 -0.419738 0
M  V30 6979 H 643.581 -1.6918 -0.132791 0
M  V30 6980 H 642.353 -3.86092 -0.636274 0
M  V30 6981 H 641.976 -3.27854 -2.24938 0
M  V30 6982 N 642.974 0.416227 -1.52004 0
M  V30 6983 C 644.223 1.16088 -1.64944 0
M  V30 6984 C 644.536 1.91835 -0.381928 0
M  V30 6985 O 645.742 2.6867 -0.391013 0
M  V30 6986 C 644.198 2.1124 -2.91386 0
M  V30 6987 C 643.806 1.41042 -4.25219 0
M  V30 6988 C 645.55 2.86008 -3.13688 0
M  V30 6989 C 643.457 2.34801 -5.42791 0
M  V30 6990 H 642.387 0.437041 -0.61442 0
M  V30 6991 H 645.038 0.425971 -1.78487 0
M  V30 6992 H 643.42 2.88254 -2.71525 0
M  V30 6993 H 644.594 0.694416 -4.55538 0
M  V30 6994 H 642.909 0.78344 -4.08964 0
M  V30 6995 H 645.506 3.56286 -3.98703 0
M  V30 6996 H 645.849 3.48556 -2.27628 0
M  V30 6997 H 646.382 2.16095 -3.33988 0
M  V30 6998 H 643.121 1.7691 -6.31176 0
M  V30 6999 H 642.641 3.04395 -5.16821 0
M  V30 7000 H 644.32 2.9548 -5.75587 0
M  V30 7001 N 644.452 1.42507 0.673017 0
M  V30 7002 C 645.677 1.4668 1.46627 0
M  V30 7003 C 646.102 0.080066 1.8793 0
M  V30 7004 O 645.46 -0.921879 1.56112 0
M  V30 7005 C 645.508 2.40091 2.69051 0
M  V30 7006 O 644.612 1.8735 3.67387 0
M  V30 7007 H 643.953 0.496908 0.44043 0
M  V30 7008 H 646.483 1.87215 0.825334 0
M  V30 7009 H 646.493 2.56731 3.17101 0
M  V30 7010 H 645.168 3.4084 2.3833 0
M  V30 7011 H 643.745 1.80274 3.26429 0
M  V30 7012 N 645.93 -0.909495 1.28709 0
M  V30 7013 C 647.155 -1.69801 1.1909 0
M  V30 7014 C 647.58 -1.86479 -0.246388 0
M  V30 7015 O 646.938 -1.37802 -1.17815 0
M  V30 7016 C 646.986 -3.06543 1.89904 0
M  V30 7017 O 646.09 -3.94268 1.2094 0
M  V30 7018 H 645.431 -0.519783 0.413185 0
M  V30 7019 H 647.961 -1.13689 1.70106 0
M  V30 7020 H 647.971 -3.56748 1.97977 0
M  V30 7021 H 646.646 -2.93722 2.94449 0
M  V30 7022 H 645.223 -3.52702 1.2106 0
M  V30 7023 N 647.408 -1.11026 -1.11852 0
M  V30 7024 C 648.341 -0.708501 -2.16923 0
M  V30 7025 C 649.319 0.293196 -1.59935 0
M  V30 7026 O 650.503 0.190641 -1.87533 0
M  V30 7027 C 647.63 -0.0463705 -3.38668 0
M  V30 7028 C 646.676 -1.01252 -4.14307 0
M  V30 7029 S 647.509 -2.53291 -4.71809 0
M  V30 7030 C 648.665 -1.88366 -5.96883 0
M  V30 7031 H 648.898 -1.59854 -2.50667 0
M  V30 7032 H 646.431 -0.927869 -1.2341 0
M  V30 7033 H 648.389 0.329314 -4.09177 0
M  V30 7034 H 647.05 0.820562 -3.03192 0
M  V30 7035 H 646.243 -0.496596 -5.01548 0
M  V30 7036 H 645.845 -1.33042 -3.49537 0
M  V30 7037 H 648.137 -1.21753 -6.6647 0
M  V30 7038 H 649.08 -2.73588 -6.53112 0
M  V30 7039 H 649.488 -1.34562 -5.48227 0
M  V30 7040 N 648.886 1.2938 -0.899927 0
M  V30 7041 C 650.111 2.00228 -0.540692 0
M  V30 7042 C 650.536 1.66909 0.867359 0
M  V30 7043 O 649.894 0.893824 1.57735 0
M  V30 7044 C 649.942 3.52921 -0.740232 0
M  V30 7045 O 649.046 4.11879 0.207154 0
M  V30 7046 H 648.387 0.629505 -0.211233 0
M  V30 7047 H 650.917 1.6487 -1.21158 0
M  V30 7048 H 650.927 4.0287 -0.644973 0
M  V30 7049 H 649.602 3.76508 -1.76677 0
M  V30 7050 H 648.179 3.72845 0.0643315 0
M  V30 7051 N 650.364 0.662433 1.43002 0
M  V30 7052 C 651.592 0.187615 2.06048 0
M  V30 7053 C 652.007 -1.15039 1.49705 0
M  V30 7054 O 651.364 -1.71209 0.631956 0
M  V30 7055 C 651.415 0.100498 3.6136 0
M  V30 7056 O 651.136 1.38562 4.15611 0
M  V30 7057 C 652.637 -0.399298 4.41498 0
M  V30 7058 H 649.857 0.0941675 0.664359 0
M  V30 7059 H 652.401 0.905681 1.83351 0
M  V30 7060 H 650.556 -0.568181 3.83211 0
M  V30 7061 H 650.97 1.25084 5.09366 0
M  V30 7062 H 652.444 -0.409187 5.50481 0
M  V30 7063 H 652.921 -1.43232 4.15188 0
M  V30 7064 H 653.527 0.23721 4.24638 0
M  V30 7065 N 651.842 -1.52309 0.404946 0
M  V30 7066 C 653.119 -1.94237 -0.230544 0
M  V30 7067 C 653.499 -1.34154 -1.6299 0
M  V30 7068 O 652.847 -0.515713 -2.22604 0
M  V30 7069 C 653.057 -3.48166 -0.241106 0
M  V30 7070 C 654.405 -4.22074 -0.462488 0
M  V30 7071 O 655.429 -3.54754 -0.320644 0
M  V30 7072 O 654.288 -5.41443 -0.741708 0
M  V30 7073 H 651.382 -0.813766 -0.147358 0
M  V30 7074 H 653.928 -1.6333 0.460587 0
M  V30 7075 H 652.7 -3.84269 0.738467 0
M  V30 7076 H 652.323 -3.85422 -0.97651 0
M  V30 7077 N 653.32 -0.135238 -1.57019 0
M  V30 7078 C 654.252 0.839675 -2.13265 0
M  V30 7079 C 655.265 1.21887 -1.07923 0
M  V30 7080 O 656.454 1.16499 -1.35241 0
M  V30 7081 C 653.554 2.13647 -2.63075 0
M  V30 7082 C 652.727 1.92646 -3.92691 0
M  V30 7083 C 651.786 3.06205 -4.27931 0
M  V30 7084 O 650.812 2.78409 -4.96465 0
M  V30 7085 N 652.014 4.33072 -3.86561 0
M  V30 7086 H 654.779 0.359026 -2.97542 0
M  V30 7087 H 652.34 0.0486979 -1.61827 0
M  V30 7088 H 654.332 2.88641 -2.8367 0
M  V30 7089 H 652.902 2.5301 -1.83588 0
M  V30 7090 H 652.122 1.01754 -3.80841 0
M  V30 7091 H 653.41 1.75939 -4.77413 0
M  V30 7092 H 652.808 4.58526 -3.31316 0
M  V30 7093 H 651.365 5.04885 -4.12231 0
M  V30 7094 N 654.798 1.5699 0.138552 0
M  V30 7095 C 656.026 1.87976 0.864437 0
M  V30 7096 C 656.441 0.724372 1.74351 0
M  V30 7097 O 655.798 -0.305575 1.79924 0
M  V30 7098 C 655.849 3.18276 1.71414 0
M  V30 7099 O 655.57 4.29365 0.870487 0
M  V30 7100 C 657.071 3.62834 2.54688 0
M  V30 7101 H 654.291 0.622878 0.249528 0
M  V30 7102 H 656.835 2.04094 0.128805 0
M  V30 7103 H 654.99 3.03886 2.40274 0
M  V30 7104 H 655.404 5.03924 1.45466 0
M  V30 7105 H 656.878 4.5682 3.0987 0
M  V30 7106 H 657.355 2.88533 3.31127 0
M  V30 7107 H 657.961 3.79946 1.91105 0
M  V30 7108 N 656.276 -0.40816 1.52223 0
M  V30 7109 C 657.206 -1.5042 1.78595 0
M  V30 7110 C 658.187 -1.57723 0.636974 0
M  V30 7111 O 659.372 -1.72982 0.882664 0
M  V30 7112 C 656.502 -2.88232 1.93751 0
M  V30 7113 C 655.456 -2.95779 3.09352 0
M  V30 7114 C 654.782 -4.35855 3.09732 0
M  V30 7115 C 656.082 -2.67175 4.48793 0
M  V30 7116 H 657.776 -1.28601 2.70374 0
M  V30 7117 H 655.322 -0.617221 1.30101 0
M  V30 7118 H 657.275 -3.64895 2.10783 0
M  V30 7119 H 655.999 -3.11347 0.986443 0
M  V30 7120 H 654.658 -2.21561 2.92072 0
M  V30 7121 H 654.306 -4.55981 2.12346 0
M  V30 7122 H 654.006 -4.41829 3.87377 0
M  V30 7123 H 655.53 -5.14451 3.28895 0
M  V30 7124 H 656.944 -3.3356 4.66273 0
M  V30 7125 H 655.341 -2.84523 5.28362 0
M  V30 7126 H 656.411 -1.62609 4.56822 0
M  V30 7127 N 657.755 -1.42862 -0.66545 0
M  V30 7128 C 658.718 -1.46756 -1.76055 0
M  V30 7129 C 659.718 -0.353866 -1.56858 0
M  V30 7130 O 660.908 -0.615099 -1.62979 0
M  V30 7131 C 658.04 -1.30829 -3.14796 0
M  V30 7132 H 659.233 -2.44271 -1.73987 0
M  V30 7133 H 656.786 -1.29447 -0.875965 0
M  V30 7134 H 657.521 -0.342733 -3.22484 0
M  V30 7135 H 657.306 -2.11551 -3.30134 0
M  V30 7136 H 658.796 -1.36458 -3.94676 0
M  V30 7137 N 659.233 0.902656 -1.29189 0
M  V30 7138 C 660.458 1.69167 -1.19989 0
M  V30 7139 C 660.883 1.86607 0.236495 0
M  V30 7140 O 660.241 1.38425 1.17082 0
M  V30 7141 C 660.289 3.05532 -1.91527 0
M  V30 7142 O 659.393 3.93621 -1.2303 0
M  V30 7143 H 658.734 0.517584 -0.415936 0
M  V30 7144 H 661.264 1.12785 -1.70706 0
M  V30 7145 H 661.274 3.55693 -1.99866 0
M  V30 7146 H 659.949 2.92156 -2.96003 0
M  V30 7147 H 658.526 3.52055 -1.22928 0
M  V30 7148 N 660.711 1.11618 1.11262 0
M  V30 7149 C 661.988 0.777876 1.79467 0
M  V30 7150 C 662.368 -0.733774 1.97937 0
M  V30 7151 O 661.716 -1.66443 1.56554 0
M  V30 7152 C 661.926 1.5431 3.13032 0
M  V30 7153 C 663.274 1.72357 3.88044 0
M  V30 7154 O 664.298 1.5075 3.22727 0
M  V30 7155 O 663.157 2.08276 5.05256 0
M  V30 7156 H 660.251 0.282018 0.777428 0
M  V30 7157 H 662.797 1.21971 1.17988 0
M  V30 7158 H 661.569 2.57132 2.94956 0
M  V30 7159 H 661.192 1.09495 3.82226 0
M  V30 7160 N 662.189 -1.289 0.906776 0
M  V30 7161 C 663.417 -1.99401 0.551969 0
M  V30 7162 C 663.832 -1.67816 -0.865048 0
M  V30 7163 O 663.189 -0.927078 -1.57199 0
M  V30 7164 C 663.24 -3.53779 0.743152 0
M  V30 7165 O 662.961 -3.84248 2.1044 0
M  V30 7166 C 664.462 -4.41543 0.39424 0
M  V30 7167 H 661.682 -0.636926 0.211106 0
M  V30 7168 H 664.226 -1.64266 1.21807 0
M  V30 7169 H 662.381 -3.87201 0.124143 0
M  V30 7170 H 662.795 -4.78904 2.13895 0
M  V30 7171 H 664.269 -5.48957 0.578814 0
M  V30 7172 H 664.746 -4.34073 -0.669137 0
M  V30 7173 H 665.352 -4.13605 0.990491 0
M  V30 7174 N 663.667 -0.670007 -1.42649 0
M  V30 7175 C 664.944 -0.119451 -1.95235 0
M  V30 7176 C 665.324 1.36461 -1.61064 0
M  V30 7177 O 664.672 2.09843 -0.904329 0
M  V30 7178 C 664.882 -0.383498 -3.46887 0
M  V30 7179 C 666.23 -0.297431 -4.23557 0
M  V30 7180 O 667.254 -0.31698 -3.54787 0
M  V30 7181 O 666.113 -0.235507 -5.45992 0
M  V30 7182 H 663.207 -8.85474e-05 -0.827 0
M  V30 7183 H 665.753 -0.744406 -1.52501 0
M  V30 7184 H 664.525 -1.41174 -3.64946 0
M  V30 7185 H 664.148 0.273702 -3.96657 0
M  V30 7186 N 665.145 1.52092 -0.413018 0
M  V30 7187 C 666.37 2.06756 0.163338 0
M  V30 7188 C 666.795 1.28073 1.37764 0
M  V30 7189 O 666.153 0.312015 1.78595 0
M  V30 7190 C 666.201 3.57278 0.488322 0
M  V30 7191 O 665.305 3.80986 1.57871 0
M  V30 7192 H 664.646 0.663882 0.0125068 0
M  V30 7193 H 667.176 1.95988 -0.587339 0
M  V30 7194 H 667.186 4.01125 0.745836 0
M  V30 7195 H 665.861 4.13978 -0.399327 0
M  V30 7196 H 664.438 3.49017 1.31306 0
M  V30 7197 N 666.623 0.143563 1.56945 0
M  V30 7198 C 667.848 -0.518701 2.00809 0
M  V30 7199 C 668.273 -1.5785 1.02298 0
M  V30 7200 O 667.631 -1.813 -0.0017839 0
M  V30 7201 C 667.679 -1.09929 3.43436 0
M  V30 7202 O 666.783 -2.21425 3.47915 0
M  V30 7203 H 666.124 -0.127215 0.6517 0
M  V30 7204 H 668.654 0.239283 2.03196 0
M  V30 7205 H 668.664 -1.4288 3.82164 0
M  V30 7206 H 667.339 -0.323162 4.14643 0
M  V30 7207 H 665.916 -1.89728 3.21026 0
M  V30 7208 N 668.101 -1.57061 -0.130224 0
M  V30 7209 C 669.031 -2.02552 -1.16168 0
M  V30 7210 C 670.012 -0.907971 -1.4384 0
M  V30 7211 O 671.197 -1.17693 -1.54473 0
M  V30 7212 C 668.327 -2.42035 -2.49071 0
M  V30 7213 C 667.281 -3.5713 -2.35886 0
M  V30 7214 C 666.607 -3.82478 -3.7365 0
M  V30 7215 C 667.907 -4.89236 -1.8288 0
M  V30 7216 H 669.601 -2.8897 -0.783359 0
M  V30 7217 H 667.147 -1.39021 -0.375376 0
M  V30 7218 H 669.1 -2.72462 -3.21469 0
M  V30 7219 H 667.824 -1.52573 -2.88771 0
M  V30 7220 H 666.483 -3.26895 -1.65938 0
M  V30 7221 H 666.131 -2.9024 -4.10816 0
M  V30 7222 H 665.831 -4.59944 -3.65685 0
M  V30 7223 H 667.355 -4.15347 -4.47571 0
M  V30 7224 H 668.769 -5.18272 -2.45085 0
M  V30 7225 H 667.166 -5.70624 -1.85763 0
M  V30 7226 H 668.236 -4.78494 -0.785571 0
M  V30 7227 N 669.579 0.400081 -1.52437 0
M  V30 7228 C 670.489 1.51253 -1.79331 0
M  V30 7229 C 671.505 1.60188 -0.679396 0
M  V30 7230 O 672.681 1.76733 -0.965791 0
M  V30 7231 C 669.746 2.869 -1.94652 0
M  V30 7232 C 668.807 2.87777 -3.18564 0
M  V30 7233 C 668.04 4.16954 -3.33145 0
M  V30 7234 O 668.263 5.11329 -2.52783 0
M  V30 7235 O 667.197 4.2487 -4.26343 0
M  V30 7236 H 671.023 1.31461 -2.73773 0
M  V30 7237 H 668.608 0.586834 -1.37392 0
M  V30 7238 H 670.49 3.67336 -2.065 0
M  V30 7239 H 669.165 3.06741 -1.034 0
M  V30 7240 H 668.072 2.06162 -3.12167 0
M  V30 7241 H 669.405 2.72886 -4.09627 0
M  V30 7242 N 671.057 1.43213 0.657864 0
M  V30 7243 C 672.02 1.47687 1.75275 0
M  V30 7244 C 673.02 0.362179 1.56668 0
M  V30 7245 O 674.21 0.623734 1.62651 0
M  V30 7246 C 671.342 1.32497 3.14098 0
M  V30 7247 H 672.535 2.4519 1.7269 0
M  V30 7248 H 670.088 1.2991 0.869087 0
M  V30 7249 H 670.823 0.359831 3.22298 0
M  V30 7250 H 670.608 2.13299 3.29008 0
M  V30 7251 H 672.098 1.38549 3.93946 0
M  V30 7252 N 672.536 -0.895792 1.29666 0
M  V30 7253 C 673.761 -1.68528 1.20885 0
M  V30 7254 C 674.186 -1.8673 -0.226595 0
M  V30 7255 O 673.544 -1.39044 -1.16347 0
M  V30 7256 C 673.592 -3.04512 1.93144 0
M  V30 7257 O 672.696 -3.92963 1.25115 0
M  V30 7258 H 672.037 -0.515371 0.418675 0
M  V30 7259 H 674.567 -1.11878 1.71302 0
M  V30 7260 H 674.577 -3.54628 2.0175 0
M  V30 7261 H 673.252 -2.90582 2.97548 0
M  V30 7262 H 671.829 -3.51399 1.24794 0
M  V30 7263 N 674.014 -1.12206 -1.10668 0
M  V30 7264 C 674.977 -0.790867 -2.15123 0
M  V30 7265 C 675.977 0.193618 -1.5963 0
M  V30 7266 O 677.167 -0.0318728 -1.74171 0
M  V30 7267 C 674.299 -0.174797 -3.40452 0
M  V30 7268 H 675.492 -1.7163 -2.45933 0
M  V30 7269 H 673.045 -0.924993 -1.2599 0
M  V30 7270 H 673.78 0.760478 -3.15257 0
M  V30 7271 H 673.565 -0.88358 -3.82015 0
M  V30 7272 H 675.055 0.0405162 -4.1758 0
M  V30 7273 N 675.492 1.28418 -0.913599 0
M  V30 7274 C 676.74 1.94596 -0.545594 0
M  V30 7275 C 677.061 1.7227 0.913668 0
M  V30 7276 O 676.331 1.06233 1.64595 0
M  V30 7277 H 674.911 0.720065 -0.198783 0
M  V30 7278 H 677.573 1.56404 -1.16292 0
M  V30 7279 H 676.669 3.03202 -0.739911 0
M  V30 7280 N 676.97 0.677563 1.42291 0
M  V30 7281 C 678.381 0.277912 1.8462 0
M  V30 7282 C 678.732 -1.18048 1.56714 0
M  V30 7283 O 677.857 -1.90404 1.02836 0
M  V30 7284 C 678.452 0.497619 3.35126 0
M  V30 7285 C 677.011 0.152063 3.76093 0
M  V30 7286 C 676.158 0.78872 2.65847 0
M  V30 7287 H 679.109 0.879527 1.32098 0
M  V30 7288 H 679.13 -0.24939 3.79682 0
M  V30 7289 H 678.642 1.55913 3.55405 0
M  V30 7290 H 676.743 -0.905896 3.6142 0
M  V30 7291 H 676.856 0.594514 4.75397 0
M  V30 7292 H 675.22 0.219813 2.5375 0
M  V30 7293 H 676.003 1.85374 2.88949 0
M  V30 7294 N 678.448 -1.51871 0.421078 0
M  V30 7295 C 679.378 -2.30231 -0.389363 0
M  V30 7296 C 680.359 -1.34946 -1.03555 0
M  V30 7297 O 681.544 -1.63859 -1.04229 0
M  V30 7298 C 678.674 -3.13247 -1.49979 0
M  V30 7299 C 677.628 -4.16677 -0.977966 0
M  V30 7300 C 676.954 -4.88112 -2.1829 0
M  V30 7301 C 678.254 -5.22295 -0.0236775 0
M  V30 7302 H 679.948 -2.98229 0.264524 0
M  V30 7303 H 677.494 -1.43424 0.12866 0
M  V30 7304 H 679.447 -3.66838 -2.07383 0
M  V30 7305 H 678.171 -2.4304 -2.18173 0
M  V30 7306 H 676.83 -3.64114 -0.426245 0
M  V30 7307 H 676.478 -4.14423 -2.85066 0
M  V30 7308 H 676.178 -5.58041 -1.84021 0
M  V30 7309 H 677.702 -5.44521 -2.76278 0
M  V30 7310 H 679.116 -5.71055 -0.506899 0
M  V30 7311 H 677.513 -5.99656 0.230782 0
M  V30 7312 H 678.583 -4.76131 0.917999 0
M  V30 7313 N 679.926 -0.151884 -1.56866 0
M  V30 7314 C 681.174 0.497021 -1.95893 0
M  V30 7315 C 681.495 1.65078 -1.03799 0
M  V30 7316 O 680.765 1.95642 -0.10049 0
M  V30 7317 H 679.345 0.186603 -0.723318 0
M  V30 7318 H 682.007 -0.228525 -1.93556 0
M  V30 7319 H 681.103 0.869933 -2.99731 0
M  V30 7320 N 681.404 1.57128 0.121893 0
M  V30 7321 C 682.644 1.86517 0.836113 0
M  V30 7322 C 683.008 0.739497 1.77188 0
M  V30 7323 O 684.209 0.91508 2.52744 0
M  V30 7324 C 682.48 3.21129 1.56878 0
M  V30 7325 S 684.039 3.72143 2.32497 0
M  V30 7326 H 680.857 0.653923 0.279115 0
M  V30 7327 H 683.459 1.95271 0.0946254 0
M  V30 7328 H 682.163 4.01002 0.873255 0
M  V30 7329 H 681.694 3.15446 2.35069 0
M  V30 7330 H 683.709 3.43413 3.58164 0
M  V30 7331 N 682.882 -0.391992 1.52647 0
M  V30 7332 C 684.122 -1.1463 1.69232 0
M  V30 7333 C 684.486 -1.87312 0.421684 0
M  V30 7334 O 685.687 -2.64768 0.463852 0
M  V30 7335 C 683.958 -2.10088 2.89133 0
M  V30 7336 S 685.517 -2.93395 3.2629 0
M  V30 7337 H 682.335 -0.388076 0.59575 0
M  V30 7338 H 684.937 -0.431149 1.90687 0
M  V30 7339 H 683.641 -1.55408 3.79837 0
M  V30 7340 H 683.172 -2.86116 2.70003 0
M  V30 7341 H 685.187 -4.12193 2.76244 0
M  V30 7342 N 684.36 -1.4356 -0.65026 0
M  V30 7343 C 685.776 -1.27025 -0.966269 0
M  V30 7344 C 685.976 -0.192117 -2.00582 0
M  V30 7345 O 685.032 0.428459 -2.48838 0
M  V30 7346 C 686.345 -2.63556 -1.44772 0
M  V30 7347 C 687.893 -2.71111 -1.56421 0
M  V30 7348 C 688.368 -4.08067 -2.07956 0
M  V30 7349 N 689.859 -4.10146 -2.15254 0
M  V30 7350 C 690.594 -5.12952 -2.56258 0
M  V30 7351 N 690.09 -6.26129 -2.96537 0
M  V30 7352 N 691.883 -5.00306 -2.56224 0
M  V30 7353 H 684.034 -2.12367 0.0375758 0
M  V30 7354 H 686.297 -0.946894 -0.0457782 0
M  V30 7355 H 686.003 -3.43429 -0.758271 0
M  V30 7356 H 685.877 -2.89152 -2.42221 0
M  V30 7357 H 688.264 -1.91569 -2.24467 0
M  V30 7358 H 688.345 -2.49277 -0.573967 0
M  V30 7359 H 687.989 -4.88077 -1.40511 0
M  V30 7360 H 687.919 -4.27266 -3.07817 0
M  V30 7361 H 690.41 -3.28453 -1.86887 0
M  V30 7362 H 690.723 -7.00403 -3.26582 0
M  V30 7363 H 689.068 -6.29597 -2.94334 0
M  V30 7364 H 692.259 -4.10952 -2.24135 0
M  V30 7365 H 692.432 -5.80553 -2.87857 0
M  V30 7366 O 685.877 0.793351 -1.40671 0
M  V30 7367 H 686.568 1.43915 -1.29646 0
M  V30 END ATOM
M  V30 BEGIN BOND
M  V30 END BOND
M  V30 END CTAB
M  END
$$$$
