drugbank_target|Q59976 Beta-glucosidase (DB02772)
 OpenBabel12092120253D

  0  0  0     0  0            999 V3000
M  V30 BEGIN CTAB
M  V30 COUNTS 7239 7351 0 0 0
M  V30 BEGIN ATOM
M  V30 1 H -0.908 1.98254 -0.117106 0
M  V30 2 N 0 1.576 0 0
M  V30 3 C 0.933 2.03868 1.02534 0
M  V30 4 C 1.911 0.928543 1.3348 0
M  V30 5 O 3.095 1.19667 1.45644 0
M  V30 6 C 0.222 2.43627 2.35294 0
M  V30 7 C -0.732 3.65373 2.2001 0
M  V30 8 S 0.101 5.13292 1.52614 0
M  V30 9 C 1.257 5.56322 2.86805 0
M  V30 10 H 1.49 2.90518 0.631377 0
M  V30 11 H -0.977 1.52953 0.210867 0
M  V30 12 H 0.981 2.67203 3.11629 0
M  V30 13 H -0.358 1.57376 2.7183 0
M  V30 14 H -1.165 3.90944 3.18086 0
M  V30 15 H -1.563 3.418 1.51819 0
M  V30 16 H 0.729 5.58782 3.83104 0
M  V30 17 H 1.672 6.56266 2.65933 0
M  V30 18 H 2.08 4.83886 2.90714 0
M  V30 19 N 1.4781 -0.272755 1.55222 0
M  V30 20 C 2.7241 -1.00581 1.761 0
M  V30 21 C 3.0571 -1.85932 0.560625 0
M  V30 22 O 2.3321 -1.89416 -0.441801 0
M  V30 23 C 2.6151 -1.88816 3.06628 0
M  V30 24 C 2.4681 -1.06457 4.37021 0
M  V30 25 C 3.7871 -2.8752 3.33197 0
M  V30 26 H 0.9061 -0.364244 0.640699 0
M  V30 27 H 3.5481 -0.278189 1.87952 0
M  V30 28 H 1.6981 -2.50856 2.96654 0
M  V30 29 H 3.3701 -0.464863 4.58952 0
M  V30 30 H 1.6131 -0.368043 4.32236 0
M  V30 31 H 2.2841 -1.71514 5.24678 0
M  V30 32 H 4.7601 -2.35615 3.42965 0
M  V30 33 H 3.6361 -3.46399 4.25792 0
M  V30 34 H 3.8971 -3.62657 2.52849 0
M  V30 35 N 2.9562 -1.48159 -0.537278 0
M  V30 36 C 4.3672 -1.49429 -1.11928 0
M  V30 37 C 4.7182 -0.26 -1.9447 0
M  V30 38 O 3.8432 0.633489 -2.0692 0
M  V30 39 C 4.4382 -2.70758 -2.03656 0
M  V30 40 C 2.9972 -2.74923 -2.57088 0
M  V30 41 C 2.1442 -2.42835 -1.3389 0
M  V30 42 H 5.0952 -1.55381 -0.322886 0
M  V30 43 H 5.1162 -2.48861 -2.87834 0
M  V30 44 H 4.6282 -3.60575 -1.43553 0
M  V30 45 H 2.7292 -1.89296 -3.20933 0
M  V30 46 H 2.8422 -3.76157 -2.9672 0
M  V30 47 H 1.2062 -1.93836 -1.65226 0
M  V30 48 H 1.9892 -3.34884 -0.755504 0
M  V30 49 N 4.4343 0.785586 -1.36625 0
M  V30 50 C 5.3973 1.87999 -1.31107 0
M  V30 51 C 6.3973 1.59316 -0.217959 0
M  V30 52 O 7.5873 1.67656 -0.472977 0
M  V30 53 C 4.7193 3.24861 -1.03334 0
M  V30 54 H 5.9123 1.94307 -2.2844 0
M  V30 55 H 3.4653 0.983813 -1.21453 0
M  V30 56 H 4.2003 3.24235 -0.0647432 0
M  V30 57 H 3.9853 3.4707 -1.82441 0
M  V30 58 H 5.4753 4.04929 -1.02088 0
M  V30 59 N 5.9124 1.20967 1.01018 0
M  V30 60 C 6.8754 0.965918 2.07853 0
M  V30 61 C 7.8754 -0.0610545 1.60684 0
M  V30 62 O 9.0654 0.175681 1.73312 0
M  V30 63 C 6.1974 0.455513 3.37843 0
M  V30 64 H 7.3904 1.91365 2.3091 0
M  V30 65 H 4.9434 1.02594 1.17916 0
M  V30 66 H 5.6784 -0.497381 3.20463 0
M  V30 67 H 5.4634 1.19622 3.73407 0
M  V30 68 H 6.9534 0.304667 4.16487 0
M  V30 69 N 7.3905 -1.2043 1.01659 0
M  V30 70 C 8.3225 -2.22626 0.544988 0
M  V30 71 C 9.3355 -1.58479 -0.372609 0
M  V30 72 O 10.5245 -1.77679 -0.170958 0
M  V30 73 C 7.6245 -3.38141 -0.22663 0
M  V30 74 C 6.7975 -4.31877 0.692876 0
M  V30 75 C 5.8565 -5.26191 -0.0311616 0
M  V30 76 O 4.8825 -5.6612 0.591343 0
M  V30 77 N 6.0845 -5.65618 -1.30601 0
M  V30 78 H 8.8495 -2.63716 1.42388 0
M  V30 79 H 6.4105 -1.34971 0.894116 0
M  V30 80 H 8.4025 -3.98239 -0.72024 0
M  V30 81 H 6.9725 -2.95943 -1.00681 0
M  V30 82 H 6.1925 -3.69746 1.36679 0
M  V30 83 H 7.4805 -4.91426 1.31824 0
M  V30 84 H 6.8785 -5.3519 -1.83269 0
M  V30 85 H 5.4355 -6.28025 -1.74435 0
M  V30 86 N 8.8686 -0.792821 -1.36206 0
M  V30 87 C 9.8006 -0.151469 -2.28699 0
M  V30 88 C 10.8136 0.641262 -1.49638 0
M  V30 89 O 12.0026 0.475885 -1.72039 0
M  V30 90 C 9.1026 0.808424 -3.29117 0
M  V30 91 C 8.2756 0.0650202 -4.37352 0
M  V30 92 C 7.3346 0.941358 -5.17711 0
M  V30 93 O 6.3606 0.397352 -5.67811 0
M  V30 94 N 7.5626 2.2652 -5.3448 0
M  V30 95 H 10.3276 -0.945982 -2.84379 0
M  V30 96 H 7.8886 -0.647032 -1.48409 0
M  V30 97 H 9.8806 1.3986 -3.79765 0
M  V30 98 H 8.4506 1.5038 -2.74052 0
M  V30 99 H 7.6706 -0.706255 -3.87822 0
M  V30 100 H 8.9586 -0.447847 -5.06825 0
M  V30 101 H 8.3566 2.73128 -4.95396 0
M  V30 102 H 6.9136 2.80493 -5.88359 0
M  V30 103 N 10.3467 1.47872 -0.545128 0
M  V30 104 C 11.5747 2.06889 -0.021084 0
M  V30 105 C 11.9897 1.39955 1.2672 0
M  V30 106 O 11.3467 0.492036 1.75742 0
M  V30 107 C 11.3977 3.60996 0.190817 0
M  V30 108 O 11.1187 4.25419 -1.04644 0
M  V30 109 C 12.6197 4.36849 0.753521 0
M  V30 110 H 9.8397 0.669785 -0.0403635 0
M  V30 111 H 12.3837 1.90049 -0.755095 0
M  V30 112 H 10.5387 3.77391 0.87492 0
M  V30 113 H 10.9527 5.17785 -0.836611 0
M  V30 114 H 12.4267 5.45399 0.851139 0
M  V30 115 H 12.9037 4.02306 1.762 0
M  V30 116 H 13.5097 4.25169 0.105503 0
M  V30 117 N 11.8248 0.280983 1.55075 0
M  V30 118 C 12.7878 -0.590896 2.21452 0
M  V30 119 C 13.7878 -1.07682 1.19421 0
M  V30 120 O 14.9778 -0.97605 1.44288 0
M  V30 121 C 12.1098 -1.81587 2.88511 0
M  V30 122 H 13.3028 -0.0112554 2.99898 0
M  V30 123 H 10.8558 0.0316438 1.56268 0
M  V30 124 H 11.5908 -2.43587 2.14093 0
M  V30 125 H 11.3758 -1.4753 3.63287 0
M  V30 126 H 12.8658 -2.43575 3.39206 0
M  V30 127 N 13.3029 -1.57598 0.00835791 0
M  V30 128 C 14.5309 -1.95214 -0.68549 0
M  V30 129 C 14.9459 -0.883706 -1.66841 0
M  V30 130 O 14.3029 0.136565 -1.81988 0
M  V30 131 C 14.3539 -3.32865 -1.41007 0
M  V30 132 O 14.0749 -4.35609 -0.466552 0
M  V30 133 C 15.5759 -3.84991 -2.19765 0
M  V30 134 H 12.7959 -0.643422 -0.190392 0
M  V30 135 H 15.3399 -2.04406 0.0619607 0
M  V30 136 H 13.4949 -3.24956 -2.10908 0
M  V30 137 H 13.9089 -5.15288 -0.978699 0
M  V30 138 H 15.3829 -4.8371 -2.65948 0
M  V30 139 H 15.8599 -3.18137 -3.02796 0
M  V30 140 H 16.4659 -3.96103 -1.54864 0
M  V30 141 N 14.781 0.264519 -1.55364 0
M  V30 142 C 15.744 1.31046 -1.88042 0
M  V30 143 C 16.744 1.41943 -0.755569 0
M  V30 144 O 17.934 1.40947 -1.02369 0
M  V30 145 C 15.066 2.69067 -2.09323 0
M  V30 146 H 16.259 1.03297 -2.81549 0
M  V30 147 H 13.812 0.502989 -1.47986 0
M  V30 148 H 14.547 3.01982 -1.18226 0
M  V30 149 H 14.332 2.62542 -2.91229 0
M  V30 150 H 15.822 3.44623 -2.35848 0
M  V30 151 N 16.2591 1.48442 0.529413 0
M  V30 152 C 17.6701 1.5002 1.11134 0
M  V30 153 C 18.0211 0.27031 1.94329 0
M  V30 154 O 17.1461 -0.622507 2.07253 0
M  V30 155 C 17.7411 2.71834 2.02217 0
M  V30 156 C 16.3001 2.76283 2.55627 0
M  V30 157 C 15.4471 2.43542 1.326 0
M  V30 158 H 18.3981 1.5555 0.314641 0
M  V30 159 H 18.4191 2.50384 2.8651 0
M  V30 160 H 17.9311 3.61331 1.41639 0
M  V30 161 H 16.0321 1.90995 3.19924 0
M  V30 162 H 16.1451 3.77725 2.94721 0
M  V30 163 H 14.5091 1.94709 1.64196 0
M  V30 164 H 15.2921 3.3528 0.737734 0
M  V30 165 N 17.7372 -0.778329 1.37039 0
M  V30 166 C 19.0142 -1.52551 1.22424 0
M  V30 167 C 19.3942 -2.10288 -0.184964 0
M  V30 168 O 18.7422 -1.94953 -1.19187 0
M  V30 169 C 18.9522 -2.61164 2.31504 0
M  V30 170 C 20.3002 -3.28746 2.68721 0
M  V30 171 O 21.3242 -2.71455 2.30631 0
M  V30 172 O 20.1832 -4.3231 3.3432 0
M  V30 173 H 17.2772 -0.675343 0.477326 0
M  V30 174 H 19.8232 -0.815859 1.48801 0
M  V30 175 H 18.5952 -2.16574 3.25901 0
M  V30 176 H 18.2182 -3.39737 2.06554 0
M  V30 177 N 19.2153 -1.21501 -1.00376 0
M  V30 178 C 20.1783 -0.976927 -2.07337 0
M  V30 179 C 21.1783 0.0525322 -1.60714 0
M  V30 180 O 22.3683 -0.184869 -1.73216 0
M  V30 181 C 19.5003 -0.473423 -3.37597 0
M  V30 182 H 20.6933 -1.92587 -2.29892 0
M  V30 183 H 18.2463 -1.03217 -1.17371 0
M  V30 184 H 18.9813 0.480379 -3.20722 0
M  V30 185 H 18.7663 -1.216 -3.72768 0
M  V30 186 H 20.2563 -0.32675 -4.1632 0
M  V30 187 N 20.6934 1.19889 -1.02296 0
M  V30 188 C 21.6564 2.21116 -0.603351 0
M  V30 189 C 22.6564 1.5738 0.329884 0
M  V30 190 O 23.8464 1.73802 0.117702 0
M  V30 191 C 20.9784 3.40696 0.117992 0
M  V30 192 H 22.1714 2.59754 -1.49893 0
M  V30 193 H 19.7244 1.33463 -0.813468 0
M  V30 194 H 20.4594 3.07569 1.0282 0
M  V30 195 H 20.2444 3.88188 -0.552511 0
M  V30 196 H 21.7344 4.15692 0.398696 0
M  V30 197 N 22.1715 0.800033 1.35784 0
M  V30 198 C 23.1015 0.220184 2.3246 0
M  V30 199 C 24.0825 -0.65073 1.57161 0
M  V30 200 O 25.2675 -0.582359 1.85263 0
M  V30 201 C 22.3975 -0.637353 3.41402 0
M  V30 202 C 21.3515 0.134531 4.27789 0
M  V30 203 C 20.6775 -0.844285 5.27992 0
M  V30 204 C 21.9775 1.32979 5.05088 0
M  V30 205 H 23.6715 1.02787 2.81203 0
M  V30 206 H 21.2175 0.495717 1.35199 0
M  V30 207 H 23.1705 -1.05302 4.08031 0
M  V30 208 H 21.8945 -1.47785 2.91251 0
M  V30 209 H 20.5535 0.531296 3.6273 0
M  V30 210 H 20.2015 -1.68011 4.74111 0
M  V30 211 H 19.9015 -0.332184 5.8666 0
M  V30 212 H 21.4255 -1.2583 5.97494 0
M  V30 213 H 22.8395 0.98934 5.64699 0
M  V30 214 H 21.2365 1.77593 5.7322 0
M  V30 215 H 22.3065 2.11978 4.36111 0
M  V30 216 N 23.6496 -1.47581 0.552962 0
M  V30 217 C 24.8776 -2.06875 0.0320556 0
M  V30 218 C 25.2926 -1.40625 -1.25976 0
M  V30 219 O 24.6496 -0.501349 -1.75479 0
M  V30 220 C 24.7006 -3.61092 -0.17167 0
M  V30 221 O 24.4216 -4.24858 1.06899 0
M  V30 222 C 25.9226 -4.37242 -0.730344 0
M  V30 223 H 23.1426 -0.669561 0.043915 0
M  V30 224 H 25.6866 -1.89646 0.765163 0
M  V30 225 H 23.8416 -3.7785 -0.854894 0
M  V30 226 H 24.2556 -5.17334 0.864059 0
M  V30 227 H 25.7296 -5.45842 -0.822203 0
M  V30 228 H 26.2066 -4.03235 -1.74064 0
M  V30 229 H 26.8126 -4.25219 -0.0829543 0
M  V30 230 N 25.1277 -0.289203 -1.54924 0
M  V30 231 C 26.3747 0.323519 -1.99899 0
M  V30 232 C 26.7027 1.54797 -1.17762 0
M  V30 233 O 25.9577 1.94237 -0.238835 0
M  V30 234 C 26.2567 0.736119 -3.49737 0
M  V30 235 C 25.9227 -0.385276 -4.49251 0
M  V30 236 C 24.5847 -0.693156 -4.76181 0
M  V30 237 C 26.9367 -1.14021 -5.08575 0
M  V30 238 C 24.2647 -1.7593 -5.59701 0
M  V30 239 C 26.6167 -2.19619 -5.93254 0
M  V30 240 C 25.2807 -2.51026 -6.185 0
M  V30 241 H 24.5507 0.118384 -0.731482 0
M  V30 242 H 27.1977 -0.405847 -1.8715 0
M  V30 243 H 25.5027 1.54539 -3.60035 0
M  V30 244 H 27.1997 1.22118 -3.81953 0
M  V30 245 H 23.7897 -0.135202 -4.28387 0
M  V30 246 H 27.9737 -0.915611 -4.87781 0
M  V30 247 H 23.2297 -2.0075 -5.77503 0
M  V30 248 H 27.4037 -2.78581 -6.38252 0
M  V30 249 H 25.0307 -3.33772 -6.83008 0
M  V30 250 N 26.6058 1.57591 -0.0167156 0
M  V30 251 C 28.0168 1.79201 0.523834 0
M  V30 252 C 28.3678 0.925796 1.72984 0
M  V30 253 O 27.4928 0.132792 2.15992 0
M  V30 254 C 28.0878 3.25 0.957091 0
M  V30 255 C 26.6468 3.47648 1.44283 0
M  V30 256 C 25.7938 2.74374 0.401757 0
M  V30 257 H 28.7448 1.56831 -0.242816 0
M  V30 258 H 28.7658 3.34031 1.82219 0
M  V30 259 H 28.2778 3.88019 0.0791415 0
M  V30 260 H 26.3788 2.89866 2.34113 0
M  V30 261 H 26.4918 4.56352 1.45877 0
M  V30 262 H 24.8558 2.39485 0.867121 0
M  V30 263 H 25.6388 3.40102 -0.467513 0
M  V30 264 N 28.0839 -0.256276 1.55502 0
M  V30 265 C 28.9939 -1.33882 1.92647 0
M  V30 266 C 30.0099 -1.53159 0.825727 0
M  V30 267 O 31.1859 -1.66963 1.12629 0
M  V30 268 C 28.2509 -2.6751 2.20543 0
M  V30 269 C 27.3119 -2.56836 3.43997 0
M  V30 270 C 26.5449 -3.84092 3.70553 0
M  V30 271 O 26.7679 -4.85545 2.99336 0
M  V30 272 O 25.7019 -3.83288 4.64084 0
M  V30 273 H 29.5279 -1.05374 2.84833 0
M  V30 274 H 27.1129 -0.456237 1.42263 0
M  V30 275 H 28.9949 -3.46492 2.39835 0
M  V30 276 H 27.6699 -2.9577 1.31536 0
M  V30 277 H 26.5769 -1.76172 3.30021 0
M  V30 278 H 27.9099 -2.33523 4.33275 0
M  V30 279 N 29.562 -1.4872 -0.521534 0
M  V30 280 C 30.81 -1.56857 -1.27437 0
M  V30 281 C 31.131 -0.247982 -1.93417 0
M  V30 282 O 30.401 0.731151 -1.81744 0
M  V30 283 H 28.981 -0.577885 -0.473347 0
M  V30 284 H 31.643 -1.85233 -0.606205 0
M  V30 285 H 30.739 -2.35402 -2.0492 0
M  V30 286 N 31.0401 0.771051 -1.3745 0
M  V30 287 C 32.2871 1.52963 -1.32697 0
M  V30 288 C 32.6151 1.94299 0.0883274 0
M  V30 289 O 31.8701 1.64397 1.0617 0
M  V30 290 C 32.1691 2.80676 -2.2126 0
M  V30 291 C 31.8351 2.58389 -3.69521 0
M  V30 292 C 30.4971 2.52019 -4.09927 0
M  V30 293 C 32.8491 2.38469 -4.63446 0
M  V30 294 C 30.1771 2.23721 -5.42371 0
M  V30 295 C 32.5291 2.11694 -5.96128 0
M  V30 296 C 31.1931 2.03769 -6.35637 0
M  V30 297 H 30.4631 0.559732 -0.485573 0
M  V30 298 H 33.1101 0.888083 -1.69662 0
M  V30 299 H 31.4151 3.49392 -1.77291 0
M  V30 300 H 33.1121 3.38557 -2.14895 0
M  V30 301 H 29.7021 2.6421 -3.37478 0
M  V30 302 H 33.8861 2.4238 -4.33089 0
M  V30 303 H 29.1421 2.16081 -5.71943 0
M  V30 304 H 33.3161 1.9528 -6.6846 0
M  V30 305 H 30.9431 1.81606 -7.38189 0
M  V30 306 N 32.5182 1.22032 0.997298 0
M  V30 307 C 33.4482 1.01065 2.10495 0
M  V30 308 C 34.4292 -0.0669542 1.69968 0
M  V30 309 O 35.6142 0.0943987 1.9397 0
M  V30 310 C 32.7442 0.582874 3.42374 0
M  V30 311 C 31.6982 1.60592 3.96729 0
M  V30 312 C 31.0242 1.03412 5.24605 0
M  V30 313 C 32.3242 2.99478 4.27914 0
M  V30 314 H 34.0182 1.93708 2.28292 0
M  V30 315 H 31.5642 0.932761 1.09707 0
M  V30 316 H 33.5172 0.423332 4.19268 0
M  V30 317 H 32.2412 -0.379213 3.24391 0
M  V30 318 H 30.9002 1.75316 3.21963 0
M  V30 319 H 30.5482 0.063518 5.0296 0
M  V30 320 H 30.2482 1.71754 5.61938 0
M  V30 321 H 31.7722 0.886066 6.04137 0
M  V30 322 H 33.1862 2.88153 4.95622 0
M  V30 323 H 31.5832 3.64903 4.76409 0
M  V30 324 H 32.6532 3.49742 3.3587 0
M  V30 325 N 33.9963 -1.19345 1.0293 0
M  V30 326 C 35.2423 -1.89585 0.736824 0
M  V30 327 C 35.5973 -1.78148 -0.726703 0
M  V30 328 O 34.8903 -1.16332 -1.52242 0
M  V30 329 C 35.0843 -3.39292 1.12319 0
M  V30 330 C 34.9133 -3.65298 2.62273 0
M  V30 331 C 33.6833 -3.83304 3.29251 0
M  V30 332 C 35.8813 -3.6682 3.60482 0
M  V30 333 N 33.8633 -3.96944 4.68304 0
M  V30 334 C 35.2343 -3.86037 4.85155 0
M  V30 335 C 37.2893 -3.49848 3.54275 0
M  V30 336 C 35.9923 -3.9004 6.04369 0
M  V30 337 C 38.0183 -3.55129 4.72903 0
M  V30 338 C 37.3803 -3.74831 5.9639 0
M  V30 339 H 33.4793 -0.712856 0.321497 0
M  V30 340 H 36.0633 -1.43427 1.31669 0
M  V30 341 H 34.2343 -3.84172 0.571524 0
M  V30 342 H 35.9663 -3.97055 0.78292 0
M  V30 343 H 32.7213 -3.82211 2.79663 0
M  V30 344 H 33.1453 -4.07613 5.40538 0
M  V30 345 H 37.7873 -3.33572 2.59788 0
M  V30 346 H 35.5053 -4.05108 6.99223 0
M  V30 347 H 39.0913 -3.43287 4.69729 0
M  V30 348 H 37.9713 -3.78792 6.86649 0
M  V30 349 N 35.4744 -0.807222 -1.35358 0
M  V30 350 C 36.7224 -0.387122 -1.98358 0
M  V30 351 C 37.0434 1.04942 -1.64354 0
M  V30 352 O 36.3134 1.72615 -0.926339 0
M  V30 353 H 34.8934 -0.140154 -0.733734 0
M  V30 354 H 37.5554 -1.0332 -1.6526 0
M  V30 355 H 36.6514 -0.493352 -3.08176 0
M  V30 356 N 36.9525 1.47285 -0.560781 0
M  V30 357 C 38.1775 2.07359 -0.0410566 0
M  V30 358 C 38.6025 1.41017 1.24483 0
M  V30 359 O 37.9605 0.486368 1.74654 0
M  V30 360 C 38.0085 3.6035 0.134123 0
M  V30 361 O 37.1125 3.94681 1.19587 0
M  V30 362 H 36.4535 0.661887 -0.0529291 0
M  V30 363 H 38.9835 1.89252 -0.777482 0
M  V30 364 H 38.9935 4.0652 0.347207 0
M  V30 365 H 37.6685 4.08034 -0.805047 0
M  V30 366 H 36.2455 3.60251 0.962987 0
M  V30 367 N 38.4306 0.297415 1.54768 0
M  V30 368 C 39.3936 -0.567375 2.22066 0
M  V30 369 C 40.3936 -1.06409 1.20556 0
M  V30 370 O 41.5836 -0.960691 1.45315 0
M  V30 371 C 38.7156 -1.78517 2.90421 0
M  V30 372 H 39.9086 0.0205534 2.99893 0
M  V30 373 H 37.4616 0.0482163 1.56226 0
M  V30 374 H 38.1966 -2.41303 2.16664 0
M  V30 375 H 37.9816 -1.43669 3.64831 0
M  V30 376 H 39.4716 -2.39964 3.41771 0
M  V30 377 N 39.9087 -1.5758 0.0250728 0
M  V30 378 C 41.1367 -1.9593 -0.664747 0
M  V30 379 C 41.5517 -0.901352 -1.65895 0
M  V30 380 O 40.9087 0.117255 -1.82123 0
M  V30 381 C 40.9597 -3.34342 -1.37468 0
M  V30 382 O 40.6807 -4.36079 -0.420324 0
M  V30 383 C 42.1817 -3.873 -2.1567 0
M  V30 384 H 39.4017 -0.645405 -0.183557 0
M  V30 385 H 41.9457 -2.04329 0.0836372 0
M  V30 386 H 40.1007 -3.27175 -2.0745 0
M  V30 387 H 40.5147 -5.16297 -0.923991 0
M  V30 388 H 41.9887 -4.86504 -2.60803 0
M  V30 389 H 42.4657 -3.21331 -2.99405 0
M  V30 390 H 43.0717 -3.97723 -1.50654 0
M  V30 391 N 41.3868 0.248026 -1.55636 0
M  V30 392 C 42.3498 1.29044 -1.89421 0
M  V30 393 C 43.3498 1.41134 -0.770581 0
M  V30 394 O 44.5398 1.39854 -1.03858 0
M  V30 395 C 41.6718 2.66831 -2.12165 0
M  V30 396 H 42.8648 1.00305 -2.82629 0
M  V30 397 H 40.4178 0.487265 -1.48511 0
M  V30 398 H 41.1528 3.00711 -1.21422 0
M  V30 399 H 40.9378 2.59438 -2.93997 0
M  V30 400 H 42.4278 3.42103 -2.3949 0
M  V30 401 N 42.8649 1.48995 0.513639 0
M  V30 402 C 44.0899 1.61792 1.29762 0
M  V30 403 C 44.5149 0.284475 1.85936 0
M  V30 404 O 43.8729 -0.746185 1.65232 0
M  V30 405 C 43.9209 2.67993 2.41272 0
M  V30 406 O 43.0249 2.26287 3.44772 0
M  V30 407 H 42.3659 0.541963 0.38363 0
M  V30 408 H 44.8959 1.95097 0.616307 0
M  V30 409 H 44.9059 2.89772 2.87221 0
M  V30 410 H 43.5809 3.64791 1.9975 0
M  V30 411 H 42.1579 2.14788 3.04829 0
M  V30 412 N 44.343 -0.763751 1.37857 0
M  V30 413 C 45.573 -1.55067 1.3652 0
M  V30 414 C 45.981 -1.89135 -0.0494227 0
M  V30 415 O 45.324 -1.52529 -1.02375 0
M  V30 416 C 45.386 -2.8838 2.14656 0
M  V30 417 C 45.05 -2.76905 3.63555 0
M  V30 418 C 46.047 -2.4739 4.57268 0
M  V30 419 C 43.732 -2.94676 4.06781 0
M  V30 420 C 45.726 -2.35786 5.92186 0
M  V30 421 C 43.413 -2.82692 5.41782 0
M  V30 422 C 44.411 -2.53289 6.34298 0
M  V30 423 O 44.099 -2.41345 7.66817 0
M  V30 424 H 43.831 -0.486776 0.469069 0
M  V30 425 H 46.385 -0.953812 1.81911 0
M  V30 426 H 44.615 -3.50217 1.63967 0
M  V30 427 H 46.304 -3.49828 2.05852 0
M  V30 428 H 47.07 -2.33339 4.2518 0
M  V30 429 H 42.949 -3.16563 3.35126 0
M  V30 430 H 46.493 -2.12757 6.64365 0
M  V30 431 H 42.39 -2.96314 5.7347 0
M  V30 432 H 43.158 -2.56634 7.77226 0
M  V30 433 N 45.8211 -1.22559 -0.990812 0
M  V30 434 C 46.7531 -0.955325 -2.08342 0
M  V30 435 C 47.7661 0.0668408 -1.62663 0
M  V30 436 O 48.9551 -0.167421 -1.77713 0
M  V30 437 C 46.0551 -0.415566 -3.36342 0
M  V30 438 C 45.2281 -1.49544 -4.11042 0
M  V30 439 C 44.2871 -0.962399 -5.17324 0
M  V30 440 O 43.3131 -1.64907 -5.44788 0
M  V30 441 N 44.5151 0.215134 -5.80101 0
M  V30 442 H 47.2801 -1.89596 -2.32106 0
M  V30 443 H 44.8411 -1.13276 -1.15673 0
M  V30 444 H 46.8331 -0.0442386 -4.04676 0
M  V30 445 H 45.4031 0.430232 -3.09625 0
M  V30 446 H 44.6231 -2.04 -3.37309 0
M  V30 447 H 45.9111 -2.22195 -4.57719 0
M  V30 448 H 45.3091 0.789779 -5.6016 0
M  V30 449 H 43.8661 0.527826 -6.49659 0
M  V30 450 N 47.2992 1.18797 -1.03562 0
M  V30 451 C 48.5482 1.87978 -0.731235 0
M  V30 452 C 48.8612 1.80911 0.743671 0
M  V30 453 O 50.0672 2.45407 1.16137 0
M  V30 454 C 48.5232 3.3721 -1.25768 0
M  V30 455 C 48.1312 3.52818 -2.76085 0
M  V30 456 C 49.8752 4.11825 -1.0296 0
M  V30 457 C 47.7822 4.9598 -3.22114 0
M  V30 458 H 46.7122 0.704063 -0.269835 0
M  V30 459 H 49.3632 1.34266 -1.25079 0
M  V30 460 H 47.7452 3.90359 -0.666011 0
M  V30 461 H 48.9192 3.09965 -3.40966 0
M  V30 462 H 47.2342 2.91602 -2.97249 0
M  V30 463 H 49.8312 5.17411 -1.34869 0
M  V30 464 H 50.1742 4.16287 0.0333546 0
M  V30 465 H 50.7072 3.64833 -1.58562 0
M  V30 466 H 47.4462 4.96684 -4.27768 0
M  V30 467 H 46.9662 5.39569 -2.61965 0
M  V30 468 H 48.6452 5.6467 -3.15844 0
M  V30 469 N 48.7773 0.814389 1.34928 0
M  V30 470 C 49.6873 0.231978 2.3345 0
M  V30 471 C 50.7033 -0.629139 1.62228 0
M  V30 472 O 51.8793 -0.539052 1.94052 0
M  V30 473 C 48.9443 -0.603482 3.41407 0
M  V30 474 C 48.0053 0.279037 4.28392 0
M  V30 475 C 47.2383 -0.516643 5.31193 0
M  V30 476 O 47.4613 -1.75068 5.4287 0
M  V30 477 O 46.3953 0.0965652 6.01823 0
M  V30 478 H 50.2213 1.04721 2.85074 0
M  V30 479 H 47.8063 0.576343 1.37836 0
M  V30 480 H 49.6883 -1.07908 4.0735 0
M  V30 481 H 48.3633 -1.39618 2.92042 0
M  V30 482 H 47.2703 0.801948 3.65403 0
M  V30 483 H 48.6033 1.03588 4.81176 0
M  V30 484 N 50.2554 -1.46986 0.568584 0
M  V30 485 C 51.5034 -2.02041 0.0487022 0
M  V30 486 C 51.8244 -1.44408 -1.31039 0
M  V30 487 O 51.0944 -0.623477 -1.85714 0
M  V30 488 H 49.6744 -0.746849 0.015014 0
M  V30 489 H 52.3364 -1.80257 0.741168 0
M  V30 490 H 51.4324 -3.12085 -0.0308961 0
M  V30 491 N 51.7335 -0.305618 -1.54608 0
M  V30 492 C 52.6965 0.555591 -2.22364 0
M  V30 493 C 53.6965 1.05768 -1.21119 0
M  V30 494 O 54.8865 0.952972 -1.45822 0
M  V30 495 C 52.0185 1.76974 -2.91364 0
M  V30 496 H 53.2115 -0.0364572 -2.99878 0
M  V30 497 H 50.7645 -0.0565007 -1.56198 0
M  V30 498 H 51.4995 2.40151 -2.17941 0
M  V30 499 H 51.2845 1.41732 -3.65588 0
M  V30 500 H 52.7745 2.38148 -3.43038 0
M  V30 501 N 53.2116 1.57565 -0.0334293 0
M  V30 502 C 54.1746 2.09393 0.932048 0
M  V30 503 C 55.1746 1.00986 1.25134 0
M  V30 504 O 56.3646 1.27129 1.19096 0
M  V30 505 C 53.4966 2.56338 2.2473 0
M  V30 506 H 54.6896 2.95984 0.483085 0
M  V30 507 H 52.2426 1.54819 0.21468 0
M  V30 508 H 52.9776 1.7309 2.74245 0
M  V30 509 H 52.7626 3.35542 2.02865 0
M  V30 510 H 54.2526 2.96646 2.93923 0
M  V30 511 N 54.6897 -0.239769 1.55765 0
M  V30 512 C 55.6527 -1.28038 1.90103 0
M  V30 513 C 56.6527 -1.40723 0.778055 0
M  V30 514 O 57.8427 -1.39301 1.04599 0
M  V30 515 C 54.9747 -2.65702 2.13577 0
M  V30 516 H 56.1677 -0.988048 2.83157 0
M  V30 517 H 53.7207 -0.479382 1.48767 0
M  V30 518 H 54.4557 -3.00063 1.23015 0
M  V30 519 H 54.2407 -2.57875 2.95369 0
M  V30 520 H 55.7307 -3.40828 2.41301 0
M  V30 521 N 56.1678 -1.49265 -0.50573 0
M  V30 522 C 57.0778 -1.68312 -1.63427 0
M  V30 523 C 58.0938 -0.565682 -1.64548 0
M  V30 524 O 59.2698 -0.839801 -1.83055 0
M  V30 525 C 56.3348 -1.74107 -2.99813 0
M  V30 526 C 55.3958 -2.97653 -3.09356 0
M  V30 527 C 54.6288 -3.03163 -4.39236 0
M  V30 528 O 54.8518 -2.16396 -5.27758 0
M  V30 529 O 53.7858 -3.9558 -4.53652 0
M  V30 530 H 57.6118 -2.63907 -1.50289 0
M  V30 531 H 55.1968 -1.32951 -0.681502 0
M  V30 532 H 57.0788 -1.803 -3.80881 0
M  V30 533 H 55.7538 -0.816901 -3.13223 0
M  V30 534 H 54.6608 -2.96981 -2.27493 0
M  V30 535 H 55.9938 -3.89535 -3.00871 0
M  V30 536 N 57.6459 0.756429 -1.3826 0
M  V30 537 C 58.9229 1.50584 -1.24835 0
M  V30 538 C 59.3029 2.10556 0.151485 0
M  V30 539 O 58.6509 1.96825 1.1607 0
M  V30 540 C 58.8609 2.57448 -2.3563 0
M  V30 541 C 60.2089 3.24429 -2.73917 0
M  V30 542 O 61.2329 2.67751 -2.34921 0
M  V30 543 O 60.0919 4.26937 -3.41156 0
M  V30 544 H 57.1859 0.667664 -0.48801 0
M  V30 545 H 59.7319 0.792083 -1.5008 0
M  V30 546 H 58.5039 2.11362 -3.29305 0
M  V30 547 H 58.1269 3.36408 -2.11933 0
M  V30 548 N 59.124 1.23083 0.984299 0
M  V30 549 C 60.372 1.05848 1.72165 0
M  V30 550 C 60.693 -0.406049 1.90726 0
M  V30 551 O 59.963 -1.29139 1.47309 0
M  V30 552 H 58.543 0.388685 0.637913 0
M  V30 553 H 61.205 1.54736 1.18503 0
M  V30 554 H 60.301 1.54327 2.71274 0
M  V30 555 N 60.6021 -1.18246 1.0419 0
M  V30 556 C 62.0181 -1.40269 0.761366 0
M  V30 557 C 62.2181 -1.90777 -0.648578 0
M  V30 558 O 61.2741 -2.0929 -1.41258 0
M  V30 559 C 62.5871 -2.40237 1.8085 0
M  V30 560 C 64.1351 -2.53961 1.82955 0
M  V30 561 C 64.6101 -3.57194 2.86664 0
M  V30 562 N 66.1011 -3.64702 2.85563 0
M  V30 563 C 66.8361 -4.44309 3.6246 0
M  V30 564 N 66.3321 -5.27514 4.49111 0
M  V30 565 N 68.1251 -4.39084 3.50944 0
M  V30 566 H 60.2761 -0.837882 1.95175 0
M  V30 567 H 62.5391 -0.430608 0.84456 0
M  V30 568 H 62.2451 -2.10176 2.81991 0
M  V30 569 H 62.1191 -3.39601 1.64168 0
M  V30 570 H 64.5061 -2.83338 0.824855 0
M  V30 571 H 64.5871 -1.54706 2.03715 0
M  V30 572 H 64.2311 -3.28558 3.87314 0
M  V30 573 H 64.1611 -4.5613 2.6316 0
M  V30 574 H 66.6521 -3.05289 2.22727 0
M  V30 575 H 66.9651 -5.85411 5.04493 0
M  V30 576 H 65.3101 -5.2693 4.53178 0
M  V30 577 H 68.5011 -3.7313 2.82651 0
M  V30 578 H 68.6741 -5.00883 4.11121 0
M  V30 579 N 62.0802 -0.821533 -1.34494 0
M  V30 580 C 63.3082 -0.421884 -2.02553 0
M  V30 581 C 63.7232 0.971745 -1.61872 0
M  V30 582 O 63.0802 1.62864 -0.823496 0
M  V30 583 C 63.1312 -0.51285 -3.57844 0
M  V30 584 O 62.8522 -1.85155 -3.97051 0
M  V30 585 C 64.3532 -0.107921 -4.43169 0
M  V30 586 H 61.5732 -0.169482 -0.649243 0
M  V30 587 H 64.1172 -1.1093 -1.71798 0
M  V30 588 H 62.2722 0.126474 -3.87193 0
M  V30 589 H 62.6862 -1.82482 -4.91732 0
M  V30 590 H 64.1602 -0.222657 -5.51551 0
M  V30 591 H 64.6372 0.948401 -4.28838 0
M  V30 592 H 65.2432 -0.720989 -4.19144 0
M  V30 593 N 63.5583 1.46682 -0.576371 0
M  V30 594 C 64.9693 1.86112 -0.148091 0
M  V30 595 C 65.3203 1.48073 1.2872 0
M  V30 596 O 64.4453 0.892656 1.97131 0
M  V30 597 C 65.0403 3.37786 -0.261982 0
M  V30 598 C 63.5993 3.76235 0.111384 0
M  V30 599 C 62.7463 2.70713 -0.60083 0
M  V30 600 H 65.6973 1.37927 -0.78497 0
M  V30 601 H 65.7183 3.77007 0.514364 0
M  V30 602 H 65.2303 3.6544 -1.30671 0
M  V30 603 H 63.3313 3.54198 1.15649 0
M  V30 604 H 63.4443 4.78391 -0.26052 0
M  V30 605 H 61.8083 2.54666 -0.0417783 0
M  V30 606 H 62.5913 3.01208 -1.64708 0
M  V30 607 N 65.0364 0.313813 1.54444 0
M  V30 608 C 66.2614 -0.296681 2.05267 0
M  V30 609 C 66.6864 -1.45757 1.18897 0
M  V30 610 O 66.0444 -1.80239 0.195886 0
M  V30 611 C 66.0924 -0.71831 3.53373 0
M  V30 612 O 65.1964 -1.82175 3.69981 0
M  V30 613 H 64.5374 -0.0554061 0.661684 0
M  V30 614 H 67.0674 0.459387 1.99376 0
M  V30 615 H 67.0774 -1.00364 3.95463 0
M  V30 616 H 65.7524 0.130821 4.15694 0
M  V30 617 H 64.3294 -1.53598 3.39797 0
M  V30 618 N 66.5145 -1.57545 0.0417849 0
M  V30 619 C 67.7635 -1.91494 -0.633492 0
M  V30 620 C 68.0765 -0.921084 -1.72556 0
M  V30 621 O 69.2825 -1.15228 -2.45835 0
M  V30 622 C 67.7385 -3.40072 -1.17808 0
M  V30 623 C 67.3465 -4.47843 -0.118633 0
M  V30 624 C 69.0905 -3.8307 -1.82915 0
M  V30 625 C 66.9975 -5.87529 -0.675578 0
M  V30 626 H 65.9275 -0.714653 -0.24039 0
M  V30 627 H 68.5785 -1.83175 0.109148 0
M  V30 628 H 66.9605 -3.43364 -1.97274 0
M  V30 629 H 68.1345 -4.56128 0.654494 0
M  V30 630 H 66.4495 -4.14128 0.434414 0
M  V30 631 H 69.0465 -4.84794 -2.25563 0
M  V30 632 H 69.3895 -3.1881 -2.67705 0
M  V30 633 H 69.9225 -3.82255 -1.10119 0
M  V30 634 H 66.6615 -6.55362 0.134475 0
M  V30 635 H 66.1815 -5.82824 -1.4169 0
M  V30 636 H 67.8605 -6.36491 -1.1614 0
M  V30 637 N 67.9926 0.231505 -1.5589 0
M  V30 638 C 69.2386 0.954429 -1.79617 0
M  V30 639 C 69.5936 1.82367 -0.613199 0
M  V30 640 O 68.8866 1.87524 0.393094 0
M  V30 641 C 69.0806 1.83577 -3.0665 0
M  V30 642 C 68.9096 1.05334 -4.3719 0
M  V30 643 C 67.6796 0.75225 -4.99669 0
M  V30 644 C 69.8776 0.423444 -5.12554 0
M  V30 645 N 67.8596 -0.052627 -6.13877 0
M  V30 646 C 69.2306 -0.245287 -6.19515 0
M  V30 647 C 71.2856 0.335466 -4.96769 0
M  V30 648 C 69.9886 -0.993566 -7.12405 0
M  V30 649 C 72.0146 -0.399321 -5.9005 0
M  V30 650 C 71.3766 -1.05663 -6.9643 0
M  V30 651 H 67.4756 0.329846 -0.709031 0
M  V30 652 H 70.0596 0.226172 -1.93382 0
M  V30 653 H 68.2306 2.53592 -2.94186 0
M  V30 654 H 69.9626 2.49541 -3.18608 0
M  V30 655 H 66.7176 1.06783 -4.61405 0
M  V30 656 H 67.1416 -0.443609 -6.75545 0
M  V30 657 H 71.7836 0.829311 -4.14587 0
M  V30 658 H 69.5016 -1.49896 -7.94076 0
M  V30 659 H 73.0876 -0.468265 -5.79913 0
M  V30 660 H 71.9676 -1.61612 -7.67366 0
M  V30 661 N 69.4707 1.49531 0.497807 0
M  V30 662 C 70.7477 1.49682 1.25915 0
M  V30 663 C 71.1277 0.226339 2.09883 0
M  V30 664 O 70.4757 -0.791189 2.14365 0
M  V30 665 C 70.6857 2.77755 2.11313 0
M  V30 666 C 72.0337 3.27371 2.70395 0
M  V30 667 O 73.0577 2.78894 2.21578 0
M  V30 668 O 71.9167 4.11808 3.59272 0
M  V30 669 H 69.0107 0.599228 0.56996 0
M  V30 670 H 71.5567 1.61798 0.511816 0
M  V30 671 H 70.3287 3.61713 1.49264 0
M  V30 672 H 69.9517 2.68515 2.93233 0
M  V30 673 N 70.9488 -0.749086 1.3866 0
M  V30 674 C 72.1768 -1.53834 1.38358 0
M  V30 675 C 72.5918 -1.88783 -0.0255219 0
M  V30 676 O 71.9488 -1.53101 -0.993292 0
M  V30 677 C 71.9998 -2.83468 2.2434 0
M  V30 678 O 71.7208 -2.50008 3.5976 0
M  V30 679 C 73.2218 -3.7758 2.32267 0
M  V30 680 H 70.4418 -0.47585 0.473083 0
M  V30 681 H 72.9858 -0.926726 1.82297 0
M  V30 682 H 71.1408 -3.40995 1.83851 0
M  V30 683 H 71.5548 -3.33182 4.05081 0
M  V30 684 H 73.0288 -4.65478 2.96706 0
M  V30 685 H 73.5058 -4.18334 1.33765 0
M  V30 686 H 74.1118 -3.25976 2.73166 0
M  V30 687 N 72.4269 -1.23603 -0.977757 0
M  V30 688 C 73.6569 -1.09487 -1.75203 0
M  V30 689 C 74.0649 0.356321 -1.85814 0
M  V30 690 O 73.4079 1.25816 -1.33851 0
M  V30 691 C 73.4699 -1.64905 -3.19447 0
M  V30 692 C 73.1339 -3.13688 -3.32338 0
M  V30 693 C 74.1309 -4.10953 -3.18455 0
M  V30 694 C 71.8159 -3.53449 -3.56902 0
M  V30 695 C 73.8099 -5.45962 -3.28944 0
M  V30 696 C 71.4969 -4.88602 -3.6703 0
M  V30 697 C 72.4949 -5.84668 -3.53062 0
M  V30 698 O 72.1829 -7.17365 -3.62826 0
M  V30 699 H 71.9149 -0.38367 -0.556573 0
M  V30 700 H 74.4689 -1.6398 -1.23693 0
M  V30 701 H 72.6989 -1.04835 -3.72218 0
M  V30 702 H 74.3879 -1.46226 -3.78646 0
M  V30 703 H 75.1539 -3.81577 -2.99372 0
M  V30 704 H 71.0329 -2.79188 -3.66844 0
M  V30 705 H 74.5769 -6.20925 -3.17958 0
M  V30 706 H 70.4739 -5.17653 -3.85623 0
M  V30 707 H 71.2419 -7.2515 -3.79605 0
M  V30 708 N 73.905 1.17692 -1.04816 0
M  V30 709 C 74.868 2.19787 -0.650117 0
M  V30 710 C 75.868 1.58044 0.296427 0
M  V30 711 O 77.058 1.74012 0.0808097 0
M  V30 712 C 74.19 3.40869 0.0456987 0
M  V30 713 H 75.383 2.56516 -1.5537 0
M  V30 714 H 72.936 1.31708 -0.841594 0
M  V30 715 H 73.671 3.09681 0.962726 0
M  V30 716 H 73.456 3.86928 -0.634727 0
M  V30 717 H 74.946 4.16445 0.310432 0
M  V30 718 N 75.3831 0.828654 1.34056 0
M  V30 719 C 76.7991 0.515135 1.51058 0
M  V30 720 C 76.9991 -0.959581 1.77184 0
M  V30 721 O 76.0551 -1.74382 1.82612 0
M  V30 722 C 77.3681 1.37963 2.67183 0
M  V30 723 C 78.9161 1.37735 2.81066 0
M  V30 724 C 79.3911 2.22645 4.00241 0
M  V30 725 N 80.8821 2.203 4.07458 0
M  V30 726 C 81.6171 2.82744 4.98842 0
M  V30 727 N 81.1131 3.54201 5.9541 0
M  V30 728 N 82.9061 2.72268 4.91759 0
M  V30 729 H 75.0571 1.78343 1.15358 0
M  V30 730 H 77.3201 0.760304 0.566252 0
M  V30 731 H 77.0261 2.42714 2.54525 0
M  V30 732 H 76.9001 1.0484 3.62338 0
M  V30 733 H 79.2871 0.337593 2.93163 0
M  V30 734 H 79.3681 1.74859 1.86703 0
M  V30 735 H 79.0121 3.26674 3.88905 0
M  V30 736 H 78.9421 1.82869 4.93829 0
M  V30 737 H 81.4331 1.68327 3.38341 0
M  V30 738 H 81.7461 3.9908 6.61782 0
M  V30 739 H 80.0911 3.58308 5.95517 0
M  V30 740 H 83.2821 2.16014 4.15278 0
M  V30 741 H 83.4551 3.21219 5.62781 0
M  V30 742 N 76.8612 -1.46375 0.584142 0
M  V30 743 C 78.0892 -2.06761 0.0759296 0
M  V30 744 C 78.5042 -1.43266 -1.22965 0
M  V30 745 O 77.8612 -0.538458 -1.74376 0
M  V30 746 C 77.9122 -3.61375 -0.0950384 0
M  V30 747 O 77.6332 -4.22495 1.15887 0
M  V30 748 C 79.1342 -4.38693 -0.637434 0
M  V30 749 H 76.3542 -0.668479 0.0581075 0
M  V30 750 H 78.8982 -1.8798 0.805218 0
M  V30 751 H 77.0532 -3.79578 -0.774554 0
M  V30 752 H 77.4672 -5.15385 0.973598 0
M  V30 753 H 78.9412 -5.47464 -0.706237 0
M  V30 754 H 79.4182 -4.06836 -1.65472 0
M  V30 755 H 80.0242 -4.25299 0.00725967 0
M  V30 756 N 78.3393 -0.321999 -1.54275 0
M  V30 757 C 79.7503 0.166384 -1.85957 0
M  V30 758 C 80.1013 1.51747 -1.24367 0
M  V30 759 O 79.2263 2.09317 -0.549124 0
M  V30 760 C 79.8213 0.308681 -3.37391 0
M  V30 761 C 78.3803 0.741286 -3.69028 0
M  V30 762 C 77.5273 -0.137937 -2.76957 0
M  V30 763 H 80.4783 -0.542335 -1.49146 0
M  V30 764 H 80.4993 1.13984 -3.63026 0
M  V30 765 H 80.0113 -0.674809 -3.82188 0
M  V30 766 H 78.1123 1.73458 -3.29762 0
M  V30 767 H 78.2253 0.546118 -4.75977 0
M  V30 768 H 76.5893 0.386251 -2.51754 0
M  V30 769 H 77.3723 -1.11816 -3.2458 0
M  V30 770 N 79.8174 1.5752 -0.0501392 0
M  V30 771 C 81.0654 1.9227 0.622642 0
M  V30 772 C 81.3864 0.929083 1.71444 0
M  V30 773 O 80.6564 -0.0262186 1.95882 0
M  V30 774 H 79.2364 0.709739 0.232981 0
M  V30 775 H 81.8984 1.94628 -0.102898 0
M  V30 776 H 80.9944 2.93479 1.06191 0
M  V30 777 N 81.2955 -0.223234 1.56011 0
M  V30 778 C 82.7115 -0.572856 1.48965 0
M  V30 779 C 82.9115 -1.87225 0.74492 0
M  V30 780 O 81.9675 -2.50899 0.283896 0
M  V30 781 C 83.2805 -0.653646 2.9351 0
M  V30 782 C 84.8285 -0.744386 3.0402 0
M  V30 783 C 85.3035 -0.856535 4.49919 0
M  V30 784 N 86.7945 -0.9208 4.53955 0
M  V30 785 C 87.5295 -1.02726 5.64123 0
M  V30 786 N 87.0255 -1.09777 6.84047 0
M  V30 787 N 88.8185 -1.06226 5.51971 0
M  V30 788 H 80.9695 0.629462 2.02858 0
M  V30 789 H 83.2325 0.220621 0.921971 0
M  V30 790 H 82.9385 0.231518 3.50937 0
M  V30 791 H 82.8125 -1.51781 3.45315 0
M  V30 792 H 85.1995 -1.61999 2.46658 0
M  V30 793 H 85.2805 0.14541 2.55386 0
M  V30 794 H 84.9245 0.0146069 5.07898 0
M  V30 795 H 84.8545 -1.76172 4.96257 0
M  V30 796 H 87.3455 -0.876694 3.6759 0
M  V30 797 H 87.6585 -1.17872 7.63758 0
M  V30 798 H 86.0035 -1.06693 6.86762 0
M  V30 799 H 89.1945 -1.00382 4.5721 0
M  V30 800 H 89.3675 -1.14177 6.37862 0
M  V30 801 N 82.7736 -1.49793 -0.48987 0
M  V30 802 C 84.0196 -1.60078 -1.24511 0
M  V30 803 C 84.3526 -0.291608 -1.91998 0
M  V30 804 O 83.6276 0.705647 -1.81248 0
M  V30 805 C 83.9106 -2.76791 -2.30345 0
M  V30 806 C 83.7636 -4.17535 -1.67286 0
M  V30 807 C 85.0826 -2.89111 -3.31817 0
M  V30 808 H 82.2016 -0.582645 -0.451324 0
M  V30 809 H 84.8436 -1.82117 -0.541612 0
M  V30 810 H 82.9936 -2.5813 -2.90346 0
M  V30 811 H 84.6656 -4.4774 -1.11026 0
M  V30 812 H 82.9086 -4.22665 -0.976577 0
M  V30 813 H 83.5796 -4.95094 -2.44103 0
M  V30 814 H 86.0556 -3.06133 -2.81819 0
M  V30 815 H 84.9316 -3.72433 -4.03219 0
M  V30 816 H 85.1926 -1.9893 -3.94815 0
M  V30 817 N 84.2517 0.741722 -1.39055 0
M  V30 818 C 85.6677 1.04638 -1.20512 0
M  V30 819 C 85.8677 2.01405 -0.0620218 0
M  V30 820 O 84.9237 2.45547 0.588457 0
M  V30 821 C 86.2367 1.6151 -2.53643 0
M  V30 822 C 87.7847 1.73623 -2.6043 0
M  V30 823 C 88.2597 2.33906 -3.93767 0
M  V30 824 N 89.7507 2.41323 -3.9537 0
M  V30 825 C 90.4857 2.88888 -4.95309 0
M  V30 826 N 89.9817 3.36401 -6.05645 0
M  V30 827 N 91.7747 2.88037 -4.82692 0
M  V30 828 H 83.9257 0.0998155 -2.12165 0
M  V30 829 H 86.1887 0.106907 -0.941953 0
M  V30 830 H 85.8947 0.978739 -3.37807 0
M  V30 831 H 85.7687 2.60411 -2.72885 0
M  V30 832 H 88.1557 2.36384 -1.76655 0
M  V30 833 H 88.2367 0.733945 -2.45045 0
M  V30 834 H 87.8807 1.71776 -4.7797 0
M  V30 835 H 87.8107 3.34799 -4.06469 0
M  V30 836 H 90.3017 2.07734 -3.15682 0
M  V30 837 H 90.6147 3.71186 -6.77821 0
M  V30 838 H 88.9597 3.34427 -6.09248 0
M  V30 839 H 92.1507 2.50237 -3.95599 0
M  V30 840 H 92.3237 3.24792 -5.60726 0
M  V30 841 N 85.7298 1.2412 0.971189 0
M  V30 842 C 86.6778 1.02812 2.08644 0
M  V30 843 C 87.6718 -0.0358403 1.69362 0
M  V30 844 O 88.8778 0.118429 1.7961 0
M  V30 845 H 85.2528 0.315428 0.682649 0
M  V30 846 H 87.2238 1.97397 2.23779 0
M  V30 847 C 85.9728 0.645874 3.41649 0
M  V30 848 H 85.2958 1.45632 3.72332 0
M  V30 849 H 86.7358 0.536366 4.20594 0
M  V30 850 C 85.1948 -0.646713 3.30635 0
M  V30 851 O 85.7248 -1.69338 3.64263 0
M  V30 852 N 83.9308 -0.626115 2.83775 0
M  V30 853 H 83.4778 0.225988 2.56607 0
M  V30 854 H 83.4358 -1.49117 2.76788 0
M  V30 855 N 87.2079 -1.17134 1.05439 0
M  V30 856 C 88.4559 -1.87085 0.764429 0
M  V30 857 C 88.7769 -1.81584 -0.710787 0
M  V30 858 O 88.0469 -1.24349 -1.51374 0
M  V30 859 H 86.6269 -0.692627 0.279779 0
M  V30 860 H 89.2889 -1.42087 1.33406 0
M  V30 861 H 88.3849 -2.92759 1.0816 0
M  V30 862 N 88.686 -0.835752 -1.33615 0
M  V30 863 C 89.963 -0.352017 -1.92406 0
M  V30 864 C 90.343 1.16225 -1.76224 0
M  V30 865 O 89.691 1.97526 -1.14873 0
M  V30 866 C 89.901 -0.795485 -3.39813 0
M  V30 867 C 91.249 -0.801703 -4.16963 0
M  V30 868 O 92.273 -0.738889 -3.48452 0
M  V30 869 O 91.132 -0.886607 -5.3926 0
M  V30 870 H 88.226 -0.0989641 -0.821057 0
M  V30 871 H 90.772 -0.921397 -1.42507 0
M  V30 872 H 89.544 -1.83795 -3.45449 0
M  V30 873 H 89.167 -0.202505 -3.97084 0
M  V30 874 N 90.1641 1.46063 -0.591896 0
M  V30 875 C 91.3921 2.06717 -0.0868936 0
M  V30 876 C 91.8071 1.43916 1.22203 0
M  V30 877 O 91.1641 0.547698 1.74088 0
M  V30 878 C 91.2151 3.6142 0.0758725 0
M  V30 879 O 90.9361 4.21874 -1.18126 0
M  V30 880 C 92.4371 4.39025 0.61416 0
M  V30 881 H 89.6571 0.668162 -0.0616518 0
M  V30 882 H 92.2011 1.8755 -0.815175 0
M  V30 883 H 90.3561 3.79983 0.754413 0
M  V30 884 H 90.7701 5.14861 -1.00092 0
M  V30 885 H 92.2441 5.4783 0.677193 0
M  V30 886 H 92.7211 4.07708 1.63312 0
M  V30 887 H 93.3271 4.2529 -0.0298142 0
M  V30 888 N 91.6422 0.330177 1.54103 0
M  V30 889 C 92.8902 -0.269871 2.0029 0
M  V30 890 C 93.2112 -1.52133 1.21986 0
M  V30 891 O 92.4812 -1.93212 0.323438 0
M  V30 892 H 91.0612 -0.10271 0.739905 0
M  V30 893 H 93.7232 0.448249 1.89675 0
M  V30 894 H 92.8192 -0.52166 3.07709 0
M  V30 895 N 93.1203 -1.57491 0.0584922 0
M  V30 896 C 94.3973 -1.84346 -0.653918 0
M  V30 897 C 94.7773 -0.948355 -1.88599 0
M  V30 898 O 94.1253 -0.0112403 -2.28497 0
M  V30 899 C 94.3353 -3.34239 -1.00425 0
M  V30 900 C 95.6833 -4.01431 -1.38342 0
M  V30 901 O 96.7073 -3.38907 -1.09637 0
M  V30 902 O 95.5663 -5.11683 -1.91943 0
M  V30 903 H 92.6603 -0.761112 -0.323478 0
M  V30 904 H 95.2063 -1.6947 0.0884125 0
M  V30 905 H 93.9783 -3.91089 -0.128625 0
M  V30 906 H 93.6013 -3.54329 -1.80378 0
M  V30 907 N 94.5984 0.214957 -1.56127 0
M  V30 908 C 95.8444 0.939762 -1.79712 0
M  V30 909 C 96.1774 1.83723 -0.629247 0
M  V30 910 O 95.4524 1.90925 0.371197 0
M  V30 911 C 95.7354 1.77306 -3.13424 0
M  V30 912 C 95.5884 0.90164 -4.40671 0
M  V30 913 C 96.9074 2.74956 -3.43638 0
M  V30 914 H 94.0264 0.340214 -0.653776 0
M  V30 915 H 96.6684 0.20824 -1.88855 0
M  V30 916 H 94.8184 2.39673 -3.0576 0
M  V30 917 H 96.4904 0.294206 -4.60361 0
M  V30 918 H 94.7334 0.207368 -4.33304 0
M  V30 919 H 95.4044 1.51923 -5.30682 0
M  V30 920 H 97.8804 2.22724 -3.51473 0
M  V30 921 H 96.7564 3.30358 -4.38355 0
M  V30 922 H 97.0174 3.53023 -2.66134 0
M  V30 923 N 96.0765 1.50051 0.48192 0
M  V30 924 C 97.0395 1.67584 1.5636 0
M  V30 925 C 98.0395 0.546894 1.51214 0
M  V30 926 O 99.2295 0.813725 1.54026 0
M  V30 927 C 96.3615 1.691 2.96003 0
M  V30 928 H 97.5545 2.64078 1.42136 0
M  V30 929 H 95.1075 1.39369 0.707533 0
M  V30 930 H 95.8425 0.742589 3.15684 0
M  V30 931 H 95.6275 2.51105 3.01146 0
M  V30 932 H 97.1175 1.84656 3.74556 0
M  V30 933 N 97.5546 -0.734337 1.39446 0
M  V30 934 C 98.7826 -1.52358 1.39981 0
M  V30 935 C 99.1976 -1.88799 -0.0054975 0
M  V30 936 O 98.5546 -1.54146 -0.976998 0
M  V30 937 C 98.6056 -2.81072 2.27333 0
M  V30 938 O 98.3266 -2.46178 3.62392 0
M  V30 939 C 99.8276 -3.75096 2.36259 0
M  V30 940 H 97.0476 -0.470806 0.478103 0
M  V30 941 H 99.5916 -0.907339 1.83269 0
M  V30 942 H 97.7466 -3.39026 1.87457 0
M  V30 943 H 98.1606 -3.28866 4.08592 0
M  V30 944 H 99.6346 -4.62305 3.01626 0
M  V30 945 H 100.112 -4.16892 1.38194 0
M  V30 946 H 100.718 -3.23061 2.76608 0
M  V30 947 N 99.0327 -1.24633 -0.964593 0
M  V30 948 C 100.31 -0.995809 -1.68354 0
M  V30 949 C 100.69 0.480964 -2.05548 0
M  V30 950 O 100.038 1.45599 -1.76105 0
M  V30 951 C 100.248 -1.92177 -2.91323 0
M  V30 952 C 101.596 -2.19446 -3.63495 0
M  V30 953 O 102.62 -1.89855 -3.01386 0
M  V30 954 O 101.479 -2.69714 -4.75307 0
M  V30 955 H 98.5727 -0.376854 -0.736146 0
M  V30 956 H 101.119 -1.35745 -1.0184 0
M  V30 957 H 99.8907 -2.91938 -2.60553 0
M  V30 958 H 99.5137 -1.56349 -3.65569 0
M  V30 959 N 100.511 1.16574 -1.06058 0
M  V30 960 C 101.461 2.18854 -0.63929 0
M  V30 961 C 102.445 1.57505 0.328798 0
M  V30 962 O 103.637 1.76408 0.144623 0
M  V30 963 C 100.766 3.43291 -0.0247203 0
M  V30 964 C 99.8518 4.11722 -1.01716 0
M  V30 965 N 100.243 4.55841 -2.19186 0
M  V30 966 C 98.5408 4.37872 -0.847569 0
M  V30 967 C 99.2418 5.08751 -2.82042 0
M  V30 968 N 98.2178 5.01489 -2.09784 0
M  V30 969 H 102.02 2.5068 -1.53417 0
M  V30 970 H 99.5338 1.32999 -0.931935 0
M  V30 971 H 101.531 4.15856 0.294915 0
M  V30 972 H 100.191 3.12954 0.865448 0
M  V30 973 H 101.202 4.49649 -2.56975 0
M  V30 974 H 97.8788 4.17499 -0.00918848 0
M  V30 975 H 99.2688 5.52944 -3.81709 0
M  V30 976 N 101.989 0.842826 1.3317 0
M  V30 977 C 103.219 0.453397 2.01564 0
M  V30 978 C 103.627 -0.951147 1.63554 0
M  V30 979 O 102.97 -1.63021 0.846746 0
M  V30 980 C 103.032 0.499013 3.5602 0
M  V30 981 C 102.696 1.86037 4.1742 0
M  V30 982 C 103.693 2.82416 4.36506 0
M  V30 983 C 101.378 2.15428 4.53757 0
M  V30 984 C 103.372 4.06346 4.91082 0
M  V30 985 C 101.059 3.39615 5.0804 0
M  V30 986 C 102.057 4.3489 5.26649 0
M  V30 987 O 101.745 5.5688 5.79776 0
M  V30 988 H 101.477 0.177871 0.652179 0
M  V30 989 H 104.031 1.13808 1.70988 0
M  V30 990 H 102.261 -0.242467 3.85939 0
M  V30 991 H 103.95 0.126852 4.05702 0
M  V30 992 H 104.716 2.6101 4.08777 0
M  V30 993 H 100.595 1.42061 4.38565 0
M  V30 994 H 104.139 4.80722 5.05522 0
M  V30 995 H 100.036 3.60876 5.352 0
M  V30 996 H 100.804 5.58674 5.98185 0
M  V30 997 N 103.467 -1.45747 0.599634 0
M  V30 998 C 104.417 -2.27538 -0.145107 0
M  V30 999 C 105.401 -1.3686 -0.846055 0
M  V30 1000 O 106.593 -1.6091 -0.737357 0
M  V30 1001 C 103.722 -3.23569 -1.14708 0
M  V30 1002 C 102.808 -4.21734 -0.447383 0
M  V30 1003 N 103.199 -5.03257 0.506535 0
M  V30 1004 C 101.497 -4.40536 -0.695966 0
M  V30 1005 C 102.198 -5.74426 0.917068 0
M  V30 1006 N 101.174 -5.42966 0.26253 0
M  V30 1007 H 104.976 -2.87965 0.587672 0
M  V30 1008 H 102.49 -1.56803 0.422697 0
M  V30 1009 H 104.487 -3.8089 -1.69495 0
M  V30 1010 H 103.147 -2.64702 -1.8805 0
M  V30 1011 H 104.158 -5.10319 0.882899 0
M  V30 1012 H 100.835 -3.92802 -1.41467 0
M  V30 1013 H 102.225 -6.4995 1.70338 0
M  V30 1014 N 104.945 -0.338344 -1.53925 0
M  V30 1015 C 106.361 0.0137736 -1.59594 0
M  V30 1016 C 106.561 1.49186 -1.35447 0
M  V30 1017 O 105.617 2.24987 -1.14616 0
M  V30 1018 C 106.93 -0.41773 -2.97784 0
M  V30 1019 C 108.478 -0.369633 -3.1081 0
M  V30 1020 C 108.953 -0.776524 -4.51369 0
M  V30 1021 N 110.444 -0.730506 -4.57403 0
M  V30 1022 C 111.179 -1.01736 -5.64303 0
M  V30 1023 N 110.675 -1.3721 -6.79077 0
M  V30 1024 N 112.468 -0.941942 -5.54151 0
M  V30 1025 H 104.619 -1.3012 -1.67876 0
M  V30 1026 H 106.882 -0.530082 -0.78595 0
M  V30 1027 H 106.588 -1.44811 -3.20504 0
M  V30 1028 H 106.462 0.209729 -3.76616 0
M  V30 1029 H 108.849 0.651568 -2.87817 0
M  V30 1030 H 108.93 -1.03223 -2.34049 0
M  V30 1031 H 108.574 -1.79571 -4.75096 0
M  V30 1032 H 108.504 -0.0914649 -5.26521 0
M  V30 1033 H 110.995 -0.468783 -3.74981 0
M  V30 1034 H 111.308 -1.57597 -7.5656 0
M  V30 1035 H 109.653 -1.4105 -6.80536 0
M  V30 1036 H 112.844 -0.664184 -4.63364 0
M  V30 1037 H 113.017 -1.16884 -6.37371 0
M  V30 1038 N 106.423 1.57458 -0.0668435 0
M  V30 1039 C 107.669 1.94401 0.598316 0
M  V30 1040 C 108.024 0.946335 1.67518 0
M  V30 1041 O 107.317 -0.0321442 1.91573 0
M  V30 1042 C 107.511 3.35784 1.22409 0
M  V30 1043 C 107.34 4.49212 0.209367 0
M  V30 1044 C 106.11 5.04887 -0.204218 0
M  V30 1045 C 108.308 5.11335 -0.551431 0
M  V30 1046 N 106.29 6.01854 -1.21016 0
M  V30 1047 C 107.661 6.03754 -1.41 0
M  V30 1048 C 109.716 4.94173 -0.608038 0
M  V30 1049 C 108.419 6.80854 -2.32013 0
M  V30 1050 C 110.445 5.71912 -1.50566 0
M  V30 1051 C 109.807 6.63976 -2.35191 0
M  V30 1052 H 105.906 0.758538 0.190114 0
M  V30 1053 H 108.49 1.94175 -0.142832 0
M  V30 1054 H 106.661 3.36757 1.93518 0
M  V30 1055 H 108.393 3.59976 1.84931 0
M  V30 1056 H 105.148 4.73266 0.177908 0
M  V30 1057 H 105.572 6.55035 -1.71049 0
M  V30 1058 H 110.214 4.22788 0.032022 0
M  V30 1059 H 107.932 7.5152 -2.97057 0
M  V30 1060 H 111.518 5.60656 -1.55423 0
M  V30 1061 H 110.398 7.2308 -3.03522 0
M  V30 1062 N 107.901 -0.206675 1.56239 0
M  V30 1063 C 109.317 -0.557025 1.49564 0
M  V30 1064 C 109.517 -1.86424 0.764735 0
M  V30 1065 O 108.573 -2.50584 0.310491 0
M  V30 1066 C 109.886 -0.622478 2.94186 0
M  V30 1067 C 111.434 -0.712099 3.04792 0
M  V30 1068 C 111.909 -0.808767 4.50803 0
M  V30 1069 N 113.4 -0.8726 4.54907 0
M  V30 1070 C 114.135 -0.967365 5.65181 0
M  V30 1071 N 113.631 -1.02515 6.85173 0
M  V30 1072 N 115.424 -1.00366 5.53067 0
M  V30 1073 H 107.575 0.650943 2.02179 0
M  V30 1074 H 109.838 0.230387 0.919579 0
M  V30 1075 H 109.544 0.268727 3.50672 0
M  V30 1076 H 109.418 -1.4811 3.46905 0
M  V30 1077 H 111.805 -1.59374 2.48363 0
M  V30 1078 H 111.886 0.172489 2.55218 0
M  V30 1079 H 111.53 0.0684754 5.07854 0
M  V30 1080 H 111.46 -1.70899 4.98098 0
M  V30 1081 H 113.951 -0.837657 3.68499 0
M  V30 1082 H 114.264 -1.09765 7.64965 0
M  V30 1083 H 112.609 -0.994026 6.87855 0
M  V30 1084 H 115.8 -0.95527 4.58249 0
M  V30 1085 H 115.973 -1.07405 6.39037 0
M  V30 1086 N 109.379 -1.50304 -0.473955 0
M  V30 1087 C 110.289 -1.7174 -1.5982 0
M  V30 1088 C 111.305 -0.600457 -1.63311 0
M  V30 1089 O 112.481 -0.878441 -1.81233 0
M  V30 1090 C 109.546 -1.80427 -2.96052 0
M  V30 1091 C 108.607 -3.04148 -3.02972 0
M  V30 1092 C 107.84 -3.12411 -4.32706 0
M  V30 1093 O 108.063 -2.27542 -5.23049 0
M  V30 1094 O 106.997 -4.05113 -4.45159 0
M  V30 1095 H 110.823 -2.67035 -1.44657 0
M  V30 1096 H 108.408 -1.34366 -0.653148 0
M  V30 1097 H 110.29 -1.88338 -3.7697 0
M  V30 1098 H 108.965 -0.883156 -3.11419 0
M  V30 1099 H 107.872 -3.0174 -2.21142 0
M  V30 1100 H 109.205 -3.95829 -2.92541 0
M  V30 1101 N 110.857 0.726932 -1.39834 0
M  V30 1102 C 112.134 1.47902 -1.28001 0
M  V30 1103 C 112.514 2.1083 0.106789 0
M  V30 1104 O 111.862 1.99242 1.11869 0
M  V30 1105 C 112.072 2.52392 -2.41038 0
M  V30 1106 C 113.42 3.18546 -2.80737 0
M  V30 1107 O 114.444 2.62708 -2.40547 0
M  V30 1108 O 113.303 4.19604 -3.50135 0
M  V30 1109 H 110.397 0.657163 -0.502062 0
M  V30 1110 H 112.943 0.760071 -1.51727 0
M  V30 1111 H 111.715 2.04329 -3.33715 0
M  V30 1112 H 111.338 3.31837 -2.19021 0
M  V30 1113 N 112.336 1.25143 0.95797 0
M  V30 1114 C 113.582 1.09855 1.70469 0
M  V30 1115 C 113.915 -0.360187 1.90831 0
M  V30 1116 O 113.19 -1.26568 1.47685 0
M  V30 1117 C 113.473 1.8497 3.08963 0
M  V30 1118 C 113.326 3.38652 2.96032 0
M  V30 1119 C 114.645 1.63016 4.08795 0
M  V30 1120 H 111.764 0.400465 0.618706 0
M  V30 1121 H 114.406 1.53933 1.11376 0
M  V30 1122 H 112.556 1.47505 3.59409 0
M  V30 1123 H 114.228 3.85772 2.52938 0
M  V30 1124 H 112.471 3.66534 2.32025 0
M  V30 1125 H 113.142 3.8642 3.94187 0
M  V30 1126 H 115.618 1.95625 3.67247 0
M  V30 1127 H 114.494 2.18015 5.03747 0
M  V30 1128 H 114.755 0.570692 4.38401 0
M  V30 1129 N 113.814 -1.1601 1.06675 0
M  V30 1130 C 114.777 -2.18724 0.685001 0
M  V30 1131 C 115.777 -1.58496 -0.271246 0
M  V30 1132 O 116.967 -1.74119 -0.0531156 0
M  V30 1133 C 114.099 -3.40899 0.00853648 0
M  V30 1134 H 115.292 -2.54011 1.59431 0
M  V30 1135 H 112.845 -1.30352 0.862441 0
M  V30 1136 H 113.58 -3.11173 -0.913337 0
M  V30 1137 H 113.365 -3.8587 0.696204 0
M  V30 1138 H 114.855 -4.16886 -0.24414 0
M  V30 1139 N 115.292 -0.849877 -1.32721 0
M  V30 1140 C 116.222 -0.306308 -2.31482 0
M  V30 1141 C 117.203 0.591952 -1.59468 0
M  V30 1142 O 118.388 0.513199 -1.87296 0
M  V30 1143 C 115.518 0.510204 -3.43532 0
M  V30 1144 C 114.472 -0.293209 -4.26994 0
M  V30 1145 C 113.798 0.647743 -5.30762 0
M  V30 1146 C 115.098 -1.51634 -4.99804 0
M  V30 1147 H 116.792 -1.13153 -2.77195 0
M  V30 1148 H 114.338 -0.545553 -1.33266 0
M  V30 1149 H 116.291 0.900856 -4.11658 0
M  V30 1150 H 115.015 1.36874 -2.96535 0
M  V30 1151 H 113.674 -0.665555 -3.60508 0
M  V30 1152 H 113.322 1.50299 -4.8002 0
M  V30 1153 H 113.022 0.11422 -5.87489 0
M  V30 1154 H 114.546 1.03567 -6.01753 0
M  V30 1155 H 115.96 -1.19824 -5.60638 0
M  V30 1156 H 114.357 -1.98745 -5.66234 0
M  V30 1157 H 115.427 -2.28018 -4.27943 0
M  V30 1158 N 116.77 1.45427 -0.607355 0
M  V30 1159 C 117.703 2.27635 0.160482 0
M  V30 1160 C 118.681 1.37122 0.873857 0
M  V30 1161 O 119.865 1.66551 0.882775 0
M  V30 1162 C 116.992 3.15486 1.23231 0
M  V30 1163 C 116.038 4.21939 0.622097 0
M  V30 1164 S 116.871 5.32459 -0.569852 0
M  V30 1165 C 118.027 6.23879 0.502577 0
M  V30 1166 H 118.26 2.9241 -0.536983 0
M  V30 1167 H 115.793 1.49265 -0.394868 0
M  V30 1168 H 117.751 3.66659 1.84585 0
M  V30 1169 H 116.412 2.49977 1.90185 0
M  V30 1170 H 115.605 4.8333 1.42856 0
M  V30 1171 H 115.207 3.73906 0.0837063 0
M  V30 1172 H 117.499 6.63261 1.38171 0
M  V30 1173 H 118.442 7.0806 -0.0751759 0
M  V30 1174 H 118.85 5.58545 0.8178 0
M  V30 1175 N 118.248 0.346503 1.53744 0
M  V30 1176 C 119.211 -0.496439 2.23759 0
M  V30 1177 C 120.211 -1.0252 1.2388 0
M  V30 1178 O 121.401 -0.913974 1.48297 0
M  V30 1179 C 118.533 -1.69187 2.95954 0
M  V30 1180 H 119.726 0.115952 2.99676 0
M  V30 1181 H 117.279 0.0978939 1.55993 0
M  V30 1182 H 118.014 -2.34288 2.24231 0
M  V30 1183 H 117.799 -1.31989 3.69217 0
M  V30 1184 H 119.289 -2.28969 3.49232 0
M  V30 1185 N 119.726 -1.57421 0.075193 0
M  V30 1186 C 120.636 -2.1642 -0.905511 0
M  V30 1187 C 121.652 -1.12828 -1.32461 0
M  V30 1188 O 122.828 -1.45109 -1.39661 0
M  V30 1189 C 119.893 -2.71693 -2.15369 0
M  V30 1190 C 118.954 -3.90171 -1.79068 0
M  V30 1191 C 118.187 -4.42798 -2.97936 0
M  V30 1192 O 118.41 -3.94416 -4.12058 0
M  V30 1193 O 117.344 -5.34085 -2.77555 0
M  V30 1194 H 121.17 -3.00588 -0.433626 0
M  V30 1195 H 118.755 -1.48664 -0.148067 0
M  V30 1196 H 120.637 -3.07104 -2.88557 0
M  V30 1197 H 119.312 -1.90582 -2.61649 0
M  V30 1198 H 118.219 -3.59606 -1.03122 0
M  V30 1199 H 119.552 -4.72584 -1.37569 0
M  V30 1200 N 121.204 0.198386 -1.56346 0
M  V30 1201 C 122.134 1.24865 -1.9731 0
M  V30 1202 C 123.115 1.47651 -0.844576 0
M  V30 1203 O 124.3 1.59444 -1.10866 0
M  V30 1204 C 121.43 2.59358 -2.30977 0
M  V30 1205 C 120.384 2.5119 -3.46537 0
M  V30 1206 C 119.71 3.89926 -3.65871 0
M  V30 1207 C 121.01 2.03977 -4.80823 0
M  V30 1208 H 122.704 0.908252 -2.85291 0
M  V30 1209 H 120.25 0.435462 -1.37258 0
M  V30 1210 H 122.203 3.33011 -2.58228 0
M  V30 1211 H 120.927 2.95132 -1.39874 0
M  V30 1212 H 119.586 1.79993 -3.19371 0
M  V30 1213 H 119.234 4.23046 -2.72105 0
M  V30 1214 H 118.934 3.85336 -4.4361 0
M  V30 1215 H 120.458 4.65205 -3.95495 0
M  V30 1216 H 121.872 2.67386 -5.07127 0
M  V30 1217 H 120.269 2.10397 -5.62008 0
M  V30 1218 H 121.339 0.992861 -4.74626 0
M  V30 1219 N 122.682 1.50554 0.465978 0
M  V30 1220 C 123.93 1.61479 1.21528 0
M  V30 1221 C 124.251 0.319596 1.92363 0
M  V30 1222 O 123.521 -0.663194 1.84333 0
M  V30 1223 H 122.101 0.595055 0.451573 0
M  V30 1224 H 124.763 1.87355 0.53704 0
M  V30 1225 H 123.859 2.42846 1.96042 0
M  V30 1226 N 124.16 -0.719506 1.40217 0
M  V30 1227 C 125.09 -1.8465 1.42922 0
M  V30 1228 C 126.071 -1.67599 0.29062 0
M  V30 1229 O 127.256 -1.87688 0.498677 0
M  V30 1230 C 124.386 -3.22565 1.28722 0
M  V30 1231 C 123.34 -3.54281 2.40144 0
M  V30 1232 C 122.666 -4.91298 2.11023 0
M  V30 1233 C 123.966 -3.55676 3.82481 0
M  V30 1234 H 125.66 -1.82644 2.37237 0
M  V30 1235 H 123.206 -0.877305 1.1419 0
M  V30 1236 H 125.159 -4.01095 1.29232 0
M  V30 1237 H 123.883 -3.25137 0.308811 0
M  V30 1238 H 122.542 -2.78088 2.38877 0
M  V30 1239 H 122.19 -4.90468 1.11582 0
M  V30 1240 H 121.89 -5.13485 2.8567 0
M  V30 1241 H 123.414 -5.72166 2.13209 0
M  V30 1242 H 124.828 -4.24254 3.85592 0
M  V30 1243 H 123.225 -3.89388 4.56614 0
M  V30 1244 H 124.295 -2.55144 4.12346 0
M  V30 1245 N 125.638 -1.25649 -0.95132 0
M  V30 1246 C 126.886 -1.10375 -1.69298 0
M  V30 1247 C 127.207 0.355339 -1.91735 0
M  V30 1248 O 126.477 1.25188 -1.50681 0
M  V30 1249 H 125.057 -0.405461 -0.627384 0
M  V30 1250 H 127.719 -1.57823 -1.14358 0
M  V30 1251 H 126.815 -1.61465 -2.67087 0
M  V30 1252 N 127.117 1.15442 -1.07289 0
M  V30 1253 C 128.08 2.18358 -0.696591 0
M  V30 1254 C 129.08 1.58637 0.262837 0
M  V30 1255 O 130.27 1.74145 0.0438809 0
M  V30 1256 C 127.402 3.4089 -0.0266151 0
M  V30 1257 H 128.595 2.53162 -1.60776 0
M  V30 1258 H 126.148 1.29893 -0.869342 0
M  V30 1259 H 126.883 3.11653 0.896822 0
M  V30 1260 H 126.668 3.85495 -0.716657 0
M  V30 1261 H 128.158 4.17009 0.222028 0
M  V30 1262 N 128.595 0.856903 1.32268 0
M  V30 1263 C 129.825 0.47475 2.01071 0
M  V30 1264 C 130.233 -0.933746 1.64553 0
M  V30 1265 O 129.576 -1.62114 0.863989 0
M  V30 1266 C 129.638 0.536746 3.55471 0
M  V30 1267 C 129.302 1.90453 4.15423 0
M  V30 1268 C 130.299 2.87029 4.33486 0
M  V30 1269 C 127.984 2.20229 4.51447 0
M  V30 1270 C 129.978 4.11532 4.86744 0
M  V30 1271 C 127.665 3.44984 5.0441 0
M  V30 1272 C 128.663 4.40452 5.22007 0
M  V30 1273 O 128.351 5.62998 5.73837 0
M  V30 1274 H 128.083 0.184778 0.650256 0
M  V30 1275 H 130.637 1.15615 1.69771 0
M  V30 1276 H 128.867 -0.20152 3.86175 0
M  V30 1277 H 130.556 0.169875 4.05544 0
M  V30 1278 H 131.322 2.6533 4.05986 0
M  V30 1279 H 127.201 1.46705 4.37034 0
M  V30 1280 H 130.745 4.86056 5.00395 0
M  V30 1281 H 126.642 3.66532 5.31342 0
M  V30 1282 H 127.41 5.64987 5.92226 0
M  V30 1283 N 130.073 -1.45103 0.615059 0
M  V30 1284 C 131.489 -1.57137 0.279322 0
M  V30 1285 C 131.689 -1.60523 -1.21797 0
M  V30 1286 O 130.745 -1.53956 -2.00134 0
M  V30 1287 C 132.058 -2.85062 0.957083 0
M  V30 1288 C 133.606 -2.98749 0.933706 0
M  V30 1289 C 134.081 -4.29455 1.59162 0
M  V30 1290 N 135.572 -4.36231 1.55746 0
M  V30 1291 C 136.307 -5.36051 2.0356 0
M  V30 1292 N 135.803 -6.42367 2.59494 0
M  V30 1293 N 137.596 -5.27456 1.94284 0
M  V30 1294 H 129.747 -1.41148 1.58717 0
M  V30 1295 H 132.01 -0.675331 0.665306 0
M  V30 1296 H 131.716 -2.88488 2.01166 0
M  V30 1297 H 131.59 -3.7407 0.48494 0
M  V30 1298 H 133.977 -2.94886 -0.112347 0
M  V30 1299 H 134.058 -2.11132 1.44419 0
M  V30 1300 H 133.702 -4.34077 2.63704 0
M  V30 1301 H 133.632 -5.15901 1.0561 0
M  V30 1302 H 136.123 -3.60011 1.14893 0
M  V30 1303 H 136.436 -7.14793 2.93752 0
M  V30 1304 H 134.781 -6.43097 2.63537 0
M  V30 1305 H 137.972 -4.43308 1.5032 0
M  V30 1306 H 138.145 -6.05099 2.3186 0
M  V30 1307 N 131.551 -0.354651 -1.53558 0
M  V30 1308 C 132.798 0.238443 -2.01091 0
M  V30 1309 C 133.126 1.49663 -1.24222 0
M  V30 1310 O 132.381 1.93049 -0.321003 0
M  V30 1311 C 132.68 0.587121 -3.52545 0
M  V30 1312 C 132.346 -0.575472 -4.47213 0
M  V30 1313 C 131.008 -0.894497 -4.72813 0
M  V30 1314 C 133.36 -1.35489 -5.03281 0
M  V30 1315 C 130.688 -1.99511 -5.51736 0
M  V30 1316 C 133.04 -2.44583 -5.83405 0
M  V30 1317 C 131.704 -2.77033 -6.07296 0
M  V30 1318 H 130.974 0.0872526 -0.735845 0
M  V30 1319 H 133.621 -0.484859 -1.8526 0
M  V30 1320 H 131.926 1.39129 -3.66265 0
M  V30 1321 H 133.623 1.05809 -3.86789 0
M  V30 1322 H 130.213 -0.316774 -4.27428 0
M  V30 1323 H 134.397 -1.12167 -4.83459 0
M  V30 1324 H 129.653 -2.25063 -5.68469 0
M  V30 1325 H 133.827 -3.05401 -6.25862 0
M  V30 1326 H 131.454 -3.6244 -6.68237 0
M  V30 1327 N 133.029 1.57378 -0.0835403 0
M  V30 1328 C 134.254 1.98682 0.594987 0
M  V30 1329 C 134.679 0.961969 1.61641 0
M  V30 1330 O 134.037 -0.0709989 1.81161 0
M  V30 1331 C 134.085 3.38988 1.2296 0
M  V30 1332 O 133.189 3.39208 2.34546 0
M  V30 1333 H 132.53 0.646368 0.152002 0
M  V30 1334 H 135.06 2.03961 -0.161533 0
M  V30 1335 H 135.07 3.76431 1.57366 0
M  V30 1336 H 133.745 4.13107 0.481228 0
M  V30 1337 H 132.322 3.13548 2.01846 0
M  V30 1338 N 134.507 -0.190092 1.56449 0
M  V30 1339 C 135.437 -1.23816 1.97969 0
M  V30 1340 C 136.418 -1.47201 0.852395 0
M  V30 1341 O 137.603 -1.58854 1.1171 0
M  V30 1342 C 134.733 -2.5813 2.3235 0
M  V30 1343 C 133.687 -2.49348 3.47864 0
M  V30 1344 C 133.013 -3.8798 3.67934 0
M  V30 1345 C 134.313 -2.01424 4.81898 0
M  V30 1346 H 136.007 -0.89311 2.85769 0
M  V30 1347 H 133.553 -0.428177 1.37487 0
M  V30 1348 H 135.506 -3.31637 2.59991 0
M  V30 1349 H 134.23 -2.94386 1.41438 0
M  V30 1350 H 132.889 -1.78297 3.20321 0
M  V30 1351 H 132.537 -4.21597 2.74344 0
M  V30 1352 H 132.237 -3.82978 4.45648 0
M  V30 1353 H 133.761 -4.63101 3.97957 0
M  V30 1354 H 135.175 -2.64693 5.08538 0
M  V30 1355 H 133.572 -2.07413 5.63116 0
M  V30 1356 H 134.642 -0.967677 4.75146 0
M  V30 1357 N 135.985 -1.50799 -0.457987 0
M  V30 1358 C 136.948 -1.7005 -1.53674 0
M  V30 1359 C 137.948 -0.570881 -1.50325 0
M  V30 1360 O 139.138 -0.838126 -1.52712 0
M  V30 1361 C 136.27 -1.73788 -2.93276 0
M  V30 1362 H 137.463 -2.66306 -1.37917 0
M  V30 1363 H 135.016 -1.40477 -0.685271 0
M  V30 1364 H 135.751 -0.792717 -3.14462 0
M  V30 1365 H 135.536 -2.55864 -2.97113 0
M  V30 1366 H 137.026 -1.90591 -3.71571 0
M  V30 1367 N 137.463 0.71206 -1.40597 0
M  V30 1368 C 138.709 1.47292 -1.40274 0
M  V30 1369 C 139.064 1.92399 -0.00576812 0
M  V30 1370 O 138.357 1.65507 0.965297 0
M  V30 1371 C 138.551 2.71039 -2.32965 0
M  V30 1372 C 138.38 2.38035 -3.81536 0
M  V30 1373 C 137.15 2.29203 -4.50327 0
M  V30 1374 C 139.348 2.02076 -4.72938 0
M  V30 1375 N 137.33 1.88911 -5.84111 0
M  V30 1376 C 138.701 1.72412 -5.95545 0
M  V30 1377 C 140.756 1.88742 -4.60739 0
M  V30 1378 C 139.459 1.30756 -7.07316 0
M  V30 1379 C 141.485 1.4849 -5.72455 0
M  V30 1380 C 140.847 1.19726 -6.94151 0
M  V30 1381 H 136.946 0.536919 -0.568544 0
M  V30 1382 H 139.53 0.825424 -1.76337 0
M  V30 1383 H 137.701 3.33533 -1.99023 0
M  V30 1384 H 139.433 3.37404 -2.23474 0
M  V30 1385 H 136.188 2.47059 -4.04053 0
M  V30 1386 H 136.612 1.71293 -6.54972 0
M  V30 1387 H 141.254 2.0964 -3.67166 0
M  V30 1388 H 138.972 1.08601 -8.00769 0
M  V30 1389 H 142.558 1.38747 -5.65014 0
M  V30 1390 H 141.438 0.890482 -7.79128 0
M  V30 1391 N 138.941 1.26152 0.944643 0
M  V30 1392 C 140.352 1.10454 1.50522 0
M  V30 1393 C 140.703 -0.31635 1.93633 0
M  V30 1394 O 139.828 -1.20746 1.79581 0
M  V30 1395 C 140.423 1.99891 2.73549 0
M  V30 1396 C 138.982 1.88348 3.25886 0
M  V30 1397 C 138.129 1.93447 1.9868 0
M  V30 1398 H 141.08 1.39292 0.760489 0
M  V30 1399 H 141.101 1.54477 3.47732 0
M  V30 1400 H 140.613 3.03297 2.42141 0
M  V30 1401 H 138.714 0.878636 3.62092 0
M  V30 1402 H 138.827 2.73696 3.93227 0
M  V30 1403 H 137.191 1.37456 2.14425 0
M  V30 1404 H 137.974 2.98476 1.69607 0
M  V30 1405 N 140.419 -1.14872 1.07899 0
M  V30 1406 C 141.835 -1.37776 0.805606 0
M  V30 1407 C 142.035 -1.92743 -0.587555 0
M  V30 1408 O 141.091 -2.13678 -1.34528 0
M  V30 1409 C 142.404 -2.34361 1.88402 0
M  V30 1410 C 143.952 -2.48012 1.90942 0
M  V30 1411 C 144.427 -3.47893 2.97883 0
M  V30 1412 N 145.918 -3.55433 2.97021 0
M  V30 1413 C 146.653 -4.32553 3.76412 0
M  V30 1414 N 146.149 -5.12959 4.65666 0
M  V30 1415 N 147.942 -4.27697 3.64735 0
M  V30 1416 H 140.093 -0.775365 1.97742 0
M  V30 1417 H 142.356 -0.403521 0.857831 0
M  V30 1418 H 142.062 -2.01098 2.88535 0
M  V30 1419 H 141.936 -3.34206 1.74889 0
M  V30 1420 H 144.323 -2.8057 0.914579 0
M  V30 1421 H 144.404 -1.48147 2.08534 0
M  V30 1422 H 144.048 -3.16069 3.97571 0
M  V30 1423 H 143.978 -4.47527 2.77538 0
M  V30 1424 H 146.469 -2.98048 2.32326 0
M  V30 1425 H 146.782 -5.69065 5.22862 0
M  V30 1426 H 145.127 -5.12245 4.69712 0
M  V30 1427 H 148.318 -3.63949 2.94378 0
M  V30 1428 H 148.491 -4.8755 4.26848 0
M  V30 1429 N 141.898 -0.863906 -1.31812 0
M  V30 1430 C 143.147 -0.46801 -1.96195 0
M  V30 1431 C 143.46 0.983474 -1.69077 0
M  V30 1432 O 144.666 1.48523 -2.27273 0
M  V30 1433 C 143.122 -0.785995 -3.51212 0
M  V30 1434 C 142.73 -2.25383 -3.87178 0
M  V30 1435 C 144.474 -0.458274 -4.22019 0
M  V30 1436 C 142.381 -2.51455 -5.3528 0
M  V30 1437 H 141.311 -0.171283 -0.734287 0
M  V30 1438 H 143.962 -1.05597 -1.50072 0
M  V30 1439 H 142.344 -0.127359 -3.95795 0
M  V30 1440 H 143.518 -2.95502 -3.53575 0
M  V30 1441 H 141.833 -2.54698 -3.2942 0
M  V30 1442 H 144.43 -0.630369 -5.30971 0
M  V30 1443 H 144.773 0.600834 -4.11941 0
M  V30 1444 H 145.306 -1.07319 -3.8305 0
M  V30 1445 H 142.045 -3.56025 -5.50387 0
M  V30 1446 H 141.565 -1.85923 -5.70257 0
M  V30 1447 H 143.244 -2.35874 -6.02472 0
M  V30 1448 N 143.376 1.44774 -0.622745 0
M  V30 1449 C 144.308 2.28856 0.125485 0
M  V30 1450 C 145.321 1.40811 0.817069 0
M  V30 1451 O 146.51 1.65044 0.679918 0
M  V30 1452 C 143.61 3.16963 1.19949 0
M  V30 1453 C 142.783 4.33374 0.592064 0
M  V30 1454 C 141.842 5.02577 1.55893 0
M  V30 1455 O 140.868 5.58873 1.07933 0
M  V30 1456 N 142.07 5.03256 2.89334 0
M  V30 1457 H 144.835 2.93713 -0.596068 0
M  V30 1458 H 142.396 1.55129 -0.463303 0
M  V30 1459 H 144.388 3.60123 1.84644 0
M  V30 1460 H 142.958 2.53913 1.82337 0
M  V30 1461 H 142.178 3.93509 -0.233322 0
M  V30 1462 H 143.466 5.08527 0.166738 0
M  V30 1463 H 142.864 4.58836 3.30887 0
M  V30 1464 H 141.421 5.50232 3.49412 0
M  V30 1465 N 144.854 0.36279 1.53368 0
M  V30 1466 C 146.265 -0.117022 1.86333 0
M  V30 1467 C 146.616 -1.48397 1.28347 0
M  V30 1468 O 145.741 -2.07787 0.604428 0
M  V30 1469 C 146.336 -0.21912 3.38091 0
M  V30 1470 C 144.895 -0.643184 3.70864 0
M  V30 1471 C 144.042 0.211318 2.76494 0
M  V30 1472 H 146.993 0.581687 1.47655 0
M  V30 1473 H 147.014 -1.04319 3.6592 0
M  V30 1474 H 146.526 0.775902 3.80265 0
M  V30 1475 H 144.627 -1.64654 3.34245 0
M  V30 1476 H 144.74 -0.41973 4.77258 0
M  V30 1477 H 143.104 -0.319367 2.5269 0
M  V30 1478 H 143.887 1.20383 3.21501 0
M  V30 1479 N 146.332 -1.57332 0.0918853 0
M  V30 1480 C 147.56 -1.98574 -0.581048 0
M  V30 1481 C 147.975 -0.970903 -1.61923 0
M  V30 1482 O 147.332 0.0399054 -1.82456 0
M  V30 1483 C 147.383 -3.39872 -1.23164 0
M  V30 1484 O 147.104 -4.37469 -0.234989 0
M  V30 1485 C 148.605 -3.96099 -1.99049 0
M  V30 1486 H 145.825 -0.65261 -0.156018 0
M  V30 1487 H 148.369 -2.0379 0.170225 0
M  V30 1488 H 146.524 -3.35679 -1.93386 0
M  V30 1489 H 146.938 -5.19751 -0.70418 0
M  V30 1490 H 148.412 -4.97127 -2.39934 0
M  V30 1491 H 148.889 -3.3374 -2.85507 0
M  V30 1492 H 149.495 -4.03755 -1.3365 0
M  V30 1493 N 147.81 0.181792 -1.56548 0
M  V30 1494 C 149.058 0.89832 -1.81038 0
M  V30 1495 C 149.379 1.83232 -0.667164 0
M  V30 1496 O 148.649 1.93372 0.313673 0
M  V30 1497 H 147.229 0.33471 -0.667816 0
M  V30 1498 H 149.891 0.184116 -1.94028 0
M  V30 1499 H 148.987 1.4815 -2.74696 0
M  V30 1500 N 149.288 1.51039 0.449983 0
M  V30 1501 C 150.704 1.38934 0.785462 0
M  V30 1502 C 150.904 0.461817 1.96136 0
M  V30 1503 O 149.96 -0.0877389 2.52348 0
M  V30 1504 C 151.273 2.80724 1.0777 0
M  V30 1505 C 152.821 2.89787 1.1829 0
M  V30 1506 C 153.296 4.32457 1.50815 0
M  V30 1507 N 154.787 4.35505 1.57764 0
M  V30 1508 C 155.522 5.42914 1.84477 0
M  V30 1509 N 155.018 6.60502 2.09068 0
M  V30 1510 N 156.811 5.3038 1.86155 0
M  V30 1511 H 148.962 2.09904 -0.324647 0
M  V30 1512 H 151.225 0.944378 -0.0827957 0
M  V30 1513 H 150.931 3.50531 0.286498 0
M  V30 1514 H 150.805 3.19273 2.00859 0
M  V30 1515 H 153.192 2.20186 1.96474 0
M  V30 1516 H 153.273 2.54752 0.231314 0
M  V30 1517 H 152.917 5.02603 0.731622 0
M  V30 1518 H 152.847 4.64995 2.47158 0
M  V30 1519 H 155.338 3.50724 1.40715 0
M  V30 1520 H 155.651 7.38158 2.28785 0
M  V30 1521 H 153.996 6.63639 2.06416 0
M  V30 1522 H 157.187 4.37505 1.66454 0
M  V30 1523 H 157.36 6.1417 2.06637 0
M  V30 1524 N 150.766 -0.704594 1.40972 0
M  V30 1525 C 152.014 -1.46169 1.39568 0
M  V30 1526 C 152.335 -1.95 0.00253745 0
M  V30 1527 O 151.605 -1.71095 -0.954114 0
M  V30 1528 H 150.185 -0.542326 0.513704 0
M  V30 1529 H 152.847 -0.834553 1.76128 0
M  V30 1530 H 151.943 -2.32922 2.07735 0
M  V30 1531 N 152.244 -1.26651 -0.937939 0
M  V30 1532 C 153.655 -1.1125 -1.49934 0
M  V30 1533 C 154.006 0.306077 -1.93798 0
M  V30 1534 O 153.131 1.19792 -1.80219 0
M  V30 1535 C 153.726 -2.01339 -2.72485 0
M  V30 1536 C 152.285 -1.90074 -3.24883 0
M  V30 1537 C 151.432 -1.94498 -1.97651 0
M  V30 1538 H 154.383 -1.39693 -0.753091 0
M  V30 1539 H 154.404 -1.56319 -3.46907 0
M  V30 1540 H 153.916 -3.04577 -2.40529 0
M  V30 1541 H 152.017 -0.897827 -3.61621 0
M  V30 1542 H 152.13 -2.75778 -3.9177 0
M  V30 1543 H 150.494 -1.38591 -2.13693 0
M  V30 1544 H 151.277 -2.99372 -1.68022 0
M  V30 1545 N 153.722 1.14298 -1.08507 0
M  V30 1546 C 154.685 2.17607 -0.719711 0
M  V30 1547 C 155.685 1.58907 0.245997 0
M  V30 1548 O 156.875 1.74181 0.0254081 0
M  V30 1549 C 154.007 3.40842 -0.0627695 0
M  V30 1550 H 155.2 2.51443 -1.63452 0
M  V30 1551 H 152.753 1.28963 -0.88307 0
M  V30 1552 H 153.488 3.12587 0.863716 0
M  V30 1553 H 153.273 3.84713 -0.757504 0
M  V30 1554 H 154.763 4.17221 0.177786 0
M  V30 1555 N 155.201 0.870884 1.31352 0
M  V30 1556 C 156.131 0.343096 2.30966 0
M  V30 1557 C 157.112 -0.566507 1.60389 0
M  V30 1558 O 158.297 -0.483336 1.88089 0
M  V30 1559 C 155.427 -0.455487 3.443 0
M  V30 1560 C 154.381 0.361103 4.26474 0
M  V30 1561 C 153.707 -0.563221 5.31725 0
M  V30 1562 C 155.007 1.59566 4.97329 0
M  V30 1563 H 156.701 1.17548 2.75359 0
M  V30 1564 H 154.247 0.566686 1.32381 0
M  V30 1565 H 156.2 -0.83525 4.13039 0
M  V30 1566 H 154.924 -1.32139 2.98675 0
M  V30 1567 H 153.583 0.722825 3.59403 0
M  V30 1568 H 153.231 -1.42643 4.82351 0
M  V30 1569 H 152.931 -0.0207409 5.87596 0
M  V30 1570 H 154.455 -0.939808 6.03324 0
M  V30 1571 H 155.869 1.28728 5.58661 0
M  V30 1572 H 154.266 2.07728 5.63 0
M  V30 1573 H 155.336 2.34798 4.24262 0
M  V30 1574 N 156.679 -1.44442 0.630414 0
M  V30 1575 C 157.611 -2.2892 -0.113347 0
M  V30 1576 C 158.624 -1.41243 -0.80959 0
M  V30 1577 O 159.813 -1.65402 -0.671156 0
M  V30 1578 C 156.913 -3.17594 -1.18266 0
M  V30 1579 C 156.086 -4.33682 -0.569073 0
M  V30 1580 C 155.145 -5.03397 -1.53226 0
M  V30 1581 O 154.171 -5.59438 -1.04967 0
M  V30 1582 N 155.373 -5.04783 -2.86661 0
M  V30 1583 H 158.138 -2.93392 0.611636 0
M  V30 1584 H 155.699 -1.54881 0.471523 0
M  V30 1585 H 157.691 -3.61097 -1.82732 0
M  V30 1586 H 156.261 -2.54876 -1.80988 0
M  V30 1587 H 155.481 -3.9338 0.254187 0
M  V30 1588 H 156.769 -5.08608 -0.139767 0
M  V30 1589 H 156.167 -4.60584 -3.28449 0
M  V30 1590 H 154.724 -5.52077 -3.46489 0
M  V30 1591 N 158.157 -0.370918 -1.53173 0
M  V30 1592 C 159.104 0.473035 -2.259 0
M  V30 1593 C 160.074 1.07311 -1.26781 0
M  V30 1594 O 161.259 1.1046 -1.55574 0
M  V30 1595 C 158.399 1.60405 -3.05556 0
M  V30 1596 C 157.512 1.02863 -4.19575 0
M  V30 1597 C 156.647 2.12918 -4.86661 0
M  V30 1598 C 155.686 1.52869 -5.92704 0
M  V30 1599 N 154.823 2.56779 -6.53459 0
M  V30 1600 H 159.663 -0.153649 -2.97604 0
M  V30 1601 H 157.2 -0.0875946 -1.46839 0
M  V30 1602 H 159.158 2.27034 -3.50016 0
M  V30 1603 H 157.788 2.20131 -2.36097 0
M  V30 1604 H 156.84 0.252465 -3.79561 0
M  V30 1605 H 158.152 0.549642 -4.95762 0
M  V30 1606 H 157.306 2.87356 -5.34333 0
M  V30 1607 H 156.045 2.6417 -4.09958 0
M  V30 1608 H 155.05 0.769479 -5.44389 0
M  V30 1609 H 156.275 1.02435 -6.7133 0
M  V30 1610 H 154.221 3.07235 -5.79606 0
M  V30 1611 H 154.138 2.13583 -7.25202 0
M  V30 1612 H 155.406 3.30903 -7.05779 0
M  V30 1613 N 159.635 1.57281 -0.100228 0
M  V30 1614 C 160.883 1.94153 0.561157 0
M  V30 1615 C 161.204 0.983157 1.68401 0
M  V30 1616 O 160.474 0.0361132 1.95867 0
M  V30 1617 H 159.054 0.716791 0.210283 0
M  V30 1618 H 161.716 1.94202 -0.164765 0
M  V30 1619 H 160.812 2.96709 0.968008 0
M  V30 1620 N 161.113 -0.173488 1.56642 0
M  V30 1621 C 162.043 -1.2171 1.99271 0
M  V30 1622 C 163.024 -1.46289 0.867959 0
M  V30 1623 O 164.209 -1.5766 1.13388 0
M  V30 1624 C 161.339 -2.55651 2.35074 0
M  V30 1625 C 160.293 -2.45645 3.50489 0
M  V30 1626 C 159.619 -3.84056 3.72028 0
M  V30 1627 C 160.919 -1.96302 4.84007 0
M  V30 1628 H 162.613 -0.86275 2.867 0
M  V30 1629 H 160.159 -0.413571 1.37933 0
M  V30 1630 H 162.112 -3.2886 2.63494 0
M  V30 1631 H 160.836 -2.92869 1.44552 0
M  V30 1632 H 159.495 -1.7489 3.22194 0
M  V30 1633 H 159.143 -4.18664 2.788 0
M  V30 1634 H 158.843 -3.7823 4.49684 0
M  V30 1635 H 160.367 -4.58854 4.02846 0
M  V30 1636 H 161.781 -2.59284 5.11317 0
M  V30 1637 H 160.178 -2.01429 5.65284 0
M  V30 1638 H 161.248 -0.917226 4.76146 0
M  V30 1639 N 162.591 -1.51276 -0.441967 0
M  V30 1640 C 163.868 -1.54252 -1.20273 0
M  V30 1641 C 164.248 -0.30408 -2.08898 0
M  V30 1642 O 163.596 0.711084 -2.17154 0
M  V30 1643 C 163.806 -2.85406 -2.00859 0
M  V30 1644 C 165.154 -3.37181 -2.58059 0
M  V30 1645 O 166.178 -2.86925 -2.11074 0
M  V30 1646 O 165.037 -4.24858 -3.43741 0
M  V30 1647 H 162.131 -0.619969 -0.547328 0
M  V30 1648 H 164.677 -1.63586 -0.451413 0
M  V30 1649 H 163.449 -3.67003 -1.35736 0
M  V30 1650 H 163.072 -2.79213 -2.83065 0
M  V30 1651 N 164.069 0.697108 -1.41344 0
M  V30 1652 C 165.316 1.45714 -1.40619 0
M  V30 1653 C 165.644 1.94494 -0.0147907 0
M  V30 1654 O 164.899 1.69794 0.973066 0
M  V30 1655 C 165.198 2.68553 -2.35826 0
M  V30 1656 C 164.864 2.38438 -3.82698 0
M  V30 1657 C 163.526 2.29936 -4.22709 0
M  V30 1658 C 165.878 2.13567 -4.75435 0
M  V30 1659 C 163.206 1.94656 -5.53467 0
M  V30 1660 C 165.558 1.79797 -6.06511 0
M  V30 1661 C 164.222 1.69789 -6.45545 0
M  V30 1662 H 163.492 0.533206 -0.51456 0
M  V30 1663 H 166.139 0.796901 -1.74131 0
M  V30 1664 H 164.444 3.39503 -1.95563 0
M  V30 1665 H 166.141 3.2669 -2.32539 0
M  V30 1666 H 162.731 2.4595 -3.51008 0
M  V30 1667 H 166.915 2.19082 -4.45328 0
M  V30 1668 H 162.171 1.8546 -5.82593 0
M  V30 1669 H 166.345 1.59572 -6.77872 0
M  V30 1670 H 163.972 1.4222 -7.46778 0
M  V30 1671 N 165.547 1.27147 0.931209 0
M  V30 1672 C 166.777 1.15914 1.71019 0
M  V30 1673 C 167.185 -0.287112 1.87009 0
M  V30 1674 O 166.528 -1.20761 1.38429 0
M  V30 1675 C 166.59 1.76647 3.13107 0
M  V30 1676 C 166.254 3.25807 3.20467 0
M  V30 1677 C 167.251 4.22489 3.02983 0
M  V30 1678 C 164.936 3.66452 3.43538 0
M  V30 1679 C 166.93 5.57794 3.08454 0
M  V30 1680 C 164.617 5.01888 3.48643 0
M  V30 1681 C 165.615 5.97369 3.31119 0
M  V30 1682 O 165.303 7.30337 3.35952 0
M  V30 1683 H 165.035 0.404062 0.54195 0
M  V30 1684 H 167.589 1.68457 1.17521 0
M  V30 1685 H 165.819 1.18578 3.68071 0
M  V30 1686 H 167.508 1.60179 3.72958 0
M  V30 1687 H 168.274 3.92425 2.85004 0
M  V30 1688 H 164.153 2.92611 3.5623 0
M  V30 1689 H 167.697 6.32298 2.94694 0
M  V30 1690 H 163.594 5.31609 3.66145 0
M  V30 1691 H 164.362 7.38739 3.5243 0
M  V30 1692 N 167.025 -1.13721 1.09112 0
M  V30 1693 C 168.441 -1.36914 0.820174 0
M  V30 1694 C 168.641 -1.93356 -0.567079 0
M  V30 1695 O 167.697 -2.15093 -1.32255 0
M  V30 1696 C 169.01 -2.3235 1.90877 0
M  V30 1697 C 170.558 -2.45973 1.93562 0
M  V30 1698 C 171.033 -3.44714 3.01556 0
M  V30 1699 N 172.524 -3.52263 3.00775 0
M  V30 1700 C 173.259 -4.28536 3.80978 0
M  V30 1701 N 172.755 -5.07991 4.71081 0
M  V30 1702 N 174.548 -4.23804 3.69251 0
M  V30 1703 H 166.699 -0.754348 1.98553 0
M  V30 1704 H 168.962 -0.3944 0.862063 0
M  V30 1705 H 168.668 -1.98027 2.90651 0
M  V30 1706 H 168.542 -3.32332 1.78424 0
M  V30 1707 H 170.929 -2.79584 0.944286 0
M  V30 1708 H 171.01 -1.45926 2.10093 0
M  V30 1709 H 170.654 -3.11835 4.00901 0
M  V30 1710 H 170.584 -4.44558 2.82269 0
M  V30 1711 H 173.075 -2.95567 2.35475 0
M  V30 1712 H 173.388 -5.63487 5.28869 0
M  V30 1713 H 171.733 -5.07235 4.75119 0
M  V30 1714 H 174.924 -3.60806 2.98222 0
M  V30 1715 H 175.097 -4.82995 4.31995 0
M  V30 1716 N 168.503 -0.877838 -1.30888 0
M  V30 1717 C 169.919 -0.570844 -1.49042 0
M  V30 1718 C 170.119 0.893159 -1.80624 0
M  V30 1719 O 169.175 1.67485 -1.88958 0
M  V30 1720 C 170.488 -1.47784 -2.61878 0
M  V30 1721 C 172.036 -1.48071 -2.75761 0
M  V30 1722 C 172.511 -2.37347 -3.91702 0
M  V30 1723 N 174.002 -2.35271 -3.99001 0
M  V30 1724 C 174.737 -3.01063 -4.88004 0
M  V30 1725 N 174.233 -3.76055 -5.81854 0
M  V30 1726 N 176.026 -2.90332 -4.81315 0
M  V30 1727 H 168.177 -1.82502 -1.0866 0
M  V30 1728 H 170.44 -0.780797 -0.537644 0
M  V30 1729 H 170.146 -2.51993 -2.45341 0
M  V30 1730 H 170.02 -1.18215 -3.58197 0
M  V30 1731 H 172.407 -0.446166 -2.91708 0
M  V30 1732 H 172.488 -1.81668 -1.80085 0
M  V30 1733 H 172.132 -3.40883 -3.76512 0
M  V30 1734 H 172.062 -2.01071 -4.86701 0
M  V30 1735 H 174.553 -1.80768 -3.3186 0
M  V30 1736 H 174.866 -4.23366 -6.46514 0
M  V30 1737 H 173.211 -3.80163 -5.81808 0
M  V30 1738 H 176.402 -2.31278 -4.06974 0
M  V30 1739 H 176.575 -3.41885 -5.50471 0
M  V30 1740 N 169.982 1.44106 -0.638065 0
M  V30 1741 C 170.912 2.33448 0.0494287 0
M  V30 1742 C 171.893 1.48606 0.827672 0
M  V30 1743 O 173.078 1.77308 0.792173 0
M  V30 1744 C 170.208 3.31771 1.02691 0
M  V30 1745 C 169.162 4.26485 0.359823 0
M  V30 1746 C 168.488 5.14729 1.44769 0
M  V30 1747 C 169.788 5.17056 -0.738296 0
M  V30 1748 H 171.482 2.91183 -0.696636 0
M  V30 1749 H 169.028 1.40014 -0.336456 0
M  V30 1750 H 170.981 3.93161 1.51666 0
M  V30 1751 H 169.705 2.7226 1.80395 0
M  V30 1752 H 168.364 3.66437 -0.10934 0
M  V30 1753 H 168.012 4.51566 2.21578 0
M  V30 1754 H 167.712 5.78913 1.00668 0
M  V30 1755 H 169.236 5.78991 1.93911 0
M  V30 1756 H 170.65 5.72342 -0.331354 0
M  V30 1757 H 169.047 5.89879 -1.10286 0
M  V30 1758 H 170.117 4.57652 -1.60258 0
M  V30 1759 N 171.46 0.379036 1.52974 0
M  V30 1760 C 172.423 -0.448865 2.24762 0
M  V30 1761 C 173.423 -0.998689 1.26027 0
M  V30 1762 O 174.613 -0.882313 1.50203 0
M  V30 1763 C 171.745 -1.62872 2.99476 0
M  V30 1764 H 172.938 0.179491 2.99362 0
M  V30 1765 H 170.491 0.13096 1.5575 0
M  V30 1766 H 171.226 -2.29479 2.29151 0
M  V30 1767 H 171.011 -1.24128 3.71934 0
M  V30 1768 H 172.501 -2.2151 3.5401 0
M  V30 1769 N 172.938 -1.57226 0.108567 0
M  V30 1770 C 174.215 -1.86333 -0.594939 0
M  V30 1771 C 174.595 -1.00788 -1.85486 0
M  V30 1772 O 173.943 -0.0839293 -2.28346 0
M  V30 1773 C 174.153 -3.37265 -0.897405 0
M  V30 1774 C 175.501 -4.05629 -1.25501 0
M  V30 1775 O 176.525 -3.42224 -0.987998 0
M  V30 1776 O 175.384 -5.17531 -1.75567 0
M  V30 1777 H 172.478 -0.771018 -0.2991 0
M  V30 1778 H 175.024 -1.69102 0.142283 0
M  V30 1779 H 173.796 -3.913 -0.00413806 0
M  V30 1780 H 173.419 -3.59889 -1.69014 0
M  V30 1781 N 174.416 0.165178 -1.56732 0
M  V30 1782 C 175.326 1.22423 -2.00125 0
M  V30 1783 C 176.342 1.48084 -0.913619 0
M  V30 1784 O 177.518 1.60112 -1.22172 0
M  V30 1785 C 174.583 2.54197 -2.35764 0
M  V30 1786 C 173.644 2.36343 -3.58386 0
M  V30 1787 C 172.877 3.61834 -3.92316 0
M  V30 1788 O 173.1 4.67267 -3.27135 0
M  V30 1789 O 172.034 3.55579 -4.85641 0
M  V30 1790 H 175.86 0.885886 -2.90492 0
M  V30 1791 H 173.445 0.372518 -1.44681 0
M  V30 1792 H 175.327 3.3192 -2.59629 0
M  V30 1793 H 174.002 2.87598 -1.48557 0
M  V30 1794 H 172.909 1.56632 -3.39731 0
M  V30 1795 H 174.242 2.07865 -4.46154 0
M  V30 1796 N 175.894 1.51508 0.433938 0
M  V30 1797 C 176.824 1.76016 1.53429 0
M  V30 1798 C 177.805 0.610112 1.58782 0
M  V30 1799 O 178.99 0.853177 1.74455 0
M  V30 1800 C 176.12 1.88831 2.9148 0
M  V30 1801 C 175.074 3.04288 3.00987 0
M  V30 1802 C 174.4 3.0229 4.4105 0
M  V30 1803 C 175.7 4.44193 2.74754 0
M  V30 1804 H 177.394 2.68152 1.33171 0
M  V30 1805 H 174.94 1.29035 0.639214 0
M  V30 1806 H 176.893 2.04559 3.6842 0
M  V30 1807 H 175.617 0.933455 3.12976 0
M  V30 1808 H 174.276 2.8827 2.26486 0
M  V30 1809 H 173.924 2.04576 4.59519 0
M  V30 1810 H 173.624 3.79822 4.4834 0
M  V30 1811 H 175.148 3.20116 5.1996 0
M  V30 1812 H 176.562 4.60544 3.41426 0
M  V30 1813 H 174.959 5.23457 2.9345 0
M  V30 1814 H 176.029 4.53996 1.70339 0
M  V30 1815 N 177.372 -0.689602 1.41712 0
M  V30 1816 C 178.302 -1.81577 1.46806 0
M  V30 1817 C 179.283 -1.66945 0.326105 0
M  V30 1818 O 180.468 -1.86588 0.538377 0
M  V30 1819 C 177.598 -3.19762 1.35535 0
M  V30 1820 C 176.552 -3.49107 2.47605 0
M  V30 1821 C 175.878 -4.86711 2.21397 0
M  V30 1822 C 177.178 -3.47483 3.89939 0
M  V30 1823 H 178.872 -1.7757 2.41058 0
M  V30 1824 H 176.418 -0.852887 1.16025 0
M  V30 1825 H 178.371 -3.98263 1.3771 0
M  V30 1826 H 177.095 -3.24409 0.377708 0
M  V30 1827 H 175.754 -2.72959 2.44722 0
M  V30 1828 H 175.402 -4.8799 1.21961 0
M  V30 1829 H 175.102 -5.0731 2.96497 0
M  V30 1830 H 176.626 -5.67515 2.25297 0
M  V30 1831 H 178.04 -4.1598 3.94505 0
M  V30 1832 H 176.437 -3.79615 4.64771 0
M  V30 1833 H 177.507 -2.46341 4.17665 0
M  V30 1834 N 178.85 -1.27639 -0.924453 0
M  V30 1835 C 179.813 -1.10681 -2.00705 0
M  V30 1836 C 180.813 -0.0497823 -1.60723 0
M  V30 1837 O 182.003 -0.294654 -1.7169 0
M  V30 1838 C 179.135 -0.687164 -3.33902 0
M  V30 1839 H 180.328 -2.06817 -2.17179 0
M  V30 1840 H 177.881 -1.10473 -1.10569 0
M  V30 1841 H 178.616 0.275439 -3.23128 0
M  V30 1842 H 178.401 -1.45061 -3.6428 0
M  V30 1843 H 179.891 -0.590853 -4.13399 0
M  V30 1844 N 180.328 1.1314 -1.09713 0
M  V30 1845 C 181.275 2.18642 -0.739196 0
M  V30 1846 C 182.245 1.63706 0.280978 0
M  V30 1847 O 183.43 1.90111 0.161946 0
M  V30 1848 C 180.57 3.44685 -0.169102 0
M  V30 1849 C 179.683 4.13711 -1.24367 0
M  V30 1850 C 178.818 5.27379 -0.636019 0
M  V30 1851 C 177.857 5.88259 -1.69169 0
M  V30 1852 N 176.994 6.93352 -1.10485 0
M  V30 1853 H 181.834 2.48607 -1.64312 0
M  V30 1854 H 179.371 1.22066 -0.820875 0
M  V30 1855 H 181.329 4.16815 0.179256 0
M  V30 1856 H 179.959 3.15161 0.698079 0
M  V30 1857 H 179.011 3.39835 -1.70927 0
M  V30 1858 H 180.323 4.55037 -2.04311 0
M  V30 1859 H 179.477 6.06238 -0.236677 0
M  V30 1860 H 178.216 4.8731 0.194928 0
M  V30 1861 H 177.221 5.08092 -2.10055 0
M  V30 1862 H 178.446 6.30399 -2.52536 0
M  V30 1863 H 176.392 6.55335 -0.295234 0
M  V30 1864 H 176.309 7.33236 -1.84121 0
M  V30 1865 H 177.577 7.76057 -0.73181 0
M  V30 1866 N 181.806 0.884767 1.30421 0
M  V30 1867 C 183.054 0.502112 1.95763 0
M  V30 1868 C 183.375 -0.951815 1.70192 0
M  V30 1869 O 182.645 -1.6692 1.0254 0
M  V30 1870 H 181.225 0.182694 0.724315 0
M  V30 1871 H 183.887 1.1278 1.58955 0
M  V30 1872 H 182.983 0.672188 3.04775 0
M  V30 1873 N 183.284 -1.43765 0.645699 0
M  V30 1874 C 184.533 -2.01116 0.153412 0
M  V30 1875 C 184.846 -1.51493 -1.23731 0
M  V30 1876 O 186.052 -2.01067 -1.8244 0
M  V30 1877 C 184.508 -3.59206 0.223473 0
M  V30 1878 C 184.116 -4.17823 1.61642 0
M  V30 1879 C 185.86 -4.23972 -0.211597 0
M  V30 1880 C 183.767 -5.68183 1.64081 0
M  V30 1881 H 182.697 -0.752093 0.0535891 0
M  V30 1882 H 185.348 -1.6482 0.806633 0
M  V30 1883 H 183.73 -3.92867 -0.497118 0
M  V30 1884 H 184.904 -3.95674 2.36176 0
M  V30 1885 H 183.219 -3.65399 1.99681 0
M  V30 1886 H 185.816 -5.34275 -0.213112 0
M  V30 1887 H 186.159 -3.97352 -1.24165 0
M  V30 1888 H 186.692 -3.95166 0.456988 0
M  V30 1889 H 183.431 -5.99559 2.64971 0
M  V30 1890 H 182.951 -5.9241 0.938611 0
M  V30 1891 H 184.63 -6.32085 1.3812 0
M  V30 1892 N 184.763 -0.387143 -1.52771 0
M  V30 1893 C 185.695 0.484089 -2.2403 0
M  V30 1894 C 186.708 1.02849 -1.26198 0
M  V30 1895 O 187.897 0.931186 -1.52286 0
M  V30 1896 C 184.997 1.68337 -2.94136 0
M  V30 1897 C 184.17 1.26672 -4.18656 0
M  V30 1898 C 183.229 2.33045 -4.7178 0
M  V30 1899 O 182.255 1.94541 -5.34923 0
M  V30 1900 N 183.457 3.64929 -4.5145 0
M  V30 1901 H 186.222 -0.126404 -2.99433 0
M  V30 1902 H 183.783 -0.213392 -1.60488 0
M  V30 1903 H 185.775 2.39019 -3.26577 0
M  V30 1904 H 184.345 2.20025 -2.22053 0
M  V30 1905 H 183.565 0.388878 -3.92277 0
M  V30 1906 H 184.853 0.964964 -4.99566 0
M  V30 1907 H 184.251 3.98974 -4.01044 0
M  V30 1908 H 182.808 4.31651 -4.88386 0
M  V30 1909 N 186.241 1.57166 -0.116904 0
M  V30 1910 C 187.652 1.82169 0.408809 0
M  V30 1911 C 188.003 1.03393 1.66746 0
M  V30 1912 O 187.128 0.269886 2.1471 0
M  V30 1913 C 187.723 3.30429 0.748466 0
M  V30 1914 C 186.282 3.5612 1.21882 0
M  V30 1915 C 185.429 2.76374 0.226452 0
M  V30 1916 H 188.38 1.5497 -0.342063 0
M  V30 1917 H 188.401 3.44943 1.60607 0
M  V30 1918 H 187.913 3.87737 -0.167784 0
M  V30 1919 H 186.014 3.04168 2.15204 0
M  V30 1920 H 186.127 4.64705 1.16559 0
M  V30 1921 H 184.491 2.44515 0.713063 0
M  V30 1922 H 185.274 3.3644 -0.682859 0
M  V30 1923 N 187.719 -0.156864 1.56817 0
M  V30 1924 C 188.965 -0.872416 1.83076 0
M  V30 1925 C 189.298 -1.81261 0.697001 0
M  V30 1926 O 188.573 -1.92171 -0.30008 0
M  V30 1927 C 188.856 -1.65551 3.19789 0
M  V30 1928 C 188.709 -0.737467 4.43713 0
M  V30 1929 C 190.028 -2.62012 3.53606 0
M  V30 1930 H 187.147 -0.315715 0.665953 0
M  V30 1931 H 189.789 -0.138004 1.89498 0
M  V30 1932 H 187.939 -2.28159 3.14445 0
M  V30 1933 H 189.611 -0.123143 4.61136 0
M  V30 1934 H 187.854 -0.0464067 4.33775 0
M  V30 1935 H 188.525 -1.32122 5.35955 0
M  V30 1936 H 191.001 -2.09525 3.59497 0
M  V30 1937 H 189.877 -3.13861 4.50314 0
M  V30 1938 H 190.138 -3.42902 2.79053 0
M  V30 1939 N 189.197 -1.51736 -0.425897 0
M  V30 1940 C 190.16 -1.73271 -1.50032 0
M  V30 1941 C 191.16 -0.602639 -1.4908 0
M  V30 1942 O 192.35 -0.87033 -1.509 0
M  V30 1943 C 189.482 -1.79969 -2.89523 0
M  V30 1944 H 190.675 -2.69172 -1.32237 0
M  V30 1945 H 188.228 -1.41899 -0.65532 0
M  V30 1946 H 188.963 -0.859241 -3.1271 0
M  V30 1947 H 188.748 -2.62109 -2.91619 0
M  V30 1948 H 190.238 -1.9843 -3.67444 0
M  V30 1949 N 190.675 0.682077 -1.42076 0
M  V30 1950 C 191.903 1.47057 -1.4554 0
M  V30 1951 C 192.318 1.8869 -0.0645779 0
M  V30 1952 O 191.675 1.57666 0.919115 0
M  V30 1953 C 191.726 2.72442 -2.37609 0
M  V30 1954 O 191.447 2.32559 -3.71279 0
M  V30 1955 C 192.948 3.66069 -2.50017 0
M  V30 1956 H 190.168 0.452737 -0.495248 0
M  V30 1957 H 192.712 0.838695 -1.8651 0
M  V30 1958 H 190.867 3.31835 -1.9991 0
M  V30 1959 H 191.281 3.13475 -4.20516 0
M  V30 1960 H 192.755 4.50792 -3.18576 0
M  V30 1961 H 193.232 4.11476 -1.53572 0
M  V30 1962 H 193.838 3.12572 -2.88407 0
M  V30 1963 N 192.153 1.28127 0.917671 0
M  V30 1964 C 193.083 1.14248 2.03641 0
M  V30 1965 C 194.064 0.0412748 1.7005 0
M  V30 1966 O 195.249 0.217566 1.92977 0
M  V30 1967 C 192.379 0.799431 3.37974 0
M  V30 1968 C 191.333 1.85497 3.85713 0
M  V30 1969 C 190.659 1.36565 5.16966 0
M  V30 1970 C 191.959 3.26085 4.08002 0
M  V30 1971 H 193.653 2.07835 2.15511 0
M  V30 1972 H 191.199 1.00064 1.03553 0
M  V30 1973 H 193.152 0.689114 4.15727 0
M  V30 1974 H 191.876 -0.172145 3.26146 0
M  V30 1975 H 190.535 1.95437 3.10161 0
M  V30 1976 H 190.183 0.383253 5.01538 0
M  V30 1977 H 189.883 2.07143 5.49878 0
M  V30 1978 H 191.407 1.26848 5.97279 0
M  V30 1979 H 192.821 3.19089 4.76293 0
M  V30 1980 H 191.218 3.94462 4.52238 0
M  V30 1981 H 192.288 3.70394 3.12948 0
M  V30 1982 N 193.631 -1.12557 1.10312 0
M  V30 1983 C 194.861 -1.87592 0.865617 0
M  V30 1984 C 195.269 -1.79851 -0.587389 0
M  V30 1985 O 194.612 -1.16949 -1.41664 0
M  V30 1986 C 194.674 -3.37665 1.23381 0
M  V30 1987 C 194.338 -3.69181 2.69359 0
M  V30 1988 C 195.335 -3.67652 3.67597 0
M  V30 1989 C 193.02 -3.98555 3.05711 0
M  V30 1990 C 195.014 -3.95053 5.00212 0
M  V30 1991 C 192.701 -4.25616 4.38514 0
M  V30 1992 C 193.699 -4.23851 5.35574 0
M  V30 1993 O 193.387 -4.50242 6.65986 0
M  V30 1994 H 193.119 -0.600442 0.310557 0
M  V30 1995 H 195.673 -1.4335 1.47105 0
M  V30 1996 H 193.903 -3.82454 0.571467 0
M  V30 1997 H 195.592 -3.94041 0.973994 0
M  V30 1998 H 196.358 -3.45024 3.40857 0
M  V30 1999 H 192.237 -3.99071 2.30789 0
M  V30 2000 H 195.781 -3.93591 5.75962 0
M  V30 2001 H 191.678 -4.47718 4.64994 0
M  V30 2002 H 192.446 -4.67867 6.71597 0
M  V30 2003 N 195.109 -0.891671 -1.2995 0
M  V30 2004 C 196.059 -0.334811 -2.25528 0
M  V30 2005 C 197.043 0.540553 -1.51548 0
M  V30 2006 O 198.235 0.383882 -1.72787 0
M  V30 2007 C 195.364 0.44374 -3.4042 0
M  V30 2008 C 194.45 -0.44609 -4.21747 0
M  V30 2009 N 194.841 -1.54963 -4.81477 0
M  V30 2010 C 193.139 -0.242415 -4.45341 0
M  V30 2011 C 193.84 -2.10015 -5.42465 0
M  V30 2012 N 192.816 -1.39423 -5.25416 0
M  V30 2013 H 196.618 -1.17792 -2.69262 0
M  V30 2014 H 194.132 -0.741822 -1.44467 0
M  V30 2015 H 196.129 0.859362 -4.07947 0
M  V30 2016 H 194.789 1.28421 -2.98225 0
M  V30 2017 H 195.8 -1.93244 -4.80497 0
M  V30 2018 H 192.477 0.560342 -4.13723 0
M  V30 2019 H 193.867 -3.02724 -5.9984 0
M  V30 2020 N 196.587 1.43421 -0.653314 0
M  V30 2021 C 197.833 2.02641 -0.175593 0
M  V30 2022 C 198.188 1.5062 1.19713 0
M  V30 2023 O 197.481 0.689697 1.78756 0
M  V30 2024 C 197.675 3.57176 -0.126623 0
M  V30 2025 C 197.504 4.24191 -1.49306 0
M  V30 2026 C 196.274 4.60257 -2.08547 0
M  V30 2027 C 198.472 4.53193 -2.43148 0
M  V30 2028 N 196.454 5.12345 -3.38194 0
M  V30 2029 C 197.825 5.06601 -3.57429 0
M  V30 2030 C 199.88 4.35161 -2.41949 0
M  V30 2031 C 198.583 5.43875 -4.70736 0
M  V30 2032 C 200.609 4.73498 -3.54336 0
M  V30 2033 C 199.971 5.27039 -4.67343 0
M  V30 2034 H 196.07 0.77441 -0.108686 0
M  V30 2035 H 198.654 1.74596 -0.861638 0
M  V30 2036 H 196.825 3.84784 0.528766 0
M  V30 2037 H 198.557 4.03078 0.36198 0
M  V30 2038 H 195.312 4.45302 -1.61255 0
M  V30 2039 H 195.736 5.42842 -4.04538 0
M  V30 2040 H 200.378 3.9304 -1.55818 0
M  V30 2041 H 198.096 5.8494 -5.57558 0
M  V30 2042 H 201.682 4.61241 -3.5461 0
M  V30 2043 H 200.562 5.56153 -5.52868 0
M  V30 2044 N 198.065 0.39524 1.52563 0
M  V30 2045 C 199.342 -0.242908 1.94086 0
M  V30 2046 C 199.722 -1.63841 1.33114 0
M  V30 2047 O 199.07 -2.22928 0.501529 0
M  V30 2048 C 199.28 -0.26327 3.48006 0
M  V30 2049 C 200.628 -0.489354 4.21771 0
M  V30 2050 O 201.652 -0.343226 3.54543 0
M  V30 2051 O 200.511 -0.776169 5.4096 0
M  V30 2052 H 197.605 -0.152536 0.812811 0
M  V30 2053 H 200.151 0.450178 1.6362 0
M  V30 2054 H 198.923 0.713985 3.84731 0
M  V30 2055 H 198.546 -1.00103 3.84792 0
M  V30 2056 N 199.544 -1.57102 0.125237 0
M  V30 2057 C 200.474 -2.18659 -0.819174 0
M  V30 2058 C 201.455 -1.12843 -1.27281 0
M  V30 2059 O 202.64 -1.41104 -1.33429 0
M  V30 2060 C 199.77 -2.79096 -2.06695 0
M  V30 2061 C 198.724 -3.90548 -1.75088 0
M  V30 2062 C 198.05 -4.37821 -3.06948 0
M  V30 2063 C 199.35 -5.12356 -1.01435 0
M  V30 2064 H 201.044 -2.9783 -0.306202 0
M  V30 2065 H 198.59 -1.4326 -0.145839 0
M  V30 2066 H 200.543 -3.2082 -2.73226 0
M  V30 2067 H 199.267 -1.97223 -2.60328 0
M  V30 2068 H 197.926 -3.49409 -1.10944 0
M  V30 2069 H 197.574 -3.52799 -3.58527 0
M  V30 2070 H 197.274 -5.12982 -2.86571 0
M  V30 2071 H 198.798 -4.822 -3.74587 0
M  V30 2072 H 200.212 -5.5106 -1.58132 0
M  V30 2073 H 198.609 -5.9314 -0.911319 0
M  V30 2074 H 199.679 -4.849 -0.00218681 0
M  V30 2075 N 201.022 0.148545 -1.56898 0
M  V30 2076 C 202.433 0.708766 -1.72723 0
M  V30 2077 C 202.784 1.81734 -0.739395 0
M  V30 2078 O 201.909 2.16194 0.0943169 0
M  V30 2079 C 202.504 1.29245 -3.13179 0
M  V30 2080 C 201.063 1.79925 -3.30611 0
M  V30 2081 C 200.21 0.687111 -2.68652 0
M  V30 2082 H 203.161 -0.0771063 -1.58513 0
M  V30 2083 H 203.182 2.16224 -3.13093 0
M  V30 2084 H 202.694 0.485382 -3.85053 0
M  V30 2085 H 200.795 2.63203 -2.63732 0
M  V30 2086 H 200.908 1.92903 -4.38549 0
M  V30 2087 H 199.272 1.11335 -2.29078 0
M  V30 2088 H 200.055 -0.108483 -3.43129 0
M  V30 2089 N 202.5 1.5196 0.417844 0
M  V30 2090 C 203.432 1.70895 1.52733 0
M  V30 2091 C 204.445 0.589405 1.51756 0
M  V30 2092 O 205.634 0.864312 1.56179 0
M  V30 2093 C 202.734 1.72627 2.91639 0
M  V30 2094 C 201.907 3.01479 3.16905 0
M  V30 2095 C 200.966 2.95139 4.35637 0
M  V30 2096 O 199.992 3.69059 4.3334 0
M  V30 2097 N 201.194 2.12328 5.40275 0
M  V30 2098 H 203.959 2.66612 1.36888 0
M  V30 2099 H 201.52 1.50089 0.607037 0
M  V30 2100 H 203.512 1.65928 3.6912 0
M  V30 2101 H 202.082 0.844216 3.00985 0
M  V30 2102 H 201.302 3.21895 2.27546 0
M  V30 2103 H 202.59 3.86736 3.30625 0
M  V30 2104 H 201.988 1.51685 5.44985 0
M  V30 2105 H 200.545 2.11494 6.16534 0
M  V30 2106 N 203.978 -0.674533 1.42435 0
M  V30 2107 C 204.888 -1.81751 1.48337 0
M  V30 2108 C 205.904 -1.69975 0.372099 0
M  V30 2109 O 207.08 -1.91521 0.62304 0
M  V30 2110 C 204.145 -3.17895 1.38361 0
M  V30 2111 C 203.206 -3.41625 2.59982 0
M  V30 2112 C 202.439 -4.71274 2.50473 0
M  V30 2113 O 202.662 -5.49197 1.54075 0
M  V30 2114 O 201.596 -4.96254 3.4061 0
M  V30 2115 H 205.422 -1.79728 2.44809 0
M  V30 2116 H 203.007 -0.830312 1.24202 0
M  V30 2117 H 204.889 -3.99136 1.35161 0
M  V30 2118 H 203.564 -3.20555 0.450144 0
M  V30 2119 H 202.471 -2.60231 2.68757 0
M  V30 2120 H 203.804 -3.43796 3.52229 0
M  V30 2121 N 205.456 -1.28612 -0.910864 0
M  V30 2122 C 206.386 -1.15326 -2.03032 0
M  V30 2123 C 207.367 -0.0502924 -1.70026 0
M  V30 2124 O 208.552 -0.227797 -1.92859 0
M  V30 2125 C 205.682 -0.817343 -3.37545 0
M  V30 2126 C 204.636 -1.8754 -3.84724 0
M  V30 2127 C 203.962 -1.39305 -5.16235 0
M  V30 2128 C 205.262 -3.28244 -4.06267 0
M  V30 2129 H 206.956 -2.08975 -2.14406 0
M  V30 2130 H 204.502 -1.00612 -1.03021 0
M  V30 2131 H 206.455 -0.711151 -4.15356 0
M  V30 2132 H 205.179 0.154846 -3.26233 0
M  V30 2133 H 203.838 -1.97079 -3.09121 0
M  V30 2134 H 203.486 -0.409846 -5.01328 0
M  V30 2135 H 203.186 -2.10057 -5.48771 0
M  V30 2136 H 204.71 -1.30014 -5.96598 0
M  V30 2137 H 206.124 -3.21611 -4.74594 0
M  V30 2138 H 204.521 -3.96855 -4.5014 0
M  V30 2139 H 205.591 -3.72048 -3.10979 0
M  V30 2140 N 206.934 1.1197 -1.10907 0
M  V30 2141 C 207.844 2.21433 -0.774896 0
M  V30 2142 C 208.86 1.72478 0.229657 0
M  V30 2143 O 210.036 2.01288 0.0672008 0
M  V30 2144 C 207.101 3.4602 -0.216986 0
M  V30 2145 C 206.162 4.09791 -1.27944 0
M  V30 2146 C 205.395 5.28431 -0.748055 0
M  V30 2147 O 205.618 5.68823 0.423833 0
M  V30 2148 O 204.552 5.82644 -1.51027 0
M  V30 2149 H 208.378 2.5242 -1.68873 0
M  V30 2150 H 205.963 1.20399 -0.884555 0
M  V30 2151 H 207.845 4.21304 0.090059 0
M  V30 2152 H 206.52 3.16698 0.669633 0
M  V30 2153 H 205.427 3.36265 -1.63941 0
M  V30 2154 H 206.76 4.4328 -2.13925 0
M  V30 2155 N 208.412 0.89855 1.29475 0
M  V30 2156 C 209.36 0.365253 2.29714 0
M  V30 2157 C 210.354 -0.534993 1.6073 0
M  V30 2158 O 211.56 -0.417921 1.75081 0
M  V30 2159 H 207.935 0.0994853 0.74539 0
M  V30 2160 H 209.906 1.22406 2.72138 0
M  V30 2161 C 208.655 -0.393159 3.4547 0
M  V30 2162 H 207.978 0.290332 3.98744 0
M  V30 2163 H 209.418 -0.731189 4.17648 0
M  V30 2164 C 207.877 -1.59539 2.9673 0
M  V30 2165 O 208.407 -2.69469 2.97908 0
M  V30 2166 N 206.613 -1.43716 2.52575 0
M  V30 2167 H 206.16 -0.542828 2.51816 0
M  V30 2168 H 206.118 -2.24288 2.20323 0
M  V30 2169 N 209.89 -1.43072 0.660911 0
M  V30 2170 C 211.301 -1.84932 0.256348 0
M  V30 2171 C 211.652 -1.55325 -1.19868 0
M  V30 2172 O 210.777 -1.00607 -1.91591 0
M  V30 2173 C 211.372 -3.35684 0.458475 0
M  V30 2174 C 209.931 -3.76245 0.108161 0
M  V30 2175 C 209.078 -2.66749 0.757641 0
M  V30 2176 H 212.029 -1.33116 0.864051 0
M  V30 2177 H 212.05 -3.79365 -0.293683 0
M  V30 2178 H 211.562 -3.572 1.51755 0
M  V30 2179 H 209.663 -3.60338 -0.948014 0
M  V30 2180 H 209.776 -4.76058 0.538992 0
M  V30 2181 H 208.14 -2.53989 0.190185 0
M  V30 2182 H 208.923 -2.91092 1.81989 0
M  V30 2183 N 211.368 -0.403325 -1.52352 0
M  V30 2184 C 212.616 0.174003 -2.0135 0
M  V30 2185 C 212.937 1.46139 -1.29106 0
M  V30 2186 O 212.207 1.91448 -0.415253 0
M  V30 2187 H 210.787 0.0672911 -0.743963 0
M  V30 2188 H 213.449 -0.538235 -1.87321 0
M  V30 2189 H 212.545 0.374254 -3.09848 0
M  V30 2190 N 212.846 1.57033 -0.133567 0
M  V30 2191 C 214.094 1.953 0.519848 0
M  V30 2192 C 214.415 1.01866 1.66278 0
M  V30 2193 O 213.685 0.0776513 1.95746 0
M  V30 2194 H 212.265 0.721091 0.195032 0
M  V30 2195 H 214.927 1.93809 -0.205921 0
M  V30 2196 H 214.023 2.98695 0.904854 0
M  V30 2197 N 214.325 -0.140222 1.56975 0
M  V30 2198 C 215.571 -0.848084 1.84876 0
M  V30 2199 C 215.926 -1.78481 0.718481 0
M  V30 2200 O 215.219 -1.89497 -0.283093 0
M  V30 2201 C 215.413 -1.65386 3.16832 0
M  V30 2202 C 215.242 -0.79665 4.42587 0
M  V30 2203 C 214.012 -0.459648 5.03205 0
M  V30 2204 C 216.21 -0.12389 5.14151 0
M  V30 2205 N 214.192 0.410446 6.12526 0
M  V30 2206 C 215.563 0.606064 6.17031 0
M  V30 2207 C 217.618 -0.0452654 4.97879 0
M  V30 2208 C 216.321 1.40723 7.054 0
M  V30 2209 C 218.347 0.742658 5.86718 0
M  V30 2210 C 217.709 1.46087 6.89085 0
M  V30 2211 H 213.808 -0.287946 0.727056 0
M  V30 2212 H 216.392 -0.11304 1.94372 0
M  V30 2213 H 214.563 -2.36009 3.08471 0
M  V30 2214 H 216.295 -2.30541 3.32615 0
M  V30 2215 H 213.05 -0.797006 4.66846 0
M  V30 2216 H 213.474 0.836716 6.7181 0
M  V30 2217 H 218.116 -0.586184 4.18717 0
M  V30 2218 H 215.834 1.95938 7.83986 0
M  V30 2219 H 219.42 0.805574 5.76196 0
M  V30 2220 H 218.3 2.06077 7.56639 0
M  V30 2221 N 215.803 -1.52179 -0.40978 0
M  V30 2222 C 217.214 -1.58377 -0.988615 0
M  V30 2223 C 217.565 -0.423879 -1.91566 0
M  V30 2224 O 216.69 0.455844 -2.11544 0
M  V30 2225 C 217.285 -2.87044 -1.79976 0
M  V30 2226 C 215.844 -2.95722 -2.32863 0
M  V30 2227 C 214.991 -2.53309 -1.12828 0
M  V30 2228 H 217.942 -1.57558 -0.190039 0
M  V30 2229 H 217.963 -2.7236 -2.65707 0
M  V30 2230 H 217.475 -3.71444 -1.12478 0
M  V30 2231 H 215.576 -2.15814 -3.03735 0
M  V30 2232 H 215.689 -3.99951 -2.63773 0
M  V30 2233 H 214.053 -2.07142 -1.48204 0
M  V30 2234 H 214.836 -3.40082 -0.46897 0
M  V30 2235 N 217.281 0.66697 -1.42791 0
M  V30 2236 C 218.191 1.80962 -1.49299 0
M  V30 2237 C 219.207 1.69775 -0.381108 0
M  V30 2238 O 220.383 1.91188 -0.633188 0
M  V30 2239 C 217.448 3.17156 -1.40045 0
M  V30 2240 C 216.509 3.40242 -2.6179 0
M  V30 2241 C 215.742 4.69939 -2.52969 0
M  V30 2242 O 215.965 5.48372 -1.56985 0
M  V30 2243 O 214.899 4.94441 -3.43237 0
M  V30 2244 H 218.725 1.78427 -2.45759 0
M  V30 2245 H 216.31 0.823713 -1.24641 0
M  V30 2246 H 218.192 3.98413 -1.37276 0
M  V30 2247 H 216.867 3.20312 -0.467138 0
M  V30 2248 H 215.774 2.58802 -2.70134 0
M  V30 2249 H 217.107 3.41923 -3.54047 0
M  V30 2250 N 218.759 1.29093 0.90403 0
M  V30 2251 C 220.175 1.07011 1.1841 0
M  V30 2252 C 220.375 -0.181358 2.00682 0
M  V30 2253 O 219.431 -0.880331 2.36657 0
M  V30 2254 C 220.744 2.32311 1.90924 0
M  V30 2255 C 222.292 2.37587 2.03768 0
M  V30 2256 C 222.767 3.62679 2.79693 0
M  V30 2257 N 224.258 3.63376 2.87249 0
M  V30 2258 C 224.993 4.56848 3.46522 0
M  V30 2259 N 224.489 5.60648 4.06996 0
M  V30 2260 N 226.282 4.44426 3.44154 0
M  V30 2261 H 218.433 2.09412 0.354993 0
M  V30 2262 H 220.696 0.922181 0.219742 0
M  V30 2263 H 220.402 3.23536 1.37905 0
M  V30 2264 H 220.276 2.39483 2.91424 0
M  V30 2265 H 222.663 1.46853 2.55965 0
M  V30 2266 H 222.744 2.34403 1.02415 0
M  V30 2267 H 222.388 4.53762 2.28173 0
M  V30 2268 H 222.318 3.63119 3.81381 0
M  V30 2269 H 224.809 2.88321 2.44293 0
M  V30 2270 H 225.122 6.28101 4.50232 0
M  V30 2271 H 223.467 5.64463 4.05471 0
M  V30 2272 H 226.658 3.62529 2.96126 0
M  V30 2273 H 226.831 5.17457 3.90054 0
M  V30 2274 N 220.237 -1.11381 1.11499 0
M  V30 2275 C 221.648 -1.6465 0.880191 0
M  V30 2276 C 221.999 -1.87199 -0.587434 0
M  V30 2277 O 221.124 -1.60667 -1.44966 0
M  V30 2278 C 221.719 -2.99105 1.59128 0
M  V30 2279 C 220.278 -3.49279 1.40289 0
M  V30 2280 C 219.425 -2.24077 1.63354 0
M  V30 2281 H 222.376 -0.950123 1.27116 0
M  V30 2282 H 222.397 -3.66107 1.03664 0
M  V30 2283 H 221.909 -2.82661 2.65941 0
M  V30 2284 H 220.01 -3.70887 0.356888 0
M  V30 2285 H 220.123 -4.2803 2.15238 0
M  V30 2286 H 218.487 -2.31733 1.05698 0
M  V30 2287 H 219.27 -2.10175 2.71443 0
M  V30 2288 N 221.715 -0.905404 -1.28997 0
M  V30 2289 C 222.943 -0.549846 -1.9946 0
M  V30 2290 C 223.358 0.866834 -1.67724 0
M  V30 2291 O 222.715 1.57298 -0.925404 0
M  V30 2292 C 222.766 -0.739387 -3.53858 0
M  V30 2293 O 222.487 -2.10031 -3.84472 0
M  V30 2294 C 223.988 -0.389541 -4.41585 0
M  V30 2295 H 221.208 -0.210429 -0.637151 0
M  V30 2296 H 223.752 -1.21632 -1.64396 0
M  V30 2297 H 221.907 -0.120023 -3.87214 0
M  V30 2298 H 222.321 -2.13385 -4.79132 0
M  V30 2299 H 223.795 -0.572972 -5.49018 0
M  V30 2300 H 224.272 0.673756 -4.34001 0
M  V30 2301 H 224.878 -0.986089 -4.1371 0
M  V30 2302 N 223.193 1.4272 -0.668489 0
M  V30 2303 C 224.156 2.292 0.00448567 0
M  V30 2304 C 225.156 1.43001 0.735339 0
M  V30 2305 O 226.346 1.64461 0.57429 0
M  V30 2306 C 223.478 3.25375 1.01705 0
M  V30 2307 H 224.671 2.90199 -0.756608 0
M  V30 2308 H 222.224 1.50254 -0.430506 0
M  V30 2309 H 222.959 2.69301 1.80686 0
M  V30 2310 H 222.744 3.88944 0.496463 0
M  V30 2311 H 224.234 3.90245 1.48655 0
M  V30 2312 N 224.671 0.411399 1.52136 0
M  V30 2313 C 225.581 -0.419774 2.30814 0
M  V30 2314 C 226.597 -1.0515 1.38634 0
M  V30 2315 O 227.773 -1.05252 1.71709 0
M  V30 2316 C 224.838 -1.52019 3.11594 0
M  V30 2317 C 223.899 -0.91129 4.19516 0
M  V30 2318 C 223.132 -1.95927 4.96436 0
M  V30 2319 O 223.355 -3.17775 4.73683 0
M  V30 2320 O 222.289 -1.56423 5.81219 0
M  V30 2321 H 226.115 0.221805 3.02889 0
M  V30 2322 H 223.7 0.174547 1.48377 0
M  V30 2323 H 225.582 -2.15898 3.61892 0
M  V30 2324 H 224.257 -2.14633 2.42311 0
M  V30 2325 H 223.164 -0.235157 3.7336 0
M  V30 2326 H 224.497 -0.32904 4.91099 0
M  V30 2327 N 226.149 -1.5696 0.141893 0
M  V30 2328 C 227.565 -1.58151 -0.21456 0
M  V30 2329 C 227.765 -1.1559 -1.65049 0
M  V30 2330 O 226.821 -0.853832 -2.37626 0
M  V30 2331 C 228.134 -3.00674 0.0395576 0
M  V30 2332 C 229.682 -3.1299 -0.0245529 0
M  V30 2333 C 230.157 -4.57554 0.202167 0
M  V30 2334 N 231.648 -4.62961 0.148919 0
M  V30 2335 C 232.383 -5.7262 0.298924 0
M  V30 2336 N 231.879 -6.90947 0.50637 0
M  V30 2337 N 233.672 -5.61601 0.236886 0
M  V30 2338 H 225.823 -1.8292 1.07953 0
M  V30 2339 H 228.086 -0.846425 0.42693 0
M  V30 2340 H 227.792 -3.36183 1.03315 0
M  V30 2341 H 227.666 -3.70981 -0.682143 0
M  V30 2342 H 230.053 -2.77326 -1.00869 0
M  V30 2343 H 230.134 -2.4518 0.729396 0
M  V30 2344 H 229.778 -4.93922 1.18338 0
M  V30 2345 H 229.708 -5.23484 -0.572044 0
M  V30 2346 H 232.199 -3.77899 -0.00697015 0
M  V30 2347 H 232.512 -7.7038 0.611076 0
M  V30 2348 H 230.857 -6.92878 0.542628 0
M  V30 2349 H 234.048 -4.68039 0.0756209 0
M  V30 2350 H 234.221 -6.47015 0.357227 0
M  V30 2351 N 227.627 0.131896 -1.57047 0
M  V30 2352 C 228.874 0.841932 -1.84168 0
M  V30 2353 C 229.202 1.8048 -0.725066 0
M  V30 2354 O 228.457 1.93618 0.284692 0
M  V30 2355 C 228.756 1.63703 -3.17704 0
M  V30 2356 C 228.422 0.81961 -4.43388 0
M  V30 2357 C 227.084 0.594148 -4.77518 0
M  V30 2358 C 229.436 0.248977 -5.20605 0
M  V30 2359 C 226.764 -0.212409 -5.86315 0
M  V30 2360 C 229.116 -0.544701 -6.30251 0
M  V30 2361 C 227.78 -0.780599 -6.6292 0
M  V30 2362 H 227.05 0.308085 -0.673917 0
M  V30 2363 H 229.697 0.104867 -1.91213 0
M  V30 2364 H 228.002 2.44464 -3.06177 0
M  V30 2365 H 229.699 2.19015 -3.35907 0
M  V30 2366 H 226.289 1.00542 -4.16641 0
M  V30 2367 H 230.473 0.410408 -4.946 0
M  V30 2368 H 225.729 -0.404524 -6.1006 0
M  V30 2369 H 229.903 -0.993922 -6.89271 0
M  V30 2370 H 227.53 -1.40742 -7.47058 0
M  V30 2371 N 229.106 1.52395 0.401703 0
M  V30 2372 C 230.069 1.75636 1.47257 0
M  V30 2373 C 231.069 0.62628 1.48103 0
M  V30 2374 O 232.259 0.894227 1.49497 0
M  V30 2375 C 229.391 1.84553 2.86624 0
M  V30 2376 H 230.584 2.71241 1.27938 0
M  V30 2377 H 228.137 1.42923 0.632662 0
M  V30 2378 H 228.872 0.908882 3.11303 0
M  V30 2379 H 228.657 2.66715 2.87412 0
M  V30 2380 H 230.147 2.04251 3.64241 0
M  V30 2381 N 230.584 -0.659388 1.43143 0
M  V30 2382 C 231.494 -1.80167 1.50256 0
M  V30 2383 C 232.51 -1.69571 0.390106 0
M  V30 2384 O 233.686 -1.90849 0.643319 0
M  V30 2385 C 230.751 -3.16409 1.41725 0
M  V30 2386 C 229.812 -3.38848 2.63591 0
M  V30 2387 C 229.045 -4.68591 2.55458 0
M  V30 2388 O 229.268 -5.47532 1.59891 0
M  V30 2389 O 228.202 -4.92614 3.45854 0
M  V30 2390 H 232.028 -1.77121 2.46702 0
M  V30 2391 H 229.613 -0.817092 1.25076 0
M  V30 2392 H 231.495 -3.9768 1.39387 0
M  V30 2393 H 230.17 -3.20059 0.484118 0
M  V30 2394 H 229.077 -2.57366 2.71502 0
M  V30 2395 H 230.41 -3.4004 3.55856 0
M  V30 2396 N 232.062 -1.29571 -0.897171 0
M  V30 2397 C 233.292 -1.20408 -1.67886 0
M  V30 2398 C 233.7 0.237429 -1.87704 0
M  V30 2399 O 233.043 1.17048 -1.41582 0
M  V30 2400 C 233.105 -1.84887 -3.08314 0
M  V30 2401 C 232.769 -3.34189 -3.11716 0
M  V30 2402 C 233.766 -4.30374 -2.91675 0
M  V30 2403 C 231.451 -3.75431 -3.33701 0
M  V30 2404 C 233.445 -5.65776 -2.93557 0
M  V30 2405 C 231.132 -5.10955 -3.35214 0
M  V30 2406 C 232.13 -6.05938 -3.15164 0
M  V30 2407 O 231.818 -7.38987 -3.1647 0
M  V30 2408 H 231.55 -0.418289 -0.531046 0
M  V30 2409 H 234.104 -1.71514 -1.13014 0
M  V30 2410 H 232.334 -1.28295 -3.64798 0
M  V30 2411 H 234.023 -1.70011 -3.6858 0
M  V30 2412 H 234.789 -3.99844 -2.74499 0
M  V30 2413 H 230.668 -3.01953 -3.48347 0
M  V30 2414 H 234.212 -6.39889 -2.77826 0
M  V30 2415 H 230.109 -5.4113 -3.51922 0
M  V30 2416 H 230.877 -7.47823 -3.3272 0
M  V30 2417 N 233.54 1.10788 -1.12088 0
M  V30 2418 C 234.503 2.15207 -0.788577 0
M  V30 2419 C 235.503 1.59609 0.195317 0
M  V30 2420 O 236.693 1.74174 -0.0300193 0
M  V30 2421 C 233.825 3.4047 -0.171174 0
M  V30 2422 H 235.018 2.46116 -1.71368 0
M  V30 2423 H 232.571 1.26089 -0.923652 0
M  V30 2424 H 233.306 3.15176 0.763832 0
M  V30 2425 H 233.091 3.82109 -0.879514 0
M  V30 2426 H 234.581 4.17576 0.04496 0
M  V30 2427 N 235.018 0.912232 1.28515 0
M  V30 2428 C 235.981 0.404223 2.25607 0
M  V30 2429 C 236.981 -0.468602 1.53821 0
M  V30 2430 O 238.171 -0.271873 1.72065 0
M  V30 2431 C 235.303 -0.420653 3.38295 0
M  V30 2432 H 236.496 1.26188 2.7206 0
M  V30 2433 H 234.049 0.691495 1.40171 0
M  V30 2434 H 234.784 -1.29777 2.97201 0
M  V30 2435 H 234.569 0.204935 3.91564 0
M  V30 2436 H 236.059 -0.766971 4.10496 0
M  V30 2437 N 236.496 -1.42363 0.676048 0
M  V30 2438 C 237.745 -2.00745 0.196037 0
M  V30 2439 C 238.058 -1.54083 -1.20489 0
M  V30 2440 O 239.264 -2.04891 -1.78134 0
M  V30 2441 C 237.72 -3.58651 0.299616 0
M  V30 2442 C 237.328 -4.143 1.70468 0
M  V30 2443 C 239.072 -4.24326 -0.121619 0
M  V30 2444 C 236.979 -5.64574 1.76096 0
M  V30 2445 H 235.909 -0.750787 0.0695301 0
M  V30 2446 H 238.56 -1.63072 0.841412 0
M  V30 2447 H 236.942 -3.93833 -0.413673 0
M  V30 2448 H 238.116 -3.90575 2.44515 0
M  V30 2449 H 236.431 -3.61081 2.07387 0
M  V30 2450 H 239.028 -5.34607 -0.0997362 0
M  V30 2451 H 239.371 -3.99897 -1.15708 0
M  V30 2452 H 239.904 -3.94108 0.540706 0
M  V30 2453 H 236.643 -5.93804 2.77628 0
M  V30 2454 H 236.163 -5.90286 1.06406 0
M  V30 2455 H 237.842 -6.29013 1.51496 0
M  V30 2456 N 237.974 -0.419461 -1.51915 0
M  V30 2457 C 238.937 0.389116 -2.25873 0
M  V30 2458 C 239.937 0.964924 -1.28631 0
M  V30 2459 O 241.127 0.842179 -1.52489 0
M  V30 2460 C 238.259 1.54874 -3.03689 0
M  V30 2461 H 239.452 -0.258799 -2.98781 0
M  V30 2462 H 237.005 -0.172209 -1.55348 0
M  V30 2463 H 237.74 2.23323 -2.35154 0
M  V30 2464 H 237.525 1.14223 -3.75094 0
M  V30 2465 H 239.015 2.12046 -3.59759 0
M  V30 2466 N 239.452 1.56882 -0.150215 0
M  V30 2467 C 240.415 2.1573 0.774157 0
M  V30 2468 C 241.415 1.0999 1.17298 0
M  V30 2469 O 242.605 1.35613 1.09338 0
M  V30 2470 C 239.737 2.72302 2.05096 0
M  V30 2471 H 240.93 2.98752 0.262201 0
M  V30 2472 H 238.483 1.55985 0.099248 0
M  V30 2473 H 239.218 1.92956 2.6065 0
M  V30 2474 H 239.003 3.49665 1.77416 0
M  V30 2475 H 240.493 3.17632 2.71109 0
M  V30 2476 N 240.93 -0.123565 1.57115 0
M  V30 2477 C 242.207 -0.862196 1.75572 0
M  V30 2478 C 242.587 -1.98279 0.724475 0
M  V30 2479 O 241.935 -2.27102 -0.252407 0
M  V30 2480 C 242.145 -1.38309 3.20424 0
M  V30 2481 C 243.493 -1.83724 3.82793 0
M  V30 2482 O 244.517 -1.47999 3.23998 0
M  V30 2483 O 243.376 -2.49685 4.86127 0
M  V30 2484 H 240.47 -0.409113 0.718718 0
M  V30 2485 H 243.016 -0.107661 1.69358 0
M  V30 2486 H 241.788 -0.578889 3.86994 0
M  V30 2487 H 241.411 -2.20046 3.31158 0
M  V30 2488 N 242.408 -1.52605 -0.393616 0
M  V30 2489 C 243.371 -1.76415 -1.46323 0
M  V30 2490 C 244.371 -0.634126 -1.47768 0
M  V30 2491 O 245.561 -0.902142 -1.4902 0
M  V30 2492 C 242.693 -1.8607 -2.85641 0
M  V30 2493 H 243.886 -2.71916 -1.26498 0
M  V30 2494 H 241.439 -1.43257 -0.625073 0
M  V30 2495 H 242.174 -0.925378 -3.10817 0
M  V30 2496 H 241.959 -2.68235 -2.85993 0
M  V30 2497 H 243.449 -2.06179 -3.63153 0
M  V30 2498 N 243.887 0.651787 -1.4349 0
M  V30 2499 C 244.817 1.77621 -1.51569 0
M  V30 2500 C 245.798 1.66022 -0.370253 0
M  V30 2501 O 246.983 1.85095 -0.587658 0
M  V30 2502 C 244.113 3.16056 -1.43966 0
M  V30 2503 C 243.067 3.4242 -2.56774 0
M  V30 2504 C 242.393 4.8067 -2.34223 0
M  V30 2505 C 243.693 3.37023 -3.99015 0
M  V30 2506 H 245.387 1.71117 -2.45681 0
M  V30 2507 H 242.933 0.821825 -1.18246 0
M  V30 2508 H 244.886 3.94472 -1.48221 0
M  V30 2509 H 243.61 3.23293 -0.463586 0
M  V30 2510 H 242.269 2.66375 -2.51873 0
M  V30 2511 H 241.917 4.84585 -1.34856 0
M  V30 2512 H 241.617 4.9927 -3.09844 0
M  V30 2513 H 243.141 5.61342 -2.40265 0
M  V30 2514 H 244.555 4.05374 -4.05395 0
M  V30 2515 H 242.952 3.67159 -4.74673 0
M  V30 2516 H 244.022 2.3518 -4.2405 0
M  V30 2517 N 245.365 1.30045 0.890287 0
M  V30 2518 C 246.613 1.18327 1.63839 0
M  V30 2519 C 246.934 -0.263455 1.93212 0
M  V30 2520 O 246.204 -1.17856 1.56482 0
M  V30 2521 H 244.784 0.434933 0.607324 0
M  V30 2522 H 247.446 1.631 1.06698 0
M  V30 2523 H 246.542 1.74024 2.59079 0
M  V30 2524 N 246.843 -1.10192 1.12674 0
M  V30 2525 C 248.12 -1.78717 0.794965 0
M  V30 2526 C 248.5 -1.98628 -0.714853 0
M  V30 2527 O 247.848 -1.58135 -1.64941 0
M  V30 2528 C 248.058 -3.11546 1.5729 0
M  V30 2529 C 249.406 -3.86382 1.76052 0
M  V30 2530 O 250.43 -3.21274 1.53823 0
M  V30 2531 O 249.289 -5.03246 2.13087 0
M  V30 2532 H 246.383 -0.774702 0.289423 0
M  V30 2533 H 248.929 -1.16819 1.23091 0
M  V30 2534 H 247.701 -2.92489 2.59935 0
M  V30 2535 H 247.324 -3.81164 1.13137 0
M  V30 2536 N 248.321 -0.919034 -1.28029 0
M  V30 2537 C 249.737 -0.617972 -1.4715 0
M  V30 2538 C 249.937 0.835242 -1.83374 0
M  V30 2539 O 248.993 1.61388 -1.94191 0
M  V30 2540 C 250.306 -1.56041 -2.57044 0
M  V30 2541 C 251.854 -1.56769 -2.7091 0
M  V30 2542 C 252.329 -2.49688 -3.83953 0
M  V30 2543 N 253.82 -2.47845 -3.91314 0
M  V30 2544 C 254.555 -3.16437 -4.78179 0
M  V30 2545 N 254.051 -3.94376 -5.69596 0
M  V30 2546 N 255.844 -3.05498 -4.71834 0
M  V30 2547 H 247.995 -1.85866 -1.02798 0
M  V30 2548 H 250.258 -0.797506 -0.512531 0
M  V30 2549 H 249.964 -2.59671 -2.372 0
M  V30 2550 H 249.838 -1.29551 -3.54255 0
M  V30 2551 H 252.225 -0.538745 -2.90141 0
M  V30 2552 H 252.306 -1.87305 -1.74214 0
M  V30 2553 H 251.95 -3.52688 -3.65477 0
M  V30 2554 H 251.88 -2.16453 -4.80058 0
M  V30 2555 H 254.371 -1.91234 -3.25941 0
M  V30 2556 H 254.684 -4.43721 -6.32718 0
M  V30 2557 H 253.029 -3.98481 -5.69419 0
M  V30 2558 H 256.22 -2.44108 -3.99411 0
M  V30 2559 H 256.393 -3.59225 -5.39316 0
M  V30 2560 N 249.799 1.42003 -0.683588 0
M  V30 2561 C 251.045 2.01712 -0.209825 0
M  V30 2562 C 251.378 1.53968 1.18353 0
M  V30 2563 O 250.653 0.745661 1.79639 0
M  V30 2564 C 250.936 3.59202 -0.254197 0
M  V30 2565 C 250.789 4.17102 -1.68363 0
M  V30 2566 C 252.108 4.38344 0.392709 0
M  V30 2567 H 249.227 0.732891 -0.0777189 0
M  V30 2568 H 251.869 1.68909 -0.87004 0
M  V30 2569 H 250.019 3.87278 0.307954 0
M  V30 2570 H 251.691 3.99946 -2.29871 0
M  V30 2571 H 249.934 3.72597 -2.22157 0
M  V30 2572 H 250.605 5.26249 -1.6663 0
M  V30 2573 H 253.081 4.16011 -0.0859162 0
M  V30 2574 H 251.957 5.47901 0.331063 0
M  V30 2575 H 252.218 4.16887 1.47164 0
M  V30 2576 N 251.277 0.427512 1.51691 0
M  V30 2577 C 252.224 -0.388867 2.275 0
M  V30 2578 C 253.194 -1.02532 1.30677 0
M  V30 2579 O 254.379 -1.0461 1.59566 0
M  V30 2580 C 251.519 -1.48954 3.11298 0
M  V30 2581 C 250.632 -0.872194 4.23104 0
M  V30 2582 C 249.767 -1.94709 4.94228 0
M  V30 2583 C 248.806 -1.30766 5.97969 0
M  V30 2584 N 247.943 -2.32349 6.62539 0
M  V30 2585 H 252.783 0.263997 2.96828 0
M  V30 2586 H 250.32 0.142033 1.46413 0
M  V30 2587 H 252.278 -2.13887 3.58201 0
M  V30 2588 H 250.908 -2.11217 2.44105 0
M  V30 2589 H 249.96 -0.111419 3.80237 0
M  V30 2590 H 251.272 -0.365264 4.97461 0
M  V30 2591 H 250.426 -2.67327 5.44629 0
M  V30 2592 H 249.165 -2.48773 4.1948 0
M  V30 2593 H 248.17 -0.566902 5.4687 0
M  V30 2594 H 249.395 -0.774483 6.74669 0
M  V30 2595 H 247.341 -2.85511 5.90609 0
M  V30 2596 H 247.258 -1.8652 7.3263 0
M  V30 2597 H 248.526 -3.04481 7.17574 0
M  V30 2598 N 252.755 -1.56801 0.158532 0
M  V30 2599 C 253.983 -2.00859 -0.496303 0
M  V30 2600 C 254.398 -1.03871 -1.57659 0
M  V30 2601 O 253.755 -0.0375165 -1.82461 0
M  V30 2602 C 253.806 -3.4479 -1.08638 0
M  V30 2603 O 253.527 -4.38072 -0.0492322 0
M  V30 2604 C 255.028 -4.04185 -1.8207 0
M  V30 2605 H 252.248 -0.65864 -0.128199 0
M  V30 2606 H 254.792 -2.02885 0.256506 0
M  V30 2607 H 252.947 -3.43579 -1.78975 0
M  V30 2608 H 253.361 -5.2227 -0.483102 0
M  V30 2609 H 254.835 -5.06857 -2.18633 0
M  V30 2610 H 255.312 -3.45549 -2.71095 0
M  V30 2611 H 255.918 -4.0906 -1.16405 0
M  V30 2612 N 254.233 0.115231 -1.57178 0
M  V30 2613 C 255.479 0.818565 -1.86202 0
M  V30 2614 C 255.834 1.77316 -0.746785 0
M  V30 2615 O 255.127 1.89923 0.25291 0
M  V30 2616 C 255.321 1.60324 -3.19423 0
M  V30 2617 C 255.15 0.726138 -4.43799 0
M  V30 2618 C 253.92 0.379535 -5.03873 0
M  V30 2619 C 256.118 0.0420774 -5.14283 0
M  V30 2620 N 254.1 -0.507841 -6.11796 0
M  V30 2621 C 255.471 -0.704152 -6.15988 0
M  V30 2622 C 257.526 -0.0339486 -4.97888 0
M  V30 2623 C 256.229 -1.51927 -7.03072 0
M  V30 2624 C 258.255 -0.835906 -5.85463 0
M  V30 2625 C 257.617 -1.57031 -6.86673 0
M  V30 2626 H 253.716 0.276343 -0.731545 0
M  V30 2627 H 256.3 0.0821032 -1.94527 0
M  V30 2628 H 254.471 2.31072 -3.12186 0
M  V30 2629 H 256.203 2.2522 -3.36241 0
M  V30 2630 H 252.958 0.722634 -4.68054 0
M  V30 2631 H 253.382 -0.94349 -6.70393 0
M  V30 2632 H 258.024 0.519496 -4.19596 0
M  V30 2633 H 255.742 -2.08386 -7.80769 0
M  V30 2634 H 259.328 -0.89714 -5.74841 0
M  V30 2635 H 258.208 -2.18088 -7.53264 0
M  V30 2636 N 255.711 1.52812 0.385517 0
M  V30 2637 C 256.939 1.71907 1.15133 0
M  V30 2638 C 257.354 0.439004 1.83625 0
M  V30 2639 O 256.711 -0.586765 1.7281 0
M  V30 2640 C 256.762 2.87099 2.19673 0
M  V30 2641 O 256.483 4.10151 1.53973 0
M  V30 2642 C 257.984 3.17902 3.08955 0
M  V30 2643 H 255.204 0.575479 0.345057 0
M  V30 2644 H 257.748 1.99476 0.45052 0
M  V30 2645 H 255.903 2.61982 2.85384 0
M  V30 2646 H 256.317 4.74514 2.23465 0
M  V30 2647 H 257.791 4.01959 3.7833 0
M  V30 2648 H 258.268 2.3243 3.72657 0
M  V30 2649 H 258.874 3.44871 2.48885 0
M  V30 2650 N 257.189 -0.644168 1.43834 0
M  V30 2651 C 258.417 -1.43147 1.49387 0
M  V30 2652 C 258.832 -1.88452 0.114583 0
M  V30 2653 O 258.189 -1.60047 -0.876989 0
M  V30 2654 C 258.24 -2.66046 2.44748 0
M  V30 2655 O 257.961 -2.22633 3.77314 0
M  V30 2656 C 259.462 -3.59311 2.59635 0
M  V30 2657 H 256.682 -0.439447 0.507077 0
M  V30 2658 H 259.226 -0.78895 1.88669 0
M  V30 2659 H 257.381 -3.26418 2.08638 0
M  V30 2660 H 257.795 -3.02216 4.28679 0
M  V30 2661 H 259.269 -4.42187 3.30416 0
M  V30 2662 H 259.746 -4.07259 1.64427 0
M  V30 2663 H 260.352 -3.04816 2.96593 0
M  V30 2664 N 258.668 -1.30515 -0.883378 0
M  V30 2665 C 259.598 -1.19607 -2.00541 0
M  V30 2666 C 260.579 -0.086346 -1.69881 0
M  V30 2667 O 261.764 -0.268654 -1.92333 0
M  V30 2668 C 258.894 -0.888758 -3.35736 0
M  V30 2669 C 257.848 -1.95659 -3.8066 0
M  V30 2670 C 257.174 -1.50224 -5.13164 0
M  V30 2671 C 258.474 -3.36788 -3.99213 0
M  V30 2672 H 260.168 -2.13476 -2.09925 0
M  V30 2673 H 257.714 -1.02775 -1.00863 0
M  V30 2674 H 259.667 -0.799094 -4.13754 0
M  V30 2675 H 258.391 0.0856125 -3.26488 0
M  V30 2676 H 257.05 -2.03591 -3.04871 0
M  V30 2677 H 256.698 -0.516092 -5.00345 0
M  V30 2678 H 256.398 -2.2165 -5.44192 0
M  V30 2679 H 257.922 -1.42639 -5.93706 0
M  V30 2680 H 259.336 -3.31605 -4.67665 0
M  V30 2681 H 257.733 -4.06314 -4.41621 0
M  V30 2682 H 258.803 -3.78561 -3.03017 0
M  V30 2683 N 260.146 1.09593 -1.13257 0
M  V30 2684 C 261.094 2.18271 -0.803783 0
M  V30 2685 C 262.088 1.68054 0.213148 0
M  V30 2686 O 263.294 1.79862 0.0704699 0
M  V30 2687 H 259.669 0.711949 -0.242143 0
M  V30 2688 H 261.64 2.43235 -1.72856 0
M  V30 2689 C 260.389 3.46536 -0.28424 0
M  V30 2690 H 259.712 3.85545 -1.05807 0
M  V30 2691 H 261.152 4.23899 -0.0925945 0
M  V30 2692 C 259.611 3.22036 0.989684 0
M  V30 2693 O 260.141 3.44509 2.06584 0
M  V30 2694 N 258.347 2.7565 0.920086 0
M  V30 2695 H 257.894 2.57562 0.0442019 0
M  V30 2696 H 257.852 2.59635 1.77306 0
M  V30 2697 N 261.624 0.925811 1.2754 0
M  V30 2698 C 262.534 0.428993 2.30644 0
M  V30 2699 C 263.55 -0.489387 1.66976 0
M  V30 2700 O 264.726 -0.372653 1.97922 0
M  V30 2701 C 261.791 -0.311967 3.45294 0
M  V30 2702 C 260.852 0.641098 4.24486 0
M  V30 2703 C 260.085 -0.0645955 5.33661 0
M  V30 2704 O 260.308 -1.28429 5.55754 0
M  V30 2705 O 259.242 0.606265 5.98839 0
M  V30 2706 H 263.068 1.28504 2.75173 0
M  V30 2707 H 260.653 0.691086 1.32455 0
M  V30 2708 H 262.535 -0.729972 4.15029 0
M  V30 2709 H 261.21 -1.14365 3.02824 0
M  V30 2710 H 260.117 1.10874 3.57292 0
M  V30 2711 H 261.45 1.43995 4.70666 0
M  V30 2712 N 263.102 -1.41638 0.69111 0
M  V30 2713 C 264.513 -1.84346 0.295517 0
M  V30 2714 C 264.864 -1.57833 -1.16547 0
M  V30 2715 O 263.989 -1.04648 -1.89414 0
M  V30 2716 C 264.584 -3.34636 0.529575 0
M  V30 2717 C 263.143 -3.7593 0.187944 0
M  V30 2718 C 262.29 -2.65082 0.814052 0
M  V30 2719 H 265.241 -1.31253 0.892092 0
M  V30 2720 H 265.262 -3.79903 -0.213148 0
M  V30 2721 H 264.774 -3.53901 1.59297 0
M  V30 2722 H 262.875 -3.62268 -0.871367 0
M  V30 2723 H 262.988 -4.74808 0.63985 0
M  V30 2724 H 261.352 -2.53528 0.244017 0
M  V30 2725 H 262.135 -2.87167 1.88123 0
M  V30 2726 N 264.58 -0.43555 -1.51462 0
M  V30 2727 C 265.826 0.123979 -2.03022 0
M  V30 2728 C 266.181 1.4054 -1.31401 0
M  V30 2729 O 265.474 1.86948 -0.419634 0
M  V30 2730 C 265.668 0.39942 -3.55161 0
M  V30 2731 C 265.497 -0.853754 -4.41521 0
M  V30 2732 C 264.267 -1.38675 -4.85898 0
M  V30 2733 C 266.465 -1.73939 -4.83994 0
M  V30 2734 N 264.447 -2.59265 -5.56466 0
M  V30 2735 C 265.818 -2.79135 -5.5361 0
M  V30 2736 C 267.873 -1.75402 -4.65981 0
M  V30 2737 C 266.576 -3.85737 -6.07124 0
M  V30 2738 C 268.602 -2.80938 -5.20411 0
M  V30 2739 C 267.964 -3.84854 -5.89972 0
M  V30 2740 H 264.063 0.00624887 -0.781975 0
M  V30 2741 H 266.647 -0.59582 -1.85359 0
M  V30 2742 H 264.818 1.08825 -3.72843 0
M  V30 2743 H 266.55 0.95015 -3.93388 0
M  V30 2744 H 263.305 -0.94094 -4.64159 0
M  V30 2745 H 263.729 -3.2041 -5.96378 0
M  V30 2746 H 268.371 -0.963926 -4.11665 0
M  V30 2747 H 266.089 -4.65586 -6.60496 0
M  V30 2748 H 269.675 -2.8301 -5.08327 0
M  V30 2749 H 268.555 -4.65176 -6.31333 0
M  V30 2750 N 266.058 1.56714 -0.166846 0
M  V30 2751 C 267.298 1.98641 0.481763 0
M  V30 2752 C 267.662 1.05038 1.6072 0
M  V30 2753 O 268.863 1.36087 2.31805 0
M  V30 2754 C 267.134 3.44362 0.956517 0
M  V30 2755 S 268.693 4.08317 1.60694 0
M  V30 2756 H 265.511 0.693873 0.155116 0
M  V30 2757 H 268.113 1.93719 -0.263251 0
M  V30 2758 H 266.817 4.10204 0.126936 0
M  V30 2759 H 266.348 3.53041 1.73568 0
M  V30 2760 H 268.363 4.02999 2.89494 0
M  V30 2761 N 267.536 -0.106894 1.57237 0
M  V30 2762 C 268.761 -0.830287 1.90055 0
M  V30 2763 C 269.186 -1.72064 0.75998 0
M  V30 2764 O 268.544 -1.78982 -0.288991 0
M  V30 2765 C 268.592 -1.6295 3.21683 0
M  V30 2766 O 267.696 -2.73748 3.08441 0
M  V30 2767 H 267.037 -0.228855 0.623315 0
M  V30 2768 H 269.567 -0.085658 2.04421 0
M  V30 2769 H 269.577 -2.01621 3.54701 0
M  V30 2770 H 268.252 -0.975989 4.04286 0
M  V30 2771 H 266.829 -2.38192 2.86913 0
M  V30 2772 N 269.014 -1.53014 -0.377408 0
M  V30 2773 C 269.977 -1.77957 -1.44444 0
M  V30 2774 C 270.977 -0.649763 -1.47087 0
M  V30 2775 O 272.167 -0.917897 -1.48055 0
M  V30 2776 C 269.299 -1.89089 -2.83651 0
M  V30 2777 H 270.492 -2.73243 -1.23606 0
M  V30 2778 H 268.045 -1.43912 -0.609844 0
M  V30 2779 H 268.78 -0.958293 -3.09818 0
M  V30 2780 H 268.565 -2.71254 -2.83132 0
M  V30 2781 H 270.055 -2.1002 -3.60945 0
M  V30 2782 N 270.492 0.636531 -1.44174 0
M  V30 2783 C 271.739 1.39619 -1.46672 0
M  V30 2784 C 272.067 1.94257 -0.0972691 0
M  V30 2785 O 271.322 1.73768 0.900175 0
M  V30 2786 C 271.621 2.58309 -2.47005 0
M  V30 2787 C 271.287 2.21992 -3.92467 0
M  V30 2788 C 269.949 2.118 -4.32081 0
M  V30 2789 C 272.301 1.9321 -4.84065 0
M  V30 2790 C 269.629 1.71007 -5.61225 0
M  V30 2791 C 271.981 1.53911 -6.13591 0
M  V30 2792 C 270.645 1.42257 -6.52165 0
M  V30 2793 H 269.915 0.510902 -0.536712 0
M  V30 2794 H 272.562 0.722328 -1.77355 0
M  V30 2795 H 270.867 3.30903 -2.09786 0
M  V30 2796 H 272.564 3.16533 -2.46186 0
M  V30 2797 H 269.154 2.30841 -3.61124 0
M  V30 2798 H 273.338 1.99997 -4.54219 0
M  V30 2799 H 268.594 1.60583 -5.89935 0
M  V30 2800 H 272.768 1.30677 -6.8403 0
M  V30 2801 H 270.395 1.10419 -7.52138 0
M  V30 2802 N 271.97 1.30982 0.876444 0
M  V30 2803 C 272.9 1.20668 1.99903 0
M  V30 2804 C 273.881 0.095354 1.69833 0
M  V30 2805 O 275.066 0.27885 1.92188 0
M  V30 2806 C 272.196 0.90655 3.3526 0
M  V30 2807 C 271.15 1.97675 3.79617 0
M  V30 2808 C 270.476 1.52943 5.1236 0
M  V30 2809 C 271.776 3.389 3.97422 0
M  V30 2810 H 273.47 2.14586 2.0879 0
M  V30 2811 H 271.016 1.03308 1.00317 0
M  V30 2812 H 272.969 0.821025 4.13324 0
M  V30 2813 H 271.693 -0.0682969 3.26529 0
M  V30 2814 H 270.352 2.05205 3.03787 0
M  V30 2815 H 270 0.54262 5.00065 0
M  V30 2816 H 269.7 2.24532 5.43009 0
M  V30 2817 H 271.224 1.45786 5.92941 0
M  V30 2818 H 272.638 3.34081 4.659 0
M  V30 2819 H 271.035 4.0865 4.3946 0
M  V30 2820 H 272.105 3.80163 3.01006 0
M  V30 2821 N 273.449 -1.08991 1.13837 0
M  V30 2822 C 274.697 -1.80899 0.901098 0
M  V30 2823 C 275.018 -1.86356 -0.574134 0
M  V30 2824 O 274.288 -1.35235 -1.41733 0
M  V30 2825 H 272.868 -0.669966 0.330386 0
M  V30 2826 H 275.53 -1.318 1.43578 0
M  V30 2827 H 274.626 -2.83929 1.29578 0
M  V30 2828 N 274.927 -0.932562 -1.27047 0
M  V30 2829 C 276.157 -0.591173 -1.97961 0
M  V30 2830 C 276.565 0.836219 -1.69717 0
M  V30 2831 O 275.908 1.56801 -0.957036 0
M  V30 2832 C 275.97 -0.743082 -3.51736 0
M  V30 2833 C 275.634 -2.1435 -4.03613 0
M  V30 2834 C 276.631 -3.11815 -4.16014 0
M  V30 2835 C 274.316 -2.46175 -4.37839 0
M  V30 2836 C 276.31 -4.39211 -4.61923 0
M  V30 2837 C 273.997 -3.73806 -4.83438 0
M  V30 2838 C 274.995 -4.70137 -4.95439 0
M  V30 2839 O 274.683 -5.95496 -5.40037 0
M  V30 2840 H 274.415 -0.222375 -0.638377 0
M  V30 2841 H 276.969 -1.25317 -1.62742 0
M  V30 2842 H 275.199 -0.0239739 -3.86693 0
M  V30 2843 H 276.888 -0.40603 -4.03864 0
M  V30 2844 H 277.654 -2.88549 -3.89826 0
M  V30 2845 H 273.533 -1.71936 -4.27737 0
M  V30 2846 H 277.077 -5.14404 -4.71205 0
M  V30 2847 H 272.974 -3.96888 -5.09068 0
M  V30 2848 H 273.742 -5.98554 -5.58279 0
M  V30 2849 N 276.405 1.4127 -0.698611 0
M  V30 2850 C 277.653 2.00782 -0.230409 0
M  V30 2851 C 277.974 1.5562 1.17505 0
M  V30 2852 O 277.244 0.78815 1.79346 0
M  V30 2853 H 275.824 0.742464 -0.0821944 0
M  V30 2854 H 278.486 1.72852 -0.90045 0
M  V30 2855 H 277.582 3.11095 -0.25021 0
M  V30 2856 N 277.883 0.443576 1.51229 0
M  V30 2857 C 279.108 -0.121648 2.07043 0
M  V30 2858 C 279.533 -1.35156 1.30823 0
M  V30 2859 O 278.891 -1.7793 0.347934 0
M  V30 2860 C 278.939 -0.41624 3.5819 0
M  V30 2861 O 278.043 -1.50163 3.8409 0
M  V30 2862 H 277.384 0.000871367 0.663999 0
M  V30 2863 H 279.914 0.626706 1.94765 0
M  V30 2864 H 279.924 -0.664867 4.02546 0
M  V30 2865 H 278.599 0.482653 4.1309 0
M  V30 2866 H 277.176 -1.24248 3.51592 0
M  V30 2867 N 279.361 -1.56624 0.175154 0
M  V30 2868 C 280.609 -1.96609 -0.467885 0
M  V30 2869 C 280.93 -1.06238 -1.63519 0
M  V30 2870 O 280.2 -0.129523 -1.95471 0
M  V30 2871 H 278.78 -0.726008 -0.175845 0
M  V30 2872 H 281.442 -1.93195 0.257234 0
M  V30 2873 H 280.538 -3.00989 -0.825342 0
M  V30 2874 N 280.839 0.0985539 -1.57292 0
M  V30 2875 C 282.085 0.803867 -1.86188 0
M  V30 2876 C 282.418 1.78549 -0.763794 0
M  V30 2877 O 281.693 1.93153 0.22855 0
M  V30 2878 C 281.976 1.53568 -3.25713 0
M  V30 2879 C 281.829 0.572277 -4.46145 0
M  V30 2880 C 283.148 2.48708 -3.63087 0
M  V30 2881 H 280.267 0.290781 -0.677211 0
M  V30 2882 H 282.909 0.0675783 -1.8988 0
M  V30 2883 H 281.059 2.16332 -3.22696 0
M  V30 2884 H 282.731 -0.0480894 -4.61275 0
M  V30 2885 H 280.974 -0.114618 -4.33649 0
M  V30 2886 H 281.645 1.12139 -5.40489 0
M  V30 2887 H 284.121 1.96039 -3.67026 0
M  V30 2888 H 282.997 2.96932 -4.61652 0
M  V30 2889 H 283.258 3.32309 -2.91588 0
M  V30 2890 N 282.317 1.53212 0.369288 0
M  V30 2891 C 283.267 1.75769 1.45222 0
M  V30 2892 C 284.251 0.612136 1.48801 0
M  V30 2893 O 285.443 0.870674 1.54105 0
M  V30 2894 C 282.572 1.94769 2.82701 0
M  V30 2895 C 281.658 3.15315 2.83615 0
M  V30 2896 N 282.049 4.37295 2.54178 0
M  V30 2897 C 280.347 3.15962 3.14776 0
M  V30 2898 C 281.048 5.19015 2.62675 0
M  V30 2899 N 280.024 4.55142 2.97232 0
M  V30 2900 H 283.826 2.67691 1.2132 0
M  V30 2901 H 281.34 1.51787 0.577438 0
M  V30 2902 H 283.337 2.09056 3.60696 0
M  V30 2903 H 281.997 1.04073 3.07569 0
M  V30 2904 H 283.008 4.65091 2.27839 0
M  V30 2905 H 279.685 2.35144 3.44983 0
M  V30 2906 H 281.075 6.26305 2.43294 0
M  V30 2907 N 283.795 -0.628877 1.44509 0
M  V30 2908 C 284.758 -1.72263 1.51188 0
M  V30 2909 C 285.758 -1.55907 0.39367 0
M  V30 2910 O 286.948 -1.61361 0.656377 0
M  V30 2911 C 284.08 -3.11365 1.38798 0
M  V30 2912 H 285.273 -1.67714 2.4862 0
M  V30 2913 H 282.826 -0.842737 1.31634 0
M  V30 2914 H 283.561 -3.21507 0.424693 0
M  V30 2915 H 283.346 -3.24644 2.19884 0
M  V30 2916 H 284.836 -3.91075 1.46458 0
M  V30 2917 N 285.273 -1.31445 -0.869486 0
M  V30 2918 C 286.684 -1.19042 -1.43826 0
M  V30 2919 C 287.035 0.202919 -1.95148 0
M  V30 2920 O 286.16 1.10071 -1.86315 0
M  V30 2921 C 286.755 -2.15499 -2.6143 0
M  V30 2922 C 285.314 -2.07028 -3.14351 0
M  V30 2923 C 284.461 -2.04701 -1.87063 0
M  V30 2924 H 287.412 -1.43489 -0.677984 0
M  V30 2925 H 287.433 -1.74488 -3.38134 0
M  V30 2926 H 286.945 -3.16899 -2.24046 0
M  V30 2927 H 285.046 -1.08825 -3.56354 0
M  V30 2928 H 285.159 -2.96157 -3.766 0
M  V30 2929 H 283.523 -1.49724 -2.06046 0
M  V30 2930 H 284.306 -3.07857 -1.51917 0
M  V30 2931 N 286.751 1.08385 -1.14413 0
M  V30 2932 C 287.999 1.80419 -0.910679 0
M  V30 2933 C 288.32 1.86658 0.564243 0
M  V30 2934 O 287.59 1.35985 1.41014 0
M  V30 2935 H 286.17 0.668204 -0.333934 0
M  V30 2936 H 288.832 1.31037 -1.44275 0
M  V30 2937 H 287.928 2.83238 -1.31082 0
M  V30 2938 N 288.23 0.939286 1.26551 0
M  V30 2939 C 289.646 0.641304 1.46149 0
M  V30 2940 C 289.846 -0.805964 1.84679 0
M  V30 2941 O 288.902 -1.58278 1.96734 0
M  V30 2942 C 290.215 1.6011 2.54529 0
M  V30 2943 C 291.763 1.6106 2.68382 0
M  V30 2944 C 292.238 2.55765 3.79932 0
M  V30 2945 N 293.729 2.5404 3.87322 0
M  V30 2946 C 294.464 3.24004 4.73085 0
M  V30 2947 N 293.96 4.03388 5.63249 0
M  V30 2948 N 295.753 3.12965 4.66914 0
M  V30 2949 H 287.904 1.87478 0.998285 0
M  V30 2950 H 290.167 0.805559 0.499779 0
M  V30 2951 H 289.873 2.63412 2.33039 0
M  V30 2952 H 289.747 1.35171 3.52149 0
M  V30 2953 H 292.134 0.584835 2.89247 0
M  V30 2954 H 292.215 1.90053 1.71212 0
M  V30 2955 H 291.859 3.58458 3.5982 0
M  V30 2956 H 291.789 2.24063 4.76554 0
M  V30 2957 H 294.28 1.96396 3.22858 0
M  V30 2958 H 294.593 4.5373 6.25579 0
M  V30 2959 H 292.938 4.07489 5.63008 0
M  V30 2960 H 296.129 2.50432 3.95476 0
M  V30 2961 H 296.302 3.67759 5.33533 0
M  V30 2962 N 289.708 -1.40897 0.706093 0
M  V30 2963 C 290.936 -2.05373 0.250887 0
M  V30 2964 C 291.351 -1.53172 -1.10381 0
M  V30 2965 O 290.708 -0.684305 -1.69185 0
M  V30 2966 C 290.759 -3.6088 0.211571 0
M  V30 2967 O 290.48 -4.11153 1.51276 0
M  V30 2968 C 291.981 -4.42517 -0.263346 0
M  V30 2969 H 289.201 -0.66115 0.114552 0
M  V30 2970 H 291.745 -1.80479 0.961635 0
M  V30 2971 H 289.9 -3.84777 -0.450073 0
M  V30 2972 H 290.314 -5.05279 1.40689 0
M  V30 2973 H 291.788 -5.51479 -0.239718 0
M  V30 2974 H 292.265 -4.19396 -1.30397 0
M  V30 2975 H 292.871 -4.23708 0.367677 0
M  V30 2976 N 291.186 -0.45159 -1.50991 0
M  V30 2977 C 292.463 0.170707 -1.94854 0
M  V30 2978 C 292.843 1.58788 -1.39103 0
M  V30 2979 O 292.191 2.20913 -0.583921 0
M  V30 2980 C 292.401 0.133929 -3.48743 0
M  V30 2981 C 293.749 0.33248 -4.23296 0
M  V30 2982 O 294.773 0.211403 -3.55572 0
M  V30 2983 O 293.632 0.57486 -5.43468 0
M  V30 2984 H 290.726 0.122264 -0.817912 0
M  V30 2985 H 293.272 -0.510594 -1.61836 0
M  V30 2986 H 292.044 -0.856283 -3.81816 0
M  V30 2987 H 291.667 0.857529 -3.88242 0
M  V30 2988 N 292.664 1.56529 -0.183458 0
M  V30 2989 C 294.075 1.83739 0.331177 0
M  V30 2990 C 294.426 1.10373 1.62211 0
M  V30 2991 O 293.551 0.36071 2.13373 0
M  V30 2992 C 294.146 3.33306 0.607646 0
M  V30 2993 C 292.705 3.60969 1.06668 0
M  V30 2994 C 291.852 2.77086 0.109029 0
M  V30 2995 H 294.803 1.53379 -0.407484 0
M  V30 2996 H 294.824 3.51444 1.45832 0
M  V30 2997 H 294.336 3.86677 -0.332086 0
M  V30 2998 H 292.437 3.13021 2.0211 0
M  V30 2999 H 292.55 4.69231 0.967447 0
M  V30 3000 H 290.914 2.47319 0.608714 0
M  V30 3001 H 291.697 3.33241 -0.82494 0
M  V30 3002 N 294.142 -0.090211 1.57342 0
M  V30 3003 C 295.388 -0.793982 1.86611 0
M  V30 3004 C 295.721 -1.78142 0.773252 0
M  V30 3005 O 294.996 -1.93271 -0.218304 0
M  V30 3006 C 295.279 -1.51839 3.26523 0
M  V30 3007 C 295.132 -0.548609 4.46442 0
M  V30 3008 C 296.451 -2.46779 3.64401 0
M  V30 3009 H 293.57 -0.287186 0.678744 0
M  V30 3010 H 296.212 -0.0575076 1.89913 0
M  V30 3011 H 294.362 -2.14617 3.23839 0
M  V30 3012 H 296.034 0.0725513 4.61243 0
M  V30 3013 H 294.277 0.137614 4.33582 0
M  V30 3014 H 294.948 -1.09271 5.41076 0
M  V30 3015 H 297.424 -1.94089 3.68061 0
M  V30 3016 H 296.3 -2.94479 4.63221 0
M  V30 3017 H 296.561 -3.30758 2.93346 0
M  V30 3018 N 295.62 -1.53406 -0.361157 0
M  V30 3019 C 296.583 -1.79479 -1.42548 0
M  V30 3020 C 297.583 -0.665327 -1.4639 0
M  V30 3021 O 298.773 -0.933549 -1.47073 0
M  V30 3022 C 295.905 -1.92087 -2.8163 0
M  V30 3023 H 297.098 -2.74538 -1.20701 0
M  V30 3024 H 294.651 -1.4455 -0.594546 0
M  V30 3025 H 295.386 -0.991099 -3.08784 0
M  V30 3026 H 295.171 -2.74241 -2.80239 0
M  V30 3027 H 296.661 -2.13836 -3.58697 0
M  V30 3028 N 297.098 0.621204 -1.44841 0
M  V30 3029 C 298.061 1.71459 -1.521 0
M  V30 3030 C 299.061 1.55696 -0.401933 0
M  V30 3031 O 300.251 1.61011 -0.664925 0
M  V30 3032 C 297.383 3.10624 -1.40447 0
M  V30 3033 H 298.576 1.66394 -2.49506 0
M  V30 3034 H 296.129 0.835745 -1.3208 0
M  V30 3035 H 296.864 3.21277 -0.441737 0
M  V30 3036 H 296.649 3.23473 -2.21602 0
M  V30 3037 H 298.139 3.90293 -1.4853 0
M  V30 3038 N 298.576 1.31904 0.862503 0
M  V30 3039 C 299.506 1.22782 1.98612 0
M  V30 3040 C 300.487 0.113362 1.69722 0
M  V30 3041 O 301.672 0.299218 1.91881 0
M  V30 3042 C 298.802 0.942058 3.34279 0
M  V30 3043 C 297.756 2.0169 3.77499 0
M  V30 3044 C 297.082 1.58369 5.10709 0
M  V30 3045 C 298.382 3.43096 3.93805 0
M  V30 3046 H 300.076 2.16788 2.06502 0
M  V30 3047 H 297.622 1.04366 0.992154 0
M  V30 3048 H 299.575 0.864818 4.1243 0
M  V30 3049 H 298.299 -0.0336603 3.26583 0
M  V30 3050 H 296.958 2.08416 3.01593 0
M  V30 3051 H 296.606 0.595628 4.99461 0
M  V30 3052 H 296.306 2.30279 5.40597 0
M  V30 3053 H 297.83 1.52067 5.91361 0
M  V30 3054 H 299.244 3.39003 4.62331 0
M  V30 3055 H 297.641 4.13288 4.35101 0
M  V30 3056 H 298.711 3.83334 2.96957 0
M  V30 3057 N 300.054 -1.07777 1.14986 0
M  V30 3058 C 301.47 -1.32373 0.891596 0
M  V30 3059 C 301.67 -1.9609 -0.463788 0
M  V30 3060 O 300.726 -2.21801 -1.20667 0
M  V30 3061 C 302.039 -2.21905 2.02925 0
M  V30 3062 C 303.587 -2.35367 2.06329 0
M  V30 3063 C 304.062 -3.28245 3.19405 0
M  V30 3064 N 305.553 -3.35824 3.19024 0
M  V30 3065 C 306.288 -4.07739 4.03158 0
M  V30 3066 N 305.784 -4.82306 4.97346 0
M  V30 3067 N 307.577 -4.03635 3.91197 0
M  V30 3068 H 299.728 -0.648039 2.02273 0
M  V30 3069 H 301.991 -0.348149 0.881757 0
M  V30 3070 H 301.697 -1.82342 3.0074 0
M  V30 3071 H 301.571 -3.22407 1.95789 0
M  V30 3072 H 303.958 -2.74186 1.09116 0
M  V30 3073 H 304.039 -1.34585 2.17533 0
M  V30 3074 H 303.683 -2.90146 4.16867 0
M  V30 3075 H 303.613 -4.28971 3.05437 0
M  V30 3076 H 306.104 -2.8267 2.50811 0
M  V30 3077 H 306.417 -5.34661 5.57994 0
M  V30 3078 H 304.762 -4.81337 5.01338 0
M  V30 3079 H 307.953 -3.44491 3.16928 0
M  V30 3080 H 308.126 -4.59417 4.5699 0
M  V30 3081 N 301.532 -0.945985 -1.26051 0
M  V30 3082 C 302.495 -0.463897 -2.24456 0
M  V30 3083 C 303.495 0.427655 -1.55009 0
M  V30 3084 O 304.685 0.226157 -1.72726 0
M  V30 3085 C 301.817 0.330812 -3.39291 0
M  V30 3086 H 303.01 -1.33357 -2.68619 0
M  V30 3087 H 300.563 -0.728416 -1.38289 0
M  V30 3088 H 301.298 1.21852 -3.00537 0
M  V30 3089 H 301.083 -0.308679 -3.90883 0
M  V30 3090 H 302.573 0.657865 -4.12386 0
M  V30 3091 N 303.011 1.40521 -0.713556 0
M  V30 3092 C 303.974 2.29098 -0.0684347 0
M  V30 3093 C 304.974 1.45268 0.689472 0
M  V30 3094 O 306.164 1.66205 0.521677 0
M  V30 3095 C 303.296 3.28446 0.913024 0
M  V30 3096 H 304.489 2.87645 -0.84855 0
M  V30 3097 H 302.042 1.48809 -0.47809 0
M  V30 3098 H 302.777 2.74913 1.72027 0
M  V30 3099 H 302.562 3.90327 0.372472 0
M  V30 3100 H 304.052 3.94777 1.36165 0
M  V30 3101 N 304.489 0.459591 1.5075 0
M  V30 3102 C 305.439 -0.358926 2.25157 0
M  V30 3103 C 306.423 -0.971285 1.28276 0
M  V30 3104 O 307.615 -0.885739 1.53244 0
M  V30 3105 C 304.744 -1.44695 3.11317 0
M  V30 3106 C 303.83 -0.842894 4.15639 0
M  V30 3107 N 304.221 0.0299373 5.05791 0
M  V30 3108 C 302.519 -1.10809 4.32015 0
M  V30 3109 C 303.22 0.371563 5.80512 0
M  V30 3110 N 302.196 -0.250409 5.43023 0
M  V30 3111 H 305.998 0.313636 2.92222 0
M  V30 3112 H 303.512 0.273021 1.60089 0
M  V30 3113 H 305.509 -2.04641 3.63218 0
M  V30 3114 H 304.169 -2.12162 2.45799 0
M  V30 3115 H 305.18 0.39797 5.16369 0
M  V30 3116 H 301.857 -1.7786 3.77719 0
M  V30 3117 H 303.247 1.08319 6.63111 0
M  V30 3118 N 305.967 -1.56429 0.191757 0
M  V30 3119 C 306.917 -2.15548 -0.743184 0
M  V30 3120 C 307.901 -1.09531 -1.17863 0
M  V30 3121 O 309.093 -1.35602 -1.13759 0
M  V30 3122 C 306.222 -2.81577 -1.96391 0
M  V30 3123 C 305.308 -3.9478 -1.54951 0
M  V30 3124 N 305.699 -4.98677 -0.845876 0
M  V30 3125 C 303.997 -4.06319 -1.83905 0
M  V30 3126 C 304.698 -5.78183 -0.638724 0
M  V30 3127 N 303.674 -5.30495 -1.18643 0
M  V30 3128 H 307.476 -2.9324 -0.196839 0
M  V30 3129 H 304.99 -1.62398 -0.0081603 0
M  V30 3130 H 306.987 -3.22321 -2.64415 0
M  V30 3131 H 305.647 -2.05371 -2.51501 0
M  V30 3132 H 306.658 -5.15464 -0.501704 0
M  V30 3133 H 303.335 -3.41238 -2.40548 0
M  V30 3134 H 304.725 -6.71851 -0.0807929 0
M  V30 3135 N 307.445 0.0818655 -1.57387 0
M  V30 3136 C 308.375 1.09885 -2.06028 0
M  V30 3137 C 309.356 1.4098 -0.951774 0
M  V30 3138 O 310.541 1.50781 -1.22387 0
M  V30 3139 C 307.671 2.4151 -2.4958 0
M  V30 3140 C 306.625 2.24792 -3.64215 0
M  V30 3141 C 305.951 3.61712 -3.93787 0
M  V30 3142 C 307.251 1.67749 -4.94629 0
M  V30 3143 H 308.945 0.694128 -2.91243 0
M  V30 3144 H 306.491 0.332448 -1.4011 0
M  V30 3145 H 308.444 3.12939 -2.82219 0
M  V30 3146 H 307.168 2.83943 -1.61381 0
M  V30 3147 H 305.827 1.55807 -3.31843 0
M  V30 3148 H 305.475 4.01697 -3.02735 0
M  V30 3149 H 305.175 3.51368 -4.70971 0
M  V30 3150 H 306.699 4.34587 -4.28913 0
M  V30 3151 H 308.113 2.29032 -5.25564 0
M  V30 3152 H 306.51 1.68128 -5.76067 0
M  V30 3153 H 307.58 0.638059 -4.80684 0
M  V30 3154 N 308.923 1.53595 0.353017 0
M  V30 3155 C 309.871 1.81605 1.45335 0
M  V30 3156 C 310.865 0.685923 1.54892 0
M  V30 3157 O 312.071 0.869095 1.57628 0
M  V30 3158 H 308.446 0.575204 0.484401 0
M  V30 3159 H 310.417 2.73679 1.18921 0
M  V30 3160 C 309.166 2.03406 2.81995 0
M  V30 3161 H 308.489 2.89814 2.75405 0
M  V30 3162 H 309.929 2.26975 3.58132 0
M  V30 3163 C 308.388 0.816794 3.26849 0
M  V30 3164 O 308.918 0.0115856 4.01698 0
M  V30 3165 N 307.124 0.636682 2.8354 0
M  V30 3166 H 306.671 1.2931 2.22793 0
M  V30 3167 H 306.629 -0.176336 3.13905 0
M  V30 3168 N 310.401 -0.613514 1.45168 0
M  V30 3169 C 311.331 -1.7354 1.56225 0
M  V30 3170 C 312.312 -1.64981 0.41414 0
M  V30 3171 O 313.497 -1.83472 0.636526 0
M  V30 3172 C 310.627 -3.12128 1.52295 0
M  V30 3173 C 309.581 -3.35491 2.65762 0
M  V30 3174 C 308.907 -4.74291 2.46885 0
M  V30 3175 C 310.207 -3.26325 4.0781 0
M  V30 3176 H 311.901 -1.64543 2.50132 0
M  V30 3177 H 309.447 -0.790185 1.20383 0
M  V30 3178 H 311.4 -3.90404 1.58628 0
M  V30 3179 H 310.124 -3.2195 0.549139 0
M  V30 3180 H 308.783 -2.59603 2.58847 0
M  V30 3181 H 308.431 -4.80839 1.47657 0
M  V30 3182 H 308.131 -4.9088 3.22972 0
M  V30 3183 H 309.655 -5.54775 2.55063 0
M  V30 3184 H 311.069 -3.94483 4.16 0
M  V30 3185 H 309.466 -3.54445 4.8424 0
M  V30 3186 H 310.536 -2.23855 4.30136 0
M  V30 3187 N 311.879 -1.3236 -0.855495 0
M  V30 3188 C 313.127 -1.22629 -1.60644 0
M  V30 3189 C 313.448 0.212136 -1.93843 0
M  V30 3190 O 312.718 1.13666 -1.59552 0
M  V30 3191 H 311.298 -0.450882 -0.595579 0
M  V30 3192 H 313.96 -1.65871 -1.02337 0
M  V30 3193 H 313.056 -1.80832 -2.54374 0
M  V30 3194 N 313.357 1.07166 -1.15556 0
M  V30 3195 C 314.307 2.12649 -0.82247 0
M  V30 3196 C 315.291 1.59725 0.194129 0
M  V30 3197 O 316.483 1.76999 -0.00540402 0
M  V30 3198 C 313.612 3.41847 -0.315572 0
M  V30 3199 C 312.698 4.0162 -1.36244 0
M  V30 3200 N 313.089 4.35625 -2.5703 0
M  V30 3201 C 311.387 4.29114 -1.21562 0
M  V30 3202 C 312.088 4.83017 -3.24144 0
M  V30 3203 N 311.064 4.81906 -2.51531 0
M  V30 3204 H 314.866 2.36776 -1.74111 0
M  V30 3205 H 312.38 1.24622 -1.0413 0
M  V30 3206 H 314.377 4.16859 -0.0585855 0
M  V30 3207 H 313.037 3.19163 0.597105 0
M  V30 3208 H 314.048 4.26253 -2.94158 0
M  V30 3209 H 310.725 4.15919 -0.362988 0
M  V30 3210 H 312.115 5.18605 -4.27198 0
M  V30 3211 N 314.835 0.952656 1.25548 0
M  V30 3212 C 316.083 0.605176 1.92826 0
M  V30 3213 C 316.404 -0.860261 1.74999 0
M  V30 3214 O 315.674 -1.6125 1.11244 0
M  V30 3215 H 314.254 0.220832 0.713612 0
M  V30 3216 H 316.916 1.21047 1.52754 0
M  V30 3217 H 316.012 0.832798 3.00784 0
M  V30 3218 N 316.313 -1.40141 0.720998 0
M  V30 3219 C 317.243 -2.33339 0.0867621 0
M  V30 3220 C 318.224 -1.53178 -0.739622 0
M  V30 3221 O 319.409 -1.81625 -0.687449 0
M  V30 3222 C 316.539 -3.37194 -0.831728 0
M  V30 3223 C 315.493 -4.27857 -0.110558 0
M  V30 3224 C 314.819 -5.22294 -1.14513 0
M  V30 3225 C 316.119 -5.11872 1.0385 0
M  V30 3226 H 317.813 -2.86626 0.865219 0
M  V30 3227 H 315.359 -1.37814 0.417516 0
M  V30 3228 H 317.312 -4.01335 -1.28485 0
M  V30 3229 H 316.036 -2.82314 -1.64214 0
M  V30 3230 H 314.695 -3.65176 0.322797 0
M  V30 3231 H 314.343 -4.63717 -1.94874 0
M  V30 3232 H 314.043 -5.83797 -0.667446 0
M  V30 3233 H 315.567 -5.89312 -1.59824 0
M  V30 3234 H 316.981 -5.69436 0.664482 0
M  V30 3235 H 315.378 -5.82445 1.4449 0
M  V30 3236 H 316.448 -4.4753 1.86668 0
M  V30 3237 N 317.792 -0.46758 -1.50504 0
M  V30 3238 C 318.755 0.317059 -2.26996 0
M  V30 3239 C 319.755 0.923513 -1.31635 0
M  V30 3240 O 320.945 0.793239 -1.55091 0
M  V30 3241 C 318.077 1.45134 -3.08462 0
M  V30 3242 H 319.27 -0.353723 -2.97807 0
M  V30 3243 H 316.823 -0.221545 -1.54722 0
M  V30 3244 H 317.558 2.15728 -2.4214 0
M  V30 3245 H 317.343 1.02232 -3.78538 0
M  V30 3246 H 318.833 2.00493 -3.66323 0
M  V30 3247 N 319.27 1.56325 -0.20005 0
M  V30 3248 C 320.516 1.98012 0.438059 0
M  V30 3249 C 320.849 1.08702 1.60927 0
M  V30 3250 O 320.124 0.140064 1.93995 0
M  V30 3251 C 320.407 3.48841 0.893419 0
M  V30 3252 C 320.26 4.48928 -0.279947 0
M  V30 3253 C 321.579 4.03498 1.75719 0
M  V30 3254 H 318.698 0.719918 0.157757 0
M  V30 3255 H 321.34 1.87743 -0.291968 0
M  V30 3256 H 319.49 3.57723 1.51547 0
M  V30 3257 H 321.162 4.52079 -0.91772 0
M  V30 3258 H 319.405 4.23694 -0.930919 0
M  V30 3259 H 320.076 5.5194 0.0812601 0
M  V30 3260 H 322.552 3.97427 1.23253 0
M  V30 3261 H 321.428 5.09393 2.04476 0
M  V30 3262 H 321.689 3.4906 2.71311 0
M  V30 3263 N 320.748 -0.0735177 1.57428 0
M  V30 3264 C 321.68 -1.11423 2.00294 0
M  V30 3265 C 322.693 -1.35084 0.908637 0
M  V30 3266 O 323.882 -1.33355 1.18654 0
M  V30 3267 C 320.982 -2.46548 2.32523 0
M  V30 3268 C 320.155 -2.42867 3.63778 0
M  V30 3269 C 319.214 -3.60087 3.83697 0
M  V30 3270 O 318.24 -3.41595 4.55304 0
M  V30 3271 N 319.442 -4.80372 3.25919 0
M  V30 3272 H 322.207 -0.749206 2.90184 0
M  V30 3273 H 319.768 -0.262195 1.59763 0
M  V30 3274 H 321.76 -3.23607 2.43024 0
M  V30 3275 H 320.33 -2.75059 1.48531 0
M  V30 3276 H 319.55 -1.51206 3.64047 0
M  V30 3277 H 320.838 -2.37506 4.49965 0
M  V30 3278 H 320.236 -4.983 2.67795 0
M  V30 3279 H 318.793 -5.54948 3.41871 0
M  V30 3280 N 322.226 -1.5378 -0.344866 0
M  V30 3281 C 323.189 -1.80981 -1.40637 0
M  V30 3282 C 324.189 -0.680816 -1.45676 0
M  V30 3283 O 325.379 -0.949095 -1.46075 0
M  V30 3284 C 322.511 -1.95063 -2.79577 0
M  V30 3285 H 323.704 -2.75803 -1.17783 0
M  V30 3286 H 321.257 -1.45173 -0.579181 0
M  V30 3287 H 321.992 -1.02379 -3.07716 0
M  V30 3288 H 321.777 -2.77198 -2.77315 0
M  V30 3289 H 323.267 -2.17629 -3.56409 0
M  V30 3290 N 323.704 0.605807 -1.45491 0
M  V30 3291 C 324.634 1.72709 -1.57143 0
M  V30 3292 C 325.615 1.6476 -0.422884 0
M  V30 3293 O 326.8 1.83132 -0.646247 0
M  V30 3294 C 323.93 3.11316 -1.53948 0
M  V30 3295 C 322.884 3.34077 -2.67537 0
M  V30 3296 C 322.21 4.72975 -2.49397 0
M  V30 3297 C 323.51 3.24158 -4.09535 0
M  V30 3298 H 325.204 1.63214 -2.51001 0
M  V30 3299 H 322.75 0.78379 -1.208 0
M  V30 3300 H 324.703 3.89557 -1.60696 0
M  V30 3301 H 323.427 3.21655 -0.566205 0
M  V30 3302 H 322.086 2.58227 -2.6022 0
M  V30 3303 H 321.734 4.8005 -1.50205 0
M  V30 3304 H 321.434 4.8916 -3.25571 0
M  V30 3305 H 322.958 5.53414 -2.58002 0
M  V30 3306 H 324.372 3.92271 -4.18086 0
M  V30 3307 H 322.769 3.51872 -4.86113 0
M  V30 3308 H 323.839 2.2157 -4.31317 0
M  V30 3309 N 325.182 1.32811 0.848464 0
M  V30 3310 C 326.598 1.11937 1.13764 0
M  V30 3311 C 326.798 -0.0960789 2.01271 0
M  V30 3312 O 325.854 -0.779165 2.40178 0
M  V30 3313 C 327.167 2.402 1.809 0
M  V30 3314 C 328.715 2.46016 1.93508 0
M  V30 3315 C 329.19 3.74215 2.64059 0
M  V30 3316 N 330.681 3.75232 2.71579 0
M  V30 3317 C 331.416 4.71134 3.26833 0
M  V30 3318 N 330.912 5.77406 3.8285 0
M  V30 3319 N 332.705 4.58623 3.24995 0
M  V30 3320 H 324.856 2.1073 0.265855 0
M  V30 3321 H 327.119 0.930671 0.180431 0
M  V30 3322 H 326.825 3.29093 1.24058 0
M  V30 3323 H 326.699 2.51628 2.81004 0
M  V30 3324 H 329.086 1.57577 2.49506 0
M  V30 3325 H 329.167 2.38536 0.923811 0
M  V30 3326 H 328.811 4.63031 2.08722 0
M  V30 3327 H 328.741 3.78968 3.65637 0
M  V30 3328 H 331.232 2.98423 2.31845 0
M  V30 3329 H 331.545 6.46632 4.23187 0
M  V30 3330 H 329.89 5.81152 3.81165 0
M  V30 3331 H 333.081 3.74762 2.80484 0
M  V30 3332 H 333.254 5.33535 3.67756 0
M  V30 3333 N 326.66 -1.06551 1.16123 0
M  V30 3334 C 327.937 -1.76097 0.85142 0
M  V30 3335 C 328.317 -2.00802 -0.6513 0
M  V30 3336 O 327.665 -1.63302 -1.59827 0
M  V30 3337 C 327.875 -3.06384 1.67122 0
M  V30 3338 C 329.223 -3.80585 1.88255 0
M  V30 3339 O 330.247 -3.16218 1.63966 0
M  V30 3340 O 329.106 -4.96212 2.2899 0
M  V30 3341 H 326.2 -0.765102 0.313923 0
M  V30 3342 H 328.746 -1.12844 1.26745 0
M  V30 3343 H 327.518 -2.84071 2.69108 0
M  V30 3344 H 327.141 -3.77371 1.25206 0
M  V30 3345 N 328.138 -0.959301 -1.25041 0
M  V30 3346 C 329.554 -0.664474 -1.4511 0
M  V30 3347 C 329.754 0.776481 -1.85938 0
M  V30 3348 O 328.81 1.55128 -1.99227 0
M  V30 3349 C 330.123 -1.64139 -2.5195 0
M  V30 3350 C 331.671 -1.65309 -2.65786 0
M  V30 3351 C 332.146 -2.61777 -3.75815 0
M  V30 3352 N 333.637 -2.60169 -3.83231 0
M  V30 3353 C 334.372 -3.31489 -4.6787 0
M  V30 3354 N 333.868 -4.12298 -5.56761 0
M  V30 3355 N 335.661 -3.20354 -4.61876 0
M  V30 3356 H 327.812 -1.89043 -0.968332 0
M  V30 3357 H 330.075 -0.813408 -0.4869 0
M  V30 3358 H 329.781 -2.67086 -2.28819 0
M  V30 3359 H 329.655 -1.40756 -3.49954 0
M  V30 3360 H 332.042 -0.630778 -2.8828 0
M  V30 3361 H 332.123 -1.92753 -1.68167 0
M  V30 3362 H 331.767 -3.64137 -3.54071 0
M  V30 3363 H 331.697 -2.31616 -4.72929 0
M  V30 3364 H 334.188 -2.01507 -3.19692 0
M  V30 3365 H 334.501 -4.63625 -6.18281 0
M  V30 3366 H 332.846 -4.16395 -5.56454 0
M  V30 3367 H 336.037 -2.56692 -3.91442 0
M  V30 3368 H 336.21 -3.76201 -5.27614 0
M  V30 3369 N 329.616 1.39756 -0.72842 0
M  V30 3370 C 330.546 2.33289 -0.0991354 0
M  V30 3371 C 331.527 1.53568 0.731489 0
M  V30 3372 O 332.712 1.81987 0.677807 0
M  V30 3373 C 329.842 3.3763 0.813834 0
M  V30 3374 C 328.796 4.2791 0.0878663 0
M  V30 3375 C 328.122 5.22894 1.11741 0
M  V30 3376 C 329.422 5.11314 -1.06563 0
M  V30 3377 H 331.116 2.86163 -0.880408 0
M  V30 3378 H 328.662 1.37591 -0.424819 0
M  V30 3379 H 330.615 4.0201 1.26355 0
M  V30 3380 H 329.339 2.83181 1.62715 0
M  V30 3381 H 327.998 3.65 -0.342159 0
M  V30 3382 H 327.646 4.64744 1.92412 0
M  V30 3383 H 327.346 5.84143 0.636477 0
M  V30 3384 H 328.87 5.90151 1.56697 0
M  V30 3385 H 330.284 5.69076 -0.694671 0
M  V30 3386 H 328.681 5.81671 -1.47577 0
M  V30 3387 H 329.751 4.46534 -1.89038 0
M  V30 3388 N 331.094 0.475555 1.50254 0
M  V30 3389 C 332.505 0.0215174 1.86688 0
M  V30 3390 C 332.856 -1.38467 1.39001 0
M  V30 3391 O 331.981 -2.02732 0.756894 0
M  V30 3392 C 332.576 0.0322715 3.38785 0
M  V30 3393 C 331.135 -0.366314 3.74613 0
M  V30 3394 C 330.282 0.415832 2.74164 0
M  V30 3395 H 333.233 0.689612 1.42934 0
M  V30 3396 H 333.254 -0.76889 3.7265 0
M  V30 3397 H 332.766 1.05584 3.73462 0
M  V30 3398 H 330.867 -1.39406 3.45538 0
M  V30 3399 H 330.98 -0.064555 4.79057 0
M  V30 3400 H 329.344 -0.131048 2.54363 0
M  V30 3401 H 330.127 1.43899 3.11686 0
M  V30 3402 N 332.573 -1.56217 0.208337 0
M  V30 3403 C 333.536 -2.18455 -0.693557 0
M  V30 3404 C 334.536 -1.14268 -1.13135 0
M  V30 3405 O 335.726 -1.39577 -1.0423 0
M  V30 3406 C 332.858 -2.79727 -1.94848 0
M  V30 3407 H 334.051 -2.99519 -0.15114 0
M  V30 3408 H 331.604 -1.56245 -0.041287 0
M  V30 3409 H 332.339 -2.02497 -2.53309 0
M  V30 3410 H 332.124 -3.56009 -1.64316 0
M  V30 3411 H 333.614 -3.27475 -2.59133 0
M  V30 3412 N 334.051 0.0651679 -1.57465 0
M  V30 3413 C 335.328 0.79644 -1.78651 0
M  V30 3414 C 335.708 1.95454 -0.797566 0
M  V30 3415 O 335.056 2.27882 0.167946 0
M  V30 3416 C 335.266 1.26322 -3.25337 0
M  V30 3417 C 336.614 1.6939 -3.89348 0
M  V30 3418 O 337.638 1.35872 -3.29268 0
M  V30 3419 O 336.497 2.31471 -4.95059 0
M  V30 3420 H 333.591 0.382157 -0.733407 0
M  V30 3421 H 336.137 0.0447311 -1.69641 0
M  V30 3422 H 334.909 0.434859 -3.88876 0
M  V30 3423 H 334.532 2.07604 -3.39096 0
M  V30 3424 N 335.529 1.53961 0.336706 0
M  V30 3425 C 336.492 1.81724 1.39675 0
M  V30 3426 C 337.492 0.688532 1.45313 0
M  V30 3427 O 338.682 0.956829 1.45569 0
M  V30 3428 C 335.814 1.96543 2.78538 0
M  V30 3429 H 337.007 2.76424 1.16318 0
M  V30 3430 H 334.56 1.45478 0.571474 0
M  V30 3431 H 335.295 1.0401 3.07168 0
M  V30 3432 H 335.08 2.78665 2.75841 0
M  V30 3433 H 336.57 2.19516 3.5525 0
M  V30 3434 N 337.007 -0.598083 1.45811 0
M  V30 3435 C 337.939 -1.72231 1.51225 0
M  V30 3436 C 338.952 -1.57757 0.402059 0
M  V30 3437 O 340.141 -1.65464 0.669624 0
M  V30 3438 C 337.241 -3.10331 1.3619 0
M  V30 3439 C 336.414 -3.50955 2.61054 0
M  V30 3440 C 335.473 -4.68055 2.40439 0
M  V30 3441 O 334.499 -4.74691 3.14097 0
M  V30 3442 N 335.701 -5.61941 1.45612 0
M  V30 3443 H 338.466 -1.68046 2.48154 0
M  V30 3444 H 336.027 -0.783637 1.41671 0
M  V30 3445 H 338.019 -3.86439 1.20195 0
M  V30 3446 H 336.589 -3.0897 0.475015 0
M  V30 3447 H 335.809 -2.64711 2.92099 0
M  V30 3448 H 337.097 -3.74858 3.44034 0
M  V30 3449 H 336.495 -5.59301 0.848431 0
M  V30 3450 H 335.052 -6.37542 1.35585 0
M  V30 3451 N 338.485 -1.33259 -0.841409 0
M  V30 3452 C 339.725 -1.25902 -1.61022 0
M  V30 3453 C 340.089 0.173325 -1.91216 0
M  V30 3454 O 341.29 0.370824 -2.6623 0
M  V30 3455 C 339.561 -2.10735 -2.88662 0
M  V30 3456 S 341.12 -2.20541 -3.79351 0
M  V30 3457 H 337.938 -0.447958 -0.552137 0
M  V30 3458 H 340.54 -1.68263 -0.995382 0
M  V30 3459 H 339.244 -3.1384 -2.64448 0
M  V30 3460 H 338.775 -1.69201 -3.55154 0
M  V30 3461 H 340.79 -1.36462 -4.77067 0
M  V30 3462 N 339.963 1.05934 -1.16686 0
M  V30 3463 C 341.188 1.83029 -0.975455 0
M  V30 3464 C 341.613 1.82096 0.471452 0
M  V30 3465 O 340.971 1.22443 1.33706 0
M  V30 3466 C 341.019 3.27372 -1.51195 0
M  V30 3467 O 340.123 4.06054 -0.720701 0
M  V30 3468 H 339.464 0.566194 -0.346872 0
M  V30 3469 H 341.994 1.33541 -1.55009 0
M  V30 3470 H 342.004 3.78186 -1.53099 0
M  V30 3471 H 340.679 3.27366 -2.56523 0
M  V30 3472 H 339.256 3.64812 -0.772458 0
M  V30 3473 N 341.441 0.965919 1.2453 0
M  V30 3474 C 342.687 0.62776 1.92839 0
M  V30 3475 C 343.02 -0.834694 1.75347 0
M  V30 3476 O 342.295 -1.60031 1.10546 0
M  V30 3477 C 342.578 1.00109 3.45905 0
M  V30 3478 C 342.431 2.52011 3.72573 0
M  V30 3479 C 343.75 0.53435 4.36844 0
M  V30 3480 H 340.869 0.229537 0.700344 0
M  V30 3481 H 343.511 1.2046 1.46933 0
M  V30 3482 H 341.661 0.510238 3.85135 0
M  V30 3483 H 343.333 3.08559 3.42912 0
M  V30 3484 H 341.576 2.95287 3.17786 0
M  V30 3485 H 342.247 2.73183 4.79661 0
M  V30 3486 H 344.723 0.955565 4.04979 0
M  V30 3487 H 343.599 0.824152 5.42678 0
M  V30 3488 H 343.86 -0.565589 4.38467 0
M  V30 3489 N 342.919 -1.39368 0.735821 0
M  V30 3490 C 344.147 -2.04795 0.294393 0
M  V30 3491 C 344.562 -1.55478 -1.07107 0
M  V30 3492 O 343.919 -0.720038 -1.67695 0
M  V30 3493 C 343.97 -3.6035 0.288071 0
M  V30 3494 O 343.691 -4.07852 1.59963 0
M  V30 3495 C 345.192 -4.42976 -0.169422 0
M  V30 3496 H 342.412 -0.658571 0.128551 0
M  V30 3497 H 344.956 -1.78399 0.999701 0
M  V30 3498 H 343.111 -3.85645 -0.368355 0
M  V30 3499 H 343.525 -5.02181 1.51375 0
M  V30 3500 H 344.999 -5.51864 -0.122687 0
M  V30 3501 H 345.476 -4.22068 -1.21472 0
M  V30 3502 H 346.082 -4.22832 0.457469 0
M  V30 3503 N 344.397 -0.483516 -1.5 0
M  V30 3504 C 345.327 0.293829 -2.31644 0
M  V30 3505 C 346.308 0.978864 -1.39112 0
M  V30 3506 O 347.493 0.973644 -1.68029 0
M  V30 3507 C 344.623 1.36897 -3.19181 0
M  V30 3508 C 343.577 0.804833 -4.20365 0
M  V30 3509 C 342.903 1.9792 -4.96721 0
M  V30 3510 C 344.203 -0.192313 -5.21946 0
M  V30 3511 H 345.897 -0.387616 -2.9688 0
M  V30 3512 H 343.443 -0.187856 -1.42769 0
M  V30 3513 H 345.396 1.92037 -3.751 0
M  V30 3514 H 344.12 2.07936 -2.51853 0
M  V30 3515 H 342.779 0.275319 -3.65565 0
M  V30 3516 H 342.427 2.67686 -4.25856 0
M  V30 3517 H 342.127 1.60789 -5.65173 0
M  V30 3518 H 343.651 2.53526 -5.55479 0
M  V30 3519 H 345.065 0.270333 -5.72662 0
M  V30 3520 H 343.462 -0.478543 -5.98189 0
M  V30 3521 H 344.532 -1.11409 -4.71928 0
M  V30 3522 N 345.875 1.56104 -0.216619 0
M  V30 3523 C 346.823 2.21434 0.712036 0
M  V30 3524 C 347.817 1.19218 1.20348 0
M  V30 3525 O 349.023 1.3731 1.16387 0
M  V30 3526 H 345.398 0.70992 0.248026 0
M  V30 3527 H 347.369 2.98083 0.137558 0
M  V30 3528 C 346.118 2.90434 1.91163 0
M  V30 3529 H 345.441 3.68842 1.54258 0
M  V30 3530 H 346.881 3.39552 2.5393 0
M  V30 3531 C 345.34 1.92635 2.76394 0
M  V30 3532 O 345.87 1.44017 3.74996 0
M  V30 3533 N 344.076 1.60392 2.42328 0
M  V30 3534 H 343.623 2.00122 1.622 0
M  V30 3535 H 343.581 0.952159 2.99635 0
M  V30 3536 N 347.353 -0.0568162 1.57498 0
M  V30 3537 C 348.602 -0.752001 1.87157 0
M  V30 3538 C 348.915 -1.77978 0.811375 0
M  V30 3539 O 350.121 -2.52559 0.996293 0
M  V30 3540 C 348.577 -1.38844 3.3204 0
M  V30 3541 C 348.185 -0.398456 4.46225 0
M  V30 3542 C 349.929 -2.06512 3.70882 0
M  V30 3543 C 347.836 -1.04166 5.82154 0
M  V30 3544 H 346.766 -0.28461 0.698222 0
M  V30 3545 H 349.417 -0.00561272 1.83499 0
M  V30 3546 H 347.799 -2.1836 3.30356 0
M  V30 3547 H 348.973 0.367977 4.59328 0
M  V30 3548 H 347.288 0.174592 4.16034 0
M  V30 3549 H 349.885 -2.55437 4.6974 0
M  V30 3550 H 350.228 -2.87117 3.01445 0
M  V30 3551 H 350.761 -1.33808 3.7462 0
M  V30 3552 H 347.5 -0.275614 6.5492 0
M  V30 3553 H 347.02 -1.7786 5.72823 0
M  V30 3554 H 348.699 -1.55715 6.27982 0
M  V30 3555 N 348.832 -1.54138 -0.328536 0
M  V30 3556 C 349.782 -1.79557 -1.4051 0
M  V30 3557 C 350.766 -0.651373 -1.47126 0
M  V30 3558 O 351.958 -0.911226 -1.51742 0
M  V30 3559 C 349.087 -2.02196 -2.77438 0
M  V30 3560 C 348.173 -3.22724 -2.75155 0
M  V30 3561 N 348.564 -4.43881 -2.42494 0
M  V30 3562 C 346.862 -3.24196 -3.06289 0
M  V30 3563 C 347.563 -5.25797 -2.48822 0
M  V30 3564 N 346.539 -4.62862 -2.8506 0
M  V30 3565 H 350.341 -2.70814 -1.1418 0
M  V30 3566 H 347.855 -1.53265 -0.536991 0
M  V30 3567 H 349.852 -2.18546 -3.55026 0
M  V30 3568 H 348.512 -1.12191 -3.04702 0
M  V30 3569 H 349.523 -4.70969 -2.15428 0
M  V30 3570 H 346.2 -2.44208 -3.38627 0
M  V30 3571 H 347.59 -6.32535 -2.26603 0
M  V30 3572 N 350.31 0.590341 -1.46126 0
M  V30 3573 C 351.26 1.69466 -1.5253 0
M  V30 3574 C 352.244 1.56179 -0.386917 0
M  V30 3575 O 353.436 1.65223 -0.634858 0
M  V30 3576 C 350.565 3.08245 -1.5113 0
M  V30 3577 C 349.651 3.26856 -2.70233 0
M  V30 3578 N 350.042 3.15657 -3.95214 0
M  V30 3579 C 348.34 3.57775 -2.66296 0
M  V30 3580 C 349.041 3.36066 -4.74799 0
M  V30 3581 N 348.017 3.60865 -4.06543 0
M  V30 3582 H 351.819 1.59326 -2.46966 0
M  V30 3583 H 349.333 0.79414 -1.41659 0
M  V30 3584 H 351.33 3.87492 -1.53804 0
M  V30 3585 H 349.99 3.19521 -0.577636 0
M  V30 3586 H 351.001 2.93686 -4.26578 0
M  V30 3587 H 347.678 3.75782 -1.81918 0
M  V30 3588 H 349.068 3.32655 -5.83772 0
M  V30 3589 N 351.788 1.33704 0.83433 0
M  V30 3590 C 353.034 1.25603 1.59222 0
M  V30 3591 C 353.367 -0.176659 1.93395 0
M  V30 3592 O 352.642 -1.11915 1.59076 0
M  V30 3593 C 352.925 2.13576 2.89926 0
M  V30 3594 C 352.778 3.65326 2.62406 0
M  V30 3595 C 354.097 2.01238 3.91397 0
M  V30 3596 H 351.216 0.457613 0.577719 0
M  V30 3597 H 353.858 1.63848 0.961972 0
M  V30 3598 H 352.008 1.8109 3.43713 0
M  V30 3599 H 353.68 4.08124 2.15017 0
M  V30 3600 H 351.923 3.8698 1.96033 0
M  V30 3601 H 352.594 4.22232 3.55562 0
M  V30 3602 H 355.07 2.29738 3.46929 0
M  V30 3603 H 353.946 2.65036 4.80673 0
M  V30 3604 H 354.207 0.985951 4.30966 0
M  V30 3605 N 353.266 -1.05314 1.17247 0
M  V30 3606 C 354.682 -1.30452 0.919473 0
M  V30 3607 C 354.882 -1.9703 -0.42209 0
M  V30 3608 O 353.938 -2.24311 -1.15935 0
M  V30 3609 C 355.251 -2.17551 2.07586 0
M  V30 3610 C 356.799 -2.30937 2.11275 0
M  V30 3611 C 357.274 -3.21396 3.26296 0
M  V30 3612 N 358.765 -3.28981 3.26076 0
M  V30 3613 C 359.5 -3.99095 4.11716 0
M  V30 3614 N 358.996 -4.71648 5.07465 0
M  V30 3615 N 360.789 -3.95247 3.9967 0
M  V30 3616 H 352.94 -0.604988 2.03602 0
M  V30 3617 H 355.203 -0.329368 0.888944 0
M  V30 3618 H 354.909 -1.75921 3.0454 0
M  V30 3619 H 354.783 -3.18182 2.02584 0
M  V30 3620 H 357.17 -2.71809 1.14907 0
M  V30 3621 H 357.251 -1.2994 2.20339 0
M  V30 3622 H 356.895 -2.81238 4.22927 0
M  V30 3623 H 356.825 -4.22395 3.14467 0
M  V30 3624 H 359.316 -2.77286 2.5675 0
M  V30 3625 H 359.629 -5.22705 5.6921 0
M  V30 3626 H 357.974 -4.70594 5.11435 0
M  V30 3627 H 361.165 -3.37691 3.24164 0
M  V30 3628 H 361.338 -4.4962 4.66632 0
M  V30 3629 N 354.744 -0.972509 -1.24016 0
M  V30 3630 C 356.155 -0.67517 -1.74064 0
M  V30 3631 C 356.506 0.808939 -1.78747 0
M  V30 3632 O 355.631 1.63286 -1.42009 0
M  V30 3633 C 356.226 -1.21889 -3.16115 0
M  V30 3634 C 354.785 -0.971358 -3.6365 0
M  V30 3635 C 353.932 -1.35134 -2.42145 0
M  V30 3636 H 356.883 -1.14727 -1.09651 0
M  V30 3637 H 356.904 -0.587489 -3.75937 0
M  V30 3638 H 356.416 -2.29906 -3.12674 0
M  V30 3639 H 354.517 0.0930686 -3.72484 0
M  V30 3640 H 354.63 -1.62039 -4.50866 0
M  V30 3641 H 352.994 -0.769751 -2.4279 0
M  V30 3642 H 353.777 -2.4411 -2.41381 0
M  V30 3643 N 356.222 1.38976 -0.743202 0
M  V30 3644 C 357.152 2.33171 -0.123873 0
M  V30 3645 C 358.133 1.54336 0.71516 0
M  V30 3646 O 359.318 1.82696 0.658467 0
M  V30 3647 C 356.448 3.38474 0.777978 0
M  V30 3648 C 355.402 4.27979 0.0424758 0
M  V30 3649 C 354.728 5.2405 1.06189 0
M  V30 3650 C 356.028 5.10155 -1.1198 0
M  V30 3651 H 357.722 2.85213 -0.910709 0
M  V30 3652 H 355.268 1.37133 -0.439388 0
M  V30 3653 H 357.221 4.03328 1.22084 0
M  V30 3654 H 355.945 2.84891 1.59702 0
M  V30 3655 H 354.604 3.64616 -0.380853 0
M  V30 3656 H 354.252 4.66758 1.87472 0
M  V30 3657 H 353.952 5.84785 0.574485 0
M  V30 3658 H 355.476 5.9178 1.50428 0
M  V30 3659 H 356.89 5.68307 -0.75499 0
M  V30 3660 H 355.287 5.80073 -1.53738 0
M  V30 3661 H 356.357 4.44504 -1.93764 0
M  V30 3662 N 357.7 0.491464 1.49741 0
M  V30 3663 C 358.928 -0.0535151 2.06831 0
M  V30 3664 C 359.343 -1.31683 1.35296 0
M  V30 3665 O 358.7 -1.77402 0.42836 0
M  V30 3666 C 358.751 -0.320835 3.60073 0
M  V30 3667 O 358.472 0.892394 4.28915 0
M  V30 3668 C 359.973 -0.910519 4.33848 0
M  V30 3669 H 357.193 0.0161909 0.670805 0
M  V30 3670 H 359.737 0.68609 1.92647 0
M  V30 3671 H 357.892 -1.0104 3.73991 0
M  V30 3672 H 358.306 0.649401 5.20464 0
M  V30 3673 H 359.78 -1.04721 5.41976 0
M  V30 3674 H 360.257 -1.90589 3.95692 0
M  V30 3675 H 360.863 -0.258712 4.24512 0
M  V30 3676 N 359.178 -1.55987 0.224894 0
M  V30 3677 C 360.455 -1.90232 -0.455083 0
M  V30 3678 C 360.835 -1.14269 -1.77499 0
M  V30 3679 O 360.183 -0.253079 -2.27094 0
M  V30 3680 C 360.393 -3.42993 -0.644758 0
M  V30 3681 C 361.741 -4.13821 -0.950669 0
M  V30 3682 O 362.765 -3.4861 -0.731423 0
M  V30 3683 O 361.624 -5.29128 -1.36695 0
M  V30 3684 H 358.718 -0.79108 -0.241084 0
M  V30 3685 H 361.264 -1.67581 0.267327 0
M  V30 3686 H 360.036 -3.90252 0.28613 0
M  V30 3687 H 359.659 -3.71434 -1.41853 0
M  V30 3688 N 360.656 0.0484629 -1.57525 0
M  V30 3689 C 361.881 0.759177 -1.93006 0
M  V30 3690 C 362.306 1.69125 -0.823317 0
M  V30 3691 O 361.664 1.79931 0.222364 0
M  V30 3692 C 361.712 1.50899 -3.27509 0
M  V30 3693 O 360.816 2.62112 -3.18388 0
M  V30 3694 H 360.157 0.205564 -0.631379 0
M  V30 3695 H 362.687 0.00972959 -2.04598 0
M  V30 3696 H 362.697 1.88317 -3.6194 0
M  V30 3697 H 361.372 0.825269 -4.0763 0
M  V30 3698 H 359.949 2.27379 -2.95556 0
M  V30 3699 N 362.134 1.5431 0.320358 0
M  V30 3700 C 363.044 1.86946 1.41734 0
M  V30 3701 C 364.06 0.761689 1.56443 0
M  V30 3702 O 365.236 1.05629 1.71477 0
M  V30 3703 C 362.301 2.09293 2.76401 0
M  V30 3704 C 361.362 3.33082 2.70841 0
M  V30 3705 C 360.595 3.54353 3.99086 0
M  V30 3706 O 360.818 2.79002 4.97508 0
M  V30 3707 O 359.752 4.47838 4.0215 0
M  V30 3708 H 363.578 2.80232 1.17062 0
M  V30 3709 H 361.163 1.40255 0.514673 0
M  V30 3710 H 363.045 2.25303 3.56113 0
M  V30 3711 H 361.72 1.19194 3.00956 0
M  V30 3712 H 360.627 3.22454 1.89668 0
M  V30 3713 H 361.96 4.23249 2.5124 0
M  V30 3714 N 363.613 -0.582584 1.46437 0
M  V30 3715 C 364.576 -1.67366 1.56592 0
M  V30 3716 C 365.576 -1.54575 0.443072 0
M  V30 3717 O 366.766 -1.59191 0.707381 0
M  V30 3718 C 363.898 -3.06791 1.48634 0
M  V30 3719 H 365.091 -1.5972 2.5383 0
M  V30 3720 H 362.644 -0.800432 1.34249 0
M  V30 3721 H 363.379 -3.19993 0.526763 0
M  V30 3722 H 363.164 -3.17484 2.30101 0
M  V30 3723 H 364.654 -3.86218 1.58826 0
M  V30 3724 N 365.091 -1.34144 -0.827227 0
M  V30 3725 C 366.368 -1.16844 -1.56865 0
M  V30 3726 C 366.748 0.260654 -2.09485 0
M  V30 3727 O 366.096 1.26138 -1.9053 0
M  V30 3728 C 366.306 -2.21939 -2.6934 0
M  V30 3729 C 367.654 -2.56695 -3.3822 0
M  V30 3730 O 368.678 -2.20695 -2.79593 0
M  V30 3731 O 367.537 -3.18518 -4.44082 0
M  V30 3732 H 364.631 -0.452669 -0.692112 0
M  V30 3733 H 367.177 -1.45763 -0.868973 0
M  V30 3734 H 365.949 -3.17882 -2.28182 0
M  V30 3735 H 365.572 -1.94172 -3.46962 0
M  V30 3736 N 366.569 1.04691 -1.17803 0
M  V30 3737 C 367.532 2.10724 -0.901545 0
M  V30 3738 C 368.532 1.6042 0.110437 0
M  V30 3739 O 369.722 1.7377 -0.122303 0
M  V30 3740 C 366.854 3.39084 -0.351409 0
M  V30 3741 H 368.047 2.36686 -1.84174 0
M  V30 3742 H 365.6 1.21015 -0.98919 0
M  V30 3743 H 366.335 3.18782 0.59569 0
M  V30 3744 H 366.12 3.76909 -1.08083 0
M  V30 3745 H 367.61 4.17227 -0.176451 0
M  V30 3746 N 368.047 0.979072 1.23499 0
M  V30 3747 C 369.324 0.563674 1.87302 0
M  V30 3748 C 369.704 -0.959199 1.88049 0
M  V30 3749 O 369.052 -1.83535 1.36114 0
M  V30 3750 C 369.262 1.16822 3.28867 0
M  V30 3751 C 370.61 1.26014 4.0547 0
M  V30 3752 O 371.634 1.12158 3.38082 0
M  V30 3753 O 370.493 1.48044 5.26066 0
M  V30 3754 H 367.587 0.189602 0.804972 0
M  V30 3755 H 370.133 1.07407 1.31384 0
M  V30 3756 H 368.905 2.21049 3.22883 0
M  V30 3757 H 368.528 0.642564 3.92373 0
M  V30 3758 N 369.525 -1.3858 0.750561 0
M  V30 3759 C 370.488 -2.28836 0.129152 0
M  V30 3760 C 371.488 -1.47045 -0.650714 0
M  V30 3761 O 372.678 -1.6753 -0.477428 0
M  V30 3762 C 369.81 -3.30751 -0.825622 0
M  V30 3763 H 371.003 -2.85294 0.924516 0
M  V30 3764 H 368.556 -1.47489 0.517376 0
M  V30 3765 H 369.291 -2.79378 -1.64677 0
M  V30 3766 H 369.076 -3.91177 -0.268852 0
M  V30 3767 H 370.566 -3.98249 -1.2565 0
M  V30 3768 N 371.003 -0.499398 -1.49478 0
M  V30 3769 C 372.249 0.0457576 -2.02748 0
M  V30 3770 C 372.582 1.36793 -1.37846 0
M  V30 3771 O 371.857 1.87596 -0.513601 0
M  V30 3772 C 372.14 0.199986 -3.59544 0
M  V30 3773 C 371.993 -1.1452 -4.34977 0
M  V30 3774 C 373.312 0.94137 -4.29914 0
M  V30 3775 H 370.431 0.0151552 -0.736844 0
M  V30 3776 H 373.073 -0.650498 -1.78518 0
M  V30 3777 H 371.223 0.793007 -3.8032 0
M  V30 3778 H 372.895 -1.77697 -4.25701 0
M  V30 3779 H 371.138 -1.73488 -3.97598 0
M  V30 3780 H 371.809 -0.990607 -5.43039 0
M  V30 3781 H 374.285 0.43844 -4.13784 0
M  V30 3782 H 373.161 1.01812 -5.39375 0
M  V30 3783 H 373.422 1.98471 -3.95046 0
M  V30 3784 N 372.481 1.55866 -0.233164 0
M  V30 3785 C 373.897 1.59133 0.121988 0
M  V30 3786 C 374.097 1.25016 1.58029 0
M  V30 3787 O 373.153 0.990922 2.32243 0
M  V30 3788 C 374.466 2.99932 -0.214792 0
M  V30 3789 C 376.014 3.12601 -0.157971 0
M  V30 3790 C 376.489 4.55597 -0.46859 0
M  V30 3791 N 377.98 4.61305 -0.418585 0
M  V30 3792 C 378.715 5.69903 -0.63227 0
M  V30 3793 N 378.211 6.86819 -0.90835 0
M  V30 3794 N 380.004 5.59264 -0.563913 0
M  V30 3795 H 372.155 1.76315 -1.18434 0
M  V30 3796 H 374.418 0.820093 -0.475553 0
M  V30 3797 H 374.124 3.29588 -1.22739 0
M  V30 3798 H 373.998 3.74327 0.464691 0
M  V30 3799 H 376.385 2.82735 0.845283 0
M  V30 3800 H 376.466 2.40511 -0.871102 0
M  V30 3801 H 376.11 4.86182 -1.46934 0
M  V30 3802 H 376.04 5.25928 0.265865 0
M  V30 3803 H 378.531 3.77297 -0.213368 0
M  V30 3804 H 378.844 7.65507 -1.05919 0
M  V30 3805 H 377.189 6.88536 -0.945673 0
M  V30 3806 H 380.38 4.66802 -0.348372 0
M  V30 3807 H 380.553 6.43831 -0.733847 0
M  V30 3808 N 373.959 -0.0401083 1.57549 0
M  V30 3809 C 375.375 -0.395556 1.54621 0
M  V30 3810 C 375.575 -1.77281 0.957799 0
M  V30 3811 O 374.631 -2.45888 0.574031 0
M  V30 3812 C 375.944 -0.307535 2.99123 0
M  V30 3813 C 377.492 -0.385425 3.10618 0
M  V30 3814 C 377.967 -0.326973 4.56831 0
M  V30 3815 N 379.458 -0.386102 4.61588 0
M  V30 3816 C 380.193 -0.363591 5.72246 0
M  V30 3817 N 379.689 -0.29402 6.92176 0
M  V30 3818 N 381.482 -0.412503 5.60584 0
M  V30 3819 H 373.633 0.861325 1.94152 0
M  V30 3820 H 375.896 0.326445 0.890021 0
M  V30 3821 H 375.602 0.638461 3.45856 0
M  V30 3822 H 375.476 -1.10552 3.60636 0
M  V30 3823 H 377.863 -1.32185 2.63839 0
M  V30 3824 H 377.944 0.44171 2.51957 0
M  V30 3825 H 377.588 0.605738 5.04275 0
M  V30 3826 H 377.518 -1.17207 5.13391 0
M  V30 3827 H 380.009 -0.442832 3.75296 0
M  V30 3828 H 380.322 -0.28164 7.72287 0
M  V30 3829 H 378.667 -0.260232 6.94513 0
M  V30 3830 H 381.858 -0.464769 4.65787 0
M  V30 3831 H 382.031 -0.391492 6.46816 0
M  V30 3832 N 375.437 -1.54477 -0.31217 0
M  V30 3833 C 376.686 -1.72438 -1.04633 0
M  V30 3834 C 376.999 -0.511163 -1.88803 0
M  V30 3835 O 378.205 -0.572341 -2.65399 0
M  V30 3836 C 376.661 -3.05043 -1.9099 0
M  V30 3837 C 376.269 -4.33806 -1.11877 0
M  V30 3838 C 378.013 -3.32364 -2.64073 0
M  V30 3839 C 375.92 -5.57467 -1.97445 0
M  V30 3840 H 374.85 -0.642647 -0.394361 0
M  V30 3841 H 377.501 -1.80966 -0.303929 0
M  V30 3842 H 375.883 -2.90451 -2.69173 0
M  V30 3843 H 377.057 -4.59199 -0.383843 0
M  V30 3844 H 375.372 -4.13336 -0.504252 0
M  V30 3845 H 377.969 -4.21951 -3.28423 0
M  V30 3846 H 378.312 -2.50745 -3.32314 0
M  V30 3847 H 378.845 -3.47875 -1.92944 0
M  V30 3848 H 375.584 -6.41722 -1.33692 0
M  V30 3849 H 375.104 -5.36277 -2.6864 0
M  V30 3850 H 376.783 -5.94303 -2.5576 0
M  V30 3851 N 376.915 0.57481 -1.46744 0
M  V30 3852 C 378.192 1.3352 -1.4294 0
M  V30 3853 C 378.572 2.10775 -0.117009 0
M  V30 3854 O 377.92 2.09966 0.901474 0
M  V30 3855 C 378.13 2.25456 -2.66403 0
M  V30 3856 C 379.478 2.87035 -3.12883 0
M  V30 3857 O 380.502 2.35766 -2.67007 0
M  V30 3858 O 379.361 3.80179 -3.92589 0
M  V30 3859 H 376.455 0.600318 -0.568812 0
M  V30 3860 H 379.001 0.595171 -1.58921 0
M  V30 3861 H 377.773 1.67851 -3.53471 0
M  V30 3862 H 377.396 3.06785 -2.52921 0
M  V30 3863 N 378.394 1.34581 0.820102 0
M  V30 3864 C 379.357 1.2628 1.91275 0
M  V30 3865 C 380.357 0.177344 1.59819 0
M  V30 3866 O 381.547 0.430156 1.68806 0
M  V30 3867 C 378.679 0.950327 3.27386 0
M  V30 3868 H 379.872 2.23421 2.00057 0
M  V30 3869 H 377.425 1.1891 1.0144 0
M  V30 3870 H 378.16 -0.0177938 3.24295 0
M  V30 3871 H 377.945 1.73549 3.51601 0
M  V30 3872 H 379.435 0.917492 4.07396 0
M  V30 3873 N 379.872 -1.04064 1.18357 0
M  V30 3874 C 380.802 -2.14001 0.934113 0
M  V30 3875 C 381.783 -1.69616 -0.128186 0
M  V30 3876 O 382.968 -1.94185 0.0244093 0
M  V30 3877 C 380.098 -3.44253 0.459066 0
M  V30 3878 C 379.052 -4.02261 1.46185 0
M  V30 3879 C 378.378 -5.27992 0.844322 0
M  V30 3880 C 379.678 -4.38432 2.83856 0
M  V30 3881 H 381.372 -2.35127 1.85352 0
M  V30 3882 H 378.918 -1.12998 0.892604 0
M  V30 3883 H 380.871 -4.20522 0.271907 0
M  V30 3884 H 379.595 -3.22813 -0.495912 0
M  V30 3885 H 378.254 -3.28074 1.63595 0
M  V30 3886 H 377.902 -5.02862 -0.117845 0
M  V30 3887 H 377.602 -5.67765 1.51384 0
M  V30 3888 H 379.126 -6.06938 0.667693 0
M  V30 3889 H 380.54 -5.05688 2.70098 0
M  V30 3890 H 378.937 -4.89254 3.47491 0
M  V30 3891 H 380.007 -3.4826 3.37406 0
M  V30 3892 N 381.35 -0.985608 -1.22978 0
M  V30 3893 C 382.313 -0.535071 -2.22867 0
M  V30 3894 C 383.313 0.378123 -1.56291 0
M  V30 3895 O 384.503 0.171092 -1.73358 0
M  V30 3896 C 381.635 0.222702 -3.40172 0
M  V30 3897 H 382.828 -1.41835 -2.6424 0
M  V30 3898 H 380.381 -0.772042 -1.35901 0
M  V30 3899 H 381.116 1.12229 -3.04262 0
M  V30 3900 H 380.901 -0.43288 -3.89703 0
M  V30 3901 H 382.391 0.526335 -4.1427 0
M  V30 3902 N 382.828 1.3818 -0.7579 0
M  V30 3903 C 383.776 2.32277 -0.122482 0
M  V30 3904 C 384.77 1.54238 0.700505 0
M  V30 3905 O 385.976 1.69737 0.599119 0
M  V30 3906 H 382.351 0.751712 -0.0208143 0
M  V30 3907 H 384.322 2.83469 -0.932099 0
M  V30 3908 C 383.071 3.39447 0.753076 0
M  V30 3909 H 382.394 3.99591 0.129184 0
M  V30 3910 H 383.834 4.07684 1.16489 0
M  V30 3911 C 382.293 2.78375 1.8976 0
M  V30 3912 O 382.823 2.68025 2.99208 0
M  V30 3913 N 381.029 2.36121 1.69397 0
M  V30 3914 H 380.576 2.4474 0.803762 0
M  V30 3915 H 380.534 1.95602 2.46145 0
M  V30 3916 N 384.306 0.507319 1.49211 0
M  V30 3917 C 385.722 0.163682 1.58758 0
M  V30 3918 C 385.922 -1.33208 1.51188 0
M  V30 3919 O 384.978 -2.10855 1.38911 0
M  V30 3920 C 386.291 0.746095 2.91297 0
M  V30 3921 C 387.839 0.712773 3.04776 0
M  V30 3922 C 388.314 1.27336 4.39943 0
M  V30 3923 N 389.805 1.23433 4.46451 0
M  V30 3924 C 390.54 1.63821 5.495 0
M  V30 3925 N 390.036 2.11832 6.5962 0
M  V30 3926 N 391.829 1.55198 5.4025 0
M  V30 3927 H 383.98 1.47972 1.52375 0
M  V30 3928 H 386.243 0.614147 0.722168 0
M  V30 3929 H 385.949 1.79534 3.02424 0
M  V30 3930 H 385.823 0.210137 3.76614 0
M  V30 3931 H 388.21 -0.327656 2.93275 0
M  V30 3932 H 388.291 1.28595 2.21127 0
M  V30 3933 H 387.935 2.3126 4.52196 0
M  V30 3934 H 387.865 0.676066 5.22242 0
M  V30 3935 H 390.356 0.882627 3.67448 0
M  V30 3936 H 390.669 2.40703 7.34358 0
M  V30 3937 H 389.014 2.1581 6.60644 0
M  V30 3938 H 392.205 1.17505 4.53112 0
M  V30 3939 H 392.378 1.86997 6.20432 0
M  V30 3940 N 385.784 -1.5574 0.241426 0
M  V30 3941 C 387.03 -1.99104 -0.385406 0
M  V30 3942 C 387.363 -1.1293 -1.57988 0
M  V30 3943 O 386.638 -0.191449 -1.93555 0
M  V30 3944 C 386.921 -3.51087 -0.800616 0
M  V30 3945 C 386.774 -4.48028 0.398874 0
M  V30 3946 C 388.093 -4.08015 -1.64959 0
M  V30 3947 H 385.212 -0.723848 -0.138614 0
M  V30 3948 H 387.854 -1.86903 0.341642 0
M  V30 3949 H 386.004 -3.61615 -1.4201 0
M  V30 3950 H 387.676 -4.49487 1.03726 0
M  V30 3951 H 385.919 -4.21077 1.04293 0
M  V30 3952 H 386.59 -5.51962 0.0651056 0
M  V30 3953 H 389.066 -4.00555 -1.12672 0
M  V30 3954 H 387.942 -5.14635 -1.90898 0
M  V30 3955 H 388.203 -3.56131 -2.61961 0
M  V30 3956 N 387.262 0.0317525 -1.57568 0
M  V30 3957 C 388.509 0.723104 -1.89149 0
M  V30 3958 C 388.837 1.75504 -0.838377 0
M  V30 3959 O 388.092 1.95037 0.160982 0
M  V30 3960 C 388.391 1.43167 -3.27472 0
M  V30 3961 C 388.057 0.535972 -4.47703 0
M  V30 3962 C 386.719 0.289262 -4.8033 0
M  V30 3963 C 389.071 -0.0826125 -5.21135 0
M  V30 3964 C 386.399 -0.584853 -5.83778 0
M  V30 3965 C 388.751 -0.944414 -6.25511 0
M  V30 3966 C 387.415 -1.20061 -6.56614 0
M  V30 3967 H 386.685 0.264602 -0.692146 0
M  V30 3968 H 389.332 -0.0169496 -1.91492 0
M  V30 3969 H 387.637 2.24497 -3.21105 0
M  V30 3970 H 389.334 1.97209 -3.49155 0
M  V30 3971 H 385.924 0.738414 -4.22191 0
M  V30 3972 H 390.108 0.0950302 -4.96209 0
M  V30 3973 H 385.364 -0.79168 -6.06253 0
M  V30 3974 H 389.538 -1.43026 -6.81554 0
M  V30 3975 H 387.165 -1.87967 -7.36595 0
M  V30 3976 N 388.74 1.54641 0.303973 0
M  V30 3977 C 389.968 1.77768 1.05858 0
M  V30 3978 C 390.383 0.535722 1.8104 0
M  V30 3979 O 389.74 -0.494337 1.75677 0
M  V30 3980 C 389.791 2.9834 2.04146 0
M  V30 3981 O 389.512 4.17736 1.32015 0
M  V30 3982 C 391.013 3.33832 2.91669 0
M  V30 3983 H 388.233 0.592961 0.314067 0
M  V30 3984 H 390.777 2.01583 0.344149 0
M  V30 3985 H 388.932 2.76742 2.71096 0
M  V30 3986 H 389.346 4.85693 1.97998 0
M  V30 3987 H 390.82 4.21448 3.56491 0
M  V30 3988 H 391.297 2.51857 3.59812 0
M  V30 3989 H 391.903 3.57579 2.30254 0
M  V30 3990 N 390.218 -0.567019 1.47046 0
M  V30 3991 C 391.466 -1.322 1.52864 0
M  V30 3992 C 391.787 -1.94088 0.188388 0
M  V30 3993 O 391.057 -1.7941 -0.786693 0
M  V30 3994 H 389.637 -0.490894 0.563056 0
M  V30 3995 H 392.299 -0.662879 1.83281 0
M  V30 3996 H 391.395 -2.12062 2.2899 0
M  V30 3997 N 391.696 -1.35014 -0.812953 0
M  V30 3998 C 393.107 -1.25035 -1.38648 0
M  V30 3999 C 393.458 0.119967 -1.95833 0
M  V30 4000 O 392.583 1.02069 -1.90816 0
M  V30 4001 C 393.178 -2.26394 -2.52054 0
M  V30 4002 C 391.737 -2.20175 -3.05287 0
M  V30 4003 C 390.884 -2.12451 -1.78213 0
M  V30 4004 H 393.835 -1.46235 -0.616516 0
M  V30 4005 H 393.856 -1.88672 -3.30429 0
M  V30 4006 H 393.368 -3.26116 -2.10404 0
M  V30 4007 H 391.469 -1.23841 -3.51417 0
M  V30 4008 H 391.582 -3.11863 -3.63701 0
M  V30 4009 H 389.946 -1.58328 -1.9951 0
M  V30 4010 H 390.729 -3.14024 -1.38723 0
M  V30 4011 N 393.175 1.03435 -1.18907 0
M  V30 4012 C 394.108 2.11162 -0.86521 0
M  V30 4013 C 395.086 1.6165 0.175473 0
M  V30 4014 O 396.27 1.88425 0.0530129 0
M  V30 4015 C 393.397 3.37423 -0.293868 0
M  V30 4016 C 392.443 4.05795 -1.31274 0
M  V30 4017 S 393.276 4.52027 -2.8711 0
M  V30 4018 C 394.432 5.81513 -2.31504 0
M  V30 4019 H 394.665 2.38308 -1.77754 0
M  V30 4020 H 392.198 1.16295 -1.01562 0
M  V30 4021 H 394.156 4.1049 0.0292572 0
M  V30 4022 H 392.817 3.0838 0.596682 0
M  V30 4023 H 392.01 4.96574 -0.86198 0
M  V30 4024 H 391.612 3.38874 -1.58242 0
M  V30 4025 H 393.904 6.55784 -1.70157 0
M  V30 4026 H 394.847 6.3136 -3.20608 0
M  V30 4027 H 395.255 5.36921 -1.74286 0
M  V30 4028 N 394.653 0.992116 1.22453 0
M  V30 4029 C 395.583 0.561677 2.26644 0
M  V30 4030 C 396.564 -0.411055 1.65059 0
M  V30 4031 O 397.749 -0.301861 1.9184 0
M  V30 4032 C 394.879 -0.125247 3.47074 0
M  V30 4033 C 393.833 0.765948 4.21091 0
M  V30 4034 C 393.159 -0.0538484 5.34673 0
M  V30 4035 C 394.459 2.06242 4.79856 0
M  V30 4036 H 396.153 1.43259 2.62902 0
M  V30 4037 H 393.699 0.690283 1.26377 0
M  V30 4038 H 395.652 -0.437764 4.1912 0
M  V30 4039 H 394.376 -1.03069 3.0991 0
M  V30 4040 H 393.035 1.0621 3.50878 0
M  V30 4041 H 392.683 -0.960188 4.9375 0
M  V30 4042 H 392.383 0.539415 5.85119 0
M  V30 4043 H 393.907 -0.360477 6.09535 0
M  V30 4044 H 395.321 1.8139 5.43848 0
M  V30 4045 H 393.718 2.60444 5.40638 0
M  V30 4046 H 394.788 2.74167 3.99951 0
M  V30 4047 N 396.131 -1.37776 0.765217 0
M  V30 4048 C 397.063 -2.28958 0.105361 0
M  V30 4049 C 398.076 -1.48316 -0.67128 0
M  V30 4050 O 399.265 -1.71046 -0.51045 0
M  V30 4051 C 396.365 -3.27421 -0.874569 0
M  V30 4052 C 395.538 -4.37132 -0.153123 0
M  V30 4053 C 394.597 -5.1571 -1.04547 0
M  V30 4054 O 393.623 -5.66896 -0.511672 0
M  V30 4055 N 394.825 -5.29808 -2.37243 0
M  V30 4056 H 397.59 -2.86227 0.888495 0
M  V30 4057 H 395.151 -1.49682 0.617 0
M  V30 4058 H 397.143 -3.7687 -1.47483 0
M  V30 4059 H 395.713 -2.70967 -1.55871 0
M  V30 4060 H 394.933 -3.89166 0.627975 0
M  V30 4061 H 396.221 -5.07625 0.345643 0
M  V30 4062 H 395.619 -4.89793 -2.83054 0
M  V30 4063 H 394.176 -5.82589 -2.9229 0
M  V30 4064 N 397.609 -0.515225 -1.4894 0
M  V30 4065 C 398.857 0.0241671 -2.02086 0
M  V30 4066 C 399.178 1.3616 -1.3959 0
M  V30 4067 O 398.448 1.87841 -0.556121 0
M  V30 4068 H 397.028 0.0119203 -0.746905 0
M  V30 4069 H 399.69 -0.675702 -1.82812 0
M  V30 4070 H 398.786 0.143385 -3.1177 0
M  V30 4071 N 399.087 1.5561 -0.249682 0
M  V30 4072 C 400.05 2.20217 0.635394 0
M  V30 4073 C 401.05 1.17227 1.10066 0
M  V30 4074 O 402.24 1.42292 1.00492 0
M  V30 4075 C 399.372 2.84794 1.87363 0
M  V30 4076 H 400.565 2.99814 0.0716752 0
M  V30 4077 H 398.118 1.563 -0.000153234 0
M  V30 4078 H 398.853 2.09142 2.47851 0
M  V30 4079 H 398.638 3.60241 1.5482 0
M  V30 4080 H 400.128 3.3423 2.5036 0
M  V30 4081 N 400.565 -0.0233959 1.57583 0
M  V30 4082 C 401.795 -0.723631 1.93513 0
M  V30 4083 C 402.203 -1.69115 0.848333 0
M  V30 4084 O 401.546 -1.82781 -0.183484 0
M  V30 4085 C 401.608 -1.53075 3.25282 0
M  V30 4086 C 401.272 -0.727388 4.51174 0
M  V30 4087 C 402.269 -0.0251924 5.19894 0
M  V30 4088 C 399.954 -0.680256 4.97672 0
M  V30 4089 C 401.948 0.713374 6.33395 0
M  V30 4090 C 399.635 0.0620523 6.11068 0
M  V30 4091 C 400.633 0.757622 6.78785 0
M  V30 4092 O 400.321 1.48787 7.90011 0
M  V30 4093 H 400.053 -0.208051 0.643188 0
M  V30 4094 H 402.607 0.0167489 2.05393 0
M  V30 4095 H 400.837 -2.31508 3.09744 0
M  V30 4096 H 402.526 -2.11413 3.46496 0
M  V30 4097 H 403.292 -0.0526003 4.84971 0
M  V30 4098 H 399.171 -1.21116 4.44805 0
M  V30 4099 H 402.715 1.25683 6.86185 0
M  V30 4100 H 398.612 0.0913634 6.45435 0
M  V30 4101 H 399.38 1.40213 8.06401 0
M  V30 4102 N 402.043 -1.548 -0.295768 0
M  V30 4103 C 403.454 -1.65274 -0.868411 0
M  V30 4104 C 403.805 -0.56481 -1.87894 0
M  V30 4105 O 402.93 0.29767 -2.14343 0
M  V30 4106 C 403.525 -2.99603 -1.58188 0
M  V30 4107 C 402.084 -3.12181 -2.10286 0
M  V30 4108 C 401.231 -2.6098 -0.93727 0
M  V30 4109 H 404.182 -1.58534 -0.0726422 0
M  V30 4110 H 404.203 -2.91319 -2.44772 0
M  V30 4111 H 403.715 -3.78764 -0.846151 0
M  V30 4112 H 401.816 -2.3775 -2.8689 0
M  V30 4113 H 401.929 -4.18415 -2.33379 0
M  V30 4114 H 400.293 -2.17564 -1.32431 0
M  V30 4115 H 401.076 -3.42623 -0.215414 0
M  V30 4116 N 403.521 0.559213 -1.47345 0
M  V30 4117 C 404.431 1.69388 -1.62311 0
M  V30 4118 C 405.447 1.6648 -0.505993 0
M  V30 4119 O 406.623 1.85964 -0.773262 0
M  V30 4120 C 403.688 3.05894 -1.63185 0
M  V30 4121 C 402.749 3.19885 -2.86307 0
M  V30 4122 C 401.982 4.49879 -2.87131 0
M  V30 4123 O 402.205 5.35217 -1.97229 0
M  V30 4124 O 401.139 4.67618 -3.78968 0
M  V30 4125 H 404.965 1.59706 -2.58317 0
M  V30 4126 H 402.55 0.728989 -1.30407 0
M  V30 4127 H 404.432 3.87133 -1.66451 0
M  V30 4128 H 403.107 3.15964 -0.70345 0
M  V30 4129 H 402.014 2.38052 -2.88587 0
M  V30 4130 H 403.347 3.14718 -3.78435 0
M  V30 4131 N 404.999 1.35443 0.805782 0
M  V30 4132 C 406.276 1.19325 1.54987 0
M  V30 4133 C 406.656 -0.227294 2.09873 0
M  V30 4134 O 406.004 -1.2309 1.92512 0
M  V30 4135 C 406.214 2.26196 2.65775 0
M  V30 4136 C 407.562 2.62043 3.34094 0
M  V30 4137 O 408.586 2.25115 2.76046 0
M  V30 4138 O 407.445 3.25542 4.38958 0
M  V30 4139 H 404.539 0.463623 0.684823 0
M  V30 4140 H 407.085 1.47127 0.845674 0
M  V30 4141 H 405.857 3.21471 2.23096 0
M  V30 4142 H 405.48 1.99667 3.43829 0
M  V30 4143 N 406.477 -1.02803 1.19454 0
M  V30 4144 C 407.407 -2.12999 0.956758 0
M  V30 4145 C 408.388 -1.69743 -0.110188 0
M  V30 4146 O 409.573 -1.94148 0.0450038 0
M  V30 4147 C 406.703 -3.43746 0.495553 0
M  V30 4148 C 405.657 -4.00688 1.50443 0
M  V30 4149 C 404.983 -5.27067 0.900275 0
M  V30 4150 C 406.283 -4.35397 2.8849 0
M  V30 4151 H 407.977 -2.33148 1.87836 0
M  V30 4152 H 405.523 -1.12045 0.904539 0
M  V30 4153 H 407.476 -4.2021 0.316493 0
M  V30 4154 H 406.2 -3.23321 -0.461646 0
M  V30 4155 H 404.859 -3.2632 1.67065 0
M  V30 4156 H 404.507 -5.02959 -0.064503 0
M  V30 4157 H 404.207 -5.66127 1.57397 0
M  V30 4158 H 405.731 -6.06196 0.73203 0
M  V30 4159 H 407.145 -5.02795 2.75446 0
M  V30 4160 H 405.542 -4.85541 3.52661 0
M  V30 4161 H 406.612 -3.44662 3.41081 0
M  V30 4162 N 407.956 -0.998596 -1.21925 0
M  V30 4163 C 409.202 -0.678667 -1.91107 0
M  V30 4164 C 409.535 0.78791 -1.77498 0
M  V30 4165 O 408.81 1.57043 -1.1475 0
M  V30 4166 C 409.093 -1.09245 -3.43129 0
M  V30 4167 C 408.946 -2.61801 -3.6576 0
M  V30 4168 C 410.265 -0.649984 -4.35274 0
M  V30 4169 H 407.384 -0.248025 -0.694012 0
M  V30 4170 H 410.026 -1.24314 -1.43688 0
M  V30 4171 H 408.176 -0.612171 -3.83647 0
M  V30 4172 H 409.848 -3.17543 -3.34611 0
M  V30 4173 H 408.091 -3.03609 -3.09845 0
M  V30 4174 H 408.762 -2.85804 -4.7225 0
M  V30 4175 H 411.238 -1.0626 -4.02303 0
M  V30 4176 H 410.114 -0.967743 -5.40302 0
M  V30 4177 H 410.375 0.449139 -4.39813 0
M  V30 4178 N 409.434 1.37368 -0.772513 0
M  V30 4179 C 410.381 2.30262 -0.157488 0
M  V30 4180 C 411.351 1.51137 0.688965 0
M  V30 4181 O 412.536 1.79704 0.641168 0
M  V30 4182 C 409.676 3.37611 0.715045 0
M  V30 4183 C 408.789 4.31746 -0.148098 0
M  V30 4184 C 407.924 5.26171 0.729213 0
M  V30 4185 C 406.963 6.11948 -0.136418 0
M  V30 4186 N 406.1 6.98613 0.698914 0
M  V30 4187 H 410.94 2.82277 -0.955179 0
M  V30 4188 H 408.477 1.38957 -0.482631 0
M  V30 4189 H 410.435 3.98479 1.23575 0
M  V30 4190 H 409.065 2.86959 1.47833 0
M  V30 4191 H 408.117 3.72178 -0.786613 0
M  V30 4192 H 409.429 4.92084 -0.81579 0
M  V30 4193 H 408.583 5.92247 1.31637 0
M  V30 4194 H 407.322 4.66246 1.43059 0
M  V30 4195 H 406.327 5.4485 -0.736102 0
M  V30 4196 H 407.552 6.73945 -0.835134 0
M  V30 4197 H 405.498 6.41215 1.38489 0
M  V30 4198 H 405.415 7.55948 0.0885358 0
M  V30 4199 H 406.683 7.69077 1.27044 0
M  V30 4200 N 410.912 0.523116 1.48665 0
M  V30 4201 C 412.189 -0.0775449 1.95446 0
M  V30 4202 C 412.569 -1.5197 1.4652 0
M  V30 4203 O 411.917 -2.17876 0.688657 0
M  V30 4204 C 412.127 0.0326135 3.48985 0
M  V30 4205 C 413.475 -0.130141 4.24401 0
M  V30 4206 O 414.499 -0.0415142 3.56176 0
M  V30 4207 O 413.358 -0.31491 5.45592 0
M  V30 4208 H 410.452 -0.0831012 0.822814 0
M  V30 4209 H 412.998 0.587227 1.59216 0
M  V30 4210 H 411.77 1.03748 3.77296 0
M  V30 4211 H 411.393 -0.671317 3.91892 0
M  V30 4212 N 412.39 -1.55475 0.257931 0
M  V30 4213 C 413.618 -2.03609 -0.367559 0
M  V30 4214 C 414.033 -1.13687 -1.50734 0
M  V30 4215 O 413.39 -0.153479 -1.81853 0
M  V30 4216 C 413.441 -3.51001 -0.864908 0
M  V30 4217 O 413.162 -4.37499 0.229465 0
M  V30 4218 C 414.663 -4.14946 -1.55997 0
M  V30 4219 H 411.883 -0.665459 -0.0860521 0
M  V30 4220 H 414.427 -2.00843 0.385014 0
M  V30 4221 H 412.582 -3.54266 -1.56762 0
M  V30 4222 H 412.996 -5.24286 -0.14998 0
M  V30 4223 H 414.47 -5.19735 -1.85956 0
M  V30 4224 H 414.947 -3.6209 -2.4857 0
M  V30 4225 H 415.553 -4.15635 -0.901543 0
M  V30 4226 N 413.868 0.0150385 -1.57593 0
M  V30 4227 C 414.831 0.995996 -2.06428 0
M  V30 4228 C 415.831 1.2818 -0.970903 0
M  V30 4229 O 417.021 1.22949 -1.23406 0
M  V30 4230 C 414.153 2.32506 -2.49307 0
M  V30 4231 H 415.346 0.573873 -2.94358 0
M  V30 4232 H 412.899 0.262186 -1.54085 0
M  V30 4233 H 413.634 2.79438 -1.64575 0
M  V30 4234 H 413.419 2.13087 -3.29145 0
M  V30 4235 H 414.909 3.02906 -2.87468 0
M  V30 4236 N 415.346 1.54954 0.287554 0
M  V30 4237 C 416.594 1.74528 1.01904 0
M  V30 4238 C 416.915 0.541349 1.87335 0
M  V30 4239 O 416.185 -0.444108 1.908 0
M  V30 4240 H 414.765 0.643576 0.379235 0
M  V30 4241 H 417.427 1.92333 0.315294 0
M  V30 4242 H 416.523 2.64015 1.6644 0
M  V30 4243 N 416.824 -0.551391 1.4764 0
M  V30 4244 C 417.754 -1.66757 1.63445 0
M  V30 4245 C 418.735 -1.63077 0.483742 0
M  V30 4246 O 419.92 -1.80607 0.71377 0
M  V30 4247 C 417.05 -3.05387 1.65396 0
M  V30 4248 C 416.004 -3.23918 2.79752 0
M  V30 4249 C 415.33 -4.63393 2.66779 0
M  V30 4250 C 416.63 -3.08735 4.21284 0
M  V30 4251 H 418.324 -1.53786 2.56886 0
M  V30 4252 H 415.87 -0.738415 1.23626 0
M  V30 4253 H 417.823 -3.83325 1.75043 0
M  V30 4254 H 416.547 -3.19332 0.685195 0
M  V30 4255 H 415.206 -2.48391 2.69625 0
M  V30 4256 H 414.854 -4.74144 1.67918 0
M  V30 4257 H 414.554 -4.7674 3.43501 0
M  V30 4258 H 416.078 -5.43458 2.78364 0
M  V30 4259 H 417.492 -3.76484 4.32357 0
M  V30 4260 H 415.889 -3.33588 4.98838 0
M  V30 4261 H 416.959 -2.0541 4.39243 0
M  V30 4262 N 418.302 -1.35869 -0.798587 0
M  V30 4263 C 419.53 -1.32722 -1.58722 0
M  V30 4264 C 419.945 0.0935631 -1.88568 0
M  V30 4265 O 419.302 1.04784 -1.49421 0
M  V30 4266 C 419.353 -2.13974 -2.91371 0
M  V30 4267 O 419.074 -3.50514 -2.62815 0
M  V30 4268 C 420.575 -2.18504 -3.85708 0
M  V30 4269 H 417.795 -0.45562 -0.492596 0
M  V30 4270 H 420.339 -1.78837 -0.991843 0
M  V30 4271 H 418.494 -1.71438 -3.47402 0
M  V30 4272 H 418.908 -3.92806 -3.47568 0
M  V30 4273 H 420.382 -2.79732 -4.75872 0
M  V30 4274 H 420.859 -1.18597 -4.22885 0
M  V30 4275 H 421.465 -2.61236 -3.35612 0
M  V30 4276 N 419.78 1.02168 -1.19998 0
M  V30 4277 C 421.057 1.72816 -0.916191 0
M  V30 4278 C 421.437 2.03081 0.576325 0
M  V30 4279 O 420.785 1.69122 1.53656 0
M  V30 4280 C 420.995 2.9997 -1.78378 0
M  V30 4281 C 422.343 3.73336 -2.02251 0
M  V30 4282 O 423.367 3.09914 -1.75589 0
M  V30 4283 O 422.226 4.87371 -2.47249 0
M  V30 4284 H 419.32 0.752924 -0.342103 0
M  V30 4285 H 421.866 1.08062 -1.30846 0
M  V30 4286 H 420.638 2.73888 -2.79466 0
M  V30 4287 H 420.261 3.72464 -1.39126 0
M  V30 4288 N 421.258 1.00505 1.21394 0
M  V30 4289 C 422.504 0.698477 1.91031 0
M  V30 4290 C 422.859 -0.762448 1.76648 0
M  V30 4291 O 422.152 -1.54554 1.13241 0
M  V30 4292 C 422.346 1.0546 3.41486 0
M  V30 4293 C 422.175 2.5486 3.70508 0
M  V30 4294 C 420.945 3.21461 3.8986 0
M  V30 4295 C 423.143 3.53019 3.74008 0
M  V30 4296 N 421.125 4.60211 4.06299 0
M  V30 4297 C 422.496 4.77279 3.95733 0
M  V30 4298 C 424.551 3.47154 3.56915 0
M  V30 4299 C 423.254 5.96388 4.02137 0
M  V30 4300 C 425.28 4.65652 3.64585 0
M  V30 4301 C 424.642 5.88717 3.86771 0
M  V30 4302 H 420.741 0.30707 0.719189 0
M  V30 4303 H 423.325 1.28753 1.46051 0
M  V30 4304 H 421.496 0.494007 3.85246 0
M  V30 4305 H 423.228 0.702765 3.98552 0
M  V30 4306 H 419.983 2.71906 3.87768 0
M  V30 4307 H 420.407 5.32216 4.1842 0
M  V30 4308 H 425.049 2.53015 3.38738 0
M  V30 4309 H 422.767 6.90919 4.19114 0
M  V30 4310 H 426.353 4.62717 3.52681 0
M  V30 4311 H 425.233 6.78877 3.92549 0
M  V30 4312 N 422.737 -1.36956 0.779787 0
M  V30 4313 C 423.962 -2.04283 0.358224 0
M  V30 4314 C 424.387 -1.58422 -1.01411 0
M  V30 4315 O 423.745 -0.748179 -1.65142 0
M  V30 4316 C 423.793 -3.58152 0.419479 0
M  V30 4317 O 422.897 -4.08342 -0.577142 0
M  V30 4318 H 422.238 -0.645967 0.153698 0
M  V30 4319 H 424.768 -1.75108 1.05822 0
M  V30 4320 H 424.778 -4.07041 0.279636 0
M  V30 4321 H 423.453 -3.90886 1.42061 0
M  V30 4322 H 422.03 -3.70751 -0.399755 0
M  V30 4323 N 424.215 -0.530993 -1.48385 0
M  V30 4324 C 425.462 0.0027373 -2.025 0
M  V30 4325 C 425.79 1.34186 -1.40799 0
M  V30 4326 O 425.045 1.88 -0.543544 0
M  V30 4327 C 425.344 0.172742 -3.56982 0
M  V30 4328 C 425.01 -1.09215 -4.37473 0
M  V30 4329 C 423.672 -1.43881 -4.59186 0
M  V30 4330 C 426.024 -1.93153 -4.84088 0
M  V30 4331 C 423.352 -2.62381 -5.2476 0
M  V30 4332 C 425.704 -3.10833 -5.50968 0
M  V30 4333 C 424.368 -3.45843 -5.70919 0
M  V30 4334 H 423.638 0.00100165 -0.740999 0
M  V30 4335 H 426.285 -0.697219 -1.78357 0
M  V30 4336 H 424.59 0.955473 -3.79971 0
M  V30 4337 H 426.287 0.600642 -3.96476 0
M  V30 4338 H 422.877 -0.812177 -4.20834 0
M  V30 4339 H 427.061 -1.67683 -4.67115 0
M  V30 4340 H 422.317 -2.89707 -5.38405 0
M  V30 4341 H 426.491 -3.7618 -5.86056 0
M  V30 4342 H 424.118 -4.37764 -6.21503 0
M  V30 4343 N 425.693 1.55336 -0.266172 0
M  V30 4344 C 426.939 1.99692 0.353681 0
M  V30 4345 C 427.272 1.1543 1.56172 0
M  V30 4346 O 426.547 0.222218 1.93226 0
M  V30 4347 C 426.83 3.52316 0.74466 0
M  V30 4348 C 426.683 4.47337 -0.470101 0
M  V30 4349 C 428.002 4.10588 1.58447 0
M  V30 4350 H 425.121 0.725961 0.12708 0
M  V30 4351 H 427.763 1.86336 -0.371333 0
M  V30 4352 H 425.913 3.63829 1.36239 0
M  V30 4353 H 427.585 4.4778 -1.10864 0
M  V30 4354 H 425.828 4.19364 -1.10978 0
M  V30 4355 H 426.499 5.51788 -0.15291 0
M  V30 4356 H 428.975 4.02297 1.06286 0
M  V30 4357 H 427.851 5.17607 1.82686 0
M  V30 4358 H 428.112 3.60253 2.56262 0
M  V30 4359 N 427.171 -0.0066808 1.57599 0
M  V30 4360 C 428.587 -0.36267 1.55425 0
M  V30 4361 C 428.787 -1.75209 0.995187 0
M  V30 4362 O 427.843 -2.44616 0.626058 0
M  V30 4363 C 429.156 -0.244017 2.99708 0
M  V30 4364 C 430.704 -0.319451 3.11366 0
M  V30 4365 C 431.179 -0.229998 4.57422 0
M  V30 4366 N 432.67 -0.288105 4.62303 0
M  V30 4367 C 433.405 -0.242127 5.72889 0
M  V30 4368 N 432.901 -0.147133 6.92644 0
M  V30 4369 N 434.694 -0.293502 5.61333 0
M  V30 4370 H 426.845 0.902314 1.92281 0
M  V30 4371 H 429.108 0.34525 0.882896 0
M  V30 4372 H 428.814 0.711678 3.44424 0
M  V30 4373 H 428.688 -1.02877 3.629 0
M  V30 4374 H 431.075 -1.26559 2.66584 0
M  V30 4375 H 431.156 0.495055 2.50964 0
M  V30 4376 H 430.8 0.712566 5.02877 0
M  V30 4377 H 430.73 -1.0629 5.15761 0
M  V30 4378 H 433.221 -0.363126 3.76151 0
M  V30 4379 H 433.534 -0.117763 7.7271 0
M  V30 4380 H 431.879 -0.112857 6.94908 0
M  V30 4381 H 435.07 -0.365864 4.66668 0
M  V30 4382 H 435.243 -0.254204 6.47501 0
M  V30 4383 N 428.649 -1.55105 -0.279332 0
M  V30 4384 C 429.926 -1.66119 -1.03267 0
M  V30 4385 C 430.306 -0.523525 -2.04505 0
M  V30 4386 O 429.654 0.477194 -2.23462 0
M  V30 4387 C 429.864 -3.05067 -1.69515 0
M  V30 4388 C 431.212 -3.62606 -2.20912 0
M  V30 4389 O 432.236 -3.07659 -1.79512 0
M  V30 4390 O 431.095 -4.58861 -2.96831 0
M  V30 4391 H 428.189 -0.674429 -0.478618 0
M  V30 4392 H 430.735 -1.67446 -0.275694 0
M  V30 4393 H 429.507 -3.79311 -0.9612 0
M  V30 4394 H 429.13 -3.07611 -2.51915 0
M  V30 4395 N 430.127 0.543554 -1.4793 0
M  V30 4396 C 431.375 1.29752 -1.54948 0
M  V30 4397 C 431.696 1.93764 -0.219242 0
M  V30 4398 O 430.966 1.80639 0.75805 0
M  V30 4399 H 429.546 0.481874 -0.570795 0
M  V30 4400 H 432.208 0.633636 -1.84312 0
M  V30 4401 H 431.304 2.08392 -2.32334 0
M  V30 4402 N 431.605 1.3629 0.791371 0
M  V30 4403 C 432.882 1.20962 1.53712 0
M  V30 4404 C 433.262 -0.205021 2.10102 0
M  V30 4405 O 432.61 -1.21042 1.93807 0
M  V30 4406 C 432.82 2.29002 2.63361 0
M  V30 4407 C 434.168 2.65572 3.31295 0
M  V30 4408 O 435.192 2.2803 2.73643 0
M  V30 4409 O 434.051 3.3018 4.35481 0
M  V30 4410 H 431.145 0.47086 0.679867 0
M  V30 4411 H 433.691 1.48016 0.830021 0
M  V30 4412 H 432.463 3.2382 2.19674 0
M  V30 4413 H 432.086 2.03303 3.41692 0
M  V30 4414 N 433.083 -1.0153 1.20538 0
M  V30 4415 C 434.013 -2.11972 0.979295 0
M  V30 4416 C 434.994 -1.6985 -0.0921787 0
M  V30 4417 O 436.179 -1.94089 0.0655932 0
M  V30 4418 C 433.309 -3.43201 0.531984 0
M  V30 4419 C 432.263 -3.9907 1.54685 0
M  V30 4420 C 431.589 -5.26082 0.956127 0
M  V30 4421 C 432.889 -4.32313 2.93092 0
M  V30 4422 H 434.583 -2.31143 1.90298 0
M  V30 4423 H 432.129 -1.11079 0.916372 0
M  V30 4424 H 434.082 -4.1985 0.361044 0
M  V30 4425 H 432.806 -3.23792 -0.427327 0
M  V30 4426 H 431.465 -3.2453 1.70517 0
M  V30 4427 H 431.113 -5.02999 -0.0111538 0
M  V30 4428 H 430.813 -5.64426 1.63393 0
M  V30 4429 H 432.337 -6.05386 0.796284 0
M  V30 4430 H 433.751 -4.99845 2.80763 0
M  V30 4431 H 432.148 -4.81774 3.57791 0
M  V30 4432 H 433.218 -3.41025 3.44717 0
M  V30 4433 N 434.561 -1.01147 -1.20859 0
M  V30 4434 C 435.977 -0.725422 -1.42161 0
M  V30 4435 C 436.177 0.696919 -1.89064 0
M  V30 4436 O 435.233 1.46539 -2.05627 0
M  V30 4437 C 436.546 -1.74678 -2.44761 0
M  V30 4438 C 438.094 -1.76433 -2.58535 0
M  V30 4439 C 438.569 -2.77481 -3.64374 0
M  V30 4440 N 440.06 -2.76189 -3.71852 0
M  V30 4441 C 440.795 -3.51035 -4.53389 0
M  V30 4442 N 440.291 -4.35541 -5.38773 0
M  V30 4443 N 442.084 -3.39655 -4.47873 0
M  V30 4444 H 434.235 -1.92979 -0.887282 0
M  V30 4445 H 436.498 -0.833327 -0.451962 0
M  V30 4446 H 436.204 -2.76551 -2.17285 0
M  V30 4447 H 436.078 -1.55472 -3.43669 0
M  V30 4448 H 438.465 -0.75248 -2.85345 0
M  V30 4449 H 438.546 -1.99712 -1.5984 0
M  V30 4450 H 438.19 -3.78827 -3.38308 0
M  V30 4451 H 438.12 -2.51466 -4.6268 0
M  V30 4452 H 440.611 -2.14885 -3.10858 0
M  V30 4453 H 440.924 -4.89432 -5.98061 0
M  V30 4454 H 439.269 -4.39621 -5.38292 0
M  V30 4455 H 442.46 -2.73063 -3.80203 0
M  V30 4456 H 442.633 -3.9824 -5.11184 0
M  V30 4457 N 436.039 1.36541 -0.78704 0
M  V30 4458 C 436.969 2.32659 -0.197992 0
M  V30 4459 C 437.95 1.56533 0.665697 0
M  V30 4460 O 439.135 1.84698 0.60001 0
M  V30 4461 C 436.265 3.40778 0.669901 0
M  V30 4462 C 435.219 4.27897 -0.0937039 0
M  V30 4463 C 434.545 5.27163 0.894629 0
M  V30 4464 C 435.845 5.06334 -1.28154 0
M  V30 4465 H 437.539 2.82171 -1.00099 0
M  V30 4466 H 435.085 1.35665 -0.482793 0
M  V30 4467 H 437.038 4.07008 1.09191 0
M  V30 4468 H 435.762 2.89827 1.50558 0
M  V30 4469 H 434.421 3.6322 -0.49666 0
M  V30 4470 H 434.069 4.72486 1.72527 0
M  V30 4471 H 433.769 5.86317 0.388149 0
M  V30 4472 H 435.293 5.96266 1.31525 0
M  V30 4473 H 436.707 5.65617 -0.93541 0
M  V30 4474 H 435.104 5.74888 -1.72115 0
M  V30 4475 H 436.174 4.38114 -2.07807 0
M  V30 4476 N 437.518 0.538854 1.48102 0
M  V30 4477 C 438.481 -0.208395 2.28251 0
M  V30 4478 C 439.481 -0.859656 1.35892 0
M  V30 4479 O 440.671 -0.71834 1.58699 0
M  V30 4480 C 437.803 -1.30252 3.15035 0
M  V30 4481 H 438.996 0.495407 2.9578 0
M  V30 4482 H 436.549 0.295112 1.53489 0
M  V30 4483 H 437.284 -2.0393 2.52157 0
M  V30 4484 H 437.069 -0.840551 3.82985 0
M  V30 4485 H 438.559 -1.82787 3.75471 0
M  V30 4486 N 438.996 -1.55193 0.274407 0
M  V30 4487 C 439.946 -2.19184 -0.627882 0
M  V30 4488 C 440.93 -1.15625 -1.11892 0
M  V30 4489 O 442.122 -1.41441 -1.06411 0
M  V30 4490 C 439.251 -2.91591 -1.81189 0
M  V30 4491 C 438.337 -4.02438 -1.33807 0
M  V30 4492 N 438.728 -5.0246 -0.580349 0
M  V30 4493 C 437.026 -4.15496 -1.62109 0
M  V30 4494 C 437.727 -5.80756 -0.331344 0
M  V30 4495 N 436.703 -5.36038 -0.903556 0
M  V30 4496 H 440.505 -2.93871 -0.0411216 0
M  V30 4497 H 438.019 -1.62213 0.0779348 0
M  V30 4498 H 440.016 -3.35883 -2.46957 0
M  V30 4499 H 438.676 -2.18414 -2.40261 0
M  V30 4500 H 439.687 -5.17399 -0.227762 0
M  V30 4501 H 436.364 -3.53509 -2.22121 0
M  V30 4502 H 437.754 -6.71335 0.275454 0
M  V30 4503 N 440.474 -0.00167713 -1.576 0
M  V30 4504 C 441.406 1.0174 -2.05382 0
M  V30 4505 C 442.419 1.30595 -0.972052 0
M  V30 4506 O 443.608 1.27542 -1.24882 0
M  V30 4507 C 440.708 2.35174 -2.44022 0
M  V30 4508 C 439.881 2.25234 -3.74951 0
M  V30 4509 C 438.94 3.4137 -4.00441 0
M  V30 4510 O 437.966 3.19483 -4.71083 0
M  V30 4511 N 439.168 4.64275 -3.48467 0
M  V30 4512 H 441.933 0.609902 -2.93428 0
M  V30 4513 H 439.494 0.185672 -1.60832 0
M  V30 4514 H 441.486 3.11643 -2.58187 0
M  V30 4515 H 440.056 2.67659 -1.61485 0
M  V30 4516 H 439.276 1.33664 -3.70847 0
M  V30 4517 H 440.564 2.15767 -4.60784 0
M  V30 4518 H 439.962 4.84955 -2.91264 0
M  V30 4519 H 438.519 5.38005 -3.67959 0
M  V30 4520 N 441.952 1.55251 0.271103 0
M  V30 4521 C 442.899 1.88261 1.33516 0
M  V30 4522 C 443.869 0.734296 1.48988 0
M  V30 4523 O 445.054 0.985741 1.63364 0
M  V30 4524 C 442.194 2.16168 2.69008 0
M  V30 4525 C 441.307 3.43678 2.61743 0
M  V30 4526 C 440.442 3.61276 3.89427 0
M  V30 4527 C 439.481 4.82472 3.7668 0
M  V30 4528 N 438.618 4.96717 4.96202 0
M  V30 4529 H 443.458 2.79015 1.04665 0
M  V30 4530 H 440.995 1.38137 0.505618 0
M  V30 4531 H 442.953 2.30349 3.47844 0
M  V30 4532 H 441.583 1.28646 2.96057 0
M  V30 4533 H 440.635 3.37959 1.74607 0
M  V30 4534 H 441.947 4.3265 2.48224 0
M  V30 4535 H 441.101 3.75284 4.76704 0
M  V30 4536 H 439.84 2.70492 4.05814 0
M  V30 4537 H 438.845 4.68465 2.87786 0
M  V30 4538 H 440.07 5.74692 3.61809 0
M  V30 4539 H 438.016 4.08865 5.12997 0
M  V30 4540 H 437.933 5.79738 4.85222 0
M  V30 4541 H 439.201 5.15113 5.85046 0
M  V30 4542 N 443.43 -0.535701 1.48216 0
M  V30 4543 C 444.36 -1.65014 1.65204 0
M  V30 4544 C 445.341 -1.62554 0.501011 0
M  V30 4545 O 446.526 -1.7984 0.732886 0
M  V30 4546 C 443.656 -3.03616 1.68626 0
M  V30 4547 C 442.61 -3.20932 2.83172 0
M  V30 4548 C 441.936 -4.60537 2.71679 0
M  V30 4549 C 443.236 -3.04249 4.24535 0
M  V30 4550 H 444.93 -1.51053 2.58502 0
M  V30 4551 H 442.476 -0.725262 1.24402 0
M  V30 4552 H 444.429 -3.81446 1.79099 0
M  V30 4553 H 443.153 -3.18587 0.719026 0
M  V30 4554 H 441.812 -2.45517 2.72244 0
M  V30 4555 H 441.46 -4.72336 1.72937 0
M  V30 4556 H 441.16 -4.73069 3.48538 0
M  V30 4557 H 442.684 -5.40475 2.84112 0
M  V30 4558 H 444.098 -3.71877 4.36326 0
M  V30 4559 H 442.495 -3.28278 5.02348 0
M  V30 4560 H 443.565 -2.00739 4.41397 0
M  V30 4561 N 444.908 -1.36708 -0.784132 0
M  V30 4562 C 446.185 -1.21776 -1.53069 0
M  V30 4563 C 446.565 0.193876 -2.10208 0
M  V30 4564 O 445.913 1.20012 -1.94446 0
M  V30 4565 C 446.123 -2.30395 -2.62143 0
M  V30 4566 C 447.471 -2.67325 -3.29882 0
M  V30 4567 O 448.495 -2.29478 -2.7243 0
M  V30 4568 O 447.354 -3.32485 -4.33724 0
M  V30 4569 H 444.448 -0.474459 -0.677361 0
M  V30 4570 H 446.994 -1.48454 -0.82216 0
M  V30 4571 H 445.766 -3.2498 -2.17953 0
M  V30 4572 H 445.389 -2.05112 -3.40609 0
M  V30 4573 N 446.386 1.0089 -1.21074 0
M  V30 4574 C 447.633 1.74607 -1.0256 0
M  V30 4575 C 447.961 1.89426 0.44136 0
M  V30 4576 O 447.216 1.42266 1.34384 0
M  V30 4577 C 447.515 3.16335 -1.66334 0
M  V30 4578 C 447.181 3.21474 -3.16173 0
M  V30 4579 C 445.843 3.22583 -3.57062 0
M  V30 4580 C 448.195 3.19025 -4.12156 0
M  V30 4581 C 445.523 3.18925 -4.92446 0
M  V30 4582 C 447.875 3.16909 -5.47496 0
M  V30 4583 C 446.539 3.16326 -5.87787 0
M  V30 4584 H 445.809 0.638933 -0.375294 0
M  V30 4585 H 448.456 1.18274 -1.50611 0
M  V30 4586 H 446.761 3.75876 -1.10566 0
M  V30 4587 H 448.458 3.72083 -1.49516 0
M  V30 4588 H 445.048 3.2135 -2.83605 0
M  V30 4589 H 449.232 3.17332 -3.81595 0
M  V30 4590 H 444.488 3.16809 -5.22917 0
M  V30 4591 H 448.662 3.13968 -6.21609 0
M  V30 4592 H 446.289 3.13246 -6.92662 0
M  V30 4593 N 447.864 1.01787 1.20321 0
M  V30 4594 C 448.794 0.609625 2.25401 0
M  V30 4595 C 449.775 -0.375951 1.65893 0
M  V30 4596 O 450.96 -0.261101 1.92437 0
M  V30 4597 C 448.09 -0.0515995 3.47262 0
M  V30 4598 C 447.044 0.855095 4.19371 0
M  V30 4599 C 446.37 0.0595757 5.34667 0
M  V30 4600 C 447.67 2.16374 4.75373 0
M  V30 4601 H 449.364 1.48803 2.59804 0
M  V30 4602 H 446.91 0.716934 1.24884 0
M  V30 4603 H 448.863 -0.348764 4.19954 0
M  V30 4604 H 447.587 -0.964726 3.12027 0
M  V30 4605 H 446.246 1.13628 3.48546 0
M  V30 4606 H 445.894 -0.85524 4.95676 0
M  V30 4607 H 445.594 0.663406 5.83843 0
M  V30 4608 H 447.118 -0.231105 6.10162 0
M  V30 4609 H 448.532 1.92885 5.39878 0
M  V30 4610 H 446.929 2.71853 5.34991 0
M  V30 4611 H 447.999 2.82589 3.94045 0
M  V30 4612 N 449.342 -1.36122 0.79427 0
M  V30 4613 C 450.59 -1.98718 0.368177 0
M  V30 4614 C 450.911 -1.63345 -1.06506 0
M  V30 4615 O 450.181 -0.909825 -1.73491 0
M  V30 4616 H 448.761 -0.735038 0.133146 0
M  V30 4617 H 451.423 -1.66239 1.01739 0
M  V30 4618 H 450.519 -3.08633 0.463923 0
M  V30 4619 N 450.82 -0.546701 -1.47814 0
M  V30 4620 C 452.066 -0.0187684 -2.02791 0
M  V30 4621 C 452.399 1.32338 -1.42128 0
M  V30 4622 O 451.674 1.85867 -0.573023 0
M  V30 4623 C 451.957 0.0854985 -3.59998 0
M  V30 4624 C 451.81 -1.283 -4.31114 0
M  V30 4625 C 453.129 0.80412 -4.32691 0
M  V30 4626 H 450.248 -0.0082946 -0.736953 0
M  V30 4627 H 452.89 -0.706962 -1.76358 0
M  V30 4628 H 451.04 0.671609 -3.82651 0
M  V30 4629 H 452.712 -1.91151 -4.19832 0
M  V30 4630 H 450.955 -1.86049 -3.91878 0
M  V30 4631 H 451.626 -1.16287 -5.39612 0
M  V30 4632 H 454.102 0.306576 -4.14969 0
M  V30 4633 H 452.978 0.846011 -5.42341 0
M  V30 4634 H 453.239 1.85802 -4.01161 0
M  V30 4635 N 452.299 1.55045 -0.282633 0
M  V30 4636 C 453.247 2.24254 0.617478 0
M  V30 4637 C 454.241 1.24215 1.15183 0
M  V30 4638 O 455.447 1.42123 1.10459 0
M  V30 4639 H 451.822 0.719801 0.217693 0
M  V30 4640 H 453.793 2.98398 0.0110076 0
M  V30 4641 C 452.542 2.98281 1.78672 0
M  V30 4642 H 451.865 3.75053 1.38475 0
M  V30 4643 H 453.305 3.50017 2.393 0
M  V30 4644 C 451.764 2.04184 2.67975 0
M  V30 4645 O 452.294 1.59792 3.6855 0
M  V30 4646 N 450.5 1.70526 2.35307 0
M  V30 4647 H 450.047 2.06821 1.53567 0
M  V30 4648 H 450.005 1.07839 2.95327 0
M  V30 4649 N 453.777 0.010035 1.57597 0
M  V30 4650 C 455.007 -0.682422 1.95004 0
M  V30 4651 C 455.415 -1.67278 0.884014 0
M  V30 4652 O 454.758 -1.83129 -0.144672 0
M  V30 4653 C 454.82 -1.46141 3.28456 0
M  V30 4654 C 454.484 -0.631523 4.52615 0
M  V30 4655 C 455.481 0.0850905 5.1983 0
M  V30 4656 C 453.166 -0.574539 4.99003 0
M  V30 4657 C 455.16 0.847566 6.3174 0
M  V30 4658 C 452.847 0.191655 6.10799 0
M  V30 4659 C 453.845 0.901432 6.77025 0
M  V30 4660 O 453.533 1.65511 7.86677 0
M  V30 4661 H 453.265 -0.194361 0.647456 0
M  V30 4662 H 455.819 0.060312 2.05311 0
M  V30 4663 H 454.049 -2.24885 3.14585 0
M  V30 4664 H 455.738 -2.04016 3.50902 0
M  V30 4665 H 456.504 0.0502812 4.84974 0
M  V30 4666 H 452.383 -1.11654 4.47274 0
M  V30 4667 H 455.927 1.4021 6.83364 0
M  V30 4668 H 451.824 0.228249 6.45096 0
M  V30 4669 H 452.592 1.57287 8.03245 0
M  V30 4670 N 455.255 -1.55392 -0.262866 0
M  V30 4671 C 456.485 -1.80251 -1.00961 0
M  V30 4672 C 456.893 -0.58117 -1.80053 0
M  V30 4673 O 456.236 0.459427 -1.77862 0
M  V30 4674 C 456.298 -2.98207 -2.00781 0
M  V30 4675 C 455.962 -4.34856 -1.40533 0
M  V30 4676 C 456.959 -5.13459 -0.815853 0
M  V30 4677 C 454.644 -4.8153 -1.42948 0
M  V30 4678 C 456.638 -6.36875 -0.258562 0
M  V30 4679 C 454.325 -6.04899 -0.868334 0
M  V30 4680 C 455.323 -6.8241 -0.283884 0
M  V30 4681 O 455.011 -8.03451 0.268644 0
M  V30 4682 H 454.743 -0.604049 -0.303482 0
M  V30 4683 H 457.297 -2.03257 -0.295926 0
M  V30 4684 H 455.527 -2.70917 -2.75936 0
M  V30 4685 H 457.216 -3.10299 -2.61667 0
M  V30 4686 H 457.982 -4.78526 -0.789812 0
M  V30 4687 H 453.861 -4.21201 -1.87378 0
M  V30 4688 H 457.405 -6.97318 0.198257 0
M  V30 4689 H 453.302 -6.39312 -0.891649 0
M  V30 4690 H 454.07 -8.18346 0.158974 0
M  V30 4691 N 456.733 0.527833 -1.48498 0
M  V30 4692 C 457.958 1.313 -1.60546 0
M  V30 4693 C 458.383 1.86199 -0.26672 0
M  V30 4694 O 457.741 1.64513 0.761918 0
M  V30 4695 C 457.789 2.43818 -2.65678 0
M  V30 4696 O 456.893 3.46916 -2.22987 0
M  V30 4697 H 456.234 0.388784 -0.538277 0
M  V30 4698 H 458.764 0.634896 -1.945 0
M  V30 4699 H 458.774 2.89973 -2.87018 0
M  V30 4700 H 457.449 2.03222 -3.62869 0
M  V30 4701 H 456.026 3.06864 -2.11869 0
M  V30 4702 N 458.211 1.37122 0.776871 0
M  V30 4703 C 459.622 1.28667 1.35284 0
M  V30 4704 C 459.973 -0.0680035 1.96082 0
M  V30 4705 O 459.098 -0.969743 1.93455 0
M  V30 4706 C 459.693 2.32997 2.45963 0
M  V30 4707 C 458.252 2.28191 2.99342 0
M  V30 4708 C 457.399 2.17101 1.72517 0
M  V30 4709 H 460.35 1.47819 0.577527 0
M  V30 4710 H 460.371 1.97366 3.2531 0
M  V30 4711 H 459.883 3.3158 2.01684 0
M  V30 4712 H 457.984 1.33115 3.4801 0
M  V30 4713 H 458.097 3.21397 3.55304 0
M  V30 4714 H 456.461 1.63562 1.95242 0
M  V30 4715 H 457.244 3.17591 1.30348 0
M  V30 4716 N 459.689 -1.00246 1.21608 0
M  V30 4717 C 460.917 -1.77631 1.06089 0
M  V30 4718 C 461.332 -1.84746 -0.38916 0
M  V30 4719 O 460.689 -1.31068 -1.26994 0
M  V30 4720 C 460.74 -3.21415 1.65453 0
M  V30 4721 O 460.461 -3.14703 3.04785 0
M  V30 4722 C 461.962 -4.15289 1.55079 0
M  V30 4723 H 459.182 -0.558162 0.37242 0
M  V30 4724 H 461.726 -1.26093 1.60999 0
M  V30 4725 H 459.881 -3.70053 1.14629 0
M  V30 4726 H 460.295 -4.05056 3.33212 0
M  V30 4727 H 461.769 -5.13965 2.01355 0
M  V30 4728 H 462.246 -4.36279 0.505665 0
M  V30 4729 H 462.852 -3.72543 2.05163 0
M  V30 4730 N 461.167 -1.02423 -1.1978 0
M  V30 4731 C 462.097 -0.62157 -2.25075 0
M  V30 4732 C 463.078 0.367148 -1.6609 0
M  V30 4733 O 464.263 0.250892 -1.92573 0
M  V30 4734 C 461.393 0.0331826 -3.47284 0
M  V30 4735 C 460.347 -0.877323 -4.18912 0
M  V30 4736 C 459.673 -0.0879296 -5.34628 0
M  V30 4737 C 460.973 -2.18892 -4.74219 0
M  V30 4738 H 462.667 -1.50179 -2.59011 0
M  V30 4739 H 460.213 -0.723547 -1.24502 0
M  V30 4740 H 462.166 0.326488 -4.20133 0
M  V30 4741 H 460.89 0.948164 -3.12534 0
M  V30 4742 H 459.549 -1.15475 -3.47938 0
M  V30 4743 H 459.197 0.828941 -4.96123 0
M  V30 4744 H 458.897 -0.694359 -5.83483 0
M  V30 4745 H 460.421 0.198743 -6.10276 0
M  V30 4746 H 461.835 -1.95746 -5.38847 0
M  V30 4747 H 460.232 -2.74686 -5.33542 0
M  V30 4748 H 461.302 -2.84674 -3.92541 0
M  V30 4749 N 462.645 1.35699 -0.801477 0
M  V30 4750 C 463.891 1.99208 -0.380022 0
M  V30 4751 C 464.224 1.63445 1.04878 0
M  V30 4752 O 463.499 0.895223 1.72673 0
M  V30 4753 C 463.782 3.55755 -0.557708 0
M  V30 4754 C 463.635 4.01332 -2.03107 0
M  V30 4755 C 464.954 4.40096 0.0197968 0
M  V30 4756 H 462.073 0.723667 -0.139552 0
M  V30 4757 H 464.715 1.60928 -1.01006 0
M  V30 4758 H 462.865 3.88494 -0.0213741 0
M  V30 4759 H 464.537 3.79026 -2.62939 0
M  V30 4760 H 462.78 3.52429 -2.52936 0
M  V30 4761 H 463.451 5.10234 -2.1063 0
M  V30 4762 H 465.927 4.13786 -0.438179 0
M  V30 4763 H 464.803 5.48735 -0.134477 0
M  V30 4764 H 465.064 4.2786 1.11303 0
M  V30 4765 N 464.123 0.554532 1.47522 0
M  V30 4766 C 465.348 0.0322661 2.07375 0
M  V30 4767 C 465.773 -1.25079 1.40488 0
M  V30 4768 O 465.131 -1.74859 0.47896 0
M  V30 4769 C 465.179 -0.149397 3.6029 0
M  V30 4770 O 464.283 -1.21259 3.9417 0
M  V30 4771 H 463.624 0.0501228 0.662106 0
M  V30 4772 H 466.154 0.769452 1.8958 0
M  V30 4773 H 466.164 -0.364437 4.06369 0
M  V30 4774 H 464.839 0.787743 4.08372 0
M  V30 4775 H 463.416 -0.97825 3.5984 0
M  V30 4776 N 465.601 -1.54893 0.290851 0
M  V30 4777 C 466.511 -2.26812 -0.59945 0
M  V30 4778 C 467.527 -1.29963 -1.15696 0
M  V30 4779 O 468.703 -1.62928 -1.18391 0
M  V30 4780 C 465.768 -2.98716 -1.75982 0
M  V30 4781 C 464.829 -4.1108 -1.2374 0
M  V30 4782 C 464.062 -4.79546 -2.34246 0
M  V30 4783 O 464.285 -4.47309 -3.53936 0
M  V30 4784 O 463.219 -5.67165 -2.01512 0
M  V30 4785 H 467.045 -3.03696 -0.0163561 0
M  V30 4786 H 464.63 -1.49289 0.0576755 0
M  V30 4787 H 466.512 -3.43851 -2.43607 0
M  V30 4788 H 465.187 -2.24737 -2.3297 0
M  V30 4789 H 464.094 -3.70367 -0.527163 0
M  V30 4790 H 465.427 -4.87007 -0.71307 0
M  V30 4791 N 467.08 -0.0183926 -1.57589 0
M  V30 4792 C 468.043 0.951986 -2.08494 0
M  V30 4793 C 469.043 1.26092 -0.997874 0
M  V30 4794 O 470.233 1.20304 -1.25987 0
M  V30 4795 C 467.365 2.27165 -2.54182 0
M  V30 4796 H 468.558 0.511307 -2.95509 0
M  V30 4797 H 466.111 0.229444 -1.54607 0
M  V30 4798 H 466.846 2.75884 -1.70465 0
M  V30 4799 H 466.631 2.06057 -3.33591 0
M  V30 4800 H 468.121 2.9674 -2.93828 0
M  V30 4801 N 468.558 1.5553 0.254621 0
M  V30 4802 C 469.835 1.6774 1.00611 0
M  V30 4803 C 470.215 0.555993 2.03647 0
M  V30 4804 O 469.563 -0.441583 2.24193 0
M  V30 4805 C 469.773 3.07725 1.6464 0
M  V30 4806 C 471.121 3.66074 2.15116 0
M  V30 4807 O 472.145 3.10476 1.74595 0
M  V30 4808 O 471.004 4.63526 2.89493 0
M  V30 4809 H 468.098 0.681958 0.467828 0
M  V30 4810 H 470.644 1.67863 0.24902 0
M  V30 4811 H 469.416 3.80792 0.900734 0
M  V30 4812 H 469.039 3.1158 2.46989 0
M  V30 4813 N 470.036 -0.519951 1.48776 0
M  V30 4814 C 471.284 -1.2727 1.56993 0
M  V30 4815 C 471.605 -1.9339 0.25004 0
M  V30 4816 O 470.875 -1.81822 -0.729216 0
M  V30 4817 H 469.455 -0.472732 0.578389 0
M  V30 4818 H 472.117 -0.604234 1.85297 0
M  V30 4819 H 471.213 -2.04669 2.3562 0
M  V30 4820 N 471.514 -1.37532 -0.769588 0
M  V30 4821 C 472.739 -1.36231 -1.56384 0
M  V30 4822 C 473.164 0.0495849 -1.88035 0
M  V30 4823 O 472.522 1.02723 -1.49391 0
M  V30 4824 C 472.57 -2.20986 -2.84952 0
M  V30 4825 O 471.674 -1.61597 -3.79421 0
M  V30 4826 H 471.015 -0.465387 -0.473615 0
M  V30 4827 H 473.545 -1.81085 -0.952342 0
M  V30 4828 H 473.555 -2.34277 -3.34034 0
M  V30 4829 H 472.23 -3.23612 -2.61243 0
M  V30 4830 H 470.807 -1.57359 -3.38072 0
M  V30 4831 N 472.992 0.995999 -1.22138 0
M  V30 4832 C 474.24 1.73167 -1.042 0
M  V30 4833 C 474.561 1.90329 0.42423 0
M  V30 4834 O 473.831 1.4607 1.30539 0
M  V30 4835 H 472.411 0.641593 -0.38258 0
M  V30 4836 H 475.073 1.19974 -1.53598 0
M  V30 4837 H 474.169 2.72734 -1.51731 0
M  V30 4838 N 474.47 1.03057 1.19235 0
M  V30 4839 C 475.698 0.747697 1.92917 0
M  V30 4840 C 476.113 -0.69372 1.75593 0
M  V30 4841 O 475.47 -1.47191 1.07894 0
M  V30 4842 C 475.521 1.09159 3.44625 0
M  V30 4843 O 475.242 2.47641 3.61394 0
M  V30 4844 C 476.743 0.831763 4.35427 0
M  V30 4845 H 473.963 0.273453 0.612751 0
M  V30 4846 H 476.507 1.37552 1.51327 0
M  V30 4847 H 474.662 0.508919 3.84043 0
M  V30 4848 H 475.076 2.60499 4.55237 0
M  V30 4849 H 476.55 1.12233 5.4047 0
M  V30 4850 H 477.027 -0.233769 4.38577 0
M  V30 4851 H 477.633 1.39725 4.01693 0
M  V30 4852 N 475.948 -1.35272 0.808662 0
M  V30 4853 C 476.898 -2.27181 0.193124 0
M  V30 4854 C 477.882 -1.47871 -0.634265 0
M  V30 4855 O 479.074 -1.70048 -0.491182 0
M  V30 4856 C 476.203 -3.36979 -0.655751 0
M  V30 4857 C 475.289 -4.23712 0.181481 0
M  V30 4858 N 475.68 -4.90225 1.24551 0
M  V30 4859 C 473.978 -4.45985 -0.0365493 0
M  V30 4860 C 474.679 -5.54537 1.75682 0
M  V30 4861 N 473.655 -5.33107 1.06294 0
M  V30 4862 H 477.457 -2.76101 1.00724 0
M  V30 4863 H 474.971 -1.48823 0.650029 0
M  V30 4864 H 476.968 -4.01774 -1.11279 0
M  V30 4865 H 475.628 -2.89611 -1.46819 0
M  V30 4866 H 476.639 -4.91641 1.62818 0
M  V30 4867 H 473.316 -4.09409 -0.817964 0
M  V30 4868 H 474.706 -6.17597 2.64621 0
M  V30 4869 N 477.426 -0.562348 -1.47226 0
M  V30 4870 C 478.374 0.195476 -2.31777 0
M  V30 4871 C 479.368 0.90433 -1.43242 0
M  V30 4872 O 480.574 0.825031 -1.59979 0
M  V30 4873 H 476.949 0.0819095 -0.747526 0
M  V30 4874 H 478.92 -0.536753 -2.93533 0
M  V30 4875 C 477.669 1.20902 -3.26003 0
M  V30 4876 H 476.992 0.672997 -3.94095 0
M  V30 4877 H 478.432 1.71006 -3.87986 0
M  V30 4878 C 476.891 2.25955 -2.49891 0
M  V30 4879 O 477.421 3.32969 -2.2471 0
M  V30 4880 N 475.627 2.00019 -2.1081 0
M  V30 4881 H 475.174 1.13006 -2.31489 0
M  V30 4882 H 475.132 2.70523 -1.60201 0
M  V30 4883 N 478.904 1.54736 -0.299062 0
M  V30 4884 C 480.129 2.04975 0.316254 0
M  V30 4885 C 480.554 1.17501 1.46885 0
M  V30 4886 O 479.912 0.178678 1.80417 0
M  V30 4887 C 479.96 3.52672 0.751997 0
M  V30 4888 O 479.064 3.68226 1.85697 0
M  V30 4889 H 478.405 0.661126 0.0617175 0
M  V30 4890 H 480.935 1.99805 -0.440341 0
M  V30 4891 H 480.945 3.94488 1.04133 0
M  V30 4892 H 479.62 4.158 -0.0911482 0
M  V30 4893 H 478.197 3.38316 1.56834 0
M  V30 4894 N 480.382 0.0267497 1.57577 0
M  V30 4895 C 481.659 -0.690926 1.82991 0
M  V30 4896 C 482.039 -1.90471 0.910164 0
M  V30 4897 O 481.387 -2.28474 -0.0347985 0
M  V30 4898 C 481.597 -1.07139 3.32148 0
M  V30 4899 C 482.945 -1.46402 3.98562 0
M  V30 4900 O 483.969 -1.16443 3.36629 0
M  V30 4901 O 482.828 -2.02214 5.07712 0
M  V30 4902 H 479.922 -0.338747 0.75444 0
M  V30 4903 H 482.468 0.0542506 1.69613 0
M  V30 4904 H 481.24 -0.207394 3.9075 0
M  V30 4905 H 480.863 -1.87481 3.50623 0
M  V30 4906 N 481.861 -1.55662 -0.24637 0
M  V30 4907 C 483.109 -1.77168 -0.972411 0
M  V30 4908 C 483.43 -0.590827 -1.85834 0
M  V30 4909 O 482.7 0.393365 -1.9191 0
M  V30 4910 H 481.28 -0.653405 -0.362038 0
M  V30 4911 H 483.942 -1.93101 -0.264189 0
M  V30 4912 H 483.038 -2.68335 -1.59382 0
M  V30 4913 N 483.339 0.512053 -1.4905 0
M  V30 4914 C 484.289 1.61142 -1.61298 0
M  V30 4915 C 485.273 1.53908 -0.46916 0
M  V30 4916 O 486.465 1.61625 -0.721547 0
M  V30 4917 C 483.594 2.998 -1.67256 0
M  V30 4918 C 482.68 3.12072 -2.87179 0
M  V30 4919 N 483.071 2.94263 -4.11391 0
M  V30 4920 C 481.369 3.43156 -2.84886 0
M  V30 4921 C 482.07 3.10426 -4.91946 0
M  V30 4922 N 481.046 3.38808 -4.251 0
M  V30 4923 H 484.848 1.46011 -2.55065 0
M  V30 4924 H 482.362 0.717934 -1.45669 0
M  V30 4925 H 484.359 3.78794 -1.74128 0
M  V30 4926 H 483.019 3.1601 -0.746195 0
M  V30 4927 H 484.03 2.70661 -4.41546 0
M  V30 4928 H 480.707 3.65611 -2.01581 0
M  V30 4929 H 482.097 3.01243 -6.00585 0
M  V30 4930 N 484.817 1.37938 0.762283 0
M  V30 4931 C 486.065 1.33404 1.51815 0
M  V30 4932 C 486.386 -0.0780975 1.94844 0
M  V30 4933 O 485.656 -1.02405 1.67003 0
M  V30 4934 H 484.236 0.490839 0.563104 0
M  V30 4935 H 486.898 1.72527 0.906669 0
M  V30 4936 H 485.994 1.97926 2.41313 0
M  V30 4937 N 486.295 -0.989507 1.22664 0
M  V30 4938 C 487.711 -1.25395 0.987331 0
M  V30 4939 C 487.911 -1.9899 -0.317056 0
M  V30 4940 O 486.967 -2.30141 -1.03882 0
M  V30 4941 C 488.28 -2.06242 2.18826 0
M  V30 4942 C 489.828 -2.19413 2.23219 0
M  V30 4943 C 490.303 -3.03648 3.42873 0
M  V30 4944 N 491.794 -3.11234 3.43056 0
M  V30 4945 C 492.529 -3.7671 4.32293 0
M  V30 4946 N 492.025 -4.44085 5.31752 0
M  V30 4947 N 493.818 -3.73505 4.2006 0
M  V30 4948 H 485.969 -0.496212 2.06522 0
M  V30 4949 H 488.232 -0.281784 0.905153 0
M  V30 4950 H 487.938 -1.59531 3.13437 0
M  V30 4951 H 487.812 -3.06996 2.19165 0
M  V30 4952 H 490.199 -2.65336 1.29154 0
M  V30 4953 H 490.28 -1.18078 2.26917 0
M  V30 4954 H 489.924 -2.58424 4.37241 0
M  V30 4955 H 489.854 -4.05132 3.36416 0
M  V30 4956 H 492.345 -2.63287 2.71088 0
M  V30 4957 H 492.658 -4.91797 5.96117 0
M  V30 4958 H 491.003 -4.42822 5.35662 0
M  V30 4959 H 494.194 -3.20033 3.41609 0
M  V30 4960 H 494.367 -4.24253 4.8981 0
M  V30 4961 N 487.773 -1.03688 -1.18687 0
M  V30 4962 C 488.998 -0.757819 -1.93059 0
M  V30 4963 C 489.423 0.678353 -1.75442 0
M  V30 4964 O 488.781 1.46938 -1.06203 0
M  V30 4965 C 488.829 -1.12423 -3.42627 0
M  V30 4966 O 487.933 -0.247505 -4.11657 0
M  V30 4967 H 487.274 -0.279245 -0.602427 0
M  V30 4968 H 489.804 -1.3857 -1.5053 0
M  V30 4969 H 489.814 -1.08454 -3.93322 0
M  V30 4970 H 488.489 -2.17049 -3.54771 0
M  V30 4971 H 487.066 -0.34649 -3.71287 0
M  V30 4972 N 489.251 1.34841 -0.815825 0
M  V30 4973 C 490.214 2.27959 -0.238185 0
M  V30 4974 C 491.214 1.49983 0.579816 0
M  V30 4975 O 492.404 1.69617 0.396953 0
M  V30 4976 C 489.536 3.34314 0.666876 0
M  V30 4977 H 490.729 2.80558 -1.05958 0
M  V30 4978 H 488.282 1.44852 -0.587156 0
M  V30 4979 H 489.017 2.86916 1.5116 0
M  V30 4980 H 488.802 3.92014 0.0819106 0
M  V30 4981 H 490.292 4.0379 1.06506 0
M  V30 4982 N 490.729 0.570148 1.46925 0
M  V30 4983 C 491.679 -0.190921 2.27199 0
M  V30 4984 C 492.663 -0.873457 1.35128 0
M  V30 4985 O 493.855 -0.769627 1.59392 0
M  V30 4986 C 490.984 -1.21204 3.21192 0
M  V30 4987 C 490.07 -0.532261 4.20747 0
M  V30 4988 N 490.461 0.405038 5.04176 0
M  V30 4989 C 488.759 -0.784582 4.39045 0
M  V30 4990 C 489.46 0.801149 5.76157 0
M  V30 4991 N 488.436 0.153082 5.43384 0
M  V30 4992 H 492.238 0.529535 2.8909 0
M  V30 4993 H 489.752 0.391019 1.57622 0
M  V30 4994 H 491.749 -1.77135 3.77398 0
M  V30 4995 H 490.409 -1.93345 2.6086 0
M  V30 4996 H 491.42 0.779903 5.11994 0
M  V30 4997 H 488.097 -1.49352 3.89872 0
M  V30 4998 H 489.487 1.57208 6.5325 0
M  V30 4999 N 492.207 -1.54576 0.307264 0
M  V30 5000 C 493.432 -2.05139 -0.305379 0
M  V30 5001 C 493.857 -1.18278 -1.46259 0
M  V30 5002 O 493.215 -0.188243 -1.8032 0
M  V30 5003 C 493.263 -3.53066 -0.733283 0
M  V30 5004 O 492.367 -3.69206 -1.83741 0
M  V30 5005 H 491.708 -0.661444 -0.0582105 0
M  V30 5006 H 494.238 -1.99569 0.450931 0
M  V30 5007 H 494.248 -3.95034 -1.02039 0
M  V30 5008 H 492.923 -4.15746 0.113198 0
M  V30 5009 H 491.5 -3.39143 -1.55037 0
M  V30 5010 N 493.685 -0.035106 -1.57561 0
M  V30 5011 C 495.096 0.502885 -1.798 0
M  V30 5012 C 495.447 1.71892 -0.945921 0
M  V30 5013 O 494.572 2.15822 -0.157991 0
M  V30 5014 C 495.167 0.919097 -3.26095 0
M  V30 5015 C 493.726 1.40216 -3.49308 0
M  V30 5016 C 492.873 0.369709 -2.74824 0
M  V30 5017 H 495.824 -0.261102 -1.56537 0
M  V30 5018 H 495.845 1.78308 -3.36135 0
M  V30 5019 H 495.357 0.0338526 -3.88085 0
M  V30 5020 H 493.458 2.30714 -2.92578 0
M  V30 5021 H 493.571 1.40541 -4.58023 0
M  V30 5022 H 491.935 0.839113 -2.40481 0
M  V30 5023 H 492.718 -0.507173 -3.39533 0
M  V30 5024 N 495.163 1.55791 0.238111 0
M  V30 5025 C 496.409 1.79211 0.962035 0
M  V30 5026 C 496.764 0.605463 1.82625 0
M  V30 5027 O 496.057 -0.40104 1.87356 0
M  V30 5028 C 496.251 3.05869 1.84875 0
M  V30 5029 C 496.08 4.36739 1.07186 0
M  V30 5030 C 494.85 4.99346 0.773424 0
M  V30 5031 C 497.048 5.1237 0.445168 0
M  V30 5032 N 495.03 6.13894 -0.0266037 0
M  V30 5033 C 496.401 6.19613 -0.219023 0
M  V30 5034 C 498.456 4.96622 0.356522 0
M  V30 5035 C 497.159 7.1282 -0.963358 0
M  V30 5036 C 499.185 5.90214 -0.374304 0
M  V30 5037 C 498.547 6.96872 -1.0271 0
M  V30 5038 H 494.646 0.707627 0.332849 0
M  V30 5039 H 497.23 1.93284 0.234368 0
M  V30 5040 H 495.401 2.93108 2.54837 0
M  V30 5041 H 497.133 3.17547 2.5089 0
M  V30 5042 H 493.888 4.60948 1.08738 0
M  V30 5043 H 494.312 6.75727 -0.414968 0
M  V30 5044 H 498.954 4.14232 0.846878 0
M  V30 5045 H 496.672 7.94704 -1.46529 0
M  V30 5046 H 500.258 5.80106 -0.443678 0
M  V30 5047 H 499.138 7.68045 -1.58358 0
M  V30 5048 N 496.642 -0.504142 1.49319 0
M  V30 5049 C 498.053 -1.08572 1.51885 0
M  V30 5050 C 498.404 -1.93842 0.303255 0
M  V30 5051 O 497.529 -2.0828 -0.58724 0
M  V30 5052 C 498.124 -1.97574 2.75227 0
M  V30 5053 C 496.683 -2.509 2.80581 0
M  V30 5054 C 495.83 -1.28447 2.45757 0
M  V30 5055 H 498.781 -0.288194 1.56061 0
M  V30 5056 H 498.802 -2.82219 2.55211 0
M  V30 5057 H 498.314 -1.35486 3.63683 0
M  V30 5058 H 496.415 -3.16636 1.96398 0
M  V30 5059 H 496.528 -2.88268 3.82673 0
M  V30 5060 H 494.892 -1.60868 1.97468 0
M  V30 5061 H 495.675 -0.68072 3.36483 0
M  V30 5062 N 498.12 -1.38341 -0.754957 0
M  V30 5063 C 499.368 -1.34208 -1.51105 0
M  V30 5064 C 499.689 0.0677634 -1.94882 0
M  V30 5065 O 498.959 1.01517 -1.67544 0
M  V30 5066 H 497.539 -0.493819 -0.560493 0
M  V30 5067 H 500.201 -1.73005 -0.897507 0
M  V30 5068 H 499.297 -1.99203 -2.4026 0
M  V30 5069 N 499.598 0.982988 -1.23187 0
M  V30 5070 C 500.561 2.05649 -1.01198 0
M  V30 5071 C 501.561 1.6078 0.0252464 0
M  V30 5072 O 502.751 1.72878 -0.214243 0
M  V30 5073 C 499.883 3.36744 -0.530656 0
M  V30 5074 H 501.076 2.2659 -1.96461 0
M  V30 5075 H 498.629 1.15602 -1.05195 0
M  V30 5076 H 499.364 3.21492 0.425873 0
M  V30 5077 H 499.149 3.7065 -1.2791 0
M  V30 5078 H 500.639 4.15705 -0.397366 0
M  V30 5079 N 501.076 1.04316 1.18135 0
M  V30 5080 C 502.353 0.662166 1.84051 0
M  V30 5081 C 502.733 -0.858169 1.9287 0
M  V30 5082 O 502.081 -1.76062 1.45652 0
M  V30 5083 C 502.291 1.3409 3.22212 0
M  V30 5084 C 503.639 1.4733 3.9822 0
M  V30 5085 O 504.663 1.29921 3.31661 0
M  V30 5086 O 503.522 1.75722 5.17479 0
M  V30 5087 H 500.616 0.232005 0.79379 0
M  V30 5088 H 503.162 1.1422 1.25506 0
M  V30 5089 H 501.934 2.37853 3.10711 0
M  V30 5090 H 501.557 0.849649 3.88416 0
M  V30 5091 N 502.554 -1.34406 0.822964 0
M  V30 5092 C 503.97 -1.51275 0.508727 0
M  V30 5093 C 504.17 -1.76776 -0.967083 0
M  V30 5094 O 503.226 -1.81871 -1.75155 0
M  V30 5095 C 504.539 -2.67765 1.36829 0
M  V30 5096 C 506.087 -2.81647 1.36542 0
M  V30 5097 C 506.562 -4.01181 2.20947 0
M  V30 5098 N 508.053 -4.08388 2.18571 0
M  V30 5099 C 508.788 -5.00036 2.80627 0
M  V30 5100 N 508.284 -5.96906 3.51674 0
M  V30 5101 N 510.077 -4.92908 2.70181 0
M  V30 5102 H 502.228 -1.16113 1.77852 0
M  V30 5103 H 504.491 -0.56947 0.757897 0
M  V30 5104 H 504.197 -2.55551 2.41633 0
M  V30 5105 H 504.071 -3.62779 1.03303 0
M  V30 5106 H 506.458 -2.93303 0.325163 0
M  V30 5107 H 506.539 -1.87443 1.74066 0
M  V30 5108 H 506.183 -3.90286 3.25022 0
M  V30 5109 H 506.113 -4.94599 1.80774 0
M  V30 5110 H 508.604 -3.39051 1.66891 0
M  V30 5111 H 508.917 -6.63468 3.96271 0
M  V30 5112 H 507.262 -5.9703 3.5578 0
M  V30 5113 H 510.453 -4.1619 2.14251 0
M  V30 5114 H 510.626 -5.64137 3.18831 0
M  V30 5115 N 504.032 -0.577932 -1.46621 0
M  V30 5116 C 505.278 -0.0617793 -2.02706 0
M  V30 5117 C 505.611 1.29294 -1.44903 0
M  V30 5118 O 504.886 1.8461 -0.61232 0
M  V30 5119 C 505.169 0.00911824 -3.60099 0
M  V30 5120 C 505.022 -1.37416 -4.28295 0
M  V30 5121 C 506.341 0.712159 -4.343 0
M  V30 5122 H 503.46 -0.0239246 -0.736612 0
M  V30 5123 H 506.102 -0.744211 -1.74818 0
M  V30 5124 H 504.252 0.590292 -3.83989 0
M  V30 5125 H 505.924 -2.00013 -4.15683 0
M  V30 5126 H 504.167 -1.94319 -3.87843 0
M  V30 5127 H 504.838 -1.27707 -5.37024 0
M  V30 5128 H 507.314 0.218486 -4.15526 0
M  V30 5129 H 506.19 0.730782 -5.44014 0
M  V30 5130 H 506.451 1.77251 -4.05012 0
M  V30 5131 N 505.51 1.54411 -0.315457 0
M  V30 5132 C 506.473 2.22713 0.54142 0
M  V30 5133 C 507.473 1.2179 1.04995 0
M  V30 5134 O 508.663 1.46426 0.943667 0
M  V30 5135 C 505.795 2.92485 1.75116 0
M  V30 5136 H 506.988 2.99849 -0.0555508 0
M  V30 5137 H 504.541 1.56159 -0.0664453 0
M  V30 5138 H 505.276 2.19466 2.38758 0
M  V30 5139 H 505.061 3.66483 1.39401 0
M  V30 5140 H 506.551 3.44548 2.35959 0
M  V30 5141 N 506.988 0.0434614 1.5754 0
M  V30 5142 C 508.235 -0.632035 1.92384 0
M  V30 5143 C 508.563 -1.71304 0.921157 0
M  V30 5144 O 507.818 -1.95583 -0.067744 0
M  V30 5145 C 508.117 -1.2738 3.3393 0
M  V30 5146 C 507.783 -0.321757 4.49751 0
M  V30 5147 C 506.445 -0.0597611 4.81163 0
M  V30 5148 C 508.797 0.331158 5.20147 0
M  V30 5149 C 506.125 0.862715 5.80322 0
M  V30 5150 C 508.477 1.24178 6.20292 0
M  V30 5151 C 507.141 1.51252 6.50138 0
M  V30 5152 H 506.411 -0.231278 0.703983 0
M  V30 5153 H 509.058 0.108294 1.91194 0
M  V30 5154 H 507.363 -2.08921 3.3145 0
M  V30 5155 H 509.06 -1.80326 3.58167 0
M  V30 5156 H 505.65 -0.53614 4.25233 0
M  V30 5157 H 509.834 0.141826 4.96097 0
M  V30 5158 H 505.09 1.08003 6.01785 0
M  V30 5159 H 509.264 1.75381 6.73954 0
M  V30 5160 H 506.891 2.22897 7.26788 0
M  V30 5161 N 508.466 -1.55915 -0.229846 0
M  V30 5162 C 509.416 -1.8813 -1.28807 0
M  V30 5163 C 510.4 -0.743621 -1.42685 0
M  V30 5164 O 511.592 -1.00588 -1.4564 0
M  V30 5165 C 508.721 -2.19431 -2.64017 0
M  V30 5166 C 507.807 -3.39569 -2.54074 0
M  V30 5167 N 508.198 -4.58404 -2.13774 0
M  V30 5168 C 506.496 -3.43019 -2.85051 0
M  V30 5169 C 507.197 -5.40557 -2.1488 0
M  V30 5170 N 506.173 -4.80054 -2.55047 0
M  V30 5171 H 509.975 -2.77527 -0.967261 0
M  V30 5172 H 507.489 -1.5637 -0.438433 0
M  V30 5173 H 509.486 -2.40681 -3.40409 0
M  V30 5174 H 508.146 -1.31341 -2.9695 0
M  V30 5175 H 509.157 -4.83716 -1.8504 0
M  V30 5176 H 505.834 -2.65249 -3.22411 0
M  V30 5177 H 507.224 -6.45666 -1.85918 0
M  V30 5178 N 509.944 0.496216 -1.49584 0
M  V30 5179 C 510.876 1.61404 -1.62731 0
M  V30 5180 C 511.889 1.54613 -0.50978 0
M  V30 5181 O 513.078 1.60458 -0.782017 0
M  V30 5182 C 510.178 3.00212 -1.57245 0
M  V30 5183 C 509.351 3.32138 -2.84611 0
M  V30 5184 C 508.41 4.5038 -2.72112 0
M  V30 5185 O 507.436 4.51926 -3.46051 0
M  V30 5186 N 508.638 5.50575 -1.83977 0
M  V30 5187 H 511.403 1.50552 -2.59141 0
M  V30 5188 H 508.964 0.684182 -1.46733 0
M  V30 5189 H 510.956 3.77241 -1.4653 0
M  V30 5190 H 509.526 3.04964 -0.686729 0
M  V30 5191 H 508.746 2.4396 -3.09641 0
M  V30 5192 H 510.034 3.50268 -3.69039 0
M  V30 5193 H 509.432 5.52128 -1.23171 0
M  V30 5194 H 507.989 6.26687 -1.79182 0
M  V30 5195 N 511.423 1.38739 0.74761 0
M  V30 5196 C 512.834 1.31507 1.32524 0
M  V30 5197 C 513.185 -0.0263963 1.96182 0
M  V30 5198 O 512.31 -0.92849 1.95469 0
M  V30 5199 C 512.905 2.38162 2.40966 0
M  V30 5200 C 511.464 2.34489 2.94434 0
M  V30 5201 C 510.611 2.20712 1.67873 0
M  V30 5202 H 513.562 1.4901 0.546043 0
M  V30 5203 H 513.583 2.04222 3.21051 0
M  V30 5204 H 513.095 3.35783 1.94605 0
M  V30 5205 H 511.196 1.40467 3.45108 0
M  V30 5206 H 511.309 3.28861 3.48407 0
M  V30 5207 H 509.673 1.67667 1.91729 0
M  V30 5208 H 510.456 3.20285 1.23582 0
M  V30 5209 N 512.901 -0.976442 1.23707 0
M  V30 5210 C 514.312 -1.53284 1.06587 0
M  V30 5211 C 514.663 -1.92765 -0.365526 0
M  V30 5212 O 513.788 -1.7645 -1.25277 0
M  V30 5213 C 514.383 -2.78548 1.92864 0
M  V30 5214 C 512.942 -3.30574 1.79994 0
M  V30 5215 C 512.089 -2.03538 1.88328 0
M  V30 5216 H 515.04 -0.795692 1.37311 0
M  V30 5217 H 515.061 -3.5155 1.45577 0
M  V30 5218 H 514.573 -2.49782 2.97037 0
M  V30 5219 H 512.674 -3.64211 0.786202 0
M  V30 5220 H 512.787 -4.00065 2.636 0
M  V30 5221 H 511.151 -2.17853 1.31954 0
M  V30 5222 H 511.934 -1.77149 2.94063 0
M  V30 5223 N 514.379 -1.04941 -1.1758 0
M  V30 5224 C 515.627 -0.756492 -1.87408 0
M  V30 5225 C 515.948 0.718478 -1.81281 0
M  V30 5226 O 515.218 1.519 -1.23706 0
M  V30 5227 H 513.798 -0.276841 -0.693807 0
M  V30 5228 H 516.46 -1.32803 -1.42652 0
M  V30 5229 H 515.556 -1.06918 -2.93215 0
M  V30 5230 N 515.857 1.33968 -0.830081 0
M  V30 5231 C 516.767 2.33164 -0.259207 0
M  V30 5232 C 517.783 1.62951 0.610164 0
M  V30 5233 O 518.959 1.94668 0.516369 0
M  V30 5234 C 516.024 3.42088 0.563598 0
M  V30 5235 C 515.085 4.28037 -0.329014 0
M  V30 5236 C 514.318 5.3176 0.454616 0
M  V30 5237 O 514.541 5.44876 1.6872 0
M  V30 5238 O 513.475 6.01669 -0.166794 0
M  V30 5239 H 517.301 2.83832 -1.08041 0
M  V30 5240 H 514.886 1.37154 -0.59239 0
M  V30 5241 H 516.768 4.08581 1.03147 0
M  V30 5242 H 515.443 2.93651 1.36201 0
M  V30 5243 H 514.35 3.64443 -0.844538 0
M  V30 5244 H 515.683 4.79934 -1.09196 0
M  V30 5245 N 517.335 0.585699 1.46312 0
M  V30 5246 C 518.563 0.0781299 2.06752 0
M  V30 5247 C 518.978 -1.22812 1.43396 0
M  V30 5248 O 518.335 -1.74318 0.540314 0
M  V30 5249 C 518.386 -0.0911927 3.61385 0
M  V30 5250 O 518.107 1.16336 4.22371 0
M  V30 5251 C 519.608 -0.632765 4.38761 0
M  V30 5252 H 516.828 0.0588188 0.668417 0
M  V30 5253 H 519.372 0.807218 1.87894 0
M  V30 5254 H 517.527 -0.770514 3.7966 0
M  V30 5255 H 517.941 0.979082 5.15281 0
M  V30 5256 H 519.415 -0.70041 5.47538 0
M  V30 5257 H 519.892 -1.65039 4.07012 0
M  V30 5258 H 520.498 0.0117856 4.25298 0
M  V30 5259 N 518.813 -1.54241 0.323641 0
M  V30 5260 C 520.041 -2.04985 -0.280871 0
M  V30 5261 C 520.456 -1.19978 -1.45777 0
M  V30 5262 O 519.813 -0.230471 -1.81039 0
M  V30 5263 C 519.864 -3.54353 -0.715258 0
M  V30 5264 O 519.585 -4.36132 0.414817 0
M  V30 5265 C 521.086 -4.21189 -1.38257 0
M  V30 5266 H 518.306 -0.66851 -0.0577502 0
M  V30 5267 H 520.85 -1.99029 0.469852 0
M  V30 5268 H 519.005 -3.60596 -1.41596 0
M  V30 5269 H 519.419 -5.2445 0.0725227 0
M  V30 5270 H 520.893 -5.27154 -1.63745 0
M  V30 5271 H 521.37 -3.72307 -2.32989 0
M  V30 5272 H 521.976 -4.19085 -0.724447 0
M  V30 5273 N 520.291 -0.0518155 -1.57515 0
M  V30 5274 C 521.254 0.907547 -2.10467 0
M  V30 5275 C 522.254 1.23947 -1.02439 0
M  V30 5276 O 523.444 1.17604 -1.2851 0
M  V30 5277 C 520.576 2.21723 -2.58944 0
M  V30 5278 H 521.769 0.44851 -2.96527 0
M  V30 5279 H 519.322 0.196598 -1.55059 0
M  V30 5280 H 520.057 2.72206 -1.76279 0
M  V30 5281 H 519.842 1.98935 -3.37886 0
M  V30 5282 H 521.332 2.90441 -3.00056 0
M  V30 5283 N 521.769 1.56035 0.221574 0
M  V30 5284 C 522.702 1.87427 1.30178 0
M  V30 5285 C 523.68 0.731658 1.45209 0
M  V30 5286 O 524.864 0.980016 1.61022 0
M  V30 5287 C 521.991 2.08127 2.67209 0
M  V30 5288 C 521.037 3.30813 2.69194 0
M  V30 5289 S 521.87 4.86738 2.23263 0
M  V30 5290 C 523.026 5.10474 3.62171 0
M  V30 5291 H 523.259 2.78756 1.03355 0
M  V30 5292 H 520.792 1.48469 0.423813 0
M  V30 5293 H 522.75 2.20736 3.46101 0
M  V30 5294 H 521.411 1.17595 2.91256 0
M  V30 5295 H 520.604 3.42341 3.6989 0
M  V30 5296 H 520.206 3.1706 1.98366 0
M  V30 5297 H 522.498 4.9937 4.5786 0
M  V30 5298 H 523.441 6.12359 3.55558 0
M  V30 5299 H 523.849 4.38208 3.55857 0
M  V30 5300 N 523.247 -0.488276 1.49845 0
M  V30 5301 C 524.495 -1.23911 1.59657 0
M  V30 5302 C 524.816 -1.92816 0.291005 0
M  V30 5303 O 524.086 -1.83328 -0.690485 0
M  V30 5304 H 522.666 -0.460357 0.588286 0
M  V30 5305 H 525.328 -0.564794 1.86537 0
M  V30 5306 H 524.424 -1.99625 2.39909 0
M  V30 5307 N 524.725 -1.39134 -0.740242 0
M  V30 5308 C 525.971 -1.37278 -1.50088 0
M  V30 5309 C 526.326 0.0329967 -1.92372 0
M  V30 5310 O 525.619 0.998447 -1.63529 0
M  V30 5311 C 525.813 -2.27457 -2.75678 0
M  V30 5312 C 525.642 -3.76662 -2.45674 0
M  V30 5313 C 524.412 -4.45617 -2.38229 0
M  V30 5314 C 526.61 -4.6877 -2.11563 0
M  V30 5315 N 524.592 -5.80187 -2.00641 0
M  V30 5316 C 525.963 -5.91951 -1.84376 0
M  V30 5317 C 528.018 -4.56843 -1.97987 0
M  V30 5318 C 526.721 -7.04538 -1.4498 0
M  V30 5319 C 528.747 -5.69347 -1.59994 0
M  V30 5320 C 528.109 -6.91597 -1.33687 0
M  V30 5321 H 524.208 -0.557611 -0.548265 0
M  V30 5322 H 526.792 -1.74638 -0.860784 0
M  V30 5323 H 524.963 -1.92263 -3.37475 0
M  V30 5324 H 526.695 -2.16631 -3.41838 0
M  V30 5325 H 523.45 -3.98993 -2.5515 0
M  V30 5326 H 523.874 -6.51387 -1.84454 0
M  V30 5327 H 528.516 -3.62868 -2.16995 0
M  V30 5328 H 526.234 -7.98419 -1.24712 0
M  V30 5329 H 529.82 -5.62104 -1.50102 0
M  V30 5330 H 528.7 -7.77176 -1.04728 0
M  V30 5331 N 526.204 0.969867 -1.24223 0
M  V30 5332 C 527.167 2.04564 -1.03373 0
M  V30 5333 C 528.167 1.60798 0.00819206 0
M  V30 5334 O 529.357 1.72641 -0.232567 0
M  V30 5335 C 526.489 3.36163 -0.566343 0
M  V30 5336 H 527.682 2.24494 -1.98853 0
M  V30 5337 H 525.235 1.1448 -1.06415 0
M  V30 5338 H 525.97 3.21925 0.391751 0
M  V30 5339 H 525.755 3.69273 -1.31834 0
M  V30 5340 H 527.245 4.1526 -0.441435 0
M  V30 5341 N 527.682 1.05563 1.17022 0
M  V30 5342 C 528.928 0.769074 1.87652 0
M  V30 5343 C 529.261 -0.702326 1.81055 0
M  V30 5344 O 528.536 -1.5139 1.22112 0
M  V30 5345 C 528.819 1.25492 3.37526 0
M  V30 5346 C 528.672 2.78953 3.52853 0
M  V30 5347 C 529.991 0.856919 4.31677 0
M  V30 5348 H 527.11 0.280854 0.681388 0
M  V30 5349 H 529.752 1.31027 1.37593 0
M  V30 5350 H 527.902 0.794516 3.80289 0
M  V30 5351 H 529.574 3.33146 3.19079 0
M  V30 5352 H 527.817 3.18046 2.95007 0
M  V30 5353 H 528.488 3.08011 4.58076 0
M  V30 5354 H 530.964 1.25334 3.96775 0
M  V30 5355 H 529.84 1.22443 5.35069 0
M  V30 5356 H 530.101 -0.238787 4.41455 0
M  V30 5357 N 529.16 -1.33526 0.837174 0
M  V30 5358 C 530.437 -1.92369 0.354065 0
M  V30 5359 C 530.817 -1.76348 -1.16038 0
M  V30 5360 O 530.165 -1.15083 -1.97403 0
M  V30 5361 C 530.375 -3.39728 0.799101 0
M  V30 5362 C 531.723 -4.16877 0.806139 0
M  V30 5363 O 532.747 -3.48373 0.742597 0
M  V30 5364 O 531.606 -5.39166 0.892345 0
M  V30 5365 H 528.7 -0.820952 0.0998378 0
M  V30 5366 H 531.246 -1.42409 0.922913 0
M  V30 5367 H 530.018 -3.45254 1.84162 0
M  V30 5368 H 529.641 -3.97062 0.206731 0
M  V30 5369 N 530.638 -0.59345 -1.46 0
M  V30 5370 C 532.049 -0.169801 -1.85926 0
M  V30 5371 C 532.4 1.26984 -1.49565 0
M  V30 5372 O 531.525 1.96076 -0.915602 0
M  V30 5373 C 532.12 -0.301385 -3.37457 0
M  V30 5374 C 530.679 0.0674684 -3.7634 0
M  V30 5375 C 529.826 -0.632383 -2.69993 0
M  V30 5376 H 532.777 -0.801014 -1.37002 0
M  V30 5377 H 532.798 0.470331 -3.77582 0
M  V30 5378 H 532.31 -1.34927 -3.63891 0
M  V30 5379 H 530.411 1.11507 -3.55523 0
M  V30 5380 H 530.524 -0.316332 -4.78055 0
M  V30 5381 H 528.888 -0.0714961 -2.546 0
M  V30 5382 H 529.671 -1.68212 -2.99265 0
M  V30 5383 N 532.116 1.54067 -0.331816 0
M  V30 5384 C 533.341 2.05599 0.272705 0
M  V30 5385 C 533.766 1.2059 1.44359 0
M  V30 5386 O 533.124 0.216907 1.79998 0
M  V30 5387 C 533.172 3.54188 0.677021 0
M  V30 5388 O 532.276 3.72082 1.77844 0
M  V30 5389 H 531.617 0.662286 0.0476801 0
M  V30 5390 H 534.147 1.98826 -0.482624 0
M  V30 5391 H 534.157 3.96608 0.957415 0
M  V30 5392 H 532.832 4.15513 -0.179325 0
M  V30 5393 H 531.409 3.41566 1.49622 0
M  V30 5394 N 533.594 0.0601682 1.57485 0
M  V30 5395 C 534.842 -0.610386 1.92662 0
M  V30 5396 C 535.163 -1.70849 0.939981 0
M  V30 5397 O 534.433 -1.95895 -0.0137455 0
M  V30 5398 H 533.013 -0.228457 0.711208 0
M  V30 5399 H 535.675 0.115288 1.94559 0
M  V30 5400 H 534.771 -1.0432 2.94149 0
M  V30 5401 N 535.072 -1.5615 -0.213296 0
M  V30 5402 C 536.002 -1.96109 -1.26742 0
M  V30 5403 C 536.983 -0.830448 -1.48451 0
M  V30 5404 O 538.168 -1.09339 -1.60495 0
M  V30 5405 C 535.298 -2.28492 -2.61551 0
M  V30 5406 C 534.252 -3.44124 -2.54485 0
M  V30 5407 C 533.578 -3.62134 -3.93399 0
M  V30 5408 C 534.878 -4.78855 -2.08556 0
M  V30 5409 H 536.572 -2.84412 -0.935434 0
M  V30 5410 H 534.118 -1.36836 -0.44854 0
M  V30 5411 H 536.071 -2.55039 -3.3546 0
M  V30 5412 H 534.795 -1.37052 -2.96453 0
M  V30 5413 H 533.454 -3.17639 -1.83033 0
M  V30 5414 H 533.102 -2.68055 -4.25623 0
M  V30 5415 H 532.802 -4.39913 -3.89551 0
M  V30 5416 H 534.326 -3.91038 -4.68958 0
M  V30 5417 H 535.74 -5.04552 -2.72213 0
M  V30 5418 H 534.137 -5.59975 -2.1575 0
M  V30 5419 H 535.207 -4.73657 -1.03811 0
M  V30 5420 N 536.55 0.480323 -1.50102 0
M  V30 5421 C 537.78 1.25475 -1.64133 0
M  V30 5422 C 538.188 1.8647 -0.320272 0
M  V30 5423 O 537.531 1.69561 0.70673 0
M  V30 5424 C 537.593 2.40996 -2.6676 0
M  V30 5425 C 537.257 2.00711 -4.10565 0
M  V30 5426 C 538.254 1.53492 -4.96725 0
M  V30 5427 C 535.939 2.09714 -4.56427 0
M  V30 5428 C 537.933 1.15806 -6.26792 0
M  V30 5429 C 535.62 1.7164 -5.86501 0
M  V30 5430 C 536.618 1.24763 -6.71508 0
M  V30 5431 O 536.306 0.872122 -7.99155 0
M  V30 5432 H 536.038 0.385983 -0.554971 0
M  V30 5433 H 538.592 0.580848 -1.97016 0
M  V30 5434 H 536.822 3.11528 -2.291 0
M  V30 5435 H 538.511 3.02981 -2.70106 0
M  V30 5436 H 539.277 1.45966 -4.62514 0
M  V30 5437 H 535.156 2.4515 -3.90413 0
M  V30 5438 H 538.7 0.791465 -6.93096 0
M  V30 5439 H 534.597 1.78822 -6.20236 0
M  V30 5440 H 535.365 1.00178 -8.12346 0
M  V30 5441 N 538.028 1.39524 0.732853 0
M  V30 5442 C 538.938 1.40695 1.87729 0
M  V30 5443 C 539.954 0.301496 1.71368 0
M  V30 5444 O 541.13 0.543313 1.93933 0
M  V30 5445 C 538.195 1.25098 3.23344 0
M  V30 5446 C 537.256 2.45634 3.52083 0
M  V30 5447 C 536.489 2.30772 4.81228 0
M  V30 5448 O 536.712 1.31233 5.55098 0
M  V30 5449 O 535.646 3.19799 5.09914 0
M  V30 5450 H 539.472 2.37168 1.89697 0
M  V30 5451 H 537.057 1.20663 0.880959 0
M  V30 5452 H 538.939 1.18541 4.04383 0
M  V30 5453 H 537.614 0.317209 3.22142 0
M  V30 5454 H 536.521 2.57767 2.71122 0
M  V30 5455 H 537.854 3.37712 3.58066 0
M  V30 5456 N 539.506 -0.963266 1.24736 0
M  V30 5457 C 540.436 -2.07628 1.06832 0
M  V30 5458 C 541.417 -1.70088 -0.0200566 0
M  V30 5459 O 542.602 -1.93636 0.147854 0
M  V30 5460 C 539.732 -3.40636 0.677069 0
M  V30 5461 C 538.686 -3.9215 1.71471 0
M  V30 5462 C 538.012 -5.21553 1.1784 0
M  V30 5463 C 539.312 -4.19493 3.11164 0
M  V30 5464 H 541.006 -2.22864 1.9993 0
M  V30 5465 H 538.552 -1.07093 0.96266 0
M  V30 5466 H 540.505 -4.17941 0.538792 0
M  V30 5467 H 539.229 -3.25313 -0.289612 0
M  V30 5468 H 537.888 -3.17005 1.84128 0
M  V30 5469 H 537.536 -5.02593 0.202195 0
M  V30 5470 H 537.236 -5.56988 1.87185 0
M  V30 5471 H 538.76 -6.01463 1.05233 0
M  V30 5472 H 540.174 -4.87487 3.01711 0
M  V30 5473 H 538.571 -4.66165 3.77902 0
M  V30 5474 H 539.641 -3.26097 3.58871 0
M  V30 5475 N 540.985 -1.06182 -1.16461 0
M  V30 5476 C 541.915 -0.692861 -2.22984 0
M  V30 5477 C 542.896 0.314122 -1.67174 0
M  V30 5478 O 544.081 0.189499 -1.93273 0
M  V30 5479 C 541.211 -0.07732 -3.47214 0
M  V30 5480 C 540.165 -1.01015 -4.15909 0
M  V30 5481 C 539.491 -0.257973 -5.34077 0
M  V30 5482 C 540.791 -2.33868 -4.67015 0
M  V30 5483 H 542.485 -1.58343 -2.54102 0
M  V30 5484 H 540.031 -0.76279 -1.22137 0
M  V30 5485 H 541.984 0.19266 -4.20959 0
M  V30 5486 H 540.708 0.848254 -3.15392 0
M  V30 5487 H 539.367 -1.26486 -3.44088 0
M  V30 5488 H 539.015 0.670684 -4.98509 0
M  V30 5489 H 538.715 -0.879638 -5.80979 0
M  V30 5490 H 540.239 0.00448788 -6.106 0
M  V30 5491 H 541.653 -2.1279 -5.32347 0
M  V30 5492 H 540.05 -2.91522 -5.24533 0
M  V30 5493 H 541.12 -2.97019 -3.83286 0
M  V30 5494 N 542.463 1.3308 -0.844243 0
M  V30 5495 C 543.879 1.50447 -0.532729 0
M  V30 5496 C 544.079 1.78292 0.938837 0
M  V30 5497 O 543.135 1.84635 1.72239 0
M  V30 5498 C 544.448 2.65555 -1.41072 0
M  V30 5499 C 545.996 2.7944 -1.41005 0
M  V30 5500 C 546.471 3.97616 -2.27301 0
M  V30 5501 N 547.962 4.0486 -2.2504 0
M  V30 5502 C 548.697 4.95508 -2.88547 0
M  V30 5503 N 548.193 5.91236 -3.61126 0
M  V30 5504 N 549.986 4.88548 -2.77989 0
M  V30 5505 H 542.137 1.13269 -1.79677 0
M  V30 5506 H 544.4 0.55734 -0.766861 0
M  V30 5507 H 544.106 2.51675 -2.45668 0
M  V30 5508 H 543.98 3.61089 -1.09061 0
M  V30 5509 H 546.367 2.92749 -0.371784 0
M  V30 5510 H 546.448 1.8465 -1.77026 0
M  V30 5511 H 546.092 3.85066 -3.3119 0
M  V30 5512 H 546.022 4.91661 -1.88619 0
M  V30 5513 H 548.513 3.36353 -1.72264 0
M  V30 5514 H 548.826 6.57079 -4.06776 0
M  V30 5515 H 547.171 5.91295 -3.65234 0
M  V30 5516 H 550.362 4.12729 -2.20846 0
M  V30 5517 H 550.535 5.58994 -3.27765 0
M  V30 5518 N 543.941 0.601185 1.45683 0
M  V30 5519 C 545.357 0.264315 1.57396 0
M  V30 5520 C 545.557 -1.23324 1.59353 0
M  V30 5521 O 544.613 -2.01594 1.52039 0
M  V30 5522 C 545.926 0.929839 2.85962 0
M  V30 5523 C 547.474 0.905156 2.99626 0
M  V30 5524 C 547.949 1.55057 4.30954 0
M  V30 5525 N 549.44 1.51576 4.37697 0
M  V30 5526 C 550.175 1.98436 5.37969 0
M  V30 5527 N 549.671 2.53352 6.44813 0
M  V30 5528 N 551.464 1.89242 5.29286 0
M  V30 5529 H 543.615 1.57363 1.42656 0
M  V30 5530 H 545.878 0.658831 0.681649 0
M  V30 5531 H 545.584 1.98404 2.90394 0
M  V30 5532 H 545.458 0.449224 3.74515 0
M  V30 5533 H 547.845 -0.14048 2.94765 0
M  V30 5534 H 547.926 1.42397 2.12501 0
M  V30 5535 H 547.57 2.5955 4.36573 0
M  V30 5536 H 547.5 1.00682 5.16886 0
M  V30 5537 H 549.991 1.11452 3.61091 0
M  V30 5538 H 550.304 2.86918 7.17564 0
M  V30 5539 H 548.649 2.57388 6.45582 0
M  V30 5540 H 551.84 1.46083 4.44722 0
M  V30 5541 H 552.013 2.26075 6.07284 0
M  V30 5542 N 545.419 -1.53889 0.339982 0
M  V30 5543 C 546.349 -2.27843 -0.510856 0
M  V30 5544 C 547.33 -1.29267 -1.10563 0
M  V30 5545 O 548.515 -1.58104 -1.12768 0
M  V30 5546 C 545.645 -3.04857 -1.66372 0
M  V30 5547 C 544.599 -4.10907 -1.19746 0
M  V30 5548 C 543.925 -4.75855 -2.43857 0
M  V30 5549 C 545.225 -5.21435 -0.300501 0
M  V30 5550 H 546.919 -2.99212 0.106067 0
M  V30 5551 H 544.465 -1.43904 0.0524533 0
M  V30 5552 H 546.418 -3.5533 -2.26537 0
M  V30 5553 H 545.142 -2.31133 -2.30749 0
M  V30 5554 H 543.801 -3.61342 -0.618654 0
M  V30 5555 H 543.449 -3.9873 -3.06633 0
M  V30 5556 H 543.149 -5.47502 -2.13343 0
M  V30 5557 H 544.673 -5.2911 -3.04754 0
M  V30 5558 H 546.087 -5.67565 -0.80889 0
M  V30 5559 H 544.484 -6.00036 -0.0874076 0
M  V30 5560 H 545.554 -4.80328 0.664321 0
M  V30 5561 N 546.897 -0.0685191 -1.57451 0
M  V30 5562 C 548.122 0.613919 -1.98106 0
M  V30 5563 C 548.547 1.62551 -0.946501 0
M  V30 5564 O 547.905 1.81085 0.0882824 0
M  V30 5565 C 547.953 1.26189 -3.378 0
M  V30 5566 O 547.057 2.37773 -3.36954 0
M  V30 5567 H 546.398 0.158163 -0.644888 0
M  V30 5568 H 548.928 -0.142063 -2.04106 0
M  V30 5569 H 548.938 1.60951 -3.74912 0
M  V30 5570 H 547.613 0.520625 -4.12629 0
M  V30 5571 H 546.19 2.04829 -3.11608 0
M  V30 5572 N 548.375 1.56261 0.205012 0
M  V30 5573 C 549.6 1.84491 0.947512 0
M  V30 5574 C 550.025 0.650894 1.76479 0
M  V30 5575 O 549.383 -0.40035 1.76824 0
M  V30 5576 C 549.431 3.10863 1.82747 0
M  V30 5577 O 548.535 2.90719 2.925 0
M  V30 5578 H 547.876 0.607783 0.267386 0
M  V30 5579 H 550.406 2.03485 0.213323 0
M  V30 5580 H 550.416 3.41399 2.23407 0
M  V30 5581 H 549.091 3.97392 1.2269 0
M  V30 5582 H 547.668 2.71457 2.55667 0
M  V30 5583 N 549.853 -0.472356 1.50355 0
M  V30 5584 C 551.13 -1.23356 1.51798 0
M  V30 5585 C 551.51 -2.09469 0.26193 0
M  V30 5586 O 550.858 -2.15677 -0.754691 0
M  V30 5587 C 551.068 -2.06568 2.81302 0
M  V30 5588 C 552.416 -2.648 3.31913 0
M  V30 5589 O 553.44 -2.16812 2.82614 0
M  V30 5590 O 552.299 -3.52231 4.17846 0
M  V30 5591 H 549.393 -0.559707 0.608816 0
M  V30 5592 H 551.939 -0.48428 1.62643 0
M  V30 5593 H 550.711 -1.43103 3.64194 0
M  V30 5594 H 550.334 -2.88633 2.73454 0
M  V30 5595 N 551.331 -1.39911 -0.725443 0
M  V30 5596 C 552.578 -1.37654 -1.48518 0
M  V30 5597 C 552.906 0.0243982 -1.94485 0
M  V30 5598 O 552.161 1.00708 -1.67799 0
M  V30 5599 C 552.46 -2.30368 -2.7325 0
M  V30 5600 C 552.126 -3.77817 -2.461 0
M  V30 5601 C 550.788 -4.17991 -2.38405 0
M  V30 5602 C 553.14 -4.71036 -2.23103 0
M  V30 5603 C 550.468 -5.49433 -2.05768 0
M  V30 5604 C 552.82 -6.02766 -1.9198 0
M  V30 5605 C 551.484 -6.41993 -1.82761 0
M  V30 5606 H 550.754 -0.503713 -0.543465 0
M  V30 5607 H 553.401 -1.7249 -0.831822 0
M  V30 5608 H 551.706 -1.88683 -3.43375 0
M  V30 5609 H 553.403 -2.2591 -3.31309 0
M  V30 5610 H 549.993 -3.45982 -2.52972 0
M  V30 5611 H 554.177 -4.40823 -2.2801 0
M  V30 5612 H 549.433 -5.78738 -1.9716 0
M  V30 5613 H 553.607 -6.74519 -1.73197 0
M  V30 5614 H 551.234 -7.43761 -1.57237 0
M  V30 5615 N 552.809 0.956637 -1.25245 0
M  V30 5616 C 554.22 1.51569 -1.09012 0
M  V30 5617 C 554.571 1.93322 0.334813 0
M  V30 5618 O 553.696 1.78421 1.22454 0
M  V30 5619 C 554.291 2.75444 -1.97271 0
M  V30 5620 C 552.85 3.27669 -1.8523 0
M  V30 5621 C 551.997 2.00517 -1.91542 0
M  V30 5622 H 554.948 0.773746 -1.3856 0
M  V30 5623 H 554.969 3.4919 -1.51151 0
M  V30 5624 H 554.481 2.45024 -3.00973 0
M  V30 5625 H 552.582 3.62914 -0.844045 0
M  V30 5626 H 552.695 3.9582 -2.69932 0
M  V30 5627 H 551.059 2.15727 -1.35404 0
M  V30 5628 H 551.842 1.72448 -2.96844 0
M  V30 5629 N 554.287 1.06798 1.15896 0
M  V30 5630 C 555.25 0.687328 2.18651 0
M  V30 5631 C 556.25 -0.269559 1.58524 0
M  V30 5632 O 557.44 -0.0512627 1.74125 0
M  V30 5633 C 554.572 0.0121642 3.40898 0
M  V30 5634 H 555.765 1.59701 2.53842 0
M  V30 5635 H 553.318 0.863828 1.3026 0
M  V30 5636 H 554.053 -0.910025 3.1127 0
M  V30 5637 H 553.838 0.700309 3.85795 0
M  V30 5638 H 555.328 -0.239703 4.16911 0
M  V30 5639 N 555.766 -1.3263 0.851289 0
M  V30 5640 C 556.696 -2.31449 0.308771 0
M  V30 5641 C 557.677 -1.59531 -0.590255 0
M  V30 5642 O 558.862 -1.87351 -0.511205 0
M  V30 5643 C 555.992 -3.43586 -0.506548 0
M  V30 5644 C 554.946 -4.26963 0.297753 0
M  V30 5645 C 554.272 -5.30831 -0.642094 0
M  V30 5646 C 555.572 -4.99643 1.52166 0
M  V30 5647 H 557.266 -2.77074 1.13447 0
M  V30 5648 H 554.812 -1.33207 0.546971 0
M  V30 5649 H 556.765 -4.11754 -0.896474 0
M  V30 5650 H 555.489 -2.96681 -1.36558 0
M  V30 5651 H 554.148 -3.60437 0.669391 0
M  V30 5652 H 553.796 -4.8018 -1.49788 0
M  V30 5653 H 553.496 -5.87501 -0.107968 0
M  V30 5654 H 555.02 -6.01862 -1.02927 0
M  V30 5655 H 556.434 -5.6051 1.20421 0
M  V30 5656 H 554.831 -5.66022 1.99347 0
M  V30 5657 H 555.901 -4.27701 2.28474 0
M  V30 5658 N 557.244 -0.608902 -1.45362 0
M  V30 5659 C 558.655 -0.189511 -1.85736 0
M  V30 5660 C 559.006 1.2539 -1.50903 0
M  V30 5661 O 558.131 1.95094 -0.936347 0
M  V30 5662 C 558.726 -0.33716 -3.37118 0
M  V30 5663 C 557.285 0.0275487 -3.7639 0
M  V30 5664 C 556.432 -0.660983 -2.69307 0
M  V30 5665 H 559.383 -0.815499 -1.36144 0
M  V30 5666 H 559.404 0.430257 -3.7806 0
M  V30 5667 H 558.916 -1.38779 -3.62439 0
M  V30 5668 H 557.017 1.0773 -3.56686 0
M  V30 5669 H 557.13 -0.367018 -4.77692 0
M  V30 5670 H 555.494 -0.0984958 -2.54509 0
M  V30 5671 H 556.277 -1.71377 -2.97464 0
M  V30 5672 N 558.722 1.53707 -0.348139 0
M  V30 5673 C 559.652 2.28111 0.498766 0
M  V30 5674 C 560.633 1.29851 1.09876 0
M  V30 5675 O 561.818 1.587 1.11928 0
M  V30 5676 C 558.948 3.05735 1.64753 0
M  V30 5677 C 557.902 4.11537 1.17565 0
M  V30 5678 C 557.228 4.77142 2.4133 0
M  V30 5679 C 558.528 5.21587 0.272844 0
M  V30 5680 H 560.222 2.99152 -0.121934 0
M  V30 5681 H 557.768 1.43875 -0.0600842 0
M  V30 5682 H 559.721 3.56526 2.24649 0
M  V30 5683 H 558.445 2.32354 2.2952 0
M  V30 5684 H 557.104 3.61665 0.599483 0
M  V30 5685 H 556.752 4.0035 3.04514 0
M  V30 5686 H 556.452 5.48626 2.10436 0
M  V30 5687 H 557.976 5.30719 3.01943 0
M  V30 5688 H 559.39 5.67986 0.778779 0
M  V30 5689 H 557.787 6.00074 0.0555849 0
M  V30 5690 H 558.857 4.79969 -0.689785 0
M  V30 5691 N 560.2 0.0768682 1.57412 0
M  V30 5692 C 561.446 -0.591961 1.93968 0
M  V30 5693 C 561.779 -1.68954 0.9575 0
M  V30 5694 O 561.054 -1.94496 -0.0124675 0
M  V30 5695 C 561.337 -1.16418 3.40762 0
M  V30 5696 C 561.19 -0.0728933 4.49741 0
M  V30 5697 C 562.509 -2.06814 3.88479 0
M  V30 5698 H 559.628 -0.213716 0.705333 0
M  V30 5699 H 562.27 0.14387 1.89455 0
M  V30 5700 H 560.42 -1.79128 3.4474 0
M  V30 5701 H 562.092 0.560446 4.57883 0
M  V30 5702 H 560.335 0.595859 4.29688 0
M  V30 5703 H 561.006 -0.513755 5.49604 0
M  V30 5704 H 563.482 -1.54033 3.8654 0
M  V30 5705 H 562.358 -2.43785 4.91793 0
M  V30 5706 H 562.619 -2.97844 3.26713 0
M  V30 5707 N 561.678 -1.56367 -0.196722 0
M  V30 5708 C 562.927 -1.79724 -0.915539 0
M  V30 5709 C 563.24 -0.649804 -1.84491 0
M  V30 5710 O 564.446 -0.767631 -2.60422 0
M  V30 5711 C 562.902 -3.18369 -1.67836 0
M  V30 5712 C 562.51 -4.4091 -0.793897 0
M  V30 5713 C 564.254 -3.51037 -2.38691 0
M  V30 5714 C 562.161 -5.70577 -1.55549 0
M  V30 5715 H 561.091 -0.67013 -0.345604 0
M  V30 5716 H 563.742 -1.82721 -0.168856 0
M  V30 5717 H 562.124 -3.09617 -2.46887 0
M  V30 5718 H 563.298 -4.60781 -0.042163 0
M  V30 5719 H 561.613 -4.15937 -0.19626 0
M  V30 5720 H 564.21 -4.4515 -2.96219 0
M  V30 5721 H 564.553 -2.74704 -3.12799 0
M  V30 5722 H 565.086 -3.61229 -1.66608 0
M  V30 5723 H 561.825 -6.49871 -0.857226 0
M  V30 5724 H 561.345 -5.54726 -2.2812 0
M  V30 5725 H 563.024 -6.11637 -2.10971 0
M  V30 5726 N 563.156 0.464375 -1.50603 0
M  V30 5727 C 564.384 1.23907 -1.65695 0
M  V30 5728 C 564.799 1.85658 -0.343027 0
M  V30 5729 O 564.156 1.69529 0.675739 0
M  V30 5730 C 564.207 2.3429 -2.75301 0
M  V30 5731 O 563.928 1.7507 -4.01599 0
M  V30 5732 C 565.429 3.25051 -3.01424 0
M  V30 5733 H 562.649 0.374485 -0.556778 0
M  V30 5734 H 565.193 0.55353 -1.96866 0
M  V30 5735 H 563.348 2.98607 -2.46804 0
M  V30 5736 H 563.762 2.47812 -4.62266 0
M  V30 5737 H 565.236 3.98699 -3.81763 0
M  V30 5738 H 565.713 3.84227 -2.12758 0
M  V30 5739 H 566.319 2.66463 -3.31477 0
M  V30 5740 N 564.634 1.40294 0.718013 0
M  V30 5741 C 565.544 1.42678 1.86226 0
M  V30 5742 C 566.56 0.319655 1.71039 0
M  V30 5743 O 567.736 0.563852 1.93346 0
M  V30 5744 C 564.801 1.2852 3.21999 0
M  V30 5745 C 563.862 2.49354 3.49458 0
M  V30 5746 C 563.095 2.35863 4.78753 0
M  V30 5747 O 563.318 1.37114 5.53675 0
M  V30 5748 O 562.252 3.25189 5.06494 0
M  V30 5749 H 566.078 2.39167 1.87171 0
M  V30 5750 H 563.663 1.2159 0.868112 0
M  V30 5751 H 565.545 1.22824 4.03103 0
M  V30 5752 H 564.22 0.351359 3.21787 0
M  V30 5753 H 563.127 2.60628 2.68373 0
M  V30 5754 H 564.46 3.41491 3.54464 0
M  V30 5755 N 566.112 -0.949982 1.2575 0
M  V30 5756 C 567.06 -2.06869 1.06339 0
M  V30 5757 C 568.054 -1.69399 -0.00708901 0
M  V30 5758 O 569.26 -1.79383 0.148897 0
M  V30 5759 H 565.635 -0.677197 0.326969 0
M  V30 5760 H 567.606 -2.20396 2.01167 0
M  V30 5761 C 566.355 -3.40503 0.703769 0
M  V30 5762 H 565.678 -3.69807 1.51931 0
M  V30 5763 H 567.118 -4.19623 0.607677 0
M  V30 5764 C 565.577 -3.31685 -0.5905 0
M  V30 5765 O 566.107 -3.67085 -1.63131 0
M  V30 5766 N 564.313 -2.84797 -0.577859 0
M  V30 5767 H 563.86 -2.56186 0.26951 0
M  V30 5768 H 563.818 -2.79279 -1.44398 0
M  V30 5769 N 567.59 -1.07411 -1.15328 0
M  V30 5770 C 568.838 -0.796073 -1.85761 0
M  V30 5771 C 569.159 0.679864 -1.82764 0
M  V30 5772 O 568.429 1.49242 -1.269 0
M  V30 5773 H 567.009 -0.291495 -0.687779 0
M  V30 5774 H 569.671 -1.35799 -1.39802 0
M  V30 5775 H 568.767 -1.13114 -2.90881 0
M  V30 5776 N 569.068 1.32177 -0.85831 0
M  V30 5777 C 570.031 2.27086 -0.310588 0
M  V30 5778 C 571.031 1.51751 0.531806 0
M  V30 5779 O 572.221 1.70794 0.34279 0
M  V30 5780 C 569.353 3.36266 0.560179 0
M  V30 5781 H 570.546 2.77045 -1.1483 0
M  V30 5782 H 568.099 1.42911 -0.632942 0
M  V30 5783 H 568.834 2.9158 1.41956 0
M  V30 5784 H 568.619 3.92077 -0.0428473 0
M  V30 5785 H 570.109 4.06974 0.936056 0
M  V30 5786 N 570.547 0.616602 1.45037 0
M  V30 5787 C 571.51 -0.0871112 2.29034 0
M  V30 5788 C 572.51 -0.786414 1.40258 0
M  V30 5789 O 573.7 -0.633207 1.62284 0
M  V30 5790 C 570.832 -1.13369 3.21497 0
M  V30 5791 H 572.025 0.651497 2.92738 0
M  V30 5792 H 569.578 0.376058 1.51709 0
M  V30 5793 H 570.313 -1.90277 2.62612 0
M  V30 5794 H 570.098 -0.636358 3.86902 0
M  V30 5795 H 571.588 -1.62627 3.84633 0
M  V30 5796 N 572.025 -1.5352 0.356285 0
M  V30 5797 C 573.272 -2.01117 -0.236303 0
M  V30 5798 C 573.6 -1.24381 -1.49531 0
M  V30 5799 O 572.855 -0.323057 -1.93015 0
M  V30 5800 C 573.154 -3.52607 -0.583369 0
M  V30 5801 C 572.82 -4.47151 0.58023 0
M  V30 5802 C 571.482 -4.72718 0.899528 0
M  V30 5803 C 573.834 -5.03137 1.36024 0
M  V30 5804 C 571.162 -5.51523 2.00098 0
M  V30 5805 C 573.514 -5.83145 2.45204 0
M  V30 5806 C 572.178 -6.07001 2.77679 0
M  V30 5807 H 571.448 -0.735938 -0.0864695 0
M  V30 5808 H 574.095 -1.85209 0.48683 0
M  V30 5809 H 572.4 -3.66413 -1.38739 0
M  V30 5810 H 574.097 -3.86901 -1.05397 0
M  V30 5811 H 570.687 -4.27394 0.321322 0
M  V30 5812 H 574.871 -4.83339 1.12682 0
M  V30 5813 H 570.127 -5.68229 2.25668 0
M  V30 5814 H 574.301 -6.25537 3.06067 0
M  V30 5815 H 571.928 -6.67851 3.63151 0
M  V30 5816 N 573.503 -0.0852151 -1.57369 0
M  V30 5817 C 574.453 0.88767 -2.10011 0
M  V30 5818 C 575.437 1.25021 -1.01285 0
M  V30 5819 O 576.629 1.22694 -1.27574 0
M  V30 5820 C 573.758 2.15037 -2.67608 0
M  V30 5821 C 572.844 1.81371 -3.83361 0
M  V30 5822 N 573.235 1.18216 -4.91791 0
M  V30 5823 C 571.533 2.11041 -3.92909 0
M  V30 5824 C 572.234 1.02941 -5.72519 0
M  V30 5825 N 571.21 1.54351 -5.21226 0
M  V30 5826 H 575.012 0.395279 -2.9123 0
M  V30 5827 H 572.526 0.11829 -1.61969 0
M  V30 5828 H 574.523 2.85667 -3.03644 0
M  V30 5829 H 573.183 2.64851 -1.8784 0
M  V30 5830 H 574.194 0.850168 -5.10874 0
M  V30 5831 H 570.871 2.63138 -3.24136 0
M  V30 5832 H 572.261 0.536298 -6.69756 0
M  V30 5833 N 574.981 1.5647 0.188427 0
M  V30 5834 C 576.258 1.71857 0.934058 0
M  V30 5835 C 576.638 0.641867 2.01105 0
M  V30 5836 O 575.986 -0.346098 2.25864 0
M  V30 5837 C 576.196 3.14431 1.5144 0
M  V30 5838 C 577.544 3.74869 1.99396 0
M  V30 5839 O 578.568 3.17601 1.61269 0
M  V30 5840 O 577.427 4.75387 2.69573 0
M  V30 5841 H 574.521 0.701186 0.438483 0
M  V30 5842 H 577.067 1.68768 0.177599 0
M  V30 5843 H 575.839 3.8427 0.738416 0
M  V30 5844 H 575.462 3.21775 2.33552 0
M  V30 5845 N 576.459 -0.456382 1.50847 0
M  V30 5846 C 577.689 -1.22848 1.66108 0
M  V30 5847 C 578.097 -1.85936 0.349897 0
M  V30 5848 O 577.44 -1.70664 -0.679665 0
M  V30 5849 C 577.502 -2.36722 2.70561 0
M  V30 5850 C 577.166 -1.94154 4.13707 0
M  V30 5851 C 578.163 -1.4557 4.99105 0
M  V30 5852 C 575.848 -2.02426 4.59705 0
M  V30 5853 C 577.842 -1.0582 6.28555 0
M  V30 5854 C 575.529 -1.62287 5.89157 0
M  V30 5855 C 576.527 -1.14064 6.73408 0
M  V30 5856 O 576.215 -0.744873 8.00442 0
M  V30 5857 H 575.947 -0.377105 0.561042 0
M  V30 5858 H 578.501 -0.549431 1.97915 0
M  V30 5859 H 576.731 -3.07844 2.34027 0
M  V30 5860 H 578.42 -2.98646 2.74892 0
M  V30 5861 H 579.186 -1.38589 4.64777 0
M  V30 5862 H 575.065 -2.38908 3.94264 0
M  V30 5863 H 578.609 -0.6811 6.94267 0
M  V30 5864 H 574.506 -1.68932 6.23003 0
M  V30 5865 H 575.274 -0.87242 8.13837 0
M  V30 5866 N 577.937 -1.40673 -0.710563 0
M  V30 5867 C 578.9 -1.4108 -1.80635 0
M  V30 5868 C 579.9 -0.303783 -1.57904 0
M  V30 5869 O 581.09 -0.562937 -1.64853 0
M  V30 5870 C 578.222 -1.20748 -3.18799 0
M  V30 5871 H 579.415 -2.38612 -1.81671 0
M  V30 5872 H 576.968 -1.26595 -0.916704 0
M  V30 5873 H 577.703 -0.239964 -3.23411 0
M  V30 5874 H 577.488 -2.00941 -3.36698 0
M  V30 5875 H 578.978 -1.23833 -3.98817 0
M  V30 5876 N 579.415 0.9433 -1.26252 0
M  V30 5877 C 580.692 1.66639 -1.02424 0
M  V30 5878 C 581.072 2.06335 0.446006 0
M  V30 5879 O 580.42 1.78551 1.42589 0
M  V30 5880 C 580.63 2.88019 -1.97094 0
M  V30 5881 C 581.978 3.59718 -2.25584 0
M  V30 5882 O 583.002 2.9812 -1.94943 0
M  V30 5883 O 581.861 4.7066 -2.77743 0
M  V30 5884 H 578.955 0.729643 -0.389294 0
M  V30 5885 H 581.501 0.995218 -1.37454 0
M  V30 5886 H 580.273 2.5556 -2.96319 0
M  V30 5887 H 579.896 3.62863 -1.62532 0
M  V30 5888 N 580.893 1.08022 1.14757 0
M  V30 5889 C 582.304 0.829144 1.67279 0
M  V30 5890 C 582.655 -0.644721 1.85305 0
M  V30 5891 O 581.78 -1.49838 1.56133 0
M  V30 5892 C 582.375 1.49855 3.03857 0
M  V30 5893 C 580.934 1.29482 3.53428 0
M  V30 5894 C 580.081 1.56386 2.28995 0
M  V30 5895 H 583.032 1.24134 0.988762 0
M  V30 5896 H 583.053 0.923572 3.69121 0
M  V30 5897 H 582.565 2.57123 2.90705 0
M  V30 5898 H 580.666 0.242669 3.71809 0
M  V30 5899 H 580.779 2.01974 4.34446 0
M  V30 5900 H 579.143 0.985217 2.34874 0
M  V30 5901 H 579.926 2.64851 2.18423 0
M  V30 5902 N 582.371 -1.3172 0.865308 0
M  V30 5903 C 583.281 -2.32394 0.320935 0
M  V30 5904 C 584.297 -1.64511 -0.566746 0
M  V30 5905 O 585.473 -1.95969 -0.464575 0
M  V30 5906 C 582.538 -3.43462 -0.472701 0
M  V30 5907 C 581.599 -4.27015 0.442385 0
M  V30 5908 C 580.832 -5.32779 -0.313469 0
M  V30 5909 O 581.055 -5.49158 -1.54214 0
M  V30 5910 O 579.989 -6.01015 0.326257 0
M  V30 5911 H 583.815 -2.80868 1.15528 0
M  V30 5912 H 581.4 -1.35535 0.628545 0
M  V30 5913 H 583.282 -4.11172 -0.922781 0
M  V30 5914 H 581.957 -2.97159 -1.28367 0
M  V30 5915 H 580.864 -3.62075 0.940866 0
M  V30 5916 H 582.197 -4.76871 1.21882 0
M  V30 5917 N 583.85 -0.624285 -1.44708 0
M  V30 5918 C 585.098 -0.125802 -2.01708 0
M  V30 5919 C 585.418 1.2543 -1.49306 0
M  V30 5920 O 584.689 1.83198 -0.693924 0
M  V30 5921 H 583.269 -0.0435161 -0.745731 0
M  V30 5922 H 585.931 -0.809446 -1.77296 0
M  V30 5923 H 585.027 -0.0882734 -3.11975 0
M  V30 5924 N 585.328 1.53329 -0.364422 0
M  V30 5925 C 586.276 2.27212 0.497737 0
M  V30 5926 C 587.27 1.30146 1.08437 0
M  V30 5927 O 588.476 1.47778 1.0277 0
M  V30 5928 H 584.851 0.730329 0.179232 0
M  V30 5929 H 586.822 2.98037 -0.147182 0
M  V30 5930 C 585.571 3.07333 1.6261 0
M  V30 5931 H 584.894 3.81866 1.184 0
M  V30 5932 H 586.334 3.62209 2.20409 0
M  V30 5933 C 584.793 2.18102 2.56775 0
M  V30 5934 O 585.323 1.79104 3.59562 0
M  V30 5935 N 583.529 1.82759 2.25937 0
M  V30 5936 H 583.076 2.14671 1.42387 0
M  V30 5937 H 583.034 1.23342 2.89196 0
M  V30 5938 N 586.806 0.0935595 1.57322 0
M  V30 5939 C 588.052 -0.571355 1.94585 0
M  V30 5940 C 588.385 -1.67929 0.975366 0
M  V30 5941 O 587.66 -1.94498 0.00816206 0
M  V30 5942 C 587.943 -1.12797 3.41978 0
M  V30 5943 C 587.796 -0.0251881 4.49793 0
M  V30 5944 C 589.115 -2.02682 3.90651 0
M  V30 5945 H 586.234 -0.206223 0.70756 0
M  V30 5946 H 588.876 0.163956 1.89291 0
M  V30 5947 H 587.026 -1.75461 3.4662 0
M  V30 5948 H 588.698 0.608979 4.57263 0
M  V30 5949 H 586.941 0.641399 4.29032 0
M  V30 5950 H 587.612 -0.455433 5.50118 0
M  V30 5951 H 590.088 -1.49925 3.88152 0
M  V30 5952 H 588.964 -2.38555 4.94351 0
M  V30 5953 H 589.225 -2.94362 3.29854 0
M  V30 5954 N 588.284 -1.56567 -0.180126 0
M  V30 5955 C 589.232 -1.96632 -1.24251 0
M  V30 5956 C 590.226 -0.853818 -1.46309 0
M  V30 5957 O 591.432 -1.0389 -1.46993 0
M  V30 5958 H 587.807 -0.625476 -0.417473 0
M  V30 5959 H 589.778 -2.85201 -0.877679 0
M  V30 5960 C 588.527 -2.33486 -2.57642 0
M  V30 5961 H 587.85 -3.18626 -2.4149 0
M  V30 5962 H 589.29 -2.65371 -3.30688 0
M  V30 5963 C 587.749 -1.17499 -3.15746 0
M  V30 5964 O 588.279 -0.457956 -3.99081 0
M  V30 5965 N 586.485 -0.94786 -2.74707 0
M  V30 5966 H 586.032 -1.53269 -2.07042 0
M  V30 5967 H 585.99 -0.173626 -3.1392 0
M  V30 5968 N 589.762 0.448376 -1.51087 0
M  V30 5969 C 591.039 1.20926 -1.53741 0
M  V30 5970 C 591.419 2.09025 -0.295222 0
M  V30 5971 O 590.767 2.16851 0.720283 0
M  V30 5972 C 590.977 2.02067 -2.84552 0
M  V30 5973 C 592.325 2.59486 -3.36084 0
M  V30 5974 O 593.349 2.12289 -2.86028 0
M  V30 5975 O 592.208 3.45539 -4.23397 0
M  V30 5976 H 589.302 0.549951 -0.617643 0
M  V30 5977 H 591.848 0.458344 -1.63393 0
M  V30 5978 H 590.62 1.37291 -3.66425 0
M  V30 5979 H 590.243 2.84246 -2.78011 0
M  V30 5980 N 591.24 1.41047 0.703093 0
M  V30 5981 C 592.651 1.35657 1.28274 0
M  V30 5982 C 593.002 0.0360309 1.96167 0
M  V30 5983 O 592.127 -0.865833 1.98324 0
M  V30 5984 C 592.722 2.45707 2.33267 0
M  V30 5985 C 591.281 2.43738 2.86825 0
M  V30 5986 C 590.428 2.25941 1.60767 0
M  V30 5987 H 593.379 1.50672 0.49836 0
M  V30 5988 H 593.4 2.14333 3.14391 0
M  V30 5989 H 592.912 3.41805 1.83824 0
M  V30 5990 H 591.013 1.51375 3.40465 0
M  V30 5991 H 591.126 3.39779 3.37768 0
M  V30 5992 H 589.49 1.73681 1.86298 0
M  V30 5993 H 590.273 3.24054 1.1333 0
M  V30 5994 N 592.718 -0.936591 1.26751 0
M  V30 5995 C 593.628 -2.06949 1.10496 0
M  V30 5996 C 594.644 -1.7396 0.037271 0
M  V30 5997 O 595.82 -1.99941 0.241944 0
M  V30 5998 C 592.885 -3.38612 0.744491 0
M  V30 5999 C 591.946 -3.85355 1.89209 0
M  V30 6000 C 591.179 -5.10735 1.54873 0
M  V30 6001 O 591.402 -5.68602 0.452546 0
M  V30 6002 O 590.336 -5.52632 2.38499 0
M  V30 6003 H 594.162 -2.23571 2.05547 0
M  V30 6004 H 591.747 -1.05428 1.05855 0
M  V30 6005 H 593.629 -4.17711 0.556396 0
M  V30 6006 H 592.304 -3.23218 -0.176582 0
M  V30 6007 H 591.211 -3.07182 2.13518 0
M  V30 6008 H 592.544 -4.05277 2.79305 0
M  V30 6009 N 594.196 -1.08629 -1.14182 0
M  V30 6010 C 595.612 -0.814363 -1.3726 0
M  V30 6011 C 595.812 0.575271 -1.93114 0
M  V30 6012 O 594.868 1.33165 -2.1453 0
M  V30 6013 C 596.181 -1.8989 -2.33157 0
M  V30 6014 C 597.729 -1.92518 -2.46791 0
M  V30 6015 C 598.204 -3.00092 -3.45989 0
M  V30 6016 N 599.695 -2.99279 -3.53534 0
M  V30 6017 C 600.43 -3.79158 -4.30147 0
M  V30 6018 N 599.926 -4.68923 -5.09983 0
M  V30 6019 N 601.719 -3.67451 -4.25366 0
M  V30 6020 H 593.87 -1.98232 -0.762758 0
M  V30 6021 H 596.133 -0.860383 -0.398051 0
M  V30 6022 H 595.839 -2.89809 -1.99257 0
M  V30 6023 H 595.713 -1.77013 -3.33086 0
M  V30 6024 H 598.1 -0.932425 -2.79982 0
M  V30 6025 H 598.181 -2.09473 -1.46816 0
M  V30 6026 H 597.825 -3.99575 -3.13532 0
M  V30 6027 H 597.755 -2.80382 -4.45751 0
M  V30 6028 H 600.246 -2.3422 -2.96563 0
M  V30 6029 H 600.559 -5.26475 -5.65724 0
M  V30 6030 H 598.904 -4.72964 -5.09244 0
M  V30 6031 H 602.095 -2.9669 -3.62067 0
M  V30 6032 H 602.268 -4.29944 -4.84822 0
M  V30 6033 N 595.674 1.31259 -0.872281 0
M  V30 6034 C 596.923 1.95893 -0.480493 0
M  V30 6035 C 597.236 1.697 0.972688 0
M  V30 6036 O 598.442 2.28214 1.47073 0
M  V30 6037 C 596.898 3.50705 -0.808342 0
M  V30 6038 C 596.506 3.85735 -2.27844 0
M  V30 6039 C 598.25 4.21719 -0.485136 0
M  V30 6040 C 596.157 5.33668 -2.54858 0
M  V30 6041 H 595.087 0.733182 -0.175955 0
M  V30 6042 H 597.738 1.49396 -1.0655 0
M  V30 6043 H 596.12 3.95706 -0.152558 0
M  V30 6044 H 597.294 3.51686 -2.97748 0
M  V30 6045 H 595.609 3.27792 -2.56791 0
M  V30 6046 H 598.206 5.30559 -0.664166 0
M  V30 6047 H 598.549 4.12316 0.574592 0
M  V30 6048 H 599.082 3.82359 -1.09756 0
M  V30 6049 H 595.821 5.48109 -3.59523 0
M  V30 6050 H 595.341 5.69061 -1.8955 0
M  V30 6051 H 597.02 6.00958 -2.39706 0
M  V30 6052 N 597.152 0.631951 1.44375 0
M  V30 6053 C 598.115 -0.0628142 2.29114 0
M  V30 6054 C 599.115 -0.771494 1.41084 0
M  V30 6055 O 600.305 -0.615959 1.62947 0
M  V30 6056 C 597.437 -1.09953 3.22681 0
M  V30 6057 H 598.63 0.682509 2.92031 0
M  V30 6058 H 596.183 0.392128 1.51301 0
M  V30 6059 H 596.918 -1.87481 2.64616 0
M  V30 6060 H 596.703 -0.595286 3.87555 0
M  V30 6061 H 598.193 -1.58538 3.86336 0
M  V30 6062 N 598.631 -1.53133 0.372548 0
M  V30 6063 C 599.861 -2.05476 -0.215202 0
M  V30 6064 C 600.269 -1.24534 -1.42436 0
M  V30 6065 O 599.612 -0.280771 -1.81542 0
M  V30 6066 C 599.674 -3.53276 -0.666068 0
M  V30 6067 C 599.338 -4.54998 0.427342 0
M  V30 6068 C 600.335 -5.03911 1.27944 0
M  V30 6069 C 598.02 -4.98828 0.589579 0
M  V30 6070 C 600.014 -5.95263 2.27905 0
M  V30 6071 C 597.701 -5.89984 1.59255 0
M  V30 6072 C 598.699 -6.38093 2.43571 0
M  V30 6073 O 598.387 -7.27451 3.42156 0
M  V30 6074 H 598.119 -0.67481 -0.040099 0
M  V30 6075 H 600.673 -1.98409 0.531312 0
M  V30 6076 H 598.903 -3.57904 -1.4643 0
M  V30 6077 H 600.592 -3.88442 -1.1776 0
M  V30 6078 H 601.358 -4.70792 1.16532 0
M  V30 6079 H 597.237 -4.60965 -0.0569456 0
M  V30 6080 H 600.781 -6.32736 2.93753 0
M  V30 6081 H 596.678 -6.22518 1.70711 0
M  V30 6082 H 597.446 -7.45467 3.37967 0
M  V30 6083 N 600.109 -0.101901 -1.5727 0
M  V30 6084 C 601.355 0.561027 -1.94885 0
M  V30 6085 C 601.688 1.6741 -0.984258 0
M  V30 6086 O 600.963 1.94491 -0.0184767 0
M  V30 6087 C 601.246 1.10982 -3.42571 0
M  V30 6088 C 601.099 0.00133418 -4.498 0
M  V30 6089 C 602.418 2.00608 -3.9172 0
M  V30 6090 H 599.537 0.202467 -0.708644 0
M  V30 6091 H 602.179 -0.173992 -1.89202 0
M  V30 6092 H 600.329 1.73621 -3.47546 0
M  V30 6093 H 602.001 -0.63322 -4.56933 0
M  V30 6094 H 600.244 -0.664143 -4.28686 0
M  V30 6095 H 600.915 0.426253 -5.50352 0
M  V30 6096 H 603.391 1.47864 -3.88941 0
M  V30 6097 H 602.267 2.3593 -4.95609 0
M  V30 6098 H 602.528 2.92608 -3.3141 0
M  V30 6099 N 601.587 1.56661 0.17182 0
M  V30 6100 C 603.003 1.50768 0.52357 0
M  V30 6101 C 603.203 0.806072 1.84675 0
M  V30 6102 O 602.259 0.366233 2.4983 0
M  V30 6103 C 603.572 2.955 0.556793 0
M  V30 6104 C 605.12 3.06303 0.644029 0
M  V30 6105 C 605.595 4.52492 0.708148 0
M  V30 6106 N 607.086 4.56737 0.771051 0
M  V30 6107 C 607.821 5.67196 0.841229 0
M  V30 6108 N 607.317 6.87287 0.872272 0
M  V30 6109 N 609.11 5.55165 0.88021 0
M  V30 6110 H 601.261 2.00679 -0.695817 0
M  V30 6111 H 603.524 0.914219 -0.250814 0
M  V30 6112 H 603.23 3.49986 -0.346774 0
M  V30 6113 H 603.104 3.50119 1.40346 0
M  V30 6114 H 605.491 2.51851 1.53802 0
M  V30 6115 H 605.572 2.5477 -0.229297 0
M  V30 6116 H 605.216 5.07575 -0.181585 0
M  V30 6117 H 605.146 5.01781 1.59761 0
M  V30 6118 H 607.637 3.70274 0.755364 0
M  V30 6119 H 607.95 7.6722 0.92698 0
M  V30 6120 H 606.295 6.89898 0.840557 0
M  V30 6121 H 609.486 4.60263 0.852956 0
M  V30 6122 H 609.659 6.41271 0.931439 0
M  V30 6123 N 603.065 -0.440357 1.51323 0
M  V30 6124 C 604.342 -1.20109 1.5438 0
M  V30 6125 C 604.722 -2.08866 0.306303 0
M  V30 6126 O 604.07 -2.1723 -0.708773 0
M  V30 6127 C 604.28 -2.00555 2.8562 0
M  V30 6128 C 605.628 -2.577 3.37455 0
M  V30 6129 O 606.652 -2.10769 2.8715 0
M  V30 6130 O 605.511 -3.43289 4.25224 0
M  V30 6131 H 602.605 -0.546668 0.620551 0
M  V30 6132 H 605.151 -0.449672 1.63634 0
M  V30 6133 H 603.923 -1.35346 3.67147 0
M  V30 6134 H 603.546 -2.82768 2.79514 0
M  V30 6135 N 604.543 -1.41418 -0.695603 0
M  V30 6136 C 605.493 -1.39731 -1.80165 0
M  V30 6137 C 606.477 -0.271689 -1.5859 0
M  V30 6138 O 607.669 -0.512354 -1.69422 0
M  V30 6139 C 604.798 -1.28187 -3.1847 0
M  V30 6140 C 603.884 -2.45612 -3.45739 0
M  V30 6141 N 604.275 -3.71077 -3.43708 0
M  V30 6142 C 602.573 -2.39424 -3.76288 0
M  V30 6143 C 603.274 -4.48957 -3.69882 0
M  V30 6144 N 602.25 -3.7907 -3.89624 0
M  V30 6145 H 606.052 -2.34656 -1.76957 0
M  V30 6146 H 603.566 -1.35473 -0.89559 0
M  V30 6147 H 605.563 -1.2506 -3.977 0
M  V30 6148 H 604.223 -0.342468 -3.22889 0
M  V30 6149 H 605.234 -4.03963 -3.2409 0
M  V30 6150 H 601.911 -1.53955 -3.88077 0
M  V30 6151 H 603.301 -5.57887 -3.74448 0
M  V30 6152 N 606.021 0.929856 -1.27246 0
M  V30 6153 C 606.951 2.04722 -1.12299 0
M  V30 6154 C 607.932 1.70082 -0.0250464 0
M  V30 6155 O 609.117 1.93176 -0.199141 0
M  V30 6156 C 606.247 3.38721 -0.767145 0
M  V30 6157 C 605.201 3.87466 -1.81808 0
M  V30 6158 C 604.527 5.18246 -1.31626 0
M  V30 6159 C 605.827 4.11095 -3.22177 0
M  V30 6160 H 607.521 2.17485 -2.05769 0
M  V30 6161 H 605.067 1.04503 -0.990715 0
M  V30 6162 H 607.02 4.16366 -0.649413 0
M  V30 6163 H 605.744 3.25967 0.203259 0
M  V30 6164 H 604.403 3.12012 -1.92468 0
M  V30 6165 H 604.051 5.01881 -0.335378 0
M  V30 6166 H 603.751 5.51829 -2.01887 0
M  V30 6167 H 605.275 5.98462 -1.21143 0
M  V30 6168 H 606.689 4.79316 -3.1453 0
M  V30 6169 H 605.086 4.55982 -3.90129 0
M  V30 6170 H 606.156 3.16468 -3.67391 0
M  V30 6171 N 607.499 1.09233 1.13605 0
M  V30 6172 C 608.462 0.733553 2.17144 0
M  V30 6173 C 609.462 -0.235873 1.59061 0
M  V30 6174 O 610.652 -0.0143167 1.74194 0
M  V30 6175 C 607.784 0.084471 3.40795 0
M  V30 6176 H 608.977 1.65049 2.50397 0
M  V30 6177 H 606.53 0.891264 1.28399 0
M  V30 6178 H 607.265 -0.843795 3.1313 0
M  V30 6179 H 607.05 0.781985 3.84223 0
M  V30 6180 H 608.54 -0.151216 4.17326 0
M  V30 6181 N 608.977 -1.30795 0.87923 0
M  V30 6182 C 609.94 -2.26563 0.346676 0
M  V30 6183 C 610.94 -1.52578 -0.507597 0
M  V30 6184 O 612.13 -1.71318 -0.315575 0
M  V30 6185 C 609.262 -3.37115 -0.506611 0
M  V30 6186 H 610.455 -2.75183 1.19223 0
M  V30 6187 H 608.008 -1.41886 0.655598 0
M  V30 6188 H 608.743 -2.93802 -1.37299 0
M  V30 6189 H 608.528 -3.91959 0.105218 0
M  V30 6190 H 610.018 -4.08412 -0.871192 0
M  V30 6191 N 610.455 -0.639598 -1.44038 0
M  V30 6192 C 611.701 -0.147698 -2.02261 0
M  V30 6193 C 612.034 1.23031 -1.50256 0
M  V30 6194 O 611.309 1.81847 -0.690068 0
M  V30 6195 C 611.592 -0.14362 -3.59813 0
M  V30 6196 C 611.445 -1.55458 -4.22082 0
M  V30 6197 C 612.764 0.527317 -4.36929 0
M  V30 6198 H 609.883 -0.0551453 -0.734934 0
M  V30 6199 H 612.525 -0.817688 -1.71505 0
M  V30 6200 H 610.675 0.426898 -3.86147 0
M  V30 6201 H 612.347 -2.17464 -4.06826 0
M  V30 6202 H 610.59 -2.10594 -3.79253 0
M  V30 6203 H 611.261 -1.50369 -5.31124 0
M  V30 6204 H 613.737 0.0420504 -4.16079 0
M  V30 6205 H 612.613 0.499389 -5.46624 0
M  V30 6206 H 612.874 1.59914 -4.12165 0
M  V30 6207 N 611.933 1.52934 -0.380664 0
M  V30 6208 C 612.883 2.22989 0.475399 0
M  V30 6209 C 613.867 1.23058 1.03661 0
M  V30 6210 O 615.059 1.48436 0.964146 0
M  V30 6211 C 612.188 3.0338 1.60671 0
M  V30 6212 C 611.274 4.107 1.05766 0
M  V30 6213 N 611.665 5.05264 0.232837 0
M  V30 6214 C 609.963 4.25676 1.33101 0
M  V30 6215 C 610.664 5.81658 -0.0695134 0
M  V30 6216 N 609.64 5.40989 0.532144 0
M  V30 6217 H 613.442 2.93456 -0.161418 0
M  V30 6218 H 610.956 1.61291 -0.189495 0
M  V30 6219 H 612.953 3.52098 2.23232 0
M  V30 6220 H 611.613 2.34446 2.24644 0
M  V30 6221 H 612.624 5.17739 -0.129204 0
M  V30 6222 H 609.301 3.6797 1.97241 0
M  V30 6223 H 610.691 6.67843 -0.737269 0
M  V30 6224 N 613.412 0.11024 1.57214 0
M  V30 6225 C 614.828 -0.24638 1.57687 0
M  V30 6226 C 615.028 -1.67344 1.12241 0
M  V30 6227 O 614.084 -2.39298 0.805783 0
M  V30 6228 C 615.397 -0.0210288 3.00693 0
M  V30 6229 C 616.945 -0.0876077 3.12877 0
M  V30 6230 C 617.42 0.10994 4.57868 0
M  V30 6231 N 618.911 0.0556135 4.63167 0
M  V30 6232 C 619.646 0.183495 5.73106 0
M  V30 6233 N 619.142 0.367058 6.91827 0
M  V30 6234 N 620.935 0.123689 5.61964 0
M  V30 6235 H 613.086 1.04246 1.85058 0
M  V30 6236 H 615.349 0.40979 0.854854 0
M  V30 6237 H 615.055 0.965203 3.38196 0
M  V30 6238 H 614.929 -0.756748 3.69531 0
M  V30 6239 H 617.316 -1.06436 2.75237 0
M  V30 6240 H 617.397 0.67985 2.466 0
M  V30 6241 H 617.041 1.08362 4.96206 0
M  V30 6242 H 616.971 -0.677397 5.22225 0
M  V30 6243 H 619.462 -0.0831062 3.77809 0
M  V30 6244 H 619.775 0.455739 7.71455 0
M  V30 6245 H 618.12 0.40292 6.93831 0
M  V30 6246 H 621.311 -0.0186928 4.68096 0
M  V30 6247 H 621.484 0.226797 6.47603 0
M  V30 6248 N 614.89 -1.56749 -0.16351 0
M  V30 6249 C 615.853 -1.96121 -1.18613 0
M  V30 6250 C 616.853 -0.845765 -1.36761 0
M  V30 6251 O 618.043 -1.11268 -1.34033 0
M  V30 6252 C 615.175 -2.26282 -2.54969 0
M  V30 6253 H 616.368 -2.87639 -0.848764 0
M  V30 6254 H 613.921 -1.50928 -0.406251 0
M  V30 6255 H 614.656 -1.37504 -2.93706 0
M  V30 6256 H 614.441 -3.07595 -2.43162 0
M  V30 6257 H 615.931 -2.57638 -3.28653 0
M  V30 6258 N 616.368 0.432326 -1.51554 0
M  V30 6259 C 617.617 1.17831 -1.63703 0
M  V30 6260 C 617.93 1.92229 -0.36156 0
M  V30 6261 O 619.136 2.69069 -0.362495 0
M  V30 6262 C 617.592 2.14318 -2.89129 0
M  V30 6263 C 617.2 1.45544 -4.23699 0
M  V30 6264 C 618.944 2.89319 -3.10636 0
M  V30 6265 C 616.851 2.40545 -5.4027 0
M  V30 6266 H 615.781 0.443533 -0.60975 0
M  V30 6267 H 618.432 0.444878 -1.78026 0
M  V30 6268 H 616.814 2.91117 -2.68452 0
M  V30 6269 H 617.988 0.742693 -4.54775 0
M  V30 6270 H 616.303 0.826772 -4.0811 0
M  V30 6271 H 618.9 3.60495 -3.94902 0
M  V30 6272 H 619.243 3.50951 -2.23918 0
M  V30 6273 H 619.776 2.19625 -3.31677 0
M  V30 6274 H 616.515 1.83594 -6.29264 0
M  V30 6275 H 616.035 3.09859 -5.13563 0
M  V30 6276 H 617.714 3.01569 -5.72421 0
M  V30 6277 N 617.846 1.41785 0.688094 0
M  V30 6278 C 618.793 1.44221 1.80191 0
M  V30 6279 C 619.763 0.295688 1.63447 0
M  V30 6280 O 620.948 0.49783 1.84191 0
M  V30 6281 C 618.088 1.33743 3.1813 0
M  V30 6282 C 617.201 2.58325 3.46254 0
M  V30 6283 C 616.336 2.40086 4.73848 0
M  V30 6284 C 615.375 3.60107 4.94964 0
M  V30 6285 N 614.512 3.40892 6.13789 0
M  V30 6286 H 619.352 2.39411 1.77444 0
M  V30 6287 H 616.889 1.18876 0.866423 0
M  V30 6288 H 618.847 1.25669 3.97823 0
M  V30 6289 H 617.477 0.42157 3.20035 0
M  V30 6290 H 616.529 2.7682 2.60912 0
M  V30 6291 H 617.841 3.4758 3.57756 0
M  V30 6292 H 616.995 2.29522 5.61609 0
M  V30 6293 H 615.734 1.483 4.64606 0
M  V30 6294 H 614.739 3.71118 4.05649 0
M  V30 6295 H 615.964 4.52857 5.06061 0
M  V30 6296 H 613.91 2.51812 6.05745 0
M  V30 6297 H 613.827 4.23727 6.26092 0
M  V30 6298 H 615.095 3.34114 7.04264 0
M  V30 6299 N 619.324 -0.923095 1.27737 0
M  V30 6300 C 620.601 -1.64989 1.05062 0
M  V30 6301 C 620.981 -2.07018 -0.413124 0
M  V30 6302 O 620.329 -1.80797 -1.39731 0
M  V30 6303 C 620.539 -2.84847 2.01652 0
M  V30 6304 C 621.887 -3.56083 2.31279 0
M  V30 6305 O 622.911 -2.94981 1.99662 0
M  V30 6306 O 621.77 -4.66182 2.85196 0
M  V30 6307 H 618.864 -0.723357 0.400853 0
M  V30 6308 H 621.41 -0.973224 1.3902 0
M  V30 6309 H 620.182 -2.50814 3.00347 0
M  V30 6310 H 619.805 -3.60231 1.68284 0
M  V30 6311 N 620.802 -1.09834 -1.13024 0
M  V30 6312 C 622.05 -0.835297 -1.8403 0
M  V30 6313 C 622.371 0.640944 -1.84165 0
M  V30 6314 O 621.641 1.46517 -1.30037 0
M  V30 6315 H 620.221 -0.306018 -0.681441 0
M  V30 6316 H 622.883 -1.38734 -1.36891 0
M  V30 6317 H 621.979 -1.19258 -2.88416 0
M  V30 6318 N 622.28 1.30327 -0.886154 0
M  V30 6319 C 623.505 2.0079 -0.519425 0
M  V30 6320 C 623.93 1.65979 0.885013 0
M  V30 6321 O 623.288 0.877043 1.58675 0
M  V30 6322 C 623.336 3.53686 -0.702758 0
M  V30 6323 O 622.44 4.11637 0.250828 0
M  V30 6324 H 621.781 0.63171 -0.204544 0
M  V30 6325 H 624.311 1.66145 -1.19402 0
M  V30 6326 H 624.321 4.03531 -0.602207 0
M  V30 6327 H 622.996 3.78361 -1.72673 0
M  V30 6328 H 621.573 3.72755 0.103873 0
M  V30 6329 N 623.758 0.647228 1.43697 0
M  V30 6330 C 625.035 0.0883758 1.954 0
M  V30 6331 C 625.415 -1.39006 1.58873 0
M  V30 6332 O 624.763 -2.11255 0.87083 0
M  V30 6333 C 624.973 0.328263 3.47453 0
M  V30 6334 C 626.321 0.230009 4.23977 0
M  V30 6335 O 627.345 0.260496 3.55246 0
M  V30 6336 O 626.204 0.148615 5.46298 0
M  V30 6337 H 623.298 -0.0130683 0.826897 0
M  V30 6338 H 625.844 0.72005 1.53666 0
M  V30 6339 H 624.616 1.3535 3.67146 0
M  V30 6340 H 624.239 -0.336772 3.96171 0
M  V30 6341 N 625.236 -1.5273 0.388769 0
M  V30 6342 C 626.482 -2.01871 -0.193877 0
M  V30 6343 C 626.815 -1.27475 -1.46505 0
M  V30 6344 O 626.09 -0.375063 -1.90849 0
M  V30 6345 C 626.373 -3.5712 -0.462336 0
M  V30 6346 C 626.226 -4.42186 0.824091 0
M  V30 6347 C 627.545 -4.21881 -1.25319 0
M  V30 6348 H 624.664 -0.733764 -0.0689899 0
M  V30 6349 H 627.306 -1.82796 0.518231 0
M  V30 6350 H 625.456 -3.73504 -1.06896 0
M  V30 6351 H 627.128 -4.37554 1.46096 0
M  V30 6352 H 625.371 -4.09219 1.43952 0
M  V30 6353 H 626.042 -5.48828 0.590905 0
M  V30 6354 H 628.518 -4.0947 -0.73981 0
M  V30 6355 H 627.394 -5.30487 -1.40977 0
M  V30 6356 H 627.655 -3.79478 -2.26824 0
M  V30 6357 N 626.714 -0.118576 -1.57153 0
M  V30 6358 C 628.13 0.238014 -1.57815 0
M  V30 6359 C 628.33 1.66747 -1.13127 0
M  V30 6360 O 627.386 2.38867 -0.818462 0
M  V30 6361 C 628.699 0.00508207 -3.007 0
M  V30 6362 C 630.247 0.0710139 -3.12919 0
M  V30 6363 C 630.722 -0.13422 -4.57803 0
M  V30 6364 N 632.213 -0.0801755 -4.63131 0
M  V30 6365 C 632.948 -0.213885 -5.73001 0
M  V30 6366 N 632.444 -0.403742 -6.91623 0
M  V30 6367 N 634.237 -0.15349 -5.6189 0
M  V30 6368 H 626.388 -1.05226 -1.84503 0
M  V30 6369 H 628.651 -0.414318 -0.852669 0
M  V30 6370 H 628.357 -0.983125 -3.3768 0
M  V30 6371 H 628.231 0.73714 -3.69927 0
M  V30 6372 H 630.618 1.04975 -2.75798 0
M  V30 6373 H 630.699 -0.692918 -2.46236 0
M  V30 6374 H 630.343 -1.10992 -4.95624 0
M  V30 6375 H 630.273 0.649692 -5.22577 0
M  V30 6376 H 632.764 0.0630689 -3.77847 0
M  V30 6377 H 633.077 -0.496645 -7.71202 0
M  V30 6378 H 631.422 -0.43971 -6.93608 0
M  V30 6379 H 634.613 -0.00613174 -4.681 0
M  V30 6380 H 634.786 -0.261138 -6.47474 0
M  V30 6381 N 628.193 1.56834 0.155195 0
M  V30 6382 C 629.441 1.82536 0.867462 0
M  V30 6383 C 629.762 0.698168 1.82073 0
M  V30 6384 O 629.032 -0.280807 1.93877 0
M  V30 6385 H 627.612 0.673401 0.323327 0
M  V30 6386 H 630.274 1.94313 0.151156 0
M  V30 6387 H 629.37 2.77171 1.43466 0
M  V30 6388 N 629.671 -0.424282 1.51781 0
M  V30 6389 C 630.901 -1.19297 1.68677 0
M  V30 6390 C 631.309 -1.85152 0.389258 0
M  V30 6391 O 630.652 -1.72067 -0.643311 0
M  V30 6392 C 630.714 -2.30929 2.75521 0
M  V30 6393 C 630.378 -1.85335 4.17732 0
M  V30 6394 C 631.375 -1.34951 5.0208 0
M  V30 6395 C 629.06 -1.92629 4.63896 0
M  V30 6396 C 631.054 -0.924636 6.30658 0
M  V30 6397 C 628.741 -1.49754 5.92467 0
M  V30 6398 C 629.739 -0.997543 6.75676 0
M  V30 6399 O 629.427 -0.57492 8.01842 0
M  V30 6400 H 629.159 -0.36512 0.568914 0
M  V30 6401 H 631.713 -0.507327 1.99036 0
M  V30 6402 H 629.943 -3.02811 2.40505 0
M  V30 6403 H 631.632 -2.92748 2.81165 0
M  V30 6404 H 632.398 -1.287 4.67612 0
M  V30 6405 H 628.277 -2.30491 3.99243 0
M  V30 6406 H 631.821 -0.533682 6.95556 0
M  V30 6407 H 627.718 -1.55679 6.26446 0
M  V30 6408 H 628.486 -0.699597 8.15505 0
M  V30 6409 N 631.149 -1.42148 -0.680565 0
M  V30 6410 C 632.396 -1.4231 -1.44063 0
M  V30 6411 C 632.724 -0.037488 -1.94464 0
M  V30 6412 O 631.979 0.953184 -1.70918 0
M  V30 6413 C 632.278 -2.38945 -2.65782 0
M  V30 6414 C 631.944 -3.85455 -2.33956 0
M  V30 6415 C 630.606 -4.25364 -2.24987 0
M  V30 6416 C 632.958 -4.77895 -2.08004 0
M  V30 6417 C 630.286 -5.55701 -1.88184 0
M  V30 6418 C 632.638 -6.08568 -1.72706 0
M  V30 6419 C 631.302 -6.47482 -1.62244 0
M  V30 6420 H 630.572 -0.520748 -0.527164 0
M  V30 6421 H 633.219 -1.7505 -0.776524 0
M  V30 6422 H 631.524 -1.99511 -3.37198 0
M  V30 6423 H 633.221 -2.36336 -3.23954 0
M  V30 6424 H 629.811 -3.53855 -2.41836 0
M  V30 6425 H 633.995 -4.47854 -2.1387 0
M  V30 6426 H 629.251 -5.84718 -1.78648 0
M  V30 6427 H 633.425 -6.79688 -1.5165 0
M  V30 6428 H 631.052 -7.48387 -1.33496 0
M  V30 6429 N 632.627 0.916307 -1.28225 0
M  V30 6430 C 633.557 2.0352 -1.14464 0
M  V30 6431 C 634.538 1.70045 -0.0430844 0
M  V30 6432 O 635.723 1.92954 -0.219619 0
M  V30 6433 C 632.853 3.37889 -0.803027 0
M  V30 6434 C 631.807 3.85516 -1.85908 0
M  V30 6435 C 631.133 5.1682 -1.37116 0
M  V30 6436 C 632.433 4.07655 -3.26519 0
M  V30 6437 H 634.127 2.1529 -2.08064 0
M  V30 6438 H 631.673 1.03446 -1.00174 0
M  V30 6439 H 633.626 4.15654 -0.693537 0
M  V30 6440 H 632.35 3.26164 0.168674 0
M  V30 6441 H 631.009 3.09953 -1.95767 0
M  V30 6442 H 630.657 5.01497 -0.38859 0
M  V30 6443 H 630.357 5.49657 -2.07728 0
M  V30 6444 H 631.881 5.97143 -1.27484 0
M  V30 6445 H 633.295 4.75953 -3.19596 0
M  V30 6446 H 631.692 4.51818 -3.94943 0
M  V30 6447 H 632.762 3.12553 -3.70727 0
M  V30 6448 N 634.105 1.10431 1.1244 0
M  V30 6449 C 635.351 0.857864 1.84424 0
M  V30 6450 C 635.706 -0.609995 1.82474 0
M  V30 6451 O 634.999 -1.44401 1.25932 0
M  V30 6452 C 635.193 1.34022 3.3132 0
M  V30 6453 C 635.022 2.85344 3.47576 0
M  V30 6454 C 633.792 3.53345 3.61213 0
M  V30 6455 C 635.99 3.83446 3.42744 0
M  V30 6456 N 633.972 4.92989 3.65834 0
M  V30 6457 C 635.343 5.09101 3.5386 0
M  V30 6458 C 637.398 3.76154 3.26209 0
M  V30 6459 C 636.101 6.28323 3.50146 0
M  V30 6460 C 638.127 4.94876 3.23809 0
M  V30 6461 C 637.489 6.19378 3.35485 0
M  V30 6462 H 633.588 0.366917 0.690577 0
M  V30 6463 H 636.172 1.40668 1.34613 0
M  V30 6464 H 634.343 0.818727 3.79673 0
M  V30 6465 H 636.075 1.03801 3.91162 0
M  V30 6466 H 632.83 3.03791 3.63329 0
M  V30 6467 H 633.254 5.65762 3.71809 0
M  V30 6468 H 637.896 2.80813 3.16076 0
M  V30 6469 H 635.614 7.23953 3.5905 0
M  V30 6470 H 639.2 4.90942 3.12197 0
M  V30 6471 H 638.08 7.09704 3.33602 0
M  V30 6472 N 635.583 -1.29855 0.893053 0
M  V30 6473 C 636.808 -2.00512 0.530066 0
M  V30 6474 C 637.233 -1.66446 -0.876199 0
M  V30 6475 O 636.591 -0.885446 -1.58207 0
M  V30 6476 C 636.639 -3.53308 0.721505 0
M  V30 6477 O 635.743 -4.11764 -0.228994 0
M  V30 6478 H 635.084 -0.630617 0.207891 0
M  V30 6479 H 637.614 -1.6551 1.20282 0
M  V30 6480 H 637.624 -4.03206 0.623599 0
M  V30 6481 H 636.299 -3.77439 1.74678 0
M  V30 6482 H 634.876 -3.72805 -0.0841034 0
M  V30 6483 N 637.061 -0.65484 -1.43351 0
M  V30 6484 C 637.991 0.0221809 -2.33489 0
M  V30 6485 C 638.972 0.810272 -1.49561 0
M  V30 6486 O 640.157 0.771426 -1.78221 0
M  V30 6487 C 637.287 0.988117 -3.32947 0
M  V30 6488 C 636.241 0.310026 -4.26876 0
M  V30 6489 C 635.567 1.38752 -5.16384 0
M  V30 6490 C 636.867 -0.798589 -5.16159 0
M  V30 6491 H 638.561 -0.730571 -2.9035 0
M  V30 6492 H 636.107 -0.352773 -1.39612 0
M  V30 6493 H 638.06 1.47067 -3.94904 0
M  V30 6494 H 636.784 1.77205 -2.74346 0
M  V30 6495 H 635.443 -0.152097 -3.66284 0
M  V30 6496 H 635.091 2.16293 -4.54121 0
M  V30 6497 H 634.791 0.939051 -5.80048 0
M  V30 6498 H 636.315 1.87141 -5.81215 0
M  V30 6499 H 637.729 -0.398126 -5.71916 0
M  V30 6500 H 636.126 -1.17163 -5.88552 0
M  V30 6501 H 637.196 -1.65588 -4.55751 0
M  V30 6502 N 638.539 1.52521 -0.396863 0
M  V30 6503 C 639.469 2.29582 0.425941 0
M  V30 6504 C 640.45 1.33281 1.05689 0
M  V30 6505 O 641.635 1.62181 1.06823 0
M  V30 6506 C 638.765 3.10821 1.54943 0
M  V30 6507 C 637.719 4.15069 1.04413 0
M  V30 6508 C 637.045 4.84578 2.26028 0
M  V30 6509 C 638.345 5.22191 0.106767 0
M  V30 6510 H 640.039 2.98612 -0.217045 0
M  V30 6511 H 637.585 1.43611 -0.105826 0
M  V30 6512 H 639.538 3.63492 2.13193 0
M  V30 6513 H 638.262 2.39538 2.22011 0
M  V30 6514 H 636.921 3.63389 0.484118 0
M  V30 6515 H 636.569 4.09835 2.91623 0
M  V30 6516 H 636.269 5.55043 1.92876 0
M  V30 6517 H 637.793 5.40056 2.84906 0
M  V30 6518 H 639.207 5.70176 0.597685 0
M  V30 6519 H 637.604 5.99947 -0.135352 0
M  V30 6520 H 638.674 4.77531 -0.842134 0
M  V30 6521 N 640.017 0.126909 1.57088 0
M  V30 6522 C 641.294 -0.573152 1.87014 0
M  V30 6523 C 641.674 -1.84297 1.02945 0
M  V30 6524 O 641.022 -2.28232 0.110573 0
M  V30 6525 C 641.232 -0.857984 3.38289 0
M  V30 6526 C 642.58 -1.20759 4.07066 0
M  V30 6527 O 643.604 -0.947992 3.43353 0
M  V30 6528 O 642.463 -1.69516 5.19545 0
M  V30 6529 H 639.557 -0.290082 0.774456 0
M  V30 6530 H 642.103 0.162008 1.68925 0
M  V30 6531 H 640.875 0.0415286 3.91278 0
M  V30 6532 H 640.498 -1.64803 3.61837 0
M  V30 6533 N 641.495 -1.56914 -0.146875 0
M  V30 6534 C 642.443 -1.99224 -1.20053 0
M  V30 6535 C 643.437 -0.884661 -1.44465 0
M  V30 6536 O 644.643 -1.06984 -1.44756 0
M  V30 6537 H 641.018 -0.634191 -0.404112 0
M  V30 6538 H 642.989 -2.86998 -0.816987 0
M  V30 6539 C 641.738 -2.38899 -2.52632 0
M  V30 6540 H 641.061 -3.23677 -2.34677 0
M  V30 6541 H 642.501 -2.72326 -3.24984 0
M  V30 6542 C 640.96 -1.2417 -3.13183 0
M  V30 6543 O 641.49 -0.542503 -3.9802 0
M  V30 6544 N 639.696 -1.00592 -2.72635 0
M  V30 6545 H 639.243 -1.57627 -2.03744 0
M  V30 6546 H 639.201 -0.240174 -3.13481 0
M  V30 6547 N 642.974 0.416227 -1.52004 0
M  V30 6548 C 644.221 1.16383 -1.65714 0
M  V30 6549 C 644.549 1.9068 -0.383594 0
M  V30 6550 O 643.804 1.85174 0.633185 0
M  V30 6551 C 644.103 2.18923 -2.82502 0
M  V30 6552 C 643.769 1.61485 -4.20991 0
M  V30 6553 C 642.431 1.45545 -4.58661 0
M  V30 6554 C 644.783 1.19468 -5.07323 0
M  V30 6555 C 642.111 0.860937 -5.80349 0
M  V30 6556 C 644.463 0.614386 -6.29609 0
M  V30 6557 C 643.127 0.442056 -6.66035 0
M  V30 6558 H 642.397 0.425875 -0.606392 0
M  V30 6559 H 645.044 0.45199 -1.8609 0
M  V30 6560 H 643.349 2.96225 -2.56433 0
M  V30 6561 H 645.046 2.76628 -2.90307 0
M  V30 6562 H 641.636 1.74873 -3.91302 0
M  V30 6563 H 645.82 1.30596 -4.78809 0
M  V30 6564 H 641.076 0.715372 -6.072 0
M  V30 6565 H 645.25 0.280393 -6.95835 0
M  V30 6566 H 642.877 -0.0207218 -7.60197 0
M  V30 6567 N 644.452 1.42507 0.673017 0
M  V30 6568 C 645.362 1.4853 1.81593 0
M  V30 6569 C 646.378 0.373907 1.69935 0
M  V30 6570 O 647.554 0.625078 1.91454 0
M  V30 6571 C 644.619 1.387 3.17747 0
M  V30 6572 C 643.68 2.60346 3.41348 0
M  V30 6573 C 642.913 2.50975 4.71007 0
M  V30 6574 O 643.136 1.54659 5.49033 0
M  V30 6575 O 642.07 3.41138 4.95892 0
M  V30 6576 H 645.896 2.45001 1.79467 0
M  V30 6577 H 643.481 1.2429 0.82899 0
M  V30 6578 H 645.363 1.35586 3.98992 0
M  V30 6579 H 644.038 0.453555 3.20507 0
M  V30 6580 H 642.945 2.69034 2.59945 0
M  V30 6581 H 644.278 3.52595 3.43421 0
M  V30 6582 N 645.93 -0.909495 1.28709 0
M  V30 6583 C 647.176 -1.66175 1.17293 0
M  V30 6584 C 647.531 -1.90426 -0.274891 0
M  V30 6585 O 646.824 -1.49659 -1.19635 0
M  V30 6586 C 647.018 -3.02117 1.90945 0
M  V30 6587 C 646.847 -2.91134 3.42741 0
M  V30 6588 C 645.617 -2.92429 4.12085 0
M  V30 6589 C 647.815 -2.68889 4.3841 0
M  V30 6590 N 645.797 -2.72078 5.50315 0
M  V30 6591 C 647.168 -2.57423 5.64033 0
M  V30 6592 C 649.223 -2.53919 4.28287 0
M  V30 6593 C 647.926 -2.32513 6.80683 0
M  V30 6594 C 649.952 -2.3039 5.44678 0
M  V30 6595 C 649.314 -2.19682 6.69268 0
M  V30 6596 H 645.413 -0.614095 0.48416 0
M  V30 6597 H 647.997 -1.07377 1.62414 0
M  V30 6598 H 646.168 -3.58993 1.48252 0
M  V30 6599 H 647.9 -3.66388 1.71878 0
M  V30 6600 H 644.655 -3.03345 3.63701 0
M  V30 6601 H 645.079 -2.64983 6.22987 0
M  V30 6602 H 649.721 -2.60946 3.32666 0
M  V30 6603 H 647.439 -2.24225 7.76369 0
M  V30 6604 H 651.025 -2.19665 5.38738 0
M  V30 6605 H 649.905 -2.01725 7.5781 0
M  V30 6606 N 647.408 -1.11026 -1.11852 0
M  V30 6607 C 648.371 -0.768006 -2.1595 0
M  V30 6608 C 649.371 0.210538 -1.59416 0
M  V30 6609 O 650.561 -0.0133978 -1.74195 0
M  V30 6610 C 647.693 -0.138678 -3.40618 0
M  V30 6611 H 648.886 -1.69012 -2.4774 0
M  V30 6612 H 646.439 -0.911578 -1.26964 0
M  V30 6613 H 647.174 0.793872 -3.14433 0
M  V30 6614 H 646.959 -0.843012 -3.8293 0
M  V30 6615 H 648.449 0.0848039 -4.17514 0
M  V30 6616 N 648.886 1.2938 -0.899927 0
M  V30 6617 C 649.836 2.25311 -0.349165 0
M  V30 6618 C 650.82 1.51889 0.530892 0
M  V30 6619 O 652.012 1.73028 0.372872 0
M  V30 6620 C 649.141 3.40696 0.422055 0
M  V30 6621 C 648.227 4.21455 -0.472935 0
M  V30 6622 N 648.618 4.8048 -1.58026 0
M  V30 6623 C 646.916 4.45177 -0.270767 0
M  V30 6624 C 647.617 5.41117 -2.13465 0
M  V30 6625 N 646.593 5.24518 -1.42766 0
M  V30 6626 H 650.395 2.68507 -1.19505 0
M  V30 6627 H 647.909 1.43992 -0.751006 0
M  V30 6628 H 649.906 4.08486 0.833369 0
M  V30 6629 H 648.566 2.99037 1.2652 0
M  V30 6630 H 649.577 4.79257 -1.96299 0
M  V30 6631 H 646.254 4.14071 0.533988 0
M  V30 6632 H 647.644 5.979 -3.06537 0
M  V30 6633 N 650.364 0.662433 1.43002 0
M  V30 6634 C 651.612 0.179237 2.01304 0
M  V30 6635 C 651.933 -1.21428 1.52579 0
M  V30 6636 O 651.203 -1.81294 0.742252 0
M  V30 6637 H 649.783 0.0632725 0.744316 0
M  V30 6638 H 652.445 0.856169 1.75088 0
M  V30 6639 H 651.541 0.170957 3.11631 0
M  V30 6640 N 651.842 -1.52309 0.404946 0
M  V30 6641 C 653.072 -2.05886 -0.171569 0
M  V30 6642 C 653.48 -1.27527 -1.39762 0
M  V30 6643 O 652.823 -0.319215 -1.80905 0
M  V30 6644 C 652.885 -3.54609 -0.590983 0
M  V30 6645 C 652.549 -4.53989 0.523757 0
M  V30 6646 C 653.546 -5.01084 1.38604 0
M  V30 6647 C 651.231 -4.97465 0.695255 0
M  V30 6648 C 653.225 -5.90295 2.4048 0
M  V30 6649 C 650.912 -5.86473 1.71733 0
M  V30 6650 C 651.91 -6.32782 2.57051 0
M  V30 6651 O 651.598 -7.20029 3.57509 0
M  V30 6652 H 651.33 -0.675508 -0.0257763 0
M  V30 6653 H 653.884 -1.97238 0.573278 0
M  V30 6654 H 652.114 -3.60929 -1.38805 0
M  V30 6655 H 653.803 -3.90853 -1.09494 0
M  V30 6656 H 654.569 -4.68214 1.26492 0
M  V30 6657 H 650.448 -4.60982 0.0408447 0
M  V30 6658 H 653.992 -6.26363 3.07108 0
M  V30 6659 H 649.889 -6.18756 1.83877 0
M  V30 6660 H 650.657 -7.3813 3.53703 0
M  V30 6661 N 653.32 -0.135238 -1.57019 0
M  V30 6662 C 654.545 0.529343 -2.00531 0
M  V30 6663 C 654.97 1.58391 -1.01459 0
M  V30 6664 O 654.328 1.81296 0.0113986 0
M  V30 6665 C 654.376 1.11748 -3.42848 0
M  V30 6666 O 653.48 2.23267 -3.46736 0
M  V30 6667 H 652.821 0.130669 -0.651016 0
M  V30 6668 H 655.351 -0.228503 -2.0332 0
M  V30 6669 H 655.361 1.44905 -3.81401 0
M  V30 6670 H 654.036 0.345147 -4.14465 0
M  V30 6671 H 652.613 1.91428 -3.20015 0
M  V30 6672 N 654.798 1.5699 0.138552 0
M  V30 6673 C 655.745 1.98899 1.17081 0
M  V30 6674 C 656.715 0.857922 1.42228 0
M  V30 6675 O 657.9 1.12065 1.54422 0
M  V30 6676 C 655.04 2.38189 2.4972 0
M  V30 6677 C 654.153 3.64624 2.31674 0
M  V30 6678 C 653.288 3.9298 3.57407 0
M  V30 6679 C 652.327 5.1266 3.34435 0
M  V30 6680 N 651.464 5.36983 4.5232 0
M  V30 6681 H 656.304 2.86881 0.80642 0
M  V30 6682 H 653.841 1.41925 0.386727 0
M  V30 6683 H 655.799 2.59 3.2707 0
M  V30 6684 H 654.429 1.53275 2.84089 0
M  V30 6685 H 653.481 3.51542 1.45337 0
M  V30 6686 H 654.793 4.52131 2.10664 0
M  V30 6687 H 653.947 4.14335 4.43183 0
M  V30 6688 H 652.686 3.03912 3.8143 0
M  V30 6689 H 651.691 4.9117 2.47048 0
M  V30 6690 H 652.916 6.03288 3.11802 0
M  V30 6691 H 650.862 4.50871 4.76499 0
M  V30 6692 H 650.779 6.18775 4.34343 0
M  V30 6693 H 652.047 5.62842 5.39285 0
M  V30 6694 N 656.276 -0.40816 1.52223 0
M  V30 6695 C 657.692 -0.74685 1.41047 0
M  V30 6696 C 657.892 -1.94788 0.51573 0
M  V30 6697 O 656.948 -2.52494 -0.0181156 0
M  V30 6698 C 658.261 -0.999878 2.83589 0
M  V30 6699 C 659.809 -1.10253 2.92939 0
M  V30 6700 C 660.284 -1.38832 4.36451 0
M  V30 6701 N 661.775 -1.45694 4.3969 0
M  V30 6702 C 662.51 -1.69435 5.47795 0
M  V30 6703 N 662.006 -1.90774 6.66016 0
M  V30 6704 N 663.799 -1.71458 5.35312 0
M  V30 6705 H 655.95 0.382409 2.08929 0
M  V30 6706 H 658.213 0.108807 0.941735 0
M  V30 6707 H 657.919 -0.189723 3.51188 0
M  V30 6708 H 657.793 -1.91978 3.24691 0
M  V30 6709 H 660.18 -1.90328 2.2552 0
M  V30 6710 H 660.261 -0.160973 2.55293 0
M  V30 6711 H 659.905 -0.592741 5.04429 0
M  V30 6712 H 659.835 -2.34241 4.71634 0
M  V30 6713 H 662.326 -1.3099 3.54472 0
M  V30 6714 H 662.639 -2.08342 7.44186 0
M  V30 6715 H 660.984 -1.88037 6.69079 0
M  V30 6716 H 664.175 -1.54326 4.41929 0
M  V30 6717 H 664.348 -1.89621 6.19635 0
M  V30 6718 N 657.755 -1.42862 -0.66545 0
M  V30 6719 C 659.002 -1.4383 -1.42546 0
M  V30 6720 C 659.33 -0.0581114 -1.94413 0
M  V30 6721 O 658.585 0.935002 -1.71919 0
M  V30 6722 C 658.884 -2.4175 -2.63233 0
M  V30 6723 C 658.55 -3.87915 -2.29854 0
M  V30 6724 C 657.212 -4.27726 -2.20463 0
M  V30 6725 C 659.564 -4.80074 -2.02924 0
M  V30 6726 C 656.892 -5.57666 -1.82279 0
M  V30 6727 C 659.244 -6.10366 -1.66242 0
M  V30 6728 C 657.908 -6.49167 -1.55367 0
M  V30 6729 H 657.178 -0.52631 -0.521612 0
M  V30 6730 H 659.825 -1.75863 -0.757914 0
M  V30 6731 H 658.13 -2.03077 -3.35063 0
M  V30 6732 H 659.827 -2.39759 -3.21429 0
M  V30 6733 H 656.417 -3.564 -2.3807 0
M  V30 6734 H 660.601 -4.50097 -2.09108 0
M  V30 6735 H 655.857 -5.8658 -1.72436 0
M  V30 6736 H 660.031 -6.81258 -1.44432 0
M  V30 6737 H 657.658 -7.49761 -1.2555 0
M  V30 6738 N 659.233 0.902656 -1.29189 0
M  V30 6739 C 660.481 1.6496 -1.16758 0
M  V30 6740 C 660.802 1.92952 0.28188 0
M  V30 6741 O 660.072 1.55351 1.19344 0
M  V30 6742 H 658.652 0.611447 -0.429118 0
M  V30 6743 H 661.314 1.0825 -1.62074 0
M  V30 6744 H 660.41 2.60728 -1.71544 0
M  V30 6745 N 660.711 1.11618 1.11262 0
M  V30 6746 C 661.674 0.779447 2.15539 0
M  V30 6747 C 662.674 -0.202081 1.59525 0
M  V30 6748 O 663.864 0.0226356 1.74185 0
M  V30 6749 C 660.996 0.15674 3.40539 0
M  V30 6750 H 662.189 1.70324 2.4684 0
M  V30 6751 H 659.742 0.918298 1.26479 0
M  V30 6752 H 660.477 -0.777186 3.1485 0
M  V30 6753 H 660.262 0.863308 3.82478 0
M  V30 6754 H 661.752 -0.062661 4.17553 0
M  V30 6755 N 662.189 -1.289 0.906776 0
M  V30 6756 C 663.435 -1.95558 0.53712 0
M  V30 6757 C 663.768 -1.71262 -0.915582 0
M  V30 6758 O 663.043 -1.02961 -1.65013 0
M  V30 6759 C 663.326 -3.50198 0.838645 0
M  V30 6760 C 663.179 -3.83923 2.34357 0
M  V30 6761 C 664.498 -4.38861 0.329988 0
M  V30 6762 H 661.617 -0.710289 0.196617 0
M  V30 6763 H 664.259 -1.52392 1.13475 0
M  V30 6764 H 662.409 -3.87096 0.330024 0
M  V30 6765 H 664.081 -3.56933 2.92227 0
M  V30 6766 H 662.324 -3.31215 2.80141 0
M  V30 6767 H 662.995 -4.91883 2.5051 0
M  V30 6768 H 665.471 -4.08996 0.765609 0
M  V30 6769 H 664.347 -5.45931 0.570105 0
M  V30 6770 H 664.608 -4.35352 -0.769511 0
M  V30 6771 N 663.667 -0.670007 -1.42649 0
M  V30 6772 C 664.897 -0.198252 -2.05647 0
M  V30 6773 C 665.305 1.14786 -1.50402 0
M  V30 6774 O 664.648 1.72316 -0.636634 0
M  V30 6775 C 664.71 -0.0507132 -3.59464 0
M  V30 6776 C 664.374 -1.32478 -4.37377 0
M  V30 6777 C 665.371 -2.2572 -4.68344 0
M  V30 6778 C 663.056 -1.57104 -4.77099 0
M  V30 6779 C 665.05 -3.4187 -5.37963 0
M  V30 6780 C 662.737 -2.73543 -5.46459 0
M  V30 6781 C 663.735 -3.65751 -5.76815 0
M  V30 6782 O 663.423 -4.80154 -6.44753 0
M  V30 6783 H 663.155 -0.0950721 -0.669281 0
M  V30 6784 H 665.709 -0.915745 -1.83857 0
M  V30 6785 H 663.939 0.722314 -3.79894 0
M  V30 6786 H 665.628 0.380552 -4.04112 0
M  V30 6787 H 666.394 -2.07943 -4.38161 0
M  V30 6788 H 662.273 -0.862069 -4.52868 0
M  V30 6789 H 665.817 -4.13861 -5.61574 0
M  V30 6790 H 661.714 -2.91248 -5.7606 0
M  V30 6791 H 662.482 -4.79637 -6.63243 0
M  V30 6792 N 665.145 1.52092 -0.413018 0
M  V30 6793 C 666.391 2.02154 0.161737 0
M  V30 6794 C 666.724 1.29789 1.44459 0
M  V30 6795 O 665.999 0.405378 1.90229 0
M  V30 6796 C 666.282 3.5781 0.405463 0
M  V30 6797 C 666.135 4.40819 -0.894335 0
M  V30 6798 C 667.454 4.23821 1.18591 0
M  V30 6799 H 664.573 0.734769 0.0573077 0
M  V30 6800 H 667.215 1.81948 -0.547247 0
M  V30 6801 H 665.365 3.75158 1.0094 0
M  V30 6802 H 667.037 4.35175 -1.53039 0
M  V30 6803 H 665.28 4.06877 -1.50444 0
M  V30 6804 H 665.951 5.47819 -0.678144 0
M  V30 6805 H 668.427 4.10596 0.674573 0
M  V30 6806 H 667.303 5.32663 1.3252 0
M  V30 6807 H 667.564 3.83038 2.20758 0
M  V30 6808 N 666.623 0.143563 1.56945 0
M  V30 6809 C 667.9 -0.553285 1.87612 0
M  V30 6810 C 668.28 -1.83195 1.04894 0
M  V30 6811 O 667.628 -2.28102 0.134773 0
M  V30 6812 C 667.838 -0.822055 3.3918 0
M  V30 6813 C 669.186 -1.16435 4.08324 0
M  V30 6814 O 670.21 -0.911522 3.4434 0
M  V30 6815 O 669.069 -1.63996 5.21313 0
M  V30 6816 H 666.163 -0.281851 0.777489 0
M  V30 6817 H 668.709 0.179916 1.68744 0
M  V30 6818 H 667.481 0.0830265 3.91212 0
M  V30 6819 H 667.104 -1.60956 3.63564 0
M  V30 6820 N 668.101 -1.57061 -0.130224 0
M  V30 6821 C 669.331 -1.88159 -0.853217 0
M  V30 6822 C 669.739 -0.731675 -1.7448 0
M  V30 6823 O 669.082 0.307035 -1.81116 0
M  V30 6824 C 669.144 -3.1415 -1.74785 0
M  V30 6825 C 668.808 -4.45202 -1.03173 0
M  V30 6826 C 669.805 -5.18526 -0.377759 0
M  V30 6827 C 667.49 -4.91912 -1.01624 0
M  V30 6828 C 669.484 -6.36775 0.282123 0
M  V30 6829 C 667.171 -6.10082 -0.352555 0
M  V30 6830 C 668.169 -6.82361 0.295483 0
M  V30 6831 O 667.857 -7.98284 0.948606 0
M  V30 6832 H 667.589 -0.627596 -0.251197 0
M  V30 6833 H 670.143 -2.05034 -0.1226 0
M  V30 6834 H 668.373 -2.93328 -2.51983 0
M  V30 6835 H 670.062 -3.31359 -2.34427 0
M  V30 6836 H 670.828 -4.83498 -0.381417 0
M  V30 6837 H 666.707 -4.35566 -1.51007 0
M  V30 6838 H 670.251 -6.93129 0.788525 0
M  V30 6839 H 666.148 -6.44569 -0.346621 0
M  V30 6840 H 666.916 -8.14054 0.851954 0
M  V30 6841 N 669.579 0.400081 -1.52437 0
M  V30 6842 C 670.99 0.97851 -1.59003 0
M  V30 6843 C 671.341 1.91293 -0.436068 0
M  V30 6844 O 670.466 2.1183 0.442365 0
M  V30 6845 C 671.061 1.78145 -2.88184 0
M  V30 6846 C 669.62 2.30976 -2.97199 0
M  V30 6847 C 668.767 1.11212 -2.54022 0
M  V30 6848 H 671.718 0.180002 -1.57676 0
M  V30 6849 H 671.739 2.63968 -2.74046 0
M  V30 6850 H 671.251 1.1011 -3.72152 0
M  V30 6851 H 669.352 3.02355 -2.17744 0
M  V30 6852 H 669.465 2.61221 -4.01622 0
M  V30 6853 H 667.829 1.46882 -2.08081 0
M  V30 6854 H 668.612 0.447307 -3.40373 0
M  V30 6855 N 671.057 1.43213 0.657864 0
M  V30 6856 C 672.285 1.48015 1.44566 0
M  V30 6857 C 672.7 0.0965951 1.88553 0
M  V30 6858 O 672.057 -0.892221 1.59203 0
M  V30 6859 C 672.108 2.42199 2.68369 0
M  V30 6860 O 671.829 3.75173 2.26223 0
M  V30 6861 C 673.33 2.56195 3.61772 0
M  V30 6862 H 670.55 0.502861 0.444266 0
M  V30 6863 H 673.094 1.87907 0.806917 0
M  V30 6864 H 671.249 2.05514 3.28394 0
M  V30 6865 H 671.663 4.25776 3.06293 0
M  V30 6866 H 673.137 3.26182 4.4532 0
M  V30 6867 H 673.614 1.60534 4.0881 0
M  V30 6868 H 674.22 2.93671 3.07632 0
M  V30 6869 N 672.536 -0.895792 1.29666 0
M  V30 6870 C 673.784 -1.64339 1.17631 0
M  V30 6871 C 674.105 -1.93099 -0.271643 0
M  V30 6872 O 673.375 -1.55981 -1.18518 0
M  V30 6873 H 671.955 -0.609162 0.432354 0
M  V30 6874 H 674.617 -1.07389 1.62646 0
M  V30 6875 H 673.713 -2.59815 1.72924 0
M  V30 6876 N 674.014 -1.12206 -1.10668 0
M  V30 6877 C 675.242 -0.898635 -1.86366 0
M  V30 6878 C 675.657 0.551991 -1.80551 0
M  V30 6879 O 675.014 1.38152 -1.19249 0
M  V30 6880 C 675.065 -1.36199 -3.34861 0
M  V30 6881 O 674.786 -2.75576 -3.40573 0
M  V30 6882 C 676.287 -1.17515 -4.2744 0
M  V30 6883 H 673.507 -0.321281 -0.589084 0
M  V30 6884 H 676.051 -1.49142 -1.39918 0
M  V30 6885 H 674.206 -0.81249 -3.78784 0
M  V30 6886 H 674.62 -2.95851 -4.33096 0
M  V30 6887 H 676.094 -1.54827 -5.29842 0
M  V30 6888 H 676.571 -0.115486 -4.39048 0
M  V30 6889 H 677.177 -1.71203 -3.89319 0
M  V30 6890 N 675.492 1.28418 -0.913599 0
M  V30 6891 C 676.908 1.47411 -0.611728 0
M  V30 6892 C 677.108 1.83018 0.843008 0
M  V30 6893 O 676.164 1.93505 1.6221 0
M  V30 6894 C 677.477 2.57703 -1.5495 0
M  V30 6895 C 679.025 2.71572 -1.5562 0
M  V30 6896 C 679.5 3.85008 -2.48058 0
M  V30 6897 N 680.991 3.92361 -2.46184 0
M  V30 6898 C 681.726 4.79516 -3.14407 0
M  V30 6899 N 681.222 5.71262 -3.91958 0
M  V30 6900 N 683.015 4.73125 -3.03495 0
M  V30 6901 H 675.166 1.03585 -1.85429 0
M  V30 6902 H 677.429 0.515907 -0.795326 0
M  V30 6903 H 677.135 2.38298 -2.58663 0
M  V30 6904 H 677.009 3.54801 -1.28048 0
M  V30 6905 H 679.396 2.90366 -0.526441 0
M  V30 6906 H 679.477 1.75006 -1.86565 0
M  V30 6907 H 679.121 3.66969 -3.51136 0
M  V30 6908 H 679.051 4.80971 -2.14416 0
M  V30 6909 H 681.542 3.26749 -1.89851 0
M  V30 6910 H 681.855 6.34593 -4.41034 0
M  V30 6911 H 680.2 5.71103 -3.96063 0
M  V30 6912 H 683.391 4.00442 -2.42413 0
M  V30 6913 H 683.564 5.40834 -3.56935 0
M  V30 6914 N 676.97 0.677563 1.42291 0
M  V30 6915 C 678.219 0.198173 2.00724 0
M  V30 6916 C 678.532 -1.20325 1.54211 0
M  V30 6917 O 679.738 -1.77916 2.05081 0
M  V30 6918 C 678.194 0.303432 3.58619 0
M  V30 6919 C 677.802 1.70909 4.14119 0
M  V30 6920 C 679.546 -0.117103 4.24338 0
M  V30 6921 C 677.453 1.76696 5.64387 0
M  V30 6922 H 676.383 0.070329 0.750713 0
M  V30 6923 H 679.034 0.843147 1.62982 0
M  V30 6924 H 677.416 -0.409482 3.93877 0
M  V30 6925 H 678.59 2.44931 3.90315 0
M  V30 6926 H 676.905 2.07771 3.6086 0
M  V30 6927 H 679.502 -0.0940471 5.34617 0
M  V30 6928 H 679.845 -1.15283 4.00019 0
M  V30 6929 H 680.378 0.5449 3.9405 0
M  V30 6930 H 677.117 2.7826 5.93508 0
M  V30 6931 H 676.637 1.07034 5.90173 0
M  V30 6932 H 678.316 1.52166 6.28852 0
M  V30 6933 N 678.448 -1.51871 0.421078 0
M  V30 6934 C 679.859 -1.86644 -0.0457991 0
M  V30 6935 C 680.21 -1.33919 -1.43388 0
M  V30 6936 O 679.335 -0.683316 -2.05328 0
M  V30 6937 C 679.93 -3.38681 -0.0898844 0
M  V30 6938 C 678.489 -3.73049 -0.501127 0
M  V30 6939 C 677.636 -2.75485 0.316723 0
M  V30 6940 H 680.587 -1.45327 0.637635 0
M  V30 6941 H 680.608 -3.69636 -0.902734 0
M  V30 6942 H 680.12 -3.77025 0.920513 0
M  V30 6943 H 678.221 -3.40288 -1.51773 0
M  V30 6944 H 678.334 -4.78512 -0.237217 0
M  V30 6945 H 676.698 -2.53725 -0.222663 0
M  V30 6946 H 677.481 -3.16671 1.32569 0
M  V30 6947 N 679.926 -0.151884 -1.56866 0
M  V30 6948 C 680.873 0.785936 -2.17006 0
M  V30 6949 C 681.843 1.2407 -1.10435 0
M  V30 6950 O 683.028 1.31235 -1.38499 0
M  V30 6951 C 680.168 2.01771 -2.79969 0
M  V30 6952 C 679.281 1.6083 -4.00946 0
M  V30 6953 C 678.416 2.79224 -4.51893 0
M  V30 6954 C 677.455 2.3468 -5.65324 0
M  V30 6955 N 676.592 3.461 -6.10867 0
M  V30 6956 H 681.432 0.266286 -2.96808 0
M  V30 6957 H 678.969 0.11972 -1.46612 0
M  V30 6958 H 680.927 2.73989 -3.14621 0
M  V30 6959 H 679.557 2.51139 -2.02803 0
M  V30 6960 H 678.609 0.783592 -3.72242 0
M  V30 6961 H 679.921 1.24119 -4.83111 0
M  V30 6962 H 679.075 3.59625 -4.88625 0
M  V30 6963 H 677.814 3.19183 -3.68746 0
M  V30 6964 H 676.819 1.52721 -5.28163 0
M  V30 6965 H 678.044 1.95801 -6.5026 0
M  V30 6966 H 675.99 3.85671 -5.30654 0
M  V30 6967 H 675.907 3.1342 -6.87971 0
M  V30 6968 H 677.175 4.26844 -6.52246 0
M  V30 6969 N 681.404 1.57128 0.121893 0
M  V30 6970 C 682.367 1.99197 1.13372 0
M  V30 6971 C 683.367 0.881728 1.3447 0
M  V30 6972 O 684.557 1.14783 1.31036 0
M  V30 6973 C 681.689 2.32963 2.4888 0
M  V30 6974 H 682.882 2.89788 0.772204 0
M  V30 6975 H 680.435 1.51952 0.366093 0
M  V30 6976 H 681.17 1.45243 2.89957 0
M  V30 6977 H 680.955 3.13934 2.34921 0
M  V30 6978 H 682.445 2.66261 3.21706 0
M  V30 6979 N 682.882 -0.391992 1.52647 0
M  V30 6980 C 684.107 -1.16312 1.71716 0
M  V30 6981 C 684.532 -1.83042 0.433279 0
M  V30 6982 O 683.89 -1.70705 -0.610707 0
M  V30 6983 C 683.938 -2.18908 2.86551 0
M  V30 6984 O 683.042 -3.2543 2.53316 0
M  V30 6985 H 682.383 -0.338743 0.571095 0
M  V30 6986 H 684.913 -0.457202 1.99426 0
M  V30 6987 H 684.923 -2.62954 3.1196 0
M  V30 6988 H 683.598 -1.69726 3.79692 0
M  V30 6989 H 682.175 -2.86543 2.38637 0
M  V30 6990 N 684.36 -1.4356 -0.65026 0
M  V30 6991 C 685.323 -1.48615 -1.74489 0
M  V30 6992 C 686.323 -0.370483 -1.56474 0
M  V30 6993 O 687.513 -0.632351 -1.62317 0
M  V30 6994 C 684.645 -1.34161 -3.13391 0
M  V30 6995 H 685.838 -2.46103 -1.71387 0
M  V30 6996 H 683.391 -1.30369 -0.862186 0
M  V30 6997 H 684.126 -0.376918 -3.22102 0
M  V30 6998 H 683.911 -2.1504 -3.27872 0
M  V30 6999 H 685.401 -1.40637 -3.93206 0
M  V30 7000 N 685.838 0.888903 -1.30139 0
M  V30 7001 C 687.254 1.17153 -1.08385 0
M  V30 7002 C 687.454 2.0088 0.157925 0
M  V30 7003 O 686.51 2.37668 0.852652 0
M  V30 7004 C 687.823 1.882 -2.34523 0
M  V30 7005 C 689.371 2.00981 -2.39949 0
M  V30 7006 C 689.846 2.75441 -3.65918 0
M  V30 7007 N 691.337 2.82989 -3.66704 0
M  V30 7008 C 692.072 3.41167 -4.60861 0
M  V30 7009 N 691.568 4.00425 -5.6536 0
M  V30 7010 N 693.361 3.38944 -4.48412 0
M  V30 7011 H 685.512 0.33053 -2.09812 0
M  V30 7012 H 687.775 0.208964 -0.924683 0
M  V30 7013 H 687.481 1.34119 -3.25123 0
M  V30 7014 H 687.355 2.88609 -2.42868 0
M  V30 7015 H 689.742 2.54234 -1.4983 0
M  V30 7016 H 689.823 0.996725 -2.35582 0
M  V30 7017 H 689.467 2.22861 -4.56394 0
M  V30 7018 H 689.397 3.77118 -3.67546 0
M  V30 7019 H 691.888 2.40912 -2.91153 0
M  V30 7020 H 692.201 4.42871 -6.33313 0
M  V30 7021 H 690.546 3.98856 -5.69157 0
M  V30 7022 H 693.737 2.91875 -3.6596 0
M  V30 7023 H 693.91 3.83989 -5.21974 0
M  V30 7024 N 687.317 1.12792 1.10072 0
M  V30 7025 C 688.563 0.89679 1.82563 0
M  V30 7026 C 688.918 -0.571152 1.83727 0
M  V30 7027 O 688.211 -1.41697 1.28967 0
M  V30 7028 C 688.405 1.4102 3.28403 0
M  V30 7029 C 688.234 2.92652 3.41445 0
M  V30 7030 C 687.004 3.60928 3.53637 0
M  V30 7031 C 689.202 3.9063 3.34534 0
M  V30 7032 N 687.184 5.00638 3.55295 0
M  V30 7033 C 688.555 5.16492 3.42981 0
M  V30 7034 C 690.61 3.82989 3.18157 0
M  V30 7035 C 689.313 6.35609 3.3674 0
M  V30 7036 C 691.339 5.01633 3.13239 0
M  V30 7037 C 690.701 6.26355 3.22272 0
M  V30 7038 H 686.8 0.381482 0.682638 0
M  V30 7039 H 689.384 1.43491 1.31599 0
M  V30 7040 H 687.555 0.899077 3.77851 0
M  V30 7041 H 689.287 1.12075 3.88872 0
M  V30 7042 H 686.042 3.11429 3.56803 0
M  V30 7043 H 686.466 5.73521 3.59725 0
M  V30 7044 H 691.108 2.87454 3.10049 0
M  V30 7045 H 688.826 7.31407 3.43613 0
M  V30 7046 H 692.412 4.97454 3.01713 0
M  V30 7047 H 691.292 7.1662 3.18473 0
M  V30 7048 N 688.795 -1.27931 0.920396 0
M  V30 7049 C 690.025 -1.98516 0.572256 0
M  V30 7050 C 690.433 -1.68912 -0.852375 0
M  V30 7051 O 689.776 -0.94203 -1.57707 0
M  V30 7052 C 689.838 -3.5243 0.709485 0
M  V30 7053 C 689.502 -4.0564 2.10489 0
M  V30 7054 C 690.499 -4.1897 3.07831 0
M  V30 7055 C 688.184 -4.40168 2.41986 0
M  V30 7056 C 690.178 -4.66093 4.34783 0
M  V30 7057 C 687.865 -4.86983 3.69176 0
M  V30 7058 C 688.863 -4.99903 4.65388 0
M  V30 7059 O 688.551 -5.45694 5.90316 0
M  V30 7060 H 688.283 -0.64047 0.216274 0
M  V30 7061 H 690.837 -1.6393 1.23758 0
M  V30 7062 H 689.067 -3.86698 -0.0129263 0
M  V30 7063 H 690.756 -4.04233 0.367474 0
M  V30 7064 H 691.522 -3.92562 2.84816 0
M  V30 7065 H 687.401 -4.29358 1.67846 0
M  V30 7066 H 690.945 -4.76092 5.09884 0
M  V30 7067 H 686.842 -5.12832 3.92012 0
M  V30 7068 H 687.61 -5.63965 5.932 0
M  V30 7069 N 690.273 -0.685099 -1.4193 0
M  V30 7070 C 691.236 -0.0222632 -2.29189 0
M  V30 7071 C 692.236 0.7186 -1.4385 0
M  V30 7072 O 693.426 0.555058 -1.6512 0
M  V30 7073 C 690.558 0.979013 -3.2654 0
M  V30 7074 H 691.751 -0.790424 -2.89296 0
M  V30 7075 H 689.304 -0.448012 -1.49742 0
M  V30 7076 H 690.039 1.77531 -2.71392 0
M  V30 7077 H 689.824 0.451037 -3.89497 0
M  V30 7078 H 691.314 1.44091 -3.91954 0
M  V30 7079 N 691.751 1.51645 -0.429126 0
M  V30 7080 C 692.661 2.31288 0.392809 0
M  V30 7081 C 693.677 1.39852 1.03525 0
M  V30 7082 O 694.853 1.72926 1.03241 0
M  V30 7083 C 691.918 3.13347 1.48372 0
M  V30 7084 C 690.979 4.20551 0.862268 0
M  V30 7085 C 690.212 4.98688 1.9012 0
M  V30 7086 O 690.435 4.77359 3.12225 0
M  V30 7087 O 689.369 5.83005 1.4963 0
M  V30 7088 H 693.195 3.02609 -0.257138 0
M  V30 7089 H 690.78 1.48163 -0.191851 0
M  V30 7090 H 692.662 3.64387 2.1166 0
M  V30 7091 H 691.337 2.44799 2.1179 0
M  V30 7092 H 690.244 3.73609 0.191568 0
M  V30 7093 H 691.577 4.91449 0.271704 0
M  V30 7094 N 693.229 0.160201 1.56784 0
M  V30 7095 C 694.475 -0.48831 1.96833 0
M  V30 7096 C 694.808 -1.63641 1.04571 0
M  V30 7097 O 694.083 -1.94289 0.0906481 0
M  V30 7098 C 694.366 -0.981908 3.46454 0
M  V30 7099 C 694.219 0.165607 4.49495 0
M  V30 7100 C 695.538 -1.85931 3.98896 0
M  V30 7101 H 692.657 -0.176027 0.71567 0
M  V30 7102 H 695.299 0.244093 1.88426 0
M  V30 7103 H 693.449 -1.60602 3.5375 0
M  V30 7104 H 695.121 0.802372 4.54268 0
M  V30 7105 H 693.364 0.822789 4.25926 0
M  V30 7106 H 694.035 -0.221699 5.51555 0
M  V30 7107 H 696.511 -1.33327 3.94161 0
M  V30 7108 H 695.387 -2.17373 5.04024 0
M  V30 7109 H 695.648 -2.80106 3.42042 0
M  V30 7110 N 694.707 -1.5719 -0.113559 0
M  V30 7111 C 695.67 -1.99796 -1.12314 0
M  V30 7112 C 696.67 -0.888847 -1.34001 0
M  V30 7113 O 697.86 -1.15476 -1.30426 0
M  V30 7114 C 694.992 -2.34279 -2.47641 0
M  V30 7115 H 696.185 -2.90193 -0.756825 0
M  V30 7116 H 693.738 -1.52144 -0.358029 0
M  V30 7117 H 694.473 -1.46778 -2.89183 0
M  V30 7118 H 694.258 -3.15175 -2.33253 0
M  V30 7119 H 695.748 -2.67963 -3.2029 0
M  V30 7120 N 696.185 0.383891 -1.52853 0
M  V30 7121 C 697.601 0.724316 -1.42218 0
M  V30 7122 C 697.801 1.93943 -0.546654 0
M  V30 7123 O 696.857 2.5249 -0.0220562 0
M  V30 7124 C 698.17 0.954635 -2.85144 0
M  V30 7125 C 699.718 1.05579 -2.94656 0
M  V30 7126 C 700.193 1.3187 -4.38605 0
M  V30 7127 N 701.684 1.38681 -4.41952 0
M  V30 7128 C 702.419 1.60699 -5.50421 0
M  V30 7129 N 701.915 1.80154 -6.68967 0
M  V30 7130 N 703.708 1.6292 -5.37972 0
M  V30 7131 H 695.859 -0.4156 -2.08294 0
M  V30 7132 H 698.122 -0.123776 -0.939885 0
M  V30 7133 H 697.828 0.133829 -3.51445 0
M  V30 7134 H 697.702 1.86788 -3.27704 0
M  V30 7135 H 700.089 1.86716 -2.2852 0
M  V30 7136 H 700.17 0.120338 -2.55517 0
M  V30 7137 H 699.814 0.512416 -5.05309 0
M  V30 7138 H 699.744 2.26708 -4.75301 0
M  V30 7139 H 702.235 1.25334 -3.56511 0
M  V30 7140 H 702.548 1.96476 -7.47407 0
M  V30 7141 H 700.893 1.77368 -6.71986 0
M  V30 7142 H 704.084 1.47276 -4.44328 0
M  V30 7143 H 704.257 1.79739 -6.22574 0
M  V30 7144 N 697.663 1.43903 0.642637 0
M  V30 7145 C 698.891 1.4954 1.42988 0
M  V30 7146 C 699.306 0.116588 1.8844 0
M  V30 7147 O 698.663 -0.875285 1.60141 0
M  V30 7148 C 698.714 2.45031 2.65785 0
M  V30 7149 O 698.435 3.77551 2.22232 0
M  V30 7150 C 699.936 2.60017 3.59035 0
M  V30 7151 H 697.156 0.507544 0.438907 0
M  V30 7152 H 699.7 1.88752 0.786942 0
M  V30 7153 H 697.855 2.08985 3.26196 0
M  V30 7154 H 698.269 4.29001 3.01759 0
M  V30 7155 H 699.743 3.30887 4.41835 0
M  V30 7156 H 700.22 1.64861 4.07084 0
M  V30 7157 H 700.826 2.96918 3.045 0
M  V30 7158 N 699.141 -0.881989 1.30609 0
M  V30 7159 C 700.389 -1.63082 1.19368 0
M  V30 7160 C 700.71 -1.93376 -0.251147 0
M  V30 7161 O 699.98 -1.5723 -1.16857 0
M  V30 7162 H 698.56 -0.604542 0.438791 0
M  V30 7163 H 701.222 -1.05658 1.63776 0
M  V30 7164 H 700.318 -2.57966 1.7567 0
M  V30 7165 N 700.619 -1.13374 -1.09472 0
M  V30 7166 C 701.865 -0.896516 -1.81908 0
M  V30 7167 C 702.198 0.575933 -1.85463 0
M  V30 7168 O 701.473 1.42618 -1.32251 0
M  V30 7169 C 701.756 -1.48445 -3.28079 0
M  V30 7170 C 701.609 -3.02598 -3.32798 0
M  V30 7171 C 702.928 -1.15226 -4.24748 0
M  V30 7172 H 700.047 -0.327127 -0.660422 0
M  V30 7173 H 702.689 -1.40195 -1.2824 0
M  V30 7174 H 700.839 -1.0546 -3.73912 0
M  V30 7175 H 702.511 -3.54335 -2.95372 0
M  V30 7176 H 700.754 -3.37613 -2.72397 0
M  V30 7177 H 701.425 -3.38835 -4.3577 0
M  V30 7178 H 703.901 -1.52369 -3.87199 0
M  V30 7179 H 702.777 -1.59012 -5.25363 0
M  V30 7180 H 703.038 -0.0658891 -4.42051 0
M  V30 7181 N 702.098 1.27442 -0.927168 0
M  V30 7182 C 703.028 2.29256 -0.443188 0
M  V30 7183 C 704.009 1.62701 0.49624 0
M  V30 7184 O 705.194 1.90013 0.401105 0
M  V30 7185 C 702.324 3.45955 0.305366 0
M  V30 7186 C 701.278 4.24501 -0.546178 0
M  V30 7187 C 700.604 5.33671 0.331512 0
M  V30 7188 C 701.904 4.89921 -1.81037 0
M  V30 7189 H 703.598 2.69988 -1.29409 0
M  V30 7190 H 701.144 1.29792 -0.623705 0
M  V30 7191 H 703.097 4.1628 0.654885 0
M  V30 7192 H 701.821 3.04138 1.19029 0
M  V30 7193 H 700.48 3.55921 -0.878398 0
M  V30 7194 H 700.128 4.88096 1.21537 0
M  V30 7195 H 699.828 5.87131 -0.234746 0
M  V30 7196 H 701.352 6.0684 0.676614 0
M  V30 7197 H 702.766 5.52536 -1.52895 0
M  V30 7198 H 701.163 5.53436 -2.32009 0
M  V30 7199 H 702.233 4.13652 -2.53021 0
M  V30 7200 N 703.576 0.692616 1.41565 0
M  V30 7201 C 704.987 0.297478 1.84315 0
M  V30 7202 C 705.338 -1.16379 1.57957 0
M  V30 7203 O 704.463 -1.89303 1.0485 0
M  V30 7204 C 705.058 0.533136 3.34579 0
M  V30 7205 C 703.617 0.191944 3.7591 0
M  V30 7206 C 702.764 0.816873 2.64995 0
M  V30 7207 H 705.715 0.893488 1.31158 0
M  V30 7208 H 705.736 -0.209105 3.79925 0
M  V30 7209 H 705.248 1.59674 3.53731 0
M  V30 7210 H 703.349 -0.867512 3.6236 0
M  V30 7211 H 703.462 0.644902 4.7474 0
M  V30 7212 H 701.826 0.246715 2.53502 0
M  V30 7213 H 702.609 1.88429 2.86966 0
M  V30 7214 N 705.054 -1.51416 0.437162 0
M  V30 7215 C 706.282 -2.06503 -0.128045 0
M  V30 7216 C 706.697 -1.30461 -1.36475 0
M  V30 7217 O 706.054 -0.364127 -1.78831 0
M  V30 7218 C 706.105 -3.58683 -0.450437 0
M  V30 7219 O 705.826 -4.31853 0.737186 0
M  V30 7220 C 707.327 -4.30284 -1.06633 0
M  V30 7221 H 704.547 -0.670952 -0.00800269 0
M  V30 7222 H 707.091 -1.94996 0.616193 0
M  V30 7223 H 705.246 -3.70106 -1.14457 0
M  V30 7224 H 705.66 -5.22467 0.461347 0
M  V30 7225 H 707.134 -5.37848 -1.24191 0
M  V30 7226 H 707.611 -3.88564 -2.0473 0
M  V30 7227 H 708.217 -4.23304 -0.411585 0
M  V30 7228 N 706.532 -0.168513 -1.56696 0
M  V30 7229 C 707.495 0.748928 -2.16619 0
M  V30 7230 C 708.495 1.16007 -1.11351 0
M  V30 7231 O 709.685 1.07748 -1.3688 0
M  V30 7232 C 706.817 2.01904 -2.74677 0
M  V30 7233 H 708.01 0.227317 -2.99037 0
M  V30 7234 H 705.563 0.0810372 -1.5609 0
M  V30 7235 H 706.298 2.58381 -1.95985 0
M  V30 7236 H 706.083 1.73323 -3.51712 0
M  V30 7237 H 707.573 2.67383 -3.20774 0
M  V30 7238 O 708.049 1.61471 -0.0305634 0
M  V30 7239 H 708.74 1.84756 0.581805 0
M  V30 END ATOM
M  V30 BEGIN BOND
M  V30 END BOND
M  V30 END CTAB
M  END
$$$$
