drugbank_target|O15374 Monocarboxylate transporter 5 (DB00119)
 OpenBabel12092119263D

  0  0  0     0  0            999 V3000
M  V30 BEGIN CTAB
M  V30 COUNTS 7664 7768 0 0 0
M  V30 BEGIN ATOM
M  V30 1 H -0.908 1.98254 -0.117106 0
M  V30 2 N 0 1.576 0 0
M  V30 3 C 0.933 2.03868 1.02534 0
M  V30 4 C 1.911 0.928543 1.3348 0
M  V30 5 O 3.095 1.19667 1.45644 0
M  V30 6 C 0.222 2.43627 2.35294 0
M  V30 7 C -0.732 3.65373 2.2001 0
M  V30 8 S 0.101 5.13292 1.52614 0
M  V30 9 C 1.257 5.56322 2.86805 0
M  V30 10 H 1.49 2.90518 0.631377 0
M  V30 11 H -0.977 1.52953 0.210867 0
M  V30 12 H 0.981 2.67203 3.11629 0
M  V30 13 H -0.358 1.57376 2.7183 0
M  V30 14 H -1.165 3.90944 3.18086 0
M  V30 15 H -1.563 3.418 1.51819 0
M  V30 16 H 0.729 5.58782 3.83104 0
M  V30 17 H 1.672 6.56266 2.65933 0
M  V30 18 H 2.08 4.83886 2.90714 0
M  V30 19 N 1.4781 -0.272755 1.55222 0
M  V30 20 C 2.4081 -1.34136 1.91127 0
M  V30 21 C 3.3891 -1.51513 0.773168 0
M  V30 22 O 4.5741 -1.64552 1.03132 0
M  V30 23 C 1.7041 -2.70083 2.1834 0
M  V30 24 C 0.6581 -2.67437 3.34158 0
M  V30 25 C -0.0159 -4.06938 3.46851 0
M  V30 26 C 1.2841 -2.26686 4.70543 0
M  V30 27 H 2.9781 -1.04333 2.80633 0
M  V30 28 H 0.5241 -0.500454 1.35024 0
M  V30 29 H 2.4771 -3.44952 2.42046 0
M  V30 30 H 1.2011 -3.01469 1.25634 0
M  V30 31 H -0.1399 -1.95026 3.1042 0
M  V30 32 H -0.4919 -4.35547 2.51611 0
M  V30 33 H -0.7919 -4.06062 4.2472 0
M  V30 34 H 0.7321 -4.83545 3.72849 0
M  V30 35 H 2.1461 -2.91277 4.93792 0
M  V30 36 H 0.5431 -2.36971 5.5133 0
M  V30 37 H 1.6131 -1.21818 4.69349 0
M  V30 38 N 2.9562 -1.48159 -0.537278 0
M  V30 39 C 3.9032 -1.62138 -1.64256 0
M  V30 40 C 4.8732 -0.463668 -1.59497 0
M  V30 41 O 6.0582 -0.686241 -1.78032 0
M  V30 42 C 3.1982 -1.66028 -3.02537 0
M  V30 43 C 2.3112 -2.92855 -3.17585 0
M  V30 44 C 1.4462 -2.87952 -4.46382 0
M  V30 45 C 0.4852 -4.09516 -4.54932 0
M  V30 46 N -0.3778 -4.02733 -5.75109 0
M  V30 47 H 4.4622 -2.56529 -1.51647 0
M  V30 48 H 1.9992 -1.27224 -0.738414 0
M  V30 49 H 3.9572 -1.66265 -3.82638 0
M  V30 50 H 2.5872 -0.751331 -3.13934 0
M  V30 51 H 1.6392 -3.02395 -2.30784 0
M  V30 52 H 2.9512 -3.82822 -3.19764 0
M  V30 53 H 2.1052 -2.8655 -5.34765 0
M  V30 54 H 0.8442 -1.95702 -4.46712 0
M  V30 55 H -0.1508 -4.11201 -3.64957 0
M  V30 56 H 1.0742 -5.02917 -4.56346 0
M  V30 57 H -0.9798 -3.13299 -5.76351 0
M  V30 58 H -1.0628 -4.86397 -5.78752 0
M  V30 59 H 0.2052 -4.05379 -6.65799 0
M  V30 60 N 4.4343 0.785586 -1.36625 0
M  V30 61 C 5.8503 1.08419 -1.17122 0
M  V30 62 C 6.0503 2.015 0.00208491 0
M  V30 63 O 5.1063 2.43551 0.666278 0
M  V30 64 C 6.4193 1.69498 -2.48377 0
M  V30 65 C 7.9673 1.81821 -2.54775 0
M  V30 66 C 8.4423 2.46315 -3.86126 0
M  V30 67 N 9.9333 2.53779 -3.87492 0
M  V30 68 C 10.6683 3.045 -4.85868 0
M  V30 69 N 10.1643 3.55499 -5.94637 0
M  V30 70 N 11.9573 3.03247 -4.73284 0
M  V30 71 H 4.1083 0.167264 -2.1174 0
M  V30 72 H 6.3713 0.13682 -0.938075 0
M  V30 73 H 6.0773 1.08571 -3.34522 0
M  V30 74 H 5.9513 2.6896 -2.64462 0
M  V30 75 H 8.3383 2.41884 -1.69045 0
M  V30 76 H 8.4193 0.811532 -2.42586 0
M  V30 77 H 8.0633 1.86895 -4.72263 0
M  V30 78 H 7.9933 3.47561 -3.95612 0
M  V30 79 H 10.4843 2.17672 -3.08913 0
M  V30 80 H 10.7973 3.92562 -6.65669 0
M  V30 81 H 9.1423 3.5364 -5.98301 0
M  V30 82 H 12.3333 2.62696 -3.87438 0
M  V30 83 H 12.5063 3.42467 -5.50109 0
M  V30 84 N 5.9124 1.20967 1.01018 0
M  V30 85 C 6.8224 0.980157 2.13143 0
M  V30 86 C 7.8384 -0.0660665 1.73875 0
M  V30 87 O 9.0144 0.122821 2.01025 0
M  V30 88 C 6.0794 0.54216 3.42435 0
M  V30 89 C 5.1404 1.65999 3.95908 0
M  V30 90 C 4.3734 1.2428 5.19028 0
M  V30 91 O 4.5964 0.114196 5.70286 0
M  V30 92 O 3.5304 2.05271 5.65816 0
M  V30 93 H 7.3564 1.91913 2.35379 0
M  V30 94 H 4.9414 0.994099 1.11526 0
M  V30 95 H 6.8234 0.30744 4.20277 0
M  V30 96 H 5.4984 -0.36815 3.216 0
M  V30 97 H 4.4054 1.94906 3.19316 0
M  V30 98 H 5.7384 2.54753 4.21143 0
M  V30 99 N 7.3905 -1.2043 1.01659 0
M  V30 100 C 8.6385 -1.89423 0.704522 0
M  V30 101 C 8.9595 -1.79231 -0.768197 0
M  V30 102 O 8.2295 -1.1947 -1.55254 0
M  V30 103 H 6.8095 -0.701178 0.257602 0
M  V30 104 H 9.4715 -1.4626 1.28818 0
M  V30 105 H 8.5675 -2.96052 0.987916 0
M  V30 106 N 8.8686 -0.792821 -1.36206 0
M  V30 107 C 9.8156 -0.191653 -2.30003 0
M  V30 108 C 10.7856 0.666453 -1.52143 0
M  V30 109 O 11.9706 0.61442 -1.80636 0
M  V30 110 C 9.1106 0.664848 -3.38635 0
M  V30 111 C 8.2236 -0.212175 -4.31479 0
M  V30 112 C 7.3586 0.651022 -5.27196 0
M  V30 113 C 6.3976 -0.227247 -6.11678 0
M  V30 114 N 5.5346 0.595127 -6.99573 0
M  V30 115 H 10.3746 -0.996978 -2.80828 0
M  V30 116 H 7.9116 -0.503206 -1.38225 0
M  V30 117 H 9.8696 1.17645 -4.00269 0
M  V30 118 H 8.4996 1.43557 -2.89122 0
M  V30 119 H 7.5516 -0.841777 -3.70969 0
M  V30 120 H 8.8636 -0.888751 -4.90818 0
M  V30 121 H 8.0176 1.2283 -5.94136 0
M  V30 122 H 6.7566 1.36121 -4.68319 0
M  V30 123 H 5.7616 -0.816904 -5.43697 0
M  V30 124 H 6.9866 -0.93509 -6.72631 0
M  V30 125 H 4.9326 1.28955 -6.432 0
M  V30 126 H 4.8496 -0.0236952 -7.55996 0
M  V30 127 H 6.1176 1.15613 -7.70879 0
M  V30 128 N 10.3467 1.47872 -0.545128 0
M  V30 129 C 11.5927 2.02793 -0.0166104 0
M  V30 130 C 11.9257 1.41987 1.32489 0
M  V30 131 O 11.2007 0.571045 1.85928 0
M  V30 132 C 11.4837 3.59989 0.0893294 0
M  V30 133 C 11.3367 4.3125 -1.27841 0
M  V30 134 C 12.6557 4.32606 0.808724 0
M  V30 135 H 9.7747 0.736962 -0.00751035 0
M  V30 136 H 12.4167 1.76433 -0.705085 0
M  V30 137 H 10.5667 3.82579 0.675681 0
M  V30 138 H 12.2387 4.20035 -1.90704 0
M  V30 139 H 10.4817 3.92076 -1.85632 0
M  V30 140 H 11.1527 5.39736 -1.15713 0
M  V30 141 H 13.6287 4.14936 0.310992 0
M  V30 142 H 12.5047 5.42251 0.851782 0
M  V30 143 H 12.7657 4.00963 1.86229 0
M  V30 144 N 11.8248 0.280983 1.55075 0
M  V30 145 C 12.7568 -0.637268 2.20163 0
M  V30 146 C 13.7698 -1.11298 1.18813 0
M  V30 147 O 14.9588 -1.03388 1.4551 0
M  V30 148 C 12.0588 -1.88199 2.81841 0
M  V30 149 C 11.2318 -1.55211 4.08936 0
M  V30 150 C 10.2908 -2.64991 4.54606 0
M  V30 151 O 9.3168 -2.30929 5.2025 0
M  V30 152 N 10.5188 -3.95161 4.25238 0
M  V30 153 H 13.2838 -0.0801694 2.99593 0
M  V30 154 H 10.8448 0.102329 1.61576 0
M  V30 155 H 12.8368 -2.60948 3.09335 0
M  V30 156 H 11.4068 -2.34799 2.06369 0
M  V30 157 H 10.6268 -0.658185 3.88666 0
M  V30 158 H 11.9148 -1.30681 4.91732 0
M  V30 159 H 11.3128 -4.25653 3.72607 0
M  V30 160 H 9.8698 -4.6427 4.5749 0
M  V30 161 N 13.3029 -1.57598 0.00835791 0
M  V30 162 C 14.7139 -1.7892 -0.53333 0
M  V30 163 C 15.0649 -0.916609 -1.73473 0
M  V30 164 O 14.1899 -0.121336 -2.1606 0
M  V30 165 C 14.7849 -3.24488 -0.974313 0
M  V30 166 C 13.3439 -3.46878 -1.46125 0
M  V30 167 C 12.4909 -2.74157 -0.416302 0
M  V30 168 H 15.4419 -1.56958 0.234495 0
M  V30 169 H 15.4629 -3.3306 -1.83988 0
M  V30 170 H 14.9749 -3.87972 -0.099718 0
M  V30 171 H 13.0759 -2.8862 -2.35646 0
M  V30 172 H 13.1889 -4.55572 -1.48295 0
M  V30 173 H 11.5529 -2.39022 -0.87981 0
M  V30 174 H 12.3359 -3.40345 0.44947 0
M  V30 175 N 14.781 0.264519 -1.55364 0
M  V30 176 C 16.011 1.01153 -1.80143 0
M  V30 177 C 16.419 1.80115 -0.579253 0
M  V30 178 O 15.762 1.77813 0.46132 0
M  V30 179 C 15.824 2.01098 -2.97993 0
M  V30 180 C 15.488 1.40995 -4.34706 0
M  V30 181 C 16.485 0.821316 -5.13372 0
M  V30 182 C 14.17 1.43461 -4.81378 0
M  V30 183 C 16.164 0.265339 -6.36847 0
M  V30 184 C 13.851 0.874771 -6.04807 0
M  V30 185 C 14.849 0.291146 -6.82379 0
M  V30 186 O 14.537 -0.260093 -8.03479 0
M  V30 187 H 14.269 0.304125 -0.603725 0
M  V30 188 H 16.823 0.298089 -2.03225 0
M  V30 189 H 15.053 2.76224 -2.70623 0
M  V30 190 H 16.742 2.61997 -3.1002 0
M  V30 191 H 17.508 0.794903 -4.78442 0
M  V30 192 H 13.387 1.87826 -4.21002 0
M  V30 193 H 16.931 -0.190837 -6.97339 0
M  V30 194 H 12.828 0.898452 -6.39217 0
M  V30 195 H 13.596 -0.150265 -8.18362 0
M  V30 196 N 16.2591 1.48442 0.529413 0
M  V30 197 C 17.4871 1.60151 1.30994 0
M  V30 198 C 17.9021 0.261985 1.86973 0
M  V30 199 O 17.2591 -0.748805 1.66431 0
M  V30 200 C 17.3101 2.64854 2.46038 0
M  V30 201 O 17.0311 3.93608 1.92365 0
M  V30 202 C 18.5321 2.87007 3.37849 0
M  V30 203 H 15.7521 0.539971 0.398338 0
M  V30 204 H 18.2961 1.94273 0.638597 0
M  V30 205 H 16.4511 2.33589 3.09055 0
M  V30 206 H 16.8651 4.51055 2.67675 0
M  V30 207 H 18.3391 3.64068 4.14919 0
M  V30 208 H 18.8161 1.95852 3.93114 0
M  V30 209 H 19.4221 3.19579 2.80623 0
M  V30 210 N 17.7372 -0.778329 1.37039 0
M  V30 211 C 18.6842 -1.89139 1.32269 0
M  V30 212 C 19.6542 -1.65017 0.189387 0
M  V30 213 O 20.8392 -1.87024 0.377693 0
M  V30 214 C 17.9792 -3.26112 1.12894 0
M  V30 215 C 17.0922 -3.62233 2.35396 0
M  V30 216 C 16.2272 -4.8838 2.08946 0
M  V30 217 C 15.2662 -5.17212 3.2735 0
M  V30 218 N 14.4032 -6.34546 3.00492 0
M  V30 219 H 19.2432 -1.92552 2.27437 0
M  V30 220 H 16.7802 -0.941473 1.13025 0
M  V30 221 H 18.7382 -4.05116 0.996835 0
M  V30 222 H 17.3682 -3.22091 0.213758 0
M  V30 223 H 16.4202 -2.78265 2.5937 0
M  V30 224 H 17.7322 -3.79481 3.23721 0
M  V30 225 H 16.8862 -5.75274 1.92729 0
M  V30 226 H 15.6252 -4.73222 1.17949 0
M  V30 227 H 14.6302 -4.28796 3.44113 0
M  V30 228 H 15.8552 -5.34283 4.19188 0
M  V30 229 H 13.8012 -6.20759 2.12118 0
M  V30 230 H 13.7182 -6.52179 3.82358 0
M  V30 231 H 14.9862 -7.24394 2.87879 0
M  V30 232 N 19.2153 -1.21501 -1.00376 0
M  V30 233 C 20.4433 -1.059 -1.77744 0
M  V30 234 C 20.8583 0.391125 -1.84704 0
M  V30 235 O 20.2153 1.27133 -1.30933 0
M  V30 236 C 20.2663 -1.65111 -3.21591 0
M  V30 237 O 19.9873 -3.0445 -3.15027 0
M  V30 238 C 21.4883 -1.54637 -4.15454 0
M  V30 239 H 18.7083 -0.371825 -0.558558 0
M  V30 240 H 21.2523 -1.60865 -1.26264 0
M  V30 241 H 19.4073 -1.14235 -3.70175 0
M  V30 242 H 19.8213 -3.3278 -4.0541 0
M  V30 243 H 21.2953 -2.00808 -5.14179 0
M  V30 244 H 21.7723 -0.501022 -4.36333 0
M  V30 245 H 22.3783 -2.04767 -3.72761 0
M  V30 246 N 20.6934 1.19889 -1.02296 0
M  V30 247 C 21.6234 2.25141 -0.619174 0
M  V30 248 C 22.6044 1.66051 0.368915 0
M  V30 249 O 23.7894 1.92546 0.252941 0
M  V30 250 C 20.9194 3.4728 0.0368783 0
M  V30 251 C 19.8734 4.19005 -0.872865 0
M  V30 252 C 19.1994 5.34637 -0.0822402 0
M  V30 253 C 20.4994 4.74452 -2.18387 0
M  V30 254 H 22.1934 2.59171 -1.49903 0
M  V30 255 H 19.7394 1.24579 -0.722222 0
M  V30 256 H 21.6924 4.20098 0.330958 0
M  V30 257 H 20.4164 3.12433 0.95149 0
M  V30 258 H 19.0754 3.48061 -1.15105 0
M  V30 259 H 18.7234 4.96034 0.83422 0
M  V30 260 H 18.4234 5.83557 -0.688149 0
M  V30 261 H 19.9474 6.10255 0.205238 0
M  V30 262 H 21.3614 5.39055 -1.95172 0
M  V30 263 H 19.7584 5.33834 -2.74119 0
M  V30 264 H 20.8284 3.92844 -2.84257 0
M  V30 265 N 22.1715 0.800033 1.35784 0
M  V30 266 C 23.4485 0.30088 1.93272 0
M  V30 267 C 23.8285 -1.20857 1.73081 0
M  V30 268 O 23.1765 -2.00502 1.09596 0
M  V30 269 C 23.3865 0.70511 3.41803 0
M  V30 270 C 24.7345 0.690871 4.18942 0
M  V30 271 O 25.7585 0.646244 3.50289 0
M  V30 272 O 24.6175 0.74332 5.41421 0
M  V30 273 H 21.7115 0.0771605 0.823393 0
M  V30 274 H 24.2575 0.88329 1.449 0
M  V30 275 H 23.0295 1.74571 3.50201 0
M  V30 276 H 22.6525 0.0971541 3.97481 0
M  V30 277 N 23.6496 -1.47581 0.552962 0
M  V30 278 C 24.8976 -2.02082 0.0272703 0
M  V30 279 C 25.2186 -1.4301 -1.32563 0
M  V30 280 O 24.4886 -0.603745 -1.86365 0
M  V30 281 H 23.0686 -0.746966 0.00709182 0
M  V30 282 H 25.7306 -1.81033 0.722008 0
M  V30 283 H 24.8266 -3.12034 -0.0639951 0
M  V30 284 N 25.1277 -0.289203 -1.54924 0
M  V30 285 C 26.3757 0.322879 -1.99504 0
M  V30 286 C 26.6967 1.55313 -1.1791 0
M  V30 287 O 25.9667 1.94001 -0.272097 0
M  V30 288 H 24.5467 0.122291 -0.736922 0
M  V30 289 H 27.2087 -0.397802 -1.90797 0
M  V30 290 H 26.3047 0.603061 -3.06218 0
M  V30 291 N 26.6058 1.57591 -0.0167156 0
M  V30 292 C 27.8518 1.92399 0.659861 0
M  V30 293 C 28.2068 0.892561 1.70444 0
M  V30 294 O 27.4998 -0.0930755 1.91374 0
M  V30 295 C 27.6938 3.3172 1.33029 0
M  V30 296 C 27.5228 4.48319 0.352174 0
M  V30 297 C 26.2928 5.05281 -0.0434883 0
M  V30 298 C 28.4908 5.12831 -0.388474 0
M  V30 299 N 26.4728 6.05399 -1.01807 0
M  V30 300 C 27.8438 6.07934 -1.2172 0
M  V30 301 C 29.8988 4.95858 -0.450513 0
M  V30 302 C 28.6018 6.87891 -2.10235 0
M  V30 303 C 30.6278 5.76413 -1.32295 0
M  V30 304 C 29.9898 6.71123 -2.13948 0
M  V30 305 H 26.0888 0.752106 0.21415 0
M  V30 306 H 28.6728 1.94532 -0.0809846 0
M  V30 307 H 26.8438 3.3043 2.04134 0
M  V30 308 H 28.5758 3.5391 1.9629 0
M  V30 309 H 25.3308 4.7246 0.328384 0
M  V30 310 H 25.7548 6.60145 -1.50123 0
M  V30 311 H 30.3968 4.22472 0.166512 0
M  V30 312 H 28.1148 7.60591 -2.72997 0
M  V30 313 H 31.7008 5.65317 -1.37508 0
M  V30 314 H 30.5808 7.3237 -2.80364 0
M  V30 315 N 28.0839 -0.256276 1.55502 0
M  V30 316 C 29.3319 -0.983672 1.76545 0
M  V30 317 C 29.6529 -1.86206 0.578982 0
M  V30 318 O 28.9229 -1.91656 -0.405577 0
M  V30 319 H 27.5029 -0.366191 0.651086 0
M  V30 320 H 30.1649 -0.276479 1.92929 0
M  V30 321 H 29.2609 -1.61087 2.67315 0
M  V30 322 N 29.562 -1.4872 -0.521534 0
M  V30 323 C 30.808 -1.58378 -1.27624 0
M  V30 324 C 31.163 -0.258028 -1.90662 0
M  V30 325 O 30.456 0.739917 -1.76736 0
M  V30 326 C 30.65 -2.66497 -2.38148 0
M  V30 327 C 30.479 -4.09456 -1.85945 0
M  V30 328 C 29.249 -4.76495 -1.68168 0
M  V30 329 C 31.447 -4.95353 -1.3831 0
M  V30 330 N 29.429 -6.0384 -1.1068 0
M  V30 331 C 30.8 -6.13012 -0.928238 0
M  V30 332 C 32.855 -4.81512 -1.26692 0
M  V30 333 C 31.558 -7.18354 -0.368701 0
M  V30 334 C 33.584 -5.86984 -0.721368 0
M  V30 335 C 32.946 -7.03857 -0.276623 0
M  V30 336 H 29.045 -0.634045 -0.457724 0
M  V30 337 H 31.629 -1.85639 -0.587049 0
M  V30 338 H 29.8 -2.41043 -3.04553 0
M  V30 339 H 31.532 -2.65791 -3.05184 0
M  V30 340 H 28.287 -4.32962 -1.91939 0
M  V30 341 H 28.711 -6.71778 -0.839217 0
M  V30 342 H 33.353 -3.91487 -1.5968 0
M  V30 343 H 31.071 -8.08096 -0.0265122 0
M  V30 344 H 34.657 -5.78329 -0.634531 0
M  V30 345 H 33.537 -7.84077 0.138947 0
M  V30 346 N 31.0401 0.771051 -1.3745 0
M  V30 347 C 31.9731 1.89166 -1.27638 0
M  V30 348 C 32.9511 1.61842 -0.156782 0
M  V30 349 O 34.1351 1.85569 -0.331111 0
M  V30 350 C 31.2621 3.24405 -0.973621 0
M  V30 351 C 30.3081 3.70638 -2.1102 0
M  V30 352 S 31.1411 3.84228 -3.73 0
M  V30 353 C 32.2971 5.22313 -3.44876 0
M  V30 354 H 32.5301 1.972 -2.22485 0
M  V30 355 H 30.0631 0.932224 -1.23081 0
M  V30 356 H 32.0211 4.02514 -0.805766 0
M  V30 357 H 30.6821 3.14071 -0.0426279 0
M  V30 358 H 29.8751 4.68685 -1.85338 0
M  V30 359 H 29.4771 2.99632 -2.23822 0
M  V30 360 H 31.7691 6.07505 -2.99908 0
M  V30 361 H 32.7121 5.53008 -4.42253 0
M  V30 362 H 33.1201 4.90284 -2.79789 0
M  V30 363 N 32.5182 1.22032 0.997298 0
M  V30 364 C 33.7672 1.03637 1.73038 0
M  V30 365 C 34.0802 -0.429475 1.90827 0
M  V30 366 O 35.2862 -0.732995 2.61418 0
M  V30 367 C 33.7422 1.80582 3.11317 0
M  V30 368 C 33.3502 3.31387 3.01474 0
M  V30 369 C 35.0942 1.70621 3.88701 0
M  V30 370 C 33.0012 4.00791 4.3488 0
M  V30 371 H 31.9312 0.384179 0.648785 0
M  V30 372 H 34.5822 1.4584 1.11368 0
M  V30 373 H 32.9642 1.31175 3.73643 0
M  V30 374 H 34.1382 3.88155 2.4834 0
M  V30 375 H 32.4532 3.41976 2.37575 0
M  V30 376 H 35.0502 2.19799 4.87434 0
M  V30 377 H 35.3932 0.665823 4.10941 0
M  V30 378 H 35.9262 2.17547 3.33044 0
M  V30 379 H 32.6652 5.05064 4.1784 0
M  V30 380 H 32.1852 3.48811 4.87945 0
M  V30 381 H 33.8642 4.06139 5.03647 0
M  V30 382 N 33.9963 -1.19345 1.0293 0
M  V30 383 C 35.2423 -1.89318 0.727083 0
M  V30 384 C 35.5753 -1.79446 -0.742483 0
M  V30 385 O 34.8503 -1.1871 -1.54072 0
M  V30 386 C 35.1333 -3.40238 1.17942 0
M  V30 387 C 34.9863 -3.58979 2.71024 0
M  V30 388 C 36.3053 -4.33479 0.760548 0
M  V30 389 H 33.4243 -0.687475 0.265606 0
M  V30 390 H 36.0663 -1.40477 1.2793 0
M  V30 391 H 34.2163 -3.81964 0.709608 0
M  V30 392 H 35.8883 -3.26421 3.25955 0
M  V30 393 H 34.1313 -3.02018 3.11396 0
M  V30 394 H 34.8023 -4.64823 2.9773 0
M  V30 395 H 37.2783 -3.99469 1.16464 0
M  V30 396 H 36.1543 -5.37664 1.10493 0
M  V30 397 H 36.4153 -4.40813 -0.337063 0
M  V30 398 N 35.4744 -0.807222 -1.35358 0
M  V30 399 C 36.7234 -0.384376 -1.98004 0
M  V30 400 C 37.0364 1.0543 -1.64754 0
M  V30 401 O 38.2424 1.58029 -2.20769 0
M  V30 402 C 36.6984 -0.636326 -3.5423 0
M  V30 403 C 36.3064 -2.08759 -3.96388 0
M  V30 404 C 38.0504 -0.278869 -4.23583 0
M  V30 405 C 35.9574 -2.28525 -5.45463 0
M  V30 406 H 34.8874 -0.139986 -0.740891 0
M  V30 407 H 37.5384 -0.991369 -1.54415 0
M  V30 408 H 35.9204 0.0406256 -3.95979 0
M  V30 409 H 37.0944 -2.8024 -3.6579 0
M  V30 410 H 35.4094 -2.40497 -3.39926 0
M  V30 411 H 38.0064 -0.404599 -5.33167 0
M  V30 412 H 38.3494 0.775012 -4.09022 0
M  V30 413 H 38.8824 -0.909764 -3.87257 0
M  V30 414 H 35.6214 -3.32361 -5.64992 0
M  V30 415 H 35.1414 -1.61569 -5.77629 0
M  V30 416 H 36.8204 -2.10109 -6.11934 0
M  V30 417 N 36.9525 1.47285 -0.560781 0
M  V30 418 C 37.9025 2.27073 0.205384 0
M  V30 419 C 38.8865 1.34569 0.882044 0
M  V30 420 O 40.0785 1.58899 0.77976 0
M  V30 421 C 37.2075 3.20414 1.23247 0
M  V30 422 C 36.2935 4.20399 0.559041 0
M  V30 423 N 36.6845 5.04423 -0.372927 0
M  V30 424 C 34.9825 4.38536 0.812522 0
M  V30 425 C 35.6835 5.76655 -0.764446 0
M  V30 426 N 34.6595 5.43471 -0.11848 0
M  V30 427 H 38.4615 2.89422 -0.511117 0
M  V30 428 H 35.9755 1.57868 -0.380975 0
M  V30 429 H 37.9725 3.76262 1.79534 0
M  V30 430 H 36.6325 2.59623 1.95002 0
M  V30 431 H 37.6435 5.1248 -0.747287 0
M  V30 432 H 34.3205 3.88913 1.51832 0
M  V30 433 H 35.7105 6.54238 -1.53045 0
M  V30 434 N 38.4306 0.297415 1.54768 0
M  V30 435 C 39.6776 -0.312913 2.00068 0
M  V30 436 C 40.0056 -1.54171 1.18582 0
M  V30 437 O 39.2606 -1.94108 0.249133 0
M  V30 438 C 39.5596 -0.717561 3.50123 0
M  V30 439 C 39.2256 0.409095 4.4904 0
M  V30 440 C 37.8876 0.718399 4.75807 0
M  V30 441 C 40.2396 1.16717 5.07963 0
M  V30 442 C 37.5676 1.78896 5.5876 0
M  V30 443 C 39.9196 2.22762 5.92081 0
M  V30 444 C 38.5836 2.54303 6.1716 0
M  V30 445 H 37.8536 -0.114503 0.7321 0
M  V30 446 H 40.5006 0.415767 1.86932 0
M  V30 447 H 38.8056 -1.52627 3.60849 0
M  V30 448 H 40.5026 -1.20091 3.82595 0
M  V30 449 H 37.0926 0.157918 4.28309 0
M  V30 450 H 41.2766 0.941466 4.87289 0
M  V30 451 H 36.5326 2.0381 5.7643 0
M  V30 452 H 40.7066 2.81962 6.36765 0
M  V30 453 H 38.3336 3.3739 6.81229 0
M  V30 454 N 39.9087 -1.5758 0.0250728 0
M  V30 455 C 41.1557 -1.91633 -0.654444 0
M  V30 456 C 41.4837 -0.901103 -1.72367 0
M  V30 457 O 40.7387 0.0905647 -1.9549 0
M  V30 458 C 41.0377 -3.32421 -1.31268 0
M  V30 459 C 40.7037 -4.49344 -0.374223 0
M  V30 460 C 39.3657 -4.8106 -0.115911 0
M  V30 461 C 41.7177 -5.20498 0.270432 0
M  V30 462 C 39.0457 -5.8129 0.79493 0
M  V30 463 C 41.3977 -6.21699 1.1693 0
M  V30 464 C 40.0617 -6.51859 1.43655 0
M  V30 465 H 39.3317 -0.701236 -0.239478 0
M  V30 466 H 41.9787 -1.91307 0.0859734 0
M  V30 467 H 40.2837 -3.28989 -2.12775 0
M  V30 468 H 41.9807 -3.56038 -1.84494 0
M  V30 469 H 38.5707 -4.24579 -0.58573 0
M  V30 470 H 42.7547 -4.96229 0.0839194 0
M  V30 471 H 38.0107 -6.03005 1.00973 0
M  V30 472 H 42.1847 -6.75955 1.67504 0
M  V30 473 H 39.8117 -7.2934 2.144 0
M  V30 474 N 41.3868 0.248026 -1.55636 0
M  V30 475 C 42.3168 1.31079 -1.93237 0
M  V30 476 C 43.2978 1.50264 -0.797174 0
M  V30 477 O 44.4828 1.62891 -1.05737 0
M  V30 478 C 41.6128 2.66575 -2.22609 0
M  V30 479 C 40.5668 2.62087 -3.3837 0
M  V30 480 C 39.8928 4.01369 -3.53281 0
M  V30 481 C 41.1928 2.19171 -4.7409 0
M  V30 482 H 42.8868 0.998556 -2.82257 0
M  V30 483 H 40.4328 0.47891 -1.35803 0
M  V30 484 H 42.3858 3.41057 -2.47503 0
M  V30 485 H 41.1098 2.99432 -1.30414 0
M  V30 486 H 39.7688 1.90063 -3.13483 0
M  V30 487 H 39.4168 4.31489 -2.58508 0
M  V30 488 H 39.1168 3.99254 -4.31127 0
M  V30 489 H 40.6408 4.77552 -3.80495 0
M  V30 490 H 42.0548 2.83384 -4.98363 0
M  V30 491 H 40.4518 2.2817 -5.5503 0
M  V30 492 H 41.5218 1.14336 -4.71227 0
M  V30 493 N 42.8649 1.48995 0.513639 0
M  V30 494 C 44.1109 1.58076 1.27042 0
M  V30 495 C 44.4439 0.261026 1.92438 0
M  V30 496 O 43.7189 -0.734393 1.80103 0
M  V30 497 C 44.0019 2.73091 2.34719 0
M  V30 498 C 43.8549 4.14821 1.73907 0
M  V30 499 C 45.1739 2.83796 3.36375 0
M  V30 500 H 42.2929 0.575391 0.460536 0
M  V30 501 H 44.9349 1.81232 0.570516 0
M  V30 502 H 43.0849 2.53479 2.94416 0
M  V30 503 H 44.7569 4.45917 1.18135 0
M  V30 504 H 42.9999 4.21058 1.0437 0
M  V30 505 H 43.6709 4.91147 2.51949 0
M  V30 506 H 46.1469 3.01611 2.86653 0
M  V30 507 H 45.0229 3.65971 4.09093 0
M  V30 508 H 45.2839 1.92624 3.9793 0
M  V30 509 N 44.343 -0.763751 1.37857 0
M  V30 510 C 45.291 -1.89864 1.34367 0
M  V30 511 C 46.285 -1.67816 0.231143 0
M  V30 512 O 47.491 -1.75508 0.399617 0
M  V30 513 H 43.866 -0.624501 0.41893 0
M  V30 514 H 45.837 -1.89925 2.30155 0
M  V30 515 C 44.586 -3.27227 1.1755 0
M  V30 516 H 43.909 -3.44773 2.02414 0
M  V30 517 H 45.349 -4.06911 1.1916 0
M  V30 518 C 43.808 -3.36692 -0.118311 0
M  V30 519 O 44.338 -3.86374 -1.09902 0
M  V30 520 N 42.544 -2.90092 -0.171717 0
M  V30 521 H 42.091 -2.49853 0.627012 0
M  V30 522 H 42.049 -2.96806 -1.03699 0
M  V30 523 N 45.8211 -1.22559 -0.990812 0
M  V30 524 C 47.0671 -1.05297 -1.73322 0
M  V30 525 C 47.4001 0.410655 -1.89808 0
M  V30 526 O 46.6751 1.30439 -1.44277 0
M  V30 527 C 46.9581 -1.76713 -3.13759 0
M  V30 528 C 46.8111 -3.30684 -3.04907 0
M  V30 529 C 48.1301 -1.52121 -4.12974 0
M  V30 530 H 45.2491 -0.38392 -0.629106 0
M  V30 531 H 47.8911 -1.50926 -1.15418 0
M  V30 532 H 46.0411 -1.37924 -3.63193 0
M  V30 533 H 47.7131 -3.7893 -2.63077 0
M  V30 534 H 45.9561 -3.60253 -2.41661 0
M  V30 535 H 46.6271 -3.75833 -4.04294 0
M  V30 536 H 49.1031 -1.85819 -3.72304 0
M  V30 537 H 47.9791 -2.04582 -5.0935 0
M  V30 538 H 48.2401 -0.454257 -4.3976 0
M  V30 539 N 47.2992 1.18797 -1.03562 0
M  V30 540 C 48.5462 1.8865 -0.736023 0
M  V30 541 C 48.8742 1.80041 0.735889 0
M  V30 542 O 48.1292 1.19179 1.55225 0
M  V30 543 C 48.4282 3.38692 -1.14117 0
M  V30 544 C 48.0942 3.67504 -2.6125 0
M  V30 545 C 46.7562 3.75078 -3.01447 0
M  V30 546 C 49.1082 3.80293 -3.56408 0
M  V30 547 C 46.4362 3.92915 -4.35701 0
M  V30 548 C 48.7882 3.99645 -4.90374 0
M  V30 549 C 47.4522 4.05453 -5.30249 0
M  V30 550 H 46.7222 0.690321 -0.26933 0
M  V30 551 H 49.3692 1.40641 -1.29971 0
M  V30 552 H 47.6742 3.88645 -0.496202 0
M  V30 553 H 49.3712 3.91072 -0.886789 0
M  V30 554 H 45.9612 3.62223 -2.29113 0
M  V30 555 H 50.1452 3.73779 -3.26501 0
M  V30 556 H 45.4012 3.95653 -4.66121 0
M  V30 557 H 49.5752 4.08482 -5.64017 0
M  V30 558 H 47.2022 4.19027 -6.34288 0
M  V30 559 N 48.7773 0.814389 1.34928 0
M  V30 560 C 50.0233 0.399013 1.98836 0
M  V30 561 C 50.3563 -1.03314 1.64438 0
M  V30 562 O 49.6313 -1.71811 0.911659 0
M  V30 563 C 49.9143 0.591629 3.55207 0
M  V30 564 C 49.7673 2.06928 3.99376 0
M  V30 565 C 51.0863 0.022199 4.40094 0
M  V30 566 H 48.2053 0.146451 0.722303 0
M  V30 567 H 50.8473 1.02537 1.59957 0
M  V30 568 H 48.9973 0.0584441 3.88456 0
M  V30 569 H 50.6693 2.66544 3.76499 0
M  V30 570 H 48.9123 2.56287 3.49999 0
M  V30 571 H 49.5833 2.1549 5.08201 0
M  V30 572 H 52.0593 0.477643 4.13349 0
M  V30 573 H 50.9353 0.186832 5.48582 0
M  V30 574 H 51.1963 -1.07215 4.28902 0
M  V30 575 N 50.2554 -1.46986 0.568584 0
M  V30 576 C 51.1884 -2.27129 -0.220779 0
M  V30 577 C 52.1664 -1.34757 -0.909905 0
M  V30 578 O 53.3504 -1.64152 -0.926622 0
M  V30 579 C 50.4774 -3.12108 -1.31553 0
M  V30 580 C 49.5234 -4.20141 -0.733748 0
M  V30 581 S 50.3564 -5.33783 0.428479 0
M  V30 582 C 51.5124 -6.22327 -0.667811 0
M  V30 583 H 51.7454 -2.93731 0.459267 0
M  V30 584 H 49.2784 -1.5026 0.355154 0
M  V30 585 H 51.2364 -3.61636 -1.94241 0
M  V30 586 H 49.8974 -2.44847 -1.96746 0
M  V30 587 H 49.0904 -4.79373 -1.5562 0
M  V30 588 H 48.6924 -3.73553 -0.182812 0
M  V30 589 H 50.9844 -6.59364 -1.55708 0
M  V30 590 H 51.9274 -7.0801 -0.11258 0
M  V30 591 H 52.3354 -5.5618 -0.965601 0
M  V30 592 N 51.7335 -0.305618 -1.54608 0
M  V30 593 C 52.9815 0.301701 -1.99835 0
M  V30 594 C 53.3025 1.54054 -1.19551 0
M  V30 595 O 52.5725 1.93702 -0.292658 0
M  V30 596 H 51.1525 0.114468 -0.738178 0
M  V30 597 H 53.8145 -0.418016 -1.90364 0
M  V30 598 H 52.9105 0.570548 -3.06841 0
M  V30 599 N 53.2116 1.57565 -0.0334293 0
M  V30 600 C 54.1446 2.05997 0.981866 0
M  V30 601 C 55.1226 0.956647 1.3148 0
M  V30 602 O 56.3066 1.22729 1.43073 0
M  V30 603 C 53.4336 2.48564 2.30074 0
M  V30 604 C 52.4796 3.69958 2.12211 0
M  V30 605 S 53.3126 5.16414 1.41692 0
M  V30 606 C 54.4686 5.6228 2.7494 0
M  V30 607 H 54.7016 2.91792 0.569612 0
M  V30 608 H 52.2346 1.53366 0.178376 0
M  V30 609 H 54.1926 2.73753 3.05892 0
M  V30 610 H 52.8536 1.63106 2.68431 0
M  V30 611 H 52.0466 3.97603 3.09722 0
M  V30 612 H 51.6486 3.44943 1.44535 0
M  V30 613 H 53.9406 5.66783 3.71165 0
M  V30 614 H 54.8836 6.61759 2.51953 0
M  V30 615 H 55.2916 4.89944 2.80384 0
M  V30 616 N 54.6897 -0.239769 1.55765 0
M  V30 617 C 55.9177 -0.98417 1.81994 0
M  V30 618 C 56.3327 -1.7867 0.610124 0
M  V30 619 O 55.6897 -1.77571 -0.421271 0
M  V30 620 C 55.7407 -1.91635 3.06526 0
M  V30 621 O 55.4617 -1.14629 4.22838 0
M  V30 622 C 56.9627 -2.77616 3.45607 0
M  V30 623 H 54.1827 -0.28928 0.605441 0
M  V30 624 H 56.7267 -0.260499 2.02834 0
M  V30 625 H 54.8817 -2.5942 2.87715 0
M  V30 626 H 55.2957 -1.77745 4.93464 0
M  V30 627 H 56.7697 -3.38759 4.35828 0
M  V30 628 H 57.2467 -3.4909 2.6652 0
M  V30 629 H 57.8527 -2.15271 3.66795 0
M  V30 630 N 56.1678 -1.49265 -0.50573 0
M  V30 631 C 57.1148 -1.65585 -1.6078 0
M  V30 632 C 58.0848 -0.497396 -1.58478 0
M  V30 633 O 59.2698 -0.72385 -1.76536 0
M  V30 634 C 56.4098 -1.72408 -2.98948 0
M  V30 635 C 55.5228 -2.99525 -3.11301 0
M  V30 636 C 54.6578 -2.97356 -4.40174 0
M  V30 637 C 53.6968 -4.19074 -4.46143 0
M  V30 638 N 52.8338 -4.14841 -5.66437 0
M  V30 639 H 57.6738 -2.59688 -1.46172 0
M  V30 640 H 55.2108 -1.28761 -0.711261 0
M  V30 641 H 57.1688 -1.74344 -3.79025 0
M  V30 642 H 55.7988 -0.817753 -3.1227 0
M  V30 643 H 54.8508 -3.07222 -2.24318 0
M  V30 644 H 56.1628 -3.89518 -3.11572 0
M  V30 645 H 55.3168 -2.97829 -5.28567 0
M  V30 646 H 54.0558 -2.05133 -4.42461 0
M  V30 647 H 53.0608 -4.1885 -3.56153 0
M  V30 648 H 54.2858 -5.12483 -4.45575 0
M  V30 649 H 52.2318 -3.25453 -5.69575 0
M  V30 650 H 52.1488 -4.98564 -5.68304 0
M  V30 651 H 53.4168 -4.1941 -6.57051 0
M  V30 652 N 57.6459 0.756429 -1.3826 0
M  V30 653 C 58.8739 1.54565 -1.3754 0
M  V30 654 C 59.2889 1.88767 0.0355331 0
M  V30 655 O 58.6459 1.52572 1.0014 0
M  V30 656 C 58.6969 2.84654 -2.22833 0
M  V30 657 O 58.4179 2.51912 -3.5843 0
M  V30 658 C 59.9189 3.78807 -2.30261 0
M  V30 659 H 57.1389 0.478353 -0.470553 0
M  V30 660 H 59.6829 0.936381 -1.81803 0
M  V30 661 H 57.8379 3.41965 -1.8204 0
M  V30 662 H 58.2519 3.35325 -4.03308 0
M  V30 663 H 59.7259 4.67045 -2.94233 0
M  V30 664 H 60.2029 4.19038 -1.31545 0
M  V30 665 H 60.8089 3.2742 -2.71433 0
M  V30 666 N 59.124 1.23083 0.984299 0
M  V30 667 C 60.371 1.06057 1.72505 0
M  V30 668 C 60.699 -0.403105 1.90277 0
M  V30 669 O 59.954 -1.3149 1.44944 0
M  V30 670 C 60.253 1.72673 3.1292 0
M  V30 671 C 59.919 3.22586 3.15038 0
M  V30 672 C 58.581 3.63489 3.15324 0
M  V30 673 C 60.933 4.185 3.10657 0
M  V30 674 C 58.261 4.98772 3.08939 0
M  V30 675 C 60.613 5.53769 3.05814 0
M  V30 676 C 59.277 5.94041 3.04419 0
M  V30 677 H 58.547 0.388091 0.631242 0
M  V30 678 H 61.194 1.52963 1.15215 0
M  V30 679 H 59.499 1.18116 3.73572 0
M  V30 680 H 61.196 1.56982 3.68996 0
M  V30 681 H 57.786 2.90022 3.15571 0
M  V30 682 H 61.97 3.87911 3.09579 0
M  V30 683 H 57.226 5.29193 3.0621 0
M  V30 684 H 61.4 6.27808 3.0138 0
M  V30 685 H 59.027 6.98833 2.99227 0
M  V30 686 N 60.6021 -1.18246 1.0419 0
M  V30 687 C 61.5651 -2.20128 0.638452 0
M  V30 688 C 62.5651 -1.57885 -0.304805 0
M  V30 689 O 63.7551 -1.73967 -0.0900369 0
M  V30 690 C 60.8871 -3.4084 -0.0637751 0
M  V30 691 H 62.0801 -2.57336 1.54007 0
M  V30 692 H 59.6331 -1.32152 0.834598 0
M  V30 693 H 60.3681 -3.09166 -0.979136 0
M  V30 694 H 60.1531 -3.8726 0.614198 0
M  V30 695 H 61.6431 -4.16274 -0.332512 0
M  V30 696 N 62.0802 -0.821533 -1.34494 0
M  V30 697 C 63.3292 -0.405355 -1.97585 0
M  V30 698 C 63.6422 1.03677 -1.65863 0
M  V30 699 O 64.8482 1.55679 -2.22433 0
M  V30 700 C 63.3042 -0.673861 -3.53535 0
M  V30 701 C 62.9122 -2.12951 -3.94152 0
M  V30 702 C 64.6562 -0.32378 -4.23263 0
M  V30 703 C 62.5632 -2.34298 -5.43009 0
M  V30 704 H 61.4932 -0.147836 -0.739365 0
M  V30 705 H 64.1442 -1.00769 -1.53355 0
M  V30 706 H 62.5262 -0.00137554 -3.96 0
M  V30 707 H 63.7002 -2.84104 -3.62797 0
M  V30 708 H 62.0152 -2.44089 -3.37356 0
M  V30 709 H 64.6122 -0.461126 -5.32708 0
M  V30 710 H 64.9552 0.731586 -4.09821 0
M  V30 711 H 65.4882 -0.950786 -3.8627 0
M  V30 712 H 62.2272 -3.38335 -5.61435 0
M  V30 713 H 61.7472 -1.67687 -5.75883 0
M  V30 714 H 63.4262 -2.16588 -6.09671 0
M  V30 715 N 63.5583 1.46682 -0.576371 0
M  V30 716 C 64.8053 2.02412 -0.0595339 0
M  V30 717 C 65.1333 1.44859 1.29793 0
M  V30 718 O 64.3883 0.601099 1.8624 0
M  V30 719 C 64.6873 3.57345 0.062886 0
M  V30 720 C 64.3533 4.33908 -1.22616 0
M  V30 721 C 63.0153 4.54544 -1.57933 0
M  V30 722 C 65.3673 4.77919 -2.07948 0
M  V30 723 C 62.6953 5.16444 -2.78393 0
M  V30 724 C 65.0473 5.41149 -3.27629 0
M  V30 725 C 63.7113 5.60014 -3.63236 0
M  V30 726 H 62.9813 0.74068 -0.021785 0
M  V30 727 H 65.6283 1.76128 -0.751735 0
M  V30 728 H 63.9333 3.82729 0.838178 0
M  V30 729 H 65.6303 3.98136 0.478439 0
M  V30 730 H 62.2203 4.18138 -0.941202 0
M  V30 731 H 66.4043 4.61738 -1.81967 0
M  V30 732 H 61.6603 5.29242 -3.06126 0
M  V30 733 H 65.8343 5.74211 -3.94023 0
M  V30 734 H 63.4613 6.07748 -4.56669 0
M  V30 735 N 65.0364 0.313813 1.54444 0
M  V30 736 C 66.2834 -0.291675 2.00388 0
M  V30 737 C 66.6114 -1.52904 1.2021 0
M  V30 738 O 65.8664 -1.93833 0.269707 0
M  V30 739 C 66.1654 -0.680386 3.50864 0
M  V30 740 C 65.8314 0.456699 4.48581 0
M  V30 741 C 64.4934 0.768824 4.75018 0
M  V30 742 C 66.8454 1.22098 5.06697 0
M  V30 743 C 64.1734 1.84812 5.56831 0
M  V30 744 C 66.5254 2.29029 5.89685 0
M  V30 745 C 65.1894 2.60834 6.14428 0
M  V30 746 H 64.4594 -0.106732 0.733273 0
M  V30 747 H 67.1064 0.43557 1.86481 0
M  V30 748 H 65.4114 -1.48791 3.62448 0
M  V30 749 H 67.1084 -1.16026 3.83847 0
M  V30 750 H 63.6984 0.203337 4.28117 0
M  V30 751 H 67.8824 0.993096 4.86263 0
M  V30 752 H 63.1384 2.09912 5.74236 0
M  V30 753 H 67.3124 2.887 6.33739 0
M  V30 754 H 64.9394 3.44596 6.77612 0
M  V30 755 N 66.5145 -1.57545 0.0417849 0
M  V30 756 C 67.7605 -1.92601 -0.635021 0
M  V30 757 C 68.0935 -0.919627 -1.71045 0
M  V30 758 O 67.3685 0.0557892 -1.9442 0
M  V30 759 C 67.6515 -3.38085 -1.23979 0
M  V30 760 C 67.5045 -4.49467 -0.173057 0
M  V30 761 C 68.8235 -3.83776 -2.15416 0
M  V30 762 H 65.9425 -0.700397 -0.229374 0
M  V30 763 H 68.5845 -1.89728 0.101633 0
M  V30 764 H 66.7345 -3.40664 -1.86762 0
M  V30 765 H 68.4065 -4.59018 0.458312 0
M  V30 766 H 66.6495 -4.30909 0.499996 0
M  V30 767 H 67.3205 -5.48323 -0.636054 0
M  V30 768 H 69.7965 -3.83013 -1.62605 0
M  V30 769 H 68.6725 -4.8624 -2.54679 0
M  V30 770 H 68.9335 -3.19998 -3.05047 0
M  V30 771 N 67.9926 0.231505 -1.5589 0
M  V30 772 C 69.2386 0.95877 -1.78705 0
M  V30 773 C 69.5716 1.8438 -0.609725 0
M  V30 774 O 68.8466 1.90521 0.391426 0
M  V30 775 C 69.1296 1.8062 -3.11526 0
M  V30 776 C 68.9826 0.948328 -4.39689 0
M  V30 777 C 70.3016 2.78585 -3.40703 0
M  V30 778 H 67.4206 0.347129 -0.650131 0
M  V30 779 H 70.0626 0.228259 -1.88624 0
M  V30 780 H 68.2126 2.42902 -3.03201 0
M  V30 781 H 69.8846 0.343016 -4.60023 0
M  V30 782 H 68.1276 0.253314 -4.3306 0
M  V30 783 H 68.7986 1.57543 -5.29041 0
M  V30 784 H 71.2746 2.26439 -3.49091 0
M  V30 785 H 70.1506 3.34988 -4.34826 0
M  V30 786 H 70.4116 3.55825 -2.62375 0
M  V30 787 N 69.4707 1.49531 0.497807 0
M  V30 788 C 70.7177 1.59179 1.25173 0
M  V30 789 C 71.0457 0.279932 1.92475 0
M  V30 790 O 70.3007 -0.732383 1.81479 0
M  V30 791 C 70.5997 2.70252 2.33878 0
M  V30 792 C 70.2657 4.11644 1.84012 0
M  V30 793 C 68.9277 4.50121 1.70132 0
M  V30 794 C 71.2797 5.00121 1.46725 0
M  V30 795 C 68.6077 5.74845 1.17348 0
M  V30 796 C 70.9597 6.25366 0.95392 0
M  V30 797 C 69.6237 6.6267 0.801538 0
M  V30 798 H 68.8937 0.582478 0.45804 0
M  V30 799 H 71.5407 1.83373 0.551948 0
M  V30 800 H 69.8457 2.40041 3.09657 0
M  V30 801 H 71.5427 2.74925 2.9192 0
M  V30 802 H 68.1327 3.81274 1.95775 0
M  V30 803 H 72.3167 4.71048 1.56294 0
M  V30 804 H 67.5727 6.02444 1.04264 0
M  V30 805 H 71.7467 6.93301 0.656225 0
M  V30 806 H 69.3737 7.59197 0.390351 0
M  V30 807 N 70.9488 -0.749086 1.3866 0
M  V30 808 C 71.8808 -1.87273 1.32142 0
M  V30 809 C 72.8938 -1.61127 0.232787 0
M  V30 810 O 74.0828 -1.71623 0.49069 0
M  V30 811 C 71.1828 -3.23005 1.02571 0
M  V30 812 C 70.3558 -3.7662 2.22433 0
M  V30 813 C 69.4148 -4.90879 1.89537 0
M  V30 814 O 68.4408 -5.05276 2.62078 0
M  V30 815 N 69.6428 -5.74198 0.853031 0
M  V30 816 H 72.4078 -1.93373 2.28969 0
M  V30 817 H 69.9688 -0.929216 1.32579 0
M  V30 818 H 71.9608 -3.96992 0.786085 0
M  V30 819 H 70.5308 -3.12262 0.145249 0
M  V30 820 H 69.7508 -2.94147 2.62434 0
M  V30 821 H 71.0388 -4.09173 3.02415 0
M  V30 822 H 70.4368 -5.6514 0.25155 0
M  V30 823 H 68.9938 -6.48313 0.67329 0
M  V30 824 N 72.4269 -1.23603 -0.977757 0
M  V30 825 C 73.3369 -1.03632 -2.1047 0
M  V30 826 C 74.3529 0.0199435 -1.73989 0
M  V30 827 O 75.5289 -0.176076 -2.00629 0
M  V30 828 C 72.5939 -0.63276 -3.40877 0
M  V30 829 C 71.6549 -1.76437 -3.91367 0
M  V30 830 C 70.8879 -1.37997 -5.15551 0
M  V30 831 O 71.1109 -0.265357 -5.69782 0
M  V30 832 O 70.0449 -2.20201 -5.60174 0
M  V30 833 H 73.8709 -1.98086 -2.30208 0
M  V30 834 H 71.4559 -1.02332 -1.08851 0
M  V30 835 H 73.3379 -0.418761 -4.19314 0
M  V30 836 H 72.0129 0.282754 -3.22463 0
M  V30 837 H 70.9199 -2.03304 -3.14036 0
M  V30 838 H 72.2529 -2.6583 -4.14241 0
M  V30 839 N 73.905 1.17692 -1.04816 0
M  V30 840 C 74.815 2.25229 -0.65643 0
M  V30 841 C 75.831 1.71018 0.320761 0
M  V30 842 O 77.007 2.00649 0.173805 0
M  V30 843 C 74.072 3.46684 -0.0332629 0
M  V30 844 C 73.133 4.15997 -1.06042 0
M  V30 845 C 72.366 5.31654 -0.466893 0
M  V30 846 O 72.589 5.65777 0.724758 0
M  V30 847 O 71.523 5.89831 -1.1993 0
M  V30 848 H 75.349 2.61016 -1.55255 0
M  V30 849 H 72.934 1.24919 -0.81949 0
M  V30 850 H 74.816 4.20234 0.313256 0
M  V30 851 H 73.491 3.12703 0.836566 0
M  V30 852 H 72.398 3.44482 -1.45886 0
M  V30 853 H 73.731 4.53996 -1.90127 0
M  V30 854 N 75.3831 0.828654 1.34056 0
M  V30 855 C 76.6301 0.419458 1.98108 0
M  V30 856 C 76.9581 -1.01886 1.65679 0
M  V30 857 O 76.2131 -1.72539 0.923512 0
M  V30 858 C 76.5121 0.575226 3.52741 0
M  V30 859 C 76.1781 1.98012 4.05095 0
M  V30 860 C 74.8401 2.36442 4.19104 0
M  V30 861 C 77.1921 2.89824 4.33188 0
M  V30 862 C 74.5201 3.66009 4.58535 0
M  V30 863 C 76.8721 4.1886 4.74066 0
M  V30 864 C 75.5361 4.5726 4.86281 0
M  V30 865 H 74.8061 0.153491 0.724929 0
M  V30 866 H 77.4531 1.05371 1.59904 0
M  V30 867 H 75.7581 -0.142385 3.91541 0
M  V30 868 H 77.4551 0.239057 4.00287 0
M  V30 869 H 74.0451 1.67162 3.94658 0
M  V30 870 H 78.2291 2.61375 4.21897 0
M  V30 871 H 73.4851 3.95579 4.66184 0
M  V30 872 H 77.6591 4.90086 4.94761 0
M  V30 873 H 75.2861 5.57707 5.16592 0
M  V30 874 N 76.8612 -1.46375 0.584142 0
M  V30 875 C 77.7712 -2.34115 -0.150728 0
M  V30 876 C 78.7872 -1.49838 -0.884567 0
M  V30 877 O 79.9632 -1.82704 -0.847429 0
M  V30 878 C 77.0282 -3.2705 -1.15062 0
M  V30 879 C 76.0892 -4.27228 -0.421293 0
M  V30 880 C 75.3222 -5.15722 -1.37355 0
M  V30 881 O 75.5452 -5.07176 -2.61014 0
M  V30 882 O 74.4792 -5.95383 -0.883355 0
M  V30 883 H 78.3052 -2.98309 0.569708 0
M  V30 884 H 75.8902 -1.45373 0.344535 0
M  V30 885 H 77.7722 -3.84381 -1.72712 0
M  V30 886 H 76.4472 -2.65451 -1.8525 0
M  V30 887 H 75.3542 -3.7358 0.197085 0
M  V30 888 H 76.6872 -4.91616 0.239641 0
M  V30 889 N 78.3393 -0.321999 -1.54275 0
M  V30 890 C 79.5873 0.280489 -2.00144 0
M  V30 891 C 79.9083 1.52777 -1.21178 0
M  V30 892 O 79.1783 1.9338 -0.313187 0
M  V30 893 H 77.7583 0.106632 -0.73935 0
M  V30 894 H 80.4203 -0.438184 -1.8991 0
M  V30 895 H 79.5163 0.537972 -3.07428 0
M  V30 896 N 79.8174 1.5752 -0.0501392 0
M  V30 897 C 81.0454 1.96963 0.633492 0
M  V30 898 C 81.4604 0.927631 1.6444 0
M  V30 899 O 80.8174 -0.0882665 1.82286 0
M  V30 900 C 80.8684 3.36487 1.32132 0
M  V30 901 O 80.5894 4.36693 0.350894 0
M  V30 902 C 82.0904 3.90682 2.09481 0
M  V30 903 H 79.3104 0.648244 0.173266 0
M  V30 904 H 81.8544 2.0417 -0.116134 0
M  V30 905 H 80.0094 3.30434 2.02218 0
M  V30 906 H 80.4234 5.17702 0.841735 0
M  V30 907 H 81.8974 4.90591 2.5303 0
M  V30 908 H 82.3744 3.26053 2.94255 0
M  V30 909 H 82.9804 4.00069 1.44307 0
M  V30 910 N 81.2955 -0.223234 1.56011 0
M  V30 911 C 82.5205 -0.968978 1.83373 0
M  V30 912 C 82.9455 -1.77227 0.630254 0
M  V30 913 O 82.3035 -1.76345 -0.420959 0
M  V30 914 C 82.3515 -1.86363 3.08709 0
M  V30 915 O 81.4555 -2.95873 2.87285 0
M  V30 916 H 80.7965 -0.274461 0.604622 0
M  V30 917 H 83.3265 -0.237056 2.03222 0
M  V30 918 H 83.3365 -2.27376 3.38768 0
M  V30 919 H 82.0115 -1.27319 3.95933 0
M  V30 920 H 80.5885 -2.58818 2.68454 0
M  V30 921 N 82.7736 -1.49793 -0.48987 0
M  V30 922 C 83.6836 -1.70036 -1.61632 0
M  V30 923 C 84.6996 -0.583102 -1.63939 0
M  V30 924 O 85.8756 -0.859169 -1.82154 0
M  V30 925 C 82.9406 -1.77277 -2.97949 0
M  V30 926 C 82.0016 -3.00918 -3.06181 0
M  V30 927 C 81.2346 -3.07804 -4.35996 0
M  V30 928 O 81.4576 -2.21982 -5.25433 0
M  V30 929 O 80.3916 -4.00369 -4.49431 0
M  V30 930 H 84.2176 -2.65486 -1.47482 0
M  V30 931 H 81.8026 -1.33666 -0.667362 0
M  V30 932 H 83.6846 -1.84329 -3.78947 0
M  V30 933 H 82.3596 -0.850076 -3.12339 0
M  V30 934 H 81.2666 -2.99377 -2.2433 0
M  V30 935 H 82.5996 -3.92704 -2.96723 0
M  V30 936 N 84.2517 0.741722 -1.39055 0
M  V30 937 C 85.1837 1.8657 -1.33133 0
M  V30 938 C 86.1967 1.61001 -0.241329 0
M  V30 939 O 87.3857 1.7136 -0.499784 0
M  V30 940 C 84.4857 3.22457 -1.04283 0
M  V30 941 C 83.6587 3.75435 -2.24427 0
M  V30 942 C 82.7177 4.89867 -1.92138 0
M  V30 943 O 81.7437 5.03879 -2.64754 0
M  V30 944 N 82.9457 5.73738 -0.88347 0
M  V30 945 H 85.7107 1.92156 -2.29991 0
M  V30 946 H 83.2717 0.922172 -1.3307 0
M  V30 947 H 85.2637 3.9657 -0.807128 0
M  V30 948 H 83.8337 3.12181 -0.161807 0
M  V30 949 H 83.0537 2.92751 -2.6399 0
M  V30 950 H 84.3417 4.07563 -3.04581 0
M  V30 951 H 83.7397 5.64999 -0.281517 0
M  V30 952 H 82.2967 6.47947 -0.707662 0
M  V30 953 N 85.7298 1.2412 0.971189 0
M  V30 954 C 86.9788 1.07284 1.70801 0
M  V30 955 C 87.2918 -0.388902 1.91695 0
M  V30 956 O 88.4978 -0.677379 2.62914 0
M  V30 957 C 86.9538 1.87145 3.07416 0
M  V30 958 C 86.5618 3.37707 2.94377 0
M  V30 959 C 88.3058 1.78828 3.84995 0
M  V30 960 C 86.2128 4.09925 4.26281 0
M  V30 961 H 85.1428 0.397854 0.64049 0
M  V30 962 H 87.7938 1.4817 1.0825 0
M  V30 963 H 86.1758 1.39071 3.70777 0
M  V30 964 H 87.3498 3.93335 2.4005 0
M  V30 965 H 85.6648 3.46938 2.30267 0
M  V30 966 H 88.2618 2.30089 4.82662 0
M  V30 967 H 88.6048 0.75284 4.09436 0
M  V30 968 H 89.1378 2.24563 3.28354 0
M  V30 969 H 85.8768 5.13813 4.07033 0
M  V30 970 H 85.3968 3.59083 4.80437 0
M  V30 971 H 87.0758 4.1673 4.94919 0
M  V30 972 N 87.2079 -1.17134 1.05439 0
M  V30 973 C 88.4559 -1.87085 0.764429 0
M  V30 974 C 88.7769 -1.81584 -0.710787 0
M  V30 975 O 88.0469 -1.24349 -1.51374 0
M  V30 976 H 86.6269 -0.692627 0.279779 0
M  V30 977 H 89.2889 -1.42087 1.33406 0
M  V30 978 H 88.3849 -2.92759 1.0816 0
M  V30 979 N 88.686 -0.835752 -1.33615 0
M  V30 980 C 89.932 -0.439817 -1.98588 0
M  V30 981 C 90.287 0.989274 -1.65019 0
M  V30 982 O 89.58 1.68168 -0.918159 0
M  V30 983 C 89.774 -0.593925 -3.52431 0
M  V30 984 C 89.603 -2.03644 -4.00948 0
M  V30 985 C 88.373 -2.67103 -4.28934 0
M  V30 986 C 90.571 -3.00479 -4.17393 0
M  V30 987 N 88.553 -4.02462 -4.6357 0
M  V30 988 C 89.924 -4.20777 -4.55353 0
M  V30 989 C 91.979 -2.96926 -3.99674 0
M  V30 990 C 90.682 -5.37994 -4.77447 0
M  V30 991 C 92.708 -4.1337 -4.22941 0
M  V30 992 C 92.07 -5.32422 -4.61201 0
M  V30 993 H 88.169 -0.209303 -0.75347 0
M  V30 994 H 90.753 -1.08316 -1.61789 0
M  V30 995 H 88.924 0.019599 -3.88395 0
M  V30 996 H 90.656 -0.169738 -4.04344 0
M  V30 997 H 87.411 -2.18259 -4.20309 0
M  V30 998 H 87.835 -4.72232 -4.85104 0
M  V30 999 H 92.477 -2.06015 -3.69212 0
M  V30 1000 H 90.195 -6.29451 -5.06771 0
M  V30 1001 H 93.781 -4.12034 -4.10754 0
M  V30 1002 H 92.661 -6.21027 -4.78848 0
M  V30 1003 N 90.1641 1.46063 -0.591896 0
M  V30 1004 C 91.4131 2.01547 -0.0786637 0
M  V30 1005 C 91.7261 1.46796 1.29268 0
M  V30 1006 O 92.9321 1.94157 1.89777 0
M  V30 1007 C 91.3881 3.59787 -0.0900024 0
M  V30 1008 C 90.9961 4.23534 -1.46023 0
M  V30 1009 C 92.7401 4.22895 0.368806 0
M  V30 1010 C 90.6471 5.73881 -1.4288 0
M  V30 1011 H 89.5771 0.753564 -0.0256388 0
M  V30 1012 H 92.2281 1.677 -0.744905 0
M  V30 1013 H 90.6101 3.90752 0.642586 0
M  V30 1014 H 91.7841 4.04167 -2.21328 0
M  V30 1015 H 90.0991 3.72558 -1.85982 0
M  V30 1016 H 92.6961 5.33116 0.411258 0
M  V30 1017 H 93.0391 3.9247 1.38827 0
M  V30 1018 H 93.5721 3.9659 -0.31001 0
M  V30 1019 H 90.3111 6.0898 -2.42536 0
M  V30 1020 H 89.8311 5.95486 -0.718095 0
M  V30 1021 H 91.5101 6.36776 -1.14565 0
M  V30 1022 N 91.6422 0.330177 1.54103 0
M  V30 1023 C 92.8902 -0.269871 2.0029 0
M  V30 1024 C 93.2112 -1.52133 1.21986 0
M  V30 1025 O 92.4812 -1.93212 0.323438 0
M  V30 1026 H 91.0612 -0.10271 0.739905 0
M  V30 1027 H 93.7232 0.448249 1.89675 0
M  V30 1028 H 92.8192 -0.52166 3.07709 0
M  V30 1029 N 93.1203 -1.57491 0.0584922 0
M  V30 1030 C 94.3453 -1.97711 -0.62652 0
M  V30 1031 C 94.7703 -0.936132 -1.63151 0
M  V30 1032 O 94.1283 0.099811 -1.81025 0
M  V30 1033 C 94.1763 -3.36989 -1.28338 0
M  V30 1034 O 93.2803 -3.35433 -2.39913 0
M  V30 1035 H 92.6213 -0.643868 -0.162266 0
M  V30 1036 H 95.1513 -2.04193 0.129064 0
M  V30 1037 H 95.1613 -3.73879 -1.63335 0
M  V30 1038 H 93.8363 -4.12289 -0.546889 0
M  V30 1039 H 92.4133 -3.10298 -2.06809 0
M  V30 1040 N 94.5984 0.214957 -1.56127 0
M  V30 1041 C 95.8474 0.936451 -1.78643 0
M  V30 1042 C 96.1604 1.85237 -0.628229 0
M  V30 1043 O 97.3664 2.613 -0.737186 0
M  V30 1044 C 95.8224 1.7154 -3.16389 0
M  V30 1045 C 95.4304 0.845299 -4.39953 0
M  V30 1046 C 97.1744 2.42772 -3.48227 0
M  V30 1047 C 95.0814 1.62198 -5.68723 0
M  V30 1048 H 94.0114 0.353401 -0.666051 0
M  V30 1049 H 96.6624 0.190169 -1.82512 0
M  V30 1050 H 95.0444 2.50484 -3.06715 0
M  V30 1051 H 96.2184 0.0959353 -4.607 0
M  V30 1052 H 94.5334 0.244789 -4.1568 0
M  V30 1053 H 97.1304 3.01394 -4.41663 0
M  V30 1054 H 97.4734 3.15984 -2.71035 0
M  V30 1055 H 98.0064 1.70813 -3.5926 0
M  V30 1056 H 94.7454 0.933011 -6.48826 0
M  V30 1057 H 94.2654 2.34579 -5.52026 0
M  V30 1058 H 95.9444 2.18095 -6.09133 0
M  V30 1059 N 96.0765 1.50051 0.48192 0
M  V30 1060 C 97.0095 1.62749 1.59963 0
M  V30 1061 C 97.9875 0.475903 1.5548 0
M  V30 1062 O 99.1715 0.693986 1.7526 0
M  V30 1063 C 96.2985 1.60008 2.98522 0
M  V30 1064 C 95.3445 2.80596 3.21198 0
M  V30 1065 S 96.1775 4.42038 3.02262 0
M  V30 1066 C 97.3335 4.41973 4.43182 0
M  V30 1067 H 97.5665 2.57296 1.4895 0
M  V30 1068 H 95.0995 1.39179 0.668477 0
M  V30 1069 H 97.0575 1.59112 3.78409 0
M  V30 1070 H 95.7185 0.667153 3.06933 0
M  V30 1071 H 94.9115 2.74952 4.22395 0
M  V30 1072 H 94.5135 2.79003 2.49065 0
M  V30 1073 H 96.8055 4.14868 5.35622 0
M  V30 1074 H 97.7485 5.43512 4.53873 0
M  V30 1075 H 98.1565 3.71812 4.24755 0
M  V30 1076 N 97.5546 -0.734337 1.39446 0
M  V30 1077 C 98.7796 -1.52866 1.40167 0
M  V30 1078 C 99.2046 -1.881 -0.00171513 0
M  V30 1079 O 98.5626 -1.51957 -0.988879 0
M  V30 1080 C 98.6106 -2.79235 2.28167 0
M  V30 1081 O 97.7146 -3.75185 1.71201 0
M  V30 1082 H 97.0556 -0.461618 0.477289 0
M  V30 1083 H 99.5856 -0.905949 1.8345 0
M  V30 1084 H 99.5956 -3.27963 2.42702 0
M  V30 1085 H 98.2706 -2.52923 3.30156 0
M  V30 1086 H 96.8476 -3.33958 1.65912 0
M  V30 1087 N 99.0327 -1.24633 -0.964593 0
M  V30 1088 C 100.258 -1.11596 -1.74818 0
M  V30 1089 C 100.683 0.32723 -1.85232 0
M  V30 1090 O 100.041 1.23695 -1.32549 0
M  V30 1091 C 100.089 -1.76397 -3.1451 0
M  V30 1092 O 99.1927 -1.03685 -3.99153 0
M  V30 1093 H 98.5337 -0.390196 -0.537255 0
M  V30 1094 H 101.064 -1.65002 -1.20977 0
M  V30 1095 H 101.074 -1.8228 -3.65018 0
M  V30 1096 H 99.7487 -2.81401 -3.06246 0
M  V30 1097 H 98.3257 -1.05611 -3.57632 0
M  V30 1098 N 100.511 1.16574 -1.06058 0
M  V30 1099 C 101.441 2.23057 -0.690488 0
M  V30 1100 C 102.422 1.67141 0.315901 0
M  V30 1101 O 103.607 1.93253 0.191556 0
M  V30 1102 C 100.737 3.47222 -0.073625 0
M  V30 1103 C 99.6908 4.16016 -1.00573 0
M  V30 1104 C 99.0168 5.34104 -0.252289 0
M  V30 1105 C 100.317 4.67264 -2.33371 0
M  V30 1106 H 102.011 2.54271 -1.58072 0
M  V30 1107 H 99.5568 1.22218 -0.76149 0
M  V30 1108 H 101.51 4.20939 0.19714 0
M  V30 1109 H 100.234 3.15302 0.85161 0
M  V30 1110 H 98.8928 3.44223 -1.2612 0
M  V30 1111 H 98.5408 4.98437 0.675988 0
M  V30 1112 H 98.2408 5.81072 -0.873455 0
M  V30 1113 H 99.7648 6.10599 0.0109857 0
M  V30 1114 H 101.179 5.32573 -2.12223 0
M  V30 1115 H 99.5758 5.24843 -2.90963 0
M  V30 1116 H 100.646 3.83602 -2.96611 0
M  V30 1117 N 101.989 0.842826 1.3317 0
M  V30 1118 C 103.405 0.531128 1.50503 0
M  V30 1119 C 103.605 -0.940734 1.78192 0
M  V30 1120 O 102.661 -1.72436 1.84451 0
M  V30 1121 C 103.974 1.40789 2.65705 0
M  V30 1122 C 105.522 1.40708 2.79589 0
M  V30 1123 C 105.997 2.26878 3.97857 0
M  V30 1124 N 107.488 2.24609 4.05099 0
M  V30 1125 C 108.223 2.88019 4.95815 0
M  V30 1126 N 107.719 3.60496 5.9162 0
M  V30 1127 N 109.512 2.77469 4.88843 0
M  V30 1128 H 101.663 1.79557 1.1346 0
M  V30 1129 H 103.926 0.766267 0.558156 0
M  V30 1130 H 103.632 2.454 2.51936 0
M  V30 1131 H 103.506 1.08677 3.61205 0
M  V30 1132 H 105.893 0.368668 2.92788 0
M  V30 1133 H 105.974 1.76829 1.84838 0
M  V30 1134 H 105.618 3.3078 3.85418 0
M  V30 1135 H 105.548 1.88096 4.91861 0
M  V30 1136 H 108.039 1.71906 3.36536 0
M  V30 1137 H 108.352 4.06076 6.57512 0
M  V30 1138 H 106.697 3.64604 5.91683 0
M  V30 1139 H 109.888 2.20406 4.12963 0
M  V30 1140 H 110.061 3.2717 5.59342 0
M  V30 1141 N 103.467 -1.45747 0.599634 0
M  V30 1142 C 104.714 -2.02292 0.0917284 0
M  V30 1143 C 105.042 -1.46906 -1.27472 0
M  V30 1144 O 104.297 -0.630652 -1.8526 0
M  V30 1145 C 104.596 -3.57399 -0.00602758 0
M  V30 1146 C 104.262 -4.31902 1.29503 0
M  V30 1147 C 102.924 -4.51974 1.65144 0
M  V30 1148 C 105.276 -4.74551 2.15525 0
M  V30 1149 C 102.604 -5.11949 2.86574 0
M  V30 1150 C 104.956 -5.35868 3.36196 0
M  V30 1151 C 103.62 -5.54165 3.72099 0
M  V30 1152 H 102.89 -0.740239 0.0335658 0
M  V30 1153 H 105.537 -1.7491 0.779661 0
M  V30 1154 H 103.842 -3.84014 -0.777183 0
M  V30 1155 H 105.539 -3.98846 -0.415038 0
M  V30 1156 H 102.129 -4.16588 1.00761 0
M  V30 1157 H 106.313 -4.58784 1.8929 0
M  V30 1158 H 101.569 -5.24305 3.14507 0
M  V30 1159 H 105.743 -5.6787 4.03109 0
M  V30 1160 H 103.37 -6.00406 4.6628 0
M  V30 1161 N 104.945 -0.338344 -1.53925 0
M  V30 1162 C 106.185 0.260168 -2.02737 0
M  V30 1163 C 106.549 1.48181 -1.22092 0
M  V30 1164 O 107.75 2.15416 -1.60777 0
M  V30 1165 C 106.021 0.571627 -3.52799 0
M  V30 1166 S 107.58 1.14769 -4.23525 0
M  V30 1167 H 104.398 0.077791 -0.706732 0
M  V30 1168 H 107 -0.474899 -1.89644 0
M  V30 1169 H 105.704 -0.325392 -4.09108 0
M  V30 1170 H 105.235 1.3365 -3.70002 0
M  V30 1171 H 107.25 2.43372 -4.32417 0
M  V30 1172 N 106.423 1.57458 -0.0668435 0
M  V30 1173 C 107.386 2.11323 0.887422 0
M  V30 1174 C 108.386 1.03618 1.22964 0
M  V30 1175 O 109.576 1.29626 1.16373 0
M  V30 1176 C 106.708 2.61048 2.19242 0
M  V30 1177 H 107.901 2.96942 0.420194 0
M  V30 1178 H 105.454 1.55239 0.181793 0
M  V30 1179 H 106.189 1.78868 2.70512 0
M  V30 1180 H 105.974 3.39769 1.95702 0
M  V30 1181 H 107.464 3.02814 2.87565 0
M  V30 1182 N 107.901 -0.206675 1.56239 0
M  V30 1183 C 109.149 -0.927007 1.79586 0
M  V30 1184 C 109.47 -1.8427 0.637929 0
M  V30 1185 O 108.74 -1.92849 -0.344398 0
M  V30 1186 H 107.32 -0.345292 0.662407 0
M  V30 1187 H 109.982 -0.21496 1.93711 0
M  V30 1188 H 109.078 -1.52501 2.72305 0
M  V30 1189 N 109.379 -1.50304 -0.473955 0
M  V30 1190 C 110.79 -1.54042 -1.0549 0
M  V30 1191 C 111.141 -0.342248 -1.93192 0
M  V30 1192 O 110.266 0.545157 -2.09421 0
M  V30 1193 C 110.861 -2.79152 -1.91989 0
M  V30 1194 C 109.42 -2.8558 -2.45196 0
M  V30 1195 C 108.567 -2.48295 -1.2347 0
M  V30 1196 H 111.518 -1.5661 -0.256693 0
M  V30 1197 H 111.539 -2.60845 -2.7702 0
M  V30 1198 H 111.051 -3.66339 -1.28131 0
M  V30 1199 H 109.152 -2.02738 -3.12615 0
M  V30 1200 H 109.265 -3.88403 -2.80499 0
M  V30 1201 H 107.629 -2.00669 -1.56856 0
M  V30 1202 H 108.412 -3.37787 -0.612789 0
M  V30 1203 N 110.857 0.726932 -1.39834 0
M  V30 1204 C 111.787 1.85405 -1.41941 0
M  V30 1205 C 112.768 1.67751 -0.281728 0
M  V30 1206 O 113.953 1.8795 -0.488717 0
M  V30 1207 C 111.083 3.23243 -1.2701 0
M  V30 1208 C 110.037 3.55549 -2.38262 0
M  V30 1209 C 109.363 4.9241 -2.08415 0
M  V30 1210 C 110.663 3.577 -3.80589 0
M  V30 1211 H 112.357 1.83899 -2.36266 0
M  V30 1212 H 109.903 0.883349 -1.13723 0
M  V30 1213 H 111.856 4.01775 -1.27103 0
M  V30 1214 H 110.58 3.25296 -0.291564 0
M  V30 1215 H 109.239 2.79351 -2.37399 0
M  V30 1216 H 108.887 4.91052 -1.0898 0
M  V30 1217 H 108.587 5.14992 -2.82943 0
M  V30 1218 H 110.111 5.73289 -2.10171 0
M  V30 1219 H 111.525 4.26293 -3.83337 0
M  V30 1220 H 109.922 3.91804 -4.54543 0
M  V30 1221 H 110.992 2.57328 -4.10987 0
M  V30 1222 N 112.336 1.25143 0.95797 0
M  V30 1223 C 113.582 1.09855 1.70469 0
M  V30 1224 C 113.915 -0.360187 1.90831 0
M  V30 1225 O 113.19 -1.26568 1.47685 0
M  V30 1226 C 113.473 1.8497 3.08963 0
M  V30 1227 C 113.326 3.38652 2.96032 0
M  V30 1228 C 114.645 1.63016 4.08795 0
M  V30 1229 H 111.764 0.400465 0.618706 0
M  V30 1230 H 114.406 1.53933 1.11376 0
M  V30 1231 H 112.556 1.47505 3.59409 0
M  V30 1232 H 114.228 3.85772 2.52938 0
M  V30 1233 H 112.471 3.66534 2.32025 0
M  V30 1234 H 113.142 3.8642 3.94187 0
M  V30 1235 H 115.618 1.95625 3.67247 0
M  V30 1236 H 114.494 2.18015 5.03747 0
M  V30 1237 H 114.755 0.570692 4.38401 0
M  V30 1238 N 113.814 -1.1601 1.06675 0
M  V30 1239 C 114.777 -2.18724 0.685001 0
M  V30 1240 C 115.777 -1.58496 -0.271246 0
M  V30 1241 O 116.967 -1.74119 -0.0531156 0
M  V30 1242 C 114.099 -3.40899 0.00853648 0
M  V30 1243 H 115.292 -2.54011 1.59431 0
M  V30 1244 H 112.845 -1.30352 0.862441 0
M  V30 1245 H 113.58 -3.11173 -0.913337 0
M  V30 1246 H 113.365 -3.8587 0.696204 0
M  V30 1247 H 114.855 -4.16886 -0.24414 0
M  V30 1248 N 115.292 -0.849877 -1.32721 0
M  V30 1249 C 116.541 -0.447175 -1.96681 0
M  V30 1250 C 116.854 1.00135 -1.68025 0
M  V30 1251 O 118.06 1.50926 -2.25685 0
M  V30 1252 C 116.516 -0.7487 -3.52026 0
M  V30 1253 C 116.124 -2.21264 -3.89546 0
M  V30 1254 C 117.868 -0.413487 -4.22481 0
M  V30 1255 C 115.775 -2.45763 -5.37917 0
M  V30 1256 H 114.705 -0.163486 -0.736063 0
M  V30 1257 H 117.356 -1.03999 -1.51183 0
M  V30 1258 H 115.738 -0.0853727 -3.95908 0
M  V30 1259 H 116.912 -2.91736 -3.56689 0
M  V30 1260 H 115.227 -2.5119 -3.32103 0
M  V30 1261 H 117.824 -0.574017 -5.3161 0
M  V30 1262 H 118.167 0.644492 -4.11281 0
M  V30 1263 H 118.7 -1.03251 -3.84167 0
M  V30 1264 H 115.439 -3.50168 -5.54132 0
M  V30 1265 H 114.959 -1.79864 -5.72197 0
M  V30 1266 H 116.638 -2.29471 -6.0494 0
M  V30 1267 N 116.77 1.45427 -0.607355 0
M  V30 1268 C 118.019 2.01452 -0.100036 0
M  V30 1269 C 118.332 1.48159 1.27704 0
M  V30 1270 O 119.538 1.96159 1.87707 0
M  V30 1271 C 117.994 3.59672 -0.128158 0
M  V30 1272 C 117.602 4.21962 -1.50507 0
M  V30 1273 C 119.346 4.23262 0.323932 0
M  V30 1274 C 117.253 5.72333 -1.48959 0
M  V30 1275 H 116.183 0.75325 -0.0336299 0
M  V30 1276 H 118.834 1.66901 -0.76265 0
M  V30 1277 H 117.216 3.91411 0.601105 0
M  V30 1278 H 118.39 4.01796 -2.25602 0
M  V30 1279 H 116.705 3.70565 -1.89923 0
M  V30 1280 H 119.302 5.33522 0.354691 0
M  V30 1281 H 119.645 3.93921 1.34656 0
M  V30 1282 H 120.178 3.96239 -0.352056 0
M  V30 1283 H 116.917 6.06373 -2.48981 0
M  V30 1284 H 116.437 5.94691 -0.781214 0
M  V30 1285 H 118.116 6.35525 -1.21313 0
M  V30 1286 N 118.248 0.346503 1.53744 0
M  V30 1287 C 119.488 -0.249413 2.02873 0
M  V30 1288 C 119.852 -1.47532 1.22876 0
M  V30 1289 O 121.053 -2.1456 1.61918 0
M  V30 1290 C 119.324 -0.552909 3.53097 0
M  V30 1291 S 120.883 -1.12521 4.24128 0
M  V30 1292 H 117.701 -0.074042 0.707134 0
M  V30 1293 H 120.303 0.48495 1.8939 0
M  V30 1294 H 119.007 0.347083 4.0893 0
M  V30 1295 H 118.538 -1.31686 3.70705 0
M  V30 1296 H 120.553 -2.41075 4.33702 0
M  V30 1297 N 119.726 -1.57421 0.075193 0
M  V30 1298 C 121.003 -1.85029 -0.634329 0
M  V30 1299 C 121.383 -0.968305 -1.87582 0
M  V30 1300 O 120.731 -0.0354749 -2.28472 0
M  V30 1301 C 120.941 -3.35286 -0.968742 0
M  V30 1302 C 122.289 -4.02875 -1.34077 0
M  V30 1303 O 123.313 -3.40051 -1.06037 0
M  V30 1304 O 122.172 -5.13691 -1.86506 0
M  V30 1305 H 119.266 -0.7645 -0.315387 0
M  V30 1306 H 121.812 -1.69366 0.106382 0
M  V30 1307 H 120.584 -3.91203 -0.0871376 0
M  V30 1308 H 120.207 -3.56223 -1.7661 0
M  V30 1309 N 121.204 0.198386 -1.56346 0
M  V30 1310 C 122.453 0.917451 -1.79627 0
M  V30 1311 C 122.766 1.8456 -0.64784 0
M  V30 1312 O 123.972 2.60504 -0.764859 0
M  V30 1313 C 122.428 1.68175 -3.18191 0
M  V30 1314 C 122.036 0.798589 -4.40825 0
M  V30 1315 C 123.78 2.39065 -3.50782 0
M  V30 1316 C 121.687 1.56157 -5.70411 0
M  V30 1317 H 120.617 0.346317 -0.669762 0
M  V30 1318 H 123.268 0.170801 -1.82703 0
M  V30 1319 H 121.65 2.47216 -3.09354 0
M  V30 1320 H 122.824 0.0470665 -4.60776 0
M  V30 1321 H 121.139 0.200686 -4.15916 0
M  V30 1322 H 123.736 2.96692 -4.44835 0
M  V30 1323 H 124.079 3.13091 -2.74371 0
M  V30 1324 H 124.612 1.66993 -3.61052 0
M  V30 1325 H 121.351 0.864142 -6.49779 0
M  V30 1326 H 120.871 2.2871 -5.54483 0
M  V30 1327 H 122.55 2.11622 -6.11412 0
M  V30 1328 N 122.682 1.50554 0.465978 0
M  V30 1329 C 123.612 1.72722 1.57128 0
M  V30 1330 C 124.593 0.576294 1.6004 0
M  V30 1331 O 125.778 0.81598 1.76225 0
M  V30 1332 C 122.908 1.82605 2.95419 0
M  V30 1333 C 121.862 2.97835 3.07373 0
M  V30 1334 C 121.188 2.92867 4.47363 0
M  V30 1335 C 122.488 4.38265 2.84114 0
M  V30 1336 H 124.182 2.65267 1.38829 0
M  V30 1337 H 121.728 1.2765 0.666441 0
M  V30 1338 H 123.681 1.96698 3.72677 0
M  V30 1339 H 122.405 0.866858 3.14886 0
M  V30 1340 H 121.064 2.83401 2.3255 0
M  V30 1341 H 120.712 1.94783 4.63755 0
M  V30 1342 H 120.412 3.70227 4.56296 0
M  V30 1343 H 121.936 3.09015 5.26633 0
M  V30 1344 H 123.35 4.53198 3.51118 0
M  V30 1345 H 121.747 5.17115 3.04487 0
M  V30 1346 H 122.817 4.50281 1.7993 0
M  V30 1347 N 124.16 -0.719506 1.40217 0
M  V30 1348 C 125.408 -1.47641 1.3801 0
M  V30 1349 C 125.729 -1.94992 -0.018145 0
M  V30 1350 O 124.999 -1.70073 -0.972207 0
M  V30 1351 H 123.579 -0.547744 0.507923 0
M  V30 1352 H 126.241 -0.853187 1.75233 0
M  V30 1353 H 125.337 -2.35112 2.05253 0
M  V30 1354 N 125.638 -1.25649 -0.95132 0
M  V30 1355 C 126.548 -1.08073 -2.08224 0
M  V30 1356 C 127.564 -0.0169666 -1.73992 0
M  V30 1357 O 128.74 -0.218593 -2.0021 0
M  V30 1358 C 125.805 -0.704922 -3.39458 0
M  V30 1359 C 124.866 -1.84699 -3.87537 0
M  V30 1360 C 124.099 -1.48902 -5.12508 0
M  V30 1361 O 124.322 -0.386156 -5.69091 0
M  V30 1362 O 123.256 -2.32033 -5.55378 0
M  V30 1363 H 127.082 -2.02924 -2.25954 0
M  V30 1364 H 124.667 -1.04618 -1.06656 0
M  V30 1365 H 126.549 -0.507609 -4.18332 0
M  V30 1366 H 125.224 0.214291 -3.2299 0
M  V30 1367 H 124.131 -2.09919 -3.09653 0
M  V30 1368 H 125.464 -2.74557 -4.08509 0
M  V30 1369 N 127.117 1.15442 -1.07289 0
M  V30 1370 C 128.064 2.20161 -0.692653 0
M  V30 1371 C 129.034 1.63073 0.31564 0
M  V30 1372 O 130.219 1.89725 0.202235 0
M  V30 1373 C 127.359 3.44967 -0.0959509 0
M  V30 1374 C 126.472 4.16256 -1.15564 0
M  V30 1375 C 125.607 5.28609 -0.524011 0
M  V30 1376 C 124.646 5.91715 -1.56653 0
M  V30 1377 N 123.783 6.9554 -0.957531 0
M  V30 1378 H 128.623 2.52037 -1.59002 0
M  V30 1379 H 126.16 1.2378 -0.794798 0
M  V30 1380 H 128.118 4.16341 0.267628 0
M  V30 1381 H 126.748 3.1361 0.764772 0
M  V30 1382 H 125.8 3.43385 -1.6368 0
M  V30 1383 H 127.112 4.59268 -1.94613 0
M  V30 1384 H 126.266 6.06604 -0.108032 0
M  V30 1385 H 125.005 4.86787 0.29825 0
M  V30 1386 H 124.01 5.12433 -1.9923 0
M  V30 1387 H 125.235 6.35614 -2.39107 0
M  V30 1388 H 123.181 6.55814 -0.156162 0
M  V30 1389 H 123.098 7.36977 -1.68526 0
M  V30 1390 H 124.366 7.77435 -0.567032 0
M  V30 1391 N 128.595 0.856903 1.32268 0
M  V30 1392 C 129.823 0.475439 2.01363 0
M  V30 1393 C 130.238 -0.928486 1.64392 0
M  V30 1394 O 129.595 -1.60624 0.866387 0
M  V30 1395 C 129.646 0.607545 3.56358 0
M  V30 1396 O 129.367 1.95617 3.92002 0
M  V30 1397 C 130.868 0.225382 4.42727 0
M  V30 1398 H 128.088 0.186636 0.644521 0
M  V30 1399 H 130.632 1.15446 1.68797 0
M  V30 1400 H 128.787 -0.0237719 3.87393 0
M  V30 1401 H 129.201 1.95455 4.86721 0
M  V30 1402 H 130.675 0.368813 5.50767 0
M  V30 1403 H 131.152 -0.834369 4.31202 0
M  V30 1404 H 131.758 0.831864 4.17085 0
M  V30 1405 N 130.073 -1.45103 0.615059 0
M  V30 1406 C 131.301 -2.06553 0.11977 0
M  V30 1407 C 131.716 -1.45842 -1.19898 0
M  V30 1408 O 131.073 -0.575325 -1.73194 0
M  V30 1409 C 131.124 -3.61495 -0.018364 0
M  V30 1410 O 130.845 -4.19942 1.24822 0
M  V30 1411 C 132.346 -4.39947 -0.544237 0
M  V30 1412 H 129.566 -0.667096 0.0722739 0
M  V30 1413 H 132.11 -1.8623 0.84491 0
M  V30 1414 H 130.265 -3.81135 -0.693865 0
M  V30 1415 H 130.679 -5.13204 1.0827 0
M  V30 1416 H 132.153 -5.48838 -0.589953 0
M  V30 1417 H 132.63 -4.10255 -1.56805 0
M  V30 1418 H 133.236 -4.25188 0.0974703 0
M  V30 1419 N 131.551 -0.354651 -1.53558 0
M  V30 1420 C 132.776 0.242153 -2.05981 0
M  V30 1421 C 133.201 1.42553 -1.2272 0
M  V30 1422 O 132.559 1.79656 -0.243604 0
M  V30 1423 C 132.607 0.624367 -3.55154 0
M  V30 1424 O 131.711 1.72301 -3.74681 0
M  V30 1425 H 131.052 0.0378432 -0.662921 0
M  V30 1426 H 133.582 -0.512087 -1.98088 0
M  V30 1427 H 133.592 0.898433 -3.97985 0
M  V30 1428 H 132.267 -0.240989 -4.15201 0
M  V30 1429 H 130.844 1.44535 -3.4375 0
M  V30 1430 N 133.029 1.57378 -0.0835403 0
M  V30 1431 C 134.278 1.93106 0.582498 0
M  V30 1432 C 134.591 0.96651 1.70053 0
M  V30 1433 O 135.797 1.21705 2.42693 0
M  V30 1434 C 134.253 3.43076 1.08751 0
M  V30 1435 C 133.861 4.48 -0.000146404 0
M  V30 1436 C 135.605 3.87785 1.72694 0
M  V30 1437 C 133.512 5.89113 0.519568 0
M  V30 1438 H 132.442 0.720775 0.221358 0
M  V30 1439 H 135.093 1.82821 -0.157675 0
M  V30 1440 H 133.475 3.48474 1.88101 0
M  V30 1441 H 134.649 4.54233 -0.775199 0
M  V30 1442 H 132.964 4.1283 -0.54406 0
M  V30 1443 H 135.561 4.90604 2.1263 0
M  V30 1444 H 135.904 3.25796 2.59158 0
M  V30 1445 H 136.437 3.8504 0.999457 0
M  V30 1446 H 133.176 6.54775 -0.308186 0
M  V30 1447 H 132.696 5.86376 1.26188 0
M  V30 1448 H 134.375 6.39346 0.992237 0
M  V30 1449 N 134.507 -0.190092 1.56449 0
M  V30 1450 C 135.437 -1.23816 1.97969 0
M  V30 1451 C 136.418 -1.47201 0.852395 0
M  V30 1452 O 137.603 -1.58854 1.1171 0
M  V30 1453 C 134.733 -2.5813 2.3235 0
M  V30 1454 C 133.687 -2.49348 3.47864 0
M  V30 1455 C 133.013 -3.8798 3.67934 0
M  V30 1456 C 134.313 -2.01424 4.81898 0
M  V30 1457 H 136.007 -0.89311 2.85769 0
M  V30 1458 H 133.553 -0.428177 1.37487 0
M  V30 1459 H 135.506 -3.31637 2.59991 0
M  V30 1460 H 134.23 -2.94386 1.41438 0
M  V30 1461 H 132.889 -1.78297 3.20321 0
M  V30 1462 H 132.537 -4.21597 2.74344 0
M  V30 1463 H 132.237 -3.82978 4.45648 0
M  V30 1464 H 133.761 -4.63101 3.97957 0
M  V30 1465 H 135.175 -2.64693 5.08538 0
M  V30 1466 H 133.572 -2.07413 5.63116 0
M  V30 1467 H 134.642 -0.967677 4.75146 0
M  V30 1468 N 135.985 -1.50799 -0.457987 0
M  V30 1469 C 137.233 -1.62121 -1.2067 0
M  V30 1470 C 137.554 -0.329793 -1.92191 0
M  V30 1471 O 136.824 0.653409 -1.84682 0
M  V30 1472 H 135.404 -0.597441 -0.448411 0
M  V30 1473 H 138.066 -1.87637 -0.527096 0
M  V30 1474 H 137.162 -2.43882 -1.94751 0
M  V30 1475 N 137.463 0.71206 -1.40597 0
M  V30 1476 C 138.426 1.80785 -1.40888 0
M  V30 1477 C 139.426 1.57937 -0.302103 0
M  V30 1478 O 140.616 1.64913 -0.561182 0
M  V30 1479 C 137.748 3.18927 -1.20409 0
M  V30 1480 H 138.941 1.81924 -2.38419 0
M  V30 1481 H 136.494 0.91805 -1.26497 0
M  V30 1482 H 137.229 3.23436 -0.236522 0
M  V30 1483 H 137.014 3.36911 -2.00582 0
M  V30 1484 H 138.504 3.98949 -1.23408 0
M  V30 1485 N 138.941 1.26152 0.944643 0
M  V30 1486 C 140.188 1.11492 1.69044 0
M  V30 1487 C 140.516 -0.342366 1.91463 0
M  V30 1488 O 139.771 -1.26812 1.49054 0
M  V30 1489 C 140.07 1.82541 3.07268 0
M  V30 1490 C 139.736 3.32445 3.04616 0
M  V30 1491 C 138.398 3.73337 3.036 0
M  V30 1492 C 140.75 4.28171 2.97185 0
M  V30 1493 C 138.078 5.08348 2.92915 0
M  V30 1494 C 140.43 5.63218 2.88041 0
M  V30 1495 C 139.094 6.03426 2.85366 0
M  V30 1496 H 138.364 0.407977 0.618576 0
M  V30 1497 H 141.011 1.56551 1.10291 0
M  V30 1498 H 139.316 1.29941 3.69625 0
M  V30 1499 H 141.013 1.68642 3.63815 0
M  V30 1500 H 137.603 2.99915 3.06185 0
M  V30 1501 H 141.787 3.97563 2.97081 0
M  V30 1502 H 137.043 5.38667 2.89219 0
M  V30 1503 H 141.217 6.37078 2.81254 0
M  V30 1504 H 138.844 7.07999 2.76842 0
M  V30 1505 N 140.419 -1.14872 1.07899 0
M  V30 1506 C 141.665 -1.86064 0.806725 0
M  V30 1507 C 141.998 -1.82434 -0.665706 0
M  V30 1508 O 141.273 -1.25138 -1.48899 0
M  V30 1509 C 141.556 -3.34929 1.32267 0
M  V30 1510 C 141.409 -3.47161 2.86006 0
M  V30 1511 C 142.728 -4.29863 0.943717 0
M  V30 1512 H 139.847 -0.675591 0.294526 0
M  V30 1513 H 142.489 -1.34925 1.33773 0
M  V30 1514 H 140.639 -3.78611 0.870974 0
M  V30 1515 H 142.311 -3.12302 3.39507 0
M  V30 1516 H 140.554 -2.88539 3.23925 0
M  V30 1517 H 141.225 -4.51777 3.17177 0
M  V30 1518 H 143.701 -3.9417 1.33302 0
M  V30 1519 H 142.577 -5.32494 1.33198 0
M  V30 1520 H 142.838 -4.41846 -0.149796 0
M  V30 1521 N 141.898 -0.863906 -1.31812 0
M  V30 1522 C 143.144 -0.472535 -1.97218 0
M  V30 1523 C 143.477 0.971394 -1.68159 0
M  V30 1524 O 142.752 1.68309 -0.974798 0
M  V30 1525 C 143.035 -0.723054 -3.52766 0
M  V30 1526 C 142.888 -2.21608 -3.91421 0
M  V30 1527 C 144.207 -0.185522 -4.39709 0
M  V30 1528 H 141.326 -0.173158 -0.71637 0
M  V30 1529 H 143.968 -1.08403 -1.56041 0
M  V30 1530 H 142.118 -0.202577 -3.87971 0
M  V30 1531 H 143.79 -2.80334 -3.66347 0
M  V30 1532 H 142.033 -2.691 -3.40246 0
M  V30 1533 H 142.704 -2.34203 -4.99853 0
M  V30 1534 H 145.18 -0.630726 -4.11292 0
M  V30 1535 H 144.056 -0.390306 -5.47511 0
M  V30 1536 H 144.317 0.912229 -4.32586 0
M  V30 1537 N 143.376 1.44774 -0.622745 0
M  V30 1538 C 144.604 2.06487 -0.130722 0
M  V30 1539 C 145.019 1.46476 1.19123 0
M  V30 1540 O 144.376 0.584502 1.72887 0
M  V30 1541 C 144.427 3.615 -0.000807207 0
M  V30 1542 O 144.148 4.19274 -1.27048 0
M  V30 1543 C 145.649 4.40229 0.520898 0
M  V30 1544 H 142.869 0.666704 -0.0758106 0
M  V30 1545 H 145.413 1.85779 -0.854774 0
M  V30 1546 H 143.568 3.81498 0.673643 0
M  V30 1547 H 143.982 5.12622 -1.1099 0
M  V30 1548 H 145.456 5.49144 0.560838 0
M  V30 1549 H 145.933 4.1108 1.54627 0
M  V30 1550 H 146.539 4.25131 -0.120018 0
M  V30 1551 N 144.854 0.36279 1.53368 0
M  V30 1552 C 146.102 -0.227326 2.00817 0
M  V30 1553 C 146.423 -1.49511 1.25186 0
M  V30 1554 O 145.693 -1.92482 0.364348 0
M  V30 1555 H 144.273 -0.0869923 0.741917 0
M  V30 1556 H 146.935 0.488381 1.88682 0
M  V30 1557 H 146.031 -0.456273 3.08747 0
M  V30 1558 N 146.332 -1.57332 0.0918853 0
M  V30 1559 C 147.58 -1.93853 -0.571446 0
M  V30 1560 C 147.901 -0.974212 -1.6892 0
M  V30 1561 O 147.171 -0.0257254 -1.95883 0
M  V30 1562 H 145.751 -0.715666 -0.214082 0
M  V30 1563 H 148.413 -1.94287 0.154464 0
M  V30 1564 H 147.509 -2.96191 -0.983729 0
M  V30 1565 N 147.81 0.181792 -1.56548 0
M  V30 1566 C 149.04 0.914618 -1.85252 0
M  V30 1567 C 149.448 1.76791 -0.673914 0
M  V30 1568 O 148.791 1.80009 0.366416 0
M  V30 1569 C 148.853 1.85019 -3.08234 0
M  V30 1570 C 148.517 1.17754 -4.41569 0
M  V30 1571 C 149.514 0.548035 -5.17003 0
M  V30 1572 C 147.199 1.17742 -4.88305 0
M  V30 1573 C 149.193 -0.0726128 -6.37359 0
M  V30 1574 C 146.88 0.552946 -6.08593 0
M  V30 1575 C 147.878 -0.070978 -6.82963 0
M  V30 1576 O 147.566 -0.685635 -8.00971 0
M  V30 1577 H 147.298 0.271695 -0.618998 0
M  V30 1578 H 149.852 0.189944 -2.0452 0
M  V30 1579 H 148.082 2.61491 -2.84885 0
M  V30 1580 H 149.771 2.45195 -3.23472 0
M  V30 1581 H 150.537 0.540174 -4.81982 0
M  V30 1582 H 146.416 1.65246 -4.30366 0
M  V30 1583 H 149.96 -0.560213 -6.95347 0
M  V30 1584 H 145.857 0.558354 -6.43081 0
M  V30 1585 H 146.625 -0.58385 -8.16415 0
M  V30 1586 N 149.288 1.51039 0.449983 0
M  V30 1587 C 150.218 1.74379 1.55288 0
M  V30 1588 C 151.199 0.593236 1.5942 0
M  V30 1589 O 152.384 0.834625 1.7535 0
M  V30 1590 C 149.514 1.85728 2.93466 0
M  V30 1591 C 148.468 3.01078 3.04197 0
M  V30 1592 C 147.794 2.97595 4.44231 0
M  V30 1593 C 149.094 4.41254 2.7945 0
M  V30 1594 H 150.788 2.66725 1.36008 0
M  V30 1595 H 148.334 1.2835 0.652864 0
M  V30 1596 H 150.287 2.0064 3.70569 0
M  V30 1597 H 149.011 0.900207 3.13949 0
M  V30 1598 H 147.67 2.85851 2.29531 0
M  V30 1599 H 147.318 1.99691 4.61663 0
M  V30 1600 H 147.018 3.75046 4.52343 0
M  V30 1601 H 148.542 3.14583 5.23326 0
M  V30 1602 H 149.956 4.56897 3.46292 0
M  V30 1603 H 148.353 5.20315 2.98985 0
M  V30 1604 H 149.423 4.52164 1.75144 0
M  V30 1605 N 150.766 -0.704594 1.40972 0
M  V30 1606 C 152.015 -1.46018 1.39146 0
M  V30 1607 C 152.328 -1.956 0.000589254 0
M  V30 1608 O 153.534 -2.71137 -0.1403 0
M  V30 1609 C 151.99 -2.63996 2.4461 0
M  V30 1610 C 151.598 -2.21238 3.89561 0
M  V30 1611 C 153.342 -3.41677 2.51907 0
M  V30 1612 C 151.249 -3.3612 4.86598 0
M  V30 1613 H 150.179 -0.548444 0.517422 0
M  V30 1614 H 152.83 -0.765784 1.66757 0
M  V30 1615 H 151.212 -3.3566 2.10115 0
M  V30 1616 H 152.386 -1.56923 4.33257 0
M  V30 1617 H 150.701 -1.56574 3.85841 0
M  V30 1618 H 153.298 -4.27182 3.2159 0
M  V30 1619 H 153.641 -3.86247 1.55303 0
M  V30 1620 H 154.174 -2.77064 2.85448 0
M  V30 1621 H 150.913 -2.96572 5.84573 0
M  V30 1622 H 150.433 -3.99315 4.47557 0
M  V30 1623 H 152.112 -4.02029 5.06934 0
M  V30 1624 N 152.244 -1.26651 -0.937939 0
M  V30 1625 C 153.469 -1.15279 -1.72411 0
M  V30 1626 C 153.894 0.287866 -1.85884 0
M  V30 1627 O 153.252 1.20855 -1.35143 0
M  V30 1628 C 153.3 -1.83028 -3.10698 0
M  V30 1629 O 152.404 -1.12128 -3.96864 0
M  V30 1630 H 151.745 -0.401504 -0.528858 0
M  V30 1631 H 154.275 -1.67531 -1.1745 0
M  V30 1632 H 154.285 -1.89981 -3.6107 0
M  V30 1633 H 152.96 -2.87833 -3.00208 0
M  V30 1634 H 151.537 -1.13173 -3.55312 0
M  V30 1635 N 153.722 1.14298 -1.08507 0
M  V30 1636 C 154.947 1.8976 -0.837001 0
M  V30 1637 C 155.372 1.78097 0.605228 0
M  V30 1638 O 154.73 1.12188 1.4242 0
M  V30 1639 C 154.778 3.37685 -1.26495 0
M  V30 1640 O 153.882 4.10281 -0.417514 0
M  V30 1641 H 153.223 0.590365 -0.303917 0
M  V30 1642 H 155.753 1.44672 -1.44676 0
M  V30 1643 H 155.763 3.88501 -1.24625 0
M  V30 1644 H 154.438 3.45492 -2.31534 0
M  V30 1645 H 153.015 3.69536 -0.499722 0
M  V30 1646 N 155.201 0.870884 1.31352 0
M  V30 1647 C 156.447 0.492314 1.97352 0
M  V30 1648 C 156.802 -0.945174 1.67583 0
M  V30 1649 O 156.095 -1.65674 0.962423 0
M  V30 1650 C 156.289 0.687157 3.50732 0
M  V30 1651 C 156.118 2.14203 3.95407 0
M  V30 1652 C 154.888 2.78382 4.21701 0
M  V30 1653 C 157.086 3.1144 4.09279 0
M  V30 1654 N 155.068 4.14611 4.52737 0
M  V30 1655 C 156.439 4.32702 4.44037 0
M  V30 1656 C 158.494 3.07418 3.91661 0
M  V30 1657 C 157.197 5.50463 4.63015 0
M  V30 1658 C 159.223 4.24438 4.11833 0
M  V30 1659 C 158.585 5.44463 4.46923 0
M  V30 1660 H 154.684 0.229206 0.747655 0
M  V30 1661 H 157.268 1.12568 1.5886 0
M  V30 1662 H 155.439 0.083384 3.8831 0
M  V30 1663 H 157.171 0.276883 4.03752 0
M  V30 1664 H 153.926 2.29326 4.14375 0
M  V30 1665 H 154.35 4.84928 4.72413 0
M  V30 1666 H 158.992 2.15732 3.6362 0
M  V30 1667 H 156.71 6.42666 4.89904 0
M  V30 1668 H 160.296 4.2278 3.99685 0
M  V30 1669 H 159.176 6.33504 4.62214 0
M  V30 1670 N 156.679 -1.44442 0.630414 0
M  V30 1671 C 157.642 -2.29107 -0.0652523 0
M  V30 1672 C 158.642 -1.41002 -0.772995 0
M  V30 1673 O 159.832 -1.62881 -0.617692 0
M  V30 1674 C 156.964 -3.22564 -1.10296 0
M  V30 1675 H 158.157 -2.92103 0.679401 0
M  V30 1676 H 155.71 -1.51343 0.390517 0
M  V30 1677 H 156.445 -2.64416 -1.87762 0
M  V30 1678 H 156.23 -3.87491 -0.59941 0
M  V30 1679 H 157.72 -3.86167 -1.5895 0
M  V30 1680 N 158.157 -0.370918 -1.53173 0
M  V30 1681 C 159.385 0.217704 -2.05751 0
M  V30 1682 C 159.8 1.42018 -1.24404 0
M  V30 1683 O 159.157 1.80245 -0.286033 0
M  V30 1684 C 159.208 0.605954 -3.56385 0
M  V30 1685 O 158.929 -0.548734 -4.3465 0
M  V30 1686 C 160.43 1.2524 -4.25241 0
M  V30 1687 H 157.65 0.0371659 -0.66997 0
M  V30 1688 H 160.194 -0.530832 -1.9749 0
M  V30 1689 H 158.349 1.3044 -3.6478 0
M  V30 1690 H 158.763 -0.23376 -5.23979 0
M  V30 1691 H 160.237 1.47458 -5.3194 0
M  V30 1692 H 160.714 2.2143 -3.79296 0
M  V30 1693 H 161.32 0.595233 -4.21114 0
M  V30 1694 N 159.635 1.57281 -0.100228 0
M  V30 1695 C 160.86 1.99302 0.573881 0
M  V30 1696 C 161.285 0.979059 1.60611 0
M  V30 1697 O 160.643 -0.0517803 1.81226 0
M  V30 1698 C 160.691 3.40274 1.19358 0
M  V30 1699 O 159.795 3.41676 2.30935 0
M  V30 1700 H 159.136 0.647944 0.145138 0
M  V30 1701 H 161.666 2.03779 -0.183156 0
M  V30 1702 H 161.676 3.78078 1.53365 0
M  V30 1703 H 160.351 4.13594 0.437385 0
M  V30 1704 H 158.928 3.15672 1.98509 0
M  V30 1705 N 161.113 -0.173488 1.56642 0
M  V30 1706 C 162.362 -0.888758 1.81063 0
M  V30 1707 C 162.675 -1.83506 0.67712 0
M  V30 1708 O 163.881 -2.59254 0.806206 0
M  V30 1709 C 162.337 -1.63091 3.20826 0
M  V30 1710 C 161.945 -0.728357 4.4204 0
M  V30 1711 C 163.689 -2.33454 3.54541 0
M  V30 1712 C 161.596 -1.47062 5.72823 0
M  V30 1713 H 160.526 -0.335618 0.675186 0
M  V30 1714 H 163.177 -0.141712 1.82952 0
M  V30 1715 H 161.559 -2.42263 3.13248 0
M  V30 1716 H 162.733 0.0262449 4.60793 0
M  V30 1717 H 161.048 -0.134492 4.16183 0
M  V30 1718 H 163.645 -2.89578 4.49498 0
M  V30 1719 H 163.988 -3.08687 2.79317 0
M  V30 1720 H 164.521 -1.61227 3.63663 0
M  V30 1721 H 161.26 -0.760658 6.51072 0
M  V30 1722 H 160.78 -2.1986 5.58052 0
M  V30 1723 H 162.459 -2.01868 6.14702 0
M  V30 1724 N 162.591 -1.51276 -0.441967 0
M  V30 1725 C 164.002 -1.56244 -1.02199 0
M  V30 1726 C 164.353 -0.383149 -1.92422 0
M  V30 1727 O 163.478 0.500613 -2.1053 0
M  V30 1728 C 164.073 -2.83162 -1.86024 0
M  V30 1729 C 162.632 -2.90716 -2.39084 0
M  V30 1730 C 161.779 -2.50858 -1.18175 0
M  V30 1731 H 164.73 -1.5712 -0.223416 0
M  V30 1732 H 164.751 -2.66663 -2.71425 0
M  V30 1733 H 164.263 -3.68974 -1.20331 0
M  V30 1734 H 162.364 -2.09323 -3.08244 0
M  V30 1735 H 162.477 -3.94266 -2.72198 0
M  V30 1736 H 160.841 -2.03951 -1.52565 0
M  V30 1737 H 161.624 -3.3901 -0.541001 0
M  V30 1738 N 164.069 0.697108 -1.41344 0
M  V30 1739 C 165.316 1.45714 -1.40619 0
M  V30 1740 C 165.644 1.94494 -0.0147907 0
M  V30 1741 O 164.899 1.69794 0.973066 0
M  V30 1742 C 165.198 2.68553 -2.35826 0
M  V30 1743 C 164.864 2.38438 -3.82698 0
M  V30 1744 C 163.526 2.29936 -4.22709 0
M  V30 1745 C 165.878 2.13567 -4.75435 0
M  V30 1746 C 163.206 1.94656 -5.53467 0
M  V30 1747 C 165.558 1.79797 -6.06511 0
M  V30 1748 C 164.222 1.69789 -6.45545 0
M  V30 1749 H 163.492 0.533206 -0.51456 0
M  V30 1750 H 166.139 0.796901 -1.74131 0
M  V30 1751 H 164.444 3.39503 -1.95563 0
M  V30 1752 H 166.141 3.2669 -2.32539 0
M  V30 1753 H 162.731 2.4595 -3.51008 0
M  V30 1754 H 166.915 2.19082 -4.45328 0
M  V30 1755 H 162.171 1.8546 -5.82593 0
M  V30 1756 H 166.345 1.59572 -6.77872 0
M  V30 1757 H 163.972 1.4222 -7.46778 0
M  V30 1758 N 165.547 1.27147 0.931209 0
M  V30 1759 C 166.477 1.12081 2.04842 0
M  V30 1760 C 167.458 0.0232364 1.70084 0
M  V30 1761 O 168.643 0.197085 1.93197 0
M  V30 1762 C 165.773 0.76354 3.38803 0
M  V30 1763 C 164.727 1.81396 3.87659 0
M  V30 1764 C 164.053 1.31075 5.18385 0
M  V30 1765 C 165.353 3.21739 4.11438 0
M  V30 1766 H 167.047 2.05537 2.17703 0
M  V30 1767 H 164.593 0.989603 1.04608 0
M  V30 1768 H 166.546 0.644982 4.16435 0
M  V30 1769 H 165.27 -0.206727 3.25945 0
M  V30 1770 H 163.929 1.92136 3.12217 0
M  V30 1771 H 163.577 0.330037 5.01916 0
M  V30 1772 H 163.277 2.013 5.52044 0
M  V30 1773 H 164.801 1.20506 5.98591 0
M  V30 1774 H 166.215 3.14019 4.79651 0
M  V30 1775 H 164.612 3.89644 4.56397 0
M  V30 1776 H 165.682 3.67054 3.16859 0
M  V30 1777 N 167.025 -1.13721 1.09112 0
M  V30 1778 C 168.265 -1.86576 0.834801 0
M  V30 1779 C 168.629 -1.81435 -0.628122 0
M  V30 1780 O 169.83 -2.49497 -1.00024 0
M  V30 1781 C 168.101 -3.30872 1.35124 0
M  V30 1782 S 169.66 -4.21257 1.22832 0
M  V30 1783 H 166.478 -0.643666 0.302017 0
M  V30 1784 H 169.08 -1.37085 1.39385 0
M  V30 1785 H 167.784 -3.32166 2.41027 0
M  V30 1786 H 167.315 -3.85423 0.788185 0
M  V30 1787 H 169.33 -4.95884 0.177191 0
M  V30 1788 N 168.503 -0.877838 -1.30888 0
M  V30 1789 C 169.749 -0.493426 -1.96706 0
M  V30 1790 C 170.082 0.953504 -1.6918 0
M  V30 1791 O 169.357 1.67266 -0.992594 0
M  V30 1792 C 169.64 -0.760429 -3.51979 0
M  V30 1793 C 169.493 -2.25747 -3.89048 0
M  V30 1794 C 170.812 -0.232148 -4.39487 0
M  V30 1795 H 167.931 -0.180746 -0.714493 0
M  V30 1796 H 170.573 -1.10052 -1.54882 0
M  V30 1797 H 168.723 -0.243715 -3.87735 0
M  V30 1798 H 170.395 -2.84204 -3.63354 0
M  V30 1799 H 168.638 -2.72694 -3.37373 0
M  V30 1800 H 169.309 -2.39491 -4.97341 0
M  V30 1801 H 171.785 -0.674314 -4.106 0
M  V30 1802 H 170.661 -0.448355 -5.47066 0
M  V30 1803 H 170.922 0.866297 -4.33529 0
M  V30 1804 N 169.982 1.44106 -0.638065 0
M  V30 1805 C 171.21 2.06336 -0.152615 0
M  V30 1806 C 171.625 1.47731 1.17563 0
M  V30 1807 O 170.982 0.602806 1.72257 0
M  V30 1808 C 171.033 3.61479 -0.0391491 0
M  V30 1809 O 170.754 4.17903 -1.31487 0
M  V30 1810 C 172.255 4.40757 0.474176 0
M  V30 1811 H 169.475 0.665862 -0.0828776 0
M  V30 1812 H 172.019 1.84862 -0.87443 0
M  V30 1813 H 170.174 3.82191 0.633142 0
M  V30 1814 H 170.588 5.11416 -1.16421 0
M  V30 1815 H 172.062 5.49707 0.502562 0
M  V30 1816 H 172.539 4.12697 1.50258 0
M  V30 1817 H 173.145 4.24979 -0.165102 0
M  V30 1818 N 171.46 0.379036 1.52974 0
M  V30 1819 C 172.393 -0.504932 2.22544 0
M  V30 1820 C 173.371 -1.0723 1.22231 0
M  V30 1821 O 174.555 -1.12589 1.51182 0
M  V30 1822 C 171.682 -1.69794 2.93066 0
M  V30 1823 C 170.728 -1.25678 4.07563 0
M  V30 1824 S 171.561 -0.246852 5.34931 0
M  V30 1825 C 172.717 -1.44588 6.08971 0
M  V30 1826 H 172.95 0.0858666 2.97176 0
M  V30 1827 H 170.483 0.163183 1.53535 0
M  V30 1828 H 172.441 -2.38219 3.34308 0
M  V30 1829 H 171.102 -2.26002 2.18133 0
M  V30 1830 H 170.295 -2.14725 4.5597 0
M  V30 1831 H 169.897 -0.651584 3.6828 0
M  V30 1832 H 172.189 -2.37469 6.34519 0
M  V30 1833 H 173.132 -1.00292 7.00962 0
M  V30 1834 H 173.54 -1.65804 5.39601 0
M  V30 1835 N 172.938 -1.57226 0.108567 0
M  V30 1836 C 174.186 -1.94448 -0.550853 0
M  V30 1837 C 174.507 -0.992074 -1.67878 0
M  V30 1838 O 173.777 -0.0465 -1.95845 0
M  V30 1839 H 172.357 -0.717897 -0.206479 0
M  V30 1840 H 175.019 -1.94112 0.175062 0
M  V30 1841 H 174.115 -2.97218 -0.952259 0
M  V30 1842 N 174.416 0.165178 -1.56732 0
M  V30 1843 C 175.346 1.20651 -1.99914 0
M  V30 1844 C 176.327 1.45827 -0.875705 0
M  V30 1845 O 177.512 1.57057 -1.14223 0
M  V30 1846 C 174.642 2.54401 -2.36427 0
M  V30 1847 C 173.596 2.43782 -3.51787 0
M  V30 1848 C 172.922 3.82078 -3.7406 0
M  V30 1849 C 174.222 1.93732 -4.85041 0
M  V30 1850 H 175.916 0.847534 -2.87154 0
M  V30 1851 H 173.462 0.40625 -1.38151 0
M  V30 1852 H 175.415 3.27458 -2.65234 0
M  V30 1853 H 174.139 2.92098 -1.46103 0
M  V30 1854 H 172.798 1.73178 -3.23117 0
M  V30 1855 H 172.446 4.17179 -2.81017 0
M  V30 1856 H 172.146 3.7584 -4.51684 0
M  V30 1857 H 173.67 4.56712 -4.05274 0
M  V30 1858 H 175.084 2.56569 -5.12684 0
M  V30 1859 H 173.481 1.98428 -5.66345 0
M  V30 1860 H 174.551 0.891962 -4.76626 0
M  V30 1861 N 175.894 1.51508 0.433938 0
M  V30 1862 C 176.824 1.76016 1.53429 0
M  V30 1863 C 177.805 0.610112 1.58782 0
M  V30 1864 O 178.99 0.853177 1.74455 0
M  V30 1865 C 176.12 1.88831 2.9148 0
M  V30 1866 C 175.074 3.04288 3.00987 0
M  V30 1867 C 174.4 3.0229 4.4105 0
M  V30 1868 C 175.7 4.44193 2.74754 0
M  V30 1869 H 177.394 2.68152 1.33171 0
M  V30 1870 H 174.94 1.29035 0.639214 0
M  V30 1871 H 176.893 2.04559 3.6842 0
M  V30 1872 H 175.617 0.933455 3.12976 0
M  V30 1873 H 174.276 2.8827 2.26486 0
M  V30 1874 H 173.924 2.04576 4.59519 0
M  V30 1875 H 173.624 3.79822 4.4834 0
M  V30 1876 H 175.148 3.20116 5.1996 0
M  V30 1877 H 176.562 4.60544 3.41426 0
M  V30 1878 H 174.959 5.23457 2.9345 0
M  V30 1879 H 176.029 4.53996 1.70339 0
M  V30 1880 N 177.372 -0.689602 1.41712 0
M  V30 1881 C 178.783 -1.26973 1.36875 0
M  V30 1882 C 179.134 -1.96124 0.054748 0
M  V30 1883 O 178.259 -1.99141 -0.84687 0
M  V30 1884 C 178.854 -2.30912 2.47922 0
M  V30 1885 C 177.413 -2.84486 2.46464 0
M  V30 1886 C 176.56 -1.58603 2.27465 0
M  V30 1887 H 179.511 -0.48396 1.51141 0
M  V30 1888 H 179.532 -3.12331 2.17323 0
M  V30 1889 H 179.044 -1.80554 3.43543 0
M  V30 1890 H 177.145 -3.39005 1.54617 0
M  V30 1891 H 177.258 -3.34511 3.42986 0
M  V30 1892 H 175.622 -1.84632 1.75451 0
M  V30 1893 H 176.405 -1.10233 3.25121 0
M  V30 1894 N 178.85 -1.27639 -0.924453 0
M  V30 1895 C 180.098 -1.13941 -1.66918 0
M  V30 1896 C 180.419 0.314589 -1.92446 0
M  V30 1897 O 179.689 1.21964 -1.53303 0
M  V30 1898 H 178.269 -0.418678 -0.618642 0
M  V30 1899 H 180.931 -1.60213 -1.10985 0
M  V30 1900 H 180.027 -1.67094 -2.63602 0
M  V30 1901 N 180.328 1.1314 -1.09713 0
M  V30 1902 C 181.258 2.20748 -0.761102 0
M  V30 1903 C 182.239 1.68061 0.262566 0
M  V30 1904 O 183.424 1.93765 0.129977 0
M  V30 1905 C 180.554 3.46812 -0.184054 0
M  V30 1906 C 179.508 4.12606 -1.13757 0
M  V30 1907 C 178.834 5.33031 -0.422083 0
M  V30 1908 C 180.134 4.59603 -2.48118 0
M  V30 1909 H 181.828 2.49113 -1.66082 0
M  V30 1910 H 179.374 1.19734 -0.799987 0
M  V30 1911 H 181.327 4.21353 0.0631215 0
M  V30 1912 H 180.051 3.17851 0.750868 0
M  V30 1913 H 178.71 3.40036 -1.37007 0
M  V30 1914 H 178.358 5.00335 0.517072 0
M  V30 1915 H 178.058 5.77999 -1.05788 0
M  V30 1916 H 179.582 6.10325 -0.183277 0
M  V30 1917 H 180.996 5.25552 -2.29059 0
M  V30 1918 H 179.393 5.15321 -3.07514 0
M  V30 1919 H 180.463 3.73971 -3.08665 0
M  V30 1920 N 181.806 0.884767 1.30421 0
M  V30 1921 C 183.054 0.502112 1.95763 0
M  V30 1922 C 183.375 -0.951815 1.70192 0
M  V30 1923 O 182.645 -1.6692 1.0254 0
M  V30 1924 H 181.225 0.182694 0.724315 0
M  V30 1925 H 183.887 1.1278 1.58955 0
M  V30 1926 H 182.983 0.672188 3.04775 0
M  V30 1927 N 183.284 -1.43765 0.645699 0
M  V30 1928 C 184.509 -2.06767 0.161883 0
M  V30 1929 C 184.934 -1.48034 -1.16049 0
M  V30 1930 O 184.292 -0.587369 -1.71522 0
M  V30 1931 C 184.34 -3.60519 0.0762003 0
M  V30 1932 O 183.444 -4.00982 -0.963721 0
M  V30 1933 H 182.785 -0.657675 0.091429 0
M  V30 1934 H 185.315 -1.84397 0.886499 0
M  V30 1935 H 185.325 -4.07853 -0.109604 0
M  V30 1936 H 184 -4.02646 1.04157 0
M  V30 1937 H 182.577 -3.65253 -0.751312 0
M  V30 1938 N 184.763 -0.387143 -1.52771 0
M  V30 1939 C 185.726 0.436939 -2.24997 0
M  V30 1940 C 186.726 0.991991 -1.26555 0
M  V30 1941 O 187.916 0.874335 -1.50669 0
M  V30 1942 C 185.048 1.61281 -3.00335 0
M  V30 1943 H 186.241 -0.195365 -2.99263 0
M  V30 1944 H 183.794 -0.139218 -1.55679 0
M  V30 1945 H 184.529 2.2826 -2.30364 0
M  V30 1946 H 184.314 1.22154 -3.72587 0
M  V30 1947 H 185.804 2.19629 -3.5518 0
M  V30 1948 N 186.241 1.57166 -0.116904 0
M  V30 1949 C 187.488 1.95123 0.541603 0
M  V30 1950 C 187.816 1.00006 1.6682 0
M  V30 1951 O 187.071 0.0235658 1.95686 0
M  V30 1952 C 187.37 3.39508 1.11664 0
M  V30 1953 C 187.036 4.50762 0.111606 0
M  V30 1954 C 185.698 4.80918 -0.164758 0
M  V30 1955 C 188.05 5.18036 -0.573438 0
M  V30 1956 C 185.378 5.75666 -1.13249 0
M  V30 1957 C 187.73 6.13824 -1.52978 0
M  V30 1958 C 186.394 6.42374 -1.81415 0
M  V30 1959 H 185.664 0.714005 0.198187 0
M  V30 1960 H 188.311 1.9048 -0.197365 0
M  V30 1961 H 186.616 3.40835 1.93232 0
M  V30 1962 H 188.313 3.66189 1.63422 0
M  V30 1963 H 184.903 4.27272 0.337192 0
M  V30 1964 H 189.087 4.94896 -0.373092 0
M  V30 1965 H 184.343 5.96092 -1.35958 0
M  V30 1966 H 188.517 6.65039 -2.06629 0
M  V30 1967 H 186.144 7.15599 -2.56557 0
M  V30 1968 N 187.719 -0.156864 1.56817 0
M  V30 1969 C 188.649 -1.19589 2.00551 0
M  V30 1970 C 189.63 -1.4536 0.883426 0
M  V30 1971 O 190.815 -1.56449 1.15054 0
M  V30 1972 C 187.945 -2.53143 2.37773 0
M  V30 1973 C 186.899 -2.41913 3.53075 0
M  V30 1974 C 186.225 -3.80088 3.76081 0
M  V30 1975 C 187.525 -1.91157 4.86062 0
M  V30 1976 H 189.219 -0.832293 2.87599 0
M  V30 1977 H 186.765 -0.398918 1.38364 0
M  V30 1978 H 188.718 -3.26047 2.66967 0
M  V30 1979 H 187.442 -2.91319 1.4765 0
M  V30 1980 H 186.101 -1.71462 3.24031 0
M  V30 1981 H 185.749 -4.15683 2.83225 0
M  V30 1982 H 185.449 -3.73439 4.53671 0
M  V30 1983 H 186.973 -4.54556 4.0769 0
M  V30 1984 H 188.387 -2.53846 5.14038 0
M  V30 1985 H 186.784 -1.95422 5.67389 0
M  V30 1986 H 187.854 -0.866673 4.77092 0
M  V30 1987 N 189.197 -1.51736 -0.425897 0
M  V30 1988 C 190.427 -1.68549 -1.19476 0
M  V30 1989 C 190.835 -0.387288 -1.85194 0
M  V30 1990 O 190.178 0.645142 -1.71999 0
M  V30 1991 C 190.24 -2.75275 -2.31223 0
M  V30 1992 C 189.904 -4.17534 -1.8578 0
M  V30 1993 C 190.901 -5.01936 -1.35485 0
M  V30 1994 C 188.586 -4.6369 -1.93123 0
M  V30 1995 C 190.58 -6.30559 -0.931347 0
M  V30 1996 C 188.267 -5.92307 -1.50384 0
M  V30 1997 C 189.265 -6.75569 -1.00473 0
M  V30 1998 O 188.953 -8.0178 -0.583452 0
M  V30 1999 H 188.685 -0.568525 -0.365725 0
M  V30 2000 H 191.239 -1.98982 -0.509444 0
M  V30 2001 H 189.469 -2.40182 -3.03067 0
M  V30 2002 H 191.158 -2.80853 -2.93047 0
M  V30 2003 H 191.924 -4.67475 -1.29197 0
M  V30 2004 H 187.803 -3.98997 -2.30916 0
M  V30 2005 H 191.347 -6.95498 -0.541084 0
M  V30 2006 H 187.244 -6.2628 -1.56346 0
M  V30 2007 H 188.012 -8.1543 -0.708275 0
M  V30 2008 N 190.675 0.682077 -1.42076 0
M  V30 2009 C 191.607 1.80755 -1.40926 0
M  V30 2010 C 192.62 1.59833 -0.309398 0
M  V30 2011 O 193.809 1.69087 -0.572014 0
M  V30 2012 C 190.909 3.17744 -1.17865 0
M  V30 2013 C 190.082 3.65578 -2.40149 0
M  V30 2014 C 189.141 4.81277 -2.12742 0
M  V30 2015 O 188.167 4.92197 -2.85887 0
M  V30 2016 N 189.369 5.69474 -1.12602 0
M  V30 2017 H 192.134 1.82229 -2.37935 0
M  V30 2018 H 189.695 0.864903 -1.36861 0
M  V30 2019 H 191.687 3.9279 -0.9746 0
M  V30 2020 H 190.257 3.11214 -0.294068 0
M  V30 2021 H 189.477 2.81291 -2.76169 0
M  V30 2022 H 190.765 3.94278 -3.21593 0
M  V30 2023 H 190.163 5.63297 -0.520899 0
M  V30 2024 H 188.72 6.44363 -0.981842 0
M  V30 2025 N 192.153 1.28127 0.917671 0
M  V30 2026 C 193.399 1.15223 1.66888 0
M  V30 2027 C 193.732 -0.299293 1.9188 0
M  V30 2028 O 193.007 -1.21805 1.51637 0
M  V30 2029 C 193.29 1.94706 3.02922 0
M  V30 2030 C 193.143 3.47898 2.85109 0
M  V30 2031 C 194.462 1.75939 4.03402 0
M  V30 2032 H 191.581 0.419946 0.605652 0
M  V30 2033 H 194.223 1.57398 1.06423 0
M  V30 2034 H 192.373 1.58864 3.54534 0
M  V30 2035 H 194.045 3.93624 2.40537 0
M  V30 2036 H 192.288 3.7373 2.20246 0
M  V30 2037 H 192.959 3.98765 3.81694 0
M  V30 2038 H 195.435 2.07209 3.60837 0
M  V30 2039 H 194.311 2.33931 4.96556 0
M  V30 2040 H 194.572 0.709877 4.36364 0
M  V30 2041 N 193.631 -1.12557 1.10312 0
M  V30 2042 C 194.594 -2.16434 0.75424 0
M  V30 2043 C 195.594 -1.59278 -0.220685 0
M  V30 2044 O 196.784 -1.742 0.00230591 0
M  V30 2045 C 193.916 -3.40699 0.116987 0
M  V30 2046 H 195.109 -2.48811 1.67431 0
M  V30 2047 H 192.662 -1.27542 0.903475 0
M  V30 2048 H 193.397 -3.13921 -0.813877 0
M  V30 2049 H 193.182 -3.83459 0.818613 0
M  V30 2050 H 194.672 -4.17451 -0.111387 0
M  V30 2051 N 195.109 -0.891671 -1.2995 0
M  V30 2052 C 196.072 -0.36828 -2.26222 0
M  V30 2053 C 197.072 0.493014 -1.53056 0
M  V30 2054 O 198.262 0.299213 -1.71611 0
M  V30 2055 C 195.394 0.47442 -3.37583 0
M  V30 2056 H 196.587 -1.21844 -2.74033 0
M  V30 2057 H 194.14 -0.669107 -1.41254 0
M  V30 2058 H 194.875 1.34489 -2.95099 0
M  V30 2059 H 194.66 -0.142615 -3.91841 0
M  V30 2060 H 196.15 0.83218 -4.09224 0
M  V30 2061 N 196.587 1.43421 -0.653314 0
M  V30 2062 C 197.833 2.02111 -0.166992 0
M  V30 2063 C 198.166 1.51423 1.21592 0
M  V30 2064 O 197.441 0.707389 1.8118 0
M  V30 2065 C 197.724 3.5966 -0.177948 0
M  V30 2066 C 197.577 4.20579 -1.59478 0
M  V30 2067 C 198.896 4.37413 0.4856 0
M  V30 2068 H 196.015 0.734374 -0.0621557 0
M  V30 2069 H 198.657 1.70717 -0.834016 0
M  V30 2070 H 196.807 3.86537 0.390032 0
M  V30 2071 H 198.479 4.04732 -2.21336 0
M  V30 2072 H 196.722 3.77226 -2.14204 0
M  V30 2073 H 197.393 5.29665 -1.5543 0
M  V30 2074 H 199.869 4.161 0.00234528 0
M  V30 2075 H 198.745 5.47075 0.447207 0
M  V30 2076 H 199.006 4.13672 1.55974 0
M  V30 2077 N 198.065 0.39524 1.52563 0
M  V30 2078 C 199.311 -0.185318 2.01952 0
M  V30 2079 C 199.644 -1.45964 1.28095 0
M  V30 2080 O 198.919 -1.90689 0.38315 0
M  V30 2081 C 199.202 -0.447193 3.57312 0
M  V30 2082 C 199.055 0.842828 4.41833 0
M  V30 2083 C 200.374 -1.23529 4.22408 0
M  V30 2084 H 197.493 -0.0658788 0.73405 0
M  V30 2085 H 200.135 0.525975 1.82575 0
M  V30 2086 H 198.285 -1.05312 3.73954 0
M  V30 2087 H 199.957 1.4795 4.36931 0
M  V30 2088 H 198.2 1.45686 4.08605 0
M  V30 2089 H 198.871 0.614165 5.48573 0
M  V30 2090 H 201.347 -0.722445 4.0978 0
M  V30 2091 H 200.223 -1.38727 5.3108 0
M  V30 2092 H 200.484 -2.25213 3.80436 0
M  V30 2093 N 199.544 -1.57102 0.125237 0
M  V30 2094 C 200.772 -1.99761 -0.538797 0
M  V30 2095 C 201.187 -1.00503 -1.59827 0
M  V30 2096 O 200.544 0.00119474 -1.825 0
M  V30 2097 C 200.595 -3.42408 -1.15927 0
M  V30 2098 O 200.316 -4.37869 -0.142143 0
M  V30 2099 C 201.817 -4.00232 -1.90602 0
M  V30 2100 H 199.037 -0.655772 -0.14214 0
M  V30 2101 H 201.581 -2.03383 0.213413 0
M  V30 2102 H 199.736 -3.39706 -1.86223 0
M  V30 2103 H 200.15 -5.21128 -0.593775 0
M  V30 2104 H 201.624 -5.02105 -2.29335 0
M  V30 2105 H 202.101 -3.39721 -2.78363 0
M  V30 2106 H 202.707 -4.06499 -1.25055 0
M  V30 2107 N 201.022 0.148545 -1.56898 0
M  V30 2108 C 202.25 0.876389 -1.87422 0
M  V30 2109 C 202.665 1.74809 -0.713256 0
M  V30 2110 O 202.022 1.79725 0.317025 0
M  V30 2111 C 202.073 1.73438 -3.17178 0
M  V30 2112 O 201.794 0.897809 -4.28802 0
M  V30 2113 C 203.295 2.56993 -3.61205 0
M  V30 2114 H 200.515 0.253489 -0.621277 0
M  V30 2115 H 203.059 0.141798 -2.04008 0
M  V30 2116 H 201.214 2.42205 -3.0235 0
M  V30 2117 H 201.628 1.48672 -5.02988 0
M  V30 2118 H 203.102 3.12773 -4.54838 0
M  V30 2119 H 203.579 3.32958 -2.86419 0
M  V30 2120 H 204.185 1.9352 -3.78722 0
M  V30 2121 N 202.5 1.5196 0.417844 0
M  V30 2122 C 203.447 1.74678 1.50852 0
M  V30 2123 C 204.417 0.588947 1.55308 0
M  V30 2124 O 205.602 0.825544 1.72016 0
M  V30 2125 C 202.742 1.89544 2.88387 0
M  V30 2126 C 201.855 3.17166 2.93309 0
M  V30 2127 C 200.99 3.22513 4.22088 0
M  V30 2128 C 200.029 4.44372 4.20951 0
M  V30 2129 N 199.166 4.47161 5.41287 0
M  V30 2130 H 204.006 2.67768 1.30783 0
M  V30 2131 H 201.543 1.32689 0.63498 0
M  V30 2132 H 203.501 1.96146 3.68216 0
M  V30 2133 H 202.131 0.998424 3.06971 0
M  V30 2134 H 201.183 3.19778 2.06024 0
M  V30 2135 H 202.495 4.07021 2.88332 0
M  V30 2136 H 201.649 3.28139 5.10303 0
M  V30 2137 H 200.388 2.30581 4.29748 0
M  V30 2138 H 199.393 4.38902 3.31127 0
M  V30 2139 H 200.618 5.3759 4.14938 0
M  V30 2140 H 198.564 3.58108 5.49632 0
M  V30 2141 H 198.481 5.3085 5.3827 0
M  V30 2142 H 199.749 4.57005 6.3148 0
M  V30 2143 N 203.978 -0.674533 1.42435 0
M  V30 2144 C 205.208 -1.46071 1.46105 0
M  V30 2145 C 205.616 -1.89067 0.0709605 0
M  V30 2146 O 204.959 -1.58731 -0.924677 0
M  V30 2147 C 205.021 -2.74145 2.32561 0
M  V30 2148 C 204.685 -2.53224 3.8043 0
M  V30 2149 C 205.682 -2.17809 4.72075 0
M  V30 2150 C 203.367 -2.6821 4.24698 0
M  V30 2151 C 205.361 -1.97648 6.05982 0
M  V30 2152 C 203.048 -2.47665 5.58664 0
M  V30 2153 C 204.046 -2.12437 6.49122 0
M  V30 2154 O 203.734 -1.9209 7.80613 0
M  V30 2155 H 203.466 -0.455959 0.499076 0
M  V30 2156 H 206.02 -0.836193 1.87609 0
M  V30 2157 H 204.25 -3.3908 1.85908 0
M  V30 2158 H 205.939 -3.36028 2.27683 0
M  V30 2159 H 206.705 -2.05826 4.39159 0
M  V30 2160 H 202.584 -2.94609 3.54579 0
M  V30 2161 H 206.128 -1.70075 6.7655 0
M  V30 2162 H 202.025 -2.59244 5.91154 0
M  V30 2163 H 202.793 -2.06686 7.91974 0
M  V30 2164 N 205.456 -1.28612 -0.910864 0
M  V30 2165 C 206.703 -1.15934 -1.66029 0
M  V30 2166 C 207.031 0.291483 -1.92303 0
M  V30 2167 O 206.286 1.22816 -1.52364 0
M  V30 2168 C 206.585 -1.90624 -3.0232 0
M  V30 2169 C 206.251 -3.40405 -2.95695 0
M  V30 2170 C 204.913 -3.81255 -2.93595 0
M  V30 2171 C 207.265 -4.359 -2.85728 0
M  V30 2172 C 204.593 -5.15936 -2.79334 0
M  V30 2173 C 206.945 -5.70657 -2.73007 0
M  V30 2174 C 205.609 -6.10779 -2.69267 0
M  V30 2175 H 204.879 -0.424234 -0.607541 0
M  V30 2176 H 207.526 -1.5942 -1.06101 0
M  V30 2177 H 205.831 -1.39696 -3.6605 0
M  V30 2178 H 207.528 -1.78228 -3.59215 0
M  V30 2179 H 204.118 -3.07927 -2.98125 0
M  V30 2180 H 208.302 -4.053 -2.86436 0
M  V30 2181 H 203.558 -5.46146 -2.74835 0
M  V30 2182 H 207.732 -6.44311 -2.64264 0
M  V30 2183 H 205.359 -7.1509 -2.57974 0
M  V30 2184 N 206.934 1.1197 -1.10907 0
M  V30 2185 C 207.881 2.17846 -0.762345 0
M  V30 2186 C 208.851 1.63995 0.263599 0
M  V30 2187 O 210.036 1.90273 0.141773 0
M  V30 2188 C 207.176 3.44487 -0.205651 0
M  V30 2189 C 206.289 4.12369 -1.28748 0
M  V30 2190 C 205.424 5.26674 -0.691919 0
M  V30 2191 C 204.463 5.86431 -1.75399 0
M  V30 2192 N 203.6 6.92142 -1.17833 0
M  V30 2193 H 208.44 2.46851 -1.6694 0
M  V30 2194 H 205.977 1.21188 -0.833776 0
M  V30 2195 H 207.935 4.16981 0.135037 0
M  V30 2196 H 206.565 3.15884 0.664613 0
M  V30 2197 H 205.617 3.38003 -1.74522 0
M  V30 2198 H 206.929 4.52844 -2.09125 0
M  V30 2199 H 206.083 6.05953 -0.300963 0
M  V30 2200 H 204.822 4.8749 0.143232 0
M  V30 2201 H 203.827 5.05835 -2.15432 0
M  V30 2202 H 205.052 6.27685 -2.59208 0
M  V30 2203 H 202.998 6.54985 -0.364725 0
M  V30 2204 H 202.915 7.31242 -1.91887 0
M  V30 2205 H 204.183 7.75237 -0.81408 0
M  V30 2206 N 208.412 0.89855 1.29475 0
M  V30 2207 C 209.359 0.373819 2.27753 0
M  V30 2208 C 210.329 -0.543444 1.56958 0
M  V30 2209 O 211.514 -0.468934 1.84948 0
M  V30 2210 C 208.654 -0.393648 3.42848 0
M  V30 2211 C 207.767 0.554379 4.28428 0
M  V30 2212 C 206.902 -0.230026 5.30702 0
M  V30 2213 C 205.941 0.712599 6.07938 0
M  V30 2214 N 205.078 -0.0373283 7.0209 0
M  V30 2215 H 209.918 1.21699 2.72017 0
M  V30 2216 H 207.455 0.611456 1.33789 0
M  V30 2217 H 209.413 -0.85466 4.08352 0
M  V30 2218 H 208.043 -1.20128 2.99615 0
M  V30 2219 H 207.095 1.13391 3.63107 0
M  V30 2220 H 208.407 1.27597 4.82204 0
M  V30 2221 H 207.561 -0.752288 6.02018 0
M  V30 2222 H 206.3 -0.984758 4.77654 0
M  V30 2223 H 205.305 1.24637 5.35486 0
M  V30 2224 H 206.53 1.46664 6.63074 0
M  V30 2225 H 204.476 -0.774348 6.51414 0
M  V30 2226 H 204.393 0.624374 7.53417 0
M  V30 2227 H 205.661 -0.539891 7.77628 0
M  V30 2228 N 209.89 -1.43072 0.660911 0
M  V30 2229 C 211.306 -1.56169 0.329173 0
M  V30 2230 C 211.506 -1.64317 -1.16629 0
M  V30 2231 O 210.562 -1.60245 -1.95135 0
M  V30 2232 C 211.875 -2.81873 1.04729 0
M  V30 2233 C 213.423 -2.95627 1.02828 0
M  V30 2234 C 213.898 -4.24174 1.72744 0
M  V30 2235 N 215.389 -4.31055 1.69545 0
M  V30 2236 C 216.124 -5.29304 2.20511 0
M  V30 2237 N 215.62 -6.33786 2.79799 0
M  V30 2238 N 217.413 -5.21008 2.10966 0
M  V30 2239 H 209.564 -1.36027 1.63127 0
M  V30 2240 H 211.827 -0.653823 0.686454 0
M  V30 2241 H 211.533 -2.81942 2.10242 0
M  V30 2242 H 211.407 -3.72338 0.603702 0
M  V30 2243 H 213.794 -2.95094 -0.0184742 0
M  V30 2244 H 213.875 -2.06431 1.51063 0
M  V30 2245 H 213.519 -4.25467 2.7738 0
M  V30 2246 H 213.449 -5.1228 1.2197 0
M  V30 2247 H 215.94 -3.56174 1.26288 0
M  V30 2248 H 216.253 -7.05086 3.16344 0
M  V30 2249 H 214.598 -6.34387 2.83863 0
M  V30 2250 H 217.789 -4.38301 1.64347 0
M  V30 2251 H 217.962 -5.97416 2.50993 0
M  V30 2252 N 211.368 -0.403325 -1.52352 0
M  V30 2253 C 212.298 0.416205 -2.29761 0
M  V30 2254 C 213.279 1.05123 -1.33728 0
M  V30 2255 O 214.464 1.06134 -1.62632 0
M  V30 2256 C 211.594 1.53624 -3.11475 0
M  V30 2257 C 210.548 1.02653 -4.15507 0
M  V30 2258 C 209.874 2.23971 -4.85532 0
M  V30 2259 C 211.174 0.08463 -5.22231 0
M  V30 2260 H 212.868 -0.229701 -2.98518 0
M  V30 2261 H 210.414 -0.111913 -1.43564 0
M  V30 2262 H 212.367 2.1165 -3.64393 0
M  V30 2263 H 211.091 2.20994 -2.40477 0
M  V30 2264 H 209.75 0.46871 -3.63591 0
M  V30 2265 H 209.398 2.89883 -4.11068 0
M  V30 2266 H 209.098 1.90521 -5.55856 0
M  V30 2267 H 210.622 2.82614 -5.41259 0
M  V30 2268 H 212.036 0.573509 -5.70424 0
M  V30 2269 H 210.433 -0.160783 -5.99885 0
M  V30 2270 H 211.503 -0.86237 -4.7717 0
M  V30 2271 N 212.846 1.57033 -0.133567 0
M  V30 2272 C 213.809 2.14897 0.796995 0
M  V30 2273 C 214.809 1.0874 1.18458 0
M  V30 2274 O 215.999 1.34446 1.1077 0
M  V30 2275 C 213.131 2.70112 2.07973 0
M  V30 2276 H 214.324 2.98457 0.293873 0
M  V30 2277 H 211.877 1.55871 0.115787 0
M  V30 2278 H 212.612 1.9018 2.62682 0
M  V30 2279 H 212.397 3.47764 1.81115 0
M  V30 2280 H 213.887 3.14738 2.74462 0
M  V30 2281 N 214.325 -0.140222 1.56975 0
M  V30 2282 C 215.255 -1.17456 2.01808 0
M  V30 2283 C 216.236 -1.44415 0.898794 0
M  V30 2284 O 217.421 -1.5522 1.16707 0
M  V30 2285 C 214.551 -2.50607 2.40444 0
M  V30 2286 C 213.505 -2.38155 3.55621 0
M  V30 2287 C 212.831 -3.76078 3.80091 0
M  V30 2288 C 214.131 -1.85991 4.88062 0
M  V30 2289 H 215.825 -0.801743 2.88466 0
M  V30 2290 H 213.371 -0.38422 1.38779 0
M  V30 2291 H 215.324 -3.23197 2.7041 0
M  V30 2292 H 214.048 -2.89737 1.50732 0
M  V30 2293 H 212.707 -1.68016 3.25832 0
M  V30 2294 H 212.355 -4.12656 2.87618 0
M  V30 2295 H 212.055 -3.68606 4.57606 0
M  V30 2296 H 213.579 -4.50206 4.12488 0
M  V30 2297 H 214.993 -2.4838 5.16701 0
M  V30 2298 H 213.39 -1.89393 5.6943 0
M  V30 2299 H 214.46 -0.816023 4.77984 0
M  V30 2300 N 215.803 -1.52179 -0.40978 0
M  V30 2301 C 217.028 -1.70347 -1.18308 0
M  V30 2302 C 217.453 -0.411887 -1.83535 0
M  V30 2303 O 216.811 0.630587 -1.6998 0
M  V30 2304 C 216.859 -2.83977 -2.22238 0
M  V30 2305 O 215.963 -2.495 -3.28365 0
M  V30 2306 H 215.304 -0.567103 -0.345384 0
M  V30 2307 H 217.834 -1.98879 -0.480445 0
M  V30 2308 H 217.844 -3.0887 -2.66577 0
M  V30 2309 H 216.519 -3.77685 -1.74146 0
M  V30 2310 H 215.096 -2.35277 -2.89308 0
M  V30 2311 N 217.281 0.66697 -1.42791 0
M  V30 2312 C 218.509 1.45505 -1.47091 0
M  V30 2313 C 218.924 1.8861 -0.0845873 0
M  V30 2314 O 218.281 1.58632 0.90234 0
M  V30 2315 C 218.332 2.69906 -2.40485 0
M  V30 2316 O 218.053 2.28608 -3.73725 0
M  V30 2317 C 219.554 3.63396 -2.53886 0
M  V30 2318 H 216.774 0.447459 -0.500022 0
M  V30 2319 H 219.318 0.818866 -1.8739 0
M  V30 2320 H 217.473 3.29696 -2.03419 0
M  V30 2321 H 217.887 3.08997 -4.23817 0
M  V30 2322 H 219.361 4.47387 -3.2334 0
M  V30 2323 H 219.838 4.09824 -1.57927 0
M  V30 2324 H 220.444 3.09495 -2.91706 0
M  V30 2325 N 218.759 1.29093 0.90403 0
M  V30 2326 C 219.722 1.1386 1.98919 0
M  V30 2327 C 220.722 0.0753457 1.60623 0
M  V30 2328 O 221.912 0.321931 1.71199 0
M  V30 2329 C 219.044 0.740198 3.32767 0
M  V30 2330 H 220.237 2.10246 2.13861 0
M  V30 2331 H 217.79 1.12218 1.08797 0
M  V30 2332 H 218.525 -0.223997 3.23525 0
M  V30 2333 H 218.31 1.50838 3.61926 0
M  V30 2334 H 219.8 0.656546 4.12407 0
M  V30 2335 N 220.237 -1.11381 1.11499 0
M  V30 2336 C 221.486 -1.82494 0.858993 0
M  V30 2337 C 221.799 -1.85605 -0.617278 0
M  V30 2338 O 223.005 -2.52824 -0.989552 0
M  V30 2339 C 221.461 -3.27745 1.48699 0
M  V30 2340 C 221.069 -3.32961 2.99735 0
M  V30 2341 C 222.813 -4.03754 1.31085 0
M  V30 2342 C 220.72 -4.72612 3.55516 0
M  V30 2343 H 219.65 -0.683802 0.317696 0
M  V30 2344 H 222.301 -1.25331 1.34031 0
M  V30 2345 H 220.683 -3.84844 0.933339 0
M  V30 2346 H 221.857 -2.85741 3.61509 0
M  V30 2347 H 220.172 -2.70433 3.16631 0
M  V30 2348 H 222.769 -5.06891 1.70192 0
M  V30 2349 H 223.112 -4.15527 0.253496 0
M  V30 2350 H 223.645 -3.53043 1.83318 0
M  V30 2351 H 220.384 -4.66036 4.60967 0
M  V30 2352 H 219.904 -5.2024 2.98513 0
M  V30 2353 H 221.583 -5.4157 3.53992 0
M  V30 2354 N 221.715 -0.905404 -1.28997 0
M  V30 2355 C 222.678 -0.392253 -2.25819 0
M  V30 2356 C 223.678 0.476753 -1.5357 0
M  V30 2357 O 224.868 0.280994 -1.71919 0
M  V30 2358 C 222 0.438588 -3.38067 0
M  V30 2359 H 223.193 -1.24743 -2.72725 0
M  V30 2360 H 220.746 -0.684051 -1.40536 0
M  V30 2361 H 221.481 1.31352 -2.96508 0
M  V30 2362 H 221.266 -0.184167 -3.91667 0
M  V30 2363 H 222.756 0.78873 -4.10084 0
M  V30 2364 N 223.193 1.4272 -0.668489 0
M  V30 2365 C 224.609 1.55992 -0.33745 0
M  V30 2366 C 224.809 1.64933 1.15756 0
M  V30 2367 O 223.865 1.61278 1.94282 0
M  V30 2368 C 225.178 2.81314 -1.06222 0
M  V30 2369 C 226.726 2.95078 -1.04394 0
M  V30 2370 C 227.201 4.23252 -1.74991 0
M  V30 2371 N 228.692 4.3015 -1.71829 0
M  V30 2372 C 229.427 5.28127 -2.23315 0
M  V30 2373 N 228.923 6.32293 -2.83156 0
M  V30 2374 N 230.716 5.19882 -2.13726 0
M  V30 2375 H 222.867 1.3516 -1.63846 0
M  V30 2376 H 225.13 0.650174 -0.689912 0
M  V30 2377 H 224.836 2.80823 -2.11734 0
M  V30 2378 H 224.71 3.72012 -0.62344 0
M  V30 2379 H 227.097 2.951 0.0028244 0
M  V30 2380 H 227.178 2.05627 -1.52155 0
M  V30 2381 H 226.822 4.2399 -2.79633 0
M  V30 2382 H 226.752 5.11626 -1.24685 0
M  V30 2383 H 229.243 3.55499 -1.28175 0
M  V30 2384 H 229.556 7.03398 -3.20079 0
M  V30 2385 H 227.901 6.32873 -2.87223 0
M  V30 2386 H 231.092 4.37423 -1.66669 0
M  V30 2387 H 231.265 5.96077 -2.54158 0
M  V30 2388 N 224.671 0.411399 1.52136 0
M  V30 2389 C 225.896 -0.165538 2.06738 0
M  V30 2390 C 226.321 -1.379 1.27926 0
M  V30 2391 O 225.679 -1.78628 0.310114 0
M  V30 2392 C 225.727 -0.492124 3.57226 0
M  V30 2393 O 224.831 -1.58276 3.80818 0
M  V30 2394 H 224.172 -0.0132132 0.663869 0
M  V30 2395 H 226.702 0.585253 1.96051 0
M  V30 2396 H 226.712 -0.750104 4.01045 0
M  V30 2397 H 225.387 0.394922 4.14021 0
M  V30 2398 H 223.964 -1.31677 3.48877 0
M  V30 2399 N 226.149 -1.5696 0.141893 0
M  V30 2400 C 227.397 -1.95573 -0.509484 0
M  V30 2401 C 227.718 -1.02746 -1.65736 0
M  V30 2402 O 226.988 -0.0880311 -1.95702 0
M  V30 2403 H 225.568 -0.722115 -0.191205 0
M  V30 2404 H 228.23 -1.93697 0.216196 0
M  V30 2405 H 227.326 -2.99171 -0.889 0
M  V30 2406 N 227.627 0.131896 -1.57047 0
M  V30 2407 C 228.56 1.19236 -1.94571 0
M  V30 2408 C 229.538 1.40782 -0.813576 0
M  V30 2409 O 230.722 1.55148 -1.07058 0
M  V30 2410 C 227.849 2.54858 -2.23081 0
M  V30 2411 C 226.895 2.49817 -3.45679 0
M  V30 2412 S 227.728 1.95036 -4.98719 0
M  V30 2413 C 228.884 3.32357 -5.30367 0
M  V30 2414 H 229.117 0.872297 -2.84215 0
M  V30 2415 H 226.65 0.338134 -1.50652 0
M  V30 2416 H 228.608 3.32898 -2.40185 0
M  V30 2417 H 227.269 2.84047 -1.34074 0
M  V30 2418 H 226.462 3.49688 -3.62952 0
M  V30 2419 H 226.064 1.79892 -3.27895 0
M  V30 2420 H 228.356 4.28525 -5.2476 0
M  V30 2421 H 229.299 3.19923 -6.31708 0
M  V30 2422 H 229.707 3.3019 -4.57859 0
M  V30 2423 N 229.106 1.52395 0.401703 0
M  V30 2424 C 230.354 1.66488 1.14569 0
M  V30 2425 C 230.675 0.400897 1.90835 0
M  V30 2426 O 229.945 -0.584415 1.8698 0
M  V30 2427 H 228.525 0.613672 0.425929 0
M  V30 2428 H 231.187 1.89464 0.457093 0
M  V30 2429 H 230.283 2.50942 1.85566 0
M  V30 2430 N 230.584 -0.659388 1.43143 0
M  V30 2431 C 231.514 -1.78422 1.50625 0
M  V30 2432 C 232.495 -1.66216 0.361443 0
M  V30 2433 O 233.68 -1.85404 0.577834 0
M  V30 2434 C 230.81 -3.16815 1.42287 0
M  V30 2435 C 229.764 -3.43777 2.54954 0
M  V30 2436 C 229.09 -4.81905 2.31671 0
M  V30 2437 C 230.39 -3.39134 3.97222 0
M  V30 2438 H 232.084 -1.72417 2.44771 0
M  V30 2439 H 229.63 -0.828084 1.17808 0
M  V30 2440 H 231.583 -3.95253 1.46127 0
M  V30 2441 H 230.307 -3.23534 0.446435 0
M  V30 2442 H 228.966 -2.67707 2.50457 0
M  V30 2443 H 228.614 -4.85294 1.32284 0
M  V30 2444 H 228.314 -5.00906 3.07192 0
M  V30 2445 H 229.838 -5.62609 2.37284 0
M  V30 2446 H 231.252 -4.07518 4.03239 0
M  V30 2447 H 229.649 -3.69671 4.72719 0
M  V30 2448 H 230.719 -2.37426 4.22797 0
M  V30 2449 N 232.062 -1.29571 -0.897171 0
M  V30 2450 C 233.29 -1.20583 -1.68129 0
M  V30 2451 C 233.705 0.233181 -1.87354 0
M  V30 2452 O 233.062 1.15579 -1.41236 0
M  V30 2453 C 233.113 -1.91772 -3.06441 0
M  V30 2454 O 232.834 -3.30053 -2.88091 0
M  V30 2455 C 234.335 -1.89291 -4.00854 0
M  V30 2456 H 231.555 -0.417826 -0.525036 0
M  V30 2457 H 234.099 -1.70987 -1.12177 0
M  V30 2458 H 232.254 -1.45196 -3.59161 0
M  V30 2459 H 232.668 -3.65942 -3.75748 0
M  V30 2460 H 234.142 -2.43662 -4.95311 0
M  V30 2461 H 234.619 -0.869014 -4.30517 0
M  V30 2462 H 235.225 -2.35622 -3.54066 0
M  V30 2463 N 233.54 1.10788 -1.12088 0
M  V30 2464 C 234.787 1.82671 -0.873931 0
M  V30 2465 C 235.115 1.85004 0.600311 0
M  V30 2466 O 234.37 1.30365 1.45957 0
M  V30 2467 C 234.669 3.29294 -1.38926 0
M  V30 2468 C 234.335 3.47113 -2.87791 0
M  V30 2469 C 232.997 3.51684 -3.28439 0
M  V30 2470 C 235.349 3.52808 -3.83635 0
M  V30 2471 C 232.677 3.59513 -4.63646 0
M  V30 2472 C 235.029 3.62169 -5.18668 0
M  V30 2473 C 233.693 3.65003 -5.58864 0
M  V30 2474 H 232.963 0.668441 -0.319794 0
M  V30 2475 H 235.61 1.30613 -1.40045 0
M  V30 2476 H 233.915 3.83894 -0.783122 0
M  V30 2477 H 235.612 3.83416 -1.17443 0
M  V30 2478 H 232.202 3.4423 -2.5535 0
M  V30 2479 H 236.386 3.4853 -3.53328 0
M  V30 2480 H 231.642 3.59987 -4.94185 0
M  V30 2481 H 235.816 3.6552 -5.92763 0
M  V30 2482 H 233.443 3.70822 -6.63623 0
M  V30 2483 N 235.018 0.912232 1.28515 0
M  V30 2484 C 235.948 0.416403 2.29757 0
M  V30 2485 C 236.929 -0.515194 1.6211 0
M  V30 2486 O 238.114 -0.423253 1.89532 0
M  V30 2487 C 235.244 -0.34572 3.45575 0
M  V30 2488 C 234.198 0.496599 4.25109 0
M  V30 2489 C 233.524 -0.393771 5.33248 0
M  V30 2490 C 234.824 1.75307 4.92001 0
M  V30 2491 H 236.518 1.26249 2.7148 0
M  V30 2492 H 234.064 0.608515 1.30511 0
M  V30 2493 H 236.017 -0.703422 4.15488 0
M  V30 2494 H 234.741 -1.2257 3.02728 0
M  V30 2495 H 233.4 0.8368 3.56922 0
M  V30 2496 H 233.048 -1.27225 4.86644 0
M  V30 2497 H 232.748 0.166209 5.87365 0
M  V30 2498 H 234.272 -0.747389 6.06009 0
M  V30 2499 H 235.686 1.46437 5.54283 0
M  V30 2500 H 234.083 2.25534 5.56106 0
M  V30 2501 H 235.153 2.48176 4.16577 0
M  V30 2502 N 236.496 -1.42363 0.676048 0
M  V30 2503 C 237.426 -2.33497 0.0124832 0
M  V30 2504 C 238.407 -1.50748 -0.787981 0
M  V30 2505 O 239.592 -1.79346 -0.744884 0
M  V30 2506 C 236.722 -3.34377 -0.938582 0
M  V30 2507 C 235.676 -4.27289 -0.246622 0
M  V30 2508 C 235.002 -5.18386 -1.31071 0
M  V30 2509 C 236.302 -5.14916 0.875125 0
M  V30 2510 H 237.996 -2.89233 0.773593 0
M  V30 2511 H 235.542 -1.39073 0.37346 0
M  V30 2512 H 237.495 -3.97044 -1.41188 0
M  V30 2513 H 236.219 -2.76947 -1.73113 0
M  V30 2514 H 234.878 -3.66018 0.206456 0
M  V30 2515 H 234.526 -4.57282 -2.09528 0
M  V30 2516 H 234.226 -5.81378 -0.852839 0
M  V30 2517 H 235.75 -5.83929 -1.78492 0
M  V30 2518 H 237.164 -5.71262 0.482983 0
M  V30 2519 H 235.561 -5.86747 1.25887 0
M  V30 2520 H 236.631 -4.53242 1.72335 0
M  V30 2521 N 237.974 -0.419461 -1.51915 0
M  V30 2522 C 238.937 0.389116 -2.25873 0
M  V30 2523 C 239.937 0.964924 -1.28631 0
M  V30 2524 O 241.127 0.842179 -1.52489 0
M  V30 2525 C 238.259 1.54874 -3.03689 0
M  V30 2526 H 239.452 -0.258799 -2.98781 0
M  V30 2527 H 237.005 -0.172209 -1.55348 0
M  V30 2528 H 237.74 2.23323 -2.35154 0
M  V30 2529 H 237.525 1.14223 -3.75094 0
M  V30 2530 H 239.015 2.12046 -3.59759 0
M  V30 2531 N 239.452 1.56882 -0.150215 0
M  V30 2532 C 240.863 1.82995 0.370076 0
M  V30 2533 C 241.214 1.06907 1.64515 0
M  V30 2534 O 240.339 0.315369 2.1409 0
M  V30 2535 C 240.934 3.31942 0.678208 0
M  V30 2536 C 239.493 3.58625 1.14301 0
M  V30 2537 C 238.64 2.76792 0.167778 0
M  V30 2538 H 241.591 1.54209 -0.374858 0
M  V30 2539 H 241.612 3.48272 1.53254 0
M  V30 2540 H 241.124 3.87294 -0.249991 0
M  V30 2541 H 239.225 3.08664 2.08704 0
M  V30 2542 H 239.338 4.67073 1.06676 0
M  V30 2543 H 237.702 2.45972 0.661037 0
M  V30 2544 H 238.485 3.34916 -0.754069 0
M  V30 2545 N 240.93 -0.123565 1.57115 0
M  V30 2546 C 242.177 -0.832153 1.84612 0
M  V30 2547 C 242.505 -1.80093 0.734627 0
M  V30 2548 O 241.76 -1.93766 -0.27442 0
M  V30 2549 C 242.059 -1.62016 3.18568 0
M  V30 2550 C 241.725 -0.796084 4.43817 0
M  V30 2551 C 240.387 -0.568816 4.77826 0
M  V30 2552 C 242.739 -0.221364 5.2073 0
M  V30 2553 C 240.067 0.243499 5.86194 0
M  V30 2554 C 242.419 0.578117 6.29953 0
M  V30 2555 C 241.083 0.815744 6.62497 0
M  V30 2556 H 240.353 -0.304507 0.675542 0
M  V30 2557 H 243 -0.0947248 1.91266 0
M  V30 2558 H 241.305 -2.42837 3.0747 0
M  V30 2559 H 243.002 -2.17231 3.37064 0
M  V30 2560 H 239.592 -0.983307 4.17168 0
M  V30 2561 H 243.776 -0.384173 4.94811 0
M  V30 2562 H 239.032 0.436871 6.09837 0
M  V30 2563 H 243.206 1.03046 6.88734 0
M  V30 2564 H 240.833 1.44701 7.46301 0
M  V30 2565 N 242.408 -1.52605 -0.393616 0
M  V30 2566 C 243.636 -1.71294 -1.16043 0
M  V30 2567 C 244.051 -0.429259 -1.83855 0
M  V30 2568 O 243.408 0.595921 -1.72496 0
M  V30 2569 C 243.459 -2.8593 -2.21193 0
M  V30 2570 O 243.18 -4.09329 -1.56146 0
M  V30 2571 C 244.681 -3.16259 -3.10636 0
M  V30 2572 H 241.901 -0.573641 -0.348104 0
M  V30 2573 H 244.445 -1.99234 -0.461092 0
M  V30 2574 H 242.6 -2.60465 -2.86769 0
M  V30 2575 H 243.014 -4.73323 -2.25978 0
M  V30 2576 H 244.488 -3.99946 -3.80456 0
M  V30 2577 H 244.965 -2.3045 -3.73884 0
M  V30 2578 H 245.571 -3.43547 -2.50711 0
M  V30 2579 N 243.887 0.651787 -1.4349 0
M  V30 2580 C 244.834 1.76462 -1.4876 0
M  V30 2581 C 245.804 1.62641 -0.337189 0
M  V30 2582 O 246.989 1.82864 -0.544544 0
M  V30 2583 C 244.129 3.14623 -1.41796 0
M  V30 2584 C 243.242 3.39568 -2.67053 0
M  V30 2585 C 242.377 4.67585 -2.52068 0
M  V30 2586 C 241.416 4.85639 -3.72587 0
M  V30 2587 N 240.553 6.04915 -3.56402 0
M  V30 2588 H 245.393 1.71293 -2.43849 0
M  V30 2589 H 242.93 0.835889 -1.21043 0
M  V30 2590 H 244.888 3.94496 -1.35753 0
M  V30 2591 H 243.518 3.18859 -0.50288 0
M  V30 2592 H 242.57 2.53783 -2.8337 0
M  V30 2593 H 243.882 3.48795 -3.56572 0
M  V30 2594 H 243.036 5.55586 -2.4374 0
M  V30 2595 H 241.775 4.60681 -1.60075 0
M  V30 2596 H 240.78 3.96073 -3.81321 0
M  V30 2597 H 242.005 4.94372 -4.65589 0
M  V30 2598 H 239.951 5.9914 -2.67146 0
M  V30 2599 H 239.868 6.15106 -4.39524 0
M  V30 2600 H 241.136 6.95533 -3.51929 0
M  V30 2601 N 245.365 1.30045 0.890287 0
M  V30 2602 C 246.612 1.18561 1.64163 0
M  V30 2603 C 246.94 -0.260852 1.92743 0
M  V30 2604 O 246.195 -1.20376 1.54299 0
M  V30 2605 C 246.494 1.95409 2.99249 0
M  V30 2606 C 246.16 3.45066 2.90242 0
M  V30 2607 C 244.822 3.85878 2.87492 0
M  V30 2608 C 247.174 4.4039 2.78758 0
M  V30 2609 C 244.502 5.20314 2.7109 0
M  V30 2610 C 246.854 5.74928 2.63894 0
M  V30 2611 C 245.518 6.14986 2.59516 0
M  V30 2612 H 244.788 0.433846 0.600715 0
M  V30 2613 H 247.435 1.61088 1.03552 0
M  V30 2614 H 245.74 1.45501 3.63781 0
M  V30 2615 H 247.437 1.8392 3.56334 0
M  V30 2616 H 244.027 3.12631 2.93189 0
M  V30 2617 H 248.211 4.09806 2.79952 0
M  V30 2618 H 243.467 5.50449 2.66112 0
M  V30 2619 H 247.641 6.48434 2.53981 0
M  V30 2620 H 245.268 7.19104 2.46565 0
M  V30 2621 N 246.843 -1.10192 1.12674 0
M  V30 2622 C 247.773 -2.18652 0.819362 0
M  V30 2623 C 248.754 -1.68698 -0.217915 0
M  V30 2624 O 249.939 -1.94041 -0.0785581 0
M  V30 2625 C 247.069 -3.46202 0.27594 0
M  V30 2626 C 246.023 -4.09444 1.24656 0
M  V30 2627 C 245.349 -5.31725 0.563258 0
M  V30 2628 C 246.649 -4.52863 2.60217 0
M  V30 2629 H 248.343 -2.44622 1.72628 0
M  V30 2630 H 245.889 -1.17571 0.831451 0
M  V30 2631 H 247.842 -4.21372 0.0486149 0
M  V30 2632 H 246.566 -3.1973 -0.666331 0
M  V30 2633 H 245.225 -3.36284 1.45974 0
M  V30 2634 H 244.873 -5.0153 -0.384235 0
M  V30 2635 H 244.573 -5.74991 1.21075 0
M  V30 2636 H 246.097 -6.09624 0.34503 0
M  V30 2637 H 247.511 -5.19294 2.42913 0
M  V30 2638 H 245.908 -5.06986 3.21068 0
M  V30 2639 H 246.978 -3.65656 3.18471 0
M  V30 2640 N 248.321 -0.919034 -1.28029 0
M  V30 2641 C 249.57 -0.550802 -1.94034 0
M  V30 2642 C 249.883 0.910877 -1.73096 0
M  V30 2643 O 251.089 1.3875 -2.33368 0
M  V30 2644 C 249.545 -0.934249 -3.47563 0
M  V30 2645 C 249.153 -2.41602 -3.7727 0
M  V30 2646 C 250.897 -0.636854 -4.19696 0
M  V30 2647 C 248.804 -2.73932 -5.24133 0
M  V30 2648 H 247.734 -0.202273 -0.726362 0
M  V30 2649 H 250.385 -1.11867 -1.45458 0
M  V30 2650 H 248.767 -0.295115 -3.94899 0
M  V30 2651 H 249.941 -3.10233 -3.40723 0
M  V30 2652 H 248.256 -2.68441 -3.18321 0
M  V30 2653 H 250.853 -0.855005 -5.2782 0
M  V30 2654 H 251.196 0.425575 -4.14119 0
M  V30 2655 H 251.729 -1.23469 -3.78154 0
M  V30 2656 H 248.468 -3.79049 -5.34792 0
M  V30 2657 H 247.988 -2.09942 -5.61858 0
M  V30 2658 H 249.667 -2.61215 -5.91925 0
M  V30 2659 N 249.799 1.42003 -0.683588 0
M  V30 2660 C 251.076 1.95112 -0.138075 0
M  V30 2661 C 251.456 1.62359 1.34918 0
M  V30 2662 O 250.804 0.924311 2.08971 0
M  V30 2663 C 251.014 3.46505 -0.416581 0
M  V30 2664 C 252.362 4.23254 -0.337834 0
M  V30 2665 O 253.386 3.54468 -0.35082 0
M  V30 2666 O 252.245 5.45743 -0.287596 0
M  V30 2667 H 249.339 0.826961 -0.00797996 0
M  V30 2668 H 251.885 1.51784 -0.758924 0
M  V30 2669 H 250.657 3.63582 -1.4465 0
M  V30 2670 H 250.28 3.969 0.235839 0
M  V30 2671 N 251.277 0.427512 1.51691 0
M  V30 2672 C 252.207 -0.3796 2.30394 0
M  V30 2673 C 253.188 -1.02982 1.35384 0
M  V30 2674 O 254.373 -1.03534 1.643 0
M  V30 2675 C 251.503 -1.48649 3.1388 0
M  V30 2676 C 250.457 -0.960294 4.17088 0
M  V30 2677 C 249.783 -2.16219 4.89033 0
M  V30 2678 C 251.083 -0.00153679 5.223 0
M  V30 2679 H 252.777 0.277164 2.98114 0
M  V30 2680 H 250.323 0.134739 1.43368 0
M  V30 2681 H 252.276 -2.05826 3.67714 0
M  V30 2682 H 251 -2.1714 2.43962 0
M  V30 2683 H 249.659 -0.410806 3.64291 0
M  V30 2684 H 249.307 -2.83307 4.15628 0
M  V30 2685 H 249.007 -1.81654 5.58816 0
M  V30 2686 H 250.531 -2.73968 5.45687 0
M  V30 2687 H 251.945 -0.482687 5.71264 0
M  V30 2688 H 250.342 0.256199 5.99553 0
M  V30 2689 H 251.412 0.938174 4.75738 0
M  V30 2690 N 252.755 -1.56801 0.158532 0
M  V30 2691 C 253.985 -2.00568 -0.495583 0
M  V30 2692 C 254.393 -1.03774 -1.58201 0
M  V30 2693 O 253.736 -0.0285797 -1.83678 0
M  V30 2694 C 253.798 -3.40768 -1.14532 0
M  V30 2695 C 253.462 -4.56553 -0.202101 0
M  V30 2696 C 254.459 -5.16714 0.574675 0
M  V30 2697 C 252.144 -5.02197 -0.101648 0
M  V30 2698 C 254.138 -6.20939 1.43924 0
M  V30 2699 C 251.825 -6.06274 0.766508 0
M  V30 2700 C 252.823 -6.65515 1.53555 0
M  V30 2701 O 252.511 -7.67575 2.38922 0
M  V30 2702 H 252.243 -0.662893 -0.13247 0
M  V30 2703 H 254.797 -2.03829 0.253559 0
M  V30 2704 H 253.027 -3.34381 -1.94233 0
M  V30 2705 H 254.716 -3.6857 -1.70033 0
M  V30 2706 H 255.482 -4.82341 0.507167 0
M  V30 2707 H 251.361 -4.55807 -0.689994 0
M  V30 2708 H 254.905 -6.67107 2.03996 0
M  V30 2709 H 250.802 -6.40073 0.835266 0
M  V30 2710 H 251.57 -7.84844 2.32296 0
M  V30 2711 N 254.233 0.115231 -1.57178 0
M  V30 2712 C 255.51 0.852873 -1.76027 0
M  V30 2713 C 255.89 1.97892 -0.73498 0
M  V30 2714 O 255.238 2.27232 0.24036 0
M  V30 2715 C 255.448 1.36608 -3.21153 0
M  V30 2716 C 256.796 1.81692 -3.83762 0
M  V30 2717 O 257.82 1.46278 -3.24779 0
M  V30 2718 O 256.679 2.47104 -4.87444 0
M  V30 2719 H 253.773 0.405296 -0.720877 0
M  V30 2720 H 256.319 0.0986785 -1.69413 0
M  V30 2721 H 255.091 0.558357 -3.87296 0
M  V30 2722 H 254.714 2.18287 -3.3232 0
M  V30 2723 N 255.711 1.52812 0.385517 0
M  V30 2724 C 256.957 1.69225 1.12847 0
M  V30 2725 C 257.312 0.42864 1.87564 0
M  V30 2726 O 256.605 -0.57779 1.8268 0
M  V30 2727 C 256.799 2.86856 2.13187 0
M  V30 2728 C 256.628 4.24535 1.48325 0
M  V30 2729 C 255.398 4.89701 1.24585 0
M  V30 2730 C 257.596 5.05794 0.931501 0
M  V30 2731 N 255.578 6.11353 0.558644 0
M  V30 2732 C 256.949 6.1888 0.372552 0
M  V30 2733 C 259.004 4.90963 0.828248 0
M  V30 2734 C 257.707 7.18757 -0.279556 0
M  V30 2735 C 259.733 5.91095 0.189956 0
M  V30 2736 C 259.095 7.03489 -0.358207 0
M  V30 2737 H 255.194 0.67268 0.39878 0
M  V30 2738 H 257.778 1.9017 0.417528 0
M  V30 2739 H 255.949 2.67484 2.81614 0
M  V30 2740 H 257.681 2.92188 2.80014 0
M  V30 2741 H 254.436 4.48485 1.52178 0
M  V30 2742 H 254.86 6.76606 0.230983 0
M  V30 2743 H 259.502 4.04274 1.23784 0
M  V30 2744 H 257.22 8.05052 -0.701152 0
M  V30 2745 H 260.806 5.81694 0.111264 0
M  V30 2746 H 259.686 7.79642 -0.844314 0
M  V30 2747 N 257.189 -0.644168 1.43834 0
M  V30 2748 C 258.417 -1.43147 1.49387 0
M  V30 2749 C 258.832 -1.88452 0.114583 0
M  V30 2750 O 258.189 -1.60047 -0.876989 0
M  V30 2751 C 258.24 -2.66046 2.44748 0
M  V30 2752 O 257.961 -2.22633 3.77314 0
M  V30 2753 C 259.462 -3.59311 2.59635 0
M  V30 2754 H 256.682 -0.439447 0.507077 0
M  V30 2755 H 259.226 -0.78895 1.88669 0
M  V30 2756 H 257.381 -3.26418 2.08638 0
M  V30 2757 H 257.795 -3.02216 4.28679 0
M  V30 2758 H 259.269 -4.42187 3.30416 0
M  V30 2759 H 259.746 -4.07259 1.64427 0
M  V30 2760 H 260.352 -3.04816 2.96593 0
M  V30 2761 N 258.668 -1.30515 -0.883378 0
M  V30 2762 C 259.916 -1.19194 -1.63209 0
M  V30 2763 C 260.237 0.253205 -1.93349 0
M  V30 2764 O 259.507 1.17025 -1.57105 0
M  V30 2765 H 258.087 -0.438148 -0.605009 0
M  V30 2766 H 260.749 -1.63663 -1.05832 0
M  V30 2767 H 259.845 -1.75396 -2.58153 0
M  V30 2768 N 260.146 1.09593 -1.13257 0
M  V30 2769 C 261.109 2.14359 -0.811358 0
M  V30 2770 C 262.109 1.59808 0.178377 0
M  V30 2771 O 263.299 1.74132 -0.0484911 0
M  V30 2772 C 260.431 3.40269 -0.207276 0
M  V30 2773 H 261.624 2.44284 -1.73969 0
M  V30 2774 H 259.177 1.25102 -0.936973 0
M  V30 2775 H 259.912 3.15969 0.73036 0
M  V30 2776 H 259.697 3.81154 -0.919992 0
M  V30 2777 H 261.187 4.176 0.000667944 0
M  V30 2778 N 261.624 0.925811 1.2754 0
M  V30 2779 C 262.554 0.440748 2.29303 0
M  V30 2780 C 263.535 -0.497971 1.62648 0
M  V30 2781 O 264.72 -0.403126 1.8997 0
M  V30 2782 C 261.85 -0.309048 3.45922 0
M  V30 2783 C 260.804 0.54166 4.24559 0
M  V30 2784 C 260.13 -0.337191 5.33636 0
M  V30 2785 C 261.43 1.80516 4.90114 0
M  V30 2786 H 263.124 1.29121 2.70126 0
M  V30 2787 H 260.67 0.622323 1.29858 0
M  V30 2788 H 262.623 -0.659315 4.1621 0
M  V30 2789 H 261.347 -1.19352 3.04011 0
M  V30 2790 H 260.006 0.874609 3.56014 0
M  V30 2791 H 259.654 -1.22056 4.87966 0
M  V30 2792 H 259.354 0.228497 5.87156 0
M  V30 2793 H 260.878 -0.683072 6.06767 0
M  V30 2794 H 262.292 1.52307 5.52698 0
M  V30 2795 H 260.689 2.3142 5.53683 0
M  V30 2796 H 261.759 2.52581 4.13921 0
M  V30 2797 N 263.102 -1.41638 0.69111 0
M  V30 2798 C 264.351 -2.00526 0.217318 0
M  V30 2799 C 264.664 -1.55353 -1.18848 0
M  V30 2800 O 265.87 -2.06769 -1.75951 0
M  V30 2801 C 264.326 -3.58313 0.337639 0
M  V30 2802 C 263.934 -4.12469 1.74852 0
M  V30 2803 C 265.678 -4.24431 -0.0766066 0
M  V30 2804 C 263.585 -5.62675 1.82074 0
M  V30 2805 H 262.515 -0.750008 0.0774893 0
M  V30 2806 H 265.166 -1.6217 0.858661 0
M  V30 2807 H 263.548 -3.9425 -0.371879 0
M  V30 2808 H 264.722 -3.8796 2.48644 0
M  V30 2809 H 263.037 -3.58861 2.11205 0
M  V30 2810 H 265.634 -5.34683 -0.0430284 0
M  V30 2811 H 265.977 -4.01101 -1.1146 0
M  V30 2812 H 266.51 -3.93512 0.582476 0
M  V30 2813 H 263.249 -5.90826 2.83911 0
M  V30 2814 H 262.769 -5.89124 1.12661 0
M  V30 2815 H 264.448 -6.27371 1.58159 0
M  V30 2816 N 264.58 -0.43555 -1.51462 0
M  V30 2817 C 265.51 0.367376 -2.30592 0
M  V30 2818 C 266.491 1.02263 -1.35928 0
M  V30 2819 O 267.676 1.02661 -1.64847 0
M  V30 2820 C 264.806 1.46983 -3.14664 0
M  V30 2821 C 263.76 0.938161 -4.17591 0
M  V30 2822 C 263.086 2.13622 -4.90173 0
M  V30 2823 C 264.386 -0.0261621 -5.22293 0
M  V30 2824 H 266.08 -0.292969 -2.97963 0
M  V30 2825 H 263.626 -0.14234 -1.43295 0
M  V30 2826 H 265.579 2.03873 -3.688 0
M  V30 2827 H 264.303 2.15843 -2.4511 0
M  V30 2828 H 262.962 0.391481 -3.64504 0
M  V30 2829 H 262.61 2.81098 -4.17124 0
M  V30 2830 H 262.31 1.78688 -5.59772 0
M  V30 2831 H 263.834 2.7107 -5.47132 0
M  V30 2832 H 265.248 0.452384 -5.71512 0
M  V30 2833 H 263.645 -0.287992 -5.99409 0
M  V30 2834 H 264.715 -0.963391 -4.75233 0
M  V30 2835 N 266.058 1.56714 -0.166846 0
M  V30 2836 C 267.305 1.96747 0.479252 0
M  V30 2837 C 267.633 1.05263 1.63554 0
M  V30 2838 O 266.888 0.0858098 1.95512 0
M  V30 2839 C 267.187 3.42889 1.00806 0
M  V30 2840 C 266.853 4.50889 -0.0318574 0
M  V30 2841 C 265.515 4.8015 -0.317675 0
M  V30 2842 C 267.867 5.15949 -0.737956 0
M  V30 2843 C 265.195 5.71772 -1.31506 0
M  V30 2844 C 267.547 6.08647 -1.72429 0
M  V30 2845 C 266.211 6.36277 -2.0176 0
M  V30 2846 H 265.481 0.719949 0.175371 0
M  V30 2847 H 268.128 1.89756 -0.257864 0
M  V30 2848 H 266.433 3.4681 1.82291 0
M  V30 2849 H 268.13 3.71203 1.51689 0
M  V30 2850 H 264.72 4.28128 0.201088 0
M  V30 2851 H 268.904 4.93458 -0.530351 0
M  V30 2852 H 264.16 5.91465 -1.54853 0
M  V30 2853 H 268.334 6.58129 -2.27682 0
M  V30 2854 H 265.961 7.07075 -2.79194 0
M  V30 2855 N 267.536 -0.106894 1.57237 0
M  V30 2856 C 268.784 -0.810921 1.85117 0
M  V30 2857 C 269.105 -1.7984 0.753827 0
M  V30 2858 O 268.375 -1.94649 -0.221056 0
M  V30 2859 H 266.955 -0.302466 0.683025 0
M  V30 2860 H 269.617 -0.0913324 1.94686 0
M  V30 2861 H 268.713 -1.34875 2.81452 0
M  V30 2862 N 269.014 -1.53014 -0.377408 0
M  V30 2863 C 269.977 -1.77957 -1.44444 0
M  V30 2864 C 270.977 -0.649763 -1.47087 0
M  V30 2865 O 272.167 -0.917897 -1.48055 0
M  V30 2866 C 269.299 -1.89089 -2.83651 0
M  V30 2867 H 270.492 -2.73243 -1.23606 0
M  V30 2868 H 268.045 -1.43912 -0.609844 0
M  V30 2869 H 268.78 -0.958293 -3.09818 0
M  V30 2870 H 268.565 -2.71254 -2.83132 0
M  V30 2871 H 270.055 -2.1002 -3.60945 0
M  V30 2872 N 270.492 0.636531 -1.44174 0
M  V30 2873 C 271.741 1.39213 -1.45954 0
M  V30 2874 C 272.054 1.95374 -0.0939119 0
M  V30 2875 O 273.26 2.71498 0.0107767 0
M  V30 2876 C 271.716 2.52025 -2.56927 0
M  V30 2877 C 271.324 2.024 -3.99673 0
M  V30 2878 C 273.068 3.29269 -2.67922 0
M  V30 2879 C 270.975 3.12521 -5.0208 0
M  V30 2880 H 269.905 0.523132 -0.542999 0
M  V30 2881 H 272.556 0.685349 -1.70221 0
M  V30 2882 H 270.938 3.25253 -2.25891 0
M  V30 2883 H 272.112 1.36073 -4.40251 0
M  V30 2884 H 270.427 1.37987 -3.92872 0
M  V30 2885 H 273.024 4.11352 -3.41605 0
M  V30 2886 H 273.367 3.78397 -1.73555 0
M  V30 2887 H 273.9 2.63129 -2.98342 0
M  V30 2888 H 270.639 2.68343 -5.98057 0
M  V30 2889 H 270.159 3.77507 -4.66099 0
M  V30 2890 H 271.838 3.77385 -5.25538 0
M  V30 2891 N 271.97 1.30982 0.876444 0
M  V30 2892 C 272.933 1.18054 1.96459 0
M  V30 2893 C 273.933 0.109399 1.60427 0
M  V30 2894 O 275.123 0.358173 1.70478 0
M  V30 2895 C 272.255 0.810616 3.31122 0
M  V30 2896 H 273.448 2.14735 2.09354 0
M  V30 2897 H 271.001 1.145 1.06392 0
M  V30 2898 H 271.736 -0.155322 3.23928 0
M  V30 2899 H 271.521 1.58481 3.58645 0
M  V30 2900 H 273.011 0.743876 4.10921 0
M  V30 2901 N 273.449 -1.08991 1.13837 0
M  V30 2902 C 274.379 -2.17771 0.842507 0
M  V30 2903 C 275.36 -1.6892 -0.20001 0
M  V30 2904 O 276.545 -1.94113 -0.0579731 0
M  V30 2905 C 273.675 -3.4589 0.312644 0
M  V30 2906 C 272.629 -4.08099 1.28992 0
M  V30 2907 C 271.955 -5.31098 0.619623 0
M  V30 2908 C 273.255 -4.50077 2.65005 0
M  V30 2909 H 274.949 -2.42777 1.75213 0
M  V30 2910 H 272.495 -1.16682 0.843875 0
M  V30 2911 H 274.448 -4.21297 0.0933043 0
M  V30 2912 H 273.172 -3.20419 -0.632382 0
M  V30 2913 H 271.831 -3.34717 1.49533 0
M  V30 2914 H 271.479 -5.0191 -0.33102 0
M  V30 2915 H 271.179 -5.73674 1.27167 0
M  V30 2916 H 272.703 -6.09224 0.409669 0
M  V30 2917 H 274.117 -5.16688 2.48407 0
M  V30 2918 H 272.514 -5.03553 3.26427 0
M  V30 2919 H 273.584 -3.62257 3.22332 0
M  V30 2920 N 274.927 -0.932562 -1.27047 0
M  V30 2921 C 275.875 -0.42603 -2.28665 0
M  V30 2922 C 276.869 0.49219 -1.62092 0
M  V30 2923 O 278.075 0.371355 -1.76128 0
M  V30 2924 H 274.45 -0.119213 -0.742491 0
M  V30 2925 H 276.421 -1.29579 -2.68797 0
M  V30 2926 C 275.17 0.301426 -3.46391 0
M  V30 2927 H 274.493 -0.39595 -3.97834 0
M  V30 2928 H 275.933 0.6202 -4.1944 0
M  V30 2929 C 274.392 1.51616 -3.00856 0
M  V30 2930 O 274.922 2.61476 -3.04948 0
M  V30 2931 N 273.128 1.36969 -2.56296 0
M  V30 2932 H 272.675 0.475873 -2.53166 0
M  V30 2933 H 272.633 2.18368 -2.26192 0
M  V30 2934 N 276.405 1.4127 -0.698611 0
M  V30 2935 C 277.335 2.33447 -0.049629 0
M  V30 2936 C 278.316 1.51982 0.763898 0
M  V30 2937 O 279.501 1.80509 0.716257 0
M  V30 2938 C 276.631 3.35828 0.885267 0
M  V30 2939 C 275.585 4.27627 0.178613 0
M  V30 2940 C 274.911 5.20406 1.22807 0
M  V30 2941 C 276.211 5.13459 -0.956933 0
M  V30 2942 H 277.905 2.87966 -0.81951 0
M  V30 2943 H 275.451 1.38461 -0.395538 0
M  V30 2944 H 277.404 3.9924 1.34854 0
M  V30 2945 H 276.128 2.79666 1.68685 0
M  V30 2946 H 274.787 3.65643 -0.26466 0
M  V30 2947 H 274.435 4.60558 2.02226 0
M  V30 2948 H 274.135 5.82661 0.760239 0
M  V30 2949 H 275.659 5.86695 1.69179 0
M  V30 2950 H 277.073 5.70421 -0.573805 0
M  V30 2951 H 275.47 5.8467 -1.35205 0
M  V30 2952 H 276.54 4.50443 -1.79524 0
M  V30 2953 N 277.883 0.443576 1.51229 0
M  V30 2954 C 279.129 -0.120975 2.02439 0
M  V30 2955 C 279.462 -1.41815 1.32674 0
M  V30 2956 O 278.737 -1.89373 0.443622 0
M  V30 2957 C 279.02 -0.333291 3.58554 0
M  V30 2958 C 278.873 0.982968 4.38928 0
M  V30 2959 C 280.192 -1.10028 4.26124 0
M  V30 2960 H 277.311 -0.0424923 0.735774 0
M  V30 2961 H 279.953 0.583794 1.80809 0
M  V30 2962 H 278.103 -0.933614 3.77115 0
M  V30 2963 H 279.775 1.61775 4.32003 0
M  V30 2964 H 278.018 1.58611 4.03763 0
M  V30 2965 H 278.689 0.788379 5.46341 0
M  V30 2966 H 281.165 -0.591711 4.11871 0
M  V30 2967 H 280.041 -1.21761 5.35225 0
M  V30 2968 H 280.302 -2.12996 3.87408 0
M  V30 2969 N 279.361 -1.56624 0.175154 0
M  V30 2970 C 280.772 -1.83561 -0.340916 0
M  V30 2971 C 281.123 -1.09511 -1.62794 0
M  V30 2972 O 280.248 -0.349389 -2.13561 0
M  V30 2973 C 280.843 -3.32979 -0.625313 0
M  V30 2974 C 279.402 -3.60399 -1.08581 0
M  V30 2975 C 278.549 -2.77024 -0.123722 0
M  V30 2976 H 281.5 -1.53593 0.399344 0
M  V30 2977 H 281.521 -3.50666 -1.47694 0
M  V30 2978 H 281.033 -3.86847 0.311575 0
M  V30 2979 H 279.134 -3.11945 -2.03767 0
M  V30 2980 H 279.247 -4.68711 -0.992317 0
M  V30 2981 H 277.611 -2.46993 -0.621821 0
M  V30 2982 H 278.394 -3.33674 0.807256 0
M  V30 2983 N 280.839 0.0985539 -1.57292 0
M  V30 2984 C 282.064 0.820196 -1.90493 0
M  V30 2985 C 282.489 1.71658 -0.769094 0
M  V30 2986 O 281.847 1.79133 0.279495 0
M  V30 2987 C 281.895 1.61242 -3.22542 0
M  V30 2988 O 280.999 2.72108 -3.09888 0
M  V30 2989 H 280.34 0.225547 -0.62452 0
M  V30 2990 H 282.87 0.0748159 -2.04463 0
M  V30 2991 H 282.88 1.99737 -3.55766 0
M  V30 2992 H 281.555 0.954535 -4.04798 0
M  V30 2993 H 280.132 2.36667 -2.88172 0
M  V30 2994 N 282.317 1.53212 0.369288 0
M  V30 2995 C 283.542 1.73423 1.1375 0
M  V30 2996 C 283.967 0.460404 1.82378 0
M  V30 2997 O 283.325 -0.585298 1.71592 0
M  V30 2998 C 283.373 2.89769 2.1463 0
M  V30 2999 O 282.477 2.58119 3.21634 0
M  V30 3000 H 281.818 0.576061 0.330227 0
M  V30 3001 H 284.348 2.00083 0.427547 0
M  V30 3002 H 284.358 3.15829 2.58294 0
M  V30 3003 H 283.033 3.8217 1.64071 0
M  V30 3004 H 281.61 2.42864 2.82969 0
M  V30 3005 N 283.795 -0.628877 1.44509 0
M  V30 3006 C 284.728 -1.75367 1.46019 0
M  V30 3007 C 285.706 -1.59444 0.318787 0
M  V30 3008 O 286.89 -1.81297 0.516099 0
M  V30 3009 C 284.017 -3.12965 1.29501 0
M  V30 3010 C 283.063 -3.47532 2.47233 0
M  V30 3011 S 283.896 -3.44758 4.09758 0
M  V30 3012 C 285.052 -4.84973 3.95667 0
M  V30 3013 H 285.285 -1.7382 2.41193 0
M  V30 3014 H 282.818 -0.803686 1.31834 0
M  V30 3015 H 284.776 -3.92367 1.20658 0
M  V30 3016 H 283.437 -3.12049 0.358341 0
M  V30 3017 H 282.63 -4.47664 2.31544 0
M  V30 3018 H 282.232 -2.75598 2.52828 0
M  V30 3019 H 284.524 -5.74255 3.59496 0
M  V30 3020 H 285.467 -5.05716 4.95638 0
M  V30 3021 H 285.875 -4.59653 3.27688 0
M  V30 3022 N 285.273 -1.31445 -0.869486 0
M  V30 3023 C 286.203 -1.21727 -1.99261 0
M  V30 3024 C 287.184 -0.104359 -1.6978 0
M  V30 3025 O 288.369 -0.289038 -1.92037 0
M  V30 3026 C 285.499 -0.924317 -3.34774 0
M  V30 3027 C 284.453 -1.99685 -3.78563 0
M  V30 3028 C 283.779 -1.55658 -5.11541 0
M  V30 3029 C 285.079 -3.41003 -3.95619 0
M  V30 3030 H 286.773 -2.1569 -2.07649 0
M  V30 3031 H 284.319 -1.03839 -0.997675 0
M  V30 3032 H 286.272 -0.842934 -4.12883 0
M  V30 3033 H 284.996 0.0509793 -3.2656 0
M  V30 3034 H 283.655 -2.06813 -3.02694 0
M  V30 3035 H 283.303 -0.569132 -4.9977 0
M  V30 3036 H 283.003 -2.27409 -5.41811 0
M  V30 3037 H 284.527 -1.48928 -5.92159 0
M  V30 3038 H 285.941 -3.36547 -4.64122 0
M  V30 3039 H 284.338 -4.10975 -4.37286 0
M  V30 3040 H 285.408 -3.81754 -2.98985 0
M  V30 3041 N 286.751 1.08385 -1.14413 0
M  V30 3042 C 287.681 2.17321 -0.854044 0
M  V30 3043 C 288.662 1.69024 0.191049 0
M  V30 3044 O 289.847 1.94141 0.0476779 0
M  V30 3045 C 286.977 3.45719 -0.330983 0
M  V30 3046 C 285.931 4.07409 -1.31155 0
M  V30 3047 C 285.257 5.30762 -0.64778 0
M  V30 3048 C 286.557 4.48665 -2.67388 0
M  V30 3049 H 288.251 2.41845 -1.76498 0
M  V30 3050 H 285.797 1.16233 -0.850051 0
M  V30 3051 H 287.75 4.21241 -0.115645 0
M  V30 3052 H 286.474 3.2075 0.615381 0
M  V30 3053 H 285.133 3.33919 -1.51306 0
M  V30 3054 H 284.781 5.02078 0.304398 0
M  V30 3055 H 284.481 5.72992 -1.30207 0
M  V30 3056 H 286.005 6.08998 -0.441972 0
M  V30 3057 H 287.419 5.15364 -2.51143 0
M  V30 3058 H 285.816 5.01814 -3.29093 0
M  V30 3059 H 286.886 3.60543 -3.24248 0
M  V30 3060 N 288.23 0.939286 1.26551 0
M  V30 3061 C 289.646 0.641304 1.46149 0
M  V30 3062 C 289.846 -0.805964 1.84679 0
M  V30 3063 O 288.902 -1.58278 1.96734 0
M  V30 3064 C 290.215 1.6011 2.54529 0
M  V30 3065 C 291.763 1.6106 2.68382 0
M  V30 3066 C 292.238 2.55765 3.79932 0
M  V30 3067 N 293.729 2.5404 3.87322 0
M  V30 3068 C 294.464 3.24004 4.73085 0
M  V30 3069 N 293.96 4.03388 5.63249 0
M  V30 3070 N 295.753 3.12965 4.66914 0
M  V30 3071 H 287.904 1.87478 0.998285 0
M  V30 3072 H 290.167 0.805559 0.499779 0
M  V30 3073 H 289.873 2.63412 2.33039 0
M  V30 3074 H 289.747 1.35171 3.52149 0
M  V30 3075 H 292.134 0.584835 2.89247 0
M  V30 3076 H 292.215 1.90053 1.71212 0
M  V30 3077 H 291.859 3.58458 3.5982 0
M  V30 3078 H 291.789 2.24063 4.76554 0
M  V30 3079 H 294.28 1.96396 3.22858 0
M  V30 3080 H 294.593 4.5373 6.25579 0
M  V30 3081 H 292.938 4.07489 5.63008 0
M  V30 3082 H 296.129 2.50432 3.95476 0
M  V30 3083 H 296.302 3.67759 5.33533 0
M  V30 3084 N 289.708 -1.40897 0.706093 0
M  V30 3085 C 291.119 -1.84023 0.315052 0
M  V30 3086 C 291.47 -1.5906 -1.14866 0
M  V30 3087 O 290.595 -1.06651 -1.88293 0
M  V30 3088 C 291.19 -3.34055 0.565038 0
M  V30 3089 C 289.749 -3.7571 0.227806 0
M  V30 3090 C 288.896 -2.64204 0.842122 0
M  V30 3091 H 291.847 -1.303 0.905963 0
M  V30 3092 H 291.868 -3.80107 -0.172843 0
M  V30 3093 H 291.38 -3.52192 1.63042 0
M  V30 3094 H 289.481 -3.63172 -0.832895 0
M  V30 3095 H 289.594 -4.74103 0.690174 0
M  V30 3096 H 287.958 -2.53255 0.270893 0
M  V30 3097 H 288.741 -2.85155 1.91158 0
M  V30 3098 N 291.186 -0.45159 -1.50991 0
M  V30 3099 C 292.435 0.111653 -2.01391 0
M  V30 3100 C 292.748 1.42529 -1.33959 0
M  V30 3101 O 293.954 2.07232 -1.75405 0
M  V30 3102 C 292.41 0.249514 -3.59034 0
M  V30 3103 C 292.018 -1.05453 -4.35412 0
M  V30 3104 C 293.762 0.765762 -4.17536 0
M  V30 3105 C 291.669 -0.881529 -5.84793 0
M  V30 3106 H 290.599 0.0455022 -0.752626 0
M  V30 3107 H 293.25 -0.583524 -1.73975 0
M  V30 3108 H 291.632 1.00803 -3.82955 0
M  V30 3109 H 292.806 -1.82248 -4.23229 0
M  V30 3110 H 291.121 -1.50039 -3.88429 0
M  V30 3111 H 293.718 0.911913 -5.26866 0
M  V30 3112 H 294.061 1.75201 -3.77638 0
M  V30 3113 H 294.594 0.0651744 -3.97747 0
M  V30 3114 H 291.333 -1.84057 -6.29129 0
M  V30 3115 H 290.853 -0.153625 -5.99603 0
M  V30 3116 H 292.532 -0.540363 -6.4474 0
M  V30 3117 N 292.664 1.56529 -0.183458 0
M  V30 3118 C 293.614 2.1515 0.754605 0
M  V30 3119 C 294.598 1.08904 1.18443 0
M  V30 3120 O 295.79 1.34997 1.14476 0
M  V30 3121 C 292.919 2.80531 1.97881 0
M  V30 3122 C 292.005 3.93952 1.57043 0
M  V30 3123 N 292.396 4.98221 0.87231 0
M  V30 3124 C 290.694 4.05338 1.86057 0
M  V30 3125 C 291.395 5.77836 0.669377 0
M  V30 3126 N 290.371 5.29858 1.21454 0
M  V30 3127 H 294.173 2.93132 0.212387 0
M  V30 3128 H 291.687 1.62391 0.0167725 0
M  V30 3129 H 293.684 3.20914 2.6612 0
M  V30 3130 H 292.344 2.04035 2.52586 0
M  V30 3131 H 293.355 5.15191 0.529033 0
M  V30 3132 H 290.032 3.39957 2.42354 0
M  V30 3133 H 291.422 6.71799 0.116422 0
M  V30 3134 N 294.142 -0.090211 1.57342 0
M  V30 3135 C 295.391 -0.791531 1.8552 0
M  V30 3136 C 295.704 -1.79659 0.773441 0
M  V30 3137 O 296.91 -2.54616 0.942497 0
M  V30 3138 C 295.366 -1.45856 3.2902 0
M  V30 3139 C 294.974 -0.493017 4.45279 0
M  V30 3140 C 296.718 -2.14332 3.66418 0
M  V30 3141 C 294.625 -1.16491 5.79814 0
M  V30 3142 H 293.555 -0.299356 0.692027 0
M  V30 3143 H 296.206 -0.0445343 1.83446 0
M  V30 3144 H 294.588 -2.25318 3.2565 0
M  V30 3145 H 295.762 0.270464 4.60006 0
M  V30 3146 H 294.077 0.0863061 4.16311 0
M  V30 3147 H 296.674 -2.65344 4.64216 0
M  V30 3148 H 297.017 -2.93447 2.95287 0
M  V30 3149 H 297.55 -1.41724 3.71698 0
M  V30 3150 H 294.289 -0.41447 6.54188 0
M  V30 3151 H 293.809 -1.8997 5.68921 0
M  V30 3152 H 295.488 -1.69001 6.24538 0
M  V30 3153 N 295.62 -1.53406 -0.361157 0
M  V30 3154 C 296.567 -1.80156 -1.44265 0
M  V30 3155 C 297.537 -0.646183 -1.53015 0
M  V30 3156 O 298.722 -0.888818 -1.68833 0
M  V30 3157 C 295.862 -2.00116 -2.81154 0
M  V30 3158 C 294.975 -3.27833 -2.81335 0
M  V30 3159 C 294.11 -3.37957 -4.09828 0
M  V30 3160 C 293.149 -4.59689 -4.04168 0
M  V30 3161 N 292.286 -4.66942 -5.24318 0
M  V30 3162 H 297.126 -2.72438 -1.20754 0
M  V30 3163 H 294.663 -1.34954 -0.585296 0
M  V30 3164 H 296.621 -2.09677 -3.60682 0
M  V30 3165 H 295.251 -1.11167 -3.03054 0
M  V30 3166 H 294.303 -3.27204 -1.94014 0
M  V30 3167 H 295.615 -4.17442 -2.73027 0
M  V30 3168 H 294.769 -3.46853 -4.97773 0
M  V30 3169 H 293.508 -2.46372 -4.20894 0
M  V30 3170 H 292.513 -4.50889 -3.14609 0
M  V30 3171 H 293.738 -5.5262 -3.947 0
M  V30 3172 H 291.684 -3.7826 -5.35962 0
M  V30 3173 H 291.601 -5.50462 -5.18197 0
M  V30 3174 H 292.869 -4.80127 -6.14084 0
M  V30 3175 N 297.098 0.621204 -1.44841 0
M  V30 3176 C 298.323 1.41244 -1.51871 0
M  V30 3177 C 298.748 1.87519 -0.147764 0
M  V30 3178 O 298.106 1.59334 0.865 0
M  V30 3179 C 298.154 2.60221 -2.49634 0
M  V30 3180 O 297.258 3.60395 -2.00473 0
M  V30 3181 H 296.599 0.42223 -0.512463 0
M  V30 3182 H 299.129 0.757305 -1.90069 0
M  V30 3183 H 299.139 3.0764 -2.67996 0
M  V30 3184 H 297.814 2.25887 -3.4921 0
M  V30 3185 H 296.391 3.19717 -1.91925 0
M  V30 3186 N 298.576 1.31904 0.862503 0
M  V30 3187 C 299.486 1.22161 2.00285 0
M  V30 3188 C 300.502 0.136785 1.73462 0
M  V30 3189 O 301.678 0.355994 1.98229 0
M  V30 3190 C 298.743 0.937093 3.33796 0
M  V30 3191 C 297.804 2.10957 3.73893 0
M  V30 3192 C 297.037 1.83853 5.01033 0
M  V30 3193 O 297.26 0.777274 5.65079 0
M  V30 3194 O 296.194 2.69741 5.38074 0
M  V30 3195 H 300.02 2.18008 2.11439 0
M  V30 3196 H 297.605 1.11716 0.991957 0
M  V30 3197 H 299.487 0.794583 4.13841 0
M  V30 3198 H 298.162 0.00871894 3.23699 0
M  V30 3199 H 297.069 2.30752 2.94456 0
M  V30 3200 H 298.402 3.02046 3.88625 0
M  V30 3201 N 300.054 -1.07777 1.14986 0
M  V30 3202 C 301.002 -2.16964 0.838406 0
M  V30 3203 C 301.996 -1.68372 -0.186386 0
M  V30 3204 O 303.202 -1.79951 -0.0418465 0
M  V30 3205 H 299.577 -0.708006 0.253439 0
M  V30 3206 H 301.548 -2.40454 1.76704 0
M  V30 3207 C 300.297 -3.4604 0.339335 0
M  V30 3208 H 299.62 -3.83813 1.11927 0
M  V30 3209 H 301.06 -4.23698 0.160021 0
M  V30 3210 C 299.519 -3.23569 -0.938325 0
M  V30 3211 O 300.049 -3.47752 -2.01077 0
M  V30 3212 N 298.255 -2.77079 -0.876117 0
M  V30 3213 H 297.802 -2.576 -0.00322037 0
M  V30 3214 H 297.76 -2.62422 -1.73153 0
M  V30 3215 N 301.532 -0.945985 -1.26051 0
M  V30 3216 C 302.48 -0.450259 -2.282 0
M  V30 3217 C 303.474 0.47497 -1.62605 0
M  V30 3218 O 304.68 0.352653 -1.76512 0
M  V30 3219 H 301.055 -0.127081 -0.741184 0
M  V30 3220 H 303.026 -1.32422 -2.67408 0
M  V30 3221 C 301.775 0.26467 -3.46691 0
M  V30 3222 H 301.098 -0.438123 -3.97392 0
M  V30 3223 H 302.538 0.575678 -4.20074 0
M  V30 3224 C 300.997 1.48416 -3.02447 0
M  V30 3225 O 301.527 2.58227 -3.07704 0
M  V30 3226 N 299.733 1.34243 -2.57735 0
M  V30 3227 H 299.28 0.448994 -2.53657 0
M  V30 3228 H 299.238 2.15957 -2.28495 0
M  V30 3229 N 303.011 1.40521 -0.713556 0
M  V30 3230 C 304.236 2.05759 -0.26035 0
M  V30 3231 C 304.661 1.53403 1.08854 0
M  V30 3232 O 304.019 0.668535 1.68524 0
M  V30 3233 C 304.067 3.59745 -0.248122 0
M  V30 3234 O 303.171 4.05123 0.77131 0
M  V30 3235 H 302.512 0.652564 -0.122703 0
M  V30 3236 H 305.042 1.79958 -0.973467 0
M  V30 3237 H 305.052 4.07911 -0.0851129 0
M  V30 3238 H 303.727 3.97218 -1.2325 0
M  V30 3239 H 302.304 3.68422 0.57619 0
M  V30 3240 N 304.489 0.459591 1.5075 0
M  V30 3241 C 305.737 -0.0991532 2.01857 0
M  V30 3242 C 306.058 -1.41247 1.34441 0
M  V30 3243 O 305.328 -1.89775 0.486022 0
M  V30 3244 H 303.908 -0.039633 0.745948 0
M  V30 3245 H 306.57 0.607387 1.85194 0
M  V30 3246 H 305.666 -0.258998 3.11023 0
M  V30 3247 N 305.967 -1.56429 0.191757 0
M  V30 3248 C 307.216 -1.9666 -0.448088 0
M  V30 3249 C 307.529 -1.08136 -1.62991 0
M  V30 3250 O 308.735 -1.38135 -2.33733 0
M  V30 3251 C 307.191 -3.49753 -0.848585 0
M  V30 3252 C 306.799 -4.46935 0.308764 0
M  V30 3253 C 308.543 -3.9876 -1.4557 0
M  V30 3254 C 306.45 -5.91293 -0.112506 0
M  V30 3255 H 305.38 -0.734312 -0.171179 0
M  V30 3256 H 308.031 -1.81301 0.283242 0
M  V30 3257 H 306.413 -3.60604 -1.63649 0
M  V30 3258 H 307.587 -4.47813 1.08627 0
M  V30 3259 H 305.902 -4.08102 0.827158 0
M  V30 3260 H 308.499 -5.04086 -1.78328 0
M  V30 3261 H 308.842 -3.42875 -2.36099 0
M  V30 3262 H 309.375 -3.9101 -0.731836 0
M  V30 3263 H 306.114 -6.51097 0.758514 0
M  V30 3264 H 305.634 -5.93676 -0.854941 0
M  V30 3265 H 307.313 -6.44663 -0.549448 0
M  V30 3266 N 307.445 0.0818655 -1.57387 0
M  V30 3267 C 308.392 1.09834 -2.0299 0
M  V30 3268 C 309.362 1.39043 -0.908639 0
M  V30 3269 O 310.547 1.50282 -1.17559 0
M  V30 3270 C 307.687 2.40971 -2.47037 0
M  V30 3271 C 306.8 2.18379 -3.7274 0
M  V30 3272 C 305.935 3.43008 -4.0561 0
M  V30 3273 C 304.974 3.15736 -5.24383 0
M  V30 3274 N 304.111 4.32667 -5.52941 0
M  V30 3275 H 308.951 0.702472 -2.89602 0
M  V30 3276 H 306.488 0.33531 -1.43227 0
M  V30 3277 H 308.446 3.1752 -2.70623 0
M  V30 3278 H 307.076 2.78379 -1.63417 0
M  V30 3279 H 306.128 1.32569 -3.56552 0
M  V30 3280 H 307.44 1.94227 -4.59431 0
M  V30 3281 H 306.594 4.27958 -4.30043 0
M  V30 3282 H 305.333 3.70225 -3.17466 0
M  V30 3283 H 304.338 2.2918 -4.99757 0
M  V30 3284 H 305.563 2.8985 -6.14136 0
M  V30 3285 H 303.509 4.59935 -4.67756 0
M  V30 3286 H 303.426 4.11753 -6.34031 0
M  V30 3287 H 304.694 5.18644 -5.81918 0
M  V30 3288 N 308.923 1.53595 0.353017 0
M  V30 3289 C 310.2 1.61002 1.11075 0
M  V30 3290 C 310.58 0.425356 2.0677 0
M  V30 3291 O 309.928 -0.583267 2.2093 0
M  V30 3292 C 310.138 2.96631 1.83877 0
M  V30 3293 C 311.486 3.51653 2.37961 0
M  V30 3294 O 312.51 2.98743 1.93987 0
M  V30 3295 O 311.369 4.44177 3.18386 0
M  V30 3296 H 308.463 0.650825 0.510251 0
M  V30 3297 H 311.009 1.6594 0.35527 0
M  V30 3298 H 309.781 3.74293 1.14108 0
M  V30 3299 H 309.404 2.95242 2.66304 0
M  V30 3300 N 310.401 -0.613514 1.45168 0
M  V30 3301 C 311.348 -1.72456 1.53387 0
M  V30 3302 C 312.318 -1.6169 0.380191 0
M  V30 3303 O 313.503 -1.81356 0.592836 0
M  V30 3304 C 310.643 -3.10753 1.50088 0
M  V30 3305 C 309.756 -3.32368 2.75963 0
M  V30 3306 C 308.891 -4.60737 2.64376 0
M  V30 3307 C 307.93 -4.7559 3.85332 0
M  V30 3308 N 307.067 -5.95253 3.72315 0
M  V30 3309 H 311.907 -1.64768 2.48305 0
M  V30 3310 H 309.444 -0.803503 1.23216 0
M  V30 3311 H 311.402 -3.90758 1.46164 0
M  V30 3312 H 310.032 -3.17413 0.587243 0
M  V30 3313 H 309.084 -2.4618 2.89999 0
M  V30 3314 H 310.396 -3.39218 3.65695 0
M  V30 3315 H 309.55 -5.48928 2.58385 0
M  V30 3316 H 308.289 -4.56275 1.72233 0
M  V30 3317 H 307.294 -3.85824 3.91688 0
M  V30 3318 H 308.519 -4.81854 4.78533 0
M  V30 3319 H 306.465 -5.91847 2.82937 0
M  V30 3320 H 306.382 -6.03236 4.55677 0
M  V30 3321 H 307.65 -6.85958 3.70246 0
M  V30 3322 N 311.879 -1.3236 -0.855495 0
M  V30 3323 C 313.127 -1.22629 -1.60644 0
M  V30 3324 C 313.448 0.212136 -1.93843 0
M  V30 3325 O 312.718 1.13666 -1.59552 0
M  V30 3326 H 311.298 -0.450882 -0.595579 0
M  V30 3327 H 313.96 -1.65871 -1.02337 0
M  V30 3328 H 313.056 -1.80832 -2.54374 0
M  V30 3329 N 313.357 1.07166 -1.15556 0
M  V30 3330 C 314.582 1.84053 -0.955988 0
M  V30 3331 C 315.007 1.81586 0.490739 0
M  V30 3332 O 314.365 1.21018 1.34997 0
M  V30 3333 C 314.413 3.28957 -1.47714 0
M  V30 3334 O 313.517 4.06795 -0.677593 0
M  V30 3335 H 312.858 0.569842 -0.340847 0
M  V30 3336 H 315.388 1.35178 -1.53584 0
M  V30 3337 H 315.398 3.79788 -1.4908 0
M  V30 3338 H 314.073 3.30068 -2.53037 0
M  V30 3339 H 312.65 3.6561 -0.733721 0
M  V30 3340 N 314.835 0.952656 1.25548 0
M  V30 3341 C 316.06 0.623025 1.97821 0
M  V30 3342 C 316.485 -0.7976 1.70352 0
M  V30 3343 O 315.843 -1.53905 0.958283 0
M  V30 3344 C 315.891 0.885532 3.49558 0
M  V30 3345 O 314.995 -0.0366641 4.12384 0
M  V30 3346 H 314.336 0.237082 0.620232 0
M  V30 3347 H 316.866 1.27871 1.59719 0
M  V30 3348 H 316.876 0.811009 3.99858 0
M  V30 3349 H 315.551 1.92094 3.6888 0
M  V30 3350 H 314.128 0.0898954 3.72792 0
M  V30 3351 N 316.313 -1.40141 0.720998 0
M  V30 3352 C 317.243 -2.33339 0.0867621 0
M  V30 3353 C 318.224 -1.53178 -0.739622 0
M  V30 3354 O 319.409 -1.81625 -0.687449 0
M  V30 3355 C 316.539 -3.37194 -0.831728 0
M  V30 3356 C 315.493 -4.27857 -0.110558 0
M  V30 3357 C 314.819 -5.22294 -1.14513 0
M  V30 3358 C 316.119 -5.11872 1.0385 0
M  V30 3359 H 317.813 -2.86626 0.865219 0
M  V30 3360 H 315.359 -1.37814 0.417516 0
M  V30 3361 H 317.312 -4.01335 -1.28485 0
M  V30 3362 H 316.036 -2.82314 -1.64214 0
M  V30 3363 H 314.695 -3.65176 0.322797 0
M  V30 3364 H 314.343 -4.63717 -1.94874 0
M  V30 3365 H 314.043 -5.83797 -0.667446 0
M  V30 3366 H 315.567 -5.89312 -1.59824 0
M  V30 3367 H 316.981 -5.69436 0.664482 0
M  V30 3368 H 315.378 -5.82445 1.4449 0
M  V30 3369 H 316.448 -4.4753 1.86668 0
M  V30 3370 N 317.792 -0.46758 -1.50504 0
M  V30 3371 C 319.017 0.0886943 -2.0721 0
M  V30 3372 C 319.442 1.33057 -1.32956 0
M  V30 3373 O 318.8 1.77354 -0.376197 0
M  V30 3374 C 318.848 0.359202 -3.58806 0
M  V30 3375 O 317.952 1.44034 -3.8643 0
M  V30 3376 H 317.293 -0.0114349 -0.663902 0
M  V30 3377 H 319.823 -0.657613 -1.93744 0
M  V30 3378 H 319.833 0.600742 -4.03553 0
M  V30 3379 H 318.508 -0.548311 -4.1227 0
M  V30 3380 H 317.085 1.18638 -3.53524 0
M  V30 3381 N 319.27 1.56325 -0.20005 0
M  V30 3382 C 320.233 2.18084 0.705132 0
M  V30 3383 C 321.233 1.13666 1.1374 0
M  V30 3384 O 322.423 1.39023 1.04968 0
M  V30 3385 C 319.555 2.78689 1.96329 0
M  V30 3386 H 320.748 2.99435 0.167023 0
M  V30 3387 H 318.301 1.56221 0.0495725 0
M  V30 3388 H 319.036 2.0115 2.5438 0
M  V30 3389 H 318.821 3.55133 1.66202 0
M  V30 3390 H 320.311 3.26096 2.60866 0
M  V30 3391 N 320.748 -0.0735177 1.57428 0
M  V30 3392 C 321.698 -1.09442 2.00016 0
M  V30 3393 C 322.682 -1.34575 0.881947 0
M  V30 3394 O 323.874 -1.34905 1.14585 0
M  V30 3395 C 321.003 -2.40865 2.4462 0
M  V30 3396 C 320.089 -2.19014 3.63172 0
M  V30 3397 N 320.48 -1.67087 4.77405 0
M  V30 3398 C 318.778 -2.49494 3.69688 0
M  V30 3399 C 319.479 -1.6001 5.5926 0
M  V30 3400 N 318.455 -2.05999 5.03056 0
M  V30 3401 H 322.257 -0.686227 2.85776 0
M  V30 3402 H 319.771 -0.280617 1.59957 0
M  V30 3403 H 321.768 -3.14763 2.73368 0
M  V30 3404 H 320.428 -2.82403 1.60246 0
M  V30 3405 H 321.439 -1.35975 4.99731 0
M  V30 3406 H 318.116 -2.94409 2.96023 0
M  V30 3407 H 319.506 -1.2073 6.60964 0
M  V30 3408 N 322.226 -1.5378 -0.344866 0
M  V30 3409 C 323.474 -1.70625 -1.08311 0
M  V30 3410 C 323.795 -0.471447 -1.89215 0
M  V30 3411 O 323.065 0.514616 -1.8902 0
M  V30 3412 H 321.645 -0.629058 -0.402859 0
M  V30 3413 H 324.307 -1.9103 -0.386459 0
M  V30 3414 H 323.403 -2.57656 -1.76124 0
M  V30 3415 N 323.704 0.605807 -1.45491 0
M  V30 3416 C 325.115 1.18777 -1.44045 0
M  V30 3417 C 325.466 1.95471 -0.169001 0
M  V30 3418 O 324.591 2.0374 0.729324 0
M  V30 3419 C 325.186 2.16064 -2.60963 0
M  V30 3420 C 323.745 2.69633 -2.62631 0
M  V30 3421 C 322.892 1.45072 -2.36325 0
M  V30 3422 H 325.843 0.395017 -1.53705 0
M  V30 3423 H 325.864 2.9913 -2.35163 0
M  V30 3424 H 325.376 1.60217 -3.53486 0
M  V30 3425 H 323.477 3.29414 -1.74119 0
M  V30 3426 H 323.59 3.13944 -3.61906 0
M  V30 3427 H 321.954 1.74089 -1.85917 0
M  V30 3428 H 322.737 0.910899 -3.30995 0
M  V30 3429 N 325.182 1.32811 0.848464 0
M  V30 3430 C 326.092 1.24278 1.98978 0
M  V30 3431 C 327.108 0.155176 1.73307 0
M  V30 3432 O 328.284 0.376999 1.9784 0
M  V30 3433 C 325.349 0.972444 3.32783 0
M  V30 3434 C 324.41 2.14911 3.71634 0
M  V30 3435 C 323.643 1.89157 4.99054 0
M  V30 3436 O 323.866 0.837165 5.64223 0
M  V30 3437 O 322.8 2.75433 5.35183 0
M  V30 3438 H 326.626 2.20238 2.09115 0
M  V30 3439 H 324.211 1.12762 0.980052 0
M  V30 3440 H 326.093 0.838432 4.12975 0
M  V30 3441 H 324.768 0.043051 3.23671 0
M  V30 3442 H 323.675 2.33862 2.91992 0
M  V30 3443 H 325.008 3.06151 3.85399 0
M  V30 3444 N 326.66 -1.06551 1.16123 0
M  V30 3445 C 327.623 -2.12132 0.867906 0
M  V30 3446 C 328.623 -1.60224 -0.135944 0
M  V30 3447 O 329.813 -1.73943 0.0946422 0
M  V30 3448 C 326.945 -3.396 0.297419 0
M  V30 3449 H 328.138 -2.39586 1.80385 0
M  V30 3450 H 325.691 -1.22574 0.969812 0
M  V30 3451 H 326.426 -3.17794 -0.64633 0
M  V30 3452 H 326.211 -3.78581 1.02073 0
M  V30 3453 H 327.701 -4.17455 0.110052 0
M  V30 3454 N 328.138 -0.959301 -1.25041 0
M  V30 3455 C 329.088 -0.453888 -2.23436 0
M  V30 3456 C 330.072 0.459461 -1.542 0
M  V30 3457 O 331.264 0.291752 -1.74579 0
M  V30 3458 C 328.393 0.262667 -3.42294 0
M  V30 3459 C 327.479 -0.669022 -4.1879 0
M  V30 3460 N 327.87 -1.80267 -4.72586 0
M  V30 3461 C 326.168 -0.47814 -4.4343 0
M  V30 3462 C 326.869 -2.38475 -5.3057 0
M  V30 3463 N 325.845 -1.67078 -5.17287 0
M  V30 3464 H 329.647 -1.319 -2.6264 0
M  V30 3465 H 327.161 -0.817358 -1.40332 0
M  V30 3466 H 329.158 0.641911 -4.11929 0
M  V30 3467 H 327.818 1.12432 -3.04613 0
M  V30 3468 H 328.829 -2.18442 -4.69578 0
M  V30 3469 H 325.506 0.340249 -4.16111 0
M  V30 3470 H 326.896 -3.34094 -5.8295 0
M  V30 3471 N 329.616 1.39756 -0.72842 0
M  V30 3472 C 330.579 2.29012 -0.0927297 0
M  V30 3473 C 331.579 1.45992 0.674025 0
M  V30 3474 O 332.769 1.66749 0.50402 0
M  V30 3475 C 329.901 3.29396 0.878137 0
M  V30 3476 H 331.094 2.86729 -0.879011 0
M  V30 3477 H 328.647 1.48293 -0.493847 0
M  V30 3478 H 329.382 2.76722 1.69101 0
M  V30 3479 H 329.167 3.907 0.331051 0
M  V30 3480 H 330.657 3.96199 1.3197 0
M  V30 3481 N 331.094 0.475555 1.50254 0
M  V30 3482 C 332.322 -0.0754493 2.06762 0
M  V30 3483 C 332.737 -1.33111 1.33891 0
M  V30 3484 O 332.094 -1.77846 0.40952 0
M  V30 3485 C 332.145 -0.359008 3.59713 0
M  V30 3486 O 331.866 0.846851 4.29837 0
M  V30 3487 C 333.367 -0.956484 4.32858 0
M  V30 3488 H 330.587 0.00907525 0.670939 0
M  V30 3489 H 333.131 0.665618 1.93364 0
M  V30 3490 H 331.286 -1.05001 3.72899 0
M  V30 3491 H 331.7 0.594162 5.21124 0
M  V30 3492 H 333.174 -1.10463 5.40834 0
M  V30 3493 H 333.651 -1.94775 3.93649 0
M  V30 3494 H 334.257 -0.303723 4.24214 0
M  V30 3495 N 332.573 -1.56217 0.208337 0
M  V30 3496 C 333.483 -2.23316 -0.718836 0
M  V30 3497 C 334.499 -1.23648 -1.22422 0
M  V30 3498 O 335.675 -1.56423 -1.26861 0
M  V30 3499 C 332.74 -2.88968 -1.91568 0
M  V30 3500 C 331.801 -4.03943 -1.45357 0
M  V30 3501 C 331.034 -4.66455 -2.59337 0
M  V30 3502 O 331.257 -4.27919 -3.77149 0
M  V30 3503 O 330.191 -5.55686 -2.31293 0
M  V30 3504 H 334.017 -3.03182 -0.177315 0
M  V30 3505 H 331.602 -1.49384 -0.0215402 0
M  V30 3506 H 333.484 -3.30455 -2.61491 0
M  V30 3507 H 332.159 -2.12071 -2.44556 0
M  V30 3508 H 331.066 -3.67052 -0.722746 0
M  V30 3509 H 332.399 -4.82543 -0.970219 0
M  V30 3510 N 334.051 0.0651679 -1.57465 0
M  V30 3511 C 335.279 0.775808 -1.91804 0
M  V30 3512 C 335.694 1.70782 -0.804916 0
M  V30 3513 O 335.051 1.81153 0.221311 0
M  V30 3514 C 335.102 1.56381 -3.25925 0
M  V30 3515 O 334.823 0.669248 -4.32958 0
M  V30 3516 C 336.324 2.37485 -3.7432 0
M  V30 3517 H 333.544 0.2202 -0.63384 0
M  V30 3518 H 336.088 0.0334587 -2.04473 0
M  V30 3519 H 334.243 2.25837 -3.14764 0
M  V30 3520 H 334.657 1.21801 -5.10162 0
M  V30 3521 H 336.131 2.88223 -4.70778 0
M  V30 3522 H 336.608 3.17307 -3.03666 0
M  V30 3523 H 337.214 1.73173 -3.88447 0
M  V30 3524 N 335.529 1.53961 0.336706 0
M  V30 3525 C 336.479 1.7881 1.41461 0
M  V30 3526 C 337.463 0.643561 1.47469 0
M  V30 3527 O 338.655 0.903166 1.52223 0
M  V30 3528 C 335.784 2.00722 2.78506 0
M  V30 3529 C 334.87 3.2126 2.76862 0
M  V30 3530 N 335.261 4.42588 2.44845 0
M  V30 3531 C 333.559 3.22568 3.08004 0
M  V30 3532 C 334.26 5.2447 2.51607 0
M  V30 3533 N 333.236 4.61344 2.87511 0
M  V30 3534 H 337.038 2.70205 1.15615 0
M  V30 3535 H 334.552 1.52978 0.545112 0
M  V30 3536 H 336.549 2.1666 3.5618 0
M  V30 3537 H 335.209 1.10573 3.05293 0
M  V30 3538 H 336.22 4.69819 2.17922 0
M  V30 3539 H 332.897 2.42409 3.39918 0
M  V30 3540 H 334.287 6.31324 2.29955 0
M  V30 3541 N 337.007 -0.598083 1.45811 0
M  V30 3542 C 338.247 -1.36802 1.5187 0
M  V30 3543 C 338.611 -1.9133 0.160224 0
M  V30 3544 O 339.812 -2.6863 0.0955302 0
M  V30 3545 C 338.083 -2.47835 2.57513 0
M  V30 3546 S 339.642 -3.35458 2.82866 0
M  V30 3547 H 336.46 -0.466278 0.536755 0
M  V30 3548 H 339.062 -0.689152 1.82951 0
M  V30 3549 H 337.766 -2.06141 3.54872 0
M  V30 3550 H 337.297 -3.20512 2.28114 0
M  V30 3551 H 339.312 -4.46251 2.16967 0
M  V30 3552 N 338.485 -1.33259 -0.841409 0
M  V30 3553 C 339.435 -1.19872 -1.93945 0
M  V30 3554 C 340.419 -0.102269 -1.60575 0
M  V30 3555 O 341.611 -0.330114 -1.73894 0
M  V30 3556 C 338.74 -0.937517 -3.30251 0
M  V30 3557 C 337.826 -2.07629 -3.69799 0
M  V30 3558 N 338.217 -3.32604 -3.81062 0
M  V30 3559 C 336.515 -1.98242 -3.9952 0
M  V30 3560 C 337.216 -4.07275 -4.15333 0
M  V30 3561 N 336.192 -3.35691 -4.27566 0
M  V30 3562 H 339.994 -2.14604 -2.00805 0
M  V30 3563 H 337.508 -1.2523 -1.03398 0
M  V30 3564 H 339.505 -0.822545 -4.08705 0
M  V30 3565 H 338.165 0.00128798 -3.247 0
M  V30 3566 H 339.176 -3.67382 -3.65035 0
M  V30 3567 H 335.853 -1.12005 -4.02195 0
M  V30 3568 H 337.243 -5.1511 -4.31406 0
M  V30 3569 N 339.963 1.05934 -1.16686 0
M  V30 3570 C 340.873 2.17014 -0.891183 0
M  V30 3571 C 341.889 1.73453 0.137907 0
M  V30 3572 O 343.065 2.01361 -0.039592 0
M  V30 3573 C 340.13 3.44384 -0.400099 0
M  V30 3574 C 339.191 4.02433 -1.49486 0
M  V30 3575 C 338.424 5.23723 -1.02711 0
M  V30 3576 O 338.647 5.7027 0.121716 0
M  V30 3577 O 337.581 5.7382 -1.81699 0
M  V30 3578 H 341.407 2.43113 -1.82015 0
M  V30 3579 H 338.992 1.15541 -0.947132 0
M  V30 3580 H 340.874 4.21189 -0.133392 0
M  V30 3581 H 339.549 3.19802 0.500817 0
M  V30 3582 H 338.456 3.27102 -1.81535 0
M  V30 3583 H 339.789 4.31317 -2.37121 0
M  V30 3584 N 341.441 0.965919 1.2453 0
M  V30 3585 C 342.669 0.644385 1.96609 0
M  V30 3586 C 343.084 -0.785823 1.71669 0
M  V30 3587 O 342.441 -1.52703 0.999399 0
M  V30 3588 C 342.492 0.907375 3.49927 0
M  V30 3589 O 342.213 2.28136 3.74013 0
M  V30 3590 C 343.714 0.599784 4.39224 0
M  V30 3591 H 340.934 0.240588 0.626385 0
M  V30 3592 H 343.478 1.29337 1.58405 0
M  V30 3593 H 341.633 0.304631 3.862 0
M  V30 3594 H 342.047 2.36002 4.68405 0
M  V30 3595 H 343.521 0.834263 5.45659 0
M  V30 3596 H 343.998 -0.465921 4.36722 0
M  V30 3597 H 344.604 1.18235 4.08535 0
M  V30 3598 N 342.919 -1.39368 0.735821 0
M  V30 3599 C 343.829 -2.34395 0.0979693 0
M  V30 3600 C 344.845 -1.58361 -0.720968 0
M  V30 3601 O 346.021 -1.90648 -0.649245 0
M  V30 3602 C 343.086 -3.37393 -0.797916 0
M  V30 3603 C 342.147 -4.29287 0.0333662 0
M  V30 3604 C 341.38 -5.27365 -0.819854 0
M  V30 3605 O 341.603 -5.31959 -2.05855 0
M  V30 3606 O 340.537 -6.01389 -0.248079 0
M  V30 3607 H 344.363 -2.90601 0.882315 0
M  V30 3608 H 341.948 -1.40909 0.4965 0
M  V30 3609 H 343.83 -4.00505 -1.31048 0
M  V30 3610 H 342.505 -2.83571 -1.56106 0
M  V30 3611 H 341.412 -3.69395 0.591475 0
M  V30 3612 H 342.745 -4.86317 0.758752 0
M  V30 3613 N 344.397 -0.483516 -1.5 0
M  V30 3614 C 345.307 0.309172 -2.32554 0
M  V30 3615 C 346.323 0.984159 -1.43493 0
M  V30 3616 O 347.499 0.969399 -1.76535 0
M  V30 3617 C 344.564 1.36979 -3.18493 0
M  V30 3618 C 343.625 0.710095 -4.23387 0
M  V30 3619 C 342.858 1.72018 -5.05218 0
M  V30 3620 O 343.081 2.94813 -4.88305 0
M  V30 3621 O 342.015 1.28515 -5.8802 0
M  V30 3622 H 345.841 -0.366064 -3.01486 0
M  V30 3623 H 343.426 -0.24514 -1.47375 0
M  V30 3624 H 345.308 1.98385 -3.71781 0
M  V30 3625 H 343.983 2.02828 -2.52275 0
M  V30 3626 H 342.89 0.0567539 -3.74057 0
M  V30 3627 H 344.223 0.0943557 -4.9211 0
M  V30 3628 N 345.875 1.56104 -0.216619 0
M  V30 3629 C 347.1 2.0301 0.424462 0
M  V30 3630 C 347.525 1.0955 1.52907 0
M  V30 3631 O 346.883 0.0827914 1.81111 0
M  V30 3632 C 346.931 3.4819 0.937883 0
M  V30 3633 O 346.035 3.57865 2.04955 0
M  V30 3634 H 345.376 0.656925 0.0966755 0
M  V30 3635 H 347.906 2.01859 -0.33381 0
M  V30 3636 H 347.916 3.88413 1.24897 0
M  V30 3637 H 346.591 4.15699 0.129387 0
M  V30 3638 H 345.168 3.29527 1.74546 0
M  V30 3639 N 347.353 -0.0568162 1.57498 0
M  V30 3640 C 348.581 -0.765626 1.92213 0
M  V30 3641 C 348.996 -1.70353 0.813961 0
M  V30 3642 O 348.353 -1.81268 -0.211701 0
M  V30 3643 C 348.404 -1.5465 3.2675 0
M  V30 3644 O 348.125 -0.646278 4.33307 0
M  V30 3645 C 349.626 -2.35497 3.75574 0
M  V30 3646 H 346.846 -0.216835 0.634999 0
M  V30 3647 H 349.39 -0.0226146 2.04487 0
M  V30 3648 H 347.545 -2.24165 3.15957 0
M  V30 3649 H 347.959 -1.19093 5.108 0
M  V30 3650 H 349.433 -2.85722 4.72299 0
M  V30 3651 H 349.91 -3.15692 3.05344 0
M  V30 3652 H 350.516 -1.7111 3.8936 0
M  V30 3653 N 348.832 -1.54138 -0.328536 0
M  V30 3654 C 350.081 -1.71318 -1.06456 0
M  V30 3655 C 350.394 -0.491109 -1.89334 0
M  V30 3656 O 351.6 -0.54416 -2.65991 0
M  V30 3657 C 350.056 -3.03 -1.94214 0
M  V30 3658 C 349.664 -4.32595 -1.16471 0
M  V30 3659 C 351.408 -3.29544 -2.67583 0
M  V30 3660 C 349.315 -5.55341 -2.03347 0
M  V30 3661 H 348.245 -0.638429 -0.401155 0
M  V30 3662 H 350.896 -1.80633 -0.323106 0
M  V30 3663 H 349.278 -2.87579 -2.72239 0
M  V30 3664 H 350.452 -4.58766 -0.432525 0
M  V30 3665 H 348.767 -4.12777 -0.548063 0
M  V30 3666 H 351.364 -4.18444 -3.3288 0
M  V30 3667 H 351.707 -2.47206 -3.34955 0
M  V30 3668 H 352.24 -3.45809 -1.96623 0
M  V30 3669 H 348.979 -6.40268 -1.40491 0
M  V30 3670 H 348.499 -5.33397 -2.74313 0
M  V30 3671 H 350.178 -5.91557 -2.62049 0
M  V30 3672 N 350.31 0.590341 -1.46126 0
M  V30 3673 C 351.257 1.69994 -1.56111 0
M  V30 3674 C 352.227 1.61065 -0.405867 0
M  V30 3675 O 353.412 1.8039 -0.621613 0
M  V30 3676 C 350.552 3.08326 -1.55013 0
M  V30 3677 C 349.665 3.27936 -2.81215 0
M  V30 3678 C 348.8 4.56473 -2.71673 0
M  V30 3679 C 347.839 4.694 -3.92849 0
M  V30 3680 N 346.976 5.89254 -3.81738 0
M  V30 3681 H 351.816 1.60797 -2.50895 0
M  V30 3682 H 349.353 0.783799 -1.24479 0
M  V30 3683 H 351.311 3.88383 -1.52362 0
M  V30 3684 H 349.941 3.16439 -0.637667 0
M  V30 3685 H 348.993 2.41536 -2.93879 0
M  V30 3686 H 350.305 3.33357 -3.71045 0
M  V30 3687 H 349.459 5.44748 -2.67085 0
M  V30 3688 H 348.198 4.53477 -1.7947 0
M  V30 3689 H 347.203 3.79544 -3.97777 0
M  V30 3690 H 348.428 4.7418 -4.86138 0
M  V30 3691 H 346.374 5.87271 -2.92317 0
M  V30 3692 H 346.291 5.95911 -4.65217 0
M  V30 3693 H 347.559 6.79981 -3.81112 0
M  V30 3694 N 351.788 1.33704 0.83433 0
M  V30 3695 C 353.065 1.16011 1.57483 0
M  V30 3696 C 353.445 -0.27176 2.09343 0
M  V30 3697 O 352.793 -1.27146 1.89858 0
M  V30 3698 C 353.003 2.20507 2.70514 0
M  V30 3699 C 354.351 2.54898 3.39577 0
M  V30 3700 O 355.375 2.19209 2.80759 0
M  V30 3701 O 354.234 3.16158 4.45765 0
M  V30 3702 H 351.328 0.448992 0.694503 0
M  V30 3703 H 353.874 1.453 0.876691 0
M  V30 3704 H 352.646 3.16667 2.29865 0
M  V30 3705 H 352.269 1.92329 3.47987 0
M  V30 3706 N 353.266 -1.05314 1.17247 0
M  V30 3707 C 354.491 -1.82509 0.985148 0
M  V30 3708 C 354.916 -1.82343 -0.461788 0
M  V30 3709 O 354.274 -1.23151 -1.33055 0
M  V30 3710 C 354.322 -3.26566 1.52929 0
M  V30 3711 O 353.426 -4.05666 0.742225 0
M  V30 3712 H 352.767 -0.564347 0.349869 0
M  V30 3713 H 355.297 -1.32718 1.55715 0
M  V30 3714 H 355.307 -3.77369 1.55103 0
M  V30 3715 H 353.982 -3.26001 2.58256 0
M  V30 3716 H 352.559 -3.64397 0.791794 0
M  V30 3717 N 354.744 -0.972509 -1.24016 0
M  V30 3718 C 355.972 -0.654803 -1.96265 0
M  V30 3719 C 356.387 0.776708 -1.72083 0
M  V30 3720 O 355.744 1.52171 -1.00748 0
M  V30 3721 C 355.795 -0.92592 -3.49441 0
M  V30 3722 O 355.516 -2.30116 -3.72798 0
M  V30 3723 C 357.017 -0.623068 -4.38899 0
M  V30 3724 H 354.237 -0.243907 -0.6251 0
M  V30 3725 H 356.781 -1.30175 -1.57717 0
M  V30 3726 H 354.936 -0.325108 -3.86033 0
M  V30 3727 H 355.35 -2.38483 -4.67147 0
M  V30 3728 H 356.824 -0.863189 -5.45209 0
M  V30 3729 H 357.301 0.442754 -4.36963 0
M  V30 3730 H 357.907 -1.204 -4.07902 0
M  V30 3731 N 356.222 1.38976 -0.743202 0
M  V30 3732 C 357.45 2.04636 -0.30525 0
M  V30 3733 C 357.865 1.56044 1.06281 0
M  V30 3734 O 357.222 0.728921 1.67311 0
M  V30 3735 C 357.273 3.60193 -0.307177 0
M  V30 3736 O 356.994 4.06998 -1.62124 0
M  V30 3737 C 358.495 4.4306 0.145928 0
M  V30 3738 H 355.715 0.65788 -0.132041 0
M  V30 3739 H 358.259 1.77866 -1.00915 0
M  V30 3740 H 356.414 3.85835 0.347898 0
M  V30 3741 H 356.828 5.01371 -1.54036 0
M  V30 3742 H 358.302 5.51921 0.0934183 0
M  V30 3743 H 358.779 4.22706 1.19231 0
M  V30 3744 H 359.385 4.22584 -0.479886 0
M  V30 3745 N 357.7 0.491464 1.49741 0
M  V30 3746 C 358.632 -0.328609 2.26832 0
M  V30 3747 C 359.645 -0.939113 1.32983 0
M  V30 3748 O 360.834 -0.824067 1.58339 0
M  V30 3749 C 357.934 -1.47675 3.05033 0
M  V30 3750 C 357.107 -0.975305 4.26388 0
M  V30 3751 C 356.166 -1.99991 4.86714 0
M  V30 3752 O 355.192 -1.57229 5.47054 0
M  V30 3753 N 356.394 -3.32962 4.75517 0
M  V30 3754 H 359.159 0.332377 2.97851 0
M  V30 3755 H 356.72 0.323441 1.58636 0
M  V30 3756 H 358.712 -2.15954 3.42266 0
M  V30 3757 H 357.282 -2.04206 2.36683 0
M  V30 3758 H 356.502 -0.117723 3.94024 0
M  V30 3759 H 357.79 -0.618531 5.05026 0
M  V30 3760 H 357.188 -3.70399 4.27576 0
M  V30 3761 H 355.745 -3.96982 5.16961 0
M  V30 3762 N 359.178 -1.55987 0.224894 0
M  V30 3763 C 360.125 -2.20436 -0.68385 0
M  V30 3764 C 361.095 -1.16102 -1.18783 0
M  V30 3765 O 362.28 -1.4447 -1.24632 0
M  V30 3766 C 359.42 -2.89076 -1.88491 0
M  V30 3767 C 358.533 -4.08012 -1.41951 0
M  V30 3768 C 357.668 -4.64426 -2.5784 0
M  V30 3769 C 356.707 -5.75656 -2.08053 0
M  V30 3770 N 355.844 -6.26347 -3.17227 0
M  V30 3771 H 360.684 -2.97727 -0.12754 0
M  V30 3772 H 358.221 -1.47011 -0.0511978 0
M  V30 3773 H 360.179 -3.27059 -2.59014 0
M  V30 3774 H 358.809 -2.14298 -2.41405 0
M  V30 3775 H 357.861 -3.75492 -0.609095 0
M  V30 3776 H 359.173 -4.88375 -1.01447 0
M  V30 3777 H 358.327 -5.04869 -3.3644 0
M  V30 3778 H 357.066 -3.83233 -3.01635 0
M  V30 3779 H 356.071 -5.34712 -1.27916 0
M  V30 3780 H 357.296 -6.58686 -1.65255 0
M  V30 3781 H 355.242 -5.48067 -3.60497 0
M  V30 3782 H 355.159 -7.01843 -2.80986 0
M  V30 3783 H 356.427 -6.71447 -3.95953 0
M  V30 3784 N 360.656 0.0484629 -1.57525 0
M  V30 3785 C 361.619 1.03956 -2.04269 0
M  V30 3786 C 362.619 1.30211 -0.943496 0
M  V30 3787 O 363.809 1.25539 -1.20771 0
M  V30 3788 C 360.941 2.37742 -2.44319 0
M  V30 3789 H 362.134 0.636182 -2.93075 0
M  V30 3790 H 359.687 0.294811 -1.53494 0
M  V30 3791 H 360.422 2.82866 -1.5861 0
M  V30 3792 H 360.207 2.20021 -3.24551 0
M  V30 3793 H 361.697 3.08936 -2.80978 0
M  V30 3794 N 362.134 1.5431 0.320358 0
M  V30 3795 C 363.382 1.72327 1.05583 0
M  V30 3796 C 363.703 0.50149 1.88441 0
M  V30 3797 O 362.973 -0.48448 1.89815 0
M  V30 3798 H 361.553 0.635387 0.3928 0
M  V30 3799 H 364.215 1.91621 0.356019 0
M  V30 3800 H 363.311 2.60426 1.72003 0
M  V30 3801 N 363.613 -0.582584 1.46437 0
M  V30 3802 C 364.543 -1.70187 1.59871 0
M  V30 3803 C 365.524 -1.64066 0.449042 0
M  V30 3804 O 366.709 -1.82081 0.6753 0
M  V30 3805 C 363.839 -3.08827 1.58881 0
M  V30 3806 C 362.793 -3.29779 2.72819 0
M  V30 3807 C 362.119 -4.68947 2.5689 0
M  V30 3808 C 363.419 -3.17601 4.1464 0
M  V30 3809 H 365.113 -1.592 2.53566 0
M  V30 3810 H 362.659 -0.764472 1.22032 0
M  V30 3811 H 364.612 -3.86951 1.66873 0
M  V30 3812 H 363.336 -3.20713 0.617306 0
M  V30 3813 H 361.995 -2.54054 2.64296 0
M  V30 3814 H 361.643 -4.77599 1.57823 0
M  V30 3815 H 361.343 -4.83919 3.33312 0
M  V30 3816 H 362.867 -5.4924 2.66773 0
M  V30 3817 H 364.281 -3.8557 4.24274 0
M  V30 3818 H 362.678 -3.44094 4.9165 0
M  V30 3819 H 363.748 -2.14681 4.34788 0
M  V30 3820 N 365.091 -1.34144 -0.827227 0
M  V30 3821 C 366.502 -1.23557 -1.39966 0
M  V30 3822 C 366.853 0.140731 -1.95695 0
M  V30 3823 O 365.978 1.04087 -1.89723 0
M  V30 3824 C 366.573 -2.23708 -2.54441 0
M  V30 3825 C 365.132 -2.16924 -3.07605 0
M  V30 3826 C 364.279 -2.10549 -1.80456 0
M  V30 3827 H 367.23 -1.45573 -0.631991 0
M  V30 3828 H 367.251 -1.85157 -3.32411 0
M  V30 3829 H 366.763 -3.23866 -2.13851 0
M  V30 3830 H 364.864 -1.20107 -3.52711 0
M  V30 3831 H 364.977 -3.07988 -3.66988 0
M  V30 3832 H 363.341 -1.56203 -2.01178 0
M  V30 3833 H 364.124 -3.12535 -1.42046 0
M  V30 3834 N 366.569 1.04691 -1.17803 0
M  V30 3835 C 367.794 1.81984 -0.994813 0
M  V30 3836 C 368.219 1.82586 0.452112 0
M  V30 3837 O 367.577 1.23854 1.324 0
M  V30 3838 C 367.625 3.2575 -1.54659 0
M  V30 3839 O 366.729 4.05267 -0.763728 0
M  V30 3840 H 366.07 0.562483 -0.352857 0
M  V30 3841 H 368.6 1.3189 -1.56417 0
M  V30 3842 H 368.61 3.76541 -1.57102 0
M  V30 3843 H 367.285 3.24627 -2.59981 0
M  V30 3844 H 365.862 3.63972 -0.811108 0
M  V30 3845 N 368.047 0.979072 1.23499 0
M  V30 3846 C 368.994 0.517904 2.24914 0
M  V30 3847 C 369.964 -0.442525 1.60097 0
M  V30 3848 O 371.149 -0.350365 1.87556 0
M  V30 3849 C 368.289 -0.174813 3.44657 0
M  V30 3850 C 367.402 0.825721 4.24035 0
M  V30 3851 C 366.537 0.107946 5.3109 0
M  V30 3852 C 365.576 1.09778 6.02175 0
M  V30 3853 N 364.713 0.40925 7.00906 0
M  V30 3854 H 369.553 1.38751 2.63727 0
M  V30 3855 H 367.09 0.695303 1.2963 0
M  V30 3856 H 369.048 -0.593233 4.12961 0
M  V30 3857 H 367.678 -1.0083 3.06648 0
M  V30 3858 H 366.73 1.36253 3.55161 0
M  V30 3859 H 368.042 1.58005 4.73113 0
M  V30 3860 H 367.196 -0.367904 6.05583 0
M  V30 3861 H 365.935 -0.678994 4.8295 0
M  V30 3862 H 364.94 1.5844 5.26476 0
M  V30 3863 H 366.165 1.88536 6.52404 0
M  V30 3864 H 364.111 -0.358506 6.5502 0
M  V30 3865 H 364.028 1.10226 7.47921 0
M  V30 3866 H 365.296 -0.0442557 7.79487 0
M  V30 3867 N 369.525 -1.3858 0.750561 0
M  V30 3868 C 370.473 -2.32339 0.110162 0
M  V30 3869 C 371.467 -1.53864 -0.708674 0
M  V30 3870 O 372.673 -1.69417 -0.608112 0
M  V30 3871 H 369.048 -0.751812 0.0168275 0
M  V30 3872 H 371.019 -2.83959 0.917053 0
M  V30 3873 C 369.768 -3.39043 -0.771067 0
M  V30 3874 H 369.091 -3.99517 -0.150374 0
M  V30 3875 H 370.531 -4.07061 -1.1865 0
M  V30 3876 C 368.99 -2.77365 -1.91234 0
M  V30 3877 O 369.52 -2.66434 -3.00626 0
M  V30 3878 N 367.726 -2.35219 -1.70646 0
M  V30 3879 H 367.273 -2.4431 -0.81673 0
M  V30 3880 H 367.231 -1.94294 -2.47178 0
M  V30 3881 N 371.003 -0.499398 -1.49478 0
M  V30 3882 C 371.933 0.269244 -2.31943 0
M  V30 3883 C 372.914 0.964054 -1.40143 0
M  V30 3884 O 374.099 0.955767 -1.69052 0
M  V30 3885 C 371.229 1.33504 -3.20615 0
M  V30 3886 C 370.183 0.760202 -4.21195 0
M  V30 3887 C 369.509 1.9264 -4.98792 0
M  V30 3888 C 370.809 -0.247661 -5.21712 0
M  V30 3889 H 372.503 -0.419082 -2.96452 0
M  V30 3890 H 370.049 -0.202988 -1.42562 0
M  V30 3891 H 372.002 1.88048 -3.77115 0
M  V30 3892 H 370.726 2.05253 -2.54045 0
M  V30 3893 H 369.385 0.23653 -3.65836 0
M  V30 3894 H 369.033 2.63154 -4.28671 0
M  V30 3895 H 368.733 1.54785 -5.66847 0
M  V30 3896 H 370.257 2.4762 -5.58137 0
M  V30 3897 H 371.671 0.209579 -5.72917 0
M  V30 3898 H 370.068 -0.541962 -5.97648 0
M  V30 3899 H 371.138 -1.16409 -4.7072 0
M  V30 3900 N 372.481 1.55866 -0.233164 0
M  V30 3901 C 373.709 2.02998 0.399905 0
M  V30 3902 C 374.124 1.11274 1.52524 0
M  V30 3903 O 373.481 0.124528 1.82075 0
M  V30 3904 C 373.532 3.4958 0.920639 0
M  V30 3905 O 373.253 4.37808 -0.159834 0
M  V30 3906 C 374.754 4.12411 1.62578 0
M  V30 3907 H 371.974 0.664006 0.0966281 0
M  V30 3908 H 374.518 2.0143 -0.353013 0
M  V30 3909 H 372.673 3.51727 1.62379 0
M  V30 3910 H 373.087 5.23981 0.23337 0
M  V30 3911 H 374.561 5.16711 1.94201 0
M  V30 3912 H 375.038 3.5809 2.54299 0
M  V30 3913 H 375.644 4.14148 0.967553 0
M  V30 3914 N 373.959 -0.0401083 1.57549 0
M  V30 3915 C 375.205 -0.734211 1.89043 0
M  V30 3916 C 375.538 -1.75591 0.829535 0
M  V30 3917 O 374.813 -1.93868 -0.156706 0
M  V30 3918 C 375.096 -1.41374 3.31188 0
M  V30 3919 C 374.949 -0.406299 4.47961 0
M  V30 3920 C 376.268 -2.35061 3.72068 0
M  V30 3921 H 373.387 -0.265447 0.687537 0
M  V30 3922 H 376.029 0.00294087 1.9 0
M  V30 3923 H 374.179 -2.04206 3.30503 0
M  V30 3924 H 375.851 0.219255 4.60779 0
M  V30 3925 H 374.094 0.275485 4.32924 0
M  V30 3926 H 374.765 -0.920022 5.44279 0
M  V30 3927 H 377.241 -1.82282 3.74049 0
M  V30 3928 H 376.117 -2.79593 4.72355 0
M  V30 3929 H 376.378 -3.21258 3.0372 0
M  V30 3930 N 375.437 -1.54477 -0.31217 0
M  V30 3931 C 376.662 -1.77526 -1.07235 0
M  V30 3932 C 377.087 -0.527775 -1.80544 0
M  V30 3933 O 376.445 0.52121 -1.73646 0
M  V30 3934 C 376.493 -2.97535 -2.03728 0
M  V30 3935 O 375.597 -2.69878 -3.11833 0
M  V30 3936 H 374.938 -0.58792 -0.30862 0
M  V30 3937 H 377.468 -2.01532 -0.352993 0
M  V30 3938 H 377.478 -3.25198 -2.46395 0
M  V30 3939 H 376.153 -3.87996 -1.49774 0
M  V30 3940 H 374.73 -2.53199 -2.7376 0
M  V30 3941 N 376.915 0.57481 -1.46744 0
M  V30 3942 C 377.847 1.69804 -1.53946 0
M  V30 3943 C 378.86 1.57098 -0.427106 0
M  V30 3944 O 380.049 1.64378 -0.695863 0
M  V30 3945 C 377.149 3.08125 -1.4111 0
M  V30 3946 C 376.322 3.46757 -2.66605 0
M  V30 3947 C 375.381 4.6417 -2.47855 0
M  V30 3948 O 374.407 4.69634 -3.21609 0
M  V30 3949 N 375.609 5.59553 -1.54534 0
M  V30 3950 H 378.374 1.64077 -2.50796 0
M  V30 3951 H 375.935 0.761 -1.429 0
M  V30 3952 H 377.927 3.84478 -1.26328 0
M  V30 3953 H 376.497 3.08175 -0.524109 0
M  V30 3954 H 375.717 2.6003 -2.96274 0
M  V30 3955 H 377.005 3.69337 -3.49954 0
M  V30 3956 H 376.403 5.57881 -0.937304 0
M  V30 3957 H 374.96 6.35304 -1.45711 0
M  V30 3958 N 378.394 1.34581 0.820102 0
M  V30 3959 C 379.342 1.26401 1.95258 0
M  V30 3960 C 380.336 0.161553 1.68628 0
M  V30 3961 O 381.542 0.326703 1.7701 0
M  V30 3962 H 377.917 0.392749 0.64129 0
M  V30 3963 H 379.888 2.22105 1.99279 0
M  V30 3964 C 378.637 1.03919 3.31807 0
M  V30 3965 H 377.96 1.87984 3.52848 0
M  V30 3966 H 379.4 1.02232 4.11491 0
M  V30 3967 C 377.859 -0.257433 3.35915 0
M  V30 3968 O 378.389 -1.25784 3.81499 0
M  V30 3969 N 376.595 -0.291524 2.89134 0
M  V30 3970 H 376.142 0.523161 2.52232 0
M  V30 3971 H 376.1 -1.15883 2.92264 0
M  V30 3972 N 379.872 -1.04064 1.18357 0
M  V30 3973 C 380.804 -2.12114 0.868358 0
M  V30 3974 C 381.817 -1.62247 -0.134045 0
M  V30 3975 O 383.006 -1.78253 0.0937933 0
M  V30 3976 C 380.106 -3.37773 0.276132 0
M  V30 3977 C 379.279 -4.16874 1.3242 0
M  V30 3978 C 378.338 -5.20861 0.747662 0
M  V30 3979 O 377.364 -5.51141 1.42239 0
M  V30 3980 N 378.566 -5.78715 -0.454823 0
M  V30 3981 H 381.331 -2.39748 1.79836 0
M  V30 3982 H 378.892 -1.20258 1.08396 0
M  V30 3983 H 380.884 -4.04513 -0.123133 0
M  V30 3984 H 379.454 -3.07581 -0.557895 0
M  V30 3985 H 378.674 -3.45456 1.89878 0
M  V30 3986 H 379.962 -4.66516 2.03078 0
M  V30 3987 H 379.36 -5.56415 -1.02073 0
M  V30 3988 H 377.917 -6.46921 -0.79601 0
M  V30 3989 N 381.35 -0.985608 -1.22978 0
M  V30 3990 C 382.575 -0.675254 -1.961 0
M  V30 3991 C 383 0.752154 -1.72407 0
M  V30 3992 O 382.358 1.5131 -0.998751 0
M  V30 3993 C 382.406 -0.977899 -3.47087 0
M  V30 3994 O 381.51 -0.072685 -4.12336 0
M  V30 3995 H 380.851 -0.253443 -0.613728 0
M  V30 3996 H 383.381 -1.32061 -1.56272 0
M  V30 3997 H 383.391 -0.916739 -3.97567 0
M  V30 3998 H 382.066 -2.01807 -3.63657 0
M  V30 3999 H 380.643 -0.188703 -3.72422 0
M  V30 4000 N 382.828 1.3818 -0.7579 0
M  V30 4001 C 383.738 2.3421 -0.135247 0
M  V30 4002 C 384.754 1.59487 0.695683 0
M  V30 4003 O 385.93 1.91657 0.618832 0
M  V30 4004 C 382.995 3.3862 0.744139 0
M  V30 4005 C 382.056 4.2918 -0.101658 0
M  V30 4006 C 381.289 5.28603 0.735851 0
M  V30 4007 O 381.512 5.35166 1.97366 0
M  V30 4008 O 380.446 6.01707 0.152372 0
M  V30 4009 H 384.272 2.8916 -0.928436 0
M  V30 4010 H 381.857 1.40101 -0.518855 0
M  V30 4011 H 383.739 4.02539 1.2466 0
M  V30 4012 H 382.414 2.86019 1.51575 0
M  V30 4013 H 381.321 3.68407 -0.650167 0
M  V30 4014 H 382.654 4.85048 -0.836024 0
M  V30 4015 N 384.306 0.507319 1.49211 0
M  V30 4016 C 385.216 -0.272136 2.33016 0
M  V30 4017 C 386.232 -0.961206 1.45041 0
M  V30 4018 O 387.408 -0.941191 1.78055 0
M  V30 4019 C 384.473 -1.31895 3.20631 0
M  V30 4020 C 383.534 -0.642648 4.24463 0
M  V30 4021 C 382.767 -1.63959 5.07891 0
M  V30 4022 O 382.99 -2.87007 4.92933 0
M  V30 4023 O 381.924 -1.19143 5.8999 0
M  V30 4024 H 385.75 0.413982 3.00865 0
M  V30 4025 H 383.335 0.268556 1.46966 0
M  V30 4026 H 385.217 -1.92446 3.7489 0
M  V30 4027 H 383.892 -1.98788 2.5547 0
M  V30 4028 H 382.799 0.00276252 3.741 0
M  V30 4029 H 384.132 -0.0160534 4.92197 0
M  V30 4030 N 385.784 -1.5574 0.241426 0
M  V30 4031 C 387.031 -1.9881 -0.384836 0
M  V30 4032 C 387.359 -1.12947 -1.58346 0
M  V30 4033 O 386.614 -0.178993 -1.9488 0
M  V30 4034 C 386.913 -3.47308 -0.843317 0
M  V30 4035 C 386.579 -4.50223 0.246946 0
M  V30 4036 C 385.241 -4.78088 0.546399 0
M  V30 4037 C 387.593 -5.11841 0.983282 0
M  V30 4038 C 384.921 -5.64846 1.58636 0
M  V30 4039 C 387.273 -5.99727 2.01272 0
M  V30 4040 C 385.937 -6.25927 2.31888 0
M  V30 4041 H 385.207 -0.727496 -0.140821 0
M  V30 4042 H 387.854 -1.8831 0.348106 0
M  V30 4043 H 386.159 -3.55112 -1.65537 0
M  V30 4044 H 387.856 -3.78017 -1.33806 0
M  V30 4045 H 384.446 -4.286 0.00340639 0
M  V30 4046 H 388.63 -4.90366 0.765182 0
M  V30 4047 H 383.886 -5.83403 1.82896 0
M  V30 4048 H 388.06 -6.46517 2.58823 0
M  V30 4049 H 385.687 -6.92949 3.12611 0
M  V30 4050 N 387.262 0.0317525 -1.57568 0
M  V30 4051 C 388.492 0.733884 -1.93126 0
M  V30 4052 C 388.9 1.69563 -0.839352 0
M  V30 4053 O 388.243 1.82681 0.193175 0
M  V30 4054 C 388.305 1.54798 -3.24465 0
M  V30 4055 C 387.969 0.751304 -4.50782 0
M  V30 4056 C 388.966 0.0527632 -5.19873 0
M  V30 4057 C 386.651 0.706639 -4.97305 0
M  V30 4058 C 388.645 -0.679774 -6.33765 0
M  V30 4059 C 386.332 -0.0296449 -6.11093 0
M  V30 4060 C 387.33 -0.721614 -6.79177 0
M  V30 4061 O 387.018 -1.44595 -7.90789 0
M  V30 4062 H 386.75 0.211459 -0.642076 0
M  V30 4063 H 389.304 -0.00585615 -2.05399 0
M  V30 4064 H 387.534 2.33147 -3.08512 0
M  V30 4065 H 389.223 2.13247 -3.4537 0
M  V30 4066 H 389.989 0.0783188 -4.84937 0
M  V30 4067 H 385.868 1.23474 -4.44157 0
M  V30 4068 H 389.412 -1.22042 -6.86842 0
M  V30 4069 H 385.309 -0.0571331 -6.45475 0
M  V30 4070 H 386.077 -1.35935 -8.07133 0
M  V30 4071 N 388.74 1.54641 0.303973 0
M  V30 4072 C 389.688 1.86137 1.39484 0
M  V30 4073 C 390.682 0.734854 1.52631 0
M  V30 4074 O 391.888 0.918803 1.54784 0
M  V30 4075 H 388.263 0.590324 0.465856 0
M  V30 4076 H 390.234 2.77324 1.10154 0
M  V30 4077 C 388.983 2.12274 2.75382 0
M  V30 4078 H 388.306 2.98429 2.66046 0
M  V30 4079 H 389.746 2.38254 3.5073 0
M  V30 4080 C 388.205 0.920365 3.24085 0
M  V30 4081 O 388.735 0.139377 4.01458 0
M  V30 4082 N 386.941 0.726566 2.81371 0
M  V30 4083 H 386.488 1.36332 2.18567 0
M  V30 4084 H 386.446 -0.0763799 3.14307 0
M  V30 4085 N 390.218 -0.567019 1.47046 0
M  V30 4086 C 391.466 -1.322 1.52864 0
M  V30 4087 C 391.787 -1.94088 0.188388 0
M  V30 4088 O 391.057 -1.7941 -0.786693 0
M  V30 4089 H 389.637 -0.490894 0.563056 0
M  V30 4090 H 392.299 -0.662879 1.83281 0
M  V30 4091 H 391.395 -2.12062 2.2899 0
M  V30 4092 N 391.696 -1.35014 -0.812953 0
M  V30 4093 C 393.107 -1.25035 -1.38648 0
M  V30 4094 C 393.458 0.119967 -1.95833 0
M  V30 4095 O 392.583 1.02069 -1.90816 0
M  V30 4096 C 393.178 -2.26394 -2.52054 0
M  V30 4097 C 391.737 -2.20175 -3.05287 0
M  V30 4098 C 390.884 -2.12451 -1.78213 0
M  V30 4099 H 393.835 -1.46235 -0.616516 0
M  V30 4100 H 393.856 -1.88672 -3.30429 0
M  V30 4101 H 393.368 -3.26116 -2.10404 0
M  V30 4102 H 391.469 -1.23841 -3.51417 0
M  V30 4103 H 391.582 -3.11863 -3.63701 0
M  V30 4104 H 389.946 -1.58328 -1.9951 0
M  V30 4105 H 390.729 -3.14024 -1.38723 0
M  V30 4106 N 393.175 1.03435 -1.18907 0
M  V30 4107 C 394.123 2.13703 -0.918353 0
M  V30 4108 C 395.117 1.68947 0.123767 0
M  V30 4109 O 396.323 1.79983 -0.0249701 0
M  V30 4110 H 392.698 0.698112 -0.279542 0
M  V30 4111 H 394.669 2.33731 -1.85506 0
M  V30 4112 C 393.418 3.44542 -0.467532 0
M  V30 4113 H 392.741 3.79394 -1.26095 0
M  V30 4114 H 394.181 4.22812 -0.317164 0
M  V30 4115 C 392.64 3.26829 0.817588 0
M  V30 4116 O 393.17 3.54975 1.88031 0
M  V30 4117 N 391.376 2.80139 0.772677 0
M  V30 4118 H 390.923 2.57434 -0.0923883 0
M  V30 4119 H 390.881 2.68668 1.63294 0
M  V30 4120 N 394.653 0.992116 1.22453 0
M  V30 4121 C 396.069 0.702713 1.43297 0
M  V30 4122 C 396.269 -0.726909 1.87932 0
M  V30 4123 O 395.325 -1.49792 2.0327 0
M  V30 4124 C 396.638 1.70762 2.47509 0
M  V30 4125 C 398.186 1.72298 2.61309 0
M  V30 4126 C 398.661 2.71649 3.68742 0
M  V30 4127 N 400.152 2.70239 3.76199 0
M  V30 4128 C 400.887 3.43778 4.58917 0
M  V30 4129 N 400.383 4.26914 5.45633 0
M  V30 4130 N 402.176 3.32487 4.5322 0
M  V30 4131 H 394.327 1.91543 0.917871 0
M  V30 4132 H 396.59 0.826031 0.465162 0
M  V30 4133 H 396.296 2.73059 2.21657 0
M  V30 4134 H 396.17 1.49985 3.46099 0
M  V30 4135 H 398.557 0.706989 2.86506 0
M  V30 4136 H 398.638 1.97143 1.62997 0
M  V30 4137 H 398.282 3.73397 3.44292 0
M  V30 4138 H 398.212 2.44074 4.66622 0
M  V30 4139 H 400.703 2.09912 3.14237 0
M  V30 4140 H 401.016 4.79855 6.05771 0
M  V30 4141 H 399.361 4.31002 5.45218 0
M  V30 4142 H 402.552 2.6698 3.84499 0
M  V30 4143 H 402.725 3.90058 5.17454 0
M  V30 4144 N 396.131 -1.37776 0.765217 0
M  V30 4145 C 397.079 -2.32209 0.134798 0
M  V30 4146 C 398.073 -1.54607 -0.692315 0
M  V30 4147 O 399.279 -1.70052 -0.590109 0
M  V30 4148 H 395.654 -0.751591 0.0248005 0
M  V30 4149 H 397.625 -2.8297 0.947119 0
M  V30 4150 C 396.374 -3.39841 -0.735063 0
M  V30 4151 H 395.697 -3.99654 -0.107991 0
M  V30 4152 H 397.137 -4.08296 -1.14326 0
M  V30 4153 C 395.596 -2.79378 -1.88281 0
M  V30 4154 O 396.126 -2.69608 -2.97783 0
M  V30 4155 N 394.332 -2.37016 -1.68142 0
M  V30 4156 H 393.879 -2.45162 -0.790772 0
M  V30 4157 H 393.837 -1.96905 -2.45104 0
M  V30 4158 N 397.609 -0.515225 -1.4894 0
M  V30 4159 C 399.025 -0.172099 -1.58669 0
M  V30 4160 C 399.225 1.32405 -1.51892 0
M  V30 4161 O 398.281 2.10116 -1.40027 0
M  V30 4162 C 399.594 -0.761533 -2.90897 0
M  V30 4163 C 401.142 -0.728926 -3.04394 0
M  V30 4164 C 401.617 -1.29667 -4.39261 0
M  V30 4165 N 403.108 -1.25799 -4.4579 0
M  V30 4166 C 403.843 -1.66733 -5.48623 0
M  V30 4167 N 403.339 -2.15327 -6.58488 0
M  V30 4168 N 405.132 -1.58061 -5.39419 0
M  V30 4169 H 397.283 -1.48778 -1.51588 0
M  V30 4170 H 399.546 -0.617968 -0.718901 0
M  V30 4171 H 399.252 -1.81136 -3.01468 0
M  V30 4172 H 399.126 -0.230106 -3.76497 0
M  V30 4173 H 401.513 0.312098 -2.93445 0
M  V30 4174 H 401.594 -1.29766 -2.20442 0
M  V30 4175 H 401.238 -2.33655 -4.50963 0
M  V30 4176 H 401.168 -0.703752 -5.21876 0
M  V30 4177 H 403.659 -0.902102 -3.66975 0
M  V30 4178 H 403.972 -2.44594 -7.33071 0
M  V30 4179 H 402.317 -2.19311 -6.59491 0
M  V30 4180 H 405.508 -1.19906 -4.52482 0
M  V30 4181 H 405.681 -1.90284 -6.19432 0
M  V30 4182 N 399.087 1.5561 -0.249682 0
M  V30 4183 C 400.017 2.24477 0.642826 0
M  V30 4184 C 400.998 1.22601 1.17911 0
M  V30 4185 O 402.183 1.5126 1.21795 0
M  V30 4186 C 399.313 2.94638 1.83863 0
M  V30 4187 C 398.267 4.03227 1.435 0
M  V30 4188 C 397.593 4.60828 2.71186 0
M  V30 4189 C 398.893 5.18796 0.604002 0
M  V30 4190 H 400.587 2.99321 0.0685625 0
M  V30 4191 H 398.133 1.43965 0.0315363 0
M  V30 4192 H 400.086 3.41517 2.46868 0
M  V30 4193 H 398.81 2.17287 2.43832 0
M  V30 4194 H 397.469 3.57121 0.828275 0
M  V30 4195 H 397.117 3.80174 3.29358 0
M  V30 4196 H 396.817 5.34132 2.44901 0
M  V30 4197 H 398.341 5.10442 3.35084 0
M  V30 4198 H 399.755 5.61883 1.13842 0
M  V30 4199 H 398.152 5.98506 0.437097 0
M  V30 4200 H 399.222 4.83384 -0.383147 0
M  V30 4201 N 400.565 -0.0233959 1.57583 0
M  V30 4202 C 401.495 -1.02162 2.09965 0
M  V30 4203 C 402.476 -1.3735 1.00344 0
M  V30 4204 O 403.661 -1.46135 1.27899 0
M  V30 4205 C 400.791 -2.32081 2.58371 0
M  V30 4206 C 399.745 -2.1112 3.72307 0
M  V30 4207 C 399.071 -3.46848 4.06941 0
M  V30 4208 C 400.371 -1.49276 5.00514 0
M  V30 4209 H 402.065 -0.585557 2.93618 0
M  V30 4210 H 399.611 -0.280218 1.41247 0
M  V30 4211 H 401.564 -3.02249 2.93639 0
M  V30 4212 H 400.288 -2.77758 1.71808 0
M  V30 4213 H 398.947 -1.43384 3.37397 0
M  V30 4214 H 398.595 -3.90184 3.17436 0
M  V30 4215 H 398.295 -3.33646 4.83688 0
M  V30 4216 H 399.819 -4.18369 4.44747 0
M  V30 4217 H 401.233 -2.09368 5.33702 0
M  V30 4218 H 399.63 -1.46632 5.8191 0
M  V30 4219 H 400.7 -0.459217 4.82721 0
M  V30 4220 N 402.043 -1.548 -0.295768 0
M  V30 4221 C 402.973 -1.89115 -1.36959 0
M  V30 4222 C 403.954 -0.75059 -1.52644 0
M  V30 4223 O 405.139 -1.00678 -1.66065 0
M  V30 4224 C 402.269 -2.14307 -2.73295 0
M  V30 4225 C 401.223 -3.30151 -2.72368 0
M  V30 4226 C 400.549 -3.40772 -4.12042 0
M  V30 4227 C 401.849 -4.67126 -2.33646 0
M  V30 4228 H 403.543 -2.79053 -1.08488 0
M  V30 4229 H 401.089 -1.34266 -0.520443 0
M  V30 4230 H 403.042 -2.36898 -3.48507 0
M  V30 4231 H 401.766 -1.21145 -3.03301 0
M  V30 4232 H 400.425 -3.0749 -1.99613 0
M  V30 4233 H 400.073 -2.45117 -4.39234 0
M  V30 4234 H 399.773 -4.18645 -4.12322 0
M  V30 4235 H 401.297 -3.6563 -4.89027 0
M  V30 4236 H 402.711 -4.89414 -2.98575 0
M  V30 4237 H 401.108 -5.47751 -2.45129 0
M  V30 4238 H 402.178 -4.67489 -1.28772 0
M  V30 4239 N 403.521 0.559213 -1.47345 0
M  V30 4240 C 404.468 1.66645 -1.59682 0
M  V30 4241 C 405.438 1.60168 -0.43994 0
M  V30 4242 O 406.623 1.79031 -0.659736 0
M  V30 4243 C 403.763 3.04969 -1.61518 0
M  V30 4244 C 402.876 3.21897 -2.88108 0
M  V30 4245 C 402.011 4.50608 -2.81294 0
M  V30 4246 C 401.05 4.60961 -4.02717 0
M  V30 4247 N 400.187 5.81024 -3.94151 0
M  V30 4248 H 405.027 1.55439 -2.54249 0
M  V30 4249 H 402.564 0.757219 -1.26113 0
M  V30 4250 H 404.522 3.85064 -1.60566 0
M  V30 4251 H 403.152 3.15015 -0.704645 0
M  V30 4252 H 402.204 2.35248 -2.98936 0
M  V30 4253 H 403.516 3.25412 -3.78032 0
M  V30 4254 H 402.67 5.3896 -2.7858 0
M  V30 4255 H 401.409 4.49568 -1.89049 0
M  V30 4256 H 400.414 3.71021 -4.05738 0
M  V30 4257 H 401.639 4.63761 -4.96087 0
M  V30 4258 H 399.585 5.80938 -3.04708 0
M  V30 4259 H 399.502 5.85909 -4.77752 0
M  V30 4260 H 400.77 6.71744 -3.9545 0
M  V30 4261 N 404.999 1.35443 0.805782 0
M  V30 4262 C 406.224 1.32037 1.59941 0
M  V30 4263 C 406.649 -0.0994215 1.87837 0
M  V30 4264 O 406.007 -1.06648 1.46615 0
M  V30 4265 C 406.055 2.13354 2.90711 0
M  V30 4266 O 405.159 1.5148 3.83572 0
M  V30 4267 H 404.5 0.452666 0.485787 0
M  V30 4268 H 407.03 1.78496 1.00002 0
M  V30 4269 H 407.04 2.25338 3.40128 0
M  V30 4270 H 405.715 3.16572 2.69732 0
M  V30 4271 H 404.292 1.4834 3.42125 0
M  V30 4272 N 406.477 -1.02803 1.19454 0
M  V30 4273 C 407.754 -1.73299 0.907013 0
M  V30 4274 C 408.134 -2.02772 -0.587086 0
M  V30 4275 O 407.482 -1.68304 -1.54551 0
M  V30 4276 C 407.692 -3.00912 1.76785 0
M  V30 4277 C 409.04 -3.74403 2.00268 0
M  V30 4278 O 410.064 -3.10841 1.73943 0
M  V30 4279 O 408.923 -4.88675 2.4466 0
M  V30 4280 H 406.017 -0.754727 0.338106 0
M  V30 4281 H 408.563 -1.08754 1.30271 0
M  V30 4282 H 407.335 -2.75366 2.7801 0
M  V30 4283 H 406.958 -3.73197 1.37149 0
M  V30 4284 N 407.956 -0.998596 -1.21925 0
M  V30 4285 C 408.866 -0.562736 -2.27751 0
M  V30 4286 C 409.882 0.391203 -1.69545 0
M  V30 4287 O 411.058 0.256625 -1.99758 0
M  V30 4288 C 408.123 0.11012 -3.46525 0
M  V30 4289 C 407.184 -0.887495 -4.20026 0
M  V30 4290 C 406.417 -0.246654 -5.3313 0
M  V30 4291 O 406.64 0.958088 -5.62296 0
M  V30 4292 O 405.574 -0.954374 -5.94286 0
M  V30 4293 H 409.4 -1.44329 -2.67213 0
M  V30 4294 H 406.985 -0.767135 -1.28201 0
M  V30 4295 H 408.867 0.486756 -4.18579 0
M  V30 4296 H 407.542 0.965154 -3.08976 0
M  V30 4297 H 406.449 -1.31517 -3.5022 0
M  V30 4298 H 407.782 -1.71191 -4.6147 0
M  V30 4299 N 409.434 1.37368 -0.772513 0
M  V30 4300 C 410.344 2.34053 -0.160081 0
M  V30 4301 C 411.36 1.60216 0.678728 0
M  V30 4302 O 412.536 1.92303 0.59847 0
M  V30 4303 C 409.601 3.3939 0.708182 0
M  V30 4304 C 408.662 4.29048 -0.147172 0
M  V30 4305 C 407.895 5.29354 0.679744 0
M  V30 4306 O 408.118 5.3723 1.91678 0
M  V30 4307 O 407.052 6.01835 0.0885444 0
M  V30 4308 H 410.878 2.88159 -0.959053 0
M  V30 4309 H 408.463 1.39543 -0.533685 0
M  V30 4310 H 410.345 4.03839 1.20384 0
M  V30 4311 H 409.02 2.8761 1.48533 0
M  V30 4312 H 407.927 3.67697 -0.689205 0
M  V30 4313 H 409.26 4.84134 -0.887423 0
M  V30 4314 N 410.912 0.523116 1.48665 0
M  V30 4315 C 412.137 -0.0117284 2.07397 0
M  V30 4316 C 412.562 -1.28031 1.37803 0
M  V30 4317 O 411.92 -1.75836 0.441762 0
M  V30 4318 C 411.968 -0.225786 3.59892 0
M  V30 4319 O 411.072 -1.29592 3.91509 0
M  V30 4320 H 410.413 0.0360673 0.66302 0
M  V30 4321 H 412.943 0.729066 1.9117 0
M  V30 4322 H 412.953 -0.450552 4.05505 0
M  V30 4323 H 411.628 0.700944 4.09951 0
M  V30 4324 H 410.205 -1.05436 3.57684 0
M  V30 4325 N 412.39 -1.55475 0.257931 0
M  V30 4326 C 413.667 -1.91155 -0.414629 0
M  V30 4327 C 414.047 -1.18008 -1.75035 0
M  V30 4328 O 413.395 -0.301193 -2.26506 0
M  V30 4329 C 413.605 -3.44283 -0.571859 0
M  V30 4330 C 414.953 -4.15744 -0.862678 0
M  V30 4331 O 415.977 -3.50083 -0.657314 0
M  V30 4332 O 414.836 -5.31909 -1.2544 0
M  V30 4333 H 411.93 -0.796016 -0.22425 0
M  V30 4334 H 414.476 -1.66976 0.302814 0
M  V30 4335 H 413.248 -3.89558 0.368844 0
M  V30 4336 H 412.871 -3.7436 -1.33943 0
M  V30 4337 N 413.868 0.0150385 -1.57593 0
M  V30 4338 C 414.815 1.01126 -2.07466 0
M  V30 4339 C 415.785 1.35064 -0.966794 0
M  V30 4340 O 416.97 1.4516 -1.23827 0
M  V30 4341 C 414.11 2.30276 -2.57035 0
M  V30 4342 C 413.223 2.02373 -3.81666 0
M  V30 4343 C 412.358 3.25496 -4.19793 0
M  V30 4344 C 411.397 2.93211 -5.37303 0
M  V30 4345 N 410.534 4.08826 -5.70794 0
M  V30 4346 H 415.374 0.57901 -2.92321 0
M  V30 4347 H 412.911 0.27426 -1.44521 0
M  V30 4348 H 414.869 3.05757 -2.83846 0
M  V30 4349 H 413.499 2.71197 -1.75077 0
M  V30 4350 H 412.551 1.17327 -3.61854 0
M  V30 4351 H 413.863 1.74567 -4.67256 0
M  V30 4352 H 413.017 4.09333 -4.47807 0
M  V30 4353 H 411.756 3.56428 -3.32882 0
M  V30 4354 H 410.761 2.07777 -5.09027 0
M  V30 4355 H 411.986 2.63542 -6.25877 0
M  V30 4356 H 409.932 4.39682 -4.86842 0
M  V30 4357 H 409.849 3.84491 -6.50924 0
M  V30 4358 H 411.117 4.93496 -6.03392 0
M  V30 4359 N 415.346 1.54954 0.287554 0
M  V30 4360 C 416.592 1.75132 1.02257 0
M  V30 4361 C 416.925 0.542858 1.86458 0
M  V30 4362 O 416.2 -0.459856 1.88986 0
M  V30 4363 C 416.483 3.04812 1.91733 0
M  V30 4364 C 416.336 4.35985 1.10622 0
M  V30 4365 C 417.655 3.30438 2.90687 0
M  V30 4366 H 414.774 0.637194 0.370341 0
M  V30 4367 H 417.416 1.87678 0.296111 0
M  V30 4368 H 415.566 2.94247 2.53675 0
M  V30 4369 H 417.238 4.58487 0.508636 0
M  V30 4370 H 415.481 4.31865 0.409271 0
M  V30 4371 H 416.152 5.23017 1.76513 0
M  V30 4372 H 418.628 3.40701 2.38877 0
M  V30 4373 H 417.504 4.22467 3.50447 0
M  V30 4374 H 417.765 2.49377 3.65053 0
M  V30 4375 N 416.824 -0.551391 1.4764 0
M  V30 4376 C 418.073 -1.30467 1.53822 0
M  V30 4377 C 418.386 -1.94495 0.207661 0
M  V30 4378 O 419.592 -2.71099 0.147533 0
M  V30 4379 C 418.048 -2.36616 2.71184 0
M  V30 4380 C 417.656 -1.78754 4.10793 0
M  V30 4381 C 419.4 -3.13088 2.86663 0
M  V30 4382 C 417.307 -2.82717 5.19447 0
M  V30 4383 H 416.237 -0.490584 0.572576 0
M  V30 4384 H 418.888 -0.58494 1.73927 0
M  V30 4385 H 417.27 -3.11529 2.4447 0
M  V30 4386 H 418.444 -1.10173 4.47435 0
M  V30 4387 H 416.759 -1.14846 4.00249 0
M  V30 4388 H 419.356 -3.90736 3.65007 0
M  V30 4389 H 419.699 -3.67635 1.95321 0
M  V30 4390 H 420.232 -2.45288 3.13175 0
M  V30 4391 H 416.971 -2.33018 6.12685 0
M  V30 4392 H 416.491 -3.4969 4.87316 0
M  V30 4393 H 418.17 -3.46102 5.46646 0
M  V30 4394 N 418.302 -1.35869 -0.798587 0
M  V30 4395 C 419.527 -1.32883 -1.59238 0
M  V30 4396 C 419.952 0.0894587 -1.87887 0
M  V30 4397 O 419.31 1.05869 -1.47178 0
M  V30 4398 C 419.358 -2.14892 -2.89575 0
M  V30 4399 O 418.462 -1.53512 -3.82763 0
M  V30 4400 H 417.803 -0.455236 -0.48338 0
M  V30 4401 H 420.333 -1.79024 -0.990539 0
M  V30 4402 H 420.343 -2.27139 -3.38928 0
M  V30 4403 H 419.018 -3.17998 -2.68049 0
M  V30 4404 H 417.595 -1.50153 -3.41334 0
M  V30 4405 N 419.78 1.02168 -1.19998 0
M  V30 4406 C 421.026 1.7606 -1.01855 0
M  V30 4407 C 421.381 1.87178 0.445222 0
M  V30 4408 O 420.674 1.3828 1.32624 0
M  V30 4409 C 420.868 3.18081 -1.62969 0
M  V30 4410 C 420.697 3.20809 -3.15137 0
M  V30 4411 C 419.467 3.28342 -3.84083 0
M  V30 4412 C 421.665 3.07268 -4.1242 0
M  V30 4413 N 419.647 3.2052 -5.23584 0
M  V30 4414 C 421.018 3.0716 -5.38566 0
M  V30 4415 C 423.073 2.91448 -4.03686 0
M  V30 4416 C 421.776 2.92853 -6.56985 0
M  V30 4417 C 423.802 2.78494 -5.21723 0
M  V30 4418 C 423.164 2.79046 -6.46771 0
M  V30 4419 H 419.263 0.655192 -0.426905 0
M  V30 4420 H 421.847 1.21564 -1.52087 0
M  V30 4421 H 420.018 3.70882 -1.15329 0
M  V30 4422 H 421.75 3.80375 -1.38192 0
M  V30 4423 H 418.505 3.34859 -3.34913 0
M  V30 4424 H 418.929 3.19997 -5.96599 0
M  V30 4425 H 423.571 2.89838 -3.07821 0
M  V30 4426 H 421.289 2.93213 -7.53028 0
M  V30 4427 H 424.875 2.67278 -5.16773 0
M  V30 4428 H 423.755 2.69134 -7.36571 0
M  V30 4429 N 421.258 1.00505 1.21394 0
M  V30 4430 C 422.483 0.706367 1.95001 0
M  V30 4431 C 422.908 -0.72463 1.73582 0
M  V30 4432 O 422.266 -1.49702 1.0227 0
M  V30 4433 C 422.314 1.03299 3.45487 0
M  V30 4434 O 421.418 0.138275 4.12168 0
M  V30 4435 H 420.759 0.263175 0.609619 0
M  V30 4436 H 423.289 1.34531 1.54151 0
M  V30 4437 H 423.299 0.979872 3.96059 0
M  V30 4438 H 421.974 2.07567 3.60401 0
M  V30 4439 H 420.551 0.247928 3.72075 0
M  V30 4440 N 422.737 -1.36956 0.779787 0
M  V30 4441 C 423.977 -2.01328 0.353043 0
M  V30 4442 C 424.341 -1.60558 -1.05286 0
M  V30 4443 O 425.542 -2.1745 -1.58016 0
M  V30 4444 C 423.813 -3.53874 0.500822 0
M  V30 4445 S 425.372 -4.38506 0.16053 0
M  V30 4446 H 422.19 -0.69799 0.13539 0
M  V30 4447 H 424.792 -1.67016 1.01617 0
M  V30 4448 H 423.496 -3.81034 1.52451 0
M  V30 4449 H 423.027 -3.92994 -0.178574 0
M  V30 4450 H 425.042 -4.85153 -1.04121 0
M  V30 4451 N 424.215 -0.530993 -1.48385 0
M  V30 4452 C 425.162 0.231223 -2.29639 0
M  V30 4453 C 426.132 0.932864 -1.37429 0
M  V30 4454 O 427.317 0.933692 -1.66394 0
M  V30 4455 C 424.457 1.27155 -3.2082 0
M  V30 4456 C 423.57 0.578655 -4.28107 0
M  V30 4457 C 422.705 1.602 -5.06467 0
M  V30 4458 C 421.744 0.892625 -6.05556 0
M  V30 4459 N 420.881 1.86157 -6.76971 0
M  V30 4460 H 425.721 -0.467848 -2.94305 0
M  V30 4461 H 423.258 -0.242556 -1.45086 0
M  V30 4462 H 425.216 1.88703 -3.72085 0
M  V30 4463 H 423.846 1.939 -2.58075 0
M  V30 4464 H 422.898 -0.150782 -3.80101 0
M  V30 4465 H 424.21 0.0217065 -4.98795 0
M  V30 4466 H 423.364 2.29173 -5.61751 0
M  V30 4467 H 422.103 2.19285 -4.35621 0
M  V30 4468 H 421.108 0.188829 -5.49476 0
M  V30 4469 H 422.333 0.307878 -6.78402 0
M  V30 4470 H 420.279 2.44147 -6.08875 0
M  V30 4471 H 420.196 1.35608 -7.43738 0
M  V30 4472 H 421.464 2.54325 -7.36844 0
M  V30 4473 N 425.693 1.55336 -0.266172 0
M  V30 4474 C 426.625 2.19544 0.658247 0
M  V30 4475 C 427.638 1.17746 1.12427 0
M  V30 4476 O 428.827 1.44517 1.04772 0
M  V30 4477 C 425.927 2.80032 1.9088 0
M  V30 4478 C 425.1 4.07436 1.59106 0
M  V30 4479 C 424.159 4.52056 2.69317 0
M  V30 4480 O 423.185 5.18023 2.35883 0
M  V30 4481 N 424.387 4.21448 3.99201 0
M  V30 4482 H 427.152 2.99503 0.108754 0
M  V30 4483 H 424.713 1.61667 -0.0869059 0
M  V30 4484 H 426.705 3.06831 2.63888 0
M  V30 4485 H 425.275 2.04119 2.36758 0
M  V30 4486 H 424.495 3.88021 0.695243 0
M  V30 4487 H 425.783 4.90462 1.35367 0
M  V30 4488 H 425.181 3.68528 4.29189 0
M  V30 4489 H 423.738 4.53039 4.68614 0
M  V30 4490 N 427.171 -0.0066808 1.57599 0
M  V30 4491 C 428.101 -0.999296 2.11036 0
M  V30 4492 C 429.082 -1.36278 1.01795 0
M  V30 4493 O 430.267 -1.4477 1.29442 0
M  V30 4494 C 427.397 -2.29328 2.60818 0
M  V30 4495 C 426.351 -2.07159 3.74525 0
M  V30 4496 C 425.677 -3.42512 4.10596 0
M  V30 4497 C 426.977 -1.43959 5.02069 0
M  V30 4498 H 428.671 -0.554382 2.94223 0
M  V30 4499 H 426.217 -0.265221 1.41536 0
M  V30 4500 H 428.17 -2.99117 2.96828 0
M  V30 4501 H 426.894 -2.7592 1.74745 0
M  V30 4502 H 425.553 -1.39797 3.38899 0
M  V30 4503 H 425.201 -3.86795 3.21556 0
M  V30 4504 H 424.901 -3.28498 4.87199 0
M  V30 4505 H 426.425 -4.13628 4.4916 0
M  V30 4506 H 427.839 -2.03696 5.35893 0
M  V30 4507 H 426.236 -1.40452 5.83432 0
M  V30 4508 H 427.306 -0.407992 4.83181 0
M  V30 4509 N 428.649 -1.55105 -0.279332 0
M  V30 4510 C 429.896 -1.75412 -1.01177 0
M  V30 4511 C 430.224 -0.551728 -1.86511 0
M  V30 4512 O 429.479 0.465919 -1.90073 0
M  V30 4513 C 429.778 -3.0086 -1.92919 0
M  V30 4514 C 429.444 -4.33689 -1.23387 0
M  V30 4515 C 428.106 -4.69792 -1.04159 0
M  V30 4516 C 430.458 -5.15941 -0.738562 0
M  V30 4517 C 427.786 -5.85707 -0.341166 0
M  V30 4518 C 430.138 -6.32579 -0.0517636 0
M  V30 4519 C 428.802 -6.67326 0.152292 0
M  V30 4520 H 428.072 -0.641879 -0.370233 0
M  V30 4521 H 430.719 -1.89373 -0.284627 0
M  V30 4522 H 429.024 -2.81773 -2.72234 0
M  V30 4523 H 430.721 -3.13768 -2.49701 0
M  V30 4524 H 427.311 -4.05309 -1.39364 0
M  V30 4525 H 431.495 -4.8853 -0.874764 0
M  V30 4526 H 426.751 -6.11157 -0.172287 0
M  V30 4527 H 430.925 -6.9557 0.339828 0
M  V30 4528 H 428.552 -7.56998 0.697014 0
M  V30 4529 N 430.127 0.543554 -1.4793 0
M  V30 4530 C 431.404 1.30458 -1.4574 0
M  V30 4531 C 431.784 2.1048 -0.161692 0
M  V30 4532 O 431.132 2.11831 0.856734 0
M  V30 4533 C 431.342 2.19754 -2.71126 0
M  V30 4534 C 432.69 2.80334 -3.18901 0
M  V30 4535 O 433.714 2.30049 -2.71948 0
M  V30 4536 O 432.573 3.71766 -4.00565 0
M  V30 4537 H 429.667 0.588117 -0.581418 0
M  V30 4538 H 432.213 0.561328 -1.60147 0
M  V30 4539 H 430.985 1.60316 -3.56952 0
M  V30 4540 H 430.608 3.01351 -2.59371 0
M  V30 4541 N 431.605 1.3629 0.791371 0
M  V30 4542 C 432.854 1.29742 1.54434 0
M  V30 4543 C 433.167 -0.121729 1.95221 0
M  V30 4544 O 434.373 -0.309579 2.69729 0
M  V30 4545 C 432.829 2.27623 2.78776 0
M  V30 4546 C 432.437 3.74963 2.45166 0
M  V30 4547 C 434.181 2.30047 3.56761 0
M  V30 4548 C 432.088 4.64626 3.65891 0
M  V30 4549 H 431.018 0.482113 0.579727 0
M  V30 4550 H 433.669 1.61642 0.868565 0
M  V30 4551 H 432.051 1.88714 3.48142 0
M  V30 4552 H 433.225 4.22596 1.83709 0
M  V30 4553 H 431.54 3.75295 1.80396 0
M  V30 4554 H 434.137 2.94247 4.46456 0
M  V30 4555 H 434.48 1.30846 3.95203 0
M  V30 4556 H 435.013 2.67563 2.94372 0
M  V30 4557 H 431.752 5.64883 3.32547 0
M  V30 4558 H 431.272 4.2171 4.26521 0
M  V30 4559 H 432.951 4.80801 4.32943 0
M  V30 4560 N 433.083 -1.0153 1.20538 0
M  V30 4561 C 434.308 -1.79283 1.04271 0
M  V30 4562 C 434.733 -1.8372 -0.403544 0
M  V30 4563 O 434.091 -1.27321 -1.2907 0
M  V30 4564 C 434.139 -3.21535 1.63241 0
M  V30 4565 O 433.243 -4.03099 0.870908 0
M  V30 4566 H 432.584 -0.55293 0.367647 0
M  V30 4567 H 435.114 -1.27696 1.59859 0
M  V30 4568 H 435.124 -3.72243 1.6703 0
M  V30 4569 H 433.799 -3.1762 2.68497 0
M  V30 4570 H 432.376 -3.61693 0.907323 0
M  V30 4571 N 434.561 -1.01147 -1.20859 0
M  V30 4572 C 435.491 -0.597663 -2.25722 0
M  V30 4573 C 436.472 0.384744 -1.65692 0
M  V30 4574 O 437.657 0.271303 -1.92296 0
M  V30 4575 C 434.787 0.0700149 -3.47229 0
M  V30 4576 C 433.741 -0.832843 -4.19819 0
M  V30 4577 C 433.067 -0.0312202 -5.34691 0
M  V30 4578 C 434.367 -2.1385 -4.76514 0
M  V30 4579 H 436.061 -1.47423 -2.60589 0
M  V30 4580 H 433.607 -0.710301 -1.25263 0
M  V30 4581 H 435.56 0.37103 -4.19763 0
M  V30 4582 H 434.284 0.981259 -3.11511 0
M  V30 4583 H 432.943 -1.11778 -3.49144 0
M  V30 4584 H 432.591 0.881515 -4.95215 0
M  V30 4585 H 432.291 -0.632434 -5.84187 0
M  V30 4586 H 433.815 0.26346 -6.10031 0
M  V30 4587 H 435.229 -1.9002 -5.40893 0
M  V30 4588 H 433.626 -2.69012 -5.36426 0
M  V30 4589 H 434.696 -2.80495 -3.95538 0
M  V30 4590 N 436.039 1.36541 -0.78704 0
M  V30 4591 C 437.286 1.99304 -0.358341 0
M  V30 4592 C 437.614 1.62467 1.06933 0
M  V30 4593 O 436.869 0.870019 1.75297 0
M  V30 4594 C 437.168 3.54343 -0.466485 0
M  V30 4595 C 436.834 4.10993 -1.85461 0
M  V30 4596 C 435.496 4.26177 -2.23443 0
M  V30 4597 C 437.848 4.41895 -2.76366 0
M  V30 4598 C 435.176 4.69573 -3.51736 0
M  V30 4599 C 437.528 4.86722 -4.04084 0
M  V30 4600 C 436.192 5.00112 -4.42091 0
M  V30 4601 H 435.462 0.729306 -0.131126 0
M  V30 4602 H 438.109 1.63068 -1.00404 0
M  V30 4603 H 436.414 3.90918 0.262719 0
M  V30 4604 H 438.111 4.00833 -0.115854 0
M  V30 4605 H 434.701 3.99612 -1.54946 0
M  V30 4606 H 438.885 4.29735 -2.48277 0
M  V30 4607 H 434.141 4.78127 -3.81057 0
M  V30 4608 H 438.315 5.09598 -4.7464 0
M  V30 4609 H 435.942 5.33498 -5.41557 0
M  V30 4610 N 437.518 0.538854 1.48102 0
M  V30 4611 C 438.934 0.19732 1.58376 0
M  V30 4612 C 439.134 -1.29971 1.5398 0
M  V30 4613 O 438.19 -2.07861 1.43352 0
M  V30 4614 C 439.503 0.807716 2.89649 0
M  V30 4615 C 441.051 0.77726 3.03196 0
M  V30 4616 C 441.526 1.36639 4.37143 0
M  V30 4617 N 443.017 1.32875 4.43732 0
M  V30 4618 C 443.752 1.7544 5.45901 0
M  V30 4619 N 443.248 2.25776 6.54979 0
M  V30 4620 N 445.041 1.66623 5.36836 0
M  V30 4621 H 437.192 1.5117 1.49202 0
M  V30 4622 H 439.455 0.629327 0.708979 0
M  V30 4623 H 439.161 1.85909 2.98548 0
M  V30 4624 H 439.035 0.289975 3.76084 0
M  V30 4625 H 441.422 -0.265374 2.93904 0
M  V30 4626 H 441.503 1.33256 2.18349 0
M  V30 4627 H 441.147 2.408 4.47189 0
M  V30 4628 H 441.077 0.786689 5.20691 0
M  V30 4629 H 443.568 0.96037 3.65493 0
M  V30 4630 H 443.881 2.56226 7.29087 0
M  V30 4631 H 442.226 2.29775 6.55918 0
M  V30 4632 H 445.417 1.27089 4.50517 0
M  V30 4633 H 445.59 2.00115 6.16326 0
M  V30 4634 N 438.996 -1.55193 0.274407 0
M  V30 4635 C 439.944 -2.23924 -0.629362 0
M  V30 4636 C 440.938 -1.23602 -1.1584 0
M  V30 4637 O 442.144 -1.41535 -1.11211 0
M  V30 4638 H 438.519 -0.718637 -0.221507 0
M  V30 4639 H 440.49 -2.98388 -0.0268322 0
M  V30 4640 C 439.239 -2.97329 -1.80252 0
M  V30 4641 H 438.562 -3.74313 -1.40462 0
M  V30 4642 H 440.002 -3.48743 -2.41152 0
M  V30 4643 C 438.461 -2.0276 -2.69054 0
M  V30 4644 O 438.991 -1.57836 -3.69392 0
M  V30 4645 N 437.197 -1.69275 -2.36208 0
M  V30 4646 H 436.744 -2.06004 -1.54661 0
M  V30 4647 H 436.702 -1.06271 -2.95895 0
M  V30 4648 N 440.474 -0.00167713 -1.576 0
M  V30 4649 C 441.885 0.54091 -1.78693 0
M  V30 4650 C 442.236 1.7386 -0.909247 0
M  V30 4651 O 441.361 2.16109 -0.112176 0
M  V30 4652 C 441.956 0.98806 -3.24072 0
M  V30 4653 C 440.515 1.47594 -3.46256 0
M  V30 4654 C 439.662 0.42792 -2.73978 0
M  V30 4655 H 442.613 -0.22784 -1.57056 0
M  V30 4656 H 442.634 1.85398 -3.32277 0
M  V30 4657 H 442.146 0.116164 -3.87926 0
M  V30 4658 H 440.247 2.36868 -2.87618 0
M  V30 4659 H 440.36 1.50225 -4.54939 0
M  V30 4660 H 438.724 0.889934 -2.38647 0
M  V30 4661 H 439.507 -0.435038 -3.40532 0
M  V30 4662 N 441.952 1.55251 0.271103 0
M  V30 4663 C 443.199 1.75946 1.00245 0
M  V30 4664 C 443.527 0.561611 1.86215 0
M  V30 4665 O 442.782 -0.455832 1.90317 0
M  V30 4666 C 443.081 3.01879 1.91321 0
M  V30 4667 C 442.747 4.34337 1.21086 0
M  V30 4668 C 441.409 4.70338 1.01666 0
M  V30 4669 C 443.761 5.16325 0.71119 0
M  V30 4670 C 441.089 5.8588 0.310099 0
M  V30 4671 C 443.441 6.32597 0.0182157 0
M  V30 4672 C 442.105 6.67236 -0.18768 0
M  V30 4673 H 441.375 0.643833 0.366824 0
M  V30 4674 H 444.022 1.89521 0.27458 0
M  V30 4675 H 442.327 2.83212 2.70736 0
M  V30 4676 H 444.024 3.15088 2.48033 0
M  V30 4677 H 440.614 4.06043 1.37213 0
M  V30 4678 H 444.798 4.88987 0.848844 0
M  V30 4679 H 440.054 6.1124 0.139873 0
M  V30 4680 H 444.228 6.9538 -0.376711 0
M  V30 4681 H 441.855 7.56618 -0.73715 0
M  V30 4682 N 443.43 -0.535701 1.48216 0
M  V30 4683 C 444.677 -1.29183 1.55942 0
M  V30 4684 C 445.005 -1.93125 0.230857 0
M  V30 4685 O 444.26 -1.79556 -0.778331 0
M  V30 4686 C 444.559 -2.4068 2.64212 0
M  V30 4687 C 444.225 -1.94428 4.06827 0
M  V30 4688 C 442.887 -1.81532 4.45645 0
M  V30 4689 C 445.239 -1.59405 4.96225 0
M  V30 4690 C 442.567 -1.31939 5.71672 0
M  V30 4691 C 444.919 -1.11276 6.22736 0
M  V30 4692 C 443.583 -0.969924 6.60416 0
M  V30 4693 H 442.853 -0.472715 0.570632 0
M  V30 4694 H 445.5 -0.598437 1.81909 0
M  V30 4695 H 443.805 -3.15666 2.32083 0
M  V30 4696 H 445.502 -2.98822 2.67407 0
M  V30 4697 H 442.092 -2.05415 3.76168 0
M  V30 4698 H 446.276 -1.68231 4.66917 0
M  V30 4699 H 441.532 -1.19562 5.99596 0
M  V30 4700 H 445.706 -0.832453 6.91407 0
M  V30 4701 H 443.333 -0.583436 7.57958 0
M  V30 4702 N 444.908 -1.36708 -0.784132 0
M  V30 4703 C 446.138 -1.34203 -1.57077 0
M  V30 4704 C 446.546 0.0774945 -1.89041 0
M  V30 4705 O 445.889 1.04628 -1.50992 0
M  V30 4706 C 445.951 -2.10351 -2.91535 0
M  V30 4707 C 445.615 -3.59405 -2.82272 0
M  V30 4708 C 446.612 -4.53545 -2.54151 0
M  V30 4709 C 444.297 -4.02362 -3.00683 0
M  V30 4710 C 446.291 -5.8862 -2.44551 0
M  V30 4711 C 443.978 -5.37526 -2.90704 0
M  V30 4712 C 444.976 -6.30468 -2.62677 0
M  V30 4713 O 444.664 -7.63149 -2.52702 0
M  V30 4714 H 444.396 -0.461791 -0.493685 0
M  V30 4715 H 446.95 -1.80475 -0.980712 0
M  V30 4716 H 445.18 -1.5875 -3.52612 0
M  V30 4717 H 446.869 -2.00636 -3.52845 0
M  V30 4718 H 447.635 -4.21669 -2.39625 0
M  V30 4719 H 443.514 -3.30389 -3.21503 0
M  V30 4720 H 447.058 -6.61133 -2.22596 0
M  V30 4721 H 442.955 -5.69008 -3.04795 0
M  V30 4722 H 443.723 -7.73331 -2.68144 0
M  V30 4723 N 446.386 1.0089 -1.21074 0
M  V30 4724 C 447.635 1.74019 -1.01981 0
M  V30 4725 C 447.948 1.90408 0.447665 0
M  V30 4726 O 449.154 2.60707 0.757906 0
M  V30 4727 C 447.61 3.13026 -1.77603 0
M  V30 4728 C 447.218 3.04623 -3.28495 0
M  V30 4729 C 448.962 3.90312 -1.66904 0
M  V30 4730 C 446.869 4.38685 -3.96623 0
M  V30 4731 H 445.799 0.652422 -0.377971 0
M  V30 4732 H 448.45 1.12755 -1.44771 0
M  V30 4733 H 446.832 3.74878 -1.27604 0
M  V30 4734 H 448.006 2.52032 -3.85767 0
M  V30 4735 H 446.321 2.40827 -3.39693 0
M  V30 4736 H 448.918 4.8951 -2.15138 0
M  V30 4737 H 449.261 4.11558 -0.62658 0
M  V30 4738 H 449.794 3.35104 -2.14359 0
M  V30 4739 H 446.533 4.22641 -5.01054 0
M  V30 4740 H 446.053 4.91252 -3.4414 0
M  V30 4741 H 447.732 5.075 -4.01314 0
M  V30 4742 N 447.864 1.01787 1.20321 0
M  V30 4743 C 449.111 0.707936 1.89722 0
M  V30 4744 C 449.439 -0.762535 1.78929 0
M  V30 4745 O 448.694 -1.56977 1.16861 0
M  V30 4746 C 448.993 1.09076 3.40349 0
M  V30 4747 C 448.659 2.55765 3.71342 0
M  V30 4748 C 447.321 2.95845 3.79511 0
M  V30 4749 C 449.673 3.50723 3.85542 0
M  V30 4750 C 447.001 4.2982 3.99339 0
M  V30 4751 C 449.353 4.84387 4.06881 0
M  V30 4752 C 448.017 5.24172 4.1328 0
M  V30 4753 H 447.287 0.259052 0.694243 0
M  V30 4754 H 449.934 1.27868 1.42555 0
M  V30 4755 H 448.239 0.438453 3.89339 0
M  V30 4756 H 449.936 0.828636 3.92345 0
M  V30 4757 H 446.526 2.2371 3.65584 0
M  V30 4758 H 450.71 3.20916 3.78585 0
M  V30 4759 H 445.966 4.60196 4.02529 0
M  V30 4760 H 450.14 5.57891 4.1681 0
M  V30 4761 H 447.767 6.27997 4.28396 0
M  V30 4762 N 449.342 -1.36122 0.79427 0
M  V30 4763 C 450.57 -2.03362 0.380989 0
M  V30 4764 C 450.985 -1.59881 -1.00416 0
M  V30 4765 O 450.342 -0.790515 -1.6449 0
M  V30 4766 C 450.393 -3.58804 0.440649 0
M  V30 4767 O 450.114 -4.007 1.77118 0
M  V30 4768 C 451.615 -4.43296 0.0186117 0
M  V30 4769 H 448.835 -0.652526 0.156367 0
M  V30 4770 H 451.379 -1.73998 1.07447 0
M  V30 4771 H 449.534 -3.8686 -0.204458 0
M  V30 4772 H 449.948 -4.95309 1.72538 0
M  V30 4773 H 451.422 -5.51887 0.111488 0
M  V30 4774 H 451.899 -4.2684 -1.03461 0
M  V30 4775 H 452.505 -4.20512 0.636395 0
M  V30 4776 N 450.82 -0.546701 -1.47814 0
M  V30 4777 C 452.066 -0.0269594 -2.03382 0
M  V30 4778 C 452.421 1.30406 -1.41464 0
M  V30 4779 O 451.714 1.8332 -0.557151 0
M  V30 4780 C 451.908 0.134869 -3.57145 0
M  V30 4781 C 451.737 -1.17891 -4.33972 0
M  V30 4782 C 450.507 -1.74336 -4.74273 0
M  V30 4783 C 452.705 -2.09361 -4.69758 0
M  V30 4784 N 450.687 -2.99829 -5.35701 0
M  V30 4785 C 452.058 -3.19431 -5.31379 0
M  V30 4786 C 454.113 -2.09484 -4.51687 0
M  V30 4787 C 452.816 -4.2971 -5.76838 0
M  V30 4788 C 454.842 -3.18767 -4.98138 0
M  V30 4789 C 454.204 -4.27557 -5.59799 0
M  V30 4790 H 450.303 -0.0517733 -0.780284 0
M  V30 4791 H 452.887 -0.731673 -1.80429 0
M  V30 4792 H 451.058 0.80869 -3.79888 0
M  V30 4793 H 452.79 0.655726 -3.99352 0
M  V30 4794 H 449.545 -1.28265 -4.559 0
M  V30 4795 H 449.969 -3.63765 -5.70968 0
M  V30 4796 H 454.611 -1.26663 -4.03381 0
M  V30 4797 H 452.329 -5.13297 -6.24141 0
M  V30 4798 H 455.915 -3.19937 -4.85934 0
M  V30 4799 H 454.795 -5.10725 -5.95088 0
M  V30 4800 N 452.299 1.55045 -0.282633 0
M  V30 4801 C 453.524 2.04628 0.337977 0
M  V30 4802 C 453.949 1.15937 1.48123 0
M  V30 4803 O 453.307 0.159532 1.80597 0
M  V30 4804 C 453.355 3.51854 0.78936 0
M  V30 4805 O 452.459 3.66236 1.89592 0
M  V30 4806 H 451.8 0.660434 0.0687261 0
M  V30 4807 H 454.33 2.00261 -0.419124 0
M  V30 4808 H 454.34 3.93361 1.08311 0
M  V30 4809 H 453.015 4.15873 -0.0470419 0
M  V30 4810 H 451.592 3.36633 1.60413 0
M  V30 4811 N 453.777 0.010035 1.57597 0
M  V30 4812 C 455.024 -0.6727 1.91 0
M  V30 4813 C 455.352 -1.73219 0.884614 0
M  V30 4814 O 454.607 -1.95395 -0.109215 0
M  V30 4815 C 454.906 -1.34434 3.31153 0
M  V30 4816 C 454.572 -0.417083 4.48967 0
M  V30 4817 C 453.234 -0.161809 4.80928 0
M  V30 4818 C 455.586 0.220753 5.20732 0
M  V30 4819 C 452.914 0.739426 5.82022 0
M  V30 4820 C 455.266 1.10993 6.22787 0
M  V30 4821 C 453.93 1.37428 6.532 0
M  V30 4822 H 453.2 -0.246158 0.698918 0
M  V30 4823 H 455.847 0.0677145 1.9138 0
M  V30 4824 H 454.152 -2.15905 3.26944 0
M  V30 4825 H 455.849 -1.87883 3.54261 0
M  V30 4826 H 452.439 -0.626217 4.24001 0
M  V30 4827 H 456.623 0.0365643 4.96287 0
M  V30 4828 H 451.879 0.952139 6.03941 0
M  V30 4829 H 456.053 1.61046 6.77523 0
M  V30 4830 H 453.68 2.0743 7.31353 0
M  V30 4831 N 455.255 -1.55392 -0.262866 0
M  V30 4832 C 456.185 -1.91978 -1.32917 0
M  V30 4833 C 457.166 -0.7828 -1.51017 0
M  V30 4834 O 458.351 -1.04178 -1.63892 0
M  V30 4835 C 455.481 -2.20055 -2.68687 0
M  V30 4836 C 454.435 -3.35854 -2.65304 0
M  V30 4837 C 453.761 -3.49435 -4.04721 0
M  V30 4838 C 455.061 -4.71977 -2.23685 0
M  V30 4839 H 456.755 -2.81292 -1.02544 0
M  V30 4840 H 454.301 -1.3534 -0.491846 0
M  V30 4841 H 456.254 -2.44237 -3.43404 0
M  V30 4842 H 454.978 -1.27551 -3.00663 0
M  V30 4843 H 453.637 -3.11655 -1.93045 0
M  V30 4844 H 453.285 -2.54379 -4.33936 0
M  V30 4845 H 452.985 -4.27297 -4.0335 0
M  V30 4846 H 454.509 -3.7592 -4.81161 0
M  V30 4847 H 455.923 -4.95637 -2.88127 0
M  V30 4848 H 454.32 -5.52828 -2.33456 0
M  V30 4849 H 455.39 -4.70115 -1.18827 0
M  V30 4850 N 456.733 0.527833 -1.48498 0
M  V30 4851 C 457.663 1.64136 -1.66077 0
M  V30 4852 C 458.644 1.62286 -0.509625 0
M  V30 4853 O 459.829 1.79449 -0.742413 0
M  V30 4854 C 456.959 3.02717 -1.70234 0
M  V30 4855 C 455.913 3.19426 -2.8487 0
M  V30 4856 C 455.239 4.5909 -2.74118 0
M  V30 4857 C 456.539 3.01993 -4.26142 0
M  V30 4858 H 458.233 1.4968 -2.593 0
M  V30 4859 H 455.779 0.718654 -1.24785 0
M  V30 4860 H 457.732 3.80491 -1.8112 0
M  V30 4861 H 456.456 3.18201 -0.735911 0
M  V30 4862 H 455.115 2.4407 -2.73542 0
M  V30 4863 H 454.763 4.71413 -1.7544 0
M  V30 4864 H 454.463 4.71214 -3.51042 0
M  V30 4865 H 455.987 5.3896 -2.86974 0
M  V30 4866 H 457.401 3.69558 -4.38292 0
M  V30 4867 H 455.798 3.2561 -5.04082 0
M  V30 4868 H 456.868 1.98396 -4.42456 0
M  V30 4869 N 458.211 1.37122 0.776871 0
M  V30 4870 C 459.436 1.354 1.57104 0
M  V30 4871 C 459.861 -0.0595562 1.88006 0
M  V30 4872 O 459.219 -1.03514 1.48844 0
M  V30 4873 C 459.267 2.19472 2.8612 0
M  V30 4874 O 458.371 1.59582 3.80273 0
M  V30 4875 H 457.712 0.462869 0.476076 0
M  V30 4876 H 460.242 1.80577 0.961932 0
M  V30 4877 H 460.252 2.32502 3.35271 0
M  V30 4878 H 458.927 3.22222 2.62956 0
M  V30 4879 H 457.504 1.55564 3.38902 0
M  V30 4880 N 459.689 -1.00246 1.21608 0
M  V30 4881 C 460.621 -2.09244 0.935401 0
M  V30 4882 C 461.634 -1.62592 -0.0823594 0
M  V30 4883 O 462.823 -1.77865 0.150456 0
M  V30 4884 C 459.923 -3.36724 0.383453 0
M  V30 4885 C 459.096 -4.1245 1.45615 0
M  V30 4886 C 458.155 -5.18219 0.912991 0
M  V30 4887 O 457.181 -5.46337 1.59701 0
M  V30 4888 N 458.383 -5.7987 -0.270478 0
M  V30 4889 H 461.148 -2.33905 1.87373 0
M  V30 4890 H 458.709 -1.16748 1.12167 0
M  V30 4891 H 460.701 -4.047 0.00562157 0
M  V30 4892 H 459.271 -3.09201 -0.459758 0
M  V30 4893 H 458.491 -3.39241 2.00772 0
M  V30 4894 H 459.779 -4.59819 2.17817 0
M  V30 4895 H 459.177 -5.59381 -0.843195 0
M  V30 4896 H 457.734 -6.49126 -0.589794 0
M  V30 4897 N 461.167 -1.02423 -1.1978 0
M  V30 4898 C 462.097 -0.62157 -2.25075 0
M  V30 4899 C 463.078 0.367148 -1.6609 0
M  V30 4900 O 464.263 0.250892 -1.92573 0
M  V30 4901 C 461.393 0.0331826 -3.47284 0
M  V30 4902 C 460.347 -0.877323 -4.18912 0
M  V30 4903 C 459.673 -0.0879296 -5.34628 0
M  V30 4904 C 460.973 -2.18892 -4.74219 0
M  V30 4905 H 462.667 -1.50179 -2.59011 0
M  V30 4906 H 460.213 -0.723547 -1.24502 0
M  V30 4907 H 462.166 0.326488 -4.20133 0
M  V30 4908 H 460.89 0.948164 -3.12534 0
M  V30 4909 H 459.549 -1.15475 -3.47938 0
M  V30 4910 H 459.197 0.828941 -4.96123 0
M  V30 4911 H 458.897 -0.694359 -5.83483 0
M  V30 4912 H 460.421 0.198743 -6.10276 0
M  V30 4913 H 461.835 -1.95746 -5.38847 0
M  V30 4914 H 460.232 -2.74686 -5.33542 0
M  V30 4915 H 461.302 -2.84674 -3.92541 0
M  V30 4916 N 462.645 1.35699 -0.801477 0
M  V30 4917 C 463.608 2.28199 -0.213994 0
M  V30 4918 C 464.608 1.49359 0.595691 0
M  V30 4919 O 465.798 1.69186 0.414921 0
M  V30 4920 C 462.93 3.33587 0.702297 0
M  V30 4921 H 464.123 2.81666 -1.02976 0
M  V30 4922 H 461.676 1.45467 -0.571759 0
M  V30 4923 H 462.411 2.85297 1.54195 0
M  V30 4924 H 462.196 3.91906 0.123484 0
M  V30 4925 H 463.686 4.02638 1.10783 0
M  V30 4926 N 464.123 0.554532 1.47522 0
M  V30 4927 C 465.353 0.0342074 2.06572 0
M  V30 4928 C 465.761 -1.26375 1.40805 0
M  V30 4929 O 465.104 -1.7683 0.49769 0
M  V30 4930 C 465.166 -0.235096 3.5873 0
M  V30 4931 C 464.83 0.973024 4.46521 0
M  V30 4932 C 465.827 1.8779 4.848 0
M  V30 4933 C 463.512 1.18694 4.88075 0
M  V30 4934 C 465.506 2.98039 5.63428 0
M  V30 4935 C 463.193 2.29254 5.66468 0
M  V30 4936 C 464.191 3.18757 6.04055 0
M  V30 4937 O 463.879 4.27401 6.8087 0
M  V30 4938 H 463.611 0.041587 0.67472 0
M  V30 4939 H 466.165 0.766748 1.90552 0
M  V30 4940 H 464.395 -1.02191 3.72953 0
M  V30 4941 H 466.084 -0.700477 3.9981 0
M  V30 4942 H 466.85 1.72467 4.53299 0
M  V30 4943 H 462.729 0.49947 4.58286 0
M  V30 4944 H 466.273 3.67926 5.92685 0
M  V30 4945 H 462.17 2.4455 5.97382 0
M  V30 4946 H 462.938 4.25415 6.9926 0
M  V30 4947 N 465.601 -1.54893 0.290851 0
M  V30 4948 C 466.848 -1.99933 -0.321391 0
M  V30 4949 C 467.176 -1.17927 -1.54672 0
M  V30 4950 O 466.431 -0.240902 -1.94212 0
M  V30 4951 C 466.73 -3.49815 -0.732397 0
M  V30 4952 C 466.396 -4.4921 0.390056 0
M  V30 4953 C 465.058 -4.76107 0.698223 0
M  V30 4954 C 467.41 -5.08453 1.14562 0
M  V30 4955 C 464.738 -5.59514 1.76526 0
M  V30 4956 C 467.09 -5.9302 2.2025 0
M  V30 4957 C 465.754 -6.18232 2.51684 0
M  V30 4958 H 465.024 -0.731608 -0.117605 0
M  V30 4959 H 467.671 -1.87107 0.407839 0
M  V30 4960 H 465.976 -3.60199 -1.54155 0
M  V30 4961 H 467.673 -3.82083 -1.21712 0
M  V30 4962 H 464.263 -4.28372 0.13976 0
M  V30 4963 H 468.447 -4.87683 0.920801 0
M  V30 4964 H 463.703 -5.77289 2.01364 0
M  V30 4965 H 467.877 -6.37955 2.7926 0
M  V30 4966 H 465.504 -6.82653 3.34499 0
M  V30 4967 N 467.08 -0.0183926 -1.57589 0
M  V30 4968 C 468.329 0.66185 -1.90532 0
M  V30 4969 C 468.642 1.73904 -0.895366 0
M  V30 4970 O 469.848 2.47518 -1.11566 0
M  V30 4971 C 468.304 1.22844 -3.38286 0
M  V30 4972 C 467.912 0.185103 -4.47617 0
M  V30 4973 C 469.656 1.88581 -3.80312 0
M  V30 4974 C 467.563 0.762723 -5.86461 0
M  V30 4975 H 466.493 0.250972 -0.711006 0
M  V30 4976 H 469.144 -0.0819435 -1.83317 0
M  V30 4977 H 467.526 2.0235 -3.40398 0
M  V30 4978 H 468.7 -0.58671 -4.5705 0
M  V30 4979 H 467.015 -0.372889 -4.14727 0
M  V30 4980 H 469.612 2.32735 -4.81392 0
M  V30 4981 H 469.955 2.72408 -3.14801 0
M  V30 4982 H 470.488 1.15782 -3.80578 0
M  V30 4983 H 467.227 -0.0371713 -6.55489 0
M  V30 4984 H 466.747 1.50327 -5.80656 0
M  V30 4985 H 468.426 1.25576 -6.34697 0
M  V30 4986 N 468.558 1.5553 0.254621 0
M  V30 4987 C 469.969 1.67518 0.824286 0
M  V30 4988 C 470.32 0.614429 1.86331 0
M  V30 4989 O 469.445 -0.240736 2.15057 0
M  V30 4990 C 470.04 3.03692 1.50189 0
M  V30 4991 C 468.599 3.17646 2.01935 0
M  V30 4992 C 467.746 2.63373 0.867746 0
M  V30 4993 H 470.697 1.58671 0.0305843 0
M  V30 4994 H 470.718 2.97706 2.36962 0
M  V30 4995 H 470.23 3.80874 0.745431 0
M  V30 4996 H 468.331 2.45273 2.80485 0
M  V30 4997 H 468.444 4.24455 2.22204 0
M  V30 4998 H 466.808 2.20999 1.26616 0
M  V30 4999 H 467.591 3.43074 0.124498 0
M  V30 5000 N 470.036 -0.519951 1.48776 0
M  V30 5001 C 471.264 -1.29971 1.60982 0
M  V30 5002 C 471.679 -1.86803 0.273885 0
M  V30 5003 O 471.036 -1.66904 -0.738193 0
M  V30 5004 C 471.087 -2.44346 2.66415 0
M  V30 5005 O 470.808 -1.89855 3.94825 0
M  V30 5006 C 472.309 -3.36014 2.89153 0
M  V30 5007 H 469.529 -0.394891 0.542496 0
M  V30 5008 H 472.073 -0.626214 1.94676 0
M  V30 5009 H 470.228 -3.07562 2.35552 0
M  V30 5010 H 470.642 -2.64798 4.5275 0
M  V30 5011 H 472.116 -4.12593 3.66703 0
M  V30 5012 H 472.593 -3.91859 1.98351 0
M  V30 5013 H 473.199 -2.78582 3.21359 0
M  V30 5014 N 471.514 -1.37532 -0.769588 0
M  V30 5015 C 472.761 -1.3286 -1.52822 0
M  V30 5016 C 473.089 0.0862597 -1.94309 0
M  V30 5017 O 472.344 1.05995 -1.6451 0
M  V30 5018 C 472.643 -2.21558 -2.8044 0
M  V30 5019 C 472.309 -3.69796 -2.57996 0
M  V30 5020 C 470.971 -4.10194 -2.51583 0
M  V30 5021 C 473.323 -4.63699 -2.37976 0
M  V30 5022 C 470.651 -5.42608 -2.23144 0
M  V30 5023 C 473.003 -5.96353 -2.1106 0
M  V30 5024 C 471.667 -6.35853 -2.03093 0
M  V30 5025 H 470.937 -0.486168 -0.559215 0
M  V30 5026 H 473.584 -1.69757 -0.886277 0
M  V30 5027 H 471.889 -1.77663 -3.49204 0
M  V30 5028 H 473.586 -2.15256 -3.38328 0
M  V30 5029 H 470.176 -3.37759 -2.63851 0
M  V30 5030 H 474.36 -4.33346 -2.41919 0
M  V30 5031 H 469.616 -5.72173 -2.15472 0
M  V30 5032 H 473.79 -6.68667 -1.94568 0
M  V30 5033 H 471.417 -7.38382 -1.8082 0
M  V30 5034 N 472.992 0.995999 -1.22138 0
M  V30 5035 C 473.942 2.06988 -0.956042 0
M  V30 5036 C 474.926 1.60636 0.0921576 0
M  V30 5037 O 476.118 1.76607 -0.117958 0
M  V30 5038 C 473.247 3.39148 -0.532335 0
M  V30 5039 C 472.333 3.92142 -1.61509 0
M  V30 5040 N 472.724 4.18397 -2.84214 0
M  V30 5041 C 471.022 4.20514 -1.48606 0
M  V30 5042 C 471.723 4.61425 -3.54206 0
M  V30 5043 N 470.699 4.64934 -2.81669 0
M  V30 5044 H 474.501 2.25223 -1.88816 0
M  V30 5045 H 472.015 1.17748 -1.11845 0
M  V30 5046 H 474.012 4.15642 -0.323574 0
M  V30 5047 H 472.672 3.22314 0.392921 0
M  V30 5048 H 473.683 4.06682 -3.20671 0
M  V30 5049 H 470.36 4.12769 -0.626762 0
M  V30 5050 H 471.75 4.90387 -4.59315 0
M  V30 5051 N 474.47 1.03057 1.19235 0
M  V30 5052 C 475.4 0.633497 2.24742 0
M  V30 5053 C 476.381 -0.358335 1.66283 0
M  V30 5054 O 477.566 -0.240676 1.92703 0
M  V30 5055 C 474.696 -0.0147648 3.47297 0
M  V30 5056 C 473.65 0.899527 4.18441 0
M  V30 5057 C 472.976 0.116281 5.34574 0
M  V30 5058 C 474.276 2.21404 4.73051 0
M  V30 5059 H 475.97 1.5155 2.58211 0
M  V30 5060 H 473.516 0.73014 1.24117 0
M  V30 5061 H 475.469 -0.304202 4.20301 0
M  V30 5062 H 474.193 -0.931577 3.13032 0
M  V30 5063 H 472.852 1.17319 3.47321 0
M  V30 5064 H 472.5 -0.802619 4.96555 0
M  V30 5065 H 472.2 0.725293 5.83107 0
M  V30 5066 H 473.724 -0.166376 6.10373 0
M  V30 5067 H 475.138 1.98601 5.37802 0
M  V30 5068 H 473.535 2.77512 5.32078 0
M  V30 5069 H 474.605 2.86752 3.91026 0
M  V30 5070 N 475.948 -1.35272 0.808662 0
M  V30 5071 C 477.194 -1.99003 0.390581 0
M  V30 5072 C 477.527 -1.63999 -1.0401 0
M  V30 5073 O 476.802 -0.904368 -1.72196 0
M  V30 5074 C 477.085 -3.55454 0.576566 0
M  V30 5075 C 476.938 -4.00249 2.05233 0
M  V30 5076 C 478.257 -4.401 0.00354277 0
M  V30 5077 H 475.376 -0.722917 0.143388 0
M  V30 5078 H 478.018 -1.6039 1.01858 0
M  V30 5079 H 476.168 -3.88477 0.0419766 0
M  V30 5080 H 477.84 -3.77626 2.64946 0
M  V30 5081 H 476.083 -3.51082 2.54801 0
M  V30 5082 H 476.754 -5.0911 2.13333 0
M  V30 5083 H 479.23 -4.13548 0.460117 0
M  V30 5084 H 478.106 -5.48656 0.163575 0
M  V30 5085 H 478.367 -4.28444 -1.09032 0
M  V30 5086 N 477.426 -0.562348 -1.47226 0
M  V30 5087 C 478.389 0.172056 -2.28553 0
M  V30 5088 C 479.389 0.837928 -1.37242 0
M  V30 5089 O 480.579 0.693001 -1.59822 0
M  V30 5090 C 477.711 1.25223 -3.17068 0
M  V30 5091 H 478.904 -0.542401 -2.94954 0
M  V30 5092 H 476.457 -0.319493 -1.53 0
M  V30 5093 H 477.192 1.99892 -2.55369 0
M  V30 5094 H 476.977 0.779515 -3.84273 0
M  V30 5095 H 478.467 1.76791 -3.78332 0
M  V30 5096 N 478.904 1.54736 -0.299062 0
M  V30 5097 C 480.32 1.59507 0.0543849 0
M  V30 5098 C 480.52 1.31606 1.52585 0
M  V30 5099 O 479.576 1.08853 2.27832 0
M  V30 5100 C 480.889 2.98751 -0.34181 0
M  V30 5101 C 482.437 3.1165 -0.290414 0
M  V30 5102 C 482.912 4.53199 -0.661402 0
M  V30 5103 N 484.403 4.59114 -0.613863 0
M  V30 5104 C 485.138 5.66709 -0.873417 0
M  V30 5105 N 484.634 6.82349 -1.19884 0
M  V30 5106 N 486.427 5.56369 -0.800608 0
M  V30 5107 H 478.578 1.71133 -1.25806 0
M  V30 5108 H 480.841 0.799186 -0.509908 0
M  V30 5109 H 480.547 3.24085 -1.36608 0
M  V30 5110 H 480.421 3.75961 0.305508 0
M  V30 5111 H 482.808 2.86066 0.724605 0
M  V30 5112 H 482.889 2.366 -0.972327 0
M  V30 5113 H 482.533 4.79513 -1.67422 0
M  V30 5114 H 482.463 5.26583 0.0425612 0
M  V30 5115 H 484.954 3.76053 -0.3732 0
M  V30 5116 H 485.267 7.60326 -1.38291 0
M  V30 5117 H 483.612 6.83906 -1.23685 0
M  V30 5118 H 486.803 4.64904 -0.546045 0
M  V30 5119 H 486.976 6.40139 -1.00626 0
M  V30 5120 N 480.382 0.0267497 1.57577 0
M  V30 5121 C 481.345 -0.940916 2.08996 0
M  V30 5122 C 482.345 -1.25561 1.00455 0
M  V30 5123 O 483.535 -1.19634 1.26623 0
M  V30 5124 C 480.667 -2.25814 2.55384 0
M  V30 5125 H 481.86 -0.495628 2.95776 0
M  V30 5126 H 479.413 -0.221241 1.54726 0
M  V30 5127 H 480.148 -2.74976 1.71926 0
M  V30 5128 H 479.933 -2.04285 3.34679 0
M  V30 5129 H 481.423 -2.95178 2.95398 0
M  V30 5130 N 481.861 -1.55662 -0.24637 0
M  V30 5131 C 482.808 -1.90361 -1.30504 0
M  V30 5132 C 483.778 -0.757905 -1.47801 0
M  V30 5133 O 484.963 -1.01161 -1.61775 0
M  V30 5134 C 482.103 -2.2042 -2.65535 0
M  V30 5135 C 481.216 -3.47799 -2.56242 0
M  V30 5136 C 480.351 -3.67426 -3.8363 0
M  V30 5137 C 479.39 -4.88403 -3.68956 0
M  V30 5138 N 478.527 -5.04548 -4.88237 0
M  V30 5139 H 483.367 -2.80645 -1.00213 0
M  V30 5140 H 480.904 -1.38924 -0.483577 0
M  V30 5141 H 482.862 -2.35853 -3.44135 0
M  V30 5142 H 481.492 -1.3334 -2.93973 0
M  V30 5143 H 480.544 -3.40694 -1.69208 0
M  V30 5144 H 481.856 -4.36544 -2.4131 0
M  V30 5145 H 481.01 -3.82821 -4.70673 0
M  V30 5146 H 479.749 -2.76914 -4.01459 0
M  V30 5147 H 478.754 -4.72984 -2.80296 0
M  V30 5148 H 479.979 -5.80375 -3.52621 0
M  V30 5149 H 477.925 -4.16974 -5.06427 0
M  V30 5150 H 477.842 -5.87384 -4.75937 0
M  V30 5151 H 479.11 -5.24355 -5.76777 0
M  V30 5152 N 483.339 0.512053 -1.4905 0
M  V30 5153 C 484.567 1.29116 -1.61669 0
M  V30 5154 C 484.982 1.86655 -0.283787 0
M  V30 5155 O 484.339 1.67293 0.729331 0
M  V30 5156 C 484.39 2.4293 -2.67707 0
M  V30 5157 O 484.111 1.87758 -3.95826 0
M  V30 5158 C 485.612 3.34476 -2.90931 0
M  V30 5159 H 482.832 0.392009 -0.544583 0
M  V30 5160 H 485.376 0.615881 -1.95006 0
M  V30 5161 H 483.531 3.06308 -2.37179 0
M  V30 5162 H 483.945 2.62393 -4.54148 0
M  V30 5163 H 485.419 4.10642 -3.68886 0
M  V30 5164 H 485.896 3.90801 -2.00427 0
M  V30 5165 H 486.502 2.76874 -3.22832 0
M  V30 5166 N 484.817 1.37938 0.762283 0
M  V30 5167 C 485.747 1.37176 1.88958 0
M  V30 5168 C 486.728 0.238945 1.68413 0
M  V30 5169 O 487.913 0.440726 1.89133 0
M  V30 5170 C 485.043 1.18742 3.2637 0
M  V30 5171 C 483.997 2.29136 3.61498 0
M  V30 5172 C 483.323 1.95816 4.97554 0
M  V30 5173 C 484.623 3.71363 3.6727 0
M  V30 5174 H 486.317 2.31509 1.89853 0
M  V30 5175 H 483.863 1.11438 0.912005 0
M  V30 5176 H 485.816 1.16837 4.04879 0
M  V30 5177 H 484.54 0.208683 3.25933 0
M  V30 5178 H 483.199 2.30213 2.85303 0
M  V30 5179 H 482.847 0.964475 4.93667 0
M  V30 5180 H 482.547 2.69745 5.22026 0
M  V30 5181 H 484.071 1.95513 5.78452 0
M  V30 5182 H 485.485 3.72364 4.35911 0
M  V30 5183 H 483.882 4.44425 4.03245 0
M  V30 5184 H 484.952 4.04305 2.67704 0
M  V30 5185 N 486.295 -0.989507 1.22664 0
M  V30 5186 C 487.543 -1.72612 1.05117 0
M  V30 5187 C 487.864 -1.90552 -0.414131 0
M  V30 5188 O 487.134 -1.4676 -1.29762 0
M  V30 5189 H 485.714 -0.639555 0.385977 0
M  V30 5190 H 488.376 -1.19158 1.54232 0
M  V30 5191 H 487.472 -2.71926 1.53175 0
M  V30 5192 N 487.773 -1.03688 -1.18687 0
M  V30 5193 C 489.022 -0.733235 -1.879 0
M  V30 5194 C 489.335 0.741745 -1.8099 0
M  V30 5195 O 490.541 1.15875 -2.4553 0
M  V30 5196 C 488.997 -1.26127 -3.37076 0
M  V30 5197 C 488.605 -2.76461 -3.52524 0
M  V30 5198 C 490.349 -1.03398 -4.11715 0
M  V30 5199 C 488.256 -3.22642 -4.95637 0
M  V30 5200 H 487.186 -0.270584 -0.703776 0
M  V30 5201 H 489.837 -1.25222 -1.34133 0
M  V30 5202 H 488.219 -0.670165 -3.90288 0
M  V30 5203 H 489.393 -3.41296 -3.09602 0
M  V30 5204 H 487.708 -2.97559 -2.91286 0
M  V30 5205 H 490.305 -1.3542 -5.17267 0
M  V30 5206 H 490.648 0.0289246 -4.1629 0
M  V30 5207 H 491.181 -1.5895 -3.64664 0
M  V30 5208 H 487.92 -4.28296 -4.96228 0
M  V30 5209 H 487.44 -2.62539 -5.39289 0
M  V30 5210 H 489.119 -3.16444 -5.64333 0
M  V30 5211 N 489.251 1.34841 -0.815825 0
M  V30 5212 C 490.528 1.92908 -0.323416 0
M  V30 5213 C 490.908 1.74479 1.18828 0
M  V30 5214 O 490.256 1.11928 1.99209 0
M  V30 5215 C 490.466 3.40957 -0.744952 0
M  V30 5216 C 491.814 4.18107 -0.739716 0
M  V30 5217 O 492.838 3.49511 -0.68708 0
M  V30 5218 O 491.697 5.40517 -0.806456 0
M  V30 5219 H 488.791 0.822436 -0.0867646 0
M  V30 5220 H 491.337 1.4386 -0.90014 0
M  V30 5221 H 490.109 3.4814 -1.78646 0
M  V30 5222 H 489.732 3.97341 -0.143535 0
M  V30 5223 N 490.729 0.570148 1.46925 0
M  V30 5224 C 491.978 0.0487352 2.01641 0
M  V30 5225 C 492.291 -1.31433 1.44861 0
M  V30 5226 O 493.497 -1.92638 1.91318 0
M  V30 5227 C 491.953 0.0365817 3.59881 0
M  V30 5228 C 491.561 1.39719 4.25655 0
M  V30 5229 C 493.305 -0.431545 4.22301 0
M  V30 5230 C 491.212 1.34345 5.75939 0
M  V30 5231 H 490.142 0.0144492 0.753862 0
M  V30 5232 H 492.793 0.719928 1.68788 0
M  V30 5233 H 491.175 -0.700522 3.89755 0
M  V30 5234 H 492.349 2.15303 4.07408 0
M  V30 5235 H 490.664 1.80431 3.75278 0
M  V30 5236 H 493.261 -0.490354 5.32447 0
M  V30 5237 H 493.604 -1.44638 3.90366 0
M  V30 5238 H 494.137 0.251102 3.97007 0
M  V30 5239 H 490.876 2.33469 6.12513 0
M  V30 5240 H 490.396 0.629615 5.96486 0
M  V30 5241 H 492.075 1.051 6.38407 0
M  V30 5242 N 492.207 -1.54576 0.307264 0
M  V30 5243 C 493.14 -2.19946 -0.608195 0
M  V30 5244 C 494.118 -1.17096 -1.12815 0
M  V30 5245 O 495.302 -1.45766 -1.19518 0
M  V30 5246 C 492.429 -2.84826 -1.8328 0
M  V30 5247 C 491.475 -4.01256 -1.44554 0
M  V30 5248 S 492.308 -5.33197 -0.49612 0
M  V30 5249 C 493.464 -6.01563 -1.72838 0
M  V30 5250 H 493.697 -2.97253 -0.0528544 0
M  V30 5251 H 491.23 -1.54129 0.0913837 0
M  V30 5252 H 493.188 -3.22832 -2.53554 0
M  V30 5253 H 491.849 -2.07353 -2.35931 0
M  V30 5254 H 491.042 -4.45457 -2.35762 0
M  V30 5255 H 490.644 -3.6484 -0.822671 0
M  V30 5256 H 492.936 -6.22751 -2.6681 0
M  V30 5257 H 493.879 -6.9552 -1.32882 0
M  V30 5258 H 494.287 -5.31279 -1.90795 0
M  V30 5259 N 493.685 -0.035106 -1.57561 0
M  V30 5260 C 494.962 0.681212 -1.83354 0
M  V30 5261 C 495.342 1.89986 -0.920252 0
M  V30 5262 O 494.69 2.28489 0.0226815 0
M  V30 5263 C 494.9 1.05376 -3.32712 0
M  V30 5264 C 496.248 1.44286 -3.99333 0
M  V30 5265 O 497.272 1.14656 -3.37242 0
M  V30 5266 O 496.131 1.99518 -5.08778 0
M  V30 5267 H 493.225 0.334741 -0.756226 0
M  V30 5268 H 495.771 -0.0632448 -1.69582 0
M  V30 5269 H 494.543 0.186668 -3.90854 0
M  V30 5270 H 494.166 1.85619 -3.51613 0
M  V30 5271 N 495.163 1.55791 0.238111 0
M  V30 5272 C 496.126 1.90239 1.27835 0
M  V30 5273 C 497.126 0.779552 1.4064 0
M  V30 5274 O 498.316 1.04747 1.3919 0
M  V30 5275 C 495.448 2.13859 2.65475 0
M  V30 5276 H 496.641 2.83262 0.985034 0
M  V30 5277 H 494.194 1.48818 0.477799 0
M  V30 5278 H 494.929 1.23334 2.99932 0
M  V30 5279 H 494.714 2.95643 2.57561 0
M  V30 5280 H 496.204 2.41664 3.40571 0
M  V30 5281 N 496.642 -0.504142 1.49319 0
M  V30 5282 C 497.867 -1.28729 1.62615 0
M  V30 5283 C 498.292 -1.85752 0.296309 0
M  V30 5284 O 497.65 -1.65704 -0.735649 0
M  V30 5285 C 497.698 -2.39561 2.69524 0
M  V30 5286 O 496.802 -3.43324 2.28478 0
M  V30 5287 H 496.143 -0.380172 0.544395 0
M  V30 5288 H 498.673 -0.603872 1.95485 0
M  V30 5289 H 498.683 -2.8537 2.91595 0
M  V30 5290 H 497.358 -1.97423 3.66056 0
M  V30 5291 H 495.935 -3.03455 2.16725 0
M  V30 5292 N 498.12 -1.38341 -0.754957 0
M  V30 5293 C 499.35 -1.37504 -1.54195 0
M  V30 5294 C 499.758 0.0373787 -1.89163 0
M  V30 5295 O 499.101 1.01402 -1.53178 0
M  V30 5296 C 499.163 -2.16488 -2.87008 0
M  V30 5297 C 498.827 -3.65311 -2.74585 0
M  V30 5298 C 499.824 -4.58834 -2.44474 0
M  V30 5299 C 497.509 -4.08649 -2.9208 0
M  V30 5300 C 499.503 -5.93675 -2.32011 0
M  V30 5301 C 497.19 -5.43571 -2.79237 0
M  V30 5302 C 498.188 -6.35898 -2.49245 0
M  V30 5303 O 497.876 -7.68338 -2.36458 0
M  V30 5304 H 497.608 -0.472159 -0.483779 0
M  V30 5305 H 500.162 -1.82515 -0.94221 0
M  V30 5306 H 498.392 -1.66194 -3.49166 0
M  V30 5307 H 500.081 -2.08076 -3.4851 0
M  V30 5308 H 500.847 -4.26657 -2.30627 0
M  V30 5309 H 496.726 -3.37134 -3.14422 0
M  V30 5310 H 500.27 -6.65706 -2.08522 0
M  V30 5311 H 496.167 -5.75345 -2.92657 0
M  V30 5312 H 496.935 -7.78845 -2.5168 0
M  V30 5313 N 499.598 0.982988 -1.23187 0
M  V30 5314 C 500.528 2.09301 -1.03515 0
M  V30 5315 C 501.509 1.70035 0.0471136 0
M  V30 5316 O 502.694 1.93847 -0.117029 0
M  V30 5317 C 499.824 3.4167 -0.622791 0
M  V30 5318 C 498.778 3.94828 -1.65211 0
M  V30 5319 C 498.104 5.23362 -1.09527 0
M  V30 5320 C 499.404 4.2439 -3.04451 0
M  V30 5321 H 501.098 2.26016 -1.96359 0
M  V30 5322 H 498.644 1.08611 -0.945501 0
M  V30 5323 H 500.597 4.18746 -0.472233 0
M  V30 5324 H 499.321 3.24811 0.341329 0
M  V30 5325 H 497.98 3.19895 -1.79061 0
M  V30 5326 H 497.628 5.02852 -0.122211 0
M  V30 5327 H 497.328 5.59895 -1.783 0
M  V30 5328 H 498.852 6.03062 -0.956511 0
M  V30 5329 H 500.266 4.92225 -2.93917 0
M  V30 5330 H 498.663 4.72118 -3.70438 0
M  V30 5331 H 499.733 3.31765 -3.53638 0
M  V30 5332 N 501.076 1.04316 1.18135 0
M  V30 5333 C 502.322 0.749128 1.88457 0
M  V30 5334 C 502.655 -0.72149 1.803 0
M  V30 5335 O 501.93 -1.52676 1.205 0
M  V30 5336 C 502.213 1.21905 3.38838 0
M  V30 5337 C 502.066 2.75195 3.55792 0
M  V30 5338 C 503.385 0.811085 4.32561 0
M  V30 5339 H 500.504 0.273611 0.684329 0
M  V30 5340 H 503.146 1.29561 1.38975 0
M  V30 5341 H 501.296 0.754137 3.8111 0
M  V30 5342 H 502.968 3.29743 3.22595 0
M  V30 5343 H 501.211 3.14899 2.98364 0
M  V30 5344 H 501.882 3.03135 4.61317 0
M  V30 5345 H 504.358 1.21118 3.98082 0
M  V30 5346 H 503.234 1.16761 5.36338 0
M  V30 5347 H 503.495 -0.285596 4.41177 0
M  V30 5348 N 502.554 -1.34406 0.822964 0
M  V30 5349 C 503.779 -2.0304 0.423034 0
M  V30 5350 C 504.204 -1.61568 -0.963196 0
M  V30 5351 O 503.562 -0.800339 -1.62678 0
M  V30 5352 C 503.61 -3.56636 0.53321 0
M  V30 5353 O 502.714 -4.09971 -0.446939 0
M  V30 5354 H 502.055 -0.64075 0.174171 0
M  V30 5355 H 504.585 -1.71653 1.11339 0
M  V30 5356 H 504.595 -4.05945 0.408991 0
M  V30 5357 H 503.27 -3.86168 1.54425 0
M  V30 5358 H 501.847 -3.71835 -0.281601 0
M  V30 5359 N 504.032 -0.577932 -1.46621 0
M  V30 5360 C 505.278 -0.0617793 -2.02706 0
M  V30 5361 C 505.611 1.29294 -1.44903 0
M  V30 5362 O 504.886 1.8461 -0.61232 0
M  V30 5363 C 505.169 0.00911824 -3.60099 0
M  V30 5364 C 505.022 -1.37416 -4.28295 0
M  V30 5365 C 506.341 0.712159 -4.343 0
M  V30 5366 H 503.46 -0.0239246 -0.736612 0
M  V30 5367 H 506.102 -0.744211 -1.74818 0
M  V30 5368 H 504.252 0.590292 -3.83989 0
M  V30 5369 H 505.924 -2.00013 -4.15683 0
M  V30 5370 H 504.167 -1.94319 -3.87843 0
M  V30 5371 H 504.838 -1.27707 -5.37024 0
M  V30 5372 H 507.314 0.218486 -4.15526 0
M  V30 5373 H 506.19 0.730782 -5.44014 0
M  V30 5374 H 506.451 1.77251 -4.05012 0
M  V30 5375 N 505.51 1.54411 -0.315457 0
M  V30 5376 C 506.473 2.22713 0.54142 0
M  V30 5377 C 507.473 1.2179 1.04995 0
M  V30 5378 O 508.663 1.46426 0.943667 0
M  V30 5379 C 505.795 2.92485 1.75116 0
M  V30 5380 H 506.988 2.99849 -0.0555508 0
M  V30 5381 H 504.541 1.56159 -0.0664453 0
M  V30 5382 H 505.276 2.19466 2.38758 0
M  V30 5383 H 505.061 3.66483 1.39401 0
M  V30 5384 H 506.551 3.44548 2.35959 0
M  V30 5385 N 506.988 0.0434614 1.5754 0
M  V30 5386 C 508.236 -0.630786 1.92004 0
M  V30 5387 C 508.557 -1.71836 0.921807 0
M  V30 5388 O 507.827 -1.9587 -0.034522 0
M  V30 5389 H 506.407 -0.235988 0.708745 0
M  V30 5390 H 509.069 0.0946462 1.9467 0
M  V30 5391 H 508.165 -1.07434 2.93026 0
M  V30 5392 N 508.466 -1.55915 -0.229846 0
M  V30 5393 C 509.715 -1.77742 -0.953455 0
M  V30 5394 C 510.028 -0.610524 -1.85828 0
M  V30 5395 O 511.234 -0.712219 -2.61992 0
M  V30 5396 C 509.69 -3.14738 -1.74551 0
M  V30 5397 C 509.298 -4.39126 -0.887242 0
M  V30 5398 C 511.042 -3.45895 -2.46084 0
M  V30 5399 C 508.949 -5.67149 -1.67617 0
M  V30 5400 H 507.879 -0.662648 -0.359741 0
M  V30 5401 H 510.53 -1.82322 -0.207576 0
M  V30 5402 H 508.912 -3.04311 -2.53399 0
M  V30 5403 H 510.086 -4.60588 -0.139892 0
M  V30 5404 H 508.401 -4.15427 -0.284443 0
M  V30 5405 H 510.998 -4.38767 -3.05594 0
M  V30 5406 H 511.341 -2.68007 -3.18556 0
M  V30 5407 H 511.874 -3.57614 -1.74233 0
M  V30 5408 H 508.613 -6.47906 -0.994881 0
M  V30 5409 H 508.133 -5.49763 -2.39836 0
M  V30 5410 H 509.812 -6.07025 -2.23898 0
M  V30 5411 N 509.944 0.496216 -1.49584 0
M  V30 5412 C 510.874 1.60576 -1.69521 0
M  V30 5413 C 511.855 1.61169 -0.543933 0
M  V30 5414 O 513.04 1.77834 -0.78031 0
M  V30 5415 C 510.17 2.99038 -1.76616 0
M  V30 5416 C 509.124 3.13312 -2.91581 0
M  V30 5417 C 508.45 4.53172 -2.83794 0
M  V30 5418 C 509.75 2.92886 -4.32452 0
M  V30 5419 H 511.444 1.44146 -2.62416 0
M  V30 5420 H 508.99 0.692024 -1.26282 0
M  V30 5421 H 510.943 3.76564 -1.8915 0
M  V30 5422 H 509.667 3.16568 -0.80324 0
M  V30 5423 H 508.326 2.38213 -2.78658 0
M  V30 5424 H 507.974 4.67585 -1.854 0
M  V30 5425 H 507.674 4.63662 -3.60958 0
M  V30 5426 H 509.198 5.32752 -2.98342 0
M  V30 5427 H 510.612 3.60178 -4.46032 0
M  V30 5428 H 509.009 3.14844 -5.10875 0
M  V30 5429 H 510.079 1.88966 -4.46565 0
M  V30 5430 N 511.423 1.38739 0.74761 0
M  V30 5431 C 512.333 1.38696 1.89211 0
M  V30 5432 C 513.349 0.283303 1.71678 0
M  V30 5433 O 514.525 0.522713 1.94498 0
M  V30 5434 C 511.59 1.21662 3.24653 0
M  V30 5435 C 510.651 2.41886 3.54669 0
M  V30 5436 C 509.884 2.25655 4.83648 0
M  V30 5437 O 510.107 1.25339 5.56459 0
M  V30 5438 O 509.041 3.14372 5.13277 0
M  V30 5439 H 512.867 2.35143 1.92202 0
M  V30 5440 H 510.452 1.19721 0.893708 0
M  V30 5441 H 512.334 1.14246 4.05618 0
M  V30 5442 H 511.009 0.283024 3.2246 0
M  V30 5443 H 509.916 2.54877 2.73841 0
M  V30 5444 H 511.249 3.33895 3.61628 0
M  V30 5445 N 512.901 -0.976442 1.23707 0
M  V30 5446 C 514.129 -1.75341 1.09833 0
M  V30 5447 C 514.544 -1.8553 -0.349885 0
M  V30 5448 O 513.901 -1.33732 -1.24185 0
M  V30 5449 C 513.952 -3.17833 1.72233 0
M  V30 5450 O 513.673 -3.08167 3.11391 0
M  V30 5451 C 515.174 -4.11906 1.63853 0
M  V30 5452 H 512.394 -0.550137 0.384175 0
M  V30 5453 H 514.938 -1.2265 1.63638 0
M  V30 5454 H 513.093 -3.67538 1.22452 0
M  V30 5455 H 513.507 -3.97897 3.41729 0
M  V30 5456 H 514.981 -5.09579 2.12211 0
M  V30 5457 H 515.458 -4.35109 0.598092 0
M  V30 5458 H 516.064 -3.68107 2.13019 0
M  V30 5459 N 514.379 -1.04941 -1.1758 0
M  V30 5460 C 515.625 -0.759112 -1.88057 0
M  V30 5461 C 515.958 0.711918 -1.8068 0
M  V30 5462 O 515.233 1.52035 -1.21308 0
M  V30 5463 C 515.516 -1.237 -3.38187 0
M  V30 5464 C 515.369 -2.77078 -3.54327 0
M  V30 5465 C 516.688 -0.834014 -4.32125 0
M  V30 5466 H 513.807 -0.277237 -0.682868 0
M  V30 5467 H 516.449 -1.30296 -1.38286 0
M  V30 5468 H 514.599 -0.774337 -3.80705 0
M  V30 5469 H 516.271 -3.31449 -3.20842 0
M  V30 5470 H 514.514 -3.16477 -2.96689 0
M  V30 5471 H 515.185 -3.05577 -4.59703 0
M  V30 5472 H 517.661 -1.23228 -3.97434 0
M  V30 5473 H 516.537 -1.19603 -5.35711 0
M  V30 5474 H 516.798 0.262195 -4.41322 0
M  V30 5475 N 515.857 1.33968 -0.830081 0
M  V30 5476 C 517.082 2.02813 -0.433796 0
M  V30 5477 C 517.507 1.62076 0.954614 0
M  V30 5478 O 516.865 0.808955 1.62252 0
M  V30 5479 C 516.913 3.56348 -0.552115 0
M  V30 5480 O 516.017 4.10202 0.425191 0
M  V30 5481 H 515.358 0.639817 -0.177567 0
M  V30 5482 H 517.888 1.7106 -1.12248 0
M  V30 5483 H 517.898 4.05722 -0.430513 0
M  V30 5484 H 516.573 3.85344 -1.56471 0
M  V30 5485 H 515.15 3.71979 0.261878 0
M  V30 5486 N 517.335 0.585699 1.46312 0
M  V30 5487 C 518.267 -0.183687 2.28463 0
M  V30 5488 C 519.28 -0.85264 1.38686 0
M  V30 5489 O 520.469 -0.721701 1.6326 0
M  V30 5490 C 517.569 -1.27977 3.13808 0
M  V30 5491 C 516.742 -0.702164 4.31727 0
M  V30 5492 C 515.801 -1.68633 4.98447 0
M  V30 5493 O 514.827 -1.22121 5.55945 0
M  V30 5494 N 516.029 -3.02047 4.95729 0
M  V30 5495 H 518.794 0.521127 2.95134 0
M  V30 5496 H 516.355 0.423673 1.56258 0
M  V30 5497 H 518.347 -1.9375 3.55307 0
M  V30 5498 H 516.917 -1.8874 2.4919 0
M  V30 5499 H 516.137 0.1331 3.93975 0
M  V30 5500 H 517.425 -0.296101 5.07938 0
M  V30 5501 H 516.823 -3.42457 4.50266 0
M  V30 5502 H 515.38 -3.63301 5.41161 0
M  V30 5503 N 518.813 -1.54241 0.323641 0
M  V30 5504 C 520.062 -1.9975 -0.279806 0
M  V30 5505 C 520.375 -1.2156 -1.5324 0
M  V30 5506 O 521.581 -1.57447 -2.21185 0
M  V30 5507 C 520.037 -3.55686 -0.549115 0
M  V30 5508 C 519.645 -4.4271 0.686432 0
M  V30 5509 C 521.389 -4.09663 -1.11251 0
M  V30 5510 C 519.296 -5.90119 0.389022 0
M  V30 5511 H 518.226 -0.746177 -0.10833 0
M  V30 5512 H 520.877 -1.78248 0.435877 0
M  V30 5513 H 519.259 -3.73176 -1.32499 0
M  V30 5514 H 520.433 -4.36996 1.46188 0
M  V30 5515 H 518.748 -3.99623 1.17005 0
M  V30 5516 H 521.345 -5.17386 -1.34965 0
M  V30 5517 H 521.688 -3.61651 -2.06191 0
M  V30 5518 H 522.221 -3.95806 -0.39782 0
M  V30 5519 H 518.96 -6.42326 1.30759 0
M  V30 5520 H 518.48 -5.98785 -0.348722 0
M  V30 5521 H 520.159 -6.47 -0.0011164 0
M  V30 5522 N 520.291 -0.0518155 -1.57515 0
M  V30 5523 C 521.54 0.621286 -1.91893 0
M  V30 5524 C 521.853 1.71966 -0.932052 0
M  V30 5525 O 523.059 2.45096 -1.16791 0
M  V30 5526 C 521.515 1.15641 -3.40816 0
M  V30 5527 C 521.123 0.0901146 -4.47909 0
M  V30 5528 C 522.867 1.80472 -3.84227 0
M  V30 5529 C 520.774 0.638154 -5.87947 0
M  V30 5530 H 519.704 0.235835 -0.716169 0
M  V30 5531 H 522.355 -0.120809 -1.83102 0
M  V30 5532 H 520.737 1.95084 -3.44613 0
M  V30 5533 H 521.911 -0.683525 -4.55702 0
M  V30 5534 H 520.226 -0.460774 -4.13843 0
M  V30 5535 H 522.823 2.22471 -4.86221 0
M  V30 5536 H 523.166 2.65669 -3.20508 0
M  V30 5537 H 523.699 1.07683 -3.82948 0
M  V30 5538 H 520.438 -0.176202 -6.55263 0
M  V30 5539 H 519.958 1.37976 -5.83714 0
M  V30 5540 H 521.637 1.12085 -6.37217 0
M  V30 5541 N 521.769 1.56035 0.221574 0
M  V30 5542 C 522.994 1.83476 0.967026 0
M  V30 5543 C 523.419 0.632139 1.7716 0
M  V30 5544 O 522.777 -0.419082 1.7639 0
M  V30 5545 C 522.825 3.08907 1.86034 0
M  V30 5546 O 521.929 2.876 2.95567 0
M  V30 5547 H 521.27 0.604913 0.273817 0
M  V30 5548 H 523.8 2.03247 0.234893 0
M  V30 5549 H 523.81 3.3901 2.27016 0
M  V30 5550 H 522.485 3.96068 1.26898 0
M  V30 5551 H 521.062 2.6873 2.58532 0
M  V30 5552 N 523.247 -0.488276 1.49845 0
M  V30 5553 C 524.495 -1.23911 1.59657 0
M  V30 5554 C 524.816 -1.92816 0.291005 0
M  V30 5555 O 524.086 -1.83328 -0.690485 0
M  V30 5556 H 522.666 -0.460357 0.588286 0
M  V30 5557 H 525.328 -0.564794 1.86537 0
M  V30 5558 H 524.424 -1.99625 2.39909 0
M  V30 5559 N 524.725 -1.39134 -0.740242 0
M  V30 5560 C 525.971 -1.37278 -1.50088 0
M  V30 5561 C 526.326 0.0329967 -1.92372 0
M  V30 5562 O 525.619 0.998447 -1.63529 0
M  V30 5563 C 525.813 -2.27457 -2.75678 0
M  V30 5564 C 525.642 -3.76662 -2.45674 0
M  V30 5565 C 524.412 -4.45617 -2.38229 0
M  V30 5566 C 526.61 -4.6877 -2.11563 0
M  V30 5567 N 524.592 -5.80187 -2.00641 0
M  V30 5568 C 525.963 -5.91951 -1.84376 0
M  V30 5569 C 528.018 -4.56843 -1.97987 0
M  V30 5570 C 526.721 -7.04538 -1.4498 0
M  V30 5571 C 528.747 -5.69347 -1.59994 0
M  V30 5572 C 528.109 -6.91597 -1.33687 0
M  V30 5573 H 524.208 -0.557611 -0.548265 0
M  V30 5574 H 526.792 -1.74638 -0.860784 0
M  V30 5575 H 524.963 -1.92263 -3.37475 0
M  V30 5576 H 526.695 -2.16631 -3.41838 0
M  V30 5577 H 523.45 -3.98993 -2.5515 0
M  V30 5578 H 523.874 -6.51387 -1.84454 0
M  V30 5579 H 528.516 -3.62868 -2.16995 0
M  V30 5580 H 526.234 -7.98419 -1.24712 0
M  V30 5581 H 529.82 -5.62104 -1.50102 0
M  V30 5582 H 528.7 -7.77176 -1.04728 0
M  V30 5583 N 526.204 0.969867 -1.24223 0
M  V30 5584 C 527.45 1.7151 -1.08223 0
M  V30 5585 C 527.783 1.90478 0.37838 0
M  V30 5586 O 527.058 1.4647 1.27971 0
M  V30 5587 C 527.341 3.10714 -1.82013 0
M  V30 5588 C 527.194 2.9925 -3.35811 0
M  V30 5589 C 528.513 4.10332 -1.59108 0
M  V30 5590 H 525.632 0.622499 -0.394543 0
M  V30 5591 H 528.274 1.1284 -1.52863 0
M  V30 5592 H 526.424 3.608 -1.44068 0
M  V30 5593 H 528.096 2.56608 -3.83341 0
M  V30 5594 H 526.339 2.35512 -3.64303 0
M  V30 5595 H 527.01 3.97857 -3.82641 0
M  V30 5596 H 529.486 3.69097 -1.92111 0
M  V30 5597 H 528.362 5.05804 -2.13198 0
M  V30 5598 H 528.623 4.38926 -0.528832 0
M  V30 5599 N 527.682 1.05563 1.17022 0
M  V30 5600 C 528.645 0.664098 2.19368 0
M  V30 5601 C 529.645 -0.286358 1.5823 0
M  V30 5602 O 530.835 -0.069728 1.7406 0
M  V30 5603 C 527.967 -0.0239932 3.40892 0
M  V30 5604 H 529.16 1.57 2.55521 0
M  V30 5605 H 526.713 0.849964 1.31169 0
M  V30 5606 H 527.448 -0.942988 3.10287 0
M  V30 5607 H 527.233 0.659351 3.86516 0
M  V30 5608 H 528.723 -0.283909 4.16634 0
M  V30 5609 N 529.16 -1.33526 0.837174 0
M  V30 5610 C 530.437 -1.92369 0.354065 0
M  V30 5611 C 530.817 -1.76348 -1.16038 0
M  V30 5612 O 530.165 -1.15083 -1.97403 0
M  V30 5613 C 530.375 -3.39728 0.799101 0
M  V30 5614 C 531.723 -4.16877 0.806139 0
M  V30 5615 O 532.747 -3.48373 0.742597 0
M  V30 5616 O 531.606 -5.39166 0.892345 0
M  V30 5617 H 528.7 -0.820952 0.0998378 0
M  V30 5618 H 531.246 -1.42409 0.922913 0
M  V30 5619 H 530.018 -3.45254 1.84162 0
M  V30 5620 H 529.641 -3.97062 0.206731 0
M  V30 5621 N 530.638 -0.59345 -1.46 0
M  V30 5622 C 531.57 0.171569 -2.28557 0
M  V30 5623 C 532.583 0.845273 -1.39137 0
M  V30 5624 O 533.772 0.713033 -1.6364 0
M  V30 5625 C 530.872 1.26311 -3.14482 0
M  V30 5626 C 530.045 0.679258 -4.32094 0
M  V30 5627 C 529.104 1.65987 -4.99334 0
M  V30 5628 O 528.13 1.19171 -5.56585 0
M  V30 5629 N 529.332 2.99414 -4.97324 0
M  V30 5630 H 532.097 -0.536771 -2.94854 0
M  V30 5631 H 529.658 -0.431954 -1.56031 0
M  V30 5632 H 531.65 1.91863 -3.5633 0
M  V30 5633 H 530.22 1.87416 -2.50188 0
M  V30 5634 H 529.44 -0.153992 -3.93899 0
M  V30 5635 H 530.728 0.26916 -5.08088 0
M  V30 5636 H 530.126 3.40064 -4.52076 0
M  V30 5637 H 528.683 3.60426 -5.4308 0
M  V30 5638 N 532.116 1.54067 -0.331816 0
M  V30 5639 C 533.064 2.26105 0.54582 0
M  V30 5640 C 534.058 1.27816 1.11173 0
M  V30 5641 O 535.264 1.45565 1.05882 0
M  V30 5642 H 531.639 0.726363 0.194683 0
M  V30 5643 H 533.61 2.98282 -0.083931 0
M  V30 5644 C 532.359 3.03814 1.69092 0
M  V30 5645 H 531.682 3.79269 1.26473 0
M  V30 5646 H 533.122 3.57453 2.28043 0
M  V30 5647 C 531.581 2.12606 2.61343 0
M  V30 5648 O 532.111 1.71437 3.6328 0
M  V30 5649 N 530.317 1.77925 2.29763 0
M  V30 5650 H 529.864 2.11602 1.46909 0
M  V30 5651 H 529.822 1.1718 2.91747 0
M  V30 5652 N 533.594 0.0601682 1.57485 0
M  V30 5653 C 534.84 -0.606552 1.94146 0
M  V30 5654 C 535.195 -1.67918 0.939225 0
M  V30 5655 O 534.488 -1.91558 -0.0402649 0
M  V30 5656 C 534.682 -1.23831 3.35262 0
M  V30 5657 C 534.511 -0.228408 4.4912 0
M  V30 5658 C 533.281 0.182813 5.04969 0
M  V30 5659 C 535.479 0.52975 5.11564 0
M  V30 5660 N 533.461 1.18464 6.02362 0
M  V30 5661 C 534.832 1.38439 6.04346 0
M  V30 5662 C 536.887 0.587084 4.94427 0
M  V30 5663 C 535.59 2.29125 6.81832 0
M  V30 5664 C 537.616 1.4814 5.72546 0
M  V30 5665 C 536.978 2.32375 6.64967 0
M  V30 5666 H 533.077 -0.193328 0.757726 0
M  V30 5667 H 535.661 0.1346 1.94234 0
M  V30 5668 H 533.832 -1.94944 3.35933 0
M  V30 5669 H 535.564 -1.86456 3.59188 0
M  V30 5670 H 532.319 -0.197968 4.73186 0
M  V30 5671 H 532.743 1.68271 6.55754 0
M  V30 5672 H 537.385 -0.049944 4.22771 0
M  V30 5673 H 535.103 2.93868 7.52773 0
M  V30 5674 H 538.689 1.53045 5.6131 0
M  V30 5675 H 537.569 3.00454 7.2436 0
M  V30 5676 N 535.072 -1.5615 -0.213296 0
M  V30 5677 C 536.321 -1.78743 -0.93455 0
M  V30 5678 C 536.634 -0.630199 -1.8517 0
M  V30 5679 O 537.84 -0.739966 -2.61222 0
M  V30 5680 C 536.296 -3.16571 -1.71203 0
M  V30 5681 C 535.904 -4.40043 -0.840617 0
M  V30 5682 C 537.648 -3.48485 -2.42401 0
M  V30 5683 C 535.555 -5.68895 -1.61592 0
M  V30 5684 H 534.485 -0.666426 -0.352692 0
M  V30 5685 H 537.136 -1.82532 -0.188227 0
M  V30 5686 H 535.518 -3.06981 -2.50157 0
M  V30 5687 H 536.692 -4.6071 -0.0910326 0
M  V30 5688 H 535.007 -4.15706 -0.240365 0
M  V30 5689 H 537.604 -4.41983 -3.00924 0
M  V30 5690 H 537.947 -2.71371 -3.15695 0
M  V30 5691 H 538.48 -3.59442 -1.7043 0
M  V30 5692 H 535.219 -6.48925 -0.926106 0
M  V30 5693 H 534.739 -5.52275 -2.33991 0
M  V30 5694 H 536.418 -6.09365 -2.17447 0
M  V30 5695 N 536.55 0.480323 -1.50102 0
M  V30 5696 C 537.497 1.57946 -1.6829 0
M  V30 5697 C 538.467 1.57611 -0.524223 0
M  V30 5698 O 539.652 1.75282 -0.753709 0
M  V30 5699 C 536.792 2.95978 -1.77457 0
M  V30 5700 C 535.905 3.06173 -3.04766 0
M  V30 5701 C 535.04 4.35063 -3.04784 0
M  V30 5702 C 534.079 4.38966 -4.26586 0
M  V30 5703 N 533.216 5.59314 -4.24396 0
M  V30 5704 H 538.056 1.41743 -2.62131 0
M  V30 5705 H 535.593 0.689304 -1.2995 0
M  V30 5706 H 537.551 3.76011 -1.80752 0
M  V30 5707 H 536.181 3.10837 -0.870637 0
M  V30 5708 H 535.233 2.19071 -3.10986 0
M  V30 5709 H 536.545 3.04916 -3.9475 0
M  V30 5710 H 535.699 5.23436 -3.06757 0
M  V30 5711 H 534.438 4.38915 -2.12614 0
M  V30 5712 H 533.443 3.48992 -4.24835 0
M  V30 5713 H 534.668 4.36813 -5.19972 0
M  V30 5714 H 532.614 5.63969 -3.35074 0
M  V30 5715 H 532.531 5.5976 -5.08138 0
M  V30 5716 H 533.799 6.49837 -4.30502 0
M  V30 5717 N 538.028 1.39524 0.732853 0
M  V30 5718 C 538.975 1.38416 1.84688 0
M  V30 5719 C 539.945 0.243539 1.64305 0
M  V30 5720 O 541.13 0.438979 1.85681 0
M  V30 5721 C 538.27 1.23555 3.22224 0
M  V30 5722 C 537.383 2.47179 3.54298 0
M  V30 5723 C 536.518 2.2489 4.81246 0
M  V30 5724 C 535.557 3.44178 5.0617 0
M  V30 5725 N 534.694 3.21192 6.24323 0
M  V30 5726 H 539.534 2.33645 1.84971 0
M  V30 5727 H 537.071 1.16059 0.903804 0
M  V30 5728 H 539.029 1.12949 4.0162 0
M  V30 5729 H 537.659 0.31954 3.21215 0
M  V30 5730 H 536.711 2.68379 2.69587 0
M  V30 5731 H 538.023 3.36022 3.68633 0
M  V30 5732 H 537.177 2.11538 5.68627 0
M  V30 5733 H 535.916 1.33443 4.69089 0
M  V30 5734 H 534.921 3.58025 4.17251 0
M  V30 5735 H 536.146 4.36528 5.20212 0
M  V30 5736 H 534.092 2.32413 6.1345 0
M  V30 5737 H 534.009 4.03594 6.39256 0
M  V30 5738 H 535.277 3.1154 7.14537 0
M  V30 5739 N 539.506 -0.963266 1.24736 0
M  V30 5740 C 540.736 -1.73913 1.11524 0
M  V30 5741 C 541.144 -1.86218 -0.334612 0
M  V30 5742 O 540.487 -1.3531 -1.24245 0
M  V30 5743 C 540.549 -3.17501 1.68622 0
M  V30 5744 C 540.213 -3.28655 3.17546 0
M  V30 5745 C 541.21 -3.13637 4.14642 0
M  V30 5746 C 538.895 -3.52753 3.5759 0
M  V30 5747 C 540.889 -3.2255 5.49764 0
M  V30 5748 C 538.576 -3.61303 4.92852 0
M  V30 5749 C 539.574 -3.46214 5.88748 0
M  V30 5750 O 539.262 -3.5443 7.2155 0
M  V30 5751 H 538.994 -0.552057 0.390139 0
M  V30 5752 H 541.548 -1.2177 1.65412 0
M  V30 5753 H 539.778 -3.70969 1.09172 0
M  V30 5754 H 541.467 -3.76914 1.50635 0
M  V30 5755 H 542.233 -2.94899 3.85045 0
M  V30 5756 H 538.112 -3.63561 2.83451 0
M  V30 5757 H 541.656 -3.1069 6.24594 0
M  V30 5758 H 537.553 -3.79556 5.22118 0
M  V30 5759 H 538.321 -3.71116 7.29531 0
M  V30 5760 N 540.985 -1.06182 -1.16461 0
M  V30 5761 C 541.935 -0.641619 -2.18786 0
M  V30 5762 C 542.919 0.327122 -1.5754 0
M  V30 5763 O 544.111 0.142746 -1.76423 0
M  V30 5764 C 541.24 -0.0283734 -3.43288 0
M  V30 5765 C 540.326 -1.02154 -4.11613 0
M  V30 5766 N 540.717 -2.19671 -4.55608 0
M  V30 5767 C 539.015 -0.852229 -4.37782 0
M  V30 5768 C 539.716 -2.82583 -5.0845 0
M  V30 5769 N 538.692 -2.10318 -5.01266 0
M  V30 5770 H 542.494 -1.53684 -2.50516 0
M  V30 5771 H 540.008 -0.933349 -1.329 0
M  V30 5772 H 542.005 0.29049 -4.15887 0
M  V30 5773 H 540.665 0.862118 -3.13046 0
M  V30 5774 H 541.676 -2.57453 -4.49375 0
M  V30 5775 H 538.353 -0.0136314 -4.17498 0
M  V30 5776 H 539.743 -3.82298 -5.52538 0
M  V30 5777 N 542.463 1.3308 -0.844243 0
M  V30 5778 C 543.693 2.01515 -0.455541 0
M  V30 5779 C 544.101 1.63655 0.949406 0
M  V30 5780 O 543.444 0.84848 1.62931 0
M  V30 5781 C 543.506 3.55967 -0.502801 0
M  V30 5782 C 543.17 4.17222 -1.86481 0
M  V30 5783 C 544.167 4.36205 -2.8288 0
M  V30 5784 C 541.852 4.53528 -2.15911 0
M  V30 5785 C 543.846 4.90649 -4.06869 0
M  V30 5786 C 541.533 5.07679 -3.40155 0
M  V30 5787 C 542.531 5.26186 -4.35451 0
M  V30 5788 O 542.219 5.79183 -5.57496 0
M  V30 5789 H 541.951 0.65199 -0.178565 0
M  V30 5790 H 544.505 1.70867 -1.1399 0
M  V30 5791 H 542.735 3.85965 0.23836 0
M  V30 5792 H 544.424 4.05688 -0.131169 0
M  V30 5793 H 545.19 4.085 -2.61444 0
M  V30 5794 H 541.069 4.38414 -1.42528 0
M  V30 5795 H 544.613 5.0501 -4.81259 0
M  V30 5796 H 540.51 5.34815 -3.61446 0
M  V30 5797 H 541.278 5.97591 -5.5931 0
M  V30 5798 N 543.941 0.601185 1.45683 0
M  V30 5799 C 544.891 -0.142686 2.27553 0
M  V30 5800 C 545.875 -0.844598 1.3695 0
M  V30 5801 O 547.067 -0.735644 1.60988 0
M  V30 5802 C 544.196 -1.14364 3.23691 0
M  V30 5803 C 543.282 -0.442894 4.21781 0
M  V30 5804 N 543.673 0.51189 5.03203 0
M  V30 5805 C 541.971 -0.691277 4.4061 0
M  V30 5806 C 542.672 0.92318 5.74328 0
M  V30 5807 N 541.648 0.268308 5.42937 0
M  V30 5808 H 545.45 0.590736 2.87902 0
M  V30 5809 H 542.964 0.424365 1.56757 0
M  V30 5810 H 544.961 -1.6909 3.8107 0
M  V30 5811 H 543.621 -1.87768 2.64902 0
M  V30 5812 H 544.632 0.888329 5.10225 0
M  V30 5813 H 541.309 -1.41049 3.92952 0
M  V30 5814 H 542.699 1.71029 6.49768 0
M  V30 5815 N 545.419 -1.53889 0.339982 0
M  V30 5816 C 546.366 -2.24902 -0.518452 0
M  V30 5817 C 547.336 -1.24593 -1.09844 0
M  V30 5818 O 548.521 -1.53317 -1.13572 0
M  V30 5819 C 545.661 -3.02262 -1.66529 0
M  V30 5820 C 544.774 -4.17418 -1.11295 0
M  V30 5821 C 543.909 -4.82273 -2.2268 0
M  V30 5822 C 542.948 -5.89503 -1.6478 0
M  V30 5823 N 542.085 -6.48153 -2.69893 0
M  V30 5824 H 546.925 -2.97853 0.0936579 0
M  V30 5825 H 544.462 -1.46986 0.0579924 0
M  V30 5826 H 546.42 -3.45371 -2.3404 0
M  V30 5827 H 545.05 -2.31614 -2.24844 0
M  V30 5828 H 544.102 -3.78976 -0.328886 0
M  V30 5829 H 545.414 -4.94554 -0.649414 0
M  V30 5830 H 544.568 -5.28435 -2.98063 0
M  V30 5831 H 543.307 -4.04552 -2.72376 0
M  V30 5832 H 542.312 -5.42728 -0.879004 0
M  V30 5833 H 543.537 -6.6913 -1.1594 0
M  V30 5834 H 541.483 -5.73298 -3.1885 0
M  V30 5835 H 541.4 -7.20752 -2.28151 0
M  V30 5836 H 542.668 -6.98968 -3.45056 0
M  V30 5837 N 546.897 -0.0685191 -1.57451 0
M  V30 5838 C 548.122 0.613919 -1.98106 0
M  V30 5839 C 548.547 1.62551 -0.946501 0
M  V30 5840 O 547.905 1.81085 0.0882824 0
M  V30 5841 C 547.953 1.26189 -3.378 0
M  V30 5842 O 547.057 2.37773 -3.36954 0
M  V30 5843 H 546.398 0.158163 -0.644888 0
M  V30 5844 H 548.928 -0.142063 -2.04106 0
M  V30 5845 H 548.938 1.60951 -3.74912 0
M  V30 5846 H 547.613 0.520625 -4.12629 0
M  V30 5847 H 546.19 2.04829 -3.11608 0
M  V30 5848 N 548.375 1.56261 0.205012 0
M  V30 5849 C 549.605 1.83874 0.942018 0
M  V30 5850 C 550.013 0.647595 1.77772 0
M  V30 5851 O 549.356 -0.393098 1.79445 0
M  V30 5852 C 549.418 3.05453 1.89575 0
M  V30 5853 C 549.082 4.39772 1.24296 0
M  V30 5854 C 550.079 5.16133 0.624724 0
M  V30 5855 C 547.764 4.86504 1.24978 0
M  V30 5856 C 549.758 6.37396 0.0220117 0
M  V30 5857 C 547.445 6.07705 0.643232 0
M  V30 5858 C 548.443 6.82993 0.0304164 0
M  V30 5859 O 548.131 8.019 -0.566654 0
M  V30 5860 H 547.863 0.614896 0.280854 0
M  V30 5861 H 550.417 2.04215 0.220285 0
M  V30 5862 H 548.647 2.80972 2.65691 0
M  V30 5863 H 550.336 3.19797 2.4997 0
M  V30 5864 H 551.102 4.81127 0.611666 0
M  V30 5865 H 546.981 4.27865 1.71616 0
M  V30 5866 H 550.525 6.96102 -0.456926 0
M  V30 5867 H 546.422 6.42181 0.653759 0
M  V30 5868 H 547.19 8.17192 -0.462588 0
M  V30 5869 N 549.853 -0.472356 1.50355 0
M  V30 5870 C 550.783 -1.57859 1.72055 0
M  V30 5871 C 551.764 -1.60283 0.569505 0
M  V30 5872 O 552.949 -1.7657 0.808503 0
M  V30 5873 C 550.079 -2.96191 1.81351 0
M  V30 5874 C 549.033 -3.08633 2.96529 0
M  V30 5875 C 548.359 -4.486 2.90968 0
M  V30 5876 C 549.659 -2.85969 4.37057 0
M  V30 5877 H 551.353 -1.39953 2.64676 0
M  V30 5878 H 548.899 -0.671846 1.27367 0
M  V30 5879 H 550.852 -3.73507 1.95117 0
M  V30 5880 H 549.576 -3.15251 0.853502 0
M  V30 5881 H 548.235 -2.33749 2.82413 0
M  V30 5882 H 547.883 -4.64577 1.92815 0
M  V30 5883 H 547.583 -4.57861 3.68289 0
M  V30 5884 H 549.107 -5.27938 3.0678 0
M  V30 5885 H 550.521 -3.53036 4.51706 0
M  V30 5886 H 548.918 -3.06677 5.15819 0
M  V30 5887 H 549.988 -1.81838 4.49514 0
M  V30 5888 N 551.331 -1.39911 -0.725443 0
M  V30 5889 C 552.58 -1.36963 -1.48068 0
M  V30 5890 C 552.893 0.0284478 -1.95579 0
M  V30 5891 O 554.099 0.180535 -2.70899 0
M  V30 5892 C 552.555 -2.40664 -2.67598 0
M  V30 5893 C 552.163 -3.86234 -2.26997 0
M  V30 5894 C 553.907 -2.46807 -3.45379 0
M  V30 5895 C 551.814 -4.81554 -3.43307 0
M  V30 5896 H 550.744 -0.509223 -0.556065 0
M  V30 5897 H 553.395 -1.65602 -0.790454 0
M  V30 5898 H 551.777 -2.05109 -3.38742 0
M  V30 5899 H 552.951 -4.3088 -1.63337 0
M  V30 5900 H 551.266 -3.83475 -1.62284 0
M  V30 5901 H 553.863 -3.15213 -4.31909 0
M  V30 5902 H 554.206 -1.49552 -3.8851 0
M  V30 5903 H 554.739 -2.81303 -2.81271 0
M  V30 5904 H 551.478 -5.80106 -3.05217 0
M  V30 5905 H 550.998 -4.4158 -4.05915 0
M  V30 5906 H 552.677 -5.0091 -4.0951 0
M  V30 5907 N 552.809 0.956637 -1.25245 0
M  V30 5908 C 553.739 2.07058 -1.07931 0
M  V30 5909 C 554.72 1.70096 0.0110361 0
M  V30 5910 O 555.905 1.93555 -0.158121 0
M  V30 5911 C 553.035 3.40272 -0.695124 0
M  V30 5912 C 551.989 3.91235 -1.73549 0
M  V30 5913 C 551.315 5.20921 -1.20604 0
M  V30 5914 C 552.615 4.17837 -3.13385 0
M  V30 5915 H 554.309 2.218 -2.01109 0
M  V30 5916 H 551.855 1.06581 -0.968326 0
M  V30 5917 H 553.808 4.1765 -0.560949 0
M  V30 5918 H 552.532 3.25462 0.272355 0
M  V30 5919 H 551.191 3.16025 -1.85807 0
M  V30 5920 H 550.839 5.02479 -0.228846 0
M  V30 5921 H 550.539 5.55987 -1.90136 0
M  V30 5922 H 552.063 6.00897 -1.08421 0
M  V30 5923 H 553.477 4.8588 -3.04292 0
M  V30 5924 H 551.874 4.64154 -3.80369 0
M  V30 5925 H 552.944 3.2419 -3.60595 0
M  V30 5926 N 554.287 1.06798 1.15896 0
M  V30 5927 C 555.527 0.797041 1.8822 0
M  V30 5928 C 555.891 -0.664549 1.80133 0
M  V30 5929 O 557.092 -1.0503 2.47431 0
M  V30 5930 C 555.363 1.28431 3.33527 0
M  V30 5931 S 556.922 1.14319 4.23647 0
M  V30 5932 H 553.74 0.288988 0.649621 0
M  V30 5933 H 556.342 1.36594 1.39865 0
M  V30 5934 H 555.046 2.34286 3.36954 0
M  V30 5935 H 554.577 0.710371 3.86933 0
M  V30 5936 H 556.592 0.0772467 4.9614 0
M  V30 5937 N 555.766 -1.3263 0.851289 0
M  V30 5938 C 557.014 -1.96978 0.452128 0
M  V30 5939 C 557.335 -1.67715 -0.99482 0
M  V30 5940 O 556.605 -0.98259 -1.69476 0
M  V30 5941 H 555.185 -0.72873 0.164202 0
M  V30 5942 H 557.847 -1.61774 1.08698 0
M  V30 5943 H 556.943 -3.06387 0.594407 0
M  V30 5944 N 557.244 -0.608902 -1.45362 0
M  V30 5945 C 558.493 -0.10218 -2.01441 0
M  V30 5946 C 558.806 1.27546 -1.48295 0
M  V30 5947 O 560.012 1.87498 -1.96359 0
M  V30 5948 C 558.468 -0.131985 -3.59658 0
M  V30 5949 C 558.076 -1.50956 -4.21801 0
M  V30 5950 C 559.82 0.319427 -4.23296 0
M  V30 5951 C 557.727 -1.49568 -5.72174 0
M  V30 5952 H 556.657 -0.0344314 -0.753213 0
M  V30 5953 H 559.308 -0.764426 -1.6682 0
M  V30 5954 H 557.69 0.596939 -3.91475 0
M  V30 5955 H 558.864 -2.26029 -4.01556 0
M  V30 5956 H 557.179 -1.90318 -3.70362 0
M  V30 5957 H 559.776 0.349013 -5.3356 0
M  V30 5958 H 560.119 1.34237 -3.94064 0
M  V30 5959 H 560.652 -0.356273 -3.96201 0
M  V30 5960 H 557.391 -2.49626 -6.06108 0
M  V30 5961 H 556.911 -0.787542 -5.94607 0
M  V30 5962 H 558.59 -1.21989 -6.35396 0
M  V30 5963 N 558.722 1.53707 -0.348139 0
M  V30 5964 C 559.95 2.05406 0.248224 0
M  V30 5965 C 560.365 1.22282 1.43849 0
M  V30 5966 O 559.722 0.259244 1.80649 0
M  V30 5967 C 559.773 3.55446 0.658793 0
M  V30 5968 O 559.494 4.35417 -0.484149 0
M  V30 5969 C 560.995 4.23335 1.31539 0
M  V30 5970 H 558.215 0.669344 0.0471075 0
M  V30 5971 H 560.759 1.98257 -0.501456 0
M  V30 5972 H 558.914 3.62803 1.35841 0
M  V30 5973 H 559.328 5.24268 -0.155949 0
M  V30 5974 H 560.802 5.29692 1.55338 0
M  V30 5975 H 561.279 3.75967 2.27036 0
M  V30 5976 H 561.885 4.20184 0.657683 0
M  V30 5977 N 560.2 0.0768682 1.57412 0
M  V30 5978 C 561.148 -0.906229 2.1422 0
M  V30 5979 C 562.142 -1.30477 1.08037 0
M  V30 5980 O 563.348 -1.28143 1.2641 0
M  V30 5981 H 559.723 -0.310207 0.685037 0
M  V30 5982 H 561.694 -0.402228 2.95677 0
M  V30 5983 C 560.443 -2.16245 2.72274 0
M  V30 5984 H 559.766 -1.86463 3.53655 0
M  V30 5985 H 561.206 -2.83134 3.15613 0
M  V30 5986 C 559.665 -2.92437 1.67279 0
M  V30 5987 O 560.195 -3.86322 1.10081 0
M  V30 5988 N 558.401 -2.55637 1.38195 0
M  V30 5989 H 557.948 -1.79363 1.84897 0
M  V30 5990 H 557.906 -3.06919 0.681787 0
M  V30 5991 N 561.678 -1.56367 -0.196722 0
M  V30 5992 C 562.608 -1.97442 -1.24655 0
M  V30 5993 C 563.589 -0.846147 -1.47561 0
M  V30 5994 O 564.774 -1.11035 -1.59326 0
M  V30 5995 C 561.904 -2.31253 -2.59112 0
M  V30 5996 C 560.858 -3.46804 -2.50821 0
M  V30 5997 C 560.184 -3.66286 -3.89536 0
M  V30 5998 C 561.484 -4.8104 -2.03465 0
M  V30 5999 H 563.178 -2.85388 -0.905216 0
M  V30 6000 H 560.724 -1.37304 -0.434002 0
M  V30 6001 H 562.677 -2.58583 -3.32736 0
M  V30 6002 H 561.401 -1.40188 -2.94983 0
M  V30 6003 H 560.06 -3.19563 -1.79653 0
M  V30 6004 H 559.708 -2.72555 -4.22756 0
M  V30 6005 H 559.408 -4.4402 -3.84864 0
M  V30 6006 H 560.932 -3.9599 -4.64784 0
M  V30 6007 H 562.346 -5.07411 -2.66846 0
M  V30 6008 H 560.743 -5.62232 -2.09798 0
M  V30 6009 H 561.813 -4.74732 -0.98781 0
M  V30 6010 N 563.156 0.464375 -1.50603 0
M  V30 6011 C 564.086 1.56944 -1.72889 0
M  V30 6012 C 565.067 1.59979 -0.577997 0
M  V30 6013 O 566.252 1.76138 -0.817855 0
M  V30 6014 C 563.382 2.95225 -1.8292 0
M  V30 6015 C 562.336 3.07056 -2.98162 0
M  V30 6016 C 561.662 4.47051 -2.93343 0
M  V30 6017 C 562.962 2.83648 -4.38567 0
M  V30 6018 H 564.656 1.38547 -2.65415 0
M  V30 6019 H 562.202 0.665082 -1.27721 0
M  V30 6020 H 564.155 3.72467 -1.97095 0
M  V30 6021 H 562.879 3.14793 -0.870209 0
M  V30 6022 H 561.538 2.32248 -2.83648 0
M  V30 6023 H 561.186 4.63547 -1.95276 0
M  V30 6024 H 560.886 4.55902 -3.70712 0
M  V30 6025 H 562.41 5.26304 -3.09575 0
M  V30 6026 H 563.824 3.50636 -4.53572 0
M  V30 6027 H 562.221 3.03937 -5.17438 0
M  V30 6028 H 563.291 1.79451 -4.50472 0
M  V30 6029 N 564.634 1.40294 0.718013 0
M  V30 6030 C 565.597 1.4012 1.81381 0
M  V30 6031 C 566.597 0.295405 1.58063 0
M  V30 6032 O 567.787 0.554187 1.6515 0
M  V30 6033 C 564.919 1.19056 3.19435 0
M  V30 6034 H 566.112 2.37645 1.82933 0
M  V30 6035 H 563.665 1.26107 0.923405 0
M  V30 6036 H 564.4 0.222809 3.23534 0
M  V30 6037 H 564.185 1.99152 3.37758 0
M  V30 6038 H 565.675 1.21716 3.99468 0
M  V30 6039 N 566.112 -0.949982 1.2575 0
M  V30 6040 C 567.523 -1.50989 1.09815 0
M  V30 6041 C 567.874 -1.93497 -0.324556 0
M  V30 6042 O 566.999 -1.79068 -1.21506 0
M  V30 6043 C 567.594 -2.74394 1.98729 0
M  V30 6044 C 566.153 -3.26682 1.86965 0
M  V30 6045 C 565.3 -1.99498 1.92603 0
M  V30 6046 H 568.251 -0.766387 1.38968 0
M  V30 6047 H 568.272 -3.48383 1.53001 0
M  V30 6048 H 567.784 -2.43425 3.02268 0
M  V30 6049 H 565.885 -3.62461 0.863279 0
M  V30 6050 H 565.998 -3.94383 2.72027 0
M  V30 6051 H 564.362 -2.15005 1.36546 0
M  V30 6052 H 565.145 -1.70871 2.97755 0
M  V30 6053 N 567.59 -1.07411 -1.15328 0
M  V30 6054 C 568.52 -0.716472 -2.22236 0
M  V30 6055 C 569.501 0.296373 -1.67498 0
M  V30 6056 O 570.686 0.168989 -1.93463 0
M  V30 6057 C 567.816 -0.114142 -3.47112 0
M  V30 6058 C 566.77 -1.05421 -4.14814 0
M  V30 6059 C 566.096 -0.314604 -5.33774 0
M  V30 6060 C 567.396 -2.38808 -4.64508 0
M  V30 6061 H 569.09 -1.61029 -2.52408 0
M  V30 6062 H 566.636 -0.775702 -1.21321 0
M  V30 6063 H 568.589 0.148001 -4.2114 0
M  V30 6064 H 567.313 0.814755 -3.16274 0
M  V30 6065 H 565.972 -1.30128 -3.42728 0
M  V30 6066 H 565.62 0.617772 -4.99192 0
M  V30 6067 H 565.32 -0.941209 -5.80013 0
M  V30 6068 H 566.844 -0.0602747 -6.1057 0
M  V30 6069 H 568.258 -2.18424 -5.3006 0
M  V30 6070 H 566.655 -2.97069 -5.21412 0
M  V30 6071 H 567.725 -3.01067 -3.80114 0
M  V30 6072 N 569.068 1.32177 -0.85831 0
M  V30 6073 C 570.031 2.27086 -0.310588 0
M  V30 6074 C 571.031 1.51751 0.531806 0
M  V30 6075 O 572.221 1.70794 0.34279 0
M  V30 6076 C 569.353 3.36266 0.560179 0
M  V30 6077 H 570.546 2.77045 -1.1483 0
M  V30 6078 H 568.099 1.42911 -0.632942 0
M  V30 6079 H 568.834 2.9158 1.41956 0
M  V30 6080 H 568.619 3.92077 -0.0428473 0
M  V30 6081 H 570.109 4.06974 0.936056 0
M  V30 6082 N 570.547 0.616602 1.45037 0
M  V30 6083 C 571.775 0.121968 2.0654 0
M  V30 6084 C 572.19 -1.19743 1.45969 0
M  V30 6085 O 571.547 -1.73133 0.577168 0
M  V30 6086 C 571.598 -0.0145171 3.61497 0
M  V30 6087 O 571.319 1.25269 4.19809 0
M  V30 6088 C 572.82 -0.539555 4.40004 0
M  V30 6089 H 570.04 0.0729837 0.667019 0
M  V30 6090 H 572.584 0.846891 1.8614 0
M  V30 6091 H 570.739 -0.689809 3.81209 0
M  V30 6092 H 571.153 1.08816 5.13088 0
M  V30 6093 H 572.627 -0.584112 5.48901 0
M  V30 6094 H 573.104 -1.56368 4.10421 0
M  V30 6095 H 573.71 0.101995 4.25178 0
M  V30 6096 N 572.025 -1.5352 0.356285 0
M  V30 6097 C 573.253 -2.05534 -0.237328 0
M  V30 6098 C 573.668 -1.23043 -1.43199 0
M  V30 6099 O 573.025 -0.268821 -1.80509 0
M  V30 6100 C 573.076 -3.55791 -0.639933 0
M  V30 6101 O 572.797 -4.35154 0.507233 0
M  V30 6102 C 574.298 -4.24027 -1.29292 0
M  V30 6103 H 571.518 -0.669585 -0.0435572 0
M  V30 6104 H 574.062 -1.97988 0.511963 0
M  V30 6105 H 572.217 -3.63518 -1.33915 0
M  V30 6106 H 572.631 -5.24178 0.18375 0
M  V30 6107 H 574.105 -5.30509 -1.52527 0
M  V30 6108 H 574.582 -3.77166 -2.25039 0
M  V30 6109 H 575.188 -4.20527 -0.63539 0
M  V30 6110 N 573.503 -0.0852151 -1.57369 0
M  V30 6111 C 574.75 0.580806 -1.93992 0
M  V30 6112 C 575.078 1.68801 -0.966252 0
M  V30 6113 O 574.333 1.95694 0.0158649 0
M  V30 6114 C 574.632 1.18482 -3.3719 0
M  V30 6115 C 574.298 0.2024 -4.50446 0
M  V30 6116 C 572.96 -0.0678318 -4.81152 0
M  V30 6117 C 575.312 -0.46895 -5.19086 0
M  V30 6118 C 572.64 -1.01627 -5.77831 0
M  V30 6119 C 574.992 -1.4058 -6.16782 0
M  V30 6120 C 573.656 -1.68436 -6.45899 0
M  V30 6121 H 572.926 0.212532 -0.709867 0
M  V30 6122 H 575.573 -0.158947 -1.90839 0
M  V30 6123 H 573.878 2.0006 -3.36873 0
M  V30 6124 H 575.575 1.70767 -3.62822 0
M  V30 6125 H 572.165 0.423208 -4.26505 0
M  V30 6126 H 576.349 -0.273307 -4.95547 0
M  V30 6127 H 571.605 -1.2392 -5.9871 0
M  V30 6128 H 575.779 -1.93188 -6.69068 0
M  V30 6129 H 573.406 -2.42088 -7.20623 0
M  V30 6130 N 574.981 1.5647 0.188427 0
M  V30 6131 C 576.392 1.70864 0.752494 0
M  V30 6132 C 576.743 0.692905 1.83557 0
M  V30 6133 O 575.868 -0.149307 2.15884 0
M  V30 6134 C 576.463 3.09789 1.37173 0
M  V30 6135 C 575.022 3.25925 1.88281 0
M  V30 6136 C 574.169 2.66817 0.755259 0
M  V30 6137 H 577.12 1.58657 -0.0367408 0
M  V30 6138 H 577.141 3.07489 2.24122 0
M  V30 6139 H 576.653 3.83693 0.583219 0
M  V30 6140 H 574.754 2.56948 2.6983 0
M  V30 6141 H 574.867 4.33498 2.04001 0
M  V30 6142 H 573.231 2.2617 1.17128 0
M  V30 6143 H 574.014 3.43294 -0.0211237 0
M  V30 6144 N 576.459 -0.456382 1.50847 0
M  V30 6145 C 577.389 -1.56025 1.73719 0
M  V30 6146 C 578.37 -1.5967 0.586473 0
M  V30 6147 O 579.555 -1.75702 0.827185 0
M  V30 6148 C 576.685 -2.94251 1.84483 0
M  V30 6149 C 575.639 -3.05471 2.99786 0
M  V30 6150 C 574.965 -4.45489 2.95709 0
M  V30 6151 C 576.265 -2.81318 4.40065 0
M  V30 6152 H 577.959 -1.37138 2.66146 0
M  V30 6153 H 575.505 -0.658299 1.28072 0
M  V30 6154 H 577.458 -3.71417 1.99067 0
M  V30 6155 H 576.182 -3.14328 0.886891 0
M  V30 6156 H 574.841 -2.30741 2.84876 0
M  V30 6157 H 574.489 -4.62505 1.97732 0
M  V30 6158 H 574.189 -4.53929 3.73125 0
M  V30 6159 H 575.713 -5.24655 3.12362 0
M  V30 6160 H 577.127 -3.48226 4.55425 0
M  V30 6161 H 575.524 -3.01188 5.19043 0
M  V30 6162 H 576.594 -1.7706 4.51418 0
M  V30 6163 N 577.937 -1.40673 -0.710563 0
M  V30 6164 C 578.867 -1.44095 -1.83736 0
M  V30 6165 C 579.848 -0.301286 -1.67411 0
M  V30 6166 O 581.033 -0.510618 -1.87367 0
M  V30 6167 C 578.163 -1.30773 -3.21738 0
M  V30 6168 C 577.117 -2.42395 -3.52745 0
M  V30 6169 C 576.443 -2.14147 -4.89944 0
M  V30 6170 C 577.743 -3.84738 -3.53234 0
M  V30 6171 H 579.437 -2.38396 -1.81129 0
M  V30 6172 H 576.983 -1.14746 -0.870017 0
M  V30 6173 H 578.936 -1.31783 -4.00264 0
M  V30 6174 H 577.66 -0.329507 -3.24934 0
M  V30 6175 H 576.319 -2.40643 -2.76562 0
M  V30 6176 H 575.967 -1.14703 -4.89747 0
M  V30 6177 H 575.667 -2.88934 -5.11655 0
M  V30 6178 H 577.191 -2.16848 -5.70797 0
M  V30 6179 H 578.605 -3.88286 -4.2179 0
M  V30 6180 H 577.002 -4.59085 -3.86473 0
M  V30 6181 H 578.072 -4.13962 -2.52514 0
M  V30 6182 N 579.415 0.9433 -1.26252 0
M  V30 6183 C 580.348 2.04162 -1.01946 0
M  V30 6184 C 581.326 1.62507 0.0550808 0
M  V30 6185 O 582.51 1.883 -0.0869025 0
M  V30 6186 C 579.637 3.34313 -0.54335 0
M  V30 6187 C 578.683 3.94939 -1.61013 0
M  V30 6188 S 579.516 4.29484 -3.19849 0
M  V30 6189 C 580.672 5.62738 -2.74001 0
M  V30 6190 H 580.905 2.24466 -1.94942 0
M  V30 6191 H 578.438 1.08441 -1.09909 0
M  V30 6192 H 580.396 4.09576 -0.275315 0
M  V30 6193 H 579.057 3.11957 0.36629 0
M  V30 6194 H 578.25 4.88812 -1.22795 0
M  V30 6195 H 577.852 3.26202 -1.82943 0
M  V30 6196 H 580.144 6.41356 -2.18333 0
M  V30 6197 H 581.087 6.05839 -3.66558 0
M  V30 6198 H 581.495 5.22514 -2.13634 0
M  V30 6199 N 580.893 1.08022 1.14757 0
M  V30 6200 C 582.121 0.828847 1.89572 0
M  V30 6201 C 582.536 -0.618621 1.78377 0
M  V30 6202 O 581.893 -1.42482 1.1404 0
M  V30 6203 C 581.944 1.23677 3.39685 0
M  V30 6204 O 581.665 2.62746 3.50566 0
M  V30 6205 C 583.166 1.01569 4.31507 0
M  V30 6206 H 580.386 0.299196 0.600602 0
M  V30 6207 H 582.93 1.43846 1.45357 0
M  V30 6208 H 581.085 0.671347 3.81539 0
M  V30 6209 H 581.499 2.79573 4.43778 0
M  V30 6210 H 582.973 1.35055 5.35223 0
M  V30 6211 H 583.45 -0.0475433 4.39174 0
M  V30 6212 H 584.056 1.56636 3.95405 0
M  V30 6213 N 582.371 -1.3172 0.865308 0
M  V30 6214 C 583.601 -2.00765 0.487543 0
M  V30 6215 C 584.009 -1.65145 -0.92325 0
M  V30 6216 O 583.352 -0.874294 -1.61561 0
M  V30 6217 C 583.414 -3.55122 0.559369 0
M  V30 6218 C 583.078 -4.14202 1.93095 0
M  V30 6219 C 584.075 -4.3165 2.89784 0
M  V30 6220 C 581.76 -4.50036 2.23099 0
M  V30 6221 C 583.754 -4.84114 4.14623 0
M  V30 6222 C 581.441 -5.02203 3.48189 0
M  V30 6223 C 582.439 -5.19192 4.43767 0
M  V30 6224 O 582.127 -5.70241 5.6664 0
M  V30 6225 H 581.859 -0.649066 0.188915 0
M  V30 6226 H 584.413 -1.69032 1.16694 0
M  V30 6227 H 582.643 -3.86295 -0.176926 0
M  V30 6228 H 584.332 -4.05428 0.195694 0
M  V30 6229 H 585.098 -4.04288 2.6791 0
M  V30 6230 H 580.977 -4.36091 1.49485 0
M  V30 6231 H 584.521 -4.9729 4.89233 0
M  V30 6232 H 580.418 -5.28997 3.69908 0
M  V30 6233 H 581.186 -5.88617 5.68746 0
M  V30 6234 N 583.85 -0.624285 -1.44708 0
M  V30 6235 C 585.077 -0.132919 -2.06473 0
M  V30 6236 C 585.493 1.18967 -1.46602 0
M  V30 6237 O 584.85 1.72824 -0.586341 0
M  V30 6238 C 584.901 -0.00465418 -3.615 0
M  V30 6239 O 584.622 -1.27494 -4.19138 0
M  V30 6240 C 586.123 0.516213 -4.40284 0
M  V30 6241 H 583.343 -0.0765201 -0.666623 0
M  V30 6242 H 585.887 -0.856751 -1.85688 0
M  V30 6243 H 584.042 0.669583 -3.8157 0
M  V30 6244 H 584.456 -1.11536 -5.12504 0
M  V30 6245 H 585.93 0.554994 -5.49203 0
M  V30 6246 H 586.407 1.5419 -4.11245 0
M  V30 6247 H 587.013 -0.124542 -4.25118 0
M  V30 6248 N 585.328 1.53329 -0.364422 0
M  V30 6249 C 586.577 2.00421 0.226747 0
M  V30 6250 C 586.89 1.25581 1.49963 0
M  V30 6251 O 588.096 1.63256 2.16933 0
M  V30 6252 C 586.552 3.57017 0.454618 0
M  V30 6253 C 586.16 4.40734 -0.803568 0
M  V30 6254 C 587.904 4.12468 1.00351 0
M  V30 6255 C 585.811 5.8888 -0.545345 0
M  V30 6256 H 584.741 0.748787 0.0885082 0
M  V30 6257 H 587.392 1.7703 -0.482983 0
M  V30 6258 H 585.774 3.76558 1.22558 0
M  V30 6259 H 586.948 4.32967 -1.57723 0
M  V30 6260 H 585.263 3.96381 -1.27559 0
M  V30 6261 H 587.86 5.20783 1.212 0
M  V30 6262 H 588.203 3.6699 1.9653 0
M  V30 6263 H 588.736 3.96721 0.29274 0
M  V30 6264 H 585.475 6.38633 -1.47743 0
M  V30 6265 H 584.995 5.99499 0.189842 0
M  V30 6266 H 586.674 6.46776 -0.170425 0
M  V30 6267 N 586.806 0.0935595 1.57322 0
M  V30 6268 C 588.046 -0.573901 1.96178 0
M  V30 6269 C 588.41 -1.65445 0.97426 0
M  V30 6270 O 589.611 -2.37901 1.25126 0
M  V30 6271 C 587.882 -1.11612 3.39526 0
M  V30 6272 S 589.441 -1.79566 4.00377 0
M  V30 6273 H 586.259 -0.187315 0.685882 0
M  V30 6274 H 588.861 0.172597 1.94737 0
M  V30 6275 H 587.565 -0.31815 4.09165 0
M  V30 6276 H 587.096 -1.89848 3.4456 0
M  V30 6277 H 589.111 -3.07978 3.89056 0
M  V30 6278 N 588.284 -1.56567 -0.180126 0
M  V30 6279 C 589.531 -1.81492 -0.898167 0
M  V30 6280 C 589.859 -0.669225 -1.82624 0
M  V30 6281 O 589.114 0.344096 -1.92651 0
M  V30 6282 C 589.413 -3.1252 -1.73395 0
M  V30 6283 C 589.079 -4.40658 -0.955567 0
M  V30 6284 C 587.741 -4.75465 -0.740707 0
M  V30 6285 C 590.093 -5.19593 -0.408948 0
M  V30 6286 C 587.421 -5.86691 0.0320128 0
M  V30 6287 C 589.773 -6.31627 0.350638 0
M  V30 6288 C 588.437 -6.65007 0.576378 0
M  V30 6289 H 587.707 -0.664125 -0.328662 0
M  V30 6290 H 590.354 -1.908 -0.163616 0
M  V30 6291 H 588.659 -2.98515 -2.53763 0
M  V30 6292 H 590.356 -3.29013 -2.29241 0
M  V30 6293 H 586.946 -4.13352 -1.13306 0
M  V30 6294 H 591.13 -4.93104 -0.562307 0
M  V30 6295 H 586.386 -6.11016 0.216735 0
M  V30 6296 H 590.56 -6.92001 0.781497 0
M  V30 6297 H 588.187 -7.51033 1.17703 0
M  V30 6298 N 589.762 0.448376 -1.51087 0
M  V30 6299 C 590.725 1.52588 -1.71025 0
M  V30 6300 C 591.725 1.49958 -0.580442 0
M  V30 6301 O 592.915 1.52176 -0.847833 0
M  V30 6302 C 590.047 2.92163 -1.75652 0
M  V30 6303 H 591.24 1.36218 -2.67179 0
M  V30 6304 H 588.793 0.676313 -1.4091 0
M  V30 6305 H 589.528 3.13951 -0.812724 0
M  V30 6306 H 589.313 2.95478 -2.57751 0
M  V30 6307 H 590.803 3.70349 -1.92953 0
M  V30 6308 N 591.24 1.41047 0.703093 0
M  V30 6309 C 592.489 1.39301 1.4587 0
M  V30 6310 C 592.802 0.00267077 1.956 0
M  V30 6311 O 594.008 -0.137414 2.71152 0
M  V30 6312 C 592.464 2.44891 2.63735 0
M  V30 6313 C 592.072 3.89796 2.20824 0
M  V30 6314 C 593.816 2.5227 3.41409 0
M  V30 6315 C 591.723 4.86955 3.35602 0
M  V30 6316 H 590.653 0.518005 0.547893 0
M  V30 6317 H 593.304 1.66839 0.764009 0
M  V30 6318 H 591.686 2.10472 3.35436 0
M  V30 6319 H 592.86 4.33424 1.56461 0
M  V30 6320 H 591.175 3.86008 1.56163 0
M  V30 6321 H 593.772 3.22044 4.26839 0
M  V30 6322 H 594.115 1.55714 3.86081 0
M  V30 6323 H 594.648 2.85742 2.7676 0
M  V30 6324 H 591.387 5.84888 2.9595 0
M  V30 6325 H 590.907 4.47982 3.98839 0
M  V30 6326 H 592.586 5.07361 4.01489 0
M  V30 6327 N 592.718 -0.936591 1.26751 0
M  V30 6328 C 593.965 -1.68331 1.12566 0
M  V30 6329 C 594.293 -1.91677 -0.330168 0
M  V30 6330 O 593.548 -1.49859 -1.2586 0
M  V30 6331 C 593.847 -3.06099 1.84494 0
M  V30 6332 C 593.513 -3.02493 3.34378 0
M  V30 6333 C 592.175 -3.01217 3.75262 0
M  V30 6334 C 594.527 -2.94453 4.30055 0
M  V30 6335 C 591.855 -2.89672 5.10203 0
M  V30 6336 C 594.207 -2.84449 5.65041 0
M  V30 6337 C 592.871 -2.81518 6.0523 0
M  V30 6338 H 592.141 -0.615965 0.411907 0
M  V30 6339 H 594.788 -1.09292 1.5725 0
M  V30 6340 H 593.093 -3.6879 1.32292 0
M  V30 6341 H 594.79 -3.62733 1.70955 0
M  V30 6342 H 591.38 -3.04269 3.01858 0
M  V30 6343 H 595.564 -2.94544 3.99447 0
M  V30 6344 H 590.82 -2.85783 5.40498 0
M  V30 6345 H 594.994 -2.77192 6.38856 0
M  V30 6346 H 592.621 -2.72329 7.09747 0
M  V30 6347 N 594.196 -1.08629 -1.14182 0
M  V30 6348 C 595.159 -0.722027 -2.1753 0
M  V30 6349 C 596.159 0.244305 -1.58933 0
M  V30 6350 O 597.349 0.0235545 -1.74184 0
M  V30 6351 C 594.481 -0.0663966 -3.40835 0
M  V30 6352 H 595.674 -1.63719 -2.51269 0
M  V30 6353 H 593.227 -0.884442 -1.28869 0
M  V30 6354 H 593.962 0.860389 -3.12678 0
M  V30 6355 H 593.747 -0.761598 -3.84632 0
M  V30 6356 H 595.237 0.173346 -4.1724 0
M  V30 6357 N 595.674 1.31259 -0.872281 0
M  V30 6358 C 596.922 1.96233 -0.483409 0
M  V30 6359 C 597.243 1.69276 0.968012 0
M  V30 6360 O 596.513 1.00943 1.67891 0
M  V30 6361 H 595.093 0.726025 -0.175774 0
M  V30 6362 H 597.755 1.60024 -1.11258 0
M  V30 6363 H 596.851 3.05403 -0.643075 0
M  V30 6364 N 597.152 0.631951 1.44375 0
M  V30 6365 C 598.4 0.136497 2.01639 0
M  V30 6366 C 598.721 -1.24637 1.49969 0
M  V30 6367 O 597.991 -1.82827 0.70363 0
M  V30 6368 H 596.571 0.0474703 0.74549 0
M  V30 6369 H 599.233 0.818837 1.76865 0
M  V30 6370 H 598.329 0.104817 3.11924 0
M  V30 6371 N 598.631 -1.53133 0.372548 0
M  V30 6372 C 599.861 -2.05476 -0.215202 0
M  V30 6373 C 600.269 -1.24534 -1.42436 0
M  V30 6374 O 599.612 -0.280771 -1.81542 0
M  V30 6375 C 599.674 -3.53276 -0.666068 0
M  V30 6376 C 599.338 -4.54998 0.427342 0
M  V30 6377 C 600.335 -5.03911 1.27944 0
M  V30 6378 C 598.02 -4.98828 0.589579 0
M  V30 6379 C 600.014 -5.95263 2.27905 0
M  V30 6380 C 597.701 -5.89984 1.59255 0
M  V30 6381 C 598.699 -6.38093 2.43571 0
M  V30 6382 O 598.387 -7.27451 3.42156 0
M  V30 6383 H 598.119 -0.67481 -0.040099 0
M  V30 6384 H 600.673 -1.98409 0.531312 0
M  V30 6385 H 598.903 -3.57904 -1.4643 0
M  V30 6386 H 600.592 -3.88442 -1.1776 0
M  V30 6387 H 601.358 -4.70792 1.16532 0
M  V30 6388 H 597.237 -4.60965 -0.0569456 0
M  V30 6389 H 600.781 -6.32736 2.93753 0
M  V30 6390 H 596.678 -6.22518 1.70711 0
M  V30 6391 H 597.446 -7.45467 3.37967 0
M  V30 6392 N 600.109 -0.101901 -1.5727 0
M  V30 6393 C 601.039 0.851544 -2.17419 0
M  V30 6394 C 602.02 1.28942 -1.10941 0
M  V30 6395 O 603.205 1.35509 -1.39107 0
M  V30 6396 C 600.335 2.10816 -2.75996 0
M  V30 6397 C 599.289 1.80867 -3.87906 0
M  V30 6398 C 598.615 3.13413 -4.33216 0
M  V30 6399 C 599.915 1.0903 -5.10793 0
M  V30 6400 H 601.609 0.350381 -2.97343 0
M  V30 6401 H 599.155 0.16709 -1.43027 0
M  V30 6402 H 601.108 2.77959 -3.16729 0
M  V30 6403 H 599.832 2.63227 -1.93337 0
M  V30 6404 H 598.491 1.16119 -3.47724 0
M  V30 6405 H 598.139 3.63725 -3.47438 0
M  V30 6406 H 597.839 2.94155 -5.08671 0
M  V30 6407 H 599.363 3.81704 -4.76586 0
M  V30 6408 H 600.777 1.66295 -5.48652 0
M  V30 6409 H 599.174 0.99927 -5.91722 0
M  V30 6410 H 600.244 0.0741704 -4.84843 0
M  V30 6411 N 601.587 1.56661 0.17182 0
M  V30 6412 C 602.55 1.9549 1.19651 0
M  V30 6413 C 603.55 0.838501 1.37207 0
M  V30 6414 O 604.74 1.10556 1.34622 0
M  V30 6415 C 601.872 2.24927 2.56166 0
M  V30 6416 H 603.065 2.87184 0.864007 0
M  V30 6417 H 600.618 1.50711 0.41425 0
M  V30 6418 H 601.353 1.35944 2.94431 0
M  V30 6419 H 601.138 3.06301 2.4479 0
M  V30 6420 H 602.628 2.55891 3.30014 0
M  V30 6421 N 603.065 -0.440357 1.51323 0
M  V30 6422 C 603.995 -1.54174 1.75364 0
M  V30 6423 C 604.976 -1.59039 0.603375 0
M  V30 6424 O 606.161 -1.74815 0.845774 0
M  V30 6425 C 603.291 -2.92277 1.87593 0
M  V30 6426 C 602.245 -3.02274 3.03009 0
M  V30 6427 C 601.571 -4.42327 3.00418 0
M  V30 6428 C 602.871 -2.76634 4.43024 0
M  V30 6429 H 604.565 -1.34307 2.67585 0
M  V30 6430 H 602.111 -0.644678 1.28763 0
M  V30 6431 H 604.064 -3.69284 2.02995 0
M  V30 6432 H 602.788 -3.13369 0.920179 0
M  V30 6433 H 601.447 -2.27706 2.87307 0
M  V30 6434 H 601.095 -4.60382 2.02626 0
M  V30 6435 H 600.795 -4.49946 3.77918 0
M  V30 6436 H 602.319 -5.21312 3.17909 0
M  V30 6437 H 603.733 -3.43376 4.59093 0
M  V30 6438 H 602.13 -2.95666 5.22208 0
M  V30 6439 H 603.2 -1.72262 4.5327 0
M  V30 6440 N 604.543 -1.41418 -0.695603 0
M  V30 6441 C 605.792 -1.40073 -1.4513 0
M  V30 6442 C 606.105 -0.0130439 -1.95596 0
M  V30 6443 O 607.311 0.123032 -2.71221 0
M  V30 6444 C 605.767 -2.46286 -2.62433 0
M  V30 6445 C 605.375 -3.90962 -2.18753 0
M  V30 6446 C 607.119 -2.54077 -3.40066 0
M  V30 6447 C 605.026 -4.88728 -3.33015 0
M  V30 6448 H 603.956 -0.520903 -0.545138 0
M  V30 6449 H 606.607 -1.67242 -0.75515 0
M  V30 6450 H 604.989 -2.12248 -3.34315 0
M  V30 6451 H 606.163 -4.34248 -1.54161 0
M  V30 6452 H 604.478 -3.86831 -1.54114 0
M  V30 6453 H 607.075 -3.24303 -4.25125 0
M  V30 6454 H 607.418 -1.5776 -3.8525 0
M  V30 6455 H 607.951 -2.87206 -2.75241 0
M  V30 6456 H 604.69 -5.86449 -2.92844 0
M  V30 6457 H 604.21 -4.50091 -3.96457 0
M  V30 6458 H 605.889 -5.09483 -3.98793 0
M  V30 6459 N 606.021 0.929856 -1.27246 0
M  V30 6460 C 606.951 2.04722 -1.12299 0
M  V30 6461 C 607.932 1.70082 -0.0250464 0
M  V30 6462 O 609.117 1.93176 -0.199141 0
M  V30 6463 C 606.247 3.38721 -0.767145 0
M  V30 6464 C 605.201 3.87466 -1.81808 0
M  V30 6465 C 604.527 5.18246 -1.31626 0
M  V30 6466 C 605.827 4.11095 -3.22177 0
M  V30 6467 H 607.521 2.17485 -2.05769 0
M  V30 6468 H 605.067 1.04503 -0.990715 0
M  V30 6469 H 607.02 4.16366 -0.649413 0
M  V30 6470 H 605.744 3.25967 0.203259 0
M  V30 6471 H 604.403 3.12012 -1.92468 0
M  V30 6472 H 604.051 5.01881 -0.335378 0
M  V30 6473 H 603.751 5.51829 -2.01887 0
M  V30 6474 H 605.275 5.98462 -1.21143 0
M  V30 6475 H 606.689 4.79316 -3.1453 0
M  V30 6476 H 605.086 4.55982 -3.90129 0
M  V30 6477 H 606.156 3.16468 -3.67391 0
M  V30 6478 N 607.499 1.09233 1.13605 0
M  V30 6479 C 608.91 0.846839 1.6639 0
M  V30 6480 C 609.261 -0.625031 1.85978 0
M  V30 6481 O 608.386 -1.48173 1.57714 0
M  V30 6482 C 608.981 1.5307 3.0225 0
M  V30 6483 C 607.54 1.33223 3.52035 0
M  V30 6484 C 606.687 1.58806 2.27323 0
M  V30 6485 H 609.638 1.25175 0.975541 0
M  V30 6486 H 609.659 0.96267 3.68121 0
M  V30 6487 H 609.171 2.60192 2.87961 0
M  V30 6488 H 607.272 0.282091 3.71531 0
M  V30 6489 H 607.385 2.0657 4.32279 0
M  V30 6490 H 605.749 1.01007 2.33815 0
M  V30 6491 H 606.532 2.67153 2.15602 0
M  V30 6492 N 608.977 -1.30795 0.87923 0
M  V30 6493 C 610.223 -1.96653 0.495519 0
M  V30 6494 C 610.556 -1.69282 -0.951703 0
M  V30 6495 O 609.831 -0.994374 -1.6716 0
M  V30 6496 C 610.114 -3.51898 0.764174 0
M  V30 6497 C 609.967 -3.88808 2.2616 0
M  V30 6498 C 611.286 -4.39462 0.236825 0
M  V30 6499 H 608.405 -0.7143 0.181507 0
M  V30 6500 H 611.047 -1.54765 1.10217 0
M  V30 6501 H 609.197 -3.87709 0.247841 0
M  V30 6502 H 610.869 -3.63051 2.8459 0
M  V30 6503 H 609.112 -3.37082 2.73053 0
M  V30 6504 H 609.783 -4.97086 2.4002 0
M  V30 6505 H 612.259 -4.10528 0.678683 0
M  V30 6506 H 611.135 -5.47018 0.454176 0
M  V30 6507 H 611.396 -4.33621 -0.861683 0
M  V30 6508 N 610.455 -0.639598 -1.44038 0
M  V30 6509 C 611.385 0.0469443 -2.33453 0
M  V30 6510 C 612.366 0.82609 -1.48694 0
M  V30 6511 O 613.551 0.790285 -1.77393 0
M  V30 6512 C 610.681 1.02338 -3.3188 0
M  V30 6513 C 609.635 0.355284 -4.26523 0
M  V30 6514 C 608.961 1.44221 -5.14883 0
M  V30 6515 C 610.261 -0.743798 -5.16977 0
M  V30 6516 H 611.955 -0.699735 -2.91108 0
M  V30 6517 H 609.501 -0.337946 -1.39978 0
M  V30 6518 H 611.454 1.51247 -3.93322 0
M  V30 6519 H 610.178 1.80105 -2.72451 0
M  V30 6520 H 608.837 -0.113239 -3.66425 0
M  V30 6521 H 608.485 2.21097 -4.51802 0
M  V30 6522 H 608.185 1.00052 -5.79019 0
M  V30 6523 H 609.709 1.93295 -5.79197 0
M  V30 6524 H 611.123 -0.337444 -5.72306 0
M  V30 6525 H 609.52 -1.10914 -5.89761 0
M  V30 6526 H 610.59 -1.60745 -4.57481 0
M  V30 6527 N 611.933 1.52934 -0.380664 0
M  V30 6528 C 613.179 2.01765 0.20458 0
M  V30 6529 C 613.512 1.26696 1.47179 0
M  V30 6530 O 612.787 0.364936 1.91046 0
M  V30 6531 C 613.07 3.56869 0.481269 0
M  V30 6532 C 612.923 4.42617 -0.800629 0
M  V30 6533 C 614.242 4.2121 1.27554 0
M  V30 6534 H 611.361 0.733388 0.0728803 0
M  V30 6535 H 614.003 1.83068 -0.50853 0
M  V30 6536 H 612.153 3.72932 1.08875 0
M  V30 6537 H 613.825 4.38323 -1.43773 0
M  V30 6538 H 612.068 4.09977 -1.4178 0
M  V30 6539 H 612.739 5.49134 -0.561791 0
M  V30 6540 H 615.215 4.09072 0.761514 0
M  V30 6541 H 614.091 5.29732 1.43788 0
M  V30 6542 H 614.352 3.78269 2.28833 0
M  V30 6543 N 613.412 0.11024 1.57214 0
M  V30 6544 C 614.689 -0.592956 1.86396 0
M  V30 6545 C 615.069 -1.85379 1.00985 0
M  V30 6546 O 614.417 -2.28337 0.0863592 0
M  V30 6547 C 614.627 -0.893816 3.3736 0
M  V30 6548 C 615.975 -1.25069 4.05762 0
M  V30 6549 O 616.999 -0.984356 3.42329 0
M  V30 6550 O 615.858 -1.75017 5.17718 0
M  V30 6551 H 612.952 -0.29828 0.771335 0
M  V30 6552 H 615.498 0.144083 1.69087 0
M  V30 6553 H 614.27 2.6031e-05 3.913 0
M  V30 6554 H 613.893 -1.68631 3.60068 0
M  V30 6555 N 614.89 -1.56749 -0.16351 0
M  V30 6556 C 615.82 -2.00042 -1.20438 0
M  V30 6557 C 616.801 -0.877256 -1.45733 0
M  V30 6558 O 617.986 -1.1439 -1.56935 0
M  V30 6559 C 615.116 -2.36697 -2.54149 0
M  V30 6560 C 614.07 -3.52046 -2.43408 0
M  V30 6561 C 613.396 -3.74466 -3.81679 0
M  V30 6562 C 614.696 -4.85247 -1.93216 0
M  V30 6563 H 616.39 -2.87244 -0.844477 0
M  V30 6564 H 613.936 -1.38194 -0.40478 0
M  V30 6565 H 615.889 -2.65582 -3.27176 0
M  V30 6566 H 614.613 -1.46414 -2.91943 0
M  V30 6567 H 613.272 -3.23301 -1.72834 0
M  V30 6568 H 612.92 -2.81461 -4.1688 0
M  V30 6569 H 612.62 -4.52084 -3.75359 0
M  V30 6570 H 614.144 -4.0576 -4.5628 0
M  V30 6571 H 615.558 -5.12957 -2.56023 0
M  V30 6572 H 613.955 -5.66556 -1.97825 0
M  V30 6573 H 615.025 -4.7672 -0.88689 0
M  V30 6574 N 616.368 0.432326 -1.51554 0
M  V30 6575 C 617.608 1.19076 -1.66133 0
M  V30 6576 C 617.972 1.88364 -0.371873 0
M  V30 6577 O 619.173 2.65904 -0.39349 0
M  V30 6578 C 617.444 2.1768 -2.83461 0
M  V30 6579 S 619.003 3.01943 -3.18396 0
M  V30 6580 H 615.821 0.403735 -0.585251 0
M  V30 6581 H 618.423 0.481554 -1.89476 0
M  V30 6582 H 617.127 1.65424 -3.75583 0
M  V30 6583 H 616.658 2.93174 -2.62322 0
M  V30 6584 H 618.673 4.19373 -2.65219 0
M  V30 6585 N 617.846 1.41785 0.688094 0
M  V30 6586 C 619.262 1.24419 0.999608 0
M  V30 6587 C 619.462 0.138868 2.01021 0
M  V30 6588 O 618.518 -0.494283 2.47615 0
M  V30 6589 C 619.831 2.59625 1.51709 0
M  V30 6590 C 621.379 2.66869 1.63554 0
M  V30 6591 C 621.854 4.0241 2.18702 0
M  V30 6592 N 623.345 4.04295 2.26053 0
M  V30 6593 C 624.08 5.05977 2.69768 0
M  V30 6594 N 623.576 6.18047 3.13033 0
M  V30 6595 N 625.369 4.93336 2.69398 0
M  V30 6596 H 617.52 2.12392 0.0187427 0
M  V30 6597 H 619.783 0.945347 0.0708673 0
M  V30 6598 H 619.489 3.41297 0.849059 0
M  V30 6599 H 619.363 2.82628 2.49803 0
M  V30 6600 H 621.75 1.8555 2.29467 0
M  V30 6601 H 621.831 2.47668 0.639857 0
M  V30 6602 H 621.475 4.8418 1.53402 0
M  V30 6603 H 621.405 4.18955 3.19037 0
M  V30 6604 H 623.896 3.23383 1.9553 0
M  V30 6605 H 624.209 6.91498 3.45038 0
M  V30 6606 H 622.554 6.21572 3.10923 0
M  V30 6607 H 625.745 4.04865 2.34952 0
M  V30 6608 H 625.918 5.72717 3.03148 0
M  V30 6609 N 619.324 -0.923095 1.27737 0
M  V30 6610 C 620.272 -2.04567 1.10703 0
M  V30 6611 C 621.266 -1.69375 0.0288445 0
M  V30 6612 O 622.472 -1.79027 0.186913 0
M  V30 6613 H 618.847 -0.670109 0.34126 0
M  V30 6614 H 620.818 -2.1608 2.05796 0
M  V30 6615 C 619.567 -3.38934 0.775837 0
M  V30 6616 H 618.89 -3.66501 1.59741 0
M  V30 6617 H 620.33 -4.18239 0.696548 0
M  V30 6618 C 618.789 -3.32863 -0.520012 0
M  V30 6619 O 619.319 -3.70462 -1.55308 0
M  V30 6620 N 617.525 -2.85958 -0.51732 0
M  V30 6621 H 617.072 -2.55557 0.32379 0
M  V30 6622 H 617.03 -2.82279 -1.38441 0
M  V30 6623 N 620.802 -1.09834 -1.13024 0
M  V30 6624 C 622.027 -0.85909 -1.88771 0
M  V30 6625 C 622.452 0.584402 -1.78791 0
M  V30 6626 O 621.81 1.41101 -1.13842 0
M  V30 6627 C 621.858 -1.30427 -3.36186 0
M  V30 6628 O 620.962 -0.465368 -4.09766 0
M  V30 6629 H 620.303 -0.310786 -0.586778 0
M  V30 6630 H 622.833 -1.46355 -1.42973 0
M  V30 6631 H 622.843 -1.2915 -3.8702 0
M  V30 6632 H 621.518 -2.3555 -3.42767 0
M  V30 6633 H 620.095 -0.542814 -3.68928 0
M  V30 6634 N 622.28 1.30327 -0.886154 0
M  V30 6635 C 623.508 2.00254 -0.520176 0
M  V30 6636 C 623.923 1.66419 0.891637 0
M  V30 6637 O 623.28 0.901951 1.58654 0
M  V30 6638 C 623.331 3.54916 -0.686775 0
M  V30 6639 O 623.052 3.87547 -2.04301 0
M  V30 6640 C 624.553 4.42115 -0.323945 0
M  V30 6641 H 621.773 0.640204 -0.200947 0
M  V30 6642 H 624.317 1.66183 -1.19178 0
M  V30 6643 H 622.472 3.8735 -0.0625273 0
M  V30 6644 H 622.886 4.82247 -2.06249 0
M  V30 6645 H 624.36 5.49808 -0.491407 0
M  V30 6646 H 624.837 4.32953 0.73811 0
M  V30 6647 H 625.443 4.15129 -0.924565 0
M  V30 6648 N 623.758 0.647228 1.43697 0
M  V30 6649 C 625.004 0.158422 2.0218 0
M  V30 6650 C 625.337 -1.22233 1.50907 0
M  V30 6651 O 624.612 -1.81478 0.699702 0
M  V30 6652 C 624.895 0.1627 3.59732 0
M  V30 6653 C 624.748 1.57694 4.21251 0
M  V30 6654 C 626.067 -0.504138 4.37203 0
M  V30 6655 H 623.186 0.059042 0.734631 0
M  V30 6656 H 625.828 0.826772 1.71069 0
M  V30 6657 H 623.978 -0.406414 3.86368 0
M  V30 6658 H 625.65 2.19618 4.05667 0
M  V30 6659 H 623.893 2.12603 3.7813 0
M  V30 6660 H 624.564 1.53183 5.3032 0
M  V30 6661 H 627.04 -0.0199841 4.16095 0
M  V30 6662 H 625.916 -0.470394 5.46881 0
M  V30 6663 H 626.177 -1.57726 4.13007 0
M  V30 6664 N 625.236 -1.5273 0.388769 0
M  V30 6665 C 626.184 -2.27975 -0.461527 0
M  V30 6666 C 627.178 -1.31854 -1.06352 0
M  V30 6667 O 628.384 -1.49394 -1.00406 0
M  V30 6668 H 624.759 -0.733088 -0.16759 0
M  V30 6669 H 626.73 -2.97765 0.194579 0
M  V30 6670 C 625.479 -3.09881 -1.577 0
M  V30 6671 H 624.802 -3.83701 -1.12309 0
M  V30 6672 H 626.242 -3.6567 -2.14619 0
M  V30 6673 C 624.701 -2.22159 -2.53272 0
M  V30 6674 O 625.231 -1.84802 -3.56667 0
M  V30 6675 N 623.437 -1.8633 -2.23001 0
M  V30 6676 H 622.984 -2.16909 -1.38954 0
M  V30 6677 H 622.942 -1.27927 -2.87197 0
M  V30 6678 N 626.714 -0.118576 -1.57153 0
M  V30 6679 C 628.13 0.238014 -1.57815 0
M  V30 6680 C 628.33 1.66747 -1.13127 0
M  V30 6681 O 627.386 2.38867 -0.818462 0
M  V30 6682 C 628.699 0.00508207 -3.007 0
M  V30 6683 C 630.247 0.0710139 -3.12919 0
M  V30 6684 C 630.722 -0.13422 -4.57803 0
M  V30 6685 N 632.213 -0.0801755 -4.63131 0
M  V30 6686 C 632.948 -0.213885 -5.73001 0
M  V30 6687 N 632.444 -0.403742 -6.91623 0
M  V30 6688 N 634.237 -0.15349 -5.6189 0
M  V30 6689 H 626.388 -1.05226 -1.84503 0
M  V30 6690 H 628.651 -0.414318 -0.852669 0
M  V30 6691 H 628.357 -0.983125 -3.3768 0
M  V30 6692 H 628.231 0.73714 -3.69927 0
M  V30 6693 H 630.618 1.04975 -2.75798 0
M  V30 6694 H 630.699 -0.692918 -2.46236 0
M  V30 6695 H 630.343 -1.10992 -4.95624 0
M  V30 6696 H 630.273 0.649692 -5.22577 0
M  V30 6697 H 632.764 0.0630689 -3.77847 0
M  V30 6698 H 633.077 -0.496645 -7.71202 0
M  V30 6699 H 631.422 -0.43971 -6.93608 0
M  V30 6700 H 634.613 -0.00613174 -4.681 0
M  V30 6701 H 634.786 -0.261138 -6.47474 0
M  V30 6702 N 628.193 1.56834 0.155195 0
M  V30 6703 C 629.44 1.82898 0.869179 0
M  V30 6704 C 629.768 0.698194 1.81537 0
M  V30 6705 O 629.023 -0.313404 1.93174 0
M  V30 6706 C 629.322 3.15239 1.68402 0
M  V30 6707 C 628.988 4.42123 0.885341 0
M  V30 6708 C 627.65 4.76583 0.664971 0
M  V30 6709 C 630.002 5.20178 0.326234 0
M  V30 6710 C 627.33 5.86566 -0.125346 0
M  V30 6711 C 629.682 6.3099 -0.45108 0
M  V30 6712 C 628.346 6.64006 -0.682102 0
M  V30 6713 H 627.616 0.66927 0.318055 0
M  V30 6714 H 630.263 1.91036 0.133241 0
M  V30 6715 H 628.568 3.02515 2.48982 0
M  V30 6716 H 630.265 3.32618 2.23978 0
M  V30 6717 H 626.855 4.15102 1.06716 0
M  V30 6718 H 631.039 4.93936 0.483787 0
M  V30 6719 H 626.295 6.10594 -0.313915 0
M  V30 6720 H 630.469 6.9067 -0.89149 0
M  V30 6721 H 628.096 7.49065 -1.29636 0
M  V30 6722 N 629.671 -0.424282 1.51781 0
M  V30 6723 C 630.601 -1.52305 1.7699 0
M  V30 6724 C 631.582 -1.5839 0.620209 0
M  V30 6725 O 632.767 -1.73908 0.864268 0
M  V30 6726 C 629.897 -2.90271 1.90683 0
M  V30 6727 C 628.851 -2.99043 3.06198 0
M  V30 6728 C 628.177 -4.39116 3.05092 0
M  V30 6729 C 629.477 -2.7192 4.45934 0
M  V30 6730 H 631.171 -1.31461 2.68995 0
M  V30 6731 H 628.717 -0.630985 1.29439 0
M  V30 6732 H 630.67 -3.6711 2.06901 0
M  V30 6733 H 629.394 -3.12376 0.953365 0
M  V30 6734 H 628.053 -2.24646 2.89706 0
M  V30 6735 H 627.701 -4.58207 2.07498 0
M  V30 6736 H 627.401 -4.45912 3.82669 0
M  V30 6737 H 628.925 -5.17911 3.2342 0
M  V30 6738 H 630.339 -3.38487 4.62709 0
M  V30 6739 H 628.736 -2.90111 5.25315 0
M  V30 6740 H 629.806 -1.67445 4.55072 0
M  V30 6741 N 631.149 -1.42148 -0.680565 0
M  V30 6742 C 632.397 -1.42029 -1.43779 0
M  V30 6743 C 632.718 -0.0356347 -1.94967 0
M  V30 6744 O 631.988 0.924936 -1.7269 0
M  V30 6745 H 630.568 -0.522835 -0.533529 0
M  V30 6746 H 633.23 -1.7752 -0.804538 0
M  V30 6747 H 632.326 -2.11658 -2.29363 0
M  V30 6748 N 632.627 0.916307 -1.28225 0
M  V30 6749 C 633.557 2.0352 -1.14464 0
M  V30 6750 C 634.538 1.70045 -0.0430844 0
M  V30 6751 O 635.723 1.92954 -0.219619 0
M  V30 6752 C 632.853 3.37889 -0.803027 0
M  V30 6753 C 631.807 3.85516 -1.85908 0
M  V30 6754 C 631.133 5.1682 -1.37116 0
M  V30 6755 C 632.433 4.07655 -3.26519 0
M  V30 6756 H 634.127 2.1529 -2.08064 0
M  V30 6757 H 631.673 1.03446 -1.00174 0
M  V30 6758 H 633.626 4.15654 -0.693537 0
M  V30 6759 H 632.35 3.26164 0.168674 0
M  V30 6760 H 631.009 3.09953 -1.95767 0
M  V30 6761 H 630.657 5.01497 -0.38859 0
M  V30 6762 H 630.357 5.49657 -2.07728 0
M  V30 6763 H 631.881 5.97143 -1.27484 0
M  V30 6764 H 633.295 4.75953 -3.19596 0
M  V30 6765 H 631.692 4.51818 -3.94943 0
M  V30 6766 H 632.762 3.12553 -3.70727 0
M  V30 6767 N 634.105 1.10431 1.1244 0
M  V30 6768 C 635.068 0.756542 2.16354 0
M  V30 6769 C 636.068 -0.21899 1.59302 0
M  V30 6770 O 637.258 0.00415969 1.742 0
M  V30 6771 C 634.39 0.120612 3.40687 0
M  V30 6772 H 635.583 1.67696 2.48632 0
M  V30 6773 H 633.136 0.904832 1.27446 0
M  V30 6774 H 633.871 -0.810536 3.14008 0
M  V30 6775 H 633.656 0.822693 3.83372 0
M  V30 6776 H 635.146 -0.106945 4.17463 0
M  V30 6777 N 635.583 -1.29855 0.893053 0
M  V30 6778 C 636.808 -2.00512 0.530066 0
M  V30 6779 C 637.233 -1.66446 -0.876199 0
M  V30 6780 O 636.591 -0.885446 -1.58207 0
M  V30 6781 C 636.639 -3.53308 0.721505 0
M  V30 6782 O 635.743 -4.11764 -0.228994 0
M  V30 6783 H 635.084 -0.630617 0.207891 0
M  V30 6784 H 637.614 -1.6551 1.20282 0
M  V30 6785 H 637.624 -4.03206 0.623599 0
M  V30 6786 H 636.299 -3.77439 1.74678 0
M  V30 6787 H 634.876 -3.72805 -0.0841034 0
M  V30 6788 N 637.061 -0.65484 -1.43351 0
M  V30 6789 C 638.308 -0.168892 -2.01794 0
M  V30 6790 C 638.636 1.2177 -1.51665 0
M  V30 6791 O 637.891 1.82717 -0.70092 0
M  V30 6792 C 638.19 -0.130424 -3.57162 0
M  V30 6793 C 637.856 -1.45898 -4.26643 0
M  V30 6794 C 636.518 -1.82279 -4.4534 0
M  V30 6795 C 638.87 -2.33485 -4.65976 0
M  V30 6796 C 636.198 -3.0591 -5.00635 0
M  V30 6797 C 638.55 -3.5641 -5.22642 0
M  V30 6798 C 637.214 -3.92985 -5.39555 0
M  V30 6799 H 636.484 -0.061802 -0.738418 0
M  V30 6800 H 639.131 -0.845869 -1.71806 0
M  V30 6801 H 637.436 0.630008 -3.86702 0
M  V30 6802 H 639.133 0.262465 -4.0014 0
M  V30 6803 H 635.723 -1.16591 -4.12437 0
M  V30 6804 H 639.907 -2.06668 -4.51223 0
M  V30 6805 H 635.163 -3.34295 -5.11915 0
M  V30 6806 H 639.337 -4.24495 -5.52066 0
M  V30 6807 H 636.964 -4.88862 -5.82167 0
M  V30 6808 N 638.539 1.52521 -0.396863 0
M  V30 6809 C 639.786 2.01672 0.182898 0
M  V30 6810 C 640.114 1.28302 1.46181 0
M  V30 6811 O 639.369 0.374118 1.92091 0
M  V30 6812 C 639.668 3.5403 0.489677 0
M  V30 6813 C 639.334 4.45456 -0.698581 0
M  V30 6814 C 637.996 4.70166 -1.02454 0
M  V30 6815 C 640.348 4.99354 -1.49316 0
M  V30 6816 C 637.676 5.46024 -2.1465 0
M  V30 6817 C 640.028 5.76439 -2.60579 0
M  V30 6818 C 638.692 5.99426 -2.93675 0
M  V30 6819 H 637.962 0.737971 0.066927 0
M  V30 6820 H 640.609 1.83853 -0.535764 0
M  V30 6821 H 638.914 3.69963 1.28976 0
M  V30 6822 H 640.611 3.8956 0.951018 0
M  V30 6823 H 637.201 4.26392 -0.434525 0
M  V30 6824 H 641.385 4.80182 -1.25457 0
M  V30 6825 H 636.641 5.62046 -2.40654 0
M  V30 6826 H 640.815 6.17202 -3.22544 0
M  V30 6827 H 638.442 6.57988 -3.80731 0
M  V30 6828 N 640.017 0.126909 1.57088 0
M  V30 6829 C 640.98 -0.806097 2.14557 0
M  V30 6830 C 641.98 -1.18918 1.08236 0
M  V30 6831 O 643.17 -1.11339 1.33975 0
M  V30 6832 C 640.302 -2.09116 2.69227 0
M  V30 6833 H 641.495 -0.306522 2.98329 0
M  V30 6834 H 639.048 -0.122393 1.5582 0
M  V30 6835 H 639.783 -2.63486 1.89065 0
M  V30 6836 H 639.568 -1.82588 3.46993 0
M  V30 6837 H 641.058 -2.75794 3.13572 0
M  V30 6838 N 641.495 -1.56914 -0.146875 0
M  V30 6839 C 642.743 -1.82994 -0.85777 0
M  V30 6840 C 643.064 -0.707814 -1.817 0
M  V30 6841 O 642.334 0.270521 -1.94023 0
M  V30 6842 H 640.914 -0.675106 -0.319751 0
M  V30 6843 H 643.576 -1.9439 -0.140849 0
M  V30 6844 H 642.672 -2.77928 -1.41994 0
M  V30 6845 N 642.974 0.416227 -1.52004 0
M  V30 6846 C 643.907 1.52736 -1.6955 0
M  V30 6847 C 644.885 1.53264 -0.54305 0
M  V30 6848 O 646.069 1.72077 -0.769527 0
M  V30 6849 C 643.196 2.91283 -1.72835 0
M  V30 6850 C 642.242 3.08695 -2.94295 0
M  V30 6851 S 643.075 2.82758 -4.54762 0
M  V30 6852 C 644.231 4.23548 -4.60823 0
M  V30 6853 H 644.464 1.37623 -2.63528 0
M  V30 6854 H 641.997 0.607335 -1.41954 0
M  V30 6855 H 643.955 3.71134 -1.75413 0
M  V30 6856 H 642.616 3.03742 -0.799966 0
M  V30 6857 H 641.809 4.10042 -2.93056 0
M  V30 6858 H 641.411 2.36699 -2.89568 0
M  V30 6859 H 643.703 5.17078 -4.37763 0
M  V30 6860 H 644.646 4.29813 -5.62731 0
M  V30 6861 H 645.054 4.08188 -3.89927 0
M  V30 6862 N 644.452 1.42507 0.673017 0
M  V30 6863 C 645.415 1.4582 1.76831 0
M  V30 6864 C 646.415 0.345542 1.57043 0
M  V30 6865 O 647.605 0.606447 1.63303 0
M  V30 6866 C 644.737 1.29158 3.15485 0
M  V30 6867 H 645.93 2.43345 1.7528 0
M  V30 6868 H 643.483 1.28981 0.882817 0
M  V30 6869 H 644.218 0.325626 3.22661 0
M  V30 6870 H 644.003 2.09797 3.31252 0
M  V30 6871 H 645.493 1.34363 3.95394 0
M  V30 6872 N 645.93 -0.909495 1.28709 0
M  V30 6873 C 647.176 -1.66151 1.16283 0
M  V30 6874 C 647.509 -1.92067 -0.287069 0
M  V30 6875 O 646.784 -1.52409 -1.20837 0
M  V30 6876 C 647.067 -3.01676 1.9663 0
M  V30 6877 C 646.92 -2.82888 3.49707 0
M  V30 6878 C 648.239 -4.02274 1.78504 0
M  V30 6879 H 645.358 -0.602966 0.423793 0
M  V30 6880 H 648 -1.05418 1.58073 0
M  V30 6881 H 646.15 -3.53515 1.61119 0
M  V30 6882 H 647.822 -2.38026 3.95147 0
M  V30 6883 H 646.065 -2.17862 3.75125 0
M  V30 6884 H 646.736 -3.79147 4.01187 0
M  V30 6885 H 649.212 -3.59511 2.09503 0
M  V30 6886 H 648.088 -4.95056 2.37088 0
M  V30 6887 H 648.349 -4.35903 0.737647 0
M  V30 6888 N 647.408 -1.11026 -1.11852 0
M  V30 6889 C 648.338 -0.786812 -2.19844 0
M  V30 6890 C 649.319 0.242935 -1.68356 0
M  V30 6891 O 650.504 0.107355 -1.93903 0
M  V30 6892 C 647.634 -0.224516 -3.46574 0
M  V30 6893 C 646.588 -1.18564 -4.1125 0
M  V30 6894 C 645.914 -0.484261 -5.32503 0
M  V30 6895 C 647.214 -2.53465 -4.56676 0
M  V30 6896 H 648.908 -1.68978 -2.47158 0
M  V30 6897 H 646.454 -0.813906 -1.18792 0
M  V30 6898 H 648.407 0.0139435 -4.21398 0
M  V30 6899 H 647.131 0.713722 -3.18706 0
M  V30 6900 H 645.79 -1.40966 -3.38414 0
M  V30 6901 H 645.438 0.458646 -5.00905 0
M  V30 6902 H 645.138 -1.12526 -5.76725 0
M  V30 6903 H 646.662 -0.254492 -6.10069 0
M  V30 6904 H 648.076 -2.35177 -5.22843 0
M  V30 6905 H 646.473 -3.13507 -5.11697 0
M  V30 6906 H 647.543 -3.13008 -3.70343 0
M  V30 6907 N 648.886 1.2938 -0.899927 0
M  V30 6908 C 650.111 2.00228 -0.540692 0
M  V30 6909 C 650.536 1.66909 0.867359 0
M  V30 6910 O 649.894 0.893824 1.57735 0
M  V30 6911 C 649.942 3.52921 -0.740232 0
M  V30 6912 O 649.046 4.11879 0.207154 0
M  V30 6913 H 648.387 0.629505 -0.211233 0
M  V30 6914 H 650.917 1.6487 -1.21158 0
M  V30 6915 H 650.927 4.0287 -0.644973 0
M  V30 6916 H 649.602 3.76508 -1.76677 0
M  V30 6917 H 648.179 3.72845 0.0643315 0
M  V30 6918 N 650.364 0.662433 1.43002 0
M  V30 6919 C 651.612 0.179237 2.01304 0
M  V30 6920 C 651.933 -1.21428 1.52579 0
M  V30 6921 O 651.203 -1.81294 0.742252 0
M  V30 6922 H 649.783 0.0632725 0.744316 0
M  V30 6923 H 652.445 0.856169 1.75088 0
M  V30 6924 H 651.541 0.170957 3.11631 0
M  V30 6925 N 651.842 -1.52309 0.404946 0
M  V30 6926 C 653.253 -1.86585 -0.0655926 0
M  V30 6927 C 653.604 -1.3239 -1.44801 0
M  V30 6928 O 652.729 -0.6615 -2.06042 0
M  V30 6929 C 653.324 -3.38566 -0.125801 0
M  V30 6930 C 651.883 -3.72497 -0.540666 0
M  V30 6931 C 651.03 -2.75806 0.287487 0
M  V30 6932 H 653.981 -1.45995 0.622185 0
M  V30 6933 H 654.002 -3.68658 -0.941888 0
M  V30 6934 H 653.514 -3.77981 0.880473 0
M  V30 6935 H 651.615 -3.38659 -1.55373 0
M  V30 6936 H 651.728 -4.78234 -0.287956 0
M  V30 6937 H 650.092 -2.53474 -0.249561 0
M  V30 6938 H 650.875 -3.18059 1.29203 0
M  V30 6939 N 653.32 -0.135238 -1.57019 0
M  V30 6940 C 654.731 0.387521 -1.82634 0
M  V30 6941 C 655.082 1.65528 -1.05332 0
M  V30 6942 O 654.207 2.14381 -0.294926 0
M  V30 6943 C 654.802 0.709852 -3.3128 0
M  V30 6944 C 653.361 1.17718 -3.57518 0
M  V30 6945 C 652.508 0.194183 -2.76619 0
M  V30 6946 H 655.459 -0.360126 -1.5456 0
M  V30 6947 H 655.48 1.5657 -3.46794 0
M  V30 6948 H 654.992 -0.213024 -3.87515 0
M  V30 6949 H 653.093 2.1164 -3.06658 0
M  V30 6950 H 653.206 1.11128 -4.66034 0
M  V30 6951 H 651.57 0.684478 -2.4533 0
M  V30 6952 H 652.353 -0.722076 -3.3562 0
M  V30 6953 N 654.798 1.5699 0.138552 0
M  V30 6954 C 656.047 1.82998 0.848205 0
M  V30 6955 C 656.36 0.717829 1.81952 0
M  V30 6956 O 657.566 0.863756 2.57394 0
M  V30 6957 C 656.022 3.24379 1.55904 0
M  V30 6958 C 655.63 4.43552 0.62971 0
M  V30 6959 C 657.374 3.59654 2.25498 0
M  V30 6960 C 655.281 5.75957 1.34266 0
M  V30 6961 H 654.211 0.682495 0.320495 0
M  V30 6962 H 656.862 1.83222 0.100924 0
M  V30 6963 H 655.244 3.18567 2.35226 0
M  V30 6964 H 656.418 4.6062 -0.128882 0
M  V30 6965 H 654.733 4.16379 0.0417526 0
M  V30 6966 H 657.33 4.55837 2.79493 0
M  V30 6967 H 657.673 2.86124 3.02388 0
M  V30 6968 H 658.206 3.67164 1.53087 0
M  V30 6969 H 654.945 6.52604 0.615441 0
M  V30 6970 H 654.465 5.62811 2.07375 0
M  V30 6971 H 656.144 6.19046 1.88126 0
M  V30 6972 N 656.276 -0.40816 1.52223 0
M  V30 6973 C 657.239 -1.48 1.7501 0
M  V30 6974 C 658.239 -1.48367 0.619996 0
M  V30 6975 O 659.429 -1.49874 0.887881 0
M  V30 6976 C 656.561 -2.87403 1.83336 0
M  V30 6977 H 657.754 -1.29086 2.70697 0
M  V30 6978 H 655.307 -0.638715 1.42654 0
M  V30 6979 H 656.042 -3.11686 0.895677 0
M  V30 6980 H 655.827 -2.8854 2.65494 0
M  V30 6981 H 657.317 -3.65103 2.02705 0
M  V30 6982 N 657.755 -1.42862 -0.66545 0
M  V30 6983 C 659.003 -1.43546 -1.42264 0
M  V30 6984 C 659.324 -0.0563116 -1.94919 0
M  V30 6985 O 658.594 0.906568 -1.73661 0
M  V30 6986 H 657.174 -0.528464 -0.527953 0
M  V30 6987 H 659.836 -1.78363 -0.785665 0
M  V30 6988 H 658.932 -2.14079 -2.27105 0
M  V30 6989 N 659.233 0.902656 -1.29189 0
M  V30 6990 C 660.479 1.6555 -1.18172 0
M  V30 6991 C 660.834 1.90569 0.264788 0
M  V30 6992 O 660.127 1.50292 1.1884 0
M  V30 6993 C 660.321 3.011 -1.92545 0
M  V30 6994 C 660.15 2.89312 -3.4428 0
M  V30 6995 C 658.92 2.90239 -4.1363 0
M  V30 6996 C 661.118 2.6656 -4.3983 0
M  V30 6997 N 659.1 2.69156 -5.5175 0
M  V30 6998 C 660.471 2.54429 -5.6539 0
M  V30 6999 C 662.526 2.51644 -4.29627 0
M  V30 7000 C 661.229 2.289 -6.81907 0
M  V30 7001 C 663.255 2.27498 -5.45892 0
M  V30 7002 C 662.617 2.16129 -6.70423 0
M  V30 7003 H 658.716 0.611519 -0.48741 0
M  V30 7004 H 661.3 1.06514 -1.62981 0
M  V30 7005 H 659.471 3.58202 -1.50154 0
M  V30 7006 H 661.203 3.65471 -1.73818 0
M  V30 7007 H 657.958 3.01412 -3.65305 0
M  V30 7008 H 658.382 2.61676 -6.24383 0
M  V30 7009 H 663.024 2.59178 -3.34045 0
M  V30 7010 H 660.742 2.20104 -7.77547 0
M  V30 7011 H 664.328 2.16805 -5.39895 0
M  V30 7012 H 663.208 1.97703 -7.5887 0
M  V30 7013 N 660.711 1.11618 1.11262 0
M  V30 7014 C 661.641 0.79846 2.19424 0
M  V30 7015 C 662.622 -0.234003 1.68483 0
M  V30 7016 O 663.807 -0.0970704 1.93957 0
M  V30 7017 C 660.937 0.242892 3.4645 0
M  V30 7018 C 659.891 1.20744 4.10615 0
M  V30 7019 C 659.217 0.512494 5.32238 0
M  V30 7020 C 660.517 2.55884 4.55325 0
M  V30 7021 H 662.211 1.70286 2.46258 0
M  V30 7022 H 659.757 0.820195 1.18359 0
M  V30 7023 H 661.71 0.00840447 4.21399 0
M  V30 7024 H 660.434 -0.696811 3.1908 0
M  V30 7025 H 659.093 1.42759 3.37662 0
M  V30 7026 H 658.741 -0.432075 5.01141 0
M  V30 7027 H 658.441 1.15583 5.7612 0
M  V30 7028 H 659.965 0.286842 6.09926 0
M  V30 7029 H 661.379 2.37946 5.21588 0
M  V30 7030 H 659.776 3.16216 5.10027 0
M  V30 7031 H 660.846 3.14968 3.68678 0
M  V30 7032 N 662.189 -1.289 0.906776 0
M  V30 7033 C 663.419 -1.99112 0.551168 0
M  V30 7034 C 663.827 -1.67998 -0.870243 0
M  V30 7035 O 663.17 -0.92525 -1.58697 0
M  V30 7036 C 663.232 -3.53162 0.672065 0
M  V30 7037 C 662.896 -4.07849 2.06174 0
M  V30 7038 C 663.893 -4.22212 3.0337 0
M  V30 7039 C 661.578 -4.4271 2.37304 0
M  V30 7040 C 663.572 -4.70678 4.29815 0
M  V30 7041 C 661.259 -4.90871 3.6399 0
M  V30 7042 C 662.257 -5.04811 4.6006 0
M  V30 7043 O 661.945 -5.51925 5.84495 0
M  V30 7044 H 661.677 -0.642728 0.209469 0
M  V30 7045 H 664.231 -1.65234 1.22012 0
M  V30 7046 H 662.461 -3.86662 -0.05394 0
M  V30 7047 H 664.15 -4.046 0.324579 0
M  V30 7048 H 664.916 -3.9556 2.80637 0
M  V30 7049 H 660.795 -4.31114 1.63283 0
M  V30 7050 H 664.339 -4.81474 5.04806 0
M  V30 7051 H 660.236 -5.16961 3.86551 0
M  V30 7052 H 661.004 -5.70225 5.87185 0
M  V30 7053 N 663.667 -0.670007 -1.42649 0
M  V30 7054 C 664.944 -0.119451 -1.95235 0
M  V30 7055 C 665.324 1.36461 -1.61064 0
M  V30 7056 O 664.672 2.09843 -0.904329 0
M  V30 7057 C 664.882 -0.383498 -3.46887 0
M  V30 7058 C 666.23 -0.297431 -4.23557 0
M  V30 7059 O 667.254 -0.31698 -3.54787 0
M  V30 7060 O 666.113 -0.235507 -5.45992 0
M  V30 7061 H 663.207 -8.85474e-05 -0.827 0
M  V30 7062 H 665.753 -0.744406 -1.52501 0
M  V30 7063 H 664.525 -1.41174 -3.64946 0
M  V30 7064 H 664.148 0.273702 -3.96657 0
M  V30 7065 N 665.145 1.52092 -0.413018 0
M  V30 7066 C 666.375 2.05974 0.160648 0
M  V30 7067 C 666.783 1.28267 1.39084 0
M  V30 7068 O 666.126 0.328805 1.80733 0
M  V30 7069 C 666.188 3.54918 0.572169 0
M  V30 7070 C 665.852 4.53705 -0.547826 0
M  V30 7071 C 666.849 5.00342 -1.41259 0
M  V30 7072 C 664.534 4.97089 -0.721627 0
M  V30 7073 C 666.528 5.89011 -2.43607 0
M  V30 7074 C 664.215 5.85554 -1.74841 0
M  V30 7075 C 665.213 6.3141 -2.60403 0
M  V30 7076 O 664.901 7.18123 -3.61323 0
M  V30 7077 H 664.633 0.675636 0.0221936 0
M  V30 7078 H 667.187 1.96931 -0.58373 0
M  V30 7079 H 665.417 3.61661 1.36889 0
M  V30 7080 H 667.106 3.91428 1.0742 0
M  V30 7081 H 667.872 4.67537 -1.28974 0
M  V30 7082 H 663.751 4.60954 -0.0652911 0
M  V30 7083 H 667.295 6.24725 -3.10425 0
M  V30 7084 H 663.192 6.17773 -1.87156 0
M  V30 7085 H 663.96 7.36244 -3.57613 0
M  V30 7086 N 666.623 0.143563 1.56945 0
M  V30 7087 C 667.851 -0.515447 2.00377 0
M  V30 7088 C 668.266 -1.58643 1.02361 0
M  V30 7089 O 667.623 -1.82489 0.0201039 0
M  V30 7090 C 667.674 -1.11923 3.43737 0
M  V30 7091 O 667.395 -0.0910318 4.38005 0
M  V30 7092 C 668.896 -1.85918 4.02429 0
M  V30 7093 H 666.116 -0.134478 0.657386 0
M  V30 7094 H 668.66 0.237135 2.0312 0
M  V30 7095 H 666.815 -1.82245 3.41856 0
M  V30 7096 H 667.229 -0.532916 5.21786 0
M  V30 7097 H 668.703 -2.2346 5.04747 0
M  V30 7098 H 669.18 -2.7438 3.42947 0
M  V30 7099 H 669.786 -1.20303 4.07931 0
M  V30 7100 N 668.101 -1.57061 -0.130224 0
M  V30 7101 C 669.033 -1.96147 -1.18571 0
M  V30 7102 C 670.046 -0.859347 -1.38272 0
M  V30 7103 O 671.235 -1.13769 -1.37545 0
M  V30 7104 C 668.335 -2.23484 -2.54771 0
M  V30 7105 C 667.508 -3.54786 -2.55824 0
M  V30 7106 C 666.567 -3.70467 -3.73686 0
M  V30 7107 O 665.593 -4.42693 -3.57787 0
M  V30 7108 N 666.795 -3.08389 -4.91809 0
M  V30 7109 H 669.56 -2.87295 -0.853333 0
M  V30 7110 H 667.121 -1.58714 -0.319621 0
M  V30 7111 H 669.113 -2.312 -3.32158 0
M  V30 7112 H 667.683 -1.38518 -2.80235 0
M  V30 7113 H 666.903 -3.5836 -1.64232 0
M  V30 7114 H 668.191 -4.4111 -2.53573 0
M  V30 7115 H 667.589 -2.49656 -5.0763 0
M  V30 7116 H 666.146 -3.21642 -5.66912 0
M  V30 7117 N 669.579 0.400081 -1.52437 0
M  V30 7118 C 670.807 1.16768 -1.70801 0
M  V30 7119 C 671.222 1.84036 -0.421462 0
M  V30 7120 O 670.579 1.72242 0.603228 0
M  V30 7121 C 670.63 2.22403 -2.8499 0
M  V30 7122 O 670.351 1.57879 -4.08663 0
M  V30 7123 C 671.852 3.11974 -3.1494 0
M  V30 7124 H 669.072 0.350533 -0.57216 0
M  V30 7125 H 671.616 0.469534 -1.99037 0
M  V30 7126 H 669.771 2.87871 -2.59247 0
M  V30 7127 H 670.185 2.27982 -4.7236 0
M  V30 7128 H 671.659 3.82148 -3.9833 0
M  V30 7129 H 672.136 3.74858 -2.28863 0
M  V30 7130 H 672.742 2.52165 -3.42481 0
M  V30 7131 N 671.057 1.43213 0.657864 0
M  V30 7132 C 672.287 1.478 1.44356 0
M  V30 7133 C 672.695 0.0930206 1.88971 0
M  V30 7134 O 672.038 -0.906089 1.59799 0
M  V30 7135 C 672.1 2.35745 2.71412 0
M  V30 7136 C 671.764 3.83359 2.48767 0
M  V30 7137 C 672.761 4.74585 2.12285 0
M  V30 7138 C 670.446 4.27799 2.63235 0
M  V30 7139 C 672.44 6.08247 1.90562 0
M  V30 7140 C 670.127 5.61516 2.41128 0
M  V30 7141 C 671.125 6.51557 2.04847 0
M  V30 7142 O 670.813 7.82802 1.82967 0
M  V30 7143 H 670.545 0.504363 0.450104 0
M  V30 7144 H 673.099 1.88572 0.814241 0
M  V30 7145 H 671.329 1.89852 3.36887 0
M  V30 7146 H 673.018 2.31589 3.33348 0
M  V30 7147 H 673.784 4.41531 2.00687 0
M  V30 7148 H 669.663 3.57993 2.90451 0
M  V30 7149 H 673.207 6.78489 1.62168 0
M  V30 7150 H 669.104 5.94139 2.52327 0
M  V30 7151 H 669.872 7.94332 1.97429 0
M  V30 7152 N 672.536 -0.895792 1.29666 0
M  V30 7153 C 673.484 -2.02173 1.15017 0
M  V30 7154 C 674.478 -1.69276 0.0647651 0
M  V30 7155 O 675.684 -1.7859 0.224846 0
M  V30 7156 H 672.059 -0.662719 0.355397 0
M  V30 7157 H 674.03 -2.11666 2.10334 0
M  V30 7158 C 672.779 -3.37212 0.847555 0
M  V30 7159 H 672.102 -3.6303 1.67479 0
M  V30 7160 H 673.542 -4.16668 0.785106 0
M  V30 7161 C 672.001 -3.33891 -0.44929 0
M  V30 7162 O 672.531 -3.73673 -1.47415 0
M  V30 7163 N 670.737 -2.86991 -0.456547 0
M  V30 7164 H 670.284 -2.54813 0.377925 0
M  V30 7165 H 670.242 -2.85152 -1.32423 0
M  V30 7166 N 674.014 -1.12206 -1.10668 0
M  V30 7167 C 675.262 -0.874144 -1.82217 0
M  V30 7168 C 675.583 0.601736 -1.85484 0
M  V30 7169 O 674.853 1.43725 -1.33116 0
M  V30 7170 H 673.433 -0.320404 -0.674797 0
M  V30 7171 H 676.095 -1.41606 -1.33917 0
M  V30 7172 H 675.191 -1.25349 -2.85822 0
M  V30 7173 N 675.492 1.28418 -0.913599 0
M  V30 7174 C 676.717 1.99643 -0.561899 0
M  V30 7175 C 677.142 1.67819 0.849608 0
M  V30 7176 O 676.5 0.910503 1.56779 0
M  V30 7177 C 676.548 3.52116 -0.777622 0
M  V30 7178 O 675.652 4.12076 0.163457 0
M  V30 7179 H 674.993 0.627229 -0.217898 0
M  V30 7180 H 677.523 1.63575 -1.229 0
M  V30 7181 H 677.533 4.02163 -0.687666 0
M  V30 7182 H 676.208 3.74613 -1.8066 0
M  V30 7183 H 674.785 3.72892 0.0247827 0
M  V30 7184 N 676.97 0.677563 1.42291 0
M  V30 7185 C 678.217 0.200975 2.015 0
M  V30 7186 C 678.545 -1.19342 1.53583 0
M  V30 7187 O 677.8 -1.81579 0.7299 0
M  V30 7188 C 678.099 0.187229 3.56909 0
M  V30 7189 C 677.765 1.52667 4.24268 0
M  V30 7190 C 676.427 1.89341 4.42384 0
M  V30 7191 C 678.779 2.40869 4.62203 0
M  V30 7192 C 676.107 3.13836 4.95705 0
M  V30 7193 C 678.459 3.64679 5.16906 0
M  V30 7194 C 677.123 4.01519 5.33234 0
M  V30 7195 H 676.393 0.0735418 0.737342 0
M  V30 7196 H 679.04 0.873095 1.70439 0
M  V30 7197 H 677.345 -0.568407 3.87655 0
M  V30 7198 H 679.042 -0.198773 4.00507 0
M  V30 7199 H 675.632 1.23138 4.1053 0
M  V30 7200 H 679.816 2.1382 4.47878 0
M  V30 7201 H 675.072 3.42396 5.06532 0
M  V30 7202 H 679.246 4.33224 5.45243 0
M  V30 7203 H 676.873 4.98062 5.74316 0
M  V30 7204 N 678.448 -1.51871 0.421078 0
M  V30 7205 C 679.678 -2.06057 -0.149723 0
M  V30 7206 C 680.086 -1.29002 -1.38402 0
M  V30 7207 O 679.429 -0.338385 -1.80556 0
M  V30 7208 C 679.491 -3.55216 -0.553339 0
M  V30 7209 C 679.155 -4.53408 0.571879 0
M  V30 7210 C 680.152 -4.99586 1.4391 0
M  V30 7211 C 677.837 -4.967 0.747979 0
M  V30 7212 C 679.831 -5.87711 2.46727 0
M  V30 7213 C 677.518 -5.84619 1.77944 0
M  V30 7214 C 678.516 -6.30021 2.63748 0
M  V30 7215 O 678.204 -7.16197 3.65126 0
M  V30 7216 H 677.936 -0.675744 -0.0186102 0
M  V30 7217 H 680.49 -1.96618 0.594166 0
M  V30 7218 H 678.72 -3.62381 -1.34969 0
M  V30 7219 H 680.409 -3.91992 -1.05342 0
M  V30 7220 H 681.175 -4.66846 1.31451 0
M  V30 7221 H 677.054 -4.60913 0.0897357 0
M  V30 7222 H 680.598 -6.2307 3.13734 0
M  V30 7223 H 676.495 -6.16771 1.90429 0
M  V30 7224 H 677.263 -7.34337 3.61512 0
M  V30 7225 N 679.926 -0.151884 -1.56866 0
M  V30 7226 C 681.173 0.498004 -1.96281 0
M  V30 7227 C 681.501 1.64551 -1.03698 0
M  V30 7228 O 680.756 1.95585 -0.0671497 0
M  V30 7229 C 681.055 1.04074 -3.41911 0
M  V30 7230 C 680.721 0.0111688 -4.50899 0
M  V30 7231 C 679.383 -0.271844 -4.80432 0
M  V30 7232 C 681.735 -0.68869 -5.1663 0
M  V30 7233 C 679.063 -1.26044 -5.73001 0
M  V30 7234 C 681.415 -1.66613 -6.10264 0
M  V30 7235 C 680.079 -1.9568 -6.38174 0
M  V30 7236 H 679.349 0.182233 -0.718242 0
M  V30 7237 H 681.996 -0.239746 -1.89993 0
M  V30 7238 H 680.301 1.85592 -3.45055 0
M  V30 7239 H 681.998 1.55224 -3.69738 0
M  V30 7240 H 678.588 0.241932 -4.27917 0
M  V30 7241 H 682.772 -0.48324 -4.93942 0
M  V30 7242 H 678.028 -1.49202 -5.92915 0
M  V30 7243 H 682.202 -2.21392 -6.60272 0
M  V30 7244 H 679.829 -2.72434 -7.09707 0
M  V30 7245 N 681.404 1.57128 0.121893 0
M  V30 7246 C 682.629 1.89254 0.848385 0
M  V30 7247 C 683.054 0.743527 1.72781 0
M  V30 7248 O 682.412 -0.306056 1.78698 0
M  V30 7249 C 682.46 3.20113 1.66012 0
M  V30 7250 O 681.564 3.05815 2.76679 0
M  V30 7251 H 680.905 0.621103 0.234793 0
M  V30 7252 H 683.435 2.0433 0.10516 0
M  V30 7253 H 683.445 3.52761 2.04996 0
M  V30 7254 H 682.12 4.03336 1.01452 0
M  V30 7255 H 680.697 2.84627 2.40918 0
M  V30 7256 N 682.882 -0.391992 1.52647 0
M  V30 7257 C 684.13 -1.13507 1.67214 0
M  V30 7258 C 684.451 -1.90575 0.41304 0
M  V30 7259 O 683.721 -1.87348 -0.572498 0
M  V30 7260 H 682.301 -0.422013 0.616372 0
M  V30 7261 H 684.963 -0.44502 1.89751 0
M  V30 7262 H 684.059 -1.83964 2.52118 0
M  V30 7263 N 684.36 -1.4356 -0.65026 0
M  V30 7264 C 685.609 -1.44619 -1.406 0
M  V30 7265 C 685.922 -0.0752645 -1.95455 0
M  V30 7266 O 687.128 0.0366832 -2.71475 0
M  V30 7267 C 685.584 -2.54511 -2.54465 0
M  V30 7268 C 685.192 -3.97723 -2.06204 0
M  V30 7269 C 686.936 -2.64768 -3.31811 0
M  V30 7270 C 684.843 -4.99075 -3.17298 0
M  V30 7271 H 683.773 -0.537983 -0.52829 0
M  V30 7272 H 686.424 -1.69559 -0.701561 0
M  V30 7273 H 684.806 -2.22777 -3.27393 0
M  V30 7274 H 685.98 -4.38932 -1.40267 0
M  V30 7275 H 684.295 -3.91538 -1.41729 0
M  V30 7276 H 686.892 -3.37664 -4.14593 0
M  V30 7277 H 687.235 -1.69936 -3.80036 0
M  V30 7278 H 687.768 -2.95817 -2.65964 0
M  V30 7279 H 684.507 -5.95469 -2.74038 0
M  V30 7280 H 684.027 -4.62476 -3.81937 0
M  V30 7281 H 685.706 -5.21913 -3.82382 0
M  V30 7282 N 685.838 0.888903 -1.30139 0
M  V30 7283 C 687.078 1.65456 -1.20015 0
M  V30 7284 C 687.442 1.90467 0.242148 0
M  V30 7285 O 688.643 2.6472 0.466561 0
M  V30 7286 C 686.914 2.96071 -2.00191 0
M  V30 7287 S 688.473 3.87055 -2.06721 0
M  V30 7288 H 685.291 0.567927 -0.427761 0
M  V30 7289 H 687.893 1.05539 -1.64565 0
M  V30 7290 H 686.597 2.7559 -3.04103 0
M  V30 7291 H 686.128 3.61023 -1.56288 0
M  V30 7292 H 688.143 4.81676 -1.19174 0
M  V30 7293 N 687.317 1.12792 1.10072 0
M  V30 7294 C 688.547 0.907189 1.85617 0
M  V30 7295 C 688.955 -0.547181 1.81115 0
M  V30 7296 O 688.298 -1.39024 1.20075 0
M  V30 7297 C 688.36 1.30872 3.34832 0
M  V30 7298 C 688.024 2.77516 3.6309 0
M  V30 7299 C 689.021 3.75696 3.59373 0
M  V30 7300 C 686.706 3.14513 3.91646 0
M  V30 7301 C 688.7 5.08888 3.83812 0
M  V30 7302 C 686.387 4.47886 4.15742 0
M  V30 7303 C 687.385 5.44882 4.11816 0
M  V30 7304 O 687.073 6.7585 4.35295 0
M  V30 7305 H 686.805 0.323855 0.593375 0
M  V30 7306 H 689.359 1.50262 1.40038 0
M  V30 7307 H 687.589 0.656518 3.81086 0
M  V30 7308 H 689.278 1.06153 3.91773 0
M  V30 7309 H 690.044 3.48458 3.37345 0
M  V30 7310 H 685.923 2.39622 3.93831 0
M  V30 7311 H 689.467 5.84586 3.80663 0
M  V30 7312 H 685.364 4.74851 4.37249 0
M  V30 7313 H 686.132 6.81853 4.52791 0
M  V30 7314 N 688.795 -1.27931 0.920396 0
M  V30 7315 C 689.725 -2.29487 0.431024 0
M  V30 7316 C 690.706 -1.62435 -0.504861 0
M  V30 7317 O 691.891 -1.89797 -0.411176 0
M  V30 7318 C 689.021 -3.45788 -0.323709 0
M  V30 7319 C 687.975 -4.24784 0.523658 0
M  V30 7320 C 687.301 -5.33488 -0.359809 0
M  V30 7321 C 688.601 -4.90874 1.78437 0
M  V30 7322 H 690.295 -2.70671 1.27975 0
M  V30 7323 H 687.841 -1.30121 0.616813 0
M  V30 7324 H 689.794 -4.15927 -0.676952 0
M  V30 7325 H 688.518 -3.03502 -1.2064 0
M  V30 7326 H 687.177 -3.56382 0.85951 0
M  V30 7327 H 686.825 -4.87445 -1.24124 0
M  V30 7328 H 686.525 -5.87247 0.203605 0
M  V30 7329 H 688.049 -6.06472 -0.708787 0
M  V30 7330 H 689.463 -5.53339 1.49963 0
M  V30 7331 H 687.86 -5.54659 2.29071 0
M  V30 7332 H 688.93 -4.14988 2.50824 0
M  V30 7333 N 690.273 -0.685099 -1.4193 0
M  V30 7334 C 691.203 -0.0273506 -2.33484 0
M  V30 7335 C 692.184 0.778366 -1.51246 0
M  V30 7336 O 693.369 0.733449 -1.79817 0
M  V30 7337 C 690.499 0.917272 -3.34968 0
M  V30 7338 C 689.453 0.21941 -4.27437 0
M  V30 7339 C 688.779 1.27768 -5.1921 0
M  V30 7340 C 690.079 -0.907894 -5.14349 0
M  V30 7341 H 691.773 -0.791994 -2.88735 0
M  V30 7342 H 689.319 -0.382308 -1.38832 0
M  V30 7343 H 691.272 1.38657 -3.97935 0
M  V30 7344 H 689.996 1.71346 -2.78043 0
M  V30 7345 H 688.655 -0.229757 -3.65879 0
M  V30 7346 H 688.303 2.06612 -4.58607 0
M  V30 7347 H 688.003 0.815803 -5.81909 0
M  V30 7348 H 689.527 1.7477 -5.85054 0
M  V30 7349 H 690.941 -0.519348 -5.70943 0
M  V30 7350 H 689.338 -1.2962 -5.85934 0
M  V30 7351 H 690.408 -1.75218 -4.52136 0
M  V30 7352 N 691.751 1.51645 -0.429126 0
M  V30 7353 C 692.976 2.06917 0.141399 0
M  V30 7354 C 693.401 1.29527 1.36398 0
M  V30 7355 O 692.759 0.33094 1.78254 0
M  V30 7356 C 692.807 3.57776 0.4504 0
M  V30 7357 O 691.911 3.82639 1.53821 0
M  V30 7358 H 691.252 0.663978 0.0054647 0
M  V30 7359 H 693.782 1.95355 -0.608093 0
M  V30 7360 H 693.792 4.01894 0.703249 0
M  V30 7361 H 692.467 4.13532 -0.443213 0
M  V30 7362 H 691.044 3.5039 1.27597 0
M  V30 7363 N 693.229 0.160201 1.56784 0
M  V30 7364 C 694.454 -0.497373 2.01348 0
M  V30 7365 C 694.879 -1.56757 1.03966 0
M  V30 7366 O 694.237 -1.81292 0.0174455 0
M  V30 7367 C 694.285 -1.0628 3.44582 0
M  V30 7368 O 693.389 -2.17723 3.50244 0
M  V30 7369 H 692.73 -0.120295 0.653012 0
M  V30 7370 H 695.26 0.260821 2.02931 0
M  V30 7371 H 695.27 -1.38819 3.83658 0
M  V30 7372 H 693.945 -0.279166 4.14962 0
M  V30 7373 H 692.522 -1.86313 3.2302 0
M  V30 7374 N 694.707 -1.5719 -0.113559 0
M  V30 7375 C 695.953 -1.85412 -0.821597 0
M  V30 7376 C 696.286 -0.746722 -1.7927 0
M  V30 7377 O 695.561 0.246971 -1.92926 0
M  V30 7378 C 695.844 -3.24233 -1.56669 0
M  V30 7379 C 695.697 -4.45578 -0.614823 0
M  V30 7380 C 697.016 -3.60697 -2.52161 0
M  V30 7381 H 694.135 -0.674406 -0.29723 0
M  V30 7382 H 696.777 -1.89807 -0.085694 0
M  V30 7383 H 694.927 -3.20617 -2.19401 0
M  V30 7384 H 696.599 -4.613 0.00407137 0
M  V30 7385 H 694.842 -4.33738 0.0732332 0
M  V30 7386 H 695.513 -5.39395 -1.17292 0
M  V30 7387 H 697.989 -3.65139 -1.99532 0
M  V30 7388 H 696.865 -4.58798 -3.01323 0
M  V30 7389 H 697.126 -2.88403 -3.35076 0
M  V30 7390 N 696.185 0.383891 -1.52853 0
M  V30 7391 C 697.41 1.154 -1.7233 0
M  V30 7392 C 697.835 1.82809 -0.44298 0
M  V30 7393 O 697.193 1.71026 0.601645 0
M  V30 7394 C 697.241 2.17386 -2.87708 0
M  V30 7395 O 696.345 3.24082 -2.55038 0
M  V30 7396 H 695.686 0.335709 -0.572883 0
M  V30 7397 H 698.216 0.44662 -1.99666 0
M  V30 7398 H 698.226 2.61296 -3.1335 0
M  V30 7399 H 696.901 1.6771 -3.80587 0
M  V30 7400 H 695.478 2.85273 -2.40153 0
M  V30 7401 N 697.663 1.43903 0.642637 0
M  V30 7402 C 698.91 1.46079 1.40239 0
M  V30 7403 C 699.238 0.0890335 1.94296 0
M  V30 7404 O 698.493 -0.907533 1.73385 0
M  V30 7405 C 698.792 2.45907 2.59354 0
M  V30 7406 C 698.458 3.91522 2.23654 0
M  V30 7407 C 697.12 4.31179 2.1363 0
M  V30 7408 C 699.472 4.83242 1.95261 0
M  V30 7409 C 696.8 5.60495 1.73384 0
M  V30 7410 C 699.152 6.12933 1.56511 0
M  V30 7411 C 697.816 6.51556 1.4502 0
M  V30 7412 H 697.086 0.534542 0.513172 0
M  V30 7413 H 699.733 1.77047 0.72984 0
M  V30 7414 H 698.038 2.08381 3.3179 0
M  V30 7415 H 699.735 2.44842 3.17574 0
M  V30 7416 H 696.325 3.60142 2.32369 0
M  V30 7417 H 700.509 4.53367 2.0192 0
M  V30 7418 H 695.765 5.89249 1.63082 0
M  V30 7419 H 699.939 6.83469 1.33576 0
M  V30 7420 H 697.566 7.51663 1.13606 0
M  V30 7421 N 699.141 -0.881989 1.30609 0
M  V30 7422 C 700.388 -1.63405 1.19604 0
M  V30 7423 C 700.716 -1.92905 -0.248574 0
M  V30 7424 O 699.971 -1.55062 -1.19391 0
M  V30 7425 C 700.27 -2.97999 1.97311 0
M  V30 7426 C 699.936 -2.88039 3.46907 0
M  V30 7427 C 698.598 -2.85029 3.877 0
M  V30 7428 C 700.95 -2.75948 4.42156 0
M  V30 7429 C 698.278 -2.67772 5.2203 0
M  V30 7430 C 700.63 -2.60228 5.76597 0
M  V30 7431 C 699.294 -2.55595 6.16626 0
M  V30 7432 H 698.564 -0.597941 0.437662 0
M  V30 7433 H 701.211 -1.02524 1.61744 0
M  V30 7434 H 699.516 -3.62847 1.47815 0
M  V30 7435 H 701.213 -3.55156 1.86186 0
M  V30 7436 H 697.803 -2.91192 3.14492 0
M  V30 7437 H 701.987 -2.77337 4.1158 0
M  V30 7438 H 697.243 -2.62601 5.52133 0
M  V30 7439 H 701.417 -2.49847 6.50038 0
M  V30 7440 H 699.044 -2.41981 7.20659 0
M  V30 7441 N 700.619 -1.13374 -1.09472 0
M  V30 7442 C 701.866 -0.89519 -1.81639 0
M  V30 7443 C 702.194 0.57868 -1.85692 0
M  V30 7444 O 701.449 1.44426 -1.32059 0
M  V30 7445 C 701.748 -1.42759 -3.2765 0
M  V30 7446 C 701.414 -2.91822 -3.43731 0
M  V30 7447 C 700.076 -3.32521 -3.47827 0
M  V30 7448 C 702.428 -3.87727 -3.48307 0
M  V30 7449 C 699.756 -4.6781 -3.54078 0
M  V30 7450 C 702.108 -5.22859 -3.56091 0
M  V30 7451 C 700.772 -5.63086 -3.58456 0
M  V30 7452 H 700.042 -0.327573 -0.664663 0
M  V30 7453 H 702.689 -1.4156 -1.28969 0
M  V30 7454 H 700.994 -0.827871 -3.82954 0
M  V30 7455 H 702.691 -1.2191 -3.8202 0
M  V30 7456 H 699.281 -2.5935 -3.41226 0
M  V30 7457 H 703.465 -3.57371 -3.44383 0
M  V30 7458 H 698.721 -4.98353 -3.54195 0
M  V30 7459 H 702.895 -5.96989 -3.58577 0
M  V30 7460 H 700.522 -6.67905 -3.63052 0
M  V30 7461 N 702.098 1.27442 -0.927168 0
M  V30 7462 C 703.344 1.94679 -0.568164 0
M  V30 7463 C 703.677 1.72697 0.888219 0
M  V30 7464 O 702.952 1.05573 1.63354 0
M  V30 7465 C 703.235 3.4882 -0.894253 0
M  V30 7466 C 703.088 3.80146 -2.40435 0
M  V30 7467 C 704.407 4.38281 -0.399766 0
M  V30 7468 H 701.526 0.707071 -0.207892 0
M  V30 7469 H 704.168 1.50568 -1.15885 0
M  V30 7470 H 702.318 3.86522 -0.391566 0
M  V30 7471 H 703.99 3.52238 -2.97869 0
M  V30 7472 H 702.233 3.26716 -2.85375 0
M  V30 7473 H 702.904 4.87835 -2.58304 0
M  V30 7474 H 705.38 4.07726 -0.83058 0
M  V30 7475 H 704.256 5.44955 -0.656885 0
M  V30 7476 H 704.517 4.36521 0.700153 0
M  V30 7477 N 703.576 0.692616 1.41565 0
M  V30 7478 C 704.987 0.297478 1.84315 0
M  V30 7479 C 705.338 -1.16379 1.57957 0
M  V30 7480 O 704.463 -1.89303 1.0485 0
M  V30 7481 C 705.058 0.533136 3.34579 0
M  V30 7482 C 703.617 0.191944 3.7591 0
M  V30 7483 C 702.764 0.816873 2.64995 0
M  V30 7484 H 705.715 0.893488 1.31158 0
M  V30 7485 H 705.736 -0.209105 3.79925 0
M  V30 7486 H 705.248 1.59674 3.53731 0
M  V30 7487 H 703.349 -0.867512 3.6236 0
M  V30 7488 H 703.462 0.644902 4.7474 0
M  V30 7489 H 701.826 0.246715 2.53502 0
M  V30 7490 H 702.609 1.88429 2.86966 0
M  V30 7491 N 705.054 -1.51416 0.437162 0
M  V30 7492 C 705.984 -2.30631 -0.364922 0
M  V30 7493 C 706.965 -1.36037 -1.02118 0
M  V30 7494 O 708.15 -1.64956 -1.02485 0
M  V30 7495 C 705.28 -3.1482 -1.46648 0
M  V30 7496 C 704.234 -4.17691 -0.933717 0
M  V30 7497 C 703.56 -4.904 -2.13101 0
M  V30 7498 C 704.86 -5.2229 0.0317201 0
M  V30 7499 H 706.554 -2.97932 0.29614 0
M  V30 7500 H 704.1 -1.4328 0.143865 0
M  V30 7501 H 706.053 -3.69017 -2.03481 0
M  V30 7502 H 704.777 -2.4534 -2.15583 0
M  V30 7503 H 703.436 -3.64545 -0.387602 0
M  V30 7504 H 703.084 -4.17423 -2.80654 0
M  V30 7505 H 702.784 -5.59962 -1.78092 0
M  V30 7506 H 704.308 -5.4742 -2.70487 0
M  V30 7507 H 705.722 -5.7156 -0.446302 0
M  V30 7508 H 704.119 -5.99378 0.29437 0
M  V30 7509 H 705.189 -4.75131 0.968447 0
M  V30 7510 N 706.532 -0.168513 -1.56696 0
M  V30 7511 C 707.495 0.748928 -2.16619 0
M  V30 7512 C 708.495 1.16007 -1.11351 0
M  V30 7513 O 709.685 1.07748 -1.3688 0
M  V30 7514 C 706.817 2.01904 -2.74677 0
M  V30 7515 H 708.01 0.227317 -2.99037 0
M  V30 7516 H 705.563 0.0810372 -1.5609 0
M  V30 7517 H 706.298 2.58381 -1.95985 0
M  V30 7518 H 706.083 1.73323 -3.51712 0
M  V30 7519 H 707.573 2.67383 -3.20774 0
M  V30 7520 N 708.01 1.57248 0.105221 0
M  V30 7521 C 708.92 2.04653 1.14693 0
M  V30 7522 C 709.936 0.969488 1.44489 0
M  V30 7523 O 711.112 1.28196 1.55331 0
M  V30 7524 C 708.177 2.45297 2.45011 0
M  V30 7525 C 707.238 3.67148 2.22489 0
M  V30 7526 C 706.471 4.05844 3.46592 0
M  V30 7527 O 706.694 3.44736 4.54437 0
M  V30 7528 O 705.628 4.98862 3.36779 0
M  V30 7529 H 709.454 2.93663 0.774336 0
M  V30 7530 H 707.039 1.45998 0.31701 0
M  V30 7531 H 708.921 2.72112 3.21766 0
M  V30 7532 H 707.596 1.59429 2.81717 0
M  V30 7533 H 706.503 3.45463 1.43547 0
M  V30 7534 H 707.836 4.53764 1.9068 0
M  V30 7535 N 709.488 -0.375779 1.53054 0
M  V30 7536 C 710.904 -0.716764 1.426 0
M  V30 7537 C 711.104 -1.93651 0.556931 0
M  V30 7538 O 710.16 -2.52475 0.0354461 0
M  V30 7539 C 711.473 -0.939499 2.85646 0
M  V30 7540 C 713.021 -1.04015 2.95212 0
M  V30 7541 C 713.496 -1.29543 4.39298 0
M  V30 7542 N 714.987 -1.36335 4.42682 0
M  V30 7543 C 715.722 -1.57778 5.51266 0
M  V30 7544 N 715.218 -1.76604 6.69913 0
M  V30 7545 N 717.011 -1.60065 5.38828 0
M  V30 7546 H 709.162 0.42664 2.08071 0
M  V30 7547 H 711.425 0.128758 0.939215 0
M  V30 7548 H 711.131 -0.115189 3.51511 0
M  V30 7549 H 711.005 -1.85048 3.2869 0
M  V30 7550 H 713.392 -1.85501 2.29507 0
M  V30 7551 H 713.473 -0.106785 2.55577 0
M  V30 7552 H 713.117 -0.485611 5.05573 0
M  V30 7553 H 713.047 -2.24184 4.76497 0
M  V30 7554 H 715.538 -1.23441 3.5717 0
M  V30 7555 H 715.851 -1.9251 7.48438 0
M  V30 7556 H 714.196 -1.73802 6.72917 0
M  V30 7557 H 717.387 -1.44917 4.45103 0
M  V30 7558 H 717.56 -1.76435 6.23518 0
M  V30 7559 N 710.966 -1.44241 -0.634997 0
M  V30 7560 C 712.212 -1.48033 -1.39492 0
M  V30 7561 C 712.567 -0.109791 -1.92086 0
M  V30 7562 O 711.86 0.874394 -1.70484 0
M  V30 7563 C 712.054 -2.47279 -2.58046 0
M  V30 7564 C 711.883 -3.93848 -2.17057 0
M  V30 7565 C 710.653 -4.62061 -2.04518 0
M  V30 7566 C 712.851 -4.83172 -1.76208 0
M  V30 7567 N 710.833 -5.93471 -1.57051 0
M  V30 7568 C 712.204 -6.03996 -1.39958 0
M  V30 7569 C 714.259 -4.70271 -1.63554 0
M  V30 7570 C 712.962 -7.13351 -0.923196 0
M  V30 7571 C 714.988 -5.79646 -1.1732 0
M  V30 7572 C 714.35 -6.99609 -0.820181 0
M  V30 7573 H 710.449 -0.596743 -0.505392 0
M  V30 7574 H 713.033 -1.80542 -0.72887 0
M  V30 7575 H 711.204 -2.16766 -3.22284 0
M  V30 7576 H 712.936 -2.41391 -3.24827 0
M  V30 7577 H 709.691 -4.1682 -2.24851 0
M  V30 7578 H 710.115 -6.63275 -1.35628 0
M  V30 7579 H 714.757 -3.77964 -1.8948 0
M  V30 7580 H 712.475 -8.0547 -0.651441 0
M  V30 7581 H 716.061 -5.71689 -1.07993 0
M  V30 7582 H 714.941 -7.82803 -0.467901 0
M  V30 7583 N 712.444 0.87505 -1.31075 0
M  V30 7584 C 713.391 1.98178 -1.18296 0
M  V30 7585 C 714.361 1.65952 -0.0699923 0
M  V30 7586 O 715.546 1.8926 -0.241951 0
M  V30 7587 C 712.686 3.33399 -0.891024 0
M  V30 7588 C 711.799 3.78253 -2.08684 0
M  V30 7589 C 710.934 5.02166 -1.73212 0
M  V30 7590 C 709.973 5.39455 -2.89231 0
M  V30 7591 N 709.11 6.54549 -2.53989 0
M  V30 7592 H 713.95 2.0844 -2.12971 0
M  V30 7593 H 711.487 1.02047 -1.05948 0
M  V30 7594 H 713.445 4.11246 -0.702338 0
M  V30 7595 H 712.075 3.22794 0.0188799 0
M  V30 7596 H 711.127 2.9623 -2.38646 0
M  V30 7597 H 712.439 4.01821 -2.95536 0
M  V30 7598 H 711.593 5.87666 -1.50777 0
M  V30 7599 H 710.332 4.80491 -0.83544 0
M  V30 7600 H 709.337 4.52477 -3.12321 0
M  V30 7601 H 710.562 5.63098 -3.79601 0
M  V30 7602 H 708.508 6.3443 -1.66838 0
M  V30 7603 H 708.425 6.78035 -3.34372 0
M  V30 7604 H 709.693 7.43254 -2.34934 0
M  V30 7605 N 713.922 1.13953 1.08869 0
M  V30 7606 C 714.87 0.817664 2.17754 0
M  V30 7607 C 715.864 -0.202444 1.68186 0
M  V30 7608 O 717.07 -0.0590159 1.79903 0
M  V30 7609 H 713.445 0.246671 0.710392 0
M  V30 7610 H 715.416 1.74401 2.4213 0
M  V30 7611 C 714.165 0.3063 3.46348 0
M  V30 7612 H 713.488 1.08259 3.84864 0
M  V30 7613 H 714.928 0.119584 4.23831 0
M  V30 7614 C 713.387 -0.969158 3.22659 0
M  V30 7615 O 713.917 -2.04386 3.45817 0
M  V30 7616 N 712.123 -0.902516 2.7623 0
M  V30 7617 H 711.67 -0.027801 2.57585 0
M  V30 7618 H 711.628 -1.75649 2.60758 0
M  V30 7619 N 715.4 -1.26948 0.933913 0
M  V30 7620 C 716.625 -1.98724 0.593589 0
M  V30 7621 C 717.05 -1.6915 -0.822801 0
M  V30 7622 O 716.408 -0.93533 -1.5531 0
M  V30 7623 C 716.456 -3.50834 0.833542 0
M  V30 7624 O 715.56 -4.12284 -0.0978788 0
M  V30 7625 H 714.901 -0.623683 0.227849 0
M  V30 7626 H 717.431 -1.61599 1.25486 0
M  V30 7627 H 717.441 -4.01018 0.75156 0
M  V30 7628 H 716.116 -3.71691 1.86597 0
M  V30 7629 H 714.693 -3.72884 0.0345443 0
M  V30 7630 N 716.879 -0.700114 -1.41195 0
M  V30 7631 C 717.809 -0.0521132 -2.33442 0
M  V30 7632 C 718.79 0.76228 -1.52063 0
M  V30 7633 O 719.975 0.714336 -1.80585 0
M  V30 7634 C 717.105 0.881693 -3.35922 0
M  V30 7635 C 716.059 0.174062 -4.27646 0
M  V30 7636 C 715.385 1.22254 -5.20536 0
M  V30 7637 C 716.685 -0.962396 -5.13357 0
M  V30 7638 H 718.379 -0.822574 -2.87879 0
M  V30 7639 H 715.925 -0.397011 -1.38419 0
M  V30 7640 H 717.878 1.34429 -3.99383 0
M  V30 7641 H 716.602 1.68387 -2.79845 0
M  V30 7642 H 715.261 -0.268551 -3.65615 0
M  V30 7643 H 714.909 2.01736 -4.60773 0
M  V30 7644 H 714.609 0.754038 -5.82742 0
M  V30 7645 H 716.133 1.68555 -5.86874 0
M  V30 7646 H 717.547 -0.579875 -5.7036 0
M  V30 7647 H 715.944 -1.35828 -5.84526 0
M  V30 7648 H 717.014 -1.80003 -4.50252 0
M  V30 7649 N 718.357 1.51182 -0.445186 0
M  V30 7650 C 719.585 2.06568 0.117091 0
M  V30 7651 C 720 1.31182 1.35781 0
M  V30 7652 O 719.357 0.373605 1.78635 0
M  V30 7653 C 719.408 3.58917 0.431408 0
M  V30 7654 O 719.129 4.31456 -0.760078 0
M  V30 7655 C 720.63 4.30843 1.0435 0
M  V30 7656 H 717.85 0.670985 0.00444436 0
M  V30 7657 H 720.394 1.94666 -0.626525 0
M  V30 7658 H 718.549 3.70708 1.12493 0
M  V30 7659 H 718.963 5.22215 -0.489048 0
M  V30 7660 H 720.437 5.38499 1.21337 0
M  V30 7661 H 720.914 3.89644 2.02667 0
M  V30 7662 H 721.52 4.23516 0.38913 0
M  V30 7663 O 719.874 0.317958 1.58339 0
M  V30 7664 H 720.565 -0.243085 1.92169 0
M  V30 END ATOM
M  V30 BEGIN BOND
M  V30 END BOND
M  V30 END CTAB
M  END
$$$$
