drugbank_target|Q9NZK7 Group IIE secretory phospholipase A2 (DB00233; DB01955; DB02448; DB02636; DB02758; DB02795; DB03585; DB04725; DB04743; DB06987; DB07500; DB07950; DB07958; DB08447; DB09462)
 OpenBabel12092120393D

  0  0  0     0  0            999 V3000
M  V30 BEGIN CTAB
M  V30 COUNTS 2208 2236 0 0 0
M  V30 BEGIN ATOM
M  V30 1 H -0.908 1.98254 -0.117106 0
M  V30 2 N 0 1.576 0 0
M  V30 3 C 0.933 2.03868 1.02534 0
M  V30 4 C 1.911 0.928543 1.3348 0
M  V30 5 O 3.095 1.19667 1.45644 0
M  V30 6 C 0.222 2.43627 2.35294 0
M  V30 7 C -0.732 3.65373 2.2001 0
M  V30 8 S 0.101 5.13292 1.52614 0
M  V30 9 C 1.257 5.56322 2.86805 0
M  V30 10 H 1.49 2.90518 0.631377 0
M  V30 11 H -0.977 1.52953 0.210867 0
M  V30 12 H 0.981 2.67203 3.11629 0
M  V30 13 H -0.358 1.57376 2.7183 0
M  V30 14 H -1.165 3.90944 3.18086 0
M  V30 15 H -1.563 3.418 1.51819 0
M  V30 16 H 0.729 5.58782 3.83104 0
M  V30 17 H 1.672 6.56266 2.65933 0
M  V30 18 H 2.08 4.83886 2.90714 0
M  V30 19 N 1.4781 -0.272755 1.55222 0
M  V30 20 C 2.4251 -1.33716 1.88119 0
M  V30 21 C 3.3951 -1.49066 0.73271 0
M  V30 22 O 4.5801 -1.63469 0.984002 0
M  V30 23 C 1.7201 -2.69238 2.15882 0
M  V30 24 C 0.8331 -2.62108 3.43399 0
M  V30 25 C -0.0319 -3.89811 3.60861 0
M  V30 26 C -0.9929 -3.77193 4.8207 0
M  V30 27 N -1.8559 -4.9673 4.96189 0
M  V30 28 H 2.9841 -1.04962 2.78903 0
M  V30 29 H 0.5211 -0.507088 1.38083 0
M  V30 30 H 2.4791 -3.48089 2.29978 0
M  V30 31 H 1.1091 -2.96194 1.28331 0
M  V30 32 H 0.1611 -1.74967 3.37773 0
M  V30 33 H 1.4731 -2.48685 4.32386 0
M  V30 34 H 0.6271 -4.77103 3.74777 0
M  V30 35 H -0.6339 -4.06102 2.7006 0
M  V30 36 H -1.6289 -2.88284 4.68159 0
M  V30 37 H -0.4039 -3.62421 5.74307 0
M  V30 38 H -2.4579 -5.13431 4.08319 0
M  V30 39 H -2.5409 -4.85839 5.79221 0
M  V30 40 H -1.2729 -5.85594 5.1449 0
M  V30 41 N 2.9562 -1.48159 -0.537278 0
M  V30 42 C 4.1812 -1.59707 -1.32319 0
M  V30 43 C 4.6062 -0.254859 -1.86365 0
M  V30 44 O 3.9642 0.772378 -1.64024 0
M  V30 45 C 4.0122 -2.6412 -2.45505 0
M  V30 46 O 3.1162 -2.20774 -3.48328 0
M  V30 47 H 2.4572 -0.535791 -0.392204 0
M  V30 48 H 4.9872 -1.94092 -0.647268 0
M  V30 49 H 4.9972 -2.85166 -2.91795 0
M  V30 50 H 3.6722 -3.61567 -2.05528 0
M  V30 51 H 2.2492 -2.09911 -3.08207 0
M  V30 52 N 4.4343 0.785586 -1.36625 0
M  V30 53 C 5.8453 1.36101 -1.27803 0
M  V30 54 C 6.1963 1.96035 0.0804875 0
M  V30 55 O 5.3213 1.92834 0.982042 0
M  V30 56 C 5.9163 2.47442 -2.31426 0
M  V30 57 C 4.4753 3.00789 -2.26281 0
M  V30 58 C 3.6223 1.73896 -2.15999 0
M  V30 59 H 6.5733 0.586928 -1.47448 0
M  V30 60 H 6.5943 3.2656 -1.95291 0
M  V30 61 H 6.1063 2.03791 -3.30289 0
M  V30 62 H 4.2073 3.48851 -1.30896 0
M  V30 63 H 4.3203 3.57343 -3.19128 0
M  V30 64 H 2.6843 1.9628 -1.62316 0
M  V30 65 H 3.4673 1.32368 -3.16755 0
M  V30 66 N 5.9124 1.20967 1.01018 0
M  V30 67 C 6.8624 0.93182 2.08089 0
M  V30 68 C 7.8464 -0.110898 1.60517 0
M  V30 69 O 9.0384 0.0973392 1.76732 0
M  V30 70 C 6.1674 0.492719 3.39746 0
M  V30 71 C 5.2534 1.56922 3.94 0
M  V30 72 N 5.6444 2.79312 4.21686 0
M  V30 73 C 3.9424 1.43688 4.2222 0
M  V30 74 C 4.6434 3.48797 4.65527 0
M  V30 75 N 3.6194 2.76224 4.68189 0
M  V30 76 H 7.4214 1.86175 2.27412 0
M  V30 77 H 4.9354 1.10463 1.19045 0
M  V30 78 H 6.9324 0.275044 4.15992 0
M  V30 79 H 5.5924 -0.430509 3.21833 0
M  V30 80 H 6.6034 3.15903 4.10397 0
M  V30 81 H 3.2804 0.578548 4.13472 0
M  V30 82 H 4.6704 4.53561 4.95714 0
M  V30 83 N 7.3905 -1.2043 1.01659 0
M  V30 84 C 8.6365 -1.90079 0.706963 0
M  V30 85 C 8.9695 -1.78648 -0.761474 0
M  V30 86 O 8.2445 -1.17069 -1.55323 0
M  V30 87 C 8.5275 -3.41469 1.14327 0
M  V30 88 C 8.3805 -3.61833 2.67201 0
M  V30 89 C 9.6995 -4.34261 0.714529 0
M  V30 90 H 6.8185 -0.690254 0.2583 0
M  V30 91 H 9.4605 -1.41826 1.26433 0
M  V30 92 H 7.6105 -3.82696 0.669056 0
M  V30 93 H 9.2825 -3.2986 3.22475 0
M  V30 94 H 7.5255 -3.05304 3.08175 0
M  V30 95 H 8.1965 -4.67955 2.92783 0
M  V30 96 H 10.6725 -4.00682 1.12221 0
M  V30 97 H 9.5485 -5.38806 1.04784 0
M  V30 98 H 9.8095 -4.40431 -0.383799 0
M  V30 99 N 8.8686 -0.792821 -1.36206 0
M  V30 100 C 9.7986 -0.207853 -2.32573 0
M  V30 101 C 10.7796 0.659055 -1.56813 0
M  V30 102 O 11.9646 0.592176 -1.84951 0
M  V30 103 C 9.0946 0.655449 -3.41059 0
M  V30 104 C 8.0486 -0.111842 -4.27854 0
M  V30 105 C 7.3746 0.872274 -5.27537 0
M  V30 106 C 8.6746 -1.30299 -5.05786 0
M  V30 107 H 10.3686 -1.01294 -2.81744 0
M  V30 108 H 7.9146 -0.48854 -1.3546 0
M  V30 109 H 9.8676 1.07464 -4.07467 0
M  V30 110 H 8.5916 1.49328 -2.90463 0
M  V30 111 H 7.2506 -0.512053 -3.63006 0
M  V30 112 H 6.8986 1.70523 -4.73214 0
M  V30 113 H 6.5986 0.363291 -5.86476 0
M  V30 114 H 8.1226 1.28996 -5.96818 0
M  V30 115 H 9.5366 -0.959379 -5.65216 0
M  V30 116 H 7.9336 -1.7455 -5.74154 0
M  V30 117 H 9.0036 -2.09663 -4.37229 0
M  V30 118 N 10.3467 1.47872 -0.545128 0
M  V30 119 C 11.5927 2.02793 -0.0166104 0
M  V30 120 C 11.9257 1.41987 1.32489 0
M  V30 121 O 11.2007 0.571045 1.85928 0
M  V30 122 C 11.4837 3.59989 0.0893294 0
M  V30 123 C 11.3367 4.3125 -1.27841 0
M  V30 124 C 12.6557 4.32606 0.808724 0
M  V30 125 H 9.7747 0.736962 -0.00751035 0
M  V30 126 H 12.4167 1.76433 -0.705085 0
M  V30 127 H 10.5667 3.82579 0.675681 0
M  V30 128 H 12.2387 4.20035 -1.90704 0
M  V30 129 H 10.4817 3.92076 -1.85632 0
M  V30 130 H 11.1527 5.39736 -1.15713 0
M  V30 131 H 13.6287 4.14936 0.310992 0
M  V30 132 H 12.5047 5.42251 0.851782 0
M  V30 133 H 12.7657 4.00963 1.86229 0
M  V30 134 N 11.8248 0.280983 1.55075 0
M  V30 135 C 13.0718 -0.334115 1.99725 0
M  V30 136 C 13.3998 -1.5542 1.1694 0
M  V30 137 O 12.6548 -1.94361 0.228531 0
M  V30 138 C 12.9538 -0.754656 3.49342 0
M  V30 139 C 12.6198 0.361445 4.49449 0
M  V30 140 C 11.2818 0.667893 4.76542 0
M  V30 141 C 13.6338 1.11322 5.09173 0
M  V30 142 C 10.9618 1.7296 5.60626 0
M  V30 143 C 13.3138 2.1647 5.9441 0
M  V30 144 C 11.9778 2.47742 6.19822 0
M  V30 145 H 11.2478 -0.122261 0.730844 0
M  V30 146 H 13.8948 0.395917 1.87363 0
M  V30 147 H 12.1998 -1.56446 3.5921 0
M  V30 148 H 13.8968 -1.24142 3.813 0
M  V30 149 H 10.4868 0.112481 4.28452 0
M  V30 150 H 14.6708 0.88973 4.8826 0
M  V30 151 H 9.9268 1.97684 5.78559 0
M  V30 152 H 14.1008 2.75193 6.3972 0
M  V30 153 H 11.7278 3.30145 6.84769 0
M  V30 154 N 13.3029 -1.57598 0.00835791 0
M  V30 155 C 14.2329 -2.1198 -0.979113 0
M  V30 156 C 15.2139 -1.03091 -1.35301 0
M  V30 157 O 16.3989 -1.30818 -1.43528 0
M  V30 158 C 13.5289 -2.62995 -2.26828 0
M  V30 159 C 12.4829 -3.76485 -2.03576 0
M  V30 160 C 11.8089 -4.13846 -3.38579 0
M  V30 161 C 13.1089 -5.0342 -1.39161 0
M  V30 162 H 14.8029 -2.94738 -0.526281 0
M  V30 163 H 12.3489 -1.41783 -0.251704 0
M  V30 164 H 14.3019 -2.99669 -2.96271 0
M  V30 165 H 13.0259 -1.7737 -2.7424 0
M  V30 166 H 11.6849 -3.40217 -1.36557 0
M  V30 167 H 11.3329 -3.25232 -3.83709 0
M  V30 168 H 11.0329 -4.90312 -3.23834 0
M  V30 169 H 12.5569 -4.53086 -4.09323 0
M  V30 170 H 13.9709 -5.37812 -1.98573 0
M  V30 171 H 12.3679 -5.84746 -1.34878 0
M  V30 172 H 13.4379 -4.83548 -0.361868 0
M  V30 173 N 14.781 0.264519 -1.55364 0
M  V30 174 C 16.021 1.00254 -1.78125 0
M  V30 175 C 16.385 1.83187 -0.575017 0
M  V30 176 O 17.586 2.60029 -0.681042 0
M  V30 177 C 15.857 1.85478 -3.05504 0
M  V30 178 S 17.416 2.6543 -3.49417 0
M  V30 179 H 14.234 0.337522 -0.625779 0
M  V30 180 H 16.836 0.272111 -1.93597 0
M  V30 181 H 15.54 1.23491 -3.9138 0
M  V30 182 H 15.071 2.62827 -2.92721 0
M  V30 183 H 17.086 3.87958 -3.09359 0
M  V30 184 N 16.2591 1.48442 0.529413 0
M  V30 185 C 17.1891 1.65902 1.64313 0
M  V30 186 C 18.1701 0.507897 1.6234 0
M  V30 187 O 19.3551 0.740503 1.79528 0
M  V30 188 C 16.4851 1.69911 3.02898 0
M  V30 189 C 15.4391 2.8453 3.19729 0
M  V30 190 C 14.7651 2.73629 4.59381 0
M  V30 191 C 16.0651 4.25821 3.02447 0
M  V30 192 H 17.7591 2.5914 1.49955 0
M  V30 193 H 15.3051 1.24709 0.719982 0
M  V30 194 H 17.2581 1.80715 3.80684 0
M  V30 195 H 15.9821 0.732524 3.18279 0
M  V30 196 H 14.6411 2.73283 2.44361 0
M  V30 197 H 14.2891 1.74938 4.71599 0
M  V30 198 H 13.9891 3.50541 4.71588 0
M  V30 199 H 15.5131 2.86401 5.39265 0
M  V30 200 H 16.9271 4.37898 3.70024 0
M  V30 201 H 15.3241 5.03735 3.26146 0
M  V30 202 H 16.3941 4.42244 1.98867 0
M  V30 203 N 17.7372 -0.778329 1.37039 0
M  V30 204 C 18.6672 -1.90546 1.34962 0
M  V30 205 C 19.6482 -1.68681 0.219274 0
M  V30 206 O 20.8332 -1.89634 0.418624 0
M  V30 207 C 17.9632 -3.27734 1.14925 0
M  V30 208 C 16.9172 -3.64147 2.24902 0
M  V30 209 C 16.2432 -4.99806 1.89996 0
M  V30 210 C 17.5432 -3.71579 3.67051 0
M  V30 211 H 19.2372 -1.92541 2.29277 0
M  V30 212 H 16.7832 -0.924948 1.10366 0
M  V30 213 H 18.7362 -4.06215 1.12104 0
M  V30 214 H 17.4602 -3.26154 0.170631 0
M  V30 215 H 16.1192 -2.8797 2.26868 0
M  V30 216 H 15.7672 -4.94759 0.906796 0
M  V30 217 H 15.4672 -5.25139 2.63634 0
M  V30 218 H 16.9912 -5.80694 1.88749 0
M  V30 219 H 18.4052 -4.40227 3.67251 0
M  V30 220 H 16.8022 -4.08405 4.39688 0
M  V30 221 H 17.8722 -2.72404 4.01154 0
M  V30 222 N 19.2153 -1.21501 -1.00376 0
M  V30 223 C 20.4613 -1.03452 -1.74429 0
M  V30 224 C 20.7943 0.430764 -1.89362 0
M  V30 225 O 20.0693 1.31962 -1.42886 0
M  V30 226 C 20.3523 -1.73375 -3.15615 0
M  V30 227 C 20.2053 -3.27431 -3.08397 0
M  V30 228 C 21.5243 -1.47732 -4.14564 0
M  V30 229 H 18.6433 -0.377226 -0.633143 0
M  V30 230 H 21.2853 -1.49693 -1.17013 0
M  V30 231 H 19.4353 -1.34064 -3.64636 0
M  V30 232 H 21.1073 -3.76119 -2.67081 0
M  V30 233 H 19.3503 -3.5767 -2.45468 0
M  V30 234 H 20.0213 -3.71524 -4.08258 0
M  V30 235 H 22.4973 -1.8186 -3.74254 0
M  V30 236 H 21.3733 -1.99169 -5.11491 0
M  V30 237 H 21.6343 -0.407589 -4.40217 0
M  V30 238 N 20.6934 1.19889 -1.02296 0
M  V30 239 C 21.6564 2.21116 -0.603351 0
M  V30 240 C 22.6564 1.5738 0.329884 0
M  V30 241 O 23.8464 1.73802 0.117702 0
M  V30 242 C 20.9784 3.40696 0.117992 0
M  V30 243 H 22.1714 2.59754 -1.49893 0
M  V30 244 H 19.7244 1.33463 -0.813468 0
M  V30 245 H 20.4594 3.07569 1.0282 0
M  V30 246 H 20.2444 3.88188 -0.552511 0
M  V30 247 H 21.7344 4.15692 0.398696 0
M  V30 248 N 22.1715 0.800033 1.35784 0
M  V30 249 C 23.1015 0.220184 2.3246 0
M  V30 250 C 24.0825 -0.65073 1.57161 0
M  V30 251 O 25.2675 -0.582359 1.85263 0
M  V30 252 C 22.3975 -0.637353 3.41402 0
M  V30 253 C 21.3515 0.134531 4.27789 0
M  V30 254 C 20.6775 -0.844285 5.27992 0
M  V30 255 C 21.9775 1.32979 5.05088 0
M  V30 256 H 23.6715 1.02787 2.81203 0
M  V30 257 H 21.2175 0.495717 1.35199 0
M  V30 258 H 23.1705 -1.05302 4.08031 0
M  V30 259 H 21.8945 -1.47785 2.91251 0
M  V30 260 H 20.5535 0.531296 3.6273 0
M  V30 261 H 20.2015 -1.68011 4.74111 0
M  V30 262 H 19.9015 -0.332184 5.8666 0
M  V30 263 H 21.4255 -1.2583 5.97494 0
M  V30 264 H 22.8395 0.98934 5.64699 0
M  V30 265 H 21.2365 1.77593 5.7322 0
M  V30 266 H 22.3065 2.11978 4.36111 0
M  V30 267 N 23.6496 -1.47581 0.552962 0
M  V30 268 C 24.8956 -2.02782 0.0273648 0
M  V30 269 C 25.2286 -1.42687 -1.31734 0
M  V30 270 O 24.5036 -0.580897 -1.85623 0
M  V30 271 C 24.7866 -3.60031 -0.0702371 0
M  V30 272 C 24.6396 -4.30566 1.30126 0
M  V30 273 C 25.9586 -4.33028 -0.785771 0
M  V30 274 H 23.0776 -0.736912 0.0114185 0
M  V30 275 H 25.7196 -1.76056 0.714432 0
M  V30 276 H 23.8696 -3.82932 -0.655382 0
M  V30 277 H 25.5416 -4.19018 1.92929 0
M  V30 278 H 23.7846 -3.91086 1.87709 0
M  V30 279 H 24.4556 -5.39114 1.18573 0
M  V30 280 H 26.9316 -4.15095 -0.288982 0
M  V30 281 H 25.8076 -5.42695 -0.823013 0
M  V30 282 H 26.0686 -4.01945 -1.841 0
M  V30 283 N 25.1277 -0.289203 -1.54924 0
M  V30 284 C 26.3557 0.326463 -2.04308 0
M  V30 285 C 26.7707 1.48413 -1.16701 0
M  V30 286 O 26.1277 1.81507 -0.190087 0
M  V30 287 C 26.1787 0.794014 -3.52672 0
M  V30 288 O 25.8997 -0.317564 -4.36948 0
M  V30 289 C 27.4007 1.47605 -4.18004 0
M  V30 290 H 24.6207 0.0726272 -0.667058 0
M  V30 291 H 27.1647 -0.425401 -2.00026 0
M  V30 292 H 25.3197 1.49593 -3.57352 0
M  V30 293 H 25.7337 0.0443186 -5.24481 0
M  V30 294 H 27.2077 1.75447 -5.23376 0
M  V30 295 H 27.6847 2.41224 -3.67025 0
M  V30 296 H 28.2907 0.81762 -4.17367 0
M  V30 297 N 26.6058 1.57591 -0.0167156 0
M  V30 298 C 27.8538 1.90906 0.663285 0
M  V30 299 C 28.1748 0.892509 1.73376 0
M  V30 300 O 27.4448 -0.0677623 1.95783 0
M  V30 301 H 26.0248 0.704637 0.247983 0
M  V30 302 H 28.6868 1.94803 -0.0615909 0
M  V30 303 H 27.7828 2.9116 1.12393 0
M  V30 304 N 28.0839 -0.256276 1.55502 0
M  V30 305 C 29.0319 -1.33694 1.90338 0
M  V30 306 C 30.0259 -1.50299 0.781441 0
M  V30 307 O 31.2319 -1.51885 0.965966 0
M  V30 308 H 27.6069 -0.447483 0.60437 0
M  V30 309 H 29.5779 -1.01574 2.8058 0
M  V30 310 C 28.3269 -2.68724 2.20642 0
M  V30 311 H 27.6499 -2.56743 3.06469 0
M  V30 312 H 29.0899 -3.43237 2.48926 0
M  V30 313 C 27.5489 -3.21101 1.01959 0
M  V30 314 O 28.0789 -4.0084 0.262762 0
M  V30 315 N 26.2849 -2.79003 0.812746 0
M  V30 316 H 25.8319 -2.14271 1.42989 0
M  V30 317 H 25.7899 -3.14393 0.0203076 0
M  V30 318 N 29.562 -1.4872 -0.521534 0
M  V30 319 C 30.492 -1.66771 -1.63431 0
M  V30 320 C 31.473 -0.516499 -1.62069 0
M  V30 321 O 32.658 -0.750013 -1.79132 0
M  V30 322 C 29.788 -1.71515 -3.01993 0
M  V30 323 C 28.742 -2.86222 -3.18216 0
M  V30 324 C 28.068 -2.76061 -4.57924 0
M  V30 325 C 29.368 -4.27419 -3.00184 0
M  V30 326 H 31.062 -2.59932 -1.48579 0
M  V30 327 H 28.608 -1.25089 -0.713358 0
M  V30 328 H 30.561 -1.82731 -3.7972 0
M  V30 329 H 29.285 -0.749393 -3.17886 0
M  V30 330 H 27.944 -2.74575 -2.42908 0
M  V30 331 H 27.592 -1.77437 -4.70665 0
M  V30 332 H 27.292 -3.53037 -4.69722 0
M  V30 333 H 28.816 -2.89256 -5.37739 0
M  V30 334 H 30.23 -4.39855 -3.67697 0
M  V30 335 H 28.627 -5.05458 -3.2347 0
M  V30 336 H 29.697 -4.43293 -1.96518 0
M  V30 337 N 31.0401 0.771051 -1.3745 0
M  V30 338 C 32.2861 1.5319 -1.32894 0
M  V30 339 C 32.6191 1.94008 0.0862511 0
M  V30 340 O 31.8941 1.64124 1.04373 0
M  V30 341 C 32.1771 2.79648 -2.26868 0
M  V30 342 C 32.0301 2.45079 -3.77169 0
M  V30 343 C 33.3491 3.81583 -2.19277 0
M  V30 344 H 30.4681 0.555744 -0.484064 0
M  V30 345 H 33.1101 0.884492 -1.68157 0
M  V30 346 H 31.2601 3.34891 -1.96926 0
M  V30 347 H 32.9321 1.95745 -4.1771 0
M  V30 348 H 31.1751 1.77767 -3.95704 0
M  V30 349 H 31.8461 3.35478 -4.38359 0
M  V30 350 H 34.3221 3.35835 -2.45671 0
M  V30 351 H 33.1981 4.67787 -2.87171 0
M  V30 352 H 33.4591 4.25897 -1.18592 0
M  V30 353 N 32.5182 1.22032 0.997298 0
M  V30 354 C 33.4502 0.944263 2.08845 0
M  V30 355 C 34.4632 -0.0754663 1.62625 0
M  V30 356 O 35.6522 0.157994 1.77799 0
M  V30 357 C 32.7522 0.397723 3.36558 0
M  V30 358 C 31.9252 1.47362 4.11829 0
M  V30 359 C 30.9842 0.934951 5.17827 0
M  V30 360 O 30.0102 1.62016 5.45655 0
M  V30 361 N 31.2122 -0.245895 5.79979 0
M  V30 362 H 33.9772 1.88363 2.33109 0
M  V30 363 H 31.5382 1.12661 1.16272 0
M  V30 364 H 33.5302 0.0227771 4.04694 0
M  V30 365 H 32.1002 -0.446646 3.09393 0
M  V30 366 H 31.3202 2.02208 3.38386 0
M  V30 367 H 32.6082 2.19764 4.58891 0
M  V30 368 H 32.0062 -0.819475 5.59733 0
M  V30 369 H 30.5632 -0.562272 6.4937 0
M  V30 370 N 33.9963 -1.19345 1.0293 0
M  V30 371 C 35.2433 -1.89038 0.726008 0
M  V30 372 C 35.5713 -1.79649 -0.745427 0
M  V30 373 O 34.8263 -1.18354 -1.55855 0
M  V30 374 C 35.1253 -3.39292 1.12319 0
M  V30 375 C 34.7913 -3.68885 2.59297 0
M  V30 376 C 33.4533 -3.76671 2.99453 0
M  V30 377 C 35.8053 -3.82178 3.54386 0
M  V30 378 C 33.1333 -3.9522 4.33611 0
M  V30 379 C 35.4853 -4.0224 4.88248 0
M  V30 380 C 34.1493 -4.08259 5.28092 0
M  V30 381 H 33.4193 -0.691739 0.265665 0
M  V30 382 H 36.0663 -1.41328 1.29223 0
M  V30 383 H 34.3713 -3.88903 0.475584 0
M  V30 384 H 36.0683 -3.91536 0.866037 0
M  V30 385 H 32.6583 -3.63433 2.27189 0
M  V30 386 H 36.8423 -3.75505 3.24514 0
M  V30 387 H 32.0983 -3.98119 4.64016 0
M  V30 388 H 36.2723 -4.11468 5.61843 0
M  V30 389 H 33.8993 -4.22384 6.32057 0
M  V30 390 N 35.4744 -0.807222 -1.35358 0
M  V30 391 C 36.7224 -0.387122 -1.98358 0
M  V30 392 C 37.0434 1.04942 -1.64354 0
M  V30 393 O 36.3134 1.72615 -0.926339 0
M  V30 394 H 34.8934 -0.140154 -0.733734 0
M  V30 395 H 37.5554 -1.0332 -1.6526 0
M  V30 396 H 36.6514 -0.493352 -3.08176 0
M  V30 397 N 36.9525 1.47285 -0.560781 0
M  V30 398 C 38.1985 2.02764 -0.0381184 0
M  V30 399 C 38.5315 1.43384 1.30976 0
M  V30 400 O 37.8065 0.590733 1.85312 0
M  V30 401 C 38.0895 3.60064 0.0511427 0
M  V30 402 C 37.9425 4.2987 -1.32408 0
M  V30 403 C 39.2615 4.33439 0.762795 0
M  V30 404 H 36.3805 0.736841 -0.0153264 0
M  V30 405 H 39.0225 1.75675 -0.723759 0
M  V30 406 H 37.1725 3.83274 0.635065 0
M  V30 407 H 38.8445 4.17989 -1.95148 0
M  V30 408 H 37.0875 3.90085 -1.8978 0
M  V30 409 H 37.7585 5.38478 -1.21431 0
M  V30 410 H 40.2345 4.15243 0.266965 0
M  V30 411 H 39.1105 5.43124 0.794221 0
M  V30 412 H 39.3715 4.02915 1.81966 0
M  V30 413 N 38.4306 0.297415 1.54768 0
M  V30 414 C 39.3636 -0.622188 2.19554 0
M  V30 415 C 40.3416 -1.13558 1.16376 0
M  V30 416 O 41.5256 -1.20444 1.45002 0
M  V30 417 C 38.6526 -1.8509 2.83653 0
M  V30 418 C 37.6986 -1.47106 4.00328 0
M  V30 419 S 38.5316 -0.53006 5.3287 0
M  V30 420 C 39.6876 -1.76665 6.0045 0
M  V30 421 H 39.9206 -0.0717806 2.97213 0
M  V30 422 H 37.4536 0.0815678 1.54184 0
M  V30 423 H 39.4116 -2.55605 3.21211 0
M  V30 424 H 38.0726 -2.37247 2.05846 0
M  V30 425 H 37.2656 -2.38594 4.43947 0
M  V30 426 H 36.8676 -0.845885 3.64309 0
M  V30 427 H 39.1596 -2.7077 6.21039 0
M  V30 428 H 40.1026 -1.37308 6.9466 0
M  V30 429 H 40.5106 -1.94174 5.30054 0
M  V30 430 N 39.9087 -1.5758 0.0250728 0
M  V30 431 C 41.1577 -1.90811 -0.653767 0
M  V30 432 C 41.4707 -0.90273 -1.73523 0
M  V30 433 O 42.6767 -1.12614 -2.47043 0
M  V30 434 C 41.1327 -3.38804 -1.21409 0
M  V30 435 C 40.7407 -4.47692 -0.166126 0
M  V30 436 C 42.4847 -3.81108 -1.86967 0
M  V30 437 C 40.3917 -5.86779 -0.737856 0
M  V30 438 H 39.3217 -0.712063 -0.247956 0
M  V30 439 H 41.9727 -1.83281 0.0897137 0
M  V30 440 H 40.3547 -3.41252 -2.00905 0
M  V30 441 H 41.5287 -4.56797 0.606079 0
M  V30 442 H 39.8437 -4.14565 0.390466 0
M  V30 443 H 42.4407 -4.82375 -2.30692 0
M  V30 444 H 42.7837 -3.15953 -2.71071 0
M  V30 445 H 43.3167 -3.81065 -1.14167 0
M  V30 446 H 40.0557 -6.55468 0.0649577 0
M  V30 447 H 39.5757 -5.81288 -1.47864 0
M  V30 448 H 41.2547 -6.35223 -1.22884 0
M  V30 449 N 41.3868 0.248026 -1.55636 0
M  V30 450 C 42.2968 1.32859 -1.93354 0
M  V30 451 C 43.3128 1.52719 -0.833838 0
M  V30 452 O 44.4888 1.66363 -1.13513 0
M  V30 453 C 41.5538 2.66337 -2.21958 0
M  V30 454 C 40.6148 2.55008 -3.45354 0
M  V30 455 C 39.8478 3.82121 -3.72584 0
M  V30 456 O 40.0708 4.83951 -3.01907 0
M  V30 457 O 39.0048 3.80822 -4.6611 0
M  V30 458 H 42.8308 1.03862 -2.85388 0
M  V30 459 H 40.4158 0.448686 -1.42503 0
M  V30 460 H 42.2978 3.45216 -2.4167 0
M  V30 461 H 40.9728 2.95068 -1.33103 0
M  V30 462 H 39.8798 1.7442 -3.30951 0
M  V30 463 H 41.2128 2.31222 -4.34508 0
M  V30 464 N 42.8649 1.48995 0.513639 0
M  V30 465 C 43.8119 1.6473 1.61656 0
M  V30 466 C 44.7819 0.488984 1.58739 0
M  V30 467 O 45.9669 0.714478 1.76918 0
M  V30 468 C 43.1069 1.7082 2.99858 0
M  V30 469 C 42.2199 2.9787 3.12885 0
M  V30 470 C 41.3549 2.95017 4.41744 0
M  V30 471 C 40.3939 4.16702 4.48359 0
M  V30 472 N 39.5309 4.11832 5.68629 0
M  V30 473 H 44.3709 2.58909 1.47547 0
M  V30 474 H 41.9079 1.28382 0.71808 0
M  V30 475 H 43.8659 1.72331 3.79944 0
M  V30 476 H 42.4959 0.801181 3.12699 0
M  V30 477 H 41.5479 3.06029 2.25944 0
M  V30 478 H 42.8599 3.8786 3.13633 0
M  V30 479 H 42.0139 2.95021 5.30139 0
M  V30 480 H 40.7529 2.02784 4.43542 0
M  V30 481 H 39.7579 4.16955 3.58369 0
M  V30 482 H 40.9829 5.10113 4.48287 0
M  V30 483 H 38.9289 3.22428 5.71293 0
M  V30 484 H 38.8459 4.95543 5.7094 0
M  V30 485 H 40.1139 4.1592 6.59266 0
M  V30 486 N 44.343 -0.763751 1.37857 0
M  V30 487 C 45.276 -1.88486 1.28639 0
M  V30 488 C 46.254 -1.61757 0.165363 0
M  V30 489 O 47.438 -1.85391 0.340948 0
M  V30 490 C 44.565 -3.23884 0.990811 0
M  V30 491 C 43.611 -3.69514 2.12983 0
M  V30 492 S 44.444 -3.82244 3.75033 0
M  V30 493 C 45.6 -5.20477 3.47641 0
M  V30 494 H 45.833 -1.96017 2.23527 0
M  V30 495 H 43.366 -0.925684 1.23574 0
M  V30 496 H 45.324 -4.02081 0.827101 0
M  V30 497 H 43.985 -3.14044 0.0592832 0
M  V30 498 H 43.178 -4.67696 1.87821 0
M  V30 499 H 42.78 -2.98441 2.25408 0
M  V30 500 H 45.072 -6.05905 3.03125 0
M  V30 501 H 46.015 -5.50655 4.4518 0
M  V30 502 H 46.423 -4.88793 2.82385 0
M  V30 503 N 45.8211 -1.22559 -0.990812 0
M  V30 504 C 47.0491 -1.07779 -1.76611 0
M  V30 505 C 47.4641 0.371513 -1.85109 0
M  V30 506 O 46.8211 1.25737 -1.32274 0
M  V30 507 C 46.8721 -1.68512 -3.19822 0
M  V30 508 O 46.5931 -3.07774 -3.1178 0
M  V30 509 C 48.0941 -1.59035 -4.13791 0
M  V30 510 H 45.3141 -0.377729 -0.554583 0
M  V30 511 H 47.8581 -1.62195 -1.24551 0
M  V30 512 H 46.0131 -1.18154 -3.68942 0
M  V30 513 H 46.4271 -3.37062 -4.01858 0
M  V30 514 H 47.9011 -2.0625 -5.1202 0
M  V30 515 H 48.3781 -0.547273 -4.35777 0
M  V30 516 H 48.9841 -2.08709 -3.70568 0
M  V30 517 N 47.2992 1.18797 -1.03562 0
M  V30 518 C 48.5472 1.88278 -0.734569 0
M  V30 519 C 48.8682 1.8043 0.739586 0
M  V30 520 O 48.1382 1.21925 1.53333 0
M  V30 521 H 46.7182 0.696991 -0.268725 0
M  V30 522 H 49.3802 1.44192 -1.31129 0
M  V30 523 H 48.4762 2.94443 -1.03489 0
M  V30 524 N 48.7773 0.814389 1.34928 0
M  V30 525 C 49.7243 0.22822 2.29669 0
M  V30 526 C 50.6943 -0.642164 1.53184 0
M  V30 527 O 51.8793 -0.585605 1.81591 0
M  V30 528 C 49.0193 -0.61089 3.3965 0
M  V30 529 C 48.1323 0.280792 4.31086 0
M  V30 530 C 47.2673 -0.567067 5.28165 0
M  V30 531 C 46.3063 0.324531 6.11239 0
M  V30 532 N 45.4433 -0.483756 7.00431 0
M  V30 533 H 50.2833 1.04153 2.79206 0
M  V30 534 H 47.8203 0.525133 1.37407 0
M  V30 535 H 49.7783 -1.11263 4.0209 0
M  V30 536 H 48.4083 -1.38939 2.91369 0
M  V30 537 H 47.4603 0.900688 3.69583 0
M  V30 538 H 48.7723 0.966723 4.89342 0
M  V30 539 H 47.9263 -1.13363 5.96015 0
M  V30 540 H 46.6653 -1.28654 4.70425 0
M  V30 541 H 45.6703 0.903298 5.42329 0
M  V30 542 H 46.8953 1.04198 6.71059 0
M  V30 543 H 44.8413 -1.18706 6.45171 0
M  V30 544 H 44.7583 0.143965 7.55863 0
M  V30 545 H 46.0263 -1.03334 7.7262 0
M  V30 546 N 50.2554 -1.46986 0.568584 0
M  V30 547 C 51.4804 -2.07335 0.0520528 0
M  V30 548 C 51.9054 -1.41675 -1.23733 0
M  V30 549 O 51.2634 -0.495623 -1.74394 0
M  V30 550 C 51.3114 -3.60417 -0.11501 0
M  V30 551 O 50.4154 -3.95309 -1.17492 0
M  V30 552 H 49.7564 -0.661597 0.0564385 0
M  V30 553 H 52.2864 -1.88837 0.787507 0
M  V30 554 H 52.2964 -4.06698 -0.325644 0
M  V30 555 H 50.9714 -4.07601 0.826675 0
M  V30 556 H 49.5484 -3.60757 -0.943869 0
M  V30 557 N 51.7335 -0.305618 -1.54608 0
M  V30 558 C 52.6965 0.555591 -2.22364 0
M  V30 559 C 53.6965 1.05768 -1.21119 0
M  V30 560 O 54.8865 0.952972 -1.45822 0
M  V30 561 C 52.0185 1.76974 -2.91364 0
M  V30 562 H 53.2115 -0.0364572 -2.99878 0
M  V30 563 H 50.7645 -0.0565007 -1.56198 0
M  V30 564 H 51.4995 2.40151 -2.17941 0
M  V30 565 H 51.2845 1.41732 -3.65588 0
M  V30 566 H 52.7745 2.38148 -3.43038 0
M  V30 567 N 53.2116 1.57565 -0.0334293 0
M  V30 568 C 54.1416 2.13511 0.945265 0
M  V30 569 C 55.1226 1.05231 1.33643 0
M  V30 570 O 56.3076 1.33084 1.41429 0
M  V30 571 C 53.4376 2.6657 2.22616 0
M  V30 572 C 52.3916 3.79676 1.97561 0
M  V30 573 C 51.7176 4.1918 3.31952 0
M  V30 574 C 53.0176 5.0557 1.31135 0
M  V30 575 H 54.7116 2.95538 0.479325 0
M  V30 576 H 52.2576 1.42166 0.229115 0
M  V30 577 H 54.2106 3.04344 2.91466 0
M  V30 578 H 52.9346 1.8171 2.71384 0
M  V30 579 H 51.5936 3.42347 1.31127 0
M  V30 580 H 51.2416 3.31296 3.78487 0
M  V30 581 H 50.9416 4.95402 3.15992 0
M  V30 582 H 52.4656 4.59541 4.02063 0
M  V30 583 H 53.8796 5.40903 1.89992 0
M  V30 584 H 52.2766 5.86818 1.25559 0
M  V30 585 H 53.3466 4.84062 0.284894 0
M  V30 586 N 54.6897 -0.239769 1.55765 0
M  V30 587 C 55.6217 -1.32001 1.87372 0
M  V30 588 C 56.6347 -1.43944 0.760522 0
M  V30 589 O 57.8237 -1.45167 1.0387 0
M  V30 590 C 54.9237 -2.69779 2.05115 0
M  V30 591 C 54.0967 -2.80014 3.36022 0
M  V30 592 C 53.1557 -3.98684 3.4342 0
M  V30 593 O 52.1817 -3.87877 4.16582 0
M  V30 594 N 53.3837 -5.12176 2.73232 0
M  V30 595 H 56.1487 -1.0522 2.80622 0
M  V30 596 H 53.7097 -0.429857 1.56089 0
M  V30 597 H 55.7017 -3.47517 2.07399 0
M  V30 598 H 54.2717 -2.89237 1.18577 0
M  V30 599 H 53.4917 -1.88896 3.45994 0
M  V30 600 H 54.7797 -2.83808 4.22292 0
M  V30 601 H 54.1777 -5.2385 2.13536 0
M  V30 602 H 52.7347 -5.88022 2.81199 0
M  V30 603 N 56.1678 -1.49265 -0.50573 0
M  V30 604 C 57.3978 -1.61979 -1.28243 0
M  V30 605 C 57.8058 -0.288576 -1.86986 0
M  V30 606 O 57.1488 0.735408 -1.68337 0
M  V30 607 C 57.2108 -2.62632 -2.45489 0
M  V30 608 C 56.8748 -4.071 -2.07651 0
M  V30 609 C 57.8718 -4.94049 -1.61901 0
M  V30 610 C 55.5568 -4.52801 -2.17431 0
M  V30 611 C 57.5508 -6.24736 -1.26428 0
M  V30 612 C 55.2378 -5.83503 -1.8157 0
M  V30 613 C 56.2358 -6.69294 -1.36142 0
M  V30 614 O 55.9238 -7.9756 -1.00764 0
M  V30 615 H 55.6558 -0.54834 -0.395347 0
M  V30 616 H 58.2098 -1.96002 -0.614204 0
M  V30 617 H 56.4398 -2.2378 -3.15372 0
M  V30 618 H 58.1288 -2.64925 -3.07522 0
M  V30 619 H 58.8948 -4.5997 -1.53795 0
M  V30 620 H 54.7738 -3.86196 -2.51742 0
M  V30 621 H 58.3178 -6.91652 -0.908992 0
M  V30 622 H 54.2148 -6.17112 -1.89324 0
M  V30 623 H 54.9828 -8.10529 -1.13952 0
M  V30 624 N 57.6459 0.756429 -1.3826 0
M  V30 625 C 58.5939 1.89149 -1.35372 0
M  V30 626 C 59.5879 1.67691 -0.24004 0
M  V30 627 O 60.7939 1.75294 -0.408919 0
M  V30 628 H 57.1689 0.622271 -0.422236 0
M  V30 629 H 59.1399 1.88701 -2.31159 0
M  V30 630 C 57.8889 3.26599 -1.19284 0
M  V30 631 H 57.2119 3.43695 -2.0424 0
M  V30 632 H 58.6519 4.06274 -1.21316 0
M  V30 633 C 57.1109 3.3675 0.100454 0
M  V30 634 O 57.6409 3.86951 1.07851 0
M  V30 635 N 55.8469 2.90179 0.15633 0
M  V30 636 H 55.3939 2.49517 -0.640253 0
M  V30 637 H 55.3519 2.97352 1.02123 0
M  V30 638 N 59.124 1.23083 0.984299 0
M  V30 639 C 60.401 0.9689 1.69917 0
M  V30 640 C 60.781 -0.513604 2.04757 0
M  V30 641 O 60.129 -1.48383 1.73767 0
M  V30 642 C 60.339 1.87518 2.94343 0
M  V30 643 C 61.687 2.13636 3.6694 0
M  V30 644 O 62.711 1.85036 3.04368 0
M  V30 645 O 61.57 2.62119 4.79537 0
M  V30 646 H 58.664 0.365095 0.742048 0
M  V30 647 H 61.21 1.34107 1.03987 0
M  V30 648 H 59.982 2.87756 2.65164 0
M  V30 649 H 59.605 1.50514 3.6801 0
M  V30 650 N 60.6021 -1.18246 1.0419 0
M  V30 651 C 61.8321 -1.91916 0.764961 0
M  V30 652 C 62.2401 -1.76485 -0.681898 0
M  V30 653 O 61.5831 -1.09275 -1.47664 0
M  V30 654 C 61.6451 -3.4373 1.05309 0
M  V30 655 C 61.3091 -3.8294 2.4941 0
M  V30 656 C 62.3061 -3.86621 3.47592 0
M  V30 657 C 59.9911 -4.142 2.84155 0
M  V30 658 C 61.9851 -4.21013 4.78568 0
M  V30 659 C 59.6721 -4.48262 4.15337 0
M  V30 660 C 60.6701 -4.51645 5.12353 0
M  V30 661 O 60.3581 -4.84911 6.41183 0
M  V30 662 H 60.0901 -0.61606 0.278292 0
M  V30 663 H 62.6441 -1.50947 1.39299 0
M  V30 664 H 60.8741 -3.84946 0.367933 0
M  V30 665 H 62.5631 -3.9865 0.763752 0
M  V30 666 H 63.3291 -3.62607 3.22089 0
M  V30 667 H 59.2081 -4.10743 2.09311 0
M  V30 668 H 62.7521 -4.23568 5.54289 0
M  V30 669 H 58.6491 -4.71737 4.40607 0
M  V30 670 H 59.4171 -5.02809 6.45852 0
M  V30 671 N 62.0802 -0.821533 -1.34494 0
M  V30 672 C 63.3282 -0.408139 -1.97936 0
M  V30 673 C 63.6492 1.03193 -1.65457 0
M  V30 674 O 62.9192 1.71622 -0.944595 0
M  V30 675 H 61.4992 -0.147928 -0.732206 0
M  V30 676 H 64.1612 -1.05067 -1.64155 0
M  V30 677 H 63.2572 -0.52601 -3.07635 0
M  V30 678 N 63.5583 1.46682 -0.576371 0
M  V30 679 C 64.7983 2.04306 -0.0621356 0
M  V30 680 C 65.1623 1.4389 1.2712 0
M  V30 681 O 66.3633 1.92675 1.87429 0
M  V30 682 C 64.6343 3.57399 0.00927922 0
M  V30 683 S 66.1933 4.36309 0.466859 0
M  V30 684 H 63.0113 0.710167 -0.0344016 0
M  V30 685 H 65.6133 1.79807 -0.767437 0
M  V30 686 H 64.3173 3.98889 -0.965178 0
M  V30 687 H 63.8483 3.86424 0.737547 0
M  V30 688 H 65.8633 4.6533 1.72287 0
M  V30 689 N 65.0364 0.313813 1.54444 0
M  V30 690 C 66.2664 -0.293491 2.04505 0
M  V30 691 C 66.6744 -1.47086 1.19005 0
M  V30 692 O 66.0174 -1.82481 0.211257 0
M  V30 693 C 66.0794 -0.800455 3.50475 0
M  V30 694 C 65.7434 0.253322 4.56297 0
M  V30 695 C 66.7404 1.08612 5.08428 0
M  V30 696 C 64.4254 0.398708 5.00715 0
M  V30 697 C 66.4194 2.05013 6.0353 0
M  V30 698 C 64.1064 1.36614 5.95634 0
M  V30 699 C 65.1044 2.19033 6.46926 0
M  V30 700 O 64.7924 3.14134 7.39983 0
M  V30 701 H 64.5244 -0.0658325 0.672787 0
M  V30 702 H 67.0784 0.455177 2.00293 0
M  V30 703 H 65.3084 -1.59987 3.52053 0
M  V30 704 H 66.9974 -1.32504 3.83663 0
M  V30 705 H 67.7634 0.984736 4.74898 0
M  V30 706 H 63.6424 -0.23289 4.60411 0
M  V30 707 H 67.1864 2.69382 6.4349 0
M  V30 708 H 63.0834 1.4682 6.28581 0
M  V30 709 H 63.8514 3.0926 7.57826 0
M  V30 710 N 66.5145 -1.57545 0.0417849 0
M  V30 711 C 67.7545 -1.94185 -0.63809 0
M  V30 712 C 68.1185 -0.919339 -1.68559 0
M  V30 713 O 69.3195 -1.17236 -2.41886 0
M  V30 714 C 67.5905 -3.35672 -1.22714 0
M  V30 715 S 69.1495 -3.94256 -1.92633 0
M  V30 716 H 65.9675 -0.679353 -0.209764 0
M  V30 717 H 68.5695 -1.95199 0.108479 0
M  V30 718 H 67.2735 -4.07898 -0.452503 0
M  V30 719 H 66.8045 -3.38132 -2.01073 0
M  V30 720 H 68.8195 -3.7872 -3.20602 0
M  V30 721 N 67.9926 0.231505 -1.5589 0
M  V30 722 C 69.2406 0.955461 -1.78088 0
M  V30 723 C 69.5616 1.85262 -0.608533 0
M  V30 724 O 68.8316 1.92277 0.375035 0
M  V30 725 H 67.4116 0.355787 -0.656829 0
M  V30 726 H 70.0736 0.245751 -1.93344 0
M  V30 727 H 69.1696 1.56814 -2.69844 0
M  V30 728 N 69.4707 1.49531 0.497807 0
M  V30 729 C 70.7197 1.58426 1.24837 0
M  V30 730 C 71.0327 0.277643 1.93619 0
M  V30 731 O 72.2387 0.24517 2.70391 0
M  V30 732 C 70.6947 2.79538 2.26686 0
M  V30 733 C 70.3027 4.16971 1.63828 0
M  V30 734 C 72.0467 2.97764 3.0255 0
M  V30 735 C 69.9537 5.29301 2.63807 0
M  V30 736 H 68.8837 0.58989 0.469623 0
M  V30 737 H 71.5347 1.75923 0.521857 0
M  V30 738 H 69.9167 2.55542 3.02514 0
M  V30 739 H 71.0907 4.51116 0.939711 0
M  V30 740 H 69.4057 4.04129 1.00342 0
M  V30 741 H 72.0027 3.78856 3.77323 0
M  V30 742 H 72.3457 2.08448 3.60354 0
M  V30 743 H 72.8787 3.21815 2.33838 0
M  V30 744 H 69.6177 6.20687 2.10779 0
M  V30 745 H 69.1377 4.99606 3.31894 0
M  V30 746 H 70.8167 5.58768 3.2617 0
M  V30 747 N 70.9488 -0.749086 1.3866 0
M  V30 748 C 72.1968 -1.50535 1.34847 0
M  V30 749 C 72.5178 -1.94909 -0.0595016 0
M  V30 750 O 71.7878 -1.67973 -1.00806 0
M  V30 751 H 70.3678 -0.558395 0.49619 0
M  V30 752 H 73.0298 -0.890165 1.73384 0
M  V30 753 H 72.1258 -2.39413 2.00219 0
M  V30 754 N 72.4269 -1.23603 -0.977757 0
M  V30 755 C 73.6749 -1.06759 -1.71601 0
M  V30 756 C 73.9959 0.395929 -1.90938 0
M  V30 757 O 73.2659 1.28356 -1.47992 0
M  V30 758 H 71.8459 -0.392062 -0.635843 0
M  V30 759 H 74.5079 -1.55362 -1.1768 0
M  V30 760 H 73.6039 -1.55763 -2.70452 0
M  V30 761 N 73.905 1.17692 -1.04816 0
M  V30 762 C 75.13 1.92327 -0.776207 0
M  V30 763 C 75.555 1.76082 0.661581 0
M  V30 764 O 74.913 1.076 1.45917 0
M  V30 765 C 74.961 3.41539 -1.15687 0
M  V30 766 O 74.065 4.11402 -0.286775 0
M  V30 767 H 73.406 0.599735 -0.284981 0
M  V30 768 H 75.936 1.49201 -1.4 0
M  V30 769 H 75.946 3.92269 -1.12202 0
M  V30 770 H 74.621 3.52684 -2.20425 0
M  V30 771 H 73.198 3.70939 -0.381903 0
M  V30 772 N 75.3831 0.828654 1.34056 0
M  V30 773 C 76.3331 0.226828 2.26869 0
M  V30 774 C 77.3171 -0.612243 1.48796 0
M  V30 775 O 78.5091 -0.465884 1.70759 0
M  V30 776 C 75.6381 -0.605654 3.37915 0
M  V30 777 C 74.7241 0.244361 4.23395 0
M  V30 778 N 75.1151 1.31815 4.88322 0
M  V30 779 C 73.4131 0.0296616 4.4599 0
M  V30 780 C 74.1141 1.83895 5.51867 0
M  V30 781 N 73.0901 1.14196 5.3147 0
M  V30 782 H 76.8921 1.04811 2.74576 0
M  V30 783 H 74.4061 0.67205 1.47842 0
M  V30 784 H 76.4031 -1.05302 4.03382 0
M  V30 785 H 75.0631 -1.42504 2.91758 0
M  V30 786 H 76.0741 1.70099 4.8917 0
M  V30 787 H 72.7511 -0.757097 4.10578 0
M  V30 788 H 74.1411 2.7376 6.136 0
M  V30 789 N 76.8612 -1.46375 0.584142 0
M  V30 790 C 78.1072 -2.03248 0.0787103 0
M  V30 791 C 78.4622 -1.44737 -1.26763 0
M  V30 792 O 77.7552 -0.603625 -1.81843 0
M  V30 793 C 77.9492 -3.57373 -0.0439342 0
M  V30 794 C 77.7782 -4.30831 1.28897 0
M  V30 795 C 76.5482 -4.69683 1.8635 0
M  V30 796 C 78.7462 -4.64278 2.21248 0
M  V30 797 N 76.7282 -5.27898 3.13365 0
M  V30 798 C 78.0992 -5.23078 3.32851 0
M  V30 799 C 80.1542 -4.46209 2.20911 0
M  V30 800 C 78.8572 -5.65715 4.44251 0
M  V30 801 C 80.8832 -4.89864 3.31341 0
M  V30 802 C 80.2452 -5.48736 4.41665 0
M  V30 803 H 76.3442 -0.778714 0.0716144 0
M  V30 804 H 78.9282 -1.78509 0.777355 0
M  V30 805 H 77.0992 -3.81823 -0.711749 0
M  V30 806 H 78.8312 -4.00892 -0.553881 0
M  V30 807 H 75.5862 -4.52488 1.39826 0
M  V30 808 H 76.0102 -5.61525 3.78178 0
M  V30 809 H 80.6522 -4.00027 1.36888 0
M  V30 810 H 78.3702 -6.10875 5.29015 0
M  V30 811 H 81.9562 -4.77634 3.322 0
M  V30 812 H 80.8362 -5.81898 5.25704 0
M  V30 813 N 78.3393 -0.321999 -1.54275 0
M  V30 814 C 79.7503 0.166384 -1.85957 0
M  V30 815 C 80.1013 1.51747 -1.24367 0
M  V30 816 O 79.2263 2.09317 -0.549124 0
M  V30 817 C 79.8213 0.308681 -3.37391 0
M  V30 818 C 78.3803 0.741286 -3.69028 0
M  V30 819 C 77.5273 -0.137937 -2.76957 0
M  V30 820 H 80.4783 -0.542335 -1.49146 0
M  V30 821 H 80.4993 1.13984 -3.63026 0
M  V30 822 H 80.0113 -0.674809 -3.82188 0
M  V30 823 H 78.1123 1.73458 -3.29762 0
M  V30 824 H 78.2253 0.546118 -4.75977 0
M  V30 825 H 76.5893 0.386251 -2.51754 0
M  V30 826 H 77.3723 -1.11816 -3.2458 0
M  V30 827 N 79.8174 1.5752 -0.0501392 0
M  V30 828 C 81.0634 1.92936 0.624798 0
M  V30 829 C 81.3964 0.928685 1.70555 0
M  V30 830 O 80.6714 -0.0454779 1.94447 0
M  V30 831 C 80.9544 3.38737 1.22185 0
M  V30 832 C 80.8074 4.49552 0.149218 0
M  V30 833 C 82.1264 3.84913 2.13378 0
M  V30 834 H 79.2454 0.701604 0.225657 0
M  V30 835 H 81.8874 1.89671 -0.111693 0
M  V30 836 H 80.0374 3.4165 1.84953 0
M  V30 837 H 81.7094 4.58768 -0.482648 0
M  V30 838 H 79.9524 4.30638 -0.522841 0
M  V30 839 H 80.6234 5.48653 0.606966 0
M  V30 840 H 83.0994 3.8387 1.60572 0
M  V30 841 H 81.9754 4.87584 2.52097 0
M  V30 842 H 82.2364 3.21611 3.03346 0
M  V30 843 N 81.2955 -0.223234 1.56011 0
M  V30 844 C 82.5725 -0.972108 1.69733 0
M  V30 845 C 82.9525 -2.02485 0.59691 0
M  V30 846 O 82.3005 -2.25037 -0.396324 0
M  V30 847 C 82.5105 -1.58407 3.10979 0
M  V30 848 C 83.8585 -2.07696 3.70334 0
M  V30 849 O 84.8825 -1.68304 3.1393 0
M  V30 850 O 83.7415 -2.80096 4.69264 0
M  V30 851 H 80.8355 -0.453993 0.691245 0
M  V30 852 H 83.3815 -0.215149 1.68331 0
M  V30 853 H 82.1535 -0.823831 3.82529 0
M  V30 854 H 81.7765 -2.40661 3.16493 0
M  V30 855 N 82.7736 -1.49793 -0.48987 0
M  V30 856 C 83.7056 -1.63413 -1.60713 0
M  V30 857 C 84.7186 -0.516329 -1.54395 0
M  V30 858 O 85.9076 -0.788812 -1.60125 0
M  V30 859 C 83.0076 -1.58516 -2.99543 0
M  V30 860 C 82.1806 -2.86016 -3.30928 0
M  V30 861 C 81.2396 -2.74018 -4.49222 0
M  V30 862 O 80.2656 -3.47964 -4.50455 0
M  V30 863 N 81.4676 -1.86309 -5.4979 0
M  V30 864 H 84.2326 -2.59777 -1.49452 0
M  V30 865 H 81.7936 -1.47022 -0.677955 0
M  V30 866 H 83.7856 -1.48128 -3.76617 0
M  V30 867 H 82.3556 -0.69965 -3.0467 0
M  V30 868 H 81.5756 -3.10672 -2.42645 0
M  V30 869 H 82.8636 -3.70521 -3.487 0
M  V30 870 H 82.2616 -1.2551 -5.51601 0
M  V30 871 H 80.8186 -1.81837 -6.25922 0
M  V30 872 N 84.2517 0.741722 -1.39055 0
M  V30 873 C 85.4797 1.53098 -1.39171 0
M  V30 874 C 85.8947 1.88794 0.0155099 0
M  V30 875 O 85.2517 1.53626 0.985159 0
M  V30 876 C 85.3027 2.82274 -2.2584 0
M  V30 877 O 85.0237 2.48097 -3.61081 0
M  V30 878 C 86.5247 3.76343 -2.34266 0
M  V30 879 H 83.7447 0.473335 -0.4756 0
M  V30 880 H 86.2887 0.917045 -1.82785 0
M  V30 881 H 84.4437 3.40015 -1.85656 0
M  V30 882 H 84.8577 3.31029 -4.06842 0
M  V30 883 H 86.3317 4.63898 -2.9917 0
M  V30 884 H 86.8087 4.17619 -1.35982 0
M  V30 885 H 87.4147 3.24523 -2.74891 0
M  V30 886 N 85.7298 1.2412 0.971189 0
M  V30 887 C 87.0068 0.986867 1.6888 0
M  V30 888 C 87.3868 -0.491857 2.0529 0
M  V30 889 O 86.7348 -1.46531 1.75331 0
M  V30 890 C 86.9448 1.9063 2.92338 0
M  V30 891 C 88.2928 2.17515 3.64654 0
M  V30 892 O 89.3168 1.88254 3.02388 0
M  V30 893 O 88.1758 2.6719 4.7673 0
M  V30 894 H 85.2698 0.372944 0.738134 0
M  V30 895 H 87.8158 1.35203 1.02559 0
M  V30 896 H 86.5878 2.90552 2.62097 0
M  V30 897 H 86.2108 1.54408 3.66393 0
M  V30 898 N 87.2079 -1.17134 1.05439 0
M  V30 899 C 88.4539 -1.87979 0.776872 0
M  V30 900 C 88.8089 -1.7965 -0.688751 0
M  V30 901 O 88.1019 -1.19535 -1.4974 0
M  V30 902 C 88.2959 -3.36833 1.19491 0
M  V30 903 C 88.1249 -3.59653 2.69963 0
M  V30 904 C 86.8949 -3.76234 3.37307 0
M  V30 905 C 89.0929 -3.59091 3.68182 0
M  V30 906 N 87.0749 -3.86922 4.76618 0
M  V30 907 C 88.4459 -3.75659 4.93235 0
M  V30 908 C 90.5009 -3.42255 3.61616 0
M  V30 909 C 89.2039 -3.77133 6.12506 0
M  V30 910 C 91.2299 -3.45018 4.8033 0
M  V30 911 C 90.5919 -3.62096 6.04207 0
M  V30 912 H 86.6909 -0.705876 0.336546 0
M  V30 913 H 89.2749 -1.40602 1.34682 0
M  V30 914 H 87.4459 -3.82873 0.652884 0
M  V30 915 H 89.1779 -3.95305 0.866966 0
M  V30 916 H 85.9329 -3.76193 2.87708 0
M  V30 917 H 86.3569 -3.96055 5.49062 0
M  V30 918 H 90.9989 -3.27986 2.66805 0
M  V30 919 H 88.7169 -3.90186 7.07659 0
M  V30 920 H 92.3029 -3.33246 4.76905 0
M  V30 921 H 91.1829 -3.64142 6.94529 0
M  V30 922 N 88.686 -0.835752 -1.33615 0
M  V30 923 C 89.926 -0.43599 -1.99696 0
M  V30 924 C 90.29 0.98557 -1.64774 0
M  V30 925 O 91.491 1.48889 -2.23798 0
M  V30 926 C 89.762 -0.646721 -3.515 0
M  V30 927 S 91.321 -0.341715 -4.37467 0
M  V30 928 H 88.139 -0.164136 -0.691795 0
M  V30 929 H 90.741 -1.08436 -1.62671 0
M  V30 930 H 89.445 -1.68077 -3.74404 0
M  V30 931 H 88.976 0.0159173 -3.93397 0
M  V30 932 H 90.991 0.839708 -4.89043 0
M  V30 933 N 90.1641 1.46063 -0.591896 0
M  V30 934 C 91.4041 2.04228 -0.0838014 0
M  V30 935 C 91.7681 1.45231 1.25587 0
M  V30 936 O 92.9691 1.94653 1.85375 0
M  V30 937 C 91.2401 3.57389 -0.0286282 0
M  V30 938 S 92.7991 4.3678 0.420557 0
M  V30 939 H 89.6171 0.709762 -0.0419319 0
M  V30 940 H 92.2191 1.78983 -0.786465 0
M  V30 941 H 90.9231 3.97843 -1.00743 0
M  V30 942 H 90.4541 3.87185 0.69652 0
M  V30 943 H 92.4691 4.67131 1.67341 0
M  V30 944 N 91.6422 0.330177 1.54103 0
M  V30 945 C 92.5922 -0.548456 2.21305 0
M  V30 946 C 93.5762 -1.07651 1.19583 0
M  V30 947 O 94.7682 -1.01243 1.45186 0
M  V30 948 C 91.8972 -1.70559 2.97934 0
M  V30 949 C 90.9832 -1.19212 4.07 0
M  V30 950 N 91.3742 -0.398831 5.04225 0
M  V30 951 C 89.6722 -1.47024 4.2107 0
M  V30 952 C 90.3732 -0.121761 5.81573 0
M  V30 953 N 89.3492 -0.709722 5.38947 0
M  V30 954 H 93.1512 0.0648483 2.93828 0
M  V30 955 H 90.6652 0.136363 1.61826 0
M  V30 956 H 92.6622 -2.34688 3.44568 0
M  V30 957 H 91.3222 -2.32231 2.26934 0
M  V30 958 H 92.3332 -0.0410869 5.17884 0
M  V30 959 H 89.0102 -2.09232 3.61287 0
M  V30 960 H 90.4002 0.517298 6.69906 0
M  V30 961 N 93.1203 -1.57491 0.0584922 0
M  V30 962 C 94.0833 -2.1085 -0.898617 0
M  V30 963 C 95.0833 -1.02964 -1.23511 0
M  V30 964 O 96.2733 -1.29007 -1.17059 0
M  V30 965 C 93.4053 -2.59881 -2.20623 0
M  V30 966 H 94.5983 -2.96715 -0.435936 0
M  V30 967 H 92.1513 -1.55141 -0.190023 0
M  V30 968 H 92.8863 -1.77431 -2.71457 0
M  V30 969 H 92.6713 -3.38727 -1.97501 0
M  V30 970 H 94.1613 -3.01285 -2.89166 0
M  V30 971 N 94.5984 0.214957 -1.56127 0
M  V30 972 C 95.5484 1.27006 -1.8935 0
M  V30 973 C 96.5324 1.41969 -0.757202 0
M  V30 974 O 97.7244 1.44673 -1.01973 0
M  V30 975 C 94.8534 2.61911 -2.2194 0
M  V30 976 C 93.9394 2.50822 -3.41978 0
M  V30 977 N 94.3304 2.09391 -4.60423 0
M  V30 978 C 92.6284 2.81765 -3.45723 0
M  V30 979 C 93.3294 2.09712 -5.42582 0
M  V30 980 N 92.3054 2.50454 -4.82466 0
M  V30 981 H 96.1074 0.940734 -2.78437 0
M  V30 982 H 93.6214 0.423492 -1.56781 0
M  V30 983 H 95.6184 3.38096 -2.43919 0
M  V30 984 H 94.2784 2.95684 -1.34169 0
M  V30 985 H 95.2894 1.80416 -4.85459 0
M  V30 986 H 91.9664 3.19865 -2.68314 0
M  V30 987 H 93.3564 1.79748 -6.4741 0
M  V30 988 N 96.0765 1.50051 0.48192 0
M  V30 989 C 97.3535 1.51009 1.2432 0
M  V30 990 C 97.7335 0.248587 2.09631 0
M  V30 991 O 97.0815 -0.768409 2.15192 0
M  V30 992 C 97.2915 2.79981 2.08355 0
M  V30 993 C 98.6395 3.3022 2.66908 0
M  V30 994 O 99.6635 2.81228 2.18607 0
M  V30 995 O 98.5225 4.15595 3.54884 0
M  V30 996 H 95.6165 0.605239 0.563573 0
M  V30 997 H 98.1625 1.62332 0.494627 0
M  V30 998 H 96.9345 3.63275 1.45419 0
M  V30 999 H 96.5575 2.7161 2.90368 0
M  V30 1000 N 97.5546 -0.734337 1.39446 0
M  V30 1001 C 98.7946 -1.50655 1.38139 0
M  V30 1002 C 99.1586 -1.91986 -0.0228701 0
M  V30 1003 O 100.36 -2.68318 -0.160947 0
M  V30 1004 C 98.6306 -2.71251 2.32718 0
M  V30 1005 S 100.19 -3.60892 2.49605 0
M  V30 1006 H 97.0076 -0.515315 0.489869 0
M  V30 1007 H 99.6096 -0.860392 1.75549 0
M  V30 1008 H 98.3136 -2.39027 3.33608 0
M  V30 1009 H 97.8446 -3.40795 1.96526 0
M  V30 1010 H 99.8596 -4.64899 1.73446 0
M  V30 1011 N 99.0327 -1.24633 -0.964593 0
M  V30 1012 C 100.273 -1.09981 -1.72289 0
M  V30 1013 C 100.637 0.354792 -1.88693 0
M  V30 1014 O 101.838 0.62289 -2.61483 0
M  V30 1015 C 100.109 -1.82262 -3.07434 0
M  V30 1016 S 101.668 -1.83379 -3.98645 0
M  V30 1017 H 98.4857 -0.393292 -0.59232 0
M  V30 1018 H 101.088 -1.58009 -1.15123 0
M  V30 1019 H 99.7917 -2.87206 -2.93157 0
M  V30 1020 H 99.3227 -1.3458 -3.69664 0
M  V30 1021 H 101.338 -0.903691 -4.87901 0
M  V30 1022 N 100.511 1.16574 -1.06058 0
M  V30 1023 C 101.741 1.90675 -0.795397 0
M  V30 1024 C 102.149 1.77547 0.653735 0
M  V30 1025 O 101.492 1.11611 1.45907 0
M  V30 1026 C 101.554 3.42011 -1.10764 0
M  V30 1027 C 101.218 3.78924 -2.55471 0
M  V30 1028 C 102.215 3.81042 -3.53699 0
M  V30 1029 C 99.8998 4.09626 -2.90708 0
M  V30 1030 C 101.894 4.13346 -4.85205 0
M  V30 1031 C 99.5808 4.41597 -4.22416 0
M  V30 1032 C 100.579 4.43436 -5.19474 0
M  V30 1033 O 100.267 4.74649 -6.48817 0
M  V30 1034 H 99.9988 0.611554 -0.288058 0
M  V30 1035 H 102.553 1.48711 -1.41683 0
M  V30 1036 H 100.783 3.84312 -0.429128 0
M  V30 1037 H 102.472 3.97384 -0.827077 0
M  V30 1038 H 103.238 3.57437 -3.27817 0
M  V30 1039 H 99.1168 4.07361 -2.15819 0
M  V30 1040 H 102.661 4.14696 -5.60957 0
M  V30 1041 H 98.5578 4.64667 -4.48056 0
M  V30 1042 H 99.3258 4.9247 -6.5377 0
M  V30 1043 N 101.989 0.842826 1.3317 0
M  V30 1044 C 103.237 0.439577 1.97262 0
M  V30 1045 C 103.558 -1.00548 1.67078 0
M  V30 1046 O 102.828 -1.70098 0.971779 0
M  V30 1047 H 101.408 0.159558 0.72976 0
M  V30 1048 H 104.07 1.07665 1.62463 0
M  V30 1049 H 103.166 0.574886 3.0676 0
M  V30 1050 N 103.467 -1.45747 0.599634 0
M  V30 1051 C 104.883 -1.57424 0.26264 0
M  V30 1052 C 105.083 -1.59222 -1.23493 0
M  V30 1053 O 104.139 -1.51825 -2.01756 0
M  V30 1054 C 105.452 -2.86061 0.926795 0
M  V30 1055 C 107 -2.99722 0.901967 0
M  V30 1056 C 107.475 -4.31119 1.54598 0
M  V30 1057 N 108.966 -4.37858 1.5111 0
M  V30 1058 C 109.701 -5.3818 1.97863 0
M  V30 1059 N 109.197 -6.45083 2.52666 0
M  V30 1060 N 110.99 -5.29487 1.88679 0
M  V30 1061 H 103.141 -1.42823 1.57211 0
M  V30 1062 H 105.404 -0.68235 0.658105 0
M  V30 1063 H 105.11 -2.90605 1.98095 0
M  V30 1064 H 104.984 -3.74563 0.445238 0
M  V30 1065 H 107.371 -2.9475 -0.143617 0
M  V30 1066 H 107.452 -2.12652 1.42171 0
M  V30 1067 H 107.096 -4.36849 2.59085 0
M  V30 1068 H 107.026 -5.16992 1.00132 0
M  V30 1069 H 109.517 -3.61209 1.11068 0
M  V30 1070 H 109.83 -7.17869 2.86155 0
M  V30 1071 H 108.175 -6.45856 2.56701 0
M  V30 1072 H 111.366 -4.44877 1.4561 0
M  V30 1073 H 111.539 -6.07524 2.25429 0
M  V30 1074 N 104.945 -0.338344 -1.53925 0
M  V30 1075 C 105.875 0.51328 -2.27789 0
M  V30 1076 C 106.856 1.107 -1.29149 0
M  V30 1077 O 108.041 1.12937 -1.57984 0
M  V30 1078 C 105.171 1.66697 -3.04679 0
M  V30 1079 C 104.125 1.20183 -4.1078 0
M  V30 1080 C 103.451 2.44363 -4.75595 0
M  V30 1081 C 104.751 0.30605 -5.21403 0
M  V30 1082 H 106.445 -0.102883 -2.99223 0
M  V30 1083 H 103.991 -0.0509219 -1.4391 0
M  V30 1084 H 105.944 2.26915 -3.55088 0
M  V30 1085 H 104.668 2.30995 -2.30887 0
M  V30 1086 H 103.327 0.622499 -3.61276 0
M  V30 1087 H 102.975 3.07057 -3.98403 0
M  V30 1088 H 102.675 2.13925 -5.47275 0
M  V30 1089 H 104.199 3.05317 -5.28786 0
M  V30 1090 H 105.613 0.814929 -5.67478 0
M  V30 1091 H 104.01 0.0937929 -6.00027 0
M  V30 1092 H 105.08 -0.65921 -4.80398 0
M  V30 1093 N 106.423 1.57458 -0.0668435 0
M  V30 1094 C 107.333 2.15937 0.916975 0
M  V30 1095 C 108.349 1.12123 1.33058 0
M  V30 1096 O 109.525 1.44366 1.40429 0
M  V30 1097 C 106.59 2.70547 2.16807 0
M  V30 1098 C 105.651 3.89215 1.81135 0
M  V30 1099 C 104.884 4.41211 3.0028 0
M  V30 1100 O 105.107 3.92225 4.14144 0
M  V30 1101 O 104.041 5.32605 2.80384 0
M  V30 1102 H 107.867 3.00354 0.449561 0
M  V30 1103 H 105.452 1.48584 0.155949 0
M  V30 1104 H 107.334 3.0557 2.90181 0
M  V30 1105 H 106.009 1.89192 2.62656 0
M  V30 1106 H 104.916 3.59054 1.05028 0
M  V30 1107 H 106.249 4.71848 1.40073 0
M  V30 1108 N 107.901 -0.206675 1.56239 0
M  V30 1109 C 108.848 -1.25617 1.93621 0
M  V30 1110 C 109.818 -1.45824 0.795274 0
M  V30 1111 O 111.003 -1.59148 1.05245 0
M  V30 1112 C 108.143 -2.59839 2.27107 0
M  V30 1113 C 107.256 -2.47308 3.54207 0
M  V30 1114 C 106.391 -3.74155 3.7707 0
M  V30 1115 C 105.43 -3.56407 4.97635 0
M  V30 1116 N 104.567 -4.75238 5.1681 0
M  V30 1117 H 109.407 -0.930383 2.83104 0
M  V30 1118 H 106.944 -0.448065 1.4011 0
M  V30 1119 H 108.902 -3.38021 2.44535 0
M  V30 1120 H 107.532 -2.90485 1.40778 0
M  V30 1121 H 106.584 -1.60483 3.4489 0
M  V30 1122 H 107.896 -2.30122 4.42544 0
M  V30 1123 H 107.05 -4.60778 3.94675 0
M  V30 1124 H 105.789 -3.94282 2.87042 0
M  V30 1125 H 104.794 -2.68168 4.79964 0
M  V30 1126 H 106.019 -3.37736 5.89161 0
M  V30 1127 H 103.965 -4.95651 4.29728 0
M  V30 1128 H 103.882 -4.60835 5.99306 0
M  V30 1129 H 105.15 -5.63246 5.38864 0
M  V30 1130 N 109.379 -1.50304 -0.473955 0
M  V30 1131 C 110.309 -1.71886 -1.58042 0
M  V30 1132 C 111.29 -0.567799 -1.60344 0
M  V30 1133 O 112.475 -0.806623 -1.76656 0
M  V30 1134 C 109.605 -1.81036 -2.96384 0
M  V30 1135 C 108.559 -2.962 -3.08949 0
M  V30 1136 C 107.885 -2.9049 -4.48909 0
M  V30 1137 C 109.185 -4.36752 -2.86434 0
M  V30 1138 H 110.879 -2.64527 -1.40234 0
M  V30 1139 H 108.425 -1.27295 -0.673201 0
M  V30 1140 H 110.378 -1.94719 -3.73714 0
M  V30 1141 H 109.102 -0.850147 -3.15341 0
M  V30 1142 H 107.761 -2.82164 -2.3405 0
M  V30 1143 H 107.409 -1.92321 -4.64781 0
M  V30 1144 H 107.109 -3.67802 -4.58253 0
M  V30 1145 H 108.633 -3.06218 -5.28264 0
M  V30 1146 H 110.047 -4.5133 -3.53517 0
M  V30 1147 H 108.444 -5.15493 -3.07225 0
M  V30 1148 H 109.514 -4.49321 -1.82316 0
M  V30 1149 N 110.857 0.726932 -1.39834 0
M  V30 1150 C 112.105 1.4837 -1.37225 0
M  V30 1151 C 112.426 1.94979 0.0284857 0
M  V30 1152 O 111.696 1.69555 0.981213 0
M  V30 1153 H 110.276 0.55043 -0.505011 0
M  V30 1154 H 112.938 0.862468 -1.74778 0
M  V30 1155 H 112.034 2.36198 -2.04003 0
M  V30 1156 N 112.336 1.25143 0.95797 0
M  V30 1157 C 113.576 1.10893 1.71703 0
M  V30 1158 C 113.94 -0.34478 1.88879 0
M  V30 1159 O 115.141 -0.609014 2.6181 0
M  V30 1160 C 113.412 1.83889 3.06463 0
M  V30 1161 S 114.971 1.85491 3.97666 0
M  V30 1162 H 111.789 0.396428 0.590226 0
M  V30 1163 H 114.391 1.58618 1.14283 0
M  V30 1164 H 113.095 2.88756 2.9163 0
M  V30 1165 H 112.626 1.36538 3.68946 0
M  V30 1166 H 114.641 0.929553 4.87415 0
M  V30 1167 N 113.814 -1.1601 1.06675 0
M  V30 1168 C 114.724 -2.24156 0.692179 0
M  V30 1169 C 115.74 -1.71507 -0.293513 0
M  V30 1170 O 116.916 -2.009 -0.141861 0
M  V30 1171 C 113.981 -3.46587 0.0884131 0
M  V30 1172 C 113.042 -4.14257 1.12646 0
M  V30 1173 C 112.275 -5.30844 0.551416 0
M  V30 1174 O 112.498 -5.66858 -0.634656 0
M  V30 1175 O 111.432 -5.87848 1.29298 0
M  V30 1176 H 115.258 -2.58513 1.59388 0
M  V30 1177 H 112.843 -1.23599 0.83926 0
M  V30 1178 H 114.725 -4.20679 -0.246361 0
M  V30 1179 H 113.4 -3.13994 -0.786712 0
M  V30 1180 H 112.307 -3.42118 1.51348 0
M  V30 1181 H 113.64 -4.50914 1.97325 0
M  V30 1182 N 115.292 -0.849877 -1.32721 0
M  V30 1183 C 116.703 -0.506188 -1.79707 0
M  V30 1184 C 117.054 0.975627 -1.70223 0
M  V30 1185 O 116.179 1.76078 -1.25799 0
M  V30 1186 C 116.774 -0.912044 -3.26293 0
M  V30 1187 C 115.333 -0.620326 -3.71253 0
M  V30 1188 C 114.48 -1.11439 -2.53922 0
M  V30 1189 H 117.431 -1.03754 -1.20087 0
M  V30 1190 H 117.452 -0.226493 -3.79825 0
M  V30 1191 H 116.964 -1.99057 -3.33164 0
M  V30 1192 H 115.065 0.447674 -3.69901 0
M  V30 1193 H 115.178 -1.18327 -4.64258 0
M  V30 1194 H 113.542 -0.534834 -2.49021 0
M  V30 1195 H 114.325 -2.19992 -2.6355 0
M  V30 1196 N 116.77 1.45427 -0.607355 0
M  V30 1197 C 117.717 2.3053 0.111625 0
M  V30 1198 C 118.687 1.4209 0.860216 0
M  V30 1199 O 119.872 1.71019 0.845998 0
M  V30 1200 C 117.012 3.26992 1.10319 0
M  V30 1201 C 116.125 4.30535 0.355493 0
M  V30 1202 C 115.26 5.14105 1.33676 0
M  V30 1203 C 114.299 6.09376 0.576862 0
M  V30 1204 N 113.436 6.85727 1.5074 0
M  V30 1205 H 118.276 2.91477 -0.620093 0
M  V30 1206 H 115.813 1.43631 -0.317594 0
M  V30 1207 H 117.771 3.81385 1.6912 0
M  V30 1208 H 116.401 2.67799 1.80232 0
M  V30 1209 H 115.453 3.78805 -0.348023 0
M  V30 1210 H 116.765 4.98235 -0.237423 0
M  V30 1211 H 115.919 5.72897 1.99684 0
M  V30 1212 H 114.658 4.46423 1.9636 0
M  V30 1213 H 113.663 5.49715 -0.0968519 0
M  V30 1214 H 114.888 6.79085 -0.0449341 0
M  V30 1215 H 112.834 6.20735 2.12189 0
M  V30 1216 H 112.751 7.49778 0.967913 0
M  V30 1217 H 114.019 7.4906 2.15706 0
M  V30 1218 N 118.248 0.346503 1.53744 0
M  V30 1219 C 119.178 -0.501193 2.28058 0
M  V30 1220 C 120.159 -1.10014 1.29734 0
M  V30 1221 O 121.344 -1.12097 1.58581 0
M  V30 1222 C 118.474 -1.65078 3.05559 0
M  V30 1223 C 117.428 -1.18003 4.11411 0
M  V30 1224 C 116.754 -2.41837 4.76884 0
M  V30 1225 C 118.054 -0.278394 5.21558 0
M  V30 1226 H 119.748 0.11875 2.99164 0
M  V30 1227 H 117.294 0.0585531 1.43881 0
M  V30 1228 H 119.247 -2.25028 3.56287 0
M  V30 1229 H 117.971 -2.29767 2.32109 0
M  V30 1230 H 116.63 -0.603331 3.61601 0
M  V30 1231 H 116.278 -3.0494 4.00026 0
M  V30 1232 H 115.978 -2.1102 5.48402 0
M  V30 1233 H 117.502 -3.02508 5.30397 0
M  V30 1234 H 118.916 -0.784823 5.67903 0
M  V30 1235 H 117.313 -0.0619707 6.00068 0
M  V30 1236 H 118.383 0.684677 4.80042 0
M  V30 1237 N 119.726 -1.57421 0.075193 0
M  V30 1238 C 120.636 -2.1642 -0.905511 0
M  V30 1239 C 121.652 -1.12828 -1.32461 0
M  V30 1240 O 122.828 -1.45109 -1.39661 0
M  V30 1241 C 119.893 -2.71693 -2.15369 0
M  V30 1242 C 118.954 -3.90171 -1.79068 0
M  V30 1243 C 118.187 -4.42798 -2.97936 0
M  V30 1244 O 118.41 -3.94416 -4.12058 0
M  V30 1245 O 117.344 -5.34085 -2.77555 0
M  V30 1246 H 121.17 -3.00588 -0.433626 0
M  V30 1247 H 118.755 -1.48664 -0.148067 0
M  V30 1248 H 120.637 -3.07104 -2.88557 0
M  V30 1249 H 119.312 -1.90582 -2.61649 0
M  V30 1250 H 118.219 -3.59606 -1.03122 0
M  V30 1251 H 119.552 -4.72584 -1.37569 0
M  V30 1252 N 121.204 0.198386 -1.56346 0
M  V30 1253 C 122.151 1.24589 -1.94284 0
M  V30 1254 C 123.121 1.454 -0.802997 0
M  V30 1255 O 124.306 1.58588 -1.06087 0
M  V30 1256 C 121.446 2.58631 -2.28482 0
M  V30 1257 C 120.559 2.45426 -3.55514 0
M  V30 1258 C 119.694 3.7215 -3.79049 0
M  V30 1259 C 118.733 3.53763 -4.99518 0
M  V30 1260 N 117.87 4.72491 -5.19323 0
M  V30 1261 H 122.71 0.915356 -2.83593 0
M  V30 1262 H 120.247 0.440629 -1.40346 0
M  V30 1263 H 122.205 3.3672 -2.46324 0
M  V30 1264 H 120.835 2.89734 -1.42317 0
M  V30 1265 H 119.887 1.58652 -3.45737 0
M  V30 1266 H 121.199 2.27772 -4.43758 0
M  V30 1267 H 120.353 4.58679 -3.97113 0
M  V30 1268 H 119.092 3.92754 -2.89129 0
M  V30 1269 H 118.097 2.65619 -4.8138 0
M  V30 1270 H 119.322 3.34607 -5.90944 0
M  V30 1271 H 117.268 4.93365 -4.3235 0
M  V30 1272 H 117.185 4.5765 -6.01741 0
M  V30 1273 H 118.453 5.6038 -5.41843 0
M  V30 1274 N 122.682 1.50554 0.465978 0
M  V30 1275 C 123.912 1.65323 1.23903 0
M  V30 1276 C 124.32 0.338051 1.86155 0
M  V30 1277 O 123.663 -0.690518 1.70228 0
M  V30 1278 C 123.725 2.69048 2.3844 0
M  V30 1279 C 123.389 4.12462 1.96784 0
M  V30 1280 C 124.386 4.98168 1.48745 0
M  V30 1281 C 122.071 4.58407 2.05349 0
M  V30 1282 C 124.065 6.27868 1.0982 0
M  V30 1283 C 121.752 5.88112 1.66035 0
M  V30 1284 C 122.75 6.72668 1.18349 0
M  V30 1285 O 122.438 7.99951 0.795825 0
M  V30 1286 H 122.17 0.558629 0.38067 0
M  V30 1287 H 124.724 1.97561 0.562022 0
M  V30 1288 H 122.954 2.32062 3.09328 0
M  V30 1289 H 124.643 2.72985 3.0039 0
M  V30 1290 H 125.409 4.63885 1.41546 0
M  V30 1291 H 121.288 3.92735 2.41414 0
M  V30 1292 H 124.832 6.93819 0.725293 0
M  V30 1293 H 120.729 6.21914 1.72895 0
M  V30 1294 H 121.497 8.13265 0.924222 0
M  V30 1295 N 124.16 -0.719506 1.40217 0
M  V30 1296 C 125.09 -1.8465 1.42922 0
M  V30 1297 C 126.071 -1.67599 0.29062 0
M  V30 1298 O 127.256 -1.87688 0.498677 0
M  V30 1299 C 124.386 -3.22565 1.28722 0
M  V30 1300 C 123.34 -3.54281 2.40144 0
M  V30 1301 C 122.666 -4.91298 2.11023 0
M  V30 1302 C 123.966 -3.55676 3.82481 0
M  V30 1303 H 125.66 -1.82644 2.37237 0
M  V30 1304 H 123.206 -0.877305 1.1419 0
M  V30 1305 H 125.159 -4.01095 1.29232 0
M  V30 1306 H 123.883 -3.25137 0.308811 0
M  V30 1307 H 122.542 -2.78088 2.38877 0
M  V30 1308 H 122.19 -4.90468 1.11582 0
M  V30 1309 H 121.89 -5.13485 2.8567 0
M  V30 1310 H 123.414 -5.72166 2.13209 0
M  V30 1311 H 124.828 -4.24254 3.85592 0
M  V30 1312 H 123.225 -3.89388 4.56614 0
M  V30 1313 H 124.295 -2.55144 4.12346 0
M  V30 1314 N 125.638 -1.25649 -0.95132 0
M  V30 1315 C 126.885 -1.10594 -1.69633 0
M  V30 1316 C 127.213 0.352515 -1.91279 0
M  V30 1317 O 126.468 1.27601 -1.4838 0
M  V30 1318 C 126.767 -1.80909 -3.08231 0
M  V30 1319 C 126.433 -3.30825 -3.06375 0
M  V30 1320 C 125.095 -3.71722 -3.05576 0
M  V30 1321 C 127.447 -4.26589 -2.99452 0
M  V30 1322 C 124.775 -5.06788 -2.95606 0
M  V30 1323 C 127.127 -5.61683 -2.91024 0
M  V30 1324 C 125.791 -6.01904 -2.88562 0
M  V30 1325 H 125.061 -0.404691 -0.620731 0
M  V30 1326 H 127.708 -1.55964 -1.11119 0
M  V30 1327 H 126.013 -1.27979 -3.70309 0
M  V30 1328 H 127.71 -1.6671 -3.64704 0
M  V30 1329 H 124.3 -2.98287 -3.07771 0
M  V30 1330 H 128.484 -3.95982 -2.99185 0
M  V30 1331 H 123.74 -5.37126 -2.92071 0
M  V30 1332 H 127.914 -6.35578 -2.84629 0
M  V30 1333 H 125.541 -7.06521 -2.80593 0
M  V30 1334 N 127.117 1.15442 -1.07289 0
M  V30 1335 C 128.342 1.90638 -0.816828 0
M  V30 1336 C 128.767 1.77445 0.624083 0
M  V30 1337 O 128.125 1.10671 1.43602 0
M  V30 1338 C 128.173 3.39008 -1.22906 0
M  V30 1339 O 127.277 4.10701 -0.373975 0
M  V30 1340 H 126.618 0.593555 -0.297638 0
M  V30 1341 H 129.148 1.46198 -1.43134 0
M  V30 1342 H 129.158 3.89801 -1.20497 0
M  V30 1343 H 127.833 3.47929 -2.27856 0
M  V30 1344 H 126.41 3.70046 -0.460499 0
M  V30 1345 N 128.595 0.856903 1.32268 0
M  V30 1346 C 129.841 0.462069 1.97466 0
M  V30 1347 C 130.174 -0.980298 1.67642 0
M  V30 1348 O 129.449 -1.68824 0.965858 0
M  V30 1349 C 129.732 0.704336 3.53145 0
M  V30 1350 C 129.585 2.19529 3.9259 0
M  V30 1351 C 130.904 0.1622 4.39801 0
M  V30 1352 H 128.023 0.169357 0.717278 0
M  V30 1353 H 130.665 1.07574 1.56614 0
M  V30 1354 H 128.815 0.181999 3.88073 0
M  V30 1355 H 130.487 2.78387 3.67829 0
M  V30 1356 H 128.73 2.67292 3.41668 0
M  V30 1357 H 129.401 2.31549 5.01088 0
M  V30 1358 H 131.877 0.608905 4.11621 0
M  V30 1359 H 130.753 0.361265 5.4771 0
M  V30 1360 H 131.014 -0.935158 4.32096 0
M  V30 1361 N 130.073 -1.45103 0.615059 0
M  V30 1362 C 131.298 -2.07064 0.117988 0
M  V30 1363 C 131.723 -1.4554 -1.19163 0
M  V30 1364 O 131.081 -0.550855 -1.72729 0
M  V30 1365 C 131.129 -3.606 -0.000288387 0
M  V30 1366 O 130.233 -3.98847 -1.04856 0
M  V30 1367 H 129.574 -0.659467 0.0774581 0
M  V30 1368 H 132.104 -1.86236 0.847186 0
M  V30 1369 H 132.114 -4.07529 -0.196091 0
M  V30 1370 H 130.789 -4.04765 0.955932 0
M  V30 1371 H 129.366 -3.63577 -0.828619 0
M  V30 1372 N 131.551 -0.354651 -1.53558 0
M  V30 1373 C 132.461 0.50515 -2.29097 0
M  V30 1374 C 133.477 1.10223 -1.34636 0
M  V30 1375 O 134.653 1.11553 -1.67684 0
M  V30 1376 C 131.718 1.63479 -3.05738 0
M  V30 1377 C 130.779 1.06636 -4.15845 0
M  V30 1378 C 130.012 2.14217 -4.88822 0
M  V30 1379 O 130.235 3.35137 -4.61562 0
M  V30 1380 O 129.169 1.77887 -5.75013 0
M  V30 1381 H 132.995 -0.109237 -3.03503 0
M  V30 1382 H 130.58 -0.119357 -1.48922 0
M  V30 1383 H 132.462 2.2918 -3.5363 0
M  V30 1384 H 131.137 2.23478 -2.34178 0
M  V30 1385 H 130.044 0.373565 -3.7223 0
M  V30 1386 H 131.377 0.511081 -4.89539 0
M  V30 1387 N 133.029 1.57378 -0.0835403 0
M  V30 1388 C 134.445 1.57246 0.273109 0
M  V30 1389 C 134.645 1.09385 1.69225 0
M  V30 1390 O 133.701 0.765051 2.40631 0
M  V30 1391 C 135.014 3.00614 0.0720628 0
M  V30 1392 C 136.562 3.12684 0.1407 0
M  V30 1393 C 137.037 4.57989 -0.0322094 0
M  V30 1394 N 138.528 4.63194 0.0230085 0
M  V30 1395 C 139.263 5.73335 -0.0861941 0
M  V30 1396 N 138.759 6.9235 -0.24958 0
M  V30 1397 N 140.552 5.62093 -0.0282886 0
M  V30 1398 H 132.703 1.86801 -1.0109 0
M  V30 1399 H 134.966 0.861687 -0.395222 0
M  V30 1400 H 134.672 3.39786 -0.907662 0
M  V30 1401 H 134.546 3.68193 0.81936 0
M  V30 1402 H 136.933 2.73391 1.11092 0
M  V30 1403 H 137.014 2.47719 -0.637896 0
M  V30 1404 H 136.658 4.97973 -0.999247 0
M  V30 1405 H 136.588 5.21 0.765937 0
M  V30 1406 H 139.079 3.77613 0.14722 0
M  V30 1407 H 139.392 7.72117 -0.324733 0
M  V30 1408 H 137.737 6.94415 -0.285097 0
M  V30 1409 H 140.928 4.67997 0.0981408 0
M  V30 1410 H 141.101 6.47895 -0.116845 0
M  V30 1411 N 134.507 -0.190092 1.56449 0
M  V30 1412 C 135.755 -0.907908 1.80559 0
M  V30 1413 C 136.076 -1.83583 0.657438 0
M  V30 1414 O 135.346 -1.93203 -0.323924 0
M  V30 1415 H 133.926 -0.338247 0.666032 0
M  V30 1416 H 136.588 -0.194403 1.93928 0
M  V30 1417 H 135.684 -1.49604 2.73907 0
M  V30 1418 N 135.985 -1.50799 -0.457987 0
M  V30 1419 C 137.234 -1.6168 -1.20593 0
M  V30 1420 C 137.547 -0.32888 -1.92815 0
M  V30 1421 O 138.753 -0.316773 -2.69646 0
M  V30 1422 C 137.209 -2.8545 -2.19195 0
M  V30 1423 C 136.817 -4.21168 -1.52715 0
M  V30 1424 C 138.561 -3.05681 -2.94549 0
M  V30 1425 C 136.468 -5.3611 -2.4968 0
M  V30 1426 H 135.398 -0.602134 -0.453818 0
M  V30 1427 H 138.049 -1.77245 -0.475031 0
M  V30 1428 H 136.431 -2.63472 -2.95632 0
M  V30 1429 H 137.605 -4.53449 -0.819775 0
M  V30 1430 H 135.92 -4.06648 -0.895922 0
M  V30 1431 H 138.517 -3.88727 -3.67145 0
M  V30 1432 H 138.86 -2.17929 -3.54701 0
M  V30 1433 H 139.393 -3.27901 -2.25223 0
M  V30 1434 H 136.132 -6.26057 -1.94249 0
M  V30 1435 H 135.652 -5.0823 -3.18532 0
M  V30 1436 H 137.331 -5.6722 -3.11241 0
M  V30 1437 N 137.463 0.71206 -1.40597 0
M  V30 1438 C 138.71 1.47197 -1.39065 0
M  V30 1439 C 139.038 1.94499 0.00583891 0
M  V30 1440 O 138.293 1.68752 0.99102 0
M  V30 1441 C 138.592 2.71039 -2.32965 0
M  V30 1442 C 138.258 2.42484 -3.80148 0
M  V30 1443 C 136.92 2.34406 -4.20247 0
M  V30 1444 C 139.272 2.18598 -4.73143 0
M  V30 1445 C 136.6 2.00516 -5.51371 0
M  V30 1446 C 138.952 1.8622 -6.0457 0
M  V30 1447 C 137.616 1.76626 -6.43708 0
M  V30 1448 H 136.886 0.538634 -0.508876 0
M  V30 1449 H 139.533 0.815325 -1.73276 0
M  V30 1450 H 137.838 3.41558 -1.91951 0
M  V30 1451 H 139.535 3.29138 -2.29061 0
M  V30 1452 H 136.125 2.49659 -3.4838 0
M  V30 1453 H 140.309 2.23793 -4.42979 0
M  V30 1454 H 135.565 1.91628 -5.80593 0
M  V30 1455 H 139.739 1.66752 -6.76141 0
M  V30 1456 H 137.366 1.50133 -7.45228 0
M  V30 1457 N 138.941 1.26152 0.944643 0
M  V30 1458 C 140.181 1.12708 1.70517 0
M  V30 1459 C 140.545 -0.324727 1.89234 0
M  V30 1460 O 141.746 -0.581211 2.62441 0
M  V30 1461 C 140.017 1.8713 3.04495 0
M  V30 1462 S 141.576 1.89698 3.95677 0
M  V30 1463 H 138.394 0.402665 0.585988 0
M  V30 1464 H 140.996 1.59821 1.12594 0
M  V30 1465 H 139.7 2.91833 2.88551 0
M  V30 1466 H 139.231 1.40444 3.67477 0
M  V30 1467 H 141.246 0.981198 4.86402 0
M  V30 1468 N 140.419 -1.14872 1.07899 0
M  V30 1469 C 141.382 -2.17986 0.708161 0
M  V30 1470 C 142.382 -1.58775 -0.25442 0
M  V30 1471 O 143.572 -1.74166 -0.034645 0
M  V30 1472 C 140.704 -3.40871 0.0446929 0
M  V30 1473 H 141.897 -2.52306 1.62116 0
M  V30 1474 H 139.45 -1.2943 0.876218 0
M  V30 1475 H 140.185 -3.12124 -0.880281 0
M  V30 1476 H 139.97 -3.8511 0.737091 0
M  V30 1477 H 141.46 -4.17121 -0.19991 0
M  V30 1478 N 141.898 -0.863906 -1.31812 0
M  V30 1479 C 143.146 -0.470904 -1.96537 0
M  V30 1480 C 143.467 0.978771 -1.68657 0
M  V30 1481 O 142.737 1.6853 -0.998717 0
M  V30 1482 H 141.317 -0.171148 -0.72713 0
M  V30 1483 H 143.979 -1.10236 -1.60729 0
M  V30 1484 H 143.075 -0.623616 -3.05806 0
M  V30 1485 N 143.376 1.44774 -0.622745 0
M  V30 1486 C 144.792 1.56986 -0.287652 0
M  V30 1487 C 144.992 1.61167 1.20944 0
M  V30 1488 O 144.048 1.55015 1.99315 0
M  V30 1489 C 145.361 2.84551 -0.972188 0
M  V30 1490 C 146.909 2.9825 -0.949536 0
M  V30 1491 C 147.384 4.28605 -1.61437 0
M  V30 1492 N 148.875 4.35399 -1.58057 0
M  V30 1493 C 149.61 5.34964 -2.064 0
M  V30 1494 N 149.106 6.40981 -2.62897 0
M  V30 1495 N 150.899 5.26419 -1.97078 0
M  V30 1496 H 143.05 1.40304 -1.59463 0
M  V30 1497 H 145.313 0.671794 -0.668878 0
M  V30 1498 H 145.019 2.87417 -2.02693 0
M  V30 1499 H 144.893 3.73807 -0.504771 0
M  V30 1500 H 147.28 2.94941 0.0967067 0
M  V30 1501 H 147.361 2.10364 -1.45536 0
M  V30 1502 H 147.005 4.32672 -2.66002 0
M  V30 1503 H 146.935 5.15334 -1.08344 0
M  V30 1504 H 149.426 3.59397 -1.16801 0
M  V30 1505 H 149.739 7.13225 -2.97539 0
M  V30 1506 H 148.084 6.4169 -2.66943 0
M  V30 1507 H 151.275 4.42504 -1.52669 0
M  V30 1508 H 151.448 6.03861 -2.35066 0
M  V30 1509 N 144.854 0.36279 1.53368 0
M  V30 1510 C 146.082 -0.228613 2.05633 0
M  V30 1511 C 146.497 -1.42676 1.23649 0
M  V30 1512 O 145.854 -1.80394 0.27647 0
M  V30 1513 C 145.905 -0.624845 3.56059 0
M  V30 1514 O 145.626 0.525675 4.34935 0
M  V30 1515 C 147.127 -1.27493 4.24571 0
M  V30 1516 H 144.347 -0.0407183 0.669763 0
M  V30 1517 H 146.891 0.520352 1.97769 0
M  V30 1518 H 145.046 -1.32373 3.64083 0
M  V30 1519 H 145.46 0.205969 5.24095 0
M  V30 1520 H 146.934 -1.50277 5.31151 0
M  V30 1521 H 147.411 -2.23439 3.78116 0
M  V30 1522 H 148.017 -0.617558 4.20792 0
M  V30 1523 N 146.332 -1.57332 0.0918853 0
M  V30 1524 C 147.56 -1.98574 -0.581048 0
M  V30 1525 C 147.975 -0.970903 -1.61923 0
M  V30 1526 O 147.332 0.0399054 -1.82456 0
M  V30 1527 C 147.383 -3.39872 -1.23164 0
M  V30 1528 O 147.104 -4.37469 -0.234989 0
M  V30 1529 C 148.605 -3.96099 -1.99049 0
M  V30 1530 H 145.825 -0.65261 -0.156018 0
M  V30 1531 H 148.369 -2.0379 0.170225 0
M  V30 1532 H 146.524 -3.35679 -1.93386 0
M  V30 1533 H 146.938 -5.19751 -0.70418 0
M  V30 1534 H 148.412 -4.97127 -2.39934 0
M  V30 1535 H 148.889 -3.3374 -2.85507 0
M  V30 1536 H 149.495 -4.03755 -1.3365 0
M  V30 1537 N 147.81 0.181792 -1.56548 0
M  V30 1538 C 149.05 0.906711 -1.83189 0
M  V30 1539 C 149.414 1.79882 -0.671312 0
M  V30 1540 O 150.615 2.56054 -0.81792 0
M  V30 1541 C 148.886 1.69023 -3.14906 0
M  V30 1542 S 150.445 2.46535 -3.62996 0
M  V30 1543 H 147.263 0.303877 -0.642791 0
M  V30 1544 H 149.865 0.169107 -1.94767 0
M  V30 1545 H 148.569 1.02571 -3.97376 0
M  V30 1546 H 148.1 2.46941 -3.06241 0
M  V30 1547 H 150.115 3.71014 -3.29489 0
M  V30 1548 N 149.288 1.51039 0.449983 0
M  V30 1549 C 150.22 1.67617 1.56324 0
M  V30 1550 C 151.233 0.557083 1.52972 0
M  V30 1551 O 152.422 0.830989 1.57977 0
M  V30 1552 C 149.522 1.66402 2.95235 0
M  V30 1553 C 148.695 2.9469 3.23229 0
M  V30 1554 C 147.754 2.85832 4.41799 0
M  V30 1555 O 146.78 3.59785 4.41071 0
M  V30 1556 N 147.982 2.00821 5.44657 0
M  V30 1557 H 150.747 2.63648 1.42512 0
M  V30 1558 H 148.308 1.48767 0.638737 0
M  V30 1559 H 150.3 1.58062 3.72557 0
M  V30 1560 H 148.87 0.780182 3.02708 0
M  V30 1561 H 148.09 3.16996 2.34323 0
M  V30 1562 H 149.378 3.79636 3.38754 0
M  V30 1563 H 148.776 1.40091 5.48079 0
M  V30 1564 H 147.333 1.98368 6.20881 0
M  V30 1565 N 150.766 -0.704594 1.40972 0
M  V30 1566 C 152.182 -1.01406 1.23244 0
M  V30 1567 C 152.382 -2.01169 0.115399 0
M  V30 1568 O 151.438 -2.47021 -0.523147 0
M  V30 1569 C 152.751 -1.54728 2.57836 0
M  V30 1570 C 154.299 -1.66658 2.64942 0
M  V30 1571 C 154.774 -2.23383 3.9983 0
M  V30 1572 N 156.265 -2.30756 4.01629 0
M  V30 1573 C 157 -2.75655 5.02794 0
M  V30 1574 N 156.496 -3.20225 6.14352 0
M  V30 1575 N 158.289 -2.75138 4.90159 0
M  V30 1576 H 150.44 -0.0435285 2.12355 0
M  V30 1577 H 152.703 -0.0818951 0.944456 0
M  V30 1578 H 152.409 -0.888832 3.40283 0
M  V30 1579 H 152.283 -2.53084 2.79693 0
M  V30 1580 H 154.67 -2.31617 1.8286 0
M  V30 1581 H 154.751 -0.668717 2.46904 0
M  V30 1582 H 154.395 -1.59043 4.82357 0
M  V30 1583 H 154.325 -3.23904 4.15203 0
M  V30 1584 H 156.816 -1.99291 3.21079 0
M  V30 1585 H 157.129 -3.53084 6.87424 0
M  V30 1586 H 155.474 -3.18156 6.17901 0
M  V30 1587 H 158.665 -2.39661 4.02095 0
M  V30 1588 H 158.838 -3.09812 5.6914 0
M  V30 1589 N 152.244 -1.26651 -0.937939 0
M  V30 1590 C 153.174 -1.10993 -2.05433 0
M  V30 1591 C 154.155 -0.0142161 -1.70094 0
M  V30 1592 O 155.34 -0.186837 -1.93299 0
M  V30 1593 C 152.47 -0.745561 -3.39203 0
M  V30 1594 C 151.424 -1.79337 -3.88616 0
M  V30 1595 C 150.75 -1.28324 -5.19073 0
M  V30 1596 C 152.05 -3.19553 -4.13138 0
M  V30 1597 H 153.744 -2.0438 -2.1879 0
M  V30 1598 H 151.29 -0.984041 -1.05131 0
M  V30 1599 H 153.243 -0.622888 -4.16771 0
M  V30 1600 H 151.967 0.22401 -3.25831 0
M  V30 1601 H 150.626 -1.90477 -3.13231 0
M  V30 1602 H 150.274 -0.303414 -5.02084 0
M  V30 1603 H 149.974 -1.98369 -5.53103 0
M  V30 1604 H 151.498 -1.1733 -5.99221 0
M  V30 1605 H 152.912 -3.11471 -4.81309 0
M  V30 1606 H 151.309 -3.87218 -4.58457 0
M  V30 1607 H 152.379 -3.65368 -3.18801 0
M  V30 1608 N 153.722 1.14298 -1.08507 0
M  V30 1609 C 154.95 1.89219 -0.836876 0
M  V30 1610 C 155.365 1.78638 0.611054 0
M  V30 1611 O 154.722 1.14643 1.41998 0
M  V30 1612 C 154.773 3.39158 -1.25116 0
M  V30 1613 O 154.494 3.49449 -2.64229 0
M  V30 1614 C 155.995 4.31073 -1.03398 0
M  V30 1615 H 153.215 0.599328 -0.301739 0
M  V30 1616 H 155.759 1.44746 -1.44461 0
M  V30 1617 H 153.914 3.81251 -0.687514 0
M  V30 1618 H 154.328 4.42589 -2.81452 0
M  V30 1619 H 155.802 5.34646 -1.37323 0
M  V30 1620 H 156.279 4.3919 0.0289259 0
M  V30 1621 H 156.885 3.94738 -1.58311 0
M  V30 1622 N 155.201 0.870884 1.31352 0
M  V30 1623 C 156.441 0.488783 1.9847 0
M  V30 1624 C 156.805 -0.941536 1.67329 0
M  V30 1625 O 158.006 -1.42903 2.27667 0
M  V30 1626 C 156.277 0.739688 3.49662 0
M  V30 1627 S 157.836 0.457582 4.36408 0
M  V30 1628 H 154.654 0.18242 0.6872 0
M  V30 1629 H 157.256 1.12711 1.59739 0
M  V30 1630 H 155.96 1.77944 3.69816 0
M  V30 1631 H 155.491 0.0883905 3.93301 0
M  V30 1632 H 157.506 -0.709752 4.91098 0
M  V30 1633 N 156.679 -1.44442 0.630414 0
M  V30 1634 C 157.589 -2.34476 -0.0761693 0
M  V30 1635 C 158.605 -1.52576 -0.836449 0
M  V30 1636 O 159.781 -1.85307 -0.788874 0
M  V30 1637 C 156.846 -3.30545 -1.04599 0
M  V30 1638 C 155.907 -4.28352 -0.28516 0
M  V30 1639 C 155.14 -5.19831 -1.20878 0
M  V30 1640 O 155.363 -5.15223 -2.44747 0
M  V30 1641 O 154.297 -5.97892 -0.693491 0
M  V30 1642 H 158.123 -2.96345 0.664324 0
M  V30 1643 H 155.708 -1.44203 0.39061 0
M  V30 1644 H 157.59 -3.89681 -1.60396 0
M  V30 1645 H 156.265 -2.7121 -1.76711 0
M  V30 1646 H 155.172 -3.72764 0.315837 0
M  V30 1647 H 156.505 -4.90605 0.395924 0
M  V30 1648 N 158.157 -0.370918 -1.53173 0
M  V30 1649 C 159.397 0.217106 -2.03244 0
M  V30 1650 C 159.761 1.45558 -1.25207 0
M  V30 1651 O 160.962 2.11957 -1.65311 0
M  V30 1652 C 159.233 0.496664 -3.53932 0
M  V30 1653 S 160.792 1.0576 -4.25864 0
M  V30 1654 H 157.61 0.0627827 -0.708223 0
M  V30 1655 H 160.212 -0.515019 -1.88594 0
M  V30 1656 H 158.916 -0.412096 -4.08326 0
M  V30 1657 H 158.447 1.25772 -3.72753 0
M  V30 1658 H 160.462 2.34145 -4.37482 0
M  V30 1659 N 159.635 1.57281 -0.100228 0
M  V30 1660 C 160.912 1.86014 0.604812 0
M  V30 1661 C 161.292 0.998025 1.86018 0
M  V30 1662 O 160.64 0.0718184 2.28387 0
M  V30 1663 C 160.85 3.36784 0.915278 0
M  V30 1664 C 162.198 4.04957 1.27651 0
M  V30 1665 O 163.222 3.41695 1.00613 0
M  V30 1666 O 162.081 5.16593 1.7831 0
M  V30 1667 H 159.175 0.76942 0.303185 0
M  V30 1668 H 161.721 1.69176 -0.133313 0
M  V30 1669 H 160.493 3.91292 0.0248896 0
M  V30 1670 H 160.116 3.58987 1.70921 0
M  V30 1671 N 161.113 -0.173488 1.56642 0
M  V30 1672 C 162.06 -1.21482 1.96242 0
M  V30 1673 C 163.03 -1.44104 0.826027 0
M  V30 1674 O 164.215 -1.5688 1.08597 0
M  V30 1675 C 161.355 -2.54964 2.32567 0
M  V30 1676 C 160.468 -2.39739 3.59373 0
M  V30 1677 C 159.603 -3.66072 3.84921 0
M  V30 1678 C 158.642 -3.45771 5.05083 0
M  V30 1679 N 157.779 -4.64169 5.26775 0
M  V30 1680 H 162.619 -0.870123 2.85014 0
M  V30 1681 H 160.156 -0.418245 1.41029 0
M  V30 1682 H 162.114 -3.32758 2.5165 0
M  V30 1683 H 160.744 -2.87433 1.46908 0
M  V30 1684 H 159.796 -1.53131 3.48217 0
M  V30 1685 H 161.108 -2.20683 4.47326 0
M  V30 1686 H 160.262 -4.52303 4.0436 0
M  V30 1687 H 159.001 -3.88105 2.9534 0
M  V30 1688 H 158.006 -2.57927 4.85545 0
M  V30 1689 H 159.231 -3.25163 5.96193 0
M  V30 1690 H 157.177 -4.86425 4.40144 0
M  V30 1691 H 157.094 -4.48019 6.08946 0
M  V30 1692 H 158.362 -5.51689 5.5069 0
M  V30 1693 N 162.591 -1.51276 -0.441967 0
M  V30 1694 C 164.007 -1.39349 -0.778083 0
M  V30 1695 C 164.207 -0.472212 -1.95889 0
M  V30 1696 O 163.263 0.0743551 -2.5239 0
M  V30 1697 C 164.576 -2.81292 -1.0628 0
M  V30 1698 C 166.124 -2.9041 -1.16751 0
M  V30 1699 C 166.599 -4.33251 -1.48519 0
M  V30 1700 N 168.09 -4.36336 -1.55453 0
M  V30 1701 C 168.825 -5.43885 -1.81596 0
M  V30 1702 N 168.321 -6.61601 -2.05562 0
M  V30 1703 N 170.114 -5.3136 -1.8334 0
M  V30 1704 H 162.265 -2.09729 0.335774 0
M  V30 1705 H 164.528 -0.943925 0.0878028 0
M  V30 1706 H 164.234 -3.50678 -0.267905 0
M  V30 1707 H 164.108 -3.20334 -1.99163 0
M  V30 1708 H 166.495 -2.21225 -1.95304 0
M  V30 1709 H 166.576 -2.54871 -0.217801 0
M  V30 1710 H 166.22 -5.02984 -0.704958 0
M  V30 1711 H 166.15 -4.66299 -2.44689 0
M  V30 1712 H 168.641 -3.51466 -1.38853 0
M  V30 1713 H 168.954 -7.39361 -2.24867 0
M  V30 1714 H 167.299 -6.64725 -2.02894 0
M  V30 1715 H 170.49 -4.38382 -1.64132 0
M  V30 1716 H 170.663 -6.15258 -2.03377 0
M  V30 1717 N 164.069 0.697108 -1.41344 0
M  V30 1718 C 165.032 1.79281 -1.42797 0
M  V30 1719 C 166.032 1.57607 -0.318837 0
M  V30 1720 O 167.222 1.64309 -0.578642 0
M  V30 1721 C 164.354 3.17632 -1.23785 0
M  V30 1722 H 165.547 1.79385 -2.40335 0
M  V30 1723 H 163.1 0.904582 -1.27464 0
M  V30 1724 H 163.835 3.23167 -0.270814 0
M  V30 1725 H 163.62 3.34765 -2.04144 0
M  V30 1726 H 165.11 3.97617 -1.27633 0
M  V30 1727 N 165.547 1.27147 0.931209 0
M  V30 1728 C 166.51 1.09615 2.01289 0
M  V30 1729 C 167.51 0.0412581 1.60747 0
M  V30 1730 O 168.7 0.285545 1.71844 0
M  V30 1731 C 165.832 0.669447 3.34262 0
M  V30 1732 H 167.025 2.05662 2.18273 0
M  V30 1733 H 164.578 1.09885 1.11153 0
M  V30 1734 H 165.313 -0.292572 3.22978 0
M  V30 1735 H 165.098 1.43127 3.65044 0
M  V30 1736 H 166.588 0.568921 4.13706 0
M  V30 1737 N 167.025 -1.13721 1.09112 0
M  V30 1738 C 167.955 -2.21148 0.749385 0
M  V30 1739 C 168.936 -1.6792 -0.271475 0
M  V30 1740 O 170.121 -1.93693 -0.140251 0
M  V30 1741 C 167.251 -3.46905 0.165659 0
M  V30 1742 C 166.205 -4.13203 1.11567 0
M  V30 1743 C 165.531 -5.33248 0.393809 0
M  V30 1744 C 166.831 -4.60912 2.45678 0
M  V30 1745 H 168.525 -2.4999 1.64758 0
M  V30 1746 H 166.071 -1.20156 0.793626 0
M  V30 1747 H 168.024 -4.21313 -0.085466 0
M  V30 1748 H 166.748 -3.17449 -0.767714 0
M  V30 1749 H 165.407 -3.40758 1.35202 0
M  V30 1750 H 165.055 -5.00054 -0.543599 0
M  V30 1751 H 164.755 -5.78552 1.02721 0
M  V30 1752 H 166.279 -6.10413 0.150908 0
M  V30 1753 H 167.693 -5.26759 2.26269 0
M  V30 1754 H 166.09 -5.16944 3.04776 0
M  V30 1755 H 167.16 -3.75603 3.06677 0
M  V30 1756 N 168.503 -0.877838 -1.30888 0
M  V30 1757 C 169.743 -0.499301 -1.98208 0
M  V30 1758 C 170.107 0.932649 -1.67826 0
M  V30 1759 O 171.308 1.41694 -2.28421 0
M  V30 1760 C 169.579 -0.758221 -3.49265 0
M  V30 1761 S 171.138 -0.480719 -4.36159 0
M  V30 1762 H 167.956 -0.186062 -0.686223 0
M  V30 1763 H 170.558 -1.13556 -1.59139 0
M  V30 1764 H 169.262 -1.79903 -3.68867 0
M  V30 1765 H 168.793 -0.109247 -3.93248 0
M  V30 1766 H 170.808 0.683698 -4.91467 0
M  V30 1767 N 169.982 1.44106 -0.638065 0
M  V30 1768 C 171.229 2.01978 -0.14533 0
M  V30 1769 C 171.557 1.50234 1.23532 0
M  V30 1770 O 170.812 0.679548 1.83523 0
M  V30 1771 C 171.111 3.5729 -0.0887327 0
M  V30 1772 C 170.777 4.28317 -1.40909 0
M  V30 1773 C 169.439 4.47437 -1.77069 0
M  V30 1774 C 171.791 4.6867 -2.28031 0
M  V30 1775 C 169.119 5.04171 -3.00047 0
M  V30 1776 C 171.471 5.26766 -3.50286 0
M  V30 1777 C 170.135 5.44104 -3.86661 0
M  V30 1778 H 169.405 0.739089 -0.0531801 0
M  V30 1779 H 172.052 1.72781 -0.825761 0
M  V30 1780 H 170.357 3.8594 0.675095 0
M  V30 1781 H 172.054 3.99807 0.309145 0
M  V30 1782 H 168.644 4.1377 -1.1177 0
M  V30 1783 H 172.828 4.53604 -2.01388 0
M  V30 1784 H 168.084 5.15782 -3.28298 0
M  V30 1785 H 172.258 5.56983 -4.18023 0
M  V30 1786 H 169.885 5.87832 -4.82034 0
M  V30 1787 N 171.46 0.379036 1.52974 0
M  V30 1788 C 172.876 0.0285448 1.59574 0
M  V30 1789 C 173.076 -1.45542 1.39355 0
M  V30 1790 O 172.132 -2.2187 1.20541 0
M  V30 1791 C 173.445 0.496535 2.96572 0
M  V30 1792 C 174.993 0.451909 3.0972 0
M  V30 1793 C 175.468 0.895924 4.49152 0
M  V30 1794 N 176.959 0.851522 4.55306 0
M  V30 1795 C 177.694 1.16661 5.61407 0
M  V30 1796 N 177.19 1.55166 6.752 0
M  V30 1797 N 178.983 1.08853 5.51459 0
M  V30 1798 H 171.134 1.34525 1.64367 0
M  V30 1799 H 173.397 0.550733 0.771619 0
M  V30 1800 H 173.103 1.53258 3.16552 0
M  V30 1801 H 172.977 -0.109802 3.7704 0
M  V30 1802 H 175.364 -0.575029 2.89443 0
M  V30 1803 H 175.445 1.09392 2.3123 0
M  V30 1804 H 175.089 1.92104 4.70168 0
M  V30 1805 H 175.019 0.23103 5.26093 0
M  V30 1806 H 177.51 0.568038 3.73606 0
M  V30 1807 H 177.823 1.776 7.52116 0
M  V30 1808 H 176.168 1.59044 6.76557 0
M  V30 1809 H 179.359 0.786803 4.6144 0
M  V30 1810 H 179.532 1.33742 6.34048 0
M  V30 1811 N 172.938 -1.57226 0.108567 0
M  V30 1812 C 174.354 -1.5766 -0.248058 0
M  V30 1813 C 174.554 -1.12063 -1.67464 0
M  V30 1814 O 173.61 -0.803236 -2.39383 0
M  V30 1815 C 174.923 -3.0069 -0.0242287 0
M  V30 1816 C 176.471 -3.12868 -0.0909372 0
M  V30 1817 C 176.946 -4.57879 0.105067 0
M  V30 1818 N 178.437 -4.63172 0.0506846 0
M  V30 1819 C 179.172 -5.73126 0.177396 0
M  V30 1820 N 178.668 -6.91866 0.359696 0
M  V30 1821 N 180.461 -5.61977 0.117709 0
M  V30 1822 H 172.612 -1.85169 1.04049 0
M  V30 1823 H 174.875 -0.85529 0.40888 0
M  V30 1824 H 174.581 -3.38299 0.961604 0
M  V30 1825 H 174.455 -3.6945 -0.76068 0
M  V30 1826 H 176.842 -2.75124 -1.06729 0
M  V30 1827 H 176.923 -2.46672 0.677225 0
M  V30 1828 H 176.567 -4.96321 1.07834 0
M  V30 1829 H 176.497 -5.22153 -0.682954 0
M  V30 1830 H 178.988 -3.778 -0.0871266 0
M  V30 1831 H 179.301 -7.71503 0.447529 0
M  V30 1832 H 177.646 -6.93874 0.395536 0
M  V30 1833 H 180.837 -4.68094 -0.0236741 0
M  V30 1834 H 181.01 -6.47627 0.219905 0
M  V30 1835 N 174.416 0.165178 -1.56732 0
M  V30 1836 C 175.364 1.22369 -1.97809 0
M  V30 1837 C 176.358 1.45488 -0.867741 0
M  V30 1838 O 177.564 1.45995 -1.05288 0
M  V30 1839 H 173.939 0.411486 -0.629431 0
M  V30 1840 H 175.91 0.850425 -2.86025 0
M  V30 1841 C 174.659 2.55403 -2.35934 0
M  V30 1842 H 173.982 2.38438 -3.20916 0
M  V30 1843 H 175.422 3.2814 -2.68514 0
M  V30 1844 C 173.881 3.14611 -1.20506 0
M  V30 1845 O 174.411 3.98626 -0.496016 0
M  V30 1846 N 172.617 2.7379 -0.97403 0
M  V30 1847 H 172.164 2.0557 -1.55238 0
M  V30 1848 H 172.122 3.1374 -0.203573 0
M  V30 1849 N 175.894 1.51508 0.433938 0
M  V30 1850 C 176.824 1.76016 1.53429 0
M  V30 1851 C 177.805 0.610112 1.58782 0
M  V30 1852 O 178.99 0.853177 1.74455 0
M  V30 1853 C 176.12 1.88831 2.9148 0
M  V30 1854 C 175.074 3.04288 3.00987 0
M  V30 1855 C 174.4 3.0229 4.4105 0
M  V30 1856 C 175.7 4.44193 2.74754 0
M  V30 1857 H 177.394 2.68152 1.33171 0
M  V30 1858 H 174.94 1.29035 0.639214 0
M  V30 1859 H 176.893 2.04559 3.6842 0
M  V30 1860 H 175.617 0.933455 3.12976 0
M  V30 1861 H 174.276 2.8827 2.26486 0
M  V30 1862 H 173.924 2.04576 4.59519 0
M  V30 1863 H 173.624 3.79822 4.4834 0
M  V30 1864 H 175.148 3.20116 5.1996 0
M  V30 1865 H 176.562 4.60544 3.41426 0
M  V30 1866 H 174.959 5.23457 2.9345 0
M  V30 1867 H 176.029 4.53996 1.70339 0
M  V30 1868 N 177.372 -0.689602 1.41712 0
M  V30 1869 C 178.62 -1.4468 1.4111 0
M  V30 1870 C 178.941 -1.94986 0.0232196 0
M  V30 1871 O 178.211 -1.72097 -0.935913 0
M  V30 1872 H 176.791 -0.536847 0.519427 0
M  V30 1873 H 179.453 -0.815825 1.77004 0
M  V30 1874 H 178.549 -2.30706 2.10193 0
M  V30 1875 N 178.85 -1.27639 -0.924453 0
M  V30 1876 C 180.078 -1.16989 -1.70649 0
M  V30 1877 C 180.493 0.272869 -1.86818 0
M  V30 1878 O 179.85 1.18549 -1.38753 0
M  V30 1879 C 179.901 -1.85229 -3.10439 0
M  V30 1880 O 179.622 -3.23868 -2.95028 0
M  V30 1881 C 181.123 -1.80746 -4.04779 0
M  V30 1882 H 178.343 -0.406595 -0.53378 0
M  V30 1883 H 180.887 -1.68569 -1.15778 0
M  V30 1884 H 179.042 -1.37545 -3.6216 0
M  V30 1885 H 179.456 -3.57889 -3.83426 0
M  V30 1886 H 180.93 -2.33101 -5.00368 0
M  V30 1887 H 181.407 -0.777499 -4.32263 0
M  V30 1888 H 182.013 -2.28059 -3.58984 0
M  V30 1889 N 180.328 1.1314 -1.09713 0
M  V30 1890 C 181.558 1.88048 -0.855656 0
M  V30 1891 C 181.966 1.79537 0.596919 0
M  V30 1892 O 181.309 1.16196 1.42282 0
M  V30 1893 C 181.371 3.38314 -1.21589 0
M  V30 1894 C 181.035 3.70605 -2.67397 0
M  V30 1895 C 182.032 3.69596 -3.65643 0
M  V30 1896 C 179.717 4.0017 -3.03593 0
M  V30 1897 C 181.711 3.977 -4.9811 0
M  V30 1898 C 179.398 4.27935 -4.36251 0
M  V30 1899 C 180.396 4.26685 -5.33318 0
M  V30 1900 O 180.084 4.53767 -6.63589 0
M  V30 1901 H 179.816 0.60208 -0.307368 0
M  V30 1902 H 182.37 1.44128 -1.46343 0
M  V30 1903 H 180.6 3.82752 -0.551177 0
M  V30 1904 H 182.289 3.94552 -0.953083 0
M  V30 1905 H 183.055 3.46826 -3.39023 0
M  V30 1906 H 178.934 4.00289 -2.2867 0
M  V30 1907 H 182.478 3.9664 -5.73866 0
M  V30 1908 H 178.375 4.50178 -4.62613 0
M  V30 1909 H 179.143 4.71422 -6.69107 0
M  V30 1910 N 181.806 0.884767 1.30421 0
M  V30 1911 C 182.754 0.340869 2.30089 0
M  V30 1912 C 183.748 -0.55201 1.60154 0
M  V30 1913 O 184.954 -0.436467 1.74628 0
M  V30 1914 H 181.329 0.0915739 0.746404 0
M  V30 1915 H 183.3 1.19513 2.73421 0
M  V30 1916 C 182.049 -0.429779 3.45034 0
M  V30 1917 H 181.372 0.248024 3.9903 0
M  V30 1918 H 182.812 -0.775445 4.16849 0
M  V30 1919 C 181.271 -1.62677 2.95022 0
M  V30 1920 O 181.801 -2.72614 2.95033 0
M  V30 1921 N 180.007 -1.46387 2.51036 0
M  V30 1922 H 179.554 -0.569506 2.51226 0
M  V30 1923 H 179.512 -2.26612 2.17932 0
M  V30 1924 N 183.284 -1.43765 0.645699 0
M  V30 1925 C 184.7 -1.56509 0.312591 0
M  V30 1926 C 184.9 -1.6307 -1.18365 0
M  V30 1927 O 183.956 -1.58167 -1.96824 0
M  V30 1928 C 185.269 -2.82968 1.01733 0
M  V30 1929 C 186.817 -2.96701 0.996865 0
M  V30 1930 C 187.292 -4.25982 1.68236 0
M  V30 1931 N 188.783 -4.32829 1.64964 0
M  V30 1932 C 189.518 -5.31613 2.14885 0
M  V30 1933 N 189.014 -6.36718 2.73061 0
M  V30 1934 N 190.807 -5.23217 2.05428 0
M  V30 1935 H 182.958 -1.3775 1.61675 0
M  V30 1936 H 185.221 -0.661067 0.679481 0
M  V30 1937 H 184.927 -2.84156 2.0724 0
M  V30 1938 H 184.801 -3.72957 0.564177 0
M  V30 1939 H 187.188 -2.95058 -0.0497719 0
M  V30 1940 H 187.269 -2.08022 1.48865 0
M  V30 1941 H 186.913 -4.28386 2.72852 0
M  V30 1942 H 186.843 -5.13545 1.16529 0
M  V30 1943 H 189.334 -3.57493 1.22503 0
M  V30 1944 H 189.647 -7.08401 3.08848 0
M  V30 1945 H 187.992 -6.37362 2.77118 0
M  V30 1946 H 191.183 -4.40019 1.59689 0
M  V30 1947 H 191.356 -6.00045 2.44643 0
M  V30 1948 N 184.763 -0.387143 -1.52771 0
M  V30 1949 C 185.71 0.449048 -2.26389 0
M  V30 1950 C 186.68 1.05961 -1.27912 0
M  V30 1951 O 187.865 1.08804 -1.56737 0
M  V30 1952 C 185.005 1.57155 -3.0724 0
M  V30 1953 C 184.118 0.984066 -4.20643 0
M  V30 1954 C 183.253 2.07745 -4.88892 0
M  V30 1955 C 182.292 1.46574 -5.94292 0
M  V30 1956 N 181.429 2.49834 -6.56146 0
M  V30 1957 H 186.269 -0.185205 -2.97424 0
M  V30 1958 H 183.806 -0.103164 -1.46738 0
M  V30 1959 H 185.764 2.23309 -3.52405 0
M  V30 1960 H 184.394 2.17615 -2.38419 0
M  V30 1961 H 183.446 0.212193 -3.79808 0
M  V30 1962 H 184.758 0.497029 -4.96318 0
M  V30 1963 H 183.912 2.81673 -5.3735 0
M  V30 1964 H 182.651 2.59807 -4.12737 0
M  V30 1965 H 181.656 0.711696 -5.45174 0
M  V30 1966 H 182.881 0.953088 -6.72379 0
M  V30 1967 H 180.827 3.0107 -5.82832 0
M  V30 1968 H 180.744 2.05879 -7.27427 0
M  V30 1969 H 182.012 3.23399 -7.09249 0
M  V30 1970 N 186.241 1.57166 -0.116904 0
M  V30 1971 C 187.471 1.99184 0.548586 0
M  V30 1972 C 187.879 0.995436 1.60897 0
M  V30 1973 O 187.222 -0.0201293 1.83689 0
M  V30 1974 C 187.284 3.37611 1.23526 0
M  V30 1975 C 186.948 4.55857 0.323077 0
M  V30 1976 C 187.945 5.18056 -0.437476 0
M  V30 1977 C 185.63 5.01751 0.234761 0
M  V30 1978 C 187.624 6.24536 -1.2741 0
M  V30 1979 C 185.311 6.08093 -0.605496 0
M  V30 1980 C 186.309 6.69352 -1.35856 0
M  V30 1981 O 185.997 7.7364 -2.18487 0
M  V30 1982 H 185.729 0.659148 0.149999 0
M  V30 1983 H 188.283 2.0443 -0.199428 0
M  V30 1984 H 186.513 3.29113 2.0303 0
M  V30 1985 H 188.202 3.63932 1.79745 0
M  V30 1986 H 188.968 4.83516 -0.379105 0
M  V30 1987 H 184.847 4.53817 0.810601 0
M  V30 1988 H 188.391 6.72281 -1.86237 0
M  V30 1989 H 184.288 6.42063 -0.665268 0
M  V30 1990 H 185.056 7.90727 -2.11406 0
M  V30 1991 N 187.719 -0.156864 1.56817 0
M  V30 1992 C 188.682 -1.17781 1.96622 0
M  V30 1993 C 189.682 -1.36401 0.851555 0
M  V30 1994 O 190.872 -1.33561 1.11836 0
M  V30 1995 C 188.004 -2.54008 2.27361 0
M  V30 1996 H 189.197 -0.836564 2.87996 0
M  V30 1997 H 186.75 -0.39985 1.51099 0
M  V30 1998 H 187.485 -2.9312 1.38748 0
M  V30 1999 H 187.27 -2.41856 3.08623 0
M  V30 2000 H 188.76 -3.27558 2.59029 0
M  V30 2001 N 189.197 -1.51736 -0.425897 0
M  V30 2002 C 190.147 -1.70258 -1.51645 0
M  V30 2003 C 191.131 -0.556488 -1.5097 0
M  V30 2004 O 192.323 -0.812879 -1.5723 0
M  V30 2005 C 189.452 -1.84143 -2.89735 0
M  V30 2006 C 188.538 -3.04572 -2.95122 0
M  V30 2007 N 188.929 -4.2756 -2.70233 0
M  V30 2008 C 187.227 -3.04061 -3.26286 0
M  V30 2009 C 187.928 -5.08908 -2.81757 0
M  V30 2010 N 186.904 -4.43797 -3.13919 0
M  V30 2011 H 190.706 -2.63004 -1.31172 0
M  V30 2012 H 188.22 -1.4954 -0.633375 0
M  V30 2013 H 190.217 -1.95525 -3.68206 0
M  V30 2014 H 188.877 -0.925857 -3.1122 0
M  V30 2015 H 189.888 -4.56315 -2.44943 0
M  V30 2016 H 186.565 -2.22179 -3.53473 0
M  V30 2017 H 187.955 -6.16843 -2.66372 0
M  V30 2018 N 190.675 0.682077 -1.42076 0
M  V30 2019 C 191.905 1.46844 -1.45329 0
M  V30 2020 C 192.313 1.89102 -0.0609328 0
M  V30 2021 O 191.656 1.58238 0.933082 0
M  V30 2022 C 191.718 2.75375 -2.31104 0
M  V30 2023 C 191.382 2.55238 -3.79081 0
M  V30 2024 C 192.379 2.20309 -4.70914 0
M  V30 2025 C 190.064 2.70459 -4.2327 0
M  V30 2026 C 192.058 2.00859 -6.04925 0
M  V30 2027 C 189.745 2.50624 -5.57343 0
M  V30 2028 C 190.743 2.15876 -6.47986 0
M  V30 2029 O 190.431 1.96227 -7.79583 0
M  V30 2030 H 190.163 0.4586 -0.496651 0
M  V30 2031 H 192.717 0.846131 -1.87162 0
M  V30 2032 H 190.947 3.40061 -1.84107 0
M  V30 2033 H 192.636 3.37231 -2.25898 0
M  V30 2034 H 193.402 2.08153 -4.38061 0
M  V30 2035 H 189.281 2.96485 -3.53012 0
M  V30 2036 H 192.825 1.7366 -6.75639 0
M  V30 2037 H 188.722 2.62375 -5.89771 0
M  V30 2038 H 189.49 2.10883 -7.90867 0
M  V30 2039 N 192.153 1.28127 0.917671 0
M  V30 2040 C 193.564 1.13622 1.48145 0
M  V30 2041 C 193.915 -0.275207 1.9426 0
M  V30 2042 O 193.04 -1.1691 1.82102 0
M  V30 2043 C 193.635 2.05648 2.69248 0
M  V30 2044 C 192.194 1.95219 3.21818 0
M  V30 2045 C 191.341 1.97618 1.94532 0
M  V30 2046 H 194.292 1.40874 0.730772 0
M  V30 2047 H 194.313 1.61818 3.44377 0
M  V30 2048 H 193.825 3.08365 2.35653 0
M  V30 2049 H 191.926 0.955244 3.60147 0
M  V30 2050 H 192.039 2.81976 3.87333 0
M  V30 2051 H 190.403 1.41973 2.11461 0
M  V30 2052 H 191.186 3.02007 1.63238 0
M  V30 2053 N 193.631 -1.12557 1.10312 0
M  V30 2054 C 194.579 -2.20325 0.745629 0
M  V30 2055 C 195.573 -1.67429 -0.25763 0
M  V30 2056 O 196.779 -1.79612 -0.118132 0
M  V30 2057 H 193.154 -0.718118 0.223182 0
M  V30 2058 H 195.125 -2.47733 1.66346 0
M  V30 2059 C 193.874 -3.47168 0.192262 0
M  V30 2060 H 193.197 -3.88215 0.955475 0
M  V30 2061 H 194.637 -4.23995 -0.0198274 0
M  V30 2062 C 193.096 -3.19298 -1.07472 0
M  V30 2063 O 193.626 -3.3891 -2.15645 0
M  V30 2064 N 191.832 -2.73113 -0.992847 0
M  V30 2065 H 191.379 -2.57354 -0.112474 0
M  V30 2066 H 191.337 -2.54842 -1.84127 0
M  V30 2067 N 195.109 -0.891671 -1.2995 0
M  V30 2068 C 196.056 -0.361736 -2.27948 0
M  V30 2069 C 197.026 0.551761 -1.56668 0
M  V30 2070 O 198.211 0.478736 -1.84696 0
M  V30 2071 C 195.351 0.411825 -3.42634 0
M  V30 2072 C 194.464 -0.531651 -4.28716 0
M  V30 2073 C 193.599 0.258167 -5.30572 0
M  V30 2074 C 192.638 -0.680349 -6.08307 0
M  V30 2075 N 191.775 0.0745613 -7.0206 0
M  V30 2076 H 196.615 -1.20254 -2.72659 0
M  V30 2077 H 194.152 -0.604352 -1.34112 0
M  V30 2078 H 196.11 0.876304 -4.07893 0
M  V30 2079 H 194.74 1.21715 -2.98974 0
M  V30 2080 H 193.792 -1.11463 -3.63703 0
M  V30 2081 H 195.104 -1.25038 -4.82874 0
M  V30 2082 H 194.258 0.784204 -6.0161 0
M  V30 2083 H 192.997 1.01008 -4.77126 0
M  V30 2084 H 192.002 -1.21796 -5.3614 0
M  V30 2085 H 193.227 -1.43145 -6.63842 0
M  V30 2086 H 191.173 0.808883 -6.50994 0
M  V30 2087 H 191.09 -0.584409 -7.53738 0
M  V30 2088 H 192.358 0.581123 -7.77331 0
M  V30 2089 N 196.587 1.43421 -0.653314 0
M  V30 2090 C 197.517 2.33487 0.0246656 0
M  V30 2091 C 198.498 1.49475 0.811863 0
M  V30 2092 O 199.683 1.78139 0.773322 0
M  V30 2093 C 196.813 3.32841 0.99166 0
M  V30 2094 C 195.767 4.26842 0.314568 0
M  V30 2095 C 195.093 5.16236 1.39302 0
M  V30 2096 C 196.393 5.16243 -0.793095 0
M  V30 2097 H 198.087 2.90427 -0.727481 0
M  V30 2098 H 195.633 1.39649 -0.351287 0
M  V30 2099 H 197.586 3.94747 1.47487 0
M  V30 2100 H 196.31 2.74158 1.77497 0
M  V30 2101 H 194.969 3.663 -0.148199 0
M  V30 2102 H 194.617 4.53891 2.16776 0
M  V30 2103 H 194.317 5.79948 0.945223 0
M  V30 2104 H 195.841 5.81015 1.87759 0
M  V30 2105 H 197.255 5.71958 -0.392039 0
M  V30 2106 H 195.652 5.88676 -1.16536 0
M  V30 2107 H 196.722 4.55927 -1.65103 0
M  V30 2108 N 198.065 0.39524 1.52563 0
M  V30 2109 C 199.305 -0.184744 2.03563 0
M  V30 2110 C 199.669 -1.43548 1.27507 0
M  V30 2111 O 200.87 -2.093 1.68662 0
M  V30 2112 C 199.141 -0.440294 3.54678 0
M  V30 2113 S 200.7 -0.989712 4.27493 0
M  V30 2114 H 197.518 -0.0515075 0.709132 0
M  V30 2115 H 200.12 0.544957 1.87751 0
M  V30 2116 H 198.824 0.477005 4.07618 0
M  V30 2117 H 198.355 -1.19825 3.74707 0
M  V30 2118 H 200.37 -2.27155 4.41152 0
M  V30 2119 N 199.544 -1.57102 0.125237 0
M  V30 2120 C 200.772 -1.99761 -0.538797 0
M  V30 2121 C 201.187 -1.00503 -1.59827 0
M  V30 2122 O 200.544 0.00119474 -1.825 0
M  V30 2123 C 200.595 -3.42408 -1.15927 0
M  V30 2124 O 200.316 -4.37869 -0.142143 0
M  V30 2125 C 201.817 -4.00232 -1.90602 0
M  V30 2126 H 199.037 -0.655772 -0.14214 0
M  V30 2127 H 201.581 -2.03383 0.213413 0
M  V30 2128 H 199.736 -3.39706 -1.86223 0
M  V30 2129 H 200.15 -5.21128 -0.593775 0
M  V30 2130 H 201.624 -5.02105 -2.29335 0
M  V30 2131 H 202.101 -3.39721 -2.78363 0
M  V30 2132 H 202.707 -4.06499 -1.25055 0
M  V30 2133 N 201.022 0.148545 -1.56898 0
M  V30 2134 C 202.27 0.859717 -1.82902 0
M  V30 2135 C 202.591 1.81775 -0.70588 0
M  V30 2136 O 201.861 1.93994 0.272586 0
M  V30 2137 H 200.441 0.320469 -0.674766 0
M  V30 2138 H 203.103 0.142918 -1.94375 0
M  V30 2139 H 202.199 1.4229 -2.77777 0
M  V30 2140 N 202.5 1.5196 0.417844 0
M  V30 2141 C 203.911 1.57851 0.997 0
M  V30 2142 C 204.262 0.413714 1.91789 0
M  V30 2143 O 203.387 -0.467057 2.113 0
M  V30 2144 C 203.982 2.86085 1.81496 0
M  V30 2145 C 202.541 2.94483 2.34428 0
M  V30 2146 C 201.688 2.52707 1.14169 0
M  V30 2147 H 204.639 1.57455 0.198392 0
M  V30 2148 H 204.66 2.70947 2.67148 0
M  V30 2149 H 204.172 3.70842 1.14446 0
M  V30 2150 H 202.273 2.142 3.04875 0
M  V30 2151 H 202.386 3.98546 2.65891 0
M  V30 2152 H 200.75 2.06353 1.49301 0
M  V30 2153 H 201.533 3.39828 0.486999 0
M  V30 2154 N 203.978 -0.674533 1.42435 0
M  V30 2155 C 205.206 -1.46283 1.46317 0
M  V30 2156 C 205.621 -1.88653 0.0745836 0
M  V30 2157 O 204.978 -1.58151 -0.91074 0
M  V30 2158 C 205.029 -2.71178 2.3905 0
M  V30 2159 O 204.75 -2.30586 3.72507 0
M  V30 2160 C 206.251 -3.64738 2.51955 0
M  V30 2161 H 203.471 -0.450104 0.497642 0
M  V30 2162 H 206.015 -0.828792 1.86953 0
M  V30 2163 H 204.17 -3.3077 2.01667 0
M  V30 2164 H 204.584 -3.11241 4.22172 0
M  V30 2165 H 206.058 -4.49096 3.20962 0
M  V30 2166 H 206.535 -4.10656 1.55752 0
M  V30 2167 H 207.141 -3.11038 2.90061 0
M  V30 2168 N 205.456 -1.28612 -0.910864 0
M  V30 2169 C 206.867 -1.14406 -1.47541 0
M  V30 2170 C 207.218 0.264901 -1.94403 0
M  V30 2171 O 206.343 1.15942 -1.82719 0
M  V30 2172 C 206.938 -2.07073 -2.68153 0
M  V30 2173 C 205.497 -1.96923 -3.20778 0
M  V30 2174 C 204.644 -1.98646 -1.93481 0
M  V30 2175 H 207.595 -1.41259 -0.723291 0
M  V30 2176 H 207.616 -1.63642 -3.43514 0
M  V30 2177 H 207.128 -3.09611 -2.34015 0
M  V30 2178 H 205.229 -0.97433 -3.59635 0
M  V30 2179 H 205.342 -2.84026 -3.85832 0
M  V30 2180 H 203.706 -1.43093 -2.10705 0
M  V30 2181 H 204.489 -3.02868 -1.61634 0
M  V30 2182 N 206.934 1.1197 -1.10907 0
M  V30 2183 C 208.345 1.65114 -0.871446 0
M  V30 2184 C 208.696 1.86885 0.597353 0
M  V30 2185 O 207.821 1.59896 1.45816 0
M  V30 2186 C 208.416 2.99944 -1.5754 0
M  V30 2187 C 206.975 3.50018 -1.38435 0
M  V30 2188 C 206.122 2.24941 -1.62164 0
M  V30 2189 H 209.073 0.956851 -1.2661 0
M  V30 2190 H 209.094 3.66651 -1.01721 0
M  V30 2191 H 208.606 2.84067 -2.64438 0
M  V30 2192 H 206.707 3.71071 -0.337214 0
M  V30 2193 H 206.82 4.29165 -2.12965 0
M  V30 2194 H 205.184 2.3229 -1.04467 0
M  V30 2195 H 205.967 2.11612 -2.70324 0
M  V30 2196 N 208.412 0.89855 1.29475 0
M  V30 2197 C 209.652 0.530771 1.97388 0
M  V30 2198 C 210.016 -0.905832 1.69289 0
M  V30 2199 O 211.217 -1.38042 2.30646 0
M  V30 2200 C 209.488 0.81369 3.48014 0
M  V30 2201 S 211.047 0.550048 4.35339 0
M  V30 2202 H 207.865 0.196956 0.683176 0
M  V30 2203 H 210.467 1.16074 1.57312 0
M  V30 2204 H 209.171 1.85749 3.65958 0
M  V30 2205 H 208.702 0.171795 3.93025 0
M  V30 2206 H 210.717 -0.605423 4.92493 0
M  V30 2207 O 209.929 -1.40275 0.80033 0
M  V30 2208 H 210.62 -1.90048 0.374337 0
M  V30 END ATOM
M  V30 BEGIN BOND
M  V30 END BOND
M  V30 END CTAB
M  END
$$$$
