drugbank_target|Q9H3M0 Potassium voltage-gated channel subfamily F member 1 (DB00228; DB01069; DB01110)
 OpenBabel12092121213D

  0  0  0     0  0            999 V3000
M  V30 BEGIN CTAB
M  V30 COUNTS 7827 7912 0 0 0
M  V30 BEGIN ATOM
M  V30 1 H -0.908 1.98254 -0.117106 0
M  V30 2 N 0 1.576 0 0
M  V30 3 C 0.933 2.03868 1.02534 0
M  V30 4 C 1.911 0.928543 1.3348 0
M  V30 5 O 3.095 1.19667 1.45644 0
M  V30 6 C 0.222 2.43627 2.35294 0
M  V30 7 C -0.732 3.65373 2.2001 0
M  V30 8 S 0.101 5.13292 1.52614 0
M  V30 9 C 1.257 5.56322 2.86805 0
M  V30 10 H 1.49 2.90518 0.631377 0
M  V30 11 H -0.977 1.52953 0.210867 0
M  V30 12 H 0.981 2.67203 3.11629 0
M  V30 13 H -0.358 1.57376 2.7183 0
M  V30 14 H -1.165 3.90944 3.18086 0
M  V30 15 H -1.563 3.418 1.51819 0
M  V30 16 H 0.729 5.58782 3.83104 0
M  V30 17 H 1.672 6.56266 2.65933 0
M  V30 18 H 2.08 4.83886 2.90714 0
M  V30 19 N 1.4781 -0.272755 1.55222 0
M  V30 20 C 2.7551 -1.02562 1.66555 0
M  V30 21 C 3.1351 -2.04282 0.532189 0
M  V30 22 O 2.4831 -2.23662 -0.467717 0
M  V30 23 C 2.6931 -1.6822 3.05782 0
M  V30 24 C 4.0411 -2.19373 3.63539 0
M  V30 25 O 5.0651 -1.78206 3.08417 0
M  V30 26 O 3.9241 -2.94883 4.60115 0
M  V30 27 H 1.0181 -0.475755 0.676451 0
M  V30 28 H 3.5641 -0.268593 1.67561 0
M  V30 29 H 2.3361 -0.945112 3.79715 0
M  V30 30 H 1.9591 -2.50609 3.08676 0
M  V30 31 N 2.9562 -1.48159 -0.537278 0
M  V30 32 C 4.2042 -1.55497 -1.29094 0
M  V30 33 C 4.5252 -0.227454 -1.93669 0
M  V30 34 O 3.7952 0.750386 -1.80959 0
M  V30 35 H 2.3752 -0.572832 -0.47945 0
M  V30 36 H 5.0372 -1.84579 -0.625818 0
M  V30 37 H 4.1332 -2.33216 -2.07405 0
M  V30 38 N 4.4343 0.785586 -1.36625 0
M  V30 39 C 5.6593 1.57963 -1.34397 0
M  V30 40 C 6.0843 1.87964 0.071526 0
M  V30 41 O 5.4423 1.48182 1.0446 0
M  V30 42 C 5.4903 2.87511 -2.17646 0
M  V30 43 O 4.5943 3.81281 -1.57158 0
M  V30 44 H 3.9353 0.479014 -0.459828 0
M  V30 45 H 6.4653 0.973411 -1.79961 0
M  V30 46 H 6.4753 3.36745 -2.30362 0
M  V30 47 H 5.1503 2.65002 -3.20541 0
M  V30 48 H 3.7273 3.39885 -1.53403 0
M  V30 49 N 5.9124 1.20967 1.01018 0
M  V30 50 C 7.1604 1.02172 1.74371 0
M  V30 51 C 7.4814 -0.446414 1.89821 0
M  V30 52 O 6.7514 -1.32234 1.44537 0
M  V30 53 H 5.3314 0.375066 0.646014 0
M  V30 54 H 7.9934 1.52187 1.21758 0
M  V30 55 H 7.0894 1.48538 2.74487 0
M  V30 56 N 7.3905 -1.2043 1.01659 0
M  V30 57 C 8.3005 -2.2689 0.596484 0
M  V30 58 C 9.3165 -1.70107 -0.36599 0
M  V30 59 O 10.4925 -2.00117 -0.226942 0
M  V30 60 C 7.5575 -3.4665 -0.0586659 0
M  V30 61 C 6.6185 -4.18662 0.949751 0
M  V30 62 C 5.8515 -5.32705 0.32577 0
M  V30 63 O 6.0745 -5.63656 -0.874509 0
M  V30 64 O 5.0085 -5.92803 1.04249 0
M  V30 65 H 8.8345 -2.65041 1.4828 0
M  V30 66 H 6.4195 -1.27048 0.786082 0
M  V30 67 H 8.3015 -4.19256 -0.424564 0
M  V30 68 H 6.9765 -3.10375 -0.91918 0
M  V30 69 H 5.8835 -3.48229 1.36702 0
M  V30 70 H 7.2165 -4.58878 1.78023 0
M  V30 71 N 8.8686 -0.792821 -1.36206 0
M  V30 72 C 10.2846 -0.474903 -1.52371 0
M  V30 73 C 10.4846 1.00622 -1.74578 0
M  V30 74 O 9.5406 1.79162 -1.77924 0
M  V30 75 C 10.8536 -1.3083 -2.70747 0
M  V30 76 C 12.4016 -1.30234 -2.84619 0
M  V30 77 C 12.8766 -2.11956 -4.06004 0
M  V30 78 N 14.3676 -2.09419 -4.13156 0
M  V30 79 C 15.1026 -2.69419 -5.06163 0
M  V30 80 N 14.5986 -3.3829 -6.04592 0
M  V30 81 N 16.3916 -2.59134 -4.98804 0
M  V30 82 H 8.5426 -1.75222 -1.20046 0
M  V30 83 H 10.8056 -0.745024 -0.586211 0
M  V30 84 H 10.5116 -2.35881 -2.6087 0
M  V30 85 H 10.3856 -0.95196 -3.6499 0
M  V30 86 H 12.7726 -0.259748 -2.93955 0
M  V30 87 H 12.8536 -1.69847 -1.91274 0
M  V30 88 H 12.4976 -3.16248 -3.97429 0
M  V30 89 H 12.4276 -1.69711 -4.98503 0
M  V30 90 H 14.9186 -1.59297 -3.42685 0
M  V30 91 H 15.2316 -3.81394 -6.7213 0
M  V30 92 H 13.5766 -3.42393 -6.04807 0
M  V30 93 H 16.7676 -2.04927 -4.20859 0
M  V30 94 H 16.9406 -3.06185 -5.711 0
M  V30 95 N 10.3467 1.47872 -0.545128 0
M  V30 96 C 11.5717 2.07391 -0.0190611 0
M  V30 97 C 11.9967 1.39688 1.25971 0
M  V30 98 O 11.3547 0.467816 1.7516 0
M  V30 99 C 11.4027 3.60188 0.172335 0
M  V30 100 O 10.5067 3.9339 1.23766 0
M  V30 101 H 9.8477 0.662411 -0.0459059 0
M  V30 102 H 12.3777 1.90066 -0.757365 0
M  V30 103 H 12.3877 4.06129 0.390305 0
M  V30 104 H 11.0627 4.08865 -0.761725 0
M  V30 105 H 9.6397 3.5921 1.00114 0
M  V30 106 N 11.8248 0.280983 1.55075 0
M  V30 107 C 12.7548 -0.597469 2.25727 0
M  V30 108 C 13.7358 -1.15417 1.24952 0
M  V30 109 O 14.9208 -1.18722 1.53684 0
M  V30 110 C 12.0508 -1.7789 2.98283 0
M  V30 111 C 11.0048 -1.35347 4.06036 0
M  V30 112 C 10.3308 -2.61846 4.66198 0
M  V30 113 C 11.6308 -0.499354 5.19907 0
M  V30 114 H 13.3248 -0.00824265 2.99399 0
M  V30 115 H 10.8708 -0.0025244 1.44 0
M  V30 116 H 12.8238 -2.39937 3.46422 0
M  V30 117 H 11.5478 -2.39405 2.22155 0
M  V30 118 H 10.2068 -0.756156 3.58717 0
M  V30 119 H 9.8548 -3.21632 3.86732 0
M  V30 120 H 9.5548 -2.3409 5.38958 0
M  V30 121 H 11.0788 -3.24732 5.1709 0
M  V30 122 H 12.4928 -1.02498 5.64063 0
M  V30 123 H 10.8898 -0.316424 5.99265 0
M  V30 124 H 11.9598 0.480459 4.82514 0
M  V30 125 N 13.3029 -1.57598 0.00835791 0
M  V30 126 C 14.7139 -1.7892 -0.53333 0
M  V30 127 C 15.0649 -0.916609 -1.73473 0
M  V30 128 O 14.1899 -0.121336 -2.1606 0
M  V30 129 C 14.7849 -3.24488 -0.974313 0
M  V30 130 C 13.3439 -3.46878 -1.46125 0
M  V30 131 C 12.4909 -2.74157 -0.416302 0
M  V30 132 H 15.4419 -1.56958 0.234495 0
M  V30 133 H 15.4629 -3.3306 -1.83988 0
M  V30 134 H 14.9749 -3.87972 -0.099718 0
M  V30 135 H 13.0759 -2.8862 -2.35646 0
M  V30 136 H 13.1889 -4.55572 -1.48295 0
M  V30 137 H 11.5529 -2.39022 -0.87981 0
M  V30 138 H 12.3359 -3.40345 0.44947 0
M  V30 139 N 14.781 0.264519 -1.55364 0
M  V30 140 C 15.691 1.34902 -1.91934 0
M  V30 141 C 16.707 1.53595 -0.817593 0
M  V30 142 O 17.883 1.67558 -1.11742 0
M  V30 143 C 14.948 2.68676 -2.19121 0
M  V30 144 C 14.009 2.58657 -3.4263 0
M  V30 145 C 13.242 3.86051 -3.68511 0
M  V30 146 O 13.465 4.87126 -2.96757 0
M  V30 147 O 12.399 3.85744 -4.62045 0
M  V30 148 H 16.225 1.06883 -2.8427 0
M  V30 149 H 13.81 0.463775 -1.42019 0
M  V30 150 H 15.692 3.47759 -2.37995 0
M  V30 151 H 14.367 2.96463 -1.29966 0
M  V30 152 H 13.274 1.7792 -3.29082 0
M  V30 153 H 14.607 2.35818 -4.32031 0
M  V30 154 N 16.2591 1.48442 0.529413 0
M  V30 155 C 17.6701 1.5002 1.11134 0
M  V30 156 C 18.0211 0.27031 1.94329 0
M  V30 157 O 17.1461 -0.622507 2.07253 0
M  V30 158 C 17.7411 2.71834 2.02217 0
M  V30 159 C 16.3001 2.76283 2.55627 0
M  V30 160 C 15.4471 2.43542 1.326 0
M  V30 161 H 18.3981 1.5555 0.314641 0
M  V30 162 H 18.4191 2.50384 2.8651 0
M  V30 163 H 17.9311 3.61331 1.41639 0
M  V30 164 H 16.0321 1.90995 3.19924 0
M  V30 165 H 16.1451 3.77725 2.94721 0
M  V30 166 H 14.5091 1.94709 1.64196 0
M  V30 167 H 15.2921 3.3528 0.737734 0
M  V30 168 N 17.7372 -0.778329 1.37039 0
M  V30 169 C 18.9852 -1.53361 1.31623 0
M  V30 170 C 19.3062 -1.94739 -0.100831 0
M  V30 171 O 18.5762 -1.65797 -1.04347 0
M  V30 172 H 17.1562 -0.568794 0.484234 0
M  V30 173 H 19.8182 -0.926742 1.71457 0
M  V30 174 H 18.9142 -2.43606 1.95096 0
M  V30 175 N 19.2153 -1.21501 -1.00376 0
M  V30 176 C 20.4403 -1.05977 -1.78279 0
M  V30 177 C 20.8653 0.385994 -1.84097 0
M  V30 178 O 20.2233 1.27849 -1.28547 0
M  V30 179 C 20.2713 -1.66302 -3.19963 0
M  V30 180 O 19.3753 -0.909333 -4.0225 0
M  V30 181 H 18.7163 -0.372906 -0.549397 0
M  V30 182 H 21.2463 -1.6107 -1.26165 0
M  V30 183 H 21.2563 -1.70574 -3.70632 0
M  V30 184 H 19.9313 -2.71515 -3.15043 0
M  V30 185 H 18.5083 -0.941795 -3.60811 0
M  V30 186 N 20.6934 1.19889 -1.02296 0
M  V30 187 C 21.6254 2.22334 -0.556787 0
M  V30 188 C 22.6384 1.58674 0.364199 0
M  V30 189 O 23.8274 1.77768 0.161533 0
M  V30 190 C 20.9274 3.38257 0.208694 0
M  V30 191 C 20.1004 4.31504 -0.71577 0
M  V30 192 C 19.1594 5.262 0.00325597 0
M  V30 193 O 18.1854 5.65798 -0.621357 0
M  V30 194 N 19.3874 5.66303 1.27599 0
M  V30 195 H 22.1524 2.62957 -1.43784 0
M  V30 196 H 19.7134 1.34495 -0.901261 0
M  V30 197 H 21.7054 3.98616 0.699111 0
M  V30 198 H 20.2754 2.96472 0.991102 0
M  V30 199 H 19.4954 3.69016 -1.38638 0
M  V30 200 H 20.7834 4.9072 -1.34428 0
M  V30 201 H 20.1814 5.36155 1.80429 0
M  V30 202 H 18.7384 6.28942 1.71102 0
M  V30 203 N 22.1715 0.800033 1.35784 0
M  V30 204 C 23.3965 0.388511 2.03729 0
M  V30 205 C 23.8215 -0.990481 1.5991 0
M  V30 206 O 23.1795 -1.64013 0.772612 0
M  V30 207 C 23.2275 0.4726 3.5749 0
M  V30 208 O 22.3315 -0.51646 4.09153 0
M  V30 209 H 21.6725 0.163271 0.643614 0
M  V30 210 H 24.2025 1.0841 1.73518 0
M  V30 211 H 24.2125 0.34003 4.06581 0
M  V30 212 H 22.8875 1.47848 3.88734 0
M  V30 213 H 21.4645 -0.344673 3.71304 0
M  V30 214 N 23.6496 -1.47581 0.552962 0
M  V30 215 C 24.8746 -2.07378 0.0300593 0
M  V30 216 C 25.2996 -1.40355 -1.25229 0
M  V30 217 O 24.6576 -0.477099 -1.7491 0
M  V30 218 C 24.7056 -3.60274 -0.153231 0
M  V30 219 O 23.8096 -3.94041 -1.21678 0
M  V30 220 H 23.1506 -0.662158 0.0494182 0
M  V30 221 H 25.6806 -1.89662 0.767434 0
M  V30 222 H 25.6906 -4.0633 -0.368761 0
M  V30 223 H 24.3656 -4.08455 0.783397 0
M  V30 224 H 22.9426 -3.59735 -0.982079 0
M  V30 225 N 25.1277 -0.289203 -1.54924 0
M  V30 226 C 26.0907 0.579144 -2.21762 0
M  V30 227 C 27.0907 1.07047 -1.1999 0
M  V30 228 O 28.2807 0.968384 -1.44803 0
M  V30 229 C 25.4127 1.80055 -2.8947 0
M  V30 230 H 26.6057 -0.00464908 -2.999 0
M  V30 231 H 24.1587 -0.0399306 -1.56249 0
M  V30 232 H 24.8937 2.42449 -2.15381 0
M  V30 233 H 24.6787 1.45602 -3.64064 0
M  V30 234 H 26.1687 2.41773 -3.40493 0
M  V30 235 N 26.6058 1.57591 -0.0167156 0
M  V30 236 C 27.5688 2.08393 0.954204 0
M  V30 237 C 28.5688 0.996531 1.26198 0
M  V30 238 O 29.7588 1.25858 1.20438 0
M  V30 239 C 26.8908 2.5394 2.27436 0
M  V30 240 H 28.0838 2.95455 0.514451 0
M  V30 241 H 25.6368 1.54582 0.231089 0
M  V30 242 H 26.3718 1.70171 2.76066 0
M  V30 243 H 26.1568 3.33371 2.06412 0
M  V30 244 H 27.6468 2.93512 2.97053 0
M  V30 245 N 28.0839 -0.256276 1.55502 0
M  V30 246 C 29.3089 -1.00766 1.81276 0
M  V30 247 C 29.7339 -1.78524 0.59252 0
M  V30 248 O 29.0919 -1.75413 -0.45827 0
M  V30 249 C 29.1399 -1.92869 3.04687 0
M  V30 250 O 28.2439 -3.019 2.80945 0
M  V30 251 H 27.5849 -0.287224 0.598664 0
M  V30 252 H 30.1149 -0.280109 2.02674 0
M  V30 253 H 30.1249 -2.34511 3.33869 0
M  V30 254 H 28.7999 -1.35689 3.93143 0
M  V30 255 H 27.3769 -2.64454 2.62904 0
M  V30 256 N 29.562 -1.4872 -0.521534 0
M  V30 257 C 30.839 -1.4766 -1.2828 0
M  V30 258 C 31.219 -0.19292 -2.10217 0
M  V30 259 O 30.567 0.825193 -2.13079 0
M  V30 260 C 30.777 -2.74358 -2.15705 0
M  V30 261 C 32.125 -3.23028 -2.75569 0
M  V30 262 O 33.149 -2.75333 -2.25987 0
M  V30 263 O 32.008 -4.0604 -3.65778 0
M  V30 264 H 29.102 -0.590085 -0.579421 0
M  V30 265 H 31.648 -1.60963 -0.537492 0
M  V30 266 H 30.42 -3.59292 -1.54999 0
M  V30 267 H 30.043 -2.63816 -2.97467 0
M  V30 268 N 31.0401 0.771051 -1.3745 0
M  V30 269 C 32.3171 1.519 -1.23231 0
M  V30 270 C 32.6971 2.10383 0.173809 0
M  V30 271 O 32.0451 1.95583 1.18151 0
M  V30 272 C 32.2551 2.59933 -2.32886 0
M  V30 273 C 33.6031 3.27316 -2.70461 0
M  V30 274 O 34.6271 2.70228 -2.32068 0
M  V30 275 O 33.4861 4.30531 -3.36608 0
M  V30 276 H 30.5801 0.672803 -0.480901 0
M  V30 277 H 33.1261 0.807957 -1.49232 0
M  V30 278 H 31.8981 2.14842 -3.27045 0
M  V30 279 H 31.5211 3.38637 -2.08353 0
M  V30 280 N 32.5182 1.22032 0.997298 0
M  V30 281 C 33.7672 1.03637 1.73038 0
M  V30 282 C 34.0802 -0.429475 1.90827 0
M  V30 283 O 35.2862 -0.732995 2.61418 0
M  V30 284 C 33.7422 1.80582 3.11317 0
M  V30 285 C 33.3502 3.31387 3.01474 0
M  V30 286 C 35.0942 1.70621 3.88701 0
M  V30 287 C 33.0012 4.00791 4.3488 0
M  V30 288 H 31.9312 0.384179 0.648785 0
M  V30 289 H 34.5822 1.4584 1.11368 0
M  V30 290 H 32.9642 1.31175 3.73643 0
M  V30 291 H 34.1382 3.88155 2.4834 0
M  V30 292 H 32.4532 3.41976 2.37575 0
M  V30 293 H 35.0502 2.19799 4.87434 0
M  V30 294 H 35.3932 0.665823 4.10941 0
M  V30 295 H 35.9262 2.17547 3.33044 0
M  V30 296 H 32.6652 5.05064 4.1784 0
M  V30 297 H 32.1852 3.48811 4.87945 0
M  V30 298 H 33.8642 4.06139 5.03647 0
M  V30 299 N 33.9963 -1.19345 1.0293 0
M  V30 300 C 34.9063 -2.26245 0.620515 0
M  V30 301 C 35.9223 -1.70486 -0.347928 0
M  V30 302 O 37.0983 -2.00347 -0.205704 0
M  V30 303 C 34.1633 -3.46693 -0.0218957 0
M  V30 304 C 33.2243 -4.17632 0.994102 0
M  V30 305 C 32.4573 -5.32329 0.382253 0
M  V30 306 O 32.6803 -5.64552 -0.814676 0
M  V30 307 O 31.6143 -5.91664 1.10531 0
M  V30 308 H 35.4403 -2.63453 1.51083 0
M  V30 309 H 33.0253 -1.26207 0.799513 0
M  V30 310 H 34.9073 -4.19683 -0.380072 0
M  V30 311 H 33.5823 -3.11333 -0.886209 0
M  V30 312 H 32.4893 -3.4676 1.40387 0
M  V30 313 H 33.8223 -4.56964 1.8288 0
M  V30 314 N 35.4744 -0.807222 -1.35358 0
M  V30 315 C 36.7234 -0.384376 -1.98004 0
M  V30 316 C 37.0364 1.0543 -1.64754 0
M  V30 317 O 38.2424 1.58029 -2.20769 0
M  V30 318 C 36.6984 -0.636326 -3.5423 0
M  V30 319 C 36.3064 -2.08759 -3.96388 0
M  V30 320 C 38.0504 -0.278869 -4.23583 0
M  V30 321 C 35.9574 -2.28525 -5.45463 0
M  V30 322 H 34.8874 -0.139986 -0.740891 0
M  V30 323 H 37.5384 -0.991369 -1.54415 0
M  V30 324 H 35.9204 0.0406256 -3.95979 0
M  V30 325 H 37.0944 -2.8024 -3.6579 0
M  V30 326 H 35.4094 -2.40497 -3.39926 0
M  V30 327 H 38.0064 -0.404599 -5.33167 0
M  V30 328 H 38.3494 0.775012 -4.09022 0
M  V30 329 H 38.8824 -0.909764 -3.87257 0
M  V30 330 H 35.6214 -3.32361 -5.64992 0
M  V30 331 H 35.1414 -1.61569 -5.77629 0
M  V30 332 H 36.8204 -2.10109 -6.11934 0
M  V30 333 N 36.9525 1.47285 -0.560781 0
M  V30 334 C 38.1985 2.02764 -0.0381184 0
M  V30 335 C 38.5315 1.43384 1.30976 0
M  V30 336 O 37.8065 0.590733 1.85312 0
M  V30 337 C 38.0895 3.60064 0.0511427 0
M  V30 338 C 37.9425 4.2987 -1.32408 0
M  V30 339 C 39.2615 4.33439 0.762795 0
M  V30 340 H 36.3805 0.736841 -0.0153264 0
M  V30 341 H 39.0225 1.75675 -0.723759 0
M  V30 342 H 37.1725 3.83274 0.635065 0
M  V30 343 H 38.8445 4.17989 -1.95148 0
M  V30 344 H 37.0875 3.90085 -1.8978 0
M  V30 345 H 37.7585 5.38478 -1.21431 0
M  V30 346 H 40.2345 4.15243 0.266965 0
M  V30 347 H 39.1105 5.43124 0.794221 0
M  V30 348 H 39.3715 4.02915 1.81966 0
M  V30 349 N 38.4306 0.297415 1.54768 0
M  V30 350 C 39.6766 -0.313376 2.00364 0
M  V30 351 C 40.0096 -1.53815 1.18553 0
M  V30 352 O 39.2846 -1.92739 0.261103 0
M  V30 353 C 39.5676 -0.673525 3.53745 0
M  V30 354 C 39.4206 0.560133 4.46299 0
M  V30 355 C 40.7396 -1.50143 4.13697 0
M  V30 356 H 37.8586 -0.112428 0.728374 0
M  V30 357 H 40.5006 0.4088 1.8555 0
M  V30 358 H 38.6506 -1.28881 3.665 0
M  V30 359 H 40.3226 1.19863 4.45455 0
M  V30 360 H 38.5656 1.19405 4.17043 0
M  V30 361 H 39.2366 0.26405 5.51368 0
M  V30 362 H 41.7126 -0.981588 4.04356 0
M  V30 363 H 40.5886 -1.72221 5.21182 0
M  V30 364 H 40.8496 -2.48952 3.65343 0
M  V30 365 N 39.9087 -1.5758 0.0250728 0
M  V30 366 C 40.8567 -2.11125 -0.97617 0
M  V30 367 C 41.8507 -1.03689 -1.33959 0
M  V30 368 O 43.0567 -1.22128 -1.3223 0
M  V30 369 H 39.4317 -0.674468 -0.332561 0
M  V30 370 H 41.4027 -2.94194 -0.499223 0
M  V30 371 C 40.1517 -2.65017 -2.2508 0
M  V30 372 H 39.4747 -3.47333 -1.9799 0
M  V30 373 H 40.9147 -3.06133 -2.93357 0
M  V30 374 C 39.3737 -1.57574 -2.97779 0
M  V30 375 O 39.9037 -0.973203 -3.89733 0
M  V30 376 N 38.1097 -1.29716 -2.60043 0
M  V30 377 H 37.6567 -1.789 -1.85345 0
M  V30 378 H 37.6147 -0.58051 -3.08994 0
M  V30 379 N 41.3868 0.248026 -1.55636 0
M  V30 380 C 42.6328 0.97767 -1.77678 0
M  V30 381 C 42.9658 1.85016 -0.590135 0
M  V30 382 O 42.2408 1.90095 0.411611 0
M  V30 383 C 42.5238 1.83914 -3.09593 0
M  V30 384 C 42.3768 0.99491 -4.38659 0
M  V30 385 C 43.6958 2.82183 -3.37729 0
M  V30 386 H 40.8148 0.354005 -0.646413 0
M  V30 387 H 43.4568 0.248253 -1.88371 0
M  V30 388 H 41.6068 2.46104 -3.00608 0
M  V30 389 H 43.2788 0.391789 -4.59633 0
M  V30 390 H 41.5218 0.299231 -4.32767 0
M  V30 391 H 42.1928 1.63145 -5.2734 0
M  V30 392 H 44.6688 2.30129 -3.4667 0
M  V30 393 H 43.5448 3.39582 -4.31249 0
M  V30 394 H 43.8058 3.58588 -2.58586 0
M  V30 395 N 42.8649 1.48995 0.513639 0
M  V30 396 C 44.1129 1.57531 1.26604 0
M  V30 397 C 44.4339 0.258236 1.93283 0
M  V30 398 O 43.7039 -0.721502 1.8213 0
M  V30 399 H 42.2839 0.580387 0.470276 0
M  V30 400 H 44.9459 1.85552 0.596373 0
M  V30 401 H 44.0419 2.36486 2.03669 0
M  V30 402 N 44.343 -0.763751 1.37857 0
M  V30 403 C 45.591 -1.51957 1.33243 0
M  V30 404 C 45.912 -1.94835 -0.0801709 0
M  V30 405 O 45.182 -1.66894 -1.02582 0
M  V30 406 H 43.762 -0.563626 0.49024 0
M  V30 407 H 46.424 -0.908504 1.7243 0
M  V30 408 H 45.52 -2.41523 1.97669 0
M  V30 409 N 45.8211 -1.22559 -0.990812 0
M  V30 410 C 47.0671 -1.05297 -1.73322 0
M  V30 411 C 47.4001 0.410655 -1.89808 0
M  V30 412 O 46.6751 1.30439 -1.44277 0
M  V30 413 C 46.9581 -1.76713 -3.13759 0
M  V30 414 C 46.8111 -3.30684 -3.04907 0
M  V30 415 C 48.1301 -1.52121 -4.12974 0
M  V30 416 H 45.2491 -0.38392 -0.629106 0
M  V30 417 H 47.8911 -1.50926 -1.15418 0
M  V30 418 H 46.0411 -1.37924 -3.63193 0
M  V30 419 H 47.7131 -3.7893 -2.63077 0
M  V30 420 H 45.9561 -3.60253 -2.41661 0
M  V30 421 H 46.6271 -3.75833 -4.04294 0
M  V30 422 H 49.1031 -1.85819 -3.72304 0
M  V30 423 H 47.9791 -2.04582 -5.0935 0
M  V30 424 H 48.2401 -0.454257 -4.3976 0
M  V30 425 N 47.2992 1.18797 -1.03562 0
M  V30 426 C 48.7152 1.40671 -0.753917 0
M  V30 427 C 48.9152 1.9043 0.658686 0
M  V30 428 O 47.9712 2.08538 1.42366 0
M  V30 429 C 49.2842 2.41192 -1.79574 0
M  V30 430 C 50.8322 2.54928 -1.81606 0
M  V30 431 C 51.3072 3.58709 -2.84766 0
M  V30 432 N 52.7982 3.66212 -2.83625 0
M  V30 433 C 53.5332 4.46225 -3.60098 0
M  V30 434 N 53.0292 5.29888 -4.46308 0
M  V30 435 N 54.8222 4.40939 -3.4861 0
M  V30 436 H 46.9732 0.848221 -1.94728 0
M  V30 437 H 49.2362 0.435081 -0.842264 0
M  V30 438 H 48.9422 2.11669 -2.80872 0
M  V30 439 H 48.8162 3.40467 -1.62365 0
M  V30 440 H 51.2032 2.83771 -0.809817 0
M  V30 441 H 51.2842 1.55784 -2.02891 0
M  V30 442 H 50.9282 3.30607 -3.85566 0
M  V30 443 H 50.8582 4.57519 -2.60737 0
M  V30 444 H 53.3492 3.06466 -2.21105 0
M  V30 445 H 53.6622 5.88078 -5.01382 0
M  V30 446 H 52.0072 5.29326 -4.50377 0
M  V30 447 H 55.1982 3.74624 -2.80668 0
M  V30 448 H 55.3712 5.03056 -4.08459 0
M  V30 449 N 48.7773 0.814389 1.34928 0
M  V30 450 C 49.7093 0.187834 2.28429 0
M  V30 451 C 50.7223 -0.617374 1.5064 0
M  V30 452 O 51.9113 -0.448454 1.72775 0
M  V30 453 C 49.0113 -0.755962 3.30361 0
M  V30 454 C 48.1843 0.00456686 4.374 0
M  V30 455 C 47.2433 -0.858876 5.19143 0
M  V30 456 O 46.2693 -0.306968 5.68372 0
M  V30 457 N 47.4713 -2.17988 5.38016 0
M  V30 458 H 50.2363 0.991105 2.82838 0
M  V30 459 H 47.7973 0.670561 1.4736 0
M  V30 460 H 49.7893 -1.338 3.81942 0
M  V30 461 H 48.3593 -1.46001 2.7641 0
M  V30 462 H 47.5793 0.767865 3.86649 0
M  V30 463 H 48.8673 0.528422 5.06049 0
M  V30 464 H 48.2653 -2.65212 4.99679 0
M  V30 465 H 46.8223 -2.71098 5.92747 0
M  V30 466 N 50.2554 -1.46986 0.568584 0
M  V30 467 C 51.5014 -2.02741 0.0488709 0
M  V30 468 C 51.8344 -1.44077 -1.30214 0
M  V30 469 O 51.1094 -0.600552 -1.84996 0
M  V30 470 C 51.3924 -3.60086 -0.032047 0
M  V30 471 C 51.2454 -4.29162 1.34686 0
M  V30 472 C 52.5644 -4.33838 -0.739798 0
M  V30 473 H 49.6834 -0.736749 0.0192338 0
M  V30 474 H 52.3254 -1.75289 0.733065 0
M  V30 475 H 50.4754 -3.83606 -0.61473 0
M  V30 476 H 52.1474 -4.16948 1.97362 0
M  V30 477 H 50.3904 -3.89073 1.91846 0
M  V30 478 H 51.0614 -5.37826 1.24285 0
M  V30 479 H 53.5374 -4.15378 -0.244939 0
M  V30 480 H 52.4134 -5.43537 -0.765406 0
M  V30 481 H 52.6744 -4.03875 -1.79827 0
M  V30 482 N 51.7335 -0.305618 -1.54608 0
M  V30 483 C 52.6635 0.561482 -2.26649 0
M  V30 484 C 53.6445 1.13415 -1.26772 0
M  V30 485 O 54.8295 1.16262 -1.55553 0
M  V30 486 C 51.9595 1.73122 -3.01075 0
M  V30 487 C 50.9135 1.2887 -4.08138 0
M  V30 488 C 50.2395 2.54396 -4.70305 0
M  V30 489 C 51.5395 0.416578 -5.20636 0
M  V30 490 H 53.2335 -0.0393902 -2.99374 0
M  V30 491 H 50.7795 -0.020385 -1.43986 0
M  V30 492 H 52.7325 2.34396 -3.50195 0
M  V30 493 H 51.4565 2.3584 -2.25936 0
M  V30 494 H 50.1155 0.698991 -3.59875 0
M  V30 495 H 49.7635 3.15439 -3.918 0
M  V30 496 H 49.4635 2.25486 -5.42614 0
M  V30 497 H 50.9875 3.16464 -5.2219 0
M  V30 498 H 52.4015 0.935116 -5.65622 0
M  V30 499 H 50.7985 0.221046 -5.99693 0
M  V30 500 H 51.8685 -0.557162 -4.81688 0
M  V30 501 N 53.2116 1.57565 -0.0334293 0
M  V30 502 C 54.4416 1.95996 0.653398 0
M  V30 503 C 54.8496 0.908749 1.65947 0
M  V30 504 O 54.1926 -0.117471 1.83324 0
M  V30 505 C 54.2546 3.30589 1.41249 0
M  V30 506 C 53.9186 4.53503 0.564263 0
M  V30 507 C 54.9156 5.19647 -0.16225 0
M  V30 508 C 52.6006 4.99801 0.500398 0
M  V30 509 C 54.5946 6.30412 -0.941255 0
M  V30 510 C 52.2816 6.10448 -0.282308 0
M  V30 511 C 53.2796 6.75612 -1.00184 0
M  V30 512 O 52.9676 7.84134 -1.77171 0
M  V30 513 H 52.6996 0.65027 0.184728 0
M  V30 514 H 55.2536 2.05199 -0.0907841 0
M  V30 515 H 53.4836 3.17888 2.20191 0
M  V30 516 H 55.1726 3.53892 1.98784 0
M  V30 517 H 55.9386 4.84846 -0.12227 0
M  V30 518 H 51.8176 4.48883 1.05002 0
M  V30 519 H 55.3616 6.81208 -1.50339 0
M  V30 520 H 51.2586 6.44686 -0.323989 0
M  V30 521 H 52.0266 8.00822 -1.69194 0
M  V30 522 N 54.6897 -0.239769 1.55765 0
M  V30 523 C 55.9377 -0.964892 1.77579 0
M  V30 524 C 56.2587 -1.85582 0.598699 0
M  V30 525 O 55.5287 -1.92075 -0.385226 0
M  V30 526 H 54.1087 -0.359265 0.654933 0
M  V30 527 H 56.7707 -0.256001 1.93211 0
M  V30 528 H 55.8667 -1.58243 2.69009 0
M  V30 529 N 56.1678 -1.49265 -0.50573 0
M  V30 530 C 57.4448 -1.49012 -1.26707 0
M  V30 531 C 57.8248 -0.215205 -2.1 0
M  V30 532 O 57.1728 0.802547 -2.13943 0
M  V30 533 C 57.3828 -2.7663 -2.12783 0
M  V30 534 C 58.7308 -3.25932 -2.72127 0
M  V30 535 O 59.7548 -2.77715 -2.23054 0
M  V30 536 O 58.6138 -4.09897 -3.61451 0
M  V30 537 H 55.7078 -0.596197 -0.57313 0
M  V30 538 H 58.2538 -1.61524 -0.52039 0
M  V30 539 H 57.0258 -3.60916 -1.5118 0
M  V30 540 H 56.6488 -2.66956 -2.94653 0
M  V30 541 N 57.6459 0.756429 -1.3826 0
M  V30 542 C 58.5759 1.88374 -1.37976 0
M  V30 543 C 59.5569 1.68311 -0.246082 0
M  V30 544 O 60.7419 1.88944 -0.44874 0
M  V30 545 C 57.8719 3.25864 -1.20125 0
M  V30 546 C 56.8259 3.60523 -2.30666 0
M  V30 547 C 56.1519 4.9672 -1.97923 0
M  V30 548 C 57.4519 3.65692 -3.72916 0
M  V30 549 H 59.1459 1.88869 -2.32312 0
M  V30 550 H 56.6919 0.907272 -1.11824 0
M  V30 551 H 58.6449 4.0438 -1.18552 0
M  V30 552 H 57.3689 3.25841 -0.222498 0
M  V30 553 H 56.0279 2.84324 -2.3142 0
M  V30 554 H 55.6759 4.93253 -0.985393 0
M  V30 555 H 55.3759 5.20878 -2.71955 0
M  V30 556 H 56.8999 5.77618 -1.97964 0
M  V30 557 H 58.3139 4.34328 -3.74208 0
M  V30 558 H 56.7109 4.01358 -4.4613 0
M  V30 559 H 57.7809 2.65987 -4.05436 0
M  V30 560 N 59.124 1.23083 0.984299 0
M  V30 561 C 60.054 1.03292 2.09411 0
M  V30 562 C 61.035 -0.048923 1.7003 0
M  V30 563 O 62.22 0.114967 1.93859 0
M  V30 564 C 59.35 0.619155 3.41736 0
M  V30 565 C 58.304 1.64791 3.95004 0
M  V30 566 C 57.63 1.0897 5.23478 0
M  V30 567 C 58.93 3.03999 4.24714 0
M  V30 568 H 60.624 1.96119 2.26225 0
M  V30 569 H 58.17 0.944344 1.08711 0
M  V30 570 H 60.123 0.467777 4.18796 0
M  V30 571 H 58.847 -0.344786 3.24775 0
M  V30 572 H 57.506 1.78721 3.20085 0
M  V30 573 H 57.154 0.11686 5.02864 0
M  V30 574 H 56.854 1.77704 5.60085 0
M  V30 575 H 58.378 0.950093 6.03163 0
M  V30 576 H 59.792 2.93393 4.92538 0
M  V30 577 H 58.189 3.69936 4.72512 0
M  V30 578 H 59.259 3.53285 3.32142 0
M  V30 579 N 60.6021 -1.18246 1.0419 0
M  V30 580 C 61.8271 -1.92736 0.765996 0
M  V30 581 C 62.2521 -1.75728 -0.67091 0
M  V30 582 O 61.6101 -1.06825 -1.46486 0
M  V30 583 C 61.6581 -3.42148 1.13875 0
M  V30 584 O 60.7621 -4.11548 0.264954 0
M  V30 585 H 60.1031 -0.601238 0.281797 0
M  V30 586 H 62.6331 -1.49942 1.39207 0
M  V30 587 H 62.6431 -3.92858 1.1012 0
M  V30 588 H 61.3181 -3.53848 2.18551 0
M  V30 589 H 59.8951 -3.71137 0.362226 0
M  V30 590 N 62.0802 -0.821533 -1.34494 0
M  V30 591 C 63.0122 -0.199946 -2.28326 0
M  V30 592 C 64.0252 0.609377 -1.50965 0
M  V30 593 O 65.2142 0.439285 -1.7301 0
M  V30 594 C 62.3142 0.738431 -3.30757 0
M  V30 595 C 61.4872 -0.0277632 -4.37391 0
M  V30 596 C 60.5462 0.831332 -5.19591 0
M  V30 597 O 59.5722 0.276822 -5.68526 0
M  V30 598 N 60.7742 2.15132 -5.39165 0
M  V30 599 H 63.5392 -1.00609 -2.82308 0
M  V30 600 H 61.1002 -0.678366 -1.47003 0
M  V30 601 H 63.0922 1.31773 -3.82646 0
M  V30 602 H 61.6622 1.44533 -2.7718 0
M  V30 603 H 60.8822 -0.788359 -3.86236 0
M  V30 604 H 62.1702 -0.555251 -5.05761 0
M  V30 605 H 61.5682 2.62559 -5.01078 0
M  V30 606 H 60.1252 2.6795 -5.94177 0
M  V30 607 N 63.5583 1.46682 -0.576371 0
M  V30 608 C 64.7883 2.06498 -0.0648694 0
M  V30 609 C 65.1963 1.42665 1.24271 0
M  V30 610 O 64.5393 0.523886 1.76071 0
M  V30 611 C 64.6013 3.5904 0.181816 0
M  V30 612 C 64.2653 4.45028 -1.0392 0
M  V30 613 C 65.2623 4.81959 -1.94966 0
M  V30 614 C 62.9473 4.86259 -1.25927 0
M  V30 615 C 64.9413 5.58942 -3.06371 0
M  V30 616 C 62.6283 5.63002 -2.37638 0
M  V30 617 C 63.6263 5.99257 -3.2769 0
M  V30 618 O 63.3143 6.7445 -4.37461 0
M  V30 619 H 63.0463 0.674028 -0.0515987 0
M  V30 620 H 65.6003 1.89393 -0.794951 0
M  V30 621 H 63.8303 3.74429 0.966436 0
M  V30 622 H 65.5193 4.00806 0.641047 0
M  V30 623 H 66.2853 4.50689 -1.79177 0
M  V30 624 H 62.1643 4.57494 -0.567448 0
M  V30 625 H 65.7083 5.87158 -3.76684 0
M  V30 626 H 61.6053 5.93686 -2.53392 0
M  V30 627 H 62.3733 6.92867 -4.35749 0
M  V30 628 N 65.0364 0.313813 1.54444 0
M  V30 629 C 66.4474 -0.176243 1.85866 0
M  V30 630 C 66.7984 -1.52405 1.23561 0
M  V30 631 O 65.9234 -2.09605 0.538016 0
M  V30 632 C 66.5184 -0.32657 3.37222 0
M  V30 633 C 65.0774 -0.760846 3.6863 0
M  V30 634 C 64.2244 0.123247 2.77026 0
M  V30 635 H 67.1754 0.534418 1.49431 0
M  V30 636 H 67.1964 -1.15908 3.62416 0
M  V30 637 H 66.7084 0.654531 3.82541 0
M  V30 638 H 64.8094 -1.75204 3.28838 0
M  V30 639 H 64.9224 -0.571353 4.75681 0
M  V30 640 H 63.2864 -0.399597 2.51546 0
M  V30 641 H 64.0694 1.10094 3.25168 0
M  V30 642 N 66.5145 -1.57545 0.0417849 0
M  V30 643 C 67.4245 -2.14451 -0.951213 0
M  V30 644 C 68.4405 -1.09992 -1.34825 0
M  V30 645 O 69.6165 -1.42114 -1.42708 0
M  V30 646 C 66.6815 -2.67063 -2.21084 0
M  V30 647 C 65.7425 -3.86284 -1.87304 0
M  V30 648 C 64.9755 -4.36378 -3.07261 0
M  V30 649 O 65.1985 -3.85587 -4.20332 0
M  V30 650 O 64.1325 -5.28077 -2.88822 0
M  V30 651 H 67.9585 -2.99601 -0.497287 0
M  V30 652 H 65.5435 -1.48317 -0.179567 0
M  V30 653 H 67.4255 -3.00914 -2.95006 0
M  V30 654 H 66.1005 -1.84989 -2.65633 0
M  V30 655 H 65.0075 -3.57338 -1.10727 0
M  V30 656 H 66.3405 -4.6956 -1.47562 0
M  V30 657 N 67.9926 0.231505 -1.5589 0
M  V30 658 C 69.2206 0.974505 -1.82513 0
M  V30 659 C 69.6356 1.78344 -0.619591 0
M  V30 660 O 68.9926 1.77792 0.411848 0
M  V30 661 C 69.0436 1.90007 -3.07538 0
M  V30 662 O 68.7646 1.12385 -4.2344 0
M  V30 663 C 70.2656 2.75779 -3.47075 0
M  V30 664 H 67.4856 0.286065 -0.606966 0
M  V30 665 H 70.0296 0.249739 -2.02969 0
M  V30 666 H 68.1846 2.57891 -2.89086 0
M  V30 667 H 68.5986 1.75125 -4.944 0
M  V30 668 H 70.0726 3.36443 -4.37619 0
M  V30 669 H 70.5496 3.47672 -2.68367 0
M  V30 670 H 71.1556 2.13323 -3.67931 0
M  V30 671 N 69.4707 1.49531 0.497807 0
M  V30 672 C 70.8867 1.36365 0.829266 0
M  V30 673 C 71.0867 0.399184 1.97506 0
M  V30 674 O 70.1427 -0.167977 2.51941 0
M  V30 675 C 71.4557 2.77153 1.16647 0
M  V30 676 C 73.0037 2.85877 1.27449 0
M  V30 677 C 73.4787 4.2744 1.64497 0
M  V30 678 N 74.9697 4.30265 1.7154 0
M  V30 679 C 75.7047 5.3677 2.01656 0
M  V30 680 N 75.2007 6.53516 2.29976 0
M  V30 681 N 76.9937 5.24189 2.02934 0
M  V30 682 H 69.1447 2.10831 -0.257703 0
M  V30 683 H 71.4077 0.946534 -0.0527091 0
M  V30 684 H 71.1137 3.49442 0.397872 0
M  V30 685 H 70.9877 3.12722 2.10915 0
M  V30 686 H 73.3747 2.13824 2.0338 0
M  V30 687 H 73.4557 2.53887 0.312244 0
M  V30 688 H 73.0997 5.00021 0.891151 0
M  V30 689 H 73.0297 4.56896 2.61827 0
M  V30 690 H 75.5207 3.4607 1.51802 0
M  V30 691 H 75.8337 7.30506 2.52153 0
M  V30 692 H 74.1787 6.56737 2.27425 0
M  V30 693 H 77.3697 4.31988 1.80289 0
M  V30 694 H 77.5427 6.07286 2.26071 0
M  V30 695 N 70.9488 -0.749086 1.3866 0
M  V30 696 C 71.8788 -1.8764 1.38973 0
M  V30 697 C 72.8598 -1.68178 0.255004 0
M  V30 698 O 74.0448 -1.88704 0.458754 0
M  V30 699 C 71.1748 -3.25222 1.21851 0
M  V30 700 C 70.1288 -3.59295 2.32575 0
M  V30 701 C 69.4548 -4.95663 2.00555 0
M  V30 702 C 70.7548 -3.63709 3.7485 0
M  V30 703 H 72.4488 -1.87635 2.3331 0
M  V30 704 H 69.9948 -0.901329 1.12303 0
M  V30 705 H 71.9478 -4.03746 1.20695 0
M  V30 706 H 70.6718 -3.25719 0.239775 0
M  V30 707 H 69.3308 -2.83093 2.32925 0
M  V30 708 H 68.9788 -4.92724 1.01154 0
M  V30 709 H 68.6788 -5.19429 2.74714 0
M  V30 710 H 70.2028 -5.7656 2.01024 0
M  V30 711 H 71.6168 -4.32338 3.76506 0
M  V30 712 H 70.0138 -3.98986 4.48252 0
M  V30 713 H 71.0838 -2.63834 4.06841 0
M  V30 714 N 72.4269 -1.23603 -0.977757 0
M  V30 715 C 73.3899 -1.02069 -2.05218 0
M  V30 716 C 74.3899 0.0184305 -1.60789 0
M  V30 717 O 75.5799 -0.221569 -1.72785 0
M  V30 718 C 72.7119 -0.544926 -3.36517 0
M  V30 719 H 73.9049 -1.9742 -2.25755 0
M  V30 720 H 71.4579 -1.05684 -1.15155 0
M  V30 721 H 72.1929 0.412241 -3.21669 0
M  V30 722 H 71.9779 -1.2948 -3.70105 0
M  V30 723 H 73.4679 -0.414985 -4.15533 0
M  V30 724 N 73.905 1.17692 -1.04816 0
M  V30 725 C 74.815 2.25229 -0.65643 0
M  V30 726 C 75.831 1.71018 0.320761 0
M  V30 727 O 77.007 2.00649 0.173805 0
M  V30 728 C 74.072 3.46684 -0.0332629 0
M  V30 729 C 73.133 4.15997 -1.06042 0
M  V30 730 C 72.366 5.31654 -0.466893 0
M  V30 731 O 72.589 5.65777 0.724758 0
M  V30 732 O 71.523 5.89831 -1.1993 0
M  V30 733 H 75.349 2.61016 -1.55255 0
M  V30 734 H 72.934 1.24919 -0.81949 0
M  V30 735 H 74.816 4.20234 0.313256 0
M  V30 736 H 73.491 3.12703 0.836566 0
M  V30 737 H 72.398 3.44482 -1.45886 0
M  V30 738 H 73.731 4.53996 -1.90127 0
M  V30 739 N 75.3831 0.828654 1.34056 0
M  V30 740 C 76.3131 0.269443 2.3194 0
M  V30 741 C 77.2941 -0.617247 1.58506 0
M  V30 742 O 78.4791 -0.542931 1.86456 0
M  V30 743 C 75.6091 -0.564793 3.42677 0
M  V30 744 C 74.5631 0.225241 4.27407 0
M  V30 745 C 73.8891 -0.7321 5.29664 0
M  V30 746 C 75.1891 1.43663 5.02154 0
M  V30 747 H 76.8831 1.08728 2.7896 0
M  V30 748 H 74.4291 0.524283 1.34117 0
M  V30 749 H 76.3821 -0.966233 4.10173 0
M  V30 750 H 75.1061 -1.41574 2.9432 0
M  V30 751 H 73.7651 0.608117 3.61521 0
M  V30 752 H 73.4131 -1.57916 4.77568 0
M  V30 753 H 73.1131 -0.20767 5.87233 0
M  V30 754 H 74.6371 -1.13128 6.00029 0
M  V30 755 H 76.0511 1.1089 5.62473 0
M  V30 756 H 74.4481 1.89711 5.69324 0
M  V30 757 H 75.5181 2.21181 4.31517 0
M  V30 758 N 76.8612 -1.46375 0.584142 0
M  V30 759 C 78.1102 -2.01585 0.0679741 0
M  V30 760 C 78.4232 -1.46109 -1.30045 0
M  V30 761 O 79.6292 -1.93148 -1.90804 0
M  V30 762 C 78.0852 -3.5983 0.0709207 0
M  V30 763 C 77.6932 -4.24303 1.43775 0
M  V30 764 C 79.4372 -4.22693 -0.391228 0
M  V30 765 C 77.3442 -5.74631 1.39834 0
M  V30 766 H 76.2742 -0.753689 0.0216421 0
M  V30 767 H 78.9252 -1.68093 0.736001 0
M  V30 768 H 77.3072 -3.90405 -0.663299 0
M  V30 769 H 78.4812 -4.05335 2.19181 0
M  V30 770 H 76.7962 -3.73539 1.84004 0
M  V30 771 H 79.3932 -5.3289 -0.439524 0
M  V30 772 H 79.7362 -3.91728 -1.40906 0
M  V30 773 H 80.2692 -3.96749 0.288974 0
M  V30 774 H 77.0082 -6.10258 2.39303 0
M  V30 775 H 76.5282 -5.95858 0.686505 0
M  V30 776 H 78.2072 -6.37375 1.11187 0
M  V30 777 N 78.3393 -0.321999 -1.54275 0
M  V30 778 C 79.2873 0.560206 -2.25753 0
M  V30 779 C 80.2813 1.11984 -1.27106 0
M  V30 780 O 81.4873 1.06806 -1.44888 0
M  V30 781 H 77.8623 0.199304 -0.725108 0
M  V30 782 H 79.8333 -0.0649365 -2.98329 0
M  V30 783 C 78.5823 1.71023 -3.02731 0
M  V30 784 H 77.9053 1.28885 -3.78456 0
M  V30 785 H 79.3453 2.30314 -3.55993 0
M  V30 786 C 77.8043 2.62692 -2.10938 0
M  V30 787 O 78.3343 3.64364 -1.6912 0
M  V30 788 N 76.5403 2.30891 -1.76459 0
M  V30 789 H 76.0873 1.48253 -2.10663 0
M  V30 790 H 76.0453 2.92487 -1.1532 0
M  V30 791 N 79.8174 1.5752 -0.0501392 0
M  V30 792 C 81.0574 1.94521 0.627783 0
M  V30 793 C 81.4214 0.928265 1.68069 0
M  V30 794 O 82.6224 1.18517 2.41261 0
M  V30 795 C 80.8934 3.36319 1.20932 0
M  V30 796 S 82.4524 3.95272 1.90539 0
M  V30 797 H 79.2704 0.680456 0.206158 0
M  V30 798 H 81.8724 1.95139 -0.118829 0
M  V30 799 H 80.5764 4.08132 0.430865 0
M  V30 800 H 80.1074 3.39193 1.99277 0
M  V30 801 H 82.1224 3.80415 3.18589 0
M  V30 802 N 81.2955 -0.223234 1.56011 0
M  V30 803 C 82.2255 -1.27988 1.95298 0
M  V30 804 C 83.2065 -1.48976 0.820979 0
M  V30 805 O 84.3915 -1.61188 1.08315 0
M  V30 806 C 81.5215 -2.63 2.26822 0
M  V30 807 C 80.4755 -2.56671 3.42497 0
M  V30 808 C 79.8015 -3.95697 3.59622 0
M  V30 809 C 81.1015 -2.11601 4.77517 0
M  V30 810 H 82.7955 -0.953525 2.8381 0
M  V30 811 H 80.3415 -0.457244 1.36548 0
M  V30 812 H 82.2945 -3.37077 2.52898 0
M  V30 813 H 81.0185 -2.9732 1.35161 0
M  V30 814 H 79.6775 -1.85051 3.16467 0
M  V30 815 H 79.3255 -4.27322 2.6534 0
M  V30 816 H 79.0255 -3.92345 4.37424 0
M  V30 817 H 80.5495 -4.71438 3.88044 0
M  V30 818 H 81.9635 -2.7542 5.02809 0
M  V30 819 H 80.3605 -2.19311 5.5859 0
M  V30 820 H 81.4305 -1.06824 4.72987 0
M  V30 821 N 82.7736 -1.49793 -0.48987 0
M  V30 822 C 83.7366 -1.66752 -1.57246 0
M  V30 823 C 84.7366 -0.538867 -1.51502 0
M  V30 824 O 85.9266 -0.805545 -1.54456 0
M  V30 825 C 83.0586 -1.67528 -2.96896 0
M  V30 826 H 84.2516 -2.63321 -1.43534 0
M  V30 827 H 81.8046 -1.38992 -0.714914 0
M  V30 828 H 82.5396 -0.725837 -3.16073 0
M  V30 829 H 82.3246 -2.49504 -3.02473 0
M  V30 830 H 83.8146 -1.82667 -3.7553 0
M  V30 831 N 84.2517 0.741722 -1.39055 0
M  V30 832 C 85.4997 1.49818 -1.35643 0
M  V30 833 C 85.8207 1.94938 0.0491642 0
M  V30 834 O 85.0907 1.68505 0.999141 0
M  V30 835 H 83.6707 0.555755 -0.499144 0
M  V30 836 H 86.3327 0.880957 -1.73854 0
M  V30 837 H 85.4287 2.38348 -2.01486 0
M  V30 838 N 85.7298 1.2412 0.971189 0
M  V30 839 C 86.9778 1.07668 1.71032 0
M  V30 840 C 87.2988 -0.385797 1.91146 0
M  V30 841 O 86.5688 -1.27569 1.4867 0
M  V30 842 H 85.1488 0.395429 0.633755 0
M  V30 843 H 87.8108 1.55984 1.16855 0
M  V30 844 H 86.9068 1.57195 2.69622 0
M  V30 845 N 87.2079 -1.17134 1.05439 0
M  V30 846 C 88.4379 -1.91094 0.785274 0
M  V30 847 C 88.8459 -1.77198 -0.663142 0
M  V30 848 O 88.1889 -1.10835 -1.46497 0
M  V30 849 C 88.2509 -3.42594 1.08949 0
M  V30 850 C 87.9149 -3.80274 2.53458 0
M  V30 851 C 88.9119 -3.82912 3.51673 0
M  V30 852 C 86.5969 -4.11162 2.88532 0
M  V30 853 C 88.5909 -4.15913 4.83006 0
M  V30 854 C 86.2779 -4.43831 4.20068 0
M  V30 855 C 87.2759 -4.46185 5.17115 0
M  V30 856 O 86.9639 -4.78083 6.46291 0
M  V30 857 H 86.6959 -0.613073 0.284811 0
M  V30 858 H 89.2499 -1.49461 1.40893 0
M  V30 859 H 87.4799 -3.84534 0.408741 0
M  V30 860 H 89.1689 -3.97817 0.805991 0
M  V30 861 H 89.9349 -3.5917 3.25917 0
M  V30 862 H 85.8139 -4.085 2.13656 0
M  V30 863 H 89.3579 -4.17665 5.5875 0
M  V30 864 H 85.2549 -4.67037 4.45586 0
M  V30 865 H 86.0229 -4.9593 6.51149 0
M  V30 866 N 88.686 -0.835752 -1.33615 0
M  V30 867 C 89.963 -0.352017 -1.92406 0
M  V30 868 C 90.343 1.16225 -1.76224 0
M  V30 869 O 89.691 1.97526 -1.14873 0
M  V30 870 C 89.901 -0.795485 -3.39813 0
M  V30 871 C 91.249 -0.801703 -4.16963 0
M  V30 872 O 92.273 -0.738889 -3.48452 0
M  V30 873 O 91.132 -0.886607 -5.3926 0
M  V30 874 H 88.226 -0.0989641 -0.821057 0
M  V30 875 H 90.772 -0.921397 -1.42507 0
M  V30 876 H 89.544 -1.83795 -3.45449 0
M  V30 877 H 89.167 -0.202505 -3.97084 0
M  V30 878 N 90.1641 1.46063 -0.591896 0
M  V30 879 C 91.3921 2.06717 -0.0868936 0
M  V30 880 C 91.8071 1.43916 1.22203 0
M  V30 881 O 91.1641 0.547698 1.74088 0
M  V30 882 C 91.2151 3.6142 0.0758725 0
M  V30 883 O 90.9361 4.21874 -1.18126 0
M  V30 884 C 92.4371 4.39025 0.61416 0
M  V30 885 H 89.6571 0.668162 -0.0616518 0
M  V30 886 H 92.2011 1.8755 -0.815175 0
M  V30 887 H 90.3561 3.79983 0.754413 0
M  V30 888 H 90.7701 5.14861 -1.00092 0
M  V30 889 H 92.2441 5.4783 0.677193 0
M  V30 890 H 92.7211 4.07708 1.63312 0
M  V30 891 H 93.3271 4.2529 -0.0298142 0
M  V30 892 N 91.6422 0.330177 1.54103 0
M  V30 893 C 92.8912 -0.271336 1.99867 0
M  V30 894 C 93.2042 -1.52723 1.22209 0
M  V30 895 O 94.4102 -2.20515 1.58383 0
M  V30 896 C 92.8662 -0.534032 3.55916 0
M  V30 897 C 92.4742 0.705193 4.42415 0
M  V30 898 C 94.2182 -1.09514 4.1013 0
M  V30 899 C 92.1252 0.414035 5.89949 0
M  V30 900 H 91.0552 -0.105166 0.74663 0
M  V30 901 H 93.7062 0.443429 1.78062 0
M  V30 902 H 92.0882 -1.30915 3.73734 0
M  V30 903 H 93.2622 1.4804 4.36372 0
M  V30 904 H 91.5772 1.18698 3.99124 0
M  V30 905 H 94.1742 -1.3277 5.17954 0
M  V30 906 H 94.5172 -2.04656 3.62521 0
M  V30 907 H 95.0502 -0.381038 3.95971 0
M  V30 908 H 91.7892 1.33481 6.41766 0
M  V30 909 H 91.3092 -0.323336 5.98928 0
M  V30 910 H 92.9882 0.0263105 6.46995 0
M  V30 911 N 93.1203 -1.57491 0.0584922 0
M  V30 912 C 94.3673 -1.92978 -0.613648 0
M  V30 913 C 94.6953 -0.937461 -1.70417 0
M  V30 914 O 93.9503 0.049078 -1.95638 0
M  V30 915 C 94.2493 -3.3513 -1.24188 0
M  V30 916 C 93.9153 -4.50037 -0.278826 0
M  V30 917 C 92.5773 -4.81198 -0.0138447 0
M  V30 918 C 94.9293 -5.19807 0.380777 0
M  V30 919 C 92.2573 -5.79473 0.918052 0
M  V30 920 C 94.6093 -6.19079 1.30091 0
M  V30 921 C 93.2733 -6.48665 1.57449 0
M  V30 922 H 92.5433 -0.706157 -0.22455 0
M  V30 923 H 95.1903 -1.91082 0.126533 0
M  V30 924 H 93.4953 -3.33429 -2.05749 0
M  V30 925 H 95.1923 -3.59871 -1.769 0
M  V30 926 H 91.7823 -4.25726 -0.495539 0
M  V30 927 H 95.9663 -4.95939 0.189158 0
M  V30 928 H 91.2223 -6.00727 1.1374 0
M  V30 929 H 95.3963 -6.7225 1.81804 0
M  V30 930 H 93.0233 -7.24628 2.29822 0
M  V30 931 N 94.5984 0.214957 -1.56127 0
M  V30 932 C 95.8234 0.95924 -1.83884 0
M  V30 933 C 96.2484 1.7689 -0.639644 0
M  V30 934 O 95.6064 1.76566 0.411601 0
M  V30 935 C 95.6544 1.84723 -3.09693 0
M  V30 936 O 94.7584 2.94346 -2.8885 0
M  V30 937 H 94.0994 0.27125 -0.606069 0
M  V30 938 H 96.6294 0.226276 -2.03345 0
M  V30 939 H 96.6394 2.25576 -3.39969 0
M  V30 940 H 95.3144 1.25218 -3.96602 0
M  V30 941 H 93.8914 2.57391 -2.69823 0
M  V30 942 N 96.0765 1.50051 0.48192 0
M  V30 943 C 97.0065 1.71046 1.58951 0
M  V30 944 C 97.9875 0.559288 1.60642 0
M  V30 945 O 99.1725 0.797243 1.77081 0
M  V30 946 C 96.3025 1.79462 2.97339 0
M  V30 947 C 95.2565 2.94558 3.10515 0
M  V30 948 C 94.5825 2.88105 4.50444 0
M  V30 949 C 95.8825 4.35227 2.88747 0
M  V30 950 H 97.5765 2.6378 1.41635 0
M  V30 951 H 95.1225 1.26936 0.679942 0
M  V30 952 H 97.0755 1.92734 3.74742 0
M  V30 953 H 95.7995 0.833412 3.15788 0
M  V30 954 H 94.4585 2.80918 2.35543 0
M  V30 955 H 94.1065 1.89853 4.65795 0
M  V30 956 H 93.8065 3.65366 4.60197 0
M  V30 957 H 95.3305 3.03412 5.29881 0
M  V30 958 H 96.7445 4.49449 3.55905 0
M  V30 959 H 95.1415 5.13856 3.09955 0
M  V30 960 H 96.2115 4.48347 1.84696 0
M  V30 961 N 97.5546 -0.734337 1.39446 0
M  V30 962 C 98.7946 -1.50655 1.38139 0
M  V30 963 C 99.1586 -1.91986 -0.0228701 0
M  V30 964 O 100.36 -2.68318 -0.160947 0
M  V30 965 C 98.6306 -2.71251 2.32718 0
M  V30 966 S 100.19 -3.60892 2.49605 0
M  V30 967 H 97.0076 -0.515315 0.489869 0
M  V30 968 H 99.6096 -0.860392 1.75549 0
M  V30 969 H 98.3136 -2.39027 3.33608 0
M  V30 970 H 97.8446 -3.40795 1.96526 0
M  V30 971 H 99.8596 -4.64899 1.73446 0
M  V30 972 N 99.0327 -1.24633 -0.964593 0
M  V30 973 C 100.31 -0.995809 -1.68354 0
M  V30 974 C 100.69 0.480964 -2.05548 0
M  V30 975 O 100.038 1.45599 -1.76105 0
M  V30 976 C 100.248 -1.92177 -2.91323 0
M  V30 977 C 101.596 -2.19446 -3.63495 0
M  V30 978 O 102.62 -1.89855 -3.01386 0
M  V30 979 O 101.479 -2.69714 -4.75307 0
M  V30 980 H 98.5727 -0.376854 -0.736146 0
M  V30 981 H 101.119 -1.35745 -1.0184 0
M  V30 982 H 99.8907 -2.91938 -2.60553 0
M  V30 983 H 99.5137 -1.56349 -3.65569 0
M  V30 984 N 100.511 1.16574 -1.06058 0
M  V30 985 C 101.788 1.83048 -0.689416 0
M  V30 986 C 102.168 1.94122 0.829443 0
M  V30 987 O 101.516 1.48249 1.7388 0
M  V30 988 C 101.726 3.20186 -1.38859 0
M  V30 989 C 103.074 3.95989 -1.53226 0
M  V30 990 O 104.098 3.29696 -1.3483 0
M  V30 991 O 102.957 5.14813 -1.83384 0
M  V30 992 H 100.051 0.790258 -0.243764 0
M  V30 993 H 102.597 1.23797 -1.16071 0
M  V30 994 H 101.369 3.07146 -2.4244 0
M  V30 995 H 100.992 3.87112 -0.907216 0
M  V30 996 N 101.989 0.842826 1.3317 0
M  V30 997 C 103.219 0.453397 2.01564 0
M  V30 998 C 103.627 -0.951147 1.63554 0
M  V30 999 O 102.97 -1.63021 0.846746 0
M  V30 1000 C 103.032 0.499013 3.5602 0
M  V30 1001 C 102.696 1.86037 4.1742 0
M  V30 1002 C 103.693 2.82416 4.36506 0
M  V30 1003 C 101.378 2.15428 4.53757 0
M  V30 1004 C 103.372 4.06346 4.91082 0
M  V30 1005 C 101.059 3.39615 5.0804 0
M  V30 1006 C 102.057 4.3489 5.26649 0
M  V30 1007 O 101.745 5.5688 5.79776 0
M  V30 1008 H 101.477 0.177871 0.652179 0
M  V30 1009 H 104.031 1.13808 1.70988 0
M  V30 1010 H 102.261 -0.242467 3.85939 0
M  V30 1011 H 103.95 0.126852 4.05702 0
M  V30 1012 H 104.716 2.6101 4.08777 0
M  V30 1013 H 100.595 1.42061 4.38565 0
M  V30 1014 H 104.139 4.80722 5.05522 0
M  V30 1015 H 100.036 3.60876 5.352 0
M  V30 1016 H 100.804 5.58674 5.98185 0
M  V30 1017 N 103.467 -1.45747 0.599634 0
M  V30 1018 C 104.744 -1.95585 0.0240846 0
M  V30 1019 C 105.124 -1.54217 -1.44154 0
M  V30 1020 O 104.472 -0.800903 -2.14004 0
M  V30 1021 C 104.682 -3.48344 0.21385 0
M  V30 1022 C 106.03 -4.24504 0.0904902 0
M  V30 1023 O 107.054 -3.55911 0.143558 0
M  V30 1024 O 105.913 -5.46491 -0.0310766 0
M  V30 1025 H 103.007 -0.82602 -0.0402478 0
M  V30 1026 H 105.553 -1.55951 0.669139 0
M  V30 1027 H 104.325 -3.71397 1.23206 0
M  V30 1028 H 103.948 -3.9485 -0.466842 0
M  V30 1029 N 104.945 -0.338344 -1.53925 0
M  V30 1030 C 106.356 0.146651 -1.86123 0
M  V30 1031 C 106.707 1.5042 -1.2597 0
M  V30 1032 O 105.832 2.08723 -0.571294 0
M  V30 1033 C 106.427 0.272879 -3.37699 0
M  V30 1034 C 104.986 0.702103 -3.69794 0
M  V30 1035 C 104.133 -0.167304 -2.76795 0
M  V30 1036 H 107.084 -0.558123 -1.48562 0
M  V30 1037 H 107.105 1.10128 -3.64214 0
M  V30 1038 H 106.617 -0.715307 -3.81451 0
M  V30 1039 H 104.718 1.6995 -3.31584 0
M  V30 1040 H 104.831 0.495604 -4.7653 0
M  V30 1041 H 103.195 0.359527 -2.5215 0
M  V30 1042 H 103.978 -1.15253 -3.23375 0
M  V30 1043 N 106.423 1.57458 -0.0668435 0
M  V30 1044 C 107.671 1.92919 0.602214 0
M  V30 1045 C 107.992 0.947215 1.70449 0
M  V30 1046 O 107.262 -0.00544117 1.95899 0
M  V30 1047 H 105.842 0.71217 0.22544 0
M  V30 1048 H 108.504 1.94508 -0.123535 0
M  V30 1049 H 107.6 2.94589 1.03073 0
M  V30 1050 N 107.901 -0.206675 1.56239 0
M  V30 1051 C 108.848 -1.25617 1.93621 0
M  V30 1052 C 109.818 -1.45824 0.795274 0
M  V30 1053 O 111.003 -1.59148 1.05245 0
M  V30 1054 C 108.143 -2.59839 2.27107 0
M  V30 1055 C 107.256 -2.47308 3.54207 0
M  V30 1056 C 106.391 -3.74155 3.7707 0
M  V30 1057 C 105.43 -3.56407 4.97635 0
M  V30 1058 N 104.567 -4.75238 5.1681 0
M  V30 1059 H 109.407 -0.930383 2.83104 0
M  V30 1060 H 106.944 -0.448065 1.4011 0
M  V30 1061 H 108.902 -3.38021 2.44535 0
M  V30 1062 H 107.532 -2.90485 1.40778 0
M  V30 1063 H 106.584 -1.60483 3.4489 0
M  V30 1064 H 107.896 -2.30122 4.42544 0
M  V30 1065 H 107.05 -4.60778 3.94675 0
M  V30 1066 H 105.789 -3.94282 2.87042 0
M  V30 1067 H 104.794 -2.68168 4.79964 0
M  V30 1068 H 106.019 -3.37736 5.89161 0
M  V30 1069 H 103.965 -4.95651 4.29728 0
M  V30 1070 H 103.882 -4.60835 5.99306 0
M  V30 1071 H 105.15 -5.63246 5.38864 0
M  V30 1072 N 109.379 -1.50304 -0.473955 0
M  V30 1073 C 110.795 -1.37667 -0.807466 0
M  V30 1074 C 110.995 -0.430555 -1.96846 0
M  V30 1075 O 110.051 0.127874 -2.52176 0
M  V30 1076 C 111.364 -2.78974 -1.12223 0
M  V30 1077 C 112.912 -2.87868 -1.22885 0
M  V30 1078 C 113.387 -4.30003 -1.57676 0
M  V30 1079 N 114.878 -4.3294 -1.64673 0
M  V30 1080 C 115.613 -5.3991 -1.93091 0
M  V30 1081 N 115.109 -6.57092 -2.1955 0
M  V30 1082 N 116.902 -5.27351 -1.94569 0
M  V30 1083 H 109.053 -2.10394 0.291212 0
M  V30 1084 H 111.316 -0.945575 0.0677609 0
M  V30 1085 H 111.022 -3.50031 -0.342229 0
M  V30 1086 H 110.896 -3.16038 -2.05913 0
M  V30 1087 H 113.283 -2.17032 -1.99953 0
M  V30 1088 H 113.364 -2.54352 -0.271814 0
M  V30 1089 H 113.008 -5.01375 -0.81149 0
M  V30 1090 H 112.938 -4.61004 -2.54525 0
M  V30 1091 H 115.429 -3.48441 -1.46277 0
M  V30 1092 H 115.742 -7.34425 -2.405 0
M  V30 1093 H 114.087 -6.60272 -2.16948 0
M  V30 1094 H 117.278 -4.34801 -1.73394 0
M  V30 1095 H 117.451 -6.10805 -2.16381 0
M  V30 1096 N 110.857 0.726932 -1.39834 0
M  V30 1097 C 111.767 1.87131 -1.41489 0
M  V30 1098 C 112.783 1.71239 -0.308757 0
M  V30 1099 O 113.959 1.93701 -0.551529 0
M  V30 1100 C 111.024 3.22811 -1.26468 0
M  V30 1101 C 110.085 3.51039 -2.47124 0
M  V30 1102 C 109.318 4.80245 -2.3281 0
M  V30 1103 O 109.541 5.54537 -1.33585 0
M  V30 1104 O 108.475 5.08554 -3.21957 0
M  V30 1105 H 112.301 1.8869 -2.3797 0
M  V30 1106 H 109.886 0.875837 -1.21035 0
M  V30 1107 H 111.768 4.03877 -1.20255 0
M  V30 1108 H 110.443 3.22005 -0.330862 0
M  V30 1109 H 109.35 2.70027 -2.58914 0
M  V30 1110 H 110.683 3.56632 -3.39227 0
M  V30 1111 N 112.336 1.25143 0.95797 0
M  V30 1112 C 113.583 1.09692 1.70217 0
M  V30 1113 C 113.911 -0.362654 1.91089 0
M  V30 1114 O 113.166 -1.28386 1.47701 0
M  V30 1115 C 113.465 1.79272 3.09187 0
M  V30 1116 C 113.131 3.29196 3.08125 0
M  V30 1117 C 111.793 3.70096 3.07543 0
M  V30 1118 C 114.145 4.24995 3.0171 0
M  V30 1119 C 111.473 5.05213 2.9829 0
M  V30 1120 C 113.825 5.60132 2.93999 0
M  V30 1121 C 112.489 6.00365 2.9175 0
M  V30 1122 H 111.759 0.401393 0.622868 0
M  V30 1123 H 114.406 1.55372 1.11945 0
M  V30 1124 H 112.711 1.26014 3.70982 0
M  V30 1125 H 114.408 1.64773 3.65583 0
M  V30 1126 H 110.998 2.96651 3.09348 0
M  V30 1127 H 115.182 3.9439 3.01281 0
M  V30 1128 H 110.438 5.35569 2.94916 0
M  V30 1129 H 114.612 6.3406 2.87996 0
M  V30 1130 H 112.239 7.05023 2.84336 0
M  V30 1131 N 113.814 -1.1601 1.06675 0
M  V30 1132 C 115.044 -1.90251 0.805497 0
M  V30 1133 C 115.452 -1.77891 -0.64431 0
M  V30 1134 O 114.795 -1.12383 -1.45313 0
M  V30 1135 C 114.857 -3.41419 1.12576 0
M  V30 1136 C 114.521 -3.77564 2.57477 0
M  V30 1137 C 115.518 -3.79161 3.55715 0
M  V30 1138 C 113.203 -4.08079 2.92877 0
M  V30 1139 C 115.197 -4.10767 4.8739 0
M  V30 1140 C 112.884 -4.39351 4.24751 0
M  V30 1141 C 113.882 -4.40675 5.21818 0
M  V30 1142 O 113.57 -4.71202 6.51325 0
M  V30 1143 H 113.302 -0.610018 0.291297 0
M  V30 1144 H 115.856 -1.47958 1.4247 0
M  V30 1145 H 114.086 -3.84079 0.449503 0
M  V30 1146 H 115.775 -3.9694 0.84814 0
M  V30 1147 H 116.541 -3.55693 3.29708 0
M  V30 1148 H 112.42 -4.06211 2.17976 0
M  V30 1149 H 115.964 -4.11715 5.63148 0
M  V30 1150 H 111.861 -4.62285 4.50514 0
M  V30 1151 H 112.629 -4.88996 6.56373 0
M  V30 1152 N 115.292 -0.849877 -1.32721 0
M  V30 1153 C 116.539 -0.450923 -1.97416 0
M  V30 1154 C 116.867 0.992376 -1.67279 0
M  V30 1155 O 116.122 1.71048 -0.950845 0
M  V30 1156 C 116.421 -0.631272 -3.51781 0
M  V30 1157 C 116.087 -2.04432 -4.01894 0
M  V30 1158 C 114.749 -2.4308 -4.1529 0
M  V30 1159 C 117.101 -2.96679 -4.28522 0
M  V30 1160 C 114.429 -3.73257 -4.52654 0
M  V30 1161 C 116.781 -4.26349 -4.67343 0
M  V30 1162 C 115.445 -4.64939 -4.78945 0
M  V30 1163 H 114.715 -0.165004 -0.722395 0
M  V30 1164 H 117.362 -1.07901 -1.58207 0
M  V30 1165 H 115.667 0.0800767 -3.91718 0
M  V30 1166 H 117.364 -0.302709 -3.99856 0
M  V30 1167 H 113.954 -1.73419 -3.91949 0
M  V30 1168 H 118.138 -2.68054 -4.17685 0
M  V30 1169 H 113.394 -4.02946 -4.59831 0
M  V30 1170 H 117.568 -4.97895 -4.86902 0
M  V30 1171 H 115.195 -5.65855 -5.07654 0
M  V30 1172 N 116.77 1.45427 -0.607355 0
M  V30 1173 C 118.047 1.9557 -0.0344566 0
M  V30 1174 C 118.427 1.54979 1.43334 0
M  V30 1175 O 117.775 0.812241 2.13576 0
M  V30 1176 C 117.985 3.48226 -0.232321 0
M  V30 1177 C 119.333 4.2445 -0.113001 0
M  V30 1178 O 120.357 3.55829 -0.162431 0
M  V30 1179 O 119.216 5.465 0.00209442 0
M  V30 1180 H 116.31 0.826222 0.0358667 0
M  V30 1181 H 118.856 1.55594 -0.6774 0
M  V30 1182 H 117.628 3.70739 -1.25174 0
M  V30 1183 H 117.251 3.95092 0.445896 0
M  V30 1184 N 118.248 0.346503 1.53744 0
M  V30 1185 C 119.664 -0.00530975 1.59599 0
M  V30 1186 C 119.864 -1.48465 1.36236 0
M  V30 1187 O 118.92 -2.24376 1.15808 0
M  V30 1188 C 120.233 0.433516 2.97559 0
M  V30 1189 C 121.781 0.386111 3.10609 0
M  V30 1190 C 122.256 0.800451 4.50951 0
M  V30 1191 N 123.747 0.754753 4.5701 0
M  V30 1192 C 124.482 1.04727 5.63755 0
M  V30 1193 N 123.978 1.4081 6.7834 0
M  V30 1194 N 125.771 0.971316 5.53644 0
M  V30 1195 H 117.922 1.31009 1.67184 0
M  V30 1196 H 120.185 0.534242 0.783128 0
M  V30 1197 H 119.891 1.46509 3.19731 0
M  V30 1198 H 119.765 -0.189753 3.76722 0
M  V30 1199 H 122.152 -0.636295 2.88158 0
M  V30 1200 H 122.233 1.04462 2.33498 0
M  V30 1201 H 121.877 1.82088 4.74137 0
M  V30 1202 H 121.807 0.119386 5.26465 0
M  V30 1203 H 124.298 0.488662 3.74727 0
M  V30 1204 H 124.611 1.61607 7.55714 0
M  V30 1205 H 122.956 1.44657 6.79779 0
M  V30 1206 H 126.147 0.688748 4.63005 0
M  V30 1207 H 126.32 1.20263 6.36742 0
M  V30 1208 N 119.726 -1.57421 0.075193 0
M  V30 1209 C 121.003 -1.85029 -0.634329 0
M  V30 1210 C 121.383 -0.968305 -1.87582 0
M  V30 1211 O 120.731 -0.0354749 -2.28472 0
M  V30 1212 C 120.941 -3.35286 -0.968742 0
M  V30 1213 C 122.289 -4.02875 -1.34077 0
M  V30 1214 O 123.313 -3.40051 -1.06037 0
M  V30 1215 O 122.172 -5.13691 -1.86506 0
M  V30 1216 H 119.266 -0.7645 -0.315387 0
M  V30 1217 H 121.812 -1.69366 0.106382 0
M  V30 1218 H 120.584 -3.91203 -0.0871376 0
M  V30 1219 H 120.207 -3.56223 -1.7661 0
M  V30 1220 N 121.204 0.198386 -1.56346 0
M  V30 1221 C 122.615 0.763358 -1.70381 0
M  V30 1222 C 122.966 1.83995 -0.681203 0
M  V30 1223 O 122.091 2.15785 0.16305 0
M  V30 1224 C 122.686 1.39143 -3.08909 0
M  V30 1225 C 121.245 1.90352 -3.2472 0
M  V30 1226 C 120.392 0.772233 -2.6633 0
M  V30 1227 H 123.343 -0.0266377 -1.58678 0
M  V30 1228 H 123.364 2.26076 -3.06055 0
M  V30 1229 H 122.876 0.607638 -3.83314 0
M  V30 1230 H 120.977 2.71461 -2.55225 0
M  V30 1231 H 121.09 2.06757 -4.3219 0
M  V30 1232 H 119.454 1.18566 -2.2542 0
M  V30 1233 H 120.237 0.00073556 -3.433 0
M  V30 1234 N 122.682 1.50554 0.465978 0
M  V30 1235 C 123.959 1.5232 1.22712 0
M  V30 1236 C 124.339 0.270807 2.09356 0
M  V30 1237 O 123.687 -0.745541 2.15995 0
M  V30 1238 C 123.897 2.82175 2.05374 0
M  V30 1239 C 125.245 3.33033 2.6339 0
M  V30 1240 O 126.269 2.83531 2.15612 0
M  V30 1241 O 125.128 4.19336 3.50456 0
M  V30 1242 H 122.222 0.611183 0.557122 0
M  V30 1243 H 124.768 1.62847 0.477381 0
M  V30 1244 H 123.54 3.64797 1.41558 0
M  V30 1245 H 123.163 2.74675 2.87471 0
M  V30 1246 N 124.16 -0.719506 1.40217 0
M  V30 1247 C 125.123 -1.8153 1.39927 0
M  V30 1248 C 126.123 -1.58095 0.293723 0
M  V30 1249 O 127.313 -1.65209 0.552429 0
M  V30 1250 C 124.445 -3.19561 1.18716 0
M  V30 1251 H 125.638 -1.83186 2.37451 0
M  V30 1252 H 123.191 -0.924746 1.26008 0
M  V30 1253 H 123.926 -3.23557 0.219366 0
M  V30 1254 H 123.711 -3.3797 1.98793 0
M  V30 1255 H 125.201 -3.99598 1.21291 0
M  V30 1256 N 125.638 -1.25649 -0.95132 0
M  V30 1257 C 126.885 -1.10594 -1.69633 0
M  V30 1258 C 127.213 0.352515 -1.91279 0
M  V30 1259 O 126.468 1.27601 -1.4838 0
M  V30 1260 C 126.767 -1.80909 -3.08231 0
M  V30 1261 C 126.433 -3.30825 -3.06375 0
M  V30 1262 C 125.095 -3.71722 -3.05576 0
M  V30 1263 C 127.447 -4.26589 -2.99452 0
M  V30 1264 C 124.775 -5.06788 -2.95606 0
M  V30 1265 C 127.127 -5.61683 -2.91024 0
M  V30 1266 C 125.791 -6.01904 -2.88562 0
M  V30 1267 H 125.061 -0.404691 -0.620731 0
M  V30 1268 H 127.708 -1.55964 -1.11119 0
M  V30 1269 H 126.013 -1.27979 -3.70309 0
M  V30 1270 H 127.71 -1.6671 -3.64704 0
M  V30 1271 H 124.3 -2.98287 -3.07771 0
M  V30 1272 H 128.484 -3.95982 -2.99185 0
M  V30 1273 H 123.74 -5.37126 -2.92071 0
M  V30 1274 H 127.914 -6.35578 -2.84629 0
M  V30 1275 H 125.541 -7.06521 -2.80593 0
M  V30 1276 N 127.117 1.15442 -1.07289 0
M  V30 1277 C 128.064 2.20161 -0.692653 0
M  V30 1278 C 129.034 1.63073 0.31564 0
M  V30 1279 O 130.219 1.89725 0.202235 0
M  V30 1280 C 127.359 3.44967 -0.0959509 0
M  V30 1281 C 126.472 4.16256 -1.15564 0
M  V30 1282 C 125.607 5.28609 -0.524011 0
M  V30 1283 C 124.646 5.91715 -1.56653 0
M  V30 1284 N 123.783 6.9554 -0.957531 0
M  V30 1285 H 128.623 2.52037 -1.59002 0
M  V30 1286 H 126.16 1.2378 -0.794798 0
M  V30 1287 H 128.118 4.16341 0.267628 0
M  V30 1288 H 126.748 3.1361 0.764772 0
M  V30 1289 H 125.8 3.43385 -1.6368 0
M  V30 1290 H 127.112 4.59268 -1.94613 0
M  V30 1291 H 126.266 6.06604 -0.108032 0
M  V30 1292 H 125.005 4.86787 0.29825 0
M  V30 1293 H 124.01 5.12433 -1.9923 0
M  V30 1294 H 125.235 6.35614 -2.39107 0
M  V30 1295 H 123.181 6.55814 -0.156162 0
M  V30 1296 H 123.098 7.36977 -1.68526 0
M  V30 1297 H 124.366 7.77435 -0.567032 0
M  V30 1298 N 128.595 0.856903 1.32268 0
M  V30 1299 C 129.835 0.467705 1.98977 0
M  V30 1300 C 130.199 -0.959231 1.66321 0
M  V30 1301 O 131.4 -1.4531 2.26138 0
M  V30 1302 C 129.671 0.70256 3.50427 0
M  V30 1303 S 131.23 0.411269 4.36868 0
M  V30 1304 H 128.048 0.175121 0.689096 0
M  V30 1305 H 130.65 1.1101 1.60925 0
M  V30 1306 H 129.354 1.74012 3.71683 0
M  V30 1307 H 128.885 0.0466707 3.93372 0
M  V30 1308 H 130.9 -0.761799 4.90317 0
M  V30 1309 N 130.073 -1.45103 0.615059 0
M  V30 1310 C 131.319 -2.02483 0.113347 0
M  V30 1311 C 131.652 -1.48146 -1.25564 0
M  V30 1312 O 130.927 -0.659104 -1.82992 0
M  V30 1313 C 131.21 -3.60005 0.0825278 0
M  V30 1314 C 131.063 -4.2466 1.48271 0
M  V30 1315 C 132.382 -4.35972 -0.601401 0
M  V30 1316 H 129.501 -0.735764 0.0426632 0
M  V30 1317 H 132.143 -1.72868 0.788461 0
M  V30 1318 H 130.293 -3.85367 -0.492378 0
M  V30 1319 H 131.965 -4.10458 2.10527 0
M  V30 1320 H 130.208 -3.82772 2.04127 0
M  V30 1321 H 130.879 -5.336 1.41332 0
M  V30 1322 H 133.355 -4.15947 -0.112666 0
M  V30 1323 H 132.231 -5.45697 -0.592097 0
M  V30 1324 H 132.492 -4.09391 -1.66887 0
M  V30 1325 N 131.551 -0.354651 -1.53558 0
M  V30 1326 C 132.8 0.239504 -2.00273 0
M  V30 1327 C 133.113 1.50759 -1.24623 0
M  V30 1328 O 134.319 2.17968 -1.61871 0
M  V30 1329 C 132.775 0.477341 -3.5672 0
M  V30 1330 C 132.383 -0.775488 -4.41237 0
M  V30 1331 C 134.127 1.02975 -4.11821 0
M  V30 1332 C 132.034 -0.507838 -5.89216 0
M  V30 1333 H 130.964 0.0932743 -0.748208 0
M  V30 1334 H 133.615 -0.471701 -1.77334 0
M  V30 1335 H 131.997 1.24953 -3.7577 0
M  V30 1336 H 133.171 -1.54963 -4.33962 0
M  V30 1337 H 131.486 -1.25033 -3.97185 0
M  V30 1338 H 134.083 1.24513 -5.2 0
M  V30 1339 H 134.426 1.98862 -3.65731 0
M  V30 1340 H 134.959 0.317994 -3.96527 0
M  V30 1341 H 131.698 -1.43674 -6.39561 0
M  V30 1342 H 131.218 0.228011 -5.99366 0
M  V30 1343 H 132.897 -0.129238 -6.46871 0
M  V30 1344 N 133.029 1.57378 -0.0835403 0
M  V30 1345 C 133.939 2.16897 0.894021 0
M  V30 1346 C 134.955 1.13528 1.31861 0
M  V30 1347 O 136.131 1.45848 1.3889 0
M  V30 1348 C 133.196 2.72831 2.13925 0
M  V30 1349 C 132.257 3.91115 1.76997 0
M  V30 1350 C 131.49 4.44371 2.95584 0
M  V30 1351 O 131.713 3.96596 4.09961 0
M  V30 1352 O 130.647 5.35549 2.74719 0
M  V30 1353 H 134.473 3.00814 0.417679 0
M  V30 1354 H 132.058 1.48741 0.140181 0
M  V30 1355 H 133.94 3.0863 2.86924 0
M  V30 1356 H 132.615 1.91967 2.60635 0
M  V30 1357 H 131.522 3.60148 1.01214 0
M  V30 1358 H 132.855 4.73307 1.3506 0
M  V30 1359 N 134.507 -0.190092 1.56449 0
M  V30 1360 C 135.753 -0.911052 1.81184 0
M  V30 1361 C 136.086 -1.82699 0.658396 0
M  V30 1362 O 135.361 -1.91491 -0.340775 0
M  V30 1363 C 135.644 -1.72297 3.16205 0
M  V30 1364 C 135.497 -0.831419 4.42049 0
M  V30 1365 C 136.816 -2.69454 3.47969 0
M  V30 1366 H 133.935 -0.32977 0.659106 0
M  V30 1367 H 136.577 -0.178169 1.89163 0
M  V30 1368 H 134.727 -2.34778 3.09534 0
M  V30 1369 H 136.399 -0.220929 4.60771 0
M  V30 1370 H 134.642 -0.138406 4.33579 0
M  V30 1371 H 135.313 -1.43461 5.33032 0
M  V30 1372 H 137.789 -2.17104 3.54972 0
M  V30 1373 H 136.665 -3.23342 4.43555 0
M  V30 1374 H 136.926 -3.48744 2.71717 0
M  V30 1375 N 135.985 -1.50799 -0.457987 0
M  V30 1376 C 137.215 -1.65977 -1.23025 0
M  V30 1377 C 137.623 -0.347918 -1.85974 0
M  V30 1378 O 136.966 0.68148 -1.70592 0
M  V30 1379 C 137.028 -2.70309 -2.3701 0
M  V30 1380 C 136.692 -4.135 -1.94594 0
M  V30 1381 C 137.689 -4.98949 -1.46101 0
M  V30 1382 C 135.374 -4.5949 -2.02915 0
M  V30 1383 C 137.368 -6.28442 -1.06489 0
M  V30 1384 C 135.055 -5.88984 -1.62914 0
M  V30 1385 C 136.053 -6.73286 -1.1478 0
M  V30 1386 O 135.741 -8.00362 -0.75339 0
M  V30 1387 H 135.473 -0.56064 -0.377702 0
M  V30 1388 H 138.027 -1.97857 -0.551537 0
M  V30 1389 H 136.257 -2.337 -3.08093 0
M  V30 1390 H 137.946 -2.74574 -2.98938 0
M  V30 1391 H 138.712 -4.6463 -1.39084 0
M  V30 1392 H 134.591 -3.94009 -2.39328 0
M  V30 1393 H 138.135 -6.94194 -0.688488 0
M  V30 1394 H 134.032 -6.22822 -1.69595 0
M  V30 1395 H 134.8 -8.13744 -0.88108 0
M  V30 1396 N 137.463 0.71206 -1.40597 0
M  V30 1397 C 138.693 1.49894 -1.42181 0
M  V30 1398 C 139.101 1.89189 -0.0208078 0
M  V30 1399 O 138.444 1.56223 0.966436 0
M  V30 1400 C 138.506 2.80215 -2.25211 0
M  V30 1401 C 138.17 2.63221 -3.73582 0
M  V30 1402 C 139.167 2.30249 -4.66135 0
M  V30 1403 C 136.852 2.79376 -4.17438 0
M  V30 1404 C 138.846 2.13645 -6.00529 0
M  V30 1405 C 136.533 2.6239 -5.51901 0
M  V30 1406 C 137.531 2.29573 -6.43262 0
M  V30 1407 O 137.219 2.12719 -7.75246 0
M  V30 1408 H 136.951 0.469031 -0.486812 0
M  V30 1409 H 139.505 0.88564 -1.85326 0
M  V30 1410 H 137.735 3.4389 -1.76852 0
M  V30 1411 H 139.424 3.41947 -2.18694 0
M  V30 1412 H 140.19 2.17398 -4.33547 0
M  V30 1413 H 136.069 3.03906 -3.46644 0
M  V30 1414 H 139.613 1.87953 -6.71803 0
M  V30 1415 H 135.51 2.74826 -5.84073 0
M  V30 1416 H 136.278 2.27611 -7.86216 0
M  V30 1417 N 138.941 1.26152 0.944643 0
M  V30 1418 C 140.188 1.11492 1.69044 0
M  V30 1419 C 140.516 -0.342366 1.91463 0
M  V30 1420 O 139.771 -1.26812 1.49054 0
M  V30 1421 C 140.07 1.82541 3.07268 0
M  V30 1422 C 139.736 3.32445 3.04616 0
M  V30 1423 C 138.398 3.73337 3.036 0
M  V30 1424 C 140.75 4.28171 2.97185 0
M  V30 1425 C 138.078 5.08348 2.92915 0
M  V30 1426 C 140.43 5.63218 2.88041 0
M  V30 1427 C 139.094 6.03426 2.85366 0
M  V30 1428 H 138.364 0.407977 0.618576 0
M  V30 1429 H 141.011 1.56551 1.10291 0
M  V30 1430 H 139.316 1.29941 3.69625 0
M  V30 1431 H 141.013 1.68642 3.63815 0
M  V30 1432 H 137.603 2.99915 3.06185 0
M  V30 1433 H 141.787 3.97563 2.97081 0
M  V30 1434 H 137.043 5.38667 2.89219 0
M  V30 1435 H 141.217 6.37078 2.81254 0
M  V30 1436 H 138.844 7.07999 2.76842 0
M  V30 1437 N 140.419 -1.14872 1.07899 0
M  V30 1438 C 141.667 -1.85422 0.803941 0
M  V30 1439 C 141.988 -1.83051 -0.67211 0
M  V30 1440 O 141.258 -1.27532 -1.48703 0
M  V30 1441 H 139.838 -0.686537 0.294408 0
M  V30 1442 H 142.5 -1.39226 1.3639 0
M  V30 1443 H 141.596 -2.90399 1.14346 0
M  V30 1444 N 141.898 -0.863906 -1.31812 0
M  V30 1445 C 142.808 -0.318461 -2.32428 0
M  V30 1446 C 143.824 0.568496 -1.64451 0
M  V30 1447 O 145 0.46666 -1.95919 0
M  V30 1448 C 142.065 0.476355 -3.43412 0
M  V30 1449 C 141.126 -0.43784 -4.27061 0
M  V30 1450 C 140.359 0.319138 -5.32745 0
M  V30 1451 O 140.582 1.54799 -5.48993 0
M  V30 1452 O 139.516 -0.319861 -6.01049 0
M  V30 1453 H 143.342 -1.15229 -2.80991 0
M  V30 1454 H 140.927 -0.627103 -1.35602 0
M  V30 1455 H 142.809 0.927156 -4.11074 0
M  V30 1456 H 141.484 1.28683 -2.97022 0
M  V30 1457 H 140.391 -0.937013 -3.62175 0
M  V30 1458 H 141.724 -1.21375 -4.77 0
M  V30 1459 N 143.376 1.44774 -0.622745 0
M  V30 1460 C 144.622 2.0242 -0.124083 0
M  V30 1461 C 144.955 1.4881 1.24777 0
M  V30 1462 O 144.23 0.668799 1.8264 0
M  V30 1463 C 144.513 3.59957 -0.101619 0
M  V30 1464 C 144.366 4.23867 -1.50521 0
M  V30 1465 C 145.685 4.36284 0.578272 0
M  V30 1466 H 142.804 0.735528 -0.0465645 0
M  V30 1467 H 145.446 1.72447 -0.797617 0
M  V30 1468 H 143.596 3.85623 0.471934 0
M  V30 1469 H 145.268 4.09336 -2.12701 0
M  V30 1470 H 143.511 3.81684 -2.06154 0
M  V30 1471 H 144.182 5.32843 -1.4416 0
M  V30 1472 H 146.658 4.16001 0.0906057 0
M  V30 1473 H 145.534 5.46004 0.563149 0
M  V30 1474 H 145.795 4.10271 1.64713 0
M  V30 1475 N 144.854 0.36279 1.53368 0
M  V30 1476 C 145.804 -0.501391 2.22419 0
M  V30 1477 C 146.788 -1.0509 1.2184 0
M  V30 1478 O 147.98 -0.981404 1.47301 0
M  V30 1479 C 145.109 -1.64201 3.01484 0
M  V30 1480 C 144.195 -1.10552 4.09438 0
M  V30 1481 N 144.586 -0.291788 5.04958 0
M  V30 1482 C 142.884 -1.3806 4.24094 0
M  V30 1483 C 143.585 0.00162655 5.817 0
M  V30 1484 N 142.561 -0.595244 5.40331 0
M  V30 1485 H 146.363 0.127159 2.93625 0
M  V30 1486 H 143.877 0.170658 1.61501 0
M  V30 1487 H 145.874 -2.27326 3.49469 0
M  V30 1488 H 144.534 -2.27365 2.31809 0
M  V30 1489 H 145.545 0.0687731 5.17854 0
M  V30 1490 H 142.222 -2.01522 3.65644 0
M  V30 1491 H 143.612 0.659278 6.68658 0
M  V30 1492 N 146.332 -1.57332 0.0918853 0
M  V30 1493 C 147.265 -2.09499 -0.904735 0
M  V30 1494 C 148.243 -1.00479 -1.27839 0
M  V30 1495 O 149.427 -1.27954 -1.38419 0
M  V30 1496 C 146.554 -2.56931 -2.2069 0
M  V30 1497 C 145.6 -3.77579 -1.98334 0
M  V30 1498 S 146.433 -5.21317 -1.22428 0
M  V30 1499 C 147.589 -5.72097 -2.53882 0
M  V30 1500 H 147.822 -2.93705 -0.460922 0
M  V30 1501 H 145.355 -1.53923 -0.121332 0
M  V30 1502 H 147.313 -2.84917 -2.95521 0
M  V30 1503 H 145.974 -1.72956 -2.62192 0
M  V30 1504 H 145.167 -4.08824 -2.94752 0
M  V30 1505 H 144.769 -3.5007 -1.31633 0
M  V30 1506 H 147.061 -5.80168 -3.49874 0
M  V30 1507 H 148.004 -6.70654 -2.27219 0
M  V30 1508 H 148.412 -5.00012 -2.62007 0
M  V30 1509 N 147.81 0.181792 -1.56548 0
M  V30 1510 C 148.757 1.22521 -1.95595 0
M  V30 1511 C 149.727 1.4454 -0.818373 0
M  V30 1512 O 150.912 1.57454 -1.07763 0
M  V30 1513 C 148.052 2.56193 -2.31212 0
M  V30 1514 C 147.165 2.41641 -3.58097 0
M  V30 1515 C 146.3 3.68108 -3.82975 0
M  V30 1516 C 145.339 3.48445 -5.03242 0
M  V30 1517 N 144.476 4.66956 -5.24306 0
M  V30 1518 H 149.316 0.885226 -2.84548 0
M  V30 1519 H 146.853 0.425718 -1.40805 0
M  V30 1520 H 148.811 3.34088 -2.49882 0
M  V30 1521 H 147.441 2.88208 -1.45382 0
M  V30 1522 H 146.493 1.54976 -3.474 0
M  V30 1523 H 147.805 2.23052 -4.46149 0
M  V30 1524 H 146.959 4.54441 -4.01956 0
M  V30 1525 H 145.698 3.89666 -2.93278 0
M  V30 1526 H 144.703 2.60499 -4.8417 0
M  V30 1527 H 145.928 3.2832 -5.9446 0
M  V30 1528 H 143.874 4.88752 -4.37559 0
M  V30 1529 H 143.791 4.51242 -6.06561 0
M  V30 1530 H 145.059 5.54602 -5.47756 0
M  V30 1531 N 149.288 1.51039 0.449983 0
M  V30 1532 C 150.235 1.71439 1.54523 0
M  V30 1533 C 151.205 0.555871 1.56522 0
M  V30 1534 O 152.39 0.788871 1.73728 0
M  V30 1535 C 149.53 1.83384 2.92343 0
M  V30 1536 C 148.643 3.10873 2.9997 0
M  V30 1537 C 147.778 3.13488 4.28834 0
M  V30 1538 C 146.817 4.35343 4.30282 0
M  V30 1539 N 145.954 4.35579 5.5065 0
M  V30 1540 H 150.794 2.64934 1.36433 0
M  V30 1541 H 148.331 1.31312 0.662982 0
M  V30 1542 H 150.289 1.88291 3.72293 0
M  V30 1543 H 148.919 0.933086 3.0902 0
M  V30 1544 H 147.971 3.15336 2.12761 0
M  V30 1545 H 149.283 4.00814 2.96901 0
M  V30 1546 H 148.437 3.17241 5.17149 0
M  V30 1547 H 147.176 2.21414 4.34543 0
M  V30 1548 H 146.181 4.3178 3.40362 0
M  V30 1549 H 147.406 5.28668 4.26248 0
M  V30 1550 H 145.352 3.46369 5.57104 0
M  V30 1551 H 145.269 5.19313 5.49409 0
M  V30 1552 H 146.537 4.43507 6.41032 0
M  V30 1553 N 150.766 -0.704594 1.40972 0
M  V30 1554 C 152.014 -1.46169 1.39568 0
M  V30 1555 C 152.335 -1.95 0.00253745 0
M  V30 1556 O 151.605 -1.71095 -0.954114 0
M  V30 1557 H 150.185 -0.542326 0.513704 0
M  V30 1558 H 152.847 -0.834553 1.76128 0
M  V30 1559 H 151.943 -2.32922 2.07735 0
M  V30 1560 N 152.244 -1.26651 -0.937939 0
M  V30 1561 C 153.493 -1.11775 -1.67897 0
M  V30 1562 C 153.806 0.33794 -1.92659 0
M  V30 1563 O 155.012 0.607434 -2.64618 0
M  V30 1564 C 153.468 -1.9523 -3.02346 0
M  V30 1565 C 153.076 -3.45393 -2.8532 0
M  V30 1566 C 154.82 -1.88972 -3.80118 0
M  V30 1567 C 152.727 -4.21083 -4.15263 0
M  V30 1568 H 151.657 -0.414696 -0.629717 0
M  V30 1569 H 154.308 -1.50988 -1.04283 0
M  V30 1570 H 152.69 -1.48853 -3.66959 0
M  V30 1571 H 153.864 -3.99561 -2.29537 0
M  V30 1572 H 152.179 -3.52921 -2.20988 0
M  V30 1573 H 154.776 -2.42805 -4.76392 0
M  V30 1574 H 155.119 -0.86113 -4.07296 0
M  V30 1575 H 155.652 -2.33189 -3.22285 0
M  V30 1576 H 152.391 -5.24425 -3.93267 0
M  V30 1577 H 151.911 -3.71695 -4.70747 0
M  V30 1578 H 153.59 -4.29706 -4.83696 0
M  V30 1579 N 153.722 1.14298 -1.08507 0
M  V30 1580 C 154.962 1.87016 -0.824894 0
M  V30 1581 C 155.326 1.81099 0.637735 0
M  V30 1582 O 156.527 2.48963 1.01345 0
M  V30 1583 C 154.798 3.31584 -1.33368 0
M  V30 1584 S 156.357 4.21903 -1.20596 0
M  V30 1585 H 153.175 0.645259 -0.2986 0
M  V30 1586 H 155.777 1.37822 -1.38656 0
M  V30 1587 H 154.481 3.33439 -2.39262 0
M  V30 1588 H 154.012 3.85836 -0.767734 0
M  V30 1589 H 156.027 4.95971 -0.150891 0
M  V30 1590 N 155.201 0.870884 1.31352 0
M  V30 1591 C 156.612 0.534714 1.78879 0
M  V30 1592 C 156.963 -0.948423 1.71754 0
M  V30 1593 O 156.088 -1.74055 1.28584 0
M  V30 1594 C 156.683 0.963839 3.24801 0
M  V30 1595 C 155.242 0.679311 3.70219 0
M  V30 1596 C 154.389 1.15465 2.52117 0
M  V30 1597 H 157.34 1.05651 1.18421 0
M  V30 1598 H 157.361 0.286892 3.79417 0
M  V30 1599 H 156.873 2.04332 3.29955 0
M  V30 1600 H 154.974 -0.388769 3.70566 0
M  V30 1601 H 155.087 1.25698 4.62317 0
M  V30 1602 H 153.451 0.574383 2.48139 0
M  V30 1603 H 154.234 2.24157 2.60016 0
M  V30 1604 N 156.679 -1.44442 0.630414 0
M  V30 1605 C 157.928 -2.01267 0.132073 0
M  V30 1606 C 158.241 -1.50172 -1.25331 0
M  V30 1607 O 159.447 -1.9912 -1.84562 0
M  V30 1608 C 157.903 -3.59422 0.185362 0
M  V30 1609 C 157.511 -4.19514 1.57201 0
M  V30 1610 C 159.255 -4.23724 -0.256553 0
M  V30 1611 C 157.162 -5.69891 1.58045 0
M  V30 1612 H 156.092 -0.752619 0.0456092 0
M  V30 1613 H 158.743 -1.65666 0.789106 0
M  V30 1614 H 157.125 -3.92318 -0.538759 0
M  V30 1615 H 158.299 -3.98156 2.31966 0
M  V30 1616 H 156.614 -3.67496 1.95795 0
M  V30 1617 H 159.211 -5.34019 -0.269767 0
M  V30 1618 H 159.554 -3.96013 -1.28372 0
M  V30 1619 H 160.087 -3.95629 0.41505 0
M  V30 1620 H 156.826 -6.02336 2.58597 0
M  V30 1621 H 156.346 -5.93373 0.875725 0
M  V30 1622 H 158.025 -6.33515 1.31408 0
M  V30 1623 N 158.157 -0.370918 -1.53173 0
M  V30 1624 C 159.397 0.217106 -2.03244 0
M  V30 1625 C 159.761 1.45558 -1.25207 0
M  V30 1626 O 160.962 2.11957 -1.65311 0
M  V30 1627 C 159.233 0.496664 -3.53932 0
M  V30 1628 S 160.792 1.0576 -4.25864 0
M  V30 1629 H 157.61 0.0627827 -0.708223 0
M  V30 1630 H 160.212 -0.515019 -1.88594 0
M  V30 1631 H 158.916 -0.412096 -4.08326 0
M  V30 1632 H 158.447 1.25772 -3.72753 0
M  V30 1633 H 160.462 2.34145 -4.37482 0
M  V30 1634 N 159.635 1.57281 -0.100228 0
M  V30 1635 C 160.882 1.94537 0.562268 0
M  V30 1636 C 161.21 0.982315 1.67871 0
M  V30 1637 O 160.465 0.00280936 1.957 0
M  V30 1638 C 160.764 3.38305 1.15259 0
M  V30 1639 C 160.43 4.50618 0.159409 0
M  V30 1640 C 159.092 4.81066 -0.113741 0
M  V30 1641 C 161.444 5.18615 -0.518461 0
M  V30 1642 C 158.772 5.76835 -1.07137 0
M  V30 1643 C 161.124 6.15412 -1.46459 0
M  V30 1644 C 159.788 6.44262 -1.74592 0
M  V30 1645 H 159.058 0.711863 0.205748 0
M  V30 1646 H 161.705 1.90679 -0.17715 0
M  V30 1647 H 160.01 3.38766 1.96836 0
M  V30 1648 H 161.707 3.64435 1.67297 0
M  V30 1649 H 158.297 4.2689 0.382491 0
M  V30 1650 H 162.481 4.95264 -0.320581 0
M  V30 1651 H 157.737 5.975 -1.29628 0
M  V30 1652 H 161.911 6.67194 -1.99564 0
M  V30 1653 H 159.538 7.1828 -2.48953 0
M  V30 1654 N 161.113 -0.173488 1.56642 0
M  V30 1655 C 162.06 -1.21482 1.96242 0
M  V30 1656 C 163.03 -1.44104 0.826027 0
M  V30 1657 O 164.215 -1.5688 1.08597 0
M  V30 1658 C 161.355 -2.54964 2.32567 0
M  V30 1659 C 160.468 -2.39739 3.59373 0
M  V30 1660 C 159.603 -3.66072 3.84921 0
M  V30 1661 C 158.642 -3.45771 5.05083 0
M  V30 1662 N 157.779 -4.64169 5.26775 0
M  V30 1663 H 162.619 -0.870123 2.85014 0
M  V30 1664 H 160.156 -0.418245 1.41029 0
M  V30 1665 H 162.114 -3.32758 2.5165 0
M  V30 1666 H 160.744 -2.87433 1.46908 0
M  V30 1667 H 159.796 -1.53131 3.48217 0
M  V30 1668 H 161.108 -2.20683 4.47326 0
M  V30 1669 H 160.262 -4.52303 4.0436 0
M  V30 1670 H 159.001 -3.88105 2.9534 0
M  V30 1671 H 158.006 -2.57927 4.85545 0
M  V30 1672 H 159.231 -3.25163 5.96193 0
M  V30 1673 H 157.177 -4.86425 4.40144 0
M  V30 1674 H 157.094 -4.48019 6.08946 0
M  V30 1675 H 158.362 -5.51689 5.5069 0
M  V30 1676 N 162.591 -1.51276 -0.441967 0
M  V30 1677 C 163.539 -1.72823 -1.55676 0
M  V30 1678 C 164.533 -0.59445 -1.58627 0
M  V30 1679 O 165.739 -0.775715 -1.62427 0
M  V30 1680 H 162.114 -0.545983 -0.517113 0
M  V30 1681 H 164.085 -2.6628 -1.34675 0
M  V30 1682 C 162.834 -1.86619 -2.93375 0
M  V30 1683 H 162.157 -2.73264 -2.91834 0
M  V30 1684 H 163.597 -2.05709 -3.70756 0
M  V30 1685 C 162.056 -0.624842 -3.31055 0
M  V30 1686 O 162.586 0.222636 -4.01083 0
M  V30 1687 N 160.792 -0.470288 -2.86769 0
M  V30 1688 H 160.339 -1.161 -2.29953 0
M  V30 1689 H 160.297 0.359051 -3.12343 0
M  V30 1690 N 164.069 0.697108 -1.41344 0
M  V30 1691 C 164.979 1.84088 -1.45427 0
M  V30 1692 C 165.995 1.70545 -0.34501 0
M  V30 1693 O 167.171 1.92488 -0.592492 0
M  V30 1694 C 164.236 3.20056 -1.33286 0
M  V30 1695 C 163.297 3.45718 -2.54514 0
M  V30 1696 C 162.53 4.75199 -2.42944 0
M  V30 1697 O 162.753 5.51579 -1.45318 0
M  V30 1698 O 161.687 5.0161 -3.32672 0
M  V30 1699 H 165.513 1.836 -2.41919 0
M  V30 1700 H 163.098 0.849966 -1.22866 0
M  V30 1701 H 164.98 4.01236 -1.28794 0
M  V30 1702 H 163.655 3.2123 -0.39909 0
M  V30 1703 H 162.562 2.64474 -2.64583 0
M  V30 1704 H 163.895 3.49356 -3.46715 0
M  V30 1705 N 165.547 1.27147 0.931209 0
M  V30 1706 C 166.48 1.0389 2.0318 0
M  V30 1707 C 167.458 -0.0395716 1.62552 0
M  V30 1708 O 168.642 0.104867 1.88208 0
M  V30 1709 C 165.769 0.575227 3.3378 0
M  V30 1710 C 164.815 1.64774 3.93385 0
M  V30 1711 S 165.648 3.23933 4.26413 0
M  V30 1712 C 166.804 2.79358 5.60098 0
M  V30 1713 H 167.037 1.97075 2.22596 0
M  V30 1714 H 164.57 1.10938 1.07387 0
M  V30 1715 H 166.528 0.314385 4.09294 0
M  V30 1716 H 165.189 -0.336505 3.12292 0
M  V30 1717 H 164.382 1.27454 4.87618 0
M  V30 1718 H 163.984 1.86048 3.24441 0
M  V30 1719 H 166.276 2.24443 6.39243 0
M  V30 1720 H 167.219 3.72322 6.02314 0
M  V30 1721 H 167.627 2.1861 5.20452 0
M  V30 1722 N 167.025 -1.13721 1.09112 0
M  V30 1723 C 168.302 -1.81155 0.737706 0
M  V30 1724 C 168.682 -1.96253 -0.777683 0
M  V30 1725 O 168.03 -1.52807 -1.69889 0
M  V30 1726 C 168.24 -3.16392 1.47299 0
M  V30 1727 C 169.588 -3.91787 1.63671 0
M  V30 1728 O 170.612 -3.26005 1.43524 0
M  V30 1729 O 169.471 -5.0977 1.96969 0
M  V30 1730 H 166.565 -0.783518 0.26463 0
M  V30 1731 H 169.111 -1.20676 1.19312 0
M  V30 1732 H 167.883 -3.0061 2.50498 0
M  V30 1733 H 167.506 -3.8457 1.00953 0
M  V30 1734 N 168.503 -0.877838 -1.30888 0
M  V30 1735 C 169.75 -0.492696 -1.96415 0
M  V30 1736 C 170.078 0.956671 -1.69346 0
M  V30 1737 O 169.333 1.68993 -0.986913 0
M  V30 1738 C 169.632 -0.705748 -3.50363 0
M  V30 1739 C 169.298 -2.1291 -3.97467 0
M  V30 1740 C 167.96 -2.51834 -4.1004 0
M  V30 1741 C 170.312 -3.05702 -4.22132 0
M  V30 1742 C 167.64 -3.82775 -4.44635 0
M  V30 1743 C 169.992 -4.36166 -4.58194 0
M  V30 1744 C 168.656 -4.74993 -4.68975 0
M  V30 1745 H 167.926 -0.18029 -0.718733 0
M  V30 1746 H 170.573 -1.11233 -1.55883 0
M  V30 1747 H 168.878 -0.00303058 -3.918 0
M  V30 1748 H 170.575 -0.387456 -3.99124 0
M  V30 1749 H 167.165 -1.81694 -3.88182 0
M  V30 1750 H 171.349 -2.76853 -4.11906 0
M  V30 1751 H 166.605 -4.12609 -4.51181 0
M  V30 1752 H 170.779 -5.08111 -4.76231 0
M  V30 1753 H 168.406 -5.76495 -4.95537 0
M  V30 1754 N 169.982 1.44106 -0.638065 0
M  V30 1755 C 171.228 2.02815 -0.15409 0
M  V30 1756 C 171.583 1.49342 1.21304 0
M  V30 1757 O 170.876 0.670699 1.79478 0
M  V30 1758 C 171.07 3.5729 -0.0887327 0
M  V30 1759 C 170.899 4.2575 -1.44799 0
M  V30 1760 C 169.669 4.62443 -2.03653 0
M  V30 1761 C 171.867 4.55746 -2.38327 0
M  V30 1762 N 169.849 5.15903 -3.32741 0
M  V30 1763 C 171.22 5.10364 -3.52036 0
M  V30 1764 C 173.275 4.37703 -2.3732 0
M  V30 1765 C 171.978 5.48837 -4.64941 0
M  V30 1766 C 174.004 4.77229 -3.49294 0
M  V30 1767 C 173.366 5.31966 -4.61726 0
M  V30 1768 H 169.465 0.775519 -0.100466 0
M  V30 1769 H 172.049 1.755 -0.843071 0
M  V30 1770 H 170.22 3.84201 0.569548 0
M  V30 1771 H 171.952 4.02671 0.404711 0
M  V30 1772 H 168.707 4.46987 -1.56523 0
M  V30 1773 H 169.131 5.47102 -3.98758 0
M  V30 1774 H 173.773 3.94671 -1.51641 0
M  V30 1775 H 171.491 5.9082 -5.51323 0
M  V30 1776 H 175.077 4.64976 -3.49698 0
M  V30 1777 H 173.957 5.61986 -5.46939 0
M  V30 1778 N 171.46 0.379036 1.52974 0
M  V30 1779 C 172.407 -0.461048 2.26148 0
M  V30 1780 C 173.377 -1.06637 1.27349 0
M  V30 1781 O 174.562 -1.09633 1.56157 0
M  V30 1782 C 171.702 -1.58782 3.06402 0
M  V30 1783 C 170.815 -1.00636 4.20115 0
M  V30 1784 C 169.95 -2.10334 4.87784 0
M  V30 1785 C 168.989 -1.49724 5.93506 0
M  V30 1786 N 168.126 -2.5331 6.54812 0
M  V30 1787 H 172.966 0.169429 2.97518 0
M  V30 1788 H 170.503 0.0953806 1.4679 0
M  V30 1789 H 172.461 -2.25174 3.51215 0
M  V30 1790 H 171.091 -2.18876 2.37261 0
M  V30 1791 H 170.143 -0.232332 3.7969 0
M  V30 1792 H 171.455 -0.523343 4.96047 0
M  V30 1793 H 170.609 -2.84519 5.35849 0
M  V30 1794 H 169.348 -2.61992 4.11353 0
M  V30 1795 H 168.353 -0.740598 5.44789 0
M  V30 1796 H 169.578 -0.988732 6.71864 0
M  V30 1797 H 167.524 -3.04156 5.81227 0
M  V30 1798 H 167.441 -2.09734 7.26325 0
M  V30 1799 H 168.709 -3.27155 7.07524 0
M  V30 1800 N 172.938 -1.57226 0.108567 0
M  V30 1801 C 174.184 -1.95121 -0.552761 0
M  V30 1802 C 174.517 -0.991345 -1.66991 0
M  V30 1803 O 173.792 -0.0267211 -1.94482 0
M  V30 1804 C 174.075 -3.43039 -1.09528 0
M  V30 1805 C 173.928 -4.49797 0.0177332 0
M  V30 1806 C 175.247 -3.92567 -1.98945 0
M  V30 1807 H 172.366 -0.709496 -0.199461 0
M  V30 1808 H 175.008 -1.89126 0.182011 0
M  V30 1809 H 173.158 -3.48279 -1.72146 0
M  V30 1810 H 174.83 -4.56661 0.652584 0
M  V30 1811 H 173.073 -4.284 0.682309 0
M  V30 1812 H 173.744 -5.50528 -0.402919 0
M  V30 1813 H 176.22 -3.89565 -1.46214 0
M  V30 1814 H 175.096 -4.96605 -2.33827 0
M  V30 1815 H 175.357 -3.32648 -2.91201 0
M  V30 1816 N 174.416 0.165178 -1.56732 0
M  V30 1817 C 175.693 0.908443 -1.73224 0
M  V30 1818 C 176.073 2.0013 -0.67165 0
M  V30 1819 O 175.421 2.26353 0.31253 0
M  V30 1820 C 175.631 1.46756 -3.16644 0
M  V30 1821 C 176.979 1.93809 -3.77787 0
M  V30 1822 O 178.003 1.56537 -3.1996 0
M  V30 1823 O 176.862 2.62486 -4.79336 0
M  V30 1824 H 173.956 0.428025 -0.707618 0
M  V30 1825 H 176.502 0.152526 -1.69013 0
M  V30 1826 H 175.274 0.68129 -3.85323 0
M  V30 1827 H 174.897 2.28749 -3.25207 0
M  V30 1828 N 175.894 1.51508 0.433938 0
M  V30 1829 C 176.824 1.76016 1.53429 0
M  V30 1830 C 177.805 0.610112 1.58782 0
M  V30 1831 O 178.99 0.853177 1.74455 0
M  V30 1832 C 176.12 1.88831 2.9148 0
M  V30 1833 C 175.074 3.04288 3.00987 0
M  V30 1834 C 174.4 3.0229 4.4105 0
M  V30 1835 C 175.7 4.44193 2.74754 0
M  V30 1836 H 177.394 2.68152 1.33171 0
M  V30 1837 H 174.94 1.29035 0.639214 0
M  V30 1838 H 176.893 2.04559 3.6842 0
M  V30 1839 H 175.617 0.933455 3.12976 0
M  V30 1840 H 174.276 2.8827 2.26486 0
M  V30 1841 H 173.924 2.04576 4.59519 0
M  V30 1842 H 173.624 3.79822 4.4834 0
M  V30 1843 H 175.148 3.20116 5.1996 0
M  V30 1844 H 176.562 4.60544 3.41426 0
M  V30 1845 H 174.959 5.23457 2.9345 0
M  V30 1846 H 176.029 4.53996 1.70339 0
M  V30 1847 N 177.372 -0.689602 1.41712 0
M  V30 1848 C 178.319 -1.80345 1.44029 0
M  V30 1849 C 179.289 -1.63478 0.293948 0
M  V30 1850 O 180.474 -1.84244 0.495869 0
M  V30 1851 C 177.614 -3.18272 1.33405 0
M  V30 1852 C 176.727 -3.46529 2.57956 0
M  V30 1853 C 175.862 -4.74103 2.39582 0
M  V30 1854 C 174.901 -4.95347 3.5958 0
M  V30 1855 N 174.038 -6.14151 3.40239 0
M  V30 1856 H 178.878 -1.77698 2.39222 0
M  V30 1857 H 176.415 -0.867688 1.18784 0
M  V30 1858 H 178.373 -3.97956 1.25246 0
M  V30 1859 H 177.003 -3.2008 0.418164 0
M  V30 1860 H 176.055 -2.61207 2.76542 0
M  V30 1861 H 177.367 -3.58126 3.47199 0
M  V30 1862 H 176.521 -5.61853 2.28924 0
M  V30 1863 H 175.26 -4.64763 1.47805 0
M  V30 1864 H 174.265 -4.06044 3.70686 0
M  V30 1865 H 175.49 -5.06542 4.52318 0
M  V30 1866 H 173.436 -6.06013 2.51167 0
M  V30 1867 H 173.353 -6.26543 4.23061 0
M  V30 1868 H 174.621 -7.04619 3.33365 0
M  V30 1869 N 178.85 -1.27639 -0.924453 0
M  V30 1870 C 180.097 -1.14167 -1.67249 0
M  V30 1871 C 180.425 0.311863 -1.91984 0
M  V30 1872 O 179.68 1.24425 -1.51053 0
M  V30 1873 C 179.979 -1.87407 -3.04325 0
M  V30 1874 C 179.645 -3.37249 -2.99289 0
M  V30 1875 C 178.307 -3.7812 -2.97622 0
M  V30 1876 C 180.659 -4.32845 -2.90336 0
M  V30 1877 C 177.987 -5.12944 -2.8479 0
M  V30 1878 C 180.339 -5.6773 -2.79045 0
M  V30 1879 C 179.003 -6.07889 -2.7573 0
M  V30 1880 H 178.273 -0.417766 -0.612007 0
M  V30 1881 H 180.92 -1.58286 -1.07786 0
M  V30 1882 H 179.225 -1.35805 -3.67511 0
M  V30 1883 H 180.922 -1.74408 -3.61086 0
M  V30 1884 H 177.512 -3.04748 -3.01374 0
M  V30 1885 H 181.696 -4.02239 -2.90719 0
M  V30 1886 H 176.952 -5.432 -2.80612 0
M  V30 1887 H 181.126 -6.41472 -2.71083 0
M  V30 1888 H 178.753 -7.12314 -2.65544 0
M  V30 1889 N 180.328 1.1314 -1.09713 0
M  V30 1890 C 181.258 2.20748 -0.761102 0
M  V30 1891 C 182.239 1.68061 0.262566 0
M  V30 1892 O 183.424 1.93765 0.129977 0
M  V30 1893 C 180.554 3.46812 -0.184054 0
M  V30 1894 C 179.508 4.12606 -1.13757 0
M  V30 1895 C 178.834 5.33031 -0.422083 0
M  V30 1896 C 180.134 4.59603 -2.48118 0
M  V30 1897 H 181.828 2.49113 -1.66082 0
M  V30 1898 H 179.374 1.19734 -0.799987 0
M  V30 1899 H 181.327 4.21353 0.0631215 0
M  V30 1900 H 180.051 3.17851 0.750868 0
M  V30 1901 H 178.71 3.40036 -1.37007 0
M  V30 1902 H 178.358 5.00335 0.517072 0
M  V30 1903 H 178.058 5.77999 -1.05788 0
M  V30 1904 H 179.582 6.10325 -0.183277 0
M  V30 1905 H 180.996 5.25552 -2.29059 0
M  V30 1906 H 179.393 5.15321 -3.07514 0
M  V30 1907 H 180.463 3.73971 -3.08665 0
M  V30 1908 N 181.806 0.884767 1.30421 0
M  V30 1909 C 183.083 0.423185 1.90967 0
M  V30 1910 C 183.463 -1.09605 1.80416 0
M  V30 1911 O 182.811 -1.93126 1.22125 0
M  V30 1912 C 183.021 0.921056 3.36627 0
M  V30 1913 C 184.369 0.955903 4.137 0
M  V30 1914 O 185.393 0.867706 3.4547 0
M  V30 1915 O 184.252 1.08614 5.35598 0
M  V30 1916 H 181.346 0.129369 0.816819 0
M  V30 1917 H 183.892 0.973653 1.3899 0
M  V30 1918 H 182.664 1.96489 3.3839 0
M  V30 1919 H 182.287 0.349741 3.96059 0
M  V30 1920 N 183.284 -1.43765 0.645699 0
M  V30 1921 C 184.561 -1.9541 0.0862963 0
M  V30 1922 C 184.941 -1.58725 -1.39175 0
M  V30 1923 O 184.289 -0.868581 -2.11348 0
M  V30 1924 C 184.499 -3.47488 0.324565 0
M  V30 1925 C 185.847 -4.24001 0.225497 0
M  V30 1926 O 186.871 -3.55274 0.256715 0
M  V30 1927 O 185.73 -5.46313 0.142801 0
M  V30 1928 H 182.824 -0.826882 -0.0139483 0
M  V30 1929 H 185.37 -1.53743 0.718415 0
M  V30 1930 H 184.142 -3.67289 1.3496 0
M  V30 1931 H 183.765 -3.96135 -0.340987 0
M  V30 1932 N 184.763 -0.387143 -1.52771 0
M  V30 1933 C 186.003 0.195537 -2.03463 0
M  V30 1934 C 186.367 1.44222 -1.26744 0
M  V30 1935 O 187.568 2.10192 -1.67549 0
M  V30 1936 C 185.839 0.459097 -3.54439 0
M  V30 1937 S 187.398 1.01237 -4.26962 0
M  V30 1938 H 184.216 0.0552675 -0.708849 0
M  V30 1939 H 186.818 -0.534992 -1.88037 0
M  V30 1940 H 185.522 -0.455382 -4.07866 0
M  V30 1941 H 185.053 1.21811 -3.74066 0
M  V30 1942 H 187.068 2.29492 -4.39941 0
M  V30 1943 N 186.241 1.57166 -0.116904 0
M  V30 1944 C 187.481 1.97008 0.544715 0
M  V30 1945 C 187.845 0.998713 1.63981 0
M  V30 1946 O 189.046 1.28644 2.36018 0
M  V30 1947 C 187.317 3.41145 1.06559 0
M  V30 1948 S 188.876 4.02998 1.73603 0
M  V30 1949 H 185.694 0.688587 0.177112 0
M  V30 1950 H 188.296 1.94459 -0.201487 0
M  V30 1951 H 187 4.09592 0.257374 0
M  V30 1952 H 186.531 3.4734 1.84712 0
M  V30 1953 H 188.546 3.93585 3.02168 0
M  V30 1954 N 187.719 -0.156864 1.56817 0
M  V30 1955 C 188.666 -1.19394 1.97519 0
M  V30 1956 C 189.636 -1.4322 0.841265 0
M  V30 1957 O 190.821 -1.55719 1.10255 0
M  V30 1958 C 187.961 -2.52483 2.35258 0
M  V30 1959 C 187.074 -2.35914 3.61896 0
M  V30 1960 C 186.209 -3.61969 3.88782 0
M  V30 1961 C 185.248 -3.40395 5.08722 0
M  V30 1962 N 184.385 -4.58556 5.31668 0
M  V30 1963 H 189.225 -0.839845 2.85921 0
M  V30 1964 H 186.762 -0.403264 1.41464 0
M  V30 1965 H 188.72 -3.30071 2.55165 0
M  V30 1966 H 187.35 -2.85859 1.49949 0
M  V30 1967 H 186.402 -1.49429 3.49821 0
M  V30 1968 H 187.714 -2.15926 4.49641 0
M  V30 1969 H 186.868 -4.47989 4.09135 0
M  V30 1970 H 185.607 -3.84951 2.9944 0
M  V30 1971 H 184.612 -2.52763 4.88253 0
M  V30 1972 H 185.837 -3.18822 5.99608 0
M  V30 1973 H 183.783 -4.81729 4.45279 0
M  V30 1974 H 183.7 -4.41535 6.13664 0
M  V30 1975 H 184.968 -5.45817 5.5651 0
M  V30 1976 N 189.197 -1.51736 -0.425897 0
M  V30 1977 C 190.422 -1.69082 -1.20108 0
M  V30 1978 C 190.847 -0.392398 -1.83962 0
M  V30 1979 O 190.205 0.64858 -1.69302 0
M  V30 1980 C 190.253 -2.81604 -2.25237 0
M  V30 1981 O 189.357 -2.46004 -3.30992 0
M  V30 1982 H 188.698 -0.563408 -0.35138 0
M  V30 1983 H 191.228 -1.98358 -0.501512 0
M  V30 1984 H 191.238 -3.06025 -2.69838 0
M  V30 1985 H 189.913 -3.75817 -1.78142 0
M  V30 1986 H 188.49 -2.32195 -2.91787 0
M  V30 1987 N 190.675 0.682077 -1.42076 0
M  V30 1988 C 191.625 1.78823 -1.41444 0
M  V30 1989 C 192.609 1.58323 -0.28681 0
M  V30 1990 O 193.801 1.68926 -0.528498 0
M  V30 1991 C 190.93 3.17232 -1.3122 0
M  V30 1992 C 190.016 3.4338 -2.489 0
M  V30 1993 N 190.407 3.40152 -3.7434 0
M  V30 1994 C 188.705 3.73986 -2.43003 0
M  V30 1995 C 189.406 3.65581 -4.52466 0
M  V30 1996 N 188.382 3.85989 -3.8277 0
M  V30 1997 H 192.184 1.7471 -2.36334 0
M  V30 1998 H 189.698 0.882622 -1.36321 0
M  V30 1999 H 191.695 3.96489 -1.2885 0
M  V30 2000 H 190.355 3.22547 -0.373263 0
M  V30 2001 H 191.366 3.20221 -4.07037 0
M  V30 2002 H 188.043 3.86591 -1.57651 0
M  V30 2003 H 189.433 3.69108 -5.61435 0
M  V30 2004 N 192.153 1.28127 0.917671 0
M  V30 2005 C 193.083 1.14248 2.03641 0
M  V30 2006 C 194.064 0.0412748 1.7005 0
M  V30 2007 O 195.249 0.217566 1.92977 0
M  V30 2008 C 192.379 0.799431 3.37974 0
M  V30 2009 C 191.333 1.85497 3.85713 0
M  V30 2010 C 190.659 1.36565 5.16966 0
M  V30 2011 C 191.959 3.26085 4.08002 0
M  V30 2012 H 193.653 2.07835 2.15511 0
M  V30 2013 H 191.199 1.00064 1.03553 0
M  V30 2014 H 193.152 0.689114 4.15727 0
M  V30 2015 H 191.876 -0.172145 3.26146 0
M  V30 2016 H 190.535 1.95437 3.10161 0
M  V30 2017 H 190.183 0.383253 5.01538 0
M  V30 2018 H 189.883 2.07143 5.49878 0
M  V30 2019 H 191.407 1.26848 5.97279 0
M  V30 2020 H 192.821 3.19089 4.76293 0
M  V30 2021 H 191.218 3.94462 4.52238 0
M  V30 2022 H 192.288 3.70394 3.12948 0
M  V30 2023 N 193.631 -1.12557 1.10312 0
M  V30 2024 C 194.856 -1.88405 0.867085 0
M  V30 2025 C 195.281 -1.79038 -0.576817 0
M  V30 2026 O 194.639 -1.14439 -1.40618 0
M  V30 2027 C 194.687 -3.3563 1.31851 0
M  V30 2028 O 193.791 -4.09565 0.482734 0
M  V30 2029 H 193.132 -0.585455 0.313271 0
M  V30 2030 H 195.662 -1.42352 1.4696 0
M  V30 2031 H 195.672 -3.86469 1.3079 0
M  V30 2032 H 194.347 -3.41765 2.37001 0
M  V30 2033 H 192.924 -3.68695 0.558448 0
M  V30 2034 N 195.109 -0.891671 -1.2995 0
M  V30 2035 C 196.019 -0.367691 -2.31701 0
M  V30 2036 C 197.035 0.533486 -1.6562 0
M  V30 2037 O 198.211 0.424997 -1.96865 0
M  V30 2038 C 195.276 0.403406 -3.44345 0
M  V30 2039 C 194.337 -0.528328 -4.26037 0
M  V30 2040 C 193.57 0.206063 -5.33302 0
M  V30 2041 O 193.793 1.43119 -5.52153 0
M  V30 2042 O 192.727 -0.447281 -6.00236 0
M  V30 2043 H 196.553 -1.21163 -2.78484 0
M  V30 2044 H 194.138 -0.655725 -1.34241 0
M  V30 2045 H 196.02 0.839753 -4.12948 0
M  V30 2046 H 194.695 1.22354 -2.99685 0
M  V30 2047 H 193.602 -1.01362 -3.60106 0
M  V30 2048 H 194.935 -1.31465 -4.74318 0
M  V30 2049 N 196.587 1.43421 -0.653314 0
M  V30 2050 C 197.534 2.30768 0.0382271 0
M  V30 2051 C 198.504 1.44755 0.814576 0
M  V30 2052 O 199.689 1.73624 0.791162 0
M  V30 2053 C 196.829 3.30336 0.998599 0
M  V30 2054 C 195.942 4.31448 0.218342 0
M  V30 2055 C 195.077 5.18098 1.17252 0
M  V30 2056 C 194.116 6.10902 0.382702 0
M  V30 2057 N 193.253 6.90176 1.28848 0
M  V30 2058 H 198.093 2.89357 -0.712511 0
M  V30 2059 H 195.63 1.42548 -0.363128 0
M  V30 2060 H 197.588 3.86572 1.56901 0
M  V30 2061 H 196.218 2.73397 1.71621 0
M  V30 2062 H 195.27 3.77506 -0.46836 0
M  V30 2063 H 196.582 4.97227 -0.395812 0
M  V30 2064 H 195.736 5.7896 1.81356 0
M  V30 2065 H 194.475 4.52444 1.82058 0
M  V30 2066 H 193.48 5.49128 -0.27169 0
M  V30 2067 H 194.705 6.78598 -0.260957 0
M  V30 2068 H 192.651 6.27171 1.92334 0
M  V30 2069 H 192.568 7.52478 0.728887 0
M  V30 2070 H 193.836 7.55543 1.91766 0
M  V30 2071 N 198.065 0.39524 1.52563 0
M  V30 2072 C 199.481 0.0454682 1.59535 0
M  V30 2073 C 199.681 -1.44056 1.4089 0
M  V30 2074 O 198.737 -2.20579 1.22888 0
M  V30 2075 C 200.05 0.527963 2.96029 0
M  V30 2076 C 201.598 0.484733 3.09224 0
M  V30 2077 C 202.073 0.943512 4.48176 0
M  V30 2078 N 203.564 0.899765 4.54377 0
M  V30 2079 C 204.299 1.22609 5.60138 0
M  V30 2080 N 203.795 1.62319 6.73516 0
M  V30 2081 N 205.588 1.14696 5.50274 0
M  V30 2082 H 197.739 1.36261 1.62931 0
M  V30 2083 H 200.002 0.558887 0.765735 0
M  V30 2084 H 199.708 1.56607 3.14908 0
M  V30 2085 H 199.582 -0.0698056 3.77135 0
M  V30 2086 H 201.969 -0.544298 2.90037 0
M  V30 2087 H 202.05 1.11838 2.30056 0
M  V30 2088 H 201.694 1.9708 4.68104 0
M  V30 2089 H 201.624 0.286817 5.25818 0
M  V30 2090 H 204.115 0.607632 3.72983 0
M  V30 2091 H 204.428 1.85567 7.5019 0
M  V30 2092 H 202.773 1.66211 6.74833 0
M  V30 2093 H 205.964 0.835701 4.6058 0
M  V30 2094 H 206.137 1.40459 6.32594 0
M  V30 2095 N 199.544 -1.57102 0.125237 0
M  V30 2096 C 200.454 -2.19191 -0.8362 0
M  V30 2097 C 201.47 -1.16985 -1.28805 0
M  V30 2098 O 202.646 -1.49479 -1.34974 0
M  V30 2099 C 199.711 -2.78407 -2.06617 0
M  V30 2100 C 198.772 -3.9567 -1.66565 0
M  V30 2101 C 198.005 -4.52052 -2.83698 0
M  V30 2102 O 198.228 -4.07326 -3.99302 0
M  V30 2103 O 197.162 -5.42645 -2.60423 0
M  V30 2104 H 200.988 -3.01816 -0.337776 0
M  V30 2105 H 198.573 -1.4906 -0.100695 0
M  V30 2106 H 200.455 -3.16129 -2.7864 0
M  V30 2107 H 199.13 -1.9881 -2.55453 0
M  V30 2108 H 198.037 -3.62705 -0.916296 0
M  V30 2109 H 199.37 -4.76722 -1.22464 0
M  V30 2110 N 201.022 0.148545 -1.56898 0
M  V30 2111 C 201.932 1.20293 -2.01412 0
M  V30 2112 C 202.948 1.47107 -0.929273 0
M  V30 2113 O 204.124 1.58807 -1.23863 0
M  V30 2114 C 201.189 2.51682 -2.38447 0
M  V30 2115 C 200.25 2.32529 -3.60872 0
M  V30 2116 C 199.483 3.57653 -3.96132 0
M  V30 2117 O 199.706 4.63771 -3.32073 0
M  V30 2118 O 198.64 3.50408 -4.89385 0
M  V30 2119 H 202.466 0.855025 -2.91416 0
M  V30 2120 H 200.051 0.357151 -1.45068 0
M  V30 2121 H 201.933 3.29147 -2.63135 0
M  V30 2122 H 200.608 2.86006 -1.51599 0
M  V30 2123 H 199.515 1.53019 -3.41373 0
M  V30 2124 H 200.848 2.03121 -4.48333 0
M  V30 2125 N 202.5 1.5196 0.417844 0
M  V30 2126 C 203.43 1.77634 1.51554 0
M  V30 2127 C 204.411 0.626918 1.58126 0
M  V30 2128 O 205.596 0.871632 1.7354 0
M  V30 2129 C 202.726 1.91911 2.8946 0
M  V30 2130 C 201.68 3.07463 2.97743 0
M  V30 2131 C 201.006 3.06951 4.37819 0
M  V30 2132 C 202.306 4.47082 2.70027 0
M  V30 2133 H 204 2.6955 1.3032 0
M  V30 2134 H 201.546 1.29706 0.625492 0
M  V30 2135 H 203.499 2.08455 3.6623 0
M  V30 2136 H 202.223 0.966598 3.11969 0
M  V30 2137 H 200.882 2.90656 2.23416 0
M  V30 2138 H 200.53 2.09438 4.57323 0
M  V30 2139 H 200.23 3.84556 4.44286 0
M  V30 2140 H 201.754 3.25613 5.16535 0
M  V30 2141 H 203.168 4.6414 3.36522 0
M  V30 2142 H 201.565 5.2654 2.87881 0
M  V30 2143 H 202.635 4.55777 1.65514 0
M  V30 2144 N 203.978 -0.674533 1.42435 0
M  V30 2145 C 204.888 -1.81751 1.48337 0
M  V30 2146 C 205.904 -1.69975 0.372099 0
M  V30 2147 O 207.08 -1.91521 0.62304 0
M  V30 2148 C 204.145 -3.17895 1.38361 0
M  V30 2149 C 203.206 -3.41625 2.59982 0
M  V30 2150 C 202.439 -4.71274 2.50473 0
M  V30 2151 O 202.662 -5.49197 1.54075 0
M  V30 2152 O 201.596 -4.96254 3.4061 0
M  V30 2153 H 205.422 -1.79728 2.44809 0
M  V30 2154 H 203.007 -0.830312 1.24202 0
M  V30 2155 H 204.889 -3.99136 1.35161 0
M  V30 2156 H 203.564 -3.20555 0.450144 0
M  V30 2157 H 202.471 -2.60231 2.68757 0
M  V30 2158 H 203.804 -3.43796 3.52229 0
M  V30 2159 N 205.456 -1.28612 -0.910864 0
M  V30 2160 C 206.366 -1.14643 -2.0468 0
M  V30 2161 C 207.382 -0.0723121 -1.7385 0
M  V30 2162 O 208.558 -0.282178 -1.99413 0
M  V30 2163 C 205.623 -0.812561 -3.37044 0
M  V30 2164 C 204.684 -1.96935 -3.81465 0
M  V30 2165 C 203.917 -1.65131 -5.07511 0
M  V30 2166 O 204.14 -0.567013 -5.67575 0
M  V30 2167 O 203.074 -2.49585 -5.47714 0
M  V30 2168 H 206.9 -2.1001 -2.19384 0
M  V30 2169 H 204.485 -1.07958 -1.03274 0
M  V30 2170 H 206.367 -0.640441 -4.16505 0
M  V30 2171 H 205.042 0.111426 -3.23508 0
M  V30 2172 H 203.949 -2.19664 -3.02818 0
M  V30 2173 H 205.282 -2.87414 -3.99567 0
M  V30 2174 N 206.934 1.1197 -1.10907 0
M  V30 2175 C 208.183 1.82947 -0.849302 0
M  V30 2176 C 208.496 1.85275 0.627112 0
M  V30 2177 O 209.702 2.52296 1.00295 0
M  V30 2178 C 208.158 3.28529 -1.46959 0
M  V30 2179 C 207.766 3.34546 -2.97965 0
M  V30 2180 C 209.51 4.04443 -1.28942 0
M  V30 2181 C 207.417 4.74491 -3.53004 0
M  V30 2182 H 206.347 0.685477 -0.314065 0
M  V30 2183 H 208.998 1.2604 -1.33365 0
M  V30 2184 H 207.38 3.85333 -0.912917 0
M  V30 2185 H 208.554 2.87654 -3.59989 0
M  V30 2186 H 206.869 2.72108 -3.15192 0
M  V30 2187 H 209.466 5.07787 -1.67502 0
M  V30 2188 H 209.809 4.15656 -0.231456 0
M  V30 2189 H 210.342 3.5401 -1.81443 0
M  V30 2190 H 207.081 4.68474 -4.58489 0
M  V30 2191 H 206.601 5.21816 -2.9575 0
M  V30 2192 H 208.28 5.4344 -3.51115 0
M  V30 2193 N 208.412 0.89855 1.29475 0
M  V30 2194 C 209.375 0.380272 2.26023 0
M  V30 2195 C 210.375 -0.484891 1.53315 0
M  V30 2196 O 211.565 -0.290108 1.71767 0
M  V30 2197 C 208.697 -0.45651 3.3783 0
M  V30 2198 H 209.89 1.23295 2.73383 0
M  V30 2199 H 207.443 0.676589 1.40897 0
M  V30 2200 H 208.178 -1.32922 2.95808 0
M  V30 2201 H 207.963 0.163393 3.91759 0
M  V30 2202 H 209.453 -0.810466 4.0966 0
M  V30 2203 N 209.89 -1.43072 0.660911 0
M  V30 2204 C 211.306 -1.56169 0.329173 0
M  V30 2205 C 211.506 -1.64317 -1.16629 0
M  V30 2206 O 210.562 -1.60245 -1.95135 0
M  V30 2207 C 211.875 -2.81873 1.04729 0
M  V30 2208 C 213.423 -2.95627 1.02828 0
M  V30 2209 C 213.898 -4.24174 1.72744 0
M  V30 2210 N 215.389 -4.31055 1.69545 0
M  V30 2211 C 216.124 -5.29304 2.20511 0
M  V30 2212 N 215.62 -6.33786 2.79799 0
M  V30 2213 N 217.413 -5.21008 2.10966 0
M  V30 2214 H 209.564 -1.36027 1.63127 0
M  V30 2215 H 211.827 -0.653823 0.686454 0
M  V30 2216 H 211.533 -2.81942 2.10242 0
M  V30 2217 H 211.407 -3.72338 0.603702 0
M  V30 2218 H 213.794 -2.95094 -0.0184742 0
M  V30 2219 H 213.875 -2.06431 1.51063 0
M  V30 2220 H 213.519 -4.25467 2.7738 0
M  V30 2221 H 213.449 -5.1228 1.2197 0
M  V30 2222 H 215.94 -3.56174 1.26288 0
M  V30 2223 H 216.253 -7.05086 3.16344 0
M  V30 2224 H 214.598 -6.34387 2.83863 0
M  V30 2225 H 217.789 -4.38301 1.64347 0
M  V30 2226 H 217.962 -5.97416 2.50993 0
M  V30 2227 N 211.368 -0.403325 -1.52352 0
M  V30 2228 C 212.784 -0.0539281 -1.59509 0
M  V30 2229 C 212.984 1.43307 -1.41652 0
M  V30 2230 O 212.04 2.19924 -1.24056 0
M  V30 2231 C 213.353 -0.543654 -2.95745 0
M  V30 2232 C 214.901 -0.501125 -3.08962 0
M  V30 2233 C 215.376 -0.967267 -4.47669 0
M  V30 2234 N 216.867 -0.923849 -4.53893 0
M  V30 2235 C 217.602 -1.25578 -5.5948 0
M  V30 2236 N 217.098 -1.65889 -6.72646 0
M  V30 2237 N 218.891 -1.17613 -5.49658 0
M  V30 2238 H 211.042 -1.37123 -1.62206 0
M  V30 2239 H 213.305 -0.56294 -0.76276 0
M  V30 2240 H 213.011 -1.58275 -3.14073 0
M  V30 2241 H 212.885 0.0498042 -3.77167 0
M  V30 2242 H 215.272 0.528909 -2.90321 0
M  V30 2243 H 215.353 -1.13056 -2.2946 0
M  V30 2244 H 214.997 -1.9956 -4.67053 0
M  V30 2245 H 214.927 -0.314698 -5.25659 0
M  V30 2246 H 217.418 -0.627403 -3.72655 0
M  V30 2247 H 217.731 -1.89543 -7.49195 0
M  V30 2248 H 216.076 -1.69787 -6.73942 0
M  V30 2249 H 219.267 -0.860115 -4.6013 0
M  V30 2250 H 219.44 -1.43812 -6.3184 0
M  V30 2251 N 212.846 1.57033 -0.133567 0
M  V30 2252 C 214.092 1.95976 0.521649 0
M  V30 2253 C 214.425 1.01779 1.65393 0
M  V30 2254 O 213.7 0.0576581 1.94415 0
M  V30 2255 C 213.983 3.44738 1.04057 0
M  V30 2256 C 213.836 4.49711 -0.0892897 0
M  V30 2257 C 215.155 3.95682 1.92675 0
M  V30 2258 H 212.274 0.712579 0.188149 0
M  V30 2259 H 214.916 1.88813 -0.212076 0
M  V30 2260 H 213.066 3.50973 1.66583 0
M  V30 2261 H 214.738 4.55565 -0.725152 0
M  V30 2262 H 212.981 4.27261 -0.750378 0
M  V30 2263 H 213.652 5.51099 0.315284 0
M  V30 2264 H 216.128 3.91841 1.39998 0
M  V30 2265 H 215.004 5.00262 2.25897 0
M  V30 2266 H 215.265 3.37239 2.85872 0
M  V30 2267 N 214.325 -0.140222 1.56975 0
M  V30 2268 C 215.257 -1.19818 1.95388 0
M  V30 2269 C 216.27 -1.38816 0.850525 0
M  V30 2270 O 217.459 -1.38267 1.12891 0
M  V30 2271 C 214.559 -2.56189 2.21857 0
M  V30 2272 C 213.732 -2.58077 3.5315 0
M  V30 2273 C 212.791 -3.76037 3.6808 0
M  V30 2274 O 211.817 -3.60598 4.40406 0
M  V30 2275 N 213.019 -4.93763 3.05251 0
M  V30 2276 H 215.784 -0.871609 2.86746 0
M  V30 2277 H 213.345 -0.32972 1.58507 0
M  V30 2278 H 215.337 -3.33623 2.2908 0
M  V30 2279 H 213.907 -2.81111 1.36731 0
M  V30 2280 H 213.127 -1.6651 3.57307 0
M  V30 2281 H 214.415 -2.56377 4.39486 0
M  V30 2282 H 213.813 -5.09209 2.46419 0
M  V30 2283 H 212.37 -5.68949 3.18026 0
M  V30 2284 N 215.803 -1.52179 -0.40978 0
M  V30 2285 C 216.733 -1.78435 -1.5061 0
M  V30 2286 C 217.714 -0.635295 -1.57791 0
M  V30 2287 O 218.899 -0.880823 -1.73076 0
M  V30 2288 C 216.029 -1.93444 -2.88439 0
M  V30 2289 C 214.983 -3.09038 -2.96108 0
M  V30 2290 C 214.309 -3.09268 -4.36185 0
M  V30 2291 C 215.609 -4.48508 -2.67652 0
M  V30 2292 H 217.303 -2.70237 -1.28889 0
M  V30 2293 H 214.849 -1.30036 -0.618605 0
M  V30 2294 H 216.802 -2.10394 -3.65119 0
M  V30 2295 H 215.526 -0.983129 -3.11452 0
M  V30 2296 H 214.185 -2.91837 -2.21872 0
M  V30 2297 H 213.833 -2.11861 -4.56206 0
M  V30 2298 H 213.533 -3.86907 -4.42241 0
M  V30 2299 H 215.057 -3.28348 -5.14801 0
M  V30 2300 H 216.471 -4.65918 -3.34056 0
M  V30 2301 H 214.868 -5.28059 -2.85085 0
M  V30 2302 H 215.938 -4.56649 -1.63095 0
M  V30 2303 N 217.281 0.66697 -1.42791 0
M  V30 2304 C 218.53 1.42278 -1.42968 0
M  V30 2305 C 218.843 1.9553 -0.0524489 0
M  V30 2306 O 220.049 2.71414 0.068363 0
M  V30 2307 C 218.505 2.57418 -2.51524 0
M  V30 2308 C 218.113 2.10832 -3.9529 0
M  V30 2309 C 219.857 3.34878 -2.60877 0
M  V30 2310 C 217.764 3.23101 -4.95338 0
M  V30 2311 H 216.694 0.534533 -0.531781 0
M  V30 2312 H 219.345 0.721302 -1.68729 0
M  V30 2313 H 217.727 3.29971 -2.18941 0
M  V30 2314 H 218.901 1.4538 -4.37266 0
M  V30 2315 H 217.216 1.46289 -3.89857 0
M  V30 2316 H 219.813 4.18505 -3.32802 0
M  V30 2317 H 220.156 3.81993 -1.6549 0
M  V30 2318 H 220.689 2.69398 -2.92693 0
M  V30 2319 H 217.428 2.80969 -5.9223 0
M  V30 2320 H 216.948 3.87309 -4.57987 0
M  V30 2321 H 218.627 3.88447 -5.17415 0
M  V30 2322 N 218.759 1.29093 0.90403 0
M  V30 2323 C 219.689 1.16401 2.02418 0
M  V30 2324 C 220.67 0.0593085 1.69997 0
M  V30 2325 O 221.855 0.238021 1.92736 0
M  V30 2326 C 218.985 0.835233 3.37107 0
M  V30 2327 C 217.939 1.89578 3.83724 0
M  V30 2328 C 217.265 1.42041 5.15489 0
M  V30 2329 C 218.565 3.30394 4.04521 0
M  V30 2330 H 220.259 2.10109 2.13295 0
M  V30 2331 H 217.805 1.01157 1.02486 0
M  V30 2332 H 219.758 0.733169 4.14973 0
M  V30 2333 H 218.482 -0.137543 3.2631 0
M  V30 2334 H 217.141 1.98715 3.08071 0
M  V30 2335 H 216.789 0.436426 5.01103 0
M  V30 2336 H 216.489 2.12964 5.4765 0
M  V30 2337 H 218.013 1.33176 5.959 0
M  V30 2338 H 219.427 3.24123 4.72882 0
M  V30 2339 H 217.824 3.99237 4.48029 0
M  V30 2340 H 218.894 3.73692 3.09002 0
M  V30 2341 N 220.237 -1.11381 1.11499 0
M  V30 2342 C 221.514 -1.7955 0.775965 0
M  V30 2343 C 221.894 -1.97859 -0.73588 0
M  V30 2344 O 221.242 -1.56376 -1.66609 0
M  V30 2345 C 221.452 -3.13196 1.53977 0
M  V30 2346 C 222.8 -3.88227 1.71944 0
M  V30 2347 O 223.824 -3.22887 1.50407 0
M  V30 2348 O 222.683 -5.05477 2.07738 0
M  V30 2349 H 219.777 -0.777728 0.28119 0
M  V30 2350 H 222.323 -1.18118 1.21845 0
M  V30 2351 H 221.095 -2.95229 2.56818 0
M  V30 2352 H 220.718 -3.82342 1.09088 0
M  V30 2353 N 221.715 -0.905404 -1.28997 0
M  V30 2354 C 222.992 -0.453513 -1.9027 0
M  V30 2355 C 223.372 1.06721 -1.82137 0
M  V30 2356 O 222.72 1.91159 -1.25182 0
M  V30 2357 C 222.93 -0.974494 -3.35119 0
M  V30 2358 C 224.278 -1.0216 -4.12127 0
M  V30 2359 O 225.302 -0.922557 -3.44046 0
M  V30 2360 O 224.161 -1.17121 -5.33802 0
M  V30 2361 H 221.255 -0.142347 -0.814657 0
M  V30 2362 H 223.801 -0.995642 -1.37423 0
M  V30 2363 H 222.573 -2.01848 -3.35221 0
M  V30 2364 H 222.196 -0.412706 -3.95452 0
M  V30 2365 N 223.193 1.4272 -0.668489 0
M  V30 2366 C 224.123 2.335 -0.000100175 0
M  V30 2367 C 225.104 1.50328 0.795964 0
M  V30 2368 O 226.289 1.78949 0.754385 0
M  V30 2369 C 223.419 3.33874 0.956302 0
M  V30 2370 C 222.373 4.27152 0.269278 0
M  V30 2371 C 221.699 5.17684 1.33818 0
M  V30 2372 C 222.999 5.15373 -0.847805 0
M  V30 2373 H 224.693 2.89639 -0.758244 0
M  V30 2374 H 222.239 1.39269 -0.366079 0
M  V30 2375 H 224.192 3.9629 1.43292 0
M  V30 2376 H 222.916 2.76025 1.74579 0
M  V30 2377 H 221.575 3.66123 -0.187042 0
M  V30 2378 H 221.223 4.56165 2.1195 0
M  V30 2379 H 220.923 5.80918 0.883659 0
M  V30 2380 H 222.447 5.82974 1.81586 0
M  V30 2381 H 223.861 5.7151 -0.452681 0
M  V30 2382 H 222.258 5.87407 -1.22773 0
M  V30 2383 H 223.328 4.5415 -1.69929 0
M  V30 2384 N 224.671 0.411399 1.52136 0
M  V30 2385 C 225.919 -0.163322 2.01439 0
M  V30 2386 C 226.24 -1.45453 1.29879 0
M  V30 2387 O 225.51 -1.91225 0.4254 0
M  V30 2388 H 224.09 -0.0633447 0.744309 0
M  V30 2389 H 226.752 0.548161 1.87033 0
M  V30 2390 H 225.848 -0.357817 3.10042 0
M  V30 2391 N 226.149 -1.5696 0.141893 0
M  V30 2392 C 227.395 -1.9625 -0.511248 0
M  V30 2393 C 227.728 -1.02654 -1.64851 0
M  V30 2394 O 227.003 -0.0679676 -1.94381 0
M  V30 2395 C 227.286 -3.45285 -1.02227 0
M  V30 2396 C 227.139 -4.49658 0.113138 0
M  V30 2397 C 228.458 -3.96698 -1.90574 0
M  V30 2398 H 225.577 -0.713567 -0.184367 0
M  V30 2399 H 228.219 -1.88698 0.222087 0
M  V30 2400 H 226.369 -3.51852 -1.64719 0
M  V30 2401 H 228.041 -4.55174 0.749302 0
M  V30 2402 H 226.284 -4.26857 0.773026 0
M  V30 2403 H 226.955 -5.51258 -0.286053 0
M  V30 2404 H 229.431 -3.92578 -1.37918 0
M  V30 2405 H 228.307 -5.01453 -2.2324 0
M  V30 2406 H 228.568 -3.3875 -2.84079 0
M  V30 2407 N 227.627 0.131896 -1.57047 0
M  V30 2408 C 228.904 0.871495 -1.75112 0
M  V30 2409 C 229.284 1.9866 -0.713949 0
M  V30 2410 O 228.632 2.26965 0.264447 0
M  V30 2411 C 228.842 1.40007 -3.19686 0
M  V30 2412 C 230.19 1.85752 -3.81813 0
M  V30 2413 O 231.214 1.49715 -3.23209 0
M  V30 2414 O 230.073 2.5226 -4.84796 0
M  V30 2415 H 227.167 0.412919 -0.716538 0
M  V30 2416 H 229.713 0.116641 -1.69299 0
M  V30 2417 H 228.485 0.599404 -3.86682 0
M  V30 2418 H 228.108 2.218 -3.29986 0
M  V30 2419 N 229.106 1.52395 0.401703 0
M  V30 2420 C 230.069 1.75636 1.47257 0
M  V30 2421 C 231.069 0.62628 1.48103 0
M  V30 2422 O 232.259 0.894227 1.49497 0
M  V30 2423 C 229.391 1.84553 2.86624 0
M  V30 2424 H 230.584 2.71241 1.27938 0
M  V30 2425 H 228.137 1.42923 0.632662 0
M  V30 2426 H 228.872 0.908882 3.11303 0
M  V30 2427 H 228.657 2.66715 2.87412 0
M  V30 2428 H 230.147 2.04251 3.64241 0
M  V30 2429 N 230.584 -0.659388 1.43143 0
M  V30 2430 C 231.547 -1.75432 1.47501 0
M  V30 2431 C 232.547 -1.56707 0.360512 0
M  V30 2432 O 233.737 -1.62717 0.622002 0
M  V30 2433 C 230.869 -3.14239 1.32162 0
M  V30 2434 H 232.062 -1.7295 2.45006 0
M  V30 2435 H 229.615 -0.870469 1.29817 0
M  V30 2436 H 230.35 -3.22336 0.356401 0
M  V30 2437 H 230.135 -3.29235 2.12948 0
M  V30 2438 H 231.625 -3.94094 1.3813 0
M  V30 2439 N 232.062 -1.29571 -0.897171 0
M  V30 2440 C 232.972 -1.16808 -2.03453 0
M  V30 2441 C 233.988 -0.0907471 -1.73763 0
M  V30 2442 O 235.164 -0.303312 -1.99103 0
M  V30 2443 C 232.229 -0.848264 -3.36163 0
M  V30 2444 C 231.29 -2.0097 -3.79354 0
M  V30 2445 C 230.523 -1.70505 -5.05731 0
M  V30 2446 O 230.746 -0.62718 -5.66941 0
M  V30 2447 O 229.68 -2.5538 -5.45036 0
M  V30 2448 H 233.506 -2.12325 -2.17144 0
M  V30 2449 H 231.091 -1.09047 -1.02123 0
M  V30 2450 H 232.973 -0.684581 -4.15802 0
M  V30 2451 H 231.648 0.0771071 -3.23608 0
M  V30 2452 H 230.555 -2.22863 -3.00471 0
M  V30 2453 H 231.888 -2.91636 -3.96496 0
M  V30 2454 N 233.54 1.10788 -1.12088 0
M  V30 2455 C 234.788 1.8231 -0.872205 0
M  V30 2456 C 235.109 1.85419 0.603709 0
M  V30 2457 O 234.379 1.32963 1.43867 0
M  V30 2458 H 232.959 0.675137 -0.319686 0
M  V30 2459 H 235.621 1.34068 -1.41463 0
M  V30 2460 H 234.717 2.85955 -1.25045 0
M  V30 2461 N 235.018 0.912232 1.28515 0
M  V30 2462 C 236.434 0.610159 1.47476 0
M  V30 2463 C 236.634 -0.844955 1.82928 0
M  V30 2464 O 235.69 -1.62416 1.93332 0
M  V30 2465 C 237.003 1.54675 2.57868 0
M  V30 2466 C 238.551 1.55331 2.71738 0
M  V30 2467 C 239.026 2.47649 3.85272 0
M  V30 2468 N 240.517 2.45767 3.92623 0
M  V30 2469 C 241.252 3.13896 4.79851 0
M  V30 2470 N 240.748 3.9135 5.71679 0
M  V30 2471 N 242.541 3.02991 4.73448 0
M  V30 2472 H 234.692 1.85318 1.03783 0
M  V30 2473 H 236.955 0.794777 0.516753 0
M  V30 2474 H 236.661 2.5841 2.38574 0
M  V30 2475 H 236.535 1.27671 3.54937 0
M  V30 2476 H 238.922 0.52335 2.90422 0
M  V30 2477 H 239.003 1.86378 1.75205 0
M  V30 2478 H 238.647 3.50745 3.67342 0
M  V30 2479 H 238.577 2.13904 4.81199 0
M  V30 2480 H 241.068 1.89503 3.26951 0
M  V30 2481 H 241.381 4.40359 6.35062 0
M  V30 2482 H 239.726 3.95455 5.71524 0
M  V30 2483 H 242.917 2.41987 4.007 0
M  V30 2484 H 243.09 3.5636 5.41213 0
M  V30 2485 N 236.496 -1.42363 0.676048 0
M  V30 2486 C 237.742 -2.02336 0.207809 0
M  V30 2487 C 238.097 -1.52506 -1.17302 0
M  V30 2488 O 237.39 -0.718048 -1.77636 0
M  V30 2489 C 237.584 -3.56929 0.183431 0
M  V30 2490 C 237.413 -4.21762 1.56036 0
M  V30 2491 C 236.183 -4.56881 2.15842 0
M  V30 2492 C 238.381 -4.49267 2.50327 0
M  V30 2493 N 236.363 -5.069 3.46303 0
M  V30 2494 C 237.734 -5.00851 3.65443 0
M  V30 2495 C 239.789 -4.31257 2.48841 0
M  V30 2496 C 238.492 -5.36317 4.79329 0
M  V30 2497 C 240.518 -4.678 3.61824 0
M  V30 2498 C 239.88 -5.19537 4.75668 0
M  V30 2499 H 235.979 -0.772583 0.120993 0
M  V30 2500 H 238.563 -1.73203 0.889306 0
M  V30 2501 H 236.734 -3.85576 -0.467483 0
M  V30 2502 H 238.466 -4.03603 -0.297808 0
M  V30 2503 H 235.221 -4.4268 1.68319 0
M  V30 2504 H 235.645 -5.36338 4.13123 0
M  V30 2505 H 240.287 -3.90511 1.62051 0
M  V30 2506 H 238.005 -5.75995 5.66794 0
M  V30 2507 H 241.591 -4.55541 3.61903 0
M  V30 2508 H 240.471 -5.47287 5.61646 0
M  V30 2509 N 237.974 -0.419461 -1.51915 0
M  V30 2510 C 239.39 -0.0708431 -1.59443 0
M  V30 2511 C 239.59 1.41796 -1.43164 0
M  V30 2512 O 238.646 2.18596 -1.26381 0
M  V30 2513 C 239.959 -0.574991 -2.95151 0
M  V30 2514 C 241.507 -0.533867 -3.08413 0
M  V30 2515 C 241.982 -1.01469 -4.46618 0
M  V30 2516 N 243.473 -0.971939 -4.52888 0
M  V30 2517 C 244.208 -1.31505 -5.58116 0
M  V30 2518 N 243.704 -1.73014 -6.70849 0
M  V30 2519 N 245.497 -1.23436 -5.48379 0
M  V30 2520 H 237.648 -1.38836 -1.60743 0
M  V30 2521 H 239.911 -0.570998 -0.756747 0
M  V30 2522 H 239.617 -1.61597 -3.12377 0
M  V30 2523 H 239.491 0.00979777 -3.77199 0
M  V30 2524 H 241.878 0.498086 -2.90866 0
M  V30 2525 H 241.959 -1.15484 -2.28248 0
M  V30 2526 H 241.603 -2.04502 -4.6491 0
M  V30 2527 H 241.533 -0.370433 -5.25295 0
M  V30 2528 H 244.024 -0.666893 -3.71969 0
M  V30 2529 H 244.337 -1.97479 -7.47143 0
M  V30 2530 H 242.682 -1.76926 -6.72103 0
M  V30 2531 H 245.873 -0.908869 -4.59192 0
M  V30 2532 H 246.046 -1.50506 -6.30279 0
M  V30 2533 N 239.452 1.56882 -0.150215 0
M  V30 2534 C 240.868 1.58263 0.20617 0
M  V30 2535 C 241.068 1.16464 1.64434 0
M  V30 2536 O 240.124 0.866422 2.3717 0
M  V30 2537 C 241.437 3.00649 -0.0555025 0
M  V30 2538 C 242.985 3.12999 0.00795388 0
M  V30 2539 C 243.46 4.5744 -0.226429 0
M  V30 2540 N 244.951 4.62875 -0.173469 0
M  V30 2541 C 245.686 5.72454 -0.329288 0
M  V30 2542 N 245.182 6.90669 -0.543005 0
M  V30 2543 N 246.975 5.61467 -0.266666 0
M  V30 2544 H 239.126 1.82345 -1.08922 0
M  V30 2545 H 241.389 0.844149 -0.431413 0
M  V30 2546 H 241.095 3.3563 -1.05096 0
M  V30 2547 H 240.969 3.71337 0.66246 0
M  V30 2548 H 243.356 2.77857 0.993966 0
M  V30 2549 H 243.437 2.4479 -0.742388 0
M  V30 2550 H 243.081 4.93287 -1.20956 0
M  V30 2551 H 243.011 5.2378 0.544274 0
M  V30 2552 H 245.502 3.77898 -0.0130709 0
M  V30 2553 H 245.815 7.70045 -0.651922 0
M  V30 2554 H 244.16 6.92581 -0.579366 0
M  V30 2555 H 247.351 4.67992 -0.100441 0
M  V30 2556 H 247.524 6.46816 -0.391535 0
M  V30 2557 N 240.93 -0.123565 1.57115 0
M  V30 2558 C 242.17 -0.838097 1.86428 0
M  V30 2559 C 242.534 -1.77266 0.737611 0
M  V30 2560 O 243.735 -2.52842 0.912389 0
M  V30 2561 C 242.006 -1.57219 3.20962 0
M  V30 2562 S 243.565 -2.32893 3.71896 0
M  V30 2563 H 240.383 -0.279811 0.653626 0
M  V30 2564 H 242.985 -0.0967034 1.95261 0
M  V30 2565 H 241.689 -0.877522 4.00909 0
M  V30 2566 H 241.22 -2.35405 3.15195 0
M  V30 2567 H 243.235 -3.5853 3.43032 0
M  V30 2568 N 242.408 -1.52605 -0.393616 0
M  V30 2569 C 243.34 -1.73303 -1.49995 0
M  V30 2570 C 244.353 -0.613473 -1.50799 0
M  V30 2571 O 245.542 -0.889049 -1.54784 0
M  V30 2572 C 242.642 -1.77245 -2.88855 0
M  V30 2573 C 241.815 -3.06483 -3.12069 0
M  V30 2574 C 240.874 -3.02033 -4.30886 0
M  V30 2575 O 239.9 -3.75907 -4.27414 0
M  V30 2576 N 241.102 -2.20897 -5.36828 0
M  V30 2577 H 243.867 -2.68756 -1.32629 0
M  V30 2578 H 241.428 -1.51036 -0.583083 0
M  V30 2579 H 243.42 -1.7178 -3.66434 0
M  V30 2580 H 241.99 -0.891993 -2.99603 0
M  V30 2581 H 241.21 -3.25474 -2.22396 0
M  V30 2582 H 242.498 -3.91947 -3.2443 0
M  V30 2583 H 241.896 -1.60336 -5.42502 0
M  V30 2584 H 240.453 -2.21275 -6.13091 0
M  V30 2585 N 243.887 0.651787 -1.4349 0
M  V30 2586 C 244.834 1.76462 -1.4876 0
M  V30 2587 C 245.804 1.62641 -0.337189 0
M  V30 2588 O 246.989 1.82864 -0.544544 0
M  V30 2589 C 244.129 3.14623 -1.41796 0
M  V30 2590 C 243.242 3.39568 -2.67053 0
M  V30 2591 C 242.377 4.67585 -2.52068 0
M  V30 2592 C 241.416 4.85639 -3.72587 0
M  V30 2593 N 240.553 6.04915 -3.56402 0
M  V30 2594 H 245.393 1.71293 -2.43849 0
M  V30 2595 H 242.93 0.835889 -1.21043 0
M  V30 2596 H 244.888 3.94496 -1.35753 0
M  V30 2597 H 243.518 3.18859 -0.50288 0
M  V30 2598 H 242.57 2.53783 -2.8337 0
M  V30 2599 H 243.882 3.48795 -3.56572 0
M  V30 2600 H 243.036 5.55586 -2.4374 0
M  V30 2601 H 241.775 4.60681 -1.60075 0
M  V30 2602 H 240.78 3.96073 -3.81321 0
M  V30 2603 H 242.005 4.94372 -4.65589 0
M  V30 2604 H 239.951 5.9914 -2.67146 0
M  V30 2605 H 239.868 6.15106 -4.39524 0
M  V30 2606 H 241.136 6.95533 -3.51929 0
M  V30 2607 N 245.365 1.30045 0.890287 0
M  V30 2608 C 246.605 1.19839 1.65584 0
M  V30 2609 C 246.969 -0.244175 1.90441 0
M  V30 2610 O 248.17 -0.469378 2.6467 0
M  V30 2611 C 246.441 1.99876 2.96284 0
M  V30 2612 S 248 2.06309 3.87275 0
M  V30 2613 H 244.818 0.427157 0.568382 0
M  V30 2614 H 247.42 1.64453 1.05715 0
M  V30 2615 H 246.124 3.03809 2.75913 0
M  V30 2616 H 245.655 1.55903 3.61189 0
M  V30 2617 H 247.67 1.18661 4.81803 0
M  V30 2618 N 246.843 -1.10192 1.12674 0
M  V30 2619 C 248.089 -1.82475 0.884915 0
M  V30 2620 C 248.422 -1.85093 -0.58773 0
M  V30 2621 O 247.697 -1.3134 -1.43457 0
M  V30 2622 C 247.98 -3.29018 1.46353 0
M  V30 2623 C 247.833 -3.34718 3.00473 0
M  V30 2624 C 249.152 -4.25473 1.12519 0
M  V30 2625 H 246.271 -0.662492 0.322915 0
M  V30 2626 H 248.913 -1.2913 1.39375 0
M  V30 2627 H 247.063 -3.74576 1.03077 0
M  V30 2628 H 248.735 -2.97622 3.52447 0
M  V30 2629 H 246.978 -2.74541 3.35872 0
M  V30 2630 H 247.649 -4.37918 3.36053 0
M  V30 2631 H 250.125 -3.88161 1.499 0
M  V30 2632 H 249.001 -5.26365 1.55663 0
M  V30 2633 H 249.262 -4.42084 0.0377407 0
M  V30 2634 N 248.321 -0.919034 -1.28029 0
M  V30 2635 C 249.567 -0.565221 -1.95389 0
M  V30 2636 C 249.922 0.882325 -1.70976 0
M  V30 2637 O 249.215 1.61988 -1.02325 0
M  V30 2638 C 249.409 -0.816855 -3.4794 0
M  V30 2639 C 249.238 -2.28731 -3.87185 0
M  V30 2640 C 248.008 -2.93841 -4.11079 0
M  V30 2641 C 250.206 -3.26415 -3.97439 0
M  V30 2642 N 248.188 -4.31129 -4.37037 0
M  V30 2643 C 249.559 -4.48884 -4.27672 0
M  V30 2644 C 251.614 -3.21742 -3.79982 0
M  V30 2645 C 250.317 -5.67268 -4.42266 0
M  V30 2646 C 252.343 -4.39431 -3.95796 0
M  V30 2647 C 251.705 -5.60675 -4.26407 0
M  V30 2648 H 247.804 -0.256797 -0.738633 0
M  V30 2649 H 250.388 -1.18386 -1.54573 0
M  V30 2650 H 248.559 -0.227445 -3.87733 0
M  V30 2651 H 250.291 -0.426542 -4.02446 0
M  V30 2652 H 247.046 -2.44547 -4.05578 0
M  V30 2653 H 247.47 -5.02127 -4.5409 0
M  V30 2654 H 252.112 -2.29079 -3.55363 0
M  V30 2655 H 249.83 -6.60406 -4.65714 0
M  V30 2656 H 253.416 -4.37323 -3.83719 0
M  V30 2657 H 252.296 -6.50223 -4.38383 0
M  V30 2658 N 249.799 1.42003 -0.683588 0
M  V30 2659 C 250.746 2.30798 -0.0107309 0
M  V30 2660 C 251.716 1.4645 0.783688 0
M  V30 2661 O 252.901 1.75263 0.754156 0
M  V30 2662 C 250.041 3.3238 0.928306 0
M  V30 2663 C 249.154 4.31814 0.126776 0
M  V30 2664 C 248.289 5.20468 1.06236 0
M  V30 2665 C 247.328 6.11577 0.253035 0
M  V30 2666 N 246.465 6.92754 1.14179 0
M  V30 2667 H 251.305 2.8778 -0.773727 0
M  V30 2668 H 248.842 1.41745 -0.393283 0
M  V30 2669 H 250.8 3.89813 1.48666 0
M  V30 2670 H 249.43 2.76976 1.65783 0
M  V30 2671 H 248.482 3.76427 -0.54833 0
M  V30 2672 H 249.794 4.96276 -0.501192 0
M  V30 2673 H 248.948 5.82677 1.69035 0
M  V30 2674 H 247.687 4.56204 1.7242 0
M  V30 2675 H 246.692 5.48428 -0.388108 0
M  V30 2676 H 247.917 6.77892 -0.404839 0
M  V30 2677 H 245.863 6.3111 1.78987 0
M  V30 2678 H 245.78 7.53855 0.569111 0
M  V30 2679 H 247.048 7.59441 1.75697 0
M  V30 2680 N 251.277 0.427512 1.51691 0
M  V30 2681 C 252.524 -0.142229 2.02 0
M  V30 2682 C 252.852 -1.43566 1.31221 0
M  V30 2683 O 252.107 -1.91298 0.412744 0
M  V30 2684 C 252.406 -0.418249 3.54944 0
M  V30 2685 C 252.072 0.788187 4.43958 0
M  V30 2686 C 250.734 1.11906 4.68007 0
M  V30 2687 C 253.086 1.59347 4.96244 0
M  V30 2688 C 250.414 2.25608 5.41588 0
M  V30 2689 C 252.766 2.7214 5.71072 0
M  V30 2690 C 251.43 3.05692 5.93387 0
M  V30 2691 H 250.7 -0.0520451 0.73917 0
M  V30 2692 H 253.347 0.572697 1.82736 0
M  V30 2693 H 251.652 -1.21496 3.72486 0
M  V30 2694 H 253.349 -0.872339 3.91397 0
M  V30 2695 H 249.939 0.520344 4.2543 0
M  V30 2696 H 254.123 1.35106 4.77556 0
M  V30 2697 H 249.379 2.51929 5.57083 0
M  V30 2698 H 253.553 3.34914 6.10578 0
M  V30 2699 H 251.18 3.9391 6.50184 0
M  V30 2700 N 252.755 -1.56801 0.158532 0
M  V30 2701 C 253.685 -2.20347 -0.772609 0
M  V30 2702 C 254.666 -1.15518 -1.24859 0
M  V30 2703 O 255.851 -1.43902 -1.30406 0
M  V30 2704 C 252.981 -2.83417 -2.00729 0
M  V30 2705 C 251.935 -3.94174 -1.66765 0
M  V30 2706 C 251.261 -4.44233 -2.97592 0
M  V30 2707 C 252.561 -5.14392 -0.905447 0
M  V30 2708 H 254.255 -2.98413 -0.242959 0
M  V30 2709 H 251.801 -1.43537 -0.115419 0
M  V30 2710 H 253.754 -3.26543 -2.6636 0
M  V30 2711 H 252.478 -2.02701 -2.56086 0
M  V30 2712 H 251.137 -3.51684 -1.03508 0
M  V30 2713 H 250.785 -3.60325 -3.50963 0
M  V30 2714 H 250.485 -5.18945 -2.75626 0
M  V30 2715 H 252.009 -4.90037 -3.64274 0
M  V30 2716 H 253.423 -5.5429 -1.46408 0
M  V30 2717 H 251.82 -5.9494 -0.7853 0
M  V30 2718 H 252.89 -4.84795 0.100668 0
M  V30 2719 N 254.233 0.115231 -1.57178 0
M  V30 2720 C 255.143 1.15994 -2.03918 0
M  V30 2721 C 256.159 1.45103 -0.960268 0
M  V30 2722 O 257.335 1.56144 -1.27204 0
M  V30 2723 C 254.4 2.46568 -2.43732 0
M  V30 2724 C 253.461 2.24822 -3.65723 0
M  V30 2725 C 252.694 3.4917 -4.03629 0
M  V30 2726 O 252.917 4.56623 -3.41835 0
M  V30 2727 O 251.851 3.39949 -4.96708 0
M  V30 2728 H 255.677 0.793019 -2.93164 0
M  V30 2729 H 253.262 0.3263 -1.45793 0
M  V30 2730 H 255.144 3.23492 -2.70057 0
M  V30 2731 H 253.819 2.82726 -1.57631 0
M  V30 2732 H 252.726 1.45744 -3.44542 0
M  V30 2733 H 254.059 1.93566 -4.52541 0
M  V30 2734 N 255.711 1.52812 0.385517 0
M  V30 2735 C 256.658 1.77838 1.47113 0
M  V30 2736 C 257.628 0.621757 1.54024 0
M  V30 2737 O 258.813 0.861846 1.70226 0
M  V30 2738 C 255.953 1.95618 2.84302 0
M  V30 2739 C 255.066 3.23316 2.86515 0
M  V30 2740 C 254.201 3.31394 4.15152 0
M  V30 2741 C 253.24 4.53201 4.1143 0
M  V30 2742 N 252.377 4.58542 5.3168 0
M  V30 2743 H 257.217 2.70482 1.25073 0
M  V30 2744 H 254.754 1.34006 0.606692 0
M  V30 2745 H 256.712 2.03912 3.63972 0
M  V30 2746 H 255.342 1.06331 3.04784 0
M  V30 2747 H 254.394 3.24076 1.99195 0
M  V30 2748 H 255.706 4.13045 2.79634 0
M  V30 2749 H 254.86 3.3889 5.03228 0
M  V30 2750 H 253.599 2.39645 4.24761 0
M  V30 2751 H 252.604 4.45827 3.21742 0
M  V30 2752 H 253.829 5.46271 4.03442 0
M  V30 2753 H 251.775 3.69686 5.41912 0
M  V30 2754 H 251.692 5.42148 5.26889 0
M  V30 2755 H 252.96 4.70296 6.21644 0
M  V30 2756 N 257.189 -0.644168 1.43834 0
M  V30 2757 C 258.6 -1.22554 1.40845 0
M  V30 2758 C 258.951 -1.9585 0.117115 0
M  V30 2759 O 258.076 -2.01734 -0.783086 0
M  V30 2760 C 258.671 -2.22907 2.55143 0
M  V30 2761 C 257.23 -2.76501 2.5539 0
M  V30 2762 C 256.377 -1.51287 2.32396 0
M  V30 2763 H 259.328 -0.43563 1.52604 0
M  V30 2764 H 259.349 -3.05259 2.2715 0
M  V30 2765 H 258.861 -1.69533 3.49114 0
M  V30 2766 H 256.962 -3.33914 1.65324 0
M  V30 2767 H 257.075 -3.23429 3.53455 0
M  V30 2768 H 255.439 -1.78957 1.81236 0
M  V30 2769 H 256.222 -0.998336 3.28463 0
M  V30 2770 N 258.668 -1.30515 -0.883378 0
M  V30 2771 C 259.578 -1.18959 -2.02203 0
M  V30 2772 C 260.594 -0.109172 -1.73657 0
M  V30 2773 O 261.77 -0.324413 -1.9877 0
M  V30 2774 C 258.835 -0.883871 -3.35244 0
M  V30 2775 C 257.896 -2.04982 -3.77201 0
M  V30 2776 C 257.129 -1.75859 -5.03894 0
M  V30 2777 O 257.352 -0.687276 -5.66244 0
M  V30 2778 O 256.286 -2.61146 -5.42297 0
M  V30 2779 H 260.112 -2.14616 -2.1488 0
M  V30 2780 H 257.697 -1.10124 -1.0096 0
M  V30 2781 H 259.579 -0.728644 -4.15053 0
M  V30 2782 H 258.254 0.0427798 -3.23672 0
M  V30 2783 H 257.161 -2.26038 -2.9809 0
M  V30 2784 H 258.494 -2.95825 -3.93381 0
M  V30 2785 N 260.146 1.09593 -1.13257 0
M  V30 2786 C 261.371 1.8604 -0.916732 0
M  V30 2787 C 261.796 1.80504 0.529146 0
M  V30 2788 O 261.154 1.18127 1.37534 0
M  V30 2789 C 261.202 3.32017 -1.40703 0
M  V30 2790 O 260.306 4.08141 -0.591153 0
M  V30 2791 H 259.647 0.576943 -0.328683 0
M  V30 2792 H 262.177 1.38405 -1.50682 0
M  V30 2793 H 262.187 3.82865 -1.4099 0
M  V30 2794 H 260.862 3.35361 -2.45979 0
M  V30 2795 H 259.439 3.67084 -0.656005 0
M  V30 2796 N 261.624 0.925811 1.2754 0
M  V30 2797 C 262.849 0.580924 1.99098 0
M  V30 2798 C 263.274 -0.833555 1.68622 0
M  V30 2799 O 262.632 -1.55903 0.925422 0
M  V30 2800 C 262.68 0.811186 3.51358 0
M  V30 2801 O 261.784 -0.124129 4.12213 0
M  V30 2802 H 261.125 0.223873 0.625122 0
M  V30 2803 H 263.655 1.24455 1.62395 0
M  V30 2804 H 263.665 0.72601 4.01489 0
M  V30 2805 H 262.34 1.84227 3.72872 0
M  V30 2806 H 260.917 0.0108006 3.72898 0
M  V30 2807 N 263.102 -1.41638 0.69111 0
M  V30 2808 C 264.342 -2.03166 0.224291 0
M  V30 2809 C 264.706 -1.53537 -1.15284 0
M  V30 2810 O 265.907 -2.0696 -1.71525 0
M  V30 2811 C 264.178 -3.56342 0.274758 0
M  V30 2812 S 265.737 -4.3864 -0.118669 0
M  V30 2813 H 262.555 -0.705188 0.0907263 0
M  V30 2814 H 265.157 -1.7314 0.907895 0
M  V30 2815 H 263.861 -3.89958 1.2791 0
M  V30 2816 H 263.392 -3.91063 -0.428142 0
M  V30 2817 H 265.407 -4.77549 -1.34764 0
M  V30 2818 N 264.58 -0.43555 -1.51462 0
M  V30 2819 C 265.991 0.0279871 -1.86679 0
M  V30 2820 C 266.342 1.42104 -1.35281 0
M  V30 2821 O 265.467 2.04667 -0.702878 0
M  V30 2822 C 266.062 0.0575626 -3.38751 0
M  V30 2823 C 264.621 0.465507 -3.7351 0
M  V30 2824 C 263.768 -0.342996 -2.75171 0
M  V30 2825 H 266.719 -0.651473 -1.44712 0
M  V30 2826 H 266.74 0.867421 -3.70481 0
M  V30 2827 H 266.252 -0.956448 -3.7613 0
M  V30 2828 H 264.353 1.48519 -3.41721 0
M  V30 2829 H 264.466 0.191546 -4.78717 0
M  V30 2830 H 262.83 0.198442 -2.53926 0
M  V30 2831 H 263.613 -1.35585 -3.15391 0
M  V30 2832 N 266.058 1.56714 -0.166846 0
M  V30 2833 C 267.021 2.16539 0.751232 0
M  V30 2834 C 268.021 1.11228 1.16125 0
M  V30 2835 O 269.211 1.36765 1.07894 0
M  V30 2836 C 266.343 2.74462 2.02196 0
M  V30 2837 H 267.536 2.99013 0.230499 0
M  V30 2838 H 265.089 1.56081 0.0826982 0
M  V30 2839 H 265.824 1.95709 2.58589 0
M  V30 2840 H 265.609 3.51527 1.73698 0
M  V30 2841 H 267.099 3.20489 2.67725 0
M  V30 2842 N 267.536 -0.106894 1.57237 0
M  V30 2843 C 268.952 -0.46078 1.52804 0
M  V30 2844 C 269.152 -1.81184 0.881746 0
M  V30 2845 O 268.208 -2.48102 0.469224 0
M  V30 2846 C 269.521 -0.434127 2.9755 0
M  V30 2847 C 271.069 -0.516821 3.08704 0
M  V30 2848 C 271.544 -0.520436 4.55033 0
M  V30 2849 N 273.035 -0.58153 4.59535 0
M  V30 2850 C 273.77 -0.605973 5.70189 0
M  V30 2851 N 273.266 -0.587331 6.90306 0
M  V30 2852 N 275.059 -0.649895 5.5833 0
M  V30 2853 H 267.21 0.778203 1.9763 0
M  V30 2854 H 269.473 0.288403 0.903066 0
M  V30 2855 H 269.179 0.491197 3.48253 0
M  V30 2856 H 269.053 -1.25748 3.55622 0
M  V30 2857 H 271.44 -1.43256 2.57995 0
M  V30 2858 H 271.521 0.334449 2.53604 0
M  V30 2859 H 271.165 0.391313 5.0639 0
M  V30 2860 H 271.095 -1.38876 5.07958 0
M  V30 2861 H 273.586 -0.60161 3.73081 0
M  V30 2862 H 273.899 -0.60894 7.70397 0
M  V30 2863 H 272.244 -0.554564 6.92784 0
M  V30 2864 H 275.435 -0.661907 4.63397 0
M  V30 2865 H 275.608 -0.665476 6.44574 0
M  V30 2866 N 269.014 -1.53014 -0.377408 0
M  V30 2867 C 270.26 -1.68872 -1.12294 0
M  V30 2868 C 270.593 -0.433224 -1.89306 0
M  V30 2869 O 269.868 0.569258 -1.85983 0
M  V30 2870 C 270.151 -2.93115 -2.09179 0
M  V30 2871 C 270.004 -4.28794 -1.35853 0
M  V30 2872 C 271.323 -3.12928 -3.09458 0
M  V30 2873 H 268.442 -0.614518 -0.406862 0
M  V30 2874 H 271.084 -1.85633 -0.40503 0
M  V30 2875 H 269.234 -2.78956 -2.70399 0
M  V30 2876 H 270.906 -4.54742 -0.775082 0
M  V30 2877 H 269.149 -4.28744 -0.660364 0
M  V30 2878 H 269.82 -5.11837 -2.06706 0
M  V30 2879 H 272.296 -3.26194 -2.58334 0
M  V30 2880 H 271.172 -4.01316 -3.74482 0
M  V30 2881 H 271.433 -2.27669 -3.78971 0
M  V30 2882 N 270.492 0.636531 -1.44174 0
M  V30 2883 C 271.738 1.39826 -1.4689 0
M  V30 2884 C 272.071 1.93947 -0.0990585 0
M  V30 2885 O 271.346 1.73325 0.882544 0
M  V30 2886 C 271.629 2.56751 -2.5249 0
M  V30 2887 C 271.482 2.08014 -3.98811 0
M  V30 2888 C 272.801 3.58946 -2.54649 0
M  V30 2889 H 269.92 0.507075 -0.53483 0
M  V30 2890 H 272.562 0.720188 -1.75822 0
M  V30 2891 H 270.712 3.14597 -2.2795 0
M  V30 2892 H 272.384 1.5504 -4.34466 0
M  V30 2893 H 270.627 1.39242 -4.10846 0
M  V30 2894 H 271.298 2.92169 -4.68339 0
M  V30 2895 H 273.774 3.1089 -2.76563 0
M  V30 2896 H 272.65 4.38286 -3.3045 0
M  V30 2897 H 272.911 4.12655 -1.58646 0
M  V30 2898 N 271.97 1.30982 0.876444 0
M  V30 2899 C 272.933 1.18054 1.96459 0
M  V30 2900 C 273.933 0.109399 1.60427 0
M  V30 2901 O 275.123 0.358173 1.70478 0
M  V30 2902 C 272.255 0.810616 3.31122 0
M  V30 2903 H 273.448 2.14735 2.09354 0
M  V30 2904 H 271.001 1.145 1.06392 0
M  V30 2905 H 271.736 -0.155322 3.23928 0
M  V30 2906 H 271.521 1.58481 3.58645 0
M  V30 2907 H 273.011 0.743876 4.10921 0
M  V30 2908 N 273.449 -1.08991 1.13837 0
M  V30 2909 C 274.695 -1.81526 0.90422 0
M  V30 2910 C 275.028 -1.85706 -0.568066 0
M  V30 2911 O 274.303 -1.32855 -1.42056 0
M  V30 2912 C 274.586 -3.27447 1.49835 0
M  V30 2913 C 274.439 -3.31512 3.04006 0
M  V30 2914 C 275.758 -4.24256 1.17025 0
M  V30 2915 H 272.877 -0.659029 0.329923 0
M  V30 2916 H 275.519 -1.27644 1.40737 0
M  V30 2917 H 273.669 -3.73462 1.07044 0
M  V30 2918 H 275.341 -2.93867 3.55584 0
M  V30 2919 H 273.584 -2.70963 3.38765 0
M  V30 2920 H 274.255 -4.34329 3.40679 0
M  V30 2921 H 276.731 -3.86549 1.54009 0
M  V30 2922 H 275.607 -5.24684 1.61237 0
M  V30 2923 H 275.868 -4.42019 0.0846274 0
M  V30 2924 N 274.927 -0.932562 -1.27047 0
M  V30 2925 C 275.857 -0.452902 -2.29066 0
M  V30 2926 C 276.838 0.489338 -1.62909 0
M  V30 2927 O 278.023 0.393046 -1.90181 0
M  V30 2928 C 275.153 0.290698 -3.46081 0
M  V30 2929 C 274.107 -0.564168 -4.24265 0
M  V30 2930 C 273.433 0.308886 -5.33807 0
M  V30 2931 C 274.733 -1.83112 -4.89149 0
M  V30 2932 H 276.427 -1.30552 -2.69437 0
M  V30 2933 H 273.973 -0.629201 -1.29526 0
M  V30 2934 H 275.926 0.637233 -4.16554 0
M  V30 2935 H 274.65 1.17738 -3.0464 0
M  V30 2936 H 273.309 -0.893477 -3.55545 0
M  V30 2937 H 272.957 1.19467 -4.88607 0
M  V30 2938 H 272.657 -0.259633 -5.87026 0
M  V30 2939 H 274.181 0.650884 -6.07121 0
M  V30 2940 H 275.595 -1.55236 -5.51883 0
M  V30 2941 H 273.992 -2.34353 -5.52448 0
M  V30 2942 H 275.062 -2.54772 -4.12576 0
M  V30 2943 N 276.405 1.4127 -0.698611 0
M  V30 2944 C 277.63 2.06024 -0.238512 0
M  V30 2945 C 278.055 1.5224 1.10475 0
M  V30 2946 O 277.413 0.650623 1.69223 0
M  V30 2947 C 277.461 3.59988 -0.209952 0
M  V30 2948 O 276.565 4.04282 0.814235 0
M  V30 2949 H 275.906 0.653829 -0.115775 0
M  V30 2950 H 278.436 1.8098 -0.954326 0
M  V30 2951 H 278.446 4.07979 -0.0418436 0
M  V30 2952 H 277.121 3.98503 -1.1903 0
M  V30 2953 H 275.698 3.6779 0.615234 0
M  V30 2954 N 277.883 0.443576 1.51229 0
M  V30 2955 C 279.13 -0.120796 2.02139 0
M  V30 2956 C 279.458 -1.42166 1.32736 0
M  V30 2957 O 278.713 -1.90849 0.43301 0
M  V30 2958 C 279.012 -0.380579 3.55368 0
M  V30 2959 C 278.678 0.83523 4.43097 0
M  V30 2960 C 277.34 1.16864 4.66794 0
M  V30 2961 C 279.692 1.64601 4.94526 0
M  V30 2962 C 277.02 2.31339 5.39165 0
M  V30 2963 C 279.372 2.78181 5.68153 0
M  V30 2964 C 278.036 3.11969 5.90112 0
M  V30 2965 H 277.306 -0.0442023 0.73968 0
M  V30 2966 H 279.953 0.592046 1.82118 0
M  V30 2967 H 278.258 -1.17538 3.73754 0
M  V30 2968 H 279.955 -0.830777 3.923 0
M  V30 2969 H 276.545 0.565437 4.24854 0
M  V30 2970 H 280.729 1.40163 4.76097 0
M  V30 2971 H 275.985 2.57823 5.5438 0
M  V30 2972 H 280.159 3.41371 6.06992 0
M  V30 2973 H 277.786 4.00784 6.45969 0
M  V30 2974 N 279.361 -1.56624 0.175154 0
M  V30 2975 C 280.291 -2.21155 -0.749195 0
M  V30 2976 C 281.272 -1.16836 -1.23626 0
M  V30 2977 O 282.457 -1.45277 -1.28873 0
M  V30 2978 C 279.587 -2.8553 -1.97711 0
M  V30 2979 C 278.541 -3.95921 -1.62575 0
M  V30 2980 C 277.867 -4.47365 -2.92864 0
M  V30 2981 C 279.167 -5.15323 -0.850838 0
M  V30 2982 H 280.861 -2.98653 -0.211295 0
M  V30 2983 H 278.407 -1.43651 -0.100188 0
M  V30 2984 H 280.36 -3.2935 -2.62881 0
M  V30 2985 H 279.084 -2.05406 -2.53921 0
M  V30 2986 H 277.743 -3.52762 -0.997719 0
M  V30 2987 H 277.391 -3.64027 -3.47122 0
M  V30 2988 H 277.091 -5.21839 -2.70106 0
M  V30 2989 H 278.615 -4.93873 -3.59056 0
M  V30 2990 H 280.029 -5.55812 -1.40521 0
M  V30 2991 H 278.426 -5.95739 -0.722154 0
M  V30 2992 H 279.496 -4.84661 0.152082 0
M  V30 2993 N 280.839 0.0985539 -1.57292 0
M  V30 2994 C 281.769 1.12064 -2.04851 0
M  V30 2995 C 282.75 1.41981 -0.936767 0
M  V30 2996 O 283.935 1.52071 -1.20781 0
M  V30 2997 C 281.065 2.44144 -2.47004 0
M  V30 2998 C 280.019 2.28643 -3.6181 0
M  V30 2999 C 279.345 3.65869 -3.89929 0
M  V30 3000 C 280.645 1.72986 -4.92822 0
M  V30 3001 H 282.339 0.724979 -2.9049 0
M  V30 3002 H 279.885 0.34729 -1.39749 0
M  V30 3003 H 281.838 3.15914 -2.78884 0
M  V30 3004 H 280.562 2.85639 -1.5836 0
M  V30 3005 H 279.221 1.59318 -3.30172 0
M  V30 3006 H 278.869 4.04885 -2.98458 0
M  V30 3007 H 278.569 3.56344 -4.67218 0
M  V30 3008 H 280.093 4.39112 -4.2428 0
M  V30 3009 H 281.507 2.34593 -5.23105 0
M  V30 3010 H 279.904 1.74229 -5.74251 0
M  V30 3011 H 280.974 0.689007 -4.7998 0
M  V30 3012 N 282.317 1.53212 0.369288 0
M  V30 3013 C 283.566 1.68436 1.10961 0
M  V30 3014 C 283.879 0.440738 1.9057 0
M  V30 3015 O 285.085 0.473446 2.6734 0
M  V30 3016 C 283.541 2.97744 2.0218 0
M  V30 3017 C 283.149 4.29355 1.279 0
M  V30 3018 C 284.893 3.22334 2.76226 0
M  V30 3019 C 282.8 5.49755 2.17999 0
M  V30 3020 H 281.73 0.627568 0.41794 0
M  V30 3021 H 284.381 1.79713 0.370884 0
M  V30 3022 H 282.763 2.8026 2.79768 0
M  V30 3023 H 283.937 4.57458 0.554007 0
M  V30 3024 H 282.252 4.11179 0.657311 0
M  V30 3025 H 284.849 4.09471 3.43857 0
M  V30 3026 H 285.192 2.38238 3.41392 0
M  V30 3027 H 285.725 3.40475 2.05723 0
M  V30 3028 H 282.464 6.36318 1.57417 0
M  V30 3029 H 281.984 5.25937 2.88359 0
M  V30 3030 H 283.663 5.84401 2.77641 0
M  V30 3031 N 283.795 -0.628877 1.44509 0
M  V30 3032 C 284.725 -1.75187 1.54376 0
M  V30 3033 C 285.706 -1.65411 0.396618 0
M  V30 3034 O 286.891 -1.84137 0.617031 0
M  V30 3035 C 284.021 -3.13725 1.48976 0
M  V30 3036 C 282.975 -3.38291 2.62189 0
M  V30 3037 C 282.301 -4.76883 2.41841 0
M  V30 3038 C 283.601 -3.30632 4.04326 0
M  V30 3039 H 285.295 -1.67187 2.48373 0
M  V30 3040 H 282.841 -0.802909 1.19538 0
M  V30 3041 H 284.794 -3.92064 1.54478 0
M  V30 3042 H 283.518 -3.22515 0.514961 0
M  V30 3043 H 282.177 -2.62334 2.56079 0
M  V30 3044 H 281.825 -4.82378 1.42548 0
M  V30 3045 H 281.525 -4.94278 3.17747 0
M  V30 3046 H 283.049 -5.57449 2.49165 0
M  V30 3047 H 284.463 -3.98873 4.11793 0
M  V30 3048 H 282.86 -3.59561 4.80454 0
M  V30 3049 H 283.93 -2.28404 4.27738 0
M  V30 3050 N 285.273 -1.31445 -0.869486 0
M  V30 3051 C 286.519 -1.21337 -1.62496 0
M  V30 3052 C 286.852 0.227872 -1.92858 0
M  V30 3053 O 286.127 1.16094 -1.56053 0
M  V30 3054 C 286.41 -2.05814 -2.95487 0
M  V30 3055 C 286.263 -3.5824 -2.72 0
M  V30 3056 C 287.582 -1.9079 -3.96594 0
M  V30 3057 H 284.701 -0.442135 -0.589649 0
M  V30 3058 H 287.343 -1.6124 -1.00507 0
M  V30 3059 H 285.493 -1.71913 -3.48394 0
M  V30 3060 H 287.165 -4.0228 -2.25762 0
M  V30 3061 H 285.408 -3.81647 -2.06224 0
M  V30 3062 H 286.079 -4.12657 -3.66631 0
M  V30 3063 H 288.555 -2.20459 -3.52898 0
M  V30 3064 H 287.431 -2.52199 -4.87531 0
M  V30 3065 H 287.692 -0.871341 -4.33428 0
M  V30 3066 N 286.751 1.08385 -1.14413 0
M  V30 3067 C 287.976 1.85057 -0.936413 0
M  V30 3068 C 288.401 1.81055 0.509971 0
M  V30 3069 O 287.759 1.1958 1.36273 0
M  V30 3070 C 287.807 3.30505 -1.44217 0
M  V30 3071 O 286.911 4.07491 -0.634409 0
M  V30 3072 H 286.252 0.573425 -0.334784 0
M  V30 3073 H 288.782 1.36799 -1.52142 0
M  V30 3074 H 288.792 3.81348 -1.45043 0
M  V30 3075 H 287.467 3.32734 -2.49522 0
M  V30 3076 H 286.044 3.66368 -0.694902 0
M  V30 3077 N 288.23 0.939286 1.26551 0
M  V30 3078 C 289.455 0.602008 1.98471 0
M  V30 3079 C 289.88 -0.815624 1.69497 0
M  V30 3080 O 289.238 -1.54912 0.941905 0
M  V30 3081 C 289.286 0.848407 3.50477 0
M  V30 3082 O 288.39 -0.0804009 4.12322 0
M  V30 3083 H 287.731 0.23049 0.622712 0
M  V30 3084 H 290.261 1.2617 1.61066 0
M  V30 3085 H 290.271 0.768553 4.00696 0
M  V30 3086 H 288.946 1.88171 3.70897 0
M  V30 3087 H 287.523 0.0503508 3.72866 0
M  V30 3088 N 289.708 -1.40897 0.706093 0
M  V30 3089 C 290.954 -2.01352 0.241889 0
M  V30 3090 C 291.287 -1.55832 -1.15888 0
M  V30 3091 O 290.562 -0.774145 -1.7843 0
M  V30 3092 C 290.845 -3.58752 0.311311 0
M  V30 3093 C 290.698 -4.1437 1.74978 0
M  V30 3094 C 292.017 -4.38914 -0.322922 0
M  V30 3095 H 289.136 -0.731562 0.0893687 0
M  V30 3096 H 291.778 -1.67504 0.896802 0
M  V30 3097 H 289.928 -3.87718 -0.246302 0
M  V30 3098 H 291.6 -3.96239 2.36205 0
M  V30 3099 H 289.843 -3.69016 2.28057 0
M  V30 3100 H 290.514 -5.23532 1.74981 0
M  V30 3101 H 292.99 -4.15822 0.152089 0
M  V30 3102 H 291.866 -5.48358 -0.243855 0
M  V30 3103 H 292.127 -4.19176 -1.40513 0
M  V30 3104 N 291.186 -0.45159 -1.50991 0
M  V30 3105 C 292.432 0.110237 -2.025 0
M  V30 3106 C 292.765 1.41109 -1.33424 0
M  V30 3107 O 292.04 1.89135 -0.453659 0
M  V30 3108 C 292.323 0.314271 -3.58726 0
M  V30 3109 C 292.176 -1.00623 -4.38401 0
M  V30 3110 C 293.495 1.07767 -4.26702 0
M  V30 3111 H 290.614 0.0385897 -0.735989 0
M  V30 3112 H 293.256 -0.593374 -1.80497 0
M  V30 3113 H 291.406 0.913601 -3.77605 0
M  V30 3114 H 293.078 -1.64064 -4.31139 0
M  V30 3115 H 291.321 -1.6075 -4.02917 0
M  V30 3116 H 291.992 -0.817341 -5.45915 0
M  V30 3117 H 294.468 0.56986 -4.12179 0
M  V30 3118 H 293.344 1.18921 -5.35863 0
M  V30 3119 H 293.605 2.10939 -3.88532 0
M  V30 3120 N 292.664 1.56529 -0.183458 0
M  V30 3121 C 293.597 2.14417 0.781052 0
M  V30 3122 C 294.575 1.07761 1.21763 0
M  V30 3123 O 295.759 1.35807 1.30724 0
M  V30 3124 C 292.886 2.69361 2.05335 0
M  V30 3125 C 291.932 3.885 1.75982 0
M  V30 3126 S 292.765 5.27568 0.918256 0
M  V30 3127 C 293.921 5.85926 2.20095 0
M  V30 3128 H 294.154 2.95893 0.2889 0
M  V30 3129 H 291.687 1.54368 0.0313844 0
M  V30 3130 H 293.645 3.01662 2.78406 0
M  V30 3131 H 292.306 1.87949 2.51663 0
M  V30 3132 H 291.499 4.25314 2.70415 0
M  V30 3133 H 291.101 3.57149 1.10999 0
M  V30 3134 H 293.393 5.99579 3.15453 0
M  V30 3135 H 294.336 6.82761 1.87731 0
M  V30 3136 H 294.744 5.14438 2.32409 0
M  V30 3137 N 294.142 -0.090211 1.57342 0
M  V30 3138 C 295.382 -0.798365 1.88163 0
M  V30 3139 C 295.746 -1.75662 0.775046 0
M  V30 3140 O 296.947 -2.50849 0.965816 0
M  V30 3141 C 295.218 -1.50376 3.24225 0
M  V30 3142 S 296.777 -2.24952 3.76752 0
M  V30 3143 H 293.595 -0.265883 0.659414 0
M  V30 3144 H 296.197 -0.055264 1.95422 0
M  V30 3145 H 294.901 -0.792286 4.0268 0
M  V30 3146 H 294.432 -2.28666 3.20118 0
M  V30 3147 H 296.447 -3.51173 3.5056 0
M  V30 3148 N 295.62 -1.53406 -0.361157 0
M  V30 3149 C 296.553 -1.74946 -1.46524 0
M  V30 3150 C 297.531 -0.59795 -1.51206 0
M  V30 3151 O 298.715 -0.831062 -1.69191 0
M  V30 3152 C 295.842 -1.83224 -2.84863 0
M  V30 3153 C 294.888 -3.05233 -2.97885 0
M  V30 3154 S 295.721 -4.6466 -2.66179 0
M  V30 3155 C 296.877 -4.75793 -4.06659 0
M  V30 3156 H 297.11 -2.68319 -1.28033 0
M  V30 3157 H 294.643 -1.44051 -0.555764 0
M  V30 3158 H 296.601 -1.88679 -3.64569 0
M  V30 3159 H 295.262 -0.908948 -3.00661 0
M  V30 3160 H 294.455 -3.07648 -3.9921 0
M  V30 3161 H 294.057 -2.97913 -2.26106 0
M  V30 3162 H 296.349 -4.5612 -5.0096 0
M  V30 3163 H 297.292 -5.7786 -4.09247 0
M  V30 3164 H 297.7 -4.04389 -3.93865 0
M  V30 3165 N 297.098 0.621204 -1.44841 0
M  V30 3166 C 298.346 1.37783 -1.47852 0
M  V30 3167 C 298.667 1.94653 -0.116224 0
M  V30 3168 O 297.937 1.76367 0.852737 0
M  V30 3169 H 296.517 0.511453 -0.544449 0
M  V30 3170 H 299.179 0.730446 -1.80694 0
M  V30 3171 H 298.275 2.20414 -2.20961 0
M  V30 3172 N 298.576 1.31904 0.862503 0
M  V30 3173 C 299.804 1.24998 1.64873 0
M  V30 3174 C 300.219 -0.183425 1.87907 0
M  V30 3175 O 299.576 -1.11794 1.44251 0
M  V30 3176 C 299.627 1.99829 3.01248 0
M  V30 3177 O 299.348 3.37575 2.79239 0
M  V30 3178 C 300.849 1.99852 3.95694 0
M  V30 3179 H 298.069 0.431599 0.513773 0
M  V30 3180 H 300.613 1.73901 1.07604 0
M  V30 3181 H 298.768 1.54668 3.55185 0
M  V30 3182 H 299.182 3.75776 3.65914 0
M  V30 3183 H 300.656 2.56709 4.88676 0
M  V30 3184 H 301.133 0.982852 4.28062 0
M  V30 3185 H 301.739 2.44926 3.47694 0
M  V30 3186 N 300.054 -1.07777 1.14986 0
M  V30 3187 C 301.303 -1.79669 0.916617 0
M  V30 3188 C 301.616 -1.87474 -0.557917 0
M  V30 3189 O 302.822 -2.55845 -0.908617 0
M  V30 3190 C 301.278 -3.22848 1.59051 0
M  V30 3191 C 300.886 -3.23257 3.10176 0
M  V30 3192 C 302.63 -3.99379 1.43864 0
M  V30 3193 C 300.537 -4.61063 3.70372 0
M  V30 3194 H 299.467 -0.673349 0.33929 0
M  V30 3195 H 302.118 -1.21003 1.37951 0
M  V30 3196 H 300.5 -3.8168 1.0553 0
M  V30 3197 H 301.674 -2.74095 3.70417 0
M  V30 3198 H 299.989 -2.60222 3.25074 0
M  V30 3199 H 302.586 -5.0122 1.86232 0
M  V30 3200 H 302.929 -4.14511 0.385564 0
M  V30 3201 H 303.462 -3.47032 1.94457 0
M  V30 3202 H 300.201 -4.51135 4.7556 0
M  V30 3203 H 299.721 -5.1048 3.14913 0
M  V30 3204 H 301.4 -5.30034 3.71043 0
M  V30 3205 N 301.532 -0.945985 -1.26051 0
M  V30 3206 C 302.943 -0.638096 -1.75457 0
M  V30 3207 C 303.294 0.846672 -1.76991 0
M  V30 3208 O 302.419 1.66262 -1.38513 0
M  V30 3209 C 303.014 -1.15157 -3.18629 0
M  V30 3210 C 301.573 -0.894004 -3.65629 0
M  V30 3211 C 300.72 -1.29967 -2.44957 0
M  V30 3212 H 303.671 -1.12376 -1.1206 0
M  V30 3213 H 303.692 -0.507615 -3.77099 0
M  V30 3214 H 303.204 -2.23222 -3.1748 0
M  V30 3215 H 301.305 0.172057 -3.72203 0
M  V30 3216 H 301.418 -1.52439 -4.54202 0
M  V30 3217 H 299.782 -0.718078 -2.44368 0
M  V30 3218 H 300.565 -2.38935 -2.46505 0
M  V30 3219 N 303.011 1.40521 -0.713556 0
M  V30 3220 C 303.921 2.34522 -0.0606667 0
M  V30 3221 C 304.937 1.57193 0.74607 0
M  V30 3222 O 306.113 1.89591 0.679493 0
M  V30 3223 C 303.178 3.36081 0.851491 0
M  V30 3224 C 302.239 4.29286 0.0349339 0
M  V30 3225 C 301.472 5.25994 0.903649 0
M  V30 3226 O 301.695 5.28616 2.14292 0
M  V30 3227 O 300.629 6.00918 0.343723 0
M  V30 3228 H 304.455 2.91968 -0.835972 0
M  V30 3229 H 302.04 1.41681 -0.47402 0
M  V30 3230 H 303.922 3.98369 1.37404 0
M  V30 3231 H 302.597 2.81052 1.60598 0
M  V30 3232 H 301.504 3.70289 -0.532633 0
M  V30 3233 H 302.837 4.87462 -0.681287 0
M  V30 3234 N 304.489 0.459591 1.5075 0
M  V30 3235 C 305.419 -0.330644 2.31147 0
M  V30 3236 C 306.4 -1.00087 1.37538 0
M  V30 3237 O 307.585 -1.00025 1.66459 0
M  V30 3238 C 304.715 -1.41958 3.16962 0
M  V30 3239 C 303.669 -0.871608 4.19031 0
M  V30 3240 C 302.995 -2.05797 4.9351 0
M  V30 3241 C 304.295 0.109251 5.22186 0
M  V30 3242 H 305.989 0.340336 2.97459 0
M  V30 3243 H 303.535 0.165119 1.4305 0
M  V30 3244 H 305.488 -1.9798 3.71997 0
M  V30 3245 H 304.212 -2.11917 2.48513 0
M  V30 3246 H 302.871 -0.333442 3.6508 0
M  V30 3247 H 302.519 -2.74427 4.21544 0
M  V30 3248 H 302.219 -1.6976 5.62544 0
M  V30 3249 H 303.743 -2.62331 5.51375 0
M  V30 3250 H 305.157 -0.361405 5.7216 0
M  V30 3251 H 303.554 0.383316 5.98875 0
M  V30 3252 H 304.624 1.03887 4.73641 0
M  V30 3253 N 305.967 -1.56429 0.191757 0
M  V30 3254 C 306.899 -2.16154 -0.762245 0
M  V30 3255 C 307.912 -1.12247 -1.17917 0
M  V30 3256 O 309.101 -1.39353 -1.11548 0
M  V30 3257 C 306.201 -2.70606 -2.04024 0
M  V30 3258 C 305.374 -3.99381 -1.78364 0
M  V30 3259 C 304.433 -4.38692 -2.90578 0
M  V30 3260 O 303.459 -5.06179 -2.6033 0
M  V30 3261 N 304.661 -4.01922 -4.18854 0
M  V30 3262 H 307.426 -2.98643 -0.251526 0
M  V30 3263 H 304.987 -1.61897 0.00967373 0
M  V30 3264 H 306.979 -2.93891 -2.78227 0
M  V30 3265 H 305.549 -1.9259 -2.46227 0
M  V30 3266 H 304.769 -3.84262 -0.879581 0
M  V30 3267 H 306.057 -4.83445 -1.58614 0
M  V30 3268 H 305.455 -3.47631 -4.46283 0
M  V30 3269 H 304.012 -4.30165 -4.89695 0
M  V30 3270 N 307.445 0.0818655 -1.57387 0
M  V30 3271 C 308.691 0.784074 -1.8703 0
M  V30 3272 C 309.024 1.77729 -0.782689 0
M  V30 3273 O 308.299 1.93384 0.208051 0
M  V30 3274 C 308.582 1.50105 -3.27323 0
M  V30 3275 C 308.435 0.524925 -4.46727 0
M  V30 3276 C 309.754 2.44843 -3.65705 0
M  V30 3277 H 306.873 0.283582 -0.680257 0
M  V30 3278 H 309.515 0.0474352 -1.89941 0
M  V30 3279 H 307.665 2.12897 -3.24972 0
M  V30 3280 H 309.337 -0.0970111 -4.61198 0
M  V30 3281 H 307.58 -0.160606 -4.33503 0
M  V30 3282 H 308.251 1.064 -5.41648 0
M  V30 3283 H 310.727 1.92135 -3.69085 0
M  V30 3284 H 309.603 2.92018 -4.64776 0
M  V30 3285 H 309.864 3.29197 -2.95096 0
M  V30 3286 N 308.923 1.53595 0.353017 0
M  V30 3287 C 309.853 1.83902 1.43883 0
M  V30 3288 C 310.834 0.693421 1.55324 0
M  V30 3289 O 312.019 0.944452 1.69687 0
M  V30 3290 C 309.149 2.04016 2.8106 0
M  V30 3291 C 308.103 3.19814 2.84434 0
M  V30 3292 C 307.429 3.25244 4.24406 0
M  V30 3293 C 308.729 4.58133 2.50822 0
M  V30 3294 H 310.423 2.74835 1.1877 0
M  V30 3295 H 307.969 1.32242 0.569917 0
M  V30 3296 H 309.922 2.238 3.57059 0
M  V30 3297 H 308.646 1.09804 3.07588 0
M  V30 3298 H 307.305 2.9987 2.10887 0
M  V30 3299 H 306.953 2.28646 4.48029 0
M  V30 3300 H 306.653 4.03054 4.27576 0
M  V30 3301 H 308.177 3.47228 5.0226 0
M  V30 3302 H 309.591 4.77995 3.16534 0
M  V30 3303 H 307.988 5.38276 2.6529 0
M  V30 3304 H 309.058 4.62387 1.46034 0
M  V30 3305 N 310.401 -0.613514 1.45168 0
M  V30 3306 C 311.678 -1.37263 1.39349 0
M  V30 3307 C 312.058 -2.11012 0.0610848 0
M  V30 3308 O 311.406 -2.07502 -0.956825 0
M  V30 3309 C 311.616 -2.3244 2.60332 0
M  V30 3310 C 312.964 -2.9523 3.05163 0
M  V30 3311 O 313.988 -2.42762 2.60663 0
M  V30 3312 O 312.847 -3.90454 3.82372 0
M  V30 3313 H 309.941 -0.615188 0.552696 0
M  V30 3314 H 312.487 -0.637097 1.57287 0
M  V30 3315 H 311.259 -1.77164 3.48896 0
M  V30 3316 H 310.882 -3.13383 2.44698 0
M  V30 3317 N 311.879 -1.3236 -0.855495 0
M  V30 3318 C 312.842 -1.21164 -1.94556 0
M  V30 3319 C 313.842 -0.134908 -1.60233 0
M  V30 3320 O 315.032 -0.385249 -1.69887 0
M  V30 3321 C 312.164 -0.863192 -3.29791 0
M  V30 3322 H 313.357 -2.18038 -2.05911 0
M  V30 3323 H 310.91 -1.16179 -1.04557 0
M  V30 3324 H 311.645 0.103769 -3.24134 0
M  V30 3325 H 311.43 -1.64166 -3.56078 0
M  V30 3326 H 312.92 -0.809156 -4.09686 0
M  V30 3327 N 313.357 1.07166 -1.15556 0
M  V30 3328 C 314.267 2.17947 -0.868116 0
M  V30 3329 C 315.283 1.73297 0.156297 0
M  V30 3330 O 316.459 2.01392 -0.0182327 0
M  V30 3331 C 313.524 3.44789 -0.36355 0
M  V30 3332 C 312.585 4.03996 -1.45209 0
M  V30 3333 C 311.818 5.24783 -0.971508 0
M  V30 3334 O 312.041 5.70109 0.182194 0
M  V30 3335 O 310.975 5.75715 -1.75603 0
M  V30 3336 H 314.801 2.4503 -1.79427 0
M  V30 3337 H 312.386 1.16539 -0.934824 0
M  V30 3338 H 314.268 4.21307 -0.0887113 0
M  V30 3339 H 312.943 3.19253 0.534708 0
M  V30 3340 H 311.85 3.29009 -1.78056 0
M  V30 3341 H 313.183 4.33808 -2.32533 0
M  V30 3342 N 314.835 0.952656 1.25548 0
M  V30 3343 C 316.083 0.605176 1.92826 0
M  V30 3344 C 316.404 -0.860261 1.74999 0
M  V30 3345 O 315.674 -1.6125 1.11244 0
M  V30 3346 H 314.254 0.220832 0.713612 0
M  V30 3347 H 316.916 1.21047 1.52754 0
M  V30 3348 H 316.012 0.832798 3.00784 0
M  V30 3349 N 316.313 -1.40141 0.720998 0
M  V30 3350 C 317.261 -2.3252 0.0608547 0
M  V30 3351 C 318.255 -1.52326 -0.741152 0
M  V30 3352 O 319.461 -1.68089 -0.643911 0
M  V30 3353 H 315.836 -0.751999 0.000876664 0
M  V30 3354 H 317.807 -2.8584 0.856614 0
M  V30 3355 C 316.556 -3.37331 -0.842809 0
M  V30 3356 H 315.879 -3.99108 -0.235084 0
M  V30 3357 H 317.319 -4.04452 -1.27257 0
M  V30 3358 C 315.778 -2.73246 -1.97074 0
M  V30 3359 O 316.308 -2.59998 -3.06209 0
M  V30 3360 N 314.514 -2.31547 -1.75597 0
M  V30 3361 H 314.061 -2.42522 -0.868368 0
M  V30 3362 H 314.019 -1.89007 -2.51244 0
M  V30 3363 N 317.792 -0.46758 -1.50504 0
M  V30 3364 C 319.208 -0.121533 -1.59137 0
M  V30 3365 C 319.408 1.3717 -1.47603 0
M  V30 3366 O 318.464 2.14464 -1.33272 0
M  V30 3367 C 319.777 -0.6686 -2.93173 0
M  V30 3368 C 321.325 -0.631716 -3.06559 0
M  V30 3369 C 321.8 -1.15627 -4.43164 0
M  V30 3370 N 323.291 -1.11553 -4.49567 0
M  V30 3371 C 324.026 -1.49195 -5.5365 0
M  V30 3372 N 323.522 -1.94269 -6.65005 0
M  V30 3373 N 325.315 -1.4082 -5.44175 0
M  V30 3374 H 317.466 -1.4388 -1.56245 0
M  V30 3375 H 319.729 -0.594784 -0.738198 0
M  V30 3376 H 319.435 -1.71453 -3.07078 0
M  V30 3377 H 319.309 -0.11021 -3.77039 0
M  V30 3378 H 321.696 0.405297 -2.92304 0
M  V30 3379 H 321.777 -1.22687 -2.24458 0
M  V30 3380 H 321.421 -2.1919 -4.58168 0
M  V30 3381 H 321.351 -0.537365 -5.23851 0
M  V30 3382 H 323.842 -0.784895 -3.69659 0
M  V30 3383 H 324.155 -2.21148 -7.40482 0
M  V30 3384 H 322.5 -1.98219 -6.66134 0
M  V30 3385 H 325.691 -1.0545 -4.56068 0
M  V30 3386 H 325.864 -1.70481 -6.25172 0
M  V30 3387 N 319.27 1.56325 -0.20005 0
M  V30 3388 C 320.516 1.98012 0.438059 0
M  V30 3389 C 320.849 1.08702 1.60927 0
M  V30 3390 O 320.124 0.140064 1.93995 0
M  V30 3391 C 320.407 3.48841 0.893419 0
M  V30 3392 C 320.26 4.48928 -0.279947 0
M  V30 3393 C 321.579 4.03498 1.75719 0
M  V30 3394 H 318.698 0.719918 0.157757 0
M  V30 3395 H 321.34 1.87743 -0.291968 0
M  V30 3396 H 319.49 3.57723 1.51547 0
M  V30 3397 H 321.162 4.52079 -0.91772 0
M  V30 3398 H 319.405 4.23694 -0.930919 0
M  V30 3399 H 320.076 5.5194 0.0812601 0
M  V30 3400 H 322.552 3.97427 1.23253 0
M  V30 3401 H 321.428 5.09393 2.04476 0
M  V30 3402 H 321.689 3.4906 2.71311 0
M  V30 3403 N 320.748 -0.0735177 1.57428 0
M  V30 3404 C 321.658 -1.10547 2.06922 0
M  V30 3405 C 322.674 -1.42506 0.998402 0
M  V30 3406 O 323.85 -1.52717 1.31299 0
M  V30 3407 C 320.915 -2.40019 2.50184 0
M  V30 3408 C 319.976 -2.15046 3.71556 0
M  V30 3409 C 319.209 -3.38345 4.12745 0
M  V30 3410 O 319.432 -4.47399 3.53822 0
M  V30 3411 O 318.366 -3.2666 5.05546 0
M  V30 3412 H 322.192 -0.715013 2.95163 0
M  V30 3413 H 319.777 -0.287531 1.46607 0
M  V30 3414 H 321.659 -3.16218 2.78539 0
M  V30 3415 H 320.334 -2.78447 1.65072 0
M  V30 3416 H 319.241 -1.36558 3.48285 0
M  V30 3417 H 320.574 -1.81499 4.57514 0
M  V30 3418 N 322.226 -1.5378 -0.344866 0
M  V30 3419 C 323.176 -1.78057 -1.42407 0
M  V30 3420 C 324.16 -0.635732 -1.47808 0
M  V30 3421 O 325.352 -0.89508 -1.527 0
M  V30 3422 C 322.481 -1.99242 -2.79566 0
M  V30 3423 C 321.567 -3.19787 -2.78562 0
M  V30 3424 N 321.958 -4.41284 -2.47189 0
M  V30 3425 C 320.256 -3.2093 -3.0971 0
M  V30 3426 C 320.957 -5.23128 -2.54385 0
M  V30 3427 N 319.933 -4.59813 -2.89953 0
M  V30 3428 H 323.735 -2.69588 -1.17046 0
M  V30 3429 H 321.249 -1.52687 -0.553217 0
M  V30 3430 H 323.246 -2.14768 -3.57324 0
M  V30 3431 H 321.906 -1.08953 -3.05875 0
M  V30 3432 H 322.917 -4.68657 -2.20411 0
M  V30 3433 H 319.594 -2.40603 -3.41199 0
M  V30 3434 H 320.984 -6.30096 -2.333 0
M  V30 3435 N 323.704 0.605807 -1.45491 0
M  V30 3436 C 325.115 1.18777 -1.44045 0
M  V30 3437 C 325.466 1.95471 -0.169001 0
M  V30 3438 O 324.591 2.0374 0.729324 0
M  V30 3439 C 325.186 2.16064 -2.60963 0
M  V30 3440 C 323.745 2.69633 -2.62631 0
M  V30 3441 C 322.892 1.45072 -2.36325 0
M  V30 3442 H 325.843 0.395017 -1.53705 0
M  V30 3443 H 325.864 2.9913 -2.35163 0
M  V30 3444 H 325.376 1.60217 -3.53486 0
M  V30 3445 H 323.477 3.29414 -1.74119 0
M  V30 3446 H 323.59 3.13944 -3.61906 0
M  V30 3447 H 321.954 1.74089 -1.85917 0
M  V30 3448 H 322.737 0.910899 -3.30995 0
M  V30 3449 N 325.182 1.32811 0.848464 0
M  V30 3450 C 326.41 1.26739 1.63538 0
M  V30 3451 C 326.825 -0.163484 1.88091 0
M  V30 3452 O 326.182 -1.10258 1.45429 0
M  V30 3453 C 326.233 2.03013 2.99112 0
M  V30 3454 O 325.954 3.40518 2.75643 0
M  V30 3455 C 327.455 2.04038 3.93552 0
M  V30 3456 H 324.675 0.437024 0.509167 0
M  V30 3457 H 327.219 1.75033 1.05753 0
M  V30 3458 H 325.374 1.58426 3.53525 0
M  V30 3459 H 325.788 3.79635 3.61908 0
M  V30 3460 H 327.262 2.61877 4.85926 0
M  V30 3461 H 327.739 1.0282 4.26995 0
M  V30 3462 H 328.345 2.486 3.45077 0
M  V30 3463 N 326.66 -1.06551 1.16123 0
M  V30 3464 C 327.59 -2.15935 0.88851 0
M  V30 3465 C 328.571 -1.69306 -0.164135 0
M  V30 3466 O 329.756 -1.94193 -0.0167857 0
M  V30 3467 C 326.886 -3.45149 0.385942 0
M  V30 3468 C 325.84 -4.05271 1.3762 0
M  V30 3469 C 325.166 -5.29664 0.732137 0
M  V30 3470 C 326.466 -4.44355 2.74493 0
M  V30 3471 H 328.16 -2.39006 1.80323 0
M  V30 3472 H 325.706 -1.14866 0.868435 0
M  V30 3473 H 327.659 -4.21004 0.182647 0
M  V30 3474 H 326.383 -3.21689 -0.564274 0
M  V30 3475 H 325.042 -3.3147 1.56599 0
M  V30 3476 H 324.69 -5.02499 -0.224483 0
M  V30 3477 H 324.39 -5.70848 1.39307 0
M  V30 3478 H 325.914 -6.08218 0.538802 0
M  V30 3479 H 327.328 -5.11303 2.59311 0
M  V30 3480 H 325.725 -4.96515 3.37035 0
M  V30 3481 H 326.795 -3.55339 3.29943 0
M  V30 3482 N 328.138 -0.959301 -1.25041 0
M  V30 3483 C 329.048 -0.489994 -2.29426 0
M  V30 3484 C 330.064 0.444944 -1.68215 0
M  V30 3485 O 331.24 0.320046 -1.98841 0
M  V30 3486 C 328.305 0.220309 -3.45999 0
M  V30 3487 C 327.366 -0.753418 -4.22637 0
M  V30 3488 C 326.599 -0.076918 -5.33645 0
M  V30 3489 O 326.822 1.13649 -5.58963 0
M  V30 3490 O 325.756 -0.764824 -5.97021 0
M  V30 3491 H 329.582 -1.35755 -2.71669 0
M  V30 3492 H 327.167 -0.725961 -1.30576 0
M  V30 3493 H 329.049 0.619677 -4.16819 0
M  V30 3494 H 327.724 1.06296 -3.0575 0
M  V30 3495 H 326.631 -1.20308 -3.54227 0
M  V30 3496 H 327.964 -1.56423 -4.66683 0
M  V30 3497 N 329.616 1.39756 -0.72842 0
M  V30 3498 C 330.564 2.32485 -0.0731849 0
M  V30 3499 C 331.558 1.52717 0.733063 0
M  V30 3500 O 332.764 1.68428 0.634988 0
M  V30 3501 H 329.139 0.751984 -0.00486469 0
M  V30 3502 H 331.11 2.85382 -0.871761 0
M  V30 3503 C 329.859 3.37773 0.824908 0
M  V30 3504 H 329.182 3.99227 0.213915 0
M  V30 3505 H 330.622 4.05121 1.25111 0
M  V30 3506 C 329.081 2.74287 1.95622 0
M  V30 3507 O 329.611 2.61618 3.04826 0
M  V30 3508 N 327.817 2.32475 1.74367 0
M  V30 3509 H 327.364 2.4298 0.855494 0
M  V30 3510 H 327.322 1.90337 2.50238 0
M  V30 3511 N 331.094 0.475555 1.50254 0
M  V30 3512 C 332.34 -0.0780073 2.0265 0
M  V30 3513 C 332.673 -1.38968 1.35652 0
M  V30 3514 O 331.948 -1.8839 0.483691 0
M  V30 3515 C 332.231 -0.257161 3.59181 0
M  V30 3516 C 332.084 1.07585 4.36744 0
M  V30 3517 C 333.403 -1.00965 4.28362 0
M  V30 3518 H 330.522 -0.0268758 0.73651 0
M  V30 3519 H 333.164 0.622015 1.7953 0
M  V30 3520 H 331.314 -0.853412 3.79011 0
M  V30 3521 H 332.986 1.70902 4.28474 0
M  V30 3522 H 331.229 1.6714 4.00308 0
M  V30 3523 H 331.9 0.904088 5.44546 0
M  V30 3524 H 334.376 -0.504214 4.13034 0
M  V30 3525 H 333.252 -1.10381 5.37687 0
M  V30 3526 H 333.513 -2.04731 3.91839 0
M  V30 3527 N 332.573 -1.56217 0.208337 0
M  V30 3528 C 333.483 -2.23316 -0.718836 0
M  V30 3529 C 334.499 -1.23648 -1.22422 0
M  V30 3530 O 335.675 -1.56423 -1.26861 0
M  V30 3531 C 332.74 -2.88968 -1.91568 0
M  V30 3532 C 331.801 -4.03943 -1.45357 0
M  V30 3533 C 331.034 -4.66455 -2.59337 0
M  V30 3534 O 331.257 -4.27919 -3.77149 0
M  V30 3535 O 330.191 -5.55686 -2.31293 0
M  V30 3536 H 334.017 -3.03182 -0.177315 0
M  V30 3537 H 331.602 -1.49384 -0.0215402 0
M  V30 3538 H 333.484 -3.30455 -2.61491 0
M  V30 3539 H 332.159 -2.12071 -2.44556 0
M  V30 3540 H 331.066 -3.67052 -0.722746 0
M  V30 3541 H 332.399 -4.82543 -0.970219 0
M  V30 3542 N 334.051 0.0651679 -1.57465 0
M  V30 3543 C 335.279 0.775808 -1.91804 0
M  V30 3544 C 335.694 1.70782 -0.804916 0
M  V30 3545 O 335.051 1.81153 0.221311 0
M  V30 3546 C 335.102 1.56381 -3.25925 0
M  V30 3547 O 334.823 0.669248 -4.32958 0
M  V30 3548 C 336.324 2.37485 -3.7432 0
M  V30 3549 H 333.544 0.2202 -0.63384 0
M  V30 3550 H 336.088 0.0334587 -2.04473 0
M  V30 3551 H 334.243 2.25837 -3.14764 0
M  V30 3552 H 334.657 1.21801 -5.10162 0
M  V30 3553 H 336.131 2.88223 -4.70778 0
M  V30 3554 H 336.608 3.17307 -3.03666 0
M  V30 3555 H 337.214 1.73173 -3.88447 0
M  V30 3556 N 335.529 1.53961 0.336706 0
M  V30 3557 C 336.492 1.81724 1.39675 0
M  V30 3558 C 337.492 0.688532 1.45313 0
M  V30 3559 O 338.682 0.956829 1.45569 0
M  V30 3560 C 335.814 1.96543 2.78538 0
M  V30 3561 H 337.007 2.76424 1.16318 0
M  V30 3562 H 334.56 1.45478 0.571474 0
M  V30 3563 H 335.295 1.0401 3.07168 0
M  V30 3564 H 335.08 2.78665 2.75841 0
M  V30 3565 H 336.57 2.19516 3.5525 0
M  V30 3566 N 337.007 -0.598083 1.45811 0
M  V30 3567 C 338.247 -1.36802 1.5187 0
M  V30 3568 C 338.611 -1.9133 0.160224 0
M  V30 3569 O 339.812 -2.6863 0.0955302 0
M  V30 3570 C 338.083 -2.47835 2.57513 0
M  V30 3571 S 339.642 -3.35458 2.82866 0
M  V30 3572 H 336.46 -0.466278 0.536755 0
M  V30 3573 H 339.062 -0.689152 1.82951 0
M  V30 3574 H 337.766 -2.06141 3.54872 0
M  V30 3575 H 337.297 -3.20512 2.28114 0
M  V30 3576 H 339.312 -4.46251 2.16967 0
M  V30 3577 N 338.485 -1.33259 -0.841409 0
M  V30 3578 C 339.734 -1.23921 -1.59143 0
M  V30 3579 C 340.047 0.1941 -1.94635 0
M  V30 3580 O 341.253 0.409474 -2.68394 0
M  V30 3581 C 339.709 -2.17119 -2.87032 0
M  V30 3582 C 339.317 -3.65606 -2.58914 0
M  V30 3583 C 341.061 -2.16648 -3.65053 0
M  V30 3584 C 338.968 -4.50726 -3.82884 0
M  V30 3585 H 337.898 -0.460264 -0.597221 0
M  V30 3586 H 340.549 -1.58307 -0.927959 0
M  V30 3587 H 338.931 -1.75663 -3.54906 0
M  V30 3588 H 340.105 -4.15487 -1.99267 0
M  V30 3589 H 338.42 -3.68341 -1.942 0
M  V30 3590 H 341.017 -2.77474 -4.57069 0
M  V30 3591 H 341.36 -1.16088 -3.99787 0
M  V30 3592 H 341.893 -2.56453 -3.041 0
M  V30 3593 H 338.632 -5.52151 -3.53283 0
M  V30 3594 H 338.152 -4.0559 -4.41879 0
M  V30 3595 H 339.831 -4.64401 -4.50489 0
M  V30 3596 N 339.963 1.05934 -1.16686 0
M  V30 3597 C 341.211 1.78447 -0.948744 0
M  V30 3598 C 341.532 1.87813 0.524523 0
M  V30 3599 O 340.802 1.38945 1.38098 0
M  V30 3600 H 339.382 0.660971 -0.348033 0
M  V30 3601 H 342.044 1.27947 -1.47022 0
M  V30 3602 H 341.14 2.80394 -1.37061 0
M  V30 3603 N 341.441 0.965919 1.2453 0
M  V30 3604 C 342.687 0.637349 1.93156 0
M  V30 3605 C 343.042 -0.818261 1.74133 0
M  V30 3606 O 342.335 -1.58079 1.08266 0
M  V30 3607 C 342.529 0.945428 3.44669 0
M  V30 3608 C 342.358 2.42944 3.78429 0
M  V30 3609 C 341.128 3.08895 3.9989 0
M  V30 3610 C 343.326 3.40941 3.8505 0
M  V30 3611 N 341.308 4.47052 4.20735 0
M  V30 3612 C 342.679 4.64448 4.10717 0
M  V30 3613 C 344.734 3.35624 3.67779 0
M  V30 3614 C 343.437 5.83292 4.20907 0
M  V30 3615 C 345.463 4.53818 3.79214 0
M  V30 3616 C 344.825 5.76114 4.05304 0
M  V30 3617 H 340.924 0.284034 0.728594 0
M  V30 3618 H 343.508 1.24041 1.50073 0
M  V30 3619 H 341.679 0.371193 3.86622 0
M  V30 3620 H 343.411 0.575613 4.00586 0
M  V30 3621 H 340.166 2.59432 3.96222 0
M  V30 3622 H 340.59 5.18634 4.35141 0
M  V30 3623 H 345.232 2.4211 3.46616 0
M  V30 3624 H 342.95 6.77236 4.40883 0
M  V30 3625 H 346.536 4.51263 3.67224 0
M  V30 3626 H 345.416 6.66045 4.13949 0
M  V30 3627 N 342.919 -1.39368 0.735821 0
M  V30 3628 C 344.166 -2.00497 0.284123 0
M  V30 3629 C 344.494 -1.58387 -1.12889 0
M  V30 3630 O 343.749 -0.804359 -1.78406 0
M  V30 3631 C 344.048 -3.5583 0.334651 0
M  V30 3632 C 343.714 -4.17593 1.7008 0
M  V30 3633 C 342.376 -4.34176 2.07472 0
M  V30 3634 C 344.728 -4.51848 2.59775 0
M  V30 3635 C 342.056 -4.82304 3.34065 0
M  V30 3636 C 344.408 -5.01384 3.85741 0
M  V30 3637 C 343.072 -5.16175 4.23225 0
M  V30 3638 H 342.342 -0.73367 0.103968 0
M  V30 3639 H 344.989 -1.66683 0.942825 0
M  V30 3640 H 343.294 -3.89674 -0.407625 0
M  V30 3641 H 344.991 -4.00986 -0.0329927 0
M  V30 3642 H 341.581 -4.05087 1.40008 0
M  V30 3643 H 345.765 -4.38653 2.32157 0
M  V30 3644 H 341.021 -4.91941 3.63049 0
M  V30 3645 H 345.195 -5.26863 4.55399 0
M  V30 3646 H 342.822 -5.5323 5.21384 0
M  V30 3647 N 344.397 -0.483516 -1.5 0
M  V30 3648 C 345.625 0.0644831 -2.06799 0
M  V30 3649 C 346.04 1.32399 -1.34596 0
M  V30 3650 O 345.397 1.77626 -0.418946 0
M  V30 3651 C 345.448 0.339927 -3.59898 0
M  V30 3652 O 345.169 -0.869635 -4.29382 0
M  V30 3653 C 346.67 0.933515 -4.33359 0
M  V30 3654 H 343.89 -0.0126333 -0.670881 0
M  V30 3655 H 346.434 -0.675864 -1.93009 0
M  V30 3656 H 344.589 1.03022 -3.7345 0
M  V30 3657 H 345.003 -0.62179 -5.20801 0
M  V30 3658 H 346.477 1.07593 -5.41413 0
M  V30 3659 H 346.954 1.92685 -3.94676 0
M  V30 3660 H 347.56 0.281221 -4.24369 0
M  V30 3661 N 345.875 1.56104 -0.216619 0
M  V30 3662 C 346.805 2.23063 0.690296 0
M  V30 3663 C 347.786 1.20072 1.20485 0
M  V30 3664 O 348.971 1.48643 1.24976 0
M  V30 3665 C 346.101 2.90672 1.90072 0
M  V30 3666 C 345.055 4.00092 1.5202 0
M  V30 3667 C 344.381 4.54972 2.80899 0
M  V30 3668 C 345.681 5.17398 0.71391 0
M  V30 3669 H 347.375 2.99109 0.132038 0
M  V30 3670 H 344.921 1.43866 0.0620664 0
M  V30 3671 H 346.874 3.36204 2.54057 0
M  V30 3672 H 345.598 2.12066 2.48386 0
M  V30 3673 H 344.257 3.55283 0.903839 0
M  V30 3674 H 343.905 3.73102 3.37348 0
M  V30 3675 H 343.605 5.28817 2.56176 0
M  V30 3676 H 345.129 5.0322 3.45836 0
M  V30 3677 H 346.543 5.59342 1.25735 0
M  V30 3678 H 344.94 5.97444 0.563951 0
M  V30 3679 H 346.01 4.84088 -0.280527 0
M  V30 3680 N 347.353 -0.0568162 1.57498 0
M  V30 3681 C 348.263 -1.08346 2.08083 0
M  V30 3682 C 349.279 -1.41439 1.01346 0
M  V30 3683 O 350.455 -1.51316 1.32912 0
M  V30 3684 C 347.52 -2.37352 2.52715 0
M  V30 3685 C 346.581 -2.11093 3.73816 0
M  V30 3686 C 345.814 -3.33949 4.1631 0
M  V30 3687 O 346.037 -4.43622 3.58547 0
M  V30 3688 O 344.971 -3.21279 5.08983 0
M  V30 3689 H 348.797 -0.683667 2.95905 0
M  V30 3690 H 346.382 -0.271965 1.46904 0
M  V30 3691 H 348.264 -3.13246 2.81877 0
M  V30 3692 H 346.939 -2.76681 1.68016 0
M  V30 3693 H 345.846 -1.32856 3.49714 0
M  V30 3694 H 347.179 -1.76637 4.59413 0
M  V30 3695 N 348.832 -1.54138 -0.328536 0
M  V30 3696 C 350.062 -1.75807 -1.08516 0
M  V30 3697 C 350.47 -0.50428 -1.82356 0
M  V30 3698 O 349.813 0.534451 -1.75754 0
M  V30 3699 C 349.875 -2.89423 -2.13248 0
M  V30 3700 C 349.539 -4.28504 -1.5885 0
M  V30 3701 C 350.536 -5.09536 -1.03289 0
M  V30 3702 C 348.221 -4.75034 -1.63243 0
M  V30 3703 C 350.215 -6.35206 -0.52845 0
M  V30 3704 C 347.902 -6.00672 -1.12411 0
M  V30 3705 C 348.9 -6.80592 -0.573062 0
M  V30 3706 O 348.588 -8.03867 -0.0723692 0
M  V30 3707 H 348.32 -0.590633 -0.328829 0
M  V30 3708 H 350.874 -2.01819 -0.381868 0
M  V30 3709 H 349.104 -2.5897 -2.87178 0
M  V30 3710 H 350.793 -2.98921 -2.74592 0
M  V30 3711 H 351.559 -4.74745 -0.99206 0
M  V30 3712 H 347.438 -4.12875 -2.05074 0
M  V30 3713 H 350.982 -6.97532 -0.0976774 0
M  V30 3714 H 346.879 -6.34955 -1.162 0
M  V30 3715 H 347.647 -8.18283 -0.188258 0
M  V30 3716 N 350.31 0.590341 -1.46126 0
M  V30 3717 C 351.24 1.71032 -1.58966 0
M  V30 3718 C 352.221 1.64302 -0.440335 0
M  V30 3719 O 353.406 1.82436 -0.665634 0
M  V30 3720 C 350.536 3.09665 -1.57241 0
M  V30 3721 C 349.49 3.31221 -2.71066 0
M  V30 3722 C 348.816 4.70303 -2.54399 0
M  V30 3723 C 350.116 3.19796 -4.1295 0
M  V30 3724 H 351.81 1.60543 -2.52718 0
M  V30 3725 H 349.356 0.770933 -1.21625 0
M  V30 3726 H 351.309 3.87831 -1.64819 0
M  V30 3727 H 350.033 3.21036 -0.600289 0
M  V30 3728 H 348.692 2.55452 -2.62944 0
M  V30 3729 H 348.34 4.78429 -1.55288 0
M  V30 3730 H 348.04 4.85679 -3.30741 0
M  V30 3731 H 349.564 5.50647 -2.63857 0
M  V30 3732 H 350.978 3.87815 -4.22223 0
M  V30 3733 H 349.375 3.46696 -4.89818 0
M  V30 3734 H 350.445 2.16983 -4.33643 0
M  V30 3735 N 351.788 1.33704 0.83433 0
M  V30 3736 C 352.718 1.26967 1.95963 0
M  V30 3737 C 353.699 0.149337 1.69443 0
M  V30 3738 O 354.884 0.339852 1.91203 0
M  V30 3739 C 352.014 1.01275 3.32206 0
M  V30 3740 C 350.968 2.09652 3.73136 0
M  V30 3741 C 350.294 1.69166 5.07235 0
M  V30 3742 C 351.594 3.51372 3.86439 0
M  V30 3743 H 353.288 2.2112 2.01857 0
M  V30 3744 H 350.834 1.06447 0.969793 0
M  V30 3745 H 352.787 0.952106 4.10503 0
M  V30 3746 H 351.511 0.0356203 3.26581 0
M  V30 3747 H 350.17 2.14766 2.97104 0
M  V30 3748 H 349.818 0.701437 4.98085 0
M  V30 3749 H 349.518 2.41694 5.35591 0
M  V30 3750 H 351.042 1.64576 5.88003 0
M  V30 3751 H 352.456 3.48734 4.55036 0
M  V30 3752 H 350.853 4.22425 4.26236 0
M  V30 3753 H 351.923 3.89546 2.88759 0
M  V30 3754 N 353.266 -1.05314 1.17247 0
M  V30 3755 C 354.682 -1.30452 0.919473 0
M  V30 3756 C 354.882 -1.9703 -0.42209 0
M  V30 3757 O 353.938 -2.24311 -1.15935 0
M  V30 3758 C 355.251 -2.17551 2.07586 0
M  V30 3759 C 356.799 -2.30937 2.11275 0
M  V30 3760 C 357.274 -3.21396 3.26296 0
M  V30 3761 N 358.765 -3.28981 3.26076 0
M  V30 3762 C 359.5 -3.99095 4.11716 0
M  V30 3763 N 358.996 -4.71648 5.07465 0
M  V30 3764 N 360.789 -3.95247 3.9967 0
M  V30 3765 H 352.94 -0.604988 2.03602 0
M  V30 3766 H 355.203 -0.329368 0.888944 0
M  V30 3767 H 354.909 -1.75921 3.0454 0
M  V30 3768 H 354.783 -3.18182 2.02584 0
M  V30 3769 H 357.17 -2.71809 1.14907 0
M  V30 3770 H 357.251 -1.2994 2.20339 0
M  V30 3771 H 356.895 -2.81238 4.22927 0
M  V30 3772 H 356.825 -4.22395 3.14467 0
M  V30 3773 H 359.316 -2.77286 2.5675 0
M  V30 3774 H 359.629 -5.22705 5.6921 0
M  V30 3775 H 357.974 -4.70594 5.11435 0
M  V30 3776 H 361.165 -3.37691 3.24164 0
M  V30 3777 H 361.338 -4.4962 4.66632 0
M  V30 3778 N 354.744 -0.972509 -1.24016 0
M  V30 3779 C 355.674 -0.525548 -2.27509 0
M  V30 3780 C 356.655 0.437262 -1.64384 0
M  V30 3781 O 357.84 0.332343 -1.91335 0
M  V30 3782 C 354.97 0.180448 -3.46831 0
M  V30 3783 C 353.924 -0.698859 -4.22256 0
M  V30 3784 C 353.25 0.138903 -5.3452 0
M  V30 3785 C 354.55 -1.98582 -4.83076 0
M  V30 3786 H 356.244 -1.39058 -2.65148 0
M  V30 3787 H 353.79 -0.67009 -1.27459 0
M  V30 3788 H 355.743 0.504387 -4.18371 0
M  V30 3789 H 354.467 1.07987 -3.08231 0
M  V30 3790 H 353.126 -1.00614 -3.52523 0
M  V30 3791 H 352.774 1.03862 -4.9216 0
M  V30 3792 H 352.474 -0.446259 -5.85903 0
M  V30 3793 H 353.998 0.457404 -6.08884 0
M  V30 3794 H 355.412 -1.72715 -5.46665 0
M  V30 3795 H 353.809 -2.5181 -5.44713 0
M  V30 3796 H 354.879 -2.67769 -4.04262 0
M  V30 3797 N 356.222 1.38976 -0.743202 0
M  V30 3798 C 357.469 2.00343 -0.294752 0
M  V30 3799 C 357.797 1.58983 1.12047 0
M  V30 3800 O 357.052 0.813809 1.77977 0
M  V30 3801 C 357.351 3.55647 -0.353517 0
M  V30 3802 C 357.017 4.16685 -1.72292 0
M  V30 3803 C 355.679 4.3307 -2.09771 0
M  V30 3804 C 358.031 4.50464 -2.62168 0
M  V30 3805 C 355.359 4.80526 -3.36618 0
M  V30 3806 C 357.711 4.99332 -3.88395 0
M  V30 3807 C 356.375 5.13924 -4.25956 0
M  V30 3808 H 355.645 0.733108 -0.107857 0
M  V30 3809 H 358.292 1.6618 -0.951651 0
M  V30 3810 H 356.597 3.89884 0.386954 0
M  V30 3811 H 358.294 4.00998 0.0117269 0
M  V30 3812 H 354.884 4.04339 -1.42155 0
M  V30 3813 H 359.068 4.37416 -2.3448 0
M  V30 3814 H 354.324 4.90008 -3.65653 0
M  V30 3815 H 358.498 5.2444 -4.58187 0
M  V30 3816 H 356.125 5.50457 -5.2431 0
M  V30 3817 N 357.7 0.491464 1.49741 0
M  V30 3818 C 358.925 -0.0557177 2.07325 0
M  V30 3819 C 359.35 -1.30925 1.35056 0
M  V30 3820 O 358.708 -1.76733 0.404365 0
M  V30 3821 C 358.756 -0.302074 3.59333 0
M  V30 3822 O 357.86 -1.37868 3.88672 0
M  V30 3823 H 357.201 0.0219956 0.663636 0
M  V30 3824 H 359.731 0.688352 1.92673 0
M  V30 3825 H 359.741 -0.536464 4.04458 0
M  V30 3826 H 358.416 0.61383 4.11345 0
M  V30 3827 H 356.993 -1.12999 3.55367 0
M  V30 3828 N 359.178 -1.55987 0.224894 0
M  V30 3829 C 360.403 -2.03232 -0.41369 0
M  V30 3830 C 360.828 -1.10359 -1.52323 0
M  V30 3831 O 360.186 -0.092395 -1.81064 0
M  V30 3832 C 360.234 -3.48682 -0.919405 0
M  V30 3833 O 359.338 -3.58947 -2.03054 0
M  V30 3834 H 358.679 -0.657428 -0.0931903 0
M  V30 3835 H 361.209 -2.01679 0.34451 0
M  V30 3836 H 361.219 -3.8907 -1.22835 0
M  V30 3837 H 359.894 -4.15761 -0.107339 0
M  V30 3838 H 358.471 -3.30448 -1.72796 0
M  V30 3839 N 360.656 0.0484629 -1.57525 0
M  V30 3840 C 362.067 0.597486 -1.76881 0
M  V30 3841 C 362.418 1.76664 -0.853475 0
M  V30 3842 O 361.543 2.16357 -0.0433656 0
M  V30 3843 C 362.138 1.09066 -3.20765 0
M  V30 3844 C 360.697 1.58535 -3.41385 0
M  V30 3845 C 359.844 0.514868 -2.72478 0
M  V30 3846 H 362.795 -0.177758 -1.57701 0
M  V30 3847 H 362.816 1.95875 -3.2621 0
M  V30 3848 H 362.328 0.239521 -3.8736 0
M  V30 3849 H 360.429 2.45898 -2.79937 0
M  V30 3850 H 360.542 1.64622 -4.49929 0
M  V30 3851 H 358.906 0.965407 -2.35695 0
M  V30 3852 H 359.689 -0.32648 -3.41744 0
M  V30 3853 N 362.134 1.5431 0.320358 0
M  V30 3854 C 363.082 1.84647 1.4145 0
M  V30 3855 C 364.076 0.718624 1.53402 0
M  V30 3856 O 365.282 0.902335 1.5575 0
M  V30 3857 H 361.657 0.585349 0.472091 0
M  V30 3858 H 363.628 2.7614 1.13089 0
M  V30 3859 C 362.377 2.09341 2.77617 0
M  V30 3860 H 361.7 2.9559 2.69196 0
M  V30 3861 H 363.14 2.3452 3.53237 0
M  V30 3862 C 361.599 0.885939 3.25043 0
M  V30 3863 O 362.129 0.0967891 4.01583 0
M  V30 3864 N 360.335 0.696682 2.82125 0
M  V30 3865 H 359.882 1.34006 2.2 0
M  V30 3866 H 359.84 -0.109712 3.14209 0
M  V30 3867 N 363.613 -0.582584 1.46437 0
M  V30 3868 C 364.56 -1.69164 1.5701 0
M  V30 3869 C 365.53 -1.60847 0.414403 0
M  V30 3870 O 366.715 -1.80058 0.631171 0
M  V30 3871 C 363.855 -3.075 1.56646 0
M  V30 3872 C 362.968 -3.2644 2.82951 0
M  V30 3873 C 362.103 -4.55026 2.7409 0
M  V30 3874 C 361.142 -4.6731 3.95333 0
M  V30 3875 N 360.279 -5.87221 3.84858 0
M  V30 3876 H 365.119 -1.59464 2.51744 0
M  V30 3877 H 362.656 -0.777186 1.24893 0
M  V30 3878 H 364.614 -3.8757 1.5442 0
M  V30 3879 H 363.244 -3.16096 0.654439 0
M  V30 3880 H 362.296 -2.39974 2.95155 0
M  V30 3881 H 363.608 -3.31385 3.72808 0
M  V30 3882 H 362.762 -5.43324 2.6997 0
M  V30 3883 H 361.501 -4.52519 1.81873 0
M  V30 3884 H 360.506 -3.77429 3.99784 0
M  V30 3885 H 361.731 -4.71595 4.88646 0
M  V30 3886 H 359.677 -5.85712 2.95427 0
M  V30 3887 H 359.594 -5.93435 4.6837 0
M  V30 3888 H 360.862 -6.7795 3.84713 0
M  V30 3889 N 365.091 -1.34144 -0.827227 0
M  V30 3890 C 366.021 -1.28005 -1.95287 0
M  V30 3891 C 367.002 -0.158321 -1.69362 0
M  V30 3892 O 368.187 -0.349987 -1.9102 0
M  V30 3893 C 365.317 -1.03036 -3.31664 0
M  V30 3894 C 364.271 -2.11628 -3.72019 0
M  V30 3895 C 363.597 -1.71854 -5.0633 0
M  V30 3896 C 364.897 -3.53417 -3.8457 0
M  V30 3897 H 366.591 -2.22187 -2.00682 0
M  V30 3898 H 364.137 -1.0696 -0.964135 0
M  V30 3899 H 366.09 -0.973863 -4.09993 0
M  V30 3900 H 364.814 -0.0529391 -3.26557 0
M  V30 3901 H 363.473 -2.16339 -2.95961 0
M  V30 3902 H 363.121 -0.727841 -4.97706 0
M  V30 3903 H 362.821 -2.44531 -5.34302 0
M  V30 3904 H 364.345 -1.67692 -5.87122 0
M  V30 3905 H 365.759 -3.51142 -4.5318 0
M  V30 3906 H 364.156 -4.24679 -4.2399 0
M  V30 3907 H 365.226 -3.91072 -2.86689 0
M  V30 3908 N 366.569 1.04691 -1.17803 0
M  V30 3909 C 367.519 2.10856 -0.867391 0
M  V30 3910 C 368.503 1.601 0.160206 0
M  V30 3911 O 369.695 1.76948 -0.042947 0
M  V30 3912 C 366.824 3.411 -0.388012 0
M  V30 3913 C 365.91 3.9864 -1.44732 0
M  V30 3914 N 366.301 4.30075 -2.66212 0
M  V30 3915 C 364.599 4.26439 -1.30637 0
M  V30 3916 C 365.3 4.76033 -3.34317 0
M  V30 3917 N 364.276 4.76462 -2.61696 0
M  V30 3918 H 368.078 2.33029 -1.79094 0
M  V30 3919 H 365.592 1.22386 -1.0675 0
M  V30 3920 H 367.589 4.16641 -0.146994 0
M  V30 3921 H 366.249 3.20357 0.529271 0
M  V30 3922 H 367.26 4.19917 -3.03134 0
M  V30 3923 H 363.937 4.15056 -0.451129 0
M  V30 3924 H 365.327 5.09427 -4.38103 0
M  V30 3925 N 368.047 0.979072 1.23499 0
M  V30 3926 C 369.294 0.647219 1.91878 0
M  V30 3927 C 369.622 -0.819074 1.76413 0
M  V30 3928 O 368.877 -1.60616 1.11808 0
M  V30 3929 C 369.176 0.981932 3.43646 0
M  V30 3930 C 368.842 2.43822 3.79291 0
M  V30 3931 C 367.504 2.83622 3.88731 0
M  V30 3932 C 369.856 3.3828 3.96505 0
M  V30 3933 C 367.184 4.16897 4.12812 0
M  V30 3934 C 369.536 4.71197 4.22085 0
M  V30 3935 C 368.2 5.10758 4.29747 0
M  V30 3936 H 367.47 0.236834 0.702133 0
M  V30 3937 H 370.117 1.23268 1.46551 0
M  V30 3938 H 368.422 0.314365 3.90537 0
M  V30 3939 H 370.119 0.703395 3.94783 0
M  V30 3940 H 366.709 2.11966 3.72516 0
M  V30 3941 H 370.893 3.0871 3.88603 0
M  V30 3942 H 366.149 4.47157 4.16966 0
M  V30 3943 H 370.323 5.44348 4.34348 0
M  V30 3944 H 367.95 6.1405 4.48159 0
M  V30 3945 N 369.525 -1.3858 0.750561 0
M  V30 3946 C 370.488 -2.28836 0.129152 0
M  V30 3947 C 371.488 -1.47045 -0.650714 0
M  V30 3948 O 372.678 -1.6753 -0.477428 0
M  V30 3949 C 369.81 -3.30751 -0.825622 0
M  V30 3950 H 371.003 -2.85294 0.924516 0
M  V30 3951 H 368.556 -1.47489 0.517376 0
M  V30 3952 H 369.291 -2.79378 -1.64677 0
M  V30 3953 H 369.076 -3.91177 -0.268852 0
M  V30 3954 H 370.566 -3.98249 -1.2565 0
M  V30 3955 N 371.003 -0.499398 -1.49478 0
M  V30 3956 C 371.933 0.269244 -2.31943 0
M  V30 3957 C 372.914 0.964054 -1.40143 0
M  V30 3958 O 374.099 0.955767 -1.69052 0
M  V30 3959 C 371.229 1.33504 -3.20615 0
M  V30 3960 C 370.183 0.760202 -4.21195 0
M  V30 3961 C 369.509 1.9264 -4.98792 0
M  V30 3962 C 370.809 -0.247661 -5.21712 0
M  V30 3963 H 372.503 -0.419082 -2.96452 0
M  V30 3964 H 370.049 -0.202988 -1.42562 0
M  V30 3965 H 372.002 1.88048 -3.77115 0
M  V30 3966 H 370.726 2.05253 -2.54045 0
M  V30 3967 H 369.385 0.23653 -3.65836 0
M  V30 3968 H 369.033 2.63154 -4.28671 0
M  V30 3969 H 368.733 1.54785 -5.66847 0
M  V30 3970 H 370.257 2.4762 -5.58137 0
M  V30 3971 H 371.671 0.209579 -5.72917 0
M  V30 3972 H 370.068 -0.541962 -5.97648 0
M  V30 3973 H 371.138 -1.16409 -4.7072 0
M  V30 3974 N 372.481 1.55866 -0.233164 0
M  V30 3975 C 373.706 2.03449 0.402906 0
M  V30 3976 C 374.131 1.11166 1.51736 0
M  V30 3977 O 373.489 0.101996 1.81013 0
M  V30 3978 C 373.537 3.49165 0.9009 0
M  V30 3979 O 372.641 3.60019 2.01147 0
M  V30 3980 H 371.982 0.657913 0.0897025 0
M  V30 3981 H 374.512 2.01493 -0.355201 0
M  V30 3982 H 374.522 3.89716 1.2077 0
M  V30 3983 H 373.197 4.15813 0.0852889 0
M  V30 3984 H 371.774 3.3136 1.71042 0
M  V30 3985 N 373.959 -0.0401083 1.57549 0
M  V30 3986 C 375.206 -0.733125 1.88763 0
M  V30 3987 C 375.534 -1.75946 0.829058 0
M  V30 3988 O 374.789 -1.94949 -0.171323 0
M  V30 3989 C 375.088 -1.44902 3.26708 0
M  V30 3990 C 374.754 -0.559707 4.47413 0
M  V30 3991 C 373.416 -0.314731 4.8017 0
M  V30 3992 C 375.768 0.0549743 5.21171 0
M  V30 3993 C 373.096 0.553886 5.8408 0
M  V30 3994 C 375.448 0.911229 6.26003 0
M  V30 3995 C 374.112 1.16577 6.57241 0
M  V30 3996 H 373.382 -0.268269 0.690733 0
M  V30 3997 H 376.029 0.00679408 1.91499 0
M  V30 3998 H 374.334 -2.26197 3.1991 0
M  V30 3999 H 376.031 -1.99058 3.48105 0
M  V30 4000 H 372.621 -0.760793 4.21794 0
M  V30 4001 H 376.805 -0.121344 4.96152 0
M  V30 4002 H 372.061 0.759518 6.06664 0
M  V30 4003 H 376.235 1.3941 6.82303 0
M  V30 4004 H 373.862 1.84058 7.37582 0
M  V30 4005 N 375.437 -1.54477 -0.31217 0
M  V30 4006 C 376.37 -1.79519 -1.40884 0
M  V30 4007 C 377.348 -0.645753 -1.49227 0
M  V30 4008 O 378.532 -0.884468 -1.66461 0
M  V30 4009 C 375.659 -1.92194 -2.78889 0
M  V30 4010 C 374.705 -3.14555 -2.88023 0
M  V30 4011 S 375.538 -4.72893 -2.51262 0
M  V30 4012 C 376.694 -4.8849 -3.91317 0
M  V30 4013 H 376.927 -2.72256 -1.19432 0
M  V30 4014 H 374.46 -1.45746 -0.509654 0
M  V30 4015 H 376.418 -2.00182 -3.58382 0
M  V30 4016 H 375.079 -1.00414 -2.97617 0
M  V30 4017 H 374.272 -3.20193 -3.89221 0
M  V30 4018 H 373.874 -3.04955 -2.16514 0
M  V30 4019 H 376.166 -4.71826 -4.86196 0
M  V30 4020 H 377.109 -5.90588 -3.90656 0
M  V30 4021 H 377.517 -4.16715 -3.80801 0
M  V30 4022 N 376.915 0.57481 -1.46744 0
M  V30 4023 C 377.863 1.70435 -1.58286 0
M  V30 4024 C 378.857 1.63287 -0.450956 0
M  V30 4025 O 380.063 1.68685 -0.628121 0
M  V30 4026 H 376.438 0.56364 -0.497809 0
M  V30 4027 H 378.409 1.57833 -2.53242 0
M  V30 4028 C 377.158 3.08815 -1.59776 0
M  V30 4029 H 376.481 3.1499 -2.46214 0
M  V30 4030 H 377.921 3.87588 -1.71905 0
M  V30 4031 C 376.38 3.35301 -0.327812 0
M  V30 4032 O 376.91 3.97511 0.57861 0
M  V30 4033 N 375.116 2.89816 -0.213274 0
M  V30 4034 H 374.663 2.39371 -0.951798 0
M  V30 4035 H 374.621 3.0791 0.63553 0
M  V30 4036 N 378.394 1.34581 0.820102 0
M  V30 4037 C 379.643 1.26437 1.57151 0
M  V30 4038 C 379.956 -0.163111 1.94919 0
M  V30 4039 O 381.162 -0.366722 2.69012 0
M  V30 4040 C 379.618 2.21658 2.83541 0
M  V30 4041 C 379.226 3.69679 2.53065 0
M  V30 4042 C 380.97 2.22428 3.61561 0
M  V30 4043 C 378.877 4.56761 3.75664 0
M  V30 4044 H 377.807 0.469707 0.589823 0
M  V30 4045 H 380.458 1.59763 0.902656 0
M  V30 4046 H 378.84 1.81287 3.52067 0
M  V30 4047 H 380.014 4.18605 1.92631 0
M  V30 4048 H 378.329 3.71384 1.88316 0
M  V30 4049 H 380.926 2.8471 4.52597 0
M  V30 4050 H 381.269 1.22434 3.97889 0
M  V30 4051 H 381.802 2.61259 2.99981 0
M  V30 4052 H 378.541 5.57702 3.44454 0
M  V30 4053 H 378.061 4.12568 4.35371 0
M  V30 4054 H 379.74 4.71509 4.43044 0
M  V30 4055 N 379.872 -1.04064 1.18357 0
M  V30 4056 C 381.118 -1.77528 0.980397 0
M  V30 4057 C 381.451 -1.87948 -0.48879 0
M  V30 4058 O 380.726 -1.3876 -1.36293 0
M  V30 4059 C 381.009 -3.20797 1.63588 0
M  V30 4060 C 380.862 -3.1832 3.17793 0
M  V30 4061 C 382.181 -4.18911 1.34914 0
M  V30 4062 H 379.3 -0.644443 0.357578 0
M  V30 4063 H 381.942 -1.2156 1.46024 0
M  V30 4064 H 380.092 -3.68586 1.22788 0
M  V30 4065 H 381.764 -2.78521 3.67728 0
M  V30 4066 H 380.007 -2.56351 3.49952 0
M  V30 4067 H 380.678 -4.19489 3.58794 0
M  V30 4068 H 383.154 -3.7967 1.70265 0
M  V30 4069 H 382.03 -5.17374 1.83346 0
M  V30 4070 H 382.291 -4.41262 0.272027 0
M  V30 4071 N 381.35 -0.985608 -1.22978 0
M  V30 4072 C 382.627 -0.573599 -1.87001 0
M  V30 4073 C 383.007 0.949213 -1.88555 0
M  V30 4074 O 382.355 1.82811 -1.37086 0
M  V30 4075 C 382.565 -1.18564 -3.28243 0
M  V30 4076 C 383.913 -1.28163 -4.04796 0
M  V30 4077 O 384.937 -1.13949 -3.37482 0
M  V30 4078 O 383.796 -1.50832 -5.25273 0
M  V30 4079 H 380.89 -0.193868 -0.803955 0
M  V30 4080 H 383.436 -1.08102 -1.30813 0
M  V30 4081 H 382.208 -2.22758 -3.21706 0
M  V30 4082 H 381.831 -0.663363 -3.92027 0
M  V30 4083 N 382.828 1.3818 -0.7579 0
M  V30 4084 C 384.074 2.00316 -0.316453 0
M  V30 4085 C 384.407 1.60026 1.10025 0
M  V30 4086 O 383.682 0.839835 1.75434 0
M  V30 4087 C 383.965 3.57349 -0.444245 0
M  V30 4088 C 383.818 4.07591 -1.90236 0
M  V30 4089 C 385.137 4.3981 0.1598 0
M  V30 4090 H 382.256 0.727741 -0.116459 0
M  V30 4091 H 384.898 1.6406 -0.958352 0
M  V30 4092 H 383.048 3.88365 0.102233 0
M  V30 4093 H 384.72 3.87199 -2.50748 0
M  V30 4094 H 382.963 3.60297 -2.41595 0
M  V30 4095 H 383.634 5.16677 -1.94291 0
M  V30 4096 H 386.11 4.14971 -0.306314 0
M  V30 4097 H 384.986 5.48885 0.0401675 0
M  V30 4098 H 385.247 4.24102 1.24859 0
M  V30 4099 N 384.306 0.507319 1.49211 0
M  V30 4100 C 385.236 -0.256939 2.32082 0
M  V30 4101 C 386.217 -0.956609 1.40652 0
M  V30 4102 O 387.402 -0.946788 1.69557 0
M  V30 4103 C 384.532 -1.31802 3.21318 0
M  V30 4104 C 383.486 -0.737855 4.21592 0
M  V30 4105 C 382.812 -1.89992 4.99807 0
M  V30 4106 C 384.112 0.275325 5.21574 0
M  V30 4107 H 385.806 0.434798 2.96226 0
M  V30 4108 H 383.352 0.210546 1.42452 0
M  V30 4109 H 385.305 -1.86045 3.78107 0
M  V30 4110 H 384.029 -2.03903 2.5513 0
M  V30 4111 H 382.688 -0.217126 3.65956 0
M  V30 4112 H 382.336 -2.60877 4.30061 0
M  V30 4113 H 382.036 -1.51777 5.6766 0
M  V30 4114 H 383.56 -2.44657 5.59442 0
M  V30 4115 H 384.974 -0.179193 5.7302 0
M  V30 4116 H 383.371 0.573649 5.97352 0
M  V30 4117 H 384.441 1.18903 4.70096 0
M  V30 4118 N 385.784 -1.5574 0.241426 0
M  V30 4119 C 386.747 -2.19877 -0.647063 0
M  V30 4120 C 387.747 -1.16642 -1.10686 0
M  V30 4121 O 388.937 -1.41757 -1.01245 0
M  V30 4122 C 386.069 -2.83797 -1.88871 0
M  V30 4123 H 387.262 -2.99772 -0.087574 0
M  V30 4124 H 384.815 -1.56298 -0.00813574 0
M  V30 4125 H 385.55 -2.07824 -2.48957 0
M  V30 4126 H 385.335 -3.59414 -1.56728 0
M  V30 4127 H 386.825 -3.32898 -2.52129 0
M  V30 4128 N 387.262 0.0317525 -1.57568 0
M  V30 4129 C 388.511 0.722131 -1.8833 0
M  V30 4130 C 388.824 1.76664 -0.839587 0
M  V30 4131 O 390.03 2.50942 -1.03635 0
M  V30 4132 C 388.486 1.33544 -3.34207 0
M  V30 4133 C 388.094 0.327415 -4.46802 0
M  V30 4134 C 389.838 2.00585 -3.7412 0
M  V30 4135 C 387.745 0.948915 -5.83738 0
M  V30 4136 H 386.675 0.273466 -0.702661 0
M  V30 4137 H 389.326 -0.0235811 -1.83485 0
M  V30 4138 H 387.708 2.13077 -3.33788 0
M  V30 4139 H 388.882 -0.441006 -4.58685 0
M  V30 4140 H 387.197 -0.240758 -4.15703 0
M  V30 4141 H 389.794 2.47932 -4.73744 0
M  V30 4142 H 390.137 2.82285 -3.05975 0
M  V30 4143 H 390.67 1.27831 -3.76702 0
M  V30 4144 H 387.409 0.171387 -6.55276 0
M  V30 4145 H 386.929 1.68724 -5.7558 0
M  V30 4146 H 388.608 1.45705 -6.3038 0
M  V30 4147 N 388.74 1.54641 0.303973 0
M  V30 4148 C 389.67 1.88386 1.3796 0
M  V30 4149 C 390.651 0.742485 1.5304 0
M  V30 4150 O 391.836 0.997959 1.66597 0
M  V30 4151 C 388.966 2.12854 2.74427 0
M  V30 4152 C 387.92 3.28702 2.74115 0
M  V30 4153 C 387.246 3.38582 4.13844 0
M  V30 4154 C 388.546 4.65881 2.3612 0
M  V30 4155 H 390.24 2.78474 1.09966 0
M  V30 4156 H 387.786 1.33988 0.527556 0
M  V30 4157 H 389.739 2.35047 3.49758 0
M  V30 4158 H 388.463 1.19535 3.03939 0
M  V30 4159 H 387.122 3.06428 2.0124 0
M  V30 4160 H 386.77 2.42784 4.40528 0
M  V30 4161 H 386.47 4.16453 4.14537 0
M  V30 4162 H 387.994 3.63031 4.90959 0
M  V30 4163 H 389.408 4.87823 3.01167 0
M  V30 4164 H 387.805 5.46444 2.48031 0
M  V30 4165 H 388.875 4.66799 1.3125 0
M  V30 4166 N 390.218 -0.567019 1.47046 0
M  V30 4167 C 391.629 -1.14916 1.47143 0
M  V30 4168 C 391.98 -1.94954 0.220767 0
M  V30 4169 O 391.105 -2.05602 -0.67505 0
M  V30 4170 C 391.7 -2.09069 2.666 0
M  V30 4171 C 390.259 -2.62575 2.69687 0
M  V30 4172 C 389.406 -1.38755 2.40088 0
M  V30 4173 H 392.357 -0.354126 1.54699 0
M  V30 4174 H 392.378 -2.92789 2.43011 0
M  V30 4175 H 391.89 -1.50789 3.57609 0
M  V30 4176 H 389.991 -3.24681 1.82792 0
M  V30 4177 H 390.104 -3.04239 3.70102 0
M  V30 4178 H 388.468 -1.69098 1.90468 0
M  V30 4179 H 389.251 -0.822822 3.33293 0
M  V30 4180 N 391.696 -1.35014 -0.812953 0
M  V30 4181 C 392.943 -1.27931 -1.56971 0
M  V30 4182 C 393.271 0.148034 -1.93936 0
M  V30 4183 O 392.526 1.11175 -1.61054 0
M  V30 4184 C 392.825 -2.12524 -2.87347 0
M  V30 4185 C 392.491 -3.61401 -2.6963 0
M  V30 4186 C 391.153 -4.01983 -2.64506 0
M  V30 4187 C 393.505 -4.55894 -2.52607 0
M  V30 4188 C 390.833 -5.35235 -2.40293 0
M  V30 4189 C 393.185 -5.89336 -2.29925 0
M  V30 4190 C 391.849 -6.2907 -2.23219 0
M  V30 4191 H 391.119 -0.468131 -0.574399 0
M  V30 4192 H 393.766 -1.66851 -0.939836 0
M  V30 4193 H 392.071 -1.66463 -3.54679 0
M  V30 4194 H 393.768 -2.04383 -3.45005 0
M  V30 4195 H 390.358 -3.29193 -2.74463 0
M  V30 4196 H 394.542 -4.25431 -2.55583 0
M  V30 4197 H 389.798 -5.65028 -2.33566 0
M  V30 4198 H 393.972 -6.62139 -2.15743 0
M  V30 4199 H 391.599 -7.32256 -2.04219 0
M  V30 4200 N 393.175 1.03435 -1.18907 0
M  V30 4201 C 394.405 1.8012 -1.01195 0
M  V30 4202 C 394.813 1.8395 0.442613 0
M  V30 4203 O 394.156 1.27836 1.31923 0
M  V30 4204 C 394.218 3.26792 -1.49823 0
M  V30 4205 C 393.882 3.46609 -2.97844 0
M  V30 4206 C 394.879 3.37278 -3.95651 0
M  V30 4207 C 392.564 3.73001 -3.36416 0
M  V30 4208 C 394.558 3.54054 -5.30023 0
M  V30 4209 C 392.245 3.89423 -4.70949 0
M  V30 4210 C 393.243 3.79951 -5.67562 0
M  V30 4211 O 392.931 3.95895 -6.99659 0
M  V30 4212 H 392.663 0.573865 -0.357289 0
M  V30 4213 H 395.217 1.31207 -1.58031 0
M  V30 4214 H 393.447 3.76703 -0.873578 0
M  V30 4215 H 395.136 3.85055 -1.28404 0
M  V30 4216 H 395.902 3.16846 -3.67197 0
M  V30 4217 H 391.781 3.79469 -2.61772 0
M  V30 4218 H 395.325 3.46577 -6.05417 0
M  V30 4219 H 391.222 4.09351 -4.99101 0
M  V30 4220 H 391.99 4.13019 -7.06653 0
M  V30 4221 N 394.653 0.992116 1.22453 0
M  V30 4222 C 395.899 0.668523 1.91464 0
M  V30 4223 C 396.232 -0.797313 1.77078 0
M  V30 4224 O 395.507 -1.5765 1.13916 0
M  V30 4225 C 395.79 1.07424 3.43703 0
M  V30 4226 C 395.643 2.59857 3.67143 0
M  V30 4227 C 396.962 0.626891 4.35612 0
M  V30 4228 H 394.081 0.244341 0.695318 0
M  V30 4229 H 396.723 1.2355 1.44345 0
M  V30 4230 H 394.873 0.591816 3.83966 0
M  V30 4231 H 396.545 3.15764 3.3629 0
M  V30 4232 H 394.788 3.01961 3.11451 0
M  V30 4233 H 395.459 2.83296 4.73759 0
M  V30 4234 H 397.935 1.04125 4.02861 0
M  V30 4235 H 396.811 0.939076 5.40807 0
M  V30 4236 H 397.072 -0.472457 4.39568 0
M  V30 4237 N 396.131 -1.37776 0.765217 0
M  V30 4238 C 397.356 -2.04651 0.336537 0
M  V30 4239 C 397.781 -1.57337 -1.03086 0
M  V30 4240 O 397.139 -0.730621 -1.65927 0
M  V30 4241 C 397.187 -3.58577 0.381468 0
M  V30 4242 O 396.291 -4.07706 -0.62042 0
M  V30 4243 H 395.632 -0.64756 0.146838 0
M  V30 4244 H 398.162 -1.76221 1.03959 0
M  V30 4245 H 398.172 -4.07314 0.236448 0
M  V30 4246 H 396.847 -3.9237 1.37907 0
M  V30 4247 H 395.424 -3.70306 -0.439056 0
M  V30 4248 N 397.609 -0.515225 -1.4894 0
M  V30 4249 C 398.539 0.244628 -2.32215 0
M  V30 4250 C 399.52 0.949136 -1.41157 0
M  V30 4251 O 400.705 0.937783 -1.70057 0
M  V30 4252 C 397.835 1.30096 -3.22013 0
M  V30 4253 C 396.789 0.715486 -4.21977 0
M  V30 4254 C 396.115 1.87339 -5.00808 0
M  V30 4255 C 397.415 -0.302982 -5.2142 0
M  V30 4256 H 399.109 -0.450501 -2.95991 0
M  V30 4257 H 396.655 -0.218098 -1.42339 0
M  V30 4258 H 398.608 1.84037 -3.79089 0
M  V30 4259 H 397.332 2.02547 -2.56207 0
M  V30 4260 H 395.991 0.197715 -3.66066 0
M  V30 4261 H 395.639 2.58592 -4.31438 0
M  V30 4262 H 395.339 1.48764 -5.68457 0
M  V30 4263 H 396.863 2.41686 -5.60732 0
M  V30 4264 H 398.277 0.148802 -5.73107 0
M  V30 4265 H 396.674 -0.60532 -5.97039 0
M  V30 4266 H 397.744 -1.21395 -4.69459 0
M  V30 4267 N 399.087 1.5561 -0.249682 0
M  V30 4268 C 400.315 2.03411 0.378352 0
M  V30 4269 C 400.73 1.12886 1.51335 0
M  V30 4270 O 400.087 0.143833 1.81932 0
M  V30 4271 C 400.138 3.50537 0.88351 0
M  V30 4272 O 399.859 4.37614 -0.20626 0
M  V30 4273 C 401.36 4.14113 1.58195 0
M  V30 4274 H 398.58 0.664994 0.08958 0
M  V30 4275 H 401.124 2.01044 -0.374357 0
M  V30 4276 H 399.279 3.5343 1.58639 0
M  V30 4277 H 399.693 5.24199 0.177782 0
M  V30 4278 H 401.167 5.18741 1.8871 0
M  V30 4279 H 401.644 3.60767 2.50487 0
M  V30 4280 H 402.25 4.15151 0.923573 0
M  V30 4281 N 400.565 -0.0233959 1.57583 0
M  V30 4282 C 401.495 -1.02162 2.09965 0
M  V30 4283 C 402.476 -1.3735 1.00344 0
M  V30 4284 O 403.661 -1.46135 1.27899 0
M  V30 4285 C 400.791 -2.32081 2.58371 0
M  V30 4286 C 399.745 -2.1112 3.72307 0
M  V30 4287 C 399.071 -3.46848 4.06941 0
M  V30 4288 C 400.371 -1.49276 5.00514 0
M  V30 4289 H 402.065 -0.585557 2.93618 0
M  V30 4290 H 399.611 -0.280218 1.41247 0
M  V30 4291 H 401.564 -3.02249 2.93639 0
M  V30 4292 H 400.288 -2.77758 1.71808 0
M  V30 4293 H 398.947 -1.43384 3.37397 0
M  V30 4294 H 398.595 -3.90184 3.17436 0
M  V30 4295 H 398.295 -3.33646 4.83688 0
M  V30 4296 H 399.819 -4.18369 4.44747 0
M  V30 4297 H 401.233 -2.09368 5.33702 0
M  V30 4298 H 399.63 -1.46632 5.8191 0
M  V30 4299 H 400.7 -0.459217 4.82721 0
M  V30 4300 N 402.043 -1.548 -0.295768 0
M  V30 4301 C 403.271 -1.78327 -1.04914 0
M  V30 4302 C 403.686 -0.545316 -1.80753 0
M  V30 4303 O 403.043 0.485013 -1.75937 0
M  V30 4304 C 403.094 -2.99418 -2.02561 0
M  V30 4305 O 402.815 -4.18431 -1.29798 0
M  V30 4306 C 404.316 -3.35375 -2.89895 0
M  V30 4307 H 401.536 -0.594618 -0.310918 0
M  V30 4308 H 404.08 -2.01763 -0.333454 0
M  V30 4309 H 402.235 -2.78175 -2.69624 0
M  V30 4310 H 402.649 -4.86736 -1.95419 0
M  V30 4311 H 404.123 -4.23332 -3.54251 0
M  V30 4312 H 404.6 -2.53761 -3.58472 0
M  V30 4313 H 405.206 -3.58796 -2.28355 0
M  V30 4314 N 403.521 0.559213 -1.47345 0
M  V30 4315 C 404.471 1.66192 -1.5609 0
M  V30 4316 C 405.455 1.55323 -0.419957 0
M  V30 4317 O 406.647 1.63839 -0.669762 0
M  V30 4318 C 403.776 3.0497 -1.57634 0
M  V30 4319 C 402.862 3.2105 -2.77106 0
M  V30 4320 N 403.253 3.07203 -4.01821 0
M  V30 4321 C 401.551 3.52046 -2.73825 0
M  V30 4322 C 402.252 3.25919 -4.81821 0
M  V30 4323 N 401.228 3.52161 -4.14106 0
M  V30 4324 H 405.03 1.54052 -2.5029 0
M  V30 4325 H 402.544 0.763914 -1.43311 0
M  V30 4326 H 404.541 3.84142 -1.61989 0
M  V30 4327 H 403.201 3.18224 -0.645281 0
M  V30 4328 H 404.212 2.84572 -4.32711 0
M  V30 4329 H 400.889 3.71839 -1.89848 0
M  V30 4330 H 402.279 3.20198 -5.90697 0
M  V30 4331 N 404.999 1.35443 0.805782 0
M  V30 4332 C 405.929 1.31095 1.93226 0
M  V30 4333 C 406.91 0.185244 1.69088 0
M  V30 4334 O 408.095 0.380332 1.90439 0
M  V30 4335 C 405.225 1.08299 3.29983 0
M  V30 4336 C 404.179 2.17519 3.68605 0
M  V30 4337 C 403.505 1.79887 5.03532 0
M  V30 4338 C 404.805 3.5949 3.78898 0
M  V30 4339 H 406.499 2.25352 1.97122 0
M  V30 4340 H 404.045 1.0848 0.946996 0
M  V30 4341 H 405.998 1.03897 4.08391 0
M  V30 4342 H 404.722 0.104885 3.26432 0
M  V30 4343 H 403.381 2.2102 2.92482 0
M  V30 4344 H 403.029 0.80693 4.96485 0
M  V30 4345 H 402.729 2.53001 5.30344 0
M  V30 4346 H 404.253 1.77011 5.84379 0
M  V30 4347 H 405.667 3.58307 4.47536 0
M  V30 4348 H 404.064 4.31371 4.1718 0
M  V30 4349 H 405.134 3.95584 2.80431 0
M  V30 4350 N 406.477 -1.02803 1.19454 0
M  V30 4351 C 407.725 -1.75869 0.995722 0
M  V30 4352 C 408.046 -1.89138 -0.474543 0
M  V30 4353 O 407.316 -1.42558 -1.34366 0
M  V30 4354 H 405.896 -0.651511 0.365435 0
M  V30 4355 H 408.558 -1.24004 1.50363 0
M  V30 4356 H 407.654 -2.76661 1.44447 0
M  V30 4357 N 407.956 -0.998596 -1.21925 0
M  V30 4358 C 408.919 -0.558679 -2.22287 0
M  V30 4359 C 409.919 0.361525 -1.56683 0
M  V30 4360 O 411.109 0.152695 -1.73529 0
M  V30 4361 C 408.241 0.18661 -3.40389 0
M  V30 4362 H 409.434 -1.4463 -2.62721 0
M  V30 4363 H 406.987 -0.786413 -1.35075 0
M  V30 4364 H 407.722 1.08996 -3.05435 0
M  V30 4365 H 407.507 -0.474188 -3.89222 0
M  V30 4366 H 408.997 0.482367 -4.14805 0
M  V30 4367 N 409.434 1.37368 -0.772513 0
M  V30 4368 C 410.85 1.53059 -0.452231 0
M  V30 4369 C 411.05 1.73065 1.03203 0
M  V30 4370 O 410.106 1.75245 1.81784 0
M  V30 4371 C 411.419 2.72659 -1.26797 0
M  V30 4372 C 412.967 2.86521 -1.25995 0
M  V30 4373 C 413.442 4.09105 -2.05905 0
M  V30 4374 N 414.933 4.16219 -2.03263 0
M  V30 4375 C 415.668 5.10107 -2.61875 0
M  V30 4376 N 415.164 6.09547 -3.29278 0
M  V30 4377 N 416.957 5.02596 -2.51701 0
M  V30 4378 H 409.108 1.22634 -1.7342 0
M  V30 4379 H 411.371 0.597206 -0.736239 0
M  V30 4380 H 411.077 2.64343 -2.31982 0
M  V30 4381 H 410.951 3.66363 -0.897672 0
M  V30 4382 H 413.338 2.94308 -0.216081 0
M  V30 4383 H 413.419 1.93774 -1.66989 0
M  V30 4384 H 413.063 4.0208 -3.10313 0
M  V30 4385 H 412.993 5.00968 -1.62292 0
M  V30 4386 H 415.484 3.45012 -1.54192 0
M  V30 4387 H 415.797 6.77718 -3.71374 0
M  V30 4388 H 414.142 6.09824 -3.33377 0
M  V30 4389 H 417.333 4.23855 -1.98657 0
M  V30 4390 H 417.506 5.75582 -2.97673 0
M  V30 4391 N 410.912 0.523116 1.48665 0
M  V30 4392 C 411.845 -0.290518 2.26343 0
M  V30 4393 C 412.823 -0.950913 1.31895 0
M  V30 4394 O 414.007 -0.976662 1.61225 0
M  V30 4395 C 411.134 -1.41088 3.07915 0
M  V30 4396 C 410.18 -0.862597 4.17686 0
M  V30 4397 S 411.013 0.264135 5.34848 0
M  V30 4398 C 412.169 -0.858864 6.19979 0
M  V30 4399 H 412.402 0.368726 2.95005 0
M  V30 4400 H 409.935 0.30878 1.51281 0
M  V30 4401 H 411.893 -2.0527 3.55492 0
M  V30 4402 H 410.554 -2.04182 2.38681 0
M  V30 4403 H 409.747 -1.70287 4.74361 0
M  V30 4404 H 409.349 -0.297595 3.72814 0
M  V30 4405 H 411.641 -1.7591 6.54264 0
M  V30 4406 H 412.584 -0.330244 7.07329 0
M  V30 4407 H 412.992 -1.13617 5.52948 0
M  V30 4408 N 412.39 -1.55475 0.257931 0
M  V30 4409 C 413.323 -2.179 -0.677862 0
M  V30 4410 C 414.301 -1.13448 -1.16483 0
M  V30 4411 O 415.485 -1.41889 -1.24095 0
M  V30 4412 C 412.612 -2.78851 -1.92249 0
M  V30 4413 C 411.658 -3.96454 -1.57246 0
M  V30 4414 S 412.491 -5.31349 -0.665501 0
M  V30 4415 C 413.647 -5.9576 -1.91889 0
M  V30 4416 H 413.88 -2.96934 -0.147396 0
M  V30 4417 H 411.413 -1.54342 0.0423023 0
M  V30 4418 H 413.371 -3.14602 -2.63697 0
M  V30 4419 H 412.032 -1.99742 -2.42409 0
M  V30 4420 H 411.225 -4.37731 -2.49814 0
M  V30 4421 H 410.827 -3.62038 -0.938325 0
M  V30 4422 H 413.119 -6.13947 -2.86487 0
M  V30 4423 H 414.062 -6.9094 -1.54942 0
M  V30 4424 H 414.47 -5.2494 -2.076 0
M  V30 4425 N 413.868 0.0150385 -1.57593 0
M  V30 4426 C 414.778 1.02791 -2.10882 0
M  V30 4427 C 415.794 1.38702 -1.0506 0
M  V30 4428 O 416.97 1.47739 -1.36877 0
M  V30 4429 C 414.035 2.30568 -2.58919 0
M  V30 4430 C 413.096 2.01108 -3.79281 0
M  V30 4431 C 412.329 3.22794 -4.25018 0
M  V30 4432 O 412.552 4.33959 -3.70183 0
M  V30 4433 O 411.486 3.07672 -5.17322 0
M  V30 4434 H 415.312 0.604973 -2.97613 0
M  V30 4435 H 412.897 0.23292 -1.47573 0
M  V30 4436 H 414.779 3.05662 -2.90084 0
M  V30 4437 H 413.454 2.72129 -1.75293 0
M  V30 4438 H 412.361 1.23537 -3.53114 0
M  V30 4439 H 413.694 1.64394 -4.63935 0
M  V30 4440 N 415.346 1.54954 0.287554 0
M  V30 4441 C 416.276 1.89839 1.35954 0
M  V30 4442 C 417.257 0.758675 1.52244 0
M  V30 4443 O 418.442 1.01557 1.65529 0
M  V30 4444 C 415.572 2.15753 2.72154 0
M  V30 4445 C 414.526 3.3159 2.70614 0
M  V30 4446 C 413.852 3.42952 4.10229 0
M  V30 4447 C 415.152 4.68359 2.31165 0
M  V30 4448 H 416.846 2.79625 1.07007 0
M  V30 4449 H 414.392 1.3454 0.513316 0
M  V30 4450 H 416.345 2.38743 3.47246 0
M  V30 4451 H 415.069 1.22752 3.02654 0
M  V30 4452 H 413.728 3.08545 1.97979 0
M  V30 4453 H 413.376 2.47443 4.37928 0
M  V30 4454 H 413.076 4.20826 4.10097 0
M  V30 4455 H 414.6 3.68218 4.87081 0
M  V30 4456 H 416.014 4.9099 2.95976 0
M  V30 4457 H 414.411 5.49044 2.42221 0
M  V30 4458 H 415.481 4.68165 1.26291 0
M  V30 4459 N 416.824 -0.551391 1.4764 0
M  V30 4460 C 418.052 -1.33357 1.58189 0
M  V30 4461 C 418.467 -1.87342 0.234199 0
M  V30 4462 O 417.824 -1.65301 -0.77343 0
M  V30 4463 C 417.875 -2.49942 2.61173 0
M  V30 4464 O 417.596 -1.98187 3.90709 0
M  V30 4465 C 419.097 -3.42072 2.8196 0
M  V30 4466 H 416.317 -0.40631 0.533998 0
M  V30 4467 H 418.861 -0.667367 1.93304 0
M  V30 4468 H 417.016 -3.12489 2.28975 0
M  V30 4469 H 417.43 -2.74342 4.47031 0
M  V30 4470 H 418.904 -4.20278 3.57869 0
M  V30 4471 H 419.381 -3.95978 1.89995 0
M  V30 4472 H 419.987 -2.85336 3.15378 0
M  V30 4473 N 418.302 -1.35869 -0.798587 0
M  V30 4474 C 419.25 -1.29491 -1.93222 0
M  V30 4475 C 420.244 -0.18836 -1.6835 0
M  V30 4476 O 421.45 -0.354822 -1.76468 0
M  V30 4477 H 417.825 -0.402901 -0.63496 0
M  V30 4478 H 419.796 -2.25247 -1.9572 0
M  V30 4479 C 418.545 -1.09184 -3.30112 0
M  V30 4480 H 417.868 -1.93574 -3.49813 0
M  V30 4481 H 419.308 -1.08766 -4.09812 0
M  V30 4482 C 417.767 0.203959 -3.36282 0
M  V30 4483 O 418.297 1.19699 -3.83451 0
M  V30 4484 N 416.503 0.245488 -2.89561 0
M  V30 4485 H 416.05 -0.563223 -2.51367 0
M  V30 4486 H 416.008 1.11219 -2.94071 0
M  V30 4487 N 419.78 1.02168 -1.19998 0
M  V30 4488 C 421.026 1.75945 -1.00852 0
M  V30 4489 C 421.359 1.88702 0.458828 0
M  V30 4490 O 420.634 1.40911 1.34069 0
M  V30 4491 C 420.917 3.18154 -1.68671 0
M  V30 4492 C 420.77 3.13224 -3.22817 0
M  V30 4493 C 422.089 4.16711 -1.41561 0
M  V30 4494 H 419.208 0.638673 -0.367785 0
M  V30 4495 H 421.85 1.19222 -1.4794 0
M  V30 4496 H 420 3.66586 -1.28636 0
M  V30 4497 H 421.672 2.72635 -3.72112 0
M  V30 4498 H 419.915 2.50751 -3.53986 0
M  V30 4499 H 420.586 4.13728 -3.65422 0
M  V30 4500 H 423.062 3.76913 -1.76284 0
M  V30 4501 H 421.938 5.14391 -1.91553 0
M  V30 4502 H 422.199 4.40774 -0.342193 0
M  V30 4503 N 421.258 1.00505 1.21394 0
M  V30 4504 C 422.19 0.52372 2.23136 0
M  V30 4505 C 423.203 -0.387714 1.58116 0
M  V30 4506 O 424.392 -0.187905 1.77508 0
M  V30 4507 C 421.492 -0.258885 3.3791 0
M  V30 4508 C 420.665 0.651634 4.32519 0
M  V30 4509 C 419.724 -0.0813705 5.26137 0
M  V30 4510 O 418.75 0.537295 5.66658 0
M  V30 4511 N 419.952 -1.35992 5.64346 0
M  V30 4512 H 422.717 1.39865 2.65062 0
M  V30 4513 H 420.278 0.881196 1.35818 0
M  V30 4514 H 422.27 -0.758208 3.97534 0
M  V30 4515 H 420.84 -1.035 2.94968 0
M  V30 4516 H 420.06 1.33145 3.71034 0
M  V30 4517 H 421.348 1.27129 4.92662 0
M  V30 4518 H 420.746 -1.88368 5.33417 0
M  V30 4519 H 419.303 -1.8042 6.26332 0
M  V30 4520 N 422.737 -1.36956 0.779787 0
M  V30 4521 C 423.669 -2.28833 0.129639 0
M  V30 4522 C 424.682 -1.4902 -0.655511 0
M  V30 4523 O 425.871 -1.71578 -0.492279 0
M  V30 4524 C 422.971 -3.2833 -0.839792 0
M  V30 4525 C 422.144 -4.3727 -0.10675 0
M  V30 4526 C 421.203 -5.16789 -0.990717 0
M  V30 4527 O 420.229 -5.67406 -0.451516 0
M  V30 4528 N 421.431 -5.32294 -2.3161 0
M  V30 4529 H 424.196 -2.85268 0.918803 0
M  V30 4530 H 421.757 -1.49019 0.632841 0
M  V30 4531 H 423.749 -3.78413 -1.43477 0
M  V30 4532 H 422.319 -2.72605 -1.52988 0
M  V30 4533 H 421.539 -3.88478 0.669216 0
M  V30 4534 H 422.827 -5.07229 0.399464 0
M  V30 4535 H 422.225 -4.92768 -2.77843 0
M  V30 4536 H 420.782 -5.85656 -2.86095 0
M  V30 4537 N 424.215 -0.530993 -1.48385 0
M  V30 4538 C 425.178 0.220497 -2.28137 0
M  V30 4539 C 426.178 0.866851 -1.35434 0
M  V30 4540 O 427.368 0.726746 -1.58316 0
M  V30 4541 C 424.5 1.31921 -3.1434 0
M  V30 4542 H 425.693 -0.479714 -2.96038 0
M  V30 4543 H 423.246 -0.286968 -1.53643 0
M  V30 4544 H 423.981 2.05264 -2.51072 0
M  V30 4545 H 423.766 0.86085 -3.82533 0
M  V30 4546 H 425.256 1.84776 -3.74497 0
M  V30 4547 N 425.693 1.55336 -0.266172 0
M  V30 4548 C 426.939 1.99692 0.353681 0
M  V30 4549 C 427.272 1.1543 1.56172 0
M  V30 4550 O 426.547 0.222218 1.93226 0
M  V30 4551 C 426.83 3.52316 0.74466 0
M  V30 4552 C 426.683 4.47337 -0.470101 0
M  V30 4553 C 428.002 4.10588 1.58447 0
M  V30 4554 H 425.121 0.725961 0.12708 0
M  V30 4555 H 427.763 1.86336 -0.371333 0
M  V30 4556 H 425.913 3.63829 1.36239 0
M  V30 4557 H 427.585 4.4778 -1.10864 0
M  V30 4558 H 425.828 4.19364 -1.10978 0
M  V30 4559 H 426.499 5.51788 -0.15291 0
M  V30 4560 H 428.975 4.02297 1.06286 0
M  V30 4561 H 427.851 5.17607 1.82686 0
M  V30 4562 H 428.112 3.60253 2.56262 0
M  V30 4563 N 427.171 -0.0066808 1.57599 0
M  V30 4564 C 428.103 -1.02827 2.04839 0
M  V30 4565 C 429.116 -1.31108 0.965113 0
M  V30 4566 O 430.305 -1.28202 1.24203 0
M  V30 4567 C 427.405 -2.36464 2.42771 0
M  V30 4568 C 426.578 -2.27219 3.73751 0
M  V30 4569 C 425.637 -3.43489 3.98625 0
M  V30 4570 O 424.663 -3.21976 4.69382 0
M  V30 4571 N 425.865 -4.66116 3.46 0
M  V30 4572 H 428.63 -0.625455 2.93101 0
M  V30 4573 H 426.191 -0.194198 1.60731 0
M  V30 4574 H 428.183 -3.13008 2.56531 0
M  V30 4575 H 426.753 -2.68512 1.60063 0
M  V30 4576 H 425.973 -1.35629 3.70133 0
M  V30 4577 H 427.261 -2.18208 4.59633 0
M  V30 4578 H 426.659 -4.86493 2.88688 0
M  V30 4579 H 425.216 -5.39949 3.65101 0
M  V30 4580 N 428.649 -1.55105 -0.279332 0
M  V30 4581 C 429.612 -1.86783 -1.32834 0
M  V30 4582 C 430.612 -0.74199 -1.42657 0
M  V30 4583 O 431.802 -1.0102 -1.41918 0
M  V30 4584 C 428.934 -2.06746 -2.71052 0
M  V30 4585 H 430.127 -2.8055 -1.05979 0
M  V30 4586 H 427.68 -1.47499 -0.517087 0
M  V30 4587 H 428.415 -1.15339 -3.03097 0
M  V30 4588 H 428.2 -2.88711 -2.65309 0
M  V30 4589 H 429.69 -2.32549 -3.46858 0
M  V30 4590 N 430.127 0.543554 -1.4793 0
M  V30 4591 C 431.057 1.65888 -1.64327 0
M  V30 4592 C 432.038 1.62818 -0.492383 0
M  V30 4593 O 433.223 1.80226 -0.723338 0
M  V30 4594 C 430.353 3.04506 -1.67013 0
M  V30 4595 C 429.307 3.2243 -2.81466 0
M  V30 4596 C 428.633 4.61972 -2.69233 0
M  V30 4597 C 429.933 3.06496 -4.22915 0
M  V30 4598 H 431.627 1.52421 -2.57698 0
M  V30 4599 H 429.173 0.731849 -1.24016 0
M  V30 4600 H 431.126 3.82391 -1.77074 0
M  V30 4601 H 429.85 3.18964 -0.70212 0
M  V30 4602 H 428.509 2.46957 -2.70938 0
M  V30 4603 H 428.157 4.73247 -1.7043 0
M  V30 4604 H 427.857 4.74911 -3.46025 0
M  V30 4605 H 429.381 5.41974 -2.81242 0
M  V30 4606 H 430.795 3.74186 -4.34348 0
M  V30 4607 H 429.192 3.30938 -5.006 0
M  V30 4608 H 430.262 2.03077 -4.40327 0
M  V30 4609 N 431.605 1.3629 0.791371 0
M  V30 4610 C 433.021 1.16661 1.08914 0
M  V30 4611 C 433.221 -0.0106266 2.01497 0
M  V30 4612 O 432.277 -0.676596 2.43266 0
M  V30 4613 C 433.59 2.47656 1.70549 0
M  V30 4614 C 435.138 2.54002 1.82899 0
M  V30 4615 C 435.613 3.85078 2.47949 0
M  V30 4616 N 437.104 3.86413 2.5542 0
M  V30 4617 C 437.839 4.84572 3.06557 0
M  V30 4618 N 437.335 5.93124 3.58016 0
M  V30 4619 N 439.128 4.71994 3.05251 0
M  V30 4620 H 431.279 2.11668 0.176238 0
M  V30 4621 H 433.542 0.937486 0.140796 0
M  V30 4622 H 433.248 3.34059 1.09989 0
M  V30 4623 H 433.122 2.63319 2.70079 0
M  V30 4624 H 435.509 1.68018 2.42598 0
M  V30 4625 H 435.59 2.42239 0.821808 0
M  V30 4626 H 435.234 4.71467 1.88895 0
M  V30 4627 H 435.164 3.94135 3.49235 0
M  V30 4628 H 437.655 3.07988 2.18979 0
M  V30 4629 H 437.968 6.63999 3.95381 0
M  V30 4630 H 436.313 5.96796 3.56173 0
M  V30 4631 H 439.504 3.86321 2.64336 0
M  V30 4632 H 439.677 5.48653 3.44796 0
M  V30 4633 N 433.083 -1.0153 1.20538 0
M  V30 4634 C 434.332 -1.74558 1.01057 0
M  V30 4635 C 434.645 -1.90168 -0.457756 0
M  V30 4636 O 435.851 -2.60301 -0.771722 0
M  V30 4637 C 434.307 -3.13963 1.75941 0
M  V30 4638 C 433.915 -3.06361 3.26875 0
M  V30 4639 C 435.659 -3.91191 1.64832 0
M  V30 4640 C 433.566 -4.40782 3.94291 0
M  V30 4641 H 432.496 -0.654417 0.374505 0
M  V30 4642 H 435.147 -1.13521 1.44171 0
M  V30 4643 H 433.529 -3.75549 1.25614 0
M  V30 4644 H 434.703 -2.54074 3.84425 0
M  V30 4645 H 433.018 -2.42625 3.38411 0
M  V30 4646 H 435.615 -4.90644 2.12539 0
M  V30 4647 H 435.958 -4.11884 0.604745 0
M  V30 4648 H 436.491 -3.36236 2.12579 0
M  V30 4649 H 433.23 -4.25292 4.98805 0
M  V30 4650 H 432.75 -4.9307 3.41529 0
M  V30 4651 H 434.429 -5.09621 3.98617 0
M  V30 4652 N 434.561 -1.01147 -1.20859 0
M  V30 4653 C 435.494 -0.522108 -2.22147 0
M  V30 4654 C 436.472 0.427686 -1.56874 0
M  V30 4655 O 437.656 0.34889 -1.85243 0
M  V30 4656 C 434.783 0.240819 -3.37843 0
M  V30 4657 C 433.829 -0.657752 -4.21398 0
M  V30 4658 S 434.662 -2.12393 -4.91578 0
M  V30 4659 C 435.818 -1.37102 -6.10699 0
M  V30 4660 H 436.051 -1.38035 -2.63313 0
M  V30 4661 H 433.584 -0.819941 -1.30829 0
M  V30 4662 H 435.542 0.674908 -4.04914 0
M  V30 4663 H 434.203 1.07457 -2.95147 0
M  V30 4664 H 433.396 -0.0697456 -5.03952 0
M  V30 4665 H 432.998 -1.0294 -3.59555 0
M  V30 4666 H 435.29 -0.648315 -6.74391 0
M  V30 4667 H 436.233 -2.17252 -6.73949 0
M  V30 4668 H 436.641 -0.876154 -5.57659 0
M  V30 4669 N 436.039 1.36541 -0.78704 0
M  V30 4670 C 437.455 1.52571 -0.46844 0
M  V30 4671 C 437.655 1.7415 1.01361 0
M  V30 4672 O 436.711 1.77163 1.79915 0
M  V30 4673 C 438.024 2.71299 -1.29682 0
M  V30 4674 C 439.572 2.85169 -1.29027 0
M  V30 4675 C 440.047 4.06898 -2.10233 0
M  V30 4676 N 441.538 4.1404 -2.07666 0
M  V30 4677 C 442.273 5.07301 -2.67271 0
M  V30 4678 N 441.769 6.06021 -3.35724 0
M  V30 4679 N 443.562 4.99898 -2.57018 0
M  V30 4680 H 435.713 1.20788 -1.74711 0
M  V30 4681 H 437.976 0.589364 -0.742532 0
M  V30 4682 H 437.682 2.61868 -2.34773 0
M  V30 4683 H 437.556 3.6539 -0.936479 0
M  V30 4684 H 439.943 2.94062 -0.247284 0
M  V30 4685 H 440.024 1.91992 -1.69035 0
M  V30 4686 H 439.668 3.98766 -3.1456 0
M  V30 4687 H 439.598 4.99218 -1.67597 0
M  V30 4688 H 442.089 3.43357 -1.57843 0
M  V30 4689 H 442.402 6.73741 -3.78541 0
M  V30 4690 H 440.747 6.06253 -3.39826 0
M  V30 4691 H 443.938 4.21724 -2.03142 0
M  V30 4692 H 444.111 5.72392 -3.03761 0
M  V30 4693 N 437.518 0.538854 1.48102 0
M  V30 4694 C 438.767 0.0059532 2.01699 0
M  V30 4695 C 439.08 -1.34476 1.42041 0
M  V30 4696 O 440.286 -1.96653 1.87189 0
M  V30 4697 C 438.742 -0.0397627 3.59878 0
M  V30 4698 C 438.35 1.30659 4.28523 0
M  V30 4699 C 440.094 -0.521024 4.2129 0
M  V30 4700 C 438.001 1.22098 5.78659 0
M  V30 4701 H 436.931 -0.00154456 0.753998 0
M  V30 4702 H 439.582 0.683963 1.70277 0
M  V30 4703 H 437.964 -0.783037 3.88181 0
M  V30 4704 H 439.138 2.06613 4.11883 0
M  V30 4705 H 437.453 1.7243 3.79021 0
M  V30 4706 H 440.05 -0.603184 5.31287 0
M  V30 4707 H 440.393 -1.52885 3.8721 0
M  V30 4708 H 440.926 0.166834 3.9745 0
M  V30 4709 H 437.665 2.20424 6.17328 0
M  V30 4710 H 437.185 0.50295 5.97688 0
M  V30 4711 H 438.864 0.915345 6.40492 0
M  V30 4712 N 438.996 -1.55193 0.274407 0
M  V30 4713 C 439.959 -2.212 -0.600279 0
M  V30 4714 C 440.959 -1.18963 -1.08187 0
M  V30 4715 O 442.149 -1.43873 -0.982158 0
M  V30 4716 C 439.281 -2.87739 -1.82809 0
M  V30 4717 H 440.474 -2.9989 -0.0239682 0
M  V30 4718 H 438.027 -1.5628 0.0250192 0
M  V30 4719 H 438.762 -2.13058 -2.44493 0
M  V30 4720 H 438.547 -3.62658 -1.49069 0
M  V30 4721 H 440.037 -3.38171 -2.45011 0
M  V30 4722 N 440.474 -0.00167713 -1.576 0
M  V30 4723 C 441.89 0.354422 -1.55615 0
M  V30 4724 C 442.09 1.74679 -1.00447 0
M  V30 4725 O 441.146 2.4428 -0.639022 0
M  V30 4726 C 442.459 0.22812 -2.99833 0
M  V30 4727 C 444.007 0.302934 -3.11531 0
M  V30 4728 C 444.482 0.205737 -4.57538 0
M  V30 4729 N 445.973 0.263584 -4.62449 0
M  V30 4730 C 446.708 0.211742 -5.73009 0
M  V30 4731 N 446.204 0.110399 -6.92712 0
M  V30 4732 N 447.997 0.263729 -5.61481 0
M  V30 4733 H 440.148 -0.912498 -1.918 0
M  V30 4734 H 442.411 -0.349928 -0.881053 0
M  V30 4735 H 442.117 -0.729934 -3.44042 0
M  V30 4736 H 441.991 1.00951 -3.6344 0
M  V30 4737 H 444.378 1.25143 -2.67251 0
M  V30 4738 H 444.459 -0.508357 -2.50698 0
M  V30 4739 H 444.103 -0.739225 -5.02492 0
M  V30 4740 H 444.033 1.03554 -5.16318 0
M  V30 4741 H 446.524 0.343173 -3.76339 0
M  V30 4742 H 446.837 0.0767828 -7.72762 0
M  V30 4743 H 445.182 0.0760025 -6.94958 0
M  V30 4744 H 448.373 0.34111 -4.66855 0
M  V30 4745 H 448.546 0.219862 -6.47627 0
M  V30 4746 N 441.952 1.55251 0.271103 0
M  V30 4747 C 443.201 1.75151 1.00025 0
M  V30 4748 C 443.514 0.561041 1.87381 0
M  V30 4749 O 444.72 0.642506 2.63788 0
M  V30 4750 C 443.176 3.09999 1.82835 0
M  V30 4751 C 442.784 4.3662 1.00336 0
M  V30 4752 C 444.528 3.39249 2.55168 0
M  V30 4753 C 442.435 5.62506 1.82595 0
M  V30 4754 H 441.365 0.652877 0.377183 0
M  V30 4755 H 444.016 1.81708 0.255843 0
M  V30 4756 H 442.398 2.97485 2.61378 0
M  V30 4757 H 443.572 4.60055 0.261959 0
M  V30 4758 H 441.887 4.14527 0.394486 0
M  V30 4759 H 444.484 4.3051 3.1712 0
M  V30 4760 H 444.827 2.59467 3.2555 0
M  V30 4761 H 445.36 3.52869 1.83653 0
M  V30 4762 H 442.099 6.45041 1.16631 0
M  V30 4763 H 441.619 5.43211 2.54327 0
M  V30 4764 H 443.298 6.00875 2.39913 0
M  V30 4765 N 443.43 -0.535701 1.48216 0
M  V30 4766 C 444.677 -1.29183 1.55942 0
M  V30 4767 C 445.005 -1.93125 0.230857 0
M  V30 4768 O 444.26 -1.79556 -0.778331 0
M  V30 4769 C 444.559 -2.4068 2.64212 0
M  V30 4770 C 444.225 -1.94428 4.06827 0
M  V30 4771 C 442.887 -1.81532 4.45645 0
M  V30 4772 C 445.239 -1.59405 4.96225 0
M  V30 4773 C 442.567 -1.31939 5.71672 0
M  V30 4774 C 444.919 -1.11276 6.22736 0
M  V30 4775 C 443.583 -0.969924 6.60416 0
M  V30 4776 H 442.853 -0.472715 0.570632 0
M  V30 4777 H 445.5 -0.598437 1.81909 0
M  V30 4778 H 443.805 -3.15666 2.32083 0
M  V30 4779 H 445.502 -2.98822 2.67407 0
M  V30 4780 H 442.092 -2.05415 3.76168 0
M  V30 4781 H 446.276 -1.68231 4.66917 0
M  V30 4782 H 441.532 -1.19562 5.99596 0
M  V30 4783 H 445.706 -0.832453 6.91407 0
M  V30 4784 H 443.333 -0.583436 7.57958 0
M  V30 4785 N 444.908 -1.36708 -0.784132 0
M  V30 4786 C 445.855 -1.31466 -1.89698 0
M  V30 4787 C 446.825 -0.18239 -1.65096 0
M  V30 4788 O 448.01 -0.369762 -1.87183 0
M  V30 4789 C 445.15 -1.1151 -3.26588 0
M  V30 4790 C 444.263 -2.33859 -3.63227 0
M  V30 4791 C 443.398 -2.06873 -4.89262 0
M  V30 4792 C 442.437 -3.25154 -5.18595 0
M  V30 4793 N 441.574 -2.978 -6.35814 0
M  V30 4794 H 446.414 -2.26619 -1.93515 0
M  V30 4795 H 443.951 -1.12625 -0.946256 0
M  V30 4796 H 445.909 -0.979653 -4.05535 0
M  V30 4797 H 444.539 -0.200103 -3.22179 0
M  V30 4798 H 443.591 -2.58188 -2.79362 0
M  V30 4799 H 444.903 -3.22109 -3.8085 0
M  V30 4800 H 444.057 -1.90289 -5.76086 0
M  V30 4801 H 442.796 -1.15942 -4.73718 0
M  V30 4802 H 441.801 -3.42292 -4.30251 0
M  V30 4803 H 443.026 -4.1692 -5.36055 0
M  V30 4804 H 440.972 -2.09485 -6.21653 0
M  V30 4805 H 440.889 -3.7959 -6.53794 0
M  V30 4806 H 442.157 -2.84805 -7.25607 0
M  V30 4807 N 446.386 1.0089 -1.21074 0
M  V30 4808 C 447.316 2.1145 -0.990523 0
M  V30 4809 C 448.297 1.69897 0.0831699 0
M  V30 4810 O 449.482 1.94052 -0.0758853 0
M  V30 4811 C 446.612 3.42914 -0.550177 0
M  V30 4812 C 445.566 3.98244 -1.56799 0
M  V30 4813 C 444.892 5.25568 -0.984013 0
M  V30 4814 C 446.192 4.30752 -2.95381 0
M  V30 4815 H 447.886 2.3013 -1.91521 0
M  V30 4816 H 445.432 1.10592 -0.92225 0
M  V30 4817 H 447.385 4.19653 -0.383305 0
M  V30 4818 H 446.109 3.24014 0.41015 0
M  V30 4819 H 444.768 3.23621 -1.72236 0
M  V30 4820 H 444.416 5.02998 -0.0155216 0
M  V30 4821 H 444.116 5.63551 -1.66384 0
M  V30 4822 H 445.64 6.04955 -0.828378 0
M  V30 4823 H 447.054 4.98349 -2.8341 0
M  V30 4824 H 445.451 4.79869 -3.60341 0
M  V30 4825 H 446.521 3.39192 -3.46521 0
M  V30 4826 N 447.864 1.01787 1.20321 0
M  V30 4827 C 448.827 0.593972 2.2137 0
M  V30 4828 C 449.827 -0.336553 1.57239 0
M  V30 4829 O 451.017 -0.125069 1.7375 0
M  V30 4830 C 448.149 -0.132433 3.40643 0
M  V30 4831 H 449.342 1.48791 2.60387 0
M  V30 4832 H 446.895 0.807803 1.33807 0
M  V30 4833 H 447.63 -1.04123 3.0713 0
M  V30 4834 H 447.415 0.53605 3.88418 0
M  V30 4835 H 448.905 -0.416314 4.1552 0
M  V30 4836 N 449.342 -1.36122 0.79427 0
M  V30 4837 C 450.758 -1.5232 0.476525 0
M  V30 4838 C 450.958 -1.74685 -1.00436 0
M  V30 4839 O 450.014 -1.78115 -1.78973 0
M  V30 4840 C 451.327 -2.70607 1.31119 0
M  V30 4841 C 452.875 -2.8448 1.30537 0
M  V30 4842 C 453.35 -4.05778 2.12387 0
M  V30 4843 N 454.841 -4.12933 2.09859 0
M  V30 4844 C 455.576 -5.05876 2.69957 0
M  V30 4845 N 455.072 -6.04232 3.38934 0
M  V30 4846 N 456.865 -4.98528 2.59665 0
M  V30 4847 H 449.016 -1.1986 1.75349 0
M  V30 4848 H 451.279 -0.585418 0.745647 0
M  V30 4849 H 450.985 -2.60619 2.36158 0
M  V30 4850 H 450.859 -3.64888 0.955843 0
M  V30 4851 H 453.246 -2.93927 0.262876 0
M  V30 4852 H 453.327 -1.91093 1.70051 0
M  V30 4853 H 452.971 -3.97092 3.1667 0
M  V30 4854 H 452.901 -4.98323 1.70242 0
M  V30 4855 H 455.392 -3.42515 1.59662 0
M  V30 4856 H 455.705 -6.71724 3.82109 0
M  V30 4857 H 454.05 -6.04443 3.43036 0
M  V30 4858 H 457.241 -4.20641 2.05375 0
M  V30 4859 H 457.414 -5.70773 3.06793 0
M  V30 4860 N 450.82 -0.546701 -1.47814 0
M  V30 4861 C 451.77 0.227042 -2.26867 0
M  V30 4862 C 452.754 0.894844 -1.33721 0
M  V30 4863 O 453.946 0.794887 -1.58147 0
M  V30 4864 C 451.075 1.26299 -3.19223 0
M  V30 4865 C 450.161 0.59913 -4.19847 0
M  V30 4866 N 450.552 -0.324777 -5.04756 0
M  V30 4867 C 448.85 0.854331 -4.37741 0
M  V30 4868 C 449.551 -0.709386 -5.77358 0
M  V30 4869 N 448.527 -0.0666153 -5.43559 0
M  V30 4870 H 452.329 -0.483476 -2.89896 0
M  V30 4871 H 449.843 -0.365893 -1.58224 0
M  V30 4872 H 451.84 1.83116 -3.74532 0
M  V30 4873 H 450.5 1.97471 -2.57751 0
M  V30 4874 H 451.511 -0.698351 -5.1317 0
M  V30 4875 H 448.188 1.55536 -3.87447 0
M  V30 4876 H 449.578 -1.46796 -6.55668 0
M  V30 4877 N 452.299 1.55045 -0.282633 0
M  V30 4878 C 453.524 2.04628 0.337977 0
M  V30 4879 C 453.949 1.15937 1.48123 0
M  V30 4880 O 453.307 0.159532 1.80597 0
M  V30 4881 C 453.355 3.51854 0.78936 0
M  V30 4882 O 452.459 3.66236 1.89592 0
M  V30 4883 H 451.8 0.660434 0.0687261 0
M  V30 4884 H 454.33 2.00261 -0.419124 0
M  V30 4885 H 454.34 3.93361 1.08311 0
M  V30 4886 H 453.015 4.15873 -0.0470419 0
M  V30 4887 H 451.592 3.36633 1.60413 0
M  V30 4888 N 453.777 0.010035 1.57597 0
M  V30 4889 C 455.002 -0.687021 1.95691 0
M  V30 4890 C 455.427 -1.65952 0.885519 0
M  V30 4891 O 454.785 -1.80633 -0.15543 0
M  V30 4892 C 454.833 -1.3864 3.32884 0
M  V30 4893 O 453.937 -2.50115 3.27897 0
M  V30 4894 H 453.278 -0.181989 0.638573 0
M  V30 4895 H 455.808 0.0662122 2.04493 0
M  V30 4896 H 455.818 -1.74754 3.6868 0
M  V30 4897 H 454.493 -0.673411 4.10412 0
M  V30 4898 H 453.07 -2.16253 3.03791 0
M  V30 4899 N 455.255 -1.55392 -0.262866 0
M  V30 4900 C 456.503 -1.76127 -0.991147 0
M  V30 4901 C 456.824 -0.571083 -1.8645 0
M  V30 4902 O 456.094 0.413698 -1.91482 0
M  V30 4903 H 454.674 -0.649528 -0.368948 0
M  V30 4904 H 457.336 -1.9281 -0.284655 0
M  V30 4905 H 456.432 -2.6663 -1.62219 0
M  V30 4906 N 456.733 0.527833 -1.48498 0
M  V30 4907 C 457.663 1.64136 -1.66077 0
M  V30 4908 C 458.644 1.62286 -0.509625 0
M  V30 4909 O 459.829 1.79449 -0.742413 0
M  V30 4910 C 456.959 3.02717 -1.70234 0
M  V30 4911 C 455.913 3.19426 -2.8487 0
M  V30 4912 C 455.239 4.5909 -2.74118 0
M  V30 4913 C 456.539 3.01993 -4.26142 0
M  V30 4914 H 458.233 1.4968 -2.593 0
M  V30 4915 H 455.779 0.718654 -1.24785 0
M  V30 4916 H 457.732 3.80491 -1.8112 0
M  V30 4917 H 456.456 3.18201 -0.735911 0
M  V30 4918 H 455.115 2.4407 -2.73542 0
M  V30 4919 H 454.763 4.71413 -1.7544 0
M  V30 4920 H 454.463 4.71214 -3.51042 0
M  V30 4921 H 455.987 5.3896 -2.86974 0
M  V30 4922 H 457.401 3.69558 -4.38292 0
M  V30 4923 H 455.798 3.2561 -5.04082 0
M  V30 4924 H 456.868 1.98396 -4.42456 0
M  V30 4925 N 458.211 1.37122 0.776871 0
M  V30 4926 C 459.143 1.28342 1.89897 0
M  V30 4927 C 460.156 0.200277 1.61563 0
M  V30 4928 O 461.345 0.456012 1.72577 0
M  V30 4929 C 458.445 0.960427 3.25006 0
M  V30 4930 C 457.618 2.148 3.81025 0
M  V30 4931 C 456.677 1.79608 4.94598 0
M  V30 4932 O 455.703 2.51845 5.10454 0
M  V30 4933 N 456.905 0.737171 5.758 0
M  V30 4934 H 459.67 2.25027 1.97947 0
M  V30 4935 H 457.231 1.3068 0.955739 0
M  V30 4936 H 459.223 0.705942 3.98495 0
M  V30 4937 H 457.793 0.0823066 3.12492 0
M  V30 4938 H 457.013 2.56454 2.99374 0
M  V30 4939 H 458.301 2.9411 4.15183 0
M  V30 4940 H 457.699 0.137637 5.65533 0
M  V30 4941 H 456.256 0.542534 6.49538 0
M  V30 4942 N 459.689 -1.00246 1.21608 0
M  V30 4943 C 460.917 -1.77631 1.06089 0
M  V30 4944 C 461.332 -1.84746 -0.38916 0
M  V30 4945 O 460.689 -1.31068 -1.26994 0
M  V30 4946 C 460.74 -3.21415 1.65453 0
M  V30 4947 O 460.461 -3.14703 3.04785 0
M  V30 4948 C 461.962 -4.15289 1.55079 0
M  V30 4949 H 459.182 -0.558162 0.37242 0
M  V30 4950 H 461.726 -1.26093 1.60999 0
M  V30 4951 H 459.881 -3.70053 1.14629 0
M  V30 4952 H 460.295 -4.05056 3.33212 0
M  V30 4953 H 461.769 -5.13965 2.01355 0
M  V30 4954 H 462.246 -4.36279 0.505665 0
M  V30 4955 H 462.852 -3.72543 2.05163 0
M  V30 4956 N 461.167 -1.02423 -1.1978 0
M  V30 4957 C 462.097 -0.62157 -2.25075 0
M  V30 4958 C 463.078 0.367148 -1.6609 0
M  V30 4959 O 464.263 0.250892 -1.92573 0
M  V30 4960 C 461.393 0.0331826 -3.47284 0
M  V30 4961 C 460.347 -0.877323 -4.18912 0
M  V30 4962 C 459.673 -0.0879296 -5.34628 0
M  V30 4963 C 460.973 -2.18892 -4.74219 0
M  V30 4964 H 462.667 -1.50179 -2.59011 0
M  V30 4965 H 460.213 -0.723547 -1.24502 0
M  V30 4966 H 462.166 0.326488 -4.20133 0
M  V30 4967 H 460.89 0.948164 -3.12534 0
M  V30 4968 H 459.549 -1.15475 -3.47938 0
M  V30 4969 H 459.197 0.828941 -4.96123 0
M  V30 4970 H 458.897 -0.694359 -5.83483 0
M  V30 4971 H 460.421 0.198743 -6.10276 0
M  V30 4972 H 461.835 -1.95746 -5.38847 0
M  V30 4973 H 460.232 -2.74686 -5.33542 0
M  V30 4974 H 461.302 -2.84674 -3.92541 0
M  V30 4975 N 462.645 1.35699 -0.801477 0
M  V30 4976 C 463.873 2.03157 -0.391768 0
M  V30 4977 C 464.288 1.60412 0.995668 0
M  V30 4978 O 463.645 0.799228 1.64069 0
M  V30 4979 C 463.696 3.58566 -0.459671 0
M  V30 4980 O 463.417 3.99756 -1.7924 0
M  V30 4981 C 464.918 4.4328 -0.0421205 0
M  V30 4982 H 462.138 0.651688 -0.159825 0
M  V30 4983 H 464.682 1.73426 -1.08368 0
M  V30 4984 H 462.837 3.86963 0.183939 0
M  V30 4985 H 463.251 4.94387 -1.75162 0
M  V30 4986 H 464.725 5.51821 -0.140754 0
M  V30 4987 H 465.202 4.27383 1.01196 0
M  V30 4988 H 465.808 4.20168 -0.658687 0
M  V30 4989 N 464.123 0.554532 1.47522 0
M  V30 4990 C 465.353 0.0342074 2.06572 0
M  V30 4991 C 465.761 -1.26375 1.40805 0
M  V30 4992 O 465.104 -1.7683 0.49769 0
M  V30 4993 C 465.166 -0.235096 3.5873 0
M  V30 4994 C 464.83 0.973024 4.46521 0
M  V30 4995 C 465.827 1.8779 4.848 0
M  V30 4996 C 463.512 1.18694 4.88075 0
M  V30 4997 C 465.506 2.98039 5.63428 0
M  V30 4998 C 463.193 2.29254 5.66468 0
M  V30 4999 C 464.191 3.18757 6.04055 0
M  V30 5000 O 463.879 4.27401 6.8087 0
M  V30 5001 H 463.611 0.041587 0.67472 0
M  V30 5002 H 466.165 0.766748 1.90552 0
M  V30 5003 H 464.395 -1.02191 3.72953 0
M  V30 5004 H 466.084 -0.700477 3.9981 0
M  V30 5005 H 466.85 1.72467 4.53299 0
M  V30 5006 H 462.729 0.49947 4.58286 0
M  V30 5007 H 466.273 3.67926 5.92685 0
M  V30 5008 H 462.17 2.4455 5.97382 0
M  V30 5009 H 462.938 4.25415 6.9926 0
M  V30 5010 N 465.601 -1.54893 0.290851 0
M  V30 5011 C 466.564 -2.21824 -0.576784 0
M  V30 5012 C 467.564 -1.20104 -1.06919 0
M  V30 5013 O 468.754 -1.44906 -0.966843 0
M  V30 5014 C 465.886 -2.89662 -1.79747 0
M  V30 5015 H 467.079 -2.99899 0.00784051 0
M  V30 5016 H 464.632 -1.56245 0.0415934 0
M  V30 5017 H 465.367 -2.15639 -2.42219 0
M  V30 5018 H 465.152 -3.64219 -1.45214 0
M  V30 5019 H 466.642 -3.4075 -2.4141 0
M  V30 5020 N 467.08 -0.0183926 -1.57589 0
M  V30 5021 C 468.01 0.965596 -2.12599 0
M  V30 5022 C 468.991 1.34641 -1.0395 0
M  V30 5023 O 470.176 1.42693 -1.31729 0
M  V30 5024 C 467.306 2.25149 -2.64434 0
M  V30 5025 C 466.26 2.01175 -3.77773 0
M  V30 5026 C 465.586 3.35937 -4.15994 0
M  V30 5027 C 466.886 1.35953 -5.04296 0
M  V30 5028 H 468.58 0.507504 -2.95067 0
M  V30 5029 H 466.126 0.242671 -1.41941 0
M  V30 5030 H 468.079 2.94357 -3.01549 0
M  V30 5031 H 466.803 2.73105 -1.79112 0
M  V30 5032 H 465.462 1.34388 -3.4108 0
M  V30 5033 H 465.11 3.81631 -3.27669 0
M  V30 5034 H 464.81 3.20705 -4.92364 0
M  V30 5035 H 466.334 4.0643 -4.55683 0
M  V30 5036 H 467.748 1.95144 -5.39065 0
M  V30 5037 H 466.145 1.31152 -5.85593 0
M  V30 5038 H 467.215 0.331071 -4.83768 0
M  V30 5039 N 468.558 1.5553 0.254621 0
M  V30 5040 C 469.505 1.89666 1.31512 0
M  V30 5041 C 470.475 0.750057 1.482 0
M  V30 5042 O 471.66 1.00301 1.62309 0
M  V30 5043 C 468.8 2.19009 2.667 0
M  V30 5044 C 467.913 3.46435 2.58083 0
M  V30 5045 C 467.048 3.65386 3.85573 0
M  V30 5046 C 466.087 4.8644 3.71541 0
M  V30 5047 N 465.224 5.01952 4.90906 0
M  V30 5048 H 470.064 2.80109 1.017 0
M  V30 5049 H 467.601 1.38666 0.490938 0
M  V30 5050 H 469.559 2.34025 3.45381 0
M  V30 5051 H 468.189 1.31779 2.94676 0
M  V30 5052 H 467.241 3.39792 1.71013 0
M  V30 5053 H 468.553 4.35258 2.43622 0
M  V30 5054 H 467.707 3.80319 4.72697 0
M  V30 5055 H 466.446 2.74781 4.02922 0
M  V30 5056 H 465.451 4.71491 2.82801 0
M  V30 5057 H 466.676 5.78497 3.55694 0
M  V30 5058 H 464.622 4.14283 5.08631 0
M  V30 5059 H 464.539 5.84851 4.79046 0
M  V30 5060 H 465.807 5.21289 5.7955 0
M  V30 5061 N 470.036 -0.519951 1.48776 0
M  V30 5062 C 471.452 -0.849418 1.35119 0
M  V30 5063 C 471.652 -1.98077 0.36982 0
M  V30 5064 O 470.708 -2.51664 -0.205359 0
M  V30 5065 C 472.021 -1.20748 2.75391 0
M  V30 5066 C 473.569 -1.31679 2.83954 0
M  V30 5067 C 474.044 -1.70824 4.24951 0
M  V30 5068 N 475.535 -1.77908 4.27672 0
M  V30 5069 C 476.27 -2.09603 5.33717 0
M  V30 5070 N 475.766 -2.39652 6.5003 0
M  V30 5071 N 477.559 -2.10694 5.21119 0
M  V30 5072 H 469.71 0.226377 2.1119 0
M  V30 5073 H 471.973 0.0386519 0.947212 0
M  V30 5074 H 471.679 -0.449703 3.48813 0
M  V30 5075 H 471.553 -2.15534 3.09556 0
M  V30 5076 H 473.94 -2.06532 2.10781 0
M  V30 5077 H 474.021 -0.3499 2.53396 0
M  V30 5078 H 473.665 -0.965282 4.98643 0
M  V30 5079 H 473.595 -2.6858 4.52959 0
M  V30 5080 H 476.086 -1.56923 3.43779 0
M  V30 5081 H 476.399 -2.6297 7.26682 0
M  V30 5082 H 474.744 -2.37149 6.53288 0
M  V30 5083 H 477.935 -1.86682 4.29264 0
M  V30 5084 H 478.108 -2.35062 6.03863 0
M  V30 5085 N 471.514 -1.37532 -0.769588 0
M  V30 5086 C 472.739 -1.36231 -1.56384 0
M  V30 5087 C 473.164 0.0495849 -1.88035 0
M  V30 5088 O 472.522 1.02723 -1.49391 0
M  V30 5089 C 472.57 -2.20986 -2.84952 0
M  V30 5090 O 471.674 -1.61597 -3.79421 0
M  V30 5091 H 471.015 -0.465387 -0.473615 0
M  V30 5092 H 473.545 -1.81085 -0.952342 0
M  V30 5093 H 473.555 -2.34277 -3.34034 0
M  V30 5094 H 472.23 -3.23612 -2.61243 0
M  V30 5095 H 470.807 -1.57359 -3.38072 0
M  V30 5096 N 472.992 0.995999 -1.22138 0
M  V30 5097 C 474.239 1.7351 -1.04406 0
M  V30 5098 C 474.567 1.89884 0.421244 0
M  V30 5099 O 473.822 1.43683 1.32867 0
M  V30 5100 C 474.121 3.14553 -1.6968 0
M  V30 5101 C 473.787 3.18102 -3.19565 0
M  V30 5102 C 472.449 3.18778 -3.60464 0
M  V30 5103 C 474.801 3.14636 -4.15516 0
M  V30 5104 C 472.129 3.13684 -4.95801 0
M  V30 5105 C 474.481 3.11084 -5.50826 0
M  V30 5106 C 473.145 3.10074 -5.91109 0
M  V30 5107 H 472.415 0.634916 -0.38205 0
M  V30 5108 H 475.062 1.1667 -1.51857 0
M  V30 5109 H 473.367 3.74682 -1.14546 0
M  V30 5110 H 475.064 3.70477 -1.53454 0
M  V30 5111 H 471.654 3.18324 -2.86998 0
M  V30 5112 H 475.838 3.13266 -3.84939 0
M  V30 5113 H 471.094 3.11245 -5.26247 0
M  V30 5114 H 475.268 3.07357 -6.24904 0
M  V30 5115 H 472.895 3.05882 -6.95946 0
M  V30 5116 N 474.47 1.03057 1.19235 0
M  V30 5117 C 475.417 0.612832 2.22515 0
M  V30 5118 C 476.387 -0.374224 1.61829 0
M  V30 5119 O 477.572 -0.270501 1.88873 0
M  V30 5120 C 474.712 -0.028475 3.45088 0
M  V30 5121 C 473.825 1.00483 4.20151 0
M  V30 5122 C 472.96 0.333102 5.30155 0
M  V30 5123 C 471.999 1.3522 5.96977 0
M  V30 5124 N 471.136 0.70616 6.9854 0
M  V30 5125 H 475.976 1.49812 2.57605 0
M  V30 5126 H 473.513 0.749658 1.26564 0
M  V30 5127 H 475.471 -0.417548 4.15105 0
M  V30 5128 H 474.101 -0.877334 3.10649 0
M  V30 5129 H 473.153 1.51194 3.49062 0
M  V30 5130 H 474.465 1.77929 4.65986 0
M  V30 5131 H 473.619 -0.110725 6.06599 0
M  V30 5132 H 472.358 -0.473547 4.85396 0
M  V30 5133 H 471.363 1.80627 5.19282 0
M  V30 5134 H 472.588 2.16037 6.4382 0
M  V30 5135 H 470.534 -0.0803667 6.55951 0
M  V30 5136 H 470.451 1.41848 7.42573 0
M  V30 5137 H 471.719 0.286391 7.78974 0
M  V30 5138 N 475.948 -1.35272 0.808662 0
M  V30 5139 C 476.858 -2.33546 0.222079 0
M  V30 5140 C 477.874 -1.6196 -0.636011 0
M  V30 5141 O 479.05 -1.93822 -0.547274 0
M  V30 5142 C 476.115 -3.41148 -0.61795 0
M  V30 5143 C 475.176 -4.28507 0.260875 0
M  V30 5144 C 474.409 -5.3097 -0.539156 0
M  V30 5145 O 474.632 -5.42123 -1.77367 0
M  V30 5146 O 473.566 -6.01858 0.0710526 0
M  V30 5147 H 477.392 -2.85515 1.03512 0
M  V30 5148 H 474.977 -1.38079 0.570495 0
M  V30 5149 H 476.859 -4.06889 -1.09634 0
M  V30 5150 H 475.534 -2.91447 -1.40855 0
M  V30 5151 H 474.441 -3.6574 0.786451 0
M  V30 5152 H 475.774 -4.81611 1.01547 0
M  V30 5153 N 477.426 -0.562348 -1.47226 0
M  V30 5154 C 478.356 0.170627 -2.32876 0
M  V30 5155 C 479.337 0.903748 -1.44106 0
M  V30 5156 O 480.522 0.883206 -1.72954 0
M  V30 5157 C 477.652 1.19786 -3.25989 0
M  V30 5158 C 476.606 0.580875 -4.2404 0
M  V30 5159 C 475.932 1.71311 -5.06514 0
M  V30 5160 C 477.232 -0.468714 -5.20193 0
M  V30 5161 H 478.926 -0.544441 -2.94408 0
M  V30 5162 H 476.472 -0.263271 -1.41573 0
M  V30 5163 H 478.425 1.71884 -3.84752 0
M  V30 5164 H 477.149 1.94294 -2.62521 0
M  V30 5165 H 475.808 0.0811538 -3.6651 0
M  V30 5166 H 475.456 2.44736 -4.39447 0
M  V30 5167 H 475.156 1.30604 -5.72902 0
M  V30 5168 H 476.68 2.23725 -5.68137 0
M  V30 5169 H 478.094 -0.0336028 -5.7329 0
M  V30 5170 H 476.491 -0.794957 -5.94811 0
M  V30 5171 H 477.561 -1.36269 -4.65359 0
M  V30 5172 N 478.904 1.54736 -0.299062 0
M  V30 5173 C 480.152 1.99706 0.31017 0
M  V30 5174 C 480.473 1.18896 1.54559 0
M  V30 5175 O 479.743 0.284445 1.93824 0
M  V30 5176 H 478.323 0.737686 0.117596 0
M  V30 5177 H 480.985 1.9054 -0.409943 0
M  V30 5178 H 480.081 3.06596 0.58355 0
M  V30 5179 N 480.382 0.0267497 1.57577 0
M  V30 5180 C 481.312 -0.954308 2.13108 0
M  V30 5181 C 482.293 -1.34088 1.04663 0
M  V30 5182 O 483.478 -1.41992 1.32484 0
M  V30 5183 C 480.608 -2.23744 2.65624 0
M  V30 5184 C 479.562 -1.99168 3.78835 0
M  V30 5185 C 478.888 -3.33726 4.17769 0
M  V30 5186 C 480.188 -1.33277 5.0501 0
M  V30 5187 H 481.882 -0.491848 2.95332 0
M  V30 5188 H 479.428 -0.23514 1.42067 0
M  V30 5189 H 481.381 -2.92754 3.03106 0
M  V30 5190 H 480.105 -2.72151 1.80558 0
M  V30 5191 H 478.764 -1.32577 3.41788 0
M  V30 5192 H 478.412 -3.79888 3.29688 0
M  V30 5193 H 478.112 -3.18089 4.94058 0
M  V30 5194 H 479.636 -4.04008 4.57832 0
M  V30 5195 H 481.05 -1.92283 5.40093 0
M  V30 5196 H 479.447 -1.28045 5.8628 0
M  V30 5197 H 480.517 -0.305411 4.83937 0
M  V30 5198 N 481.861 -1.55662 -0.24637 0
M  V30 5199 C 482.791 -1.93377 -1.30873 0
M  V30 5200 C 483.772 -0.798773 -1.50179 0
M  V30 5201 O 484.957 -1.0591 -1.62778 0
M  V30 5202 C 482.087 -2.22893 -2.66338 0
M  V30 5203 C 481.041 -3.38649 -2.61727 0
M  V30 5204 C 480.367 -3.53708 -4.00992 0
M  V30 5205 C 481.667 -4.74323 -2.18666 0
M  V30 5206 H 483.361 -2.82363 -0.995552 0
M  V30 5207 H 480.907 -1.35854 -0.477464 0
M  V30 5208 H 482.86 -2.47866 -3.40794 0
M  V30 5209 H 481.584 -1.30733 -2.99293 0
M  V30 5210 H 480.243 -3.13685 -1.89729 0
M  V30 5211 H 479.891 -2.58967 -4.31214 0
M  V30 5212 H 479.591 -4.31551 -3.98795 0
M  V30 5213 H 481.115 -3.81003 -4.77147 0
M  V30 5214 H 482.529 -4.98665 -2.82854 0
M  V30 5215 H 480.926 -5.55273 -2.27579 0
M  V30 5216 H 481.996 -4.71349 -1.13834 0
M  V30 5217 N 483.339 0.512053 -1.4905 0
M  V30 5218 C 484.269 1.62365 -1.67809 0
M  V30 5219 C 485.25 1.61737 -0.526809 0
M  V30 5220 O 486.435 1.78651 -0.761404 0
M  V30 5221 C 483.565 3.00895 -1.73435 0
M  V30 5222 C 482.519 3.16387 -2.88242 0
M  V30 5223 C 481.845 4.56157 -2.78971 0
M  V30 5224 C 483.145 2.97457 -4.29321 0
M  V30 5225 H 484.839 1.46921 -2.60873 0
M  V30 5226 H 482.385 0.705379 -1.2554 0
M  V30 5227 H 484.338 3.78549 -1.85145 0
M  V30 5228 H 483.062 3.17403 -0.769619 0
M  V30 5229 H 481.721 2.41155 -2.76116 0
M  V30 5230 H 481.369 4.69525 -1.8043 0
M  V30 5231 H 481.069 4.67465 -3.5602 0
M  V30 5232 H 482.593 5.35886 -2.92675 0
M  V30 5233 H 484.007 3.64888 -4.42187 0
M  V30 5234 H 482.404 3.20245 -5.07507 0
M  V30 5235 H 483.474 1.93692 -4.44535 0
M  V30 5236 N 484.817 1.37938 0.762283 0
M  V30 5237 C 485.75 1.2884 1.88349 0
M  V30 5238 C 486.728 0.167084 1.61739 0
M  V30 5239 O 487.912 0.34292 1.85355 0
M  V30 5240 C 485.039 0.994257 3.23778 0
M  V30 5241 C 484.085 2.13376 3.69287 0
M  V30 5242 S 484.918 3.75439 3.81845 0
M  V30 5243 C 486.074 3.48195 5.20107 0
M  V30 5244 H 486.307 2.23736 1.95779 0
M  V30 5245 H 483.84 1.23672 0.924368 0
M  V30 5246 H 485.798 0.83138 4.01993 0
M  V30 5247 H 484.459 0.0626251 3.14038 0
M  V30 5248 H 483.652 1.88319 4.67495 0
M  V30 5249 H 483.254 2.25726 2.98201 0
M  V30 5250 H 485.546 3.0377 6.05583 0
M  V30 5251 H 486.489 4.45765 5.50181 0
M  V30 5252 H 486.897 2.82905 4.88493 0
M  V30 5253 N 486.295 -0.989507 1.22664 0
M  V30 5254 C 487.525 -1.7624 1.0781 0
M  V30 5255 C 487.933 -1.85466 -0.374036 0
M  V30 5256 O 487.276 -1.32645 -1.27087 0
M  V30 5257 C 487.338 -3.21007 1.61849 0
M  V30 5258 C 487.002 -3.35316 3.10503 0
M  V30 5259 C 487.999 -3.22362 4.07896 0
M  V30 5260 C 485.684 -3.60258 3.50028 0
M  V30 5261 C 487.678 -3.34139 5.42798 0
M  V30 5262 C 485.365 -3.71676 4.85078 0
M  V30 5263 C 486.363 -3.58625 5.81272 0
M  V30 5264 O 486.051 -3.69655 7.1387 0
M  V30 5265 H 485.783 -0.560209 0.378341 0
M  V30 5266 H 488.337 -1.25252 1.62792 0
M  V30 5267 H 486.567 -3.73202 1.01279 0
M  V30 5268 H 488.256 -3.80024 1.42606 0
M  V30 5269 H 489.022 -3.03 3.78703 0
M  V30 5270 H 484.901 -3.69492 2.75675 0
M  V30 5271 H 488.445 -3.23869 6.17863 0
M  V30 5272 H 484.342 -3.90545 5.1395 0
M  V30 5273 H 485.11 -3.86507 7.21495 0
M  V30 5274 N 487.773 -1.03688 -1.18687 0
M  V30 5275 C 488.703 -0.645407 -2.24403 0
M  V30 5276 C 489.684 0.349511 -1.66471 0
M  V30 5277 O 490.869 0.230453 -1.92828 0
M  V30 5278 C 487.999 -0.00365337 -3.473 0
M  V30 5279 C 486.953 -0.921705 -4.17958 0
M  V30 5280 C 486.279 -0.144629 -5.34504 0
M  V30 5281 C 487.579 -2.23909 -4.71871 0
M  V30 5282 H 489.273 -1.52917 -2.57404 0
M  V30 5283 H 486.819 -0.736711 -1.23728 0
M  V30 5284 H 488.772 0.281908 -4.20456 0
M  V30 5285 H 487.496 0.914963 -3.13522 0
M  V30 5286 H 486.155 -1.19159 -3.46694 0
M  V30 5287 H 485.803 0.776274 -4.96974 0
M  V30 5288 H 485.503 -0.756206 -5.82714 0
M  V30 5289 H 487.027 0.134004 -6.10453 0
M  V30 5290 H 488.441 -2.0145 -5.36741 0
M  V30 5291 H 486.838 -2.8033 -5.30599 0
M  V30 5292 H 487.908 -2.88822 -3.895 0
M  V30 5293 N 489.251 1.34841 -0.815825 0
M  V30 5294 C 490.214 2.27959 -0.238185 0
M  V30 5295 C 491.214 1.49983 0.579816 0
M  V30 5296 O 492.404 1.69617 0.396953 0
M  V30 5297 C 489.536 3.34314 0.666876 0
M  V30 5298 H 490.729 2.80558 -1.05958 0
M  V30 5299 H 488.282 1.44852 -0.587156 0
M  V30 5300 H 489.017 2.86916 1.5116 0
M  V30 5301 H 488.802 3.92014 0.0819106 0
M  V30 5302 H 490.292 4.0379 1.06506 0
M  V30 5303 N 490.729 0.570148 1.46925 0
M  V30 5304 C 491.975 0.0510284 2.02736 0
M  V30 5305 C 492.308 -1.3006 1.44215 0
M  V30 5306 O 491.583 -1.84932 0.602521 0
M  V30 5307 C 491.866 -0.028215 3.60089 0
M  V30 5308 C 491.719 1.35142 4.29018 0
M  V30 5309 C 493.038 -0.735181 4.33916 0
M  V30 5310 H 490.157 0.0200178 0.736728 0
M  V30 5311 H 492.799 0.73493 1.75211 0
M  V30 5312 H 490.949 -0.610648 3.83671 0
M  V30 5313 H 492.621 1.97806 4.16738 0
M  V30 5314 H 490.864 1.9226 3.88868 0
M  V30 5315 H 491.535 1.24857 5.37694 0
M  V30 5316 H 494.011 -0.240519 4.15404 0
M  V30 5317 H 492.887 -0.759622 5.43618 0
M  V30 5318 H 493.148 -1.79397 4.04066 0
M  V30 5319 N 492.207 -1.54576 0.307264 0
M  V30 5320 C 493.455 -1.99867 -0.299574 0
M  V30 5321 C 493.776 -1.19714 -1.53927 0
M  V30 5322 O 493.046 -0.29472 -1.9367 0
M  V30 5323 H 491.626 -0.738299 -0.113683 0
M  V30 5324 H 494.288 -1.9032 0.420042 0
M  V30 5325 H 493.384 -3.06901 -0.567283 0
M  V30 5326 N 493.685 -0.035106 -1.57561 0
M  V30 5327 C 494.934 0.641604 -1.91223 0
M  V30 5328 C 495.247 1.72944 -0.913761 0
M  V30 5329 O 496.453 2.46321 -1.14185 0
M  V30 5330 C 494.909 1.19249 -3.3957 0
M  V30 5331 C 494.517 0.137616 -4.47789 0
M  V30 5332 C 496.261 1.84537 -3.82291 0
M  V30 5333 C 494.168 0.700478 -5.87237 0
M  V30 5334 H 493.098 0.243417 -0.713627 0
M  V30 5335 H 495.749 -0.101382 -1.8322 0
M  V30 5336 H 494.131 1.98728 -3.42525 0
M  V30 5337 H 495.305 -0.635153 -4.56402 0
M  V30 5338 H 493.62 -0.416855 -4.14308 0
M  V30 5339 H 496.217 2.27616 -4.83834 0
M  V30 5340 H 496.56 2.69054 -3.17672 0
M  V30 5341 H 497.093 1.11739 -3.81784 0
M  V30 5342 H 493.832 -0.106693 -6.55413 0
M  V30 5343 H 493.352 1.4416 -5.82218 0
M  V30 5344 H 495.031 1.18837 -6.35993 0
M  V30 5345 N 495.163 1.55791 0.238111 0
M  V30 5346 C 496.41 1.78033 0.964907 0
M  V30 5347 C 496.738 0.600984 1.84982 0
M  V30 5348 O 495.993 -0.41536 1.91241 0
M  V30 5349 C 496.292 3.05869 1.84875 0
M  V30 5350 C 495.958 4.36808 1.11846 0
M  V30 5351 C 494.62 4.72388 0.916662 0
M  V30 5352 C 496.972 5.17717 0.60151 0
M  V30 5353 C 494.3 5.86406 0.185756 0
M  V30 5354 C 496.652 6.32494 -0.115972 0
M  V30 5355 C 495.316 6.66688 -0.329168 0
M  V30 5356 H 494.586 0.651469 0.353085 0
M  V30 5357 H 497.233 1.90061 0.234318 0
M  V30 5358 H 495.538 2.88891 2.64668 0
M  V30 5359 H 497.235 3.20278 2.41294 0
M  V30 5360 H 493.825 4.08862 1.28569 0
M  V30 5361 H 498.009 4.90678 0.744932 0
M  V30 5362 H 493.265 6.11399 0.0101886 0
M  V30 5363 H 497.439 6.94425 -0.524127 0
M  V30 5364 H 495.066 7.54884 -0.897474 0
M  V30 5365 N 496.642 -0.504142 1.49319 0
M  V30 5366 C 497.888 -1.26033 1.58882 0
M  V30 5367 C 498.221 -1.92268 0.273274 0
M  V30 5368 O 497.496 -1.80567 -0.72291 0
M  V30 5369 C 497.779 -2.32976 2.7458 0
M  V30 5370 C 497.632 -1.71263 4.1592 0
M  V30 5371 C 498.951 -3.34561 2.85932 0
M  V30 5372 H 496.07 -0.456863 0.578312 0
M  V30 5373 H 498.712 -0.558965 1.81592 0
M  V30 5374 H 496.862 -2.92796 2.55348 0
M  V30 5375 H 498.534 -1.15294 4.4666 0
M  V30 5376 H 496.777 -1.01686 4.21714 0
M  V30 5377 H 497.448 -2.48816 4.92742 0
M  V30 5378 H 499.924 -2.84727 3.0343 0
M  V30 5379 H 498.8 -4.06754 3.68568 0
M  V30 5380 H 499.061 -3.96695 1.95154 0
M  V30 5381 N 498.12 -1.38341 -0.754957 0
M  V30 5382 C 499.367 -1.34473 -1.51404 0
M  V30 5383 C 499.695 0.0656458 -1.94389 0
M  V30 5384 O 498.95 1.04244 -1.65625 0
M  V30 5385 C 499.249 -2.2452 -2.78075 0
M  V30 5386 C 498.915 -3.72512 -2.54059 0
M  V30 5387 C 497.577 -4.1284 -2.47218 0
M  V30 5388 C 499.929 -4.66197 -2.33044 0
M  V30 5389 C 497.257 -5.44945 -2.17376 0
M  V30 5390 C 499.609 -5.98558 -2.04723 0
M  V30 5391 C 498.273 -6.37972 -1.96337 0
M  V30 5392 H 497.543 -0.492072 -0.554027 0
M  V30 5393 H 500.19 -1.70687 -0.868223 0
M  V30 5394 H 498.495 -1.81357 -3.473 0
M  V30 5395 H 500.192 -2.18832 -3.36026 0
M  V30 5396 H 496.782 -3.40538 -2.60253 0
M  V30 5397 H 500.966 -4.35888 -2.37309 0
M  V30 5398 H 496.222 -5.74426 -2.09391 0
M  V30 5399 H 500.396 -6.70693 -1.87465 0
M  V30 5400 H 498.023 -7.40258 -1.72978 0
M  V30 5401 N 499.598 0.982988 -1.23187 0
M  V30 5402 C 500.823 1.76455 -1.08988 0
M  V30 5403 C 501.248 1.84726 0.354691 0
M  V30 5404 O 500.606 1.30699 1.25649 0
M  V30 5405 C 500.654 3.17094 -1.71708 0
M  V30 5406 O 499.758 4.00648 -0.977477 0
M  V30 5407 H 499.099 0.542988 -0.382177 0
M  V30 5408 H 501.629 1.23413 -1.63188 0
M  V30 5409 H 501.639 3.67684 -1.76841 0
M  V30 5410 H 500.314 3.10389 -2.76823 0
M  V30 5411 H 498.891 3.59161 -1.0029 0
M  V30 5412 N 501.076 1.04316 1.18135 0
M  V30 5413 C 502.039 0.640794 2.2006 0
M  V30 5414 C 503.039 -0.303124 1.57917 0
M  V30 5415 O 504.229 -0.0881855 1.73977 0
M  V30 5416 C 501.361 -0.060148 3.40847 0
M  V30 5417 H 502.554 1.54281 2.57172 0
M  V30 5418 H 500.107 0.836004 1.32063 0
M  V30 5419 H 500.842 -0.975845 3.0927 0
M  V30 5420 H 500.627 0.618319 3.87194 0
M  V30 5421 H 502.117 -0.328082 4.16309 0
M  V30 5422 N 502.554 -1.34406 0.822964 0
M  V30 5423 C 503.484 -2.32052 0.259608 0
M  V30 5424 C 504.465 -1.58243 -0.623961 0
M  V30 5425 O 505.65 -1.86224 -0.55083 0
M  V30 5426 C 502.78 -3.42434 -0.579314 0
M  V30 5427 C 501.734 -4.27499 0.20712 0
M  V30 5428 C 501.06 -5.29349 -0.754547 0
M  V30 5429 C 502.36 -5.02758 1.41533 0
M  V30 5430 H 504.054 -2.79418 1.07545 0
M  V30 5431 H 501.6 -1.34338 0.518593 0
M  V30 5432 H 503.553 -4.0976 -0.983612 0
M  V30 5433 H 502.277 -2.93717 -1.4282 0
M  V30 5434 H 500.936 -3.61776 0.592787 0
M  V30 5435 H 500.584 -4.76895 -1.59939 0
M  V30 5436 H 500.284 -5.8714 -0.232561 0
M  V30 5437 H 501.808 -5.99544 -1.1567 0
M  V30 5438 H 503.222 -5.62938 1.08504 0
M  V30 5439 H 501.619 -5.70123 1.87296 0
M  V30 5440 H 502.689 -4.32451 2.1935 0
M  V30 5441 N 504.032 -0.577932 -1.46621 0
M  V30 5442 C 505.28 -0.061566 -2.02006 0
M  V30 5443 C 505.601 1.30117 -1.4524 0
M  V30 5444 O 504.871 1.85313 -0.63529 0
M  V30 5445 H 503.451 -0.0197692 -0.746738 0
M  V30 5446 H 506.113 -0.752631 -1.79782 0
M  V30 5447 H 505.209 0.0110238 -3.12098 0
M  V30 5448 N 505.51 1.54411 -0.315457 0
M  V30 5449 C 506.74 2.04536 0.291315 0
M  V30 5450 C 507.148 1.19162 1.4696 0
M  V30 5451 O 506.491 0.213199 1.82459 0
M  V30 5452 C 506.553 3.5056 0.796725 0
M  V30 5453 C 506.217 4.5627 -0.258178 0
M  V30 5454 C 507.214 5.08312 -1.09153 0
M  V30 5455 C 504.899 5.00672 -0.404036 0
M  V30 5456 C 506.893 6.03312 -2.05655 0
M  V30 5457 C 504.58 5.95488 -1.37248 0
M  V30 5458 C 505.578 6.46693 -2.19721 0
M  V30 5459 O 505.266 7.39648 -3.14921 0
M  V30 5460 H 504.998 0.672856 0.0651165 0
M  V30 5461 H 507.552 2.00244 -0.457308 0
M  V30 5462 H 505.782 3.52223 1.59612 0
M  V30 5463 H 507.471 3.83804 1.32096 0
M  V30 5464 H 508.237 4.74793 -0.98979 0
M  V30 5465 H 504.116 4.60436 0.22799 0
M  V30 5466 H 507.66 6.43203 -2.70067 0
M  V30 5467 H 503.557 6.28424 -1.47489 0
M  V30 5468 H 504.325 7.57496 -3.10067 0
M  V30 5469 N 506.988 0.0434614 1.5754 0
M  V30 5470 C 508.216 -0.641835 1.96693 0
M  V30 5471 C 508.631 -1.64832 0.920652 0
M  V30 5472 O 507.988 -1.82247 -0.095993 0
M  V30 5473 C 508.039 -1.33557 3.35924 0
M  V30 5474 O 507.76 -0.369403 4.3654 0
M  V30 5475 C 509.261 -2.11135 3.89791 0
M  V30 5476 H 506.481 -0.176013 0.647503 0
M  V30 5477 H 509.025 0.107478 2.04217 0
M  V30 5478 H 507.18 -2.03617 3.29574 0
M  V30 5479 H 507.594 -0.863674 5.1734 0
M  V30 5480 H 509.068 -2.55107 4.89514 0
M  V30 5481 H 509.545 -2.95634 3.24803 0
M  V30 5482 H 510.151 -1.46002 3.99454 0
M  V30 5483 N 508.466 -1.55915 -0.229846 0
M  V30 5484 C 509.399 -1.86734 -1.3117 0
M  V30 5485 C 510.377 -0.723947 -1.45595 0
M  V30 5486 O 511.561 -0.971462 -1.61539 0
M  V30 5487 C 508.688 -2.06707 -2.68309 0
M  V30 5488 C 507.734 -3.2938 -2.70944 0
M  V30 5489 S 508.567 -4.85547 -2.25842 0
M  V30 5490 C 509.723 -5.08546 -3.64873 0
M  V30 5491 H 509.956 -2.78204 -1.04832 0
M  V30 5492 H 507.489 -1.48243 -0.431681 0
M  V30 5493 H 509.447 -2.18898 -3.47267 0
M  V30 5494 H 508.108 -1.16049 -2.91876 0
M  V30 5495 H 507.301 -3.40374 -3.71701 0
M  V30 5496 H 506.903 -3.16004 -2.00044 0
M  V30 5497 H 509.195 -4.96935 -4.60502 0
M  V30 5498 H 510.138 -6.10465 -3.58801 0
M  V30 5499 H 510.546 -4.36314 -3.58176 0
M  V30 5500 N 509.944 0.496216 -1.49584 0
M  V30 5501 C 510.854 1.62352 -1.69349 0
M  V30 5502 C 511.87 1.64184 -0.576147 0
M  V30 5503 O 513.046 1.82517 -0.85144 0
M  V30 5504 C 510.111 2.98698 -1.76013 0
M  V30 5505 C 509.172 3.07454 -2.99617 0
M  V30 5506 C 508.405 4.37296 -3.05953 0
M  V30 5507 O 508.628 5.2637 -2.19752 0
M  V30 5508 O 507.562 4.51124 -3.9846 0
M  V30 5509 H 511.388 1.48606 -2.64859 0
M  V30 5510 H 508.973 0.673022 -1.33382 0
M  V30 5511 H 510.855 3.79725 -1.82721 0
M  V30 5512 H 509.53 3.12696 -0.836828 0
M  V30 5513 H 508.437 2.25597 -2.98424 0
M  V30 5514 H 509.77 2.98385 -3.91443 0
M  V30 5515 N 511.423 1.38739 0.74761 0
M  V30 5516 C 512.355 1.32341 1.87132 0
M  V30 5517 C 513.368 0.234502 1.61102 0
M  V30 5518 O 514.557 0.492516 1.71571 0
M  V30 5519 C 511.657 1.02915 3.22896 0
M  V30 5520 C 510.83 2.22834 3.76383 0
M  V30 5521 C 509.889 1.90059 4.90677 0
M  V30 5522 O 508.915 2.62615 5.04997 0
M  V30 5523 N 510.117 0.859141 5.74107 0
M  V30 5524 H 512.882 2.29175 1.93129 0
M  V30 5525 H 510.443 1.32678 0.927805 0
M  V30 5526 H 512.435 0.79031 3.96908 0
M  V30 5527 H 511.005 0.148572 3.12247 0
M  V30 5528 H 510.225 2.62747 2.93867 0
M  V30 5529 H 511.513 3.02851 4.08851 0
M  V30 5530 H 510.911 0.257564 5.65113 0
M  V30 5531 H 509.468 0.680189 6.48241 0
M  V30 5532 N 512.901 -0.976442 1.23707 0
M  V30 5533 C 514.126 -1.75875 1.09922 0
M  V30 5534 C 514.551 -1.84911 -0.34489 0
M  V30 5535 O 513.909 -1.31363 -1.24954 0
M  V30 5536 C 513.957 -3.16179 1.73388 0
M  V30 5537 O 513.061 -4.00124 0.99871 0
M  V30 5538 H 512.402 -0.540954 0.385052 0
M  V30 5539 H 514.932 -1.22546 1.6384 0
M  V30 5540 H 514.942 -3.66741 1.78788 0
M  V30 5541 H 513.617 -3.08917 2.78466 0
M  V30 5542 H 512.194 -3.58624 1.02193 0
M  V30 5543 N 514.379 -1.04941 -1.1758 0
M  V30 5544 C 515.329 -0.618378 -2.19454 0
M  V30 5545 C 516.313 0.343813 -1.57184 0
M  V30 5546 O 517.505 0.16145 -1.76262 0
M  V30 5547 C 514.634 0.00803847 -3.43299 0
M  V30 5548 C 513.72 -0.977827 -4.12673 0
M  V30 5549 N 514.111 -2.14826 -4.57912 0
M  V30 5550 C 512.409 -0.805748 -4.38661 0
M  V30 5551 C 513.11 -2.77174 -5.11419 0
M  V30 5552 N 512.086 -2.04989 -5.03468 0
M  V30 5553 H 515.888 -1.51018 -2.52132 0
M  V30 5554 H 513.402 -0.919201 -1.33882 0
M  V30 5555 H 515.399 0.334584 -4.15555 0
M  V30 5556 H 514.059 0.895272 -3.12114 0
M  V30 5557 H 515.07 -2.52673 -4.52081 0
M  V30 5558 H 511.747 0.0306506 -4.17489 0
M  V30 5559 H 513.137 -3.76416 -5.56562 0
M  V30 5560 N 515.857 1.33968 -0.830081 0
M  V30 5561 C 517.268 1.80439 -0.479455 0
M  V30 5562 C 517.619 1.68756 1.00079 0
M  V30 5563 O 516.744 1.23171 1.77927 0
M  V30 5564 C 517.339 3.27611 -0.863505 0
M  V30 5565 C 515.898 3.72133 -0.565145 0
M  V30 5566 C 515.045 2.55549 -1.07657 0
M  V30 5567 H 517.996 1.21614 -1.0196 0
M  V30 5568 H 518.017 3.8012 -0.170083 0
M  V30 5569 H 517.529 3.36082 -1.94089 0
M  V30 5570 H 515.63 3.69196 0.502536 0
M  V30 5571 H 515.743 4.65963 -1.11422 0
M  V30 5572 H 514.107 2.49788 -0.497807 0
M  V30 5573 H 514.89 2.66786 -2.16055 0
M  V30 5574 N 517.335 0.585699 1.46312 0
M  V30 5575 C 518.245 -0.148236 2.34131 0
M  V30 5576 C 519.261 -0.882972 1.49932 0
M  V30 5577 O 520.437 -0.845484 1.82794 0
M  V30 5578 C 517.502 -1.14714 3.27172 0
M  V30 5579 C 516.563 -0.416746 4.27272 0
M  V30 5580 C 515.796 -1.36806 5.15868 0
M  V30 5581 O 516.019 -2.60475 5.07454 0
M  V30 5582 O 514.953 -0.877018 5.95476 0
M  V30 5583 H 518.779 0.572882 2.98248 0
M  V30 5584 H 516.364 0.346082 1.45336 0
M  V30 5585 H 518.246 -1.72303 3.84564 0
M  V30 5586 H 516.921 -1.84967 2.65648 0
M  V30 5587 H 515.828 0.201061 3.73559 0
M  V30 5588 H 517.161 0.244872 4.9159 0
M  V30 5589 N 518.813 -1.54241 0.323641 0
M  V30 5590 C 520.041 -2.04985 -0.280871 0
M  V30 5591 C 520.456 -1.19978 -1.45777 0
M  V30 5592 O 519.813 -0.230471 -1.81039 0
M  V30 5593 C 519.864 -3.54353 -0.715258 0
M  V30 5594 O 519.585 -4.36132 0.414817 0
M  V30 5595 C 521.086 -4.21189 -1.38257 0
M  V30 5596 H 518.306 -0.66851 -0.0577502 0
M  V30 5597 H 520.85 -1.99029 0.469852 0
M  V30 5598 H 519.005 -3.60596 -1.41596 0
M  V30 5599 H 519.419 -5.2445 0.0725227 0
M  V30 5600 H 520.893 -5.27154 -1.63745 0
M  V30 5601 H 521.37 -3.72307 -2.32989 0
M  V30 5602 H 521.976 -4.19085 -0.724447 0
M  V30 5603 N 520.291 -0.0518155 -1.57515 0
M  V30 5604 C 521.221 0.920283 -2.146 0
M  V30 5605 C 522.202 1.32406 -1.06783 0
M  V30 5606 O 523.387 1.39866 -1.34726 0
M  V30 5607 C 520.517 2.1949 -2.6915 0
M  V30 5608 C 519.471 1.93116 -3.81956 0
M  V30 5609 C 518.797 3.27037 -4.23026 0
M  V30 5610 C 520.097 1.25225 -5.07066 0
M  V30 5611 H 521.791 0.444801 -2.96077 0
M  V30 5612 H 519.337 0.212508 -1.42423 0
M  V30 5613 H 521.29 2.87894 -3.07725 0
M  V30 5614 H 520.014 2.69244 -1.84865 0
M  V30 5615 H 518.673 1.27123 -3.43854 0
M  V30 5616 H 518.321 3.74595 -3.3569 0
M  V30 5617 H 518.021 3.10189 -4.99056 0
M  V30 5618 H 519.545 3.96673 -4.64202 0
M  V30 5619 H 520.959 1.83666 -5.43083 0
M  V30 5620 H 519.356 1.18702 -5.88243 0
M  V30 5621 H 520.426 0.228382 -4.84362 0
M  V30 5622 N 521.769 1.56035 0.221574 0
M  V30 5623 C 523.016 1.79047 0.94597 0
M  V30 5624 C 523.344 0.62057 1.84334 0
M  V30 5625 O 522.599 -0.395053 1.91671 0
M  V30 5626 C 522.898 3.07813 1.8162 0
M  V30 5627 C 522.564 4.3797 1.07206 0
M  V30 5628 C 521.226 4.73334 0.866508 0
M  V30 5629 C 523.578 5.18326 0.546565 0
M  V30 5630 C 520.906 5.8657 0.123549 0
M  V30 5631 C 523.258 6.32335 -0.18305 0
M  V30 5632 C 521.922 6.66301 -0.399861 0
M  V30 5633 H 521.192 0.655178 0.346155 0
M  V30 5634 H 523.839 1.90299 0.214146 0
M  V30 5635 H 522.144 2.91682 2.61589 0
M  V30 5636 H 523.841 3.2282 2.37884 0
M  V30 5637 H 520.431 4.10202 1.24226 0
M  V30 5638 H 524.615 4.9144 0.692847 0
M  V30 5639 H 519.871 6.11376 -0.0546591 0
M  V30 5640 H 524.045 6.9383 -0.59775 0
M  V30 5641 H 521.672 7.53889 -0.977489 0
M  V30 5642 N 523.247 -0.488276 1.49845 0
M  V30 5643 C 524.194 -1.58836 1.67451 0
M  V30 5644 C 525.164 -1.57886 0.515857 0
M  V30 5645 O 526.349 -1.75679 0.744403 0
M  V30 5646 C 523.489 -2.96915 1.75885 0
M  V30 5647 C 522.602 -3.07784 3.03138 0
M  V30 5648 C 521.737 -4.36673 3.02473 0
M  V30 5649 C 520.776 -4.41222 4.24252 0
M  V30 5650 N 519.913 -5.61557 4.21424 0
M  V30 5651 H 524.753 -1.43131 2.61376 0
M  V30 5652 H 522.29 -0.696186 1.29583 0
M  V30 5653 H 524.248 -3.76965 1.78755 0
M  V30 5654 H 522.878 -3.11295 0.85414 0
M  V30 5655 H 521.93 -2.20717 3.09819 0
M  V30 5656 H 523.242 -3.07005 3.93128 0
M  V30 5657 H 522.396 -5.25055 3.03977 0
M  V30 5658 H 521.135 -4.40037 2.10283 0
M  V30 5659 H 520.14 -3.5124 4.22978 0
M  V30 5660 H 521.365 -4.39564 5.17649 0
M  V30 5661 H 519.311 -5.65738 3.32078 0
M  V30 5662 H 519.228 -5.62447 5.05163 0
M  V30 5663 H 520.496 -6.52111 4.2705 0
M  V30 5664 N 524.725 -1.39134 -0.740242 0
M  V30 5665 C 525.95 -1.39518 -1.53459 0
M  V30 5666 C 526.375 0.00968883 -1.88098 0
M  V30 5667 O 525.733 0.995312 -1.51536 0
M  V30 5668 C 525.781 -2.26981 -2.802 0
M  V30 5669 O 524.885 -1.69609 -3.75908 0
M  V30 5670 H 524.226 -0.475328 -0.463637 0
M  V30 5671 H 526.756 -1.83064 -0.913717 0
M  V30 5672 H 526.766 -2.41309 -3.28989 0
M  V30 5673 H 525.441 -3.29081 -2.5432 0
M  V30 5674 H 524.018 -1.64495 -3.34658 0
M  V30 5675 N 526.204 0.969867 -1.24223 0
M  V30 5676 C 527.453 1.70687 -1.07466 0
M  V30 5677 C 527.766 1.91736 0.386861 0
M  V30 5678 O 528.972 2.62986 0.674581 0
M  V30 5679 C 527.428 3.07217 -1.87472 0
M  V30 5680 C 527.036 2.94018 -3.3802 0
M  V30 5681 C 528.78 3.84804 -1.79237 0
M  V30 5682 C 526.687 4.25844 -4.10379 0
M  V30 5683 H 525.617 0.640067 -0.398536 0
M  V30 5684 H 528.268 1.08092 -1.48285 0
M  V30 5685 H 526.65 3.70628 -1.39466 0
M  V30 5686 H 527.824 2.39632 -3.9359 0
M  V30 5687 H 526.139 2.29898 -3.47183 0
M  V30 5688 H 528.736 4.82417 -2.30603 0
M  V30 5689 H 529.079 4.09356 -0.757197 0
M  V30 5690 H 529.612 3.28115 -2.24912 0
M  V30 5691 H 526.351 4.06486 -5.14246 0
M  V30 5692 H 525.871 4.80054 -3.59594 0
M  V30 5693 H 527.55 4.94475 -4.17257 0
M  V30 5694 N 527.682 1.05563 1.17022 0
M  V30 5695 C 529.093 0.793475 1.69 0
M  V30 5696 C 529.444 -0.683882 1.83895 0
M  V30 5697 O 528.569 -1.53116 1.5292 0
M  V30 5698 C 529.164 1.43376 3.06967 0
M  V30 5699 C 527.723 1.21956 3.56095 0
M  V30 5700 C 526.87 1.51494 2.3226 0
M  V30 5701 H 529.821 1.22008 1.01487 0
M  V30 5702 H 529.842 0.845068 3.70997 0
M  V30 5703 H 529.354 2.50899 2.96093 0
M  V30 5704 H 527.455 0.163749 3.7224 0
M  V30 5705 H 527.568 1.92713 4.38633 0
M  V30 5706 H 525.932 0.935175 2.3691 0
M  V30 5707 H 526.715 2.60159 2.23992 0
M  V30 5708 N 529.16 -1.33526 0.837174 0
M  V30 5709 C 530.092 -2.28077 0.226579 0
M  V30 5710 C 531.105 -1.51666 -0.591717 0
M  V30 5711 O 532.294 -1.73511 -0.419064 0
M  V30 5712 C 529.394 -3.31597 -0.69978 0
M  V30 5713 C 528.567 -4.37329 0.0788067 0
M  V30 5714 C 527.626 -5.20526 -0.770637 0
M  V30 5715 O 526.652 -5.68811 -0.210453 0
M  V30 5716 N 527.854 -5.41639 -2.08825 0
M  V30 5717 H 530.619 -2.81115 1.03897 0
M  V30 5718 H 528.18 -1.46201 0.695476 0
M  V30 5719 H 530.172 -3.84158 -1.27298 0
M  V30 5720 H 528.742 -2.78848 -1.41288 0
M  V30 5721 H 527.962 -3.8529 0.833381 0
M  V30 5722 H 529.25 -5.05079 0.614238 0
M  V30 5723 H 528.648 -5.04108 -2.56693 0
M  V30 5724 H 527.205 -5.97263 -2.60998 0
M  V30 5725 N 530.638 -0.59345 -1.46 0
M  V30 5726 C 531.863 -0.0872365 -2.07216 0
M  V30 5727 C 532.288 1.2131 -1.43755 0
M  V30 5728 O 531.646 1.73528 -0.525152 0
M  V30 5729 C 531.694 0.0538197 -3.6056 0
M  V30 5730 O 530.798 1.10765 -3.97247 0
M  V30 5731 H 530.139 -0.0676598 -0.660544 0
M  V30 5732 H 532.669 -0.819445 -1.87473 0
M  V30 5733 H 532.679 0.256567 -4.07193 0
M  V30 5734 H 531.354 -0.895739 -4.0614 0
M  V30 5735 H 529.931 0.882501 -3.62307 0
M  V30 5736 N 532.116 1.54067 -0.331816 0
M  V30 5737 C 533.363 2.00715 0.268269 0
M  V30 5738 C 533.691 1.21986 1.51491 0
M  V30 5739 O 532.946 0.292309 1.93505 0
M  V30 5740 C 533.245 3.51634 0.639392 0
M  V30 5741 C 532.911 4.48018 -0.509019 0
M  V30 5742 C 531.573 4.74089 -0.824209 0
M  V30 5743 C 533.925 5.05237 -1.28003 0
M  V30 5744 C 531.253 5.54637 -1.91298 0
M  V30 5745 C 533.605 5.86972 -2.35895 0
M  V30 5746 C 532.269 6.11342 -2.67987 0
M  V30 5747 H 531.539 0.734469 0.0981667 0
M  V30 5748 H 534.186 1.8596 -0.457304 0
M  V30 5749 H 532.491 3.6416 1.44551 0
M  V30 5750 H 534.188 3.85175 1.11539 0
M  V30 5751 H 530.778 4.27851 -0.253287 0
M  V30 5752 H 534.962 4.8507 -1.04978 0
M  V30 5753 H 530.218 5.71747 -2.16599 0
M  V30 5754 H 534.392 6.30327 -2.96076 0
M  V30 5755 H 532.019 6.73544 -3.5248 0
M  V30 5756 N 533.594 0.0601682 1.57485 0
M  V30 5757 C 534.84 -0.606552 1.94146 0
M  V30 5758 C 535.195 -1.67918 0.939225 0
M  V30 5759 O 534.488 -1.91558 -0.0402649 0
M  V30 5760 C 534.682 -1.23831 3.35262 0
M  V30 5761 C 534.511 -0.228408 4.4912 0
M  V30 5762 C 533.281 0.182813 5.04969 0
M  V30 5763 C 535.479 0.52975 5.11564 0
M  V30 5764 N 533.461 1.18464 6.02362 0
M  V30 5765 C 534.832 1.38439 6.04346 0
M  V30 5766 C 536.887 0.587084 4.94427 0
M  V30 5767 C 535.59 2.29125 6.81832 0
M  V30 5768 C 537.616 1.4814 5.72546 0
M  V30 5769 C 536.978 2.32375 6.64967 0
M  V30 5770 H 533.077 -0.193328 0.757726 0
M  V30 5771 H 535.661 0.1346 1.94234 0
M  V30 5772 H 533.832 -1.94944 3.35933 0
M  V30 5773 H 535.564 -1.86456 3.59188 0
M  V30 5774 H 532.319 -0.197968 4.73186 0
M  V30 5775 H 532.743 1.68271 6.55754 0
M  V30 5776 H 537.385 -0.049944 4.22771 0
M  V30 5777 H 535.103 2.93868 7.52773 0
M  V30 5778 H 538.689 1.53045 5.6131 0
M  V30 5779 H 537.569 3.00454 7.2436 0
M  V30 5780 N 535.072 -1.5615 -0.213296 0
M  V30 5781 C 536.318 -1.80718 -0.933402 0
M  V30 5782 C 536.673 -0.634441 -1.81639 0
M  V30 5783 O 535.966 0.371182 -1.8797 0
M  V30 5784 C 536.16 -3.08772 -1.79985 0
M  V30 5785 C 535.989 -4.38389 -1.00224 0
M  V30 5786 C 534.759 -5.00513 -0.693885 0
M  V30 5787 C 536.957 -5.13013 -0.363598 0
M  V30 5788 N 534.939 -6.13774 0.124266 0
M  V30 5789 C 536.31 -6.19186 0.31757 0
M  V30 5790 C 538.365 -4.97126 -0.277468 0
M  V30 5791 C 537.068 -7.11197 1.07664 0
M  V30 5792 C 539.094 -5.89544 0.468155 0
M  V30 5793 C 538.456 -6.95149 1.13784 0
M  V30 5794 H 534.555 -0.712833 -0.321549 0
M  V30 5795 H 537.139 -1.93633 -0.203588 0
M  V30 5796 H 535.31 -2.97126 -2.50142 0
M  V30 5797 H 537.042 -3.21499 -2.45806 0
M  V30 5798 H 533.797 -4.62619 -1.01391 0
M  V30 5799 H 534.221 -6.74981 0.522418 0
M  V30 5800 H 538.863 -4.15526 -0.78087 0
M  V30 5801 H 536.581 -7.92273 1.59153 0
M  V30 5802 H 540.167 -5.79327 0.535911 0
M  V30 5803 H 539.047 -7.65428 1.70557 0
M  V30 5804 N 536.55 0.480323 -1.50102 0
M  V30 5805 C 537.513 1.56181 -1.6775 0
M  V30 5806 C 538.513 1.51156 -0.548503 0
M  V30 5807 O 539.703 1.5394 -0.815363 0
M  V30 5808 C 536.835 2.95823 -1.69415 0
M  V30 5809 H 538.028 1.41855 -2.6423 0
M  V30 5810 H 535.581 0.70605 -1.39444 0
M  V30 5811 H 536.316 3.15604 -0.745948 0
M  V30 5812 H 536.101 3.00878 -2.51425 0
M  V30 5813 H 537.591 3.74359 -1.85054 0
M  V30 5814 N 538.028 1.39524 0.732853 0
M  V30 5815 C 539.277 1.36175 1.48792 0
M  V30 5816 C 539.59 -0.0388195 1.95561 0
M  V30 5817 O 540.796 -0.194899 2.708 0
M  V30 5818 C 539.252 2.39242 2.68871 0
M  V30 5819 C 538.86 3.85024 2.29042 0
M  V30 5820 C 540.604 2.44972 3.46683 0
M  V30 5821 C 538.511 4.79727 3.45856 0
M  V30 5822 H 537.441 0.506267 0.558757 0
M  V30 5823 H 540.092 1.65181 0.799226 0
M  V30 5824 H 538.474 2.0331 3.39825 0
M  V30 5825 H 539.648 4.30008 1.6562 0
M  V30 5826 H 537.963 3.82609 1.64316 0
M  V30 5827 H 540.56 3.12918 4.33574 0
M  V30 5828 H 540.903 1.4749 3.89297 0
M  V30 5829 H 541.436 2.79808 2.82759 0
M  V30 5830 H 538.175 5.78479 3.08289 0
M  V30 5831 H 537.695 4.39421 4.08251 0
M  V30 5832 H 539.374 4.98731 4.12161 0
M  V30 5833 N 539.506 -0.963266 1.24736 0
M  V30 5834 C 540.755 -1.70115 1.08369 0
M  V30 5835 C 541.068 -1.91939 -0.376688 0
M  V30 5836 O 542.274 -2.6334 -0.660624 0
M  V30 5837 C 540.73 -3.06218 1.89099 0
M  V30 5838 C 540.338 -2.92221 3.39574 0
M  V30 5839 C 542.082 -3.83848 1.81275 0
M  V30 5840 C 539.989 -4.23662 4.12631 0
M  V30 5841 H 538.919 -0.637944 0.401924 0
M  V30 5842 H 541.57 -1.07304 1.48856 0
M  V30 5843 H 539.952 -3.69884 1.41429 0
M  V30 5844 H 541.126 -2.37541 3.94856 0
M  V30 5845 H 539.441 -2.28054 3.48397 0
M  V30 5846 H 542.038 -4.81188 2.33158 0
M  V30 5847 H 542.381 -4.08949 0.778895 0
M  V30 5848 H 542.914 -3.26918 2.26649 0
M  V30 5849 H 539.653 -4.03753 5.16395 0
M  V30 5850 H 539.173 -4.78141 3.62135 0
M  V30 5851 H 540.852 -4.92256 4.19873 0
M  V30 5852 N 540.985 -1.06182 -1.16461 0
M  V30 5853 C 542.213 -0.798583 -1.90867 0
M  V30 5854 C 542.628 0.646921 -1.77371 0
M  V30 5855 O 541.985 1.44279 -1.11758 0
M  V30 5856 C 542.036 -1.18258 -3.4161 0
M  V30 5857 O 541.757 -2.57135 -3.54701 0
M  V30 5858 C 543.258 -0.946917 -4.33069 0
M  V30 5859 H 540.478 -0.289603 -0.605286 0
M  V30 5860 H 543.022 -1.41515 -1.47627 0
M  V30 5861 H 541.177 -0.610562 -3.82558 0
M  V30 5862 H 541.591 -2.72477 -4.4817 0
M  V30 5863 H 543.065 -1.26523 -5.37304 0
M  V30 5864 H 543.542 0.117406 -4.39043 0
M  V30 5865 H 544.148 -1.50326 -3.97847 0
M  V30 5866 N 542.463 1.3308 -0.844243 0
M  V30 5867 C 543.396 2.27075 -0.226279 0
M  V30 5868 C 544.374 1.49911 0.629716 0
M  V30 5869 O 545.558 1.79068 0.588803 0
M  V30 5870 C 542.685 3.31767 0.681782 0
M  V30 5871 C 541.731 4.26384 -0.0994565 0
M  V30 5872 S 542.564 5.15186 -1.46094 0
M  V30 5873 C 543.72 6.23405 -0.558319 0
M  V30 5874 H 543.953 2.79141 -1.02312 0
M  V30 5875 H 541.486 1.40452 -0.641292 0
M  V30 5876 H 543.444 3.92566 1.20008 0
M  V30 5877 H 542.105 2.78507 1.45234 0
M  V30 5878 H 541.298 5.00514 0.591733 0
M  V30 5879 H 540.9 3.69949 -0.548991 0
M  V30 5880 H 543.192 6.77069 0.241672 0
M  V30 5881 H 544.135 6.96619 -1.26995 0
M  V30 5882 H 544.543 5.64333 -0.13728 0
M  V30 5883 N 543.941 0.601185 1.45683 0
M  V30 5884 C 545.169 0.100054 2.06658 0
M  V30 5885 C 545.584 -1.21285 1.44691 0
M  V30 5886 O 544.941 -1.73735 0.558772 0
M  V30 5887 C 544.992 -0.0528579 3.61461 0
M  V30 5888 O 544.713 1.20809 4.21114 0
M  V30 5889 C 546.214 -0.586193 4.39407 0
M  V30 5890 H 543.434 0.065905 0.667756 0
M  V30 5891 H 545.978 0.827101 1.87028 0
M  V30 5892 H 544.133 -0.730203 3.80456 0
M  V30 5893 H 544.547 1.03368 5.14213 0
M  V30 5894 H 546.021 -0.642297 5.4825 0
M  V30 5895 H 546.498 -1.60713 4.0874 0
M  V30 5896 H 547.104 0.0568935 4.25262 0
M  V30 5897 N 545.419 -1.53889 0.339982 0
M  V30 5898 C 546.647 -2.05271 -0.259114 0
M  V30 5899 C 547.062 -1.21517 -1.44496 0
M  V30 5900 O 546.419 -0.24966 -1.80784 0
M  V30 5901 C 546.47 -3.55092 -0.677634 0
M  V30 5902 O 546.191 -4.35667 0.461051 0
M  V30 5903 C 547.692 -4.22631 -1.33782 0
M  V30 5904 H 544.912 -0.669085 -0.0506566 0
M  V30 5905 H 547.456 -1.9852 0.490935 0
M  V30 5906 H 545.611 -3.62077 -1.37763 0
M  V30 5907 H 546.025 -5.24343 0.128144 0
M  V30 5908 H 547.499 -5.28861 -1.58145 0
M  V30 5909 H 547.976 -3.74758 -2.29027 0
M  V30 5910 H 548.582 -4.19829 -0.679957 0
M  V30 5911 N 546.897 -0.0685191 -1.57451 0
M  V30 5912 C 548.143 0.602239 -1.93652 0
M  V30 5913 C 548.476 1.6946 -0.948526 0
M  V30 5914 O 547.751 1.94487 0.022782 0
M  V30 5915 C 548.034 1.18223 -3.4014 0
M  V30 5916 C 547.887 0.0967431 -4.49696 0
M  V30 5917 C 549.206 2.08872 -3.87377 0
M  V30 5918 H 546.325 0.217453 -0.70419 0
M  V30 5919 H 548.967 -0.133821 -1.89528 0
M  V30 5920 H 547.117 1.80953 -3.43785 0
M  V30 5921 H 548.789 -0.536155 -4.58174 0
M  V30 5922 H 547.032 -0.573063 -4.29998 0
M  V30 5923 H 547.703 0.542894 -5.49324 0
M  V30 5924 H 550.179 1.56081 -3.85717 0
M  V30 5925 H 549.055 2.46389 -4.90493 0
M  V30 5926 H 549.316 2.99572 -3.25129 0
M  V30 5927 N 548.375 1.56261 0.205012 0
M  V30 5928 C 549.623 1.79684 0.925096 0
M  V30 5929 C 549.944 0.63989 1.84202 0
M  V30 5930 O 549.214 -0.342345 1.92885 0
M  V30 5931 H 547.794 0.662774 0.344587 0
M  V30 5932 H 550.456 1.93734 0.212899 0
M  V30 5933 H 549.552 2.72467 1.52211 0
M  V30 5934 N 549.853 -0.472356 1.50355 0
M  V30 5935 C 551.083 -1.24603 1.64796 0
M  V30 5936 C 551.491 -1.86297 0.330156 0
M  V30 5937 O 550.834 -1.69934 -0.697728 0
M  V30 5938 C 550.896 -2.39578 2.68035 0
M  V30 5939 C 550.56 -1.98531 4.11624 0
M  V30 5940 C 551.557 -1.50856 4.97532 0
M  V30 5941 C 549.242 -2.0729 4.57532 0
M  V30 5942 C 551.236 -1.12481 6.27397 0
M  V30 5943 C 548.923 -1.68527 5.87403 0
M  V30 5944 C 549.921 -1.212 6.7216 0
M  V30 5945 O 549.609 -0.829728 7.99607 0
M  V30 5946 H 549.341 -0.383035 0.55701 0
M  V30 5947 H 551.895 -0.570392 1.97321 0
M  V30 5948 H 550.125 -3.10309 2.30749 0
M  V30 5949 H 551.814 -3.01544 2.71709 0
M  V30 5950 H 552.58 -1.43511 4.63281 0
M  V30 5951 H 548.459 -2.43076 3.91708 0
M  V30 5952 H 552.003 -0.754698 6.93506 0
M  V30 5953 H 547.9 -1.7553 6.21176 0
M  V30 5954 H 548.668 -0.958689 8.12866 0
M  V30 5955 N 551.331 -1.39911 -0.725443 0
M  V30 5956 C 552.579 -1.37382 -1.48224 0
M  V30 5957 C 552.9 0.0264107 -1.94982 0
M  V30 5958 O 552.17 0.979408 -1.6966 0
M  V30 5959 H 550.75 -0.505596 -0.549892 0
M  V30 5960 H 553.412 -1.7487 -0.860608 0
M  V30 5961 H 552.508 -2.04254 -2.3598 0
M  V30 5962 N 552.809 0.956637 -1.25245 0
M  V30 5963 C 554.086 1.67716 -1.00651 0
M  V30 5964 C 554.466 2.0585 0.467866 0
M  V30 5965 O 553.814 1.77029 1.44475 0
M  V30 5966 C 554.024 2.90093 -1.94028 0
M  V30 5967 C 555.372 3.6209 -2.21756 0
M  V30 5968 O 556.396 3.00171 -1.9177 0
M  V30 5969 O 555.255 4.7358 -2.72735 0
M  V30 5970 H 552.349 0.733731 -0.381533 0
M  V30 5971 H 554.895 1.00974 -1.3639 0
M  V30 5972 H 553.667 2.58689 -2.93591 0
M  V30 5973 H 553.29 3.64566 -1.58674 0
M  V30 5974 N 554.287 1.06798 1.15896 0
M  V30 5975 C 555.536 0.782796 1.8589 0
M  V30 5976 C 555.849 -0.693498 1.82893 0
M  V30 5977 O 557.055 -1.09325 2.48516 0
M  V30 5978 C 555.511 1.3502 3.33613 0
M  V30 5979 C 555.119 2.8571 3.45071 0
M  V30 5980 C 556.863 1.14278 4.08829 0
M  V30 5981 C 554.77 3.35669 4.86909 0
M  V30 5982 H 553.7 0.289149 0.696354 0
M  V30 5983 H 556.351 1.28734 1.30766 0
M  V30 5984 H 554.733 0.773407 3.88374 0
M  V30 5985 H 555.907 3.49385 3.00445 0
M  V30 5986 H 554.222 3.05178 2.83294 0
M  V30 5987 H 556.819 1.49087 5.13495 0
M  V30 5988 H 557.162 0.0814575 4.1622 0
M  V30 5989 H 557.695 1.68563 3.60321 0
M  V30 5990 H 554.434 4.41302 4.84698 0
M  V30 5991 H 553.954 2.76745 5.32139 0
M  V30 5992 H 555.633 3.31296 5.55745 0
M  V30 5993 N 555.766 -1.3263 0.851289 0
M  V30 5994 C 556.996 -2.01271 0.466222 0
M  V30 5995 C 557.404 -1.64156 -0.940714 0
M  V30 5996 O 556.747 -0.857109 -1.62479 0
M  V30 5997 C 556.809 -3.55695 0.521672 0
M  V30 5998 C 556.473 -4.16227 1.88691 0
M  V30 5999 C 557.47 -4.34699 2.85189 0
M  V30 6000 C 555.155 -4.52377 2.18313 0
M  V30 6001 C 557.149 -4.88484 4.09465 0
M  V30 6002 C 554.836 -5.05868 3.42843 0
M  V30 6003 C 555.834 -5.23869 4.38235 0
M  V30 6004 O 555.522 -5.76218 5.6056 0
M  V30 6005 H 555.254 -0.651034 0.18202 0
M  V30 6006 H 557.808 -1.7026 1.14894 0
M  V30 6007 H 556.038 -3.86086 -0.217888 0
M  V30 6008 H 557.727 -4.05613 0.152682 0
M  V30 6009 H 558.493 -4.07107 2.63607 0
M  V30 6010 H 554.372 -4.37652 1.44851 0
M  V30 6011 H 557.916 -5.02451 4.83931 0
M  V30 6012 H 553.813 -5.32891 3.64277 0
M  V30 6013 H 554.581 -5.94616 5.62471 0
M  V30 6014 N 557.244 -0.608902 -1.45362 0
M  V30 6015 C 558.655 -0.189511 -1.85736 0
M  V30 6016 C 559.006 1.2539 -1.50903 0
M  V30 6017 O 558.131 1.95094 -0.936347 0
M  V30 6018 C 558.726 -0.33716 -3.37118 0
M  V30 6019 C 557.285 0.0275487 -3.7639 0
M  V30 6020 C 556.432 -0.660983 -2.69307 0
M  V30 6021 H 559.383 -0.815499 -1.36144 0
M  V30 6022 H 559.404 0.430257 -3.7806 0
M  V30 6023 H 558.916 -1.38779 -3.62439 0
M  V30 6024 H 557.017 1.0773 -3.56686 0
M  V30 6025 H 557.13 -0.367018 -4.77692 0
M  V30 6026 H 555.494 -0.0984958 -2.54509 0
M  V30 6027 H 556.277 -1.71377 -2.97464 0
M  V30 6028 N 558.722 1.53707 -0.348139 0
M  V30 6029 C 559.669 2.25173 0.506518 0
M  V30 6030 C 560.639 1.25174 1.09182 0
M  V30 6031 O 561.824 1.53917 1.12757 0
M  V30 6032 C 558.964 3.03141 1.64923 0
M  V30 6033 C 558.077 4.18002 1.0908 0
M  V30 6034 C 557.212 4.83447 2.20119 0
M  V30 6035 C 556.251 5.90369 1.61651 0
M  V30 6036 N 555.388 6.49575 2.66451 0
M  V30 6037 H 560.228 2.97799 -0.109452 0
M  V30 6038 H 557.765 1.46953 -0.0657866 0
M  V30 6039 H 559.723 3.46607 2.32205 0
M  V30 6040 H 558.353 2.32803 2.23612 0
M  V30 6041 H 557.405 3.79145 0.308783 0
M  V30 6042 H 558.717 4.94892 0.623178 0
M  V30 6043 H 557.871 5.30008 2.95257 0
M  V30 6044 H 556.61 4.05991 2.70227 0
M  V30 6045 H 555.615 5.43186 0.850209 0
M  V30 6046 H 556.84 6.69735 1.1239 0
M  V30 6047 H 554.786 5.74981 3.15805 0
M  V30 6048 H 554.703 7.21952 2.24325 0
M  V30 6049 H 555.971 7.00789 3.41344 0
M  V30 6050 N 560.2 0.0768682 1.57412 0
M  V30 6051 C 561.428 -0.59997 1.9801 0
M  V30 6052 C 561.843 -1.62842 0.955408 0
M  V30 6053 O 561.2 -1.8241 -0.057314 0
M  V30 6054 C 561.251 -1.26401 3.38681 0
M  V30 6055 O 560.972 -0.276723 4.37225 0
M  V30 6056 C 562.473 -2.0282 3.94182 0
M  V30 6057 H 559.693 -0.162239 0.651091 0
M  V30 6058 H 562.237 0.150771 2.03943 0
M  V30 6059 H 560.392 -1.96581 3.33819 0
M  V30 6060 H 560.806 -0.753744 5.19056 0
M  V30 6061 H 562.28 -2.44667 4.94815 0
M  V30 6062 H 562.757 -2.88678 3.31001 0
M  V30 6063 H 563.363 -1.37496 4.02461 0
M  V30 6064 N 561.678 -1.56367 -0.196722 0
M  V30 6065 C 562.906 -1.84639 -0.933608 0
M  V30 6066 C 563.321 -0.659164 -1.76919 0
M  V30 6067 O 562.678 0.372142 -1.78665 0
M  V30 6068 C 562.729 -3.11694 -1.83109 0
M  V30 6069 O 562.45 -4.25838 -1.02924 0
M  V30 6070 C 563.951 -3.53132 -2.67979 0
M  V30 6071 H 561.171 -0.613188 -0.272473 0
M  V30 6072 H 563.715 -2.03475 -0.204465 0
M  V30 6073 H 561.87 -2.94759 -2.51387 0
M  V30 6074 H 562.284 -4.98178 -1.64069 0
M  V30 6075 H 563.758 -4.45005 -3.26611 0
M  V30 6076 H 564.235 -2.76045 -3.41608 0
M  V30 6077 H 564.841 -3.72592 -2.05074 0
M  V30 6078 N 563.156 0.464375 -1.50603 0
M  V30 6079 C 564.086 1.56944 -1.72889 0
M  V30 6080 C 565.067 1.59979 -0.577997 0
M  V30 6081 O 566.252 1.76138 -0.817855 0
M  V30 6082 C 563.382 2.95225 -1.8292 0
M  V30 6083 C 562.336 3.07056 -2.98162 0
M  V30 6084 C 561.662 4.47051 -2.93343 0
M  V30 6085 C 562.962 2.83648 -4.38567 0
M  V30 6086 H 564.656 1.38547 -2.65415 0
M  V30 6087 H 562.202 0.665082 -1.27721 0
M  V30 6088 H 564.155 3.72467 -1.97095 0
M  V30 6089 H 562.879 3.14793 -0.870209 0
M  V30 6090 H 561.538 2.32248 -2.83648 0
M  V30 6091 H 561.186 4.63547 -1.95276 0
M  V30 6092 H 560.886 4.55902 -3.70712 0
M  V30 6093 H 562.41 5.26304 -3.09575 0
M  V30 6094 H 563.824 3.50636 -4.53572 0
M  V30 6095 H 562.221 3.03937 -5.17438 0
M  V30 6096 H 563.291 1.79451 -4.50472 0
M  V30 6097 N 564.634 1.40294 0.718013 0
M  V30 6098 C 565.882 1.38167 1.47494 0
M  V30 6099 C 566.203 -0.01607 1.94993 0
M  V30 6100 O 565.473 -0.970396 1.70177 0
M  V30 6101 H 564.053 0.508505 0.547203 0
M  V30 6102 H 566.715 1.75324 0.851322 0
M  V30 6103 H 565.811 2.05503 2.34894 0
M  V30 6104 N 566.112 -0.949982 1.2575 0
M  V30 6105 C 567.059 -2.04738 1.06541 0
M  V30 6106 C 568.029 -1.66078 -0.0268818 0
M  V30 6107 O 569.214 -1.90348 0.131196 0
M  V30 6108 C 566.354 -3.38027 0.695127 0
M  V30 6109 C 565.467 -3.89776 1.86276 0
M  V30 6110 C 564.602 -5.11411 1.4364 0
M  V30 6111 C 563.641 -5.554 2.57287 0
M  V30 6112 N 562.778 -6.68244 2.15395 0
M  V30 6113 H 567.618 -2.20502 2.00457 0
M  V30 6114 H 565.155 -1.0805 0.998178 0
M  V30 6115 H 567.113 -4.14641 0.461375 0
M  V30 6116 H 565.743 -3.22135 -0.207046 0
M  V30 6117 H 564.795 -3.0964 2.20969 0
M  V30 6118 H 566.107 -4.18368 2.71606 0
M  V30 6119 H 565.261 -5.95457 1.16257 0
M  V30 6120 H 564 -4.84545 0.553879 0
M  V30 6121 H 563.005 -4.69916 2.85409 0
M  V30 6122 H 564.23 -5.84272 3.46125 0
M  V30 6123 H 562.176 -6.43078 1.29565 0
M  V30 6124 H 562.093 -6.96377 2.94272 0
M  V30 6125 H 563.361 -7.55687 1.91201 0
M  V30 6126 N 567.59 -1.07411 -1.15328 0
M  V30 6127 C 568.52 -0.716472 -2.22236 0
M  V30 6128 C 569.501 0.296373 -1.67498 0
M  V30 6129 O 570.686 0.168989 -1.93463 0
M  V30 6130 C 567.816 -0.114142 -3.47112 0
M  V30 6131 C 566.77 -1.05421 -4.14814 0
M  V30 6132 C 566.096 -0.314604 -5.33774 0
M  V30 6133 C 567.396 -2.38808 -4.64508 0
M  V30 6134 H 569.09 -1.61029 -2.52408 0
M  V30 6135 H 566.636 -0.775702 -1.21321 0
M  V30 6136 H 568.589 0.148001 -4.2114 0
M  V30 6137 H 567.313 0.814755 -3.16274 0
M  V30 6138 H 565.972 -1.30128 -3.42728 0
M  V30 6139 H 565.62 0.617772 -4.99192 0
M  V30 6140 H 565.32 -0.941209 -5.80013 0
M  V30 6141 H 566.844 -0.0602747 -6.1057 0
M  V30 6142 H 568.258 -2.18424 -5.3006 0
M  V30 6143 H 566.655 -2.97069 -5.21412 0
M  V30 6144 H 567.725 -3.01067 -3.80114 0
M  V30 6145 N 569.068 1.32177 -0.85831 0
M  V30 6146 C 570.016 2.30729 -0.294442 0
M  V30 6147 C 571.01 1.59009 0.584165 0
M  V30 6148 O 572.216 1.73713 0.471562 0
M  V30 6149 H 568.591 0.748097 -0.0765171 0
M  V30 6150 H 570.562 2.75774 -1.1398 0
M  V30 6151 C 569.311 3.44098 0.499208 0
M  V30 6152 H 568.634 3.99449 -0.167579 0
M  V30 6153 H 570.074 4.15202 0.859273 0
M  V30 6154 C 568.533 2.91684 1.68588 0
M  V30 6155 O 569.063 2.89481 2.78503 0
M  V30 6156 N 567.269 2.48036 1.51415 0
M  V30 6157 H 566.816 2.50027 0.620006 0
M  V30 6158 H 566.774 2.13322 2.30957 0
M  V30 6159 N 570.547 0.616602 1.45037 0
M  V30 6160 C 571.51 -0.0871112 2.29034 0
M  V30 6161 C 572.51 -0.786414 1.40258 0
M  V30 6162 O 573.7 -0.633207 1.62284 0
M  V30 6163 C 570.832 -1.13369 3.21497 0
M  V30 6164 H 572.025 0.651497 2.92738 0
M  V30 6165 H 569.578 0.376058 1.51709 0
M  V30 6166 H 570.313 -1.90277 2.62612 0
M  V30 6167 H 570.098 -0.636358 3.86902 0
M  V30 6168 H 571.588 -1.62627 3.84633 0
M  V30 6169 N 572.025 -1.5352 0.356285 0
M  V30 6170 C 572.988 -2.24071 -0.482182 0
M  V30 6171 C 573.988 -1.24531 -1.01729 0
M  V30 6172 O 575.178 -1.48876 -0.904513 0
M  V30 6173 C 572.31 -2.97025 -1.67299 0
M  V30 6174 H 573.503 -2.99596 0.135031 0
M  V30 6175 H 571.056 -1.55928 0.107825 0
M  V30 6176 H 571.791 -2.25719 -2.32855 0
M  V30 6177 H 571.576 -3.7005 -1.29636 0
M  V30 6178 H 573.066 -3.50683 -2.26741 0
M  V30 6179 N 573.503 -0.0852151 -1.57369 0
M  V30 6180 C 574.752 0.580443 -1.93168 0
M  V30 6181 C 575.065 1.6995 -0.968319 0
M  V30 6182 O 576.271 2.42564 -1.21963 0
M  V30 6183 C 574.727 1.08386 -3.43192 0
M  V30 6184 C 574.335 -0.00491388 -4.48 0
M  V30 6185 C 576.079 1.72281 -3.87968 0
M  V30 6186 C 573.986 0.513299 -5.89168 0
M  V30 6187 H 572.916 0.22059 -0.72101 0
M  V30 6188 H 575.567 -0.159621 -1.82804 0
M  V30 6189 H 573.949 1.8773 -3.48674 0
M  V30 6190 H 575.123 -0.780032 -4.5415 0
M  V30 6191 H 573.438 -0.548453 -4.12772 0
M  V30 6192 H 576.035 2.12108 -4.9083 0
M  V30 6193 H 576.378 2.58811 -3.26071 0
M  V30 6194 H 576.911 0.995359 -3.85146 0
M  V30 6195 H 573.65 -0.315153 -6.54742 0
M  V30 6196 H 573.17 1.25564 -5.8651 0
M  V30 6197 H 574.849 0.985433 -6.39451 0
M  V30 6198 N 574.981 1.5647 0.188427 0
M  V30 6199 C 576.206 1.85486 0.927891 0
M  V30 6200 C 576.631 0.669575 1.75779 0
M  V30 6201 O 575.989 -0.381573 1.77239 0
M  V30 6202 C 576.037 3.12784 1.7944 0
M  V30 6203 O 575.141 2.93805 2.894 0
M  V30 6204 H 574.482 0.610585 0.260925 0
M  V30 6205 H 577.012 2.037 0.191729 0
M  V30 6206 H 577.022 3.43749 2.19774 0
M  V30 6207 H 575.697 3.98671 1.18468 0
M  V30 6208 H 574.274 2.74153 2.52774 0
M  V30 6209 N 576.459 -0.456382 1.50847 0
M  V30 6210 C 577.706 -1.20736 1.62571 0
M  V30 6211 C 578.034 -1.9163 0.332904 0
M  V30 6212 O 577.289 -1.8343 -0.682058 0
M  V30 6213 C 577.588 -2.26336 2.76599 0
M  V30 6214 C 577.254 -1.7259 4.16562 0
M  V30 6215 C 575.916 -1.57654 4.54641 0
M  V30 6216 C 578.268 -1.32877 5.03977 0
M  V30 6217 C 575.596 -1.0145 5.77862 0
M  V30 6218 C 577.948 -0.7811 6.27759 0
M  V30 6219 C 576.612 -0.618488 6.64628 0
M  V30 6220 H 575.882 -0.441803 0.594888 0
M  V30 6221 H 578.529 -0.501169 1.84826 0
M  V30 6222 H 576.834 -3.0292 2.48489 0
M  V30 6223 H 578.531 -2.84227 2.82871 0
M  V30 6224 H 575.121 -1.85187 3.86528 0
M  V30 6225 H 579.305 -1.43245 4.75179 0
M  V30 6226 H 574.561 -0.876109 6.0509 0
M  V30 6227 H 578.735 -0.464783 6.94847 0
M  V30 6228 H 576.362 -0.180838 7.59985 0
M  V30 6229 N 577.937 -1.40673 -0.710563 0
M  V30 6230 C 578.867 -1.44095 -1.83736 0
M  V30 6231 C 579.848 -0.301286 -1.67411 0
M  V30 6232 O 581.033 -0.510618 -1.87367 0
M  V30 6233 C 578.163 -1.30773 -3.21738 0
M  V30 6234 C 577.117 -2.42395 -3.52745 0
M  V30 6235 C 576.443 -2.14147 -4.89944 0
M  V30 6236 C 577.743 -3.84738 -3.53234 0
M  V30 6237 H 579.437 -2.38396 -1.81129 0
M  V30 6238 H 576.983 -1.14746 -0.870017 0
M  V30 6239 H 578.936 -1.31783 -4.00264 0
M  V30 6240 H 577.66 -0.329507 -3.24934 0
M  V30 6241 H 576.319 -2.40643 -2.76562 0
M  V30 6242 H 575.967 -1.14703 -4.89747 0
M  V30 6243 H 575.667 -2.88934 -5.11655 0
M  V30 6244 H 577.191 -2.16848 -5.70797 0
M  V30 6245 H 578.605 -3.88286 -4.2179 0
M  V30 6246 H 577.002 -4.59085 -3.86473 0
M  V30 6247 H 578.072 -4.13962 -2.52514 0
M  V30 6248 N 579.415 0.9433 -1.26252 0
M  V30 6249 C 580.655 1.70397 -1.1289 0
M  V30 6250 C 581.019 1.89268 0.322713 0
M  V30 6251 O 582.22 2.62503 0.578418 0
M  V30 6252 C 580.491 3.04296 -1.87453 0
M  V30 6253 S 582.05 3.95475 -1.90119 0
M  V30 6254 H 578.868 0.585559 -0.403289 0
M  V30 6255 H 581.47 1.12424 -1.59941 0
M  V30 6256 H 580.174 2.8824 -2.9214 0
M  V30 6257 H 579.705 3.67327 -1.40835 0
M  V30 6258 H 581.72 4.86297 -0.986373 0
M  V30 6259 N 580.893 1.08022 1.14757 0
M  V30 6260 C 582.141 0.805913 1.85336 0
M  V30 6261 C 582.462 -0.670162 1.83122 0
M  V30 6262 O 581.732 -1.48567 1.2769 0
M  V30 6263 H 580.312 0.295138 0.686223 0
M  V30 6264 H 582.974 1.36538 1.3908 0
M  V30 6265 H 582.07 1.14655 2.90277 0
M  V30 6266 N 582.371 -1.3172 0.865308 0
M  V30 6267 C 583.617 -1.97168 0.474633 0
M  V30 6268 C 583.95 -1.68263 -0.969604 0
M  V30 6269 O 583.225 -0.976588 -1.68205 0
M  V30 6270 C 583.508 -3.52689 0.726808 0
M  V30 6271 C 583.361 -3.91185 2.22024 0
M  V30 6272 C 584.68 -4.39689 0.190201 0
M  V30 6273 H 581.799 -0.716185 0.17392 0
M  V30 6274 H 584.441 -1.55925 1.08569 0
M  V30 6275 H 582.591 -3.8795 0.206705 0
M  V30 6276 H 584.263 -3.66049 2.80724 0
M  V30 6277 H 582.506 -3.3996 2.69462 0
M  V30 6278 H 583.177 -4.99604 2.34735 0
M  V30 6279 H 585.653 -4.11225 0.635103 0
M  V30 6280 H 584.529 -5.47469 0.396132 0
M  V30 6281 H 584.79 -4.32683 -0.907625 0
M  V30 6282 N 583.85 -0.624285 -1.44708 0
M  V30 6283 C 585.099 -0.123539 -2.01321 0
M  V30 6284 C 585.412 1.25966 -1.49639 0
M  V30 6285 O 586.618 1.85405 -1.98336 0
M  V30 6286 C 585.074 -0.170124 -3.59498 0
M  V30 6287 C 584.682 -1.55421 -4.20176 0
M  V30 6288 C 586.426 0.274513 -4.23611 0
M  V30 6289 C 584.332 -1.55628 -5.70556 0
M  V30 6290 H 583.263 -0.0424183 -0.752806 0
M  V30 6291 H 585.913 -0.782076 -1.65999 0
M  V30 6292 H 584.296 0.555385 -3.92086 0
M  V30 6293 H 585.47 -2.30276 -3.99136 0
M  V30 6294 H 583.784 -1.94235 -3.68323 0
M  V30 6295 H 586.382 0.292402 -5.339 0
M  V30 6296 H 586.725 1.3005 -3.95465 0
M  V30 6297 H 587.258 -0.398275 -3.95801 0
M  V30 6298 H 583.997 -2.56041 -6.03426 0
M  V30 6299 H 583.517 -0.850563 -5.93739 0
M  V30 6300 H 585.196 -1.28721 -6.34066 0
M  V30 6301 N 585.328 1.53329 -0.364422 0
M  V30 6302 C 586.291 2.24323 0.470292 0
M  V30 6303 C 587.291 1.25068 1.01067 0
M  V30 6304 O 588.481 1.49354 0.896605 0
M  V30 6305 C 585.613 2.97908 1.65722 0
M  V30 6306 H 586.806 2.9952 -0.150917 0
M  V30 6307 H 584.359 1.55868 -0.116092 0
M  V30 6308 H 585.094 2.2695 2.31655 0
M  V30 6309 H 584.879 3.70732 1.27671 0
M  V30 6310 H 586.369 3.5188 2.24878 0
M  V30 6311 N 586.806 0.0935595 1.57322 0
M  V30 6312 C 588.055 -0.570191 1.93473 0
M  V30 6313 C 588.368 -1.69434 0.977318 0
M  V30 6314 O 589.574 -2.41914 1.23248 0
M  V30 6315 C 588.03 -1.06564 3.43762 0
M  V30 6316 C 587.638 0.0286723 4.47991 0
M  V30 6317 C 589.382 -1.70221 3.88877 0
M  V30 6318 C 587.289 -0.482046 5.89432 0
M  V30 6319 H 586.219 -0.216764 0.72217 0
M  V30 6320 H 588.87 0.169313 1.82717 0
M  V30 6321 H 587.252 -1.85878 3.49664 0
M  V30 6322 H 588.426 0.804106 4.5373 0
M  V30 6323 H 586.741 0.570336 4.12476 0
M  V30 6324 H 589.338 -2.09502 4.91948 0
M  V30 6325 H 589.681 -2.57078 3.27439 0
M  V30 6326 H 590.214 -0.974919 3.85668 0
M  V30 6327 H 586.953 0.349871 6.54566 0
M  V30 6328 H 586.473 -1.22452 5.87167 0
M  V30 6329 H 588.152 -0.951508 6.39965 0
M  V30 6330 N 588.284 -1.56567 -0.180126 0
M  V30 6331 C 589.247 -1.94852 -1.20686 0
M  V30 6332 C 590.247 -0.831212 -1.3765 0
M  V30 6333 O 591.437 -1.09841 -1.35206 0
M  V30 6334 C 588.569 -2.23565 -2.57355 0
M  V30 6335 H 589.762 -2.86722 -0.879225 0
M  V30 6336 H 587.315 -1.50489 -0.422237 0
M  V30 6337 H 588.05 -1.34381 -2.95148 0
M  V30 6338 H 587.835 -3.04999 -2.46411 0
M  V30 6339 H 589.325 -2.54137 -3.31367 0
M  V30 6340 N 589.762 0.448376 -1.51087 0
M  V30 6341 C 590.692 1.55102 -1.74544 0
M  V30 6342 C 591.673 1.59357 -0.594932 0
M  V30 6343 O 592.858 1.75261 -0.836491 0
M  V30 6344 C 589.988 2.93268 -1.86041 0
M  V30 6345 C 588.942 3.03877 -3.01402 0
M  V30 6346 C 588.268 4.43914 -2.98068 0
M  V30 6347 C 589.568 2.7898 -4.41551 0
M  V30 6348 H 591.262 1.35724 -2.66869 0
M  V30 6349 H 588.808 0.651498 -1.28419 0
M  V30 6350 H 590.761 3.70356 -2.01034 0
M  V30 6351 H 589.485 3.13853 -0.903548 0
M  V30 6352 H 588.144 2.29227 -2.86096 0
M  V30 6353 H 587.792 4.6145 -2.00182 0
M  V30 6354 H 587.492 4.51944 -3.75527 0
M  V30 6355 H 589.016 5.22991 -3.1514 0
M  V30 6356 H 590.43 3.45805 -4.57265 0
M  V30 6357 H 588.827 2.98431 -5.20633 0
M  V30 6358 H 589.897 1.74663 -4.5235 0
M  V30 6359 N 591.24 1.41047 0.703093 0
M  V30 6360 C 592.651 1.35657 1.28274 0
M  V30 6361 C 593.002 0.0360309 1.96167 0
M  V30 6362 O 592.127 -0.865833 1.98324 0
M  V30 6363 C 592.722 2.45707 2.33267 0
M  V30 6364 C 591.281 2.43738 2.86825 0
M  V30 6365 C 590.428 2.25941 1.60767 0
M  V30 6366 H 593.379 1.50672 0.49836 0
M  V30 6367 H 593.4 2.14333 3.14391 0
M  V30 6368 H 592.912 3.41805 1.83824 0
M  V30 6369 H 591.013 1.51375 3.40465 0
M  V30 6370 H 591.126 3.39779 3.37768 0
M  V30 6371 H 589.49 1.73681 1.86298 0
M  V30 6372 H 590.273 3.24054 1.1333 0
M  V30 6373 N 592.718 -0.936591 1.26751 0
M  V30 6374 C 593.967 -1.67778 1.11953 0
M  V30 6375 C 594.28 -1.92694 -0.33589 0
M  V30 6376 O 595.486 -2.64682 -0.604618 0
M  V30 6377 C 593.942 -3.02138 1.95551 0
M  V30 6378 C 593.55 -2.84953 3.45696 0
M  V30 6379 C 595.294 -3.79917 1.89377 0
M  V30 6380 C 593.201 -4.14814 4.21525 0
M  V30 6381 H 592.131 -0.629275 0.415366 0
M  V30 6382 H 594.782 -1.04122 1.51099 0
M  V30 6383 H 593.164 -3.668 1.49243 0
M  V30 6384 H 594.338 -2.29112 3.99805 0
M  V30 6385 H 592.653 -2.20612 3.53156 0
M  V30 6386 H 595.25 -4.76134 2.43312 0
M  V30 6387 H 595.593 -4.07204 0.865464 0
M  V30 6388 H 596.126 -3.22037 2.33532 0
M  V30 6389 H 592.865 -3.92709 5.24843 0
M  V30 6390 H 592.385 -4.70352 3.72195 0
M  V30 6391 H 594.064 -4.83239 4.3022 0
M  V30 6392 N 594.196 -1.08629 -1.14182 0
M  V30 6393 C 595.146 -0.687882 -2.17376 0
M  V30 6394 C 596.13 0.293632 -1.58198 0
M  V30 6395 O 597.322 0.105292 -1.76687 0
M  V30 6396 C 594.451 -0.101184 -3.43151 0
M  V30 6397 C 593.537 -1.10862 -4.09354 0
M  V30 6398 N 593.928 -2.29285 -4.50846 0
M  V30 6399 C 592.226 -0.944897 -4.35876 0
M  V30 6400 C 592.927 -2.93305 -5.02342 0
M  V30 6401 N 591.903 -2.20903 -4.96692 0
M  V30 6402 H 595.705 -1.58963 -2.472 0
M  V30 6403 H 593.219 -0.961329 -1.3089 0
M  V30 6404 H 595.216 0.202209 -4.16409 0
M  V30 6405 H 593.876 0.795522 -3.14804 0
M  V30 6406 H 594.887 -2.66927 -4.43813 0
M  V30 6407 H 591.564 -0.102186 -4.17375 0
M  V30 6408 H 592.954 -3.93932 -5.44304 0
M  V30 6409 N 595.674 1.31259 -0.872281 0
M  V30 6410 C 597.085 1.78822 -0.536617 0
M  V30 6411 C 597.436 1.71855 0.946594 0
M  V30 6412 O 596.561 1.28769 1.73918 0
M  V30 6413 C 597.156 3.24698 -0.967294 0
M  V30 6414 C 595.715 3.70147 -0.683251 0
M  V30 6415 C 594.862 2.51994 -1.15733 0
M  V30 6416 H 597.813 1.18308 -1.05777 0
M  V30 6417 H 597.834 3.79386 -0.290929 0
M  V30 6418 H 597.346 3.29737 -2.04683 0
M  V30 6419 H 595.447 3.70607 0.384825 0
M  V30 6420 H 595.56 4.62183 -1.2619 0
M  V30 6421 H 593.924 2.48078 -0.577024 0
M  V30 6422 H 594.707 2.59778 -2.24434 0
M  V30 6423 N 597.152 0.631951 1.44375 0
M  V30 6424 C 598.401 0.134214 2.01253 0
M  V30 6425 C 598.714 -1.25171 1.50305 0
M  V30 6426 O 599.92 -1.8435 1.99317 0
M  V30 6427 C 598.376 0.189187 3.59402 0
M  V30 6428 C 597.984 1.57647 4.19346 0
M  V30 6429 C 599.728 -0.252044 4.23751 0
M  V30 6430 C 597.635 1.58651 5.69722 0
M  V30 6431 H 596.565 0.0464101 0.75257 0
M  V30 6432 H 599.216 0.790868 1.65582 0
M  V30 6433 H 597.598 -0.534584 3.92375 0
M  V30 6434 H 598.772 2.32389 3.97909 0
M  V30 6435 H 597.087 1.96186 3.67288 0
M  V30 6436 H 599.684 -0.264084 5.34047 0
M  V30 6437 H 600.027 -1.27951 3.96149 0
M  V30 6438 H 600.56 0.41926 3.95584 0
M  V30 6439 H 597.299 2.59237 6.0206 0
M  V30 6440 H 596.819 0.882039 5.93279 0
M  V30 6441 H 598.498 1.32082 6.33375 0
M  V30 6442 N 598.631 -1.53133 0.372548 0
M  V30 6443 C 599.88 -2.00539 -0.216115 0
M  V30 6444 C 600.193 -1.26374 -1.49295 0
M  V30 6445 O 601.399 -1.64404 -2.16064 0
M  V30 6446 C 599.855 -3.57253 -0.435678 0
M  V30 6447 C 599.463 -4.40302 0.82693 0
M  V30 6448 C 601.207 -4.12995 -0.981618 0
M  V30 6449 C 599.114 -5.88583 0.576567 0
M  V30 6450 H 598.044 -0.749246 -0.084536 0
M  V30 6451 H 600.695 -1.76771 0.492364 0
M  V30 6452 H 599.077 -3.77202 -1.20559 0
M  V30 6453 H 600.251 -4.32124 1.60017 0
M  V30 6454 H 598.566 -3.95699 1.29659 0
M  V30 6455 H 601.163 -5.21418 -1.18436 0
M  V30 6456 H 601.506 -3.68027 -1.94581 0
M  V30 6457 H 602.039 -3.96871 -0.271696 0
M  V30 6458 H 598.778 -6.37841 1.51128 0
M  V30 6459 H 598.298 -5.99592 -0.158047 0
M  V30 6460 H 599.977 -6.46676 0.204722 0
M  V30 6461 N 600.109 -0.101901 -1.5727 0
M  V30 6462 C 601.057 0.872034 -2.15635 0
M  V30 6463 C 602.051 1.28742 -1.10099 0
M  V30 6464 O 603.257 1.26116 -1.28432 0
M  V30 6465 H 599.632 0.299269 -0.689886 0
M  V30 6466 H 601.603 0.355137 -2.96279 0
M  V30 6467 C 600.352 2.11886 -2.7568 0
M  V30 6468 H 599.675 1.80813 -3.56576 0
M  V30 6469 H 601.115 2.78077 -3.20077 0
M  V30 6470 C 599.574 2.89739 -1.7191 0
M  V30 6471 O 600.104 3.84522 -1.16213 0
M  V30 6472 N 598.31 2.53407 -1.42245 0
M  V30 6473 H 597.857 1.76398 -1.87727 0
M  V30 6474 H 597.815 3.05795 -0.730529 0
M  V30 6475 N 601.587 1.56661 0.17182 0
M  V30 6476 C 602.535 1.97289 1.23207 0
M  V30 6477 C 603.529 0.861566 1.45854 0
M  V30 6478 O 604.735 1.04668 1.4644 0
M  V30 6479 H 601.11 0.627681 0.41415 0
M  V30 6480 H 603.081 2.85662 0.862542 0
M  V30 6481 C 601.83 2.34849 2.564 0
M  V30 6482 H 601.153 3.19903 2.39797 0
M  V30 6483 H 602.593 2.67121 3.29276 0
M  V30 6484 C 601.052 1.19172 3.15119 0
M  V30 6485 O 601.582 0.479113 3.98833 0
M  V30 6486 N 599.788 0.962415 2.74201 0
M  V30 6487 H 599.335 1.54365 2.06226 0
M  V30 6488 H 599.293 0.190272 3.13824 0
M  V30 6489 N 603.065 -0.440357 1.51323 0
M  V30 6490 C 604.312 -1.19004 1.63842 0
M  V30 6491 C 604.64 -1.91266 0.35321 0
M  V30 6492 O 603.895 -1.84143 -0.662565 0
M  V30 6493 C 604.194 -2.2339 2.78984 0
M  V30 6494 C 603.86 -1.68162 4.18369 0
M  V30 6495 C 602.522 -1.52823 4.56288 0
M  V30 6496 C 604.874 -1.27524 5.05358 0
M  V30 6497 C 602.202 -0.953157 5.78906 0
M  V30 6498 C 604.554 -0.714474 6.28552 0
M  V30 6499 C 603.218 -0.547961 6.65247 0
M  V30 6500 H 602.488 -0.435468 0.59954 0
M  V30 6501 H 605.135 -0.481538 1.85347 0
M  V30 6502 H 603.44 -3.00267 2.51688 0
M  V30 6503 H 605.137 -2.81211 2.85869 0
M  V30 6504 H 601.727 -1.81077 3.8847 0
M  V30 6505 H 605.911 -1.38197 4.76671 0
M  V30 6506 H 601.167 -0.811882 6.05986 0
M  V30 6507 H 605.341 -0.391059 6.95301 0
M  V30 6508 H 602.968 -0.100222 7.60134 0
M  V30 6509 N 604.543 -1.41418 -0.695603 0
M  V30 6510 C 605.789 -1.40982 -1.4578 0
M  V30 6511 C 606.122 -0.0187763 -1.94191 0
M  V30 6512 O 605.397 0.95346 -1.69527 0
M  V30 6513 C 605.68 -2.41657 -2.66972 0
M  V30 6514 C 605.533 -3.89869 -2.24327 0
M  V30 6515 C 606.852 -2.39589 -3.69168 0
M  V30 6516 H 603.971 -0.513405 -0.528757 0
M  V30 6517 H 606.613 -1.72693 -0.792275 0
M  V30 6518 H 604.763 -2.14746 -3.23754 0
M  V30 6519 H 606.435 -4.27683 -1.72872 0
M  V30 6520 H 604.678 -4.04737 -1.56111 0
M  V30 6521 H 605.349 -4.55857 -3.11285 0
M  V30 6522 H 607.825 -2.63471 -3.2206 0
M  V30 6523 H 606.701 -3.12044 -4.51575 0
M  V30 6524 H 606.962 -1.41447 -4.18862 0
M  V30 6525 N 606.021 0.929856 -1.27246 0
M  V30 6526 C 607.437 1.20542 -1.04603 0
M  V30 6527 C 607.637 2.00276 0.221754 0
M  V30 6528 O 606.693 2.34835 0.927833 0
M  V30 6529 C 608.006 1.95566 -2.28417 0
M  V30 6530 C 609.554 2.08513 -2.33433 0
M  V30 6531 C 610.029 2.86943 -3.5697 0
M  V30 6532 N 611.52 2.94512 -3.57515 0
M  V30 6533 C 612.255 3.55656 -4.49774 0
M  V30 6534 N 611.751 4.18209 -5.52334 0
M  V30 6535 N 613.544 3.53038 -4.37402 0
M  V30 6536 H 605.695 0.397113 -2.08655 0
M  V30 6537 H 607.958 0.238277 -0.917566 0
M  V30 6538 H 607.664 1.44395 -3.20691 0
M  V30 6539 H 607.538 2.9619 -2.33563 0
M  V30 6540 H 609.925 2.58872 -1.41666 0
M  V30 6541 H 610.006 1.07117 -2.32292 0
M  V30 6542 H 609.65 2.37268 -4.49072 0
M  V30 6543 H 609.58 3.8862 -3.55362 0
M  V30 6544 H 612.071 2.50053 -2.83341 0
M  V30 6545 H 612.384 4.62796 -6.18902 0
M  V30 6546 H 610.729 4.16761 -5.56179 0
M  V30 6547 H 613.92 3.0337 -3.56489 0
M  V30 6548 H 614.093 4.004 -5.09493 0
M  V30 6549 N 607.499 1.09233 1.13605 0
M  V30 6550 C 608.729 0.847677 1.88409 0
M  V30 6551 C 609.137 -0.604524 1.79282 0
M  V30 6552 O 608.48 -1.42773 1.15592 0
M  V30 6553 C 608.542 1.20153 3.38827 0
M  V30 6554 C 608.206 2.65824 3.71735 0
M  V30 6555 C 609.203 3.64072 3.71143 0
M  V30 6556 C 606.888 3.01894 4.01454 0
M  V30 6557 C 608.882 4.96419 3.99808 0
M  V30 6558 C 606.569 4.34433 4.29781 0
M  V30 6559 C 607.567 5.31505 4.28942 0
M  V30 6560 O 607.255 6.61659 4.56576 0
M  V30 6561 H 606.987 0.304813 0.603378 0
M  V30 6562 H 609.541 1.4573 1.44748 0
M  V30 6563 H 607.771 0.534946 3.82982 0
M  V30 6564 H 609.46 0.936349 3.94952 0
M  V30 6565 H 610.226 3.37549 3.4826 0
M  V30 6566 H 606.105 2.26971 4.01255 0
M  V30 6567 H 609.649 5.7218 3.99069 0
M  V30 6568 H 605.546 4.607 4.52135 0
M  V30 6569 H 606.314 6.67102 4.74254 0
M  V30 6570 N 608.977 -1.30795 0.87923 0
M  V30 6571 C 610.207 -2.00237 0.50881 0
M  V30 6572 C 610.615 -1.66115 -0.905682 0
M  V30 6573 O 609.958 -0.89138 -1.60624 0
M  V30 6574 C 610.02 -3.54508 0.597003 0
M  V30 6575 C 609.684 -4.12131 1.97477 0
M  V30 6576 C 610.681 -4.28552 2.94346 0
M  V30 6577 C 608.366 -4.47644 2.2786 0
M  V30 6578 C 610.36 -4.79689 4.19735 0
M  V30 6579 C 608.047 -4.98481 3.53496 0
M  V30 6580 C 609.045 -5.14456 4.49248 0
M  V30 6581 O 608.733 -5.64199 5.72656 0
M  V30 6582 H 608.465 -0.647026 0.195788 0
M  V30 6583 H 611.019 -1.67785 1.1848 0
M  V30 6584 H 609.249 -3.86461 -0.135945 0
M  V30 6585 H 610.938 -4.05198 0.238684 0
M  V30 6586 H 611.704 -4.01424 2.72183 0
M  V30 6587 H 607.583 -4.34481 1.54102 0
M  V30 6588 H 611.127 -4.92073 4.9448 0
M  V30 6589 H 607.024 -5.25044 3.75498 0
M  V30 6590 H 607.792 -5.82551 5.74957 0
M  V30 6591 N 610.455 -0.639598 -1.44038 0
M  V30 6592 C 611.403 0.0723409 -2.32487 0
M  V30 6593 C 612.397 0.827129 -1.47834 0
M  V30 6594 O 613.603 0.73907 -1.64127 0
M  V30 6595 H 609.978 0.0421696 -0.750817 0
M  V30 6596 H 611.949 -0.691593 -2.90275 0
M  V30 6597 C 610.698 1.03452 -3.31953 0
M  V30 6598 H 610.021 0.46315 -3.97108 0
M  V30 6599 H 611.461 1.502 -3.96505 0
M  V30 6600 C 609.92 2.12392 -2.61518 0
M  V30 6601 O 610.45 3.2059 -2.42044 0
M  V30 6602 N 608.656 1.88563 -2.21116 0
M  V30 6603 H 608.203 1.00577 -2.37154 0
M  V30 6604 H 608.161 2.61651 -1.74316 0
M  V30 6605 N 611.933 1.52934 -0.380664 0
M  V30 6606 C 612.88 2.26197 0.458641 0
M  V30 6607 C 613.85 1.27462 1.06502 0
M  V30 6608 O 615.035 1.56274 1.09467 0
M  V30 6609 C 612.175 3.06571 1.58456 0
M  V30 6610 C 611.288 4.20222 1.00189 0
M  V30 6611 C 610.423 4.88007 2.09815 0
M  V30 6612 C 609.462 5.93665 1.49092 0
M  V30 6613 N 608.599 6.55081 2.52613 0
M  V30 6614 H 613.439 2.975 -0.172595 0
M  V30 6615 H 610.976 1.4678 -0.0969426 0
M  V30 6616 H 612.934 3.51455 2.24801 0
M  V30 6617 H 611.564 2.37494 2.18624 0
M  V30 6618 H 610.616 3.79714 0.228292 0
M  V30 6619 H 611.928 4.96102 0.518064 0
M  V30 6620 H 611.082 5.36151 2.83948 0
M  V30 6621 H 609.821 4.11632 2.61555 0
M  V30 6622 H 608.826 5.44868 0.7348 0
M  V30 6623 H 610.051 6.71969 0.981582 0
M  V30 6624 H 607.997 5.8155 3.03538 0
M  V30 6625 H 607.914 7.26548 2.08961 0
M  V30 6626 H 609.182 7.07871 3.26402 0
M  V30 6627 N 613.412 0.11024 1.57214 0
M  V30 6628 C 614.344 -0.873497 2.11902 0
M  V30 6629 C 615.357 -1.23588 1.05971 0
M  V30 6630 O 616.546 -1.18636 1.33371 0
M  V30 6631 C 613.646 -2.17805 2.59643 0
M  V30 6632 C 612.819 -1.98869 3.89576 0
M  V30 6633 C 611.878 -3.12974 4.23006 0
M  V30 6634 O 610.904 -2.86272 4.91973 0
M  V30 6635 N 612.106 -4.39167 3.79622 0
M  V30 6636 H 614.871 -0.406317 2.96933 0
M  V30 6637 H 612.432 -0.074437 1.61729 0
M  V30 6638 H 614.424 -2.93117 2.79042 0
M  V30 6639 H 612.994 -2.55899 1.7954 0
M  V30 6640 H 612.214 -1.078 3.79174 0
M  V30 6641 H 613.502 -1.83512 4.74553 0
M  V30 6642 H 612.9 -4.63739 3.2398 0
M  V30 6643 H 611.457 -5.11379 4.04147 0
M  V30 6644 N 614.89 -1.56749 -0.16351 0
M  V30 6645 C 616.306 -1.51043 -0.515567 0
M  V30 6646 C 616.506 -0.815855 -1.84245 0
M  V30 6647 O 615.562 -0.379477 -2.49632 0
M  V30 6648 C 616.875 -2.95791 -0.541114 0
M  V30 6649 C 618.423 -3.0664 -0.627776 0
M  V30 6650 C 618.898 -4.52861 -0.684141 0
M  V30 6651 N 620.389 -4.5714 -0.746818 0
M  V30 6652 C 621.124 -5.67634 -0.811137 0
M  V30 6653 N 620.62 -6.8774 -0.835811 0
M  V30 6654 N 622.413 -5.55624 -0.850756 0
M  V30 6655 H 614.564 -2.00307 0.70645 0
M  V30 6656 H 616.827 -0.912876 0.255659 0
M  V30 6657 H 616.533 -3.49797 0.365329 0
M  V30 6658 H 616.407 -3.50858 -1.38487 0
M  V30 6659 H 618.794 -2.52663 -1.52464 0
M  V30 6660 H 618.875 -2.54645 0.242805 0
M  V30 6661 H 618.519 -5.07472 0.2085 0
M  V30 6662 H 618.449 -5.02621 -1.57098 0
M  V30 6663 H 620.94 -3.70669 -0.735717 0
M  V30 6664 H 621.253 -7.67701 -0.886279 0
M  V30 6665 H 619.598 -6.90334 -0.803958 0
M  V30 6666 H 622.789 -4.60709 -0.828535 0
M  V30 6667 H 622.962 -6.41756 -0.897418 0
M  V30 6668 N 616.368 0.432326 -1.51554 0
M  V30 6669 C 617.614 1.18309 -1.64714 0
M  V30 6670 C 617.947 1.90745 -0.364696 0
M  V30 6671 O 617.222 1.8381 0.635936 0
M  V30 6672 C 617.505 2.1961 -2.85383 0
M  V30 6673 C 617.358 1.51223 -4.23617 0
M  V30 6674 C 618.677 3.20538 -3.01569 0
M  V30 6675 H 615.796 0.428751 -0.599451 0
M  V30 6676 H 618.438 0.471689 -1.84052 0
M  V30 6677 H 616.588 2.8028 -2.69027 0
M  V30 6678 H 618.26 0.938516 -4.51652 0
M  V30 6679 H 616.503 0.814501 -4.26085 0
M  V30 6680 H 617.174 2.25024 -5.04052 0
M  V30 6681 H 619.65 2.69926 -3.16669 0
M  V30 6682 H 618.526 3.88706 -3.87555 0
M  V30 6683 H 618.787 3.86933 -2.13859 0
M  V30 6684 N 617.846 1.41785 0.688094 0
M  V30 6685 C 618.776 1.47 1.8142 0
M  V30 6686 C 619.757 0.327881 1.6691 0
M  V30 6687 O 620.942 0.540362 1.86531 0
M  V30 6688 C 618.072 1.35876 3.19617 0
M  V30 6689 C 617.026 2.47976 3.48844 0
M  V30 6690 C 616.352 2.21915 4.86475 0
M  V30 6691 C 617.652 3.90309 3.47068 0
M  V30 6692 H 619.346 2.41247 1.77314 0
M  V30 6693 H 616.892 1.16116 0.851651 0
M  V30 6694 H 618.845 1.38134 3.98117 0
M  V30 6695 H 617.569 0.38116 3.24368 0
M  V30 6696 H 616.228 2.45013 2.72698 0
M  V30 6697 H 615.876 1.2248 4.8786 0
M  V30 6698 H 615.576 2.97037 5.06994 0
M  V30 6699 H 617.1 2.25901 5.67275 0
M  V30 6700 H 618.514 3.94947 4.1556 0
M  V30 6701 H 616.911 4.65175 3.7912 0
M  V30 6702 H 617.981 4.17927 2.45896 0
M  V30 6703 N 619.324 -0.923095 1.27737 0
M  V30 6704 C 620.234 -2.05765 1.12685 0
M  V30 6705 C 621.25 -1.73911 0.0557197 0
M  V30 6706 O 622.426 -1.99674 0.263137 0
M  V30 6707 C 619.491 -3.37804 0.780363 0
M  V30 6708 C 618.552 -3.83326 1.93286 0
M  V30 6709 C 617.785 -5.09064 1.60281 0
M  V30 6710 O 618.008 -5.6809 0.512828 0
M  V30 6711 O 616.942 -5.50071 2.44347 0
M  V30 6712 H 620.768 -2.21378 2.07907 0
M  V30 6713 H 618.353 -1.04299 1.06968 0
M  V30 6714 H 620.235 -4.17097 0.600668 0
M  V30 6715 H 618.91 -3.23387 -0.142291 0
M  V30 6716 H 617.817 -3.049 2.16764 0
M  V30 6717 H 619.15 -4.02292 2.83588 0
M  V30 6718 N 620.802 -1.09834 -1.13024 0
M  V30 6719 C 622.03 -0.858902 -1.8823 0
M  V30 6720 C 622.445 0.590164 -1.79339 0
M  V30 6721 O 621.802 1.4065 -1.16292 0
M  V30 6722 C 621.853 -1.29066 -3.37675 0
M  V30 6723 O 621.574 -2.6829 -3.46341 0
M  V30 6724 C 623.075 -1.08421 -4.29837 0
M  V30 6725 H 620.295 -0.308713 -0.595766 0
M  V30 6726 H 622.839 -1.4614 -1.4305 0
M  V30 6727 H 620.994 -0.731961 -3.80422 0
M  V30 6728 H 621.408 -2.86598 -4.39274 0
M  V30 6729 H 622.882 -1.43553 -5.33007 0
M  V30 6730 H 623.359 -0.0223315 -4.39194 0
M  V30 6731 H 623.965 -1.62907 -3.92863 0
M  V30 6732 N 622.28 1.30327 -0.886154 0
M  V30 6733 C 623.243 2.26376 -0.358687 0
M  V30 6734 C 624.243 1.52845 0.499498 0
M  V30 6735 O 625.433 1.71483 0.306485 0
M  V30 6736 C 622.565 3.37379 0.488726 0
M  V30 6737 H 623.758 2.74547 -1.20681 0
M  V30 6738 H 621.311 1.41536 -0.663113 0
M  V30 6739 H 622.046 2.94526 1.35739 0
M  V30 6740 H 621.831 3.91897 -0.126003 0
M  V30 6741 H 623.321 4.08868 0.84952 0
M  V30 6742 N 623.758 0.647228 1.43697 0
M  V30 6743 C 624.721 -0.0385101 2.29168 0
M  V30 6744 C 625.721 -0.756487 1.41894 0
M  V30 6745 O 626.911 -0.598641 1.63591 0
M  V30 6746 C 624.043 -1.06524 3.23829 0
M  V30 6747 H 625.236 0.713445 2.9129 0
M  V30 6748 H 622.789 0.408153 1.50877 0
M  V30 6749 H 623.524 -1.84664 2.66589 0
M  V30 6750 H 623.309 -0.554147 3.88164 0
M  V30 6751 H 624.799 -1.54432 3.87996 0
M  V30 6752 N 625.236 -1.5273 0.388769 0
M  V30 6753 C 626.183 -2.26437 -0.446639 0
M  V30 6754 C 627.153 -1.28025 -1.05824 0
M  V30 6755 O 628.338 -1.56852 -1.08637 0
M  V30 6756 C 625.478 -3.07407 -1.56828 0
M  V30 6757 C 624.591 -4.20747 -0.979589 0
M  V30 6758 C 623.726 -4.89113 -2.07224 0
M  V30 6759 C 622.765 -5.94447 -1.45942 0
M  V30 6760 N 621.902 -6.56411 -2.49135 0
M  V30 6761 H 626.742 -2.97404 0.18837 0
M  V30 6762 H 624.279 -1.46727 0.104725 0
M  V30 6763 H 626.237 -3.52642 -2.22934 0
M  V30 6764 H 624.867 -2.3865 -2.17361 0
M  V30 6765 H 623.919 -3.7983 -0.208151 0
M  V30 6766 H 625.231 -4.9637 -0.491747 0
M  V30 6767 H 624.385 -5.3765 -2.81101 0
M  V30 6768 H 623.124 -4.13013 -2.59368 0
M  V30 6769 H 622.129 -5.4525 -0.705894 0
M  V30 6770 H 623.354 -6.7248 -0.945932 0
M  V30 6771 H 621.3 -5.83152 -3.00449 0
M  V30 6772 H 621.217 -7.27645 -2.05105 0
M  V30 6773 H 622.485 -7.09592 -3.22644 0
M  V30 6774 N 626.714 -0.118576 -1.57153 0
M  V30 6775 C 627.664 0.842924 -2.11846 0
M  V30 6776 C 628.648 1.22845 -1.03914 0
M  V30 6777 O 629.84 1.19961 -1.30148 0
M  V30 6778 C 626.969 2.09312 -2.72109 0
M  V30 6779 C 626.055 1.73198 -3.87122 0
M  V30 6780 N 626.446 1.07758 -4.94188 0
M  V30 6781 C 624.744 2.02659 -3.97298 0
M  V30 6782 C 625.445 0.907741 -5.74574 0
M  V30 6783 N 624.421 1.4326 -5.24383 0
M  V30 6784 H 628.223 0.333416 -2.92003 0
M  V30 6785 H 625.737 0.0839073 -1.62183 0
M  V30 6786 H 627.734 2.79162 -3.09635 0
M  V30 6787 H 626.394 2.60807 -1.93416 0
M  V30 6788 H 627.405 0.741613 -5.12563 0
M  V30 6789 H 624.082 2.56204 -3.29645 0
M  V30 6790 H 625.472 0.394112 -6.70743 0
M  V30 6791 N 628.193 1.56834 0.155195 0
M  V30 6792 C 629.103 2.009 1.21146 0
M  V30 6793 C 630.119 0.923029 1.475 0
M  V30 6794 O 631.295 1.23189 1.59331 0
M  V30 6795 C 628.36 2.37378 2.52691 0
M  V30 6796 C 627.421 3.59883 2.34057 0
M  V30 6797 C 626.654 3.94612 3.59329 0
M  V30 6798 O 626.877 3.30104 4.65175 0
M  V30 6799 O 625.811 4.87895 3.52479 0
M  V30 6800 H 629.637 2.9105 0.867371 0
M  V30 6801 H 627.222 1.44916 0.363298 0
M  V30 6802 H 629.104 2.61737 3.3026 0
M  V30 6803 H 627.779 1.50385 2.86646 0
M  V30 6804 H 626.686 3.40722 1.54465 0
M  V30 6805 H 628.019 4.47468 2.0502 0
M  V30 6806 N 629.671 -0.424282 1.51781 0
M  V30 6807 C 630.601 -1.52305 1.7699 0
M  V30 6808 C 631.582 -1.5839 0.620209 0
M  V30 6809 O 632.767 -1.73908 0.864268 0
M  V30 6810 C 629.897 -2.90271 1.90683 0
M  V30 6811 C 628.851 -2.99043 3.06198 0
M  V30 6812 C 628.177 -4.39116 3.05092 0
M  V30 6813 C 629.477 -2.7192 4.45934 0
M  V30 6814 H 631.171 -1.31461 2.68995 0
M  V30 6815 H 628.717 -0.630985 1.29439 0
M  V30 6816 H 630.67 -3.6711 2.06901 0
M  V30 6817 H 629.394 -3.12376 0.953365 0
M  V30 6818 H 628.053 -2.24646 2.89706 0
M  V30 6819 H 627.701 -4.58207 2.07498 0
M  V30 6820 H 627.401 -4.45912 3.82669 0
M  V30 6821 H 628.925 -5.17911 3.2342 0
M  V30 6822 H 630.339 -3.38487 4.62709 0
M  V30 6823 H 628.736 -2.90111 5.25315 0
M  V30 6824 H 629.806 -1.67445 4.55072 0
M  V30 6825 N 631.149 -1.42148 -0.680565 0
M  V30 6826 C 632.059 -1.47565 -1.82378 0
M  V30 6827 C 633.075 -0.36489 -1.70131 0
M  V30 6828 O 634.251 -0.614916 -1.91783 0
M  V30 6829 C 631.316 -1.37013 -3.18478 0
M  V30 6830 C 630.377 -2.58532 -3.42724 0
M  V30 6831 C 629.61 -2.48473 -4.72331 0
M  V30 6832 O 629.833 -1.51745 -5.49845 0
M  V30 6833 O 628.767 -3.38503 -4.97694 0
M  V30 6834 H 632.593 -2.44045 -1.80764 0
M  V30 6835 H 630.178 -1.23849 -0.835569 0
M  V30 6836 H 632.06 -1.33468 -3.99705 0
M  V30 6837 H 630.735 -0.436552 -3.20743 0
M  V30 6838 H 629.642 -2.67652 -2.61368 0
M  V30 6839 H 630.975 -3.50769 -3.45286 0
M  V30 6840 N 632.627 0.916307 -1.28225 0
M  V30 6841 C 633.557 2.0352 -1.14464 0
M  V30 6842 C 634.538 1.70045 -0.0430844 0
M  V30 6843 O 635.723 1.92954 -0.219619 0
M  V30 6844 C 632.853 3.37889 -0.803027 0
M  V30 6845 C 631.807 3.85516 -1.85908 0
M  V30 6846 C 631.133 5.1682 -1.37116 0
M  V30 6847 C 632.433 4.07655 -3.26519 0
M  V30 6848 H 634.127 2.1529 -2.08064 0
M  V30 6849 H 631.673 1.03446 -1.00174 0
M  V30 6850 H 633.626 4.15654 -0.693537 0
M  V30 6851 H 632.35 3.26164 0.168674 0
M  V30 6852 H 631.009 3.09953 -1.95767 0
M  V30 6853 H 630.657 5.01497 -0.38859 0
M  V30 6854 H 630.357 5.49657 -2.07728 0
M  V30 6855 H 631.881 5.97143 -1.27484 0
M  V30 6856 H 633.295 4.75953 -3.19596 0
M  V30 6857 H 631.692 4.51818 -3.94943 0
M  V30 6858 H 632.762 3.12553 -3.70727 0
M  V30 6859 N 634.105 1.10431 1.1244 0
M  V30 6860 C 635.038 0.696987 2.17296 0
M  V30 6861 C 636.016 -0.301673 1.59777 0
M  V30 6862 O 637.2 -0.200583 1.8743 0
M  V30 6863 C 634.327 0.0284094 3.38688 0
M  V30 6864 C 633.373 0.990536 4.14838 0
M  V30 6865 S 634.206 2.50785 4.73146 0
M  V30 6866 C 635.362 1.85198 5.97873 0
M  V30 6867 H 635.595 1.58523 2.51511 0
M  V30 6868 H 633.128 0.921312 1.239 0
M  V30 6869 H 635.086 -0.351009 4.08997 0
M  V30 6870 H 633.747 -0.836629 3.02753 0
M  V30 6871 H 632.94 0.469991 5.01804 0
M  V30 6872 H 632.542 1.31186 3.50237 0
M  V30 6873 H 634.834 1.18217 6.67106 0
M  V30 6874 H 635.777 2.7012 6.54554 0
M  V30 6875 H 636.185 1.31653 5.48933 0
M  V30 6876 N 635.583 -1.29855 0.893053 0
M  V30 6877 C 636.493 -2.31661 0.370157 0
M  V30 6878 C 637.509 -1.65677 -0.531723 0
M  V30 6879 O 638.685 -1.9691 -0.422902 0
M  V30 6880 C 635.75 -3.44388 -0.399741 0
M  V30 6881 C 634.811 -4.2598 0.532861 0
M  V30 6882 C 634.044 -5.33324 -0.200388 0
M  V30 6883 O 634.267 -5.52305 -1.42531 0
M  V30 6884 O 633.201 -6.00188 0.453668 0
M  V30 6885 H 637.027 -2.78354 1.2146 0
M  V30 6886 H 634.612 -1.34171 0.657153 0
M  V30 6887 H 636.494 -4.13037 -0.835358 0
M  V30 6888 H 635.169 -2.99815 -1.22035 0
M  V30 6889 H 634.076 -3.59998 1.01746 0
M  V30 6890 H 635.409 -4.74178 1.3197 0
M  V30 6891 N 637.061 -0.65484 -1.43351 0
M  V30 6892 C 637.991 0.0221809 -2.33489 0
M  V30 6893 C 638.972 0.810272 -1.49561 0
M  V30 6894 O 640.157 0.771426 -1.78221 0
M  V30 6895 C 637.287 0.988117 -3.32947 0
M  V30 6896 C 636.241 0.310026 -4.26876 0
M  V30 6897 C 635.567 1.38752 -5.16384 0
M  V30 6898 C 636.867 -0.798589 -5.16159 0
M  V30 6899 H 638.561 -0.730571 -2.9035 0
M  V30 6900 H 636.107 -0.352773 -1.39612 0
M  V30 6901 H 638.06 1.47067 -3.94904 0
M  V30 6902 H 636.784 1.77205 -2.74346 0
M  V30 6903 H 635.443 -0.152097 -3.66284 0
M  V30 6904 H 635.091 2.16293 -4.54121 0
M  V30 6905 H 634.791 0.939051 -5.80048 0
M  V30 6906 H 636.315 1.87141 -5.81215 0
M  V30 6907 H 637.729 -0.398126 -5.71916 0
M  V30 6908 H 636.126 -1.17163 -5.88552 0
M  V30 6909 H 637.196 -1.65588 -4.55751 0
M  V30 6910 N 638.539 1.52521 -0.396863 0
M  V30 6911 C 639.487 2.28217 0.44943 0
M  V30 6912 C 640.481 1.32416 1.05652 0
M  V30 6913 O 641.687 1.49925 0.996124 0
M  V30 6914 H 638.062 0.733966 0.1637 0
M  V30 6915 H 640.033 2.97658 -0.210367 0
M  V30 6916 C 638.782 3.10713 1.56054 0
M  V30 6917 H 638.105 3.84291 1.10273 0
M  V30 6918 H 639.545 3.66803 2.12677 0
M  V30 6919 C 638.004 2.23499 2.52091 0
M  V30 6920 O 638.534 1.8669 3.55682 0
M  V30 6921 N 636.74 1.8751 2.2201 0
M  V30 6922 H 636.287 2.17643 1.37802 0
M  V30 6923 H 636.245 1.29448 2.86514 0
M  V30 6924 N 640.017 0.126909 1.57088 0
M  V30 6925 C 641.242 -0.53997 2.00248 0
M  V30 6926 C 641.667 -1.58927 1.00618 0
M  V30 6927 O 641.025 -1.81288 -0.0210131 0
M  V30 6928 C 641.073 -1.13565 3.4225 0
M  V30 6929 O 640.177 -2.25103 3.45547 0
M  V30 6930 H 639.518 -0.13412 0.650314 0
M  V30 6931 H 642.048 0.217718 2.03438 0
M  V30 6932 H 642.058 -1.46925 3.80627 0
M  V30 6933 H 640.733 -0.367122 4.14277 0
M  V30 6934 H 639.31 -1.93123 3.18995 0
M  V30 6935 N 641.495 -1.56914 -0.146875 0
M  V30 6936 C 642.72 -1.87881 -0.878386 0
M  V30 6937 C 643.145 -0.715945 -1.73942 0
M  V30 6938 O 642.503 0.334447 -1.78189 0
M  V30 6939 C 642.551 -3.17431 -1.71084 0
M  V30 6940 O 641.655 -3.01374 -2.81509 0
M  V30 6941 H 640.996 -0.617289 -0.244644 0
M  V30 6942 H 643.526 -2.04136 -0.137654 0
M  V30 6943 H 643.536 -3.49455 -2.10582 0
M  V30 6944 H 642.211 -4.01671 -1.07856 0
M  V30 6945 H 640.788 -2.80758 -2.45416 0
M  V30 6946 N 642.974 0.416227 -1.52004 0
M  V30 6947 C 644.199 1.19029 -1.69843 0
M  V30 6948 C 644.624 1.83708 -0.404103 0
M  V30 6949 O 643.982 1.69711 0.637787 0
M  V30 6950 C 644.03 2.23439 -2.83032 0
M  V30 6951 O 643.134 3.29419 -2.48106 0
M  V30 6952 H 642.475 0.347785 -0.565634 0
M  V30 6953 H 645.005 0.488871 -1.98674 0
M  V30 6954 H 645.015 2.67884 -3.07737 0
M  V30 6955 H 643.69 1.75745 -3.76944 0
M  V30 6956 H 642.267 2.90303 -2.34048 0
M  V30 6957 N 644.452 1.42507 0.673017 0
M  V30 6958 C 645.7 1.42789 1.43023 0
M  V30 6959 C 646.021 0.0459738 1.94946 0
M  V30 6960 O 645.291 -0.915765 1.73178 0
M  V30 6961 H 643.871 0.525657 0.530748 0
M  V30 6962 H 646.533 1.77944 0.795113 0
M  V30 6963 H 645.629 2.12872 2.28237 0
M  V30 6964 N 645.93 -0.909495 1.28709 0
M  V30 6965 C 647.178 -1.65577 1.15882 0
M  V30 6966 C 647.499 -1.928 -0.292108 0
M  V30 6967 O 646.769 -1.54716 -1.20166 0
M  V30 6968 H 645.349 -0.613714 0.425869 0
M  V30 6969 H 648.011 -1.09108 1.61498 0
M  V30 6970 H 647.107 -2.61634 1.70159 0
M  V30 6971 N 647.408 -1.11026 -1.11852 0
M  V30 6972 C 648.318 -0.777252 -2.2135 0
M  V30 6973 C 649.334 0.227821 -1.72502 0
M  V30 6974 O 650.51 0.0650587 -2.01295 0
M  V30 6975 C 647.575 -0.220668 -3.45997 0
M  V30 6976 C 646.636 -1.2838 -4.09655 0
M  V30 6977 C 645.869 -0.753678 -5.28352 0
M  V30 6978 O 646.092 0.417779 -5.68868 0
M  V30 6979 O 645.026 -1.51647 -5.82483 0
M  V30 6980 H 648.852 -1.69141 -2.5224 0
M  V30 6981 H 646.437 -0.885836 -1.20305 0
M  V30 6982 H 648.319 0.0855756 -4.21313 0
M  V30 6983 H 646.994 0.666262 -3.16769 0
M  V30 6984 H 645.901 -1.64299 -3.3609 0
M  V30 6985 H 647.234 -2.14396 -4.43052 0
M  V30 6986 N 648.886 1.2938 -0.899927 0
M  V30 6987 C 650.134 1.95164 -0.524924 0
M  V30 6988 C 650.455 1.71292 0.931888 0
M  V30 6989 O 649.725 1.04481 1.65712 0
M  V30 6990 H 648.305 0.722133 -0.191135 0
M  V30 6991 H 650.967 1.57628 -1.14627 0
M  V30 6992 H 650.063 3.0397 -0.707711 0
M  V30 6993 N 650.364 0.662433 1.43002 0
M  V30 6994 C 651.311 -0.0235324 2.30788 0
M  V30 6995 C 652.281 -0.805342 1.4527 0
M  V30 6996 O 653.466 -0.78009 1.74124 0
M  V30 6997 C 650.606 -0.977545 3.30965 0
M  V30 6998 C 649.719 -0.190865 4.31578 0
M  V30 6999 C 648.854 -1.13951 5.18834 0
M  V30 7000 C 647.893 -0.343796 6.11134 0
M  V30 7001 N 647.03 -1.2445 6.90982 0
M  V30 7002 H 651.87 0.730921 2.88897 0
M  V30 7003 H 649.407 0.372197 1.42313 0
M  V30 7004 H 651.365 -1.54437 3.87563 0
M  V30 7005 H 649.995 -1.69877 2.74484 0
M  V30 7006 H 649.047 0.492388 3.772 0
M  V30 7007 H 650.359 0.427464 4.96965 0
M  V30 7008 H 649.513 -1.77666 5.80103 0
M  V30 7009 H 648.252 -1.79174 4.53595 0
M  V30 7010 H 647.257 0.30665 5.48944 0
M  V30 7011 H 648.482 0.304161 6.78419 0
M  V30 7012 H 646.428 -1.88336 6.28383 0
M  V30 7013 H 646.345 -0.680959 7.52927 0
M  V30 7014 H 647.613 -1.86952 7.56749 0
M  V30 7015 N 651.842 -1.52309 0.404946 0
M  V30 7016 C 653.07 -2.06185 -0.171818 0
M  V30 7017 C 653.485 -1.27536 -1.39212 0
M  V30 7018 O 652.842 -0.326112 -1.79563 0
M  V30 7019 C 652.893 -3.57647 -0.526417 0
M  V30 7020 O 652.614 -4.3332 0.645417 0
M  V30 7021 C 654.115 -4.27925 -1.15736 0
M  V30 7022 H 651.335 -0.670632 -0.0222328 0
M  V30 7023 H 653.879 -1.96259 0.574692 0
M  V30 7024 H 652.034 -3.67595 -1.22282 0
M  V30 7025 H 652.448 -5.23328 0.35042 0
M  V30 7026 H 653.922 -5.35093 -1.35572 0
M  V30 7027 H 654.399 -3.84134 -2.12926 0
M  V30 7028 H 655.005 -4.22335 -0.501281 0
M  V30 7029 N 653.32 -0.135238 -1.57019 0
M  V30 7030 C 654.568 0.51777 -1.95355 0
M  V30 7031 C 654.889 1.6617 -1.02042 0
M  V30 7032 O 654.159 1.95738 -0.0797343 0
M  V30 7033 H 652.739 0.194264 -0.721298 0
M  V30 7034 H 655.401 -0.207983 -1.93787 0
M  V30 7035 H 654.497 0.901675 -2.98791 0
M  V30 7036 N 654.798 1.5699 0.138552 0
M  V30 7037 C 656.046 1.83446 0.848053 0
M  V30 7038 C 656.367 0.71744 1.81322 0
M  V30 7039 O 655.637 -0.260228 1.94164 0
M  V30 7040 H 654.217 0.676792 0.316166 0
M  V30 7041 H 656.879 1.94462 0.130538 0
M  V30 7042 H 655.975 2.78677 1.40518 0
M  V30 7043 N 656.276 -0.40816 1.52223 0
M  V30 7044 C 657.501 -1.18127 1.70472 0
M  V30 7045 C 657.926 -1.83491 0.41384 0
M  V30 7046 O 657.284 -1.70047 -0.628778 0
M  V30 7047 C 657.332 -2.21935 2.84213 0
M  V30 7048 O 656.436 -3.28099 2.4985 0
M  V30 7049 H 655.777 -0.344781 0.56747 0
M  V30 7050 H 658.307 -0.478328 1.9893 0
M  V30 7051 H 658.317 -2.66248 3.09153 0
M  V30 7052 H 656.992 -1.73744 3.7787 0
M  V30 7053 H 655.569 -2.89058 2.35584 0
M  V30 7054 N 657.755 -1.42862 -0.66545 0
M  V30 7055 C 659.171 -1.25993 -0.979687 0
M  V30 7056 C 659.371 -0.170831 -2.00775 0
M  V30 7057 O 658.427 0.454827 -2.4837 0
M  V30 7058 C 659.74 -2.62005 -1.47559 0
M  V30 7059 C 661.288 -2.69437 -1.59288 0
M  V30 7060 C 661.763 -4.05838 -2.12272 0
M  V30 7061 N 663.254 -4.0784 -2.19592 0
M  V30 7062 C 663.989 -5.10205 -2.61684 0
M  V30 7063 N 663.485 -6.22949 -3.03161 0
M  V30 7064 N 665.278 -4.9756 -2.61516 0
M  V30 7065 H 657.429 -2.12395 0.0150493 0
M  V30 7066 H 659.692 -0.946355 -0.0558187 0
M  V30 7067 H 659.398 -3.42605 -0.794654 0
M  V30 7068 H 659.272 -2.86566 -2.45275 0
M  V30 7069 H 661.659 -1.89178 -2.26486 0
M  V30 7070 H 661.74 -2.48655 -0.600374 0
M  V30 7071 H 661.384 -4.86559 -1.4568 0
M  V30 7072 H 661.314 -4.23977 -3.12331 0
M  V30 7073 H 663.805 -3.26452 -1.90361 0
M  V30 7074 H 664.118 -6.96899 -3.33993 0
M  V30 7075 H 662.463 -6.2644 -3.00995 0
M  V30 7076 H 665.654 -4.08551 -2.28481 0
M  V30 7077 H 665.827 -5.77468 -2.93999 0
M  V30 7078 N 659.233 0.902656 -1.29189 0
M  V30 7079 C 660.458 1.69167 -1.19989 0
M  V30 7080 C 660.883 1.86607 0.236495 0
M  V30 7081 O 660.241 1.38425 1.17082 0
M  V30 7082 C 660.289 3.05532 -1.91527 0
M  V30 7083 O 659.393 3.93621 -1.2303 0
M  V30 7084 H 658.734 0.517584 -0.415936 0
M  V30 7085 H 661.264 1.12785 -1.70706 0
M  V30 7086 H 661.274 3.55693 -1.99866 0
M  V30 7087 H 659.949 2.92156 -2.96003 0
M  V30 7088 H 658.526 3.52055 -1.22928 0
M  V30 7089 N 660.711 1.11618 1.11262 0
M  V30 7090 C 661.988 0.777876 1.79467 0
M  V30 7091 C 662.368 -0.733774 1.97937 0
M  V30 7092 O 661.716 -1.66443 1.56554 0
M  V30 7093 C 661.926 1.5431 3.13032 0
M  V30 7094 C 663.274 1.72357 3.88044 0
M  V30 7095 O 664.298 1.5075 3.22727 0
M  V30 7096 O 663.157 2.08276 5.05256 0
M  V30 7097 H 660.251 0.282018 0.777428 0
M  V30 7098 H 662.797 1.21971 1.17988 0
M  V30 7099 H 661.569 2.57132 2.94956 0
M  V30 7100 H 661.192 1.09495 3.82226 0
M  V30 7101 N 662.189 -1.289 0.906776 0
M  V30 7102 C 663.119 -2.29932 0.406659 0
M  V30 7103 C 664.1 -1.6189 -0.522061 0
M  V30 7104 O 665.285 -1.8935 -0.431283 0
M  V30 7105 C 662.415 -3.45425 -0.360366 0
M  V30 7106 C 661.369 -4.25316 0.478574 0
M  V30 7107 C 660.695 -5.33076 -0.416373 0
M  V30 7108 C 661.995 -4.92739 1.7322 0
M  V30 7109 H 663.689 -2.72013 1.25097 0
M  V30 7110 H 661.235 -1.30768 0.602977 0
M  V30 7111 H 663.188 -4.15186 -0.721029 0
M  V30 7112 H 661.912 -3.02206 -1.23852 0
M  V30 7113 H 660.571 -3.57273 0.821662 0
M  V30 7114 H 660.219 -4.86101 -1.29287 0
M  V30 7115 H 659.919 -5.8743 0.141309 0
M  V30 7116 H 661.443 -6.05686 -0.773072 0
M  V30 7117 H 662.857 -5.54898 1.44086 0
M  V30 7118 H 661.254 -5.57057 2.23175 0
M  V30 7119 H 662.324 -4.17625 2.46408 0
M  V30 7120 N 663.667 -0.670007 -1.42649 0
M  V30 7121 C 664.944 -0.119451 -1.95235 0
M  V30 7122 C 665.324 1.36461 -1.61064 0
M  V30 7123 O 664.672 2.09843 -0.904329 0
M  V30 7124 C 664.882 -0.383498 -3.46887 0
M  V30 7125 C 666.23 -0.297431 -4.23557 0
M  V30 7126 O 667.254 -0.31698 -3.54787 0
M  V30 7127 O 666.113 -0.235507 -5.45992 0
M  V30 7128 H 663.207 -8.85474e-05 -0.827 0
M  V30 7129 H 665.753 -0.744406 -1.52501 0
M  V30 7130 H 664.525 -1.41174 -3.64946 0
M  V30 7131 H 664.148 0.273702 -3.96657 0
M  V30 7132 N 665.145 1.52092 -0.413018 0
M  V30 7133 C 666.093 2.28681 0.425199 0
M  V30 7134 C 667.087 1.3353 1.04241 0
M  V30 7135 O 668.293 1.50973 0.980166 0
M  V30 7136 H 664.668 0.735661 0.155906 0
M  V30 7137 H 666.639 2.97418 -0.241926 0
M  V30 7138 C 665.388 3.1235 1.5275 0
M  V30 7139 H 664.711 3.85439 1.06191 0
M  V30 7140 H 666.151 3.69038 2.08774 0
M  V30 7141 C 664.61 2.26161 2.49706 0
M  V30 7142 O 665.14 1.90452 3.53682 0
M  V30 7143 N 663.346 1.89854 2.20008 0
M  V30 7144 H 662.893 2.19092 1.35486 0
M  V30 7145 H 662.851 1.3248 2.85125 0
M  V30 7146 N 666.623 0.143563 1.56945 0
M  V30 7147 C 667.553 -0.7936 2.196 0
M  V30 7148 C 668.534 -1.25955 1.14321 0
M  V30 7149 O 669.719 -1.31773 1.42651 0
M  V30 7150 C 666.849 -2.03424 2.81489 0
M  V30 7151 C 665.803 -1.70519 3.92565 0
M  V30 7152 C 665.129 -3.01817 4.41373 0
M  V30 7153 C 666.429 -0.95449 5.13504 0
M  V30 7154 H 668.123 -0.271423 2.98167 0
M  V30 7155 H 665.669 -0.12911 1.4342 0
M  V30 7156 H 667.622 -2.69463 3.23987 0
M  V30 7157 H 666.346 -2.58008 2.00248 0
M  V30 7158 H 665.005 -1.06859 3.5068 0
M  V30 7159 H 664.653 -3.54386 3.56959 0
M  V30 7160 H 664.353 -2.80565 5.16292 0
M  V30 7161 H 665.877 -3.68934 4.86539 0
M  V30 7162 H 667.291 -1.5169 5.52868 0
M  V30 7163 H 665.688 -0.842035 5.94163 0
M  V30 7164 H 666.758 0.0544033 4.84869 0
M  V30 7165 N 668.101 -1.57061 -0.130224 0
M  V30 7166 C 669.512 -1.73539 -0.68856 0
M  V30 7167 C 669.863 -0.760554 -1.80859 0
M  V30 7168 O 668.988 0.0690796 -2.1629 0
M  V30 7169 C 669.583 -3.14666 -1.25581 0
M  V30 7170 C 668.142 -3.32689 -1.76055 0
M  V30 7171 C 667.289 -2.69436 -0.655712 0
M  V30 7172 H 670.24 -1.58412 0.0956002 0
M  V30 7173 H 670.261 -3.15595 -2.12556 0
M  V30 7174 H 669.773 -3.85593 -0.440412 0
M  V30 7175 H 667.874 -2.66786 -2.60108 0
M  V30 7176 H 667.987 -4.4077 -1.87772 0
M  V30 7177 H 666.351 -2.30362 -1.08654 0
M  V30 7178 H 667.134 -3.42979 0.14852 0
M  V30 7179 N 669.579 0.400081 -1.52437 0
M  V30 7180 C 670.99 0.97851 -1.59003 0
M  V30 7181 C 671.341 1.91293 -0.436068 0
M  V30 7182 O 670.466 2.1183 0.442365 0
M  V30 7183 C 671.061 1.78145 -2.88184 0
M  V30 7184 C 669.62 2.30976 -2.97199 0
M  V30 7185 C 668.767 1.11212 -2.54022 0
M  V30 7186 H 671.718 0.180002 -1.57676 0
M  V30 7187 H 671.739 2.63968 -2.74046 0
M  V30 7188 H 671.251 1.1011 -3.72152 0
M  V30 7189 H 669.352 3.02355 -2.17744 0
M  V30 7190 H 669.465 2.61221 -4.01622 0
M  V30 7191 H 667.829 1.46882 -2.08081 0
M  V30 7192 H 668.612 0.447307 -3.40373 0
M  V30 7193 N 671.057 1.43213 0.657864 0
M  V30 7194 C 671.967 1.50448 1.80007 0
M  V30 7195 C 672.983 0.39191 1.69529 0
M  V30 7196 O 674.159 0.645349 1.90781 0
M  V30 7197 C 671.224 1.42062 3.16258 0
M  V30 7198 C 670.285 2.63951 3.38568 0
M  V30 7199 C 669.518 2.55956 4.68318 0
M  V30 7200 O 669.741 1.60473 5.47361 0
M  V30 7201 O 668.675 3.46378 4.92245 0
M  V30 7202 H 672.501 2.4689 1.76858 0
M  V30 7203 H 670.086 1.25163 0.81576 0
M  V30 7204 H 671.968 1.3981 3.97531 0
M  V30 7205 H 670.643 0.487524 3.20008 0
M  V30 7206 H 669.55 2.71776 2.57077 0
M  V30 7207 H 670.883 3.56217 3.39662 0
M  V30 7208 N 672.536 -0.895792 1.29666 0
M  V30 7209 C 673.947 -1.46195 1.1612 0
M  V30 7210 C 674.298 -1.94699 -0.242195 0
M  V30 7211 O 673.423 -1.8406 -1.13802 0
M  V30 7212 C 674.018 -2.65718 2.10189 0
M  V30 7213 C 672.577 -3.18458 2.00653 0
M  V30 7214 C 671.724 -1.91149 2.00891 0
M  V30 7215 H 674.675 -0.706756 1.42094 0
M  V30 7216 H 674.696 -3.4158 1.6764 0
M  V30 7217 H 674.208 -2.30386 3.12321 0
M  V30 7218 H 672.309 -3.58474 1.01623 0
M  V30 7219 H 672.422 -3.82491 2.88509 0
M  V30 7220 H 670.786 -2.09021 1.45542 0
M  V30 7221 H 671.569 -1.58089 3.04734 0
M  V30 7222 N 674.014 -1.12206 -1.10668 0
M  V30 7223 C 674.977 -0.790867 -2.15123 0
M  V30 7224 C 675.977 0.193618 -1.5963 0
M  V30 7225 O 677.167 -0.0318728 -1.74171 0
M  V30 7226 C 674.299 -0.174797 -3.40452 0
M  V30 7227 H 675.492 -1.7163 -2.45933 0
M  V30 7228 H 673.045 -0.924993 -1.2599 0
M  V30 7229 H 673.78 0.760478 -3.15257 0
M  V30 7230 H 673.565 -0.88358 -3.82015 0
M  V30 7231 H 675.055 0.0405162 -4.1758 0
M  V30 7232 N 675.492 1.28418 -0.913599 0
M  V30 7233 C 676.74 1.94596 -0.545594 0
M  V30 7234 C 677.061 1.7227 0.913668 0
M  V30 7235 O 676.331 1.06233 1.64595 0
M  V30 7236 H 674.911 0.720065 -0.198783 0
M  V30 7237 H 677.573 1.56404 -1.16292 0
M  V30 7238 H 676.669 3.03202 -0.739911 0
M  V30 7239 N 676.97 0.677563 1.42291 0
M  V30 7240 C 677.917 0.000947061 2.308 0
M  V30 7241 C 678.887 -0.789889 1.46116 0
M  V30 7242 O 680.072 -0.761578 1.74942 0
M  V30 7243 C 677.212 -0.942387 3.31984 0
M  V30 7244 C 676.325 -0.14508 4.31756 0
M  V30 7245 C 675.46 -1.08442 5.20013 0
M  V30 7246 C 674.499 -0.278958 6.11464 0
M  V30 7247 N 673.636 -1.17115 6.92263 0
M  V30 7248 H 678.476 0.761521 2.88106 0
M  V30 7249 H 676.013 0.38727 1.41911 0
M  V30 7250 H 677.971 -1.50317 3.89179 0
M  V30 7251 H 676.601 -1.66956 2.76271 0
M  V30 7252 H 675.653 0.532368 3.76656 0
M  V30 7253 H 676.965 0.48015 4.96484 0
M  V30 7254 H 676.119 -1.71504 5.81955 0
M  V30 7255 H 674.858 -1.74353 4.55469 0
M  V30 7256 H 673.863 0.364856 5.48588 0
M  V30 7257 H 675.088 0.376099 6.78058 0
M  V30 7258 H 673.034 -1.81661 6.30345 0
M  V30 7259 H 672.951 -0.601063 7.53607 0
M  V30 7260 H 674.219 -1.78915 7.58689 0
M  V30 7261 N 678.448 -1.51871 0.421078 0
M  V30 7262 C 679.358 -2.31077 -0.405069 0
M  V30 7263 C 680.374 -1.39301 -1.04265 0
M  V30 7264 O 681.55 -1.72376 -1.04157 0
M  V30 7265 C 678.615 -3.12556 -1.50032 0
M  V30 7266 C 677.676 -4.20088 -0.884559 0
M  V30 7267 C 676.909 -4.97673 -1.92762 0
M  V30 7268 O 677.132 -4.75696 -3.14753 0
M  V30 7269 O 676.066 -5.82203 -1.52719 0
M  V30 7270 H 679.892 -3.02742 0.241086 0
M  V30 7271 H 677.477 -1.48263 0.183991 0
M  V30 7272 H 679.359 -3.6326 -2.13589 0
M  V30 7273 H 678.034 -2.43672 -2.13086 0
M  V30 7274 H 676.941 -3.73502 -0.211379 0
M  V30 7275 H 678.274 -4.91298 -0.297763 0
M  V30 7276 N 679.926 -0.151884 -1.56866 0
M  V30 7277 C 680.889 0.771861 -2.15812 0
M  V30 7278 C 681.889 1.17181 -1.10115 0
M  V30 7279 O 683.079 1.09194 -1.35729 0
M  V30 7280 C 680.211 2.04806 -2.7252 0
M  V30 7281 H 681.404 0.259021 -2.98779 0
M  V30 7282 H 678.957 0.097588 -1.55995 0
M  V30 7283 H 679.692 2.60445 -1.93233 0
M  V30 7284 H 679.477 1.77044 -3.49854 0
M  V30 7285 H 680.967 2.70771 -3.1792 0
M  V30 7286 N 681.404 1.57128 0.121893 0
M  V30 7287 C 682.815 1.73902 0.679348 0
M  V30 7288 C 683.166 0.770135 1.80453 0
M  V30 7289 O 682.291 -0.0576083 2.16323 0
M  V30 7290 C 682.886 3.15328 1.2391 0
M  V30 7291 C 681.445 3.33618 1.74288 0
M  V30 7292 C 680.592 2.6978 0.641414 0
M  V30 7293 H 683.543 1.58359 -0.104 0
M  V30 7294 H 683.564 3.16718 2.10879 0
M  V30 7295 H 683.076 3.85821 0.419957 0
M  V30 7296 H 681.177 2.68162 2.58689 0
M  V30 7297 H 681.29 4.4176 1.85432 0
M  V30 7298 H 679.654 2.30935 1.0743 0
M  V30 7299 H 680.437 3.42895 -0.166707 0
M  V30 7300 N 682.882 -0.391992 1.52647 0
M  V30 7301 C 684.107 -1.16312 1.71716 0
M  V30 7302 C 684.532 -1.83042 0.433279 0
M  V30 7303 O 683.89 -1.70705 -0.610707 0
M  V30 7304 C 683.938 -2.18908 2.86551 0
M  V30 7305 O 683.042 -3.2543 2.53316 0
M  V30 7306 H 682.383 -0.338743 0.571095 0
M  V30 7307 H 684.913 -0.457202 1.99426 0
M  V30 7308 H 684.923 -2.62954 3.1196 0
M  V30 7309 H 683.598 -1.69726 3.79692 0
M  V30 7310 H 682.175 -2.86543 2.38637 0
M  V30 7311 N 684.36 -1.4356 -0.65026 0
M  V30 7312 C 685.6 -1.46839 -1.42188 0
M  V30 7313 C 685.964 -0.0911433 -1.91784 0
M  V30 7314 O 687.165 0.00137545 -2.688 0
M  V30 7315 C 685.436 -2.48411 -2.56957 0
M  V30 7316 S 686.995 -2.70589 -3.45438 0
M  V30 7317 H 683.813 -0.519596 -0.485325 0
M  V30 7318 H 686.415 -1.80347 -0.75466 0
M  V30 7319 H 685.119 -3.47209 -2.18801 0
M  V30 7320 H 684.65 -2.16411 -3.28527 0
M  V30 7321 H 686.665 -2.00738 -4.53782 0
M  V30 7322 N 685.838 0.888903 -1.30139 0
M  V30 7323 C 687.063 1.67884 -1.21777 0
M  V30 7324 C 687.488 1.86848 0.216689 0
M  V30 7325 O 686.846 1.39659 1.15608 0
M  V30 7326 C 686.894 3.03483 -1.94757 0
M  V30 7327 O 685.998 3.92294 -1.27198 0
M  V30 7328 H 685.339 0.513144 -0.421402 0
M  V30 7329 H 687.869 1.10968 -1.71893 0
M  V30 7330 H 687.879 3.53553 -2.03627 0
M  V30 7331 H 686.554 2.89 -2.99085 0
M  V30 7332 H 685.131 3.50732 -1.26655 0
M  V30 7333 N 687.317 1.12792 1.10072 0
M  V30 7334 C 688.542 0.908838 1.86427 0
M  V30 7335 C 688.967 -0.536793 1.80278 0
M  V30 7336 O 688.325 -1.38033 1.17543 0
M  V30 7337 C 688.373 1.39295 3.3261 0
M  V30 7338 O 687.477 0.573846 4.08388 0
M  V30 7339 H 686.818 0.326234 0.578331 0
M  V30 7340 H 689.348 1.50094 1.39043 0
M  V30 7341 H 689.358 1.39366 3.83459 0
M  V30 7342 H 688.033 2.44555 3.36401 0
M  V30 7343 H 686.61 0.640438 3.67359 0
M  V30 7344 N 688.795 -1.27931 0.920396 0
M  V30 7345 C 690.211 -1.47085 0.619537 0
M  V30 7346 C 690.411 -1.83463 -0.833291 0
M  V30 7347 O 689.467 -1.94363 -1.61181 0
M  V30 7348 C 690.78 -2.56878 1.56314 0
M  V30 7349 C 692.328 -2.70743 1.57058 0
M  V30 7350 C 692.803 -3.83687 2.50097 0
M  V30 7351 N 694.294 -3.9105 2.48262 0
M  V30 7352 C 695.029 -4.77842 3.16945 0
M  V30 7353 N 694.525 -5.69176 3.94982 0
M  V30 7354 N 696.318 -4.71509 3.06 0
M  V30 7355 H 688.469 -1.02601 1.85975 0
M  V30 7356 H 690.732 -0.511682 0.798051 0
M  V30 7357 H 690.438 -2.36923 2.59923 0
M  V30 7358 H 690.312 -3.54117 1.29928 0
M  V30 7359 H 692.699 -2.90083 0.541832 0
M  V30 7360 H 692.78 -1.74015 1.8749 0
M  V30 7361 H 692.424 -3.65101 3.53077 0
M  V30 7362 H 692.354 -4.79827 2.16964 0
M  V30 7363 H 694.845 -3.25738 1.91581 0
M  V30 7364 H 695.158 -6.32245 4.44394 0
M  V30 7365 H 693.503 -5.68995 3.99086 0
M  V30 7366 H 696.694 -3.99151 2.44533 0
M  V30 7367 H 696.867 -5.38933 3.59799 0
M  V30 7368 N 690.273 -0.685099 -1.4193 0
M  V30 7369 C 691.203 -0.0273506 -2.33484 0
M  V30 7370 C 692.184 0.778366 -1.51246 0
M  V30 7371 O 693.369 0.733449 -1.79817 0
M  V30 7372 C 690.499 0.917272 -3.34968 0
M  V30 7373 C 689.453 0.21941 -4.27437 0
M  V30 7374 C 688.779 1.27768 -5.1921 0
M  V30 7375 C 690.079 -0.907894 -5.14349 0
M  V30 7376 H 691.773 -0.791994 -2.88735 0
M  V30 7377 H 689.319 -0.382308 -1.38832 0
M  V30 7378 H 691.272 1.38657 -3.97935 0
M  V30 7379 H 689.996 1.71346 -2.78043 0
M  V30 7380 H 688.655 -0.229757 -3.65879 0
M  V30 7381 H 688.303 2.06612 -4.58607 0
M  V30 7382 H 688.003 0.815803 -5.81909 0
M  V30 7383 H 689.527 1.7477 -5.85054 0
M  V30 7384 H 690.941 -0.519348 -5.70943 0
M  V30 7385 H 689.338 -1.2962 -5.85934 0
M  V30 7386 H 690.408 -1.75218 -4.52136 0
M  V30 7387 N 691.751 1.51645 -0.429126 0
M  V30 7388 C 692.698 2.27542 0.386446 0
M  V30 7389 C 693.668 1.30786 1.02393 0
M  V30 7390 O 694.853 1.59678 1.0444 0
M  V30 7391 C 691.993 3.11457 1.48623 0
M  V30 7392 C 691.106 4.23196 0.867691 0
M  V30 7393 C 690.241 4.94435 1.94183 0
M  V30 7394 C 689.28 5.98108 1.30129 0
M  V30 7395 N 688.417 6.62786 2.31644 0
M  V30 7396 H 693.257 2.968 -0.267155 0
M  V30 7397 H 690.794 1.46397 -0.143591 0
M  V30 7398 H 692.752 3.58429 2.13506 0
M  V30 7399 H 691.382 2.44329 2.10957 0
M  V30 7400 H 690.434 3.80248 0.107373 0
M  V30 7401 H 691.746 4.97499 0.35997 0
M  V30 7402 H 690.9 5.44914 2.66747 0
M  V30 7403 H 689.639 4.19744 2.48326 0
M  V30 7404 H 688.644 5.4693 0.561082 0
M  V30 7405 H 689.869 6.74751 0.767303 0
M  V30 7406 H 687.815 5.90913 2.84883 0
M  V30 7407 H 687.732 7.32828 1.85741 0
M  V30 7408 H 689 7.17897 3.03717 0
M  V30 7409 N 693.229 0.160201 1.56784 0
M  V30 7410 C 694.159 -0.770264 2.2043 0
M  V30 7411 C 695.14 -1.24736 1.15651 0
M  V30 7412 O 696.325 -1.30253 1.44041 0
M  V30 7413 C 693.455 -2.00427 2.83631 0
M  V30 7414 C 692.409 -1.66345 3.94352 0
M  V30 7415 C 691.735 -2.97119 4.4455 0
M  V30 7416 C 693.035 -0.899972 5.14488 0
M  V30 7417 H 694.729 -0.239783 2.98438 0
M  V30 7418 H 692.275 -0.113891 1.43549 0
M  V30 7419 H 694.228 -2.66012 3.26827 0
M  V30 7420 H 692.952 -2.5587 2.02973 0
M  V30 7421 H 691.611 -1.03133 3.51794 0
M  V30 7422 H 691.259 -3.5058 3.60698 0
M  V30 7423 H 690.959 -2.75073 5.19238 0
M  V30 7424 H 692.483 -3.63753 4.90425 0
M  V30 7425 H 693.897 -1.45818 5.54446 0
M  V30 7426 H 692.294 -0.778968 5.95023 0
M  V30 7427 H 693.364 0.105827 4.84785 0
M  V30 7428 N 694.707 -1.5719 -0.113559 0
M  V30 7429 C 695.932 -1.89702 -0.838336 0
M  V30 7430 C 696.357 -0.752679 -1.72384 0
M  V30 7431 O 695.715 0.296575 -1.78858 0
M  V30 7432 C 695.763 -3.20989 -1.64312 0
M  V30 7433 O 694.867 -3.07278 -2.75053 0
M  V30 7434 H 694.208 -0.622339 -0.231496 0
M  V30 7435 H 696.738 -2.04382 -0.0943228 0
M  V30 7436 H 696.748 -3.53843 -2.03123 0
M  V30 7437 H 695.423 -4.03869 -0.993119 0
M  V30 7438 H 694 -2.85901 -2.39406 0
M  V30 7439 N 696.185 0.383891 -1.52853 0
M  V30 7440 C 697.135 1.46892 -1.74375 0
M  V30 7441 C 698.119 1.49378 -0.597909 0
M  V30 7442 O 699.311 1.54929 -0.855929 0
M  V30 7443 C 696.44 2.84547 -1.92063 0
M  V30 7444 C 695.526 2.8661 -3.12594 0
M  V30 7445 N 695.917 2.58339 -4.3485 0
M  V30 7446 C 694.215 3.17777 -3.12944 0
M  V30 7447 C 694.916 2.67616 -5.16485 0
M  V30 7448 N 693.892 3.01561 -4.52285 0
M  V30 7449 H 697.694 1.23869 -2.66522 0
M  V30 7450 H 695.208 0.591895 -1.51229 0
M  V30 7451 H 697.205 3.62674 -2.05604 0
M  V30 7452 H 695.865 3.08549 -1.01133 0
M  V30 7453 H 696.876 2.32266 -4.62896 0
M  V30 7454 H 693.553 3.47211 -2.31842 0
M  V30 7455 H 694.943 2.4926 -6.23955 0
M  V30 7456 N 697.663 1.43903 0.642637 0
M  V30 7457 C 698.888 1.49758 1.43483 0
M  V30 7458 C 699.313 0.119911 1.87717 0
M  V30 7459 O 698.671 -0.888558 1.58033 0
M  V30 7460 C 698.719 2.45744 2.63898 0
M  V30 7461 O 697.823 1.95101 3.63331 0
M  V30 7462 H 697.164 0.506138 0.429791 0
M  V30 7463 H 699.694 1.88923 0.785438 0
M  V30 7464 H 699.704 2.63399 3.11584 0
M  V30 7465 H 698.379 3.45818 2.31046 0
M  V30 7466 H 696.956 1.87158 3.22531 0
M  V30 7467 N 699.141 -0.881989 1.30609 0
M  V30 7468 C 700.418 -1.61563 1.10258 0
M  V30 7469 C 700.798 -2.08228 -0.347053 0
M  V30 7470 O 700.146 -1.85151 -1.33908 0
M  V30 7471 C 700.356 -2.78287 2.10612 0
M  V30 7472 C 701.704 -3.48545 2.4249 0
M  V30 7473 O 702.728 -2.88479 2.08945 0
M  V30 7474 O 701.587 -4.56873 2.99883 0
M  V30 7475 H 698.681 -0.710238 0.423663 0
M  V30 7476 H 701.227 -0.928503 1.42045 0
M  V30 7477 H 699.999 -2.41131 3.08174 0
M  V30 7478 H 699.622 -3.54695 1.79659 0
M  V30 7479 N 700.619 -1.13374 -1.09472 0
M  V30 7480 C 701.847 -0.918351 -1.85402 0
M  V30 7481 C 702.262 0.53281 -1.81126 0
M  V30 7482 O 701.619 1.36879 -1.20708 0
M  V30 7483 C 701.67 -1.39743 -3.33398 0
M  V30 7484 O 701.391 -2.79172 -3.37631 0
M  V30 7485 C 702.892 -1.22042 -4.2617 0
M  V30 7486 H 700.112 -0.327511 -0.585643 0
M  V30 7487 H 702.656 -1.50617 -1.38328 0
M  V30 7488 H 700.811 -0.852619 -3.77901 0
M  V30 7489 H 701.225 -3.00428 -4.29934 0
M  V30 7490 H 702.699 -1.60438 -5.2817 0
M  V30 7491 H 703.176 -0.162047 -4.38901 0
M  V30 7492 H 703.782 -1.75323 -3.87482 0
M  V30 7493 N 702.098 1.27442 -0.927168 0
M  V30 7494 C 703.345 1.94391 -0.567324 0
M  V30 7495 C 703.673 1.72875 0.891321 0
M  V30 7496 O 702.928 1.05071 1.65102 0
M  V30 7497 C 703.227 3.47413 -0.838994 0
M  V30 7498 C 702.893 3.89049 -2.2793 0
M  V30 7499 C 701.555 4.00127 -2.67305 0
M  V30 7500 C 703.907 4.10154 -3.21595 0
M  V30 7501 C 701.235 4.29697 -3.99471 0
M  V30 7502 C 703.587 4.41208 -4.53341 0
M  V30 7503 C 702.251 4.50499 -4.92551 0
M  V30 7504 H 701.521 0.711325 -0.207598 0
M  V30 7505 H 704.168 1.51523 -1.17103 0
M  V30 7506 H 702.473 3.91503 -0.152609 0
M  V30 7507 H 704.17 3.97354 -0.53955 0
M  V30 7508 H 700.76 3.80962 -1.96381 0
M  V30 7509 H 704.944 4.01036 -2.92377 0
M  V30 7510 H 700.2 4.35099 -4.29533 0
M  V30 7511 H 704.374 4.56486 -5.25922 0
M  V30 7512 H 702.001 4.73167 -5.94994 0
M  V30 7513 N 703.576 0.692616 1.41565 0
M  V30 7514 C 704.825 0.219452 2.00503 0
M  V30 7515 C 705.138 -1.18683 1.55479 0
M  V30 7516 O 706.344 -1.75731 2.06956 0
M  V30 7517 C 704.8 0.341451 3.58277 0
M  V30 7518 C 704.408 1.75291 4.12283 0
M  V30 7519 C 706.152 -0.0720899 4.24439 0
M  V30 7520 C 704.059 1.82673 5.62481 0
M  V30 7521 H 702.989 0.0782874 0.749925 0
M  V30 7522 H 705.64 0.860386 1.62079 0
M  V30 7523 H 704.022 -0.367683 3.94289 0
M  V30 7524 H 705.196 2.49057 3.87695 0
M  V30 7525 H 703.511 2.11587 3.58636 0
M  V30 7526 H 706.108 -0.0373385 5.34687 0
M  V30 7527 H 706.451 -1.11034 4.0122 0
M  V30 7528 H 706.984 0.586663 3.9345 0
M  V30 7529 H 703.723 2.84539 5.90523 0
M  V30 7530 H 703.243 1.13288 5.89004 0
M  V30 7531 H 704.922 1.58827 6.27203 0
M  V30 7532 N 705.054 -1.51416 0.437162 0
M  V30 7533 C 706.465 -1.86682 -0.0260005 0
M  V30 7534 C 706.816 -1.35432 -1.4196 0
M  V30 7535 O 705.941 -0.705055 -2.04592 0
M  V30 7536 C 706.536 -3.38757 -0.0539577 0
M  V30 7537 C 705.095 -3.7356 -0.461532 0
M  V30 7538 C 704.242 -2.75134 0.345924 0
M  V30 7539 H 707.193 -1.44642 0.653013 0
M  V30 7540 H 707.214 -3.70573 -0.863478 0
M  V30 7541 H 706.726 -3.76028 0.96045 0
M  V30 7542 H 704.827 -3.41878 -1.48155 0
M  V30 7543 H 704.94 -4.78737 -0.186451 0
M  V30 7544 H 703.304 -2.53947 -0.195739 0
M  V30 7545 H 704.087 -3.15247 1.35921 0
M  V30 7546 N 706.532 -0.168513 -1.56696 0
M  V30 7547 C 707.462 0.758563 -2.20835 0
M  V30 7548 C 708.443 1.24121 -1.1631 0
M  V30 7549 O 709.628 1.29487 -1.4473 0
M  V30 7550 C 706.758 1.9892 -2.8469 0
M  V30 7551 C 705.712 1.64252 -3.95228 0
M  V30 7552 C 705.038 2.94757 -4.46119 0
M  V30 7553 C 706.338 0.872675 -5.14958 0
M  V30 7554 H 708.032 0.223953 -2.98561 0
M  V30 7555 H 705.578 0.106277 -1.43607 0
M  V30 7556 H 707.531 2.64275 -3.28233 0
M  V30 7557 H 706.255 2.5479 -2.04327 0
M  V30 7558 H 704.914 1.01266 -3.52336 0
M  V30 7559 H 704.562 3.48662 -3.62552 0
M  V30 7560 H 704.262 2.72316 -5.2069 0
M  V30 7561 H 705.786 3.61147 -4.92347 0
M  V30 7562 H 707.2 1.42875 -5.55211 0
M  V30 7563 H 705.597 0.747402 -5.95428 0
M  V30 7564 H 706.667 -0.131535 -4.84722 0
M  V30 7565 N 708.01 1.57248 0.105221 0
M  V30 7566 C 708.94 2.04374 1.12931 0
M  V30 7567 C 709.921 0.93074 1.42377 0
M  V30 7568 O 711.106 1.20136 1.52581 0
M  V30 7569 C 708.236 2.45967 2.45189 0
M  V30 7570 C 707.19 3.60838 2.30174 0
M  V30 7571 C 706.516 3.88374 3.67518 0
M  V30 7572 C 707.816 4.92084 1.75073 0
M  V30 7573 H 709.51 2.9018 0.737287 0
M  V30 7574 H 707.056 1.39601 0.353211 0
M  V30 7575 H 709.009 2.77542 3.17094 0
M  V30 7576 H 707.733 1.57148 2.86308 0
M  V30 7577 H 706.392 3.29493 1.60716 0
M  V30 7578 H 706.04 2.96739 4.06147 0
M  V30 7579 H 705.74 4.65703 3.58321 0
M  V30 7580 H 707.264 4.22415 4.40906 0
M  V30 7581 H 708.678 5.22106 2.36809 0
M  V30 7582 H 707.075 5.73507 1.76662 0
M  V30 7583 H 708.145 4.79684 0.709347 0
M  V30 7584 N 709.488 -0.375779 1.53054 0
M  V30 7585 C 710.716 -1.14036 1.72637 0
M  V30 7586 C 711.131 -1.83342 0.450687 0
M  V30 7587 O 710.488 -1.7318 -0.575749 0
M  V30 7588 C 710.539 -2.17841 2.88492 0
M  V30 7589 O 710.26 -1.51358 4.11123 0
M  V30 7590 C 711.761 -3.06924 3.19863 0
M  V30 7591 H 708.981 -0.341386 0.577665 0
M  V30 7592 H 711.525 -0.437809 1.99759 0
M  V30 7593 H 709.68 -2.8371 2.63794 0
M  V30 7594 H 710.094 -2.20439 4.75928 0
M  V30 7595 H 711.568 -3.75763 4.04359 0
M  V30 7596 H 712.045 -3.71169 2.34798 0
M  V30 7597 H 712.651 -2.46684 3.46449 0
M  V30 7598 N 710.966 -1.44241 -0.634997 0
M  V30 7599 C 711.876 -1.53293 -1.77591 0
M  V30 7600 C 712.892 -0.418831 -1.68884 0
M  V30 7601 O 714.068 -0.675619 -1.8973 0
M  V30 7602 C 711.133 -1.47075 -3.13958 0
M  V30 7603 C 710.194 -2.69304 -3.34326 0
M  V30 7604 C 709.427 -2.63374 -4.64187 0
M  V30 7605 O 709.65 -1.69161 -5.44739 0
M  V30 7606 O 708.584 -3.54166 -4.86673 0
M  V30 7607 H 712.41 -2.49673 -1.72908 0
M  V30 7608 H 709.995 -1.26445 -0.795745 0
M  V30 7609 H 711.877 -1.46117 -3.95257 0
M  V30 7610 H 710.552 -0.538373 -3.19192 0
M  V30 7611 H 709.459 -2.75831 -2.52721 0
M  V30 7612 H 710.792 -3.61576 -3.33951 0
M  V30 7613 N 712.444 0.87505 -1.31075 0
M  V30 7614 C 713.354 2.01441 -1.20244 0
M  V30 7615 C 714.37 1.73584 -0.120227 0
M  V30 7616 O 715.546 1.98559 -0.337063 0
M  V30 7617 C 712.611 3.34675 -0.905199 0
M  V30 7618 C 711.672 3.75889 -2.0738 0
M  V30 7619 C 710.905 5.02764 -1.79064 0
M  V30 7620 O 711.128 5.65795 -0.723318 0
M  V30 7621 O 710.062 5.40623 -2.64594 0
M  V30 7622 H 713.888 2.13509 -2.1598 0
M  V30 7623 H 711.473 1.00257 -1.10765 0
M  V30 7624 H 713.355 4.1458 -0.755057 0
M  V30 7625 H 712.03 3.23692 0.0221695 0
M  V30 7626 H 710.937 2.96645 -2.27931 0
M  V30 7627 H 712.27 3.91489 -2.98324 0
M  V30 7628 N 713.922 1.13953 1.08869 0
M  V30 7629 C 714.869 0.82213 2.15661 0
M  V30 7630 C 715.839 -0.218274 1.6466 0
M  V30 7631 O 717.024 -0.0892475 1.90591 0
M  V30 7632 C 714.164 0.300572 3.43789 0
M  V30 7633 C 713.277 1.40071 4.08661 0
M  V30 7634 C 712.412 0.836897 5.24566 0
M  V30 7635 C 711.451 1.91504 5.81371 0
M  V30 7636 N 710.588 1.36875 6.88629 0
M  V30 7637 H 715.428 1.73683 2.42153 0
M  V30 7638 H 712.965 0.866879 1.18843 0
M  V30 7639 H 714.923 -0.0199943 4.17195 0
M  V30 7640 H 713.553 -0.577248 3.17597 0
M  V30 7641 H 712.605 1.83776 3.33062 0
M  V30 7642 H 713.917 2.21534 4.46905 0
M  V30 7643 H 713.071 0.467953 6.04893 0
M  V30 7644 H 711.81 -0.00874207 4.87699 0
M  V30 7645 H 710.815 2.29299 4.99702 0
M  V30 7646 H 712.04 2.76419 6.20298 0
M  V30 7647 H 709.986 0.545211 6.5373 0
M  V30 7648 H 709.903 2.1198 7.25672 0
M  V30 7649 H 711.171 1.02756 7.72698 0
M  V30 7650 N 715.4 -1.26948 0.933913 0
M  V30 7651 C 716.35 -2.24306 0.408779 0
M  V30 7652 C 717.334 -1.53243 -0.490435 0
M  V30 7653 O 718.526 -1.73956 -0.326866 0
M  V30 7654 C 715.655 -3.41695 -0.331578 0
M  V30 7655 C 714.741 -4.20053 0.58451 0
M  V30 7656 N 715.132 -4.76122 1.70709 0
M  V30 7657 C 713.43 -4.44303 0.388703 0
M  V30 7658 C 714.131 -5.35267 2.27737 0
M  V30 7659 N 713.107 -5.20548 1.56622 0
M  V30 7660 H 716.909 -2.65244 1.26582 0
M  V30 7661 H 714.423 -1.4195 0.788919 0
M  V30 7662 H 716.42 -4.10552 -0.724774 0
M  V30 7663 H 715.08 -3.02286 -1.18547 0
M  V30 7664 H 716.091 -4.73884 2.08937 0
M  V30 7665 H 712.768 -4.15341 -0.424016 0
M  V30 7666 H 714.158 -5.89563 3.22282 0
M  V30 7667 N 716.879 -0.700114 -1.41195 0
M  V30 7668 C 717.829 -0.0144098 -2.27995 0
M  V30 7669 C 718.813 0.748249 -1.42443 0
M  V30 7670 O 720.005 0.622995 -1.65674 0
M  V30 7671 C 717.134 0.917938 -3.308 0
M  V30 7672 C 716.22 0.151286 -4.2383 0
M  V30 7673 N 716.611 -0.85732 -4.98481 0
M  V30 7674 C 714.909 0.386108 -4.44326 0
M  V30 7675 C 715.61 -1.31663 -5.66604 0
M  V30 7676 N 714.586 -0.641689 -5.39799 0
M  V30 7677 H 718.388 -0.787662 -2.83149 0
M  V30 7678 H 715.902 -0.531344 -1.53462 0
M  V30 7679 H 717.899 1.42437 -3.91813 0
M  V30 7680 H 716.559 1.69074 -2.77208 0
M  V30 7681 H 717.57 -1.2377 -5.02893 0
M  V30 7682 H 714.247 1.13644 -4.01735 0
M  V30 7683 H 715.637 -2.15384 -6.36443 0
M  V30 7684 N 718.357 1.51182 -0.445186 0
M  V30 7685 C 719.773 1.59299 -0.0978954 0
M  V30 7686 C 719.973 1.4555 1.39346 0
M  V30 7687 O 719.029 1.30073 2.16419 0
M  V30 7688 C 720.342 2.94133 -0.625005 0
M  V30 7689 C 721.89 3.07463 -0.586137 0
M  V30 7690 C 722.365 4.44832 -1.09035 0
M  V30 7691 N 723.856 4.51173 -1.04867 0
M  V30 7692 C 724.591 5.55804 -1.40959 0
M  V30 7693 N 724.087 6.67816 -1.84375 0
M  V30 7694 N 725.88 5.46205 -1.32726 0
M  V30 7695 H 718.031 1.58363 -1.41544 0
M  V30 7696 H 720.294 0.746946 -0.58376 0
M  V30 7697 H 720 3.09589 -1.66876 0
M  V30 7698 H 719.874 3.77161 -0.0542262 0
M  V30 7699 H 722.261 2.9167 0.448646 0
M  V30 7700 H 722.342 2.26255 -1.19341 0
M  V30 7701 H 721.986 4.61372 -2.12364 0
M  V30 7702 H 721.916 5.24591 -0.459539 0
M  V30 7703 H 724.407 3.70783 -0.729932 0
M  V30 7704 H 724.72 7.43683 -2.10131 0
M  V30 7705 H 723.065 6.69003 -1.88308 0
M  V30 7706 H 726.256 4.57583 -0.986678 0
M  V30 7707 H 726.429 6.27634 -1.61182 0
M  V30 7708 N 719.835 0.176821 1.56605 0
M  V30 7709 C 721.063 -0.472828 2.01425 0
M  V30 7710 C 721.478 -1.56436 1.05703 0
M  V30 7711 O 720.835 -1.82405 0.058808 0
M  V30 7712 C 720.886 -1.04607 3.46034 0
M  V30 7713 O 720.607 0.00189608 4.381 0
M  V30 7714 C 722.108 -1.7734 4.06282 0
M  V30 7715 H 719.328 -0.120503 0.660091 0
M  V30 7716 H 721.872 0.280166 2.02572 0
M  V30 7717 H 720.027 -1.74953 3.45645 0
M  V30 7718 H 720.441 -0.422118 5.22799 0
M  V30 7719 H 721.915 -2.12703 5.09374 0
M  V30 7720 H 722.392 -2.67043 3.4869 0
M  V30 7721 H 722.998 -1.11623 4.10391 0
M  V30 7722 N 721.313 -1.57302 -0.09688 0
M  V30 7723 C 722.729 -1.53094 -0.451041 0
M  V30 7724 C 722.929 -0.893265 -1.80618 0
M  V30 7725 O 721.985 -0.485013 -2.47798 0
M  V30 7726 C 723.298 -2.9782 -0.415172 0
M  V30 7727 C 724.846 -3.09026 -0.497155 0
M  V30 7728 C 725.321 -4.55356 -0.491452 0
M  V30 7729 N 726.812 -4.59896 -0.552258 0
M  V30 7730 C 727.547 -5.70563 -0.569654 0
M  V30 7731 N 727.043 -6.90666 -0.543365 0
M  V30 7732 N 728.836 -5.58733 -0.614331 0
M  V30 7733 H 720.987 -1.97131 0.790771 0
M  V30 7734 H 723.25 -0.901211 0.294147 0
M  V30 7735 H 722.956 -3.47933 0.513362 0
M  V30 7736 H 722.83 -3.56416 -1.23481 0
M  V30 7737 H 725.217 -2.58902 -1.41611 0
M  V30 7738 H 725.298 -2.53386 0.35059 0
M  V30 7739 H 724.942 -5.06131 0.423549 0
M  V30 7740 H 724.872 -5.08832 -1.35639 0
M  V30 7741 H 727.363 -3.73456 -0.577842 0
M  V30 7742 H 727.676 -7.70769 -0.559873 0
M  V30 7743 H 726.021 -6.93123 -0.510441 0
M  V30 7744 H 729.212 -4.63809 -0.632387 0
M  V30 7745 H 729.385 -6.44984 -0.62442 0
M  V30 7746 N 722.791 0.367657 -1.53252 0
M  V30 7747 C 723.721 1.45632 -1.8252 0
M  V30 7748 C 724.702 1.55979 -0.678568 0
M  V30 7749 O 725.887 1.70581 -0.928217 0
M  V30 7750 C 723.017 2.82994 -2.01325 0
M  V30 7751 C 721.971 2.87473 -3.17086 0
M  V30 7752 C 721.297 4.2749 -3.21179 0
M  V30 7753 C 722.597 2.55182 -4.55719 0
M  V30 7754 H 724.291 1.21387 -2.73689 0
M  V30 7755 H 721.837 0.58251 -1.31692 0
M  V30 7756 H 723.79 3.59179 -2.20383 0
M  V30 7757 H 722.514 3.08622 -1.06864 0
M  V30 7758 H 721.173 2.13739 -2.97844 0
M  V30 7759 H 720.821 4.5019 -2.24361 0
M  V30 7760 H 720.521 4.31403 -3.98955 0
M  V30 7761 H 722.045 5.0555 -3.42419 0
M  V30 7762 H 723.459 3.21081 -4.74953 0
M  V30 7763 H 721.856 2.70414 -5.3572 0
M  V30 7764 H 722.926 1.5044 -4.60973 0
M  V30 7765 N 724.269 1.44576 0.627338 0
M  V30 7766 C 725.201 1.47724 1.75243 0
M  V30 7767 C 726.214 0.370193 1.58535 0
M  V30 7768 O 727.403 0.636151 1.66779 0
M  V30 7769 C 724.503 1.2991 3.13012 0
M  V30 7770 C 723.676 2.5393 3.56143 0
M  V30 7771 C 722.735 2.30961 4.72804 0
M  V30 7772 O 721.761 3.04469 4.80923 0
M  V30 7773 N 722.963 1.34261 5.6476 0
M  V30 7774 H 725.728 2.44718 1.73012 0
M  V30 7775 H 723.289 1.40064 0.812022 0
M  V30 7776 H 725.281 1.12385 3.88782 0
M  V30 7777 H 723.851 0.412668 3.09864 0
M  V30 7778 H 723.071 2.86707 2.70542 0
M  V30 7779 H 724.359 3.36411 3.81713 0
M  V30 7780 H 723.757 0.735573 5.60897 0
M  V30 7781 H 722.314 1.22713 6.40144 0
M  V30 7782 N 725.747 -0.868086 1.31537 0
M  V30 7783 C 726.972 -1.65926 1.24432 0
M  V30 7784 C 727.397 -1.87169 -0.186936 0
M  V30 7785 O 726.755 -1.4148 -1.13371 0
M  V30 7786 C 726.803 -3.00347 1.9956 0
M  V30 7787 O 725.907 -3.90221 1.33422 0
M  V30 7788 H 725.248 -0.506375 0.429512 0
M  V30 7789 H 727.778 -1.0822 1.73637 0
M  V30 7790 H 727.788 -3.50269 2.09226 0
M  V30 7791 H 726.463 -2.84205 3.03645 0
M  V30 7792 H 725.04 -3.48672 1.32219 0
M  V30 7793 N 727.225 -1.14528 -1.08264 0
M  V30 7794 C 728.465 -0.924808 -1.82282 0
M  V30 7795 C 728.829 0.538881 -1.84283 0
M  V30 7796 O 730.03 0.877355 -2.54079 0
M  V30 7797 C 728.301 -1.51102 -3.23887 0
M  V30 7798 S 729.86 -1.43232 -4.14765 0
M  V30 7799 H 726.678 -0.333052 -0.62817 0
M  V30 7800 H 729.28 -1.45905 -1.30123 0
M  V30 7801 H 727.984 -2.56942 -3.20014 0
M  V30 7802 H 727.515 -0.975234 -3.8112 0
M  V30 7803 H 729.53 -0.418843 -4.94429 0
M  V30 7804 N 728.703 1.26451 -0.940633 0
M  V30 7805 C 729.65 2.264 -0.448497 0
M  V30 7806 C 730.62 1.5866 0.491546 0
M  V30 7807 O 731.805 1.86389 0.407874 0
M  V30 7808 C 728.945 3.43956 0.280715 0
M  V30 7809 C 728.058 4.26374 -0.694937 0
M  V30 7810 C 727.193 5.31171 0.0554186 0
M  V30 7811 C 726.232 6.05266 -0.912091 0
M  V30 7812 N 725.369 7.01833 -0.193524 0
M  V30 7813 H 730.209 2.67869 -1.30576 0
M  V30 7814 H 727.746 1.31707 -0.655112 0
M  V30 7815 H 729.704 4.10941 0.71994 0
M  V30 7816 H 728.334 3.03403 1.10212 0
M  V30 7817 H 727.386 3.59183 -1.25267 0
M  V30 7818 H 728.698 4.77748 -1.43382 0
M  V30 7819 H 727.852 6.04166 0.553951 0
M  V30 7820 H 726.591 4.80634 0.827183 0
M  V30 7821 H 725.596 5.31099 -1.42175 0
M  V30 7822 H 726.821 6.57893 -1.68385 0
M  V30 7823 H 724.767 6.53607 0.559758 0
M  V30 7824 H 724.684 7.50957 -0.871744 0
M  V30 7825 H 725.952 7.78983 0.283932 0
M  V30 7826 O 730.22 0.846016 1.37567 0
M  V30 7827 H 730.911 0.436618 1.88715 0
M  V30 END ATOM
M  V30 BEGIN BOND
M  V30 END BOND
M  V30 END CTAB
M  END
$$$$
