drugbank_target|Q05486 Protein P (DB00709; DB01265)
 OpenBabel12092119343D

  0  0  0     0  0            999 V3000
M  V30 BEGIN CTAB
M  V30 COUNTS 13289 13493 0 0 0
M  V30 BEGIN ATOM
M  V30 1 H -0.908 1.98254 -0.117106 0
M  V30 2 N 0 1.576 0 0
M  V30 3 C 0.933 2.03868 1.02534 0
M  V30 4 C 1.911 0.928543 1.3348 0
M  V30 5 O 3.095 1.19667 1.45644 0
M  V30 6 C 0.222 2.43627 2.35294 0
M  V30 7 C -0.732 3.65373 2.2001 0
M  V30 8 S 0.101 5.13292 1.52614 0
M  V30 9 C 1.257 5.56322 2.86805 0
M  V30 10 H 1.49 2.90518 0.631377 0
M  V30 11 H -0.977 1.52953 0.210867 0
M  V30 12 H 0.981 2.67203 3.11629 0
M  V30 13 H -0.358 1.57376 2.7183 0
M  V30 14 H -1.165 3.90944 3.18086 0
M  V30 15 H -1.563 3.418 1.51819 0
M  V30 16 H 0.729 5.58782 3.83104 0
M  V30 17 H 1.672 6.56266 2.65933 0
M  V30 18 H 2.08 4.83886 2.90714 0
M  V30 19 N 1.4781 -0.272755 1.55222 0
M  V30 20 C 2.8891 -0.84378 1.66545 0
M  V30 21 C 3.2401 -1.87035 0.592641 0
M  V30 22 O 2.3651 -2.14761 -0.265818 0
M  V30 23 C 2.9601 -1.53723 3.01918 0
M  V30 24 C 1.5191 -2.05628 3.15268 0
M  V30 25 C 0.6661 -0.898424 2.62343 0
M  V30 26 H 3.6171 -0.0490998 1.58624 0
M  V30 27 H 3.6381 -2.40421 2.94921 0
M  V30 28 H 3.1501 -0.78983 3.79978 0
M  V30 29 H 1.2511 -2.83329 2.41983 0
M  V30 30 H 1.3641 -2.27142 4.21833 0
M  V30 31 H -0.2719 -1.29186 2.19506 0
M  V30 32 H 0.5111 -0.164528 3.42906 0
M  V30 33 N 2.9562 -1.48159 -0.537278 0
M  V30 34 C 3.8862 -1.65029 -1.6519 0
M  V30 35 C 4.8672 -0.499281 -1.62607 0
M  V30 36 O 6.0522 -0.730972 -1.79918 0
M  V30 37 C 3.1822 -1.68303 -3.03795 0
M  V30 38 C 2.1362 -2.8283 -3.21234 0
M  V30 39 C 1.4622 -2.71189 -4.60826 0
M  V30 40 C 2.7622 -4.24211 -3.04701 0
M  V30 41 H 4.4562 -2.58341 -1.51328 0
M  V30 42 H 2.0022 -1.24325 -0.726585 0
M  V30 43 H 3.9552 -1.78693 -3.81637 0
M  V30 44 H 2.6792 -0.715635 -3.18663 0
M  V30 45 H 1.3382 -2.71983 -2.45807 0
M  V30 46 H 0.9862 -1.72435 -4.7252 0
M  V30 47 H 0.6862 -3.48035 -4.7344 0
M  V30 48 H 2.2102 -2.83537 -5.40777 0
M  V30 49 H 3.6242 -4.3593 -3.72341 0
M  V30 50 H 2.0212 -5.01998 -3.28813 0
M  V30 51 H 3.0912 -4.41184 -2.01209 0
M  V30 52 N 4.4343 0.785586 -1.36625 0
M  V30 53 C 5.6593 1.57963 -1.34397 0
M  V30 54 C 6.0843 1.87964 0.071526 0
M  V30 55 O 5.4423 1.48182 1.0446 0
M  V30 56 C 5.4903 2.87511 -2.17646 0
M  V30 57 O 4.5943 3.81281 -1.57158 0
M  V30 58 H 3.9353 0.479014 -0.459828 0
M  V30 59 H 6.4653 0.973411 -1.79961 0
M  V30 60 H 6.4753 3.36745 -2.30362 0
M  V30 61 H 5.1503 2.65002 -3.20541 0
M  V30 62 H 3.7273 3.39885 -1.53403 0
M  V30 63 N 5.9124 1.20967 1.01018 0
M  V30 64 C 7.1424 1.04803 1.78044 0
M  V30 65 C 7.5504 -0.405462 1.84804 0
M  V30 66 O 6.8934 -1.2932 1.30468 0
M  V30 67 C 6.9554 1.56377 3.23707 0
M  V30 68 C 6.6194 3.04767 3.40538 0
M  V30 69 C 7.6164 4.02366 3.29239 0
M  V30 70 C 5.3014 3.43862 3.66147 0
M  V30 71 C 7.2954 5.37049 3.43304 0
M  V30 72 C 4.9824 4.78699 3.79855 0
M  V30 73 C 5.9804 5.75101 3.68439 0
M  V30 74 O 5.6684 7.07493 3.81719 0
M  V30 75 H 5.4004 0.368778 0.56655 0
M  V30 76 H 7.9544 1.60642 1.27997 0
M  V30 77 H 6.1844 0.949297 3.74867 0
M  V30 78 H 7.8734 1.36136 3.8239 0
M  V30 79 H 8.6394 3.73506 3.09384 0
M  V30 80 H 4.5184 2.69364 3.74118 0
M  V30 81 H 8.0624 6.12277 3.34309 0
M  V30 82 H 3.9594 5.07247 3.99213 0
M  V30 83 H 4.7274 7.1483 3.98697 0
M  V30 84 N 7.3905 -1.2043 1.01659 0
M  V30 85 C 8.8015 -1.71517 0.737482 0
M  V30 86 C 9.1525 -1.81547 -0.743973 0
M  V30 87 O 8.2775 -1.47803 -1.58061 0
M  V30 88 C 8.8725 -3.11515 1.33206 0
M  V30 89 C 7.4315 -3.59912 1.10183 0
M  V30 90 C 6.5785 -2.37116 1.43776 0
M  V30 91 H 9.5295 -1.05444 1.18606 0
M  V30 92 H 9.5505 -3.73575 0.722636 0
M  V30 93 H 9.0625 -3.04182 2.41028 0
M  V30 94 H 7.1635 -3.72577 0.0412756 0
M  V30 95 H 7.2765 -4.44731 1.78188 0
M  V30 96 H 5.6405 -2.39857 0.856778 0
M  V30 97 H 6.4235 -2.32424 2.52654 0
M  V30 98 N 8.8686 -0.792821 -1.36206 0
M  V30 99 C 9.8186 -0.166598 -2.27391 0
M  V30 100 C 10.8026 0.651479 -1.47121 0
M  V30 101 O 11.9946 0.510994 -1.69463 0
M  V30 102 C 9.1236 0.695033 -3.36191 0
M  V30 103 C 8.2096 -0.132019 -4.23894 0
M  V30 104 N 8.6006 -1.18822 -4.91645 0
M  V30 105 C 6.8986 0.0885952 -4.45912 0
M  V30 106 C 7.5996 -1.69198 -5.56549 0
M  V30 107 N 6.5756 -1.00065 -5.34311 0
M  V30 108 H 10.3776 -0.974947 -2.77258 0
M  V30 109 H 7.8916 -0.632616 -1.49572 0
M  V30 110 H 9.8886 1.1596 -4.00448 0
M  V30 111 H 8.5486 1.50189 -2.87877 0
M  V30 112 H 9.5596 -1.57069 -4.93507 0
M  V30 113 H 6.2366 0.865688 -4.08426 0
M  V30 114 H 7.6266 -2.57395 -6.20643 0
M  V30 115 N 10.3467 1.47872 -0.545128 0
M  V30 116 C 11.5937 2.02493 -0.0165858 0
M  V30 117 C 11.9217 1.42073 1.32836 0
M  V30 118 O 11.1767 0.561459 1.87473 0
M  V30 119 C 11.4757 3.57131 0.13867 0
M  V30 120 C 11.1417 4.36411 -1.13384 0
M  V30 121 C 9.8037 4.57792 -1.48256 0
M  V30 122 C 12.1557 4.82223 -1.97764 0
M  V30 123 C 9.4837 5.22233 -2.67376 0
M  V30 124 C 11.8357 5.47977 -3.16076 0
M  V30 125 C 10.4997 5.67593 -3.51275 0
M  V30 126 H 9.7697 0.740975 -0.00606918 0
M  V30 127 H 12.4167 1.77683 -0.714207 0
M  V30 128 H 10.7217 3.80865 0.919172 0
M  V30 129 H 12.4187 3.97031 0.562782 0
M  V30 130 H 9.0087 4.2004 -0.852297 0
M  V30 131 H 13.1927 4.65493 -1.72132 0
M  V30 132 H 8.4487 5.35616 -2.94831 0
M  V30 133 H 12.6227 5.8244 -3.81755 0
M  V30 134 H 10.2497 6.17298 -4.43675 0
M  V30 135 N 11.8248 0.280983 1.55075 0
M  V30 136 C 13.2408 -0.0729964 1.59433 0
M  V30 137 C 13.4408 -1.5411 1.29817 0
M  V30 138 O 12.4968 -2.29086 1.06187 0
M  V30 139 C 13.8098 0.306921 2.9913 0
M  V30 140 C 15.3578 0.254023 3.11968 0
M  V30 141 C 15.8328 0.608467 4.5394 0
M  V30 142 N 17.3238 0.560241 4.59799 0
M  V30 143 C 18.0588 0.80722 5.6769 0
M  V30 144 N 17.5548 1.11912 6.83701 0
M  V30 145 N 19.3478 0.735623 5.57266 0
M  V30 146 H 11.4988 1.238 1.7259 0
M  V30 147 H 13.7618 0.500547 0.805082 0
M  V30 148 H 13.4678 1.32816 3.25657 0
M  V30 149 H 13.3418 -0.349363 3.75579 0
M  V30 150 H 15.7288 -0.75794 2.852 0
M  V30 151 H 15.8098 0.944649 2.37718 0
M  V30 152 H 15.4538 1.61814 4.81434 0
M  V30 153 H 15.3838 -0.104013 5.26497 0
M  V30 154 H 17.8748 0.329288 3.76463 0
M  V30 155 H 18.1878 1.29409 7.61888 0
M  V30 156 H 16.5328 1.15695 6.85303 0
M  V30 157 H 19.7238 0.491752 4.6551 0
M  V30 158 H 19.8968 0.931482 6.4127 0
M  V30 159 N 13.3029 -1.57598 0.00835791 0
M  V30 160 C 14.2499 -2.08945 -0.980346 0
M  V30 161 C 15.2199 -0.986738 -1.33614 0
M  V30 162 O 16.4049 -1.25968 -1.43306 0
M  V30 163 C 13.5449 -2.60425 -2.26435 0
M  V30 164 C 12.6579 -3.84628 -1.96685 0
M  V30 165 C 11.7929 -4.24579 -3.19228 0
M  V30 166 C 10.8319 -5.41596 -2.85202 0
M  V30 167 N 9.9689 -5.768 -4.00307 0
M  V30 168 H 14.8089 -2.93148 -0.535551 0
M  V30 169 H 12.3459 -1.44912 -0.252776 0
M  V30 170 H 14.3039 -2.88354 -3.01509 0
M  V30 171 H 12.9339 -1.79083 -2.68568 0
M  V30 172 H 11.9859 -3.63556 -1.11942 0
M  V30 173 H 13.2979 -4.69796 -1.67611 0
M  V30 174 H 12.4519 -4.53834 -4.02641 0
M  V30 175 H 11.1909 -3.38137 -3.51447 0
M  V30 176 H 10.1959 -5.12056 -2.00198 0
M  V30 177 H 11.4209 -6.29721 -2.54222 0
M  V30 178 H 9.3669 -4.93316 -4.32407 0
M  V30 179 H 9.2839 -6.5656 -3.74786 0
M  V30 180 H 10.5519 -6.10652 -4.84484 0
M  V30 181 N 14.781 0.264519 -1.55364 0
M  V30 182 C 15.711 1.33121 -1.91836 0
M  V30 183 C 16.692 1.51101 -0.781192 0
M  V30 184 O 17.877 1.64003 -1.04003 0
M  V30 185 C 15.007 2.68921 -2.19769 0
M  V30 186 C 13.961 2.65661 -3.35571 0
M  V30 187 C 13.287 4.05093 -3.49004 0
M  V30 188 C 14.587 2.24187 -4.71739 0
M  V30 189 H 16.281 1.02844 -2.81182 0
M  V30 190 H 13.827 0.493286 -1.35287 0
M  V30 191 H 15.78 3.43663 -2.43872 0
M  V30 192 H 14.504 3.00799 -1.27231 0
M  V30 193 H 13.163 1.93377 -3.1145 0
M  V30 194 H 12.811 4.34206 -2.53917 0
M  V30 195 H 12.511 4.03804 -4.26868 0
M  V30 196 H 14.035 4.81561 -3.75408 0
M  V30 197 H 15.449 2.88654 -4.9533 0
M  V30 198 H 13.846 2.34044 -5.52579 0
M  V30 199 H 14.916 1.19327 -4.69988 0
M  V30 200 N 16.2591 1.48442 0.529413 0
M  V30 201 C 17.1891 1.65902 1.64313 0
M  V30 202 C 18.1701 0.507897 1.6234 0
M  V30 203 O 19.3551 0.740503 1.79528 0
M  V30 204 C 16.4851 1.69911 3.02898 0
M  V30 205 C 15.4391 2.8453 3.19729 0
M  V30 206 C 14.7651 2.73629 4.59381 0
M  V30 207 C 16.0651 4.25821 3.02447 0
M  V30 208 H 17.7591 2.5914 1.49955 0
M  V30 209 H 15.3051 1.24709 0.719982 0
M  V30 210 H 17.2581 1.80715 3.80684 0
M  V30 211 H 15.9821 0.732524 3.18279 0
M  V30 212 H 14.6411 2.73283 2.44361 0
M  V30 213 H 14.2891 1.74938 4.71599 0
M  V30 214 H 13.9891 3.50541 4.71588 0
M  V30 215 H 15.5131 2.86401 5.39265 0
M  V30 216 H 16.9271 4.37898 3.70024 0
M  V30 217 H 15.3241 5.03735 3.26146 0
M  V30 218 H 16.3941 4.42244 1.98867 0
M  V30 219 N 17.7372 -0.778329 1.37039 0
M  V30 220 C 18.6672 -1.90546 1.34962 0
M  V30 221 C 19.6482 -1.68681 0.219274 0
M  V30 222 O 20.8332 -1.89634 0.418624 0
M  V30 223 C 17.9632 -3.27734 1.14925 0
M  V30 224 C 16.9172 -3.64147 2.24902 0
M  V30 225 C 16.2432 -4.99806 1.89996 0
M  V30 226 C 17.5432 -3.71579 3.67051 0
M  V30 227 H 19.2372 -1.92541 2.29277 0
M  V30 228 H 16.7832 -0.924948 1.10366 0
M  V30 229 H 18.7362 -4.06215 1.12104 0
M  V30 230 H 17.4602 -3.26154 0.170631 0
M  V30 231 H 16.1192 -2.8797 2.26868 0
M  V30 232 H 15.7672 -4.94759 0.906796 0
M  V30 233 H 15.4672 -5.25139 2.63634 0
M  V30 234 H 16.9912 -5.80694 1.88749 0
M  V30 235 H 18.4052 -4.40227 3.67251 0
M  V30 236 H 16.8022 -4.08405 4.39688 0
M  V30 237 H 17.8722 -2.72404 4.01154 0
M  V30 238 N 19.2153 -1.21501 -1.00376 0
M  V30 239 C 20.1453 -0.999478 -2.11028 0
M  V30 240 C 21.1263 0.0759671 -1.6993 0
M  V30 241 O 22.3113 -0.0841106 -1.94018 0
M  V30 242 C 19.4413 -0.564709 -3.42678 0
M  V30 243 C 18.3953 -1.58486 -3.97576 0
M  V30 244 C 17.7213 -1.00628 -5.25146 0
M  V30 245 C 19.0213 -2.97204 -4.29496 0
M  V30 246 H 20.7153 -1.92495 -2.29317 0
M  V30 247 H 18.2613 -0.92693 -1.102 0
M  V30 248 H 20.2143 -0.401091 -4.19487 0
M  V30 249 H 18.9383 0.396411 -3.24185 0
M  V30 250 H 17.5973 -1.73606 -3.22888 0
M  V30 251 H 17.2453 -0.0368439 -5.02987 0
M  V30 252 H 16.9453 -1.68771 -5.62841 0
M  V30 253 H 18.4693 -0.854015 -6.04598 0
M  V30 254 H 19.8833 -2.8552 -4.97143 0
M  V30 255 H 18.2803 -3.62372 -4.78338 0
M  V30 256 H 19.3503 -3.47956 -3.3772 0
M  V30 257 N 20.6934 1.19889 -1.02296 0
M  V30 258 C 21.9704 1.85148 -0.630832 0
M  V30 259 C 22.3504 1.91385 0.890782 0
M  V30 260 O 21.6984 1.42642 1.78509 0
M  V30 261 C 21.9084 3.24442 -1.28602 0
M  V30 262 C 23.2564 4.00663 -1.4055 0
M  V30 263 O 24.2804 3.33818 -1.24273 0
M  V30 264 O 23.1394 5.20387 -1.66913 0
M  V30 265 H 20.2334 0.797613 -0.218499 0
M  V30 266 H 22.7794 1.27427 -1.12074 0
M  V30 267 H 21.5514 3.14704 -2.32545 0
M  V30 268 H 21.1744 3.89802 -0.7836 0
M  V30 269 N 22.1715 0.800033 1.35784 0
M  V30 270 C 23.4485 0.30088 1.93272 0
M  V30 271 C 23.8285 -1.20857 1.73081 0
M  V30 272 O 23.1765 -2.00502 1.09596 0
M  V30 273 C 23.3865 0.70511 3.41803 0
M  V30 274 C 24.7345 0.690871 4.18942 0
M  V30 275 O 25.7585 0.646244 3.50289 0
M  V30 276 O 24.6175 0.74332 5.41421 0
M  V30 277 H 21.7115 0.0771605 0.823393 0
M  V30 278 H 24.2575 0.88329 1.449 0
M  V30 279 H 23.0295 1.74571 3.50201 0
M  V30 280 H 22.6525 0.0971541 3.97481 0
M  V30 281 N 23.6496 -1.47581 0.552962 0
M  V30 282 C 24.5596 -2.33743 -0.200353 0
M  V30 283 C 25.5756 -1.47928 -0.916151 0
M  V30 284 O 26.7516 -1.80865 -0.885993 0
M  V30 285 C 23.8166 -3.24536 -1.21973 0
M  V30 286 C 22.8776 -4.26238 -0.511819 0
M  V30 287 C 22.1106 -5.12693 -1.48263 0
M  V30 288 O 22.3336 -5.01525 -2.71714 0
M  V30 289 O 21.2676 -5.93375 -1.00945 0
M  V30 290 H 25.0936 -2.9945 0.506304 0
M  V30 291 H 22.6786 -1.46071 0.313622 0
M  V30 292 H 24.5606 -3.80631 -1.80827 0
M  V30 293 H 23.2356 -2.61462 -1.90839 0
M  V30 294 H 22.1426 -3.73914 0.117799 0
M  V30 295 H 23.4756 -4.92014 0.135308 0
M  V30 296 N 25.1277 -0.289203 -1.54924 0
M  V30 297 C 26.0907 0.579144 -2.21762 0
M  V30 298 C 27.0907 1.07047 -1.1999 0
M  V30 299 O 28.2807 0.968384 -1.44803 0
M  V30 300 C 25.4127 1.80055 -2.8947 0
M  V30 301 H 26.6057 -0.00464908 -2.999 0
M  V30 302 H 24.1587 -0.0399306 -1.56249 0
M  V30 303 H 24.8937 2.42449 -2.15381 0
M  V30 304 H 24.6787 1.45602 -3.64064 0
M  V30 305 H 26.1687 2.41773 -3.40493 0
M  V30 306 N 26.6058 1.57591 -0.0167156 0
M  V30 307 C 27.8538 1.90906 0.663285 0
M  V30 308 C 28.1748 0.892509 1.73376 0
M  V30 309 O 27.4448 -0.0677623 1.95783 0
M  V30 310 H 26.0248 0.704637 0.247983 0
M  V30 311 H 28.6868 1.94803 -0.0615909 0
M  V30 312 H 27.7828 2.9116 1.12393 0
M  V30 313 N 28.0839 -0.256276 1.55502 0
M  V30 314 C 29.4949 -0.826068 1.67431 0
M  V30 315 C 29.8459 -1.86396 0.612446 0
M  V30 316 O 28.9709 -2.15031 -0.243025 0
M  V30 317 C 29.5659 -1.50512 3.03532 0
M  V30 318 C 28.1249 -2.02273 3.17431 0
M  V30 319 C 27.2719 -0.870548 2.63281 0
M  V30 320 H 30.2229 -0.0322728 1.58667 0
M  V30 321 H 30.2439 -2.37279 2.97454 0
M  V30 322 H 29.7559 -0.749484 3.80794 0
M  V30 323 H 27.8569 -2.80746 2.44974 0
M  V30 324 H 27.9699 -2.22655 4.24219 0
M  V30 325 H 26.3339 -1.26851 2.20864 0
M  V30 326 H 27.1169 -0.128149 3.43061 0
M  V30 327 N 29.562 -1.4872 -0.521534 0
M  V30 328 C 30.492 -1.66771 -1.63431 0
M  V30 329 C 31.473 -0.516499 -1.62069 0
M  V30 330 O 32.658 -0.750013 -1.79132 0
M  V30 331 C 29.788 -1.71515 -3.01993 0
M  V30 332 C 28.742 -2.86222 -3.18216 0
M  V30 333 C 28.068 -2.76061 -4.57924 0
M  V30 334 C 29.368 -4.27419 -3.00184 0
M  V30 335 H 31.062 -2.59932 -1.48579 0
M  V30 336 H 28.608 -1.25089 -0.713358 0
M  V30 337 H 30.561 -1.82731 -3.7972 0
M  V30 338 H 29.285 -0.749393 -3.17886 0
M  V30 339 H 27.944 -2.74575 -2.42908 0
M  V30 340 H 27.592 -1.77437 -4.70665 0
M  V30 341 H 27.292 -3.53037 -4.69722 0
M  V30 342 H 28.816 -2.89256 -5.37739 0
M  V30 343 H 30.23 -4.39855 -3.67697 0
M  V30 344 H 28.627 -5.05458 -3.2347 0
M  V30 345 H 29.697 -4.43293 -1.96518 0
M  V30 346 N 31.0401 0.771051 -1.3745 0
M  V30 347 C 31.9501 1.91538 -1.35464 0
M  V30 348 C 32.9661 1.72134 -0.254123 0
M  V30 349 O 34.1421 1.95358 -0.489626 0
M  V30 350 C 31.2071 3.26671 -1.16134 0
M  V30 351 C 30.2681 3.58723 -2.35831 0
M  V30 352 C 29.5011 4.87409 -2.17413 0
M  V30 353 O 29.7241 5.58506 -1.15876 0
M  V30 354 O 28.6581 5.18539 -3.05615 0
M  V30 355 H 32.4841 1.96165 -2.31847 0
M  V30 356 H 30.0691 0.9139 -1.18187 0
M  V30 357 H 31.9511 4.07499 -1.07345 0
M  V30 358 H 30.6261 3.22894 -0.228251 0
M  V30 359 H 29.5331 2.78127 -2.50192 0
M  V30 360 H 30.8661 3.67243 -3.27709 0
M  V30 361 N 32.5182 1.22032 0.997298 0
M  V30 362 C 33.4282 1.00271 2.12092 0
M  V30 363 C 34.4442 -0.047621 1.73935 0
M  V30 364 O 35.6202 0.144136 2.00884 0
M  V30 365 C 32.6852 0.578449 3.4184 0
M  V30 366 C 31.7462 1.70189 3.94125 0
M  V30 367 C 30.9792 1.29778 5.17681 0
M  V30 368 O 31.2022 0.174676 5.70132 0
M  V30 369 O 30.1362 2.11261 5.63607 0
M  V30 370 H 33.9622 1.94398 2.3333 0
M  V30 371 H 31.5472 1.00587 1.10465 0
M  V30 372 H 33.4292 0.351998 4.19927 0
M  V30 373 H 32.1042 -0.334019 3.21972 0
M  V30 374 H 31.0112 1.98282 3.1723 0
M  V30 375 H 32.3442 2.59206 4.18417 0
M  V30 376 N 33.9963 -1.19345 1.0293 0
M  V30 377 C 34.9063 -2.26245 0.620515 0
M  V30 378 C 35.9223 -1.70486 -0.347928 0
M  V30 379 O 37.0983 -2.00347 -0.205704 0
M  V30 380 C 34.1633 -3.46693 -0.0218957 0
M  V30 381 C 33.2243 -4.17632 0.994102 0
M  V30 382 C 32.4573 -5.32329 0.382253 0
M  V30 383 O 32.6803 -5.64552 -0.814676 0
M  V30 384 O 31.6143 -5.91664 1.10531 0
M  V30 385 H 35.4403 -2.63453 1.51083 0
M  V30 386 H 33.0253 -1.26207 0.799513 0
M  V30 387 H 34.9073 -4.19683 -0.380072 0
M  V30 388 H 33.5823 -3.11333 -0.886209 0
M  V30 389 H 32.4893 -3.4676 1.40387 0
M  V30 390 H 33.8223 -4.56964 1.8288 0
M  V30 391 N 35.4744 -0.807222 -1.35358 0
M  V30 392 C 36.4044 -0.232509 -2.3234 0
M  V30 393 C 37.3854 0.642386 -1.57504 0
M  V30 394 O 38.5704 0.572526 -1.85569 0
M  V30 395 C 35.7004 0.619238 -3.41735 0
M  V30 396 C 34.6544 -0.157215 -4.27711 0
M  V30 397 C 33.9804 0.816273 -5.28433 0
M  V30 398 C 35.2804 -1.35656 -5.04376 0
M  V30 399 H 36.9744 -1.04276 -2.80654 0
M  V30 400 H 34.5204 -0.50288 -1.34934 0
M  V30 401 H 36.4734 1.03137 -4.08584 0
M  V30 402 H 35.1974 1.46239 -2.92031 0
M  V30 403 H 33.8564 -0.550525 -3.62443 0
M  V30 404 H 33.5044 1.65494 -4.74996 0
M  V30 405 H 33.2044 0.301067 -5.86828 0
M  V30 406 H 34.7284 1.22659 -5.98153 0
M  V30 407 H 36.1424 -1.01927 -5.64166 0
M  V30 408 H 34.5394 -1.8063 -5.7227 0
M  V30 409 H 35.6094 -2.14288 -4.34981 0
M  V30 410 N 36.9525 1.47285 -0.560781 0
M  V30 411 C 38.3635 1.86258 -0.128343 0
M  V30 412 C 38.7145 1.46699 1.30284 0
M  V30 413 O 37.8395 0.871698 1.98067 0
M  V30 414 C 38.4345 3.38044 -0.22614 0
M  V30 415 C 36.9935 3.76096 0.151283 0
M  V30 416 C 36.1405 2.71335 -0.572084 0
M  V30 417 H 39.0915 1.38752 -0.770297 0
M  V30 418 H 39.1125 3.76441 0.554322 0
M  V30 419 H 38.6245 3.66806 -1.26788 0
M  V30 420 H 36.7255 3.52951 1.19399 0
M  V30 421 H 36.8385 4.78641 -0.209765 0
M  V30 422 H 35.2025 2.54696 -0.0147653 0
M  V30 423 H 35.9855 3.02938 -1.61504 0
M  V30 424 N 38.4306 0.297415 1.54768 0
M  V30 425 C 39.8466 -0.0560823 1.59501 0
M  V30 426 C 40.0466 -1.52725 1.31444 0
M  V30 427 O 39.1026 -2.27947 1.08611 0
M  V30 428 C 40.4156 0.338631 2.98787 0
M  V30 429 C 41.9636 0.287097 3.11681 0
M  V30 430 C 42.4386 0.656579 4.53269 0
M  V30 431 N 43.9296 0.608977 4.59179 0
M  V30 432 C 44.6646 0.867385 5.66802 0
M  V30 433 N 44.1606 1.19157 6.82476 0
M  V30 434 N 45.9536 0.794687 5.56454 0
M  V30 435 H 38.1046 1.25624 1.71267 0
M  V30 436 H 40.3676 0.509057 0.799728 0
M  V30 437 H 40.0736 1.36263 3.2423 0
M  V30 438 H 39.9476 -0.309508 3.75928 0
M  V30 439 H 42.3346 -0.727649 2.85988 0
M  V30 440 H 42.4156 0.969809 2.36703 0
M  V30 441 H 42.0596 1.66912 4.7969 0
M  V30 442 H 41.9896 -0.0481649 5.26578 0
M  V30 443 H 44.4806 0.369198 3.76092 0
M  V30 444 H 44.7936 1.37482 7.60473 0
M  V30 445 H 43.1386 1.22958 6.84037 0
M  V30 446 H 46.3296 0.541098 4.64962 0
M  V30 447 H 46.5026 0.999445 6.40246 0
M  V30 448 N 39.9087 -1.5758 0.0250728 0
M  V30 449 C 40.8387 -2.13007 -0.956575 0
M  V30 450 C 41.8197 -1.0452 -1.342 0
M  V30 451 O 43.0047 -1.32332 -1.42133 0
M  V30 452 C 40.1347 -2.65386 -2.24026 0
M  V30 453 C 39.0887 -3.78623 -1.99571 0
M  V30 454 C 38.4147 -4.17414 -3.3417 0
M  V30 455 C 39.7147 -5.04867 -1.33814 0
M  V30 456 H 41.4087 -2.9528 -0.494991 0
M  V30 457 H 38.9547 -1.42042 -0.236651 0
M  V30 458 H 40.9077 -3.02794 -2.93076 0
M  V30 459 H 39.6317 -1.80268 -2.72343 0
M  V30 460 H 38.2907 -3.41646 -1.32941 0
M  V30 461 H 37.9387 -3.29284 -3.80238 0
M  V30 462 H 37.6387 -4.93719 -3.18615 0
M  V30 463 H 39.1627 -4.57402 -4.04495 0
M  V30 464 H 40.5767 -5.39888 -1.92857 0
M  V30 465 H 38.9737 -5.86144 -1.28669 0
M  V30 466 H 40.0437 -4.83904 -0.310561 0
M  V30 467 N 41.3868 0.248026 -1.55636 0
M  V30 468 C 42.3498 1.29044 -1.89421 0
M  V30 469 C 43.3498 1.41134 -0.770581 0
M  V30 470 O 44.5398 1.39854 -1.03858 0
M  V30 471 C 41.6718 2.66831 -2.12165 0
M  V30 472 H 42.8648 1.00305 -2.82629 0
M  V30 473 H 40.4178 0.487265 -1.48511 0
M  V30 474 H 41.1528 3.00711 -1.21422 0
M  V30 475 H 40.9378 2.59438 -2.93997 0
M  V30 476 H 42.4278 3.42103 -2.3949 0
M  V30 477 N 42.8649 1.48995 0.513639 0
M  V30 478 C 44.1419 1.48338 1.27495 0
M  V30 479 C 44.5219 0.204065 2.10111 0
M  V30 480 O 43.8699 -0.813881 2.13514 0
M  V30 481 C 44.0799 2.75498 2.14247 0
M  V30 482 C 45.4279 3.24484 2.73852 0
M  V30 483 O 46.4519 2.76528 2.24523 0
M  V30 484 O 45.3109 4.07974 3.6362 0
M  V30 485 H 42.4049 0.593149 0.576284 0
M  V30 486 H 44.9509 1.61246 0.528948 0
M  V30 487 H 43.7229 3.60109 1.53092 0
M  V30 488 H 43.3459 2.6539 2.96064 0
M  V30 489 N 44.343 -0.763751 1.37857 0
M  V30 490 C 45.253 -1.90817 1.36478 0
M  V30 491 C 46.269 -1.71997 0.263248 0
M  V30 492 O 47.445 -1.95095 0.499979 0
M  V30 493 C 44.51 -3.2605 1.17864 0
M  V30 494 C 43.571 -3.57467 2.3773 0
M  V30 495 C 42.804 -4.86249 2.19995 0
M  V30 496 O 43.027 -5.57884 1.18836 0
M  V30 497 O 41.961 -5.16911 3.08361 0
M  V30 498 H 45.787 -1.94933 2.32884 0
M  V30 499 H 43.372 -0.907619 1.1867 0
M  V30 500 H 45.254 -4.06924 1.09504 0
M  V30 501 H 43.929 -3.22769 0.245372 0
M  V30 502 H 42.836 -2.76796 2.51664 0
M  V30 503 H 44.169 -3.655 3.29652 0
M  V30 504 N 45.8211 -1.22559 -0.990812 0
M  V30 505 C 47.0981 -0.959875 -1.70428 0
M  V30 506 C 47.4781 0.524455 -2.04481 0
M  V30 507 O 46.8261 1.49302 -1.72977 0
M  V30 508 C 47.0361 -1.85955 -2.95333 0
M  V30 509 C 48.3841 -2.11687 -3.68068 0
M  V30 510 O 49.4081 -1.8342 -3.05345 0
M  V30 511 O 48.2671 -2.59572 -4.80921 0
M  V30 512 H 45.3611 -0.361154 -0.743974 0
M  V30 513 H 47.9071 -1.33554 -1.04697 0
M  V30 514 H 46.6791 -2.86346 -2.66687 0
M  V30 515 H 46.3021 -1.4856 -3.68803 0
M  V30 516 N 47.2992 1.18797 -1.03562 0
M  V30 517 C 48.2292 2.24472 -0.643019 0
M  V30 518 C 49.2102 1.66433 0.351283 0
M  V30 519 O 50.3952 1.92803 0.232505 0
M  V30 520 C 47.5252 3.473 4.24935e-05 0
M  V30 521 C 46.4792 4.18055 -0.917257 0
M  V30 522 C 45.8052 5.34519 -0.138941 0
M  V30 523 C 47.1052 4.72109 -2.23407 0
M  V30 524 H 48.7992 2.57566 -1.52643 0
M  V30 525 H 46.3452 1.23806 -0.735394 0
M  V30 526 H 48.2982 4.20426 0.286383 0
M  V30 527 H 47.0222 3.13424 0.918299 0
M  V30 528 H 45.6812 3.46821 -1.1879 0
M  V30 529 H 45.3292 4.96891 0.781562 0
M  V30 530 H 45.0292 5.82794 -0.750005 0
M  V30 531 H 46.5532 6.10438 0.1405 0
M  V30 532 H 47.9672 5.36955 -2.00879 0
M  V30 533 H 46.3642 5.30897 -2.79765 0
M  V30 534 H 47.4342 3.89807 -2.88407 0
M  V30 535 N 48.7773 0.814389 1.34928 0
M  V30 536 C 49.7253 0.218424 2.31572 0
M  V30 537 C 50.7193 -0.636128 1.57002 0
M  V30 538 O 51.9253 -0.52842 1.72069 0
M  V30 539 H 48.3003 0.0518799 0.750208 0
M  V30 540 H 50.2713 1.04852 2.79372 0
M  V30 541 C 49.0203 -0.61207 3.4227 0
M  V30 542 H 48.3433 0.0361578 3.99784 0
M  V30 543 H 49.7833 -0.995317 4.12152 0
M  V30 544 C 48.2423 -1.78087 2.85984 0
M  V30 545 O 48.7723 -2.8787 2.80168 0
M  V30 546 N 46.9783 -1.59488 2.42924 0
M  V30 547 H 46.5253 -0.701874 2.47854 0
M  V30 548 H 46.4833 -2.37846 2.05613 0
M  V30 549 N 50.2554 -1.46986 0.568584 0
M  V30 550 C 51.6714 -1.57946 0.229189 0
M  V30 551 C 51.8714 -1.56567 -1.26843 0
M  V30 552 O 50.9274 -1.47511 -2.04931 0
M  V30 553 C 52.2404 -2.87963 0.865909 0
M  V30 554 C 53.7884 -3.01568 0.838188 0
M  V30 555 C 54.2634 -4.34301 1.45419 0
M  V30 556 N 55.7544 -4.40965 1.41788 0
M  V30 557 C 56.4894 -5.42256 1.86403 0
M  V30 558 N 55.9854 -6.50297 2.38926 0
M  V30 559 N 57.7784 -5.3337 1.77405 0
M  V30 560 H 49.9294 -1.46126 1.54146 0
M  V30 561 H 52.1924 -0.696156 0.643484 0
M  V30 562 H 51.8984 -2.94742 1.91886 0
M  V30 563 H 51.7724 -3.75423 0.365687 0
M  V30 564 H 54.1594 -2.94379 -0.206106 0
M  V30 565 H 54.2404 -2.1562 1.37629 0
M  V30 566 H 53.8844 -4.42247 2.49761 0
M  V30 567 H 53.8144 -5.19 0.891435 0
M  V30 568 H 56.3054 -3.63484 1.03381 0
M  V30 569 H 56.6184 -7.23777 2.70863 0
M  V30 570 H 54.9634 -6.51155 2.42944 0
M  V30 571 H 58.1544 -4.47865 1.3614 0
M  V30 572 H 58.3274 -6.12169 2.12492 0
M  V30 573 N 51.7335 -0.305618 -1.54608 0
M  V30 574 C 53.1495 0.0476228 -1.59529 0
M  V30 575 C 53.3495 1.52025 -1.32252 0
M  V30 576 O 52.4055 2.27368 -1.09818 0
M  V30 577 C 53.7185 -0.354471 -2.98603 0
M  V30 578 C 55.2665 -0.303622 -3.11524 0
M  V30 579 C 55.7415 -0.680608 -4.52915 0
M  V30 580 N 57.2325 -0.63332 -4.5885 0
M  V30 581 C 57.9675 -0.897432 -5.66334 0
M  V30 582 N 57.4635 -1.22775 -6.81834 0
M  V30 583 N 59.2565 -0.824186 -5.56025 0
M  V30 584 H 51.4075 -1.2653 -1.70599 0
M  V30 585 H 53.6705 -0.513291 -0.797017 0
M  V30 586 H 53.3765 -1.3798 -3.23503 0
M  V30 587 H 53.2505 0.289568 -3.76087 0
M  V30 588 H 55.6375 0.712472 -2.8637 0
M  V30 589 H 55.7185 -0.982348 -2.36185 0
M  V30 590 H 55.3625 -1.69453 -4.78799 0
M  V30 591 H 55.2925 0.0202385 -5.26596 0
M  V30 592 H 57.7835 -0.389138 -3.75891 0
M  V30 593 H 58.0965 -1.41513 -7.59733 0
M  V30 594 H 56.4415 -1.26583 -6.83375 0
M  V30 595 H 59.6325 -0.565748 -4.64669 0
M  V30 596 H 59.8055 -1.03338 -6.39707 0
M  V30 597 N 53.2116 1.57565 -0.0334293 0
M  V30 598 C 54.4576 1.92262 0.645226 0
M  V30 599 C 54.7906 0.910543 1.71531 0
M  V30 600 O 54.0656 -0.066099 1.94388 0
M  V30 601 C 54.3486 3.37422 1.2577 0
M  V30 602 C 54.2016 4.49369 0.196891 0
M  V30 603 C 55.5206 3.82628 2.17449 0
M  V30 604 H 52.6396 0.699171 0.233085 0
M  V30 605 H 55.2816 1.89779 -0.0915694 0
M  V30 606 H 53.4316 3.39669 1.88566 0
M  V30 607 H 55.1036 4.59254 -0.433962 0
M  V30 608 H 53.3466 4.31168 -0.477137 0
M  V30 609 H 54.0176 5.47978 0.665124 0
M  V30 610 H 56.4936 3.82145 1.64634 0
M  V30 611 H 55.3696 4.84883 2.57254 0
M  V30 612 H 55.6306 3.18376 3.0674 0
M  V30 613 N 54.6897 -0.239769 1.55765 0
M  V30 614 C 55.6527 -1.28038 1.90103 0
M  V30 615 C 56.6527 -1.40723 0.778055 0
M  V30 616 O 57.8427 -1.39301 1.04599 0
M  V30 617 C 54.9747 -2.65702 2.13577 0
M  V30 618 H 56.1677 -0.988048 2.83157 0
M  V30 619 H 53.7207 -0.479382 1.48767 0
M  V30 620 H 54.4557 -3.00063 1.23015 0
M  V30 621 H 54.2407 -2.57875 2.95369 0
M  V30 622 H 55.7307 -3.40828 2.41301 0
M  V30 623 N 56.1678 -1.49265 -0.50573 0
M  V30 624 C 57.1308 -1.65075 -1.59006 0
M  V30 625 C 58.1308 -0.522768 -1.52065 0
M  V30 626 O 59.3208 -0.789117 -1.55302 0
M  V30 627 C 56.4528 -1.64369 -2.98656 0
M  V30 628 H 57.6458 -2.61784 -1.46319 0
M  V30 629 H 55.1988 -1.38226 -0.729616 0
M  V30 630 H 55.9338 -0.692272 -3.16825 0
M  V30 631 H 55.7188 -2.46282 -3.05103 0
M  V30 632 H 57.2088 -1.78674 -3.77446 0
M  V30 633 N 57.6459 0.756429 -1.3826 0
M  V30 634 C 58.9229 1.50584 -1.24835 0
M  V30 635 C 59.3029 2.10556 0.151485 0
M  V30 636 O 58.6509 1.96825 1.1607 0
M  V30 637 C 58.8609 2.57448 -2.3563 0
M  V30 638 C 60.2089 3.24429 -2.73917 0
M  V30 639 O 61.2329 2.67751 -2.34921 0
M  V30 640 O 60.0919 4.26937 -3.41156 0
M  V30 641 H 57.1859 0.667664 -0.48801 0
M  V30 642 H 59.7319 0.792083 -1.5008 0
M  V30 643 H 58.5039 2.11362 -3.29305 0
M  V30 644 H 58.1269 3.36408 -2.11933 0
M  V30 645 N 59.124 1.23083 0.984299 0
M  V30 646 C 60.054 1.03292 2.09411 0
M  V30 647 C 61.035 -0.048923 1.7003 0
M  V30 648 O 62.22 0.114967 1.93859 0
M  V30 649 C 59.35 0.619155 3.41736 0
M  V30 650 C 58.304 1.64791 3.95004 0
M  V30 651 C 57.63 1.0897 5.23478 0
M  V30 652 C 58.93 3.03999 4.24714 0
M  V30 653 H 60.624 1.96119 2.26225 0
M  V30 654 H 58.17 0.944344 1.08711 0
M  V30 655 H 60.123 0.467777 4.18796 0
M  V30 656 H 58.847 -0.344786 3.24775 0
M  V30 657 H 57.506 1.78721 3.20085 0
M  V30 658 H 57.154 0.11686 5.02864 0
M  V30 659 H 56.854 1.77704 5.60085 0
M  V30 660 H 58.378 0.950093 6.03163 0
M  V30 661 H 59.792 2.93393 4.92538 0
M  V30 662 H 58.189 3.69936 4.72512 0
M  V30 663 H 59.259 3.53285 3.32142 0
M  V30 664 N 60.6021 -1.18246 1.0419 0
M  V30 665 C 61.5501 -2.23968 0.627792 0
M  V30 666 C 62.5441 -1.65828 -0.346019 0
M  V30 667 O 63.7501 -1.78733 -0.213175 0
M  V30 668 H 60.1251 -0.728939 0.184802 0
M  V30 669 H 62.0961 -2.56202 1.52981 0
M  V30 670 C 60.8451 -3.47699 0.00796591 0
M  V30 671 H 60.1681 -3.92734 0.748347 0
M  V30 672 H 61.6081 -4.23294 -0.24455 0
M  V30 673 C 60.0671 -3.13153 -1.24246 0
M  V30 674 O 60.5971 -3.27003 -2.33307 0
M  V30 675 N 58.8031 -2.67467 -1.13622 0
M  V30 676 H 58.3501 -2.56396 -0.248734 0
M  V30 677 H 58.3081 -2.44724 -1.97377 0
M  V30 678 N 62.0802 -0.821533 -1.34494 0
M  V30 679 C 63.0102 -0.257138 -2.3208 0
M  V30 680 C 63.9912 0.625645 -1.58176 0
M  V30 681 O 65.1762 0.552811 -1.86166 0
M  V30 682 C 62.3062 0.582958 -3.42372 0
M  V30 683 C 61.2602 -0.202571 -4.2752 0
M  V30 684 C 60.5862 0.760179 -5.29269 0
M  V30 685 C 61.8862 -1.40998 -5.02908 0
M  V30 686 H 63.5802 -1.07247 -2.79532 0
M  V30 687 H 61.1262 -0.517163 -1.34393 0
M  V30 688 H 63.0792 0.987972 -4.09655 0
M  V30 689 H 61.8032 1.43133 -2.93565 0
M  V30 690 H 60.4622 -0.588936 -3.61838 0
M  V30 691 H 60.1102 1.60447 -4.76724 0
M  V30 692 H 59.8102 0.238809 -5.87115 0
M  V30 693 H 61.3342 1.16308 -5.9942 0
M  V30 694 H 62.7482 -1.07905 -5.63054 0
M  V30 695 H 61.1452 -1.86689 -5.70322 0
M  V30 696 H 62.2152 -2.1889 -4.32684 0
M  V30 697 N 63.5583 1.46682 -0.576371 0
M  V30 698 C 64.4903 2.28341 0.198231 0
M  V30 699 C 65.5033 1.38141 0.861453 0
M  V30 700 O 66.6923 1.62797 0.732082 0
M  V30 701 C 63.7923 3.12986 1.29972 0
M  V30 702 C 62.9653 4.31271 0.729639 0
M  V30 703 C 62.0243 4.97363 1.71803 0
M  V30 704 O 61.0503 5.55156 1.25658 0
M  V30 705 N 62.2523 4.93796 3.05198 0
M  V30 706 H 65.0173 2.9546 -0.502324 0
M  V30 707 H 62.5783 1.56525 -0.413715 0
M  V30 708 H 64.5703 3.54066 1.96008 0
M  V30 709 H 63.1403 2.47984 1.90323 0
M  V30 710 H 62.3603 3.94052 -0.108012 0
M  V30 711 H 63.6483 5.07739 0.328438 0
M  V30 712 H 63.0463 4.48077 3.45317 0
M  V30 713 H 61.6033 5.38837 3.6674 0
M  V30 714 N 65.0364 0.313813 1.54444 0
M  V30 715 C 65.9664 -0.549454 2.26943 0
M  V30 716 C 66.9474 -1.12741 1.27372 0
M  V30 717 O 68.1324 -1.15436 1.56167 0
M  V30 718 C 65.2624 -1.71523 3.01989 0
M  V30 719 C 64.2164 -1.26703 4.08816 0
M  V30 720 C 63.5424 -2.51898 4.71647 0
M  V30 721 C 64.8424 -0.388962 5.2085 0
M  V30 722 H 66.5364 0.0552661 2.99349 0
M  V30 723 H 64.0824 0.0280207 1.43973 0
M  V30 724 H 66.0354 -2.32535 3.51433 0
M  V30 725 H 64.7594 -2.34639 2.27183 0
M  V30 726 H 63.4184 -0.679896 3.6024 0
M  V30 727 H 63.0664 -3.13356 3.93468 0
M  V30 728 H 62.7664 -2.22605 5.43802 0
M  V30 729 H 64.2904 -3.1369 5.23861 0
M  V30 730 H 65.7044 -0.905107 5.6611 0
M  V30 731 H 64.1014 -0.18924 5.99802 0
M  V30 732 H 65.1714 0.582699 4.81386 0
M  V30 733 N 66.5145 -1.57545 0.0417849 0
M  V30 734 C 67.9255 -1.80011 -0.495259 0
M  V30 735 C 68.2765 -0.953199 -1.71489 0
M  V30 736 O 67.4015 -0.167138 -2.15754 0
M  V30 737 C 67.9965 -3.26482 -0.905265 0
M  V30 738 C 66.5555 -3.499 -1.38734 0
M  V30 739 C 65.7025 -2.74979 -0.358056 0
M  V30 740 H 68.6535 -1.56425 0.267736 0
M  V30 741 H 68.6745 -3.36887 -1.76882 0
M  V30 742 H 68.1865 -3.88096 -0.017401 0
M  V30 743 H 66.2875 -2.93553 -2.29471 0
M  V30 744 H 66.4005 -4.58615 -1.38598 0
M  V30 745 H 64.7645 -2.40834 -0.828912 0
M  V30 746 H 65.5475 -3.39315 0.521561 0
M  V30 747 N 67.9926 0.231505 -1.5589 0
M  V30 748 C 68.9406 1.30649 -1.92441 0
M  V30 749 C 69.9346 1.49037 -0.805254 0
M  V30 750 O 71.1406 1.50329 -0.990007 0
M  V30 751 H 67.5156 0.437812 -0.611412 0
M  V30 752 H 69.4866 0.970973 -2.82161 0
M  V30 753 C 68.2356 2.65179 -2.24889 0
M  V30 754 H 67.5586 2.51835 -3.10514 0
M  V30 755 H 68.9986 3.39234 -2.54355 0
M  V30 756 C 67.4576 3.19439 -1.07054 0
M  V30 757 O 67.9876 4.00371 -0.326499 0
M  V30 758 N 66.1936 2.77675 -0.85703 0
M  V30 759 H 65.7406 2.11969 -1.46379 0
M  V30 760 H 65.6986 3.14321 -0.0703223 0
M  V30 761 N 69.4707 1.49531 0.497807 0
M  V30 762 C 70.7167 1.59415 1.25358 0
M  V30 763 C 71.0497 0.281422 1.9215 0
M  V30 764 O 70.3247 -0.715249 1.80871 0
M  V30 765 C 70.6077 2.75566 2.3181 0
M  V30 766 C 70.4607 4.16642 1.69498 0
M  V30 767 C 71.7797 2.87347 3.33346 0
M  V30 768 H 68.8987 0.580244 0.454408 0
M  V30 769 H 71.5407 1.81827 0.551262 0
M  V30 770 H 69.6907 2.56587 2.91711 0
M  V30 771 H 71.3627 4.47145 1.13399 0
M  V30 772 H 69.6057 4.22141 0.998978 0
M  V30 773 H 70.2767 4.93792 2.46725 0
M  V30 774 H 72.7527 3.04634 2.83438 0
M  V30 775 H 71.6287 3.70289 4.05188 0
M  V30 776 H 71.8897 1.96834 3.95865 0
M  V30 777 N 70.9488 -0.749086 1.3866 0
M  V30 778 C 72.1738 -1.54344 1.38538 0
M  V30 779 C 72.5988 -1.88088 -0.0216655 0
M  V30 780 O 71.9568 -1.50899 -1.00494 0
M  V30 781 C 72.0048 -2.8164 2.25192 0
M  V30 782 O 71.1088 -3.7698 1.67212 0
M  V30 783 H 70.4498 -0.466654 0.472367 0
M  V30 784 H 72.9798 -0.925355 1.82478 0
M  V30 785 H 72.9898 -3.30519 2.3921 0
M  V30 786 H 71.6648 -2.56411 3.27454 0
M  V30 787 H 70.2418 -3.35699 1.6236 0
M  V30 788 N 72.4269 -1.23603 -0.977757 0
M  V30 789 C 73.6759 -1.06377 -1.71368 0
M  V30 790 C 73.9889 0.399062 -1.91486 0
M  V30 791 O 75.1949 0.691312 -2.62551 0
M  V30 792 C 73.6509 -1.85512 -3.08404 0
M  V30 793 C 73.2589 -3.36141 -2.96164 0
M  V30 794 C 75.0029 -1.76783 -3.85938 0
M  V30 795 C 72.9099 -4.07659 -4.28449 0
M  V30 796 H 71.8399 -0.394452 -0.642591 0
M  V30 797 H 74.4909 -1.47594 -1.09034 0
M  V30 798 H 72.8729 -1.37103 -3.71509 0
M  V30 799 H 74.0469 -3.92056 -2.42133 0
M  V30 800 H 72.3619 -3.45712 -2.32104 0
M  V30 801 H 74.9589 -2.27526 -4.83876 0
M  V30 802 H 75.3019 -0.731116 -4.0983 0
M  V30 803 H 75.8349 -2.22818 -3.2954 0
M  V30 804 H 72.5739 -5.11648 -4.09752 0
M  V30 805 H 72.0939 -3.5653 -4.82334 0
M  V30 806 H 73.7729 -4.141 -4.97122 0
M  V30 807 N 73.905 1.17692 -1.04816 0
M  V30 808 C 75.316 1.69501 -0.782698 0
M  V30 809 C 75.667 1.83456 0.695577 0
M  V30 810 O 74.792 1.51942 1.54086 0
M  V30 811 C 75.387 3.07874 -1.41419 0
M  V30 812 C 73.946 3.56864 -1.19686 0
M  V30 813 C 73.093 2.3322 -1.50012 0
M  V30 814 H 76.044 1.02262 -1.2136 0
M  V30 815 H 76.065 3.71528 -0.821428 0
M  V30 816 H 75.577 2.97685 -2.49009 0
M  V30 817 H 73.678 3.72337 -0.140043 0
M  V30 818 H 73.791 4.39851 -1.89916 0
M  V30 819 H 72.155 2.37501 -0.920071 0
M  V30 820 H 72.938 2.25644 -2.58727 0
M  V30 821 N 75.3831 0.828654 1.34056 0
M  V30 822 C 76.6291 0.429279 1.98818 0
M  V30 823 C 76.9841 -0.998011 1.64492 0
M  V30 824 O 76.2771 -1.68652 0.909228 0
M  V30 825 C 76.4711 0.575226 3.52741 0
M  V30 826 C 76.3001 2.01515 4.02022 0
M  V30 827 C 75.0701 2.64825 4.30344 0
M  V30 828 C 77.2681 2.98261 4.18981 0
M  V30 829 N 75.2501 3.99998 4.65698 0
M  V30 830 C 76.6211 4.18356 4.57578 0
M  V30 831 C 78.6761 2.94802 4.01243 0
M  V30 832 C 77.3791 5.35454 4.80293 0
M  V30 833 C 79.4051 4.11121 4.25128 0
M  V30 834 C 78.7671 5.29969 4.64018 0
M  V30 835 H 74.8661 0.205304 0.754569 0
M  V30 836 H 77.4501 1.07457 1.62361 0
M  V30 837 H 75.6211 -0.0401962 3.88379 0
M  V30 838 H 77.3531 0.148292 4.04428 0
M  V30 839 H 74.1081 2.16027 4.21461 0
M  V30 840 H 74.5321 4.69653 4.87601 0
M  V30 841 H 79.1741 2.04054 3.70299 0
M  V30 842 H 76.8921 6.26755 5.10102 0
M  V30 843 H 80.4781 4.0985 4.12934 0
M  V30 844 H 79.3581 6.18479 4.82134 0
M  V30 845 N 76.8612 -1.46375 0.584142 0
M  V30 846 C 78.0892 -2.06761 0.0759296 0
M  V30 847 C 78.5042 -1.43266 -1.22965 0
M  V30 848 O 77.8612 -0.538458 -1.74376 0
M  V30 849 C 77.9122 -3.61375 -0.0950384 0
M  V30 850 O 77.6332 -4.22495 1.15887 0
M  V30 851 C 79.1342 -4.38693 -0.637434 0
M  V30 852 H 76.3542 -0.668479 0.0581075 0
M  V30 853 H 78.8982 -1.8798 0.805218 0
M  V30 854 H 77.0532 -3.79578 -0.774554 0
M  V30 855 H 77.4672 -5.15385 0.973598 0
M  V30 856 H 78.9412 -5.47464 -0.706237 0
M  V30 857 H 79.4182 -4.06836 -1.65472 0
M  V30 858 H 80.0242 -4.25299 0.00725967 0
M  V30 859 N 78.3393 -0.321999 -1.54275 0
M  V30 860 C 79.2893 0.560185 -2.21011 0
M  V30 861 C 80.2733 1.08283 -1.19011 0
M  V30 862 O 81.4653 1.02011 -1.44647 0
M  V30 863 C 78.5943 1.72137 -2.97025 0
M  V30 864 C 77.6803 1.21369 -4.06363 0
M  V30 865 N 78.0713 0.425566 -5.04007 0
M  V30 866 C 76.3693 1.49255 -4.20284 0
M  V30 867 C 77.0703 0.152601 -5.815 0
M  V30 868 N 76.0463 0.738294 -5.38563 0
M  V30 869 H 79.8483 -0.049265 -2.93859 0
M  V30 870 H 77.3623 -0.127779 -1.61897 0
M  V30 871 H 79.3593 2.36512 -3.43319 0
M  V30 872 H 78.0193 2.33431 -2.25699 0
M  V30 873 H 79.0303 0.068551 -5.17855 0
M  V30 874 H 75.7073 2.11145 -3.60172 0
M  V30 875 H 77.0973 -0.481764 -6.70171 0
M  V30 876 N 79.8174 1.5752 -0.0501392 0
M  V30 877 C 80.7644 2.1147 0.924603 0
M  V30 878 C 81.7344 1.02182 1.30951 0
M  V30 879 O 82.9194 1.29723 1.39916 0
M  V30 880 C 80.0594 2.66337 2.19451 0
M  V30 881 C 79.1724 3.89708 1.86418 0
M  V30 882 C 78.3074 4.32893 3.07859 0
M  V30 883 C 77.3464 5.48967 2.70742 0
M  V30 884 N 76.4834 5.87211 3.84874 0
M  V30 885 H 81.3234 2.94465 0.457639 0
M  V30 886 H 78.8604 1.45531 0.214266 0
M  V30 887 H 80.8184 2.96247 2.93758 0
M  V30 888 H 79.4484 1.86141 2.63726 0
M  V30 889 H 78.5004 3.66396 1.02264 0
M  V30 890 H 79.8124 4.74074 1.55096 0
M  V30 891 H 78.9664 4.6435 3.90466 0
M  V30 892 H 77.7054 3.47336 3.42358 0
M  V30 893 H 76.7104 5.17183 1.86551 0
M  V30 894 H 77.9354 6.3624 2.37436 0
M  V30 895 H 75.8814 5.04607 4.19175 0
M  V30 896 H 75.7984 6.66266 3.57247 0
M  V30 897 H 77.0664 6.23282 4.68123 0
M  V30 898 N 81.2955 -0.223234 1.56011 0
M  V30 899 C 82.5415 -0.949279 1.79211 0
M  V30 900 C 82.8745 -1.84054 0.619494 0
M  V30 901 O 82.1495 -1.90726 -0.381317 0
M  V30 902 C 82.4325 -1.78965 3.12479 0
M  V30 903 C 82.2855 -0.924997 4.40186 0
M  V30 904 C 83.6045 -2.76774 3.42175 0
M  V30 905 H 80.7235 -0.343676 0.651963 0
M  V30 906 H 83.3655 -0.218253 1.88742 0
M  V30 907 H 81.5155 -2.41291 3.04485 0
M  V30 908 H 83.1875 -0.318615 4.60198 0
M  V30 909 H 81.4305 -0.230344 4.33188 0
M  V30 910 H 82.1015 -1.54735 5.29869 0
M  V30 911 H 84.5775 -2.24584 3.50287 0
M  V30 912 H 83.4535 -3.32678 4.36597 0
M  V30 913 H 83.7145 -3.54429 2.64258 0
M  V30 914 N 82.7736 -1.49793 -0.48987 0
M  V30 915 C 84.0216 -1.59525 -1.24081 0
M  V30 916 C 84.3426 -0.288953 -1.92847 0
M  V30 917 O 83.6126 0.692436 -1.83254 0
M  V30 918 H 82.1926 -0.587796 -0.460983 0
M  V30 919 H 84.8546 -1.86477 -0.566778 0
M  V30 920 H 83.9506 -2.39696 -1.99881 0
M  V30 921 N 84.2517 0.741722 -1.39055 0
M  V30 922 C 85.1997 1.87702 -1.3737 0
M  V30 923 C 86.1937 1.67427 -0.257812 0
M  V30 924 O 87.3997 1.7485 -0.427489 0
M  V30 925 H 83.7747 0.617757 -0.428812 0
M  V30 926 H 85.7457 1.86239 -2.33147 0
M  V30 927 C 84.4947 3.25315 -1.22741 0
M  V30 928 H 83.8177 3.41509 -2.07873 0
M  V30 929 H 85.2577 4.04964 -1.25618 0
M  V30 930 C 83.7167 3.36838 0.0647316 0
M  V30 931 O 84.2467 3.88073 1.03741 0
M  V30 932 N 82.4527 2.90329 0.125544 0
M  V30 933 H 81.9997 2.48823 -0.666682 0
M  V30 934 H 81.9577 2.98418 0.989639 0
M  V30 935 N 85.7298 1.2412 0.971189 0
M  V30 936 C 86.9768 1.07881 1.71371 0
M  V30 937 C 87.3048 -0.382901 1.90694 0
M  V30 938 O 86.5598 -1.29945 1.46331 0
M  V30 939 C 86.8588 1.75983 3.11071 0
M  V30 940 C 86.5248 3.25909 3.11599 0
M  V30 941 C 85.1868 3.66813 3.11451 0
M  V30 942 C 87.5388 4.21771 3.062 0
M  V30 943 C 84.8668 5.02021 3.03631 0
M  V30 944 C 87.2188 5.56982 2.99923 0
M  V30 945 C 85.8828 5.97237 2.98102 0
M  V30 946 H 85.1528 0.394764 0.62709 0
M  V30 947 H 87.7998 1.54176 1.13587 0
M  V30 948 H 86.1048 1.22072 3.72298 0
M  V30 949 H 87.8018 1.60887 3.6731 0
M  V30 950 H 84.3918 2.93353 3.12477 0
M  V30 951 H 88.5758 3.91172 3.05447 0
M  V30 952 H 83.8318 5.32411 3.0058 0
M  V30 953 H 88.0058 6.30969 2.94704 0
M  V30 954 H 85.6328 7.01967 2.91798 0
M  V30 955 N 87.2079 -1.17134 1.05439 0
M  V30 956 C 88.4359 -1.91372 0.786414 0
M  V30 957 C 88.8509 -1.76955 -0.658202 0
M  V30 958 O 88.2079 -1.10838 -1.44987 0
M  V30 959 C 88.2589 -3.42356 1.1608 0
M  V30 960 O 87.9799 -3.56332 2.54871 0
M  V30 961 C 89.4809 -4.33663 0.919322 0
M  V30 962 H 86.7009 -0.607118 0.285743 0
M  V30 963 H 89.2449 -1.48525 1.40572 0
M  V30 964 H 87.3999 -3.82939 0.586191 0
M  V30 965 H 87.8139 -4.49896 2.69618 0
M  V30 966 H 89.2879 -5.38099 1.231 0
M  V30 967 H 89.7649 -4.38959 -0.145359 0
M  V30 968 H 90.3709 -3.98796 1.47789 0
M  V30 969 N 88.686 -0.835752 -1.33615 0
M  V30 970 C 89.934 -0.429109 -1.97492 0
M  V30 971 C 90.255 1.01433 -1.66543 0
M  V30 972 O 89.525 1.70611 -0.962744 0
M  V30 973 H 88.105 -0.155686 -0.730596 0
M  V30 974 H 90.767 -1.06802 -1.63031 0
M  V30 975 H 89.863 -0.55861 -3.0706 0
M  V30 976 N 90.1641 1.46063 -0.591896 0
M  V30 977 C 91.0941 2.33172 0.123673 0
M  V30 978 C 92.0751 1.45897 0.87453 0
M  V30 979 O 93.2601 1.74698 0.848181 0
M  V30 980 C 90.3901 3.28336 1.13194 0
M  V30 981 C 89.3441 4.25124 0.495324 0
M  V30 982 C 88.6701 5.09863 1.61071 0
M  V30 983 C 89.9701 5.19143 -0.573425 0
M  V30 984 H 91.6641 2.93252 -0.603646 0
M  V30 985 H 89.2101 1.41014 -0.291741 0
M  V30 986 H 91.1631 3.88137 1.64097 0
M  V30 987 H 89.8871 2.66383 1.88965 0
M  V30 988 H 88.5461 3.66599 0.00729452 0
M  V30 989 H 88.1941 4.44288 2.35832 0
M  V30 990 H 87.8941 5.75417 1.19035 0
M  V30 991 H 89.4181 5.72529 2.12233 0
M  V30 992 H 90.8321 5.73106 -0.1491 0
M  V30 993 H 89.2291 5.93089 -0.914636 0
M  V30 994 H 90.2991 4.62519 -1.45617 0
M  V30 995 N 91.6422 0.330177 1.54103 0
M  V30 996 C 92.8722 -0.271784 2.04805 0
M  V30 997 C 93.2802 -1.45816 1.20559 0
M  V30 998 O 92.6232 -1.82247 0.2306 0
M  V30 999 C 92.6852 -0.763238 3.51305 0
M  V30 1000 C 92.3492 0.301705 4.56003 0
M  V30 1001 C 93.3462 1.13999 5.07248 0
M  V30 1002 C 91.0312 0.451793 5.00264 0
M  V30 1003 C 93.0252 2.11402 6.01322 0
M  V30 1004 C 90.7122 1.42924 5.94151 0
M  V30 1005 C 91.7102 2.25882 6.44567 0
M  V30 1006 O 91.3982 3.21965 7.3661 0
M  V30 1007 H 91.1302 -0.058693 0.673447 0
M  V30 1008 H 93.6842 0.476395 1.99799 0
M  V30 1009 H 91.9142 -1.56244 3.5373 0
M  V30 1010 H 93.6032 -1.28427 3.85047 0
M  V30 1011 H 94.3692 1.03505 4.73827 0
M  V30 1012 H 90.2482 -0.184044 4.60632 0
M  V30 1013 H 93.7922 2.76192 6.40596 0
M  V30 1014 H 89.6892 1.53479 6.26988 0
M  V30 1015 H 90.4572 3.17281 7.54503 0
M  V30 1016 N 93.1203 -1.57491 0.0584922 0
M  V30 1017 C 94.3453 -1.97711 -0.62652 0
M  V30 1018 C 94.7703 -0.936132 -1.63151 0
M  V30 1019 O 94.1283 0.099811 -1.81025 0
M  V30 1020 C 94.1763 -3.36989 -1.28338 0
M  V30 1021 O 93.2803 -3.35433 -2.39913 0
M  V30 1022 H 92.6213 -0.643868 -0.162266 0
M  V30 1023 H 95.1513 -2.04193 0.129064 0
M  V30 1024 H 95.1613 -3.73879 -1.63335 0
M  V30 1025 H 93.8363 -4.12289 -0.546889 0
M  V30 1026 H 92.4133 -3.10298 -2.06809 0
M  V30 1027 N 94.5984 0.214957 -1.56127 0
M  V30 1028 C 95.8234 0.95924 -1.83884 0
M  V30 1029 C 96.2484 1.7689 -0.639644 0
M  V30 1030 O 95.6064 1.76566 0.411601 0
M  V30 1031 C 95.6544 1.84723 -3.09693 0
M  V30 1032 O 94.7584 2.94346 -2.8885 0
M  V30 1033 H 94.0994 0.27125 -0.606069 0
M  V30 1034 H 96.6294 0.226276 -2.03345 0
M  V30 1035 H 96.6394 2.25576 -3.39969 0
M  V30 1036 H 95.3144 1.25218 -3.96602 0
M  V30 1037 H 93.8914 2.57391 -2.69823 0
M  V30 1038 N 96.0765 1.50051 0.48192 0
M  V30 1039 C 97.3045 1.64237 1.25832 0
M  V30 1040 C 97.7195 0.321336 1.86045 0
M  V30 1041 O 97.0765 -0.695478 1.68729 0
M  V30 1042 C 97.1275 2.72548 2.37487 0
M  V30 1043 O 96.8485 3.99529 1.79745 0
M  V30 1044 C 98.3495 2.9761 3.28547 0
M  V30 1045 H 95.5695 0.55237 0.380957 0
M  V30 1046 H 98.1135 1.96207 0.576467 0
M  V30 1047 H 96.2685 2.43303 3.01467 0
M  V30 1048 H 96.6825 4.59342 2.5319 0
M  V30 1049 H 98.1565 3.77084 4.03127 0
M  V30 1050 H 98.6335 2.0826 3.86684 0
M  V30 1051 H 99.2395 3.28345 2.70314 0
M  V30 1052 N 97.5546 -0.734337 1.39446 0
M  V30 1053 C 98.8006 -1.49613 1.36908 0
M  V30 1054 C 99.1336 -1.94169 -0.0347829 0
M  V30 1055 O 98.4086 -1.66833 -0.999847 0
M  V30 1056 C 98.6916 -2.73534 2.34203 0
M  V30 1057 C 98.5446 -2.34993 3.83534 0
M  V30 1058 C 99.8636 -3.75635 2.29317 0
M  V30 1059 H 96.9826 -0.542714 0.498629 0
M  V30 1060 H 99.6246 -0.839597 1.70443 0
M  V30 1061 H 97.7746 -3.29553 2.05736 0
M  V30 1062 H 99.4466 -1.84601 4.22753 0
M  V30 1063 H 97.6896 -1.67213 4.00278 0
M  V30 1064 H 98.3606 -3.23738 4.47099 0
M  V30 1065 H 100.837 -3.29203 2.54489 0
M  V30 1066 H 99.7126 -4.60008 2.99472 0
M  V30 1067 H 99.9736 -4.22603 1.29842 0
M  V30 1068 N 99.0327 -1.24633 -0.964593 0
M  V30 1069 C 100.444 -1.08045 -1.5226 0
M  V30 1070 C 100.795 0.347116 -1.93105 0
M  V30 1071 O 99.9197 1.23588 -1.77637 0
M  V30 1072 C 100.515 -1.95514 -2.76695 0
M  V30 1073 C 99.0737 -1.8314 -3.28841 0
M  V30 1074 C 98.2207 -1.90262 -2.01732 0
M  V30 1075 H 101.172 -1.38064 -0.782553 0
M  V30 1076 H 101.193 -1.48925 -3.50145 0
M  V30 1077 H 100.705 -2.99407 -2.46936 0
M  V30 1078 H 98.8057 -0.82092 -3.63444 0
M  V30 1079 H 98.9187 -2.67406 -3.97531 0
M  V30 1080 H 97.2827 -1.34027 -2.16584 0
M  V30 1081 H 98.0657 -2.9574 -1.74334 0
M  V30 1082 N 100.511 1.16574 -1.06058 0
M  V30 1083 C 101.474 2.19085 -0.673392 0
M  V30 1084 C 102.474 1.5835 0.279648 0
M  V30 1085 O 103.664 1.74088 0.0623488 0
M  V30 1086 C 100.796 3.40899 0.00954234 0
M  V30 1087 H 101.989 2.54853 -1.58081 0
M  V30 1088 H 99.5418 1.30808 -0.855516 0
M  V30 1089 H 100.277 3.10684 0.929826 0
M  V30 1090 H 100.062 3.86233 -0.67573 0
M  V30 1091 H 101.552 4.1675 0.266245 0
M  V30 1092 N 101.989 0.842826 1.3317 0
M  V30 1093 C 103.236 0.440447 1.97652 0
M  V30 1094 C 103.564 -1.00123 1.6675 0
M  V30 1095 O 102.819 -1.7155 0.941761 0
M  V30 1096 C 103.118 0.612607 3.52111 0
M  V30 1097 C 102.784 2.02297 4.02972 0
M  V30 1098 C 101.446 2.40874 4.16573 0
M  V30 1099 C 103.798 2.94402 4.30089 0
M  V30 1100 C 101.126 3.70852 4.54627 0
M  V30 1101 C 103.478 4.23865 4.69597 0
M  V30 1102 C 102.142 4.62392 4.81404 0
M  V30 1103 H 101.412 0.161171 0.72326 0
M  V30 1104 H 104.059 1.07061 1.58777 0
M  V30 1105 H 102.364 -0.100849 3.9167 0
M  V30 1106 H 104.061 0.2815 4.00011 0
M  V30 1107 H 100.651 1.71338 3.92863 0
M  V30 1108 H 104.835 2.65835 4.19101 0
M  V30 1109 H 100.091 4.00501 4.61962 0
M  V30 1110 H 104.265 4.95306 4.89536 0
M  V30 1111 H 101.892 5.63154 5.10648 0
M  V30 1112 N 103.467 -1.45747 0.599634 0
M  V30 1113 C 104.415 -2.322 -0.136426 0
M  V30 1114 C 105.409 -1.45497 -0.867583 0
M  V30 1115 O 106.615 -1.62027 -0.78405 0
M  V30 1116 H 102.99 -0.749368 -0.0628588 0
M  V30 1117 H 104.961 -2.92072 0.611281 0
M  V30 1118 C 103.71 -3.28974 -1.12567 0
M  V30 1119 H 103.033 -3.9568 -0.572484 0
M  V30 1120 H 104.473 -3.92212 -1.61077 0
M  V30 1121 C 102.932 -2.55561 -2.19523 0
M  V30 1122 O 103.462 -2.33111 -3.27143 0
M  V30 1123 N 101.668 -2.15832 -1.94589 0
M  V30 1124 H 101.215 -2.3429 -1.07078 0
M  V30 1125 H 101.173 -1.67034 -2.66359 0
M  V30 1126 N 104.945 -0.338344 -1.53925 0
M  V30 1127 C 106.356 0.146651 -1.86123 0
M  V30 1128 C 106.707 1.5042 -1.2597 0
M  V30 1129 O 105.832 2.08723 -0.571294 0
M  V30 1130 C 106.427 0.272879 -3.37699 0
M  V30 1131 C 104.986 0.702103 -3.69794 0
M  V30 1132 C 104.133 -0.167304 -2.76795 0
M  V30 1133 H 107.084 -0.558123 -1.48562 0
M  V30 1134 H 107.105 1.10128 -3.64214 0
M  V30 1135 H 106.617 -0.715307 -3.81451 0
M  V30 1136 H 104.718 1.6995 -3.31584 0
M  V30 1137 H 104.831 0.495604 -4.7653 0
M  V30 1138 H 103.195 0.359527 -2.5215 0
M  V30 1139 H 103.978 -1.15253 -3.23375 0
M  V30 1140 N 106.423 1.57458 -0.0668435 0
M  V30 1141 C 107.371 2.13639 0.919851 0
M  V30 1142 C 108.365 1.07204 1.31163 0
M  V30 1143 O 109.571 1.25591 1.28945 0
M  V30 1144 H 105.946 0.683048 0.314562 0
M  V30 1145 H 107.917 2.95415 0.421047 0
M  V30 1146 C 106.666 2.70892 2.17975 0
M  V30 1147 H 105.989 3.5246 1.88711 0
M  V30 1148 H 107.429 3.13803 2.85138 0
M  V30 1149 C 105.888 1.65414 2.93496 0
M  V30 1150 O 106.418 1.07619 3.87015 0
M  V30 1151 N 104.624 1.36564 2.56512 0
M  V30 1152 H 104.171 1.83751 1.80536 0
M  V30 1153 H 104.129 0.66223 3.07347 0
M  V30 1154 N 107.901 -0.206675 1.56239 0
M  V30 1155 C 109.147 -0.925733 1.81113 0
M  V30 1156 C 109.502 -1.81368 0.642135 0
M  V30 1157 O 108.795 -1.88126 -0.363211 0
M  V30 1158 C 108.989 -1.78675 3.09532 0
M  V30 1159 C 108.818 -0.98365 4.3881 0
M  V30 1160 C 107.588 -0.672661 5.00803 0
M  V30 1161 C 109.786 -0.341847 5.13163 0
M  V30 1162 N 107.768 0.150283 6.13716 0
M  V30 1163 C 109.139 0.343815 6.19046 0
M  V30 1164 C 111.194 -0.256392 4.97239 0
M  V30 1165 C 109.897 1.10678 7.10734 0
M  V30 1166 C 111.923 0.493142 5.8934 0
M  V30 1167 C 111.285 1.16729 6.94661 0
M  V30 1168 H 107.384 -0.318524 0.714189 0
M  V30 1169 H 109.968 -0.195378 1.93717 0
M  V30 1170 H 108.139 -2.4888 2.98183 0
M  V30 1171 H 109.871 -2.44441 3.22538 0
M  V30 1172 H 106.626 -0.994294 4.63045 0
M  V30 1173 H 107.05 0.551026 6.74754 0
M  V30 1174 H 111.692 -0.763249 4.15854 0
M  V30 1175 H 109.41 1.6251 7.91591 0
M  V30 1176 H 112.996 0.560465 5.79094 0
M  V30 1177 H 111.876 1.738 7.64698 0
M  V30 1178 N 109.379 -1.50304 -0.473955 0
M  V30 1179 C 110.604 -1.65175 -1.25427 0
M  V30 1180 C 111.029 -0.333673 -1.85117 0
M  V30 1181 O 110.387 0.702114 -1.67153 0
M  V30 1182 C 110.435 -2.74295 -2.34082 0
M  V30 1183 O 109.539 -2.35349 -3.38651 0
M  V30 1184 H 108.88 -0.551944 -0.369126 0
M  V30 1185 H 111.41 -1.96662 -0.564364 0
M  V30 1186 H 111.42 -2.97285 -2.79438 0
M  V30 1187 H 110.095 -3.69959 -1.90008 0
M  V30 1188 H 108.672 -2.22794 -2.99027 0
M  V30 1189 N 110.857 0.726932 -1.39834 0
M  V30 1190 C 112.085 1.51613 -1.40787 0
M  V30 1191 C 112.5 1.88799 -0.00451505 0
M  V30 1192 O 111.857 1.54662 0.968809 0
M  V30 1193 C 111.908 2.79863 -2.28821 0
M  V30 1194 O 111.629 2.44253 -3.63692 0
M  V30 1195 C 113.13 3.73837 -2.38245 0
M  V30 1196 H 110.35 0.468264 -0.480593 0
M  V30 1197 H 112.894 0.897607 -1.83748 0
M  V30 1198 H 111.049 3.38027 -1.89252 0
M  V30 1199 H 111.463 3.26695 -4.1033 0
M  V30 1200 H 112.937 4.60699 -3.04073 0
M  V30 1201 H 113.414 4.16153 -1.40403 0
M  V30 1202 H 114.02 3.21589 -2.78317 0
M  V30 1203 N 112.336 1.25143 0.95797 0
M  V30 1204 C 113.747 1.08851 1.51685 0
M  V30 1205 C 114.098 -0.33687 1.93286 0
M  V30 1206 O 113.223 -1.22644 1.7829 0
M  V30 1207 C 113.818 1.96978 2.75654 0
M  V30 1208 C 112.377 1.84881 3.27866 0
M  V30 1209 C 111.524 1.91329 2.0072 0
M  V30 1210 H 114.475 1.38478 0.77522 0
M  V30 1211 H 114.496 1.5078 3.4935 0
M  V30 1212 H 114.008 3.00712 2.45345 0
M  V30 1213 H 112.109 0.840182 3.63004 0
M  V30 1214 H 112.222 2.6951 3.96107 0
M  V30 1215 H 110.586 1.35174 2.15871 0
M  V30 1216 H 111.369 2.96661 1.72764 0
M  V30 1217 N 113.814 -1.1601 1.06675 0
M  V30 1218 C 115.039 -1.91068 0.806706 0
M  V30 1219 C 115.464 -1.77112 -0.633485 0
M  V30 1220 O 114.822 -1.09908 -1.44187 0
M  V30 1221 C 114.87 -3.39655 1.21106 0
M  V30 1222 O 113.974 -4.10893 0.352189 0
M  V30 1223 H 113.315 -0.595125 0.294486 0
M  V30 1224 H 115.845 -1.46955 1.42356 0
M  V30 1225 H 115.855 -3.90434 1.18428 0
M  V30 1226 H 114.53 -3.49132 2.26008 0
M  V30 1227 H 113.107 -3.70285 0.440868 0
M  V30 1228 N 115.292 -0.849877 -1.32721 0
M  V30 1229 C 116.539 -0.450923 -1.97416 0
M  V30 1230 C 116.867 0.992376 -1.67279 0
M  V30 1231 O 116.122 1.71048 -0.950845 0
M  V30 1232 C 116.421 -0.631272 -3.51781 0
M  V30 1233 C 116.087 -2.04432 -4.01894 0
M  V30 1234 C 114.749 -2.4308 -4.1529 0
M  V30 1235 C 117.101 -2.96679 -4.28522 0
M  V30 1236 C 114.429 -3.73257 -4.52654 0
M  V30 1237 C 116.781 -4.26349 -4.67343 0
M  V30 1238 C 115.445 -4.64939 -4.78945 0
M  V30 1239 H 114.715 -0.165004 -0.722395 0
M  V30 1240 H 117.362 -1.07901 -1.58207 0
M  V30 1241 H 115.667 0.0800767 -3.91718 0
M  V30 1242 H 117.364 -0.302709 -3.99856 0
M  V30 1243 H 113.954 -1.73419 -3.91949 0
M  V30 1244 H 118.138 -2.68054 -4.17685 0
M  V30 1245 H 113.394 -4.02946 -4.59831 0
M  V30 1246 H 117.568 -4.97895 -4.86902 0
M  V30 1247 H 115.195 -5.65855 -5.07654 0
M  V30 1248 N 116.77 1.45427 -0.607355 0
M  V30 1249 C 118.181 1.85756 -0.187535 0
M  V30 1250 C 118.532 1.5077 1.25551 0
M  V30 1251 O 117.657 0.93427 1.95193 0
M  V30 1252 C 118.252 3.37154 -0.333572 0
M  V30 1253 C 116.811 3.76387 0.0315542 0
M  V30 1254 C 115.958 2.69377 -0.658117 0
M  V30 1255 H 118.909 1.36231 -0.81405 0
M  V30 1256 H 118.93 3.78014 0.43428 0
M  V30 1257 H 118.442 3.62586 -1.38393 0
M  V30 1258 H 116.543 3.56571 1.0811 0
M  V30 1259 H 116.656 4.77731 -0.361935 0
M  V30 1260 H 115.02 2.5452 -0.0957873 0
M  V30 1261 H 115.803 2.97646 -1.7106 0
M  V30 1262 N 118.248 0.346503 1.53744 0
M  V30 1263 C 119.525 -0.304532 1.93215 0
M  V30 1264 C 119.905 -1.67993 1.27834 0
M  V30 1265 O 119.253 -2.24411 0.430352 0
M  V30 1266 C 119.463 -0.373852 3.46992 0
M  V30 1267 C 120.811 -0.62329 4.2 0
M  V30 1268 O 121.835 -0.455847 3.53271 0
M  V30 1269 O 120.694 -0.947879 5.38217 0
M  V30 1270 H 117.788 -0.178318 0.807547 0
M  V30 1271 H 120.334 0.397895 1.64969 0
M  V30 1272 H 119.106 0.591224 3.86808 0
M  V30 1273 H 118.729 -1.12294 3.81413 0
M  V30 1274 N 119.726 -1.57421 0.075193 0
M  V30 1275 C 120.975 -1.92794 -0.592731 0
M  V30 1276 C 121.288 -0.957478 -1.70563 0
M  V30 1277 O 122.494 -1.20417 -2.43335 0
M  V30 1278 C 120.95 -3.42495 -1.10569 0
M  V30 1279 C 120.558 -4.47994 -0.0236121 0
M  V30 1280 C 122.302 -3.86864 -1.74748 0
M  V30 1281 C 120.209 -5.88829 -0.550803 0
M  V30 1282 H 119.139 -0.719591 -0.225177 0
M  V30 1283 H 121.79 -1.82902 0.147978 0
M  V30 1284 H 120.172 -3.47471 -1.89947 0
M  V30 1285 H 121.346 -4.54637 0.751099 0
M  V30 1286 H 119.661 -4.13113 0.522159 0
M  V30 1287 H 122.258 -4.8947 -2.15229 0
M  V30 1288 H 122.601 -3.24417 -2.60882 0
M  V30 1289 H 123.134 -3.84504 -1.01986 0
M  V30 1290 H 119.873 -6.54929 0.273457 0
M  V30 1291 H 119.393 -5.85698 -1.29296 0
M  V30 1292 H 121.072 -6.38811 -1.02613 0
M  V30 1293 N 121.204 0.198386 -1.56346 0
M  V30 1294 C 122.154 1.2499 -1.90687 0
M  V30 1295 C 123.138 1.41158 -0.772217 0
M  V30 1296 O 124.33 1.43584 -1.03502 0
M  V30 1297 C 121.459 2.59542 -2.24706 0
M  V30 1298 C 120.545 2.47181 -3.44619 0
M  V30 1299 N 120.936 2.04495 -4.62618 0
M  V30 1300 C 119.234 2.78082 -3.48692 0
M  V30 1301 C 119.935 2.03945 -5.44776 0
M  V30 1302 N 118.911 2.45323 -4.85095 0
M  V30 1303 H 122.713 0.911149 -2.7942 0
M  V30 1304 H 120.227 0.40684 -1.57221 0
M  V30 1305 H 122.224 3.3549 -2.47491 0
M  V30 1306 H 120.884 2.94244 -1.37298 0
M  V30 1307 H 121.895 1.75256 -4.87345 0
M  V30 1308 H 118.572 3.17002 -2.71691 0
M  V30 1309 H 119.962 1.72872 -6.4928 0
M  V30 1310 N 122.682 1.50554 0.465978 0
M  V30 1311 C 123.612 1.72722 1.57128 0
M  V30 1312 C 124.593 0.576294 1.6004 0
M  V30 1313 O 125.778 0.81598 1.76225 0
M  V30 1314 C 122.908 1.82605 2.95419 0
M  V30 1315 C 121.862 2.97835 3.07373 0
M  V30 1316 C 121.188 2.92867 4.47363 0
M  V30 1317 C 122.488 4.38265 2.84114 0
M  V30 1318 H 124.182 2.65267 1.38829 0
M  V30 1319 H 121.728 1.2765 0.666441 0
M  V30 1320 H 123.681 1.96698 3.72677 0
M  V30 1321 H 122.405 0.866858 3.14886 0
M  V30 1322 H 121.064 2.83401 2.3255 0
M  V30 1323 H 120.712 1.94783 4.63755 0
M  V30 1324 H 120.412 3.70227 4.56296 0
M  V30 1325 H 121.936 3.09015 5.26633 0
M  V30 1326 H 123.35 4.53198 3.51118 0
M  V30 1327 H 121.747 5.17115 3.04487 0
M  V30 1328 H 122.817 4.50281 1.7993 0
M  V30 1329 N 124.16 -0.719506 1.40217 0
M  V30 1330 C 125.11 -1.8251 1.36653 0
M  V30 1331 C 126.094 -1.59028 0.244732 0
M  V30 1332 O 127.286 -1.70268 0.483524 0
M  V30 1333 C 124.415 -3.20599 1.22763 0
M  V30 1334 C 123.501 -3.49858 2.39708 0
M  V30 1335 N 123.892 -3.49957 3.6519 0
M  V30 1336 C 122.19 -3.80297 2.33002 0
M  V30 1337 C 122.891 -3.77449 4.42614 0
M  V30 1338 N 121.867 -3.96002 3.72402 0
M  V30 1339 H 125.669 -1.80914 2.31619 0
M  V30 1340 H 123.183 -0.918455 1.33933 0
M  V30 1341 H 125.18 -3.99766 1.18292 0
M  V30 1342 H 123.84 -3.23424 0.287614 0
M  V30 1343 H 124.851 -3.309 3.98404 0
M  V30 1344 H 121.528 -3.90635 1.47346 0
M  V30 1345 H 122.918 -3.83863 5.51451 0
M  V30 1346 N 125.638 -1.25649 -0.95132 0
M  V30 1347 C 126.57 -1.02112 -2.05197 0
M  V30 1348 C 127.583 0.0150571 -1.62793 0
M  V30 1349 O 128.772 -0.223874 -1.77091 0
M  V30 1350 C 125.872 -0.522361 -3.3485 0
M  V30 1351 C 125.045 -1.62546 -4.06076 0
M  V30 1352 C 124.104 -1.12649 -5.14001 0
M  V30 1353 O 123.13 -1.82156 -5.39266 0
M  V30 1354 N 124.332 0.03047 -5.80492 0
M  V30 1355 H 127.097 -1.96885 -2.25957 0
M  V30 1356 H 124.658 -1.16899 -1.1201 0
M  V30 1357 H 126.65 -0.172961 -4.0433 0
M  V30 1358 H 125.22 0.33151 -3.10837 0
M  V30 1359 H 124.44 -2.14628 -3.30649 0
M  V30 1360 H 125.728 -2.36644 -4.50419 0
M  V30 1361 H 125.126 0.611169 -5.62389 0
M  V30 1362 H 123.683 0.320875 -6.5101 0
M  V30 1363 N 127.117 1.15442 -1.07289 0
M  V30 1364 C 128.394 1.82306 -0.708792 0
M  V30 1365 C 128.774 1.94991 0.808807 0
M  V30 1366 O 128.122 1.50085 1.72298 0
M  V30 1367 C 128.332 3.18695 -1.42247 0
M  V30 1368 C 129.68 3.94341 -1.57417 0
M  V30 1369 O 130.704 3.28247 -1.38319 0
M  V30 1370 O 129.563 5.12839 -1.88834 0
M  V30 1371 H 126.657 0.787628 -0.252132 0
M  V30 1372 H 129.203 1.22559 -1.17377 0
M  V30 1373 H 127.975 3.04557 -2.45684 0
M  V30 1374 H 127.598 3.86128 -0.948223 0
M  V30 1375 N 128.595 0.856903 1.32268 0
M  V30 1376 C 129.525 0.31858 2.31316 0
M  V30 1377 C 130.506 -0.583487 1.59779 0
M  V30 1378 O 131.691 -0.503259 1.87566 0
M  V30 1379 C 128.821 -0.491979 3.43798 0
M  V30 1380 C 127.775 0.315849 4.26833 0
M  V30 1381 C 127.101 -0.619586 5.31098 0
M  V30 1382 C 128.401 1.54282 4.98993 0
M  V30 1383 H 130.095 1.14621 2.76591 0
M  V30 1384 H 127.641 0.552613 1.32974 0
M  V30 1385 H 129.594 -0.879012 4.1213 0
M  V30 1386 H 128.318 -1.35299 2.97257 0
M  V30 1387 H 126.977 0.684664 3.6015 0
M  V30 1388 H 126.625 -1.47751 4.8081 0
M  V30 1389 H 126.325 -0.0830621 5.87541 0
M  V30 1390 H 127.849 -1.00375 6.02293 0
M  V30 1391 H 129.263 1.22796 5.59995 0
M  V30 1392 H 127.66 2.01745 5.65172 0
M  V30 1393 H 128.73 2.30285 4.26728 0
M  V30 1394 N 130.073 -1.45103 0.615059 0
M  V30 1395 C 131.322 -2.01396 0.110718 0
M  V30 1396 C 131.635 -1.48834 -1.26916 0
M  V30 1397 O 132.841 -1.97152 -1.86664 0
M  V30 1398 C 131.297 -3.59599 0.14723 0
M  V30 1399 C 130.905 -4.21158 1.52743 0
M  V30 1400 C 132.649 -4.23428 -0.30148 0
M  V30 1401 C 130.556 -5.71535 1.51992 0
M  V30 1402 H 129.486 -0.753061 0.0376241 0
M  V30 1403 H 132.137 -1.66494 0.77149 0
M  V30 1404 H 130.519 -3.91724 -0.580339 0
M  V30 1405 H 131.693 -4.00594 2.2773 0
M  V30 1406 H 130.008 -3.69552 1.91886 0
M  V30 1407 H 132.605 -5.33703 -0.326392 0
M  V30 1408 H 132.948 -3.94629 -1.32565 0
M  V30 1409 H 133.481 -3.96047 0.373065 0
M  V30 1410 H 130.22 -6.05044 2.52193 0
M  V30 1411 H 129.74 -5.94268 0.81274 0
M  V30 1412 H 131.419 -6.34873 1.24681 0
M  V30 1413 N 131.551 -0.354651 -1.53558 0
M  V30 1414 C 132.776 0.242153 -2.05981 0
M  V30 1415 C 133.201 1.42553 -1.2272 0
M  V30 1416 O 132.559 1.79656 -0.243604 0
M  V30 1417 C 132.607 0.624367 -3.55154 0
M  V30 1418 O 131.711 1.72301 -3.74681 0
M  V30 1419 H 131.052 0.0378432 -0.662921 0
M  V30 1420 H 133.582 -0.512087 -1.98088 0
M  V30 1421 H 133.592 0.898433 -3.97985 0
M  V30 1422 H 132.267 -0.240989 -4.15201 0
M  V30 1423 H 130.844 1.44535 -3.4375 0
M  V30 1424 N 133.029 1.57378 -0.0835403 0
M  V30 1425 C 133.976 2.13384 0.879539 0
M  V30 1426 C 134.946 1.04936 1.28754 0
M  V30 1427 O 136.131 1.32662 1.37133 0
M  V30 1428 C 133.271 2.70932 2.13752 0
M  V30 1429 C 132.384 3.93575 1.7811 0
M  V30 1430 C 131.519 4.39326 2.98607 0
M  V30 1431 C 130.558 5.54587 2.59037 0
M  V30 1432 N 129.695 5.95243 3.72331 0
M  V30 1433 H 134.535 2.9537 0.395076 0
M  V30 1434 H 132.072 1.45953 0.183349 0
M  V30 1435 H 134.03 3.02411 2.87408 0
M  V30 1436 H 132.66 1.91693 2.59718 0
M  V30 1437 H 131.712 3.68483 0.94469 0
M  V30 1438 H 133.024 4.77258 1.45005 0
M  V30 1439 H 132.178 4.72528 3.80529 0
M  V30 1440 H 130.917 3.5452 3.34913 0
M  V30 1441 H 129.922 5.21024 1.75539 0
M  V30 1442 H 131.147 6.41133 2.23887 0
M  V30 1443 H 129.093 5.13385 4.08378 0
M  V30 1444 H 129.01 6.73694 3.43034 0
M  V30 1445 H 130.278 6.33072 4.54797 0
M  V30 1446 N 134.507 -0.190092 1.56449 0
M  V30 1447 C 135.747 -0.916414 1.82705 0
M  V30 1448 C 136.111 -1.80235 0.661763 0
M  V30 1449 O 137.312 -2.56484 0.80433 0
M  V30 1450 C 135.583 -1.70691 3.14005 0
M  V30 1451 S 137.142 -2.48457 3.61683 0
M  V30 1452 H 133.96 -0.307281 0.64117 0
M  V30 1453 H 136.562 -0.179433 1.94675 0
M  V30 1454 H 135.266 -1.04677 3.96826 0
M  V30 1455 H 134.797 -2.48562 3.04927 0
M  V30 1456 H 136.812 -3.72756 3.27517 0
M  V30 1457 N 135.985 -1.50799 -0.457987 0
M  V30 1458 C 136.895 -1.73426 -1.57989 0
M  V30 1459 C 137.911 -0.617745 -1.62665 0
M  V30 1460 O 139.087 -0.897614 -1.80291 0
M  V30 1461 C 136.152 -1.83557 -2.94122 0
M  V30 1462 C 135.213 -3.07345 -2.99729 0
M  V30 1463 C 134.446 -3.16983 -4.29368 0
M  V30 1464 O 134.669 -2.33077 -5.20607 0
M  V30 1465 O 133.603 -4.09812 -4.40837 0
M  V30 1466 H 137.429 -2.68555 -1.41817 0
M  V30 1467 H 135.014 -1.35052 -0.638859 0
M  V30 1468 H 136.896 -1.92326 -3.74952 0
M  V30 1469 H 135.571 -0.916137 -3.10465 0
M  V30 1470 H 134.478 -3.04068 -2.1793 0
M  V30 1471 H 135.811 -3.9891 -2.88326 0
M  V30 1472 N 137.463 0.71206 -1.40597 0
M  V30 1473 C 138.395 1.83704 -1.37061 0
M  V30 1474 C 139.408 1.60453 -0.275426 0
M  V30 1475 O 140.597 1.70262 -0.53602 0
M  V30 1476 C 137.697 3.20172 -1.11099 0
M  V30 1477 C 136.87 3.7059 -2.3234 0
M  V30 1478 C 135.929 4.85681 -2.02485 0
M  V30 1479 O 134.955 4.9815 -2.75382 0
M  V30 1480 N 136.157 5.71735 -1.00497 0
M  V30 1481 H 138.922 1.87235 -2.34016 0
M  V30 1482 H 136.483 0.893739 -1.34996 0
M  V30 1483 H 138.475 3.94768 -0.891064 0
M  V30 1484 H 137.045 3.11767 -0.227989 0
M  V30 1485 H 136.265 2.87085 -2.7014 0
M  V30 1486 H 137.553 4.01011 -3.13157 0
M  V30 1487 H 136.951 5.64275 -0.401298 0
M  V30 1488 H 135.508 6.463 -0.844942 0
M  V30 1489 N 138.941 1.26152 0.944643 0
M  V30 1490 C 140.188 1.11492 1.69044 0
M  V30 1491 C 140.516 -0.342366 1.91463 0
M  V30 1492 O 139.771 -1.26812 1.49054 0
M  V30 1493 C 140.07 1.82541 3.07268 0
M  V30 1494 C 139.736 3.32445 3.04616 0
M  V30 1495 C 138.398 3.73337 3.036 0
M  V30 1496 C 140.75 4.28171 2.97185 0
M  V30 1497 C 138.078 5.08348 2.92915 0
M  V30 1498 C 140.43 5.63218 2.88041 0
M  V30 1499 C 139.094 6.03426 2.85366 0
M  V30 1500 H 138.364 0.407977 0.618576 0
M  V30 1501 H 141.011 1.56551 1.10291 0
M  V30 1502 H 139.316 1.29941 3.69625 0
M  V30 1503 H 141.013 1.68642 3.63815 0
M  V30 1504 H 137.603 2.99915 3.06185 0
M  V30 1505 H 141.787 3.97563 2.97081 0
M  V30 1506 H 137.043 5.38667 2.89219 0
M  V30 1507 H 141.217 6.37078 2.81254 0
M  V30 1508 H 138.844 7.07999 2.76842 0
M  V30 1509 N 140.419 -1.14872 1.07899 0
M  V30 1510 C 141.665 -1.86064 0.806725 0
M  V30 1511 C 141.998 -1.82434 -0.665706 0
M  V30 1512 O 141.273 -1.25138 -1.48899 0
M  V30 1513 C 141.556 -3.34929 1.32267 0
M  V30 1514 C 141.409 -3.47161 2.86006 0
M  V30 1515 C 142.728 -4.29863 0.943717 0
M  V30 1516 H 139.847 -0.675591 0.294526 0
M  V30 1517 H 142.489 -1.34925 1.33773 0
M  V30 1518 H 140.639 -3.78611 0.870974 0
M  V30 1519 H 142.311 -3.12302 3.39507 0
M  V30 1520 H 140.554 -2.88539 3.23925 0
M  V30 1521 H 141.225 -4.51777 3.17177 0
M  V30 1522 H 143.701 -3.9417 1.33302 0
M  V30 1523 H 142.577 -5.32494 1.33198 0
M  V30 1524 H 142.838 -4.41846 -0.149796 0
M  V30 1525 N 141.898 -0.863906 -1.31812 0
M  V30 1526 C 143.146 -0.470904 -1.96537 0
M  V30 1527 C 143.467 0.978771 -1.68657 0
M  V30 1528 O 142.737 1.6853 -0.998717 0
M  V30 1529 H 141.317 -0.171148 -0.72713 0
M  V30 1530 H 143.979 -1.10236 -1.60729 0
M  V30 1531 H 143.075 -0.623616 -3.05806 0
M  V30 1532 N 143.376 1.44774 -0.622745 0
M  V30 1533 C 144.787 1.85546 -0.207226 0
M  V30 1534 C 145.138 1.52093 1.23944 0
M  V30 1535 O 144.263 0.95492 1.94191 0
M  V30 1536 C 144.858 3.36781 -0.369313 0
M  V30 1537 C 143.417 3.76399 -0.00836847 0
M  V30 1538 C 142.564 2.68664 -0.686651 0
M  V30 1539 H 145.515 1.3536 -0.828454 0
M  V30 1540 H 145.536 3.78453 0.394162 0
M  V30 1541 H 145.048 3.61098 -1.42231 0
M  V30 1542 H 143.149 3.57698 1.04322 0
M  V30 1543 H 143.262 4.7732 -0.412584 0
M  V30 1544 H 141.626 2.54404 -0.122777 0
M  V30 1545 H 142.409 2.95815 -1.74208 0
M  V30 1546 N 144.854 0.36279 1.53368 0
M  V30 1547 C 145.784 -0.476976 2.28576 0
M  V30 1548 C 146.765 -1.08631 1.30894 0
M  V30 1549 O 147.95 -1.10409 1.59761 0
M  V30 1550 C 145.08 -1.61828 3.07293 0
M  V30 1551 C 144.034 -1.13633 4.1264 0
M  V30 1552 C 143.36 -2.36766 4.79423 0
M  V30 1553 C 144.66 -0.223061 5.21823 0
M  V30 1554 H 146.354 0.150474 2.99022 0
M  V30 1555 H 143.9 0.0738103 1.43811 0
M  V30 1556 H 145.853 -2.21237 3.58653 0
M  V30 1557 H 144.577 -2.27292 2.34533 0
M  V30 1558 H 143.236 -0.564945 3.62221 0
M  V30 1559 H 142.884 -3.0068 4.03238 0
M  V30 1560 H 142.584 -2.05192 5.50609 0
M  V30 1561 H 144.108 -2.96865 5.33576 0
M  V30 1562 H 145.522 -0.724545 5.68703 0
M  V30 1563 H 143.919 0.001678 6.001 0
M  V30 1564 H 144.989 0.735553 4.79289 0
M  V30 1565 N 146.332 -1.57332 0.0918853 0
M  V30 1566 C 147.56 -1.98574 -0.581048 0
M  V30 1567 C 147.975 -0.970903 -1.61923 0
M  V30 1568 O 147.332 0.0399054 -1.82456 0
M  V30 1569 C 147.383 -3.39872 -1.23164 0
M  V30 1570 O 147.104 -4.37469 -0.234989 0
M  V30 1571 C 148.605 -3.96099 -1.99049 0
M  V30 1572 H 145.825 -0.65261 -0.156018 0
M  V30 1573 H 148.369 -2.0379 0.170225 0
M  V30 1574 H 146.524 -3.35679 -1.93386 0
M  V30 1575 H 146.938 -5.19751 -0.70418 0
M  V30 1576 H 148.412 -4.97127 -2.39934 0
M  V30 1577 H 148.889 -3.3374 -2.85507 0
M  V30 1578 H 149.495 -4.03755 -1.3365 0
M  V30 1579 N 147.81 0.181792 -1.56548 0
M  V30 1580 C 148.757 1.22521 -1.95595 0
M  V30 1581 C 149.727 1.4454 -0.818373 0
M  V30 1582 O 150.912 1.57454 -1.07763 0
M  V30 1583 C 148.052 2.56193 -2.31212 0
M  V30 1584 C 147.165 2.41641 -3.58097 0
M  V30 1585 C 146.3 3.68108 -3.82975 0
M  V30 1586 C 145.339 3.48445 -5.03242 0
M  V30 1587 N 144.476 4.66956 -5.24306 0
M  V30 1588 H 149.316 0.885226 -2.84548 0
M  V30 1589 H 146.853 0.425718 -1.40805 0
M  V30 1590 H 148.811 3.34088 -2.49882 0
M  V30 1591 H 147.441 2.88208 -1.45382 0
M  V30 1592 H 146.493 1.54976 -3.474 0
M  V30 1593 H 147.805 2.23052 -4.46149 0
M  V30 1594 H 146.959 4.54441 -4.01956 0
M  V30 1595 H 145.698 3.89666 -2.93278 0
M  V30 1596 H 144.703 2.60499 -4.8417 0
M  V30 1597 H 145.928 3.2832 -5.9446 0
M  V30 1598 H 143.874 4.88752 -4.37559 0
M  V30 1599 H 143.791 4.51242 -6.06561 0
M  V30 1600 H 145.059 5.54602 -5.47756 0
M  V30 1601 N 149.288 1.51039 0.449983 0
M  V30 1602 C 150.236 1.71995 1.5659 0
M  V30 1603 C 151.23 0.586029 1.5894 0
M  V30 1604 O 152.436 0.76709 1.62837 0
M  V30 1605 H 148.811 0.543233 0.520001 0
M  V30 1606 H 150.782 2.65562 1.36085 0
M  V30 1607 C 149.531 1.8506 2.9436 0
M  V30 1608 H 148.854 2.71712 2.93279 0
M  V30 1609 H 150.294 2.0374 3.71842 0
M  V30 1610 C 148.753 0.607277 3.31382 0
M  V30 1611 O 149.283 -0.243903 4.00959 0
M  V30 1612 N 147.489 0.455073 2.87015 0
M  V30 1613 H 147.036 1.14879 2.30566 0
M  V30 1614 H 146.994 -0.375611 3.12148 0
M  V30 1615 N 150.766 -0.704594 1.40972 0
M  V30 1616 C 151.676 -1.84856 1.44448 0
M  V30 1617 C 152.692 -1.70726 0.335961 0
M  V30 1618 O 153.868 -1.92799 0.582276 0
M  V30 1619 C 150.933 -3.20758 1.31587 0
M  V30 1620 C 149.994 -3.47063 2.52677 0
M  V30 1621 C 149.227 -4.76481 2.4042 0
M  V30 1622 O 149.45 -5.52341 1.42391 0
M  V30 1623 O 148.384 -5.03367 3.30007 0
M  V30 1624 H 152.21 -1.8488 2.40942 0
M  V30 1625 H 149.795 -0.85647 1.22413 0
M  V30 1626 H 151.677 -4.01913 1.26665 0
M  V30 1627 H 150.352 -3.21438 0.382049 0
M  V30 1628 H 149.259 -2.65873 2.63177 0
M  V30 1629 H 150.592 -3.5119 3.44858 0
M  V30 1630 N 152.244 -1.26651 -0.937939 0
M  V30 1631 C 153.174 -1.10993 -2.05433 0
M  V30 1632 C 154.155 -0.0142161 -1.70094 0
M  V30 1633 O 155.34 -0.186837 -1.93299 0
M  V30 1634 C 152.47 -0.745561 -3.39203 0
M  V30 1635 C 151.424 -1.79337 -3.88616 0
M  V30 1636 C 150.75 -1.28324 -5.19073 0
M  V30 1637 C 152.05 -3.19553 -4.13138 0
M  V30 1638 H 153.744 -2.0438 -2.1879 0
M  V30 1639 H 151.29 -0.984041 -1.05131 0
M  V30 1640 H 153.243 -0.622888 -4.16771 0
M  V30 1641 H 151.967 0.22401 -3.25831 0
M  V30 1642 H 150.626 -1.90477 -3.13231 0
M  V30 1643 H 150.274 -0.303414 -5.02084 0
M  V30 1644 H 149.974 -1.98369 -5.53103 0
M  V30 1645 H 151.498 -1.1733 -5.99221 0
M  V30 1646 H 152.912 -3.11471 -4.81309 0
M  V30 1647 H 151.309 -3.87218 -4.58457 0
M  V30 1648 H 152.379 -3.65368 -3.18801 0
M  V30 1649 N 153.722 1.14298 -1.08507 0
M  V30 1650 C 155.138 1.37347 -0.812901 0
M  V30 1651 C 155.338 1.93052 0.577325 0
M  V30 1652 O 154.394 2.14389 1.33393 0
M  V30 1653 C 155.707 2.33359 -1.89642 0
M  V30 1654 C 157.255 2.46996 -1.92255 0
M  V30 1655 C 157.73 3.46309 -2.99724 0
M  V30 1656 N 159.221 3.53853 -2.98902 0
M  V30 1657 C 159.956 4.3055 -3.787 0
M  V30 1658 N 159.452 5.10482 -4.6838 0
M  V30 1659 N 161.245 4.25757 -3.66998 0
M  V30 1660 H 153.396 0.764867 -1.9815 0
M  V30 1661 H 155.659 0.398966 -0.859959 0
M  V30 1662 H 155.365 1.99565 -2.89597 0
M  V30 1663 H 155.239 3.33274 -1.76659 0
M  V30 1664 H 157.626 2.80081 -0.929445 0
M  V30 1665 H 157.707 1.47039 -2.09316 0
M  V30 1666 H 157.351 3.13957 -3.99241 0
M  V30 1667 H 157.281 4.46049 -2.79907 0
M  V30 1668 H 159.772 2.96812 -2.33904 0
M  V30 1669 H 160.085 5.66284 -5.25873 0
M  V30 1670 H 158.43 5.09747 -4.72422 0
M  V30 1671 H 161.621 3.62383 -2.96304 0
M  V30 1672 H 161.794 4.85279 -4.29427 0
M  V30 1673 N 155.201 0.870884 1.31352 0
M  V30 1674 C 156.617 0.562932 1.49343 0
M  V30 1675 C 156.817 -0.902725 1.80148 0
M  V30 1676 O 155.873 -1.68484 1.88067 0
M  V30 1677 C 157.186 1.46393 2.62659 0
M  V30 1678 C 158.734 1.46607 2.76542 0
M  V30 1679 C 159.209 2.35266 3.92955 0
M  V30 1680 N 160.7 2.33151 4.00243 0
M  V30 1681 C 161.435 2.98471 4.89594 0
M  V30 1682 N 160.931 3.72964 5.8384 0
M  V30 1683 N 162.724 2.87775 4.82848 0
M  V30 1684 H 154.875 1.81923 1.09626 0
M  V30 1685 H 157.138 0.777934 0.541777 0
M  V30 1686 H 156.844 2.50689 2.46674 0
M  V30 1687 H 156.718 1.16314 3.58819 0
M  V30 1688 H 159.105 0.43069 2.9194 0
M  V30 1689 H 159.186 1.8071 1.81046 0
M  V30 1690 H 158.83 3.38881 3.78315 0
M  V30 1691 H 158.76 1.98487 4.87761 0
M  V30 1692 H 161.251 1.79006 3.32814 0
M  V30 1693 H 161.564 4.19932 6.4875 0
M  V30 1694 H 159.909 3.77073 5.83816 0
M  V30 1695 H 163.1 2.29116 4.08195 0
M  V30 1696 H 163.273 3.38961 5.52277 0
M  V30 1697 N 156.679 -1.44442 0.630414 0
M  V30 1698 C 157.609 -2.33418 -0.0618083 0
M  V30 1699 C 158.59 -1.48165 -0.835541 0
M  V30 1700 O 159.775 -1.76886 -0.801564 0
M  V30 1701 C 156.905 -3.31222 -1.04449 0
M  V30 1702 C 155.859 -4.26288 -0.382436 0
M  V30 1703 C 155.185 -5.13954 -1.47497 0
M  V30 1704 C 156.485 -5.1744 0.710865 0
M  V30 1705 H 158.179 -2.91548 0.681184 0
M  V30 1706 H 155.725 -1.40191 0.329026 0
M  V30 1707 H 157.678 -3.92351 -1.53748 0
M  V30 1708 H 156.402 -2.71299 -1.81836 0
M  V30 1709 H 155.061 -3.6649 0.0899054 0
M  V30 1710 H 154.709 -4.50385 -2.2397 0
M  V30 1711 H 154.409 -5.7837 -1.03737 0
M  V30 1712 H 155.933 -5.77955 -1.96979 0
M  V30 1713 H 157.347 -5.72509 0.300996 0
M  V30 1714 H 155.744 -5.90455 1.07156 0
M  V30 1715 H 156.814 -4.58496 1.57829 0
M  V30 1716 N 158.157 -0.370918 -1.53173 0
M  V30 1717 C 159.104 0.473035 -2.259 0
M  V30 1718 C 160.074 1.07311 -1.26781 0
M  V30 1719 O 161.259 1.1046 -1.55574 0
M  V30 1720 C 158.399 1.60405 -3.05556 0
M  V30 1721 C 157.512 1.02863 -4.19575 0
M  V30 1722 C 156.647 2.12918 -4.86661 0
M  V30 1723 C 155.686 1.52869 -5.92704 0
M  V30 1724 N 154.823 2.56779 -6.53459 0
M  V30 1725 H 159.663 -0.153649 -2.97604 0
M  V30 1726 H 157.2 -0.0875946 -1.46839 0
M  V30 1727 H 159.158 2.27034 -3.50016 0
M  V30 1728 H 157.788 2.20131 -2.36097 0
M  V30 1729 H 156.84 0.252465 -3.79561 0
M  V30 1730 H 158.152 0.549642 -4.95762 0
M  V30 1731 H 157.306 2.87356 -5.34333 0
M  V30 1732 H 156.045 2.6417 -4.09958 0
M  V30 1733 H 155.05 0.769479 -5.44389 0
M  V30 1734 H 156.275 1.02435 -6.7133 0
M  V30 1735 H 154.221 3.07235 -5.79606 0
M  V30 1736 H 154.138 2.13583 -7.25202 0
M  V30 1737 H 155.406 3.30903 -7.05779 0
M  V30 1738 N 159.635 1.57281 -0.100228 0
M  V30 1739 C 160.565 2.17328 0.853857 0
M  V30 1740 C 161.546 1.10804 1.2906 0
M  V30 1741 O 162.731 1.38963 1.35657 0
M  V30 1742 C 159.861 2.75772 2.11109 0
M  V30 1743 C 158.815 3.87713 1.81279 0
M  V30 1744 C 158.141 4.32882 3.13874 0
M  V30 1745 C 159.441 5.10677 1.09574 0
M  V30 1746 H 161.135 2.97305 0.353545 0
M  V30 1747 H 158.681 1.43009 0.168612 0
M  V30 1748 H 160.634 3.16433 2.78296 0
M  V30 1749 H 159.358 1.93057 2.63432 0
M  V30 1750 H 158.017 3.476 1.16489 0
M  V30 1751 H 157.665 3.47051 3.64095 0
M  V30 1752 H 157.365 5.08358 2.94696 0
M  V30 1753 H 158.889 4.7618 3.82211 0
M  V30 1754 H 160.303 5.48474 1.66879 0
M  V30 1755 H 158.7 5.91615 1.00557 0
M  V30 1756 H 159.77 4.84835 0.0793299 0
M  V30 1757 N 161.113 -0.173488 1.56642 0
M  V30 1758 C 162.359 -0.891784 1.8214 0
M  V30 1759 C 162.692 -1.8199 0.677736 0
M  V30 1760 O 161.967 -1.91842 -0.320446 0
M  V30 1761 C 162.25 -1.68933 3.18015 0
M  V30 1762 C 162.103 -0.784487 4.42906 0
M  V30 1763 C 163.422 -2.65748 3.50808 0
M  V30 1764 H 160.541 -0.322761 0.662567 0
M  V30 1765 H 163.183 -0.158095 1.89341 0
M  V30 1766 H 161.333 -2.31482 3.12007 0
M  V30 1767 H 163.005 -0.172046 4.60979 0
M  V30 1768 H 161.248 -0.0924117 4.33702 0
M  V30 1769 H 161.919 -1.37799 5.34524 0
M  V30 1770 H 164.395 -2.13327 3.57255 0
M  V30 1771 H 163.271 -3.18619 4.4696 0
M  V30 1772 H 163.532 -3.45842 2.75401 0
M  V30 1773 N 162.591 -1.51276 -0.441967 0
M  V30 1774 C 163.524 -1.66933 -1.55591 0
M  V30 1775 C 164.502 -0.516958 -1.54163 0
M  V30 1776 O 165.686 -0.740209 -1.73358 0
M  V30 1777 C 162.813 -1.67866 -2.94174 0
M  V30 1778 C 161.859 -2.89013 -3.13646 0
M  V30 1779 S 162.692 -4.49897 -2.90436 0
M  V30 1780 C 163.848 -4.53568 -4.31308 0
M  V30 1781 H 164.081 -2.61155 -1.42076 0
M  V30 1782 H 161.614 -1.40902 -0.631341 0
M  V30 1783 H 163.572 -1.69089 -3.74058 0
M  V30 1784 H 162.233 -0.748296 -3.05056 0
M  V30 1785 H 161.426 -2.86054 -4.14957 0
M  V30 1786 H 161.028 -2.85509 -2.4158 0
M  V30 1787 H 163.32 -4.28924 -5.24434 0
M  V30 1788 H 164.263 -5.55355 -4.39303 0
M  V30 1789 H 164.671 -3.82943 -4.14747 0
M  V30 1790 N 164.069 0.697108 -1.41344 0
M  V30 1791 C 165.48 1.27697 -1.36199 0
M  V30 1792 C 165.831 1.9615 -0.0443463 0
M  V30 1793 O 164.956 1.98689 0.857419 0
M  V30 1794 C 165.551 2.32223 -2.46694 0
M  V30 1795 C 164.11 2.8579 -2.44952 0
M  V30 1796 C 163.257 1.59807 -2.26621 0
M  V30 1797 H 166.208 0.491968 -1.50882 0
M  V30 1798 H 166.229 3.1348 -2.15664 0
M  V30 1799 H 165.741 1.82373 -3.42581 0
M  V30 1800 H 163.842 3.3982 -1.52817 0
M  V30 1801 H 163.955 3.36325 -3.41207 0
M  V30 1802 H 162.319 1.8556 -1.7447 0
M  V30 1803 H 163.102 1.11956 -3.24532 0
M  V30 1804 N 165.547 1.27147 0.931209 0
M  V30 1805 C 166.51 1.09615 2.01289 0
M  V30 1806 C 167.51 0.0412581 1.60747 0
M  V30 1807 O 168.7 0.285545 1.71844 0
M  V30 1808 C 165.832 0.669447 3.34262 0
M  V30 1809 H 167.025 2.05662 2.18273 0
M  V30 1810 H 164.578 1.09885 1.11153 0
M  V30 1811 H 165.313 -0.292572 3.22978 0
M  V30 1812 H 165.098 1.43127 3.65044 0
M  V30 1813 H 166.588 0.568921 4.13706 0
M  V30 1814 N 167.025 -1.13721 1.09112 0
M  V30 1815 C 168.441 -1.36914 0.820174 0
M  V30 1816 C 168.641 -1.93356 -0.567079 0
M  V30 1817 O 167.697 -2.15093 -1.32255 0
M  V30 1818 C 169.01 -2.3235 1.90877 0
M  V30 1819 C 170.558 -2.45973 1.93562 0
M  V30 1820 C 171.033 -3.44714 3.01556 0
M  V30 1821 N 172.524 -3.52263 3.00775 0
M  V30 1822 C 173.259 -4.28536 3.80978 0
M  V30 1823 N 172.755 -5.07991 4.71081 0
M  V30 1824 N 174.548 -4.23804 3.69251 0
M  V30 1825 H 166.699 -0.754348 1.98553 0
M  V30 1826 H 168.962 -0.3944 0.862063 0
M  V30 1827 H 168.668 -1.98027 2.90651 0
M  V30 1828 H 168.542 -3.32332 1.78424 0
M  V30 1829 H 170.929 -2.79584 0.944286 0
M  V30 1830 H 171.01 -1.45926 2.10093 0
M  V30 1831 H 170.654 -3.11835 4.00901 0
M  V30 1832 H 170.584 -4.44558 2.82269 0
M  V30 1833 H 173.075 -2.95567 2.35475 0
M  V30 1834 H 173.388 -5.63487 5.28869 0
M  V30 1835 H 171.733 -5.07235 4.75119 0
M  V30 1836 H 174.924 -3.60806 2.98222 0
M  V30 1837 H 175.097 -4.82995 4.31995 0
M  V30 1838 N 168.503 -0.877838 -1.30888 0
M  V30 1839 C 169.75 -0.492696 -1.96415 0
M  V30 1840 C 170.078 0.956671 -1.69346 0
M  V30 1841 O 169.333 1.68993 -0.986913 0
M  V30 1842 C 169.632 -0.705748 -3.50363 0
M  V30 1843 C 169.298 -2.1291 -3.97467 0
M  V30 1844 C 167.96 -2.51834 -4.1004 0
M  V30 1845 C 170.312 -3.05702 -4.22132 0
M  V30 1846 C 167.64 -3.82775 -4.44635 0
M  V30 1847 C 169.992 -4.36166 -4.58194 0
M  V30 1848 C 168.656 -4.74993 -4.68975 0
M  V30 1849 H 167.926 -0.18029 -0.718733 0
M  V30 1850 H 170.573 -1.11233 -1.55883 0
M  V30 1851 H 168.878 -0.00303058 -3.918 0
M  V30 1852 H 170.575 -0.387456 -3.99124 0
M  V30 1853 H 167.165 -1.81694 -3.88182 0
M  V30 1854 H 171.349 -2.76853 -4.11906 0
M  V30 1855 H 166.605 -4.12609 -4.51181 0
M  V30 1856 H 170.779 -5.08111 -4.76231 0
M  V30 1857 H 168.406 -5.76495 -4.95537 0
M  V30 1858 N 169.982 1.44106 -0.638065 0
M  V30 1859 C 171.212 2.06037 -0.152394 0
M  V30 1860 C 171.62 1.47808 1.18108 0
M  V30 1861 O 170.963 0.598092 1.73691 0
M  V30 1862 C 171.025 3.59488 0.0293714 0
M  V30 1863 C 170.689 4.4022 -1.22702 0
M  V30 1864 C 171.686 4.73256 -2.15232 0
M  V30 1865 C 169.371 4.8048 -1.46437 0
M  V30 1866 C 171.365 5.45444 -3.29802 0
M  V30 1867 C 169.052 5.52417 -2.61303 0
M  V30 1868 C 170.05 5.84819 -3.52811 0
M  V30 1869 O 169.738 6.55289 -4.65673 0
M  V30 1870 H 169.47 0.671233 -0.0801401 0
M  V30 1871 H 172.024 1.85851 -0.874563 0
M  V30 1872 H 170.254 3.78191 0.806758 0
M  V30 1873 H 171.943 4.03164 0.470475 0
M  V30 1874 H 172.709 4.42684 -1.98131 0
M  V30 1875 H 168.588 4.54676 -0.760977 0
M  V30 1876 H 172.132 5.70653 -4.01249 0
M  V30 1877 H 168.029 5.82404 -2.78344 0
M  V30 1878 H 168.797 6.73762 -4.64744 0
M  V30 1879 N 171.46 0.379036 1.52974 0
M  V30 1880 C 172.871 -0.0972525 1.86447 0
M  V30 1881 C 173.222 -1.47027 1.29914 0
M  V30 1882 O 172.347 -2.07135 0.626433 0
M  V30 1883 C 172.942 -0.183248 3.38304 0
M  V30 1884 C 171.501 -0.603812 3.71525 0
M  V30 1885 C 170.648 0.240632 2.76254 0
M  V30 1886 H 173.599 0.597316 1.4703 0
M  V30 1887 H 173.62 -1.00432 3.67006 0
M  V30 1888 H 173.132 0.816191 3.79421 0
M  V30 1889 H 171.233 -1.61099 3.35973 0
M  V30 1890 H 171.346 -0.369086 4.77676 0
M  V30 1891 H 169.71 -0.292548 2.53014 0
M  V30 1892 H 170.493 1.23786 3.20206 0
M  V30 1893 N 172.938 -1.57226 0.108567 0
M  V30 1894 C 173.885 -2.14756 -0.845481 0
M  V30 1895 C 174.855 -1.06971 -1.27068 0
M  V30 1896 O 176.04 -1.34827 -1.35005 0
M  V30 1897 C 173.18 -2.74298 -2.09415 0
M  V30 1898 C 172.293 -3.96358 -1.71826 0
M  V30 1899 C 171.428 -4.44021 -2.9158 0
M  V30 1900 C 170.467 -5.58637 -2.50181 0
M  V30 1901 N 169.604 -6.01091 -3.62814 0
M  V30 1902 H 174.444 -2.95961 -0.348035 0
M  V30 1903 H 171.981 -1.46226 -0.160106 0
M  V30 1904 H 173.939 -3.06945 -2.82561 0
M  V30 1905 H 172.569 -1.95801 -2.56636 0
M  V30 1906 H 171.621 -3.69939 -0.885947 0
M  V30 1907 H 172.933 -4.79504 -1.37394 0
M  V30 1908 H 172.087 -4.78522 -3.72963 0
M  V30 1909 H 170.826 -3.59803 -3.29231 0
M  V30 1910 H 169.831 -5.23751 -1.67228 0
M  V30 1911 H 171.056 -6.44613 -2.13659 0
M  V30 1912 H 169.002 -5.19817 -4.00158 0
M  V30 1913 H 168.919 -6.79066 -3.32273 0
M  V30 1914 H 170.187 -6.40227 -4.44668 0
M  V30 1915 N 174.416 0.165178 -1.56732 0
M  V30 1916 C 175.662 0.882112 -1.82611 0
M  V30 1917 C 175.995 1.81628 -0.687378 0
M  V30 1918 O 175.27 1.92009 0.310267 0
M  V30 1919 C 175.553 1.67245 -3.18906 0
M  V30 1920 C 175.406 0.760987 -4.43316 0
M  V30 1921 C 176.725 2.63884 -3.52212 0
M  V30 1922 H 173.844 0.319242 -0.664269 0
M  V30 1923 H 176.486 0.148052 -1.89422 0
M  V30 1924 H 174.636 2.29824 -3.1323 0
M  V30 1925 H 176.308 0.147596 -4.61064 0
M  V30 1926 H 174.551 0.0694102 -4.33744 0
M  V30 1927 H 175.222 1.34962 -5.35247 0
M  V30 1928 H 177.698 2.11429 -3.58381 0
M  V30 1929 H 176.574 3.16245 -4.48643 0
M  V30 1930 H 176.835 3.44377 -2.77231 0
M  V30 1931 N 175.894 1.51508 0.433938 0
M  V30 1932 C 177.122 1.68157 1.20543 0
M  V30 1933 C 177.537 0.380362 1.84929 0
M  V30 1934 O 176.894 -0.641446 1.70856 0
M  V30 1935 C 176.945 2.79965 2.28696 0
M  V30 1936 O 176.666 4.05045 1.66943 0
M  V30 1937 C 178.167 3.07912 3.18912 0
M  V30 1938 H 175.387 0.56421 0.363191 0
M  V30 1939 H 177.931 1.97941 0.513754 0
M  V30 1940 H 176.086 2.5277 2.93574 0
M  V30 1941 H 176.5 4.67165 2.38448 0
M  V30 1942 H 177.974 3.89719 3.90926 0
M  V30 1943 H 178.451 2.20456 3.79863 0
M  V30 1944 H 179.057 3.36779 2.59731 0
M  V30 1945 N 177.372 -0.689602 1.41712 0
M  V30 1946 C 178.319 -1.80345 1.44029 0
M  V30 1947 C 179.289 -1.63478 0.293948 0
M  V30 1948 O 180.474 -1.84244 0.495869 0
M  V30 1949 C 177.614 -3.18272 1.33405 0
M  V30 1950 C 176.727 -3.46529 2.57956 0
M  V30 1951 C 175.862 -4.74103 2.39582 0
M  V30 1952 C 174.901 -4.95347 3.5958 0
M  V30 1953 N 174.038 -6.14151 3.40239 0
M  V30 1954 H 178.878 -1.77698 2.39222 0
M  V30 1955 H 176.415 -0.867688 1.18784 0
M  V30 1956 H 178.373 -3.97956 1.25246 0
M  V30 1957 H 177.003 -3.2008 0.418164 0
M  V30 1958 H 176.055 -2.61207 2.76542 0
M  V30 1959 H 177.367 -3.58126 3.47199 0
M  V30 1960 H 176.521 -5.61853 2.28924 0
M  V30 1961 H 175.26 -4.64763 1.47805 0
M  V30 1962 H 174.265 -4.06044 3.70686 0
M  V30 1963 H 175.49 -5.06542 4.52318 0
M  V30 1964 H 173.436 -6.06013 2.51167 0
M  V30 1965 H 173.353 -6.26543 4.23061 0
M  V30 1966 H 174.621 -7.04619 3.33365 0
M  V30 1967 N 178.85 -1.27639 -0.924453 0
M  V30 1968 C 180.08 -1.16819 -1.70402 0
M  V30 1969 C 180.488 0.277191 -1.87158 0
M  V30 1970 O 179.831 1.20025 -1.39067 0
M  V30 1971 C 179.893 -1.78305 -3.12166 0
M  V30 1972 C 179.557 -3.27502 -3.18734 0
M  V30 1973 C 180.554 -4.2409 -3.00738 0
M  V30 1974 C 178.239 -3.68269 -3.4159 0
M  V30 1975 C 180.233 -5.59422 -3.05492 0
M  V30 1976 C 177.92 -5.0373 -3.45977 0
M  V30 1977 C 178.918 -5.99116 -3.27946 0
M  V30 1978 O 178.606 -7.32108 -3.32074 0
M  V30 1979 H 178.338 -0.406931 -0.539799 0
M  V30 1980 H 180.892 -1.69078 -1.16626 0
M  V30 1981 H 179.122 -1.20528 -3.67437 0
M  V30 1982 H 180.811 -1.62154 -3.72103 0
M  V30 1983 H 181.577 -3.93931 -2.82919 0
M  V30 1984 H 177.456 -2.94496 -3.54673 0
M  V30 1985 H 181 -6.33852 -2.91337 0
M  V30 1986 H 176.897 -5.33543 -3.63321 0
M  V30 1987 H 177.665 -7.40598 -3.48507 0
M  V30 1988 N 180.328 1.1314 -1.09713 0
M  V30 1989 C 181.575 1.84484 -0.834987 0
M  V30 1990 C 181.903 1.83689 0.639418 0
M  V30 1991 O 181.158 1.2724 1.4869 0
M  V30 1992 C 181.457 3.32167 -1.3191 0
M  V30 1993 C 181.123 3.53139 -2.80363 0
M  V30 1994 C 179.785 3.58571 -3.20905 0
M  V30 1995 C 182.137 3.60866 -3.76065 0
M  V30 1996 C 179.465 3.69267 -4.55916 0
M  V30 1997 C 181.817 3.73089 -5.10869 0
M  V30 1998 C 180.481 3.76775 -5.50996 0
M  V30 1999 H 179.751 0.675073 -0.305544 0
M  V30 2000 H 182.398 1.33554 -1.37243 0
M  V30 2001 H 180.703 3.85469 -0.701517 0
M  V30 2002 H 182.4 3.85821 -1.09284 0
M  V30 2003 H 178.99 3.49569 -2.47991 0
M  V30 2004 H 183.174 3.55946 -3.45855 0
M  V30 2005 H 178.43 3.70388 -4.86438 0
M  V30 2006 H 182.604 3.78011 -5.84877 0
M  V30 2007 H 180.231 3.84815 -6.55608 0
M  V30 2008 N 181.806 0.884767 1.30421 0
M  V30 2009 C 183.217 0.553656 1.78302 0
M  V30 2010 C 183.568 -0.930153 1.7275 0
M  V30 2011 O 182.693 -1.72681 1.30423 0
M  V30 2012 C 183.288 0.998234 3.2376 0
M  V30 2013 C 181.847 0.71854 3.69478 0
M  V30 2014 C 180.994 1.18132 2.50879 0
M  V30 2015 H 183.945 1.06901 1.17294 0
M  V30 2016 H 183.966 0.327118 3.79091 0
M  V30 2017 H 183.478 2.0782 3.27769 0
M  V30 2018 H 181.579 -0.349444 3.70958 0
M  V30 2019 H 181.692 1.30595 4.60958 0
M  V30 2020 H 180.056 0.600669 2.47516 0
M  V30 2021 H 180.839 2.26902 2.57624 0
M  V30 2022 N 183.284 -1.43765 0.645699 0
M  V30 2023 C 184.217 -2.2798 -0.100072 0
M  V30 2024 C 185.195 -1.39391 -0.837194 0
M  V30 2025 O 186.379 -1.68833 -0.838306 0
M  V30 2026 C 183.506 -3.18643 -1.14823 0
M  V30 2027 C 182.552 -4.2344 -0.510009 0
M  V30 2028 S 183.385 -5.30761 0.710824 0
M  V30 2029 C 184.541 -6.24992 -0.33699 0
M  V30 2030 H 184.774 -2.90884 0.614322 0
M  V30 2031 H 182.307 -1.48166 0.434304 0
M  V30 2032 H 184.265 -3.71424 -1.74799 0
M  V30 2033 H 182.926 -2.54932 -1.8349 0
M  V30 2034 H 182.119 -4.86948 -1.29991 0
M  V30 2035 H 181.721 -3.73997 0.0154577 0
M  V30 2036 H 184.013 -6.66691 -1.20537 0
M  V30 2037 H 184.956 -7.07612 0.262879 0
M  V30 2038 H 185.364 -5.60517 -0.669425 0
M  V30 2039 N 184.763 -0.387143 -1.52771 0
M  V30 2040 C 186.04 0.253197 -1.93954 0
M  V30 2041 C 186.42 1.64545 -1.32243 0
M  V30 2042 O 185.768 2.23191 -0.489699 0
M  V30 2043 C 185.978 0.281722 -3.47861 0
M  V30 2044 C 187.326 0.511715 -4.21505 0
M  V30 2045 O 188.35 0.362023 -3.54356 0
M  V30 2046 O 187.209 0.804847 -5.40541 0
M  V30 2047 H 184.303 0.156845 -0.811991 0
M  V30 2048 H 186.849 -0.441494 -1.63856 0
M  V30 2049 H 185.621 -0.693571 -3.85104 0
M  V30 2050 H 185.244 1.02142 -3.84256 0
M  V30 2051 N 186.241 1.57166 -0.116904 0
M  V30 2052 C 187.188 2.15202 0.83408 0
M  V30 2053 C 188.158 1.07644 1.26499 0
M  V30 2054 O 189.343 1.35541 1.34288 0
M  V30 2055 C 186.483 2.75405 2.07957 0
M  V30 2056 C 185.596 3.97264 1.69721 0
M  V30 2057 C 184.731 4.45561 2.89221 0
M  V30 2058 C 183.77 5.59956 2.47215 0
M  V30 2059 N 182.907 6.03006 3.59622 0
M  V30 2060 H 187.747 2.96141 0.332335 0
M  V30 2061 H 185.284 1.46309 0.152349 0
M  V30 2062 H 187.242 3.08439 2.80929 0
M  V30 2063 H 185.872 1.97159 2.55594 0
M  V30 2064 H 184.924 3.70404 0.866316 0
M  V30 2065 H 186.236 4.80226 1.34849 0
M  V30 2066 H 185.39 4.80493 3.7042 0
M  V30 2067 H 184.129 3.61544 3.27318 0
M  V30 2068 H 183.134 5.2463 1.64448 0
M  V30 2069 H 184.359 6.45738 2.10238 0
M  V30 2070 H 182.305 5.21931 3.97396 0
M  V30 2071 H 182.222 6.80819 3.28667 0
M  V30 2072 H 183.49 6.42576 4.41267 0
M  V30 2073 N 187.719 -0.156864 1.56817 0
M  V30 2074 C 188.967 -0.869404 1.82444 0
M  V30 2075 C 189.288 -1.82147 0.69623 0
M  V30 2076 O 188.558 -1.93847 -0.28287 0
M  V30 2077 H 187.138 -0.324043 0.673056 0
M  V30 2078 H 189.8 -0.153224 1.94297 0
M  V30 2079 H 188.896 -1.43761 2.77019 0
M  V30 2080 N 189.197 -1.51736 -0.425897 0
M  V30 2081 C 190.446 -1.64201 -1.17136 0
M  V30 2082 C 190.759 -0.369705 -1.92074 0
M  V30 2083 O 191.965 -0.373898 -2.68913 0
M  V30 2084 C 190.421 -2.90035 -2.13091 0
M  V30 2085 C 190.029 -4.24312 -1.43747 0
M  V30 2086 C 191.773 -3.1186 -2.87999 0
M  V30 2087 C 189.68 -5.41285 -2.38253 0
M  V30 2088 H 188.61 -0.611624 -0.440944 0
M  V30 2089 H 191.261 -1.78212 -0.437328 0
M  V30 2090 H 189.643 -2.69684 -2.89977 0
M  V30 2091 H 190.817 -4.55086 -0.723408 0
M  V30 2092 H 189.132 -4.08456 -0.809465 0
M  V30 2093 H 191.729 -3.96427 -3.58817 0
M  V30 2094 H 192.072 -2.25403 -3.49999 0
M  V30 2095 H 192.605 -3.32605 -2.18217 0
M  V30 2096 H 189.344 -6.30037 -1.80925 0
M  V30 2097 H 188.864 -5.14872 -3.0768 0
M  V30 2098 H 190.543 -5.73694 -2.99139 0
M  V30 2099 N 190.675 0.682077 -1.42076 0
M  V30 2100 C 191.622 1.79578 -1.44984 0
M  V30 2101 C 192.592 1.6332 -0.302614 0
M  V30 2102 O 193.777 1.83978 -0.505633 0
M  V30 2103 C 190.917 3.1756 -1.35091 0
M  V30 2104 C 190.03 3.45156 -2.59791 0
M  V30 2105 C 189.165 4.72826 -2.42093 0
M  V30 2106 C 188.204 4.93433 -3.62202 0
M  V30 2107 N 187.341 6.12338 -3.43491 0
M  V30 2108 H 192.181 1.76427 -2.40161 0
M  V30 2109 H 189.718 0.861376 -1.19242 0
M  V30 2110 H 191.676 3.97287 -1.27354 0
M  V30 2111 H 190.306 3.19854 -0.435133 0
M  V30 2112 H 189.358 2.59736 -2.77923 0
M  V30 2113 H 190.67 3.5628 -3.49094 0
M  V30 2114 H 189.824 5.60631 -2.319 0
M  V30 2115 H 188.563 4.63973 -1.50268 0
M  V30 2116 H 187.568 4.04073 -3.72834 0
M  V30 2117 H 188.793 5.04136 -4.54998 0
M  V30 2118 H 186.739 6.04672 -2.54377 0
M  V30 2119 H 186.656 6.2429 -4.26377 0
M  V30 2120 H 187.924 7.02841 -3.37097 0
M  V30 2121 N 192.153 1.28127 0.917671 0
M  V30 2122 C 193.564 1.13622 1.48145 0
M  V30 2123 C 193.915 -0.275207 1.9426 0
M  V30 2124 O 193.04 -1.1691 1.82102 0
M  V30 2125 C 193.635 2.05648 2.69248 0
M  V30 2126 C 192.194 1.95219 3.21818 0
M  V30 2127 C 191.341 1.97618 1.94532 0
M  V30 2128 H 194.292 1.40874 0.730772 0
M  V30 2129 H 194.313 1.61818 3.44377 0
M  V30 2130 H 193.825 3.08365 2.35653 0
M  V30 2131 H 191.926 0.955244 3.60147 0
M  V30 2132 H 192.039 2.81976 3.87333 0
M  V30 2133 H 190.403 1.41973 2.11461 0
M  V30 2134 H 191.186 3.02007 1.63238 0
M  V30 2135 N 193.631 -1.12557 1.10312 0
M  V30 2136 C 194.861 -1.87592 0.865617 0
M  V30 2137 C 195.269 -1.79851 -0.587389 0
M  V30 2138 O 194.612 -1.16949 -1.41664 0
M  V30 2139 C 194.674 -3.37665 1.23381 0
M  V30 2140 C 194.338 -3.69181 2.69359 0
M  V30 2141 C 195.335 -3.67652 3.67597 0
M  V30 2142 C 193.02 -3.98555 3.05711 0
M  V30 2143 C 195.014 -3.95053 5.00212 0
M  V30 2144 C 192.701 -4.25616 4.38514 0
M  V30 2145 C 193.699 -4.23851 5.35574 0
M  V30 2146 O 193.387 -4.50242 6.65986 0
M  V30 2147 H 193.119 -0.600442 0.310557 0
M  V30 2148 H 195.673 -1.4335 1.47105 0
M  V30 2149 H 193.903 -3.82454 0.571467 0
M  V30 2150 H 195.592 -3.94041 0.973994 0
M  V30 2151 H 196.358 -3.45024 3.40857 0
M  V30 2152 H 192.237 -3.99071 2.30789 0
M  V30 2153 H 195.781 -3.93591 5.75962 0
M  V30 2154 H 191.678 -4.47718 4.64994 0
M  V30 2155 H 192.446 -4.67867 6.71597 0
M  V30 2156 N 195.109 -0.891671 -1.2995 0
M  V30 2157 C 196.339 -0.527893 -1.99742 0
M  V30 2158 C 196.747 0.88979 -1.66971 0
M  V30 2159 O 196.09 1.59766 -0.906667 0
M  V30 2160 C 196.152 -0.630804 -3.53922 0
M  V30 2161 C 195.816 -2.01401 -4.10228 0
M  V30 2162 C 196.813 -2.98422 -4.25724 0
M  V30 2163 C 194.498 -2.32121 -4.45449 0
M  V30 2164 C 196.492 -4.24293 -4.75662 0
M  V30 2165 C 194.179 -3.58237 -4.95086 0
M  V30 2166 C 195.177 -4.54137 -5.10146 0
M  V30 2167 O 194.865 -5.78014 -5.58708 0
M  V30 2168 H 194.597 -0.201953 -0.645129 0
M  V30 2169 H 197.151 -1.20076 -1.66646 0
M  V30 2170 H 195.381 0.0990616 -3.86573 0
M  V30 2171 H 197.07 -0.277338 -4.04951 0
M  V30 2172 H 197.836 -2.76001 -3.98809 0
M  V30 2173 H 193.715 -1.5824 -4.32991 0
M  V30 2174 H 197.259 -4.99153 -4.87332 0
M  V30 2175 H 193.156 -3.80491 -5.21437 0
M  V30 2176 H 193.924 -5.8049 -5.77039 0
M  V30 2177 N 196.587 1.43421 -0.653314 0
M  V30 2178 C 197.998 1.85065 -0.246537 0
M  V30 2179 C 198.349 1.54688 1.2069 0
M  V30 2180 O 197.474 0.995896 1.92122 0
M  V30 2181 C 198.069 3.35922 -0.440666 0
M  V30 2182 C 196.628 3.76297 -0.0882064 0
M  V30 2183 C 195.775 2.67147 -0.743484 0
M  V30 2184 H 198.726 1.33572 -0.856979 0
M  V30 2185 H 198.747 3.79204 0.313798 0
M  V30 2186 H 198.259 3.58 -1.49858 0
M  V30 2187 H 196.36 3.5983 0.96711 0
M  V30 2188 H 196.473 4.76338 -0.513738 0
M  V30 2189 H 194.837 2.54086 -0.176712 0
M  V30 2190 H 195.62 2.92053 -1.80443 0
M  V30 2191 N 198.065 0.39524 1.52563 0
M  V30 2192 C 198.975 -0.444232 2.30356 0
M  V30 2193 C 199.991 -1.06615 1.37511 0
M  V30 2194 O 201.167 -1.07067 1.70583 0
M  V30 2195 C 198.232 -1.55315 3.09964 0
M  V30 2196 C 197.293 -0.955734 4.18526 0
M  V30 2197 C 196.526 -2.01181 4.9433 0
M  V30 2198 O 196.749 -3.22781 4.70285 0
M  V30 2199 O 195.683 -1.62579 5.79527 0
M  V30 2200 H 199.509 0.189667 3.03107 0
M  V30 2201 H 197.094 0.1588 1.48554 0
M  V30 2202 H 198.976 -2.19724 3.59582 0
M  V30 2203 H 197.651 -2.17191 2.4002 0
M  V30 2204 H 196.558 -0.274743 3.7309 0
M  V30 2205 H 197.891 -0.381109 4.90722 0
M  V30 2206 N 199.544 -1.57102 0.125237 0
M  V30 2207 C 200.494 -2.12202 -0.833936 0
M  V30 2208 C 201.478 -1.04433 -1.22403 0
M  V30 2209 O 202.67 -1.30655 -1.19408 0
M  V30 2210 C 199.799 -2.72994 -2.08157 0
M  V30 2211 C 198.885 -3.87852 -1.71556 0
M  V30 2212 N 199.276 -4.9464 -1.05662 0
M  V30 2213 C 197.574 -3.98153 -2.00973 0
M  V30 2214 C 198.275 -5.74953 -0.883376 0
M  V30 2215 N 197.251 -5.24985 -1.41036 0
M  V30 2216 H 201.053 -2.92141 -0.321035 0
M  V30 2217 H 198.567 -1.62217 -0.0770315 0
M  V30 2218 H 200.564 -3.10816 -2.77847 0
M  V30 2219 H 199.224 -1.9452 -2.59985 0
M  V30 2220 H 200.235 -5.12872 -0.719878 0
M  V30 2221 H 196.912 -3.30728 -2.54804 0
M  V30 2222 H 198.302 -6.70904 -0.365675 0
M  V30 2223 N 201.022 0.148545 -1.56898 0
M  V30 2224 C 201.985 1.16736 -1.97244 0
M  V30 2225 C 202.985 1.35947 -0.858777 0
M  V30 2226 O 204.175 1.32966 -1.12542 0
M  V30 2227 C 201.307 2.52798 -2.28705 0
M  V30 2228 H 202.5 0.821279 -2.88435 0
M  V30 2229 H 200.053 0.391831 -1.51309 0
M  V30 2230 H 200.788 2.92381 -1.403 0
M  V30 2231 H 200.573 2.40216 -3.09901 0
M  V30 2232 H 202.063 3.26179 -2.60762 0
M  V30 2233 N 202.5 1.5196 0.417844 0
M  V30 2234 C 203.746 1.65836 1.16732 0
M  V30 2235 C 204.079 0.382881 1.90388 0
M  V30 2236 O 203.354 -0.618368 1.84408 0
M  V30 2237 C 203.637 2.87466 2.16876 0
M  V30 2238 C 203.49 4.25041 1.47174 0
M  V30 2239 C 204.809 3.04613 3.17646 0
M  V30 2240 H 201.928 0.603515 0.423011 0
M  V30 2241 H 204.57 1.84494 0.454105 0
M  V30 2242 H 202.72 2.71689 2.777 0
M  V30 2243 H 204.392 4.52527 0.895376 0
M  V30 2244 H 202.635 4.26843 0.773806 0
M  V30 2245 H 203.306 5.06176 2.20204 0
M  V30 2246 H 205.782 3.1923 2.66892 0
M  V30 2247 H 204.658 3.91247 3.8499 0
M  V30 2248 H 204.919 2.17541 3.84874 0
M  V30 2249 N 203.978 -0.674533 1.42435 0
M  V30 2250 C 204.926 -1.80934 1.46169 0
M  V30 2251 C 205.92 -1.66006 0.3374 0
M  V30 2252 O 207.126 -1.72611 0.510425 0
M  V30 2253 H 203.501 -0.596594 0.457798 0
M  V30 2254 H 205.472 -1.74903 2.41767 0
M  V30 2255 C 204.221 -3.19088 1.38123 0
M  V30 2256 H 203.544 -3.31203 2.23931 0
M  V30 2257 H 204.984 -3.9851 1.44797 0
M  V30 2258 C 203.443 -3.36763 0.0960517 0
M  V30 2259 O 203.973 -3.92581 -0.851073 0
M  V30 2260 N 202.179 -2.90597 0.0131186 0
M  V30 2261 H 201.726 -2.45359 0.784639 0
M  V30 2262 H 201.684 -3.028 -0.846133 0
M  V30 2263 N 205.456 -1.28612 -0.910864 0
M  V30 2264 C 206.406 -1.09423 -2.00026 0
M  V30 2265 C 207.39 -0.0170079 -1.60891 0
M  V30 2266 O 208.582 -0.237472 -1.754 0
M  V30 2267 C 205.711 -0.76114 -3.34756 0
M  V30 2268 C 204.797 -1.87735 -3.80285 0
M  V30 2269 N 205.188 -3.11938 -3.98156 0
M  V30 2270 C 203.486 -1.76786 -4.09467 0
M  V30 2271 C 204.187 -3.84687 -4.36338 0
M  V30 2272 N 203.163 -3.12555 -4.44759 0
M  V30 2273 H 206.965 -2.03658 -2.11898 0
M  V30 2274 H 204.479 -1.19573 -1.09891 0
M  V30 2275 H 206.476 -0.604743 -4.12491 0
M  V30 2276 H 205.136 0.173403 -3.24237 0
M  V30 2277 H 206.147 -3.47516 -3.83996 0
M  V30 2278 H 202.824 -0.905284 -4.07567 0
M  V30 2279 H 204.214 -4.91518 -4.58104 0
M  V30 2280 N 206.934 1.1197 -1.10907 0
M  V30 2281 C 208.164 1.8713 -0.875553 0
M  V30 2282 C 208.572 1.8016 0.577843 0
M  V30 2283 O 207.915 1.17699 1.41042 0
M  V30 2284 C 207.977 3.37005 -1.2517 0
M  V30 2285 C 207.641 3.67748 -2.71313 0
M  V30 2286 C 208.638 3.65698 -3.69542 0
M  V30 2287 C 206.323 3.96928 -3.07821 0
M  V30 2288 C 208.317 3.92395 -5.023 0
M  V30 2289 C 206.004 4.23284 -4.40765 0
M  V30 2290 C 207.002 4.21005 -5.37814 0
M  V30 2291 O 206.69 4.46704 -6.68364 0
M  V30 2292 H 206.422 0.598786 -0.313737 0
M  V30 2293 H 208.976 1.42568 -1.47863 0
M  V30 2294 H 207.206 3.82146 -0.591741 0
M  V30 2295 H 208.895 3.93519 -0.994877 0
M  V30 2296 H 209.661 3.43211 -3.42682 0
M  V30 2297 H 205.54 3.97841 -2.32902 0
M  V30 2298 H 209.084 3.90531 -5.78041 0
M  V30 2299 H 204.981 4.45246 -4.67361 0
M  V30 2300 H 205.749 4.64299 -6.74069 0
M  V30 2301 N 208.412 0.89855 1.29475 0
M  V30 2302 C 209.659 0.523882 1.95606 0
M  V30 2303 C 209.987 -0.929608 1.70847 0
M  V30 2304 O 209.242 -1.67401 1.01367 0
M  V30 2305 C 209.541 0.761398 3.49195 0
M  V30 2306 C 209.207 2.19207 3.94029 0
M  V30 2307 C 207.869 2.58326 4.05982 0
M  V30 2308 C 210.221 3.12379 4.17216 0
M  V30 2309 C 207.549 3.898 4.38489 0
M  V30 2310 C 209.901 4.43401 4.51197 0
M  V30 2311 C 208.565 4.82394 4.61359 0
M  V30 2312 H 207.835 0.191702 0.715773 0
M  V30 2313 H 210.482 1.13699 1.54094 0
M  V30 2314 H 208.787 0.0653622 3.91745 0
M  V30 2315 H 210.484 0.450904 3.98457 0
M  V30 2316 H 207.074 1.87846 3.85242 0
M  V30 2317 H 211.258 2.83371 4.07449 0
M  V30 2318 H 206.514 4.19734 4.44559 0
M  V30 2319 H 210.688 5.15623 4.68087 0
M  V30 2320 H 208.315 5.84306 4.86303 0
M  V30 2321 N 209.89 -1.43072 0.660911 0
M  V30 2322 C 210.837 -2.30785 -0.0259884 0
M  V30 2323 C 211.807 -1.45184 -0.806888 0
M  V30 2324 O 212.992 -1.74041 -0.781943 0
M  V30 2325 C 210.132 -3.30861 -0.981067 0
M  V30 2326 C 209.245 -4.31558 -0.195458 0
M  V30 2327 C 208.38 -5.18712 -1.14503 0
M  V30 2328 C 207.419 -6.11097 -0.350299 0
M  V30 2329 N 206.556 -6.90849 -1.25186 0
M  V30 2330 H 211.396 -2.88975 0.727846 0
M  V30 2331 H 208.933 -1.42353 0.370682 0
M  V30 2332 H 210.891 -3.87399 -1.54849 0
M  V30 2333 H 209.521 -2.74304 -1.70169 0
M  V30 2334 H 208.573 -3.77252 0.488374 0
M  V30 2335 H 209.885 -4.9701 0.422176 0
M  V30 2336 H 209.039 -5.79914 -1.78284 0
M  V30 2337 H 207.778 -4.53404 -1.79656 0
M  V30 2338 H 206.783 -5.48976 0.300808 0
M  V30 2339 H 208.008 -6.7845 0.296941 0
M  V30 2340 H 205.954 -6.28182 -1.89005 0
M  V30 2341 H 205.871 -7.52854 -0.688971 0
M  V30 2342 H 207.139 -7.5655 -1.87757 0
M  V30 2343 N 211.368 -0.403325 -1.52352 0
M  V30 2344 C 212.596 0.174012 -2.06167 0
M  V30 2345 C 213.011 1.39347 -1.27388 0
M  V30 2346 O 212.368 1.79597 -0.324201 0
M  V30 2347 C 212.419 0.530223 -3.5759 0
M  V30 2348 O 212.14 -0.640806 -4.33388 0
M  V30 2349 C 213.641 1.16192 -4.27802 0
M  V30 2350 H 210.861 0.0229464 -0.670608 0
M  V30 2351 H 213.405 -0.572604 -1.9632 0
M  V30 2352 H 211.56 1.22673 -3.67464 0
M  V30 2353 H 211.974 -0.344851 -5.23365 0
M  V30 2354 H 213.448 1.36141 -5.34948 0
M  V30 2355 H 213.925 2.13335 -3.83907 0
M  V30 2356 H 214.531 0.505775 -4.22282 0
M  V30 2357 N 212.846 1.57033 -0.133567 0
M  V30 2358 C 214.262 1.58035 0.222944 0
M  V30 2359 C 214.462 1.14713 1.6566 0
M  V30 2360 O 213.518 0.841218 2.38075 0
M  V30 2361 C 214.831 3.00691 -0.0236116 0
M  V30 2362 C 216.379 3.12973 0.0411512 0
M  V30 2363 C 216.854 4.57654 -0.177899 0
M  V30 2364 N 218.345 4.63033 -0.124365 0
M  V30 2365 C 219.08 5.72771 -0.268553 0
M  V30 2366 N 218.576 6.91206 -0.46972 0
M  V30 2367 N 220.369 5.61718 -0.2071 0
M  V30 2368 H 212.52 1.8349 -1.06981 0
M  V30 2369 H 214.783 0.848677 -0.422436 0
M  V30 2370 H 214.489 3.36726 -1.0153 0
M  V30 2371 H 214.363 3.70614 0.701808 0
M  V30 2372 H 216.75 2.76787 1.02338 0
M  V30 2373 H 216.831 2.45564 -0.716383 0
M  V30 2374 H 216.475 4.94542 -1.15717 0
M  V30 2375 H 216.405 5.23173 0.599797 0
M  V30 2376 H 218.896 3.7789 0.027011 0
M  V30 2377 H 219.209 7.70693 -0.570212 0
M  V30 2378 H 217.554 6.93156 -0.505876 0
M  V30 2379 H 220.745 4.68072 -0.0507986 0
M  V30 2380 H 220.918 6.47195 -0.322909 0
M  V30 2381 N 214.325 -0.140222 1.56975 0
M  V30 2382 C 215.275 -1.17827 1.95194 0
M  V30 2383 C 216.259 -1.38195 0.824075 0
M  V30 2384 O 217.451 -1.39643 1.0876 0
M  V30 2385 C 214.58 -2.51024 2.34184 0
M  V30 2386 C 213.666 -2.3422 3.53556 0
M  V30 2387 N 214.057 -1.87185 4.69889 0
M  V30 2388 C 212.355 -2.64949 3.58773 0
M  V30 2389 C 213.056 -1.83586 5.5197 0
M  V30 2390 N 212.032 -2.2715 4.93866 0
M  V30 2391 H 215.834 -0.806817 2.82609 0
M  V30 2392 H 213.348 -0.348208 1.58623 0
M  V30 2393 H 215.345 -3.26074 2.59772 0
M  V30 2394 H 214.005 -2.88945 1.48124 0
M  V30 2395 H 215.016 -1.57048 4.93514 0
M  V30 2396 H 211.693 -3.067 2.8327 0
M  V30 2397 H 213.083 -1.48655 6.55249 0
M  V30 2398 N 215.803 -1.52179 -0.40978 0
M  V30 2399 C 217.033 -1.69807 -1.17682 0
M  V30 2400 C 217.441 -0.406908 -1.84773 0
M  V30 2401 O 216.784 0.626863 -1.72673 0
M  V30 2402 C 216.846 -2.77712 -2.2829 0
M  V30 2403 C 216.51 -4.19481 -1.81341 0
M  V30 2404 C 217.507 -5.03345 -1.30154 0
M  V30 2405 C 215.192 -4.65713 -1.88194 0
M  V30 2406 C 217.186 -6.31511 -0.864416 0
M  V30 2407 C 214.873 -5.93869 -1.44093 0
M  V30 2408 C 215.871 -6.76597 -0.933023 0
M  V30 2409 O 215.559 -8.02354 -0.49838 0
M  V30 2410 H 215.291 -0.572372 -0.359675 0
M  V30 2411 H 217.845 -1.99511 -0.488311 0
M  V30 2412 H 216.075 -2.43383 -3.00502 0
M  V30 2413 H 217.764 -2.83946 -2.90051 0
M  V30 2414 H 218.53 -4.68819 -1.24232 0
M  V30 2415 H 214.409 -4.01424 -2.26671 0
M  V30 2416 H 217.953 -6.96033 -0.467286 0
M  V30 2417 H 213.85 -6.27903 -1.49694 0
M  V30 2418 H 214.618 -8.16135 -0.621747 0
M  V30 2419 N 217.281 0.66697 -1.42791 0
M  V30 2420 C 218.211 1.79218 -1.49677 0
M  V30 2421 C 219.192 1.66405 -0.352623 0
M  V30 2422 O 220.377 1.85708 -0.567993 0
M  V30 2423 C 217.507 3.17565 -1.40605 0
M  V30 2424 C 216.461 3.45124 -2.53127 0
M  V30 2425 C 215.787 4.83127 -2.29112 0
M  V30 2426 C 217.087 3.41236 -3.95418 0
M  V30 2427 H 218.781 1.73713 -2.43853 0
M  V30 2428 H 216.327 0.83432 -1.17367 0
M  V30 2429 H 218.28 3.96022 -1.44029 0
M  V30 2430 H 217.004 3.23767 -0.429271 0
M  V30 2431 H 215.663 2.69031 -2.49034 0
M  V30 2432 H 215.311 4.85988 -1.29709 0
M  V30 2433 H 215.011 5.02528 -3.04531 0
M  V30 2434 H 216.535 5.63859 -2.34297 0
M  V30 2435 H 217.949 4.09651 -4.01073 0
M  V30 2436 H 216.346 3.72173 -4.70752 0
M  V30 2437 H 217.416 2.39665 -4.21532 0
M  V30 2438 N 218.759 1.29093 0.90403 0
M  V30 2439 C 219.709 1.10482 1.99443 0
M  V30 2440 C 220.693 0.0255401 1.6088 0
M  V30 2441 O 221.885 0.24677 1.75271 0
M  V30 2442 C 219.014 0.778882 3.34348 0
M  V30 2443 C 218.1 1.89749 3.79284 0
M  V30 2444 N 218.491 3.14045 3.96497 0
M  V30 2445 C 216.789 1.78955 4.08523 0
M  V30 2446 C 217.49 3.86996 4.34292 0
M  V30 2447 N 216.466 3.14909 4.43095 0
M  V30 2448 H 220.268 2.04778 2.10815 0
M  V30 2449 H 217.782 1.20155 1.09255 0
M  V30 2450 H 219.779 0.62661 4.12164 0
M  V30 2451 H 218.439 -0.156205 3.24324 0
M  V30 2452 H 219.45 3.49548 3.82148 0
M  V30 2453 H 216.127 0.926886 4.07081 0
M  V30 2454 H 217.517 4.93941 4.55491 0
M  V30 2455 N 220.237 -1.11381 1.11499 0
M  V30 2456 C 221.465 -1.86934 0.88675 0
M  V30 2457 C 221.88 -1.80195 -0.563476 0
M  V30 2458 O 221.237 -1.18367 -1.38908 0
M  V30 2459 C 221.288 -3.35722 1.34064 0
M  V30 2460 O 221.009 -3.4232 2.73401 0
M  V30 2461 C 222.51 -4.2818 1.14791 0
M  V30 2462 H 219.73 -0.591117 0.317523 0
M  V30 2463 H 222.274 -1.40865 1.48248 0
M  V30 2464 H 220.429 -3.79294 0.788355 0
M  V30 2465 H 220.843 -4.34971 2.93087 0
M  V30 2466 H 222.317 -5.30817 1.5145 0
M  V30 2467 H 222.794 -4.39113 0.0875279 0
M  V30 2468 H 223.4 -3.90402 1.68721 0
M  V30 2469 N 221.715 -0.905404 -1.28997 0
M  V30 2470 C 222.645 -0.404212 -2.29975 0
M  V30 2471 C 223.626 0.523784 -1.61835 0
M  V30 2472 O 224.811 0.433298 -1.89304 0
M  V30 2473 C 221.941 0.364042 -3.45387 0
M  V30 2474 C 220.895 -0.474048 -4.25367 0
M  V30 2475 C 220.221 0.422045 -5.33032 0
M  V30 2476 C 221.521 -1.72696 -4.92923 0
M  V30 2477 H 223.215 -1.24807 -2.72146 0
M  V30 2478 H 220.761 -0.601585 -1.30832 0
M  V30 2479 H 222.714 0.725447 -4.15109 0
M  V30 2480 H 221.438 1.24174 -3.02074 0
M  V30 2481 H 220.097 -0.81786 -3.57361 0
M  V30 2482 H 219.745 1.29804 -4.85963 0
M  V30 2483 H 219.445 -0.135057 -5.87445 0
M  V30 2484 H 220.969 0.779517 -6.05604 0
M  V30 2485 H 222.383 -1.43495 -5.55051 0
M  V30 2486 H 220.78 -2.22582 -5.57295 0
M  V30 2487 H 221.85 -2.45964 -4.17887 0
M  V30 2488 N 223.193 1.4272 -0.668489 0
M  V30 2489 C 224.439 2.02443 -0.197076 0
M  V30 2490 C 224.794 1.51882 1.18109 0
M  V30 2491 O 224.087 0.708618 1.78015 0
M  V30 2492 C 224.281 3.57021 -0.164499 0
M  V30 2493 C 224.11 4.22583 -1.53797 0
M  V30 2494 C 222.88 4.58019 -2.13416 0
M  V30 2495 C 225.078 4.50588 -2.47941 0
M  V30 2496 N 223.06 5.08729 -3.4361 0
M  V30 2497 C 224.431 5.02782 -3.62782 0
M  V30 2498 C 226.486 4.32571 -2.46551 0
M  V30 2499 C 225.189 5.38852 -4.76478 0
M  V30 2500 C 227.215 4.69713 -3.59338 0
M  V30 2501 C 226.577 5.22053 -4.72906 0
M  V30 2502 H 222.676 0.773214 -0.116894 0
M  V30 2503 H 225.26 1.73673 -0.880108 0
M  V30 2504 H 223.431 3.85323 0.487925 0
M  V30 2505 H 225.163 4.03439 0.319207 0
M  V30 2506 H 221.918 4.43566 -1.65969 0
M  V30 2507 H 222.342 5.38521 -4.10273 0
M  V30 2508 H 226.984 3.91365 -1.59978 0
M  V30 2509 H 224.702 5.78993 -5.63731 0
M  V30 2510 H 228.288 4.57454 -3.59482 0
M  V30 2511 H 227.168 5.50258 -5.58736 0
M  V30 2512 N 224.671 0.411399 1.52136 0
M  V30 2513 C 225.618 -0.412975 2.27075 0
M  V30 2514 C 226.588 -1.03912 1.29582 0
M  V30 2515 O 227.773 -1.06296 1.58448 0
M  V30 2516 C 224.913 -1.52247 3.09701 0
M  V30 2517 C 224.026 -0.917021 4.22155 0
M  V30 2518 C 223.161 -1.9994 4.92135 0
M  V30 2519 C 222.2 -1.37101 5.96548 0
M  V30 2520 N 221.337 -2.39364 6.60038 0
M  V30 2521 H 226.177 0.232499 2.97092 0
M  V30 2522 H 223.714 0.126496 1.46555 0
M  V30 2523 H 225.672 -2.17674 3.55913 0
M  V30 2524 H 224.302 -2.13794 2.41851 0
M  V30 2525 H 223.354 -0.151742 3.80097 0
M  V30 2526 H 224.666 -0.418006 4.97045 0
M  V30 2527 H 223.82 -2.73088 5.41763 0
M  V30 2528 H 222.559 -2.53208 4.16818 0
M  V30 2529 H 221.564 -0.624873 5.46237 0
M  V30 2530 H 222.789 -0.845998 6.7381 0
M  V30 2531 H 220.735 -2.91759 5.87548 0
M  V30 2532 H 220.652 -1.9428 7.3061 0
M  V30 2533 H 221.92 -3.12074 7.14304 0
M  V30 2534 N 226.149 -1.5696 0.141893 0
M  V30 2535 C 227.112 -2.15316 -0.785587 0
M  V30 2536 C 228.112 -1.09366 -1.1788 0
M  V30 2537 O 229.302 -1.35031 -1.10056 0
M  V30 2538 C 226.434 -2.71211 -2.06537 0
M  V30 2539 H 227.627 -2.98608 -0.278041 0
M  V30 2540 H 225.18 -1.5593 -0.107519 0
M  V30 2541 H 225.915 -1.91571 -2.6167 0
M  V30 2542 H 225.7 -3.4872 -1.79268 0
M  V30 2543 H 227.19 -3.16189 -2.72789 0
M  V30 2544 N 227.627 0.131896 -1.57047 0
M  V30 2545 C 228.875 0.840269 -1.83804 0
M  V30 2546 C 229.196 1.81017 -0.72512 0
M  V30 2547 O 228.466 1.94272 0.251995 0
M  V30 2548 H 227.046 0.313294 -0.678127 0
M  V30 2549 H 229.708 0.122294 -1.94516 0
M  V30 2550 H 228.804 1.39335 -2.79271 0
M  V30 2551 N 229.106 1.52395 0.401703 0
M  V30 2552 C 230.355 1.66044 1.14509 0
M  V30 2553 C 230.668 0.400216 1.91462 0
M  V30 2554 O 231.874 0.416632 2.68284 0
M  V30 2555 C 230.33 2.93388 2.0845 0
M  V30 2556 C 229.938 4.26545 1.36978 0
M  V30 2557 C 231.682 3.16402 2.83001 0
M  V30 2558 C 229.589 5.45007 2.29611 0
M  V30 2559 H 228.519 0.618562 0.431158 0
M  V30 2560 H 231.17 1.78886 0.40892 0
M  V30 2561 H 229.552 2.74263 2.8565 0
M  V30 2562 H 230.726 4.56179 0.650916 0
M  V30 2563 H 229.041 4.09692 0.74438 0
M  V30 2564 H 231.638 4.02085 3.52465 0
M  V30 2565 H 231.981 2.30943 3.46368 0
M  V30 2566 H 232.514 3.36034 2.12898 0
M  V30 2567 H 229.253 6.32835 1.70879 0
M  V30 2568 H 228.773 5.19702 2.9945 0
M  V30 2569 H 230.452 5.7838 2.89974 0
M  V30 2570 N 230.584 -0.659388 1.43143 0
M  V30 2571 C 231.514 -1.78422 1.50625 0
M  V30 2572 C 232.495 -1.66216 0.361443 0
M  V30 2573 O 233.68 -1.85404 0.577834 0
M  V30 2574 C 230.81 -3.16815 1.42287 0
M  V30 2575 C 229.764 -3.43777 2.54954 0
M  V30 2576 C 229.09 -4.81905 2.31671 0
M  V30 2577 C 230.39 -3.39134 3.97222 0
M  V30 2578 H 232.084 -1.72417 2.44771 0
M  V30 2579 H 229.63 -0.828084 1.17808 0
M  V30 2580 H 231.583 -3.95253 1.46127 0
M  V30 2581 H 230.307 -3.23534 0.446435 0
M  V30 2582 H 228.966 -2.67707 2.50457 0
M  V30 2583 H 228.614 -4.85294 1.32284 0
M  V30 2584 H 228.314 -5.00906 3.07192 0
M  V30 2585 H 229.838 -5.62609 2.37284 0
M  V30 2586 H 231.252 -4.07518 4.03239 0
M  V30 2587 H 229.649 -3.69671 4.72719 0
M  V30 2588 H 230.719 -2.37426 4.22797 0
M  V30 2589 N 232.062 -1.29571 -0.897171 0
M  V30 2590 C 233.292 -1.20408 -1.67886 0
M  V30 2591 C 233.7 0.237429 -1.87704 0
M  V30 2592 O 233.043 1.17048 -1.41582 0
M  V30 2593 C 233.105 -1.84887 -3.08314 0
M  V30 2594 C 232.769 -3.34189 -3.11716 0
M  V30 2595 C 233.766 -4.30374 -2.91675 0
M  V30 2596 C 231.451 -3.75431 -3.33701 0
M  V30 2597 C 233.445 -5.65776 -2.93557 0
M  V30 2598 C 231.132 -5.10955 -3.35214 0
M  V30 2599 C 232.13 -6.05938 -3.15164 0
M  V30 2600 O 231.818 -7.38987 -3.1647 0
M  V30 2601 H 231.55 -0.418289 -0.531046 0
M  V30 2602 H 234.104 -1.71514 -1.13014 0
M  V30 2603 H 232.334 -1.28295 -3.64798 0
M  V30 2604 H 234.023 -1.70011 -3.6858 0
M  V30 2605 H 234.789 -3.99844 -2.74499 0
M  V30 2606 H 230.668 -3.01953 -3.48347 0
M  V30 2607 H 234.212 -6.39889 -2.77826 0
M  V30 2608 H 230.109 -5.4113 -3.51922 0
M  V30 2609 H 230.877 -7.47823 -3.3272 0
M  V30 2610 N 233.54 1.10788 -1.12088 0
M  V30 2611 C 234.487 2.17025 -0.785407 0
M  V30 2612 C 235.457 1.64265 0.246191 0
M  V30 2613 O 236.642 1.90412 0.121584 0
M  V30 2614 C 233.782 3.44249 -0.242177 0
M  V30 2615 C 232.895 4.1098 -1.33115 0
M  V30 2616 C 232.03 5.25911 -0.747741 0
M  V30 2617 C 231.069 5.84538 -1.81609 0
M  V30 2618 N 230.206 6.90853 -1.25167 0
M  V30 2619 H 235.046 2.45066 -1.69548 0
M  V30 2620 H 232.583 1.20297 -0.846582 0
M  V30 2621 H 234.541 4.17101 0.0908026 0
M  V30 2622 H 233.171 3.16571 0.631072 0
M  V30 2623 H 232.223 3.36133 -1.78097 0
M  V30 2624 H 233.535 4.50601 -2.13917 0
M  V30 2625 H 232.689 6.056 -0.365216 0
M  V30 2626 H 231.428 4.87614 0.0915188 0
M  V30 2627 H 230.433 5.03522 -2.20785 0
M  V30 2628 H 231.658 6.249 -2.6585 0
M  V30 2629 H 229.604 6.54562 -0.434174 0
M  V30 2630 H 229.521 7.29166 -1.99633 0
M  V30 2631 H 230.789 7.7433 -0.896259 0
M  V30 2632 N 235.018 0.912232 1.28515 0
M  V30 2633 C 236.434 0.610159 1.47476 0
M  V30 2634 C 236.634 -0.844955 1.82928 0
M  V30 2635 O 235.69 -1.62416 1.93332 0
M  V30 2636 C 237.003 1.54675 2.57868 0
M  V30 2637 C 238.551 1.55331 2.71738 0
M  V30 2638 C 239.026 2.47649 3.85272 0
M  V30 2639 N 240.517 2.45767 3.92623 0
M  V30 2640 C 241.252 3.13896 4.79851 0
M  V30 2641 N 240.748 3.9135 5.71679 0
M  V30 2642 N 242.541 3.02991 4.73448 0
M  V30 2643 H 234.692 1.85318 1.03783 0
M  V30 2644 H 236.955 0.794777 0.516753 0
M  V30 2645 H 236.661 2.5841 2.38574 0
M  V30 2646 H 236.535 1.27671 3.54937 0
M  V30 2647 H 238.922 0.52335 2.90422 0
M  V30 2648 H 239.003 1.86378 1.75205 0
M  V30 2649 H 238.647 3.50745 3.67342 0
M  V30 2650 H 238.577 2.13904 4.81199 0
M  V30 2651 H 241.068 1.89503 3.26951 0
M  V30 2652 H 241.381 4.40359 6.35062 0
M  V30 2653 H 239.726 3.95455 5.71524 0
M  V30 2654 H 242.917 2.41987 4.007 0
M  V30 2655 H 243.09 3.5636 5.41213 0
M  V30 2656 N 236.496 -1.42363 0.676048 0
M  V30 2657 C 237.406 -2.346 -0.00153389 0
M  V30 2658 C 238.422 -1.5516 -0.787485 0
M  V30 2659 O 239.598 -1.87723 -0.729521 0
M  V30 2660 C 236.663 -3.33705 -0.940298 0
M  V30 2661 C 235.724 -4.29042 -0.148739 0
M  V30 2662 C 234.957 -5.23413 -1.04279 0
M  V30 2663 O 235.18 -5.22749 -2.28232 0
M  V30 2664 O 234.114 -5.99795 -0.502925 0
M  V30 2665 H 237.94 -2.94082 0.758268 0
M  V30 2666 H 235.525 -1.42888 0.436289 0
M  V30 2667 H 237.407 -3.94586 -1.47917 0
M  V30 2668 H 236.082 -2.76695 -1.67993 0
M  V30 2669 H 234.989 -3.71571 0.43427 0
M  V30 2670 H 236.322 -4.89097 0.551805 0
M  V30 2671 N 237.974 -0.419461 -1.51915 0
M  V30 2672 C 239.199 0.154572 -2.06823 0
M  V30 2673 C 239.624 1.3722 -1.28656 0
M  V30 2674 O 238.982 1.78461 -0.319583 0
M  V30 2675 C 239.03 0.473172 -3.57482 0
M  V30 2676 O 238.134 1.56255 -3.81652 0
M  V30 2677 H 237.475 0.0096924 -0.663929 0
M  V30 2678 H 240.005 -0.595642 -1.95738 0
M  V30 2679 H 240.015 0.728825 -4.01438 0
M  V30 2680 H 238.69 -0.416873 -4.13805 0
M  V30 2681 H 237.267 1.29825 -3.49571 0
M  V30 2682 N 239.452 1.56882 -0.150215 0
M  V30 2683 C 240.68 2.00593 0.506948 0
M  V30 2684 C 241.095 1.03033 1.58208 0
M  V30 2685 O 240.452 0.0278396 1.82479 0
M  V30 2686 C 240.503 3.44209 1.10465 0
M  V30 2687 O 240.224 4.3804 0.0724636 0
M  V30 2688 C 241.725 4.03214 1.84211 0
M  V30 2689 H 238.945 0.65795 0.13169 0
M  V30 2690 H 241.489 2.03018 -0.245743 0
M  V30 2691 H 239.644 3.42625 1.80795 0
M  V30 2692 H 240.058 5.22007 0.510793 0
M  V30 2693 H 241.532 5.0569 2.21318 0
M  V30 2694 H 242.009 3.44107 2.72923 0
M  V30 2695 H 242.615 4.08437 1.18572 0
M  V30 2696 N 240.93 -0.123565 1.57115 0
M  V30 2697 C 242.346 -0.476961 1.52306 0
M  V30 2698 C 242.546 -1.82109 0.86248 0
M  V30 2699 O 241.602 -2.48586 0.442884 0
M  V30 2700 C 242.915 -0.465661 2.97073 0
M  V30 2701 C 244.463 -0.549534 3.08138 0
M  V30 2702 C 244.938 -0.568669 4.54456 0
M  V30 2703 N 246.429 -0.630237 4.58892 0
M  V30 2704 C 247.164 -0.666415 5.69514 0
M  V30 2705 N 246.66 -0.660514 6.89644 0
M  V30 2706 N 248.453 -0.709077 5.5761 0
M  V30 2707 H 240.604 0.757198 1.98445 0
M  V30 2708 H 242.867 0.278808 0.906074 0
M  V30 2709 H 242.573 0.454232 3.48754 0
M  V30 2710 H 242.447 -1.29513 3.54269 0
M  V30 2711 H 244.834 -1.45985 2.56461 0
M  V30 2712 H 244.915 0.307532 2.53945 0
M  V30 2713 H 244.559 0.337581 5.06777 0
M  V30 2714 H 244.489 -1.44256 5.06456 0
M  V30 2715 H 246.98 -0.641146 3.72421 0
M  V30 2716 H 247.293 -0.690616 7.69708 0
M  V30 2717 H 245.638 -0.628012 6.92157 0
M  V30 2718 H 248.829 -0.711019 4.62668 0
M  V30 2719 H 249.002 -0.733804 6.43832 0
M  V30 2720 N 242.408 -1.52605 -0.393616 0
M  V30 2721 C 243.633 -1.71592 -1.16495 0
M  V30 2722 C 244.058 -0.43133 -1.83088 0
M  V30 2723 O 243.416 0.612523 -1.7064 0
M  V30 2724 C 243.464 -2.86318 -2.19213 0
M  V30 2725 O 242.568 -2.52969 -3.257 0
M  V30 2726 H 241.909 -0.570734 -0.33935 0
M  V30 2727 H 244.439 -1.99377 -0.459324 0
M  V30 2728 H 244.449 -3.1168 -2.63286 0
M  V30 2729 H 243.124 -3.79511 -1.7013 0
M  V30 2730 H 241.701 -2.38332 -2.86797 0
M  V30 2731 N 243.887 0.651787 -1.4349 0
M  V30 2732 C 244.85 1.74647 -1.48429 0
M  V30 2733 C 245.85 1.56513 -0.368817 0
M  V30 2734 O 247.04 1.62385 -0.630623 0
M  V30 2735 C 244.172 3.13533 -1.33827 0
M  V30 2736 H 245.365 1.71649 -2.4592 0
M  V30 2737 H 242.918 0.863573 -1.30277 0
M  V30 2738 H 243.653 3.22142 -0.37349 0
M  V30 2739 H 243.438 3.28101 -2.14691 0
M  V30 2740 H 244.928 3.93356 -1.40218 0
M  V30 2741 N 245.365 1.30045 0.890287 0
M  V30 2742 C 246.59 1.21598 1.68014 0
M  V30 2743 C 247.015 -0.218678 1.86825 0
M  V30 2744 O 246.373 -1.15756 1.39536 0
M  V30 2745 C 246.421 1.94434 3.03691 0
M  V30 2746 O 245.525 1.2678 3.92429 0
M  V30 2747 H 244.866 0.420856 0.513592 0
M  V30 2748 H 247.396 1.71775 1.11151 0
M  V30 2749 H 247.406 2.03251 3.5377 0
M  V30 2750 H 246.081 2.98777 2.89318 0
M  V30 2751 H 244.658 1.26282 3.50866 0
M  V30 2752 N 246.843 -1.10192 1.12674 0
M  V30 2753 C 248.09 -1.82205 0.883606 0
M  V30 2754 C 248.418 -1.8532 -0.590492 0
M  V30 2755 O 247.673 -1.31137 -1.45264 0
M  V30 2756 C 247.972 -3.28552 1.4067 0
M  V30 2757 C 247.638 -3.45582 2.89627 0
M  V30 2758 C 246.3 -3.49937 3.30299 0
M  V30 2759 C 248.652 -3.50768 3.85501 0
M  V30 2760 C 245.98 -3.57049 4.65546 0
M  V30 2761 C 248.332 -3.59414 5.20581 0
M  V30 2762 C 246.996 -3.62034 5.60792 0
M  V30 2763 H 246.266 -0.666735 0.323334 0
M  V30 2764 H 248.913 -1.29868 1.40736 0
M  V30 2765 H 247.218 -3.83473 0.80347 0
M  V30 2766 H 248.915 -3.82788 1.19475 0
M  V30 2767 H 245.505 -3.42871 2.57172 0
M  V30 2768 H 249.689 -3.46651 3.55171 0
M  V30 2769 H 244.945 -3.57361 4.96088 0
M  V30 2770 H 249.119 -3.62371 5.94693 0
M  V30 2771 H 246.746 -3.67298 6.6558 0
M  V30 2772 N 248.321 -0.919034 -1.28029 0
M  V30 2773 C 249.561 -0.562107 -1.96519 0
M  V30 2774 C 249.925 0.878784 -1.70708 0
M  V30 2775 O 251.126 1.34355 -2.32813 0
M  V30 2776 C 249.397 -0.868953 -3.46676 0
M  V30 2777 S 250.956 -0.619237 -4.34409 0
M  V30 2778 H 247.774 -0.2078 -0.679956 0
M  V30 2779 H 250.376 -1.18562 -1.55446 0
M  V30 2780 H 249.08 -1.91547 -3.62957 0
M  V30 2781 H 248.611 -0.234301 -3.92702 0
M  V30 2782 H 250.626 0.526995 -4.93394 0
M  V30 2783 N 249.799 1.42003 -0.683588 0
M  V30 2784 C 251.047 2.01015 -0.209101 0
M  V30 2785 C 251.368 1.54365 1.19149 0
M  V30 2786 O 250.638 0.769083 1.80172 0
M  V30 2787 H 249.218 0.743294 -0.074315 0
M  V30 2788 H 251.88 1.73798 -0.882066 0
M  V30 2789 H 250.976 3.11343 -0.2172 0
M  V30 2790 N 251.277 0.427512 1.51691 0
M  V30 2791 C 252.502 -0.143601 2.06902 0
M  V30 2792 C 252.927 -1.36536 1.29382 0
M  V30 2793 O 252.285 -1.78289 0.329043 0
M  V30 2794 C 252.333 -0.454207 3.57728 0
M  V30 2795 O 251.437 -1.54228 3.82475 0
M  V30 2796 H 250.778 -0.00617128 0.663971 0
M  V30 2797 H 253.308 0.606014 1.95419 0
M  V30 2798 H 253.318 -0.707525 4.01818 0
M  V30 2799 H 251.993 0.438812 4.13579 0
M  V30 2800 H 250.57 -1.2797 3.50254 0
M  V30 2801 N 252.755 -1.56801 0.158532 0
M  V30 2802 C 254.166 -1.83189 -0.360366 0
M  V30 2803 C 254.517 -1.07778 -1.63946 0
M  V30 2804 O 253.642 -0.326718 -2.13919 0
M  V30 2805 C 254.237 -3.32297 -0.660595 0
M  V30 2806 C 252.796 -3.59227 -1.12398 0
M  V30 2807 C 251.943 -2.76877 -0.153097 0
M  V30 2808 H 254.894 -1.54008 0.383031 0
M  V30 2809 H 254.915 -3.4908 -1.51405 0
M  V30 2810 H 254.427 -3.87156 0.270527 0
M  V30 2811 H 252.528 -3.09766 -2.07064 0
M  V30 2812 H 252.641 -4.67632 -1.04197 0
M  V30 2813 H 251.005 -2.46319 -0.647983 0
M  V30 2814 H 251.788 -3.34511 0.77182 0
M  V30 2815 N 254.233 0.115231 -1.57178 0
M  V30 2816 C 255.463 0.835224 -1.88964 0
M  V30 2817 C 255.871 1.73774 -0.74829 0
M  V30 2818 O 255.214 1.81401 0.289739 0
M  V30 2819 C 255.276 1.7178 -3.15804 0
M  V30 2820 C 254.94 0.989198 -4.46166 0
M  V30 2821 C 255.937 0.328263 -5.18863 0
M  V30 2822 C 253.622 0.969256 -4.9286 0
M  V30 2823 C 255.616 -0.342873 -6.36477 0
M  V30 2824 C 253.303 0.294324 -6.10391 0
M  V30 2825 C 254.301 -0.360582 -6.82048 0
M  V30 2826 O 253.989 -1.02474 -7.97342 0
M  V30 2827 H 253.721 0.245197 -0.629964 0
M  V30 2828 H 256.275 0.10303 -2.05141 0
M  V30 2829 H 254.505 2.49173 -2.95719 0
M  V30 2830 H 256.194 2.31255 -3.33581 0
M  V30 2831 H 256.96 0.335263 -4.8384 0
M  V30 2832 H 252.839 1.46844 -4.36987 0
M  V30 2833 H 256.383 -0.854629 -6.92345 0
M  V30 2834 H 252.28 0.285099 -6.4487 0
M  V30 2835 H 253.048 -0.929594 -8.13204 0
M  V30 2836 N 255.711 1.52812 0.385517 0
M  V30 2837 C 256.936 1.72207 1.15583 0
M  V30 2838 C 257.361 0.441034 1.82857 0
M  V30 2839 O 256.719 -0.603465 1.70962 0
M  V30 2840 C 256.767 2.87476 2.17692 0
M  V30 2841 O 255.871 2.54693 3.24354 0
M  V30 2842 H 255.212 0.572526 0.336319 0
M  V30 2843 H 257.742 1.99618 0.448744 0
M  V30 2844 H 257.752 3.13072 2.6163 0
M  V30 2845 H 256.427 3.80408 1.68115 0
M  V30 2846 H 255.004 2.3985 2.85529 0
M  V30 2847 N 257.189 -0.644168 1.43834 0
M  V30 2848 C 258.435 -1.40431 1.47141 0
M  V30 2849 C 258.79 -1.92153 0.0975577 0
M  V30 2850 O 258.083 -1.69924 -0.885232 0
M  V30 2851 C 258.277 -2.59615 2.45631 0
M  V30 2852 C 258.106 -2.1956 3.92458 0
M  V30 2853 C 256.876 -2.07456 4.60749 0
M  V30 2854 C 259.074 -1.79281 4.8204 0
M  V30 2855 N 257.056 -1.60827 5.92459 0
M  V30 2856 C 258.427 -1.43801 6.03093 0
M  V30 2857 C 260.482 -1.66545 4.6922 0
M  V30 2858 C 259.185 -0.968599 7.12749 0
M  V30 2859 C 261.211 -1.21008 5.78888 0
M  V30 2860 C 260.573 -0.864711 6.99072 0
M  V30 2861 H 256.672 -0.509182 0.593513 0
M  V30 2862 H 259.256 -0.740351 1.80075 0
M  V30 2863 H 257.427 -3.23658 2.1471 0
M  V30 2864 H 259.159 -3.26357 2.39318 0
M  V30 2865 H 255.914 -2.275 4.1538 0
M  V30 2866 H 256.338 -1.39848 6.62398 0
M  V30 2867 H 260.98 -1.91883 3.7675 0
M  V30 2868 H 258.698 -0.702715 8.05039 0
M  V30 2869 H 262.284 -1.11631 5.7099 0
M  V30 2870 H 261.164 -0.517736 7.82489 0
M  V30 2871 N 258.668 -1.30515 -0.883378 0
M  V30 2872 C 259.578 -1.18959 -2.02203 0
M  V30 2873 C 260.594 -0.109172 -1.73657 0
M  V30 2874 O 261.77 -0.324413 -1.9877 0
M  V30 2875 C 258.835 -0.883871 -3.35244 0
M  V30 2876 C 257.896 -2.04982 -3.77201 0
M  V30 2877 C 257.129 -1.75859 -5.03894 0
M  V30 2878 O 257.352 -0.687276 -5.66244 0
M  V30 2879 O 256.286 -2.61146 -5.42297 0
M  V30 2880 H 260.112 -2.14616 -2.1488 0
M  V30 2881 H 257.697 -1.10124 -1.0096 0
M  V30 2882 H 259.579 -0.728644 -4.15053 0
M  V30 2883 H 258.254 0.0427798 -3.23672 0
M  V30 2884 H 257.161 -2.26038 -2.9809 0
M  V30 2885 H 258.494 -2.95825 -3.93381 0
M  V30 2886 N 260.146 1.09593 -1.13257 0
M  V30 2887 C 261.078 2.16015 -0.766167 0
M  V30 2888 C 262.091 1.61423 0.211303 0
M  V30 2889 O 263.28 1.78498 -0.00863946 0
M  V30 2890 C 260.38 3.38706 -0.114662 0
M  V30 2891 C 259.553 4.22717 -1.12379 0
M  V30 2892 C 258.612 5.23835 -0.498301 0
M  V30 2893 O 257.638 5.573 -1.15781 0
M  V30 2894 N 258.84 5.75886 0.730417 0
M  V30 2895 H 261.605 2.48055 -1.68193 0
M  V30 2896 H 259.166 1.25292 -1.02535 0
M  V30 2897 H 261.158 4.03464 0.315991 0
M  V30 2898 H 259.728 3.04569 0.704011 0
M  V30 2899 H 258.948 3.54122 -1.73179 0
M  V30 2900 H 260.236 4.75673 -1.80589 0
M  V30 2901 H 259.634 5.50911 1.28504 0
M  V30 2902 H 258.191 6.42387 1.10376 0
M  V30 2903 N 261.624 0.925811 1.2754 0
M  V30 2904 C 262.534 0.428993 2.30644 0
M  V30 2905 C 263.55 -0.489387 1.66976 0
M  V30 2906 O 264.726 -0.372653 1.97922 0
M  V30 2907 C 261.791 -0.311967 3.45294 0
M  V30 2908 C 260.852 0.641098 4.24486 0
M  V30 2909 C 260.085 -0.0645955 5.33661 0
M  V30 2910 O 260.308 -1.28429 5.55754 0
M  V30 2911 O 259.242 0.606265 5.98839 0
M  V30 2912 H 263.068 1.28504 2.75173 0
M  V30 2913 H 260.653 0.691086 1.32455 0
M  V30 2914 H 262.535 -0.729972 4.15029 0
M  V30 2915 H 261.21 -1.14365 3.02824 0
M  V30 2916 H 260.117 1.10874 3.57292 0
M  V30 2917 H 261.45 1.43995 4.70666 0
M  V30 2918 N 263.102 -1.41638 0.69111 0
M  V30 2919 C 264.032 -2.3347 0.037248 0
M  V30 2920 C 265.013 -1.51575 -0.771947 0
M  V30 2921 O 266.198 -1.80126 -0.72582 0
M  V30 2922 C 263.328 -3.35354 -0.903064 0
M  V30 2923 C 262.282 -4.27526 -0.201288 0
M  V30 2924 C 261.608 -5.19747 -1.25565 0
M  V30 2925 C 262.908 -5.13959 0.929689 0
M  V30 2926 H 264.602 -2.88397 0.804227 0
M  V30 2927 H 262.148 -1.38669 0.388189 0
M  V30 2928 H 264.101 -3.98519 -1.36969 0
M  V30 2929 H 262.825 -2.78767 -1.70166 0
M  V30 2930 H 261.484 -3.65779 0.245265 0
M  V30 2931 H 261.132 -4.59479 -2.04666 0
M  V30 2932 H 260.832 -5.8225 -0.791128 0
M  V30 2933 H 262.356 -5.85789 -1.72288 0
M  V30 2934 H 263.77 -5.70718 0.543546 0
M  V30 2935 H 262.167 -5.85379 1.32103 0
M  V30 2936 H 263.237 -4.51389 1.77133 0
M  V30 2937 N 264.58 -0.43555 -1.51462 0
M  V30 2938 C 265.512 0.41257 -2.25456 0
M  V30 2939 C 266.525 0.987822 -1.29406 0
M  V30 2940 O 267.714 0.882266 -1.55172 0
M  V30 2941 C 264.814 1.58894 -2.99342 0
M  V30 2942 C 263.987 1.13288 -4.22474 0
M  V30 2943 C 263.046 2.17917 -4.78956 0
M  V30 2944 O 262.072 1.77425 -5.40841 0
M  V30 2945 N 263.274 3.50382 -4.62832 0
M  V30 2946 H 266.039 -0.221603 -2.9888 0
M  V30 2947 H 263.6 -0.264342 -1.59727 0
M  V30 2948 H 265.592 2.28508 -3.34015 0
M  V30 2949 H 264.162 2.12849 -2.28941 0
M  V30 2950 H 263.382 0.263881 -3.93316 0
M  V30 2951 H 264.67 0.805542 -5.02383 0
M  V30 2952 H 264.068 3.86013 -4.13534 0
M  V30 2953 H 262.625 4.15895 -5.01871 0
M  V30 2954 N 266.058 1.56714 -0.166846 0
M  V30 2955 C 267.008 2.14338 0.777382 0
M  V30 2956 C 267.992 1.07642 1.19591 0
M  V30 2957 O 269.184 1.33775 1.15902 0
M  V30 2958 C 266.313 2.78417 2.00846 0
M  V30 2959 C 265.399 3.92264 1.61212 0
M  V30 2960 N 265.79 4.97268 0.925104 0
M  V30 2961 C 264.088 4.03342 1.90346 0
M  V30 2962 C 264.789 5.77093 0.730627 0
M  V30 2963 N 263.765 5.2854 1.27067 0
M  V30 2964 H 267.567 2.9289 0.243466 0
M  V30 2965 H 265.081 1.62364 0.0339954 0
M  V30 2966 H 267.078 3.18073 2.69509 0
M  V30 2967 H 265.738 2.01344 2.54736 0
M  V30 2968 H 266.749 5.14601 0.583646 0
M  V30 2969 H 263.426 3.37368 2.45946 0
M  V30 2970 H 264.816 6.71638 0.187668 0
M  V30 2971 N 267.536 -0.106894 1.57237 0
M  V30 2972 C 268.784 -0.810921 1.85117 0
M  V30 2973 C 269.105 -1.7984 0.753827 0
M  V30 2974 O 268.375 -1.94649 -0.221056 0
M  V30 2975 H 266.955 -0.302466 0.683025 0
M  V30 2976 H 269.617 -0.0913324 1.94686 0
M  V30 2977 H 268.713 -1.34875 2.81452 0
M  V30 2978 N 269.014 -1.53014 -0.377408 0
M  V30 2979 C 270.239 -1.72818 -1.14668 0
M  V30 2980 C 270.664 -0.450725 -1.8262 0
M  V30 2981 O 270.022 0.59439 -1.7128 0
M  V30 2982 C 270.07 -2.88627 -2.16164 0
M  V30 2983 O 269.174 -2.56409 -3.22998 0
M  V30 2984 H 268.515 -0.574301 -0.333278 0
M  V30 2985 H 271.045 -1.99853 -0.438152 0
M  V30 2986 H 271.055 -3.14455 -2.59966 0
M  V30 2987 H 269.73 -3.81294 -1.66095 0
M  V30 2988 H 268.307 -2.4136 -2.84253 0
M  V30 2989 N 270.492 0.636531 -1.44174 0
M  V30 2990 C 271.72 1.42353 -1.50144 0
M  V30 2991 C 272.135 1.88389 -0.124575 0
M  V30 2992 O 271.492 1.6051 0.868489 0
M  V30 2993 C 271.543 2.64744 -2.46156 0
M  V30 2994 O 271.264 2.20629 -3.7849 0
M  V30 2995 C 272.765 3.57929 -2.61537 0
M  V30 2996 H 269.985 0.436752 -0.5094 0
M  V30 2997 H 272.529 0.778933 -1.89084 0
M  V30 2998 H 270.684 3.25307 -2.10366 0
M  V30 2999 H 271.098 2.99938 -4.30276 0
M  V30 3000 H 272.572 4.40428 -3.32757 0
M  V30 3001 H 273.049 4.06382 -1.66585 0
M  V30 3002 H 273.655 3.03238 -2.98206 0
M  V30 3003 N 271.97 1.30982 0.876444 0
M  V30 3004 C 273.195 1.23373 1.66715 0
M  V30 3005 C 273.62 -0.19885 1.87046 0
M  V30 3006 O 272.978 -1.1427 1.40756 0
M  V30 3007 C 273.026 1.97644 3.01611 0
M  V30 3008 O 272.13 1.30935 3.91062 0
M  V30 3009 H 271.471 0.426279 0.509099 0
M  V30 3010 H 274.001 1.72944 1.09323 0
M  V30 3011 H 274.011 2.06992 3.51594 0
M  V30 3012 H 272.686 3.01829 2.86133 0
M  V30 3013 H 271.263 1.29996 3.49507 0
M  V30 3014 N 273.449 -1.08991 1.13837 0
M  V30 3015 C 274.379 -2.17771 0.842507 0
M  V30 3016 C 275.36 -1.6892 -0.20001 0
M  V30 3017 O 276.545 -1.94113 -0.0579731 0
M  V30 3018 C 273.675 -3.4589 0.312644 0
M  V30 3019 C 272.629 -4.08099 1.28992 0
M  V30 3020 C 271.955 -5.31098 0.619623 0
M  V30 3021 C 273.255 -4.50077 2.65005 0
M  V30 3022 H 274.949 -2.42777 1.75213 0
M  V30 3023 H 272.495 -1.16682 0.843875 0
M  V30 3024 H 274.448 -4.21297 0.0933043 0
M  V30 3025 H 273.172 -3.20419 -0.632382 0
M  V30 3026 H 271.831 -3.34717 1.49533 0
M  V30 3027 H 271.479 -5.0191 -0.33102 0
M  V30 3028 H 271.179 -5.73674 1.27167 0
M  V30 3029 H 272.703 -6.09224 0.409669 0
M  V30 3030 H 274.117 -5.16688 2.48407 0
M  V30 3031 H 272.514 -5.03553 3.26427 0
M  V30 3032 H 273.584 -3.62257 3.22332 0
M  V30 3033 N 274.927 -0.932562 -1.27047 0
M  V30 3034 C 275.875 -0.42603 -2.28665 0
M  V30 3035 C 276.869 0.49219 -1.62092 0
M  V30 3036 O 278.075 0.371355 -1.76128 0
M  V30 3037 H 274.45 -0.119213 -0.742491 0
M  V30 3038 H 276.421 -1.29579 -2.68797 0
M  V30 3039 C 275.17 0.301426 -3.46391 0
M  V30 3040 H 274.493 -0.39595 -3.97834 0
M  V30 3041 H 275.933 0.6202 -4.1944 0
M  V30 3042 C 274.392 1.51616 -3.00856 0
M  V30 3043 O 274.922 2.61476 -3.04948 0
M  V30 3044 N 273.128 1.36969 -2.56296 0
M  V30 3045 H 272.675 0.475873 -2.53166 0
M  V30 3046 H 272.633 2.18368 -2.26192 0
M  V30 3047 N 276.405 1.4127 -0.698611 0
M  V30 3048 C 277.682 1.94955 -0.158762 0
M  V30 3049 C 278.062 1.63781 1.33188 0
M  V30 3050 O 277.41 0.946423 2.07979 0
M  V30 3051 C 277.62 3.46044 -0.453309 0
M  V30 3052 C 278.968 4.22872 -0.382707 0
M  V30 3053 O 279.992 3.54076 -0.388396 0
M  V30 3054 O 278.851 5.45407 -0.345463 0
M  V30 3055 H 275.945 0.82683 -0.0167505 0
M  V30 3056 H 278.491 1.50971 -0.77498 0
M  V30 3057 H 277.263 3.62028 -1.48498 0
M  V30 3058 H 276.886 3.97128 0.19373 0
M  V30 3059 N 277.883 0.443576 1.51229 0
M  V30 3060 C 279.111 -0.11929 2.06556 0
M  V30 3061 C 279.526 -1.35921 1.31038 0
M  V30 3062 O 278.883 -1.78675 0.371704 0
M  V30 3063 C 278.934 -0.435228 3.5887 0
M  V30 3064 O 278.655 0.755486 4.31537 0
M  V30 3065 C 280.156 -1.04808 4.30732 0
M  V30 3066 H 277.376 -0.0051584 0.67098 0
M  V30 3067 H 279.92 0.624453 1.94733 0
M  V30 3068 H 278.075 -1.12887 3.70588 0
M  V30 3069 H 278.489 0.483491 5.22267 0
M  V30 3070 H 279.963 -1.2191 5.3837 0
M  V30 3071 H 280.44 -2.03081 3.89429 0
M  V30 3072 H 281.046 -0.393637 4.23474 0
M  V30 3073 N 279.361 -1.56624 0.175154 0
M  V30 3074 C 280.308 -2.18149 -0.753634 0
M  V30 3075 C 281.278 -1.12265 -1.22417 0
M  V30 3076 O 282.463 -1.40432 -1.29165 0
M  V30 3077 C 279.603 -2.82933 -1.97592 0
M  V30 3078 C 278.716 -4.03289 -1.5486 0
M  V30 3079 C 277.851 -4.55988 -2.72485 0
M  V30 3080 C 276.89 -5.68746 -2.26262 0
M  V30 3081 N 276.027 -6.15938 -3.36994 0
M  V30 3082 H 280.867 -2.9717 -0.222195 0
M  V30 3083 H 278.404 -1.46774 -0.0979422 0
M  V30 3084 H 280.362 -3.18653 -2.69288 0
M  V30 3085 H 278.992 -2.06509 -2.481 0
M  V30 3086 H 278.044 -3.73364 -0.728246 0
M  V30 3087 H 279.356 -4.849 -1.16933 0
M  V30 3088 H 278.51 -4.9391 -3.52332 0
M  V30 3089 H 277.249 -3.73443 -3.13674 0
M  V30 3090 H 276.254 -5.30372 -1.44863 0
M  V30 3091 H 277.479 -6.53095 -1.86127 0
M  V30 3092 H 275.425 -5.36321 -3.77751 0
M  V30 3093 H 275.342 -6.92548 -3.03172 0
M  V30 3094 H 276.61 -6.58511 -4.17114 0
M  V30 3095 N 280.839 0.0985539 -1.57292 0
M  V30 3096 C 282.255 0.45267 -1.53046 0
M  V30 3097 C 282.455 1.80713 -0.891342 0
M  V30 3098 O 281.511 2.4785 -0.482375 0
M  V30 3099 C 282.824 0.418341 -2.97776 0
M  V30 3100 C 284.372 0.500443 -3.08973 0
M  V30 3101 C 284.847 0.496297 -4.55303 0
M  V30 3102 N 286.338 0.557151 -4.59837 0
M  V30 3103 C 287.073 0.575726 -5.70502 0
M  V30 3104 N 286.569 0.550714 -6.90608 0
M  V30 3105 N 288.362 0.620277 -5.58667 0
M  V30 3106 H 280.513 -0.788673 -1.97215 0
M  V30 3107 H 282.776 -0.293188 -0.901524 0
M  V30 3108 H 282.482 -0.509659 -3.47988 0
M  V30 3109 H 282.356 1.2386 -3.56284 0
M  V30 3110 H 284.743 1.41886 -2.58751 0
M  V30 3111 H 284.824 -0.347894 -2.53423 0
M  V30 3112 H 284.468 -0.418162 -5.06176 0
M  V30 3113 H 284.398 1.3618 -5.08687 0
M  V30 3114 H 286.889 0.581816 -3.73394 0
M  V30 3115 H 287.202 0.568075 -7.70709 0
M  V30 3116 H 285.547 0.517816 -6.93068 0
M  V30 3117 H 288.738 0.637322 -4.63741 0
M  V30 3118 H 288.911 0.631283 -6.44918 0
M  V30 3119 N 282.317 1.53212 0.369288 0
M  V30 3120 C 283.267 1.75769 1.45222 0
M  V30 3121 C 284.251 0.612136 1.48801 0
M  V30 3122 O 285.443 0.870674 1.54105 0
M  V30 3123 C 282.572 1.94769 2.82701 0
M  V30 3124 C 281.658 3.15315 2.83615 0
M  V30 3125 N 282.049 4.37295 2.54178 0
M  V30 3126 C 280.347 3.15962 3.14776 0
M  V30 3127 C 281.048 5.19015 2.62675 0
M  V30 3128 N 280.024 4.55142 2.97232 0
M  V30 3129 H 283.826 2.67691 1.2132 0
M  V30 3130 H 281.34 1.51787 0.577438 0
M  V30 3131 H 283.337 2.09056 3.60696 0
M  V30 3132 H 281.997 1.04073 3.07569 0
M  V30 3133 H 283.008 4.65091 2.27839 0
M  V30 3134 H 279.685 2.35144 3.44983 0
M  V30 3135 H 281.075 6.26305 2.43294 0
M  V30 3136 N 283.795 -0.628877 1.44509 0
M  V30 3137 C 285.043 -1.38565 1.4712 0
M  V30 3138 C 285.364 -1.94712 0.105899 0
M  V30 3139 O 284.634 -1.75912 -0.862079 0
M  V30 3140 H 283.214 -0.514333 0.541729 0
M  V30 3141 H 285.876 -0.740018 1.80305 0
M  V30 3142 H 284.972 -2.21583 2.19789 0
M  V30 3143 N 285.273 -1.31445 -0.869486 0
M  V30 3144 C 286.501 -1.24122 -1.65534 0
M  V30 3145 C 286.916 0.193387 -1.87807 0
M  V30 3146 O 286.273 1.12557 -1.43656 0
M  V30 3147 C 286.324 -1.98229 -3.02304 0
M  V30 3148 O 286.045 -3.3609 -2.81026 0
M  V30 3149 C 287.546 -1.97751 -3.96749 0
M  V30 3150 H 284.766 -0.428868 -0.516055 0
M  V30 3151 H 287.31 -1.73328 -1.08525 0
M  V30 3152 H 285.465 -1.52782 -3.56001 0
M  V30 3153 H 285.879 -3.7383 -3.67902 0
M  V30 3154 H 287.353 -2.54114 -4.90031 0
M  V30 3155 H 287.83 -0.960137 -4.28577 0
M  V30 3156 H 288.436 -2.43079 -3.48988 0
M  V30 3157 N 286.751 1.08385 -1.14413 0
M  V30 3158 C 287.661 2.18856 -0.844951 0
M  V30 3159 C 288.677 1.73121 0.174668 0
M  V30 3160 O 289.853 2.014 0.00312857 0
M  V30 3161 C 286.918 3.45155 -0.32696 0
M  V30 3162 C 285.979 4.05513 -1.40916 0
M  V30 3163 C 285.212 5.25784 -0.915793 0
M  V30 3164 O 285.435 5.69884 0.242651 0
M  V30 3165 O 284.369 5.77545 -1.69487 0
M  V30 3166 H 288.195 2.46919 -1.76818 0
M  V30 3167 H 285.78 1.17524 -0.922411 0
M  V30 3168 H 287.662 4.21377 -0.0440211 0
M  V30 3169 H 286.337 3.18668 0.568539 0
M  V30 3170 H 285.244 3.30879 -1.74556 0
M  V30 3171 H 286.577 4.3625 -2.27919 0
M  V30 3172 N 288.23 0.939286 1.26551 0
M  V30 3173 C 289.455 0.602008 1.98471 0
M  V30 3174 C 289.88 -0.815624 1.69497 0
M  V30 3175 O 289.238 -1.54912 0.941905 0
M  V30 3176 C 289.286 0.848407 3.50477 0
M  V30 3177 O 288.39 -0.0804009 4.12322 0
M  V30 3178 H 287.731 0.23049 0.622712 0
M  V30 3179 H 290.261 1.2617 1.61066 0
M  V30 3180 H 290.271 0.768553 4.00696 0
M  V30 3181 H 288.946 1.88171 3.70897 0
M  V30 3182 H 287.523 0.0503508 3.72866 0
M  V30 3183 N 289.708 -1.40897 0.706093 0
M  V30 3184 C 290.638 -2.33418 0.0620085 0
M  V30 3185 C 291.619 -1.52385 -0.755827 0
M  V30 3186 O 292.804 -1.80886 -0.706674 0
M  V30 3187 C 289.934 -3.36293 -0.867445 0
M  V30 3188 C 288.888 -4.27716 -0.155932 0
M  V30 3189 C 288.214 -5.2105 -1.20046 0
M  V30 3190 C 289.514 -5.12944 0.984149 0
M  V30 3191 H 291.208 -2.87527 0.83477 0
M  V30 3192 H 288.754 -1.38249 0.402875 0
M  V30 3193 H 290.707 -3.99949 -1.32735 0
M  V30 3194 H 289.431 -2.80556 -1.67199 0
M  V30 3195 H 288.09 -3.65498 0.284047 0
M  V30 3196 H 287.738 -4.61624 -1.99781 0
M  V30 3197 H 287.438 -5.83056 -0.729328 0
M  V30 3198 H 288.962 -5.87584 -1.66066 0
M  V30 3199 H 290.376 -5.70109 0.604048 0
M  V30 3200 H 288.773 -5.83945 1.38304 0
M  V30 3201 H 289.843 -4.49485 1.81911 0
M  V30 3202 N 291.186 -0.45159 -1.50991 0
M  V30 3203 C 292.426 0.109066 -2.04109 0
M  V30 3204 C 292.79 1.38716 -1.32747 0
M  V30 3205 O 293.991 2.02896 -1.76314 0
M  V30 3206 C 292.262 0.308354 -3.56067 0
M  V30 3207 S 293.821 0.830369 -4.30872 0
M  V30 3208 H 290.639 0.0251531 -0.710555 0
M  V30 3209 H 293.241 -0.614264 -1.85599 0
M  V30 3210 H 291.945 -0.627962 -4.05567 0
M  V30 3211 H 291.476 1.05836 -3.78896 0
M  V30 3212 H 293.491 2.10626 -4.49279 0
M  V30 3213 N 292.664 1.56529 -0.183458 0
M  V30 3214 C 293.627 2.17324 0.728223 0
M  V30 3215 C 294.627 1.12453 1.14939 0
M  V30 3216 O 295.817 1.37902 1.06437 0
M  V30 3217 C 292.949 2.76591 1.99274 0
M  V30 3218 H 294.142 2.99241 0.198772 0
M  V30 3219 H 291.695 1.5616 0.0661391 0
M  V30 3220 H 292.43 1.98441 2.56499 0
M  V30 3221 H 292.215 3.5335 1.69959 0
M  V30 3222 H 293.705 3.23311 2.6431 0
M  V30 3223 N 294.142 -0.090211 1.57342 0
M  V30 3224 C 295.074 -1.13541 1.99101 0
M  V30 3225 C 296.087 -1.3604 0.894258 0
M  V30 3226 O 297.276 -1.34606 1.17233 0
M  V30 3227 C 294.376 -2.49001 2.29895 0
M  V30 3228 C 293.549 -2.46712 3.61182 0
M  V30 3229 C 292.608 -3.64136 3.79857 0
M  V30 3230 O 291.634 -3.46405 4.51655 0
M  V30 3231 N 292.836 -4.83802 3.20806 0
M  V30 3232 H 295.601 -0.779942 2.89373 0
M  V30 3233 H 293.162 -0.279125 1.59476 0
M  V30 3234 H 295.154 -3.26166 2.39578 0
M  V30 3235 H 293.724 -2.76619 1.45605 0
M  V30 3236 H 292.944 -1.55058 3.62423 0
M  V30 3237 H 294.232 -2.42265 4.4742 0
M  V30 3238 H 293.63 -5.01112 2.62494 0
M  V30 3239 H 292.187 -5.58543 3.35966 0
M  V30 3240 N 295.62 -1.53406 -0.361157 0
M  V30 3241 C 296.845 -1.74024 -1.12829 0
M  V30 3242 C 297.27 -0.470069 -1.82132 0
M  V30 3243 O 296.628 0.57619 -1.719 0
M  V30 3244 C 296.676 -2.90903 -2.13091 0
M  V30 3245 O 295.78 -2.59821 -3.20261 0
M  V30 3246 H 295.121 -0.577804 -0.327168 0
M  V30 3247 H 297.651 -2.00307 -0.41693 0
M  V30 3248 H 297.661 -3.17194 -2.56616 0
M  V30 3249 H 296.336 -3.83034 -1.62042 0
M  V30 3250 H 294.913 -2.44362 -2.81677 0
M  V30 3251 N 297.098 0.621204 -1.44841 0
M  V30 3252 C 298.323 1.41244 -1.51871 0
M  V30 3253 C 298.748 1.87519 -0.147764 0
M  V30 3254 O 298.106 1.59334 0.865 0
M  V30 3255 C 298.154 2.60221 -2.49634 0
M  V30 3256 O 297.258 3.60395 -2.00473 0
M  V30 3257 H 296.599 0.42223 -0.512463 0
M  V30 3258 H 299.129 0.757305 -1.90069 0
M  V30 3259 H 299.139 3.0764 -2.67996 0
M  V30 3260 H 297.814 2.25887 -3.4921 0
M  V30 3261 H 296.391 3.19717 -1.91925 0
M  V30 3262 N 298.576 1.31904 0.862503 0
M  V30 3263 C 299.824 1.21776 1.61292 0
M  V30 3264 C 300.145 -0.222413 1.93727 0
M  V30 3265 O 299.415 -1.1451 1.58947 0
M  V30 3266 H 297.995 0.447717 0.597962 0
M  V30 3267 H 300.657 1.65326 1.03215 0
M  V30 3268 H 299.753 1.7948 2.5533 0
M  V30 3269 N 300.054 -1.07777 1.14986 0
M  V30 3270 C 301.303 -1.79669 0.916617 0
M  V30 3271 C 301.616 -1.87474 -0.557917 0
M  V30 3272 O 302.822 -2.55845 -0.908617 0
M  V30 3273 C 301.278 -3.22848 1.59051 0
M  V30 3274 C 300.886 -3.23257 3.10176 0
M  V30 3275 C 302.63 -3.99379 1.43864 0
M  V30 3276 C 300.537 -4.61063 3.70372 0
M  V30 3277 H 299.467 -0.673349 0.33929 0
M  V30 3278 H 302.118 -1.21003 1.37951 0
M  V30 3279 H 300.5 -3.8168 1.0553 0
M  V30 3280 H 301.674 -2.74095 3.70417 0
M  V30 3281 H 299.989 -2.60222 3.25074 0
M  V30 3282 H 302.586 -5.0122 1.86232 0
M  V30 3283 H 302.929 -4.14511 0.385564 0
M  V30 3284 H 303.462 -3.47032 1.94457 0
M  V30 3285 H 300.201 -4.51135 4.7556 0
M  V30 3286 H 299.721 -5.1048 3.14913 0
M  V30 3287 H 301.4 -5.30034 3.71043 0
M  V30 3288 N 301.532 -0.945985 -1.26051 0
M  V30 3289 C 302.462 -0.477172 -2.28572 0
M  V30 3290 C 303.443 0.472032 -1.63419 0
M  V30 3291 O 304.628 0.372853 -1.90587 0
M  V30 3292 C 301.758 0.253975 -3.4637 0
M  V30 3293 C 300.712 -0.609135 -4.23643 0
M  V30 3294 C 300.038 0.252252 -5.34105 0
M  V30 3295 C 301.338 -1.8829 -4.8718 0
M  V30 3296 H 303.032 -1.33402 -2.68038 0
M  V30 3297 H 300.578 -0.642904 -1.28852 0
M  V30 3298 H 302.531 0.593016 -4.17207 0
M  V30 3299 H 301.255 1.145 -3.05871 0
M  V30 3300 H 299.914 -0.931138 -3.54578 0
M  V30 3301 H 299.562 1.14278 -4.89846 0
M  V30 3302 H 299.262 -0.32188 -5.86718 0
M  V30 3303 H 300.786 0.586454 -6.07777 0
M  V30 3304 H 302.2 -1.61081 -5.50205 0
M  V30 3305 H 300.597 -2.40199 -5.49931 0
M  V30 3306 H 301.667 -2.59134 -4.09851 0
M  V30 3307 N 303.011 1.40521 -0.713556 0
M  V30 3308 C 304.236 2.05759 -0.26035 0
M  V30 3309 C 304.661 1.53403 1.08854 0
M  V30 3310 O 304.019 0.668535 1.68524 0
M  V30 3311 C 304.067 3.59745 -0.248122 0
M  V30 3312 O 303.171 4.05123 0.77131 0
M  V30 3313 H 302.512 0.652564 -0.122703 0
M  V30 3314 H 305.042 1.79958 -0.973467 0
M  V30 3315 H 305.052 4.07911 -0.0851129 0
M  V30 3316 H 303.727 3.97218 -1.2325 0
M  V30 3317 H 302.304 3.68422 0.57619 0
M  V30 3318 N 304.489 0.459591 1.5075 0
M  V30 3319 C 305.905 0.113092 1.59199 0
M  V30 3320 C 306.105 -1.37951 1.46874 0
M  V30 3321 O 305.161 -2.15168 1.32132 0
M  V30 3322 C 306.474 0.653043 2.93523 0
M  V30 3323 C 308.022 0.615449 3.0689 0
M  V30 3324 C 308.497 1.13275 4.43771 0
M  V30 3325 N 309.988 1.09167 4.50152 0
M  V30 3326 C 310.723 1.46256 5.54434 0
M  V30 3327 N 310.219 1.90739 6.66026 0
M  V30 3328 N 312.012 1.37932 5.44914 0
M  V30 3329 H 304.163 1.43049 1.57005 0
M  V30 3330 H 306.426 0.590861 0.741341 0
M  V30 3331 H 306.132 1.69822 3.07983 0
M  V30 3332 H 306.006 0.0902132 3.77092 0
M  V30 3333 H 308.393 -0.420793 2.92084 0
M  V30 3334 H 308.474 1.21495 2.25106 0
M  V30 3335 H 308.118 2.16757 4.59324 0
M  V30 3336 H 308.048 0.509576 5.24129 0
M  V30 3337 H 310.539 0.76528 3.7007 0
M  V30 3338 H 310.852 2.17218 7.41644 0
M  V30 3339 H 309.197 1.94683 6.67176 0
M  V30 3340 H 312.388 1.0303 4.56621 0
M  V30 3341 H 312.561 1.67164 6.26067 0
M  V30 3342 N 305.967 -1.56429 0.191757 0
M  V30 3343 C 307.378 -1.83912 -0.321428 0
M  V30 3344 C 307.729 -1.11231 -1.61623 0
M  V30 3345 O 306.854 -0.37202 -2.13178 0
M  V30 3346 C 307.449 -3.33624 -0.589961 0
M  V30 3347 C 306.008 -3.6153 -1.04753 0
M  V30 3348 C 305.155 -2.7714 -0.0943327 0
M  V30 3349 H 308.106 -1.53161 0.415612 0
M  V30 3350 H 308.127 -3.52213 -1.43966 0
M  V30 3351 H 307.639 -3.86495 0.352588 0
M  V30 3352 H 305.74 -3.14089 -2.00447 0
M  V30 3353 H 305.853 -4.69737 -0.942549 0
M  V30 3354 H 304.217 -2.47638 -0.595589 0
M  V30 3355 H 305 -3.32799 0.842601 0
M  V30 3356 N 307.445 0.0818655 -1.57387 0
M  V30 3357 C 308.67 0.799946 -1.91352 0
M  V30 3358 C 309.095 1.70833 -0.787258 0
M  V30 3359 O 308.453 1.79419 0.26048 0
M  V30 3360 C 308.501 1.57812 -3.24234 0
M  V30 3361 O 307.605 2.68806 -3.12757 0
M  V30 3362 H 306.946 0.21891 -0.626877 0
M  V30 3363 H 309.476 0.0531256 -2.04531 0
M  V30 3364 H 309.486 1.95952 -3.57864 0
M  V30 3365 H 308.161 0.911548 -4.05788 0
M  V30 3366 H 306.738 2.33597 -2.90666 0
M  V30 3367 N 308.923 1.53595 0.353017 0
M  V30 3368 C 309.886 1.80232 1.41594 0
M  V30 3369 C 310.886 0.673081 1.46035 0
M  V30 3370 O 312.076 0.941335 1.46576 0
M  V30 3371 C 309.208 1.93578 2.80607 0
M  V30 3372 H 310.401 2.75174 1.19244 0
M  V30 3373 H 307.954 1.44864 0.586872 0
M  V30 3374 H 308.689 1.00746 3.08254 0
M  V30 3375 H 308.474 2.75724 2.78781 0
M  V30 3376 H 309.964 2.15735 3.57558 0
M  V30 3377 N 310.401 -0.613514 1.45168 0
M  V30 3378 C 311.649 -1.36997 1.48581 0
M  V30 3379 C 311.97 -1.94589 0.126545 0
M  V30 3380 O 311.24 -1.76816 -0.843372 0
M  V30 3381 H 309.82 -0.508558 0.547154 0
M  V30 3382 H 312.482 -0.720853 1.81079 0
M  V30 3383 H 311.578 -2.1924 2.22127 0
M  V30 3384 N 311.879 -1.3236 -0.855495 0
M  V30 3385 C 313.104 -1.2601 -1.64731 0
M  V30 3386 C 313.529 0.169068 -1.87339 0
M  V30 3387 O 312.887 1.12016 -1.42556 0
M  V30 3388 C 312.935 -2.02417 -2.98429 0
M  V30 3389 O 312.039 -1.3714 -3.8893 0
M  V30 3390 H 311.38 -0.434325 -0.502253 0
M  V30 3391 H 313.91 -1.74661 -1.06558 0
M  V30 3392 H 313.92 -2.12559 -3.48257 0
M  V30 3393 H 312.595 -3.06343 -2.81295 0
M  V30 3394 H 311.172 -1.3554 -3.47395 0
M  V30 3395 N 313.357 1.07166 -1.15556 0
M  V30 3396 C 314.32 2.12589 -0.856644 0
M  V30 3397 C 315.32 1.6015 0.14444 0
M  V30 3398 O 316.51 1.7399 -0.0854163 0
M  V30 3399 C 313.642 3.39753 -0.279405 0
M  V30 3400 H 314.835 2.40539 -1.79112 0
M  V30 3401 H 312.388 1.23086 -0.963298 0
M  V30 3402 H 313.123 3.17447 0.663174 0
M  V30 3403 H 312.908 3.79117 -1.00063 0
M  V30 3404 H 314.398 4.17507 -0.0879113 0
M  V30 3405 N 314.835 0.952656 1.25548 0
M  V30 3406 C 316.084 0.602053 1.92505 0
M  V30 3407 C 316.397 -0.864663 1.75451 0
M  V30 3408 O 317.603 -1.32514 2.36965 0
M  V30 3409 C 316.059 1.02607 3.44963 0
M  V30 3410 C 315.667 2.51519 3.70732 0
M  V30 3411 C 317.411 0.747905 4.1786 0
M  V30 3412 C 315.318 2.87732 5.16686 0
M  V30 3413 H 314.248 0.22146 0.720744 0
M  V30 3414 H 316.899 1.15684 1.42441 0
M  V30 3415 H 315.281 0.399712 3.93978 0
M  V30 3416 H 316.455 3.19157 3.32378 0
M  V30 3417 H 314.77 2.76786 3.11092 0
M  V30 3418 H 317.367 0.994647 5.25367 0
M  V30 3419 H 317.71 -0.315629 4.15102 0
M  V30 3420 H 318.243 1.33452 3.74747 0
M  V30 3421 H 314.982 3.93095 5.24554 0
M  V30 3422 H 314.502 2.24765 5.56094 0
M  V30 3423 H 316.181 2.76817 5.84792 0
M  V30 3424 N 316.313 -1.40141 0.720998 0
M  V30 3425 C 317.245 -2.29177 0.0324669 0
M  V30 3426 C 318.258 -1.46105 -0.718126 0
M  V30 3427 O 319.447 -1.69335 -0.564608 0
M  V30 3428 C 316.547 -3.24473 -0.978292 0
M  V30 3429 C 315.72 -4.36423 -0.292115 0
M  V30 3430 C 314.779 -5.12122 -1.20901 0
M  V30 3431 O 313.805 -5.64981 -0.691766 0
M  V30 3432 N 315.007 -5.21992 -2.53978 0
M  V30 3433 H 317.772 -2.88909 0.796984 0
M  V30 3434 H 315.333 -1.51569 0.569068 0
M  V30 3435 H 317.325 -3.71987 -1.59398 0
M  V30 3436 H 315.895 -2.65871 -1.64413 0
M  V30 3437 H 315.115 -3.90967 0.503847 0
M  V30 3438 H 316.403 -5.08467 0.183971 0
M  V30 3439 H 315.801 -4.8054 -2.98493 0
M  V30 3440 H 314.358 -5.72995 -3.10677 0
M  V30 3441 N 317.792 -0.46758 -1.50504 0
M  V30 3442 C 319.017 0.0886943 -2.0721 0
M  V30 3443 C 319.442 1.33057 -1.32956 0
M  V30 3444 O 318.8 1.77354 -0.376197 0
M  V30 3445 C 318.848 0.359202 -3.58806 0
M  V30 3446 O 317.952 1.44034 -3.8643 0
M  V30 3447 H 317.293 -0.0114349 -0.663902 0
M  V30 3448 H 319.823 -0.657613 -1.93744 0
M  V30 3449 H 319.833 0.600742 -4.03553 0
M  V30 3450 H 318.508 -0.548311 -4.1227 0
M  V30 3451 H 317.085 1.18638 -3.53524 0
M  V30 3452 N 319.27 1.56325 -0.20005 0
M  V30 3453 C 320.217 2.1932 0.718833 0
M  V30 3454 C 321.187 1.14198 1.20615 0
M  V30 3455 O 322.372 1.42469 1.26914 0
M  V30 3456 C 319.512 2.86041 1.93066 0
M  V30 3457 C 318.625 4.05702 1.48425 0
M  V30 3458 C 317.76 4.60266 2.65196 0
M  V30 3459 C 316.799 5.72273 2.17185 0
M  V30 3460 N 315.936 6.21221 3.27152 0
M  V30 3461 H 320.776 2.97486 0.17489 0
M  V30 3462 H 318.313 1.46911 0.0745794 0
M  V30 3463 H 320.271 3.22897 2.64184 0
M  V30 3464 H 318.901 2.1043 2.44783 0
M  V30 3465 H 317.953 3.74475 0.668755 0
M  V30 3466 H 319.265 4.86699 1.09204 0
M  V30 3467 H 318.419 4.99453 3.4443 0
M  V30 3468 H 317.158 3.78386 3.07693 0
M  V30 3469 H 316.163 5.3261 1.36407 0
M  V30 3470 H 317.388 6.55974 1.75713 0
M  V30 3471 H 315.334 5.42263 3.69171 0
M  V30 3472 H 315.251 6.97284 2.92116 0
M  V30 3473 H 316.519 6.65063 4.06585 0
M  V30 3474 N 320.748 -0.0735177 1.57428 0
M  V30 3475 C 321.995 -0.772999 1.87166 0
M  V30 3476 C 322.323 -1.77665 0.791551 0
M  V30 3477 O 321.578 -1.94541 -0.212636 0
M  V30 3478 C 321.877 -1.51799 3.23561 0
M  V30 3479 C 321.543 -0.654484 4.46125 0
M  V30 3480 C 320.205 -0.416511 4.79394 0
M  V30 3481 C 322.557 -0.0555862 5.2117 0
M  V30 3482 C 319.885 0.429869 5.85123 0
M  V30 3483 C 322.237 0.778239 6.27795 0
M  V30 3484 C 320.901 1.0261 6.59566 0
M  V30 3485 H 320.171 -0.282861 0.684888 0
M  V30 3486 H 322.818 -0.0338272 1.9147 0
M  V30 3487 H 321.123 -2.32932 3.1504 0
M  V30 3488 H 322.82 -2.06397 3.43804 0
M  V30 3489 H 319.41 -0.850091 4.20085 0
M  V30 3490 H 323.594 -0.226558 4.95783 0
M  V30 3491 H 318.85 0.630665 6.08139 0
M  V30 3492 H 323.024 1.24906 6.85107 0
M  V30 3493 H 320.651 1.68371 7.4132 0
M  V30 3494 N 322.226 -1.5378 -0.344866 0
M  V30 3495 C 323.158 -1.77988 -1.44406 0
M  V30 3496 C 324.171 -0.661138 -1.48771 0
M  V30 3497 O 325.36 -0.937842 -1.51877 0
M  V30 3498 C 322.46 -1.86345 -2.8307 0
M  V30 3499 C 321.633 -3.16256 -3.0216 0
M  V30 3500 C 320.692 -3.15588 -4.21059 0
M  V30 3501 O 319.718 -3.89314 -4.15239 0
M  V30 3502 N 320.92 -2.37864 -5.29529 0
M  V30 3503 H 323.685 -2.72839 -1.24012 0
M  V30 3504 H 321.246 -1.52814 -0.534737 0
M  V30 3505 H 323.238 -1.83351 -3.60783 0
M  V30 3506 H 321.808 -0.986858 -2.96614 0
M  V30 3507 H 321.028 -3.32385 -2.11929 0
M  V30 3508 H 322.316 -4.0207 -3.11797 0
M  V30 3509 H 321.714 -1.77514 -5.37127 0
M  V30 3510 H 320.271 -2.40668 -6.05741 0
M  V30 3511 N 323.704 0.605807 -1.45491 0
M  V30 3512 C 324.636 1.73031 -1.5031 0
M  V30 3513 C 325.649 1.57968 -0.393687 0
M  V30 3514 O 326.838 1.65817 -0.660839 0
M  V30 3515 C 323.938 3.11049 -1.34543 0
M  V30 3516 C 323.111 3.52334 -2.59189 0
M  V30 3517 C 322.17 4.69323 -2.37954 0
M  V30 3518 O 321.196 4.7635 -3.11575 0
M  V30 3519 N 322.398 5.62705 -1.4263 0
M  V30 3520 H 325.163 1.6936 -2.4726 0
M  V30 3521 H 322.724 0.79114 -1.41254 0
M  V30 3522 H 324.716 3.87071 -1.18144 0
M  V30 3523 H 323.286 3.09217 -0.458623 0
M  V30 3524 H 322.506 2.66256 -2.90691 0
M  V30 3525 H 323.794 3.76677 -3.42041 0
M  V30 3526 H 323.192 5.59744 -0.818758 0
M  V30 3527 H 321.749 6.38252 -1.32202 0
M  V30 3528 N 325.182 1.32811 0.848464 0
M  V30 3529 C 326.407 1.26882 1.6406 0
M  V30 3530 C 326.832 -0.15913 1.87426 0
M  V30 3531 O 326.19 -1.11258 1.43148 0
M  V30 3532 C 326.238 2.03997 2.97351 0
M  V30 3533 O 325.342 1.39201 3.88197 0
M  V30 3534 H 324.683 0.436982 0.499943 0
M  V30 3535 H 327.213 1.75224 1.0563 0
M  V30 3536 H 327.223 2.14403 3.47124 0
M  V30 3537 H 325.898 3.0783 2.79666 0
M  V30 3538 H 324.475 1.37381 3.46671 0
M  V30 3539 N 326.66 -1.06551 1.16123 0
M  V30 3540 C 328.076 -1.3142 0.905585 0
M  V30 3541 C 328.276 -1.96571 -0.442964 0
M  V30 3542 O 327.332 -2.23068 -1.18308 0
M  V30 3543 C 328.645 -2.19741 2.05267 0
M  V30 3544 C 330.193 -2.33165 2.08813 0
M  V30 3545 C 330.668 -3.24838 3.22868 0
M  V30 3546 N 332.159 -3.32421 3.22568 0
M  V30 3547 C 332.894 -4.0344 4.0746 0
M  V30 3548 N 332.39 -4.77003 5.02434 0
M  V30 3549 N 334.183 -3.99464 3.95456 0
M  V30 3550 H 326.334 -0.626548 2.02949 0
M  V30 3551 H 328.597 -0.338777 0.8854 0
M  V30 3552 H 328.303 -1.79142 3.02657 0
M  V30 3553 H 328.177 -3.20313 1.99198 0
M  V30 3554 H 330.564 -2.73013 1.12018 0
M  V30 3555 H 330.645 -1.3227 2.18948 0
M  V30 3556 H 330.289 -2.85708 4.19921 0
M  V30 3557 H 330.219 -4.25707 3.0997 0
M  V30 3558 H 332.71 -2.79994 2.53795 0
M  V30 3559 H 333.023 -5.28712 5.63634 0
M  V30 3560 H 331.368 -4.75992 5.06415 0
M  V30 3561 H 334.559 -3.4111 3.20564 0
M  V30 3562 H 334.732 -4.54544 4.61837 0
M  V30 3563 N 328.138 -0.959301 -1.25041 0
M  V30 3564 C 329.068 -0.501388 -2.28053 0
M  V30 3565 C 330.049 0.454673 -1.63911 0
M  V30 3566 O 331.234 0.352618 -1.90972 0
M  V30 3567 C 328.364 0.217224 -3.4662 0
M  V30 3568 C 327.318 -0.654034 -4.22973 0
M  V30 3569 C 326.644 0.195589 -5.34342 0
M  V30 3570 C 327.944 -1.93447 -4.85155 0
M  V30 3571 H 329.638 -1.36238 -2.66608 0
M  V30 3572 H 327.184 -0.656534 -1.28163 0
M  V30 3573 H 329.137 0.548732 -4.17812 0
M  V30 3574 H 327.861 1.1125 -3.07068 0
M  V30 3575 H 326.52 -0.968693 -3.5357 0
M  V30 3576 H 326.168 1.09076 -4.91031 0
M  V30 3577 H 325.868 -0.384091 -5.86343 0
M  V30 3578 H 327.392 0.521958 -6.08365 0
M  V30 3579 H 328.806 -1.66908 -5.48466 0
M  V30 3580 H 327.203 -2.46018 -5.47353 0
M  V30 3581 H 328.273 -2.63466 -4.07079 0
M  V30 3582 N 329.616 1.39756 -0.72842 0
M  V30 3583 C 330.864 2.00248 -0.272946 0
M  V30 3584 C 331.185 1.58077 1.14178 0
M  V30 3585 O 330.455 0.826014 1.77634 0
M  V30 3586 H 329.035 0.740554 -0.0979247 0
M  V30 3587 H 331.697 1.70903 -0.936912 0
M  V30 3588 H 330.793 3.10495 -0.316142 0
M  V30 3589 N 331.094 0.475555 1.50254 0
M  V30 3590 C 332.024 -0.30611 2.31485 0
M  V30 3591 C 333.005 -0.986228 1.38591 0
M  V30 3592 O 334.19 -0.982541 1.67511 0
M  V30 3593 C 331.32 -1.38588 3.1845 0
M  V30 3594 C 330.274 -0.827115 4.19932 0
M  V30 3595 C 329.6 -2.00551 4.95665 0
M  V30 3596 C 330.9 0.16463 5.2204 0
M  V30 3597 H 332.594 0.371866 2.97082 0
M  V30 3598 H 330.14 0.180282 1.42867 0
M  V30 3599 H 332.093 -1.94023 3.74076 0
M  V30 3600 H 330.817 -2.09269 2.50747 0
M  V30 3601 H 329.476 -0.294702 3.65414 0
M  V30 3602 H 329.124 -2.6994 4.2443 0
M  V30 3603 H 328.824 -1.63784 5.64313 0
M  V30 3604 H 330.348 -2.56468 5.54127 0
M  V30 3605 H 331.762 -0.300699 5.72511 0
M  V30 3606 H 330.159 0.446813 5.98434 0
M  V30 3607 H 331.229 1.08905 4.72512 0
M  V30 3608 N 332.573 -1.56217 0.208337 0
M  V30 3609 C 333.505 -2.1695 -0.739276 0
M  V30 3610 C 334.518 -1.13492 -1.1672 0
M  V30 3611 O 335.707 -1.40529 -1.10063 0
M  V30 3612 C 332.807 -2.72755 -2.01142 0
M  V30 3613 C 331.98 -4.0125 -1.74118 0
M  V30 3614 C 331.039 -4.41749 -2.85909 0
M  V30 3615 O 330.065 -5.08912 -2.54946 0
M  V30 3616 N 331.267 -4.06342 -4.14568 0
M  V30 3617 H 334.032 -2.98893 -0.219837 0
M  V30 3618 H 331.593 -1.61878 0.0268445 0
M  V30 3619 H 333.585 -2.96826 -2.75094 0
M  V30 3620 H 332.155 -1.95191 -2.4417 0
M  V30 3621 H 331.375 -3.85173 -0.838775 0
M  V30 3622 H 332.663 -4.851 -1.53477 0
M  V30 3623 H 332.061 -3.52345 -4.42571 0
M  V30 3624 H 330.618 -4.35335 -4.85105 0
M  V30 3625 N 334.051 0.0651679 -1.57465 0
M  V30 3626 C 335.001 1.0838 -2.00594 0
M  V30 3627 C 335.985 1.34106 -0.889071 0
M  V30 3628 O 337.177 1.34295 -1.15299 0
M  V30 3629 C 334.306 2.39565 -2.45894 0
M  V30 3630 C 333.392 2.17085 -3.64328 0
M  V30 3631 N 333.783 1.64553 -4.78285 0
M  V30 3632 C 332.081 2.4753 -3.71006 0
M  V30 3633 C 332.782 1.57042 -5.60101 0
M  V30 3634 N 331.758 2.03328 -5.04141 0
M  V30 3635 H 335.56 0.671062 -2.86136 0
M  V30 3636 H 333.074 0.27213 -1.60104 0
M  V30 3637 H 335.071 3.13308 -2.75034 0
M  V30 3638 H 333.731 2.81549 -1.61741 0
M  V30 3639 H 334.742 1.33323 -5.00445 0
M  V30 3640 H 331.419 2.92835 -2.9758 0
M  V30 3641 H 332.809 1.17223 -6.61595 0
M  V30 3642 N 335.529 1.53961 0.336706 0
M  V30 3643 C 336.476 1.82428 1.41381 0
M  V30 3644 C 337.446 0.670444 1.51968 0
M  V30 3645 O 338.631 0.915565 1.67398 0
M  V30 3646 C 335.771 2.04564 2.77934 0
M  V30 3647 C 334.884 3.32267 2.76084 0
M  V30 3648 C 334.019 3.44434 4.04399 0
M  V30 3649 C 333.058 4.66061 3.96804 0
M  V30 3650 N 332.195 4.75224 5.16823 0
M  V30 3651 H 337.035 2.74324 1.16405 0
M  V30 3652 H 334.572 1.35869 0.563752 0
M  V30 3653 H 336.53 2.15388 3.57301 0
M  V30 3654 H 335.16 1.15974 3.01247 0
M  V30 3655 H 334.212 3.3025 1.88784 0
M  V30 3656 H 335.524 4.21733 2.66351 0
M  V30 3657 H 334.678 3.54728 4.92192 0
M  V30 3658 H 333.417 2.53037 4.16921 0
M  V30 3659 H 332.422 4.55838 3.07396 0
M  V30 3660 H 333.647 5.58829 3.85858 0
M  V30 3661 H 331.593 3.86739 5.29876 0
M  V30 3662 H 331.51 5.58636 5.09374 0
M  V30 3663 H 332.778 4.89835 6.06367 0
M  V30 3664 N 337.007 -0.598083 1.45811 0
M  V30 3665 C 337.939 -1.72231 1.51225 0
M  V30 3666 C 338.952 -1.57757 0.402059 0
M  V30 3667 O 340.141 -1.65464 0.669624 0
M  V30 3668 C 337.241 -3.10331 1.3619 0
M  V30 3669 C 336.414 -3.50955 2.61054 0
M  V30 3670 C 335.473 -4.68055 2.40439 0
M  V30 3671 O 334.499 -4.74691 3.14097 0
M  V30 3672 N 335.701 -5.61941 1.45612 0
M  V30 3673 H 338.466 -1.68046 2.48154 0
M  V30 3674 H 336.027 -0.783637 1.41671 0
M  V30 3675 H 338.019 -3.86439 1.20195 0
M  V30 3676 H 336.589 -3.0897 0.475015 0
M  V30 3677 H 335.809 -2.64711 2.92099 0
M  V30 3678 H 337.097 -3.74858 3.44034 0
M  V30 3679 H 336.495 -5.59301 0.848431 0
M  V30 3680 H 335.052 -6.37542 1.35585 0
M  V30 3681 N 338.485 -1.33259 -0.841409 0
M  V30 3682 C 339.733 -1.24326 -1.59334 0
M  V30 3683 C 340.054 0.191564 -1.94057 0
M  V30 3684 O 339.324 1.11967 -1.60749 0
M  V30 3685 H 337.904 -0.457174 -0.590763 0
M  V30 3686 H 340.566 -1.66947 -1.00571 0
M  V30 3687 H 339.662 -1.8352 -2.52442 0
M  V30 3688 N 339.963 1.05934 -1.16686 0
M  V30 3689 C 340.895 2.13468 -0.834503 0
M  V30 3690 C 341.908 1.62013 0.15984 0
M  V30 3691 O 343.097 1.7838 -0.0654228 0
M  V30 3692 C 340.197 3.3817 -0.222361 0
M  V30 3693 C 339.37 4.18928 -1.25771 0
M  V30 3694 C 338.429 5.21985 -0.664703 0
M  V30 3695 O 337.455 5.53334 -1.33453 0
M  V30 3696 N 338.657 5.77919 0.546834 0
M  V30 3697 H 341.422 2.42578 -1.75999 0
M  V30 3698 H 338.983 1.21967 -1.06469 0
M  V30 3699 H 340.975 4.04266 0.187472 0
M  V30 3700 H 339.545 3.06655 0.606758 0
M  V30 3701 H 338.765 3.48433 -1.84358 0
M  V30 3702 H 340.053 4.69687 -1.95631 0
M  V30 3703 H 339.451 5.54721 1.10912 0
M  V30 3704 H 338.008 6.45573 0.898829 0
M  V30 3705 N 341.441 0.965919 1.2453 0
M  V30 3706 C 342.371 0.513476 2.27784 0
M  V30 3707 C 343.352 -0.445974 1.6415 0
M  V30 3708 O 344.537 -0.342485 1.91156 0
M  V30 3709 C 341.667 -0.198839 3.4673 0
M  V30 3710 C 340.621 0.676456 4.2262 0
M  V30 3711 C 339.947 -0.167248 5.34438 0
M  V30 3712 C 341.247 1.96017 4.84123 0
M  V30 3713 H 342.941 1.3765 2.65881 0
M  V30 3714 H 340.487 0.663321 1.27813 0
M  V30 3715 H 342.44 -0.526567 4.18097 0
M  V30 3716 H 341.164 -1.0962 3.07654 0
M  V30 3717 H 339.823 0.98743 3.53052 0
M  V30 3718 H 339.471 -1.0647 4.91603 0
M  V30 3719 H 339.171 0.415181 5.86131 0
M  V30 3720 H 340.695 -0.489688 6.08633 0
M  V30 3721 H 342.109 1.69814 5.47573 0
M  V30 3722 H 340.506 2.48918 5.4604 0
M  V30 3723 H 341.576 2.65622 4.05676 0
M  V30 3724 N 342.919 -1.39368 0.735821 0
M  V30 3725 C 343.882 -2.2896 0.104874 0
M  V30 3726 C 344.882 -1.46347 -0.666274 0
M  V30 3727 O 346.072 -1.67014 -0.49517 0
M  V30 3728 C 343.204 -3.29857 -0.860656 0
M  V30 3729 H 344.397 -2.86259 0.894205 0
M  V30 3730 H 341.95 -1.48029 0.501704 0
M  V30 3731 H 342.685 -2.77615 -1.67631 0
M  V30 3732 H 342.47 -3.9087 -0.310327 0
M  V30 3733 H 343.96 -3.96893 -1.29867 0
M  V30 3734 N 344.397 -0.483516 -1.5 0
M  V30 3735 C 345.345 0.318061 -2.30415 0
M  V30 3736 C 346.339 0.978988 -1.38247 0
M  V30 3737 O 347.545 0.908673 -1.55381 0
M  V30 3738 H 343.92 0.121419 -0.742133 0
M  V30 3739 H 345.891 -0.380403 -2.95965 0
M  V30 3740 C 344.64 1.38013 -3.19136 0
M  V30 3741 H 343.963 0.880952 -3.89973 0
M  V30 3742 H 345.403 1.91332 -3.78375 0
M  V30 3743 C 343.862 2.38884 -2.37563 0
M  V30 3744 O 344.392 3.44412 -2.06744 0
M  V30 3745 N 342.598 2.10912 -1.99911 0
M  V30 3746 H 342.145 1.25118 -2.25174 0
M  V30 3747 H 342.103 2.78635 -1.45636 0
M  V30 3748 N 345.875 1.56104 -0.216619 0
M  V30 3749 C 347.123 1.97781 0.415593 0
M  V30 3750 C 347.444 1.10536 1.60645 0
M  V30 3751 O 346.714 0.181303 1.95059 0
M  V30 3752 H 345.294 0.730415 0.156534 0
M  V30 3753 H 347.956 1.92445 -0.308366 0
M  V30 3754 H 347.052 3.03072 0.74525 0
M  V30 3755 N 347.353 -0.0568162 1.57498 0
M  V30 3756 C 348.3 -1.06591 2.04712 0
M  V30 3757 C 349.27 -1.3758 0.930644 0
M  V30 3758 O 350.455 -1.48392 1.19935 0
M  V30 3759 C 347.595 -2.3701 2.50839 0
M  V30 3760 C 346.708 -2.12421 3.76167 0
M  V30 3761 C 345.843 -3.36511 4.11015 0
M  V30 3762 C 344.882 -3.07353 5.2934 0
M  V30 3763 N 344.019 -4.23816 5.59754 0
M  V30 3764 H 348.859 -0.65631 2.90683 0
M  V30 3765 H 346.396 -0.312481 1.43743 0
M  V30 3766 H 348.354 -3.13175 2.7564 0
M  V30 3767 H 346.984 -2.75744 1.67825 0
M  V30 3768 H 346.036 -1.2688 3.58616 0
M  V30 3769 H 347.348 -1.86894 4.62463 0
M  V30 3770 H 346.502 -4.21062 4.36797 0
M  V30 3771 H 345.241 -3.65128 3.23315 0
M  V30 3772 H 344.246 -2.212 5.03339 0
M  V30 3773 H 345.471 -2.80043 6.1867 0
M  V30 3774 H 343.417 -4.52436 4.75014 0
M  V30 3775 H 343.334 -4.01614 6.40501 0
M  V30 3776 H 344.602 -5.0932 5.90096 0
M  V30 3777 N 348.832 -1.54138 -0.328536 0
M  V30 3778 C 349.764 -1.79509 -1.4251 0
M  V30 3779 C 350.777 -0.67688 -1.48061 0
M  V30 3780 O 351.966 -0.953898 -1.50874 0
M  V30 3781 C 349.066 -1.89337 -2.81078 0
M  V30 3782 C 348.239 -3.19443 -2.98789 0
M  V30 3783 C 347.298 -3.20036 -4.17688 0
M  V30 3784 O 346.324 -3.93697 -4.11086 0
M  V30 3785 N 347.526 -2.43467 -5.26976 0
M  V30 3786 H 350.291 -2.74139 -1.21111 0
M  V30 3787 H 347.852 -1.53373 -0.518499 0
M  V30 3788 H 349.844 -1.87167 -3.58818 0
M  V30 3789 H 348.414 -1.01826 -2.95551 0
M  V30 3790 H 347.634 -3.34614 -2.08391 0
M  V30 3791 H 348.922 -4.05354 -3.07515 0
M  V30 3792 H 348.32 -1.83201 -5.35214 0
M  V30 3793 H 346.877 -2.4708 -6.03154 0
M  V30 3794 N 350.31 0.590341 -1.46126 0
M  V30 3795 C 351.558 1.34616 -1.50742 0
M  V30 3796 C 351.879 1.94363 -0.157486 0
M  V30 3797 O 351.149 1.78136 0.815136 0
M  V30 3798 H 349.729 0.499789 -0.555175 0
M  V30 3799 H 352.391 0.691953 -1.82203 0
M  V30 3800 H 351.487 2.15678 -2.25587 0
M  V30 3801 N 351.788 1.33704 0.83433 0
M  V30 3802 C 353.204 1.13137 1.12571 0
M  V30 3803 C 353.404 -0.0747261 2.01361 0
M  V30 3804 O 352.46 -0.753647 2.4099 0
M  V30 3805 C 353.773 2.42105 1.78342 0
M  V30 3806 C 355.321 2.48054 1.90888 0
M  V30 3807 C 355.796 3.76995 2.60075 0
M  V30 3808 N 357.287 3.78092 2.67584 0
M  V30 3809 C 358.022 4.74574 3.21818 0
M  V30 3810 N 357.518 5.81434 3.76705 0
M  V30 3811 N 359.311 4.62044 3.20112 0
M  V30 3812 H 351.462 2.11 0.243489 0
M  V30 3813 H 353.725 0.932532 0.17055 0
M  V30 3814 H 353.431 3.30391 1.20561 0
M  V30 3815 H 353.305 2.54594 2.7832 0
M  V30 3816 H 355.692 1.60215 2.47821 0
M  V30 3817 H 355.773 2.39502 0.898459 0
M  V30 3818 H 355.417 4.65219 2.03799 0
M  V30 3819 H 355.347 3.82825 3.61597 0
M  V30 3820 H 357.838 3.00865 2.28667 0
M  V30 3821 H 358.151 6.51084 4.16305 0
M  V30 3822 H 356.496 5.85163 3.7498 0
M  V30 3823 H 359.687 3.77716 2.76493 0
M  V30 3824 H 359.86 5.37406 3.62076 0
M  V30 3825 N 353.266 -1.05314 1.17247 0
M  V30 3826 C 354.491 -1.82509 0.985148 0
M  V30 3827 C 354.916 -1.82343 -0.461788 0
M  V30 3828 O 354.274 -1.23151 -1.33055 0
M  V30 3829 C 354.322 -3.26566 1.52929 0
M  V30 3830 O 353.426 -4.05666 0.742225 0
M  V30 3831 H 352.767 -0.564347 0.349869 0
M  V30 3832 H 355.297 -1.32718 1.55715 0
M  V30 3833 H 355.307 -3.77369 1.55103 0
M  V30 3834 H 353.982 -3.26001 2.58256 0
M  V30 3835 H 352.559 -3.64397 0.791794 0
M  V30 3836 N 354.744 -0.972509 -1.24016 0
M  V30 3837 C 355.992 -0.635776 -1.91839 0
M  V30 3838 C 356.313 0.832312 -1.76345 0
M  V30 3839 O 355.583 1.5946 -1.13795 0
M  V30 3840 H 354.163 -0.232157 -0.710009 0
M  V30 3841 H 356.825 -1.23462 -1.50809 0
M  V30 3842 H 355.921 -0.880545 -2.99421 0
M  V30 3843 N 356.222 1.38976 -0.743202 0
M  V30 3844 C 357.638 1.53984 -0.419664 0
M  V30 3845 C 357.838 1.70837 1.0685 0
M  V30 3846 O 356.894 1.7135 1.8546 0
M  V30 3847 C 358.207 2.75287 -1.20985 0
M  V30 3848 C 359.755 2.89129 -1.19889 0
M  V30 3849 C 360.23 4.13381 -1.97181 0
M  V30 3850 N 361.721 4.20437 -1.94389 0
M  V30 3851 C 362.456 5.15547 -2.50996 0
M  V30 3852 N 361.952 6.16395 -3.16274 0
M  V30 3853 N 363.745 5.07822 -2.40984 0
M  V30 3854 H 355.896 1.26285 -1.7078 0
M  V30 3855 H 358.159 0.612689 -0.723406 0
M  V30 3856 H 357.865 2.69204 -2.26323 0
M  V30 3857 H 357.739 3.68184 -0.819759 0
M  V30 3858 H 360.126 2.947 -0.153606 0
M  V30 3859 H 360.207 1.97272 -1.62841 0
M  V30 3860 H 359.851 4.08572 -3.01714 0
M  V30 3861 H 359.781 5.04298 -1.51629 0
M  V30 3862 H 362.272 3.48205 -1.46839 0
M  V30 3863 H 362.585 6.85443 -3.56915 0
M  V30 3864 H 360.93 6.16758 -3.20367 0
M  V30 3865 H 364.121 4.27973 -1.89622 0
M  V30 3866 H 364.294 5.81767 -2.85397 0
M  V30 3867 N 357.7 0.491464 1.49741 0
M  V30 3868 C 358.63 -0.28154 2.31796 0
M  V30 3869 C 359.611 -0.971473 1.3963 0
M  V30 3870 O 360.796 -0.964719 1.68543 0
M  V30 3871 C 357.926 -1.35203 3.19902 0
M  V30 3872 C 356.88 -0.782529 4.20786 0
M  V30 3873 C 356.206 -1.95283 4.97764 0
M  V30 3874 C 357.506 0.21999 5.21837 0
M  V30 3875 H 359.2 0.403355 2.96671 0
M  V30 3876 H 356.746 0.195425 1.42668 0
M  V30 3877 H 358.699 -1.90045 3.76113 0
M  V30 3878 H 357.423 -2.06598 2.52953 0
M  V30 3879 H 356.082 -0.255928 3.65706 0
M  V30 3880 H 355.73 -2.65423 4.2727 0
M  V30 3881 H 355.43 -1.57789 5.66018 0
M  V30 3882 H 356.954 -2.50577 5.56816 0
M  V30 3883 H 358.368 -0.23996 5.72798 0
M  V30 3884 H 356.765 0.51026 5.97927 0
M  V30 3885 H 357.835 1.13911 4.7133 0
M  V30 3886 N 359.178 -1.55987 0.224894 0
M  V30 3887 C 360.594 -1.59066 -0.130426 0
M  V30 3888 C 360.794 -1.24176 -1.5869 0
M  V30 3889 O 359.85 -0.978592 -2.32766 0
M  V30 3890 C 361.163 -3.00042 0.198883 0
M  V30 3891 C 362.711 -3.1268 0.141391 0
M  V30 3892 C 363.186 -4.55839 0.444422 0
M  V30 3893 N 364.677 -4.6152 0.394115 0
M  V30 3894 C 365.412 -5.70231 0.602038 0
M  V30 3895 N 364.908 -6.87291 0.871914 0
M  V30 3896 N 366.701 -5.59555 0.534245 0
M  V30 3897 H 358.852 -1.76941 1.17497 0
M  V30 3898 H 361.115 -0.822604 0.471197 0
M  V30 3899 H 360.821 -3.30234 1.2099 0
M  V30 3900 H 360.695 -3.74075 -0.484535 0
M  V30 3901 H 363.082 -2.82283 -0.860265 0
M  V30 3902 H 363.163 -2.40969 0.858335 0
M  V30 3903 H 362.807 -4.86954 1.44353 0
M  V30 3904 H 362.737 -5.2578 -0.293752 0
M  V30 3905 H 365.228 -3.77405 0.193356 0
M  V30 3906 H 365.541 -7.66058 1.01858 0
M  V30 3907 H 363.886 -6.89028 0.909145 0
M  V30 3908 H 367.077 -4.6698 0.323612 0
M  V30 3909 H 367.25 -6.44211 0.699693 0
M  V30 3910 N 360.656 0.0484629 -1.57525 0
M  V30 3911 C 361.881 0.759177 -1.93006 0
M  V30 3912 C 362.306 1.69125 -0.823317 0
M  V30 3913 O 361.664 1.79931 0.222364 0
M  V30 3914 C 361.712 1.50899 -3.27509 0
M  V30 3915 O 360.816 2.62112 -3.18388 0
M  V30 3916 H 360.157 0.205564 -0.631379 0
M  V30 3917 H 362.687 0.00972959 -2.04598 0
M  V30 3918 H 362.697 1.88317 -3.6194 0
M  V30 3919 H 361.372 0.825269 -4.0763 0
M  V30 3920 H 359.949 2.27379 -2.95556 0
M  V30 3921 N 362.134 1.5431 0.320358 0
M  V30 3922 C 363.55 1.45091 0.664889 0
M  V30 3923 C 363.75 0.626382 1.91517 0
M  V30 3924 O 362.806 0.126443 2.52183 0
M  V30 3925 C 364.119 2.88848 0.83591 0
M  V30 3926 C 365.667 2.9877 0.933046 0
M  V30 3927 C 366.142 4.43683 1.13621 0
M  V30 3928 N 367.633 4.47309 1.20287 0
M  V30 3929 C 368.368 5.56595 1.37801 0
M  V30 3930 N 367.864 6.75844 1.52338 0
M  V30 3931 N 369.657 5.44248 1.40535 0
M  V30 3932 H 361.808 2.06398 -0.501374 0
M  V30 3933 H 364.071 0.933963 -0.162534 0
M  V30 3934 H 363.777 3.51698 -0.0116092 0
M  V30 3935 H 363.651 3.35148 1.73078 0
M  V30 3936 H 366.038 2.36045 1.77107 0
M  V30 3937 H 366.119 2.55796 0.0145782 0
M  V30 3938 H 365.763 5.06995 0.303032 0
M  V30 3939 H 365.693 4.84269 2.0686 0
M  V30 3940 H 368.184 3.61388 1.10485 0
M  V30 3941 H 368.497 7.54892 1.65403 0
M  V30 3942 H 366.842 6.78746 1.4943 0
M  V30 3943 H 370.033 4.50038 1.28777 0
M  V30 3944 H 370.206 6.29473 1.53842 0
M  V30 3945 N 363.613 -0.582584 1.46437 0
M  V30 3946 C 364.859 -1.34278 1.51978 0
M  V30 3947 C 365.192 -1.93446 0.170973 0
M  V30 3948 O 364.467 -1.76481 -0.817608 0
M  V30 3949 C 364.75 -2.47203 2.61845 0
M  V30 3950 C 364.603 -1.93069 4.06257 0
M  V30 3951 C 365.922 -3.49247 2.67795 0
M  V30 3952 H 363.041 -0.486876 0.553282 0
M  V30 3953 H 365.683 -0.654437 1.78374 0
M  V30 3954 H 363.833 -3.0592 2.39469 0
M  V30 3955 H 365.505 -1.38808 4.3992 0
M  V30 3956 H 363.748 -1.23898 4.1573 0
M  V30 3957 H 364.419 -2.74586 4.7886 0
M  V30 3958 H 366.895 -3.00411 2.8791 0
M  V30 3959 H 365.771 -4.25719 3.46489 0
M  V30 3960 H 366.032 -4.06482 1.73852 0
M  V30 3961 N 365.091 -1.34144 -0.827227 0
M  V30 3962 C 366.041 -1.21923 -1.92663 0
M  V30 3963 C 367.025 -0.119294 -1.60457 0
M  V30 3964 O 368.217 -0.348539 -1.73534 0
M  V30 3965 C 365.346 -0.972492 -3.29238 0
M  V30 3966 C 364.432 -2.1154 -3.67576 0
M  V30 3967 N 364.823 -3.36627 -3.77512 0
M  V30 3968 C 363.121 -2.02468 -3.97395 0
M  V30 3969 C 363.822 -4.11658 -4.1099 0
M  V30 3970 N 362.798 -3.40207 -4.23981 0
M  V30 3971 H 366.6 -2.16721 -1.98517 0
M  V30 3972 H 364.114 -1.2632 -1.02064 0
M  V30 3973 H 366.111 -0.865847 -4.0781 0
M  V30 3974 H 364.771 -0.0331509 -3.24683 0
M  V30 3975 H 365.782 -3.71234 -3.61118 0
M  V30 3976 H 362.459 -1.16265 -4.00985 0
M  V30 3977 H 363.849 -5.19657 -4.25918 0
M  V30 3978 N 366.569 1.04691 -1.17803 0
M  V30 3979 C 367.797 1.81446 -0.99423 0
M  V30 3980 C 368.212 1.83174 0.457459 0
M  V30 3981 O 367.569 1.26265 1.31771 0
M  V30 3982 C 367.62 3.27334 -1.5341 0
M  V30 3983 O 367.341 3.25798 -2.92895 0
M  V30 3984 C 368.842 4.20759 -1.39559 0
M  V30 3985 H 366.062 0.571599 -0.351447 0
M  V30 3986 H 368.606 1.31982 -1.56208 0
M  V30 3987 H 366.761 3.74052 -1.00815 0
M  V30 3988 H 367.175 4.17144 -3.17949 0
M  V30 3989 H 368.649 5.21084 -1.82141 0
M  V30 3990 H 369.126 4.37856 -0.343394 0
M  V30 3991 H 369.732 3.79901 -1.91195 0
M  V30 3992 N 368.047 0.979072 1.23499 0
M  V30 3993 C 369.458 0.684391 1.73704 0
M  V30 3994 C 369.809 -0.799448 1.79174 0
M  V30 3995 O 368.934 -1.62531 1.42873 0
M  V30 3996 C 369.529 1.23564 3.15464 0
M  V30 3997 C 368.088 0.99063 3.6313 0
M  V30 3998 C 367.235 1.36416 2.41425 0
M  V30 3999 H 370.186 1.15307 1.09041 0
M  V30 4000 H 370.207 0.607417 3.7562 0
M  V30 4001 H 369.719 2.31561 3.1145 0
M  V30 4002 H 367.82 -0.0733136 3.72528 0
M  V30 4003 H 367.933 1.64427 4.5 0
M  V30 4004 H 366.297 0.782616 2.42378 0
M  V30 4005 H 367.08 2.45387 2.40083 0
M  V30 4006 N 369.525 -1.3858 0.750561 0
M  V30 4007 C 370.753 -2.04471 0.316098 0
M  V30 4008 C 371.168 -1.56606 -1.05452 0
M  V30 4009 O 370.525 -0.737784 -1.66922 0
M  V30 4010 C 370.576 -3.60025 0.326275 0
M  V30 4011 O 370.297 -4.06133 1.6428 0
M  V30 4012 C 371.798 -4.43131 -0.122429 0
M  V30 4013 H 369.018 -0.65717 0.135528 0
M  V30 4014 H 371.562 -1.77329 1.01857 0
M  V30 4015 H 369.717 -3.86014 -0.327431 0
M  V30 4016 H 370.131 -5.00547 1.56693 0
M  V30 4017 H 371.605 -5.51963 -0.0641473 0
M  V30 4018 H 372.082 -4.23333 -1.16988 0
M  V30 4019 H 372.688 -4.22323 0.50229 0
M  V30 4020 N 371.003 -0.499398 -1.49478 0
M  V30 4021 C 372.419 -0.155261 -1.58843 0
M  V30 4022 C 372.619 1.34008 -1.50479 0
M  V30 4023 O 371.675 2.11589 -1.37791 0
M  V30 4024 C 372.988 -0.730636 -2.91689 0
M  V30 4025 C 374.536 -0.696599 -3.0515 0
M  V30 4026 C 375.011 -1.25001 -4.40612 0
M  V30 4027 N 376.502 -1.21064 -4.47099 0
M  V30 4028 C 377.237 -1.60905 -5.50361 0
M  V30 4029 N 376.733 -2.08331 -6.60735 0
M  V30 4030 N 378.526 -1.52331 -5.41065 0
M  V30 4031 H 370.677 -1.47162 -1.53158 0
M  V30 4032 H 372.94 -0.610309 -0.725415 0
M  V30 4033 H 372.646 -1.77928 -3.03372 0
M  V30 4034 H 372.52 -0.190161 -3.7672 0
M  V30 4035 H 374.907 0.343204 -2.93097 0
M  V30 4036 H 374.988 -1.2742 -2.21806 0
M  V30 4037 H 374.632 -2.28859 -4.53416 0
M  V30 4038 H 374.562 -0.64836 -5.22593 0
M  V30 4039 H 377.053 -0.863128 -3.67911 0
M  V30 4040 H 377.366 -2.36805 -7.35624 0
M  V30 4041 H 375.711 -2.12304 -6.6178 0
M  V30 4042 H 378.902 -1.151 -4.53729 0
M  V30 4043 H 379.075 -1.83704 -6.21415 0
M  V30 4044 N 372.481 1.55866 -0.233164 0
M  V30 4045 C 373.727 1.99643 0.389148 0
M  V30 4046 C 374.082 1.11836 1.56558 0
M  V30 4047 O 373.375 0.170848 1.90837 0
M  V30 4048 C 373.569 3.46856 0.861724 0
M  V30 4049 C 373.398 4.48904 -0.267376 0
M  V30 4050 C 372.168 4.99888 -0.737577 0
M  V30 4051 C 374.366 5.02624 -1.08966 0
M  V30 4052 N 372.348 5.8566 -1.84052 0
M  V30 4053 C 373.719 5.85434 -2.04125 0
M  V30 4054 C 375.774 4.84959 -1.12779 0
M  V30 4055 C 374.477 6.52466 -3.02789 0
M  V30 4056 C 376.503 5.52759 -2.10266 0
M  V30 4057 C 375.865 6.35346 -3.04162 0
M  V30 4058 H 371.964 0.774402 0.108742 0
M  V30 4059 H 374.548 1.91572 -0.347596 0
M  V30 4060 H 372.719 3.55352 1.5678 0
M  V30 4061 H 374.451 3.77531 1.45783 0
M  V30 4062 H 371.206 4.7249 -0.324122 0
M  V30 4063 H 371.63 6.33246 -2.39434 0
M  V30 4064 H 376.272 4.20751 -0.415749 0
M  V30 4065 H 373.99 7.15849 -3.74948 0
M  V30 4066 H 377.576 5.41051 -2.13905 0
M  V30 4067 H 376.456 6.86883 -3.78366 0
M  V30 4068 N 373.959 -0.0401083 1.57549 0
M  V30 4069 C 375.37 -0.588097 1.77196 0
M  V30 4070 C 375.721 -1.76209 0.862832 0
M  V30 4071 O 374.846 -2.16331 0.0548389 0
M  V30 4072 C 375.441 -1.07363 3.21339 0
M  V30 4073 C 374 -1.56723 3.42221 0
M  V30 4074 C 373.147 -0.50041 2.72747 0
M  V30 4075 H 376.098 0.186119 1.57605 0
M  V30 4076 H 376.119 -1.94143 3.27244 0
M  V30 4077 H 375.631 -0.218975 3.87482 0
M  V30 4078 H 373.732 -2.4441 2.81237 0
M  V30 4079 H 373.845 -1.62234 4.50796 0
M  V30 4080 H 372.209 -0.952894 2.36203 0
M  V30 4081 H 372.992 0.344599 3.41566 0
M  V30 4082 N 375.437 -1.54477 -0.31217 0
M  V30 4083 C 376.4 -1.83923 -1.36766 0
M  V30 4084 C 377.4 -0.711563 -1.44199 0
M  V30 4085 O 378.59 -0.979866 -1.44029 0
M  V30 4086 C 375.722 -2.0095 -2.75376 0
M  V30 4087 H 376.915 -2.78239 -1.11906 0
M  V30 4088 H 374.468 -1.46369 -0.548257 0
M  V30 4089 H 375.203 -1.08883 -3.05475 0
M  V30 4090 H 374.988 -2.83018 -2.71373 0
M  V30 4091 H 376.478 -2.2514 -3.51713 0
M  V30 4092 N 376.915 0.57481 -1.46744 0
M  V30 4093 C 378.163 1.33009 -1.52161 0
M  V30 4094 C 378.484 1.94185 -0.178092 0
M  V30 4095 O 377.754 1.7899 0.796196 0
M  V30 4096 H 376.334 0.493873 -0.560445 0
M  V30 4097 H 378.996 0.672589 -1.82927 0
M  V30 4098 H 378.092 2.13273 -2.27862 0
M  V30 4099 N 378.394 1.34581 0.820102 0
M  V30 4100 C 379.64 1.27285 1.57881 0
M  V30 4101 C 379.973 -0.156137 1.93571 0
M  V30 4102 O 379.248 -1.10222 1.60254 0
M  V30 4103 C 379.531 2.16639 2.87645 0
M  V30 4104 C 379.384 3.68088 2.58517 0
M  V30 4105 C 380.703 2.05378 3.8924 0
M  V30 4106 H 377.822 0.463714 0.572833 0
M  V30 4107 H 380.464 1.64859 0.944539 0
M  V30 4108 H 378.614 1.84725 3.41773 0
M  V30 4109 H 380.286 4.10382 2.10676 0
M  V30 4110 H 378.529 3.89038 1.91917 0
M  V30 4111 H 379.2 4.2598 3.51063 0
M  V30 4112 H 381.676 2.33404 3.44473 0
M  V30 4113 H 380.552 2.7012 4.77835 0
M  V30 4114 H 380.813 1.0316 4.29896 0
M  V30 4115 N 379.872 -1.04064 1.18357 0
M  V30 4116 C 380.782 -2.15569 0.925596 0
M  V30 4117 C 381.798 -1.7365 -0.110295 0
M  V30 4118 O 382.974 -2.01273 0.0716218 0
M  V30 4119 C 380.039 -3.43704 0.454836 0
M  V30 4120 C 379.1 -4.00004 1.55869 0
M  V30 4121 C 378.333 -5.22023 1.1103 0
M  V30 4122 O 378.556 -5.70392 -0.0309756 0
M  V30 4123 O 377.49 -5.70856 1.90805 0
M  V30 4124 H 381.316 -2.40187 1.8586 0
M  V30 4125 H 378.901 -1.1402 0.965394 0
M  V30 4126 H 380.783 -4.20923 0.200382 0
M  V30 4127 H 379.458 -3.20559 -0.449876 0
M  V30 4128 H 378.365 -3.24172 1.86716 0
M  V30 4129 H 379.698 -4.2749 2.43953 0
M  V30 4130 N 381.35 -0.985608 -1.22978 0
M  V30 4131 C 382.761 -0.693593 -1.73338 0
M  V30 4132 C 383.112 0.789935 -1.79595 0
M  V30 4133 O 382.237 1.61771 -1.43733 0
M  V30 4134 C 382.832 -1.25235 -3.14804 0
M  V30 4135 C 381.391 -1.00987 -3.626 0
M  V30 4136 C 380.538 -1.37695 -2.40698 0
M  V30 4137 H 383.489 -1.15884 -1.08428 0
M  V30 4138 H 383.51 -0.627329 -3.75293 0
M  V30 4139 H 383.022 -2.33209 -3.10218 0
M  V30 4140 H 381.123 0.0535565 -3.72562 0
M  V30 4141 H 381.236 -1.66812 -4.49122 0
M  V30 4142 H 379.6 -0.795459 -2.4196 0
M  V30 4143 H 380.383 -2.46657 -2.38779 0
M  V30 4144 N 382.828 1.3818 -0.7579 0
M  V30 4145 C 384.053 2.04827 -0.325679 0
M  V30 4146 C 384.478 1.56788 1.03919 0
M  V30 4147 O 383.836 0.721811 1.66312 0
M  V30 4148 C 383.884 3.58774 -0.362447 0
M  V30 4149 O 382.988 4.07372 0.642033 0
M  V30 4150 H 382.329 0.64833 -0.143402 0
M  V30 4151 H 384.859 1.7677 -1.03023 0
M  V30 4152 H 384.869 4.07434 -0.214844 0
M  V30 4153 H 383.544 3.93096 -1.35824 0
M  V30 4154 H 382.121 3.70068 0.458688 0
M  V30 4155 N 384.306 0.507319 1.49211 0
M  V30 4156 C 385.531 -0.033725 2.07373 0
M  V30 4157 C 385.956 -1.29485 1.36437 0
M  V30 4158 O 385.314 -1.76294 0.423087 0
M  V30 4159 C 385.362 -0.263945 3.59633 0
M  V30 4160 O 384.466 -1.33737 3.90113 0
M  V30 4161 H 383.807 0.0290331 0.663365 0
M  V30 4162 H 386.337 0.708749 1.91932 0
M  V30 4163 H 386.347 -0.493536 4.05004 0
M  V30 4164 H 385.022 0.657424 4.10671 0
M  V30 4165 H 383.599 -1.09224 3.56545 0
M  V30 4166 N 385.784 -1.5574 0.241426 0
M  V30 4167 C 387.012 -2.03208 -0.389134 0
M  V30 4168 C 387.427 -1.12082 -1.51931 0
M  V30 4169 O 386.784 -0.134183 -1.82006 0
M  V30 4170 C 386.835 -3.50064 -0.902087 0
M  V30 4171 O 386.556 -4.37717 0.18305 0
M  V30 4172 C 388.057 -4.13268 -1.60389 0
M  V30 4173 H 385.277 -0.664509 -0.0931053 0
M  V30 4174 H 387.821 -2.0124 0.36369 0
M  V30 4175 H 385.976 -3.52583 -1.60511 0
M  V30 4176 H 386.39 -5.24097 -0.205579 0
M  V30 4177 H 387.864 -5.17733 -1.91458 0
M  V30 4178 H 388.341 -3.59434 -2.52397 0
M  V30 4179 H 388.947 -4.14655 -0.945576 0
M  V30 4180 N 387.262 0.0317525 -1.57568 0
M  V30 4181 C 388.678 0.38735 -1.54828 0
M  V30 4182 C 388.878 1.7677 -0.967187 0
M  V30 4183 O 387.934 2.45581 -0.587063 0
M  V30 4184 C 389.247 0.291667 -2.99282 0
M  V30 4185 C 390.795 0.368946 -3.10818 0
M  V30 4186 C 391.27 0.302741 -4.56998 0
M  V30 4187 N 392.761 0.361617 -4.61786 0
M  V30 4188 C 393.496 0.333238 -5.72431 0
M  V30 4189 N 392.992 0.257308 -6.92322 0
M  V30 4190 N 394.785 0.382769 -5.60795 0
M  V30 4191 H 386.936 -0.871609 -1.93692 0
M  V30 4192 H 389.199 -0.331161 -0.888277 0
M  V30 4193 H 388.905 -0.656794 -3.45513 0
M  V30 4194 H 388.779 1.08638 -3.61217 0
M  V30 4195 H 391.166 1.30784 -2.64536 0
M  V30 4196 H 391.247 -0.455066 -2.5172 0
M  V30 4197 H 390.891 -0.632473 -5.03947 0
M  V30 4198 H 390.821 1.14482 -5.14005 0
M  V30 4199 H 393.312 0.422923 -3.75526 0
M  V30 4200 H 393.625 0.24068 -7.72425 0
M  V30 4201 H 391.97 0.223396 -6.94641 0
M  V30 4202 H 395.161 0.44006 -4.66027 0
M  V30 4203 H 395.334 0.357184 -6.47015 0
M  V30 4204 N 388.74 1.54641 0.303973 0
M  V30 4205 C 389.98 1.75516 1.04755 0
M  V30 4206 C 390.344 0.528211 1.84591 0
M  V30 4207 O 391.545 0.614645 2.61678 0
M  V30 4208 C 389.816 3.00685 1.93193 0
M  V30 4209 S 391.375 3.42549 2.74237 0
M  V30 4210 H 388.193 0.616987 0.353339 0
M  V30 4211 H 390.795 1.92842 0.321292 0
M  V30 4212 H 389.499 3.8811 1.33411 0
M  V30 4213 H 389.03 2.85937 2.70191 0
M  V30 4214 H 391.045 2.99386 3.95705 0
M  V30 4215 N 390.218 -0.567019 1.47046 0
M  V30 4216 C 391.464 -1.32658 1.53394 0
M  V30 4217 C 391.797 -1.93254 0.19148 0
M  V30 4218 O 391.072 -1.77338 -0.798844 0
M  V30 4219 C 391.355 -2.44412 2.64452 0
M  V30 4220 C 391.208 -1.88749 4.08282 0
M  V30 4221 C 392.527 -3.46387 2.71485 0
M  V30 4222 H 389.646 -0.48098 0.558415 0
M  V30 4223 H 392.288 -0.635481 1.79058 0
M  V30 4224 H 390.438 -3.03363 2.427 0
M  V30 4225 H 392.11 -1.34134 4.41368 0
M  V30 4226 H 390.353 -1.19481 4.17021 0
M  V30 4227 H 391.024 -2.69491 4.81745 0
M  V30 4228 H 393.5 -2.9734 2.91081 0
M  V30 4229 H 392.376 -4.2202 3.50985 0
M  V30 4230 H 392.637 -4.04616 1.78153 0
M  V30 4231 N 391.696 -1.35014 -0.812953 0
M  V30 4232 C 392.644 -1.27435 -1.94585 0
M  V30 4233 C 393.638 -0.170494 -1.6854 0
M  V30 4234 O 394.844 -0.336085 -1.76835 0
M  V30 4235 H 391.219 -0.396144 -0.639198 0
M  V30 4236 H 393.19 -2.23158 -1.98098 0
M  V30 4237 C 391.939 -1.05677 -3.31252 0
M  V30 4238 H 391.262 -1.89853 -3.51846 0
M  V30 4239 H 392.702 -1.04413 -4.10943 0
M  V30 4240 C 391.161 0.239615 -3.36047 0
M  V30 4241 O 391.691 1.23759 -3.8216 0
M  V30 4242 N 389.897 0.276186 -2.89285 0
M  V30 4243 H 389.444 -0.53653 -2.51951 0
M  V30 4244 H 389.402 1.14332 -2.92875 0
M  V30 4245 N 393.175 1.03435 -1.18907 0
M  V30 4246 C 394.123 2.13703 -0.918353 0
M  V30 4247 C 395.117 1.68947 0.123767 0
M  V30 4248 O 396.323 1.79983 -0.0249701 0
M  V30 4249 H 392.698 0.698112 -0.279542 0
M  V30 4250 H 394.669 2.33731 -1.85506 0
M  V30 4251 C 393.418 3.44542 -0.467532 0
M  V30 4252 H 392.741 3.79394 -1.26095 0
M  V30 4253 H 394.181 4.22812 -0.317164 0
M  V30 4254 C 392.64 3.26829 0.817588 0
M  V30 4255 O 393.17 3.54975 1.88031 0
M  V30 4256 N 391.376 2.80139 0.772677 0
M  V30 4257 H 390.923 2.57434 -0.0923883 0
M  V30 4258 H 390.881 2.68668 1.63294 0
M  V30 4259 N 394.653 0.992116 1.22453 0
M  V30 4260 C 395.583 0.561677 2.26644 0
M  V30 4261 C 396.564 -0.411055 1.65059 0
M  V30 4262 O 397.749 -0.301861 1.9184 0
M  V30 4263 C 394.879 -0.125247 3.47074 0
M  V30 4264 C 393.833 0.765948 4.21091 0
M  V30 4265 C 393.159 -0.0538484 5.34673 0
M  V30 4266 C 394.459 2.06242 4.79856 0
M  V30 4267 H 396.153 1.43259 2.62902 0
M  V30 4268 H 393.699 0.690283 1.26377 0
M  V30 4269 H 395.652 -0.437764 4.1912 0
M  V30 4270 H 394.376 -1.03069 3.0991 0
M  V30 4271 H 393.035 1.0621 3.50878 0
M  V30 4272 H 392.683 -0.960188 4.9375 0
M  V30 4273 H 392.383 0.539415 5.85119 0
M  V30 4274 H 393.907 -0.360477 6.09535 0
M  V30 4275 H 395.321 1.8139 5.43848 0
M  V30 4276 H 393.718 2.60444 5.40638 0
M  V30 4277 H 394.788 2.74167 3.99951 0
M  V30 4278 N 396.131 -1.37776 0.765217 0
M  V30 4279 C 397.094 -2.28686 0.153416 0
M  V30 4280 C 398.094 -1.47727 -0.635081 0
M  V30 4281 O 399.284 -1.68027 -0.459632 0
M  V30 4282 C 396.416 -3.31608 -0.790495 0
M  V30 4283 H 397.609 -2.84297 0.954723 0
M  V30 4284 H 395.162 -1.46932 0.53299 0
M  V30 4285 H 395.897 -2.81109 -1.61705 0
M  V30 4286 H 395.682 -3.9144 -0.227348 0
M  V30 4287 H 397.172 -3.99559 -1.21419 0
M  V30 4288 N 397.609 -0.515225 -1.4894 0
M  V30 4289 C 398.834 0.022727 -2.07388 0
M  V30 4290 C 399.259 1.2876 -1.37122 0
M  V30 4291 O 398.617 1.76067 -0.432431 0
M  V30 4292 C 398.665 0.244869 -3.59768 0
M  V30 4293 O 397.769 1.31667 -3.90817 0
M  V30 4294 H 397.11 -0.0325506 -0.663202 0
M  V30 4295 H 399.64 -0.718918 -1.91553 0
M  V30 4296 H 399.65 0.47205 -4.0526 0
M  V30 4297 H 398.325 -0.679194 -4.10317 0
M  V30 4298 H 396.902 1.07331 -3.5712 0
M  V30 4299 N 399.087 1.5561 -0.249682 0
M  V30 4300 C 400.503 1.59254 0.105103 0
M  V30 4301 C 400.703 1.26685 1.56694 0
M  V30 4302 O 399.759 1.0155 2.31179 0
M  V30 4303 C 401.072 2.99687 -0.246592 0
M  V30 4304 C 402.62 3.12416 -0.191118 0
M  V30 4305 C 403.095 4.55074 -0.516885 0
M  V30 4306 N 404.586 4.60835 -0.467489 0
M  V30 4307 C 405.321 5.69201 -0.69268 0
M  V30 4308 N 404.817 6.85817 -0.981146 0
M  V30 4309 N 406.61 5.58635 -0.623198 0
M  V30 4310 H 398.761 1.75049 -1.20298 0
M  V30 4311 H 401.024 0.815003 -0.484225 0
M  V30 4312 H 400.73 3.28267 -1.26228 0
M  V30 4313 H 400.604 3.74798 0.424962 0
M  V30 4314 H 402.991 2.83615 0.815247 0
M  V30 4315 H 403.072 2.39573 -0.896563 0
M  V30 4316 H 402.716 4.84596 -1.52082 0
M  V30 4317 H 402.646 5.26181 0.210068 0
M  V30 4318 H 405.137 3.7705 -0.253373 0
M  V30 4319 H 405.45 7.64341 -1.14032 0
M  V30 4320 H 403.795 6.87494 -1.01865 0
M  V30 4321 H 406.986 4.66406 -0.397863 0
M  V30 4322 H 407.159 6.43017 -0.802093 0
M  V30 4323 N 400.565 -0.0233959 1.57583 0
M  V30 4324 C 401.79 -0.728376 1.94189 0
M  V30 4325 C 402.215 -1.67793 0.850119 0
M  V30 4326 O 401.573 -1.80262 -0.19371 0
M  V30 4327 C 401.621 -1.45669 3.29868 0
M  V30 4328 O 400.725 -2.57013 3.22518 0
M  V30 4329 H 400.066 -0.195493 0.63457 0
M  V30 4330 H 402.596 0.0228214 2.04587 0
M  V30 4331 H 402.606 -1.82535 3.6489 0
M  V30 4332 H 401.281 -0.760314 4.08891 0
M  V30 4333 H 399.858 -2.22648 2.99136 0
M  V30 4334 N 402.043 -1.548 -0.295768 0
M  V30 4335 C 403.006 -1.85363 -1.34808 0
M  V30 4336 C 404.006 -0.726817 -1.43436 0
M  V30 4337 O 405.196 -0.995088 -1.42981 0
M  V30 4338 C 402.328 -2.03859 -2.73229 0
M  V30 4339 H 403.521 -2.7941 -1.08949 0
M  V30 4340 H 401.074 -1.46942 -0.532702 0
M  V30 4341 H 401.809 -1.12117 -3.04303 0
M  V30 4342 H 401.594 -2.8588 -2.68356 0
M  V30 4343 H 403.084 -2.28857 -3.49305 0
M  V30 4344 N 403.521 0.559213 -1.47345 0
M  V30 4345 C 404.746 1.34676 -1.57725 0
M  V30 4346 C 405.171 1.86723 -0.227164 0
M  V30 4347 O 404.529 1.6286 0.796642 0
M  V30 4348 C 404.577 2.49399 -2.60447 0
M  V30 4349 O 403.681 3.51567 -2.15578 0
M  V30 4350 H 403.022 0.400115 -0.52991 0
M  V30 4351 H 405.552 0.676009 -1.93109 0
M  V30 4352 H 405.562 2.95996 -2.80803 0
M  V30 4353 H 404.237 2.10873 -3.58477 0
M  V30 4354 H 402.814 3.11289 -2.05313 0
M  V30 4355 N 404.999 1.35443 0.805782 0
M  V30 4356 C 406.239 1.30127 1.57627 0
M  V30 4357 C 406.603 -0.122567 1.91608 0
M  V30 4358 O 407.804 -0.300107 2.67119 0
M  V30 4359 C 406.075 2.18314 2.82973 0
M  V30 4360 S 407.634 2.30521 3.7337 0
M  V30 4361 H 404.452 0.462439 0.540066 0
M  V30 4362 H 407.054 1.70843 0.95042 0
M  V30 4363 H 405.758 3.20741 2.56034 0
M  V30 4364 H 405.289 1.78558 3.50543 0
M  V30 4365 H 407.304 1.49062 4.73281 0
M  V30 4366 N 406.477 -1.02803 1.19454 0
M  V30 4367 C 407.724 -1.76217 0.997693 0
M  V30 4368 C 408.052 -1.887 -0.47144 0
M  V30 4369 O 407.307 -1.4011 -1.3663 0
M  V30 4370 C 407.606 -3.18941 1.6128 0
M  V30 4371 C 407.272 -3.26463 3.11019 0
M  V30 4372 C 405.934 -3.28223 3.51885 0
M  V30 4373 C 408.286 -3.25542 4.07028 0
M  V30 4374 C 405.614 -3.26719 4.8731 0
M  V30 4375 C 407.966 -3.25579 5.42385 0
M  V30 4376 C 406.63 -3.25637 5.82681 0
M  V30 4377 H 405.9 -0.644823 0.365082 0
M  V30 4378 H 408.547 -1.20655 1.4871 0
M  V30 4379 H 406.852 -3.77587 1.04572 0
M  V30 4380 H 408.549 -3.74415 1.43577 0
M  V30 4381 H 405.139 -3.25822 2.78457 0
M  V30 4382 H 409.323 -3.23362 3.76498 0
M  V30 4383 H 404.579 -3.25089 5.1781 0
M  V30 4384 H 408.753 -3.23817 6.16535 0
M  V30 4385 H 406.38 -3.24226 6.87591 0
M  V30 4386 N 407.956 -0.998596 -1.21925 0
M  V30 4387 C 408.906 -0.524743 -2.21879 0
M  V30 4388 C 409.89 0.41017 -1.55584 0
M  V30 4389 O 411.082 0.236063 -1.75419 0
M  V30 4390 C 408.211 0.153636 -3.42956 0
M  V30 4391 C 407.297 -0.801918 -4.16449 0
M  V30 4392 N 407.688 -1.95211 -4.66611 0
M  V30 4393 C 405.986 -0.618972 -4.41684 0
M  V30 4394 C 406.687 -2.55234 -5.22715 0
M  V30 4395 N 405.663 -1.83451 -5.1171 0
M  V30 4396 H 409.465 -1.40189 -2.58311 0
M  V30 4397 H 406.979 -0.86159 -1.3766 0
M  V30 4398 H 408.976 0.510534 -4.13762 0
M  V30 4399 H 407.636 1.02684 -3.08036 0
M  V30 4400 H 408.647 -2.33271 -4.62391 0
M  V30 4401 H 405.324 0.207694 -4.16983 0
M  V30 4402 H 406.714 -3.52471 -5.72026 0
M  V30 4403 N 409.434 1.37368 -0.772513 0
M  V30 4404 C 410.366 2.28899 -0.117502 0
M  V30 4405 C 411.379 1.4867 0.663405 0
M  V30 4406 O 412.568 1.71314 0.501372 0
M  V30 4407 C 409.668 3.2788 0.857192 0
M  V30 4408 C 408.841 4.37207 0.129938 0
M  V30 4409 C 407.9 5.16257 1.01811 0
M  V30 4410 O 406.926 5.67159 0.481601 0
M  V30 4411 N 408.128 5.31058 2.3443 0
M  V30 4412 H 410.893 2.85752 -0.903662 0
M  V30 4413 H 408.454 1.49353 -0.62493 0
M  V30 4414 H 410.446 3.77647 1.45482 0
M  V30 4415 H 409.016 2.7179 1.54432 0
M  V30 4416 H 408.236 3.88827 -0.648605 0
M  V30 4417 H 409.524 5.07434 -0.372559 0
M  V30 4418 H 408.922 4.91287 2.80452 0
M  V30 4419 H 407.479 5.84131 2.89197 0
M  V30 4420 N 410.912 0.523116 1.48665 0
M  V30 4421 C 412.137 -0.0117284 2.07397 0
M  V30 4422 C 412.562 -1.28031 1.37803 0
M  V30 4423 O 411.92 -1.75836 0.441762 0
M  V30 4424 C 411.968 -0.225786 3.59892 0
M  V30 4425 O 411.072 -1.29592 3.91509 0
M  V30 4426 H 410.413 0.0360673 0.66302 0
M  V30 4427 H 412.943 0.729066 1.9117 0
M  V30 4428 H 412.953 -0.450552 4.05505 0
M  V30 4429 H 411.628 0.700944 4.09951 0
M  V30 4430 H 410.205 -1.05436 3.57684 0
M  V30 4431 N 412.39 -1.55475 0.257931 0
M  V30 4432 C 413.353 -2.20551 -0.623706 0
M  V30 4433 C 414.353 -1.17809 -1.09443 0
M  V30 4434 O 415.543 -1.42823 -0.997362 0
M  V30 4435 C 412.675 -2.85784 -1.8585 0
M  V30 4436 H 413.868 -2.99848 -0.0557743 0
M  V30 4437 H 411.421 -1.56298 0.0084422 0
M  V30 4438 H 412.156 -2.10453 -2.46739 0
M  V30 4439 H 411.941 -3.61057 -1.52907 0
M  V30 4440 H 413.431 -3.35553 -2.48584 0
M  V30 4441 N 413.868 0.0150385 -1.57593 0
M  V30 4442 C 415.114 0.704043 -1.90187 0
M  V30 4443 C 415.447 1.74249 -0.857366 0
M  V30 4444 O 414.722 1.94092 0.125843 0
M  V30 4445 C 415.005 1.36087 -3.33395 0
M  V30 4446 C 414.858 0.334981 -4.48551 0
M  V30 4447 C 416.177 2.29112 -3.7576 0
M  V30 4448 H 413.296 0.254475 -0.691673 0
M  V30 4449 H 415.938 -0.0331678 -1.89971 0
M  V30 4450 H 414.088 1.98922 -3.3371 0
M  V30 4451 H 415.76 -0.292534 -4.60372 0
M  V30 4452 H 414.003 -0.344325 -4.32431 0
M  V30 4453 H 414.674 0.833316 -5.45674 0
M  V30 4454 H 417.15 1.76308 -3.76902 0
M  V30 4455 H 416.026 2.72043 -4.76743 0
M  V30 4456 H 416.287 3.16385 -3.08793 0
M  V30 4457 N 415.346 1.54954 0.287554 0
M  V30 4458 C 416.762 1.46469 0.633964 0
M  V30 4459 C 416.962 0.666865 1.90145 0
M  V30 4460 O 416.018 0.179906 2.51858 0
M  V30 4461 C 417.331 2.90556 0.774454 0
M  V30 4462 C 418.879 3.00681 0.869462 0
M  V30 4463 C 419.354 4.45993 1.04184 0
M  V30 4464 N 420.845 4.4976 1.10772 0
M  V30 4465 C 421.58 5.59393 1.25964 0
M  V30 4466 N 421.076 6.78923 1.37968 0
M  V30 4467 N 422.869 5.47107 1.28959 0
M  V30 4468 H 415.02 2.05288 -0.545041 0
M  V30 4469 H 417.283 0.930305 -0.182308 0
M  V30 4470 H 416.989 3.51594 -0.086207 0
M  V30 4471 H 416.863 3.38743 1.6593 0
M  V30 4472 H 419.25 2.39749 1.7206 0
M  V30 4473 H 419.331 2.55769 -0.0396831 0
M  V30 4474 H 418.975 5.07524 0.195422 0
M  V30 4475 H 418.905 4.88548 1.96542 0
M  V30 4476 H 421.396 3.63651 1.02794 0
M  V30 4477 H 421.709 7.58231 1.49353 0
M  V30 4478 H 420.054 6.81763 1.34999 0
M  V30 4479 H 423.245 4.52668 1.19202 0
M  V30 4480 H 423.418 6.32595 1.40455 0
M  V30 4481 N 416.824 -0.551391 1.4764 0
M  V30 4482 C 417.734 -1.68525 1.63207 0
M  V30 4483 C 418.75 -1.6621 0.514815 0
M  V30 4484 O 419.926 -1.85551 0.783113 0
M  V30 4485 C 416.991 -3.05025 1.64805 0
M  V30 4486 C 416.052 -3.18362 2.88 0
M  V30 4487 C 415.285 -4.4835 2.89513 0
M  V30 4488 O 415.508 -5.34163 2.00065 0
M  V30 4489 O 414.442 -4.65602 3.81443 0
M  V30 4490 H 418.268 -1.58333 2.59161 0
M  V30 4491 H 415.853 -0.722063 1.30792 0
M  V30 4492 H 417.735 -3.86245 1.68502 0
M  V30 4493 H 416.41 -3.15587 0.720197 0
M  V30 4494 H 415.317 -2.36518 2.89845 0
M  V30 4495 H 416.65 -3.12707 3.80099 0
M  V30 4496 N 418.302 -1.35869 -0.798587 0
M  V30 4497 C 419.249 -1.29446 -1.91082 0
M  V30 4498 C 420.219 -0.16487 -1.6528 0
M  V30 4499 O 421.404 -0.349888 -1.87564 0
M  V30 4500 C 418.544 -1.0804 -3.27752 0
M  V30 4501 C 417.657 -2.29993 -3.65687 0
M  V30 4502 C 416.792 -2.01673 -4.91428 0
M  V30 4503 C 415.831 -3.19636 -5.22015 0
M  V30 4504 N 414.968 -2.91039 -6.38937 0
M  V30 4505 H 419.808 -2.24553 -1.95907 0
M  V30 4506 H 417.345 -1.11615 -0.958148 0
M  V30 4507 H 419.303 -0.936586 -4.06551 0
M  V30 4508 H 417.933 -0.16592 -3.22373 0
M  V30 4509 H 416.985 -2.55211 -2.82085 0
M  V30 4510 H 418.297 -3.18052 -3.84245 0
M  V30 4511 H 417.451 -1.84168 -5.78072 0
M  V30 4512 H 416.19 -1.10911 -4.74921 0
M  V30 4513 H 415.195 -3.37709 -4.33858 0
M  V30 4514 H 416.42 -4.11211 -5.40447 0
M  V30 4515 H 414.366 -2.0288 -6.2384 0
M  V30 4516 H 414.283 -3.72635 -6.57784 0
M  V30 4517 H 415.551 -2.77093 -7.28587 0
M  V30 4518 N 419.78 1.02168 -1.19998 0
M  V30 4519 C 420.743 2.08765 -0.94604 0
M  V30 4520 C 421.743 1.60618 0.0763846 0
M  V30 4521 O 422.933 1.73472 -0.159135 0
M  V30 4522 C 420.065 3.38262 -0.423255 0
M  V30 4523 H 421.258 2.32726 -1.89153 0
M  V30 4524 H 418.811 1.1889 -1.01464 0
M  V30 4525 H 419.546 3.19974 0.527938 0
M  V30 4526 H 419.331 3.74532 -1.16053 0
M  V30 4527 H 420.821 4.16759 -0.264911 0
M  V30 4528 N 421.258 1.00505 1.21394 0
M  V30 4529 C 422.206 0.558623 2.25792 0
M  V30 4530 C 423.2 -0.396848 1.64686 0
M  V30 4531 O 424.406 -0.268035 1.77993 0
M  V30 4532 H 420.781 0.1623 0.734277 0
M  V30 4533 H 422.752 1.4503 2.60785 0
M  V30 4534 C 421.501 -0.0989574 3.47559 0
M  V30 4535 H 420.824 0.627225 3.94849 0
M  V30 4536 H 422.264 -0.3746 4.22342 0
M  V30 4537 C 420.723 -1.33817 3.09184 0
M  V30 4538 O 421.253 -2.43252 3.19674 0
M  V30 4539 N 419.459 -1.21793 2.63846 0
M  V30 4540 H 419.006 -0.32746 2.5551 0
M  V30 4541 H 418.964 -2.04809 2.38539 0
M  V30 4542 N 422.737 -1.36956 0.779787 0
M  V30 4543 C 424.148 -1.82094 0.412156 0
M  V30 4544 C 424.499 -1.64926 -1.06273 0
M  V30 4545 O 423.624 -1.16483 -1.82375 0
M  V30 4546 C 424.219 -3.3059 0.741319 0
M  V30 4547 C 422.778 -3.73974 0.426641 0
M  V30 4548 C 421.925 -2.59368 0.980987 0
M  V30 4549 H 424.876 -1.25314 0.973758 0
M  V30 4550 H 424.897 -3.80489 0.028887 0
M  V30 4551 H 424.409 -3.43054 1.81482 0
M  V30 4552 H 422.51 -3.67076 -0.639215 0
M  V30 4553 H 422.623 -4.69778 0.940515 0
M  V30 4554 H 420.987 -2.51463 0.404757 0
M  V30 4555 H 421.77 -2.74621 2.06005 0
M  V30 4556 N 424.215 -0.530993 -1.48385 0
M  V30 4557 C 425.44 0.000729535 -2.074 0
M  V30 4558 C 425.865 1.27298 -1.3848 0
M  V30 4559 O 425.223 1.75599 -0.451081 0
M  V30 4560 C 425.271 0.206697 -3.60007 0
M  V30 4561 O 424.375 1.27514 -3.92191 0
M  V30 4562 H 423.716 -0.039583 -0.662819 0
M  V30 4563 H 426.246 -0.739194 -1.9078 0
M  V30 4564 H 426.256 0.42904 -4.05738 0
M  V30 4565 H 424.931 -0.722675 -4.09573 0
M  V30 4566 H 423.508 1.03537 -3.58238 0
M  V30 4567 N 425.693 1.55336 -0.266172 0
M  V30 4568 C 426.623 2.25146 0.618981 0
M  V30 4569 C 427.604 1.23845 1.16604 0
M  V30 4570 O 428.789 1.52544 1.20183 0
M  V30 4571 C 425.919 2.96572 1.80728 0
M  V30 4572 C 424.873 4.04726 1.39215 0
M  V30 4573 C 424.199 4.63678 2.66283 0
M  V30 4574 C 425.499 5.19407 0.548942 0
M  V30 4575 H 427.193 2.99377 0.0368116 0
M  V30 4576 H 424.739 1.43991 0.0162651 0
M  V30 4577 H 426.692 3.44116 2.43232 0
M  V30 4578 H 425.416 2.19861 2.41514 0
M  V30 4579 H 424.075 3.57979 0.790351 0
M  V30 4580 H 423.723 3.83646 3.25308 0
M  V30 4581 H 423.423 5.367 2.39222 0
M  V30 4582 H 424.947 5.13967 3.29651 0
M  V30 4583 H 426.361 5.63059 1.07876 0
M  V30 4584 H 424.758 5.98936 0.373593 0
M  V30 4585 H 425.828 4.8295 -0.434394 0
M  V30 4586 N 427.171 -0.0066808 1.57599 0
M  V30 4587 C 428.396 -0.707738 1.94951 0
M  V30 4588 C 428.821 -1.66882 0.867868 0
M  V30 4589 O 428.179 -1.80457 -0.17458 0
M  V30 4590 C 428.227 -1.42162 3.31394 0
M  V30 4591 O 427.331 -2.53578 3.25226 0
M  V30 4592 H 426.672 -0.188752 0.636607 0
M  V30 4593 H 429.202 0.0445193 2.04552 0
M  V30 4594 H 429.212 -1.78655 3.66806 0
M  V30 4595 H 427.887 -0.716903 4.09675 0
M  V30 4596 H 426.464 -2.19463 3.01481 0
M  V30 4597 N 428.649 -1.55105 -0.279332 0
M  V30 4598 C 429.877 -1.7943 -1.03017 0
M  V30 4599 C 430.292 -0.564456 -1.80165 0
M  V30 4600 O 429.649 0.466326 -1.76442 0
M  V30 4601 C 429.7 -3.0155 -1.99374 0
M  V30 4602 O 429.421 -4.19784 -1.25352 0
M  V30 4603 C 430.922 -3.3843 -2.86321 0
M  V30 4604 H 428.142 -0.597882 -0.304594 0
M  V30 4605 H 430.686 -2.02105 -0.312035 0
M  V30 4606 H 428.841 -2.81019 -2.66659 0
M  V30 4607 H 429.255 -4.88781 -1.90246 0
M  V30 4608 H 430.729 -4.27066 -3.49741 0
M  V30 4609 H 431.206 -2.57549 -3.5576 0
M  V30 4610 H 431.812 -3.61197 -2.24536 0
M  V30 4611 N 430.127 0.543554 -1.4793 0
M  V30 4612 C 431.352 1.32995 -1.59145 0
M  V30 4613 C 431.777 1.86472 -0.246956 0
M  V30 4614 O 431.135 1.63696 0.779324 0
M  V30 4615 C 431.183 2.46623 -2.63077 0
M  V30 4616 O 430.287 3.49261 -2.19295 0
M  V30 4617 H 429.628 0.394472 -0.534124 0
M  V30 4618 H 432.158 0.655489 -1.93816 0
M  V30 4619 H 432.168 2.93001 -2.83926 0
M  V30 4620 H 430.843 2.07059 -3.60693 0
M  V30 4621 H 429.42 3.09094 -2.08603 0
M  V30 4622 N 431.605 1.3629 0.791371 0
M  V30 4623 C 432.552 1.30458 1.90393 0
M  V30 4624 C 433.522 0.173632 1.6519 0
M  V30 4625 O 434.707 0.35983 1.87376 0
M  V30 4626 C 431.847 1.09777 3.27174 0
M  V30 4627 C 430.96 2.31929 3.64462 0
M  V30 4628 C 430.095 2.04276 4.90352 0
M  V30 4629 C 429.134 3.224 5.20312 0
M  V30 4630 N 428.271 2.94424 6.37385 0
M  V30 4631 H 433.111 2.25589 1.94714 0
M  V30 4632 H 430.648 1.12122 0.952216 0
M  V30 4633 H 432.606 0.958133 4.06049 0
M  V30 4634 H 431.236 0.183014 3.22281 0
M  V30 4635 H 430.288 2.56703 2.80727 0
M  V30 4636 H 431.6 3.20085 3.82553 0
M  V30 4637 H 430.754 1.87231 5.77087 0
M  V30 4638 H 429.493 1.13428 4.74326 0
M  V30 4639 H 428.498 3.40005 4.32061 0
M  V30 4640 H 429.723 4.14071 5.38258 0
M  V30 4641 H 427.669 2.06185 6.22755 0
M  V30 4642 H 427.586 3.76118 6.55798 0
M  V30 4643 H 428.854 2.80953 7.27108 0
M  V30 4644 N 433.083 -1.0153 1.20538 0
M  V30 4645 C 434.499 -1.27461 0.96051 0
M  V30 4646 C 434.699 -1.98273 -0.359193 0
M  V30 4647 O 433.755 -2.27886 -1.0874 0
M  V30 4648 C 435.068 -2.10837 2.14402 0
M  V30 4649 C 436.616 -2.24099 2.18515 0
M  V30 4650 C 437.091 -3.10852 3.36355 0
M  V30 4651 N 438.582 -3.18441 3.36377 0
M  V30 4652 C 439.317 -3.85795 4.24205 0
M  V30 4653 N 438.813 -4.55264 5.22213 0
M  V30 4654 N 440.606 -3.82331 4.12043 0
M  V30 4655 H 432.757 -0.539907 2.05423 0
M  V30 4656 H 435.02 -0.30092 0.898972 0
M  V30 4657 H 434.726 -1.66144 3.09983 0
M  V30 4658 H 434.6 -3.11576 2.12604 0
M  V30 4659 H 436.987 -2.68016 1.23497 0
M  V30 4660 H 437.068 -1.22865 2.24361 0
M  V30 4661 H 436.712 -2.6764 4.31661 0
M  V30 4662 H 436.642 -4.12177 3.27746 0
M  V30 4663 H 439.133 -2.68978 2.65442 0
M  V30 4664 H 439.446 -5.04331 5.85551 0
M  V30 4665 H 437.791 -4.54085 5.26148 0
M  V30 4666 H 440.982 -3.27207 3.34743 0
M  V30 4667 H 441.155 -4.34547 4.807 0
M  V30 4668 N 434.561 -1.01147 -1.20859 0
M  V30 4669 C 435.511 -0.548247 -2.2131 0
M  V30 4670 C 436.495 0.393646 -1.5601 0
M  V30 4671 O 437.687 0.217445 -1.75659 0
M  V30 4672 C 434.816 0.117252 -3.431 0
M  V30 4673 C 433.902 -0.846043 -4.15575 0
M  V30 4674 N 434.293 -2.00149 -4.64515 0
M  V30 4675 C 432.591 -0.665783 -4.41003 0
M  V30 4676 C 433.292 -2.60764 -5.19978 0
M  V30 4677 N 432.268 -1.88868 -5.09735 0
M  V30 4678 H 436.07 -1.42921 -2.56809 0
M  V30 4679 H 433.584 -0.876142 -1.36739 0
M  V30 4680 H 435.581 0.46662 -4.1428 0
M  V30 4681 H 434.241 0.994115 -3.09107 0
M  V30 4682 H 435.252 -2.38162 -4.5989 0
M  V30 4683 H 431.929 0.163456 -4.1718 0
M  V30 4684 H 433.319 -3.58519 -5.68255 0
M  V30 4685 N 436.039 1.36541 -0.78704 0
M  V30 4686 C 437.267 2.03561 -0.370199 0
M  V30 4687 C 437.682 1.59347 1.01263 0
M  V30 4688 O 437.039 0.781781 1.64907 0
M  V30 4689 C 437.09 3.59033 -0.421614 0
M  V30 4690 O 436.811 4.01634 -1.7499 0
M  V30 4691 C 438.312 4.433 0.00489763 0
M  V30 4692 H 435.532 0.653346 -0.152904 0
M  V30 4693 H 438.076 1.74566 -1.06522 0
M  V30 4694 H 436.231 3.86746 0.224971 0
M  V30 4695 H 436.645 4.96217 -1.69909 0
M  V30 4696 H 438.119 5.51939 -0.0822184 0
M  V30 4697 H 438.596 4.26285 1.05723 0
M  V30 4698 H 439.202 4.20843 -0.614085 0
M  V30 4699 N 437.518 0.538854 1.48102 0
M  V30 4700 C 438.743 0.0102694 2.07397 0
M  V30 4701 C 439.168 -1.26562 1.39153 0
M  V30 4702 O 438.526 -1.75357 0.460387 0
M  V30 4703 C 438.574 -0.187602 3.60112 0
M  V30 4704 O 437.678 -1.25432 3.92862 0
M  V30 4705 H 437.019 0.0430975 0.6626 0
M  V30 4706 H 439.549 0.749301 1.90385 0
M  V30 4707 H 439.559 -0.407517 4.0596 0
M  V30 4708 H 438.234 0.744386 4.09184 0
M  V30 4709 H 436.811 -1.01636 3.58782 0
M  V30 4710 N 438.996 -1.55193 0.274407 0
M  V30 4711 C 440.224 -2.03987 -0.345943 0
M  V30 4712 C 440.639 -1.15279 -1.4952 0
M  V30 4713 O 439.996 -0.172759 -1.8168 0
M  V30 4714 C 440.047 -3.51898 -0.827631 0
M  V30 4715 O 439.768 -4.37231 0.275855 0
M  V30 4716 C 441.269 -4.16577 -1.51587 0
M  V30 4717 H 438.489 -0.666335 -0.0789892 0
M  V30 4718 H 441.033 -2.00423 0.406294 0
M  V30 4719 H 439.188 -3.55909 -1.52996 0
M  V30 4720 H 439.602 -5.24415 -0.0943638 0
M  V30 4721 H 441.076 -5.21678 -1.80433 0
M  V30 4722 H 441.553 -3.64707 -2.44716 0
M  V30 4723 H 442.159 -4.16568 -0.857409 0
M  V30 4724 N 440.474 -0.00167713 -1.576 0
M  V30 4725 C 441.722 0.681471 -1.90264 0
M  V30 4726 C 442.043 1.7422 -0.875924 0
M  V30 4727 O 441.313 1.95709 0.0864412 0
M  V30 4728 H 439.893 0.254696 -0.702239 0
M  V30 4729 H 442.555 -0.0429996 -1.94853 0
M  V30 4730 H 441.651 1.15166 -2.90075 0
M  V30 4731 N 441.952 1.55251 0.271103 0
M  V30 4732 C 442.9 1.89054 1.35504 0
M  V30 4733 C 443.894 0.767064 1.51038 0
M  V30 4734 O 445.1 0.951429 1.528 0
M  V30 4735 H 441.475 0.600072 0.45323 0
M  V30 4736 H 443.446 2.79598 1.04247 0
M  V30 4737 C 442.195 2.18068 2.70817 0
M  V30 4738 H 441.518 3.04005 2.59656 0
M  V30 4739 H 442.958 2.4564 3.45597 0
M  V30 4740 C 441.417 0.988901 3.2206 0
M  V30 4741 O 441.947 0.224501 4.01072 0
M  V30 4742 N 440.153 0.786085 2.79766 0
M  V30 4743 H 439.7 1.40937 2.15626 0
M  V30 4744 H 439.658 -0.00969349 3.14399 0
M  V30 4745 N 443.43 -0.535701 1.48216 0
M  V30 4746 C 444.393 -1.623 1.61838 0
M  V30 4747 C 445.393 -1.53087 0.492024 0
M  V30 4748 O 446.583 -1.5686 0.757668 0
M  V30 4749 C 443.715 -3.01907 1.58319 0
M  V30 4750 H 444.908 -1.51564 2.58783 0
M  V30 4751 H 442.461 -0.757317 1.36727 0
M  V30 4752 H 443.196 -3.18155 0.628299 0
M  V30 4753 H 442.981 -3.10003 2.40085 0
M  V30 4754 H 444.471 -3.80969 1.71033 0
M  V30 4755 N 444.908 -1.36708 -0.784132 0
M  V30 4756 C 446.154 -1.31426 -1.54451 0
M  V30 4757 C 446.487 0.10476 -1.93917 0
M  V30 4758 O 445.762 1.05934 -1.6312 0
M  V30 4759 C 446.045 -2.24189 -2.818 0
M  V30 4760 C 445.898 -3.74813 -2.48667 0
M  V30 4761 C 447.217 -2.15626 -3.83658 0
M  V30 4762 H 444.336 -0.478739 -0.560337 0
M  V30 4763 H 446.978 -1.67305 -0.900498 0
M  V30 4764 H 445.128 -1.93722 -3.36755 0
M  V30 4765 H 446.8 -4.15823 -1.99722 0
M  V30 4766 H 445.043 -3.93989 -1.81535 0
M  V30 4767 H 445.714 -4.35138 -3.39646 0
M  V30 4768 H 448.19 -2.42456 -3.38163 0
M  V30 4769 H 447.066 -2.82694 -4.70506 0
M  V30 4770 H 447.327 -1.14522 -4.27009 0
M  V30 4771 N 446.386 1.0089 -1.21074 0
M  V30 4772 C 447.296 2.13039 -0.982425 0
M  V30 4773 C 448.312 1.73881 0.0642161 0
M  V30 4774 O 449.488 2.01012 -0.12496 0
M  V30 4775 C 446.553 3.42377 -0.545803 0
M  V30 4776 C 445.614 3.95731 -1.6642 0
M  V30 4777 C 444.847 5.18896 -1.24832 0
M  V30 4778 O 445.07 5.70273 -0.120265 0
M  V30 4779 O 444.004 5.65597 -2.05873 0
M  V30 4780 H 447.83 2.35175 -1.92163 0
M  V30 4781 H 445.415 1.1142 -0.995285 0
M  V30 4782 H 447.297 4.20244 -0.311912 0
M  V30 4783 H 445.972 3.21639 0.364727 0
M  V30 4784 H 444.879 3.19108 -1.95246 0
M  V30 4785 H 446.212 4.20872 -2.55201 0
M  V30 4786 N 447.864 1.01787 1.20321 0
M  V30 4787 C 448.794 0.609625 2.25401 0
M  V30 4788 C 449.775 -0.375951 1.65893 0
M  V30 4789 O 450.96 -0.261101 1.92437 0
M  V30 4790 C 448.09 -0.0515995 3.47262 0
M  V30 4791 C 447.044 0.855095 4.19371 0
M  V30 4792 C 446.37 0.0595757 5.34667 0
M  V30 4793 C 447.67 2.16374 4.75373 0
M  V30 4794 H 449.364 1.48803 2.59804 0
M  V30 4795 H 446.91 0.716934 1.24884 0
M  V30 4796 H 448.863 -0.348764 4.19954 0
M  V30 4797 H 447.587 -0.964726 3.12027 0
M  V30 4798 H 446.246 1.13628 3.48546 0
M  V30 4799 H 445.894 -0.85524 4.95676 0
M  V30 4800 H 445.594 0.663406 5.83843 0
M  V30 4801 H 447.118 -0.231105 6.10162 0
M  V30 4802 H 448.532 1.92885 5.39878 0
M  V30 4803 H 446.929 2.71853 5.34991 0
M  V30 4804 H 447.999 2.82589 3.94045 0
M  V30 4805 N 449.342 -1.36122 0.79427 0
M  V30 4806 C 450.29 -2.31871 0.184023 0
M  V30 4807 C 451.284 -1.56041 -0.659365 0
M  V30 4808 O 452.49 -1.71266 -0.553906 0
M  V30 4809 H 448.865 -0.750896 0.0407373 0
M  V30 4810 H 450.836 -2.80898 1.00693 0
M  V30 4811 C 449.585 -3.41324 -0.662813 0
M  V30 4812 H 448.908 -3.99793 -0.0231944 0
M  V30 4813 H 450.348 -4.10629 -1.05639 0
M  V30 4814 C 448.807 -2.83308 -1.82313 0
M  V30 4815 O 449.337 -2.75863 -2.91997 0
M  V30 4816 N 447.543 -2.40529 -1.63077 0
M  V30 4817 H 447.09 -2.46785 -0.738591 0
M  V30 4818 H 447.048 -2.02059 -2.40872 0
M  V30 4819 N 450.82 -0.546701 -1.47814 0
M  V30 4820 C 452.231 -0.110564 -1.86372 0
M  V30 4821 C 452.582 1.31678 -1.45449 0
M  V30 4822 O 451.707 1.98889 -0.852758 0
M  V30 4823 C 452.302 -0.193873 -3.38245 0
M  V30 4824 C 450.861 0.187164 -3.75934 0
M  V30 4825 C 450.008 -0.546166 -2.71868 0
M  V30 4826 H 452.959 -0.757022 -1.39481 0
M  V30 4827 H 452.98 0.590218 -3.75895 0
M  V30 4828 H 452.492 -1.23282 -3.67999 0
M  V30 4829 H 450.593 1.22762 -3.51796 0
M  V30 4830 H 450.706 -0.164083 -4.78819 0
M  V30 4831 H 449.07 0.00953904 -2.54698 0
M  V30 4832 H 449.853 -1.58606 -3.04465 0
M  V30 4833 N 452.299 1.55045 -0.282633 0
M  V30 4834 C 453.545 2.00056 0.332481 0
M  V30 4835 C 453.878 1.1708 1.54939 0
M  V30 4836 O 453.153 0.2427 1.9298 0
M  V30 4837 C 453.436 3.53086 0.70725 0
M  V30 4838 C 453.289 4.46813 -0.517521 0
M  V30 4839 C 454.608 4.12245 1.54084 0
M  V30 4840 H 451.727 0.727268 0.119373 0
M  V30 4841 H 454.369 1.85932 -0.391076 0
M  V30 4842 H 452.519 3.65253 1.32372 0
M  V30 4843 H 454.191 4.46579 -1.15607 0
M  V30 4844 H 452.434 4.18163 -1.1542 0
M  V30 4845 H 453.105 5.51595 -0.211426 0
M  V30 4846 H 455.581 4.03401 1.02013 0
M  V30 4847 H 454.457 5.19515 1.77186 0
M  V30 4848 H 454.718 3.62951 2.52427 0
M  V30 4849 N 453.777 0.010035 1.57597 0
M  V30 4850 C 455.188 -0.531426 1.78977 0
M  V30 4851 C 455.539 -1.73375 0.918454 0
M  V30 4852 O 454.664 -2.16047 0.123635 0
M  V30 4853 C 455.259 -0.97086 3.24592 0
M  V30 4854 C 453.818 -1.45756 3.47033 0
M  V30 4855 C 452.965 -0.413384 2.74201 0
M  V30 4856 H 455.916 0.236166 1.56933 0
M  V30 4857 H 455.937 -1.83633 3.33255 0
M  V30 4858 H 455.449 -0.0955893 3.87982 0
M  V30 4859 H 453.55 -2.35339 2.88871 0
M  V30 4860 H 453.663 -1.4781 4.55729 0
M  V30 4861 H 452.027 -0.877266 2.39115 0
M  V30 4862 H 452.81 0.453092 3.40297 0
M  V30 4863 N 455.255 -1.55392 -0.262866 0
M  V30 4864 C 456.666 -1.67079 -0.833158 0
M  V30 4865 C 457.017 -0.604539 -1.86654 0
M  V30 4866 O 456.142 0.252138 -2.14926 0
M  V30 4867 C 456.737 -3.02891 -1.51797 0
M  V30 4868 C 455.296 -3.16571 -2.03617 0
M  V30 4869 C 454.443 -2.62909 -0.881701 0
M  V30 4870 H 457.394 -1.58652 -0.0389986 0
M  V30 4871 H 457.415 -2.96445 -2.38538 0
M  V30 4872 H 456.927 -3.80473 -0.765619 0
M  V30 4873 H 455.028 -2.43782 -2.81782 0
M  V30 4874 H 455.141 -4.23271 -2.24452 0
M  V30 4875 H 453.505 -2.20324 -1.27786 0
M  V30 4876 H 454.288 -3.43003 -0.14269 0
M  V30 4877 N 456.733 0.527833 -1.48498 0
M  V30 4878 C 457.958 1.313 -1.60546 0
M  V30 4879 C 458.383 1.86199 -0.26672 0
M  V30 4880 O 457.741 1.64513 0.761918 0
M  V30 4881 C 457.789 2.43818 -2.65678 0
M  V30 4882 O 456.893 3.46916 -2.22987 0
M  V30 4883 H 456.234 0.388784 -0.538277 0
M  V30 4884 H 458.764 0.634896 -1.945 0
M  V30 4885 H 458.774 2.89973 -2.87018 0
M  V30 4886 H 457.449 2.03222 -3.62869 0
M  V30 4887 H 456.026 3.06864 -2.11869 0
M  V30 4888 N 458.211 1.37122 0.776871 0
M  V30 4889 C 459.436 1.354 1.57104 0
M  V30 4890 C 459.861 -0.0595562 1.88006 0
M  V30 4891 O 459.219 -1.03514 1.48844 0
M  V30 4892 C 459.267 2.19472 2.8612 0
M  V30 4893 O 458.371 1.59582 3.80273 0
M  V30 4894 H 457.712 0.462869 0.476076 0
M  V30 4895 H 460.242 1.80577 0.961932 0
M  V30 4896 H 460.252 2.32502 3.35271 0
M  V30 4897 H 458.927 3.22222 2.62956 0
M  V30 4898 H 457.504 1.55564 3.38902 0
M  V30 4899 N 459.689 -1.00246 1.21608 0
M  V30 4900 C 460.935 -1.74319 1.03638 0
M  V30 4901 C 461.268 -1.89408 -0.428749 0
M  V30 4902 O 460.543 -1.43026 -1.3181 0
M  V30 4903 C 460.826 -3.15431 1.73711 0
M  V30 4904 C 460.679 -3.08049 3.27759 0
M  V30 4905 C 461.998 -4.14407 1.48173 0
M  V30 4906 H 459.117 -0.632741 0.377899 0
M  V30 4907 H 461.759 -1.16853 1.49818 0
M  V30 4908 H 459.909 -3.64493 1.34452 0
M  V30 4909 H 461.581 -2.66681 3.76403 0
M  V30 4910 H 459.824 -2.45088 3.57931 0
M  V30 4911 H 460.495 -4.07862 3.71958 0
M  V30 4912 H 462.971 -3.74061 1.82258 0
M  V30 4913 H 461.847 -5.11279 1.99713 0
M  V30 4914 H 462.108 -4.40174 0.412273 0
M  V30 4915 N 461.167 -1.02423 -1.1978 0
M  V30 4916 C 462.415 -0.716569 -1.8897 0
M  V30 4917 C 462.736 0.756769 -1.79716 0
M  V30 4918 O 462.006 1.5449 -1.20456 0
M  V30 4919 H 460.586 -0.262062 -0.699523 0
M  V30 4920 H 463.248 -1.29747 -1.45436 0
M  V30 4921 H 462.344 -1.00675 -2.95417 0
M  V30 4922 N 462.645 1.35699 -0.801477 0
M  V30 4923 C 463.87 2.03687 -0.390678 0
M  V30 4924 C 464.295 1.60015 0.988778 0
M  V30 4925 O 463.653 0.774357 1.63931 0
M  V30 4926 C 463.701 3.57439 -0.476404 0
M  V30 4927 O 462.805 4.09208 0.512106 0
M  V30 4928 H 462.146 0.64344 -0.163956 0
M  V30 4929 H 464.676 1.73403 -1.08594 0
M  V30 4930 H 464.686 4.06544 -0.344357 0
M  V30 4931 H 463.361 3.88576 -1.48262 0
M  V30 4932 H 461.938 3.7134 0.340721 0
M  V30 4933 N 464.123 0.554532 1.47522 0
M  V30 4934 C 465.055 -0.232106 2.28022 0
M  V30 4935 C 466.068 -0.881865 1.36847 0
M  V30 4936 O 467.257 -0.756168 1.61692 0
M  V30 4937 C 464.357 -1.34604 3.11022 0
M  V30 4938 C 463.53 -0.793582 4.30141 0
M  V30 4939 C 462.589 -1.79168 4.94758 0
M  V30 4940 O 461.615 -1.33886 5.5323 0
M  V30 4941 N 462.817 -3.12495 4.89211 0
M  V30 4942 H 465.582 0.458407 2.96173 0
M  V30 4943 H 463.143 0.390433 1.57122 0
M  V30 4944 H 465.135 -2.01243 3.51118 0
M  V30 4945 H 463.705 -1.93983 2.45131 0
M  V30 4946 H 462.925 0.0495025 3.94169 0
M  V30 4947 H 464.213 -0.403776 5.07195 0
M  V30 4948 H 463.611 -3.51931 4.42901 0
M  V30 4949 H 462.168 -3.74698 5.33333 0
M  V30 4950 N 465.601 -1.54893 0.290851 0
M  V30 4951 C 466.849 -1.99538 -0.320756 0
M  V30 4952 C 467.17 -1.18075 -1.55188 0
M  V30 4953 O 466.44 -0.274162 -1.93972 0
M  V30 4954 H 465.02 -0.737052 -0.121507 0
M  V30 4955 H 467.682 -1.90755 0.399832 0
M  V30 4956 H 466.778 -3.06282 -0.599802 0
M  V30 4957 N 467.08 -0.0183926 -1.57589 0
M  V30 4958 C 468.027 0.967022 -2.09565 0
M  V30 4959 C 468.997 1.32983 -0.995225 0
M  V30 4960 O 470.182 1.42501 -1.26878 0
M  V30 4961 C 467.322 2.24772 -2.61861 0
M  V30 4962 C 466.435 1.94232 -3.85873 0
M  V30 4963 C 465.57 3.16518 -4.26603 0
M  V30 4964 C 464.609 2.81748 -5.43401 0
M  V30 4965 N 463.746 3.96626 -5.79338 0
M  V30 4966 H 468.586 0.516874 -2.93483 0
M  V30 4967 H 466.123 0.243544 -1.4507 0
M  V30 4968 H 468.081 2.99667 -2.90268 0
M  V30 4969 H 466.711 2.67423 -1.8079 0
M  V30 4970 H 465.763 1.09625 -3.64262 0
M  V30 4971 H 467.075 1.64616 -4.70853 0
M  V30 4972 H 466.229 3.99743 -4.56389 0
M  V30 4973 H 464.968 3.49286 -3.40368 0
M  V30 4974 H 463.973 1.96933 -5.1332 0
M  V30 4975 H 465.198 2.50207 -6.31327 0
M  V30 4976 H 463.144 4.29257 -4.96059 0
M  V30 4977 H 463.061 3.70598 -6.58933 0
M  V30 4978 H 464.329 4.80586 -6.13724 0
M  V30 4979 N 468.558 1.5553 0.254621 0
M  V30 4980 C 469.806 1.7665 0.981793 0
M  V30 4981 C 470.127 0.580963 1.86145 0
M  V30 4982 O 469.397 -0.403537 1.91699 0
M  V30 4983 H 467.977 0.651475 0.365498 0
M  V30 4984 H 470.639 1.92958 0.274426 0
M  V30 4985 H 469.735 2.67486 1.60802 0
M  V30 4986 N 470.036 -0.519951 1.48776 0
M  V30 4987 C 471.261 -1.30447 1.6124 0
M  V30 4988 C 471.686 -1.86055 0.276591 0
M  V30 4989 O 471.044 -1.64915 -0.753183 0
M  V30 4990 C 471.092 -2.42406 2.66967 0
M  V30 4991 O 470.196 -3.45728 2.24824 0
M  V30 4992 H 469.537 -0.385924 0.540332 0
M  V30 4993 H 472.067 -0.624572 1.94834 0
M  V30 4994 H 472.077 -2.88447 2.88552 0
M  V30 4995 H 470.752 -2.01294 3.63941 0
M  V30 4996 H 469.329 -3.05737 2.13494 0
M  V30 4997 N 471.514 -1.37532 -0.769588 0
M  V30 4998 C 472.76 -1.33057 -1.53048 0
M  V30 4999 C 473.093 0.0841865 -1.94017 0
M  V30 5000 O 472.368 1.04198 -1.64235 0
M  V30 5001 C 472.651 -2.27166 -2.79406 0
M  V30 5002 C 472.504 -3.77429 -2.44677 0
M  V30 5003 C 473.823 -2.19683 -3.81349 0
M  V30 5004 H 470.942 -0.484655 -0.555228 0
M  V30 5005 H 473.584 -1.68251 -0.882702 0
M  V30 5006 H 471.734 -1.97283 -3.34682 0
M  V30 5007 H 473.406 -4.17918 -1.953 0
M  V30 5008 H 471.649 -3.95892 -1.77346 0
M  V30 5009 H 472.32 -4.38716 -3.35011 0
M  V30 5010 H 474.796 -2.46029 -3.35573 0
M  V30 5011 H 473.672 -2.87668 -4.67481 0
M  V30 5012 H 473.933 -1.19045 -4.25771 0
M  V30 5013 N 472.992 0.995999 -1.22138 0
M  V30 5014 C 473.922 2.10387 -1.01289 0
M  V30 5015 C 474.903 1.69975 0.0651454 0
M  V30 5016 O 476.088 1.9396 -0.0964628 0
M  V30 5017 C 473.218 3.42312 -0.586517 0
M  V30 5018 C 472.172 3.96558 -1.61014 0
M  V30 5019 C 471.498 5.24494 -1.0397 0
M  V30 5020 C 472.798 4.27595 -2.99933 0
M  V30 5021 H 474.492 2.28086 -1.93951 0
M  V30 5022 H 472.038 1.09607 -0.933928 0
M  V30 5023 H 473.991 4.19223 -0.427793 0
M  V30 5024 H 472.715 3.24431 0.375761 0
M  V30 5025 H 471.374 3.21776 -1.75658 0
M  V30 5026 H 471.022 5.02953 -0.0688703 0
M  V30 5027 H 470.722 5.61755 -1.72352 0
M  V30 5028 H 472.246 6.04042 -0.892494 0
M  V30 5029 H 473.66 4.95315 -2.8868 0
M  V30 5030 H 472.057 4.76021 -3.6541 0
M  V30 5031 H 473.127 3.35498 -3.50099 0
M  V30 5032 N 474.47 1.03057 1.19235 0
M  V30 5033 C 475.881 0.757449 1.70645 0
M  V30 5034 C 476.232 -0.722735 1.82403 0
M  V30 5035 O 475.357 -1.56325 1.49638 0
M  V30 5036 C 475.952 1.36833 3.09939 0
M  V30 5037 C 474.511 1.14375 3.58602 0
M  V30 5038 C 473.658 1.46533 2.35422 0
M  V30 5039 H 476.609 1.19828 1.04052 0
M  V30 5040 H 476.63 0.766184 3.72706 0
M  V30 5041 H 476.142 2.44562 3.01349 0
M  V30 5042 H 474.243 0.0847542 3.72504 0
M  V30 5043 H 474.356 1.83366 4.42622 0
M  V30 5044 H 472.72 0.884712 2.38841 0
M  V30 5045 H 473.503 2.55349 2.2946 0
M  V30 5046 N 475.948 -1.35272 0.808662 0
M  V30 5047 C 477.188 -2.00534 0.395668 0
M  V30 5048 C 477.552 -1.62755 -1.01857 0
M  V30 5049 O 478.753 -2.20752 -1.53368 0
M  V30 5050 C 477.024 -3.52732 0.575771 0
M  V30 5051 S 478.583 -4.38067 0.253507 0
M  V30 5052 H 475.401 -0.694962 0.150165 0
M  V30 5053 H 478.003 -1.64823 1.05137 0
M  V30 5054 H 476.707 -3.77714 1.60499 0
M  V30 5055 H 476.238 -3.93285 -0.0951739 0
M  V30 5056 H 478.253 -4.87252 -0.938068 0
M  V30 5057 N 477.426 -0.562348 -1.47226 0
M  V30 5058 C 478.672 -0.0485293 -2.03342 0
M  V30 5059 C 479.027 1.28898 -1.42839 0
M  V30 5060 O 478.32 1.82719 -0.576563 0
M  V30 5061 C 478.514 0.0969817 -3.57268 0
M  V30 5062 C 478.343 -1.22487 -4.32697 0
M  V30 5063 C 477.113 -1.79357 -4.72397 0
M  V30 5064 C 479.311 -2.14332 -4.67511 0
M  V30 5065 N 477.293 -3.05493 -5.32491 0
M  V30 5066 C 478.664 -3.25049 -5.27961 0
M  V30 5067 C 480.719 -2.14263 -4.4944 0
M  V30 5068 C 479.422 -4.35804 -5.72248 0
M  V30 5069 C 481.448 -3.24033 -4.94729 0
M  V30 5070 C 480.81 -4.3347 -5.55233 0
M  V30 5071 H 476.909 -0.0600464 -0.779691 0
M  V30 5072 H 479.493 -0.750769 -1.79643 0
M  V30 5073 H 477.664 0.768353 -3.80724 0
M  V30 5074 H 479.396 0.613333 -4.00025 0
M  V30 5075 H 476.151 -1.33093 -4.54514 0
M  V30 5076 H 476.575 -3.698 -5.67077 0
M  V30 5077 H 481.217 -1.30935 -4.02015 0
M  V30 5078 H 478.935 -5.19888 -6.18661 0
M  V30 5079 H 482.521 -3.25073 -4.82513 0
M  V30 5080 H 481.401 -5.17008 -5.89638 0
M  V30 5081 N 478.904 1.54736 -0.299062 0
M  V30 5082 C 480.15 2.01114 0.304123 0
M  V30 5083 C 480.505 1.18376 1.51674 0
M  V30 5084 O 479.798 0.251635 1.8994 0
M  V30 5085 C 479.992 3.50199 0.713835 0
M  V30 5086 C 479.821 4.47366 -0.457531 0
M  V30 5087 C 478.591 4.9631 -0.948933 0
M  V30 5088 C 480.789 4.9755 -1.30186 0
M  V30 5089 N 478.771 5.77327 -2.08726 0
M  V30 5090 C 480.142 5.7625 -2.28771 0
M  V30 5091 C 482.197 4.79739 -1.33246 0
M  V30 5092 C 480.9 6.39036 -3.3019 0
M  V30 5093 C 482.926 5.43343 -2.33521 0
M  V30 5094 C 482.288 6.21874 -3.30836 0
M  V30 5095 H 478.387 0.778318 0.0757992 0
M  V30 5096 H 480.971 1.89925 -0.428536 0
M  V30 5097 H 479.142 3.61681 1.41567 0
M  V30 5098 H 480.874 3.83374 1.29639 0
M  V30 5099 H 477.629 4.7069 -0.52423 0
M  V30 5100 H 478.053 6.22521 -2.66077 0
M  V30 5101 H 482.695 4.18609 -0.59383 0
M  V30 5102 H 480.413 6.99302 -4.04973 0
M  V30 5103 H 483.999 5.31492 -2.3666 0
M  V30 5104 H 482.879 6.70217 -4.07159 0
M  V30 5105 N 480.382 0.0267497 1.57577 0
M  V30 5106 C 481.312 -0.954308 2.13108 0
M  V30 5107 C 482.293 -1.34088 1.04663 0
M  V30 5108 O 483.478 -1.41992 1.32484 0
M  V30 5109 C 480.608 -2.23744 2.65624 0
M  V30 5110 C 479.562 -1.99168 3.78835 0
M  V30 5111 C 478.888 -3.33726 4.17769 0
M  V30 5112 C 480.188 -1.33277 5.0501 0
M  V30 5113 H 481.882 -0.491848 2.95332 0
M  V30 5114 H 479.428 -0.23514 1.42067 0
M  V30 5115 H 481.381 -2.92754 3.03106 0
M  V30 5116 H 480.105 -2.72151 1.80558 0
M  V30 5117 H 478.764 -1.32577 3.41788 0
M  V30 5118 H 478.412 -3.79888 3.29688 0
M  V30 5119 H 478.112 -3.18089 4.94058 0
M  V30 5120 H 479.636 -4.04008 4.57832 0
M  V30 5121 H 481.05 -1.92283 5.40093 0
M  V30 5122 H 479.447 -1.28045 5.8628 0
M  V30 5123 H 480.517 -0.305411 4.83937 0
M  V30 5124 N 481.861 -1.55662 -0.24637 0
M  V30 5125 C 482.793 -1.86811 -1.32794 0
M  V30 5126 C 483.806 -0.754413 -1.44265 0
M  V30 5127 O 484.995 -1.03253 -1.45606 0
M  V30 5128 C 482.095 -2.0397 -2.70646 0
M  V30 5129 C 481.268 -3.34832 -2.81436 0
M  V30 5130 C 480.327 -3.41727 -4.00136 0
M  V30 5131 O 479.353 -4.14934 -3.89639 0
M  V30 5132 N 480.555 -2.71058 -5.1333 0
M  V30 5133 H 483.32 -2.80174 -1.06409 0
M  V30 5134 H 480.881 -1.55906 -0.43647 0
M  V30 5135 H 482.873 -2.05924 -3.48393 0
M  V30 5136 H 481.443 -1.1735 -2.89738 0
M  V30 5137 H 480.663 -3.4519 -1.90361 0
M  V30 5138 H 481.951 -4.21085 -2.85595 0
M  V30 5139 H 481.349 -2.11314 -5.2475 0
M  V30 5140 H 479.906 -2.78704 -5.89209 0
M  V30 5141 N 483.339 0.512053 -1.4905 0
M  V30 5142 C 484.586 1.26686 -1.57978 0
M  V30 5143 C 484.914 1.92733 -0.261553 0
M  V30 5144 O 484.169 1.80772 0.749667 0
M  V30 5145 C 484.468 2.36446 -2.68008 0
M  V30 5146 C 484.134 1.87932 -4.09869 0
M  V30 5147 C 482.796 1.74419 -4.48477 0
M  V30 5148 C 485.148 1.5149 -4.98698 0
M  V30 5149 C 482.476 1.22827 -5.73699 0
M  V30 5150 C 484.828 1.01355 -6.24428 0
M  V30 5151 C 483.492 0.864735 -6.61875 0
M  V30 5152 H 482.762 0.463577 -0.578081 0
M  V30 5153 H 485.409 0.569421 -1.82838 0
M  V30 5154 H 483.714 3.11933 -2.37076 0
M  V30 5155 H 485.411 2.9453 -2.72127 0
M  V30 5156 H 482.001 1.99405 -3.79389 0
M  V30 5157 H 486.185 1.60782 -4.69535 0
M  V30 5158 H 481.441 1.10008 -6.01422 0
M  V30 5159 H 485.615 0.722351 -6.92644 0
M  V30 5160 H 483.242 0.462777 -7.5879 0
M  V30 5161 N 484.817 1.37938 0.762283 0
M  V30 5162 C 486.233 1.18945 1.06415 0
M  V30 5163 C 486.433 0.0321163 2.01474 0
M  V30 5164 O 485.489 -0.624844 2.44647 0
M  V30 5165 C 486.802 2.51218 1.65258 0
M  V30 5166 C 488.35 2.57824 1.7747 0
M  V30 5167 C 488.825 3.90251 2.39725 0
M  V30 5168 N 490.316 3.91744 2.47166 0
M  V30 5169 C 491.051 4.90966 2.96209 0
M  V30 5170 N 490.547 6.00585 3.45354 0
M  V30 5171 N 492.34 4.78363 2.9517 0
M  V30 5172 H 484.491 2.11994 0.131301 0
M  V30 5173 H 486.754 0.940262 0.120879 0
M  V30 5174 H 486.46 3.36317 1.02878 0
M  V30 5175 H 486.334 2.68989 2.64433 0
M  V30 5176 H 488.721 1.73126 2.3898 0
M  V30 5177 H 488.802 2.43928 0.770241 0
M  V30 5178 H 488.446 4.75368 1.78852 0
M  V30 5179 H 488.376 4.01454 3.40796 0
M  V30 5180 H 490.867 3.12563 2.12397 0
M  V30 5181 H 491.18 6.72236 3.81207 0
M  V30 5182 H 489.525 6.04217 3.43434 0
M  V30 5183 H 492.716 3.91841 2.56082 0
M  V30 5184 H 492.889 5.55843 3.33081 0
M  V30 5185 N 486.295 -0.989507 1.22664 0
M  V30 5186 C 487.572 -1.70326 0.961688 0
M  V30 5187 C 487.952 -2.04537 -0.522279 0
M  V30 5188 O 487.3 -1.73136 -1.49118 0
M  V30 5189 C 487.51 -2.95135 1.86269 0
M  V30 5190 C 488.858 -3.67842 2.12078 0
M  V30 5191 O 489.882 -3.0515 1.83745 0
M  V30 5192 O 488.741 -4.80644 2.60083 0
M  V30 5193 H 485.835 -0.743589 0.361946 0
M  V30 5194 H 488.381 -1.04555 1.33665 0
M  V30 5195 H 487.153 -2.66382 2.8663 0
M  V30 5196 H 486.776 -3.68645 1.48952 0
M  V30 5197 N 487.773 -1.03688 -1.18687 0
M  V30 5198 C 489.001 -0.757918 -1.92518 0
M  V30 5199 C 489.416 0.684398 -1.75959 0
M  V30 5200 O 488.773 1.46617 -1.08673 0
M  V30 5201 C 488.824 -1.10985 -3.44042 0
M  V30 5202 O 488.545 -2.49554 -3.60076 0
M  V30 5203 C 490.046 -0.854844 -4.3498 0
M  V30 5204 H 487.266 -0.276699 -0.611293 0
M  V30 5205 H 489.81 -1.38352 -1.50595 0
M  V30 5206 H 487.965 -0.529279 -3.83767 0
M  V30 5207 H 488.379 -2.6291 -4.53849 0
M  V30 5208 H 489.853 -1.15098 -5.39867 0
M  V30 5209 H 490.33 0.210507 -4.38695 0
M  V30 5210 H 490.936 -1.41853 -4.00946 0
M  V30 5211 N 489.251 1.34841 -0.815825 0
M  V30 5212 C 490.161 2.33425 -0.234462 0
M  V30 5213 C 491.177 1.62295 0.627413 0
M  V30 5214 O 492.353 1.94109 0.536987 0
M  V30 5215 C 489.418 3.41471 0.599849 0
M  V30 5216 C 488.479 4.28362 -0.283596 0
M  V30 5217 C 487.712 5.31248 0.51099 0
M  V30 5218 O 487.935 5.43056 1.7449 0
M  V30 5219 O 486.869 6.01812 -0.10297 0
M  V30 5220 H 490.695 2.84962 -1.05024 0
M  V30 5221 H 488.28 1.37774 -0.577809 0
M  V30 5222 H 490.162 4.07464 1.07475 0
M  V30 5223 H 488.837 2.9219 1.39308 0
M  V30 5224 H 487.744 3.65318 -0.805836 0
M  V30 5225 H 489.077 4.81066 -1.041 0
M  V30 5226 N 490.729 0.570148 1.46925 0
M  V30 5227 C 492.14 0.1402 1.86173 0
M  V30 5228 C 492.491 -1.29347 1.47526 0
M  V30 5229 O 491.616 -1.97508 0.884292 0
M  V30 5230 C 492.211 0.247661 3.37894 0
M  V30 5231 C 490.77 -0.127332 3.76185 0
M  V30 5232 C 489.917 0.589349 2.70965 0
M  V30 5233 H 492.868 0.779117 1.38259 0
M  V30 5234 H 492.889 -0.530341 3.76786 0
M  V30 5235 H 492.401 1.29121 3.65991 0
M  V30 5236 H 490.502 -1.17149 3.53704 0
M  V30 5237 H 490.615 0.240238 4.78497 0
M  V30 5238 H 488.979 0.0309824 2.54681 0
M  V30 5239 H 489.762 1.6343 3.01903 0
M  V30 5240 N 492.207 -1.54576 0.307264 0
M  V30 5241 C 493.447 -2.02172 -0.300962 0
M  V30 5242 C 493.811 -1.19081 -1.50611 0
M  V30 5243 O 495.012 -1.56405 -2.18612 0
M  V30 5244 C 493.283 -3.51576 -0.642591 0
M  V30 5245 S 494.842 -4.21127 -1.23279 0
M  V30 5246 H 491.66 -0.705021 -0.0920141 0
M  V30 5247 H 494.262 -1.90563 0.436594 0
M  V30 5248 H 492.966 -4.09681 0.242901 0
M  V30 5249 H 492.497 -3.67234 -1.41077 0
M  V30 5250 H 494.512 -4.27426 -2.52034 0
M  V30 5251 N 493.685 -0.035106 -1.57561 0
M  V30 5252 C 494.91 0.655802 -1.96759 0
M  V30 5253 C 495.335 1.64523 -0.911809 0
M  V30 5254 O 494.693 1.80857 0.126673 0
M  V30 5255 C 494.741 1.33326 -3.35047 0
M  V30 5256 O 493.845 2.44866 -3.31835 0
M  V30 5257 H 493.186 0.171807 -0.641388 0
M  V30 5258 H 495.716 -0.0987369 -2.04362 0
M  V30 5259 H 495.726 1.68867 -3.71413 0
M  V30 5260 H 494.401 0.608033 -4.11431 0
M  V30 5261 H 492.978 2.11392 -3.07193 0
M  V30 5262 N 495.163 1.55791 0.238111 0
M  V30 5263 C 496.44 1.68798 0.98826 0
M  V30 5264 C 496.82 0.577562 2.03045 0
M  V30 5265 O 496.168 -0.41778 2.24648 0
M  V30 5266 C 496.378 3.09454 1.61367 0
M  V30 5267 C 497.726 3.68335 2.11221 0
M  V30 5268 O 498.75 3.1231 1.71292 0
M  V30 5269 O 497.609 4.6657 2.84561 0
M  V30 5270 H 494.703 0.686881 0.460568 0
M  V30 5271 H 497.249 1.68118 0.231202 0
M  V30 5272 H 496.021 3.81726 0.860295 0
M  V30 5273 H 495.644 3.14182 2.4367 0
M  V30 5274 N 496.642 -0.504142 1.49319 0
M  V30 5275 C 497.872 -1.28071 1.62116 0
M  V30 5276 C 498.28 -1.86955 0.290566 0
M  V30 5277 O 497.623 -1.68415 -0.733616 0
M  V30 5278 C 497.685 -2.4521 2.62893 0
M  V30 5279 C 497.349 -2.07218 4.0732 0
M  V30 5280 C 498.346 -1.61375 4.94221 0
M  V30 5281 C 496.031 -2.16949 4.53033 0
M  V30 5282 C 498.025 -1.25763 6.2487 0
M  V30 5283 C 495.712 -1.80949 5.83696 0
M  V30 5284 C 496.71 -1.3543 6.69438 0
M  V30 5285 O 496.398 -0.99915 7.97667 0
M  V30 5286 H 496.13 -0.394763 0.54876 0
M  V30 5287 H 498.684 -0.612118 1.96067 0
M  V30 5288 H 496.914 -3.15134 2.24115 0
M  V30 5289 H 498.603 -3.0724 2.65252 0
M  V30 5290 H 499.369 -1.53306 4.60133 0
M  V30 5291 H 495.248 -2.5133 3.86463 0
M  V30 5292 H 498.792 -0.901631 6.91749 0
M  V30 5293 H 494.689 -1.88667 6.17313 0
M  V30 5294 H 495.457 -1.13089 8.1065 0
M  V30 5295 N 498.12 -1.38341 -0.754957 0
M  V30 5296 C 499.36 -1.35888 -1.52689 0
M  V30 5297 C 499.724 0.0513682 -1.91931 0
M  V30 5298 O 500.925 0.200761 -2.68049 0
M  V30 5299 C 499.196 -2.28666 -2.74676 0
M  V30 5300 S 500.755 -2.4422 -3.64558 0
M  V30 5301 H 497.573 -0.482165 -0.522531 0
M  V30 5302 H 500.175 -1.74253 -0.886358 0
M  V30 5303 H 498.879 -3.30023 -2.43953 0
M  V30 5304 H 498.41 -1.91445 -3.43675 0
M  V30 5305 H 500.425 -1.66525 -4.67423 0
M  V30 5306 N 499.598 0.982988 -1.23187 0
M  V30 5307 C 500.528 2.09301 -1.03515 0
M  V30 5308 C 501.509 1.70035 0.0471136 0
M  V30 5309 O 502.694 1.93847 -0.117029 0
M  V30 5310 C 499.824 3.4167 -0.622791 0
M  V30 5311 C 498.778 3.94828 -1.65211 0
M  V30 5312 C 498.104 5.23362 -1.09527 0
M  V30 5313 C 499.404 4.2439 -3.04451 0
M  V30 5314 H 501.098 2.26016 -1.96359 0
M  V30 5315 H 498.644 1.08611 -0.945501 0
M  V30 5316 H 500.597 4.18746 -0.472233 0
M  V30 5317 H 499.321 3.24811 0.341329 0
M  V30 5318 H 497.98 3.19895 -1.79061 0
M  V30 5319 H 497.628 5.02852 -0.122211 0
M  V30 5320 H 497.328 5.59895 -1.783 0
M  V30 5321 H 498.852 6.03062 -0.956511 0
M  V30 5322 H 500.266 4.92225 -2.93917 0
M  V30 5323 H 498.663 4.72118 -3.70438 0
M  V30 5324 H 499.733 3.31765 -3.53638 0
M  V30 5325 N 501.076 1.04316 1.18135 0
M  V30 5326 C 502.301 0.768047 1.92655 0
M  V30 5327 C 502.726 -0.66904 1.758 0
M  V30 5328 O 502.084 -1.46372 1.06981 0
M  V30 5329 C 502.132 1.14239 3.42026 0
M  V30 5330 O 501.236 0.269333 4.1152 0
M  V30 5331 H 500.577 0.282436 0.600937 0
M  V30 5332 H 503.107 1.39367 1.49793 0
M  V30 5333 H 503.117 1.10538 3.92741 0
M  V30 5334 H 501.792 2.18928 3.53615 0
M  V30 5335 H 500.369 0.366175 3.71098 0
M  V30 5336 N 502.554 -1.34406 0.822964 0
M  V30 5337 C 503.504 -2.26963 0.217208 0
M  V30 5338 C 504.488 -1.48536 -0.618545 0
M  V30 5339 O 505.68 -1.7056 -0.473118 0
M  V30 5340 C 502.809 -3.37655 -0.619973 0
M  V30 5341 C 501.895 -4.23495 0.226411 0
M  V30 5342 N 502.286 -4.88876 1.29744 0
M  V30 5343 C 500.584 -4.45999 0.0107554 0
M  V30 5344 C 501.285 -5.52642 1.81553 0
M  V30 5345 N 500.261 -5.31949 1.11942 0
M  V30 5346 H 504.063 -2.75017 1.03647 0
M  V30 5347 H 501.577 -1.48126 0.665777 0
M  V30 5348 H 503.574 -4.02932 -1.07011 0
M  V30 5349 H 502.234 -2.91151 -1.43739 0
M  V30 5350 H 503.245 -4.89886 1.68024 0
M  V30 5351 H 499.922 -4.10253 -0.774495 0
M  V30 5352 H 501.312 -6.14755 2.71156 0
M  V30 5353 N 504.032 -0.577932 -1.46621 0
M  V30 5354 C 505.281 -0.0594281 -2.01612 0
M  V30 5355 C 505.594 1.30663 -1.45556 0
M  V30 5356 O 506.8 1.91621 -1.92337 0
M  V30 5357 C 505.256 -0.0556666 -3.59857 0
M  V30 5358 C 504.864 -1.41975 -4.24908 0
M  V30 5359 C 506.608 0.409143 -4.22524 0
M  V30 5360 C 504.515 -1.37397 -5.75218 0
M  V30 5361 H 503.445 -0.0184469 -0.753774 0
M  V30 5362 H 506.096 -0.728869 -1.68404 0
M  V30 5363 H 504.478 0.679843 -3.90121 0
M  V30 5364 H 505.652 -2.17461 -4.0626 0
M  V30 5365 H 503.967 -1.82419 -3.74316 0
M  V30 5366 H 506.564 0.46211 -5.32699 0
M  V30 5367 H 506.907 1.42565 -3.91128 0
M  V30 5368 H 507.44 -0.272152 -3.96868 0
M  V30 5369 H 504.179 -2.36714 -6.11267 0
M  V30 5370 H 503.699 -0.661239 -5.96144 0
M  V30 5371 H 505.378 -1.08484 -6.3784 0
M  V30 5372 N 505.51 1.54411 -0.315457 0
M  V30 5373 C 506.759 1.99599 0.290395 0
M  V30 5374 C 507.072 1.20746 1.53882 0
M  V30 5375 O 508.278 1.56272 2.22017 0
M  V30 5376 C 506.734 3.5539 0.56797 0
M  V30 5377 C 506.342 4.43068 -0.662945 0
M  V30 5378 C 508.086 4.09067 1.13422 0
M  V30 5379 C 505.993 5.90317 -0.357722 0
M  V30 5380 H 504.923 0.745592 0.112286 0
M  V30 5381 H 507.574 1.78477 -0.426418 0
M  V30 5382 H 505.956 3.72468 1.34476 0
M  V30 5383 H 507.13 4.37765 -1.43869 0
M  V30 5384 H 505.445 4.00238 -1.14884 0
M  V30 5385 H 508.042 5.16663 1.37707 0
M  V30 5386 H 508.385 3.60552 2.08106 0
M  V30 5387 H 508.918 3.95589 0.418805 0
M  V30 5388 H 505.657 6.4301 -1.27351 0
M  V30 5389 H 505.177 5.98592 0.380472 0
M  V30 5390 H 506.856 6.4699 0.0354284 0
M  V30 5391 N 506.988 0.0434614 1.5754 0
M  V30 5392 C 507.936 -0.951465 2.1225 0
M  V30 5393 C 508.93 -1.3274 1.05245 0
M  V30 5394 O 510.136 -1.30795 1.23663 0
M  V30 5395 H 506.511 -0.324667 0.678303 0
M  V30 5396 H 508.482 -0.464855 2.94757 0
M  V30 5397 C 507.231 -2.21972 2.67626 0
M  V30 5398 H 506.554 -1.93923 3.4962 0
M  V30 5399 H 507.994 -2.89765 3.09536 0
M  V30 5400 C 506.453 -2.95919 1.61038 0
M  V30 5401 O 506.983 -3.8857 1.01862 0
M  V30 5402 N 505.189 -2.58511 1.32741 0
M  V30 5403 H 504.736 -1.83244 1.81051 0
M  V30 5404 H 504.694 -3.08296 0.616531 0
M  V30 5405 N 508.466 -1.55915 -0.229846 0
M  V30 5406 C 509.396 -1.94754 -1.28815 0
M  V30 5407 C 510.377 -0.814657 -1.49323 0
M  V30 5408 O 511.562 -1.07631 -1.61645 0
M  V30 5409 C 508.692 -2.25705 -2.63959 0
M  V30 5410 C 507.646 -3.41406 -2.5812 0
M  V30 5411 C 506.972 -3.57941 -3.97218 0
M  V30 5412 C 508.272 -4.76616 -2.13623 0
M  V30 5413 H 509.966 -2.83404 -0.965547 0
M  V30 5414 H 507.512 -1.36353 -0.463028 0
M  V30 5415 H 509.465 -2.51467 -3.38146 0
M  V30 5416 H 508.189 -1.339 -2.9789 0
M  V30 5417 H 506.848 -3.1568 -1.86391 0
M  V30 5418 H 506.496 -2.63526 -4.28443 0
M  V30 5419 H 506.196 -4.35757 -3.94195 0
M  V30 5420 H 507.72 -3.86042 -4.73079 0
M  V30 5421 H 509.134 -5.01637 -2.77549 0
M  V30 5422 H 507.531 -5.57655 -2.21677 0
M  V30 5423 H 508.601 -4.7253 -1.08829 0
M  V30 5424 N 509.944 0.496216 -1.49584 0
M  V30 5425 C 510.874 1.60576 -1.69521 0
M  V30 5426 C 511.855 1.61169 -0.543933 0
M  V30 5427 O 513.04 1.77834 -0.78031 0
M  V30 5428 C 510.17 2.99038 -1.76616 0
M  V30 5429 C 509.124 3.13312 -2.91581 0
M  V30 5430 C 508.45 4.53172 -2.83794 0
M  V30 5431 C 509.75 2.92886 -4.32452 0
M  V30 5432 H 511.444 1.44146 -2.62416 0
M  V30 5433 H 508.99 0.692024 -1.26282 0
M  V30 5434 H 510.943 3.76564 -1.8915 0
M  V30 5435 H 509.667 3.16568 -0.80324 0
M  V30 5436 H 508.326 2.38213 -2.78658 0
M  V30 5437 H 507.974 4.67585 -1.854 0
M  V30 5438 H 507.674 4.63662 -3.60958 0
M  V30 5439 H 509.198 5.32752 -2.98342 0
M  V30 5440 H 510.612 3.60178 -4.46032 0
M  V30 5441 H 509.009 3.14844 -5.10875 0
M  V30 5442 H 510.079 1.88966 -4.46565 0
M  V30 5443 N 511.423 1.38739 0.74761 0
M  V30 5444 C 512.333 1.38696 1.89211 0
M  V30 5445 C 513.349 0.283303 1.71678 0
M  V30 5446 O 514.525 0.522713 1.94498 0
M  V30 5447 C 511.59 1.21662 3.24653 0
M  V30 5448 C 510.651 2.41886 3.54669 0
M  V30 5449 C 509.884 2.25655 4.83648 0
M  V30 5450 O 510.107 1.25339 5.56459 0
M  V30 5451 O 509.041 3.14372 5.13277 0
M  V30 5452 H 512.867 2.35143 1.92202 0
M  V30 5453 H 510.452 1.19721 0.893708 0
M  V30 5454 H 512.334 1.14246 4.05618 0
M  V30 5455 H 511.009 0.283024 3.2246 0
M  V30 5456 H 509.916 2.54877 2.73841 0
M  V30 5457 H 511.249 3.33895 3.61628 0
M  V30 5458 N 512.901 -0.976442 1.23707 0
M  V30 5459 C 514.178 -1.69296 0.979699 0
M  V30 5460 C 514.558 -2.0508 -0.500555 0
M  V30 5461 O 513.906 -1.74708 -1.47273 0
M  V30 5462 C 514.116 -2.93143 1.89389 0
M  V30 5463 C 515.464 -3.65572 2.15968 0
M  V30 5464 O 516.488 -3.03184 1.86971 0
M  V30 5465 O 515.347 -4.77859 2.65167 0
M  V30 5466 H 512.441 -0.739708 0.369812 0
M  V30 5467 H 514.987 -1.03131 1.34767 0
M  V30 5468 H 513.759 -2.63327 2.89439 0
M  V30 5469 H 513.382 -3.67044 1.52854 0
M  V30 5470 N 514.379 -1.04941 -1.1758 0
M  V30 5471 C 515.625 -0.768896 -1.88307 0
M  V30 5472 C 515.98 0.696361 -1.79356 0
M  V30 5473 O 515.273 1.50245 -1.18899 0
M  V30 5474 C 515.467 -1.18062 -3.37337 0
M  V30 5475 C 515.296 -2.68436 -3.60794 0
M  V30 5476 C 514.066 -3.35709 -3.77661 0
M  V30 5477 C 516.264 -3.66657 -3.60649 0
M  V30 5478 N 514.246 -4.74974 -3.88939 0
M  V30 5479 C 515.617 -4.91638 -3.77747 0
M  V30 5480 C 517.672 -3.60162 -3.43785 0
M  V30 5481 C 516.375 -6.10902 -3.79726 0
M  V30 5482 C 518.401 -4.78863 -3.47051 0
M  V30 5483 C 517.763 -6.02666 -3.64654 0
M  V30 5484 H 513.862 -0.33355 -0.707296 0
M  V30 5485 H 516.446 -1.34085 -1.41171 0
M  V30 5486 H 514.617 -0.636648 -3.83147 0
M  V30 5487 H 516.349 -0.8502 -3.95669 0
M  V30 5488 H 513.104 -2.8611 -3.77409 0
M  V30 5489 H 513.528 -5.47378 -3.98379 0
M  V30 5490 H 518.17 -2.65412 -3.29114 0
M  V30 5491 H 515.888 -7.05998 -3.93182 0
M  V30 5492 H 519.474 -4.75488 -3.35265 0
M  V30 5493 H 518.354 -6.92979 -3.67083 0
M  V30 5494 N 515.857 1.33968 -0.830081 0
M  V30 5495 C 517.105 1.97672 -0.420734 0
M  V30 5496 C 517.426 1.66111 1.02138 0
M  V30 5497 O 516.696 0.955503 1.71017 0
M  V30 5498 H 515.276 0.73125 -0.152587 0
M  V30 5499 H 517.938 1.63483 -1.0611 0
M  V30 5500 H 517.034 3.07294 -0.545588 0
M  V30 5501 N 517.335 0.585699 1.46312 0
M  V30 5502 C 518.746 0.159938 1.86014 0
M  V30 5503 C 519.097 -1.27775 1.48889 0
M  V30 5504 O 518.222 -1.96559 0.90519 0
M  V30 5505 C 518.817 0.283485 3.37612 0
M  V30 5506 C 517.376 -0.0874256 3.76298 0
M  V30 5507 C 516.523 0.618055 2.70325 0
M  V30 5508 H 519.474 0.793737 1.37425 0
M  V30 5509 H 519.495 -0.490348 3.77327 0
M  V30 5510 H 519.007 1.32995 3.64601 0
M  V30 5511 H 517.108 -1.13391 3.54927 0
M  V30 5512 H 517.221 0.290975 4.78216 0
M  V30 5513 H 515.585 0.057993 2.54634 0
M  V30 5514 H 516.368 1.66623 3.00153 0
M  V30 5515 N 518.813 -1.54241 0.323641 0
M  V30 5516 C 520.053 -2.0248 -0.279502 0
M  V30 5517 C 520.417 -1.20672 -1.49339 0
M  V30 5518 O 521.618 -1.58715 -2.1694 0
M  V30 5519 C 519.889 -3.52238 -0.605266 0
M  V30 5520 S 521.448 -4.22411 -1.18805 0
M  V30 5521 H 518.266 -0.705957 -0.0845313 0
M  V30 5522 H 520.868 -1.90089 0.456781 0
M  V30 5523 H 519.572 -4.094 0.286339 0
M  V30 5524 H 519.103 -3.6871 -1.37174 0
M  V30 5525 H 521.118 -4.30075 -2.47487 0
M  V30 5526 N 520.291 -0.0518155 -1.57515 0
M  V30 5527 C 521.521 0.63048 -1.96745 0
M  V30 5528 C 521.929 1.64875 -0.928054 0
M  V30 5529 O 521.272 1.83449 0.0960678 0
M  V30 5530 C 521.334 1.37381 -3.32215 0
M  V30 5531 C 520.998 0.511298 -4.54131 0
M  V30 5532 C 521.995 -0.222884 -5.19422 0
M  V30 5533 C 519.68 0.442035 -5.00351 0
M  V30 5534 C 521.674 -1.01476 -6.2927 0
M  V30 5535 C 519.361 -0.35353 -6.10077 0
M  V30 5536 C 520.359 -1.08062 -6.74397 0
M  V30 5537 O 520.047 -1.8631 -7.82013 0
M  V30 5538 H 519.779 0.177126 -0.652382 0
M  V30 5539 H 522.333 -0.114726 -2.05079 0
M  V30 5540 H 520.563 2.16466 -3.20436 0
M  V30 5541 H 522.252 1.9464 -3.56188 0
M  V30 5542 H 523.018 -0.178846 -4.8467 0
M  V30 5543 H 518.897 0.997562 -4.50077 0
M  V30 5544 H 522.441 -1.58279 -6.79407 0
M  V30 5545 H 518.338 -0.399205 -6.44264 0
M  V30 5546 H 519.106 -1.78528 -7.98793 0
M  V30 5547 N 521.769 1.56035 0.221574 0
M  V30 5548 C 522.679 1.95581 1.29558 0
M  V30 5549 C 523.695 0.859639 1.51282 0
M  V30 5550 O 524.871 1.16321 1.64413 0
M  V30 5551 C 521.936 2.26447 2.62531 0
M  V30 5552 C 520.997 3.49632 2.4911 0
M  V30 5553 C 520.23 3.79017 3.75742 0
M  V30 5554 O 520.453 3.10077 4.78757 0
M  V30 5555 O 519.387 4.72507 3.72855 0
M  V30 5556 H 523.213 2.8711 0.990035 0
M  V30 5557 H 520.798 1.43244 0.424434 0
M  V30 5558 H 522.68 2.47494 3.41064 0
M  V30 5559 H 521.355 1.38092 2.92766 0
M  V30 5560 H 520.262 3.33864 1.68777 0
M  V30 5561 H 521.595 4.3837 2.23814 0
M  V30 5562 N 523.247 -0.488276 1.49845 0
M  V30 5563 C 524.197 -1.58556 1.63842 0
M  V30 5564 C 525.181 -1.53142 0.493586 0
M  V30 5565 O 526.373 -1.60457 0.747169 0
M  V30 5566 C 523.502 -2.97101 1.72005 0
M  V30 5567 C 522.588 -3.07463 2.92108 0
M  V30 5568 N 522.979 -2.87681 4.16021 0
M  V30 5569 C 521.277 -3.3858 2.90309 0
M  V30 5570 C 521.978 -3.0256 4.96822 0
M  V30 5571 N 520.954 -3.32002 4.30437 0
M  V30 5572 H 524.756 -1.41935 2.57355 0
M  V30 5573 H 522.27 -0.694668 1.46793 0
M  V30 5574 H 524.267 -3.75976 1.80132 0
M  V30 5575 H 522.927 -3.14782 0.796375 0
M  V30 5576 H 523.938 -2.63603 4.45796 0
M  V30 5577 H 520.615 -3.62357 2.07372 0
M  V30 5578 H 522.005 -2.9165 6.05301 0
M  V30 5579 N 524.725 -1.39134 -0.740242 0
M  V30 5580 C 525.973 -1.35803 -1.49673 0
M  V30 5581 C 526.294 0.0470897 -1.94943 0
M  V30 5582 O 525.564 0.997347 -1.68611 0
M  V30 5583 H 524.144 -0.499736 -0.555224 0
M  V30 5584 H 526.806 -1.73947 -0.879107 0
M  V30 5585 H 525.902 -2.0174 -2.38133 0
M  V30 5586 N 526.204 0.969867 -1.24223 0
M  V30 5587 C 527.136 2.0669 -0.99055 0
M  V30 5588 C 528.149 1.62753 0.0392222 0
M  V30 5589 O 529.338 1.77403 -0.197561 0
M  V30 5590 C 526.438 3.35589 -0.472594 0
M  V30 5591 C 525.611 4.08444 -1.56499 0
M  V30 5592 C 524.67 5.15616 -1.05007 0
M  V30 5593 O 523.696 5.41911 -1.7413 0
M  V30 5594 N 524.898 5.80383 0.116641 0
M  V30 5595 H 527.663 2.28855 -1.93508 0
M  V30 5596 H 525.224 1.13733 -1.15223 0
M  V30 5597 H 527.216 4.04542 -0.112919 0
M  V30 5598 H 525.786 3.10311 0.377617 0
M  V30 5599 H 525.006 3.33798 -2.09696 0
M  V30 5600 H 526.294 4.53882 -2.29932 0
M  V30 5601 H 525.692 5.6142 0.694589 0
M  V30 5602 H 524.249 6.50462 0.417483 0
M  V30 5603 N 527.682 1.05563 1.17022 0
M  V30 5604 C 528.632 0.630007 2.19123 0
M  V30 5605 C 529.616 -0.335472 1.57364 0
M  V30 5606 O 530.808 -0.1521 1.76345 0
M  V30 5607 C 527.937 0.0101676 3.43298 0
M  V30 5608 C 527.023 0.999698 4.12149 0
M  V30 5609 N 527.414 2.17251 4.56766 0
M  V30 5610 C 525.712 0.829 4.38228 0
M  V30 5611 C 526.413 2.79883 5.09942 0
M  V30 5612 N 525.389 2.07656 5.02374 0
M  V30 5613 H 529.191 1.52353 2.51328 0
M  V30 5614 H 526.705 0.926288 1.33393 0
M  V30 5615 H 528.702 -0.312541 4.15727 0
M  V30 5616 H 527.362 -0.878707 3.12584 0
M  V30 5617 H 528.373 2.55067 4.50734 0
M  V30 5618 H 525.05 -0.00850974 4.17499 0
M  V30 5619 H 526.44 3.79362 5.54558 0
M  V30 5620 N 529.16 -1.33526 0.837174 0
M  V30 5621 C 530.39 -2.01754 0.444848 0
M  V30 5622 C 530.798 -1.63149 -0.958072 0
M  V30 5623 O 530.141 -0.839827 -1.63379 0
M  V30 5624 C 530.203 -3.56228 0.483917 0
M  V30 5625 C 529.867 -4.18205 1.84265 0
M  V30 5626 C 530.864 -4.37699 2.80563 0
M  V30 5627 C 528.549 -4.54667 2.13503 0
M  V30 5628 C 530.543 -4.928 4.04261 0
M  V30 5629 C 528.23 -5.09475 3.37458 0
M  V30 5630 C 529.228 -5.28488 4.32654 0
M  V30 5631 O 528.916 -5.82132 5.54417 0
M  V30 5632 H 528.648 -0.652928 0.175104 0
M  V30 5633 H 531.202 -1.71469 1.13082 0
M  V30 5634 H 529.432 -3.85833 -0.258826 0
M  V30 5635 H 531.121 -4.05752 0.109653 0
M  V30 5636 H 531.887 -4.0988 2.59274 0
M  V30 5637 H 527.766 -4.39164 1.40201 0
M  V30 5638 H 531.31 -5.07555 4.78574 0
M  V30 5639 H 527.207 -5.36725 3.58604 0
M  V30 5640 H 527.975 -6.00548 5.56133 0
M  V30 5641 N 530.638 -0.59345 -1.46 0
M  V30 5642 C 531.887 -0.0808084 -2.01538 0
M  V30 5643 C 532.2 1.29112 -1.46934 0
M  V30 5644 O 533.406 1.8957 -1.94359 0
M  V30 5645 C 531.862 -0.0938311 -3.59778 0
M  V30 5646 C 531.47 -1.46474 -4.23379 0
M  V30 5647 C 533.214 0.364306 -4.22934 0
M  V30 5648 C 531.121 -1.4349 -5.73729 0
M  V30 5649 H 530.051 -0.0264407 -0.753536 0
M  V30 5650 H 532.702 -0.746689 -1.67621 0
M  V30 5651 H 531.084 0.638427 -3.9082 0
M  V30 5652 H 532.258 -2.21758 -4.03931 0
M  V30 5653 H 530.573 -1.86379 -3.7236 0
M  V30 5654 H 533.17 0.405584 -5.3316 0
M  V30 5655 H 533.513 1.38409 -3.92618 0
M  V30 5656 H 534.046 -0.31423 -3.96557 0
M  V30 5657 H 530.785 -2.43184 -6.08722 0
M  V30 5658 H 530.305 -0.724431 -5.95409 0
M  V30 5659 H 531.984 -1.15243 -6.36654 0
M  V30 5660 N 532.116 1.54067 -0.331816 0
M  V30 5661 C 533.532 1.59587 0.0205388 0
M  V30 5662 C 533.732 1.34813 1.49759 0
M  V30 5663 O 532.788 1.13661 2.25471 0
M  V30 5664 C 534.101 2.97959 -0.405103 0
M  V30 5665 C 535.649 3.10964 -0.356454 0
M  V30 5666 C 536.124 4.51694 -0.757384 0
M  V30 5667 N 537.615 4.57709 -0.71111 0
M  V30 5668 C 538.35 5.64729 -0.993427 0
M  V30 5669 N 537.846 6.79652 -1.3433 0
M  V30 5670 N 539.639 5.54546 -0.918442 0
M  V30 5671 H 531.79 1.68426 -1.29407 0
M  V30 5672 H 534.053 0.78819 -0.526745 0
M  V30 5673 H 533.759 3.21115 -1.43451 0
M  V30 5674 H 533.633 3.76524 0.225692 0
M  V30 5675 H 536.02 2.87538 0.663763 0
M  V30 5676 H 536.101 2.34484 -1.02229 0
M  V30 5677 H 535.745 4.75853 -1.77555 0
M  V30 5678 H 535.675 5.26555 -0.0691444 0
M  V30 5679 H 538.166 3.75176 -0.452883 0
M  V30 5680 H 538.479 7.57221 -1.54388 0
M  V30 5681 H 536.824 6.81128 -1.38164 0
M  V30 5682 H 540.015 4.63641 -0.644536 0
M  V30 5683 H 540.188 6.37861 -1.14181 0
M  V30 5684 N 533.594 0.0601682 1.57485 0
M  V30 5685 C 534.822 -0.620937 1.97363 0
M  V30 5686 C 535.237 -1.63846 0.938082 0
M  V30 5687 O 534.594 -1.82339 -0.0766578 0
M  V30 5688 C 534.645 -1.29987 3.37321 0
M  V30 5689 O 534.366 -0.323081 4.36907 0
M  V30 5690 C 535.867 -2.06989 3.92008 0
M  V30 5691 H 533.087 -0.169135 0.649334 0
M  V30 5692 H 535.631 0.129132 2.04092 0
M  V30 5693 H 533.786 -2.0011 3.31715 0
M  V30 5694 H 534.2 -0.808754 5.18227 0
M  V30 5695 H 535.674 -2.49901 4.92192 0
M  V30 5696 H 536.151 -2.92173 3.2792 0
M  V30 5697 H 536.757 -1.41757 4.0098 0
M  V30 5698 N 535.072 -1.5615 -0.213296 0
M  V30 5699 C 536.483 -1.69645 -0.779582 0
M  V30 5700 C 536.834 -0.663615 -1.84636 0
M  V30 5701 O 535.959 0.183633 -2.15619 0
M  V30 5702 C 536.554 -3.07567 -1.42084 0
M  V30 5703 C 535.113 -3.22889 -1.93442 0
M  V30 5704 C 534.26 -2.65581 -0.797612 0
M  V30 5705 H 537.211 -1.58696 0.0114951 0
M  V30 5706 H 537.232 -3.03884 -2.28986 0
M  V30 5707 H 536.744 -3.82716 -0.644187 0
M  V30 5708 H 534.845 -2.52623 -2.73884 0
M  V30 5709 H 534.958 -4.30197 -2.10872 0
M  V30 5710 H 533.322 -2.24278 -1.20712 0
M  V30 5711 H 534.105 -3.43284 -0.033494 0
M  V30 5712 N 536.55 0.480323 -1.50102 0
M  V30 5713 C 537.966 0.813295 -1.37323 0
M  V30 5714 C 538.166 1.97027 -0.422206 0
M  V30 5715 O 537.222 2.5212 0.138563 0
M  V30 5716 C 538.535 1.13404 -2.78496 0
M  V30 5717 C 540.083 1.24104 -2.87345 0
M  V30 5718 C 540.558 1.59497 -4.29331 0
M  V30 5719 N 542.049 1.66507 -4.32238 0
M  V30 5720 C 542.784 1.95378 -5.39087 0
M  V30 5721 N 542.28 2.22333 -6.56155 0
M  V30 5722 N 544.073 1.96803 -5.26522 0
M  V30 5723 H 536.224 -0.282291 -2.10516 0
M  V30 5724 H 538.487 -0.063752 -0.945854 0
M  V30 5725 H 538.193 0.357064 -3.49883 0
M  V30 5726 H 538.067 2.07251 -3.15162 0
M  V30 5727 H 540.454 2.00871 -2.16183 0
M  V30 5728 H 540.535 0.282593 -2.54234 0
M  V30 5729 H 540.179 0.832736 -5.01027 0
M  V30 5730 H 540.109 2.56477 -4.59921 0
M  V30 5731 H 542.6 1.47753 -3.47818 0
M  V30 5732 H 542.913 2.43611 -7.33399 0
M  V30 5733 H 541.258 2.19745 -6.59346 0
M  V30 5734 H 544.449 1.75235 -4.34062 0
M  V30 5735 H 544.622 2.18969 -6.09883 0
M  V30 5736 N 538.028 1.39524 0.732853 0
M  V30 5737 C 539.256 1.40143 1.52209 0
M  V30 5738 C 539.671 -0.00348836 1.888 0
M  V30 5739 O 539.028 -0.975357 1.5425 0
M  V30 5740 C 539.079 2.27632 2.8083 0
M  V30 5741 O 538.8 3.62654 2.45792 0
M  V30 5742 C 540.301 2.36658 3.74844 0
M  V30 5743 H 537.521 0.478604 0.470297 0
M  V30 5744 H 540.065 1.83366 0.905388 0
M  V30 5745 H 538.22 1.87818 3.38826 0
M  V30 5746 H 538.634 4.08941 3.28431 0
M  V30 5747 H 540.108 3.02118 4.61984 0
M  V30 5748 H 540.585 1.38638 4.16745 0
M  V30 5749 H 541.191 2.76951 3.22766 0
M  V30 5750 N 539.506 -0.963266 1.24736 0
M  V30 5751 C 540.917 -1.52145 1.08207 0
M  V30 5752 C 541.268 -1.93142 -0.345061 0
M  V30 5753 O 540.393 -1.77769 -1.23399 0
M  V30 5754 C 540.988 -2.76486 1.95808 0
M  V30 5755 C 539.547 -3.28646 1.8349 0
M  V30 5756 C 538.694 -2.01529 1.90476 0
M  V30 5757 H 541.645 -0.781083 1.38148 0
M  V30 5758 H 541.666 -3.49986 1.49297 0
M  V30 5759 H 541.178 -2.46617 2.99669 0
M  V30 5760 H 539.279 -3.63357 0.824787 0
M  V30 5761 H 539.392 -3.97246 2.67829 0
M  V30 5762 H 537.756 -2.16442 1.34258 0
M  V30 5763 H 538.539 -1.7402 2.95926 0
M  V30 5764 N 540.985 -1.06182 -1.16461 0
M  V30 5765 C 541.948 -0.675723 -2.19013 0
M  V30 5766 C 542.948 0.277963 -1.58379 0
M  V30 5767 O 544.138 0.0604962 -1.74095 0
M  V30 5768 C 541.27 0.00591459 -3.40899 0
M  V30 5769 H 542.463 -1.58353 -2.54685 0
M  V30 5770 H 540.016 -0.856908 -1.30716 0
M  V30 5771 H 540.751 0.92652 -3.10783 0
M  V30 5772 H 540.536 -0.67984 -3.86161 0
M  V30 5773 H 542.026 0.26181 -4.16778 0
M  V30 5774 N 542.463 1.3308 -0.844243 0
M  V30 5775 C 543.879 1.50447 -0.532729 0
M  V30 5776 C 544.079 1.78292 0.938837 0
M  V30 5777 O 543.135 1.84635 1.72239 0
M  V30 5778 C 544.448 2.65555 -1.41072 0
M  V30 5779 C 545.996 2.7944 -1.41005 0
M  V30 5780 C 546.471 3.97616 -2.27301 0
M  V30 5781 N 547.962 4.0486 -2.2504 0
M  V30 5782 C 548.697 4.95508 -2.88547 0
M  V30 5783 N 548.193 5.91236 -3.61126 0
M  V30 5784 N 549.986 4.88548 -2.77989 0
M  V30 5785 H 542.137 1.13269 -1.79677 0
M  V30 5786 H 544.4 0.55734 -0.766861 0
M  V30 5787 H 544.106 2.51675 -2.45668 0
M  V30 5788 H 543.98 3.61089 -1.09061 0
M  V30 5789 H 546.367 2.92749 -0.371784 0
M  V30 5790 H 546.448 1.8465 -1.77026 0
M  V30 5791 H 546.092 3.85066 -3.3119 0
M  V30 5792 H 546.022 4.91661 -1.88619 0
M  V30 5793 H 548.513 3.36353 -1.72264 0
M  V30 5794 H 548.826 6.57079 -4.06776 0
M  V30 5795 H 547.171 5.91295 -3.65234 0
M  V30 5796 H 550.362 4.12729 -2.20846 0
M  V30 5797 H 550.535 5.58994 -3.27765 0
M  V30 5798 N 543.941 0.601185 1.45683 0
M  V30 5799 C 545.187 0.0940202 2.02582 0
M  V30 5800 C 545.52 -1.26972 1.46941 0
M  V30 5801 O 544.795 -1.83613 0.641612 0
M  V30 5802 C 545.078 0.0481715 3.60068 0
M  V30 5803 C 544.931 1.44212 4.26055 0
M  V30 5804 C 546.25 -0.642975 4.35378 0
M  V30 5805 H 543.369 0.0356404 0.736138 0
M  V30 5806 H 546.011 0.771929 1.73612 0
M  V30 5807 H 544.161 -0.529128 3.8488 0
M  V30 5808 H 545.833 2.06601 4.12449 0
M  V30 5809 H 544.076 2.00465 3.84703 0
M  V30 5810 H 544.747 1.36234 5.34925 0
M  V30 5811 H 547.223 -0.152351 4.15821 0
M  V30 5812 H 546.099 -0.644141 5.45107 0
M  V30 5813 H 546.36 -1.70785 4.0778 0
M  V30 5814 N 545.419 -1.53889 0.339982 0
M  V30 5815 C 546.647 -2.05271 -0.259114 0
M  V30 5816 C 547.062 -1.21517 -1.44496 0
M  V30 5817 O 546.419 -0.24966 -1.80784 0
M  V30 5818 C 546.47 -3.55092 -0.677634 0
M  V30 5819 O 546.191 -4.35667 0.461051 0
M  V30 5820 C 547.692 -4.22631 -1.33782 0
M  V30 5821 H 544.912 -0.669085 -0.0506566 0
M  V30 5822 H 547.456 -1.9852 0.490935 0
M  V30 5823 H 545.611 -3.62077 -1.37763 0
M  V30 5824 H 546.025 -5.24343 0.128144 0
M  V30 5825 H 547.499 -5.28861 -1.58145 0
M  V30 5826 H 547.976 -3.74758 -2.29027 0
M  V30 5827 H 548.582 -4.19829 -0.679957 0
M  V30 5828 N 546.897 -0.0685191 -1.57451 0
M  V30 5829 C 548.145 0.60016 -1.92983 0
M  V30 5830 C 548.466 1.70348 -0.949028 0
M  V30 5831 O 547.736 1.959 0.00335647 0
M  V30 5832 H 546.316 0.224682 -0.712409 0
M  V30 5833 H 548.978 -0.125605 -1.94495 0
M  V30 5834 H 548.074 1.02759 -2.94698 0
M  V30 5835 N 548.375 1.56261 0.205012 0
M  V30 5836 C 549.623 1.79684 0.925096 0
M  V30 5837 C 549.944 0.63989 1.84202 0
M  V30 5838 O 549.214 -0.342345 1.92885 0
M  V30 5839 H 547.794 0.662774 0.344587 0
M  V30 5840 H 550.456 1.93734 0.212899 0
M  V30 5841 H 549.552 2.72467 1.52211 0
M  V30 5842 N 549.853 -0.472356 1.50355 0
M  V30 5843 C 551.099 -1.22634 1.6152 0
M  V30 5844 C 551.432 -1.91645 0.313995 0
M  V30 5845 O 550.707 -1.82059 -0.684446 0
M  V30 5846 C 550.99 -2.27099 2.7946 0
M  V30 5847 C 550.843 -1.62402 4.19459 0
M  V30 5848 C 552.162 -3.28421 2.92964 0
M  V30 5849 H 549.281 -0.444494 0.587873 0
M  V30 5850 H 551.923 -0.520321 1.82737 0
M  V30 5851 H 550.073 -2.87314 2.61501 0
M  V30 5852 H 551.745 -1.05793 4.49005 0
M  V30 5853 H 549.988 -0.927184 4.23776 0
M  V30 5854 H 550.659 -2.38309 4.97909 0
M  V30 5855 H 553.135 -2.78227 3.09401 0
M  V30 5856 H 552.011 -3.98845 3.77113 0
M  V30 5857 H 552.272 -3.92467 2.03525 0
M  V30 5858 N 551.331 -1.39911 -0.725443 0
M  V30 5859 C 552.578 -1.37654 -1.48518 0
M  V30 5860 C 552.906 0.0243982 -1.94485 0
M  V30 5861 O 552.161 1.00708 -1.67799 0
M  V30 5862 C 552.46 -2.30368 -2.7325 0
M  V30 5863 C 552.126 -3.77817 -2.461 0
M  V30 5864 C 550.788 -4.17991 -2.38405 0
M  V30 5865 C 553.14 -4.71036 -2.23103 0
M  V30 5866 C 550.468 -5.49433 -2.05768 0
M  V30 5867 C 552.82 -6.02766 -1.9198 0
M  V30 5868 C 551.484 -6.41993 -1.82761 0
M  V30 5869 H 550.754 -0.503713 -0.543465 0
M  V30 5870 H 553.401 -1.7249 -0.831822 0
M  V30 5871 H 551.706 -1.88683 -3.43375 0
M  V30 5872 H 553.403 -2.2591 -3.31309 0
M  V30 5873 H 549.993 -3.45982 -2.52972 0
M  V30 5874 H 554.177 -4.40823 -2.2801 0
M  V30 5875 H 549.433 -5.78738 -1.9716 0
M  V30 5876 H 553.607 -6.74519 -1.73197 0
M  V30 5877 H 551.234 -7.43761 -1.57237 0
M  V30 5878 N 552.809 0.956637 -1.25245 0
M  V30 5879 C 553.739 2.07058 -1.07931 0
M  V30 5880 C 554.72 1.70096 0.0110361 0
M  V30 5881 O 555.905 1.93555 -0.158121 0
M  V30 5882 C 553.035 3.40272 -0.695124 0
M  V30 5883 C 551.989 3.91235 -1.73549 0
M  V30 5884 C 551.315 5.20921 -1.20604 0
M  V30 5885 C 552.615 4.17837 -3.13385 0
M  V30 5886 H 554.309 2.218 -2.01109 0
M  V30 5887 H 551.855 1.06581 -0.968326 0
M  V30 5888 H 553.808 4.1765 -0.560949 0
M  V30 5889 H 552.532 3.25462 0.272355 0
M  V30 5890 H 551.191 3.16025 -1.85807 0
M  V30 5891 H 550.839 5.02479 -0.228846 0
M  V30 5892 H 550.539 5.55987 -1.90136 0
M  V30 5893 H 552.063 6.00897 -1.08421 0
M  V30 5894 H 553.477 4.8588 -3.04292 0
M  V30 5895 H 551.874 4.64154 -3.80369 0
M  V30 5896 H 552.944 3.2419 -3.60595 0
M  V30 5897 N 554.287 1.06798 1.15896 0
M  V30 5898 C 555.533 0.788934 1.86825 0
M  V30 5899 C 555.866 -0.683084 1.8179 0
M  V30 5900 O 555.141 -1.50086 1.23711 0
M  V30 5901 C 555.424 1.29065 3.36176 0
M  V30 5902 C 555.277 2.8268 3.49874 0
M  V30 5903 C 556.596 0.902655 4.30744 0
M  V30 5904 H 553.715 0.288066 0.678371 0
M  V30 5905 H 556.357 1.32479 1.36195 0
M  V30 5906 H 554.507 0.834806 3.79425 0
M  V30 5907 H 556.179 3.36511 3.15528 0
M  V30 5908 H 554.422 3.21157 2.91617 0
M  V30 5909 H 555.093 3.12852 4.54783 0
M  V30 5910 H 557.569 1.29535 3.95424 0
M  V30 5911 H 556.445 1.28111 5.3374 0
M  V30 5912 H 556.706 -0.191951 4.41683 0
M  V30 5913 N 555.766 -1.3263 0.851289 0
M  V30 5914 C 557.043 -1.91982 0.374448 0
M  V30 5915 C 557.423 -1.77568 -1.14161 0
M  V30 5916 O 556.771 -1.1717 -1.96172 0
M  V30 5917 C 556.981 -3.38862 0.835088 0
M  V30 5918 C 558.329 -4.15999 0.850309 0
M  V30 5919 O 559.353 -3.47566 0.779505 0
M  V30 5920 O 558.212 -5.38189 0.949481 0
M  V30 5921 H 555.306 -0.819846 0.10854 0
M  V30 5922 H 557.852 -1.41422 0.937966 0
M  V30 5923 H 556.624 -3.43281 1.87814 0
M  V30 5924 H 556.247 -3.96821 0.248833 0
M  V30 5925 N 557.244 -0.608902 -1.45362 0
M  V30 5926 C 558.191 0.109172 -2.30542 0
M  V30 5927 C 559.161 0.858704 -1.42181 0
M  V30 5928 O 560.346 0.844178 -1.71109 0
M  V30 5929 C 557.486 1.09971 -3.27109 0
M  V30 5930 C 556.599 0.350911 -4.30572 0
M  V30 5931 C 555.734 1.33129 -5.14247 0
M  V30 5932 C 554.773 0.570377 -6.09437 0
M  V30 5933 N 553.91 1.5001 -6.85887 0
M  V30 5934 H 558.75 -0.623195 -2.91411 0
M  V30 5935 H 556.287 -0.319122 -1.43597 0
M  V30 5936 H 558.245 1.68714 -3.81564 0
M  V30 5937 H 556.875 1.79947 -2.67991 0
M  V30 5938 H 555.927 -0.352054 -3.78767 0
M  V30 5939 H 557.239 -0.242725 -4.98209 0
M  V30 5940 H 556.393 1.99074 -5.73109 0
M  V30 5941 H 555.132 1.95885 -4.46632 0
M  V30 5942 H 554.137 -0.102702 -5.49704 0
M  V30 5943 H 555.362 -0.0521607 -6.7908 0
M  V30 5944 H 553.308 2.11529 -6.2096 0
M  V30 5945 H 553.225 0.959934 -7.49881 0
M  V30 5946 H 554.493 2.14909 -7.49289 0
M  V30 5947 N 558.722 1.53707 -0.348139 0
M  V30 5948 C 559.67 2.26671 0.521808 0
M  V30 5949 C 560.664 1.28988 1.09811 0
M  V30 5950 O 561.87 1.4668 1.04332 0
M  V30 5951 H 558.245 0.728387 0.186968 0
M  V30 5952 H 560.216 2.98176 -0.115563 0
M  V30 5953 C 558.965 3.05591 1.6586 0
M  V30 5954 H 558.288 3.80589 1.22443 0
M  V30 5955 H 559.728 3.59851 2.24239 0
M  V30 5956 C 558.187 2.15366 2.59073 0
M  V30 5957 O 558.717 1.7528 3.61441 0
M  V30 5958 N 556.923 1.80352 2.27863 0
M  V30 5959 H 556.47 2.13149 1.44656 0
M  V30 5960 H 556.428 1.20268 2.90488 0
M  V30 5961 N 560.2 0.0768682 1.57412 0
M  V30 5962 C 561.611 -0.455037 1.8107 0
M  V30 5963 C 561.962 -1.69323 0.991162 0
M  V30 5964 O 561.087 -2.15328 0.215156 0
M  V30 5965 C 561.682 -0.832316 3.28417 0
M  V30 5966 C 560.241 -1.30906 3.52903 0
M  V30 5967 C 559.388 -0.296714 2.75708 0
M  V30 5968 H 562.339 0.302514 1.5579 0
M  V30 5969 H 562.36 -1.69333 3.40744 0
M  V30 5970 H 561.872 0.0690532 3.88039 0
M  V30 5971 H 559.973 -2.22875 2.98592 0
M  V30 5972 H 560.086 -1.28348 4.61588 0
M  V30 5973 H 558.45 -0.775059 2.42621 0
M  V30 5974 H 559.233 0.597015 3.38069 0
M  V30 5975 N 561.678 -1.56367 -0.196722 0
M  V30 5976 C 562.628 -1.9082 -1.24787 0
M  V30 5977 C 563.612 -0.773719 -1.41076 0
M  V30 5978 O 564.804 -1.03655 -1.43474 0
M  V30 5979 C 561.933 -2.24982 -2.59303 0
M  V30 5980 C 561.019 -3.44882 -2.46814 0
M  V30 5981 N 561.41 -4.62835 -2.04003 0
M  V30 5982 C 559.708 -3.48988 -2.77711 0
M  V30 5983 C 560.409 -5.44993 -2.03366 0
M  V30 5984 N 559.385 -4.85356 -2.44807 0
M  V30 5985 H 563.187 -2.79516 -0.908175 0
M  V30 5986 H 560.701 -1.57265 -0.405166 0
M  V30 5987 H 562.698 -2.47848 -3.35227 0
M  V30 5988 H 561.358 -1.37611 -2.94098 0
M  V30 5989 H 562.369 -4.87532 -1.74738 0
M  V30 5990 H 559.046 -2.72029 -3.16712 0
M  V30 5991 H 560.436 -6.49464 -1.72181 0
M  V30 5992 N 563.156 0.464375 -1.50603 0
M  V30 5993 C 564.104 1.58224 -1.70493 0
M  V30 5994 C 565.098 1.59492 -0.570836 0
M  V30 5995 O 566.304 1.63561 -0.751517 0
M  V30 5996 H 562.679 0.525161 -0.538247 0
M  V30 5997 H 564.65 1.38613 -2.64252 0
M  V30 5998 C 563.399 2.96113 -1.82243 0
M  V30 5999 H 562.722 2.95858 -2.68901 0
M  V30 6000 H 564.162 3.73769 -2.00182 0
M  V30 6001 C 562.621 3.31946 -0.575628 0
M  V30 6002 O 563.151 4.00708 0.282152 0
M  V30 6003 N 561.357 2.87436 -0.427665 0
M  V30 6004 H 560.904 2.31652 -1.12674 0
M  V30 6005 H 560.862 3.11776 0.405379 0
M  V30 6006 N 564.634 1.40294 0.718013 0
M  V30 6007 C 565.862 1.4175 1.50714 0
M  V30 6008 C 566.277 0.0165366 1.88793 0
M  V30 6009 O 565.634 -0.958942 1.55276 0
M  V30 6010 C 565.685 2.30598 2.784 0
M  V30 6011 O 565.406 3.6524 2.41932 0
M  V30 6012 C 566.907 2.4062 3.72313 0
M  V30 6013 H 564.127 0.483565 0.465194 0
M  V30 6014 H 566.671 1.84316 0.885889 0
M  V30 6015 H 564.826 1.91401 3.36815 0
M  V30 6016 H 565.24 4.12402 3.24076 0
M  V30 6017 H 566.714 3.07001 4.58753 0
M  V30 6018 H 567.191 1.4305 4.15251 0
M  V30 6019 H 567.797 2.80359 3.19811 0
M  V30 6020 N 566.112 -0.949982 1.2575 0
M  V30 6021 C 567.34 -1.72972 1.13527 0
M  V30 6022 C 567.755 -1.8623 -0.310453 0
M  V30 6023 O 567.112 -1.36336 -1.2132 0
M  V30 6024 C 567.163 -3.14108 1.78936 0
M  V30 6025 O 566.884 -3.01493 3.17858 0
M  V30 6026 C 568.385 -4.08338 1.72554 0
M  V30 6027 H 565.605 -0.541864 0.395758 0
M  V30 6028 H 568.149 -1.19151 1.66202 0
M  V30 6029 H 566.304 -3.64858 1.30221 0
M  V30 6030 H 566.718 -3.90559 3.50092 0
M  V30 6031 H 568.192 -5.04963 2.22973 0
M  V30 6032 H 568.669 -4.33742 0.690251 0
M  V30 6033 H 569.275 -3.63506 2.2078 0
M  V30 6034 N 567.59 -1.07411 -1.15328 0
M  V30 6035 C 568.5 -0.706438 -2.23711 0
M  V30 6036 C 569.516 0.282586 -1.7169 0
M  V30 6037 O 570.692 0.129066 -2.00986 0
M  V30 6038 C 567.757 -0.11048 -3.46524 0
M  V30 6039 C 566.818 -1.15282 -4.13532 0
M  V30 6040 C 566.051 -0.585205 -5.30482 0
M  V30 6041 O 566.274 0.598549 -5.67251 0
M  V30 6042 O 565.208 -1.33039 -5.87013 0
M  V30 6043 H 569.034 -1.61031 -2.57493 0
M  V30 6044 H 566.619 -0.847113 -1.23062 0
M  V30 6045 H 568.501 0.21957 -4.20828 0
M  V30 6046 H 567.176 0.766703 -3.14489 0
M  V30 6047 H 566.083 -1.53523 -3.41147 0
M  V30 6048 H 567.416 -2.00192 -4.49649 0
M  V30 6049 N 569.068 1.32177 -0.85831 0
M  V30 6050 C 570.293 2.01847 -0.476718 0
M  V30 6051 C 570.718 1.64065 0.920021 0
M  V30 6052 O 570.076 0.843189 1.60499 0
M  V30 6053 C 570.124 3.55097 -0.627578 0
M  V30 6054 O 569.228 4.11012 0.338086 0
M  V30 6055 H 568.569 0.635907 -0.191099 0
M  V30 6056 H 571.099 1.68641 -1.15851 0
M  V30 6057 H 571.109 4.04718 -0.516476 0
M  V30 6058 H 569.784 3.81938 -1.64609 0
M  V30 6059 H 568.361 3.72451 0.182917 0
M  V30 6060 N 570.547 0.616602 1.45037 0
M  V30 6061 C 571.963 0.280994 1.57107 0
M  V30 6062 C 572.163 -1.21627 1.60653 0
M  V30 6063 O 571.219 -1.9997 1.54169 0
M  V30 6064 C 572.532 0.960116 2.8496 0
M  V30 6065 C 574.08 0.936884 2.98649 0
M  V30 6066 C 574.555 1.59619 4.29285 0
M  V30 6067 N 576.046 1.5621 4.36065 0
M  V30 6068 C 576.781 2.04131 5.35834 0
M  V30 6069 N 576.277 2.60177 6.4209 0
M  V30 6070 N 578.07 1.94845 5.27249 0
M  V30 6071 H 570.221 1.58867 1.40979 0
M  V30 6072 H 572.484 0.666024 0.674623 0
M  V30 6073 H 572.19 2.01473 2.88273 0
M  V30 6074 H 572.064 0.488921 3.74018 0
M  V30 6075 H 574.451 -0.109209 2.94898 0
M  V30 6076 H 574.532 1.44643 2.10979 0
M  V30 6077 H 574.176 2.64166 4.33796 0
M  V30 6078 H 574.106 1.06159 5.15789 0
M  V30 6079 H 576.597 1.15276 3.59889 0
M  V30 6080 H 576.91 2.94513 7.1448 0
M  V30 6081 H 575.255 2.64221 6.42816 0
M  V30 6082 H 578.446 1.50792 4.43147 0
M  V30 6083 H 578.619 2.32504 6.04852 0
M  V30 6084 N 572.025 -1.5352 0.356285 0
M  V30 6085 C 572.955 -2.28372 -0.486661 0
M  V30 6086 C 573.936 -1.30432 -1.09185 0
M  V30 6087 O 575.121 -1.59291 -1.11085 0
M  V30 6088 C 572.251 -3.06604 -1.63129 0
M  V30 6089 C 571.205 -4.12154 -1.15381 0
M  V30 6090 C 570.531 -4.78415 -2.38796 0
M  V30 6091 C 571.831 -5.21724 -0.245179 0
M  V30 6092 H 573.525 -2.99083 0.137797 0
M  V30 6093 H 571.071 -1.43841 0.0677134 0
M  V30 6094 H 573.024 -3.57712 -2.22755 0
M  V30 6095 H 571.748 -2.33568 -2.28284 0
M  V30 6096 H 570.407 -3.61978 -0.580294 0
M  V30 6097 H 570.055 -4.01959 -3.02387 0
M  V30 6098 H 569.755 -5.49734 -2.07524 0
M  V30 6099 H 571.279 -5.32313 -2.99125 0
M  V30 6100 H 572.693 -5.68391 -0.748646 0
M  V30 6101 H 571.09 -6.00095 -0.0237608 0
M  V30 6102 H 572.16 -4.79596 0.715229 0
M  V30 6103 N 573.503 -0.0852151 -1.57369 0
M  V30 6104 C 574.749 0.581666 -1.94279 0
M  V30 6105 C 575.082 1.68444 -0.966446 0
M  V30 6106 O 574.357 1.945 0.00215277 0
M  V30 6107 C 574.64 1.14609 -3.41375 0
M  V30 6108 C 574.493 0.0490414 -4.49773 0
M  V30 6109 C 575.812 2.04751 -3.8957 0
M  V30 6110 H 572.931 0.209972 -0.706456 0
M  V30 6111 H 575.573 -0.153915 -1.89376 0
M  V30 6112 H 573.723 1.77297 -3.45685 0
M  V30 6113 H 575.395 -0.584721 -4.57579 0
M  V30 6114 H 573.638 -0.618638 -4.29366 0
M  V30 6115 H 574.309 0.484601 -5.49869 0
M  V30 6116 H 576.785 1.51981 -3.87351 0
M  V30 6117 H 575.661 2.41173 -4.93079 0
M  V30 6118 H 575.922 2.96107 -3.28288 0
M  V30 6119 N 574.981 1.5647 0.188427 0
M  V30 6120 C 576.227 1.81281 0.909124 0
M  V30 6121 C 576.56 0.66034 1.82628 0
M  V30 6122 O 575.835 -0.338737 1.91528 0
M  V30 6123 C 576.118 3.16388 1.7196 0
M  V30 6124 C 575.971 4.42137 0.826714 0
M  V30 6125 C 577.29 3.48256 2.69083 0
M  V30 6126 H 574.409 0.659457 0.329068 0
M  V30 6127 H 577.051 1.89182 0.176156 0
M  V30 6128 H 575.201 3.09784 2.34448 0
M  V30 6129 H 576.873 4.60794 0.216025 0
M  V30 6130 H 575.116 4.33594 0.133792 0
M  V30 6131 H 575.787 5.33184 1.42893 0
M  V30 6132 H 578.263 3.55203 2.16726 0
M  V30 6133 H 577.139 4.43899 3.2287 0
M  V30 6134 H 577.4 2.72088 3.48455 0
M  V30 6135 N 576.459 -0.456382 1.50847 0
M  V30 6136 C 577.736 -1.21739 1.53098 0
M  V30 6137 C 578.116 -2.09179 0.284132 0
M  V30 6138 O 577.464 -2.16466 -0.731773 0
M  V30 6139 C 577.674 -2.03573 2.83477 0
M  V30 6140 C 579.022 -2.61264 3.34703 0
M  V30 6141 O 580.046 -2.13802 2.84898 0
M  V30 6142 O 578.905 -3.47779 4.21559 0
M  V30 6143 H 575.999 -0.553219 0.614718 0
M  V30 6144 H 578.545 -0.467003 1.63148 0
M  V30 6145 H 577.317 -1.39232 3.65691 0
M  V30 6146 H 576.94 -2.85716 2.76499 0
M  V30 6147 N 577.937 -1.40673 -0.710563 0
M  V30 6148 C 579.184 -1.39222 -1.47049 0
M  V30 6149 C 579.512 0.0037691 -1.945 0
M  V30 6150 O 578.767 0.989224 -1.68857 0
M  V30 6151 C 579.066 -2.33253 -2.70791 0
M  V30 6152 C 578.732 -3.80406 -2.42079 0
M  V30 6153 C 577.394 -4.20496 -2.33959 0
M  V30 6154 C 579.746 -4.73375 -2.18094 0
M  V30 6155 C 577.074 -5.51584 -1.99929 0
M  V30 6156 C 579.426 -6.04768 -1.85576 0
M  V30 6157 C 578.09 -6.43895 -1.75941 0
M  V30 6158 H 577.36 -0.509449 -0.538092 0
M  V30 6159 H 580.007 -1.73363 -0.81348 0
M  V30 6160 H 578.312 -1.92314 -3.41354 0
M  V30 6161 H 580.009 -2.29412 -3.28894 0
M  V30 6162 H 576.599 -3.48645 -2.49288 0
M  V30 6163 H 580.783 -4.43217 -2.23321 0
M  V30 6164 H 576.039 -5.80797 -1.91011 0
M  V30 6165 H 580.213 -6.76318 -1.66033 0
M  V30 6166 H 577.84 -7.45387 -1.4934 0
M  V30 6167 N 579.415 0.9433 -1.26252 0
M  V30 6168 C 580.64 1.72898 -1.14547 0
M  V30 6169 C 581.065 1.85761 0.295743 0
M  V30 6170 O 580.423 1.3463 1.21427 0
M  V30 6171 C 580.471 3.11471 -1.8171 0
M  V30 6172 O 579.575 3.97336 -1.10445 0
M  V30 6173 H 578.916 0.530555 -0.399259 0
M  V30 6174 H 581.446 1.18159 -1.67032 0
M  V30 6175 H 581.456 3.61872 -1.88449 0
M  V30 6176 H 580.131 3.01425 -2.86558 0
M  V30 6177 H 578.708 3.55788 -1.11666 0
M  V30 6178 N 580.893 1.08022 1.14757 0
M  V30 6179 C 581.825 0.664566 2.19354 0
M  V30 6180 C 582.838 -0.286374 1.60261 0
M  V30 6181 O 584.027 -0.0746362 1.78344 0
M  V30 6182 C 581.127 -0.0434634 3.38872 0
M  V30 6183 C 580.3 0.925381 4.27499 0
M  V30 6184 C 579.359 0.253398 5.2559 0
M  V30 6185 O 578.385 0.896581 5.62094 0
M  V30 6186 N 579.587 -0.998263 5.71852 0
M  V30 6187 H 582.352 1.56438 2.55631 0
M  V30 6188 H 579.913 0.965788 1.29939 0
M  V30 6189 H 581.905 -0.503857 4.01551 0
M  V30 6190 H 580.475 -0.845321 3.00954 0
M  V30 6191 H 579.695 1.56472 3.61815 0
M  V30 6192 H 580.983 1.58203 4.8358 0
M  V30 6193 H 580.381 -1.54063 5.44317 0
M  V30 6194 H 578.938 -1.40222 6.36538 0
M  V30 6195 N 582.371 -1.3172 0.865308 0
M  V30 6196 C 583.618 -1.96876 0.473931 0
M  V30 6197 C 583.946 -1.68425 -0.972786 0
M  V30 6198 O 583.201 -0.970742 -1.69927 0
M  V30 6199 C 583.5 -3.5102 0.672283 0
M  V30 6200 C 583.166 -3.9948 2.09108 0
M  V30 6201 C 581.828 -4.12425 2.4791 0
M  V30 6202 C 584.18 -4.2503 3.0166 0
M  V30 6203 C 581.508 -4.48267 3.78515 0
M  V30 6204 C 583.86 -4.62335 4.31774 0
M  V30 6205 C 582.524 -4.73486 4.70497 0
M  V30 6206 H 581.794 -0.72042 0.173424 0
M  V30 6207 H 584.441 -1.56937 1.0974 0
M  V30 6208 H 582.746 -3.91785 -0.034356 0
M  V30 6209 H 584.443 -3.99475 0.349353 0
M  V30 6210 H 581.033 -3.89898 1.77981 0
M  V30 6211 H 585.217 -4.14529 2.7291 0
M  V30 6212 H 580.473 -4.55097 4.08285 0
M  V30 6213 H 584.647 -4.81058 5.03543 0
M  V30 6214 H 582.274 -5.01016 5.71741 0
M  V30 6215 N 583.85 -0.624285 -1.44708 0
M  V30 6216 C 585.075 -0.131171 -2.06985 0
M  V30 6217 C 585.5 1.18234 -1.46295 0
M  V30 6218 O 584.858 1.72375 -0.561842 0
M  V30 6219 C 584.906 -0.0226724 -3.60593 0
M  V30 6220 O 584.01 1.02314 -3.99507 0
M  V30 6221 H 583.351 -0.0816556 -0.65896 0
M  V30 6222 H 585.88 -0.859027 -1.85693 0
M  V30 6223 H 585.891 0.170138 -4.07645 0
M  V30 6224 H 584.566 -0.981685 -4.04148 0
M  V30 6225 H 583.143 0.805452 -3.64097 0
M  V30 6226 N 585.328 1.53329 -0.364422 0
M  V30 6227 C 586.744 1.59594 -0.0133165 0
M  V30 6228 C 586.944 1.37959 1.46865 0
M  V30 6229 O 586 1.18418 2.2301 0
M  V30 6230 C 587.313 2.97032 -0.468213 0
M  V30 6231 C 588.861 3.10138 -0.422334 0
M  V30 6232 C 589.336 4.49986 -0.853024 0
M  V30 6233 N 590.827 4.56098 -0.808037 0
M  V30 6234 C 591.562 5.62495 -1.11299 0
M  V30 6235 N 591.058 6.7665 -1.48717 0
M  V30 6236 N 592.851 5.52473 -1.03586 0
M  V30 6237 H 585.002 1.65644 -1.32951 0
M  V30 6238 H 587.265 0.77684 -0.543345 0
M  V30 6239 H 586.971 3.18 -1.5023 0
M  V30 6240 H 586.845 3.76918 0.145775 0
M  V30 6241 H 589.232 2.88881 0.602622 0
M  V30 6242 H 589.313 2.32263 -1.0718 0
M  V30 6243 H 588.957 4.7198 -1.87609 0
M  V30 6244 H 588.887 5.26289 -0.180819 0
M  V30 6245 H 591.378 3.74131 -0.532361 0
M  V30 6246 H 591.691 7.53776 -1.70415 0
M  V30 6247 H 590.036 6.78044 -1.52581 0
M  V30 6248 H 593.227 4.6217 -0.742736 0
M  V30 6249 H 593.4 6.35295 -1.27686 0
M  V30 6250 N 586.806 0.0935595 1.57322 0
M  V30 6251 C 588.054 -0.569383 1.93913 0
M  V30 6252 C 588.375 -1.68817 0.976009 0
M  V30 6253 O 587.645 -1.9588 0.0278099 0
M  V30 6254 H 586.225 -0.21332 0.715894 0
M  V30 6255 H 588.887 0.156531 1.9427 0
M  V30 6256 H 587.983 -0.980577 2.96296 0
M  V30 6257 N 588.284 -1.56567 -0.180126 0
M  V30 6258 C 589.512 -1.85618 -0.913972 0
M  V30 6259 C 589.927 -0.677892 -1.7621 0
M  V30 6260 O 589.284 0.353171 -1.7905 0
M  V30 6261 C 589.335 -3.13619 -1.79793 0
M  V30 6262 O 589.056 -4.26906 -0.98402 0
M  V30 6263 C 590.557 -3.55954 -2.64219 0
M  V30 6264 H 587.777 -0.616043 -0.265954 0
M  V30 6265 H 590.321 -2.03681 -0.182872 0
M  V30 6266 H 588.476 -2.97409 -2.48247 0
M  V30 6267 H 588.89 -4.9989 -1.58776 0
M  V30 6268 H 590.364 -4.48444 -3.21873 0
M  V30 6269 H 590.841 -2.79653 -3.38661 0
M  V30 6270 H 591.447 -3.74746 -2.01111 0
M  V30 6271 N 589.762 0.448376 -1.51087 0
M  V30 6272 C 590.99 1.22143 -1.66999 0
M  V30 6273 C 591.405 1.85283 -0.362699 0
M  V30 6274 O 590.762 1.70236 0.65772 0
M  V30 6275 C 590.813 2.31357 -2.7777 0
M  V30 6276 O 590.534 1.70801 -4.03434 0
M  V30 6277 C 592.035 3.21836 -3.04855 0
M  V30 6278 H 589.255 0.368558 -0.560719 0
M  V30 6279 H 591.799 0.532618 -1.97442 0
M  V30 6280 H 589.954 2.95973 -2.49958 0
M  V30 6281 H 590.368 2.42895 -4.64868 0
M  V30 6282 H 591.842 3.94627 -3.85971 0
M  V30 6283 H 592.319 3.81949 -2.16821 0
M  V30 6284 H 592.925 2.62933 -3.34285 0
M  V30 6285 N 591.24 1.41047 0.703093 0
M  V30 6286 C 592.656 1.23351 1.01275 0
M  V30 6287 C 592.856 0.11754 2.01157 0
M  V30 6288 O 591.912 -0.520518 2.47077 0
M  V30 6289 C 593.225 2.58001 1.54454 0
M  V30 6290 C 594.773 2.65119 1.66376 0
M  V30 6291 C 595.248 4.00067 2.22958 0
M  V30 6292 N 596.739 4.01875 2.30328 0
M  V30 6293 C 597.474 5.03087 2.75119 0
M  V30 6294 N 596.97 6.14692 3.19571 0
M  V30 6295 N 598.763 4.90451 2.74616 0
M  V30 6296 H 590.914 2.1236 0.0412686 0
M  V30 6297 H 593.177 0.944543 0.08089 0
M  V30 6298 H 592.883 3.40378 0.88521 0
M  V30 6299 H 592.757 2.79962 2.52786 0
M  V30 6300 H 595.144 1.83106 2.31422 0
M  V30 6301 H 595.225 2.46975 0.666089 0
M  V30 6302 H 594.869 4.82526 1.58529 0
M  V30 6303 H 594.799 4.15547 3.23462 0
M  V30 6304 H 597.29 3.21291 1.98949 0
M  V30 6305 H 597.603 6.87799 3.52352 0
M  V30 6306 H 595.948 6.18239 3.17498 0
M  V30 6307 H 599.139 4.0235 2.39233 0
M  V30 6308 H 599.312 5.6947 3.09206 0
M  V30 6309 N 592.718 -0.936591 1.26751 0
M  V30 6310 C 593.964 -1.6858 1.12733 0
M  V30 6311 C 594.297 -1.91414 -0.327745 0
M  V30 6312 O 593.572 -1.49812 -1.24043 0
M  V30 6313 C 593.855 -3.05779 1.90187 0
M  V30 6314 C 593.708 -2.90242 3.43627 0
M  V30 6315 C 595.027 -4.0597 1.69931 0
M  V30 6316 H 592.146 -0.61182 0.410908 0
M  V30 6317 H 594.788 -1.08747 1.55801 0
M  V30 6318 H 592.938 -3.56853 1.53584 0
M  V30 6319 H 594.61 -2.46354 3.9001 0
M  V30 6320 H 592.853 -2.2577 3.70419 0
M  V30 6321 H 593.524 -3.87572 3.93055 0
M  V30 6322 H 596 -3.63874 2.0183 0
M  V30 6323 H 594.876 -4.99974 2.26534 0
M  V30 6324 H 595.137 -4.37369 0.64502 0
M  V30 6325 N 594.196 -1.08629 -1.14182 0
M  V30 6326 C 595.421 -0.83902 -1.89671 0
M  V30 6327 C 595.846 0.603332 -1.78161 0
M  V30 6328 O 595.204 1.42301 -1.12339 0
M  V30 6329 C 595.252 -1.26854 -3.37551 0
M  V30 6330 O 594.356 -0.42188 -4.10236 0
M  V30 6331 H 593.697 -0.304545 -0.590041 0
M  V30 6332 H 596.227 -1.4483 -1.44518 0
M  V30 6333 H 596.237 -1.25038 -3.88368 0
M  V30 6334 H 594.912 -2.31901 -3.45246 0
M  V30 6335 H 593.489 -0.503654 -3.69483 0
M  V30 6336 N 595.674 1.31259 -0.872281 0
M  V30 6337 C 596.92 1.973 -0.494414 0
M  V30 6338 C 597.275 1.67684 0.94339 0
M  V30 6339 O 596.568 0.964186 1.65572 0
M  V30 6340 C 596.762 3.50659 -0.690889 0
M  V30 6341 C 596.591 3.95179 -2.14624 0
M  V30 6342 C 595.361 4.21405 -2.7883 0
M  V30 6343 C 597.559 4.08948 -3.11875 0
M  V30 6344 N 595.541 4.52295 -4.15093 0
M  V30 6345 C 596.912 4.43576 -4.33174 0
M  V30 6346 C 598.967 3.91334 -3.07835 0
M  V30 6347 C 597.67 4.62429 -5.50956 0
M  V30 6348 C 599.696 4.11381 -4.24876 0
M  V30 6349 C 599.058 4.46343 -5.44938 0
M  V30 6350 H 595.157 0.747411 -0.230002 0
M  V30 6351 H 597.741 1.58741 -1.12736 0
M  V30 6352 H 595.912 3.88301 -0.0875162 0
M  V30 6353 H 597.644 4.03722 -0.281179 0
M  V30 6354 H 594.399 4.14131 -2.29767 0
M  V30 6355 H 594.823 4.71897 -4.8543 0
M  V30 6356 H 599.465 3.6339 -2.16119 0
M  V30 6357 H 597.183 4.8922 -6.43187 0
M  V30 6358 H 600.769 3.99235 -4.23205 0
M  V30 6359 H 599.649 4.6154 -6.33996 0
M  V30 6360 N 597.152 0.631951 1.44375 0
M  V30 6361 C 598.563 0.219036 1.85411 0
M  V30 6362 C 598.914 -1.22974 1.52879 0
M  V30 6363 O 598.039 -1.93579 0.967266 0
M  V30 6364 C 598.634 0.39075 3.36539 0
M  V30 6365 C 597.193 0.0323351 3.76386 0
M  V30 6366 C 596.34 0.703744 2.68221 0
M  V30 6367 H 599.291 0.837056 1.3483 0
M  V30 6368 H 599.312 -0.370056 3.78696 0
M  V30 6369 H 598.824 1.44527 3.60185 0
M  V30 6370 H 596.925 -1.02042 3.58355 0
M  V30 6371 H 597.038 0.442969 4.77048 0
M  V30 6372 H 595.402 0.138974 2.54321 0
M  V30 6373 H 596.185 1.76088 2.947 0
M  V30 6374 N 598.631 -1.53133 0.372548 0
M  V30 6375 C 599.578 -2.25951 -0.470631 0
M  V30 6376 C 600.548 -1.26895 -1.07176 0
M  V30 6377 O 601.733 -1.55691 -1.10294 0
M  V30 6378 C 598.873 -3.05726 -1.6008 0
M  V30 6379 C 597.986 -4.19684 -1.02416 0
M  V30 6380 C 597.121 -4.86888 -2.124 0
M  V30 6381 C 596.16 -5.92866 -1.52238 0
M  V30 6382 N 595.297 -6.53732 -2.56084 0
M  V30 6383 H 600.137 -2.97587 0.156816 0
M  V30 6384 H 597.674 -1.4683 0.0891571 0
M  V30 6385 H 599.632 -3.50258 -2.26661 0
M  V30 6386 H 598.262 -2.36331 -2.1988 0
M  V30 6387 H 597.314 -3.79588 -0.248426 0
M  V30 6388 H 598.626 -4.95821 -0.544366 0
M  V30 6389 H 597.78 -5.34638 -2.86787 0
M  V30 6390 H 596.519 -4.10239 -2.63734 0
M  V30 6391 H 595.524 -5.4447 -0.763685 0
M  V30 6392 H 596.749 -6.71439 -1.0172 0
M  V30 6393 H 594.695 -5.79932 -3.06618 0
M  V30 6394 H 594.612 -7.25429 -2.12811 0
M  V30 6395 H 595.88 -7.0613 -3.30152 0
M  V30 6396 N 600.109 -0.101901 -1.5727 0
M  V30 6397 C 601.356 0.560197 -1.94597 0
M  V30 6398 C 601.684 1.67767 -0.984101 0
M  V30 6399 O 600.939 1.95699 -0.00489193 0
M  V30 6400 C 601.238 1.14898 -3.38427 0
M  V30 6401 C 600.904 0.154613 -4.50635 0
M  V30 6402 C 599.566 -0.118861 -4.81053 0
M  V30 6403 C 601.918 -0.523979 -5.18559 0
M  V30 6404 C 599.246 -1.0775 -5.76721 0
M  V30 6405 C 601.598 -1.47114 -6.15256 0
M  V30 6406 C 600.262 -1.75278 -6.44076 0
M  V30 6407 H 599.532 0.204991 -0.712081 0
M  V30 6408 H 602.179 -0.17918 -1.9066 0
M  V30 6409 H 600.484 1.96476 -3.38976 0
M  V30 6410 H 602.181 1.66909 -3.64613 0
M  V30 6411 H 598.771 0.377948 -4.2693 0
M  V30 6412 H 602.955 -0.325851 -4.95229 0
M  V30 6413 H 598.211 -1.30263 -5.97362 0
M  V30 6414 H 602.385 -2.00274 -6.66981 0
M  V30 6415 H 600.012 -2.49717 -7.18015 0
M  V30 6416 N 601.587 1.56661 0.17182 0
M  V30 6417 C 602.55 1.9549 1.19651 0
M  V30 6418 C 603.55 0.838501 1.37207 0
M  V30 6419 O 604.74 1.10556 1.34622 0
M  V30 6420 C 601.872 2.24927 2.56166 0
M  V30 6421 H 603.065 2.87184 0.864007 0
M  V30 6422 H 600.618 1.50711 0.41425 0
M  V30 6423 H 601.353 1.35944 2.94431 0
M  V30 6424 H 601.138 3.06301 2.4479 0
M  V30 6425 H 602.628 2.55891 3.30014 0
M  V30 6426 N 603.065 -0.440357 1.51323 0
M  V30 6427 C 604.311 -1.19181 1.64085 0
M  V30 6428 C 604.644 -1.90936 0.354575 0
M  V30 6429 O 603.919 -1.8347 -0.645675 0
M  V30 6430 C 604.202 -2.2112 2.84215 0
M  V30 6431 C 604.055 -1.53468 4.22809 0
M  V30 6432 C 605.374 -3.22133 2.99864 0
M  V30 6433 H 602.493 -0.431924 0.597169 0
M  V30 6434 H 605.135 -0.481443 1.83799 0
M  V30 6435 H 603.285 -2.81703 2.67537 0
M  V30 6436 H 604.957 -0.962455 4.51148 0
M  V30 6437 H 603.2 -0.837086 4.25647 0
M  V30 6438 H 603.871 -2.27694 5.02852 0
M  V30 6439 H 606.347 -2.71601 3.15233 0
M  V30 6440 H 605.223 -3.90756 3.85488 0
M  V30 6441 H 605.484 -3.88061 2.11804 0
M  V30 6442 N 604.543 -1.41418 -0.695603 0
M  V30 6443 C 605.954 -1.36335 -1.27552 0
M  V30 6444 C 606.305 -0.0464336 -1.96145 0
M  V30 6445 O 605.43 0.855304 -1.9878 0
M  V30 6446 C 606.025 -2.46941 -2.3196 0
M  V30 6447 C 604.584 -2.45256 -2.85529 0
M  V30 6448 C 603.731 -2.2679 -1.59566 0
M  V30 6449 H 606.682 -1.50934 -0.490362 0
M  V30 6450 H 606.703 -2.15997 -3.1325 0
M  V30 6451 H 606.215 -3.42775 -1.82008 0
M  V30 6452 H 604.316 -1.53179 -3.39657 0
M  V30 6453 H 604.429 -3.41565 -3.35961 0
M  V30 6454 H 602.793 -1.74667 -1.85374 0
M  V30 6455 H 603.576 -3.24651 -1.1161 0
M  V30 6456 N 606.021 0.929856 -1.27246 0
M  V30 6457 C 606.969 2.05151 -1.09616 0
M  V30 6458 C 607.963 1.69388 -0.0198617 0
M  V30 6459 O 609.169 1.79124 -0.177417 0
M  V30 6460 H 605.544 0.671909 -0.337701 0
M  V30 6461 H 607.515 2.17168 -2.04648 0
M  V30 6462 C 606.264 3.3934 -0.757851 0
M  V30 6463 H 605.587 3.67343 -1.57795 0
M  V30 6464 H 607.027 4.18603 -0.674358 0
M  V30 6465 C 605.486 3.32582 0.537658 0
M  V30 6466 O 606.016 3.69633 1.57271 0
M  V30 6467 N 604.222 2.8568 0.532478 0
M  V30 6468 H 603.769 2.55725 -0.310233 0
M  V30 6469 H 603.727 2.81541 1.39936 0
M  V30 6470 N 607.499 1.09233 1.13605 0
M  V30 6471 C 608.429 0.751738 2.21068 0
M  V30 6472 C 609.41 -0.269688 1.67948 0
M  V30 6473 O 610.595 -0.13819 1.93708 0
M  V30 6474 C 607.725 0.16935 3.46887 0
M  V30 6475 C 606.679 1.12007 4.13084 0
M  V30 6476 C 606.005 0.399483 5.33206 0
M  V30 6477 C 607.305 2.46168 4.6065 0
M  V30 6478 H 608.999 1.65024 2.49815 0
M  V30 6479 H 606.545 0.794905 1.20072 0
M  V30 6480 H 608.498 -0.0809824 4.21322 0
M  V30 6481 H 607.222 -0.764335 3.1753 0
M  V30 6482 H 605.881 1.35564 3.40614 0
M  V30 6483 H 605.529 -0.538277 5.00112 0
M  V30 6484 H 605.229 1.03337 5.78442 0
M  V30 6485 H 606.753 0.157403 6.10397 0
M  V30 6486 H 608.167 2.26829 5.26518 0
M  V30 6487 H 606.564 3.05326 5.1662 0
M  V30 6488 H 607.634 3.07076 3.75276 0
M  V30 6489 N 608.977 -1.30795 0.87923 0
M  V30 6490 C 609.909 -2.27241 0.299025 0
M  V30 6491 C 610.922 -1.53472 -0.543166 0
M  V30 6492 O 612.111 -1.74756 -0.363651 0
M  V30 6493 C 609.211 -3.33655 -0.593931 0
M  V30 6494 C 608.384 -4.36857 0.2179 0
M  V30 6495 C 607.443 -5.22715 -0.604646 0
M  V30 6496 O 606.469 -5.69192 -0.0293838 0
M  V30 6497 N 607.671 -5.48008 -1.91488 0
M  V30 6498 H 610.436 -2.77667 1.12788 0
M  V30 6499 H 607.997 -1.43914 0.741637 0
M  V30 6500 H 609.989 -3.88013 -1.15012 0
M  V30 6501 H 608.559 -2.83202 -1.32346 0
M  V30 6502 H 607.779 -3.82444 0.955536 0
M  V30 6503 H 609.067 -5.02869 0.774614 0
M  V30 6504 H 608.465 -5.1202 -2.40525 0
M  V30 6505 H 607.022 -6.05264 -2.41864 0
M  V30 6506 N 610.455 -0.639598 -1.44038 0
M  V30 6507 C 611.68 -0.153117 -2.06834 0
M  V30 6508 C 612.105 1.16676 -1.47541 0
M  V30 6509 O 611.463 1.71769 -0.580093 0
M  V30 6510 C 611.511 -0.0609169 -3.60549 0
M  V30 6511 O 610.615 0.98071 -4.00569 0
M  V30 6512 H 609.956 -0.0886402 -0.658057 0
M  V30 6513 H 612.486 -0.878674 -1.84771 0
M  V30 6514 H 612.496 0.126892 -4.07803 0
M  V30 6515 H 611.171 -1.0245 -4.03084 0
M  V30 6516 H 609.748 0.766789 -3.64931 0
M  V30 6517 N 611.933 1.52934 -0.380664 0
M  V30 6518 C 612.863 2.29118 0.450268 0
M  V30 6519 C 613.844 1.32153 1.07096 0
M  V30 6520 O 615.029 1.61038 1.08537 0
M  V30 6521 C 612.159 3.09161 1.58231 0
M  V30 6522 C 611.113 4.13938 1.0881 0
M  V30 6523 C 610.439 4.82153 2.31155 0
M  V30 6524 C 611.739 5.22048 0.162146 0
M  V30 6525 H 613.433 2.98826 -0.185361 0
M  V30 6526 H 610.979 1.43715 -0.0905886 0
M  V30 6527 H 612.932 3.61211 2.17036 0
M  V30 6528 H 611.656 2.3717 2.2454 0
M  V30 6529 H 610.315 3.62855 0.522633 0
M  V30 6530 H 609.963 4.06719 2.95953 0
M  V30 6531 H 609.663 5.52966 1.98752 0
M  V30 6532 H 611.187 5.37004 2.90618 0
M  V30 6533 H 612.601 5.6951 0.658126 0
M  V30 6534 H 610.998 6.00057 -0.0717122 0
M  V30 6535 H 612.068 4.78398 -0.791438 0
M  V30 6536 N 613.412 0.11024 1.57214 0
M  V30 6537 C 614.64 -0.557834 1.99238 0
M  V30 6538 C 615.055 -1.60778 0.989734 0
M  V30 6539 O 614.412 -1.82491 -0.0186092 0
M  V30 6540 C 614.463 -1.19189 3.41286 0
M  V30 6541 O 614.184 -0.183919 4.37714 0
M  V30 6542 C 615.685 -1.94413 3.98395 0
M  V30 6543 H 612.905 -0.148392 0.654386 0
M  V30 6544 H 615.449 0.193996 2.03578 0
M  V30 6545 H 613.604 -1.89456 3.37913 0
M  V30 6546 H 614.018 -0.643475 5.20538 0
M  V30 6547 H 615.492 -2.34116 4.99894 0
M  V30 6548 H 615.969 -2.81592 3.3705 0
M  V30 6549 H 616.575 -1.28928 4.05287 0
M  V30 6550 N 614.89 -1.56749 -0.16351 0
M  V30 6551 C 615.838 -1.97939 -1.22159 0
M  V30 6552 C 616.832 -0.869288 -1.45395 0
M  V30 6553 O 618.038 -1.05443 -1.45883 0
M  V30 6554 H 614.413 -0.629869 -0.410815 0
M  V30 6555 H 616.384 -2.86115 -0.847381 0
M  V30 6556 C 615.133 -2.36206 -2.55151 0
M  V30 6557 H 614.456 -3.2117 -2.38097 0
M  V30 6558 H 615.896 -2.68863 -3.27854 0
M  V30 6559 C 614.355 -1.20841 -3.14482 0
M  V30 6560 O 614.885 -0.500258 -3.98573 0
M  V30 6561 N 613.091 -0.976943 -2.73686 0
M  V30 6562 H 612.638 -1.55457 -2.05404 0
M  V30 6563 H 612.596 -0.206912 -3.13718 0
M  V30 6564 N 616.368 0.432326 -1.51554 0
M  V30 6565 C 617.298 1.53242 -1.76179 0
M  V30 6566 C 618.279 1.58717 -0.611801 0
M  V30 6567 O 619.464 1.74364 -0.855033 0
M  V30 6568 C 616.594 2.91278 -1.89141 0
M  V30 6569 C 615.548 3.00663 -3.04608 0
M  V30 6570 C 614.874 4.40728 -3.02759 0
M  V30 6571 C 616.174 2.74281 -4.44485 0
M  V30 6572 H 617.868 1.32886 -2.68294 0
M  V30 6573 H 615.414 0.637841 -1.29103 0
M  V30 6574 H 617.367 3.68203 -2.04951 0
M  V30 6575 H 616.091 3.12877 -0.936785 0
M  V30 6576 H 614.75 2.26179 -2.88511 0
M  V30 6577 H 614.398 4.59301 -2.05065 0
M  V30 6578 H 614.098 4.47936 -3.80299 0
M  V30 6579 H 615.622 5.19619 -3.20669 0
M  V30 6580 H 617.036 3.40936 -4.60907 0
M  V30 6581 H 615.433 2.92893 -5.23769 0
M  V30 6582 H 616.503 1.69856 -4.54177 0
M  V30 6583 N 617.846 1.41785 0.688094 0
M  V30 6584 C 618.776 1.47 1.8142 0
M  V30 6585 C 619.757 0.327881 1.6691 0
M  V30 6586 O 620.942 0.540362 1.86531 0
M  V30 6587 C 618.072 1.35876 3.19617 0
M  V30 6588 C 617.026 2.47976 3.48844 0
M  V30 6589 C 616.352 2.21915 4.86475 0
M  V30 6590 C 617.652 3.90309 3.47068 0
M  V30 6591 H 619.346 2.41247 1.77314 0
M  V30 6592 H 616.892 1.16116 0.851651 0
M  V30 6593 H 618.845 1.38134 3.98117 0
M  V30 6594 H 617.569 0.38116 3.24368 0
M  V30 6595 H 616.228 2.45013 2.72698 0
M  V30 6596 H 615.876 1.2248 4.8786 0
M  V30 6597 H 615.576 2.97037 5.06994 0
M  V30 6598 H 617.1 2.25901 5.67275 0
M  V30 6599 H 618.514 3.94947 4.1556 0
M  V30 6600 H 616.911 4.65175 3.7912 0
M  V30 6601 H 617.981 4.17927 2.45896 0
M  V30 6602 N 619.324 -0.923095 1.27737 0
M  V30 6603 C 620.549 -1.71054 1.17283 0
M  V30 6604 C 620.974 -1.86208 -0.266153 0
M  V30 6605 O 620.332 -1.36545 -1.1927 0
M  V30 6606 C 620.38 -3.0854 1.86642 0
M  V30 6607 O 619.484 -3.95528 1.16752 0
M  V30 6608 H 618.825 -0.524136 0.407649 0
M  V30 6609 H 621.355 -1.15487 1.6889 0
M  V30 6610 H 621.365 -3.58828 1.94182 0
M  V30 6611 H 620.04 -2.96828 2.91317 0
M  V30 6612 H 618.617 -3.53967 1.17312 0
M  V30 6613 N 620.802 -1.09834 -1.13024 0
M  V30 6614 C 622.027 -0.85909 -1.88771 0
M  V30 6615 C 622.452 0.584402 -1.78791 0
M  V30 6616 O 621.81 1.41101 -1.13842 0
M  V30 6617 C 621.858 -1.30427 -3.36186 0
M  V30 6618 O 620.962 -0.465368 -4.09766 0
M  V30 6619 H 620.303 -0.310786 -0.586778 0
M  V30 6620 H 622.833 -1.46355 -1.42973 0
M  V30 6621 H 622.843 -1.2915 -3.8702 0
M  V30 6622 H 621.518 -2.3555 -3.42767 0
M  V30 6623 H 620.095 -0.542814 -3.68928 0
M  V30 6624 N 622.28 1.30327 -0.886154 0
M  V30 6625 C 623.228 2.30052 -0.343317 0
M  V30 6626 C 624.222 1.60212 0.550305 0
M  V30 6627 O 625.428 1.74674 0.434609 0
M  V30 6628 H 621.803 0.746306 -0.0923681 0
M  V30 6629 H 623.774 2.73294 -1.19804 0
M  V30 6630 C 622.523 3.45079 0.426107 0
M  V30 6631 H 621.846 3.99003 -0.25227 0
M  V30 6632 H 623.286 4.16931 0.771009 0
M  V30 6633 C 621.745 2.95195 1.62363 0
M  V30 6634 O 622.275 2.95323 2.723 0
M  V30 6635 N 620.481 2.51192 1.4612 0
M  V30 6636 H 620.028 2.51286 0.566832 0
M  V30 6637 H 619.986 2.18173 2.2638 0
M  V30 6638 N 623.758 0.647228 1.43697 0
M  V30 6639 C 624.688 -0.0345631 2.33474 0
M  V30 6640 C 625.669 -0.818193 1.4913 0
M  V30 6641 O 626.854 -0.780867 1.77809 0
M  V30 6642 C 623.984 -1.00576 3.32418 0
M  V30 6643 C 622.938 -0.33266 4.26705 0
M  V30 6644 C 622.264 -1.41489 5.1564 0
M  V30 6645 C 623.564 0.771204 5.16575 0
M  V30 6646 H 625.258 0.715163 2.90733 0
M  V30 6647 H 622.804 0.345364 1.39797 0
M  V30 6648 H 624.757 -1.49159 3.94119 0
M  V30 6649 H 623.481 -1.78657 2.73403 0
M  V30 6650 H 622.14 0.13267 3.6636 0
M  V30 6651 H 621.788 -2.18698 4.52968 0
M  V30 6652 H 621.488 -0.969799 5.79542 0
M  V30 6653 H 623.012 -1.9022 5.80214 0
M  V30 6654 H 624.426 0.36779 5.72119 0
M  V30 6655 H 622.823 1.1404 5.89165 0
M  V30 6656 H 623.893 1.63169 4.56622 0
M  V30 6657 N 625.236 -1.5273 0.388769 0
M  V30 6658 C 626.461 -2.0647 -0.19621 0
M  V30 6659 C 626.886 -1.25865 -1.39784 0
M  V30 6660 O 626.244 -0.283562 -1.79069 0
M  V30 6661 C 626.292 -3.56456 -0.5451 0
M  V30 6662 O 625.396 -3.78426 -1.63912 0
M  V30 6663 H 624.737 -0.663599 -0.023067 0
M  V30 6664 H 627.267 -1.96898 0.556084 0
M  V30 6665 H 627.277 -3.99888 -0.809557 0
M  V30 6666 H 625.952 -4.14561 0.333417 0
M  V30 6667 H 624.529 -3.46884 -1.36842 0
M  V30 6668 N 626.714 -0.118576 -1.57153 0
M  V30 6669 C 627.96 0.534078 -1.96263 0
M  V30 6670 C 628.315 1.64316 -1.0009 0
M  V30 6671 O 627.608 1.91575 -0.0308582 0
M  V30 6672 C 627.802 1.11303 -3.39627 0
M  V30 6673 C 627.631 0.0615624 -4.49658 0
M  V30 6674 C 626.401 -0.370103 -5.03943 0
M  V30 6675 C 628.599 -0.719249 -5.09246 0
M  V30 6676 N 626.581 -1.40738 -5.9755 0
M  V30 6677 C 627.952 -1.60774 -5.98792 0
M  V30 6678 C 630.007 -0.770183 -4.91907 0
M  V30 6679 C 628.71 -2.54272 -6.72858 0
M  V30 6680 C 630.736 -1.69288 -5.66653 0
M  V30 6681 C 630.098 -2.56894 -6.55885 0
M  V30 6682 H 626.197 0.165072 -0.764379 0
M  V30 6683 H 628.781 -0.206596 -1.93601 0
M  V30 6684 H 626.952 1.82342 -3.42937 0
M  V30 6685 H 628.684 1.72996 -3.65861 0
M  V30 6686 H 625.439 0.0222121 -4.73595 0
M  V30 6687 H 625.863 -1.92493 -6.49057 0
M  V30 6688 H 630.505 -0.106999 -4.22665 0
M  V30 6689 H 628.223 -3.21605 -7.41347 0
M  V30 6690 H 631.809 -1.73772 -5.55243 0
M  V30 6691 H 630.689 -3.27131 -7.1271 0
M  V30 6692 N 628.193 1.56834 0.155195 0
M  V30 6693 C 629.123 2.00678 1.19376 0
M  V30 6694 C 630.104 0.884973 1.45266 0
M  V30 6695 O 631.289 1.1522 1.56326 0
M  V30 6696 C 628.419 2.38042 2.5289 0
M  V30 6697 C 627.373 3.53332 2.41538 0
M  V30 6698 C 626.699 3.76485 3.79688 0
M  V30 6699 C 627.999 4.86265 1.9064 0
M  V30 6700 H 629.693 2.87688 0.829232 0
M  V30 6701 H 627.239 1.38407 0.397445 0
M  V30 6702 H 629.192 2.67314 3.25763 0
M  V30 6703 H 627.916 1.4796 2.91162 0
M  V30 6704 H 626.575 3.24213 1.71117 0
M  V30 6705 H 626.223 2.83667 4.15382 0
M  V30 6706 H 625.923 4.54068 3.72956 0
M  V30 6707 H 627.447 4.08174 4.54122 0
M  V30 6708 H 628.861 5.14308 2.53299 0
M  V30 6709 H 627.258 5.67597 1.94818 0
M  V30 6710 H 628.328 4.77184 0.861596 0
M  V30 6711 N 629.671 -0.424282 1.51781 0
M  V30 6712 C 630.896 -1.19928 1.6921 0
M  V30 6713 C 631.321 -1.8392 0.394355 0
M  V30 6714 O 630.679 -1.69371 -0.646778 0
M  V30 6715 C 630.727 -2.24937 2.81843 0
M  V30 6716 O 629.831 -3.3073 2.46356 0
M  V30 6717 H 629.172 -0.35078 0.563781 0
M  V30 6718 H 631.702 -0.499401 1.98412 0
M  V30 6719 H 631.712 -2.69512 3.06312 0
M  V30 6720 H 630.387 -1.77742 3.76006 0
M  V30 6721 H 628.964 -2.9154 2.32505 0
M  V30 6722 N 631.149 -1.42148 -0.680565 0
M  V30 6723 C 632.079 -1.4796 -1.80638 0
M  V30 6724 C 633.06 -0.336728 -1.66734 0
M  V30 6725 O 634.245 -0.550247 -1.86242 0
M  V30 6726 C 631.375 -1.37569 -3.18892 0
M  V30 6727 C 630.329 -2.49823 -3.47524 0
M  V30 6728 C 629.655 -2.24491 -4.85291 0
M  V30 6729 C 630.955 -3.92144 -3.44994 0
M  V30 6730 H 632.649 -2.42184 -1.76032 0
M  V30 6731 H 630.195 -1.16566 -0.845481 0
M  V30 6732 H 632.148 -1.40243 -3.97379 0
M  V30 6733 H 630.872 -0.398357 -3.24162 0
M  V30 6734 H 629.531 -2.46455 -2.71395 0
M  V30 6735 H 629.179 -1.25066 -4.87204 0
M  V30 6736 H 628.879 -2.99722 -5.05411 0
M  V30 6737 H 630.403 -2.28906 -5.66069 0
M  V30 6738 H 631.817 -3.97145 -4.13459 0
M  V30 6739 H 630.214 -4.67179 -3.76648 0
M  V30 6740 H 631.284 -4.19225 -2.43676 0
M  V30 6741 N 632.627 0.916307 -1.28225 0
M  V30 6742 C 633.904 1.64429 -1.05936 0
M  V30 6743 C 634.284 2.07234 0.402139 0
M  V30 6744 O 633.632 1.81535 1.3877 0
M  V30 6745 C 633.842 2.83773 -2.03159 0
M  V30 6746 C 635.19 3.54852 -2.33164 0
M  V30 6747 O 636.214 2.93918 -2.01223 0
M  V30 6748 O 635.073 4.64663 -2.87664 0
M  V30 6749 H 632.167 0.721221 -0.404683 0
M  V30 6750 H 634.713 0.965838 -1.39534 0
M  V30 6751 H 633.485 2.49217 -3.01673 0
M  V30 6752 H 633.108 3.59333 -1.70192 0
M  V30 6753 N 634.105 1.10431 1.1244 0
M  V30 6754 C 635.351 0.847972 1.84221 0
M  V30 6755 C 635.684 -0.624903 1.83871 0
M  V30 6756 O 634.959 -1.46074 1.28423 0
M  V30 6757 C 635.242 1.39695 3.319 0
M  V30 6758 C 635.095 2.93668 3.40704 0
M  V30 6759 C 636.414 1.03924 4.27654 0
M  V30 6760 H 633.533 0.309502 0.668863 0
M  V30 6761 H 636.175 1.36745 1.31912 0
M  V30 6762 H 634.325 0.955095 3.76577 0
M  V30 6763 H 635.997 3.46379 3.04662 0
M  V30 6764 H 634.24 3.30272 2.81252 0
M  V30 6765 H 634.911 3.27162 4.446 0
M  V30 6766 H 637.387 1.42049 3.91102 0
M  V30 6767 H 636.263 1.45027 5.29394 0
M  V30 6768 H 636.524 -0.051336 4.4207 0
M  V30 6769 N 635.583 -1.29855 0.893053 0
M  V30 6770 C 636.808 -2.00512 0.530066 0
M  V30 6771 C 637.233 -1.66446 -0.876199 0
M  V30 6772 O 636.591 -0.885446 -1.58207 0
M  V30 6773 C 636.639 -3.53308 0.721505 0
M  V30 6774 O 635.743 -4.11764 -0.228994 0
M  V30 6775 H 635.084 -0.630617 0.207891 0
M  V30 6776 H 637.614 -1.6551 1.20282 0
M  V30 6777 H 637.624 -4.03206 0.623599 0
M  V30 6778 H 636.299 -3.77439 1.74678 0
M  V30 6779 H 634.876 -3.72805 -0.0841034 0
M  V30 6780 N 637.061 -0.65484 -1.43351 0
M  V30 6781 C 638.024 0.0263562 -2.29185 0
M  V30 6782 C 639.024 0.748951 -1.42293 0
M  V30 6783 O 640.214 0.589957 -1.63906 0
M  V30 6784 C 637.346 1.04806 -3.2439 0
M  V30 6785 H 638.539 -0.728883 -2.90908 0
M  V30 6786 H 636.092 -0.416149 -1.50658 0
M  V30 6787 H 636.827 1.83247 -2.67565 0
M  V30 6788 H 636.612 0.533554 -3.88453 0
M  V30 6789 H 638.102 1.52372 -3.88809 0
M  V30 6790 N 638.539 1.52521 -0.396863 0
M  V30 6791 C 639.502 2.2527 0.422604 0
M  V30 6792 C 640.502 1.27184 0.983913 0
M  V30 6793 O 641.692 1.51222 0.864723 0
M  V30 6794 C 638.824 3.01356 1.59365 0
M  V30 6795 H 640.017 2.99133 -0.214416 0
M  V30 6796 H 637.57 1.55587 -0.149128 0
M  V30 6797 H 638.305 2.31813 2.26789 0
M  V30 6798 H 638.09 3.73357 1.19779 0
M  V30 6799 H 639.58 3.56571 2.17363 0
M  V30 6800 N 640.017 0.126909 1.57088 0
M  V30 6801 C 641.264 -0.529168 1.95464 0
M  V30 6802 C 641.592 -1.6618 1.01067 0
M  V30 6803 O 640.847 -1.95667 0.0360254 0
M  V30 6804 C 641.146 -1.095 3.40212 0
M  V30 6805 C 640.812 -0.0829015 4.50824 0
M  V30 6806 C 639.474 0.195377 4.80803 0
M  V30 6807 C 641.826 0.606411 5.1766 0
M  V30 6808 C 639.154 1.16912 5.74933 0
M  V30 6809 C 641.506 1.56884 6.12838 0
M  V30 6810 C 640.17 1.85502 6.41206 0
M  V30 6811 H 639.44 -0.193636 0.715252 0
M  V30 6812 H 642.087 0.209489 1.90351 0
M  V30 6813 H 640.392 -1.91058 3.42059 0
M  V30 6814 H 642.089 -1.61087 3.67222 0
M  V30 6815 H 638.679 -0.309979 4.27478 0
M  V30 6816 H 642.863 0.404597 4.94648 0
M  V30 6817 H 638.119 1.3975 5.95214 0
M  V30 6818 H 642.293 2.10859 6.6371 0
M  V30 6819 H 639.92 2.61109 7.13951 0
M  V30 6820 N 641.495 -1.56914 -0.146875 0
M  V30 6821 C 642.725 -1.87243 -0.873126 0
M  V30 6822 C 643.133 -0.713127 -1.75246 0
M  V30 6823 O 642.476 0.326228 -1.8078 0
M  V30 6824 C 642.538 -3.12279 -1.78107 0
M  V30 6825 C 642.202 -4.44082 -1.07889 0
M  V30 6826 C 643.199 -5.18096 -0.432734 0
M  V30 6827 C 640.884 -4.90807 -1.06836 0
M  V30 6828 C 642.878 -6.37039 0.214569 0
M  V30 6829 C 640.565 -6.09674 -0.417243 0
M  V30 6830 C 641.563 -6.82636 0.223093 0
M  V30 6831 O 641.251 -7.99245 0.863884 0
M  V30 6832 H 640.983 -0.624896 -0.257839 0
M  V30 6833 H 643.537 -2.04892 -0.14434 0
M  V30 6834 H 641.767 -2.90639 -2.5508 0
M  V30 6835 H 643.456 -3.28854 -2.37929 0
M  V30 6836 H 644.222 -4.83066 -0.432677 0
M  V30 6837 H 640.101 -4.3394 -1.55618 0
M  V30 6838 H 643.645 -6.93927 0.714965 0
M  V30 6839 H 639.542 -6.44165 -0.414967 0
M  V30 6840 H 640.31 -8.14912 0.765564 0
M  V30 6841 N 642.974 0.416227 -1.52004 0
M  V30 6842 C 643.924 1.50558 -1.7122 0
M  V30 6843 C 644.908 1.50613 -0.56609 0
M  V30 6844 O 646.1 1.56709 -0.822874 0
M  V30 6845 C 643.229 2.88556 -1.85984 0
M  V30 6846 C 642.315 2.93177 -3.06445 0
M  V30 6847 N 642.706 2.67505 -4.29272 0
M  V30 6848 C 641.004 3.24343 -3.06133 0
M  V30 6849 C 641.705 2.78511 -5.10692 0
M  V30 6850 N 640.681 3.11087 -4.45787 0
M  V30 6851 H 644.483 1.29494 -2.63834 0
M  V30 6852 H 641.997 0.62384 -1.4994 0
M  V30 6853 H 643.994 3.66954 -1.97865 0
M  V30 6854 H 642.654 3.10624 -0.945654 0
M  V30 6855 H 643.665 2.42033 -4.57865 0
M  V30 6856 H 640.342 3.52051 -2.24425 0
M  V30 6857 H 641.732 2.62438 -6.18527 0
M  V30 6858 N 644.452 1.42507 0.673017 0
M  V30 6859 C 645.382 1.48916 1.79851 0
M  V30 6860 C 646.363 0.345566 1.66553 0
M  V30 6861 O 647.548 0.560116 1.85947 0
M  V30 6862 C 644.678 1.39258 3.18158 0
M  V30 6863 C 643.632 2.51662 3.46194 0
M  V30 6864 C 642.958 2.27062 4.84094 0
M  V30 6865 C 644.258 3.93968 3.42909 0
M  V30 6866 H 645.952 2.43114 1.74745 0
M  V30 6867 H 643.498 1.17013 0.839288 0
M  V30 6868 H 645.451 1.42349 3.96629 0
M  V30 6869 H 644.175 0.415542 3.23946 0
M  V30 6870 H 642.834 2.47891 2.70084 0
M  V30 6871 H 642.482 1.27648 4.86534 0
M  V30 6872 H 642.182 3.02398 5.03815 0
M  V30 6873 H 643.706 2.31905 5.64847 0
M  V30 6874 H 645.12 3.99332 4.11347 0
M  V30 6875 H 643.517 4.6917 3.74165 0
M  V30 6876 H 644.587 4.20512 2.41449 0
M  V30 6877 N 645.93 -0.909495 1.28709 0
M  V30 6878 C 647.341 -1.47419 1.14563 0
M  V30 6879 C 647.692 -1.94432 -0.262832 0
M  V30 6880 O 646.817 -1.82842 -1.15748 0
M  V30 6881 C 647.412 -2.67933 2.07358 0
M  V30 6882 C 645.971 -3.20568 1.97264 0
M  V30 6883 C 645.118 -1.93269 1.98852 0
M  V30 6884 H 648.069 -0.721787 1.41336 0
M  V30 6885 H 648.09 -3.43339 1.64007 0
M  V30 6886 H 647.602 -2.33685 3.09859 0
M  V30 6887 H 645.703 -3.59531 0.978157 0
M  V30 6888 H 645.816 -3.85529 2.84436 0
M  V30 6889 H 644.18 -2.10553 1.43317 0
M  V30 6890 H 644.963 -1.61312 3.0304 0
M  V30 6891 N 647.408 -1.11026 -1.11852 0
M  V30 6892 C 648.338 -0.786812 -2.19844 0
M  V30 6893 C 649.319 0.242935 -1.68356 0
M  V30 6894 O 650.504 0.107355 -1.93903 0
M  V30 6895 C 647.634 -0.224516 -3.46574 0
M  V30 6896 C 646.588 -1.18564 -4.1125 0
M  V30 6897 C 645.914 -0.484261 -5.32503 0
M  V30 6898 C 647.214 -2.53465 -4.56676 0
M  V30 6899 H 648.908 -1.68978 -2.47158 0
M  V30 6900 H 646.454 -0.813906 -1.18792 0
M  V30 6901 H 648.407 0.0139435 -4.21398 0
M  V30 6902 H 647.131 0.713722 -3.18706 0
M  V30 6903 H 645.79 -1.40966 -3.38414 0
M  V30 6904 H 645.438 0.458646 -5.00905 0
M  V30 6905 H 645.138 -1.12526 -5.76725 0
M  V30 6906 H 646.662 -0.254492 -6.10069 0
M  V30 6907 H 648.076 -2.35177 -5.22843 0
M  V30 6908 H 646.473 -3.13507 -5.11697 0
M  V30 6909 H 647.543 -3.13008 -3.70343 0
M  V30 6910 N 648.886 1.2938 -0.899927 0
M  V30 6911 C 649.836 2.25311 -0.349165 0
M  V30 6912 C 650.82 1.51889 0.530892 0
M  V30 6913 O 652.012 1.73028 0.372872 0
M  V30 6914 C 649.141 3.40696 0.422055 0
M  V30 6915 C 648.227 4.21455 -0.472935 0
M  V30 6916 N 648.618 4.8048 -1.58026 0
M  V30 6917 C 646.916 4.45177 -0.270767 0
M  V30 6918 C 647.617 5.41117 -2.13465 0
M  V30 6919 N 646.593 5.24518 -1.42766 0
M  V30 6920 H 650.395 2.68507 -1.19505 0
M  V30 6921 H 647.909 1.43992 -0.751006 0
M  V30 6922 H 649.906 4.08486 0.833369 0
M  V30 6923 H 648.566 2.99037 1.2652 0
M  V30 6924 H 649.577 4.79257 -1.96299 0
M  V30 6925 H 646.254 4.14071 0.533988 0
M  V30 6926 H 647.644 5.979 -3.06537 0
M  V30 6927 N 650.364 0.662433 1.43002 0
M  V30 6928 C 651.775 0.258315 1.84904 0
M  V30 6929 C 652.126 -1.19703 1.55453 0
M  V30 6930 O 651.251 -1.91484 1.00811 0
M  V30 6931 C 651.846 0.462047 3.35635 0
M  V30 6932 C 650.405 0.112165 3.76233 0
M  V30 6933 C 649.552 0.760479 2.66668 0
M  V30 6934 H 652.503 0.865467 1.33024 0
M  V30 6935 H 652.524 -0.289646 3.79396 0
M  V30 6936 H 652.036 1.52135 3.57039 0
M  V30 6937 H 650.137 -0.944179 3.60439 0
M  V30 6938 H 650.25 0.544058 4.76001 0
M  V30 6939 H 648.614 0.192887 2.53969 0
M  V30 6940 H 649.397 1.82299 2.90898 0
M  V30 6941 N 651.842 -1.52309 0.404946 0
M  V30 6942 C 652.805 -2.25491 -0.410651 0
M  V30 6943 C 653.805 -1.27704 -0.977154 0
M  V30 6944 O 654.995 -1.51679 -0.856691 0
M  V30 6945 C 652.127 -3.02197 -1.57765 0
M  V30 6946 H 653.32 -2.99015 0.230277 0
M  V30 6947 H 650.873 -1.55506 0.157377 0
M  V30 6948 H 651.608 -2.33013 -2.25556 0
M  V30 6949 H 651.393 -3.73987 -1.17797 0
M  V30 6950 H 652.883 -3.57719 -2.15469 0
M  V30 6951 N 653.32 -0.135238 -1.57019 0
M  V30 6952 C 654.283 0.794707 -2.14981 0
M  V30 6953 C 655.283 1.18342 -1.08866 0
M  V30 6954 O 656.473 1.10627 -1.34563 0
M  V30 6955 C 653.605 2.07685 -2.70333 0
M  V30 6956 H 654.798 0.290696 -2.98488 0
M  V30 6957 H 652.351 0.114128 -1.55883 0
M  V30 6958 H 653.086 2.6248 -1.9046 0
M  V30 6959 H 652.871 1.80745 -3.47957 0
M  V30 6960 H 654.361 2.74127 -3.1503 0
M  V30 6961 N 654.798 1.5699 0.138552 0
M  V30 6962 C 655.731 1.94064 1.2006 0
M  V30 6963 C 656.709 0.807601 1.41126 0
M  V30 6964 O 657.893 1.06399 1.556 0
M  V30 6965 C 655.02 2.21999 2.55801 0
M  V30 6966 C 654.066 3.44617 2.5128 0
M  V30 6967 S 654.899 4.97888 1.97149 0
M  V30 6968 C 656.055 5.28954 3.34602 0
M  V30 6969 H 656.288 2.83843 0.884337 0
M  V30 6970 H 653.821 1.50507 0.344517 0
M  V30 6971 H 655.779 2.38772 3.33914 0
M  V30 6972 H 654.44 1.32869 2.84613 0
M  V30 6973 H 653.633 3.61466 3.51224 0
M  V30 6974 H 653.235 3.27129 1.8128 0
M  V30 6975 H 655.527 5.22938 4.30745 0
M  V30 6976 H 656.47 6.30346 3.22598 0
M  V30 6977 H 656.878 4.56455 3.32128 0
M  V30 6978 N 656.276 -0.40816 1.52223 0
M  V30 6979 C 657.687 -0.986929 1.58482 0
M  V30 6980 C 658.038 -1.91521 0.425917 0
M  V30 6981 O 657.163 -2.11593 -0.453593 0
M  V30 6982 C 657.758 -1.7967 2.87235 0
M  V30 6983 C 656.317 -2.32549 2.9597 0
M  V30 6984 C 655.464 -1.12558 2.53428 0
M  V30 6985 H 658.415 -0.188362 1.57578 0
M  V30 6986 H 658.436 -2.65417 2.72642 0
M  V30 6987 H 657.948 -1.12082 3.71563 0
M  V30 6988 H 656.049 -3.03505 2.16137 0
M  V30 6989 H 656.162 -2.63348 4.00231 0
M  V30 6990 H 654.526 -1.47984 2.07299 0
M  V30 6991 H 655.309 -0.465351 3.40131 0
M  V30 6992 N 657.755 -1.42862 -0.66545 0
M  V30 6993 C 658.705 -1.43521 -1.7716 0
M  V30 6994 C 659.689 -0.305267 -1.57978 0
M  V30 6995 O 660.881 -0.548176 -1.68297 0
M  V30 6996 C 658.01 -1.34914 -3.15679 0
M  V30 6997 C 657.096 -2.5289 -3.40452 0
M  V30 6998 N 657.487 -3.78284 -3.3576 0
M  V30 6999 C 655.785 -2.47351 -3.71124 0
M  V30 7000 C 656.486 -4.56701 -3.60276 0
M  V30 7001 N 655.462 -3.87249 -3.81496 0
M  V30 7002 H 659.264 -2.38357 -1.7194 0
M  V30 7003 H 656.778 -1.37342 -0.866653 0
M  V30 7004 H 658.775 -1.33468 -3.94958 0
M  V30 7005 H 657.435 -0.410881 -3.2209 0
M  V30 7006 H 658.446 -4.10746 -3.15448 0
M  V30 7007 H 655.123 -1.62152 -3.84725 0
M  V30 7008 H 656.513 -5.65704 -3.6253 0
M  V30 7009 N 659.233 0.902656 -1.29189 0
M  V30 7010 C 660.163 2.02294 -1.16616 0
M  V30 7011 C 661.144 1.6999 -0.0611175 0
M  V30 7012 O 662.329 1.9271 -0.240072 0
M  V30 7013 C 659.459 3.37018 -0.83882 0
M  V30 7014 C 658.413 3.83522 -1.89986 0
M  V30 7015 C 657.739 5.15337 -1.42589 0
M  V30 7016 C 659.039 4.04169 -3.30824 0
M  V30 7017 H 660.733 2.13071 -2.10336 0
M  V30 7018 H 658.279 1.02378 -1.01266 0
M  V30 7019 H 660.232 4.14895 -0.737584 0
M  V30 7020 H 658.956 3.26325 0.134071 0
M  V30 7021 H 657.615 3.07859 -1.99043 0
M  V30 7022 H 657.263 5.01056 -0.441759 0
M  V30 7023 H 656.963 5.47423 -2.13547 0
M  V30 7024 H 658.487 5.95758 -1.3381 0
M  V30 7025 H 659.901 4.72537 -3.24626 0
M  V30 7026 H 658.298 4.47604 -3.99713 0
M  V30 7027 H 659.368 3.08604 -3.74021 0
M  V30 7028 N 660.711 1.11618 1.11262 0
M  V30 7029 C 661.641 0.79846 2.19424 0
M  V30 7030 C 662.622 -0.234003 1.68483 0
M  V30 7031 O 663.807 -0.0970704 1.93957 0
M  V30 7032 C 660.937 0.242892 3.4645 0
M  V30 7033 C 659.891 1.20744 4.10615 0
M  V30 7034 C 659.217 0.512494 5.32238 0
M  V30 7035 C 660.517 2.55884 4.55325 0
M  V30 7036 H 662.211 1.70286 2.46258 0
M  V30 7037 H 659.757 0.820195 1.18359 0
M  V30 7038 H 661.71 0.00840447 4.21399 0
M  V30 7039 H 660.434 -0.696811 3.1908 0
M  V30 7040 H 659.093 1.42759 3.37662 0
M  V30 7041 H 658.741 -0.432075 5.01141 0
M  V30 7042 H 658.441 1.15583 5.7612 0
M  V30 7043 H 659.965 0.286842 6.09926 0
M  V30 7044 H 661.379 2.37946 5.21588 0
M  V30 7045 H 659.776 3.16216 5.10027 0
M  V30 7046 H 660.846 3.14968 3.68678 0
M  V30 7047 N 662.189 -1.289 0.906776 0
M  V30 7048 C 663.435 -1.95558 0.53712 0
M  V30 7049 C 663.768 -1.71262 -0.915582 0
M  V30 7050 O 663.043 -1.02961 -1.65013 0
M  V30 7051 C 663.326 -3.50198 0.838645 0
M  V30 7052 C 663.179 -3.83923 2.34357 0
M  V30 7053 C 664.498 -4.38861 0.329988 0
M  V30 7054 H 661.617 -0.710289 0.196617 0
M  V30 7055 H 664.259 -1.52392 1.13475 0
M  V30 7056 H 662.409 -3.87096 0.330024 0
M  V30 7057 H 664.081 -3.56933 2.92227 0
M  V30 7058 H 662.324 -3.31215 2.80141 0
M  V30 7059 H 662.995 -4.91883 2.5051 0
M  V30 7060 H 665.471 -4.08996 0.765609 0
M  V30 7061 H 664.347 -5.45931 0.570105 0
M  V30 7062 H 664.608 -4.35352 -0.769511 0
M  V30 7063 N 663.667 -0.670007 -1.42649 0
M  V30 7064 C 664.915 -0.18991 -2.01206 0
M  V30 7065 C 665.236 1.20617 -1.53221 0
M  V30 7066 O 664.506 1.80898 -0.751856 0
M  V30 7067 H 663.086 -0.0672189 -0.743969 0
M  V30 7068 H 665.748 -0.865442 -1.74631 0
M  V30 7069 H 664.844 -0.187481 -3.11536 0
M  V30 7070 N 665.145 1.52092 -0.413018 0
M  V30 7071 C 666.37 2.06756 0.163338 0
M  V30 7072 C 666.795 1.28073 1.37764 0
M  V30 7073 O 666.153 0.312015 1.78595 0
M  V30 7074 C 666.201 3.57278 0.488322 0
M  V30 7075 O 665.305 3.80986 1.57871 0
M  V30 7076 H 664.646 0.663882 0.0125068 0
M  V30 7077 H 667.176 1.95988 -0.587339 0
M  V30 7078 H 667.186 4.01125 0.745836 0
M  V30 7079 H 665.861 4.13978 -0.399327 0
M  V30 7080 H 664.438 3.49017 1.31306 0
M  V30 7081 N 666.623 0.143563 1.56945 0
M  V30 7082 C 667.848 -0.518701 2.00809 0
M  V30 7083 C 668.273 -1.5785 1.02298 0
M  V30 7084 O 667.631 -1.813 -0.0017839 0
M  V30 7085 C 667.679 -1.09929 3.43436 0
M  V30 7086 O 666.783 -2.21425 3.47915 0
M  V30 7087 H 666.124 -0.127215 0.6517 0
M  V30 7088 H 668.654 0.239283 2.03196 0
M  V30 7089 H 668.664 -1.4288 3.82164 0
M  V30 7090 H 667.339 -0.323162 4.14643 0
M  V30 7091 H 665.916 -1.89728 3.21026 0
M  V30 7092 N 668.101 -1.57061 -0.130224 0
M  V30 7093 C 669.349 -1.83893 -0.838313 0
M  V30 7094 C 669.67 -0.727046 -1.80939 0
M  V30 7095 O 668.94 0.249927 -1.94299 0
M  V30 7096 H 667.52 -0.67846 -0.312573 0
M  V30 7097 H 670.182 -1.94529 -0.120224 0
M  V30 7098 H 669.278 -2.79419 -1.39038 0
M  V30 7099 N 669.579 0.400081 -1.52437 0
M  V30 7100 C 670.509 1.4947 -1.7939 0
M  V30 7101 C 671.49 1.57383 -0.645329 0
M  V30 7102 O 672.675 1.72511 -0.891826 0
M  V30 7103 C 669.805 2.87201 -1.95276 0
M  V30 7104 C 668.759 2.94134 -3.10917 0
M  V30 7105 C 668.085 4.34207 -3.1204 0
M  V30 7106 C 669.385 2.64791 -4.50203 0
M  V30 7107 H 671.079 1.27165 -2.71052 0
M  V30 7108 H 668.625 0.610312 -1.30427 0
M  V30 7109 H 670.578 3.63772 -2.12715 0
M  V30 7110 H 669.302 3.10819 -1.00294 0
M  V30 7111 H 667.961 2.20009 -2.93243 0
M  V30 7112 H 667.609 4.54848 -2.14761 0
M  V30 7113 H 667.309 4.39768 -3.89715 0
M  V30 7114 H 668.833 5.127 -3.31619 0
M  V30 7115 H 670.247 3.31083 -4.68035 0
M  V30 7116 H 668.644 2.81717 -5.29864 0
M  V30 7117 H 669.714 1.60184 -4.57678 0
M  V30 7118 N 671.057 1.43213 0.657864 0
M  V30 7119 C 672.282 1.48227 1.45064 0
M  V30 7120 C 672.707 0.0999939 1.87834 0
M  V30 7121 O 672.065 -0.905269 1.57081 0
M  V30 7122 C 672.113 2.42931 2.6649 0
M  V30 7123 O 671.217 1.91237 3.6538 0
M  V30 7124 H 670.558 0.501551 0.435135 0
M  V30 7125 H 673.088 1.8808 0.805431 0
M  V30 7126 H 673.098 2.6008 3.1436 0
M  V30 7127 H 671.773 3.43348 2.34701 0
M  V30 7128 H 670.35 1.83726 3.24498 0
M  V30 7129 N 672.536 -0.895792 1.29666 0
M  V30 7130 C 673.952 -1.17726 1.07763 0
M  V30 7131 C 674.152 -2.00794 -0.168576 0
M  V30 7132 O 673.208 -2.37213 -0.865244 0
M  V30 7133 C 674.521 -1.89441 2.33522 0
M  V30 7134 C 676.069 -2.02251 2.3888 0
M  V30 7135 C 676.544 -2.77378 3.64452 0
M  V30 7136 N 678.035 -2.8493 3.65198 0
M  V30 7137 C 678.77 -3.43606 4.59045 0
M  V30 7138 N 678.266 -4.03417 5.63228 0
M  V30 7139 N 680.059 -3.41317 4.46608 0
M  V30 7140 H 672.21 -0.341652 2.09634 0
M  V30 7141 H 674.473 -0.213865 0.923561 0
M  V30 7142 H 674.179 -1.35842 3.24407 0
M  V30 7143 H 674.053 -2.89893 2.41334 0
M  V30 7144 H 676.44 -2.55025 1.4848 0
M  V30 7145 H 676.521 -1.0092 2.3505 0
M  V30 7146 H 676.165 -2.25279 4.55205 0
M  V30 7147 H 676.095 -3.79062 3.65541 0
M  V30 7148 H 678.586 -2.42453 2.89871 0
M  V30 7149 H 678.899 -4.46224 6.30955 0
M  V30 7150 H 677.244 -4.01868 5.67033 0
M  V30 7151 H 680.435 -2.93812 3.64407 0
M  V30 7152 H 680.608 -3.86751 5.1993 0
M  V30 7153 N 674.014 -1.12206 -1.10668 0
M  V30 7154 C 675.244 -0.897332 -1.86095 0
M  V30 7155 C 675.652 0.556778 -1.80822 0
M  V30 7156 O 674.995 1.39658 -1.19337 0
M  V30 7157 C 675.057 -1.29095 -3.35522 0
M  V30 7158 C 674.721 -2.75586 -3.64556 0
M  V30 7159 C 675.718 -3.73785 -3.6136 0
M  V30 7160 C 673.403 -3.12432 -3.93309 0
M  V30 7161 C 675.397 -5.06845 -3.86506 0
M  V30 7162 C 673.084 -4.45675 -4.18111 0
M  V30 7163 C 674.082 -5.42691 -4.147 0
M  V30 7164 O 673.77 -6.73532 -4.38873 0
M  V30 7165 H 673.502 -0.320704 -0.595084 0
M  V30 7166 H 676.056 -1.49517 -1.40833 0
M  V30 7167 H 674.286 -0.636299 -3.81429 0
M  V30 7168 H 675.975 -1.04073 -3.92331 0
M  V30 7169 H 676.741 -3.46664 -3.39189 0
M  V30 7170 H 672.62 -2.3753 -3.95096 0
M  V30 7171 H 676.164 -5.82559 -3.83758 0
M  V30 7172 H 672.061 -4.72526 -4.39761 0
M  V30 7173 H 672.829 -6.79442 -4.564 0
M  V30 7174 N 675.492 1.28418 -0.913599 0
M  V30 7175 C 676.738 1.9527 -0.547484 0
M  V30 7176 C 677.071 1.71745 0.906486 0
M  V30 7177 O 676.346 1.03834 1.64465 0
M  V30 7178 C 676.629 3.49748 -0.857205 0
M  V30 7179 C 676.482 3.82675 -2.3639 0
M  V30 7180 C 677.801 4.3868 -0.353258 0
M  V30 7181 H 674.92 0.709236 -0.200381 0
M  V30 7182 H 677.562 1.51789 -1.14281 0
M  V30 7183 H 675.712 3.86915 -0.350548 0
M  V30 7184 H 677.384 3.55378 -2.94116 0
M  V30 7185 H 675.627 3.29724 -2.81894 0
M  V30 7186 H 676.298 4.90547 -2.53115 0
M  V30 7187 H 678.774 4.08584 -0.787288 0
M  V30 7188 H 677.65 5.45621 -0.599049 0
M  V30 7189 H 677.911 4.35753 0.746413 0
M  V30 7190 N 676.97 0.677563 1.42291 0
M  V30 7191 C 677.933 0.0101085 2.29198 0
M  V30 7192 C 678.933 -0.726219 1.43467 0
M  V30 7193 O 680.123 -0.563807 1.64824 0
M  V30 7194 C 677.255 -0.996316 3.26016 0
M  V30 7195 H 678.448 0.775071 2.89711 0
M  V30 7196 H 676.001 0.440065 1.49977 0
M  V30 7197 H 676.736 -1.78967 2.70446 0
M  V30 7198 H 676.521 -0.471687 3.89253 0
M  V30 7199 H 678.011 -1.46167 3.91184 0
M  V30 7200 N 678.448 -1.51871 0.421078 0
M  V30 7201 C 679.864 -1.59435 0.0725398 0
M  V30 7202 C 680.064 -1.43315 -1.41644 0
M  V30 7203 O 679.12 -1.26614 -2.18461 0
M  V30 7204 C 680.433 -2.9509 0.578132 0
M  V30 7205 C 681.981 -3.08356 0.537149 0
M  V30 7206 C 682.456 -4.4651 1.01945 0
M  V30 7207 N 683.947 -4.52784 0.976758 0
M  V30 7208 C 684.682 -5.57976 1.32099 0
M  V30 7209 N 684.178 -6.70664 1.73727 0
M  V30 7210 N 685.971 -5.48248 1.2402 0
M  V30 7211 H 678.122 -1.60595 1.39007 0
M  V30 7212 H 680.385 -0.756138 0.571803 0
M  V30 7213 H 680.091 -3.12205 1.61929 0
M  V30 7214 H 679.965 -3.772 -0.00578374 0
M  V30 7215 H 682.352 -2.90919 -0.494991 0
M  V30 7216 H 682.433 -2.28125 1.15727 0
M  V30 7217 H 682.077 -4.64692 2.04997 0
M  V30 7218 H 682.007 -5.25256 0.376023 0
M  V30 7219 H 684.498 -3.71898 0.670851 0
M  V30 7220 H 684.811 -7.46932 1.98274 0
M  V30 7221 H 683.156 -6.71914 1.77641 0
M  V30 7222 H 686.347 -4.59095 0.913756 0
M  V30 7223 H 686.52 -6.30119 1.51176 0
M  V30 7224 N 679.926 -0.151884 -1.56866 0
M  V30 7225 C 680.856 0.781943 -2.20018 0
M  V30 7226 C 681.837 1.25347 -1.14987 0
M  V30 7227 O 683.022 1.31015 -1.43348 0
M  V30 7228 C 680.152 2.01928 -2.82564 0
M  V30 7229 C 679.106 1.68434 -3.93464 0
M  V30 7230 C 678.432 2.99472 -4.42968 0
M  V30 7231 C 679.732 0.927244 -5.14003 0
M  V30 7232 H 681.426 0.255607 -2.98307 0
M  V30 7233 H 678.972 0.121502 -1.43486 0
M  V30 7234 H 680.925 2.67741 -3.25411 0
M  V30 7235 H 679.649 2.56943 -2.01614 0
M  V30 7236 H 678.308 1.04998 -3.51242 0
M  V30 7237 H 677.956 3.52488 -3.58834 0
M  V30 7238 H 677.656 2.77823 -5.17772 0
M  V30 7239 H 679.18 3.66348 -4.88489 0
M  V30 7240 H 680.594 1.48756 -5.53665 0
M  V30 7241 H 678.991 0.810513 -5.94601 0
M  V30 7242 H 680.061 -0.0801163 -4.84834 0
M  V30 7243 N 681.404 1.57128 0.121893 0
M  V30 7244 C 682.629 1.89254 0.848385 0
M  V30 7245 C 683.054 0.743527 1.72781 0
M  V30 7246 O 682.412 -0.306056 1.78698 0
M  V30 7247 C 682.46 3.20113 1.66012 0
M  V30 7248 O 681.564 3.05815 2.76679 0
M  V30 7249 H 680.905 0.621103 0.234793 0
M  V30 7250 H 683.435 2.0433 0.10516 0
M  V30 7251 H 683.445 3.52761 2.04996 0
M  V30 7252 H 682.12 4.03336 1.01452 0
M  V30 7253 H 680.697 2.84627 2.40918 0
M  V30 7254 N 682.882 -0.391992 1.52647 0
M  V30 7255 C 684.107 -1.16312 1.71716 0
M  V30 7256 C 684.532 -1.83042 0.433279 0
M  V30 7257 O 683.89 -1.70705 -0.610707 0
M  V30 7258 C 683.938 -2.18908 2.86551 0
M  V30 7259 O 683.042 -3.2543 2.53316 0
M  V30 7260 H 682.383 -0.338743 0.571095 0
M  V30 7261 H 684.913 -0.457202 1.99426 0
M  V30 7262 H 684.923 -2.62954 3.1196 0
M  V30 7263 H 683.598 -1.69726 3.79692 0
M  V30 7264 H 682.175 -2.86543 2.38637 0
M  V30 7265 N 684.36 -1.4356 -0.65026 0
M  V30 7266 C 685.588 -1.48779 -1.43779 0
M  V30 7267 C 686.003 -0.106593 -1.88499 0
M  V30 7268 O 685.36 0.883766 -1.59674 0
M  V30 7269 C 685.411 -2.43618 -2.67081 0
M  V30 7270 O 685.132 -3.76367 -2.24231 0
M  V30 7271 C 686.633 -2.5811 -3.60409 0
M  V30 7272 H 683.853 -0.50521 -0.441593 0
M  V30 7273 H 686.397 -1.88332 -0.796941 0
M  V30 7274 H 684.552 -2.07253 -3.273 0
M  V30 7275 H 684.966 -4.27394 -3.0403 0
M  V30 7276 H 686.44 -3.28539 -4.43583 0
M  V30 7277 H 686.917 -1.627 -4.07953 0
M  V30 7278 H 687.523 -2.95298 -3.0607 0
M  V30 7279 N 685.838 0.888903 -1.30139 0
M  V30 7280 C 687.063 1.67884 -1.21777 0
M  V30 7281 C 687.488 1.86848 0.216689 0
M  V30 7282 O 686.846 1.39659 1.15608 0
M  V30 7283 C 686.894 3.03483 -1.94757 0
M  V30 7284 O 685.998 3.92294 -1.27198 0
M  V30 7285 H 685.339 0.513144 -0.421402 0
M  V30 7286 H 687.869 1.10968 -1.71893 0
M  V30 7287 H 687.879 3.53553 -2.03627 0
M  V30 7288 H 686.554 2.89 -2.99085 0
M  V30 7289 H 685.131 3.50732 -1.26655 0
M  V30 7290 N 687.317 1.12792 1.10072 0
M  V30 7291 C 688.733 0.864745 1.34143 0
M  V30 7292 C 688.933 -0.503201 1.95116 0
M  V30 7293 O 687.989 -1.25111 2.19325 0
M  V30 7294 C 689.302 1.98413 2.25949 0
M  V30 7295 C 690.85 2.01545 2.39476 0
M  V30 7296 C 691.325 3.12727 3.34613 0
M  V30 7297 N 692.816 3.12194 3.42183 0
M  V30 7298 C 693.551 3.94862 4.15779 0
M  V30 7299 N 693.047 4.87528 4.92228 0
M  V30 7300 N 694.84 3.82985 4.11435 0
M  V30 7301 H 686.991 2.00926 0.68866 0
M  V30 7302 H 689.254 0.874564 0.365844 0
M  V30 7303 H 688.96 2.97005 1.88364 0
M  V30 7304 H 688.834 1.89254 3.26287 0
M  V30 7305 H 691.221 1.0357 2.76328 0
M  V30 7306 H 691.302 2.14777 1.3894 0
M  V30 7307 H 690.946 4.10936 2.98486 0
M  V30 7308 H 690.876 2.96732 4.35037 0
M  V30 7309 H 693.367 2.45065 2.87666 0
M  V30 7310 H 693.68 5.47109 5.45794 0
M  V30 7311 H 692.025 4.91539 4.9134 0
M  V30 7312 H 695.216 3.09923 3.50807 0
M  V30 7313 H 695.389 4.47641 4.68531 0
M  V30 7314 N 688.795 -1.27931 0.920396 0
M  V30 7315 C 690.044 -1.93975 0.552867 0
M  V30 7316 C 690.357 -1.73193 -0.909035 0
M  V30 7317 O 691.563 -2.33515 -1.38502 0
M  V30 7318 C 690.019 -3.47463 0.937947 0
M  V30 7319 C 689.627 -3.77013 2.42003 0
M  V30 7320 C 691.371 -4.19628 0.64132 0
M  V30 7321 C 689.278 -5.23841 2.74489 0
M  V30 7322 H 688.208 -0.726146 0.203046 0
M  V30 7323 H 690.859 -1.45339 1.12022 0
M  V30 7324 H 689.241 -3.94867 0.299317 0
M  V30 7325 H 690.415 -3.40393 3.10595 0
M  V30 7326 H 688.73 -3.18035 2.6878 0
M  V30 7327 H 691.327 -5.27729 0.860622 0
M  V30 7328 H 691.67 -4.14164 -0.421168 0
M  V30 7329 H 692.203 -3.78022 1.23872 0
M  V30 7330 H 688.942 -5.34388 3.79618 0
M  V30 7331 H 688.462 -5.61634 2.1054 0
M  V30 7332 H 690.141 -5.91647 2.61845 0
M  V30 7333 N 690.273 -0.685099 -1.4193 0
M  V30 7334 C 691.223 0.00977295 -2.27998 0
M  V30 7335 C 692.207 0.763315 -1.41641 0
M  V30 7336 O 693.399 0.640532 -1.65004 0
M  V30 7337 C 690.528 0.952972 -3.29808 0
M  V30 7338 C 689.614 0.196231 -4.23646 0
M  V30 7339 N 690.005 -0.804401 -4.99363 0
M  V30 7340 C 688.303 0.433213 -4.43891 0
M  V30 7341 C 689.004 -1.25646 -5.67968 0
M  V30 7342 N 687.98 -0.5844 -5.4045 0
M  V30 7343 H 691.782 -0.757586 -2.83968 0
M  V30 7344 H 689.296 -0.515037 -1.54017 0
M  V30 7345 H 691.293 1.46585 -3.9028 0
M  V30 7346 H 689.953 1.72004 -2.75399 0
M  V30 7347 H 690.964 -1.18429 -5.04177 0
M  V30 7348 H 687.641 1.17899 -4.00507 0
M  V30 7349 H 689.031 -2.08622 -6.38691 0
M  V30 7350 N 691.751 1.51645 -0.429126 0
M  V30 7351 C 693.028 1.94579 0.199614 0
M  V30 7352 C 693.408 1.3673 1.60836 0
M  V30 7353 O 692.756 0.551062 2.21756 0
M  V30 7354 C 692.966 3.48506 0.185685 0
M  V30 7355 C 694.314 4.22756 0.395282 0
M  V30 7356 O 695.338 3.55219 0.264165 0
M  V30 7357 O 694.197 5.42555 0.655475 0
M  V30 7358 H 691.291 0.816007 0.134393 0
M  V30 7359 H 693.837 1.62577 -0.486513 0
M  V30 7360 H 692.609 3.83045 -0.799508 0
M  V30 7361 H 692.232 3.86927 0.91507 0
M  V30 7362 N 693.229 0.160201 1.56784 0
M  V30 7363 C 694.179 -0.786461 2.14007 0
M  V30 7364 C 695.163 -1.20046 1.07134 0
M  V30 7365 O 696.355 -1.16468 1.33283 0
M  V30 7366 C 693.484 -2.02024 2.77563 0
M  V30 7367 C 692.57 -1.62874 3.91578 0
M  V30 7368 N 692.961 -0.946176 4.96871 0
M  V30 7369 C 691.259 -1.92054 4.02531 0
M  V30 7370 C 691.96 -0.755084 5.76778 0
M  V30 7371 N 690.936 -1.29307 5.27997 0
M  V30 7372 H 694.738 -0.255879 2.92784 0
M  V30 7373 H 692.252 -0.0408778 1.62349 0
M  V30 7374 H 694.249 -2.70855 3.16928 0
M  V30 7375 H 692.909 -2.55587 2.00263 0
M  V30 7376 H 693.92 -0.605455 5.14349 0
M  V30 7377 H 690.597 -2.47374 3.36322 0
M  V30 7378 H 691.987 -0.216138 6.71552 0
M  V30 7379 N 694.707 -1.5719 -0.113559 0
M  V30 7380 C 695.639 -1.97393 -1.16484 0
M  V30 7381 C 696.652 -0.873964 -1.37352 0
M  V30 7382 O 697.841 -1.15222 -1.36331 0
M  V30 7383 C 694.941 -2.26174 -2.52386 0
M  V30 7384 C 694.114 -3.57479 -2.52046 0
M  V30 7385 C 693.173 -3.74409 -3.69735 0
M  V30 7386 O 692.199 -4.46463 -3.53071 0
M  V30 7387 N 693.401 -3.13588 -4.88511 0
M  V30 7388 H 696.166 -2.88184 -0.822814 0
M  V30 7389 H 693.727 -1.59044 -0.302769 0
M  V30 7390 H 695.719 -2.3471 -3.29687 0
M  V30 7391 H 694.289 -1.41483 -2.7875 0
M  V30 7392 H 693.509 -3.60081 -1.60421 0
M  V30 7393 H 694.797 -4.43775 -2.48881 0
M  V30 7394 H 694.195 -2.55026 -5.04953 0
M  V30 7395 H 692.752 -3.27637 -5.63469 0
M  V30 7396 N 696.185 0.383891 -1.52853 0
M  V30 7397 C 697.135 1.46892 -1.74375 0
M  V30 7398 C 698.119 1.49378 -0.597909 0
M  V30 7399 O 699.311 1.54929 -0.855929 0
M  V30 7400 C 696.44 2.84547 -1.92063 0
M  V30 7401 C 695.526 2.8661 -3.12594 0
M  V30 7402 N 695.917 2.58339 -4.3485 0
M  V30 7403 C 694.215 3.17777 -3.12944 0
M  V30 7404 C 694.916 2.67616 -5.16485 0
M  V30 7405 N 693.892 3.01561 -4.52285 0
M  V30 7406 H 697.694 1.23869 -2.66522 0
M  V30 7407 H 695.208 0.591895 -1.51229 0
M  V30 7408 H 697.205 3.62674 -2.05604 0
M  V30 7409 H 695.865 3.08549 -1.01133 0
M  V30 7410 H 696.876 2.32266 -4.62896 0
M  V30 7411 H 693.553 3.47211 -2.31842 0
M  V30 7412 H 694.943 2.4926 -6.23955 0
M  V30 7413 N 697.663 1.43903 0.642637 0
M  V30 7414 C 698.911 1.45791 1.39962 0
M  V30 7415 C 699.232 0.0873144 1.94804 0
M  V30 7416 O 698.502 -0.878825 1.75081 0
M  V30 7417 H 697.082 0.536797 0.519479 0
M  V30 7418 H 699.744 1.7959 0.757189 0
M  V30 7419 H 698.84 2.17665 2.2367 0
M  V30 7420 N 699.141 -0.881989 1.30609 0
M  V30 7421 C 700.369 -1.66711 1.22536 0
M  V30 7422 C 700.784 -1.87614 -0.2113 0
M  V30 7423 O 700.141 -1.42576 -1.13923 0
M  V30 7424 C 700.192 -3.04182 1.95335 0
M  V30 7425 O 699.913 -2.8422 3.33393 0
M  V30 7426 C 701.414 -3.98617 1.93956 0
M  V30 7427 H 698.634 -0.520124 0.423925 0
M  V30 7428 H 701.178 -1.10174 1.72285 0
M  V30 7429 H 699.333 -3.57442 1.49378 0
M  V30 7430 H 699.747 -3.71452 3.70302 0
M  V30 7431 H 701.221 -4.92433 2.49426 0
M  V30 7432 H 701.698 -4.29473 0.919198 0
M  V30 7433 H 702.304 -3.51292 2.39738 0
M  V30 7434 N 700.619 -1.13374 -1.09472 0
M  V30 7435 C 701.549 -0.833268 -2.18126 0
M  V30 7436 C 702.53 0.207169 -1.68834 0
M  V30 7437 O 703.715 0.0662012 -1.94087 0
M  V30 7438 C 700.845 -0.297979 -3.46019 0
M  V30 7439 C 699.799 -1.27261 -4.08642 0
M  V30 7440 C 699.125 -0.597104 -5.31356 0
M  V30 7441 C 700.425 -2.63095 -4.51197 0
M  V30 7442 H 702.119 -1.74182 -2.43518 0
M  V30 7443 H 699.665 -0.838921 -1.17039 0
M  V30 7444 H 701.618 -0.0754444 -4.21332 0
M  V30 7445 H 700.342 0.645959 -3.20148 0
M  V30 7446 H 699.001 -1.48113 -3.35348 0
M  V30 7447 H 698.649 0.352293 -5.01765 0
M  V30 7448 H 698.349 -1.24734 -5.74208 0
M  V30 7449 H 699.873 -0.38384 -6.09392 0
M  V30 7450 H 701.287 -2.46214 -5.17737 0
M  V30 7451 H 699.684 -3.2429 -5.04932 0
M  V30 7452 H 700.754 -3.20793 -3.6362 0
M  V30 7453 N 702.098 1.27442 -0.927168 0
M  V30 7454 C 703.03 2.25975 -0.383158 0
M  V30 7455 C 704.043 1.55382 0.485832 0
M  V30 7456 O 705.232 1.75986 0.298541 0
M  V30 7457 C 702.332 3.35629 0.469688 0
M  V30 7458 C 701.505 4.35747 -0.379886 0
M  V30 7459 C 700.564 5.24598 0.410227 0
M  V30 7460 O 699.59 5.68909 -0.181888 0
M  V30 7461 N 700.792 5.54737 1.71017 0
M  V30 7462 H 703.557 2.7329 -1.23015 0
M  V30 7463 H 701.118 1.41063 -0.794539 0
M  V30 7464 H 703.11 3.92015 1.00532 0
M  V30 7465 H 701.68 2.87919 1.21744 0
M  V30 7466 H 700.9 3.78634 -1.09682 0
M  V30 7467 H 702.188 4.99648 -0.960717 0
M  V30 7468 H 701.586 5.20594 2.21356 0
M  V30 7469 H 700.143 6.13824 2.19234 0
M  V30 7470 N 703.576 0.692616 1.41565 0
M  V30 7471 C 704.524 0.0139952 2.32596 0
M  V30 7472 C 705.518 -0.771691 1.50802 0
M  V30 7473 O 706.724 -0.677646 1.66757 0
M  V30 7474 H 703.099 -0.0142745 0.751865 0
M  V30 7475 H 705.07 0.798851 2.87508 0
M  V30 7476 C 703.819 -0.910602 3.35564 0
M  V30 7477 H 703.142 -0.315446 3.98554 0
M  V30 7478 H 704.582 -1.3538 4.01806 0
M  V30 7479 C 703.041 -2.02539 2.6922 0
M  V30 7480 O 703.571 -3.11386 2.53775 0
M  V30 7481 N 701.777 -1.80227 2.27962 0
M  V30 7482 H 701.324 -0.917054 2.40724 0
M  V30 7483 H 701.282 -2.55001 1.83907 0
M  V30 7484 N 705.054 -1.51416 0.437162 0
M  V30 7485 C 705.984 -2.30631 -0.364922 0
M  V30 7486 C 706.965 -1.36037 -1.02118 0
M  V30 7487 O 708.15 -1.64956 -1.02485 0
M  V30 7488 C 705.28 -3.1482 -1.46648 0
M  V30 7489 C 704.234 -4.17691 -0.933717 0
M  V30 7490 C 703.56 -4.904 -2.13101 0
M  V30 7491 C 704.86 -5.2229 0.0317201 0
M  V30 7492 H 706.554 -2.97932 0.29614 0
M  V30 7493 H 704.1 -1.4328 0.143865 0
M  V30 7494 H 706.053 -3.69017 -2.03481 0
M  V30 7495 H 704.777 -2.4534 -2.15583 0
M  V30 7496 H 703.436 -3.64545 -0.387602 0
M  V30 7497 H 703.084 -4.17423 -2.80654 0
M  V30 7498 H 702.784 -5.59962 -1.78092 0
M  V30 7499 H 704.308 -5.4742 -2.70487 0
M  V30 7500 H 705.722 -5.7156 -0.446302 0
M  V30 7501 H 704.119 -5.99378 0.29437 0
M  V30 7502 H 705.189 -4.75131 0.968447 0
M  V30 7503 N 706.532 -0.168513 -1.56696 0
M  V30 7504 C 707.482 0.7751 -2.14421 0
M  V30 7505 C 708.466 1.19476 -1.07769 0
M  V30 7506 O 709.658 1.15759 -1.33898 0
M  V30 7507 C 706.787 2.00549 -2.7863 0
M  V30 7508 C 705.873 1.60795 -3.92436 0
M  V30 7509 N 706.264 0.919812 -4.97366 0
M  V30 7510 C 704.562 1.89917 -4.03544 0
M  V30 7511 C 705.263 0.724485 -5.77171 0
M  V30 7512 N 704.239 1.26505 -5.28675 0
M  V30 7513 H 708.041 0.240349 -2.92916 0
M  V30 7514 H 705.555 0.0322675 -1.62368 0
M  V30 7515 H 707.552 2.6917 -3.1836 0
M  V30 7516 H 706.212 2.54522 -2.01615 0
M  V30 7517 H 707.223 0.578169 -5.14663 0
M  V30 7518 H 703.9 2.45587 -3.37629 0
M  V30 7519 H 705.29 0.180521 -6.71657 0
M  V30 7520 N 708.01 1.57248 0.105221 0
M  V30 7521 C 708.958 2.02337 1.14728 0
M  V30 7522 C 709.952 0.922652 1.42069 0
M  V30 7523 O 711.158 1.10785 1.41869 0
M  V30 7524 H 707.533 0.644682 0.387155 0
M  V30 7525 H 709.504 2.89063 0.740607 0
M  V30 7526 C 708.253 2.45513 2.46209 0
M  V30 7527 H 707.576 3.29785 2.26013 0
M  V30 7528 H 709.016 2.80846 3.1765 0
M  V30 7529 C 707.475 1.3243 3.09781 0
M  V30 7530 O 708.005 0.647841 3.96442 0
M  V30 7531 N 706.211 1.07785 2.69872 0
M  V30 7532 H 705.758 1.62973 1.99493 0
M  V30 7533 H 705.716 0.323204 3.12734 0
M  V30 7534 N 709.488 -0.375779 1.53054 0
M  V30 7535 C 710.713 -1.14484 1.7294 0
M  V30 7536 C 711.138 -1.82572 0.452668 0
M  V30 7537 O 710.496 -1.71343 -0.592567 0
M  V30 7538 C 710.544 -2.15857 2.88857 0
M  V30 7539 O 709.648 -3.22725 2.56753 0
M  V30 7540 H 708.989 -0.332666 0.574656 0
M  V30 7541 H 711.519 -0.436025 1.999 0
M  V30 7542 H 711.529 -2.59631 3.14731 0
M  V30 7543 H 710.204 -1.65689 3.81471 0
M  V30 7544 H 708.781 -2.83996 2.41663 0
M  V30 7545 N 710.966 -1.44241 -0.634997 0
M  V30 7546 C 712.206 -1.48339 -1.40623 0
M  V30 7547 C 712.57 -0.111479 -1.91676 0
M  V30 7548 O 713.771 -0.0271345 -2.68786 0
M  V30 7549 C 712.042 -2.51122 -2.54308 0
M  V30 7550 S 713.601 -2.74237 -3.42548 0
M  V30 7551 H 710.419 -0.524715 -0.479787 0
M  V30 7552 H 713.021 -1.81138 -0.735489 0
M  V30 7553 H 711.725 -3.49511 -2.15106 0
M  V30 7554 H 711.256 -2.19883 -3.26213 0
M  V30 7555 H 713.271 -2.0554 -4.51628 0
M  V30 7556 N 712.444 0.87505 -1.31075 0
M  V30 7557 C 713.672 1.66058 -1.23419 0
M  V30 7558 C 714.087 1.87723 0.201347 0
M  V30 7559 O 713.444 1.43178 1.13165 0
M  V30 7560 C 713.495 3.03142 -1.96945 0
M  V30 7561 O 713.216 2.82448 -3.34895 0
M  V30 7562 C 714.717 3.97583 -1.96067 0
M  V30 7563 H 711.937 0.517868 -0.426677 0
M  V30 7564 H 714.481 1.09258 -1.72867 0
M  V30 7565 H 712.636 3.56645 -1.51271 0
M  V30 7566 H 713.05 3.69483 -3.72267 0
M  V30 7567 H 714.524 4.91104 -2.52034 0
M  V30 7568 H 715.001 4.2898 -0.941961 0
M  V30 7569 H 715.607 3.50015 -2.41597 0
M  V30 7570 N 713.922 1.13953 1.08869 0
M  V30 7571 C 715.338 0.878924 1.33218 0
M  V30 7572 C 715.538 -0.482478 1.95638 0
M  V30 7573 O 714.594 -1.22778 2.2064 0
M  V30 7574 C 715.907 2.00798 2.23832 0
M  V30 7575 C 717.455 2.04073 2.37325 0
M  V30 7576 C 717.93 3.16258 3.31278 0
M  V30 7577 N 719.421 3.15805 3.38853 0
M  V30 7578 C 720.156 3.99249 4.11567 0
M  V30 7579 N 719.652 4.92721 4.87029 0
M  V30 7580 N 721.445 3.87327 4.0735 0
M  V30 7581 H 713.596 2.01645 0.66731 0
M  V30 7582 H 715.859 0.878395 0.356547 0
M  V30 7583 H 715.565 2.98986 1.85203 0
M  V30 7584 H 715.439 1.92704 3.24261 0
M  V30 7585 H 717.826 1.06495 2.75214 0
M  V30 7586 H 717.907 2.16239 1.36654 0
M  V30 7587 H 717.551 4.14079 2.9411 0
M  V30 7588 H 717.481 3.0133 4.31866 0
M  V30 7589 H 719.972 2.48102 2.8505 0
M  V30 7590 H 720.285 5.52867 5.39961 0
M  V30 7591 H 718.63 4.96723 4.86098 0
M  V30 7592 H 721.821 3.13627 3.475 0
M  V30 7593 H 721.994 4.52585 4.63757 0
M  V30 7594 N 715.4 -1.26948 0.933913 0
M  V30 7595 C 716.348 -2.2862 0.428463 0
M  V30 7596 C 717.342 -1.62144 -0.490464 0
M  V30 7597 O 718.548 -1.76167 -0.36948 0
M  V30 7598 H 714.923 -0.742363 0.120003 0
M  V30 7599 H 716.894 -2.68659 1.29865 0
M  V30 7600 C 715.643 -3.46423 -0.29774 0
M  V30 7601 H 714.966 -3.97792 0.400183 0
M  V30 7602 H 716.406 -4.19505 -0.615736 0
M  V30 7603 C 714.865 -3.01017 -1.51295 0
M  V30 7604 O 715.395 -3.05226 -2.61151 0
M  V30 7605 N 713.601 -2.56442 -1.36696 0
M  V30 7606 H 713.148 -2.53217 -0.473178 0
M  V30 7607 H 713.106 -2.26424 -2.18127 0
M  V30 7608 N 716.879 -0.700114 -1.41195 0
M  V30 7609 C 717.809 -0.0521132 -2.33442 0
M  V30 7610 C 718.79 0.76228 -1.52063 0
M  V30 7611 O 719.975 0.714336 -1.80585 0
M  V30 7612 C 717.105 0.881693 -3.35922 0
M  V30 7613 C 716.059 0.174062 -4.27646 0
M  V30 7614 C 715.385 1.22254 -5.20536 0
M  V30 7615 C 716.685 -0.962396 -5.13357 0
M  V30 7616 H 718.379 -0.822574 -2.87879 0
M  V30 7617 H 715.925 -0.397011 -1.38419 0
M  V30 7618 H 717.878 1.34429 -3.99383 0
M  V30 7619 H 716.602 1.68387 -2.79845 0
M  V30 7620 H 715.261 -0.268551 -3.65615 0
M  V30 7621 H 714.909 2.01736 -4.60773 0
M  V30 7622 H 714.609 0.754038 -5.82742 0
M  V30 7623 H 716.133 1.68555 -5.86874 0
M  V30 7624 H 717.547 -0.579875 -5.7036 0
M  V30 7625 H 715.944 -1.35828 -5.84526 0
M  V30 7626 H 717.014 -1.80003 -4.50252 0
M  V30 7627 N 718.357 1.51182 -0.445186 0
M  V30 7628 C 719.587 2.06269 0.116922 0
M  V30 7629 C 719.995 1.31188 1.36332 0
M  V30 7630 O 719.338 0.367067 1.79995 0
M  V30 7631 C 719.4 3.56051 0.496757 0
M  V30 7632 C 719.064 4.52441 -0.64394 0
M  V30 7633 C 720.061 4.97233 -1.5184 0
M  V30 7634 C 717.746 4.95447 -0.826905 0
M  V30 7635 C 719.74 5.83712 -2.56046 0
M  V30 7636 C 717.427 5.81714 -1.87222 0
M  V30 7637 C 718.425 6.25745 -2.73738 0
M  V30 7638 O 718.113 7.10298 -3.76474 0
M  V30 7639 H 717.845 0.675954 0.00785733 0
M  V30 7640 H 720.399 1.95648 -0.625371 0
M  V30 7641 H 718.629 3.64483 1.29187 0
M  V30 7642 H 720.318 3.93618 0.990928 0
M  V30 7643 H 721.084 4.64696 -1.38862 0
M  V30 7644 H 716.963 4.60712 -0.163052 0
M  V30 7645 H 720.507 6.18 -3.23607 0
M  V30 7646 H 716.404 6.13664 -2.00218 0
M  V30 7647 H 717.172 7.28493 -3.73149 0
M  V30 7648 N 719.835 0.176821 1.56605 0
M  V30 7649 C 721.081 -0.467406 1.9734 0
M  V30 7650 C 721.414 -1.62523 1.06301 0
M  V30 7651 O 720.689 -1.94182 0.11125 0
M  V30 7652 C 720.972 -0.945106 3.47476 0
M  V30 7653 C 720.825 0.213273 4.49294 0
M  V30 7654 C 722.144 -1.8169 4.00845 0
M  V30 7655 H 719.263 -0.168426 0.717497 0
M  V30 7656 H 721.905 0.264065 1.88156 0
M  V30 7657 H 720.055 -1.56841 3.55434 0
M  V30 7658 H 721.727 0.850508 4.53392 0
M  V30 7659 H 719.97 0.867918 4.25029 0
M  V30 7660 H 720.641 -0.163187 5.51759 0
M  V30 7661 H 723.117 -1.29139 3.95553 0
M  V30 7662 H 721.993 -2.12015 5.06301 0
M  V30 7663 H 722.254 -2.76463 3.44994 0
M  V30 7664 N 721.313 -1.57302 -0.09688 0
M  V30 7665 C 722.538 -1.9058 -0.818169 0
M  V30 7666 C 722.963 -0.770921 -1.71576 0
M  V30 7667 O 722.321 0.277588 -1.79162 0
M  V30 7668 C 722.369 -3.22714 -1.60898 0
M  V30 7669 O 721.473 -3.10178 -2.71779 0
M  V30 7670 H 720.814 -0.624759 -0.224882 0
M  V30 7671 H 723.344 -2.04471 -0.07264 0
M  V30 7672 H 723.354 -3.55978 -1.99358 0
M  V30 7673 H 722.029 -4.04899 -0.950227 0
M  V30 7674 H 720.606 -2.88424 -2.3636 0
M  V30 7675 N 722.791 0.367657 -1.53252 0
M  V30 7676 C 723.721 1.45632 -1.8252 0
M  V30 7677 C 724.702 1.55979 -0.678568 0
M  V30 7678 O 725.887 1.70581 -0.928217 0
M  V30 7679 C 723.017 2.82994 -2.01325 0
M  V30 7680 C 721.971 2.87473 -3.17086 0
M  V30 7681 C 721.297 4.2749 -3.21179 0
M  V30 7682 C 722.597 2.55182 -4.55719 0
M  V30 7683 H 724.291 1.21387 -2.73689 0
M  V30 7684 H 721.837 0.58251 -1.31692 0
M  V30 7685 H 723.79 3.59179 -2.20383 0
M  V30 7686 H 722.514 3.08622 -1.06864 0
M  V30 7687 H 721.173 2.13739 -2.97844 0
M  V30 7688 H 720.821 4.5019 -2.24361 0
M  V30 7689 H 720.521 4.31403 -3.98955 0
M  V30 7690 H 722.045 5.0555 -3.42419 0
M  V30 7691 H 723.459 3.21081 -4.74953 0
M  V30 7692 H 721.856 2.70414 -5.3572 0
M  V30 7693 H 722.926 1.5044 -4.60973 0
M  V30 7694 N 724.269 1.44576 0.627338 0
M  V30 7695 C 725.199 1.54562 1.75022 0
M  V30 7696 C 726.18 0.398378 1.65369 0
M  V30 7697 O 727.365 0.61899 1.84071 0
M  V30 7698 C 724.495 1.49309 3.13567 0
M  V30 7699 C 723.449 2.62549 3.38012 0
M  V30 7700 C 722.775 2.42348 4.76625 0
M  V30 7701 C 724.075 4.04678 3.30202 0
M  V30 7702 H 725.769 2.4855 1.66922 0
M  V30 7703 H 723.315 1.19624 0.801636 0
M  V30 7704 H 725.268 1.54895 3.919 0
M  V30 7705 H 723.992 0.518392 3.2246 0
M  V30 7706 H 722.651 2.56358 2.62061 0
M  V30 7707 H 722.299 1.43062 4.82226 0
M  V30 7708 H 721.999 3.18273 4.93939 0
M  V30 7709 H 723.523 2.49758 5.57183 0
M  V30 7710 H 724.937 4.12217 3.98435 0
M  V30 7711 H 723.334 4.80836 3.5905 0
M  V30 7712 H 724.404 4.2798 2.27949 0
M  V30 7713 N 725.747 -0.868086 1.31537 0
M  V30 7714 C 726.677 -1.99131 1.21939 0
M  V30 7715 C 727.658 -1.69768 0.106166 0
M  V30 7716 O 728.843 -1.92006 0.291081 0
M  V30 7717 C 725.973 -3.34676 0.927879 0
M  V30 7718 C 724.927 -3.7835 2.00088 0
M  V30 7719 C 724.253 -5.11375 1.56203 0
M  V30 7720 C 725.553 -3.95256 3.41424 0
M  V30 7721 H 727.247 -2.07419 2.15911 0
M  V30 7722 H 724.793 -0.996569 1.03945 0
M  V30 7723 H 726.746 -4.12793 0.847327 0
M  V30 7724 H 725.47 -3.26565 -0.0475042 0
M  V30 7725 H 724.129 -3.02474 2.07135 0
M  V30 7726 H 723.777 -4.99709 0.57445 0
M  V30 7727 H 723.477 -5.41568 2.27985 0
M  V30 7728 H 725.001 -5.92001 1.49558 0
M  V30 7729 H 726.415 -4.63764 3.3704 0
M  V30 7730 H 724.812 -4.36849 4.1144 0
M  V30 7731 H 725.882 -2.98579 3.82072 0
M  V30 7732 N 727.225 -1.14528 -1.08264 0
M  V30 7733 C 728.155 -0.856356 -2.1723 0
M  V30 7734 C 729.136 0.189251 -1.69044 0
M  V30 7735 O 730.321 0.0456119 -1.94146 0
M  V30 7736 C 727.451 -0.334662 -3.45684 0
M  V30 7737 C 726.405 -1.31588 -4.0727 0
M  V30 7738 C 725.731 -0.653428 -5.30692 0
M  V30 7739 C 727.031 -2.67866 -4.48381 0
M  V30 7740 H 728.725 -1.76755 -2.41657 0
M  V30 7741 H 726.271 -0.851287 -1.16143 0
M  V30 7742 H 728.224 -0.120128 -4.21229 0
M  V30 7743 H 726.948 0.611967 -3.20815 0
M  V30 7744 H 725.607 -1.51661 -3.33758 0
M  V30 7745 H 725.255 0.299054 -5.0211 0
M  V30 7746 H 724.955 -1.30817 -5.72853 0
M  V30 7747 H 726.479 -0.448453 -6.08951 0
M  V30 7748 H 727.893 -2.51692 -5.15096 0
M  V30 7749 H 726.29 -3.29627 -5.01464 0
M  V30 7750 H 727.36 -3.24632 -3.60198 0
M  V30 7751 N 728.703 1.26451 -0.940633 0
M  V30 7752 C 729.95 1.93778 -0.587909 0
M  V30 7753 C 730.278 1.73811 0.872935 0
M  V30 7754 O 729.533 1.06816 1.63978 0
M  V30 7755 C 729.832 3.46503 -0.875794 0
M  V30 7756 C 729.498 3.86609 -2.32043 0
M  V30 7757 C 728.16 3.97269 -2.71534 0
M  V30 7758 C 730.512 4.0672 -3.25927 0
M  V30 7759 C 727.84 4.25436 -4.04006 0
M  V30 7760 C 730.192 4.36375 -4.57995 0
M  V30 7761 C 728.856 4.45249 -4.97302 0
M  V30 7762 H 728.126 0.709084 -0.215131 0
M  V30 7763 H 730.773 1.50272 -1.18704 0
M  V30 7764 H 729.078 3.91319 -0.194124 0
M  V30 7765 H 730.775 3.96759 -0.581665 0
M  V30 7766 H 727.365 3.78858 -2.00411 0
M  V30 7767 H 731.549 3.97912 -2.96614 0
M  V30 7768 H 726.805 4.30519 -4.34124 0
M  V30 7769 H 730.979 4.50882 -5.30734 0
M  V30 7770 H 728.606 4.66829 -5.99979 0
M  V30 7771 N 730.181 0.707592 1.40822 0
M  V30 7772 C 731.113 0.0105968 2.29198 0
M  V30 7773 C 732.126 -0.732035 1.45414 0
M  V30 7774 O 733.315 -0.580741 1.68789 0
M  V30 7775 C 730.415 -1.00921 3.23525 0
M  V30 7776 C 729.588 -0.333747 4.36125 0
M  V30 7777 C 728.647 -1.25783 5.10945 0
M  V30 7778 O 727.673 -0.745646 5.64295 0
M  V30 7779 N 728.875 -2.58947 5.19545 0
M  V30 7780 H 731.64 0.76938 2.89656 0
M  V30 7781 H 729.201 0.554579 1.52105 0
M  V30 7782 H 731.193 -1.6294 3.70449 0
M  V30 7783 H 729.763 -1.66942 2.6429 0
M  V30 7784 H 728.983 0.466518 3.9143 0
M  V30 7785 H 730.271 0.135444 5.0862 0
M  V30 7786 H 729.669 -3.03065 4.7767 0
M  V30 7787 H 728.226 -3.16131 5.70004 0
M  V30 7788 N 731.66 -1.50943 0.453197 0
M  V30 7789 C 732.888 -2.06628 -0.106135 0
M  V30 7790 C 733.303 -1.31901 -1.35084 0
M  V30 7791 O 732.66 -0.383074 -1.78434 0
M  V30 7792 C 732.711 -3.5914 -0.412368 0
M  V30 7793 O 732.432 -4.31047 0.782948 0
M  V30 7794 C 733.933 -4.31391 -1.02064 0
M  V30 7795 H 731.153 -0.670999 -0.000885896 0
M  V30 7796 H 733.697 -1.94331 0.63684 0
M  V30 7797 H 731.852 -3.71299 -1.10526 0
M  V30 7798 H 732.266 -5.21948 0.516736 0
M  V30 7799 H 733.74 -5.39135 -1.1848 0
M  V30 7800 H 734.217 -3.90714 -2.00598 0
M  V30 7801 H 734.823 -4.23716 -0.366664 0
M  V30 7802 N 733.138 -0.185124 -1.56509 0
M  V30 7803 C 734.068 0.735098 -2.21627 0
M  V30 7804 C 735.049 1.2288 -1.1762 0
M  V30 7805 O 736.234 1.27945 -1.46095 0
M  V30 7806 C 733.364 1.95889 -2.86783 0
M  V30 7807 C 732.318 1.6005 -3.96948 0
M  V30 7808 C 731.644 2.90009 -4.4922 0
M  V30 7809 C 732.944 0.818008 -5.15855 0
M  V30 7810 H 734.638 0.192274 -2.98782 0
M  V30 7811 H 732.184 0.0910393 -1.43712 0
M  V30 7812 H 734.137 2.60779 -3.31017 0
M  V30 7813 H 732.861 2.52608 -2.07018 0
M  V30 7814 H 731.52 0.975237 -3.5339 0
M  V30 7815 H 731.168 3.44797 -3.6623 0
M  V30 7816 H 730.868 2.66778 -5.23549 0
M  V30 7817 H 732.392 3.55904 -4.9615 0
M  V30 7818 H 733.806 1.36979 -5.56695 0
M  V30 7819 H 732.203 0.684207 -5.96187 0
M  V30 7820 H 733.273 -0.182939 -4.84555 0
M  V30 7821 N 734.616 1.57351 0.0885366 0
M  V30 7822 C 735.864 1.86051 0.789262 0
M  V30 7823 C 736.185 0.774763 1.78948 0
M  V30 7824 O 735.455 -0.198324 1.94894 0
M  V30 7825 H 734.035 0.686508 0.294475 0
M  V30 7826 H 736.697 1.94779 0.0686055 0
M  V30 7827 H 735.793 2.83007 1.31581 0
M  V30 7828 N 736.094 -0.359525 1.53444 0
M  V30 7829 C 737.51 -0.701599 1.43352 0
M  V30 7830 C 737.71 -1.93049 0.577439 0
M  V30 7831 O 736.766 -2.52423 0.0622224 0
M  V30 7832 C 738.079 -0.90915 2.86627 0
M  V30 7833 C 739.627 -1.00878 2.96298 0
M  V30 7834 C 740.102 -1.24876 4.40647 0
M  V30 7835 N 741.593 -1.31632 4.44103 0
M  V30 7836 C 742.328 -1.51922 5.52908 0
M  V30 7837 N 741.824 -1.69489 6.71748 0
M  V30 7838 N 743.617 -1.54341 5.40496 0
M  V30 7839 H 735.768 0.448685 2.07607 0
M  V30 7840 H 738.031 0.138713 0.937797 0
M  V30 7841 H 737.737 -0.0778997 3.51614 0
M  V30 7842 H 737.611 -1.81551 3.30634 0
M  V30 7843 H 739.998 -1.83057 2.31461 0
M  V30 7844 H 740.079 -0.0796721 2.55676 0
M  V30 7845 H 739.723 -0.431961 5.0606 0
M  V30 7846 H 739.653 -2.19118 4.78848 0
M  V30 7847 H 742.144 -1.19646 3.5846 0
M  V30 7848 H 742.457 -1.84561 7.50438 0
M  V30 7849 H 740.802 -1.66655 6.74723 0
M  V30 7850 H 743.993 -1.40188 4.46615 0
M  V30 7851 H 744.166 -1.69812 6.25354 0
M  V30 7852 N 737.572 -1.44907 -0.619662 0
M  V30 7853 C 738.519 -1.52654 -1.73105 0
M  V30 7854 C 739.489 -0.373334 -1.6185 0
M  V30 7855 O 740.674 -0.585143 -1.81606 0
M  V30 7856 C 737.814 -1.48769 -3.11387 0
M  V30 7857 C 736.927 -2.74551 -3.33535 0
M  V30 7858 C 736.062 -2.62421 -4.61854 0
M  V30 7859 C 735.101 -3.83312 -4.77219 0
M  V30 7860 N 734.238 -3.69789 -5.96826 0
M  V30 7861 H 739.078 -2.47605 -1.65819 0
M  V30 7862 H 736.615 -1.22875 -0.808719 0
M  V30 7863 H 738.573 -1.44507 -3.91374 0
M  V30 7864 H 737.203 -0.573783 -3.1766 0
M  V30 7865 H 736.255 -2.88953 -2.47408 0
M  V30 7866 H 737.567 -3.64253 -3.40765 0
M  V30 7867 H 736.721 -2.56056 -5.50019 0
M  V30 7868 H 735.46 -1.70298 -4.57001 0
M  V30 7869 H 734.465 -3.90049 -3.87481 0
M  V30 7870 H 735.69 -4.76486 -4.83878 0
M  V30 7871 H 733.636 -2.80426 -5.93041 0
M  V30 7872 H 733.553 -4.53116 -6.05163 0
M  V30 7873 H 734.821 -3.67335 -6.87521 0
M  V30 7874 N 739.05 0.861098 -1.31996 0
M  V30 7875 C 739.98 1.98482 -1.22993 0
M  V30 7876 C 740.961 1.6971 -0.115168 0
M  V30 7877 O 742.146 1.91849 -0.30126 0
M  V30 7878 C 739.276 3.34179 -0.945615 0
M  V30 7879 C 738.23 3.77284 -2.02091 0
M  V30 7880 C 737.556 5.1054 -1.58912 0
M  V30 7881 C 738.856 3.93439 -3.43515 0
M  V30 7882 H 740.55 2.06271 -2.17008 0
M  V30 7883 H 738.096 0.991043 -1.04472 0
M  V30 7884 H 740.049 4.12338 -0.869206 0
M  V30 7885 H 738.773 3.26586 0.0301849 0
M  V30 7886 H 737.432 3.01371 -2.08737 0
M  V30 7887 H 737.08 4.99397 -0.600942 0
M  V30 7888 H 736.78 5.40352 -2.30854 0
M  V30 7889 H 738.304 5.91199 -1.52696 0
M  V30 7890 H 739.718 4.6197 -3.39495 0
M  V30 7891 H 738.115 4.34661 -4.13751 0
M  V30 7892 H 739.185 2.96548 -3.8365 0
M  V30 7893 N 740.528 1.15101 1.07655 0
M  V30 7894 C 741.478 0.813448 2.12995 0
M  V30 7895 C 742.462 -0.200899 1.59641 0
M  V30 7896 O 743.654 -0.00209918 1.77 0
M  V30 7897 C 740.783 0.301078 3.41977 0
M  V30 7898 C 739.869 1.3454 4.02194 0
M  V30 7899 N 740.26 2.55181 4.36711 0
M  V30 7900 C 738.558 1.19742 4.29625 0
M  V30 7901 C 739.259 3.22094 4.84387 0
M  V30 7902 N 738.235 2.49486 4.82968 0
M  V30 7903 H 742.037 1.73105 2.37511 0
M  V30 7904 H 739.551 1.03601 1.25063 0
M  V30 7905 H 741.548 0.040914 4.1688 0
M  V30 7906 H 740.208 -0.610629 3.18907 0
M  V30 7907 H 741.219 2.92349 4.27496 0
M  V30 7908 H 737.896 0.345353 4.16069 0
M  V30 7909 H 739.286 4.24996 5.20411 0
M  V30 7910 N 742.006 -1.2595 0.947325 0
M  V30 7911 C 742.936 -2.28521 0.479604 0
M  V30 7912 C 743.917 -1.63469 -0.470293 0
M  V30 7913 O 745.102 -1.90627 -0.370824 0
M  V30 7914 C 742.232 -3.46397 -0.250289 0
M  V30 7915 C 741.186 -4.23578 0.613643 0
M  V30 7916 C 740.512 -5.34131 -0.246568 0
M  V30 7917 C 741.812 -4.86979 1.88809 0
M  V30 7918 H 743.506 -2.67895 1.33688 0
M  V30 7919 H 741.052 -1.28783 0.644274 0
M  V30 7920 H 743.005 -4.17269 -0.588576 0
M  V30 7921 H 741.729 -3.05993 -1.14175 0
M  V30 7922 H 740.388 -3.54478 0.93491 0
M  V30 7923 H 740.036 -4.89968 -1.13756 0
M  V30 7924 H 739.736 -5.86683 0.328123 0
M  V30 7925 H 741.26 -6.07839 -0.579986 0
M  V30 7926 H 742.674 -5.50034 1.61666 0
M  V30 7927 H 741.071 -5.49675 2.40784 0
M  V30 7928 H 742.141 -4.09575 2.5957 0
M  V30 7929 N 743.484 -0.715051 -1.40445 0
M  V30 7930 C 744.714 -0.263576 -2.04912 0
M  V30 7931 C 745.122 1.09943 -1.53978 0
M  V30 7932 O 744.465 1.70203 -0.691133 0
M  V30 7933 C 744.527 -0.165048 -3.59121 0
M  V30 7934 C 744.191 -1.46325 -4.32941 0
M  V30 7935 C 745.188 -2.40506 -4.60926 0
M  V30 7936 C 742.873 -1.72203 -4.7186 0
M  V30 7937 C 744.867 -3.58812 -5.26814 0
M  V30 7938 C 742.554 -2.9079 -5.3748 0
M  V30 7939 C 743.552 -3.83917 -5.64887 0
M  V30 7940 O 743.24 -5.00424 -6.29151 0
M  V30 7941 H 742.972 -0.116317 -0.665918 0
M  V30 7942 H 745.526 -0.973774 -1.8085 0
M  V30 7943 H 743.756 0.601088 -3.82 0
M  V30 7944 H 745.445 0.251794 -4.05118 0
M  V30 7945 H 746.211 -2.21778 -4.31323 0
M  V30 7946 H 742.09 -1.00571 -4.49896 0
M  V30 7947 H 745.634 -4.31517 -5.48123 0
M  V30 7948 H 741.531 -3.09428 -5.66502 0
M  V30 7949 H 742.299 -5.00494 -6.47648 0
M  V30 7950 N 744.962 1.50701 -0.461195 0
M  V30 7951 C 746.187 2.07171 0.0974773 0
M  V30 7952 C 746.612 1.32391 1.3362 0
M  V30 7953 O 745.97 0.368676 1.77512 0
M  V30 7954 C 746.018 3.58651 0.374409 0
M  V30 7955 O 745.122 3.85816 1.4567 0
M  V30 7956 H 744.463 0.663944 -0.00862047 0
M  V30 7957 H 746.993 1.94021 -0.649394 0
M  V30 7958 H 747.003 4.03295 0.617843 0
M  V30 7959 H 745.678 4.12498 -0.530829 0
M  V30 7960 H 744.255 3.53018 1.20136 0
M  V30 7961 N 746.441 0.193421 1.56409 0
M  V30 7962 C 747.391 -0.74089 2.15627 0
M  V30 7963 C 748.375 -1.17747 1.09656 0
M  V30 7964 O 749.567 -1.13615 1.35723 0
M  V30 7965 C 746.696 -1.96091 2.81786 0
M  V30 7966 C 745.782 -1.54531 3.94944 0
M  V30 7967 N 746.173 -0.840569 4.98767 0
M  V30 7968 C 744.471 -1.83473 4.06514 0
M  V30 7969 C 745.172 -0.632571 5.7825 0
M  V30 7970 N 744.148 -1.18078 5.30621 0
M  V30 7971 H 747.95 -0.193718 2.93261 0
M  V30 7972 H 745.464 -0.00643211 1.62399 0
M  V30 7973 H 747.461 -2.64071 3.22602 0
M  V30 7974 H 746.121 -2.51282 2.05639 0
M  V30 7975 H 747.132 -0.496218 5.15517 0
M  V30 7976 H 743.809 -2.40184 3.41493 0
M  V30 7977 H 745.199 -0.0736433 6.7186 0
M  V30 7978 N 747.919 -1.57396 -0.0801906 0
M  V30 7979 C 749.33 -1.75642 -0.633002 0
M  V30 7980 C 749.681 -0.817708 -1.78348 0
M  V30 7981 O 748.806 0.000233743 -2.164 0
M  V30 7982 C 749.401 -3.18502 -1.15507 0
M  V30 7983 C 747.96 -3.38121 -1.65381 0
M  V30 7984 C 747.107 -2.71386 -0.569661 0
M  V30 7985 H 750.058 -1.58027 0.145949 0
M  V30 7986 H 750.079 -3.22198 -2.02408 0
M  V30 7987 H 749.591 -3.86799 -0.317515 0
M  V30 7988 H 747.692 -2.74926 -2.51488 0
M  V30 7989 H 747.805 -4.46521 -1.73654 0
M  V30 7990 H 746.169 -2.33702 -1.0127 0
M  V30 7991 H 746.952 -3.42332 0.257561 0
M  V30 7992 N 749.397 0.351382 -1.53633 0
M  V30 7993 C 750.646 1.08988 -1.69719 0
M  V30 7994 C 750.959 1.90043 -0.462948 0
M  V30 7995 O 752.165 2.66769 -0.504613 0
M  V30 7996 C 750.621 1.98691 -3.00083 0
M  V30 7997 C 750.229 1.22881 -4.30818 0
M  V30 7998 C 751.973 2.72446 -3.25536 0
M  V30 7999 C 749.88 2.11568 -5.52262 0
M  V30 8000 H 748.81 0.410588 -0.632403 0
M  V30 8001 H 751.461 0.349886 -1.80133 0
M  V30 8002 H 749.843 2.76478 -2.83506 0
M  V30 8003 H 751.017 0.500582 -4.58073 0
M  V30 8004 H 749.332 0.60928 -4.11918 0
M  V30 8005 H 751.929 3.39055 -4.13456 0
M  V30 8006 H 752.272 3.38588 -2.42206 0
M  V30 8007 H 752.805 2.01735 -3.42852 0
M  V30 8008 H 749.544 1.4998 -6.38111 0
M  V30 8009 H 749.064 2.82201 -5.29266 0
M  V30 8010 H 750.743 2.70802 -5.87601 0
M  V30 8011 N 750.875 1.45233 0.611969 0
M  V30 8012 C 752.124 1.48296 1.36716 0
M  V30 8013 C 752.437 0.12706 1.95187 0
M  V30 8014 O 753.643 0.0353066 2.71477 0
M  V30 8015 C 752.099 2.61168 2.47627 0
M  V30 8016 C 751.707 4.03051 1.95587 0
M  V30 8017 C 753.451 2.73472 3.24674 0
M  V30 8018 C 751.358 5.07312 3.03954 0
M  V30 8019 H 750.288 0.5518 0.513841 0
M  V30 8020 H 752.939 1.7136 0.656359 0
M  V30 8021 H 751.321 2.31379 3.21372 0
M  V30 8022 H 752.495 4.42497 1.2858 0
M  V30 8023 H 750.81 3.95158 1.31298 0
M  V30 8024 H 753.407 3.48537 4.05494 0
M  V30 8025 H 753.75 1.79953 3.75397 0
M  V30 8026 H 754.283 3.02765 2.58028 0
M  V30 8027 H 751.022 6.02525 2.58154 0
M  V30 8028 H 750.542 4.7244 3.69541 0
M  V30 8029 H 752.221 5.31867 3.6841 0
M  V30 8030 N 752.353 -0.854086 1.3245 0
M  V30 8031 C 753.283 -1.97827 1.24044 0
M  V30 8032 C 754.264 -1.69646 0.124166 0
M  V30 8033 O 755.449 -1.91687 0.31143 0
M  V30 8034 C 752.579 -3.33673 0.963324 0
M  V30 8035 C 751.533 -3.76207 2.04089 0
M  V30 8036 C 750.859 -5.0969 1.61618 0
M  V30 8037 C 752.159 -3.91612 3.45597 0
M  V30 8038 H 753.853 -2.05118 2.18099 0
M  V30 8039 H 751.399 -0.985489 1.04996 0
M  V30 8040 H 753.352 -4.11871 0.891061 0
M  V30 8041 H 752.076 -3.26597 -0.0128649 0
M  V30 8042 H 750.735 -3.0026 2.10332 0
M  V30 8043 H 750.383 -4.99072 0.627418 0
M  V30 8044 H 750.083 -5.3912 2.33717 0
M  V30 8045 H 751.607 -5.90381 1.55829 0
M  V30 8046 H 753.021 -4.60163 3.4194 0
M  V30 8047 H 751.418 -4.3246 4.16051 0
M  V30 8048 H 752.488 -2.9451 3.85217 0
M  V30 8049 N 753.831 -1.1567 -1.07043 0
M  V30 8050 C 755.079 -0.931673 -1.79344 0
M  V30 8051 C 755.4 0.542421 -1.87304 0
M  V30 8052 O 754.67 1.39418 -1.37621 0
M  V30 8053 H 753.25 -0.34171 -0.664262 0
M  V30 8054 H 755.912 -1.45795 -1.29344 0
M  V30 8055 H 755.008 -1.34379 -2.81689 0
M  V30 8056 N 755.309 1.25446 -0.953992 0
M  V30 8057 C 756.556 1.93143 -0.608429 0
M  V30 8058 C 756.884 1.74727 0.854451 0
M  V30 8059 O 756.139 1.0855 1.62836 0
M  V30 8060 C 756.438 3.45555 -0.912496 0
M  V30 8061 C 756.104 3.84126 -2.36131 0
M  V30 8062 C 754.766 3.94367 -2.75732 0
M  V30 8063 C 757.118 4.0324 -3.30223 0
M  V30 8064 C 754.446 4.21127 -4.08496 0
M  V30 8065 C 756.798 4.31493 -4.62598 0
M  V30 8066 C 755.462 4.3995 -5.01996 0
M  V30 8067 H 754.732 0.706762 -0.22264 0
M  V30 8068 H 757.379 1.49005 -1.20291 0
M  V30 8069 H 755.684 3.91091 -0.235618 0
M  V30 8070 H 757.381 3.9612 -0.623714 0
M  V30 8071 H 753.971 3.76711 -2.04418 0
M  V30 8072 H 758.155 3.94744 -3.00817 0
M  V30 8073 H 753.411 4.2589 -4.38665 0
M  V30 8074 H 757.585 4.45227 -5.35486 0
M  V30 8075 H 755.212 4.60439 -6.04896 0
M  V30 8076 N 756.787 0.722489 1.40064 0
M  V30 8077 C 758.203 0.396758 1.5459 0
M  V30 8078 C 758.403 -1.09375 1.69232 0
M  V30 8079 O 757.459 -1.87984 1.68578 0
M  V30 8080 C 758.772 1.16885 2.77053 0
M  V30 8081 C 760.32 1.15583 2.90877 0
M  V30 8082 C 760.795 1.91023 4.16262 0
M  V30 8083 N 762.286 1.88126 4.23276 0
M  V30 8084 C 763.021 2.43315 5.19216 0
M  V30 8085 N 762.517 3.07089 6.21022 0
M  V30 8086 N 764.31 2.33418 5.11344 0
M  V30 8087 H 756.461 1.68887 1.28806 0
M  V30 8088 H 758.724 0.714231 0.62336 0
M  V30 8089 H 758.43 2.22301 2.72534 0
M  V30 8090 H 758.304 0.765011 3.69361 0
M  V30 8091 H 760.691 0.10984 2.94896 0
M  V30 8092 H 760.772 1.59895 1.99668 0
M  V30 8093 H 760.416 2.95616 4.13006 0
M  V30 8094 H 760.346 1.44126 5.06493 0
M  V30 8095 H 762.837 1.41654 3.50346 0
M  V30 8096 H 763.15 3.467 6.90666 0
M  V30 8097 H 761.495 3.11175 6.21446 0
M  V30 8098 H 764.686 1.83248 4.30741 0
M  V30 8099 H 764.859 2.7673 5.85939 0
M  V30 8100 N 758.265 -1.50454 0.469181 0
M  V30 8101 C 759.212 -2.28486 -0.325982 0
M  V30 8102 C 760.182 -1.33455 -0.988893 0
M  V30 8103 O 761.367 -1.6239 -1.0017 0
M  V30 8104 C 758.507 -3.15288 -1.40313 0
M  V30 8105 C 757.62 -4.25348 -0.755183 0
M  V30 8106 C 756.755 -4.9941 -1.81006 0
M  V30 8107 C 755.794 -6.01348 -1.14226 0
M  V30 8108 N 754.931 -6.68695 -2.1399 0
M  V30 8109 H 759.771 -2.95987 0.345753 0
M  V30 8110 H 757.308 -1.45965 0.182355 0
M  V30 8111 H 759.266 -3.63964 -2.03927 0
M  V30 8112 H 757.896 -2.49837 -2.04405 0
M  V30 8113 H 756.948 -3.80399 -0.00651901 0
M  V30 8114 H 758.26 -4.98279 -0.227941 0
M  V30 8115 H 757.414 -5.51794 -2.52206 0
M  V30 8116 H 756.153 -4.26181 -2.3711 0
M  V30 8117 H 755.158 -5.48225 -0.415876 0
M  V30 8118 H 756.383 -6.76548 -0.588135 0
M  V30 8119 H 754.329 -5.98258 -2.69115 0
M  V30 8120 H 754.246 -7.37495 -1.66246 0
M  V30 8121 H 755.514 -7.25697 -2.84576 0
M  V30 8122 N 759.743 -0.201713 -1.56304 0
M  V30 8123 C 760.992 0.435557 -1.96941 0
M  V30 8124 C 761.305 1.62299 -1.09172 0
M  V30 8125 O 762.511 2.32849 -1.3962 0
M  V30 8126 C 760.967 0.826298 -3.50286 0
M  V30 8127 C 760.575 -0.337216 -4.46729 0
M  V30 8128 C 762.319 1.43028 -3.99679 0
M  V30 8129 C 760.226 0.0748539 -5.91353 0
M  V30 8130 H 759.156 0.1665 -0.735387 0
M  V30 8131 H 761.807 -0.294781 -1.81117 0
M  V30 8132 H 760.189 1.61349 -3.61639 0
M  V30 8133 H 761.363 -1.11476 -4.47113 0
M  V30 8134 H 759.678 -0.853126 -4.07567 0
M  V30 8135 H 762.275 1.75115 -5.05212 0
M  V30 8136 H 762.618 2.33911 -3.44371 0
M  V30 8137 H 763.151 0.706924 -3.91468 0
M  V30 8138 H 759.89 -0.799957 -6.506 0
M  V30 8139 H 759.41 0.817122 -5.94208 0
M  V30 8140 H 761.089 0.508389 -6.45 0
M  V30 8141 N 761.222 1.57436 0.0718424 0
M  V30 8142 C 762.633 1.75975 0.623678 0
M  V30 8143 C 762.984 0.827155 1.77912 0
M  V30 8144 O 762.109 0.0112425 2.16397 0
M  V30 8145 C 762.704 3.1911 1.13816 0
M  V30 8146 C 761.263 3.38994 1.63586 0
M  V30 8147 C 760.41 2.71684 0.555261 0
M  V30 8148 H 763.361 1.57948 -0.154328 0
M  V30 8149 H 763.382 3.23267 2.00696 0
M  V30 8150 H 762.894 3.86962 0.296998 0
M  V30 8151 H 760.995 2.76256 2.50027 0
M  V30 8152 H 761.108 4.47436 1.71283 0
M  V30 8153 H 759.472 2.34236 1.00029 0
M  V30 8154 H 760.255 3.42191 -0.275712 0
M  V30 8155 N 762.7 -0.34323 1.53817 0
M  V30 8156 C 763.633 -1.44472 1.76644 0
M  V30 8157 C 764.611 -1.50498 0.615556 0
M  V30 8158 O 765.795 -1.6821 0.850751 0
M  V30 8159 C 762.922 -2.82705 1.86536 0
M  V30 8160 C 761.968 -2.94302 3.08688 0
M  V30 8161 S 762.801 -2.60739 4.67735 0
M  V30 8162 C 763.957 -4.01079 4.80506 0
M  V30 8163 H 764.19 -1.24893 2.69794 0
M  V30 8164 H 761.723 -0.538915 1.4469 0
M  V30 8165 H 763.681 -3.62342 1.92921 0
M  V30 8166 H 762.342 -2.9958 0.943975 0
M  V30 8167 H 761.535 -3.95593 3.12286 0
M  V30 8168 H 761.137 -2.22614 3.00531 0
M  V30 8169 H 763.429 -4.95603 4.61935 0
M  V30 8170 H 764.372 -4.02475 5.82597 0
M  V30 8171 H 764.78 -3.89119 4.08958 0
M  V30 8172 N 764.178 -1.45556 -0.604258 0
M  V30 8173 C 765.426 -1.4945 -1.36048 0
M  V30 8174 C 765.747 -0.138933 -1.94504 0
M  V30 8175 O 765.017 0.832097 -1.7735 0
M  V30 8176 H 763.597 -0.550381 -0.505064 0
M  V30 8177 H 766.259 -1.81535 -0.709308 0
M  V30 8178 H 765.355 -2.23519 -2.17821 0
M  V30 8179 N 765.656 0.84705 -1.32902 0
M  V30 8180 C 766.902 1.60414 -1.24078 0
M  V30 8181 C 767.235 1.93217 0.195105 0
M  V30 8182 O 766.51 1.58001 1.13428 0
M  V30 8183 C 766.793 2.91951 -2.108 0
M  V30 8184 C 766.646 2.6588 -3.62805 0
M  V30 8185 C 767.965 3.93299 -1.97494 0
M  V30 8186 H 765.084 0.58206 -0.452079 0
M  V30 8187 H 767.726 0.977562 -1.62922 0
M  V30 8188 H 765.876 3.45425 -1.77802 0
M  V30 8189 H 767.548 2.18902 -4.06054 0
M  V30 8190 H 765.791 1.99716 -3.85092 0
M  V30 8191 H 766.462 3.59574 -4.1882 0
M  V30 8192 H 768.938 3.49105 -2.26417 0
M  V30 8193 H 767.814 4.8318 -2.60438 0
M  V30 8194 H 768.075 4.31887 -0.944782 0
M  V30 8195 N 767.134 1.16236 1.06428 0
M  V30 8196 C 768.382 0.941171 1.78847 0
M  V30 8197 C 768.703 -0.53248 1.87589 0
M  V30 8198 O 767.973 -1.38686 1.38358 0
M  V30 8199 H 766.553 0.345228 0.66244 0
M  V30 8200 H 769.215 1.46479 1.28569 0
M  V30 8201 H 768.311 1.35871 2.80972 0
M  V30 8202 N 768.612 -1.24939 0.960631 0
M  V30 8203 C 769.542 -2.28 0.503815 0
M  V30 8204 C 770.523 -1.63959 -0.452928 0
M  V30 8205 O 771.708 -1.91009 -0.350585 0
M  V30 8206 C 768.838 -3.46643 -0.213535 0
M  V30 8207 C 767.792 -4.22903 0.658535 0
M  V30 8208 C 767.118 -5.34363 -0.189902 0
M  V30 8209 C 768.418 -4.84949 1.93963 0
M  V30 8210 H 770.112 -2.66462 1.36521 0
M  V30 8211 H 767.658 -1.28093 0.657897 0
M  V30 8212 H 769.611 -4.1787 -0.544286 0
M  V30 8213 H 768.335 -3.07187 -1.10923 0
M  V30 8214 H 766.994 -3.53467 0.972455 0
M  V30 8215 H 766.642 -4.91147 -1.08553 0
M  V30 8216 H 766.342 -5.86302 0.390331 0
M  V30 8217 H 767.866 -6.0842 -0.515484 0
M  V30 8218 H 769.28 -5.48288 1.67491 0
M  V30 8219 H 767.677 -5.47091 2.46601 0
M  V30 8220 H 768.747 -4.06799 2.639 0
M  V30 8221 N 770.09 -0.729906 -1.39679 0
M  V30 8222 C 771.315 -0.284345 -2.05442 0
M  V30 8223 C 771.74 1.07056 -1.54663 0
M  V30 8224 O 771.098 1.67732 -0.688157 0
M  V30 8225 C 771.146 -0.290089 -3.59431 0
M  V30 8226 O 770.25 0.723978 -4.05995 0
M  V30 8227 H 769.591 -0.130311 -0.651088 0
M  V30 8228 H 772.121 -0.994403 -1.78809 0
M  V30 8229 H 772.131 -0.132712 -4.07784 0
M  V30 8230 H 770.806 -1.27877 -3.95753 0
M  V30 8231 H 769.383 0.533154 -3.69069 0
M  V30 8232 N 771.568 1.50203 -0.477153 0
M  V30 8233 C 772.979 1.86685 -0.0235041 0
M  V30 8234 C 773.33 1.39148 1.38319 0
M  V30 8235 O 772.455 0.759051 2.02651 0
M  V30 8236 C 773.05 3.38781 -0.0358767 0
M  V30 8237 C 771.609 3.74652 0.362327 0
M  V30 8238 C 770.756 2.7412 -0.41875 0
M  V30 8239 H 773.707 1.4286 -0.691133 0
M  V30 8240 H 773.728 3.72732 0.764924 0
M  V30 8241 H 773.24 3.73349 -1.05981 0
M  V30 8242 H 771.341 3.45686 1.39039 0
M  V30 8243 H 771.454 4.79063 0.059457 0
M  V30 8244 H 769.818 2.54376 0.128341 0
M  V30 8245 H 770.601 3.11532 -1.44231 0
M  V30 8246 N 773.046 0.209999 1.56195 0
M  V30 8247 C 774.293 -0.424813 1.97994 0
M  V30 8248 C 774.621 -1.60589 1.09733 0
M  V30 8249 O 773.876 -1.95201 0.139693 0
M  V30 8250 C 774.175 -0.91312 3.45539 0
M  V30 8251 C 773.841 0.156187 4.50629 0
M  V30 8252 C 772.503 0.449966 4.79092 0
M  V30 8253 C 774.855 0.879959 5.13718 0
M  V30 8254 C 772.183 1.47223 5.67928 0
M  V30 8255 C 774.535 1.89148 6.0366 0
M  V30 8256 C 773.199 2.1923 6.30472 0
M  V30 8257 H 772.469 -0.15545 0.724511 0
M  V30 8258 H 775.116 0.310095 1.88973 0
M  V30 8259 H 773.421 -1.72658 3.51705 0
M  V30 8260 H 775.118 -1.41395 3.75245 0
M  V30 8261 H 771.708 -0.0829466 4.2852 0
M  V30 8262 H 775.892 0.66623 4.91808 0
M  V30 8263 H 771.148 1.71105 5.86969 0
M  V30 8264 H 775.322 2.45745 6.516 0
M  V30 8265 H 772.949 2.98587 6.99107 0
M  V30 8266 N 774.524 -1.57472 -0.0634922 0
M  V30 8267 C 775.454 -2.07297 -1.07473 0
M  V30 8268 C 776.435 -0.968162 -1.39859 0
M  V30 8269 O 777.62 -1.24139 -1.49343 0
M  V30 8270 C 774.75 -2.52381 -2.38581 0
M  V30 8271 C 773.704 -3.66813 -2.20526 0
M  V30 8272 C 773.03 -3.97982 -3.57092 0
M  V30 8273 C 774.33 -4.96553 -1.61965 0
M  V30 8274 H 776.024 -2.92033 -0.660092 0
M  V30 8275 H 773.57 -1.40488 -0.316074 0
M  V30 8276 H 775.523 -2.85852 -3.09624 0
M  V30 8277 H 774.247 -1.64684 -2.8204 0
M  V30 8278 H 772.906 -3.33639 -1.51924 0
M  V30 8279 H 772.554 -3.07403 -3.98136 0
M  V30 8280 H 772.254 -4.7504 -3.45848 0
M  V30 8281 H 773.778 -4.33956 -4.29552 0
M  V30 8282 H 775.192 -5.28201 -2.22883 0
M  V30 8283 H 773.589 -5.7799 -1.61394 0
M  V30 8284 H 774.659 -4.81396 -0.581918 0
M  V30 8285 N 776.003 0.335068 -1.53997 0
M  V30 8286 C 776.933 1.41727 -1.85568 0
M  V30 8287 C 777.914 1.54505 -0.7115 0
M  V30 8288 O 779.099 1.68573 -0.964191 0
M  V30 8289 C 776.229 2.7866 -2.07282 0
M  V30 8290 C 775.183 2.80682 -3.23112 0
M  V30 8291 C 774.509 4.20581 -3.30175 0
M  V30 8292 C 775.809 2.45458 -4.61029 0
M  V30 8293 H 777.503 1.15555 -2.76202 0
M  V30 8294 H 775.049 0.554445 -1.32898 0
M  V30 8295 H 777.002 3.54423 -2.27952 0
M  V30 8296 H 775.726 3.06286 -1.13387 0
M  V30 8297 H 774.385 2.07373 -3.02311 0
M  V30 8298 H 774.033 4.4533 -2.33859 0
M  V30 8299 H 773.733 4.22843 -4.08016 0
M  V30 8300 H 775.257 4.98174 -3.53066 0
M  V30 8301 H 776.671 3.10934 -4.81656 0
M  V30 8302 H 775.068 2.5899 -5.41336 0
M  V30 8303 H 776.138 1.40628 -4.6406 0
M  V30 8304 N 777.481 1.45874 0.596531 0
M  V30 8305 C 778.444 1.54988 1.68853 0
M  V30 8306 C 779.444 0.428302 1.54991 0
M  V30 8307 O 780.634 0.692158 1.59859 0
M  V30 8308 C 777.766 1.457 3.08195 0
M  V30 8309 H 778.959 2.52294 1.62135 0
M  V30 8310 H 776.512 1.33479 0.813206 0
M  V30 8311 H 777.247 0.496204 3.20481 0
M  V30 8312 H 777.032 2.27061 3.19665 0
M  V30 8313 H 778.522 1.55133 3.87716 0
M  V30 8314 N 778.959 -0.83999 1.33349 0
M  V30 8315 C 779.891 -1.95678 1.19344 0
M  V30 8316 C 780.904 -1.62322 0.124692 0
M  V30 8317 O 782.093 -1.74516 0.375012 0
M  V30 8318 C 779.193 -3.29133 0.807771 0
M  V30 8319 C 778.366 -3.9063 1.96792 0
M  V30 8320 C 777.425 -5.02438 1.56341 0
M  V30 8321 O 776.451 -5.21646 2.27759 0
M  V30 8322 N 777.653 -5.78612 0.467767 0
M  V30 8323 H 780.418 -2.08229 2.15548 0
M  V30 8324 H 777.979 -1.01566 1.26079 0
M  V30 8325 H 779.971 -4.01355 0.519282 0
M  V30 8326 H 778.541 -3.12535 -0.063555 0
M  V30 8327 H 777.761 -3.11011 2.4221 0
M  V30 8328 H 779.049 -4.2845 2.74422 0
M  V30 8329 H 778.447 -5.65559 -0.126324 0
M  V30 8330 H 777.004 -6.51362 0.238945 0
M  V30 8331 N 780.437 -1.16799 -1.0581 0
M  V30 8332 C 781.684 -0.952524 -1.78699 0
M  V30 8333 C 782.012 0.51931 -1.87439 0
M  V30 8334 O 781.267 1.40151 -1.36587 0
M  V30 8335 C 781.566 -1.53111 -3.22942 0
M  V30 8336 C 781.232 -3.0261 -3.34273 0
M  V30 8337 C 779.894 -3.43418 -3.37072 0
M  V30 8338 C 782.246 -3.98611 -3.35795 0
M  V30 8339 C 779.574 -4.78838 -3.39015 0
M  V30 8340 C 781.926 -5.33923 -3.39277 0
M  V30 8341 C 780.59 -5.74205 -3.40361 0
M  V30 8342 H 779.86 -0.348553 -0.653905 0
M  V30 8343 H 782.507 -1.45591 -1.244 0
M  V30 8344 H 780.812 -0.949286 -3.80126 0
M  V30 8345 H 782.509 -1.34002 -3.77948 0
M  V30 8346 H 779.099 -2.70075 -3.32803 0
M  V30 8347 H 783.283 -3.68146 -3.32839 0
M  V30 8348 H 778.539 -5.09369 -3.38161 0
M  V30 8349 H 782.713 -6.08094 -3.39403 0
M  V30 8350 H 780.34 -6.79117 -3.4162 0
M  V30 8351 N 781.915 1.24427 -0.967243 0
M  V30 8352 C 783.143 1.96541 -0.646477 0
M  V30 8353 C 783.558 1.71753 0.783996 0
M  V30 8354 O 782.915 1.00102 1.52597 0
M  V30 8355 C 782.966 3.4983 -0.911098 0
M  V30 8356 O 782.687 3.7377 -2.28534 0
M  V30 8357 C 784.188 4.3916 -0.604458 0
M  V30 8358 H 781.408 0.626129 -0.241255 0
M  V30 8359 H 783.952 1.58268 -1.29505 0
M  V30 8360 H 782.107 3.86168 -0.308741 0
M  V30 8361 H 782.521 4.68154 -2.365 0
M  V30 8362 H 783.995 5.4557 -0.840069 0
M  V30 8363 H 784.472 4.36771 0.461273 0
M  V30 8364 H 785.078 4.08409 -1.1867 0
M  V30 8365 N 783.393 0.737304 1.3929 0
M  V30 8366 C 784.618 0.295237 2.05288 0
M  V30 8367 C 785.043 -1.06235 1.55228 0
M  V30 8368 O 784.401 -1.67365 0.697043 0
M  V30 8369 C 784.449 0.309146 3.59272 0
M  V30 8370 O 783.553 -0.702437 4.06374 0
M  V30 8371 H 782.894 0.133762 0.650387 0
M  V30 8372 H 785.424 1.00387 1.78279 0
M  V30 8373 H 785.434 0.154336 4.07708 0
M  V30 8374 H 784.109 1.29974 3.95069 0
M  V30 8375 H 782.686 -0.513574 3.69346 0
M  V30 8376 N 784.871 -1.49948 0.485112 0
M  V30 8377 C 785.834 -2.27351 -0.290546 0
M  V30 8378 C 786.834 -1.32704 -0.908087 0
M  V30 8379 O 788.024 -1.56007 -0.775085 0
M  V30 8380 C 785.156 -3.10135 -1.41524 0
M  V30 8381 H 786.349 -2.97374 0.388454 0
M  V30 8382 H 783.902 -1.54453 0.239586 0
M  V30 8383 H 784.637 -2.44641 -2.12888 0
M  V30 8384 H 784.422 -3.79705 -0.978074 0
M  V30 8385 H 785.912 -3.68638 -1.96204 0
M  V30 8386 N 786.349 -0.21828 -1.56081 0
M  V30 8387 C 787.598 0.414644 -1.97392 0
M  V30 8388 C 787.911 1.61132 -1.10887 0
M  V30 8389 O 789.117 2.31355 -1.42082 0
M  V30 8390 C 787.573 0.789099 -3.51143 0
M  V30 8391 C 787.181 -0.384578 -4.46346 0
M  V30 8392 C 788.925 1.38781 -4.01173 0
M  V30 8393 C 786.832 0.0121288 -5.91399 0
M  V30 8394 H 785.762 0.158691 -0.737111 0
M  V30 8395 H 788.413 -0.313974 -1.80794 0
M  V30 8396 H 786.795 1.57505 -3.6333 0
M  V30 8397 H 787.969 -1.16212 -4.45905 0
M  V30 8398 H 786.284 -0.896306 -4.06639 0
M  V30 8399 H 788.881 1.69746 -5.07041 0
M  V30 8400 H 789.224 2.30245 -3.46833 0
M  V30 8401 H 789.757 0.665364 -3.92196 0
M  V30 8402 H 786.496 -0.868917 -6.49715 0
M  V30 8403 H 786.016 0.754053 -5.95041 0
M  V30 8404 H 787.695 0.439949 -6.45502 0
M  V30 8405 N 787.827 1.57504 0.0551401 0
M  V30 8406 C 789.067 1.89895 0.756252 0
M  V30 8407 C 789.431 0.813983 1.73892 0
M  V30 8408 O 790.632 1.02145 2.48636 0
M  V30 8409 C 788.903 3.27494 1.43116 0
M  V30 8410 S 790.462 3.81669 2.16504 0
M  V30 8411 H 787.28 0.665173 0.251129 0
M  V30 8412 H 789.882 1.95496 0.0117193 0
M  V30 8413 H 788.586 4.04345 0.702391 0
M  V30 8414 H 788.117 3.25132 2.21479 0
M  V30 8415 H 790.132 3.58295 3.43277 0
M  V30 8416 N 789.305 -0.326896 1.54172 0
M  V30 8417 C 790.53 -1.08924 1.76494 0
M  V30 8418 C 790.955 -1.81039 0.510523 0
M  V30 8419 O 790.313 -1.73141 -0.537756 0
M  V30 8420 C 790.361 -2.06558 2.95578 0
M  V30 8421 O 789.465 -3.14394 2.6689 0
M  V30 8422 H 788.806 -0.314216 0.584948 0
M  V30 8423 H 791.336 -0.372207 2.01186 0
M  V30 8424 H 791.346 -2.49487 3.22832 0
M  V30 8425 H 790.021 -1.53469 3.86549 0
M  V30 8426 H 788.598 -2.76164 2.50576 0
M  V30 8427 N 790.784 -1.46188 -0.588786 0
M  V30 8428 C 792.03 -1.51407 -1.34921 0
M  V30 8429 C 792.363 -0.162771 -1.93517 0
M  V30 8430 O 791.638 0.825082 -1.76132 0
M  V30 8431 C 791.921 -2.60795 -2.48311 0
M  V30 8432 C 791.774 -4.05435 -1.94789 0
M  V30 8433 C 793.093 -2.66313 -3.50379 0
M  V30 8434 H 790.212 -0.551213 -0.489217 0
M  V30 8435 H 792.854 -1.78095 -0.661993 0
M  V30 8436 H 791.004 -2.3817 -3.06932 0
M  V30 8437 H 792.676 -4.39328 -1.40672 0
M  V30 8438 H 790.919 -4.15202 -1.25659 0
M  V30 8439 H 791.59 -4.77691 -2.76613 0
M  V30 8440 H 794.066 -2.86634 -3.01629 0
M  V30 8441 H 792.942 -3.44681 -4.27184 0
M  V30 8442 H 793.203 -1.72127 -4.07216 0
M  V30 8443 N 792.262 0.832906 -1.33792 0
M  V30 8444 C 793.508 1.59089 -1.25772 0
M  V30 8445 C 793.841 1.93414 0.174601 0
M  V30 8446 O 793.116 1.59195 1.11746 0
M  V30 8447 C 793.399 2.89699 -2.13885 0
M  V30 8448 C 793.252 2.62017 -3.65605 0
M  V30 8449 C 794.571 3.91182 -2.01654 0
M  V30 8450 H 791.69 0.577232 -0.458227 0
M  V30 8451 H 794.332 0.960227 -1.6395 0
M  V30 8452 H 792.482 3.4352 -1.81456 0
M  V30 8453 H 794.154 2.14582 -4.08353 0
M  V30 8454 H 792.397 1.95621 -3.87189 0
M  V30 8455 H 793.068 3.55112 -4.2261 0
M  V30 8456 H 795.544 3.46684 -2.30107 0
M  V30 8457 H 794.42 4.80391 -2.65548 0
M  V30 8458 H 794.681 4.30861 -0.990536 0
M  V30 8459 N 793.74 1.17359 1.05189 0
M  V30 8460 C 795.156 0.920861 1.30355 0
M  V30 8461 C 795.356 -0.419993 1.97074 0
M  V30 8462 O 794.412 -1.15696 2.24434 0
M  V30 8463 C 795.725 2.07818 2.1733 0
M  V30 8464 C 797.273 2.1152 2.30712 0
M  V30 8465 C 797.748 3.26637 3.21048 0
M  V30 8466 N 799.239 3.26426 3.28634 0
M  V30 8467 C 799.974 4.12141 3.98657 0
M  V30 8468 N 799.47 5.07966 4.71107 0
M  V30 8469 N 801.263 4.00091 3.94821 0
M  V30 8470 H 793.414 2.03666 0.602821 0
M  V30 8471 H 795.677 0.889294 0.328421 0
M  V30 8472 H 795.383 3.04727 1.75597 0
M  V30 8473 H 795.257 2.02922 3.17966 0
M  V30 8474 H 797.644 1.15196 2.71687 0
M  V30 8475 H 797.725 2.20477 1.29706 0
M  V30 8476 H 797.369 4.23227 2.80788 0
M  V30 8477 H 797.299 3.14917 4.2206 0
M  V30 8478 H 799.79 2.57045 2.77013 0
M  V30 8479 H 800.103 5.69766 5.22099 0
M  V30 8480 H 798.448 5.11936 4.7005 0
M  V30 8481 H 801.639 3.24523 3.37346 0
M  V30 8482 H 801.812 4.6711 4.49123 0
M  V30 8483 N 795.218 -1.23913 0.973828 0
M  V30 8484 C 796.634 -1.44325 0.681363 0
M  V30 8485 C 796.834 -1.86832 -0.754728 0
M  V30 8486 O 795.89 -2.01024 -1.52793 0
M  V30 8487 C 797.203 -2.50017 1.67069 0
M  V30 8488 C 798.751 -2.63838 1.68399 0
M  V30 8489 C 799.226 -3.72734 2.66145 0
M  V30 8490 N 800.717 -3.80169 2.64624 0
M  V30 8491 C 801.452 -4.6397 3.36927 0
M  V30 8492 N 800.948 -5.51911 4.18767 0
M  V30 8493 N 802.741 -4.58106 3.25722 0
M  V30 8494 H 794.892 -0.946204 1.9016 0
M  V30 8495 H 797.155 -0.477374 0.819035 0
M  V30 8496 H 796.861 -2.25686 2.69738 0
M  V30 8497 H 796.735 -3.48287 1.4483 0
M  V30 8498 H 799.122 -2.87524 0.664379 0
M  V30 8499 H 799.203 -1.65906 1.94702 0
M  V30 8500 H 798.847 -3.49797 3.68245 0
M  V30 8501 H 798.777 -4.70193 2.3712 0
M  V30 8502 H 801.268 -3.17319 2.05224 0
M  V30 8503 H 801.581 -6.12828 4.70809 0
M  V30 8504 H 799.926 -5.51556 4.2286 0
M  V30 8505 H 803.117 -3.8842 2.61242 0
M  V30 8506 H 803.29 -5.23188 3.82333 0
M  V30 8507 N 796.696 -0.74468 -1.38897 0
M  V30 8508 C 797.659 -0.11945 -2.28889 0
M  V30 8509 C 798.659 0.656942 -1.46768 0
M  V30 8510 O 799.849 0.484525 -1.67326 0
M  V30 8511 C 796.981 0.839635 -3.30398 0
M  V30 8512 H 798.174 -0.912414 -2.85683 0
M  V30 8513 H 795.727 -0.511119 -1.47707 0
M  V30 8514 H 796.462 1.6586 -2.78677 0
M  V30 8515 H 796.247 0.285432 -3.9106 0
M  V30 8516 H 797.737 1.27337 -3.97712 0
M  V30 8517 N 798.174 1.49689 -0.493057 0
M  V30 8518 C 799.421 2.02427 0.0542714 0
M  V30 8519 C 799.749 1.37339 1.37725 0
M  V30 8520 O 799.004 0.495523 1.89323 0
M  V30 8521 C 799.303 3.56427 0.263536 0
M  V30 8522 C 798.969 4.40111 -0.98046 0
M  V30 8523 C 797.631 4.62699 -1.32148 0
M  V30 8524 C 799.983 4.88847 -1.80771 0
M  V30 8525 C 797.311 5.31268 -2.48941 0
M  V30 8526 C 799.663 5.587 -2.96711 0
M  V30 8527 C 798.327 5.79536 -3.31202 0
M  V30 8528 H 797.597 0.740734 0.0198593 0
M  V30 8529 H 800.244 1.80073 -0.651603 0
M  V30 8530 H 798.549 3.77416 1.05186 0
M  V30 8531 H 800.246 3.94819 0.701348 0
M  V30 8532 H 796.836 4.22765 -0.704814 0
M  V30 8533 H 801.02 4.71231 -1.55741 0
M  V30 8534 H 796.276 5.45603 -2.75911 0
M  V30 8535 H 800.45 5.9544 -3.61143 0
M  V30 8536 H 798.077 6.32443 -4.21805 0
M  V30 8537 N 799.652 0.226554 1.55963 0
M  V30 8538 C 801.063 -0.280381 1.84583 0
M  V30 8539 C 801.414 -1.59105 1.14804 0
M  V30 8540 O 800.539 -2.12297 0.419414 0
M  V30 8541 C 801.134 -0.515499 3.34855 0
M  V30 8542 C 799.693 -0.966733 3.63774 0
M  V30 8543 C 798.84 -0.0325753 2.77281 0
M  V30 8544 H 801.791 0.449626 1.52197 0
M  V30 8545 H 801.812 -1.36085 3.55332 0
M  V30 8546 H 801.324 0.438594 3.85614 0
M  V30 8547 H 799.425 -1.93401 3.18476 0
M  V30 8548 H 799.538 -0.837679 4.7172 0
M  V30 8549 H 797.902 -0.540279 2.48904 0
M  V30 8550 H 798.685 0.916524 3.30839 0
M  V30 8551 N 801.13 -1.57531 -0.0467866 0
M  V30 8552 C 802.08 -2.01845 -1.06031 0
M  V30 8553 C 803.064 -0.904662 -1.33059 0
M  V30 8554 O 804.256 -1.16858 -1.32941 0
M  V30 8555 C 801.385 -2.48673 -2.36679 0
M  V30 8556 C 800.471 -3.66837 -2.12818 0
M  V30 8557 N 800.862 -4.80172 -1.5896 0
M  V30 8558 C 799.16 -3.73869 -2.43183 0
M  V30 8559 C 799.861 -5.61895 -1.50494 0
M  V30 8560 N 798.837 -5.0648 -1.97431 0
M  V30 8561 H 802.639 -2.869 -0.637623 0
M  V30 8562 H 800.153 -1.6041 -0.253427 0
M  V30 8563 H 802.15 -2.78671 -3.10077 0
M  V30 8564 H 800.81 -1.65016 -2.79642 0
M  V30 8565 H 801.821 -5.01967 -1.27474 0
M  V30 8566 H 798.498 -3.00977 -2.89342 0
M  V30 8567 H 799.888 -6.62918 -1.09494 0
M  V30 8568 N 802.608 0.318715 -1.54344 0
M  V30 8569 C 803.848 1.06425 -1.74508 0
M  V30 8570 C 804.212 1.85087 -0.510572 0
M  V30 8571 O 805.413 2.62253 -0.589647 0
M  V30 8572 C 803.684 1.96054 -2.98827 0
M  V30 8573 S 805.243 2.77493 -3.39916 0
M  V30 8574 H 802.061 0.35921 -0.613587 0
M  V30 8575 H 804.663 0.339679 -1.92526 0
M  V30 8576 H 803.367 1.37109 -3.8682 0
M  V30 8577 H 802.898 2.72908 -2.83346 0
M  V30 8578 H 804.913 3.98544 -2.95596 0
M  V30 8579 N 804.086 1.46499 0.581025 0
M  V30 8580 C 805.016 1.60052 1.70017 0
M  V30 8581 C 805.997 0.450788 1.64018 0
M  V30 8582 O 807.182 0.677237 1.82009 0
M  V30 8583 C 804.312 1.5921 3.08658 0
M  V30 8584 C 803.266 2.73169 3.29488 0
M  V30 8585 C 802.592 2.57389 4.68674 0
M  V30 8586 C 803.892 4.14978 3.1716 0
M  V30 8587 H 805.586 2.53735 1.5893 0
M  V30 8588 H 803.132 1.22113 0.763173 0
M  V30 8589 H 805.085 1.67285 3.86773 0
M  V30 8590 H 803.809 0.620718 3.20647 0
M  V30 8591 H 802.468 2.64566 2.53773 0
M  V30 8592 H 802.116 1.58331 4.77431 0
M  V30 8593 H 801.816 3.33826 4.83564 0
M  V30 8594 H 803.34 2.67358 5.48956 0
M  V30 8595 H 804.754 4.24684 3.85119 0
M  V30 8596 H 803.151 4.92016 3.4357 0
M  V30 8597 H 804.221 4.35016 2.14218 0
M  V30 8598 N 805.565 -0.825799 1.34232 0
M  V30 8599 C 806.528 -1.91808 1.25468 0
M  V30 8600 C 807.528 -1.59893 0.170567 0
M  V30 8601 O 808.718 -1.68986 0.422996 0
M  V30 8602 C 805.85 -3.27786 0.93644 0
M  V30 8603 H 807.043 -2.01003 2.22571 0
M  V30 8604 H 804.596 -1.01944 1.18479 0
M  V30 8605 H 805.331 -3.24285 -0.0315408 0
M  V30 8606 H 805.116 -3.52333 1.72057 0
M  V30 8607 H 806.606 -4.07782 0.900214 0
M  V30 8608 N 807.043 -1.17915 -1.04565 0
M  V30 8609 C 808.29 -0.971424 -1.77678 0
M  V30 8610 C 808.618 0.499401 -1.87979 0
M  V30 8611 O 807.873 1.38695 -1.38066 0
M  V30 8612 C 808.172 -1.56528 -3.213 0
M  V30 8613 C 807.838 -3.06138 -3.31044 0
M  V30 8614 C 806.5 -3.46974 -3.33411 0
M  V30 8615 C 808.852 -4.02151 -3.31548 0
M  V30 8616 C 806.18 -4.82406 -3.33918 0
M  V30 8617 C 808.532 -5.37492 -3.33595 0
M  V30 8618 C 807.196 -5.77782 -3.34251 0
M  V30 8619 H 806.466 -0.355469 -0.650171 0
M  V30 8620 H 809.113 -1.46902 -1.22849 0
M  V30 8621 H 807.418 -0.98955 -3.79098 0
M  V30 8622 H 809.115 -1.38003 -3.76505 0
M  V30 8623 H 805.705 -2.73589 -3.29919 0
M  V30 8624 H 809.889 -3.71656 -3.28916 0
M  V30 8625 H 805.145 -5.12927 -3.3274 0
M  V30 8626 H 809.319 -6.1166 -3.32934 0
M  V30 8627 H 806.946 -6.82702 -3.34397 0
M  V30 8628 N 808.521 1.23394 -0.980386 0
M  V30 8629 C 809.746 1.96384 -0.666935 0
M  V30 8630 C 810.171 1.72087 0.759456 0
M  V30 8631 O 809.529 0.992328 1.51732 0
M  V30 8632 C 809.577 3.47499 -0.963177 0
M  V30 8633 O 808.681 4.12363 -0.0552051 0
M  V30 8634 H 808.022 0.614797 -0.250839 0
M  V30 8635 H 810.552 1.56831 -1.31398 0
M  V30 8636 H 810.562 3.97953 -0.899877 0
M  V30 8637 H 809.237 3.6451 -2.00264 0
M  V30 8638 H 807.814 3.72499 -0.172914 0
M  V30 8639 N 809.999 0.752036 1.385 0
M  V30 8640 C 811.229 0.317812 2.04141 0
M  V30 8641 C 811.637 -1.05822 1.56839 0
M  V30 8642 O 810.98 -1.68311 0.736016 0
M  V30 8643 C 811.042 0.260205 3.58557 0
M  V30 8644 C 810.706 1.57753 4.28909 0
M  V30 8645 C 811.703 2.52642 4.54387 0
M  V30 8646 C 809.388 1.84653 4.67128 0
M  V30 8647 C 811.382 3.72653 5.17116 0
M  V30 8648 C 809.069 3.04938 5.29581 0
M  V30 8649 C 810.067 3.98759 5.54509 0
M  V30 8650 O 809.755 5.16929 6.15662 0
M  V30 8651 H 809.487 0.133931 0.6626 0
M  V30 8652 H 812.041 1.02138 1.78205 0
M  V30 8653 H 810.271 -0.499596 3.83459 0
M  V30 8654 H 811.96 -0.144295 4.05643 0
M  V30 8655 H 812.726 2.33135 4.25292 0
M  V30 8656 H 808.605 1.12464 4.47071 0
M  V30 8657 H 812.149 4.45898 5.36489 0
M  V30 8658 H 808.046 3.24339 5.58099 0
M  V30 8659 H 808.814 5.1749 6.3415 0
M  V30 8660 N 811.477 -1.49425 0.500989 0
M  V30 8661 C 812.41 -2.25887 -0.324087 0
M  V30 8662 C 813.388 -1.30469 -0.970388 0
M  V30 8663 O 814.572 -1.59758 -1.00049 0
M  V30 8664 C 811.699 -3.05787 -1.45643 0
M  V30 8665 C 810.745 -4.16359 -0.924508 0
M  V30 8666 S 811.578 -5.35181 0.184707 0
M  V30 8667 C 812.734 -6.18636 -0.950806 0
M  V30 8668 H 812.967 -2.95519 0.324891 0
M  V30 8669 H 810.5 -1.51723 0.286289 0
M  V30 8670 H 812.458 -3.52405 -2.10525 0
M  V30 8671 H 811.119 -2.35624 -2.07703 0
M  V30 8672 H 810.312 -4.71781 -1.77311 0
M  V30 8673 H 809.914 -3.72331 -0.352907 0
M  V30 8674 H 812.206 -6.51581 -1.85603 0
M  V30 8675 H 813.149 -7.06761 -0.435212 0
M  V30 8676 H 813.557 -5.512 -1.21813 0
M  V30 8677 N 812.955 -0.234822 -1.55841 0
M  V30 8678 C 814.232 0.442961 -1.90518 0
M  V30 8679 C 814.612 1.76768 -1.15397 0
M  V30 8680 O 813.96 2.26928 -0.267534 0
M  V30 8681 C 814.17 0.622905 -3.43396 0
M  V30 8682 C 815.518 0.9243 -4.14417 0
M  V30 8683 O 816.542 0.709211 -3.49068 0
M  V30 8684 O 815.401 1.33323 -5.29988 0
M  V30 8685 H 812.495 0.236042 -0.792599 0
M  V30 8686 H 815.041 -0.277992 -1.67408 0
M  V30 8687 H 813.813 -0.310973 -3.90062 0
M  V30 8688 H 813.436 1.39485 -3.7233 0
M  V30 8689 N 814.433 1.57553 0.0384317 0
M  V30 8690 C 815.71 1.79977 0.766002 0
M  V30 8691 C 816.09 0.830625 1.94072 0
M  V30 8692 O 815.438 -0.129243 2.28134 0
M  V30 8693 C 815.648 3.27434 1.20781 0
M  V30 8694 C 816.996 3.92167 1.62758 0
M  V30 8695 O 818.02 3.31527 1.30263 0
M  V30 8696 O 816.879 4.98917 2.23035 0
M  V30 8697 H 813.973 0.739787 0.369654 0
M  V30 8698 H 816.519 1.69693 0.0159312 0
M  V30 8699 H 815.291 3.89558 0.368792 0
M  V30 8700 H 814.914 3.42571 2.01819 0
M  V30 8701 N 815.911 -0.310526 1.54511 0
M  V30 8702 C 816.841 -1.38757 1.878 0
M  V30 8703 C 817.822 -1.53353 0.735991 0
M  V30 8704 O 819.007 -1.67018 0.990887 0
M  V30 8705 C 816.137 -2.75327 2.11689 0
M  V30 8706 C 815.091 -2.75506 3.27537 0
M  V30 8707 C 814.417 -4.15275 3.36824 0
M  V30 8708 C 815.717 -2.38093 4.64875 0
M  V30 8709 H 817.411 -1.11146 2.78005 0
M  V30 8710 H 814.957 -0.533232 1.33763 0
M  V30 8711 H 816.91 -3.50752 2.33562 0
M  V30 8712 H 815.634 -3.04443 1.18245 0
M  V30 8713 H 814.293 -2.02538 3.05572 0
M  V30 8714 H 813.941 -4.41553 2.40915 0
M  V30 8715 H 813.641 -4.16299 4.14692 0
M  V30 8716 H 815.165 -4.92493 3.60947 0
M  V30 8717 H 816.579 -3.03232 4.86542 0
M  V30 8718 H 814.976 -2.50345 5.45387 0
M  V30 8719 H 816.046 -1.33227 4.66239 0
M  V30 8720 N 817.389 -1.46805 -0.573248 0
M  V30 8721 C 818.635 -1.5283 -1.33307 0
M  V30 8722 C 818.968 -0.183287 -1.93333 0
M  V30 8723 O 818.243 0.806354 -1.76998 0
M  V30 8724 C 818.526 -2.63414 -2.45531 0
M  V30 8725 C 818.379 -4.07478 -1.90478 0
M  V30 8726 C 819.698 -2.70014 -3.47535 0
M  V30 8727 H 816.817 -0.556371 -0.483343 0
M  V30 8728 H 819.459 -1.78787 -0.643066 0
M  V30 8729 H 817.609 -2.41412 -3.04389 0
M  V30 8730 H 819.281 -4.40795 -1.36004 0
M  V30 8731 H 817.524 -4.16511 -1.21248 0
M  V30 8732 H 818.195 -4.80598 -2.71531 0
M  V30 8733 H 820.671 -2.89817 -2.98572 0
M  V30 8734 H 819.547 -3.49192 -4.23504 0
M  V30 8735 H 819.808 -1.76436 -4.05367 0
M  V30 8736 N 818.867 0.818669 -1.34668 0
M  V30 8737 C 819.797 1.94468 -1.29245 0
M  V30 8738 C 820.778 1.69257 -0.169101 0
M  V30 8739 O 821.963 1.90794 -0.362143 0
M  V30 8740 C 819.093 3.31001 -1.05145 0
M  V30 8741 C 818.047 3.70663 -2.13992 0
M  V30 8742 C 817.373 5.05226 -1.75074 0
M  V30 8743 C 818.673 3.82312 -3.55858 0
M  V30 8744 H 820.367 1.99263 -2.2346 0
M  V30 8745 H 817.913 0.957304 -1.07572 0
M  V30 8746 H 819.866 4.09364 -0.999949 0
M  V30 8747 H 818.59 3.26517 -0.0737312 0
M  V30 8748 H 817.249 2.94578 -2.18219 0
M  V30 8749 H 816.897 4.97233 -0.759518 0
M  V30 8750 H 816.597 5.32734 -2.47928 0
M  V30 8751 H 818.121 5.86042 -1.71427 0
M  V30 8752 H 819.535 4.50935 -3.5402 0
M  V30 8753 H 817.932 4.21278 -4.2737 0
M  V30 8754 H 819.002 2.84193 -3.9289 0
M  V30 8755 N 820.346 1.18468 1.03938 0
M  V30 8756 C 821.594 0.978895 1.76811 0
M  V30 8757 C 821.915 -0.49257 1.88676 0
M  V30 8758 O 821.185 -1.3572 1.41269 0
M  V30 8759 H 819.765 0.359201 0.654968 0
M  V30 8760 H 822.427 1.49173 1.25433 0
M  V30 8761 H 821.523 1.418 2.78027 0
M  V30 8762 N 821.824 -1.22873 0.986916 0
M  V30 8763 C 822.787 -2.2281 0.537442 0
M  V30 8764 C 823.787 -1.56331 -0.37646 0
M  V30 8765 O 824.977 -1.73376 -0.169247 0
M  V30 8766 C 822.109 -3.40195 -0.219082 0
M  V30 8767 H 823.302 -2.64089 1.42116 0
M  V30 8768 H 820.855 -1.35819 0.773488 0
M  V30 8769 H 821.59 -3.04381 -1.11905 0
M  V30 8770 H 821.375 -3.89657 0.437026 0
M  V30 8771 H 822.865 -4.14326 -0.521926 0
M  V30 8772 N 823.302 -0.75937 -1.38099 0
M  V30 8773 C 824.249 -0.135508 -2.30402 0
M  V30 8774 C 825.219 0.703356 -1.50473 0
M  V30 8775 O 826.404 0.658287 -1.79084 0
M  V30 8776 C 823.544 0.747228 -3.36913 0
M  V30 8777 C 822.657 -0.106893 -4.31868 0
M  V30 8778 C 821.792 0.779388 -5.25451 0
M  V30 8779 C 820.831 -0.0780179 -6.1205 0
M  V30 8780 N 819.968 0.765545 -6.97914 0
M  V30 8781 H 824.808 -0.9282 -2.83176 0
M  V30 8782 H 822.345 -0.46935 -1.39411 0
M  V30 8783 H 824.303 1.27371 -3.97281 0
M  V30 8784 H 822.933 1.50565 -2.85535 0
M  V30 8785 H 821.985 -0.751063 -3.72912 0
M  V30 8786 H 823.297 -0.768798 -4.9284 0
M  V30 8787 H 822.451 1.37282 -5.90964 0
M  V30 8788 H 821.19 1.47501 -4.6486 0
M  V30 8789 H 820.195 -0.684078 -5.45528 0
M  V30 8790 H 821.42 -0.770786 -6.74712 0
M  V30 8791 H 819.366 1.44601 -6.39864 0
M  V30 8792 H 819.283 0.160666 -7.55829 0
M  V30 8793 H 820.551 1.34377 -7.6783 0
M  V30 8794 N 824.78 1.49157 -0.508906 0
M  V30 8795 C 826.005 2.07376 0.0315182 0
M  V30 8796 C 826.43 1.36575 1.2934 0
M  V30 8797 O 825.788 0.424963 1.76249 0
M  V30 8798 C 825.836 3.59661 0.260118 0
M  V30 8799 O 824.94 3.90255 1.33322 0
M  V30 8800 H 824.281 0.663334 -0.029739 0
M  V30 8801 H 826.811 1.91857 -0.710791 0
M  V30 8802 H 826.821 4.05056 0.489225 0
M  V30 8803 H 825.496 4.10601 -0.661794 0
M  V30 8804 H 824.073 3.56661 1.08844 0
M  V30 8805 N 826.258 0.243083 1.55714 0
M  V30 8806 C 827.504 -0.383287 1.99145 0
M  V30 8807 C 827.837 -1.57868 1.13098 0
M  V30 8808 O 827.112 -1.93535 0.193509 0
M  V30 8809 C 827.395 -0.796879 3.51172 0
M  V30 8810 C 827.248 0.403642 4.47985 0
M  V30 8811 C 828.567 -1.64525 4.08191 0
M  V30 8812 H 825.686 -0.137843 0.723995 0
M  V30 8813 H 828.328 0.343631 1.86867 0
M  V30 8814 H 826.478 -1.41625 3.61766 0
M  V30 8815 H 828.15 1.04204 4.49376 0
M  V30 8816 H 826.393 1.04741 4.20965 0
M  V30 8817 H 827.064 0.0709794 5.51954 0
M  V30 8818 H 829.54 -1.12246 4.00674 0
M  V30 8819 H 828.416 -1.9035 5.14838 0
M  V30 8820 H 828.677 -2.61582 3.56409 0
M  V30 8821 N 827.736 -1.57571 -0.0300757 0
M  V30 8822 C 828.668 -2.0329 -1.05857 0
M  V30 8823 C 829.681 -0.945543 -1.32527 0
M  V30 8824 O 830.87 -1.22287 -1.30032 0
M  V30 8825 C 827.97 -2.39234 -2.40042 0
M  V30 8826 C 827.143 -3.70337 -2.32743 0
M  V30 8827 C 826.202 -3.93482 -3.49369 0
M  V30 8828 O 825.228 -4.64551 -3.28909 0
M  V30 8829 N 826.43 -3.39042 -4.71201 0
M  V30 8830 H 829.195 -2.9214 -0.668897 0
M  V30 8831 H 826.756 -1.60425 -0.218038 0
M  V30 8832 H 828.748 -2.51856 -3.16782 0
M  V30 8833 H 827.318 -1.5606 -2.70858 0
M  V30 8834 H 826.538 -3.68079 -1.41109 0
M  V30 8835 H 827.826 -4.56343 -2.25007 0
M  V30 8836 H 827.224 -2.81434 -4.90725 0
M  V30 8837 H 825.781 -3.57045 -5.45309 0
M  V30 8838 N 829.214 0.302327 -1.54673 0
M  V30 8839 C 830.164 1.37443 -1.81916 0
M  V30 8840 C 831.148 1.45999 -0.676251 0
M  V30 8841 O 832.34 1.50174 -0.93685 0
M  V30 8842 C 829.469 2.73966 -2.06876 0
M  V30 8843 C 828.555 2.69637 -3.27348 0
M  V30 8844 N 828.946 2.34926 -4.47933 0
M  V30 8845 C 827.244 3.00742 -3.29348 0
M  V30 8846 C 827.945 2.39862 -5.29944 0
M  V30 8847 N 826.921 2.77163 -4.67634 0
M  V30 8848 H 830.723 1.09567 -2.72713 0
M  V30 8849 H 828.237 0.5109 -1.54154 0
M  V30 8850 H 830.234 3.51265 -2.2454 0
M  V30 8851 H 828.894 3.02754 -1.17346 0
M  V30 8852 H 829.905 2.07403 -4.74557 0
M  V30 8853 H 826.582 3.34434 -2.49921 0
M  V30 8854 H 827.972 2.15835 -6.3629 0
M  V30 8855 N 830.692 1.47107 0.565454 0
M  V30 8856 C 831.622 1.61846 1.68309 0
M  V30 8857 C 832.603 0.468159 1.63531 0
M  V30 8858 O 833.788 0.696504 1.8128 0
M  V30 8859 C 830.918 1.62474 3.06952 0
M  V30 8860 C 829.872 2.76649 3.26572 0
M  V30 8861 C 829.198 2.62345 4.65917 0
M  V30 8862 C 830.498 4.18319 3.12741 0
M  V30 8863 H 832.192 2.55407 1.5623 0
M  V30 8864 H 829.738 1.22916 0.750179 0
M  V30 8865 H 831.691 1.71378 3.84977 0
M  V30 8866 H 830.415 0.654692 3.19971 0
M  V30 8867 H 829.074 2.67242 2.50952 0
M  V30 8868 H 828.722 1.63386 4.75725 0
M  V30 8869 H 828.422 3.38936 4.79996 0
M  V30 8870 H 829.946 2.73165 5.46089 0
M  V30 8871 H 831.36 4.28745 3.80593 0
M  V30 8872 H 829.757 4.95632 3.38333 0
M  V30 8873 H 830.827 4.37263 2.09592 0
M  V30 8874 N 832.17 -0.811516 1.35101 0
M  V30 8875 C 833.08 -1.95475 1.29718 0
M  V30 8876 C 834.096 -1.72813 0.202909 0
M  V30 8877 O 835.272 -1.96725 0.431414 0
M  V30 8878 C 832.337 -3.29975 1.06385 0
M  V30 8879 C 831.398 -3.65566 2.25077 0
M  V30 8880 C 830.631 -4.93648 2.02848 0
M  V30 8881 O 830.854 -5.617 0.992442 0
M  V30 8882 O 829.788 -5.27384 2.90087 0
M  V30 8883 H 833.614 -2.02961 2.25921 0
M  V30 8884 H 831.199 -0.948583 1.15422 0
M  V30 8885 H 833.081 -4.10506 0.951999 0
M  V30 8886 H 831.756 -3.2343 0.132294 0
M  V30 8887 H 830.663 -2.85432 2.41825 0
M  V30 8888 H 831.996 -3.7681 3.16662 0
M  V30 8889 N 833.648 -1.19017 -1.03309 0
M  V30 8890 C 834.873 -1.01598 -1.80811 0
M  V30 8891 C 835.298 0.430773 -1.83101 0
M  V30 8892 O 834.656 1.30946 -1.25391 0
M  V30 8893 C 834.704 -1.5845 -3.23923 0
M  V30 8894 O 833.808 -0.810972 -4.04348 0
M  V30 8895 H 833.149 -0.359398 -0.558327 0
M  V30 8896 H 835.679 -1.57945 -1.30055 0
M  V30 8897 H 835.689 -1.61486 -3.74682 0
M  V30 8898 H 834.364 -2.63752 -3.21571 0
M  V30 8899 H 832.941 -0.85353 -3.63 0
M  V30 8900 N 835.127 1.22348 -0.993418 0
M  V30 8901 C 836.057 2.26584 -0.564088 0
M  V30 8902 C 837.038 1.65102 0.409298 0
M  V30 8903 O 838.223 1.91872 0.299819 0
M  V30 8904 C 835.353 3.47087 0.121554 0
M  V30 8905 C 834.307 4.21009 -0.770429 0
M  V30 8906 C 833.633 5.34678 0.0481586 0
M  V30 8907 C 834.933 4.79636 -2.06752 0
M  V30 8908 H 836.627 2.62749 -1.43538 0
M  V30 8909 H 834.173 1.26303 -0.691628 0
M  V30 8910 H 836.126 4.19166 0.433303 0
M  V30 8911 H 834.85 3.1002 1.0274 0
M  V30 8912 H 833.509 3.50764 -1.06583 0
M  V30 8913 H 833.157 4.93852 0.954933 0
M  V30 8914 H 832.857 5.85061 -0.545641 0
M  V30 8915 H 834.381 6.09573 0.353991 0
M  V30 8916 H 835.795 5.43654 -1.81969 0
M  V30 8917 H 834.192 5.4036 -2.61019 0
M  V30 8918 H 835.262 3.99659 -2.74592 0
M  V30 8919 N 836.605 0.766683 1.37694 0
M  V30 8920 C 837.835 0.339446 2.03792 0
M  V30 8921 C 838.243 -1.04153 1.57952 0
M  V30 8922 O 837.586 -1.67521 0.753826 0
M  V30 8923 C 837.648 0.29822 3.58261 0
M  V30 8924 C 837.312 1.62293 4.27212 0
M  V30 8925 C 838.309 2.57447 4.51682 0
M  V30 8926 C 835.994 1.89597 4.65143 0
M  V30 8927 C 837.988 3.78117 5.13134 0
M  V30 8928 C 835.675 3.10538 5.26317 0
M  V30 8929 C 836.673 4.04617 5.50249 0
M  V30 8930 O 836.361 5.23429 6.10145 0
M  V30 8931 H 836.093 0.140952 0.661142 0
M  V30 8932 H 838.647 1.04022 1.77111 0
M  V30 8933 H 836.877 -0.458897 3.83967 0
M  V30 8934 H 838.566 -0.101263 4.05774 0
M  V30 8935 H 839.332 2.37633 4.22795 0
M  V30 8936 H 835.211 1.17199 4.45854 0
M  V30 8937 H 838.755 4.51563 5.3173 0
M  V30 8938 H 834.652 3.3024 5.54628 0
M  V30 8939 H 835.42 5.24187 6.28626 0
M  V30 8940 N 838.083 -1.48885 0.516809 0
M  V30 8941 C 839.311 -2.06892 -0.0184017 0
M  V30 8942 C 839.726 -1.37511 -1.29368 0
M  V30 8943 O 839.083 -0.458409 -1.76649 0
M  V30 8944 C 839.134 -3.60566 -0.259673 0
M  V30 8945 O 838.855 -4.27338 0.965065 0
M  V30 8946 C 840.356 -4.35331 -0.836751 0
M  V30 8947 H 837.576 -0.670433 0.0275743 0
M  V30 8948 H 840.12 -1.91455 0.718689 0
M  V30 8949 H 838.275 -3.75653 -0.94678 0
M  V30 8950 H 838.689 -5.19287 0.737647 0
M  V30 8951 H 840.163 -5.43675 -0.955065 0
M  V30 8952 H 840.64 -3.9887 -1.83845 0
M  V30 8953 H 841.246 -4.2489 -0.186622 0
M  V30 8954 N 839.561 -0.251338 -1.55583 0
M  V30 8955 C 840.524 0.63305 -2.20284 0
M  V30 8956 C 841.524 1.09941 -1.17344 0
M  V30 8957 O 842.714 1.00341 -1.42399 0
M  V30 8958 C 839.846 1.8706 -2.84993 0
M  V30 8959 H 841.039 0.0684846 -2.99822 0
M  V30 8960 H 838.592 -0.00181653 -1.563 0
M  V30 8961 H 839.327 2.47629 -2.09405 0
M  V30 8962 H 839.112 1.54436 -3.60405 0
M  V30 8963 H 840.602 2.50004 -3.34496 0
M  V30 8964 N 841.039 1.57585 0.0217189 0
M  V30 8965 C 842.285 1.89887 0.712099 0
M  V30 8966 C 842.618 0.849971 1.74611 0
M  V30 8967 O 841.893 -0.13407 1.94037 0
M  V30 8968 C 842.176 3.32815 1.37499 0
M  V30 8969 C 842.029 4.48405 0.353993 0
M  V30 8970 C 843.348 3.74786 2.30703 0
M  V30 8971 H 840.467 0.690588 0.257405 0
M  V30 8972 H 843.109 1.89983 -0.0251145 0
M  V30 8973 H 841.259 3.32863 2.00335 0
M  V30 8974 H 842.931 4.60491 -0.273015 0
M  V30 8975 H 841.174 4.32573 -0.32599 0
M  V30 8976 H 841.845 5.45316 0.85644 0
M  V30 8977 H 844.321 3.76151 1.77904 0
M  V30 8978 H 843.197 4.75585 2.74061 0
M  V30 8979 H 843.458 3.07449 3.17691 0
M  V30 8980 N 842.517 -0.29412 1.54831 0
M  V30 8981 C 843.745 -1.04724 1.78439 0
M  V30 8982 C 844.16 -1.80695 0.547239 0
M  V30 8983 O 843.517 -1.75989 -0.483141 0
M  V30 8984 C 843.568 -2.02242 2.99634 0
M  V30 8985 O 843.289 -1.29352 4.18568 0
M  V30 8986 C 844.79 -2.89537 3.35683 0
M  V30 8987 H 842.01 -0.310285 0.594949 0
M  V30 8988 H 844.554 -0.331306 2.01798 0
M  V30 8989 H 842.709 -2.69328 2.78462 0
M  V30 8990 H 843.123 -1.94901 4.86943 0
M  V30 8991 H 844.597 -3.538 4.23709 0
M  V30 8992 H 845.074 -3.58201 2.54143 0
M  V30 8993 H 845.68 -2.27973 3.59038 0
M  V30 8994 N 843.995 -1.47404 -0.557645 0
M  V30 8995 C 844.943 -1.60265 -1.68576 0
M  V30 8996 C 845.937 -0.469982 -1.6275 0
M  V30 8997 O 847.143 -0.647764 -1.67941 0
M  V30 8998 H 843.518 -0.504353 -0.557792 0
M  V30 8999 H 845.489 -2.55066 -1.54867 0
M  V30 9000 C 844.238 -1.63369 -3.0693 0
M  V30 9001 H 843.561 -2.49874 -3.12095 0
M  V30 9002 H 845.001 -1.76417 -3.85556 0
M  V30 9003 C 843.46 -0.366921 -3.34896 0
M  V30 9004 O 843.99 0.53218 -3.98159 0
M  V30 9005 N 842.196 -0.247082 -2.89548 0
M  V30 9006 H 841.743 -0.979669 -2.38244 0
M  V30 9007 H 841.701 0.599552 -3.0863 0
M  V30 9008 N 845.473 0.80434 -1.35529 0
M  V30 9009 C 846.72 1.56154 -1.28927 0
M  V30 9010 C 847.048 1.94026 0.135682 0
M  V30 9011 O 846.303 1.61759 1.10148 0
M  V30 9012 C 846.602 2.85988 -2.14349 0
M  V30 9013 C 846.268 2.67323 -3.6311 0
M  V30 9014 C 844.93 2.61941 -4.03659 0
M  V30 9015 C 847.282 2.49699 -4.57493 0
M  V30 9016 C 844.61 2.3688 -5.36754 0
M  V30 9017 C 846.962 2.26168 -5.90788 0
M  V30 9018 C 845.626 2.19209 -6.30479 0
M  V30 9019 H 844.896 0.571407 -0.471779 0
M  V30 9020 H 847.543 0.929193 -1.67446 0
M  V30 9021 H 845.848 3.53612 -1.68718 0
M  V30 9022 H 847.545 3.43697 -2.06576 0
M  V30 9023 H 844.135 2.72361 -3.30934 0
M  V30 9024 H 848.319 2.52869 -4.27049 0
M  V30 9025 H 843.575 2.29964 -5.66504 0
M  V30 9026 H 847.749 2.11522 -6.63499 0
M  V30 9027 H 845.376 1.99553 -7.33541 0
M  V30 9028 N 846.951 1.19563 1.02676 0
M  V30 9029 C 847.881 0.959024 2.12897 0
M  V30 9030 C 848.862 -0.108382 1.69754 0
M  V30 9031 O 850.047 0.0470698 1.94143 0
M  V30 9032 C 847.177 0.499211 3.43693 0
M  V30 9033 C 846.131 1.5087 4.00528 0
M  V30 9034 C 845.457 0.905884 5.2697 0
M  V30 9035 C 846.757 2.88954 4.3509 0
M  V30 9036 H 848.451 1.88084 2.32948 0
M  V30 9037 H 845.997 0.905731 1.11949 0
M  V30 9038 H 847.95 0.320965 4.20176 0
M  V30 9039 H 846.674 -0.458205 3.2337 0
M  V30 9040 H 845.333 1.67413 3.26142 0
M  V30 9041 H 844.981 -0.0591506 5.02965 0
M  V30 9042 H 844.681 1.58 5.65959 0
M  V30 9043 H 846.205 0.73848 6.06118 0
M  V30 9044 H 847.619 2.75981 5.02501 0
M  V30 9045 H 846.016 3.53177 4.85166 0
M  V30 9046 H 847.086 3.41447 3.44299 0
M  V30 9047 N 848.429 -1.21819 0.999893 0
M  V30 9048 C 849.359 -2.26282 0.576096 0
M  V30 9049 C 850.34 -1.65317 -0.400537 0
M  V30 9050 O 851.525 -1.92028 -0.28964 0
M  V30 9051 C 848.655 -3.47147 -0.103145 0
M  V30 9052 C 847.609 -4.20594 0.792745 0
M  V30 9053 C 846.935 -5.34696 -0.0198026 0
M  V30 9054 C 848.235 -4.78533 2.09293 0
M  V30 9055 H 849.929 -2.61984 1.4493 0
M  V30 9056 H 847.475 -1.25935 0.698316 0
M  V30 9057 H 849.428 -4.1939 -0.411068 0
M  V30 9058 H 848.152 -3.1056 -1.01094 0
M  V30 9059 H 846.811 -3.50194 1.08442 0
M  V30 9060 H 846.459 -4.94352 -0.928729 0
M  V30 9061 H 846.159 -5.84764 0.576661 0
M  V30 9062 H 847.683 -6.09752 -0.321659 0
M  V30 9063 H 849.097 -5.42682 1.8485 0
M  V30 9064 H 847.494 -5.38968 2.63881 0
M  V30 9065 H 848.564 -3.98197 2.76708 0
M  V30 9066 N 849.908 -0.773975 -1.37286 0
M  V30 9067 C 851.133 -0.349561 -2.04433 0
M  V30 9068 C 851.558 1.02082 -1.5799 0
M  V30 9069 O 850.916 1.65458 -0.741172 0
M  V30 9070 C 850.964 -0.404292 -3.58326 0
M  V30 9071 O 850.068 0.594447 -4.08093 0
M  V30 9072 H 849.409 -0.150959 -0.646612 0
M  V30 9073 H 851.939 -1.05079 -1.75555 0
M  V30 9074 H 851.949 -0.262378 -4.07155 0
M  V30 9075 H 850.624 -1.40403 -3.91484 0
M  V30 9076 H 849.201 0.415468 -3.70578 0
M  V30 9077 N 851.386 1.48609 -0.524698 0
M  V30 9078 C 852.632 2.02797 0.0113382 0
M  V30 9079 C 852.965 1.40147 1.34433 0
M  V30 9080 O 852.24 0.545368 1.86698 0
M  V30 9081 C 852.523 3.59832 0.138931 0
M  V30 9082 C 852.376 4.32971 -1.21886 0
M  V30 9083 C 853.695 4.3145 0.868265 0
M  V30 9084 H 850.814 0.736995 0.00264645 0
M  V30 9085 H 853.456 1.77388 -0.680704 0
M  V30 9086 H 851.606 3.81612 0.72834 0
M  V30 9087 H 853.278 4.22624 -1.84897 0
M  V30 9088 H 851.521 3.94597 -1.80211 0
M  V30 9089 H 852.192 5.41279 -1.08263 0
M  V30 9090 H 854.668 4.14468 0.368145 0
M  V30 9091 H 853.544 5.41025 0.926428 0
M  V30 9092 H 853.805 3.98358 1.91737 0
M  V30 9093 N 852.864 0.259585 1.55447 0
M  V30 9094 C 854.112 -0.360893 1.98852 0
M  V30 9095 C 854.433 -1.57535 1.14924 0
M  V30 9096 O 853.703 -1.94485 0.235025 0
M  V30 9097 H 852.283 -0.136332 0.734454 0
M  V30 9098 H 854.945 0.361319 1.91522 0
M  V30 9099 H 854.041 -0.661388 3.05012 0
M  V30 9100 N 854.342 -1.57594 -0.0133615 0
M  V30 9101 C 855.591 -1.8916 -0.700103 0
M  V30 9102 C 855.904 -0.860147 -1.75673 0
M  V30 9103 O 857.11 -1.06556 -2.49716 0
M  V30 9104 C 855.566 -3.35742 -1.29635 0
M  V30 9105 C 855.174 -4.47154 -0.275249 0
M  V30 9106 C 856.918 -3.76436 -1.96205 0
M  V30 9107 C 854.825 -5.84805 -0.880726 0
M  V30 9108 H 853.755 -0.705805 -0.265247 0
M  V30 9109 H 856.406 -1.83445 0.044993 0
M  V30 9110 H 854.788 -3.36252 -2.09167 0
M  V30 9111 H 855.962 -4.58139 0.494506 0
M  V30 9112 H 854.277 -4.15394 0.289256 0
M  V30 9113 H 856.874 -4.76606 -2.42386 0
M  V30 9114 H 857.217 -3.09249 -2.78695 0
M  V30 9115 H 857.75 -3.78168 -1.23426 0
M  V30 9116 H 854.489 -6.55431 -0.0949013 0
M  V30 9117 H 854.009 -5.7751 -1.61995 0
M  V30 9118 H 855.688 -6.32038 -1.38338 0
M  V30 9119 N 855.82 0.285905 -1.54985 0
M  V30 9120 C 856.77 1.35505 -1.83364 0
M  V30 9121 C 857.754 1.45273 -0.691698 0
M  V30 9122 O 858.946 1.49172 -0.952725 0
M  V30 9123 C 856.075 2.71756 -2.0977 0
M  V30 9124 C 855.161 2.6615 -3.30189 0
M  V30 9125 N 855.552 2.30161 -4.50399 0
M  V30 9126 C 853.85 2.97232 -3.3252 0
M  V30 9127 C 854.551 2.34228 -5.32459 0
M  V30 9128 N 853.527 2.72187 -4.70548 0
M  V30 9129 H 857.329 1.06668 -2.7386 0
M  V30 9130 H 854.843 0.494521 -1.54688 0
M  V30 9131 H 856.84 3.48864 -2.28253 0
M  V30 9132 H 855.5 3.01492 -1.20551 0
M  V30 9133 H 856.511 2.02358 -4.7673 0
M  V30 9134 H 853.188 3.31764 -2.53454 0
M  V30 9135 H 854.578 2.09074 -6.38543 0
M  V30 9136 N 857.298 1.47698 0.54982 0
M  V30 9137 C 858.228 1.63622 1.66583 0
M  V30 9138 C 859.209 0.485477 1.63025 0
M  V30 9139 O 860.394 0.715692 1.80531 0
M  V30 9140 C 857.524 1.65721 3.05211 0
M  V30 9141 C 856.478 2.80097 3.2362 0
M  V30 9142 C 855.804 2.67272 4.63109 0
M  V30 9143 C 857.104 4.21612 3.08286 0
M  V30 9144 H 858.798 2.57049 1.53512 0
M  V30 9145 H 856.344 1.23705 0.737099 0
M  V30 9146 H 858.297 1.75451 3.83138 0
M  V30 9147 H 857.021 0.688593 3.19258 0
M  V30 9148 H 855.68 2.69889 2.48104 0
M  V30 9149 H 855.328 1.68422 4.73965 0
M  V30 9150 H 855.028 3.44008 4.76374 0
M  V30 9151 H 856.552 2.78942 5.43161 0
M  V30 9152 H 857.966 4.32758 3.76024 0
M  V30 9153 H 856.363 4.99193 3.33057 0
M  V30 9154 H 857.433 4.39462 2.04942 0
M  V30 9155 N 858.776 -0.797141 1.35954 0
M  V30 9156 C 859.724 -1.93084 1.29697 0
M  V30 9157 C 860.718 -1.68329 0.190152 0
M  V30 9158 O 861.924 -1.7643 0.3567 0
M  V30 9159 H 858.299 -0.634531 0.403577 0
M  V30 9160 H 860.27 -1.95481 2.25455 0
M  V30 9161 C 859.019 -3.29996 1.09536 0
M  V30 9162 H 858.342 -3.49607 1.93946 0
M  V30 9163 H 859.782 -4.09696 1.09202 0
M  V30 9164 C 858.241 -3.36304 -0.200381 0
M  V30 9165 O 858.771 -3.83579 -1.19291 0
M  V30 9166 N 856.977 -2.89587 -0.242406 0
M  V30 9167 H 856.524 -2.51307 0.565897 0
M  V30 9168 H 856.482 -2.94189 -1.10906 0
M  V30 9169 N 860.254 -1.20106 -1.0204 0
M  V30 9170 C 861.482 -1.0344 -1.79186 0
M  V30 9171 C 861.897 0.416542 -1.84148 0
M  V30 9172 O 861.254 1.28925 -1.29168 0
M  V30 9173 C 861.305 -1.60663 -3.23836 0
M  V30 9174 O 861.026 -3.00079 -3.19193 0
M  V30 9175 C 862.527 -1.48897 -4.17546 0
M  V30 9176 H 859.747 -0.364093 -0.563629 0
M  V30 9177 H 862.291 -1.5911 -1.28469 0
M  V30 9178 H 860.446 -1.09122 -3.71714 0
M  V30 9179 H 860.86 -3.27162 -4.09958 0
M  V30 9180 H 862.334 -1.93703 -5.16898 0
M  V30 9181 H 862.811 -0.440843 -4.36982 0
M  V30 9182 H 863.417 -1.9961 -3.75547 0
M  V30 9183 N 861.732 1.21287 -1.00634 0
M  V30 9184 C 862.957 1.94925 -0.708441 0
M  V30 9185 C 863.382 1.73659 0.722783 0
M  V30 9186 O 862.74 1.02429 1.49593 0
M  V30 9187 C 862.788 3.45377 -1.03667 0
M  V30 9188 O 861.892 4.12153 -0.142661 0
M  V30 9189 H 861.233 0.609338 -0.263824 0
M  V30 9190 H 863.763 1.54008 -1.34695 0
M  V30 9191 H 863.773 3.95954 -0.984086 0
M  V30 9192 H 862.448 3.6018 -2.0795 0
M  V30 9193 H 861.025 3.72048 -0.251888 0
M  V30 9194 N 863.21 0.781244 1.36873 0
M  V30 9195 C 864.157 0.172146 2.30157 0
M  V30 9196 C 865.127 -0.679328 1.51573 0
M  V30 9197 O 866.312 -0.629713 1.80109 0
M  V30 9198 C 863.452 -0.693534 3.38059 0
M  V30 9199 C 862.565 0.175586 4.31643 0
M  V30 9200 C 861.7 -0.695695 5.26625 0
M  V30 9201 C 860.739 0.17538 6.11849 0
M  V30 9202 N 859.876 -0.654416 6.99043 0
M  V30 9203 H 864.716 0.973133 2.81663 0
M  V30 9204 H 862.253 0.491469 1.38647 0
M  V30 9205 H 864.211 -1.21035 3.99257 0
M  V30 9206 H 862.841 -1.46003 2.87894 0
M  V30 9207 H 861.893 0.810295 3.7167 0
M  V30 9208 H 863.205 0.847107 4.91554 0
M  V30 9209 H 862.359 -1.27863 5.93073 0
M  V30 9210 H 861.098 -1.40087 4.67148 0
M  V30 9211 H 860.103 0.77078 5.4437 0
M  V30 9212 H 861.328 0.87803 6.734 0
M  V30 9213 H 859.274 -1.34403 6.42084 0
M  V30 9214 H 859.191 -0.0403998 7.55989 0
M  V30 9215 H 860.459 -1.22144 7.69871 0
M  V30 9216 N 864.689 -1.48329 0.532571 0
M  V30 9217 C 865.917 -2.069 0.00354299 0
M  V30 9218 C 866.332 -1.38876 -1.27902 0
M  V30 9219 O 865.689 -0.477119 -1.76153 0
M  V30 9220 C 865.74 -3.60821 -0.221416 0
M  V30 9221 O 865.461 -4.26291 1.01034 0
M  V30 9222 C 866.962 -4.36194 -0.790531 0
M  V30 9223 H 864.182 -0.670103 0.0346836 0
M  V30 9224 H 866.726 -1.90682 0.738955 0
M  V30 9225 H 864.881 -3.76636 -0.906884 0
M  V30 9226 H 865.295 -5.18475 0.792683 0
M  V30 9227 H 866.769 -5.44657 -0.897347 0
M  V30 9228 H 867.246 -4.00798 -1.79605 0
M  V30 9229 H 867.852 -4.25064 -0.141546 0
M  V30 9230 N 866.167 -0.267825 -1.55308 0
M  V30 9231 C 867.114 0.6228 -2.22238 0
M  V30 9232 C 868.084 1.15536 -1.19334 0
M  V30 9233 O 869.269 1.206 -1.47852 0
M  V30 9234 C 866.409 1.80447 -2.94164 0
M  V30 9235 C 865.522 1.30646 -4.11771 0
M  V30 9236 C 864.657 2.44935 -4.7136 0
M  V30 9237 C 863.696 1.92099 -5.81175 0
M  V30 9238 N 862.833 2.99834 -6.34857 0
M  V30 9239 H 867.673 0.0453874 -2.97965 0
M  V30 9240 H 865.21 0.0106371 -1.47096 0
M  V30 9241 H 867.168 2.49896 -3.34078 0
M  V30 9242 H 865.798 2.35403 -2.20874 0
M  V30 9243 H 864.85 0.505314 -3.77029 0
M  V30 9244 H 866.162 0.879409 -4.90987 0
M  V30 9245 H 865.316 3.2239 -5.13955 0
M  V30 9246 H 864.055 2.90951 -3.91406 0
M  V30 9247 H 863.06 1.13122 -5.38037 0
M  V30 9248 H 864.285 1.47027 -6.62993 0
M  V30 9249 H 862.231 3.45246 -5.578 0
M  V30 9250 H 862.148 2.61524 -7.09324 0
M  V30 9251 H 863.416 3.77286 -6.82111 0
M  V30 9252 N 867.645 1.57599 0.00500368 0
M  V30 9253 C 869.061 1.55463 0.361015 0
M  V30 9254 C 869.261 0.997051 1.75103 0
M  V30 9255 O 868.317 0.628661 2.44549 0
M  V30 9256 C 869.63 2.99734 0.240828 0
M  V30 9257 C 871.178 3.11399 0.316138 0
M  V30 9258 C 871.653 4.57446 0.22513 0
M  V30 9259 N 873.144 4.62334 0.283186 0
M  V30 9260 C 873.879 5.72914 0.23603 0
M  V30 9261 N 873.375 6.92659 0.139762 0
M  V30 9262 N 875.168 5.61364 0.287529 0
M  V30 9263 H 867.319 1.92185 -0.904359 0
M  V30 9264 H 869.582 0.882529 -0.34619 0
M  V30 9265 H 869.288 3.44348 -0.715343 0
M  V30 9266 H 869.162 3.63009 1.02491 0
M  V30 9267 H 871.549 2.66718 1.26275 0
M  V30 9268 H 871.63 2.50911 -0.497725 0
M  V30 9269 H 871.274 5.02801 -0.717917 0
M  V30 9270 H 871.204 5.15874 1.05742 0
M  V30 9271 H 873.695 3.7619 0.359123 0
M  V30 9272 H 874.008 7.72722 0.10954 0
M  V30 9273 H 872.353 6.9492 0.105462 0
M  V30 9274 H 875.544 4.66707 0.360897 0
M  V30 9275 H 875.717 6.47528 0.247313 0
M  V30 9276 N 869.123 -0.277682 1.55134 0
M  V30 9277 C 870.369 -1.00733 1.76704 0
M  V30 9278 C 870.724 -1.84107 0.55879 0
M  V30 9279 O 870.017 -1.86275 -0.448591 0
M  V30 9280 C 870.211 -1.92599 3.01065 0
M  V30 9281 C 870.04 -1.18266 4.3387 0
M  V30 9282 C 868.81 -0.900254 4.97216 0
M  V30 9283 C 871.008 -0.575419 5.11071 0
M  V30 9284 N 868.99 -0.129637 6.13763 0
M  V30 9285 C 870.361 0.0612637 6.1997 0
M  V30 9286 C 872.416 -0.482794 4.95554 0
M  V30 9287 C 871.119 0.781637 7.15041 0
M  V30 9288 C 873.145 0.223977 5.90976 0
M  V30 9289 C 872.507 0.849416 6.9926 0
M  V30 9290 H 868.606 -0.35075 0.698927 0
M  V30 9291 H 871.19 -0.283482 1.92625 0
M  V30 9292 H 869.361 -2.62214 2.86528 0
M  V30 9293 H 871.093 -2.5889 3.1106 0
M  V30 9294 H 867.848 -1.20434 4.58031 0
M  V30 9295 H 868.272 0.242865 6.76564 0
M  V30 9296 H 872.914 -0.952023 4.11942 0
M  V30 9297 H 870.632 1.26256 7.98176 0
M  V30 9298 H 874.218 0.2959 5.81047 0
M  V30 9299 H 873.098 1.3876 7.71826 0
M  V30 9300 N 870.601 -1.47988 -0.541979 0
M  V30 9301 C 871.849 -1.55086 -1.29587 0
M  V30 9302 C 872.17 -0.221304 -1.9374 0
M  V30 9303 O 871.44 0.756128 -1.80719 0
M  V30 9304 H 870.02 -0.571307 -0.481266 0
M  V30 9305 H 872.682 -1.8438 -0.631675 0
M  V30 9306 H 871.778 -2.32556 -2.08144 0
M  V30 9307 N 872.079 0.78992 -1.36375 0
M  V30 9308 C 873.309 1.57644 -1.33536 0
M  V30 9309 C 873.717 1.89007 0.0855075 0
M  V30 9310 O 873.06 1.50547 1.05267 0
M  V30 9311 C 873.122 2.92424 -2.09113 0
M  V30 9312 C 872.786 2.83793 -3.58205 0
M  V30 9313 C 873.783 2.56072 -4.52464 0
M  V30 9314 C 871.468 3.02386 -4.01084 0
M  V30 9315 C 873.462 2.47044 -5.87578 0
M  V30 9316 C 871.149 2.9298 -5.36289 0
M  V30 9317 C 872.147 2.65347 -6.29349 0
M  V30 9318 O 871.835 2.55935 -7.62071 0
M  V30 9319 H 871.567 0.495639 -0.459694 0
M  V30 9320 H 874.121 0.988354 -1.80058 0
M  V30 9321 H 872.351 3.53282 -1.57254 0
M  V30 9322 H 874.04 3.53693 -1.99139 0
M  V30 9323 H 874.806 2.4141 -4.2065 0
M  V30 9324 H 870.685 3.229 -3.29023 0
M  V30 9325 H 874.229 2.25396 -6.60184 0
M  V30 9326 H 870.126 3.07204 -5.67711 0
M  V30 9327 H 870.894 2.7142 -7.72187 0
M  V30 9328 N 873.557 1.20646 1.01402 0
M  V30 9329 C 874.782 1.04462 1.79172 0
M  V30 9330 C 875.207 -0.401588 1.83763 0
M  V30 9331 O 874.565 -1.28934 1.27459 0
M  V30 9332 C 874.613 1.63583 3.21361 0
M  V30 9333 O 873.717 0.875198 4.03006 0
M  V30 9334 H 873.058 0.368235 0.552539 0
M  V30 9335 H 875.588 1.59994 1.27526 0
M  V30 9336 H 875.598 1.67426 3.72065 0
M  V30 9337 H 874.273 2.68835 3.17334 0
M  V30 9338 H 872.85 0.911172 3.61597 0
M  V30 9339 N 875.035 -1.20752 1.01276 0
M  V30 9340 C 875.965 -2.25658 0.600064 0
M  V30 9341 C 876.946 -1.65733 -0.38298 0
M  V30 9342 O 878.131 -1.92324 -0.269256 0
M  V30 9343 C 875.261 -3.47237 -0.0663197 0
M  V30 9344 C 874.215 -4.1973 0.83731 0
M  V30 9345 C 873.541 -5.34687 0.0369102 0
M  V30 9346 C 874.841 -4.76286 2.14357 0
M  V30 9347 H 876.535 -2.60432 1.477 0
M  V30 9348 H 874.081 -1.25187 0.711634 0
M  V30 9349 H 876.034 -4.19803 -0.366563 0
M  V30 9350 H 874.758 -3.11615 -0.977944 0
M  V30 9351 H 873.417 -3.49024 1.1215 0
M  V30 9352 H 873.065 -4.95309 -0.876244 0
M  V30 9353 H 872.765 -5.84119 0.63865 0
M  V30 9354 H 874.289 -6.10059 -0.256968 0
M  V30 9355 H 875.703 -5.40691 1.90595 0
M  V30 9356 H 874.1 -5.36139 2.69583 0
M  V30 9357 H 875.17 -3.9524 2.80916 0
M  V30 9358 N 876.513 -0.788492 -1.36457 0
M  V30 9359 C 877.463 -0.159377 -2.27442 0
M  V30 9360 C 878.447 0.656146 -1.46913 0
M  V30 9361 O 879.639 0.516372 -1.693 0
M  V30 9362 C 876.768 0.705703 -3.35968 0
M  V30 9363 C 875.854 -0.11856 -4.23934 0
M  V30 9364 N 876.245 -1.1726 -4.9202 0
M  V30 9365 C 874.543 0.102752 -4.45882 0
M  V30 9366 C 875.244 -1.6743 -5.57083 0
M  V30 9367 N 874.22 -0.983682 -5.34626 0
M  V30 9368 H 878.022 -0.96614 -2.77566 0
M  V30 9369 H 875.536 -0.627864 -1.49772 0
M  V30 9370 H 877.533 1.17231 -4.00078 0
M  V30 9371 H 876.193 1.51102 -2.87399 0
M  V30 9372 H 877.204 -1.55502 -4.94004 0
M  V30 9373 H 873.881 0.878651 -4.08149 0
M  V30 9374 H 875.271 -2.55423 -6.21457 0
M  V30 9375 N 877.991 1.48044 -0.54043 0
M  V30 9376 C 879.238 2.02497 -0.0101567 0
M  V30 9377 C 879.566 1.41651 1.33286 0
M  V30 9378 O 878.821 0.555504 1.8765 0
M  V30 9379 C 879.12 3.57085 0.150008 0
M  V30 9380 C 878.786 4.36769 -1.11998 0
M  V30 9381 C 877.448 4.58261 -1.46801 0
M  V30 9382 C 879.8 4.82848 -1.96232 0
M  V30 9383 C 877.128 5.23079 -2.65717 0
M  V30 9384 C 879.48 5.48977 -3.14335 0
M  V30 9385 C 878.144 5.68705 -3.49472 0
M  V30 9386 H 877.414 0.740991 -0.00371661 0
M  V30 9387 H 880.061 1.77909 -0.708562 0
M  V30 9388 H 878.366 3.80572 0.931259 0
M  V30 9389 H 880.063 3.96851 0.575384 0
M  V30 9390 H 876.653 4.20309 -0.838957 0
M  V30 9391 H 880.837 4.66038 -1.70654 0
M  V30 9392 H 876.093 5.36549 -2.93129 0
M  V30 9393 H 880.267 5.83649 -3.79904 0
M  V30 9394 H 877.894 6.18703 -4.41713 0
M  V30 9395 N 879.47 0.276058 1.55163 0
M  V30 9396 C 880.403 -0.652386 2.18676 0
M  V30 9397 C 881.381 -1.15151 1.148 0
M  V30 9398 O 882.565 -1.22431 1.43328 0
M  V30 9399 C 879.692 -1.88982 2.81076 0
M  V30 9400 C 878.738 -1.52609 3.98262 0
M  V30 9401 S 879.571 -0.603445 5.32089 0
M  V30 9402 C 880.727 -1.84923 5.97958 0
M  V30 9403 H 880.96 -0.112733 2.97086 0
M  V30 9404 H 878.493 0.0603118 1.54282 0
M  V30 9405 H 880.451 -2.60007 3.17658 0
M  V30 9406 H 879.112 -2.40061 2.02557 0
M  V30 9407 H 878.305 -2.44689 4.40617 0
M  V30 9408 H 877.907 -0.89601 3.63108 0
M  V30 9409 H 880.199 -2.79303 6.17249 0
M  V30 9410 H 881.142 -1.46868 6.92702 0
M  V30 9411 H 881.55 -2.0146 5.27327 0
M  V30 9412 N 880.948 -1.576 0.00335426 0
M  V30 9413 C 882.196 -1.90336 -0.679446 0
M  V30 9414 C 882.517 -0.877777 -1.74127 0
M  V30 9415 O 881.787 0.0843585 -1.95718 0
M  V30 9416 H 880.367 -0.702509 -0.253948 0
M  V30 9417 H 883.029 -1.94848 0.0450731 0
M  V30 9418 H 882.125 -2.90197 -1.14857 0
M  V30 9419 N 882.426 0.269451 -1.5528 0
M  V30 9420 C 883.656 1.01724 -1.79821 0
M  V30 9421 C 884.064 1.80298 -0.573532 0
M  V30 9422 O 883.407 1.77666 0.466963 0
M  V30 9423 C 883.469 2.02043 -2.97353 0
M  V30 9424 C 883.133 1.42375 -4.34256 0
M  V30 9425 C 884.13 0.837611 -5.13108 0
M  V30 9426 C 881.815 1.44988 -4.8092 0
M  V30 9427 C 883.809 0.285557 -6.3676 0
M  V30 9428 C 881.496 0.893969 -6.04526 0
M  V30 9429 C 882.494 0.312809 -6.82283 0
M  V30 9430 O 882.182 -0.234582 -8.03558 0
M  V30 9431 H 881.914 0.30604 -0.602757 0
M  V30 9432 H 884.468 0.30454 -2.0313 0
M  V30 9433 H 882.698 2.77082 -2.69745 0
M  V30 9434 H 884.387 2.6298 -3.09187 0
M  V30 9435 H 885.153 0.81009 -4.78187 0
M  V30 9436 H 881.032 1.89162 -4.20403 0
M  V30 9437 H 884.576 -0.168696 -6.97396 0
M  V30 9438 H 880.473 0.918742 -6.38928 0
M  V30 9439 H 881.241 -0.124282 -8.18406 0
M  V30 9440 N 883.904 1.48273 0.534124 0
M  V30 9441 C 885.15 1.56311 1.29208 0
M  V30 9442 C 885.483 0.234481 1.92779 0
M  V30 9443 O 884.758 -0.759143 1.79073 0
M  V30 9444 C 885.041 2.69831 2.3846 0
M  V30 9445 C 884.894 4.12385 1.79608 0
M  V30 9446 C 886.213 2.79133 3.40254 0
M  V30 9447 H 883.332 0.56899 0.468422 0
M  V30 9448 H 885.974 1.80429 0.595438 0
M  V30 9449 H 884.124 2.49397 2.97881 0
M  V30 9450 H 885.796 4.44246 1.24269 0
M  V30 9451 H 884.039 4.19579 1.10162 0
M  V30 9452 H 884.71 4.87629 2.58693 0
M  V30 9453 H 887.186 2.97632 2.90783 0
M  V30 9454 H 886.062 3.60298 4.14097 0
M  V30 9455 H 886.323 1.87122 4.00547 0
M  V30 9456 N 885.382 -0.782676 1.36792 0
M  V30 9457 C 886.631 -1.53605 1.30723 0
M  V30 9458 C 886.944 -1.95294 -0.109296 0
M  V30 9459 O 888.15 -2.69921 -0.292398 0
M  V30 9460 C 886.606 -2.77321 2.29393 0
M  V30 9461 C 886.214 -2.42774 3.76517 0
M  V30 9462 C 887.958 -3.55289 2.32314 0
M  V30 9463 C 885.865 -3.62926 4.66947 0
M  V30 9464 H 884.795 -0.576646 0.485794 0
M  V30 9465 H 887.446 -0.858255 1.62192 0
M  V30 9466 H 885.828 -3.46934 1.90927 0
M  V30 9467 H 887.002 -1.81014 4.23758 0
M  V30 9468 H 885.317 -1.78002 3.76436 0
M  V30 9469 H 887.914 -4.44573 2.97083 0
M  V30 9470 H 888.257 -3.94361 1.3336 0
M  V30 9471 H 888.79 -2.92662 2.69432 0
M  V30 9472 H 885.529 -3.28944 5.66989 0
M  V30 9473 H 885.049 -4.23828 4.24418 0
M  V30 9474 H 886.728 -4.29873 4.83548 0
M  V30 9475 N 886.86 -1.21182 -1.00761 0
M  V30 9476 C 888.108 -1.02543 -1.74153 0
M  V30 9477 C 888.429 0.442372 -1.89916 0
M  V30 9478 O 887.699 1.31927 -1.44818 0
M  V30 9479 H 886.279 -0.37644 -0.645214 0
M  V30 9480 H 888.941 -1.52446 -1.21434 0
M  V30 9481 H 888.037 -1.49122 -2.7417 0
M  V30 9482 N 888.338 1.20213 -1.01915 0
M  V30 9483 C 889.563 1.94163 -0.729076 0
M  V30 9484 C 889.988 1.74416 0.704323 0
M  V30 9485 O 889.346 1.0401 1.48498 0
M  V30 9486 C 889.394 3.44258 -1.07324 0
M  V30 9487 O 888.498 4.11979 -0.186367 0
M  V30 9488 H 887.839 0.606506 -0.270272 0
M  V30 9489 H 890.369 1.52571 -1.3632 0
M  V30 9490 H 890.379 3.94888 -1.02603 0
M  V30 9491 H 889.054 3.57954 -2.11759 0
M  V30 9492 H 887.631 3.7176 -0.291334 0
M  V30 9493 N 889.816 0.795718 1.36037 0
M  V30 9494 C 891.062 0.380668 1.99806 0
M  V30 9495 C 891.417 -1.03783 1.62009 0
M  V30 9496 O 890.71 -1.70819 0.867831 0
M  V30 9497 C 890.904 0.489038 3.54038 0
M  V30 9498 C 890.733 1.91652 4.06817 0
M  V30 9499 C 889.503 2.54252 4.36674 0
M  V30 9500 C 891.701 2.87956 4.26129 0
M  V30 9501 N 889.683 3.88523 4.75314 0
M  V30 9502 C 891.054 4.07074 4.67644 0
M  V30 9503 C 893.109 2.8493 4.08313 0
M  V30 9504 C 891.812 5.23583 4.93208 0
M  V30 9505 C 893.838 4.00632 4.35027 0
M  V30 9506 C 893.2 5.18496 4.76804 0
M  V30 9507 H 889.299 0.186842 0.759351 0
M  V30 9508 H 891.883 1.03465 1.64933 0
M  V30 9509 H 890.054 -0.134893 3.88166 0
M  V30 9510 H 891.786 0.0496256 4.0467 0
M  V30 9511 H 888.541 2.05685 4.26604 0
M  V30 9512 H 888.965 4.57623 4.98909 0
M  V30 9513 H 893.607 1.94964 3.75165 0
M  V30 9514 H 891.325 6.14129 5.25234 0
M  V30 9515 H 894.911 3.99659 4.22805 0
M  V30 9516 H 893.791 6.06538 4.97073 0
M  V30 9517 N 891.294 -1.47756 0.548274 0
M  V30 9518 C 892.542 -2.02089 0.0208542 0
M  V30 9519 C 892.863 -1.42589 -1.33017 0
M  V30 9520 O 892.133 -0.597825 -1.86555 0
M  V30 9521 H 890.713 -0.746985 0.00472023 0
M  V30 9522 H 893.375 -1.81262 0.716257 0
M  V30 9523 H 892.471 -3.12012 -0.0739016 0
M  V30 9524 N 892.772 -0.284283 -1.55015 0
M  V30 9525 C 893.997 0.335799 -2.04664 0
M  V30 9526 C 894.422 1.47999 -1.16094 0
M  V30 9527 O 893.78 1.8058 -0.161454 0
M  V30 9528 C 893.828 0.785615 -3.51938 0
M  V30 9529 O 892.932 1.89202 -3.66437 0
M  V30 9530 H 892.273 0.0680233 -0.660506 0
M  V30 9531 H 894.803 -0.421255 -2.00216 0
M  V30 9532 H 894.813 1.07892 -3.93476 0
M  V30 9533 H 893.488 -0.0514675 -4.15868 0
M  V30 9534 H 892.065 1.60055 -3.36804 0
M  V30 9535 N 894.251 1.57596 -0.0117121 0
M  V30 9536 C 895.181 2.12188 0.9746 0
M  V30 9537 C 896.162 1.03379 1.35081 0
M  V30 9538 O 897.347 1.31123 1.4325 0
M  V30 9539 C 894.477 2.63477 2.26268 0
M  V30 9540 C 893.431 3.76917 2.02774 0
M  V30 9541 C 892.757 4.14566 3.37697 0
M  V30 9542 C 894.057 5.03715 1.38089 0
M  V30 9543 H 895.751 2.9485 0.520007 0
M  V30 9544 H 893.297 1.41836 0.248685 0
M  V30 9545 H 895.25 3.00299 2.95633 0
M  V30 9546 H 893.974 1.77953 2.73862 0
M  V30 9547 H 892.633 3.40507 1.35832 0
M  V30 9548 H 892.281 3.26048 3.83016 0
M  V30 9549 H 891.981 4.91 3.22789 0
M  V30 9550 H 893.505 4.53956 4.08358 0
M  V30 9551 H 894.919 5.38233 1.97428 0
M  V30 9552 H 893.316 5.85032 1.33634 0
M  V30 9553 H 894.386 4.83624 0.351575 0
M  V30 9554 N 895.729 -0.261212 1.5542 0
M  V30 9555 C 897.14 -0.83138 1.67167 0
M  V30 9556 C 897.491 -1.8659 0.606525 0
M  V30 9557 O 896.616 -2.14953 -0.24985 0
M  V30 9558 C 897.211 -1.51475 3.03052 0
M  V30 9559 C 895.77 -2.0328 3.16787 0
M  V30 9560 C 894.917 -0.878903 2.63003 0
M  V30 9561 H 897.868 -0.0373102 1.58656 0
M  V30 9562 H 897.889 -2.38222 2.96699 0
M  V30 9563 H 897.401 -0.76157 3.80554 0
M  V30 9564 H 895.502 -2.81523 2.44082 0
M  V30 9565 H 895.615 -2.24001 4.2351 0
M  V30 9566 H 893.979 -1.27551 2.2046 0
M  V30 9567 H 894.762 -0.13904 3.43018 0
M  V30 9568 N 897.207 -1.48554 -0.526253 0
M  V30 9569 C 898.139 -1.59446 -1.6465 0
M  V30 9570 C 899.152 -0.478525 -1.55608 0
M  V30 9571 O 900.341 -0.74953 -1.62001 0
M  V30 9572 C 897.441 -1.51164 -3.03319 0
M  V30 9573 C 896.614 -2.77861 -3.37805 0
M  V30 9574 C 895.673 -2.62982 -4.5577 0
M  V30 9575 O 894.699 -3.36876 -4.58806 0
M  V30 9576 N 895.901 -1.72847 -5.5417 0
M  V30 9577 H 898.666 -2.56055 -1.55743 0
M  V30 9578 H 896.227 -1.45325 -0.713606 0
M  V30 9579 H 898.219 -1.389 -3.80117 0
M  V30 9580 H 896.789 -0.625147 -3.06285 0
M  V30 9581 H 896.009 -3.04663 -2.50149 0
M  V30 9582 H 897.297 -3.61908 -3.57632 0
M  V30 9583 H 896.695 -1.12022 -5.54498 0
M  V30 9584 H 895.252 -1.6652 -6.3017 0
M  V30 9585 N 898.685 0.775411 -1.37205 0
M  V30 9586 C 899.962 1.5229 -1.22748 0
M  V30 9587 C 900.342 2.10327 0.180487 0
M  V30 9588 O 899.69 1.95206 1.18772 0
M  V30 9589 C 899.9 2.60671 -2.3206 0
M  V30 9590 C 901.248 3.28173 -2.6942 0
M  V30 9591 O 902.272 2.70963 -2.31208 0
M  V30 9592 O 901.131 4.31598 -3.3524 0
M  V30 9593 H 898.225 0.674326 -0.478762 0
M  V30 9594 H 900.771 0.812691 -1.48975 0
M  V30 9595 H 899.543 2.1588 -3.26361 0
M  V30 9596 H 899.166 3.39296 -2.07277 0
M  V30 9597 N 900.163 1.21714 1.00117 0
M  V30 9598 C 901.113 0.947259 2.07391 0
M  V30 9599 C 902.097 -0.0989662 1.60595 0
M  V30 9600 O 903.289 0.11047 1.76655 0
M  V30 9601 C 900.418 0.517954 3.3937 0
M  V30 9602 C 899.504 1.59846 3.92823 0
M  V30 9603 N 899.895 2.82438 4.19598 0
M  V30 9604 C 898.193 1.46822 4.2114 0
M  V30 9605 C 898.894 3.52247 4.62922 0
M  V30 9606 N 897.87 2.79696 4.66124 0
M  V30 9607 H 901.672 1.8786 2.26022 0
M  V30 9608 H 899.186 1.11344 1.18221 0
M  V30 9609 H 901.183 0.305951 4.15776 0
M  V30 9610 H 899.843 -0.40658 3.22144 0
M  V30 9611 H 900.854 3.18944 4.08038 0
M  V30 9612 H 897.531 0.609259 4.13031 0
M  V30 9613 H 898.921 4.57232 4.9233 0
M  V30 9614 N 901.641 -1.19671 1.02551 0
M  V30 9615 C 902.89 -1.88591 0.715272 0
M  V30 9616 C 903.203 -1.80274 -0.758982 0
M  V30 9617 O 904.409 -2.44413 -1.18213 0
M  V30 9618 C 902.865 -3.38264 1.22905 0
M  V30 9619 C 902.473 -3.55146 2.73084 0
M  V30 9620 C 904.217 -4.12683 0.994649 0
M  V30 9621 C 902.124 -4.98693 3.17897 0
M  V30 9622 H 901.054 -0.706326 0.263857 0
M  V30 9623 H 903.705 -1.35322 1.23936 0
M  V30 9624 H 902.087 -3.9091 0.632892 0
M  V30 9625 H 903.261 -3.12845 3.38326 0
M  V30 9626 H 901.576 -2.94112 2.94766 0
M  V30 9627 H 904.173 -5.18536 1.30478 0
M  V30 9628 H 904.516 -4.16243 -0.0686466 0
M  V30 9629 H 905.049 -3.66164 1.55464 0
M  V30 9630 H 901.788 -5.00293 4.23542 0
M  V30 9631 H 901.308 -5.4177 2.57381 0
M  V30 9632 H 902.987 -5.67327 3.11045 0
M  V30 9633 N 903.119 -0.802921 -1.35613 0
M  V30 9634 C 904.365 -0.382141 -1.99167 0
M  V30 9635 C 904.698 1.04704 -1.63556 0
M  V30 9636 O 903.973 1.72578 -0.89706 0
M  V30 9637 C 904.256 -0.561493 -3.55695 0
M  V30 9638 C 904.109 -2.03534 -4.01116 0
M  V30 9639 C 905.428 0.0151135 -4.40097 0
M  V30 9640 H 902.547 -0.140322 -0.723518 0
M  V30 9641 H 905.189 -1.01177 -1.6082 0
M  V30 9642 H 903.339 -0.0255083 -3.88492 0
M  V30 9643 H 905.011 -2.63343 -3.78746 0
M  V30 9644 H 903.254 -2.5331 -3.52159 0
M  V30 9645 H 903.925 -2.11173 -5.1001 0
M  V30 9646 H 906.401 -0.442582 -4.1374 0
M  V30 9647 H 905.277 -0.140316 -5.48721 0
M  V30 9648 H 905.538 1.10848 -4.27978 0
M  V30 9649 N 904.597 1.47463 -0.556102 0
M  V30 9650 C 905.547 2.27007 0.212592 0
M  V30 9651 C 906.531 1.34288 0.886312 0
M  V30 9652 O 907.723 1.5865 0.784801 0
M  V30 9653 C 904.852 3.20021 1.24263 0
M  V30 9654 C 903.938 4.2022 0.572385 0
M  V30 9655 N 904.329 5.04539 -0.35691 0
M  V30 9656 C 902.627 4.38276 0.826441 0
M  V30 9657 C 903.328 5.76895 -0.746134 0
M  V30 9658 N 902.304 5.43506 -0.101225 0
M  V30 9659 H 906.106 2.89582 -0.501925 0
M  V30 9660 H 903.62 1.57988 -0.375961 0
M  V30 9661 H 905.617 3.7569 1.80728 0
M  V30 9662 H 904.277 2.59003 1.95826 0
M  V30 9663 H 905.288 5.12715 -0.731012 0
M  V30 9664 H 901.965 3.88429 1.53066 0
M  V30 9665 H 903.355 6.5472 -1.50967 0
M  V30 9666 N 906.075 0.2925 1.54862 0
M  V30 9667 C 907.022 -0.587365 2.23201 0
M  V30 9668 C 907.992 -1.13623 1.21157 0
M  V30 9669 O 909.177 -1.18233 1.49752 0
M  V30 9670 C 906.317 -1.75745 2.96998 0
M  V30 9671 C 905.43 -1.24078 4.13798 0
M  V30 9672 C 904.565 -2.37405 4.75197 0
M  V30 9673 C 903.604 -1.82829 5.84157 0
M  V30 9674 N 902.741 -2.89696 6.39547 0
M  V30 9675 H 907.581 0.00202207 2.98 0
M  V30 9676 H 905.118 0.012766 1.47094 0
M  V30 9677 H 907.076 -2.44549 3.38011 0
M  V30 9678 H 905.706 -2.3186 2.24591 0
M  V30 9679 H 904.758 -0.445268 3.77785 0
M  V30 9680 H 906.07 -0.801186 4.92324 0
M  V30 9681 H 905.224 -3.14172 5.19019 0
M  V30 9682 H 903.963 -2.84688 3.95985 0
M  V30 9683 H 902.968 -1.04548 5.39768 0
M  V30 9684 H 904.193 -1.36461 6.65248 0
M  V30 9685 H 902.139 -3.36328 5.63222 0
M  V30 9686 H 902.056 -2.50206 7.13395 0
M  V30 9687 H 903.324 -3.66386 6.88027 0
M  V30 9688 N 907.553 -1.57587 0.0200696 0
M  V30 9689 C 908.802 -1.90602 -0.659822 0
M  V30 9690 C 909.115 -0.897216 -1.73808 0
M  V30 9691 O 910.321 -1.11829 -2.47399 0
M  V30 9692 C 908.777 -3.38416 -1.22484 0
M  V30 9693 C 908.385 -4.47637 -0.180339 0
M  V30 9694 C 910.129 -3.80513 -1.88176 0
M  V30 9695 C 908.036 -5.86542 -0.756482 0
M  V30 9696 H 906.966 -0.711272 -0.250216 0
M  V30 9697 H 909.617 -1.83308 0.0838942 0
M  V30 9698 H 907.999 -3.40613 -2.01987 0
M  V30 9699 H 909.173 -4.56987 0.591573 0
M  V30 9700 H 907.488 -4.14687 0.377302 0
M  V30 9701 H 910.085 -4.8164 -2.32222 0
M  V30 9702 H 910.428 -3.15091 -2.72073 0
M  V30 9703 H 910.961 -3.80701 -1.15377 0
M  V30 9704 H 907.7 -6.55485 0.0441468 0
M  V30 9705 H 907.22 -5.80816 -1.49709 0
M  V30 9706 H 908.899 -6.3483 -1.249 0
M  V30 9707 N 909.032 0.252966 -1.55557 0
M  V30 9708 C 909.979 1.3131 -1.89806 0
M  V30 9709 C 910.949 1.48121 -0.751633 0
M  V30 9710 O 912.134 1.62202 -1.00474 0
M  V30 9711 C 909.274 2.66467 -2.19293 0
M  V30 9712 C 908.387 2.57714 -3.46709 0
M  V30 9713 C 907.522 3.85184 -3.65796 0
M  V30 9714 C 906.561 3.71023 -4.86835 0
M  V30 9715 N 905.698 4.90371 -5.02474 0
M  V30 9716 H 910.538 1.01402 -2.80217 0
M  V30 9717 H 908.075 0.489462 -1.38718 0
M  V30 9718 H 910.033 3.45132 -2.34392 0
M  V30 9719 H 908.663 2.94536 -1.32093 0
M  V30 9720 H 907.715 1.70651 -3.39974 0
M  V30 9721 H 909.027 2.43158 -4.35517 0
M  V30 9722 H 908.181 4.72292 -3.80822 0
M  V30 9723 H 906.92 4.0263 -2.7521 0
M  V30 9724 H 905.925 2.82299 -4.71792 0
M  V30 9725 H 907.15 3.55078 -5.78875 0
M  V30 9726 H 905.096 5.0819 -4.14824 0
M  V30 9727 H 905.013 4.78423 -5.85361 0
M  V30 9728 H 906.281 5.78995 -5.21905 0
M  V30 9729 N 910.51 1.48831 0.518367 0
M  V30 9730 C 911.42 1.6692 1.64848 0
M  V30 9731 C 912.436 0.551711 1.65022 0
M  V30 9732 O 913.612 0.824251 1.83761 0
M  V30 9733 C 910.677 1.71559 3.01278 0
M  V30 9734 C 909.738 2.9502 3.11868 0
M  V30 9735 C 908.971 2.99428 4.4179 0
M  V30 9736 O 909.194 2.11914 5.29574 0
M  V30 9737 O 908.128 3.91719 4.5699 0
M  V30 9738 H 911.954 2.62623 1.52521 0
M  V30 9739 H 909.539 1.32368 0.692749 0
M  V30 9740 H 911.421 1.77064 3.82396 0
M  V30 9741 H 910.096 0.790316 3.13904 0
M  V30 9742 H 909.003 2.95042 2.30003 0
M  V30 9743 H 910.336 3.8697 3.04163 0
M  V30 9744 N 911.988 -0.768124 1.37614 0
M  V30 9745 C 913.228 -1.53979 1.34424 0
M  V30 9746 C 913.592 -1.91874 -0.0696803 0
M  V30 9747 O 914.793 -2.67845 -0.22633 0
M  V30 9748 C 913.064 -2.76845 2.26034 0
M  V30 9749 S 914.623 -3.66871 2.4073 0
M  V30 9750 H 911.441 -0.527108 0.477157 0
M  V30 9751 H 914.043 -0.902945 1.73399 0
M  V30 9752 H 912.747 -2.47091 3.2768 0
M  V30 9753 H 912.278 -3.45486 1.88157 0
M  V30 9754 H 914.293 -4.6899 1.62057 0
M  V30 9755 N 913.466 -1.22244 -0.994698 0
M  V30 9756 C 914.713 -1.04591 -1.73398 0
M  V30 9757 C 915.041 0.419223 -1.89928 0
M  V30 9758 O 914.296 1.32714 -1.43824 0
M  V30 9759 C 914.595 -1.70014 -3.14372 0
M  V30 9760 C 914.261 -3.19903 -3.17762 0
M  V30 9761 C 912.923 -3.60803 -3.18394 0
M  V30 9762 C 915.275 -4.15851 -3.14194 0
M  V30 9763 C 912.603 -4.96135 -3.13157 0
M  V30 9764 C 914.955 -5.51157 -3.10498 0
M  V30 9765 C 913.619 -5.91439 -3.09445 0
M  V30 9766 H 912.889 -0.382725 -0.63451 0
M  V30 9767 H 915.536 -1.51981 -1.16508 0
M  V30 9768 H 913.841 -1.14945 -3.7456 0
M  V30 9769 H 915.538 -1.53848 -3.70313 0
M  V30 9770 H 912.128 -2.87336 -3.18019 0
M  V30 9771 H 916.312 -3.85272 -3.12857 0
M  V30 9772 H 911.568 -5.26578 -3.10685 0
M  V30 9773 H 915.742 -6.2523 -3.06692 0
M  V30 9774 H 913.369 -6.96271 -3.05141 0
M  V30 9775 N 914.944 1.19125 -1.03184 0
M  V30 9776 C 916.36 1.40909 -0.749447 0
M  V30 9777 C 916.56 1.9022 0.664729 0
M  V30 9778 O 915.616 2.08085 1.43028 0
M  V30 9779 C 916.929 2.41761 -1.78807 0
M  V30 9780 C 918.477 2.55503 -1.80796 0
M  V30 9781 C 918.952 3.59612 -2.83626 0
M  V30 9782 N 920.443 3.6711 -2.82461 0
M  V30 9783 C 921.178 4.47366 -3.5868 0
M  V30 9784 N 920.674 5.31302 -4.44623 0
M  V30 9785 N 922.467 4.42044 -3.47208 0
M  V30 9786 H 914.618 0.854399 -1.94458 0
M  V30 9787 H 916.881 0.437753 -0.840878 0
M  V30 9788 H 916.587 2.12559 -2.80199 0
M  V30 9789 H 916.461 3.40981 -1.61283 0
M  V30 9790 H 918.848 2.84027 -0.800803 0
M  V30 9791 H 918.929 1.56427 -2.02396 0
M  V30 9792 H 918.573 3.3183 -3.84515 0
M  V30 9793 H 918.503 4.58345 -2.59283 0
M  V30 9794 H 920.994 3.07166 -2.2013 0
M  V30 9795 H 921.307 5.89667 -4.99512 0
M  V30 9796 H 919.652 5.30753 -4.48694 0
M  V30 9797 H 922.843 3.75513 -2.79477 0
M  V30 9798 H 923.016 5.0435 -4.06859 0
M  V30 9799 N 916.422 0.810101 1.35185 0
M  V30 9800 C 917.369 0.220927 2.2974 0
M  V30 9801 C 918.339 -0.647024 1.5298 0
M  V30 9802 O 919.524 -0.591367 1.81404 0
M  V30 9803 C 916.664 -0.62167 3.39454 0
M  V30 9804 C 915.777 0.267104 4.31173 0
M  V30 9805 C 914.912 -0.583833 5.27982 0
M  V30 9806 C 913.951 0.305123 6.11339 0
M  V30 9807 N 913.088 -0.505992 7.00274 0
M  V30 9808 H 917.928 1.03266 2.79536 0
M  V30 9809 H 915.465 0.520768 1.37573 0
M  V30 9810 H 917.423 -1.12539 4.01735 0
M  V30 9811 H 916.053 -1.39863 2.90926 0
M  V30 9812 H 915.105 0.88895 3.69867 0
M  V30 9813 H 916.417 0.951182 4.89647 0
M  V30 9814 H 915.571 -1.15254 5.95652 0
M  V30 9815 H 914.31 -1.30146 4.70014 0
M  V30 9816 H 913.315 0.886075 5.42613 0
M  V30 9817 H 914.54 1.02067 6.71386 0
M  V30 9818 H 912.486 -1.20753 6.4479 0
M  V30 9819 H 912.403 0.119966 7.55905 0
M  V30 9820 H 913.671 -1.05787 7.72288 0
M  V30 9821 N 917.9 -1.47166 0.563914 0
M  V30 9822 C 918.83 -2.32894 -0.168148 0
M  V30 9823 C 919.811 -1.44202 -0.902214 0
M  V30 9824 O 920.996 -1.73048 -0.881365 0
M  V30 9825 C 918.126 -3.26116 -1.19439 0
M  V30 9826 C 917.08 -4.24101 -0.576363 0
M  V30 9827 C 916.406 -5.06696 -1.70772 0
M  V30 9828 C 917.706 -5.20142 0.47425 0
M  V30 9829 H 919.4 -2.9435 0.547573 0
M  V30 9830 H 916.946 -1.41545 0.264778 0
M  V30 9831 H 918.899 -3.84935 -1.71474 0
M  V30 9832 H 917.623 -2.62728 -1.94014 0
M  V30 9833 H 916.282 -3.66519 -0.0772534 0
M  V30 9834 H 915.93 -4.39707 -2.44268 0
M  V30 9835 H 915.63 -5.7304 -1.29994 0
M  V30 9836 H 917.154 -5.68375 -2.2312 0
M  V30 9837 H 918.568 -5.73286 0.0397035 0
M  V30 9838 H 916.965 -5.94726 0.801287 0
M  V30 9839 H 918.035 -4.65214 1.36764 0
M  V30 9840 N 919.378 -0.300708 -1.54705 0
M  V30 9841 C 920.789 0.191995 -1.8571 0
M  V30 9842 C 921.14 1.53447 -1.22264 0
M  V30 9843 O 920.265 2.10054 -0.520226 0
M  V30 9844 C 920.86 0.355148 -3.36933 0
M  V30 9845 C 919.419 0.792071 -3.67972 0
M  V30 9846 C 918.566 -0.099756 -2.77121 0
M  V30 9847 H 921.517 -0.521729 -1.49879 0
M  V30 9848 H 921.538 1.18977 -3.61421 0
M  V30 9849 H 921.05 -0.622075 -3.83082 0
M  V30 9850 H 919.151 1.77986 -3.27341 0
M  V30 9851 H 919.264 0.611661 -4.75179 0
M  V30 9852 H 917.628 0.420909 -2.51198 0
M  V30 9853 H 918.411 -1.07333 -3.2609 0
M  V30 9854 N 920.856 1.57574 -0.0284266 0
M  V30 9855 C 922.102 1.92056 0.651327 0
M  V30 9856 C 922.435 0.905092 1.71819 0
M  V30 9857 O 921.71 -0.0722703 1.94366 0
M  V30 9858 C 921.993 3.37021 1.26841 0
M  V30 9859 C 921.846 4.49304 0.211157 0
M  V30 9860 C 923.165 3.81936 2.18662 0
M  V30 9861 H 920.284 0.698428 0.235304 0
M  V30 9862 H 922.926 1.89807 -0.0855435 0
M  V30 9863 H 921.076 3.39068 1.89644 0
M  V30 9864 H 922.748 4.5939 -0.419379 0
M  V30 9865 H 920.991 4.31317 -0.463445 0
M  V30 9866 H 921.662 5.47764 0.682518 0
M  V30 9867 H 924.138 3.8162 1.65847 0
M  V30 9868 H 923.014 4.84064 2.58792 0
M  V30 9869 H 923.275 3.174 3.07749 0
M  V30 9870 N 922.334 -0.244713 1.55689 0
M  V30 9871 C 923.282 -1.32276 1.91326 0
M  V30 9872 C 924.276 -1.49714 0.792589 0
M  V30 9873 O 925.482 -1.51163 0.977227 0
M  V30 9874 H 921.857 -0.442979 0.607679 0
M  V30 9875 H 923.828 -0.99486 2.81327 0
M  V30 9876 C 922.577 -2.67077 2.22633 0
M  V30 9877 H 921.9 -2.54458 3.08368 0
M  V30 9878 H 923.34 -3.41378 2.5147 0
M  V30 9879 C 921.799 -3.20335 1.04342 0
M  V30 9880 O 922.329 -4.00633 0.292543 0
M  V30 9881 N 920.535 -2.78392 0.833457 0
M  V30 9882 H 920.082 -2.13202 1.44577 0
M  V30 9883 H 920.04 -3.1437 0.0436713 0
M  V30 9884 N 923.813 -1.49104 -0.510467 0
M  V30 9885 C 925.229 -1.35657 -0.840797 0
M  V30 9886 C 925.429 -0.382425 -1.97838 0
M  V30 9887 O 924.485 0.189331 -2.51789 0
M  V30 9888 C 925.798 -2.76155 -1.18992 0
M  V30 9889 C 927.346 -2.84786 -1.29868 0
M  V30 9890 C 927.821 -4.2603 -1.68115 0
M  V30 9891 N 929.312 -4.28796 -1.75181 0
M  V30 9892 C 930.047 -5.35041 -2.062 0
M  V30 9893 N 929.543 -6.51543 -2.35508 0
M  V30 9894 N 931.336 -5.2245 -2.07371 0
M  V30 9895 H 923.487 -2.11042 0.23982 0
M  V30 9896 H 925.75 -0.946946 0.0446824 0
M  V30 9897 H 925.456 -3.49092 -0.427484 0
M  V30 9898 H 925.33 -3.10922 -2.13558 0
M  V30 9899 H 927.717 -2.12092 -2.05186 0
M  V30 9900 H 927.798 -2.53613 -0.333758 0
M  V30 9901 H 927.442 -4.99247 -0.933512 0
M  V30 9902 H 927.372 -4.5466 -2.65691 0
M  V30 9903 H 929.863 -3.44771 -1.5473 0
M  V30 9904 H 930.176 -7.28342 -2.58337 0
M  V30 9905 H 928.521 -6.54785 -2.32985 0
M  V30 9906 H 931.712 -4.30444 -1.83945 0
M  V30 9907 H 931.885 -6.05347 -2.31212 0
M  V30 9908 N 925.291 0.760815 -1.38019 0
M  V30 9909 C 926.702 1.33773 -1.30237 0
M  V30 9910 C 927.053 1.96148 0.0451153 0
M  V30 9911 O 926.178 1.94574 0.9471 0
M  V30 9912 C 926.773 2.43227 -2.35851 0
M  V30 9913 C 925.332 2.96659 -2.31669 0
M  V30 9914 C 924.479 1.69972 -2.191 0
M  V30 9915 H 927.43 0.560237 -1.48482 0
M  V30 9916 H 927.451 3.22985 -2.01149 0
M  V30 9917 H 926.963 1.978 -3.33911 0
M  V30 9918 H 925.064 3.46433 -1.37167 0
M  V30 9919 H 925.177 3.51529 -3.25521 0
M  V30 9920 H 923.541 1.9332 -1.65829 0
M  V30 9921 H 924.324 1.26633 -3.19091 0
M  V30 9922 N 926.769 1.22769 0.988202 0
M  V30 9923 C 928.018 1.0492 1.72263 0
M  V30 9924 C 928.331 -0.415282 1.91141 0
M  V30 9925 O 929.537 -0.713547 2.61956 0
M  V30 9926 C 927.993 1.82891 3.09966 0
M  V30 9927 C 927.601 3.33618 2.99003 0
M  V30 9928 C 929.345 1.73505 3.87423 0
M  V30 9929 C 927.252 4.04012 4.3189 0
M  V30 9930 H 926.182 0.38899 0.645912 0
M  V30 9931 H 928.833 1.46664 1.10281 0
M  V30 9932 H 927.215 1.33948 3.72658 0
M  V30 9933 H 928.389 3.8999 2.45448 0
M  V30 9934 H 926.704 3.43732 2.35027 0
M  V30 9935 H 929.301 2.23416 4.85787 0
M  V30 9936 H 929.644 0.696344 4.10435 0
M  V30 9937 H 930.177 2.20016 3.31418 0
M  V30 9938 H 926.916 5.08155 4.14075 0
M  V30 9939 H 926.436 3.52428 4.8534 0
M  V30 9940 H 928.115 4.0987 5.00615 0
M  V30 9941 N 928.247 -1.18576 1.03814 0
M  V30 9942 C 929.524 -1.8433 0.654358 0
M  V30 9943 C 929.904 -1.92504 -0.866338 0
M  V30 9944 O 929.252 -1.44904 -1.76678 0
M  V30 9945 C 929.462 -3.22778 1.32723 0
M  V30 9946 C 930.81 -3.98841 1.45641 0
M  V30 9947 O 931.834 -3.32209 1.28514 0
M  V30 9948 O 930.693 -5.18219 1.73526 0
M  V30 9949 H 927.787 -0.794766 0.228638 0
M  V30 9950 H 930.333 -1.25989 1.13687 0
M  V30 9951 H 929.105 -3.11717 2.36534 0
M  V30 9952 H 928.728 -3.88772 0.833176 0
M  V30 9953 N 929.725 -0.817259 -1.34754 0
M  V30 9954 C 930.971 -0.412407 -1.99175 0
M  V30 9955 C 931.326 1.01192 -1.6364 0
M  V30 9956 O 930.619 1.69417 -0.894897 0
M  V30 9957 C 930.813 -0.5453 -3.53216 0
M  V30 9958 C 930.642 -1.981 -4.03716 0
M  V30 9959 C 929.412 -2.61167 -4.32574 0
M  V30 9960 C 931.61 -2.94698 -4.21494 0
M  V30 9961 N 929.592 -3.96035 -4.69073 0
M  V30 9962 C 930.963 -4.14462 -4.61109 0
M  V30 9963 C 933.018 -2.9139 -4.03728 0
M  V30 9964 C 931.721 -5.31363 -4.84815 0
M  V30 9965 C 933.747 -4.07502 -4.28598 0
M  V30 9966 C 933.109 -5.26016 -4.68494 0
M  V30 9967 H 929.208 -0.198899 -0.756282 0
M  V30 9968 H 931.792 -1.06076 -1.63266 0
M  V30 9969 H 929.963 0.073122 -3.88331 0
M  V30 9970 H 931.695 -0.113999 -4.04539 0
M  V30 9971 H 928.45 -2.12446 -4.23277 0
M  V30 9972 H 928.874 -4.65502 -4.91566 0
M  V30 9973 H 933.516 -2.00908 -3.72016 0
M  V30 9974 H 931.234 -6.22408 -5.15397 0
M  V30 9975 H 934.82 -4.06335 -4.16393 0
M  V30 9976 H 933.7 -6.14369 -4.87361 0
M  V30 9977 N 931.203 1.46865 -0.571711 0
M  V30 9978 C 932.15 2.30189 0.167808 0
M  V30 9979 C 933.12 1.3995 0.89461 0
M  V30 9980 O 934.305 1.68905 0.887451 0
M  V30 9981 C 931.445 3.24205 1.1826 0
M  V30 9982 C 930.558 4.2954 0.460376 0
M  V30 9983 C 929.693 5.10693 1.46173 0
M  V30 9984 C 928.732 6.07788 0.725291 0
M  V30 9985 N 927.869 6.81847 1.67417 0
M  V30 9986 H 932.709 2.92902 -0.548831 0
M  V30 9987 H 930.246 1.44362 -0.282474 0
M  V30 9988 H 932.204 3.77147 1.7837 0
M  V30 9989 H 930.834 2.63324 1.86709 0
M  V30 9990 H 929.886 3.79541 -0.255546 0
M  V30 9991 H 931.198 4.98665 -0.115855 0
M  V30 9992 H 930.352 5.67857 2.13595 0
M  V30 9993 H 929.091 4.41502 2.07188 0
M  V30 9994 H 928.096 5.49787 0.037228 0
M  V30 9995 H 929.321 6.78993 0.120678 0
M  V30 9996 H 927.267 6.15376 2.27263 0
M  V30 9997 H 927.184 7.47195 1.15046 0
M  V30 9998 H 928.452 7.43577 2.33908 0
M  V30 9999 N 932.681 0.308908 1.54543 0
M  V30 10000 C 933.927 -0.298478 2.00592 0
M  V30 10001 C 934.26 -1.52929 1.19692 0
M  V30 10002 O 933.535 -1.9254 0.27542 0
M  V30 10003 C 933.818 -0.647218 3.54236 0
M  V30 10004 C 933.671 0.593284 4.4587 0
M  V30 10005 C 934.99 -1.47064 4.14801 0
M  V30 10006 H 932.109 -0.107012 0.72919 0
M  V30 10007 H 934.751 0.422578 1.85241 0
M  V30 10008 H 932.901 -1.26153 3.67447 0
M  V30 10009 H 934.573 1.2317 4.44552 0
M  V30 10010 H 932.816 1.22501 4.16144 0
M  V30 10011 H 933.487 0.305018 5.51157 0
M  V30 10012 H 935.963 -0.951511 4.05075 0
M  V30 10013 H 934.839 -1.68343 5.22448 0
M  V30 10014 H 935.1 -2.4623 3.67183 0
M  V30 10015 N 934.159 -1.57557 0.0367827 0
M  V30 10016 C 935.399 -1.93981 -0.644252 0
M  V30 10017 C 935.763 -0.913982 -1.6885 0
M  V30 10018 O 936.964 -1.16468 -2.42257 0
M  V30 10019 C 935.235 -3.35281 -1.23779 0
M  V30 10020 S 936.794 -3.93643 -1.93883 0
M  V30 10021 H 933.612 -0.678683 -0.21192 0
M  V30 10022 H 936.214 -1.95232 0.102281 0
M  V30 10023 H 934.918 -4.07752 -0.465451 0
M  V30 10024 H 934.449 -3.37492 -2.02146 0
M  V30 10025 H 936.464 -3.777 -3.21803 0
M  V30 10026 N 935.637 0.236453 -1.55816 0
M  V30 10027 C 936.569 1.31602 -1.87653 0
M  V30 10028 C 937.582 1.43782 -0.763584 0
M  V30 10029 O 938.771 1.44945 -1.04178 0
M  V30 10030 C 935.871 2.69342 -2.05689 0
M  V30 10031 C 935.044 2.79298 -3.36617 0
M  V30 10032 C 934.103 3.97952 -3.44268 0
M  V30 10033 O 933.129 3.86989 -4.17406 0
M  V30 10034 N 934.331 5.11594 -2.74321 0
M  V30 10035 H 937.096 1.04623 -2.80845 0
M  V30 10036 H 934.657 0.426534 -1.5618 0
M  V30 10037 H 936.649 3.47074 -2.08138 0
M  V30 10038 H 935.219 2.88984 -1.19192 0
M  V30 10039 H 934.439 1.8816 -3.46395 0
M  V30 10040 H 935.727 2.82908 -4.22895 0
M  V30 10041 H 935.125 5.23394 -2.14651 0
M  V30 10042 H 933.682 5.87422 -2.8245 0
M  V30 10043 N 937.115 1.49373 0.502552 0
M  V30 10044 C 938.531 1.36101 0.833591 0
M  V30 10045 C 938.731 0.392911 1.97632 0
M  V30 10046 O 937.787 -0.175975 2.51886 0
M  V30 10047 C 939.1 2.76782 1.17526 0
M  V30 10048 C 940.648 2.85471 1.28356 0
M  V30 10049 C 941.123 4.26915 1.65853 0
M  V30 10050 N 942.614 4.29719 1.72905 0
M  V30 10051 C 943.349 5.36127 2.0336 0
M  V30 10052 N 942.845 6.52782 2.32049 0
M  V30 10053 N 944.638 5.23542 2.04598 0
M  V30 10054 H 936.789 2.10912 -0.251008 0
M  V30 10055 H 939.052 0.946696 -0.0497037 0
M  V30 10056 H 938.758 3.49314 0.408965 0
M  V30 10057 H 938.632 3.1205 2.11907 0
M  V30 10058 H 941.019 2.13177 2.04058 0
M  V30 10059 H 941.1 2.53787 0.320304 0
M  V30 10060 H 940.744 4.99735 0.907022 0
M  V30 10061 H 940.674 4.56063 2.63276 0
M  V30 10062 H 943.165 3.45586 1.529 0
M  V30 10063 H 943.478 7.29701 2.54471 0
M  V30 10064 H 941.823 6.56011 2.29509 0
M  V30 10065 H 945.014 4.31413 1.8166 0
M  V30 10066 H 945.187 6.06565 2.27998 0
M  V30 10067 N 938.594 -0.753485 1.38421 0
M  V30 10068 C 939.843 -1.50797 1.33952 0
M  V30 10069 C 940.156 -1.95482 -0.0678464 0
M  V30 10070 O 941.362 -2.7048 -0.235078 0
M  V30 10071 C 939.818 -2.72393 2.35224 0
M  V30 10072 C 939.426 -2.34733 3.81582 0
M  V30 10073 C 941.17 -3.50281 2.39798 0
M  V30 10074 C 939.077 -3.52939 4.7454 0
M  V30 10075 H 938.007 -0.566211 0.497916 0
M  V30 10076 H 940.658 -0.823659 1.63976 0
M  V30 10077 H 939.04 -3.42806 1.98243 0
M  V30 10078 H 940.214 -1.71985 4.27502 0
M  V30 10079 H 938.529 -1.69978 3.80127 0
M  V30 10080 H 941.126 -4.38172 3.06447 0
M  V30 10081 H 941.469 -3.91444 1.41695 0
M  V30 10082 H 942.002 -2.86881 2.75579 0
M  V30 10083 H 938.741 -3.16843 5.73839 0
M  V30 10084 H 938.261 -4.1473 4.33312 0
M  V30 10085 H 939.94 -4.19519 4.92557 0
M  V30 10086 N 940.072 -1.23292 -0.981677 0
M  V30 10087 C 941.318 -1.06582 -1.72535 0
M  V30 10088 C 941.651 0.396538 -1.90108 0
M  V30 10089 O 940.926 1.29363 -1.45243 0
M  V30 10090 C 941.209 -1.7904 -3.12437 0
M  V30 10091 C 941.062 -3.32941 -3.02441 0
M  V30 10092 C 942.381 -1.55185 -4.11832 0
M  V30 10093 H 939.5 -0.388585 -0.626236 0
M  V30 10094 H 942.142 -1.51779 -1.14293 0
M  V30 10095 H 940.292 -1.40619 -3.62158 0
M  V30 10096 H 941.964 -3.80875 -2.60254 0
M  V30 10097 H 940.207 -3.62039 -2.38977 0
M  V30 10098 H 940.878 -3.78827 -4.0149 0
M  V30 10099 H 943.354 -1.88581 -3.70913 0
M  V30 10100 H 942.23 -2.08362 -5.07815 0
M  V30 10101 H 942.491 -0.486925 -4.3941 0
M  V30 10102 N 941.55 1.18024 -1.04442 0
M  V30 10103 C 942.798 1.87727 -0.74854 0
M  V30 10104 C 943.119 1.80975 0.726156 0
M  V30 10105 O 942.389 1.23061 1.52423 0
M  V30 10106 H 940.969 0.694974 -0.273897 0
M  V30 10107 H 943.631 1.43213 -1.32197 0
M  V30 10108 H 942.727 2.93665 -1.05674 0
M  V30 10109 N 943.028 0.824394 1.34319 0
M  V30 10110 C 943.958 0.262077 2.32025 0
M  V30 10111 C 944.939 -0.622277 1.58309 0
M  V30 10112 O 946.124 -0.548848 1.86283 0
M  V30 10113 C 943.254 -0.57567 3.42496 0
M  V30 10114 C 942.208 0.21167 4.27476 0
M  V30 10115 C 941.534 -0.748913 5.29429 0
M  V30 10116 C 942.834 1.42068 5.02607 0
M  V30 10117 H 944.528 1.07842 2.79304 0
M  V30 10118 H 942.074 0.520022 1.34282 0
M  V30 10119 H 944.027 -0.979251 4.09864 0
M  V30 10120 H 942.751 -1.42508 2.93869 0
M  V30 10121 H 941.41 0.596636 3.61712 0
M  V30 10122 H 941.058 -1.59432 4.77064 0
M  V30 10123 H 940.758 -0.226313 5.87164 0
M  V30 10124 H 942.282 -1.15032 5.99667 0
M  V30 10125 H 943.696 1.09103 5.62823 0
M  V30 10126 H 942.093 1.87903 5.69923 0
M  V30 10127 H 943.163 2.1981 4.32217 0
M  V30 10128 N 944.506 -1.46559 0.579492 0
M  V30 10129 C 945.436 -2.33059 -0.143437 0
M  V30 10130 C 946.417 -1.4515 -0.886868 0
M  V30 10131 O 947.602 -1.73973 -0.862961 0
M  V30 10132 C 944.732 -3.27364 -1.15973 0
M  V30 10133 C 943.686 -4.24689 -0.531348 0
M  V30 10134 C 943.012 -5.08479 -1.65388 0
M  V30 10135 C 944.312 -5.1961 0.529391 0
M  V30 10136 H 946.006 -2.93753 0.578762 0
M  V30 10137 H 943.552 -1.41256 0.279775 0
M  V30 10138 H 945.505 -3.86732 -1.67382 0
M  V30 10139 H 944.229 -2.64771 -1.91217 0
M  V30 10140 H 942.888 -3.6658 -0.0383749 0
M  V30 10141 H 942.536 -4.42273 -2.3959 0
M  V30 10142 H 942.236 -5.74387 -1.23909 0
M  V30 10143 H 943.76 -5.70709 -2.17079 0
M  V30 10144 H 945.174 -5.73212 0.100506 0
M  V30 10145 H 943.571 -5.93843 0.86432 0
M  V30 10146 H 944.641 -4.63737 1.4169 0
M  V30 10147 N 945.984 -0.3171 -1.54377 0
M  V30 10148 C 947.232 0.286842 -2.00054 0
M  V30 10149 C 947.553 1.53161 -1.20692 0
M  V30 10150 O 946.823 1.93479 -0.307045 0
M  V30 10151 H 945.403 0.108979 -0.739008 0
M  V30 10152 H 948.065 -0.432152 -1.90049 0
M  V30 10153 H 947.161 0.547729 -3.07256 0
M  V30 10154 N 947.462 1.57535 -0.0451378 0
M  V30 10155 C 948.709 1.92451 0.629987 0
M  V30 10156 C 949.037 0.92298 1.71206 0
M  V30 10157 O 948.292 -0.0656626 1.9559 0
M  V30 10158 C 948.591 3.34065 1.27024 0
M  V30 10159 C 948.257 4.49785 0.316971 0
M  V30 10160 C 946.919 4.81169 0.0546406 0
M  V30 10161 C 949.271 5.20111 -0.336693 0
M  V30 10162 C 946.599 5.8023 -0.86889 0
M  V30 10163 C 948.951 6.2016 -1.24838 0
M  V30 10164 C 947.615 6.49976 -1.51944 0
M  V30 10165 H 946.885 0.704228 0.230529 0
M  V30 10166 H 949.532 1.91182 -0.110328 0
M  V30 10167 H 947.837 3.31672 2.08568 0
M  V30 10168 H 949.534 3.58359 1.79945 0
M  V30 10169 H 946.124 4.2529 0.531614 0
M  V30 10170 H 950.308 4.96082 -0.147105 0
M  V30 10171 H 945.564 6.0167 -1.08643 0
M  V30 10172 H 949.738 6.73767 -1.76098 0
M  V30 10173 H 947.365 7.26551 -2.2367 0
M  V30 10174 N 948.94 -0.228186 1.55939 0
M  V30 10175 C 949.903 -1.26621 1.91049 0
M  V30 10176 C 950.903 -1.40141 0.788491 0
M  V30 10177 O 952.093 -1.3852 1.05631 0
M  V30 10178 C 949.225 -2.64108 2.15545 0
M  V30 10179 H 950.418 -0.966978 2.83883 0
M  V30 10180 H 947.971 -0.468313 1.49119 0
M  V30 10181 H 948.706 -2.99141 1.25241 0
M  V30 10182 H 948.491 -2.55673 2.97277 0
M  V30 10183 H 949.981 -3.39025 2.43827 0
M  V30 10184 N 950.418 -1.49637 -0.494624 0
M  V30 10185 C 951.381 -1.66252 -1.57775 0
M  V30 10186 C 952.381 -0.534054 -1.51672 0
M  V30 10187 O 953.571 -0.800637 -1.54711 0
M  V30 10188 C 950.703 -1.66584 -2.97426 0
M  V30 10189 H 951.896 -2.62864 -1.4437 0
M  V30 10190 H 949.449 -1.38764 -0.719323 0
M  V30 10191 H 950.184 -0.715798 -3.16302 0
M  V30 10192 H 949.969 -2.48543 -3.03264 0
M  V30 10193 H 951.459 -1.81474 -3.76108 0
M  V30 10194 N 951.896 0.746133 -1.38819 0
M  V30 10195 C 953.307 1.32384 -1.31648 0
M  V30 10196 C 953.658 1.96185 0.0243086 0
M  V30 10197 O 952.783 1.95567 0.92641 0
M  V30 10198 C 953.378 2.40712 -2.38418 0
M  V30 10199 C 951.937 2.94185 -2.34803 0
M  V30 10200 C 951.084 1.67639 -2.20891 0
M  V30 10201 H 954.035 0.544457 -1.49068 0
M  V30 10202 H 954.056 3.20833 -2.04564 0
M  V30 10203 H 953.568 1.94247 -3.3599 0
M  V30 10204 H 951.669 3.44959 -1.40834 0
M  V30 10205 H 951.782 3.48057 -3.29231 0
M  V30 10206 H 950.146 1.9155 -1.67871 0
M  V30 10207 H 950.929 1.23242 -3.20416 0
M  V30 10208 N 953.375 1.23811 0.975125 0
M  V30 10209 C 954.622 1.07336 1.71712 0
M  V30 10210 C 954.95 -0.388954 1.90571 0
M  V30 10211 O 954.205 -1.30409 1.45918 0
M  V30 10212 C 954.504 1.74994 3.11628 0
M  V30 10213 C 954.17 3.24918 3.12632 0
M  V30 10214 C 952.832 3.65822 3.12614 0
M  V30 10215 C 955.184 4.20797 3.07538 0
M  V30 10216 C 952.512 5.01054 3.05224 0
M  V30 10217 C 954.864 5.56027 3.0169 0
M  V30 10218 C 953.528 5.96287 2.99996 0
M  V30 10219 H 952.798 0.392771 0.62834 0
M  V30 10220 H 955.445 1.53815 1.14075 0
M  V30 10221 H 953.75 1.20889 3.72684 0
M  V30 10222 H 955.447 1.5972 3.67819 0
M  V30 10223 H 952.037 2.92359 3.13407 0
M  V30 10224 H 956.221 3.902 3.06688 0
M  V30 10225 H 951.477 5.31454 3.02268 0
M  V30 10226 H 955.651 6.3003 2.96706 0
M  V30 10227 H 953.278 7.01037 2.94025 0
M  V30 10228 N 954.853 -1.17469 1.05066 0
M  V30 10229 C 956.081 -1.9162 0.780334 0
M  V30 10230 C 956.496 -1.76745 -0.663817 0
M  V30 10231 O 955.853 -1.10377 -1.45338 0
M  V30 10232 C 955.904 -3.42723 1.14992 0
M  V30 10233 O 955.625 -3.57139 2.53739 0
M  V30 10234 C 957.126 -4.33952 0.905549 0
M  V30 10235 H 954.346 -0.608022 0.283814 0
M  V30 10236 H 956.89 -1.4897 1.401 0
M  V30 10237 H 955.045 -3.83124 0.57403 0
M  V30 10238 H 955.459 -4.5075 2.68189 0
M  V30 10239 H 956.933 -5.38487 1.21391 0
M  V30 10240 H 957.41 -4.38911 -0.159295 0
M  V30 10241 H 958.016 -3.99263 1.46522 0
M  V30 10242 N 956.331 -0.831506 -1.3388 0
M  V30 10243 C 957.263 -0.216908 -2.28171 0
M  V30 10244 C 958.276 0.598141 -1.51414 0
M  V30 10245 O 959.465 0.426416 -1.73332 0
M  V30 10246 C 956.565 0.713831 -3.31297 0
M  V30 10247 C 955.738 -0.0602673 -4.37358 0
M  V30 10248 C 954.797 0.792696 -5.20195 0
M  V30 10249 O 953.823 0.234564 -5.68716 0
M  V30 10250 N 955.025 2.11119 -5.40748 0
M  V30 10251 H 957.79 -1.02704 -2.81553 0
M  V30 10252 H 955.351 -0.689272 -1.46495 0
M  V30 10253 H 957.343 1.28925 -3.83615 0
M  V30 10254 H 955.913 1.42469 -2.78247 0
M  V30 10255 H 955.133 -0.817041 -3.8564 0
M  V30 10256 H 956.421 -0.592822 -5.05335 0
M  V30 10257 H 955.819 2.58828 -5.03016 0
M  V30 10258 H 954.376 2.63527 -5.96151 0
M  V30 10259 N 957.809 1.4625 -0.587256 0
M  V30 10260 C 959.049 2.04254 -0.0773169 0
M  V30 10261 C 959.413 1.44831 1.26047 0
M  V30 10262 O 960.614 1.94063 1.85992 0
M  V30 10263 C 958.885 3.57396 -0.0172813 0
M  V30 10264 S 960.444 4.36644 0.434422 0
M  V30 10265 H 957.262 0.709892 -0.0396783 0
M  V30 10266 H 959.864 1.79232 -0.780779 0
M  V30 10267 H 958.568 3.98161 -0.994795 0
M  V30 10268 H 958.099 3.86962 0.70881 0
M  V30 10269 H 960.114 4.66597 1.68824 0
M  V30 10270 N 959.287 0.325282 1.54207 0
M  V30 10271 C 960.535 -0.276229 2.00203 0
M  V30 10272 C 960.856 -1.52519 1.21503 0
M  V30 10273 O 960.126 -1.93313 0.317302 0
M  V30 10274 H 958.706 -0.105059 0.739575 0
M  V30 10275 H 961.368 0.442225 1.89817 0
M  V30 10276 H 960.464 -0.531427 3.07542 0
M  V30 10277 N 960.765 -1.57509 0.0534917 0
M  V30 10278 C 961.995 -1.96812 -0.628386 0
M  V30 10279 C 962.403 -0.929808 -1.64776 0
M  V30 10280 O 961.746 0.0941155 -1.83459 0
M  V30 10281 C 961.808 -3.32361 -1.37027 0
M  V30 10282 C 961.472 -4.54185 -0.506465 0
M  V30 10283 C 962.469 -5.19398 0.228412 0
M  V30 10284 C 960.154 -5.00398 -0.43671 0
M  V30 10285 C 962.148 -6.29162 1.02146 0
M  V30 10286 C 959.835 -6.10039 0.360022 0
M  V30 10287 C 960.833 -6.74282 1.08779 0
M  V30 10288 O 960.521 -7.81814 1.87142 0
M  V30 10289 H 960.253 -0.65257 -0.176432 0
M  V30 10290 H 962.807 -2.05067 0.116908 0
M  V30 10291 H 961.037 -3.20667 -2.16125 0
M  V30 10292 H 962.726 -3.56395 -1.94261 0
M  V30 10293 H 963.492 -4.84651 0.184003 0
M  V30 10294 H 959.371 -4.50183 -0.992772 0
M  V30 10295 H 962.915 -6.79238 1.59002 0
M  V30 10296 H 958.812 -6.44222 0.406061 0
M  V30 10297 H 959.58 -7.98602 1.79378 0
M  V30 10298 N 962.243 0.219913 -1.56058 0
M  V30 10299 C 963.654 0.786766 -1.69313 0
M  V30 10300 C 964.005 1.84916 -0.655782 0
M  V30 10301 O 963.13 2.1554 0.192772 0
M  V30 10302 C 963.725 1.43387 -3.06962 0
M  V30 10303 C 962.284 1.94809 -3.22066 0
M  V30 10304 C 961.431 0.808863 -2.65241 0
M  V30 10305 H 964.382 -0.00476777 -1.58699 0
M  V30 10306 H 964.403 2.30272 -3.02911 0
M  V30 10307 H 963.915 0.660405 -3.8244 0
M  V30 10308 H 962.016 2.74952 -2.5146 0
M  V30 10309 H 962.129 2.12694 -4.293 0
M  V30 10310 H 960.493 1.21661 -2.23765 0
M  V30 10311 H 961.276 0.0480458 -3.43266 0
M  V30 10312 N 963.721 1.49897 0.486681 0
M  V30 10313 C 964.684 1.67086 1.56891 0
M  V30 10314 C 965.684 0.54209 1.51387 0
M  V30 10315 O 966.874 0.80883 1.54284 0
M  V30 10316 C 964.006 1.68159 2.96539 0
M  V30 10317 H 965.199 2.63626 1.42974 0
M  V30 10318 H 962.752 1.39143 0.711954 0
M  V30 10319 H 963.487 0.732562 3.15918 0
M  V30 10320 H 963.272 2.50147 3.01942 0
M  V30 10321 H 964.762 1.83466 3.7514 0
M  V30 10322 N 965.199 -0.738761 1.39212 0
M  V30 10323 C 966.129 -1.86602 1.40364 0
M  V30 10324 C 967.11 -1.67984 0.267495 0
M  V30 10325 O 968.295 -1.88358 0.472765 0
M  V30 10326 C 965.425 -3.24308 1.24265 0
M  V30 10327 C 964.379 -3.57557 2.35239 0
M  V30 10328 C 963.705 -4.94159 2.04233 0
M  V30 10329 C 965.005 -3.60914 3.77543 0
M  V30 10330 H 966.699 -1.85896 2.34698 0
M  V30 10331 H 964.245 -0.892959 1.1297 0
M  V30 10332 H 966.198 -4.02838 1.23692 0
M  V30 10333 H 964.922 -3.25531 0.263974 0
M  V30 10334 H 963.581 -2.81354 2.35022 0
M  V30 10335 H 963.229 -4.91959 1.04813 0
M  V30 10336 H 962.929 -5.17373 2.78567 0
M  V30 10337 H 964.453 -5.7505 2.05303 0
M  V30 10338 H 965.867 -4.29528 3.79709 0
M  V30 10339 H 964.264 -3.95644 4.51205 0
M  V30 10340 H 965.334 -2.60803 4.08791 0
M  V30 10341 N 966.677 -1.24326 -0.968545 0
M  V30 10342 C 967.61 -0.978121 -2.06175 0
M  V30 10343 C 968.588 0.0878107 -1.62363 0
M  V30 10344 O 969.772 -0.0489472 -1.88436 0
M  V30 10345 C 966.899 -0.475884 -3.3534 0
M  V30 10346 C 965.945 -1.53023 -3.98103 0
M  V30 10347 S 966.778 -3.11131 -4.35841 0
M  V30 10348 C 967.934 -2.62608 -5.68144 0
M  V30 10349 H 968.167 -1.9038 -2.28348 0
M  V30 10350 H 965.7 -1.07701 -1.10633 0
M  V30 10351 H 967.658 -0.192739 -4.10047 0
M  V30 10352 H 966.319 0.429067 -3.11156 0
M  V30 10353 H 965.512 -1.12922 -4.91187 0
M  V30 10354 H 965.114 -1.76334 -3.29822 0
M  V30 10355 H 967.406 -2.05367 -6.45624 0
M  V30 10356 H 968.349 -3.54277 -6.13101 0
M  V30 10357 H 968.757 -2.03063 -5.26712 0
M  V30 10358 N 968.156 1.1691 -1.05688 0
M  V30 10359 C 969.567 1.68915 -0.795273 0
M  V30 10360 C 969.918 1.83968 0.681925 0
M  V30 10361 O 969.043 1.53083 1.52953 0
M  V30 10362 C 969.638 3.06814 -1.43703 0
M  V30 10363 C 968.197 3.55965 -1.22335 0
M  V30 10364 C 967.344 2.32099 -1.51741 0
M  V30 10365 H 970.295 1.01357 -1.22116 0
M  V30 10366 H 970.316 3.70907 -0.849016 0
M  V30 10367 H 969.828 2.95826 -2.51214 0
M  V30 10368 H 967.929 3.72222 -0.16771 0
M  V30 10369 H 968.042 4.38427 -1.9318 0
M  V30 10370 H 966.406 2.36811 -0.937696 0
M  V30 10371 H 967.189 2.23715 -2.60397 0
M  V30 10372 N 969.634 0.838594 1.33437 0
M  V30 10373 C 970.564 0.286672 2.31734 0
M  V30 10374 C 971.545 -0.605451 1.5896 0
M  V30 10375 O 972.73 -0.529059 1.86854 0
M  V30 10376 C 969.86 -0.539311 3.43087 0
M  V30 10377 C 968.814 0.256997 4.27228 0
M  V30 10378 C 968.14 -0.692718 5.30194 0
M  V30 10379 C 969.44 1.47391 5.01072 0
M  V30 10380 H 971.134 1.10798 2.78144 0
M  V30 10381 H 968.68 0.534235 1.33723 0
M  V30 10382 H 970.633 -0.935724 4.1088 0
M  V30 10383 H 969.357 -1.39383 2.95364 0
M  V30 10384 H 968.016 0.634967 3.61059 0
M  V30 10385 H 967.664 -1.54363 4.78729 0
M  V30 10386 H 967.364 -0.164023 5.87371 0
M  V30 10387 H 968.888 -1.08665 6.00853 0
M  V30 10388 H 970.302 1.15067 5.61634 0
M  V30 10389 H 968.699 1.93937 5.67898 0
M  V30 10390 H 969.769 2.24382 4.29861 0
M  V30 10391 N 971.112 -1.45937 0.595003 0
M  V30 10392 C 972.342 -2.06399 0.0911607 0
M  V30 10393 C 972.75 -1.44236 -1.22444 0
M  V30 10394 O 972.093 -0.546265 -1.7539 0
M  V30 10395 C 972.155 -3.59242 -0.136079 0
M  V30 10396 C 971.819 -4.43668 1.09579 0
M  V30 10397 C 972.816 -4.79437 2.01088 0
M  V30 10398 C 970.501 -4.84616 1.32109 0
M  V30 10399 C 972.495 -5.54995 3.13464 0
M  V30 10400 C 970.182 -5.5993 2.44788 0
M  V30 10401 C 971.18 -5.95035 3.35294 0
M  V30 10402 O 970.868 -6.68825 4.46014 0
M  V30 10403 H 970.6 -0.673316 0.0601779 0
M  V30 10404 H 973.154 -1.88365 0.819005 0
M  V30 10405 H 971.384 -3.75629 -0.918676 0
M  V30 10406 H 973.073 -4.0159 -0.589954 0
M  V30 10407 H 973.839 -4.48371 1.84902 0
M  V30 10408 H 969.718 -4.56735 0.625662 0
M  V30 10409 H 973.262 -5.82314 3.84131 0
M  V30 10410 H 969.159 -5.90411 2.60931 0
M  V30 10411 H 969.927 -6.87262 4.44537 0
M  V30 10412 N 972.59 -0.333456 -1.54032 0
M  V30 10413 C 973.553 0.515392 -2.2333 0
M  V30 10414 C 974.553 1.03566 -1.23007 0
M  V30 10415 O 975.743 0.926514 -1.47517 0
M  V30 10416 C 972.875 1.7169 -2.94508 0
M  V30 10417 H 974.068 -0.0905407 -2.99763 0
M  V30 10418 H 971.621 -0.0846651 -1.56071 0
M  V30 10419 H 972.356 2.3618 -2.22237 0
M  V30 10420 H 972.141 1.35115 -3.68085 0
M  V30 10421 H 973.631 2.31922 -3.47278 0
M  V30 10422 N 974.068 1.57479 -0.061844 0
M  V30 10423 C 975.308 1.94982 0.613309 0
M  V30 10424 C 975.672 0.940729 1.67375 0
M  V30 10425 O 976.873 1.20307 2.40374 0
M  V30 10426 C 975.144 3.37208 1.18429 0
M  V30 10427 S 976.703 3.96678 1.87596 0
M  V30 10428 H 973.521 0.681969 0.201096 0
M  V30 10429 H 976.123 1.95045 -0.133328 0
M  V30 10430 H 974.827 4.08441 0.400522 0
M  V30 10431 H 974.358 3.40665 1.96751 0
M  V30 10432 H 976.373 3.82772 3.15754 0
M  V30 10433 N 975.546 -0.211634 1.56173 0
M  V30 10434 C 976.795 -0.932647 1.78842 0
M  V30 10435 C 977.108 -1.85103 0.63217 0
M  V30 10436 O 978.314 -2.61143 0.742746 0
M  V30 10437 C 976.77 -1.70866 3.16753 0
M  V30 10438 C 976.378 -0.835934 4.40132 0
M  V30 10439 C 978.122 -2.4203 3.48743 0
M  V30 10440 C 976.029 -1.60987 5.69067 0
M  V30 10441 H 974.959 -0.351983 0.666801 0
M  V30 10442 H 977.61 -0.186284 1.82552 0
M  V30 10443 H 975.992 -2.4983 3.07247 0
M  V30 10444 H 977.166 -0.0861298 4.60719 0
M  V30 10445 H 975.481 -0.235941 4.15731 0
M  V30 10446 H 978.078 -3.00453 4.42303 0
M  V30 10447 H 978.421 -3.15406 2.71707 0
M  V30 10448 H 978.954 -1.70048 3.59623 0
M  V30 10449 H 975.693 -0.9192 6.49023 0
M  V30 10450 H 975.213 -2.33403 5.52524 0
M  V30 10451 H 976.892 -2.16798 6.09596 0
M  V30 10452 N 977.024 -1.50153 -0.478725 0
M  V30 10453 C 978.252 -1.64505 -1.25482 0
M  V30 10454 C 978.667 -0.325295 -1.85977 0
M  V30 10455 O 978.024 0.691885 -1.68876 0
M  V30 10456 C 978.075 -2.73052 -2.36906 0
M  V30 10457 O 977.796 -3.99911 -1.78894 0
M  V30 10458 C 979.297 -2.98309 -3.27912 0
M  V30 10459 H 976.517 -0.55318 -0.379781 0
M  V30 10460 H 979.061 -1.96329 -0.57229 0
M  V30 10461 H 977.216 -2.43944 -3.00949 0
M  V30 10462 H 977.63 -4.5988 -2.52211 0
M  V30 10463 H 979.104 -3.77942 -4.02323 0
M  V30 10464 H 979.581 -2.09082 -3.8624 0
M  V30 10465 H 980.187 -3.2892 -2.69614 0
M  V30 10466 N 978.502 0.731368 -1.39602 0
M  V30 10467 C 979.465 1.8271 -1.38383 0
M  V30 10468 C 980.465 1.58338 -0.280309 0
M  V30 10469 O 981.655 1.65671 -0.538402 0
M  V30 10470 C 978.787 3.20556 -1.16002 0
M  V30 10471 H 979.98 1.85193 -2.35889 0
M  V30 10472 H 977.533 0.935396 -1.2522 0
M  V30 10473 H 978.268 3.23732 -0.191927 0
M  V30 10474 H 978.053 3.39643 -1.9592 0
M  V30 10475 H 979.543 4.00612 -1.17899 0
M  V30 10476 N 979.98 1.24838 0.961938 0
M  V30 10477 C 980.927 1.04582 2.05745 0
M  V30 10478 C 981.897 -0.0427281 1.66045 0
M  V30 10479 O 983.082 0.113026 1.90465 0
M  V30 10480 C 980.222 0.66284 3.38675 0
M  V30 10481 C 979.335 1.82548 3.91536 0
M  V30 10482 C 978.47 1.38753 5.12758 0
M  V30 10483 C 977.509 2.51976 5.5783 0
M  V30 10484 N 976.646 2.09009 6.70268 0
M  V30 10485 H 981.486 1.98343 2.22405 0
M  V30 10486 H 979.023 0.987822 1.08998 0
M  V30 10487 H 980.981 0.421788 4.15062 0
M  V30 10488 H 979.611 -0.237776 3.21923 0
M  V30 10489 H 978.663 2.18004 3.11735 0
M  V30 10490 H 979.975 2.67601 4.20941 0
M  V30 10491 H 979.129 1.1057 5.96539 0
M  V30 10492 H 977.868 0.507618 4.85051 0
M  V30 10493 H 976.873 2.80912 4.72619 0
M  V30 10494 H 978.098 3.40534 5.87549 0
M  V30 10495 H 976.044 1.23423 6.44285 0
M  V30 10496 H 975.961 2.87613 6.99153 0
M  V30 10497 H 977.229 1.83981 7.57477 0
M  V30 10498 N 981.458 -1.16348 1.06306 0
M  V30 10499 C 982.39 -2.20316 0.631929 0
M  V30 10500 C 983.403 -1.59819 -0.310133 0
M  V30 10501 O 984.592 -1.78213 -0.101103 0
M  V30 10502 C 981.692 -3.3877 -0.0937645 0
M  V30 10503 C 980.865 -4.28826 0.861816 0
M  V30 10504 C 979.924 -5.25908 0.175346 0
M  V30 10505 O 978.95 -5.63363 0.813039 0
M  V30 10506 N 980.152 -5.70307 -1.08305 0
M  V30 10507 H 982.917 -2.57925 1.52626 0
M  V30 10508 H 980.478 -1.31358 0.946392 0
M  V30 10509 H 982.47 -4.00759 -0.563412 0
M  V30 10510 H 981.04 -2.99666 -0.889904 0
M  V30 10511 H 980.26 -3.64098 1.51083 0
M  V30 10512 H 981.548 -4.85875 1.51007 0
M  V30 10513 H 980.946 -5.4197 -1.62127 0
M  V30 10514 H 979.503 -6.34387 -1.49656 0
M  V30 10515 N 982.937 -0.845659 -1.3299 0
M  V30 10516 C 983.9 -0.288905 -2.27372 0
M  V30 10517 C 984.9 0.546263 -1.51237 0
M  V30 10518 O 986.09 0.359072 -1.70459 0
M  V30 10519 C 983.222 0.59224 -3.35716 0
M  V30 10520 H 984.415 -1.12181 -2.78128 0
M  V30 10521 H 981.968 -0.619276 -1.43508 0
M  V30 10522 H 982.703 1.44732 -2.90212 0
M  V30 10523 H 982.488 -0.00543255 -3.921 0
M  V30 10524 H 983.978 0.974848 -4.06062 0
M  V30 10525 N 984.415 1.45619 -0.602734 0
M  V30 10526 C 985.662 2.02272 -0.0960337 0
M  V30 10527 C 985.99 1.47177 1.27159 0
M  V30 10528 O 985.245 0.634593 1.85125 0
M  V30 10529 C 985.544 3.574 -0.00157909 0
M  V30 10530 C 985.21 4.31626 -1.30422 0
M  V30 10531 C 983.872 4.51622 -1.66106 0
M  V30 10532 C 986.224 4.74091 -2.16535 0
M  V30 10533 C 983.552 5.11338 -2.87663 0
M  V30 10534 C 985.904 5.35151 -3.37336 0
M  V30 10535 C 984.568 5.53371 -3.73278 0
M  V30 10536 H 983.838 0.740166 -0.0351412 0
M  V30 10537 H 986.485 1.74744 -0.783382 0
M  V30 10538 H 984.79 3.84179 0.769008 0
M  V30 10539 H 986.487 3.98934 0.406549 0
M  V30 10540 H 983.077 4.16372 -1.01647 0
M  V30 10541 H 987.261 4.5838 -1.90266 0
M  V30 10542 H 982.517 5.23634 -3.15622 0
M  V30 10543 H 986.691 5.67011 -4.04316 0
M  V30 10544 H 984.318 5.99412 -4.67556 0
M  V30 10545 N 985.893 0.34162 1.53853 0
M  V30 10546 C 987.139 -0.255862 2.01179 0
M  V30 10547 C 987.472 -1.50356 1.22909 0
M  V30 10548 O 986.747 -1.91913 0.316198 0
M  V30 10549 C 987.03 -0.571934 3.55529 0
M  V30 10550 C 986.883 0.687727 4.44511 0
M  V30 10551 C 988.202 -1.38233 4.17827 0
M  V30 10552 H 985.321 -0.091521 0.731295 0
M  V30 10553 H 987.963 0.461775 1.84303 0
M  V30 10554 H 986.113 -1.18331 3.70041 0
M  V30 10555 H 987.785 1.32572 4.4184 0
M  V30 10556 H 986.028 1.313 4.13452 0
M  V30 10557 H 986.699 0.421858 5.50386 0
M  V30 10558 H 989.175 -0.865374 4.07002 0
M  V30 10559 H 988.051 -1.57223 5.25901 0
M  V30 10560 H 988.312 -2.38386 3.72323 0
M  V30 10561 N 987.371 -1.57444 0.0701946 0
M  V30 10562 C 988.618 -1.93429 -0.59929 0
M  V30 10563 C 988.946 -0.9501 -1.69715 0
M  V30 10564 O 988.201 0.0345377 -1.9567 0
M  V30 10565 C 988.5 -3.36044 -1.21694 0
M  V30 10566 C 988.166 -4.50232 -0.245374 0
M  V30 10567 C 986.828 -4.81195 0.0219161 0
M  V30 10568 C 989.18 -5.1951 0.419396 0
M  V30 10569 C 986.508 -5.78775 0.96109 0
M  V30 10570 C 988.86 -6.18095 1.34688 0
M  V30 10571 C 987.524 -6.47477 1.62265 0
M  V30 10572 H 986.794 -0.707807 -0.219296 0
M  V30 10573 H 989.441 -1.90982 0.14073 0
M  V30 10574 H 987.746 -3.34948 -2.03265 0
M  V30 10575 H 989.443 -3.61176 -1.74221 0
M  V30 10576 H 986.033 -4.26082 -0.463887 0
M  V30 10577 H 990.217 -4.95785 0.226009 0
M  V30 10578 H 985.473 -5.99865 1.18202 0
M  V30 10579 H 989.647 -6.7088 1.86795 0
M  V30 10580 H 987.274 -7.229 2.352 0
M  V30 10581 N 988.849 0.203349 -1.56283 0
M  V30 10582 C 990.074 0.945548 -1.84592 0
M  V30 10583 C 990.499 1.7641 -0.652772 0
M  V30 10584 O 989.857 1.76867 0.398468 0
M  V30 10585 C 989.905 1.82416 -3.11057 0
M  V30 10586 O 989.009 2.92191 -2.9103 0
M  V30 10587 H 988.35 0.266739 -0.608068 0
M  V30 10588 H 990.88 0.211158 -2.03507 0
M  V30 10589 H 990.89 2.23044 -3.41636 0
M  V30 10590 H 989.565 1.22267 -3.97522 0
M  V30 10591 H 988.142 2.55378 -2.71728 0
M  V30 10592 N 990.327 1.50405 0.470755 0
M  V30 10593 C 991.738 1.54266 1.05162 0
M  V30 10594 C 992.089 0.346359 1.93119 0
M  V30 10595 O 991.214 -0.540699 2.09536 0
M  V30 10596 C 991.809 2.7956 1.91394 0
M  V30 10597 C 990.368 2.86101 2.44588 0
M  V30 10598 C 989.515 2.48557 1.22941 0
M  V30 10599 H 992.466 1.56665 0.253359 0
M  V30 10600 H 992.487 2.61434 2.76464 0
M  V30 10601 H 991.999 3.66611 1.27351 0
M  V30 10602 H 990.1 2.03403 3.12183 0
M  V30 10603 H 990.213 3.88999 2.79672 0
M  V30 10604 H 988.577 2.01003 1.56429 0
M  V30 10605 H 989.36 3.37916 0.605598 0
M  V30 10606 N 991.805 -0.723954 1.39988 0
M  V30 10607 C 993.033 -1.51313 1.4111 0
M  V30 10608 C 993.448 -1.88798 0.00853333 0
M  V30 10609 O 992.805 -1.54868 -0.965516 0
M  V30 10610 C 992.856 -2.79375 2.29416 0
M  V30 10611 O 992.577 -2.43478 3.64211 0
M  V30 10612 C 994.078 -3.7333 2.3904 0
M  V30 10613 H 991.298 -0.46724 0.481589 0
M  V30 10614 H 993.842 -0.893694 1.83938 0
M  V30 10615 H 991.997 -3.37624 1.89971 0
M  V30 10616 H 992.411 -3.25821 4.11024 0
M  V30 10617 H 993.885 -4.60051 3.05053 0
M  V30 10618 H 994.362 -4.15854 1.41289 0
M  V30 10619 H 994.968 -3.20996 2.79001 0
M  V30 10620 N 993.283 -1.25346 -0.955304 0
M  V30 10621 C 994.513 -1.12629 -1.732 0
M  V30 10622 C 994.921 0.322748 -1.86427 0
M  V30 10623 O 994.264 1.23381 -1.36099 0
M  V30 10624 C 994.326 -1.7064 -3.16421 0
M  V30 10625 C 993.99 -3.19632 -3.26626 0
M  V30 10626 C 994.987 -4.1663 -3.10991 0
M  V30 10627 C 992.672 -3.59829 -3.50468 0
M  V30 10628 C 994.666 -5.51806 -3.19043 0
M  V30 10629 C 992.353 -4.95143 -3.58157 0
M  V30 10630 C 993.351 -5.90941 -3.42459 0
M  V30 10631 O 993.039 -7.23792 -3.49828 0
M  V30 10632 H 992.771 -0.393646 -0.549562 0
M  V30 10633 H 995.325 -1.66184 -1.20715 0
M  V30 10634 H 993.555 -1.11532 -3.70267 0
M  V30 10635 H 995.244 -1.53032 -3.75947 0
M  V30 10636 H 996.01 -3.86915 -2.92441 0
M  V30 10637 H 991.889 -2.8576 -3.61749 0
M  V30 10638 H 995.433 -6.26559 -3.06707 0
M  V30 10639 H 991.33 -5.24525 -3.76224 0
M  V30 10640 H 992.098 -7.31879 -3.66463 0
M  V30 10641 N 994.761 1.15782 -1.06922 0
M  V30 10642 C 995.708 2.2038 -0.685659 0
M  V30 10643 C 996.678 1.62972 0.320816 0
M  V30 10644 O 997.863 1.8966 0.208258 0
M  V30 10645 C 995.003 3.44995 -0.084998 0
M  V30 10646 C 994.116 4.16621 -1.14242 0
M  V30 10647 C 993.251 5.28773 -0.507226 0
M  V30 10648 C 992.29 5.92209 -1.54774 0
M  V30 10649 N 991.427 6.9584 -0.935443 0
M  V30 10650 H 996.267 2.5254 -1.58201 0
M  V30 10651 H 993.804 1.24031 -0.790864 0
M  V30 10652 H 995.762 4.16254 0.280845 0
M  V30 10653 H 994.392 3.13365 0.774725 0
M  V30 10654 H 993.444 3.43903 -1.62589 0
M  V30 10655 H 994.756 4.59884 -1.93154 0
M  V30 10656 H 993.91 6.06635 -0.0887719 0
M  V30 10657 H 992.649 4.8669 0.313704 0
M  V30 10658 H 991.654 5.13063 -1.97602 0
M  V30 10659 H 992.879 6.3637 -2.37088 0
M  V30 10660 H 990.825 6.5586 -0.135339 0
M  V30 10661 H 990.742 7.37508 -1.66186 0
M  V30 10662 H 992.01 7.77611 -0.542346 0
M  V30 10663 N 996.239 0.8527 1.3254 0
M  V30 10664 C 997.202 0.300959 2.27215 0
M  V30 10665 C 998.202 -0.538235 1.51525 0
M  V30 10666 O 999.392 -0.350027 1.70647 0
M  V30 10667 C 996.524 -0.574428 3.36025 0
M  V30 10668 H 997.717 1.13655 2.77529 0
M  V30 10669 H 995.27 0.626878 1.43178 0
M  V30 10670 H 996.005 -1.43191 2.90976 0
M  V30 10671 H 995.79 0.0262265 3.92091 0
M  V30 10672 H 997.28 -0.9533 4.06573 0
M  V30 10673 N 997.718 -1.45297 0.610449 0
M  V30 10674 C 998.965 -2.02218 0.106759 0
M  V30 10675 C 999.293 -1.47849 -1.26376 0
M  V30 10676 O 998.548 -0.644402 -1.84786 0
M  V30 10677 C 998.847 -3.57394 0.0205329 0
M  V30 10678 C 998.513 -4.30928 1.32709 0
M  V30 10679 C 997.175 -4.50735 1.68498 0
M  V30 10680 C 999.527 -4.72936 2.19046 0
M  V30 10681 C 996.855 -5.09806 2.90371 0
M  V30 10682 C 999.207 -5.33355 3.40169 0
M  V30 10683 C 997.871 -5.51384 3.76207 0
M  V30 10684 H 997.141 -0.739969 0.039066 0
M  V30 10685 H 999.788 -1.74326 0.792638 0
M  V30 10686 H 998.093 -3.84581 -0.748623 0
M  V30 10687 H 999.79 -3.99144 -0.385386 0
M  V30 10688 H 996.38 -4.15827 1.03854 0
M  V30 10689 H 1000.56 -4.57365 1.92695 0
M  V30 10690 H 995.82 -5.21953 3.18395 0
M  V30 10691 H 999.994 -5.64859 4.07318 0
M  V30 10692 H 997.621 -5.96924 4.70729 0
M  V30 10693 N 999.196 -0.349774 -1.5367 0
M  V30 10694 C 1000.13 0.496338 -2.28164 0
M  V30 10695 C 1001.11 1.09737 -1.29968 0
M  V30 10696 O 1002.29 1.11759 -1.58819 0
M  V30 10697 C 999.422 1.64428 -3.0591 0
M  V30 10698 C 998.376 1.17127 -4.11661 0
M  V30 10699 C 997.702 2.40822 -4.77398 0
M  V30 10700 C 999.002 0.267293 -5.21616 0
M  V30 10701 H 1000.7 -0.125117 -2.99138 0
M  V30 10702 H 998.242 -0.0616152 -1.43868 0
M  V30 10703 H 1000.19 2.2427 -3.56765 0
M  V30 10704 H 998.919 2.29272 -2.32598 0
M  V30 10705 H 997.578 0.595634 -3.61729 0
M  V30 10706 H 997.226 3.04088 -4.00674 0
M  V30 10707 H 996.926 2.09852 -5.48849 0
M  V30 10708 H 998.45 3.01378 -5.3104 0
M  V30 10709 H 999.864 0.772734 -5.68068 0
M  V30 10710 H 998.261 0.0491991 -6.0008 0
M  V30 10711 H 999.331 -0.694892 -4.79895 0
M  V30 10712 N 1000.67 1.57404 -0.0785433 0
M  V30 10713 C 1001.91 1.95621 0.592595 0
M  V30 10714 C 1002.28 0.958429 1.66367 0
M  V30 10715 O 1003.48 1.2285 2.39084 0
M  V30 10716 C 1001.75 3.38445 1.14846 0
M  V30 10717 S 1003.31 3.98645 1.83378 0
M  V30 10718 H 1000.13 0.684063 0.193851 0
M  V30 10719 H 1002.73 1.94892 -0.154007 0
M  V30 10720 H 1001.43 4.08843 0.357179 0
M  V30 10721 H 1000.96 3.42733 1.93127 0
M  V30 10722 H 1002.98 3.86099 3.11676 0
M  V30 10723 N 1002.15 -0.195058 1.56388 0
M  V30 10724 C 1003.1 -1.24175 1.94549 0
M  V30 10725 C 1004.07 -1.45229 0.806089 0
M  V30 10726 O 1005.25 -1.58362 1.06425 0
M  V30 10727 C 1002.39 -2.58145 2.29031 0
M  V30 10728 C 1001.51 -2.44669 3.56035 0
M  V30 10729 C 1000.64 -3.71342 3.7984 0
M  V30 10730 C 999.681 -3.52699 5.0027 0
M  V30 10731 N 998.818 -4.71385 5.20328 0
M  V30 10732 H 1003.66 -0.909319 2.83788 0
M  V30 10733 H 1001.19 -0.437641 1.40439 0
M  V30 10734 H 1003.15 -3.36195 2.4704 0
M  V30 10735 H 1001.78 -2.8943 1.42933 0
M  V30 10736 H 1000.83 -1.57916 3.46073 0
M  V30 10737 H 1002.15 -2.26827 4.44242 0
M  V30 10738 H 1001.3 -4.57832 3.98088 0
M  V30 10739 H 1000.04 -3.92138 2.89964 0
M  V30 10740 H 999.045 -2.64594 4.81944 0
M  V30 10741 H 1000.27 -3.33349 5.91655 0
M  V30 10742 H 998.216 -4.92444 4.33399 0
M  V30 10743 H 998.133 -4.56368 6.02714 0
M  V30 10744 H 999.401 -5.59226 5.43035 0
M  V30 10745 N 1003.63 -1.50653 -0.462772 0
M  V30 10746 C 1004.56 -1.66286 -1.5774 0
M  V30 10747 C 1005.57 -0.544094 -1.53439 0
M  V30 10748 O 1006.76 -0.817566 -1.58676 0
M  V30 10749 C 1003.86 -1.63893 -2.96635 0
M  V30 10750 C 1003.04 -2.91939 -3.25716 0
M  V30 10751 C 1002.1 -2.82076 -4.44206 0
M  V30 10752 O 1001.12 -3.56032 -4.44106 0
M  V30 10753 N 1002.32 -1.96196 -5.4634 0
M  V30 10754 H 1005.09 -2.6243 -1.44742 0
M  V30 10755 H 1002.65 -1.48221 -0.651326 0
M  V30 10756 H 1004.64 -1.54897 -3.73884 0
M  V30 10757 H 1003.21 -0.75449 -3.03358 0
M  V30 10758 H 1002.43 -3.14998 -2.37002 0
M  V30 10759 H 1003.72 -3.7675 -3.4196 0
M  V30 10760 H 1003.12 -1.35439 -5.49247 0
M  V30 10761 H 1001.67 -1.93097 -6.2254 0
M  V30 10762 N 1005.11 0.71652 -1.4037 0
M  V30 10763 C 1006.34 1.50344 -1.41704 0
M  V30 10764 C 1006.75 1.89194 -0.0148011 0
M  V30 10765 O 1006.09 1.55916 0.971391 0
M  V30 10766 C 1006.15 2.80928 -2.2432 0
M  V30 10767 C 1005.82 2.64406 -3.72744 0
M  V30 10768 C 1006.81 2.31727 -4.65401 0
M  V30 10769 C 1004.5 2.807 -4.16549 0
M  V30 10770 C 1006.49 2.15551 -5.99847 0
M  V30 10771 C 1004.18 2.64141 -5.51065 0
M  V30 10772 C 1005.18 2.31614 -6.42529 0
M  V30 10773 O 1004.86 2.15179 -7.74566 0
M  V30 10774 H 1004.6 0.470574 -0.48532 0
M  V30 10775 H 1007.15 0.89152 -1.85043 0
M  V30 10776 H 1005.38 3.4445 -1.75759 0
M  V30 10777 H 1007.07 3.4264 -2.17607 0
M  V30 10778 H 1007.84 2.18773 -4.32855 0
M  V30 10779 H 1003.71 3.05005 -3.45677 0
M  V30 10780 H 1007.26 1.90084 -6.71203 0
M  V30 10781 H 1003.16 2.76679 -5.83197 0
M  V30 10782 H 1003.92 2.30106 -7.85489 0
M  V30 10783 N 1006.59 1.25851 0.948643 0
M  V30 10784 C 1007.52 1.0108 2.04593 0
M  V30 10785 C 1008.5 -0.0619691 1.62482 0
M  V30 10786 O 1009.68 0.0789196 1.88335 0
M  V30 10787 C 1006.81 0.529174 3.34541 0
M  V30 10788 C 1005.85 1.59337 3.95618 0
M  V30 10789 S 1006.69 3.18026 4.30836 0
M  V30 10790 C 1007.84 2.71613 5.63895 0
M  V30 10791 H 1008.08 1.93988 2.2529 0
M  V30 10792 H 1005.61 1.09448 1.08906 0
M  V30 10793 H 1007.57 0.25795 4.09689 0
M  V30 10794 H 1006.23 -0.37951 3.11799 0
M  V30 10795 H 1005.42 1.20722 4.89328 0
M  V30 10796 H 1005.02 1.81559 3.26975 0
M  V30 10797 H 1007.32 2.15612 6.42275 0
M  V30 10798 H 1008.26 3.63986 6.07387 0
M  V30 10799 H 1008.67 2.11417 5.23415 0
M  V30 10800 N 1008.06 -1.15214 1.07534 0
M  V30 10801 C 1009.01 -2.22078 0.69168 0
M  V30 10802 C 1010.01 -1.66751 -0.298382 0
M  V30 10803 O 1011.21 -1.7927 -0.161897 0
M  V30 10804 H 1007.59 -0.723347 0.205604 0
M  V30 10805 H 1009.56 -2.51716 1.60256 0
M  V30 10806 C 1008.31 -3.47534 0.107546 0
M  V30 10807 H 1007.63 -3.90429 0.860522 0
M  V30 10808 H 1009.07 -4.23821 -0.123215 0
M  V30 10809 C 1007.53 -3.16583 -1.15226 0
M  V30 10810 O 1008.06 -3.33551 -2.23845 0
M  V30 10811 N 1006.27 -2.70611 -1.05915 0
M  V30 10812 H 1005.81 -2.57004 -0.175198 0
M  V30 10813 H 1005.77 -2.50277 -1.90287 0
M  V30 10814 N 1009.54 -0.859717 -1.32086 0
M  V30 10815 C 1010.47 -0.323502 -2.31248 0
M  V30 10816 C 1011.45 0.580085 -1.59903 0
M  V30 10817 O 1012.64 0.499265 -1.87673 0
M  V30 10818 C 1009.77 0.484661 -3.43902 0
M  V30 10819 C 1008.72 -0.324933 -4.26765 0
M  V30 10820 C 1008.05 0.608281 -5.31229 0
M  V30 10821 C 1009.35 -1.55344 -4.98664 0
M  V30 10822 H 1011.04 -1.15209 -2.76346 0
M  V30 10823 H 1008.59 -0.555442 -1.32856 0
M  V30 10824 H 1010.54 0.870238 -4.12316 0
M  V30 10825 H 1009.27 1.34666 -2.97544 0
M  V30 10826 H 1007.92 -0.692328 -3.60003 0
M  V30 10827 H 1007.57 1.46727 -4.81124 0
M  V30 10828 H 1007.27 0.0705571 -5.87558 0
M  V30 10829 H 1008.8 0.990925 -6.02506 0
M  V30 10830 H 1010.21 -1.23987 -5.59732 0
M  V30 10831 H 1008.61 -2.02947 -5.64741 0
M  V30 10832 H 1009.68 -2.31192 -4.26237 0
M  V30 10833 N 1011.02 1.44971 -0.618145 0
M  V30 10834 C 1012.25 2.06228 -0.123985 0
M  V30 10835 C 1012.66 1.46166 1.20134 0
M  V30 10836 O 1012 0.574099 1.74499 0
M  V30 10837 C 1012.06 3.59413 0.0789098 0
M  V30 10838 C 1011.73 4.41869 -1.16624 0
M  V30 10839 C 1012.72 4.76177 -2.0869 0
M  V30 10840 C 1010.41 4.82453 -1.39802 0
M  V30 10841 C 1012.4 5.49938 -3.22254 0
M  V30 10842 C 1010.09 5.55965 -2.53665 0
M  V30 10843 C 1011.09 5.89626 -3.44718 0
M  V30 10844 O 1010.78 6.61644 -4.56598 0
M  V30 10845 H 1010.51 0.672274 -0.0708822 0
M  V30 10846 H 1013.06 1.87038 -0.848868 0
M  V30 10847 H 1011.29 3.77043 0.8588 0
M  V30 10848 H 1012.98 4.02478 0.52599 0
M  V30 10849 H 1013.75 4.45372 -1.92012 0
M  V30 10850 H 1009.63 4.55681 -0.698245 0
M  V30 10851 H 1013.17 5.76129 -3.93347 0
M  V30 10852 H 1009.07 5.86185 -2.70291 0
M  V30 10853 H 1009.84 6.80103 -4.55414 0
M  V30 10854 N 1012.5 0.357919 1.53482 0
M  V30 10855 C 1013.91 -0.122938 1.86295 0
M  V30 10856 C 1014.26 -1.48803 1.27875 0
M  V30 10857 O 1013.39 -2.07978 0.597828 0
M  V30 10858 C 1013.98 -0.229853 3.38019 0
M  V30 10859 C 1012.54 -0.654955 3.70658 0
M  V30 10860 C 1011.69 0.202539 2.76559 0
M  V30 10861 H 1014.64 0.576997 1.47839 0
M  V30 10862 H 1014.66 -1.05481 3.65587 0
M  V30 10863 H 1014.17 0.763825 3.80509 0
M  V30 10864 H 1012.27 -1.65714 3.33721 0
M  V30 10865 H 1012.38 -0.43488 4.77122 0
M  V30 10866 H 1010.75 -0.327388 2.52587 0
M  V30 10867 H 1011.53 1.19361 3.21882 0
M  V30 10868 N 1013.98 -1.5736 0.0868897 0
M  V30 10869 C 1015.22 -1.94341 -0.579598 0
M  V30 10870 C 1015.56 -0.968238 -1.68341 0
M  V30 10871 O 1014.83 8.29649e-05 -1.945 0
M  V30 10872 C 1015.11 -3.41497 -1.14245 0
M  V30 10873 C 1014.97 -4.49778 -0.044255 0
M  V30 10874 C 1016.29 -3.89788 -2.04336 0
M  V30 10875 H 1013.4 -0.70668 -0.20922 0
M  V30 10876 H 1016.05 -1.89359 0.15593 0
M  V30 10877 H 1014.2 -3.45873 -1.76929 0
M  V30 10878 H 1015.87 -4.57517 0.58959 0
M  V30 10879 H 1014.11 -4.293 0.623207 0
M  V30 10880 H 1014.78 -5.4992 -0.478749 0
M  V30 10881 H 1017.26 -3.87513 -1.51569 0
M  V30 10882 H 1016.13 -4.93335 -2.40648 0
M  V30 10883 H 1016.4 -3.28603 -2.95757 0
M  V30 10884 N 1015.45 0.186762 -1.56489 0
M  V30 10885 C 1016.42 1.21511 -1.94339 0
M  V30 10886 C 1017.42 1.38001 -0.82537 0
M  V30 10887 O 1018.61 1.3567 -1.09266 0
M  V30 10888 C 1015.74 2.583 -2.22472 0
M  V30 10889 H 1016.93 0.891371 -2.86347 0
M  V30 10890 H 1014.49 0.428612 -1.50308 0
M  V30 10891 H 1015.22 2.95715 -1.33129 0
M  V30 10892 H 1015.01 2.47701 -3.03951 0
M  V30 10893 H 1016.5 3.32441 -2.5273 0
M  V30 10894 N 1016.93 1.50896 0.454776 0
M  V30 10895 C 1018.35 1.38684 0.78987 0
M  V30 10896 C 1018.55 0.455587 1.96282 0
M  V30 10897 O 1017.6 -0.0957503 2.52318 0
M  V30 10898 C 1018.92 2.80381 1.08661 0
M  V30 10899 C 1020.47 2.8941 1.19209 0
M  V30 10900 C 1020.94 4.31976 1.52187 0
M  V30 10901 N 1022.43 4.35002 1.59146 0
M  V30 10902 C 1023.17 5.42326 1.862 0
M  V30 10903 N 1022.66 6.59835 2.11164 0
M  V30 10904 N 1024.46 5.29786 1.87838 0
M  V30 10905 H 1016.61 2.10006 -0.317981 0
M  V30 10906 H 1018.87 0.944636 -0.0797969 0
M  V30 10907 H 1018.58 3.50438 0.297626 0
M  V30 10908 H 1018.45 3.18634 2.01872 0
M  V30 10909 H 1020.84 2.19561 1.97173 0
M  V30 10910 H 1020.92 2.54677 0.239401 0
M  V30 10911 H 1020.56 5.02368 0.747576 0
M  V30 10912 H 1020.49 4.64208 2.48633 0
M  V30 10913 H 1022.98 3.50276 1.41828 0
M  V30 10914 H 1023.3 7.37428 2.31128 0
M  V30 10915 H 1021.64 6.62981 2.08522 0
M  V30 10916 H 1024.83 4.36974 1.67843 0
M  V30 10917 H 1025 6.13511 2.08585 0
M  V30 10918 N 1018.41 -0.709066 1.40748 0
M  V30 10919 C 1019.34 -1.83412 1.37451 0
M  V30 10920 C 1020.36 -1.60394 0.27884 0
M  V30 10921 O 1021.54 -1.70147 0.539642 0
M  V30 10922 C 1018.64 -3.19935 1.1178 0
M  V30 10923 C 1017.82 -3.70095 2.33128 0
M  V30 10924 C 1016.88 -4.85249 2.03518 0
M  V30 10925 O 1015.9 -4.97563 2.76442 0
M  V30 10926 N 1017.1 -5.7152 1.01714 0
M  V30 10927 H 1019.87 -1.86736 2.34414 0
M  V30 10928 H 1017.43 -0.890863 1.35186 0
M  V30 10929 H 1019.42 -3.94578 0.899464 0
M  V30 10930 H 1017.99 -3.11718 0.234624 0
M  V30 10931 H 1017.21 -2.8651 2.70751 0
M  V30 10932 H 1018.5 -4.00344 3.1401 0
M  V30 10933 H 1017.9 -5.64188 0.413307 0
M  V30 10934 H 1016.46 -6.46119 0.858696 0
M  V30 10935 N 1019.89 -1.26353 -0.941956 0
M  V30 10936 C 1021.31 -1.03448 -1.21534 0
M  V30 10937 C 1021.51 0.240855 -2.00055 0
M  V30 10938 O 1020.56 0.950199 -2.33939 0
M  V30 10939 C 1021.87 -2.2654 -1.97737 0
M  V30 10940 C 1023.42 -2.31433 -2.10731 0
M  V30 10941 C 1023.9 -3.54216 -2.90336 0
M  V30 10942 N 1025.39 -3.54688 -2.9791 0
M  V30 10943 C 1026.12 -4.4636 -3.59931 0
M  V30 10944 N 1025.62 -5.48319 -4.2346 0
M  V30 10945 N 1027.41 -4.34013 -3.57196 0
M  V30 10946 H 1019.56 -2.08266 -0.417005 0
M  V30 10947 H 1021.83 -0.915251 -0.247021 0
M  V30 10948 H 1021.53 -3.19299 -1.47449 0
M  V30 10949 H 1021.41 -2.30726 -2.98405 0
M  V30 10950 H 1023.79 -1.3919 -2.60212 0
M  V30 10951 H 1023.87 -2.31259 -1.09329 0
M  V30 10952 H 1023.52 -4.46788 -2.41543 0
M  V30 10953 H 1023.45 -3.51637 -3.91993 0
M  V30 10954 H 1025.94 -2.80942 -2.52745 0
M  V30 10955 H 1026.25 -6.14458 -4.6868 0
M  V30 10956 H 1024.6 -5.52177 -4.22049 0
M  V30 10957 H 1027.79 -3.53578 -3.06758 0
M  V30 10958 H 1027.96 -5.0565 -4.05244 0
M  V30 10959 N 1021.37 1.14642 -1.08144 0
M  V30 10960 C 1022.78 1.6719 -0.830923 0
M  V30 10961 C 1023.13 1.85373 0.642749 0
M  V30 10962 O 1022.25 1.56293 1.49671 0
M  V30 10963 C 1022.85 3.03697 -1.50179 0
M  V30 10964 C 1021.41 3.5329 -1.29858 0
M  V30 10965 C 1020.56 2.28828 -1.5663 0
M  V30 10966 H 1023.51 0.987441 -1.24239 0
M  V30 10967 H 1023.53 3.69023 -0.9275 0
M  V30 10968 H 1023.04 2.90431 -2.57432 0
M  V30 10969 H 1021.14 3.71783 -0.246626 0
M  V30 10970 H 1021.25 4.34231 -2.02436 0
M  V30 10971 H 1019.62 2.34769 -0.987716 0
M  V30 10972 H 1020.4 2.18141 -2.65084 0
M  V30 10973 N 1022.85 0.866709 1.31628 0
M  V30 10974 C 1024.09 0.475086 1.96437 0
M  V30 10975 C 1024.41 -0.975179 1.68865 0
M  V30 10976 O 1023.68 -1.68317 1.0023 0
M  V30 10977 H 1022.26 0.172695 0.726764 0
M  V30 10978 H 1024.93 1.10578 1.60494 0
M  V30 10979 H 1024.02 0.630123 3.05673 0
M  V30 10980 N 1024.32 -1.44642 0.625825 0
M  V30 10981 C 1025.25 -2.33397 -0.0692188 0
M  V30 10982 C 1026.23 -1.47898 -0.840241 0
M  V30 10983 O 1027.42 -1.7663 -0.807176 0
M  V30 10984 C 1024.55 -3.30888 -1.055 0
M  V30 10985 C 1023.5 -4.26164 -0.395968 0
M  V30 10986 C 1022.83 -5.13483 -1.49128 0
M  V30 10987 C 1024.13 -5.17663 0.694433 0
M  V30 10988 H 1025.82 -2.91763 0.671925 0
M  V30 10989 H 1023.37 -1.40294 0.324573 0
M  V30 10990 H 1025.32 -3.91861 -1.54993 0
M  V30 10991 H 1024.05 -2.7072 -1.82696 0
M  V30 10992 H 1022.71 -3.66516 0.0782691 0
M  V30 10993 H 1022.35 -4.49672 -2.25399 0
M  V30 10994 H 1022.05 -5.78038 -1.05573 0
M  V30 10995 H 1023.58 -5.77327 -1.98813 0
M  V30 10996 H 1024.99 -5.72602 0.282818 0
M  V30 10997 H 1023.39 -5.90793 1.05281 0
M  V30 10998 H 1024.46 -4.58994 1.56372 0
M  V30 10999 N 1025.8 -0.366053 -1.5329 0
M  V30 11000 C 1027.04 0.223558 -2.03174 0
M  V30 11001 C 1027.41 1.45955 -1.24745 0
M  V30 11002 O 1028.61 2.12481 -1.64637 0
M  V30 11003 C 1026.88 0.507899 -3.53773 0
M  V30 11004 S 1028.44 1.07111 -4.25526 0
M  V30 11005 H 1025.25 0.0650309 -0.70802 0
M  V30 11006 H 1027.86 -0.509028 -1.88757 0
M  V30 11007 H 1026.56 -0.39913 -4.08455 0
M  V30 11008 H 1026.09 1.26954 -3.72352 0
M  V30 11009 H 1028.11 2.35533 -4.36737 0
M  V30 11010 N 1027.28 1.57312 -0.0952337 0
M  V30 11011 C 1028.21 2.11059 0.893678 0
M  V30 11012 C 1029.22 1.04787 1.24594 0
M  V30 11013 O 1030.41 1.32233 1.19903 0
M  V30 11014 C 1027.51 2.57552 2.20272 0
M  V30 11015 C 1026.69 3.87661 2.02578 0
M  V30 11016 C 1025.75 4.2 3.16996 0
M  V30 11017 O 1024.77 4.89219 2.90953 0
M  V30 11018 N 1025.97 3.75414 4.42769 0
M  V30 11019 H 1028.74 2.96532 0.434632 0
M  V30 11020 H 1026.3 1.6165 0.0898661 0
M  V30 11021 H 1028.29 2.76232 2.95766 0
M  V30 11022 H 1026.86 1.7709 2.576 0
M  V30 11023 H 1026.08 3.78128 1.11413 0
M  V30 11024 H 1027.37 4.7278 1.88032 0
M  V30 11025 H 1026.77 3.1954 4.66809 0
M  V30 11026 H 1025.32 3.99249 5.15212 0
M  V30 11027 N 1028.76 -0.17846 1.56586 0
M  V30 11028 C 1030 -0.897562 1.81856 0
M  V30 11029 C 1030.34 -1.82204 0.671955 0
M  V30 11030 O 1029.61 -1.91739 -0.326535 0
M  V30 11031 C 1029.89 -1.69942 3.17477 0
M  V30 11032 C 1029.75 -0.798545 4.42655 0
M  V30 11033 C 1031.07 -2.66861 3.49962 0
M  V30 11034 H 1028.19 -0.324863 0.661539 0
M  V30 11035 H 1030.83 -0.164106 1.8929 0
M  V30 11036 H 1028.98 -2.32471 3.11271 0
M  V30 11037 H 1030.65 -0.18668 4.60922 0
M  V30 11038 H 1028.89 -0.106181 4.3367 0
M  V30 11039 H 1029.56 -1.39496 5.34083 0
M  V30 11040 H 1032.04 -2.1446 3.56576 0
M  V30 11041 H 1030.92 -3.20037 4.45946 0
M  V30 11042 H 1031.18 -3.46715 2.74301 0
M  V30 11043 N 1030.24 -1.51135 -0.446768 0
M  V30 11044 C 1031.48 -1.63336 -1.19698 0
M  V30 11045 C 1031.81 -0.345099 -1.91414 0
M  V30 11046 O 1031.07 0.670365 -1.8386 0
M  V30 11047 C 1031.36 -2.78034 -2.2457 0
M  V30 11048 C 1031.03 -4.17652 -1.69934 0
M  V30 11049 C 1029.69 -4.55636 -1.54756 0
M  V30 11050 C 1032.04 -5.04813 -1.29665 0
M  V30 11051 C 1029.37 -5.78496 -0.977689 0
M  V30 11052 C 1031.72 -6.28244 -0.741112 0
M  V30 11053 C 1030.39 -6.65009 -0.576156 0
M  V30 11054 H 1029.66 -0.597689 -0.438006 0
M  V30 11055 H 1032.31 -1.85141 -0.48939 0
M  V30 11056 H 1030.61 -2.50413 -3.01331 0
M  V30 11057 H 1032.31 -2.84675 -2.8242 0
M  V30 11058 H 1028.9 -3.87699 -1.82722 0
M  V30 11059 H 1033.08 -4.76081 -1.40216 0
M  V30 11060 H 1028.34 -6.05636 -0.837563 0
M  V30 11061 H 1032.51 -6.95129 -0.42053 0
M  V30 11062 H 1030.14 -7.60085 -0.132443 0
M  V30 11063 N 1031.71 0.701592 -1.41122 0
M  V30 11064 C 1032.68 1.79733 -1.42227 0
M  V30 11065 C 1033.68 1.57708 -0.313831 0
M  V30 11066 O 1034.87 1.64492 -0.573423 0
M  V30 11067 C 1032 3.18024 -1.22775 0
M  V30 11068 H 1033.19 1.80148 -2.39764 0
M  V30 11069 H 1030.74 0.908624 -1.27176 0
M  V30 11070 H 1031.48 3.23252 -0.260552 0
M  V30 11071 H 1031.26 3.35411 -2.0308 0
M  V30 11072 H 1032.75 3.98021 -1.2637 0
M  V30 11073 N 1033.19 1.2685 0.935242 0
M  V30 11074 C 1034.47 1.03483 1.65984 0
M  V30 11075 C 1034.85 -0.432859 2.06614 0
M  V30 11076 O 1034.2 -1.4145 1.79455 0
M  V30 11077 C 1034.41 1.98924 2.86758 0
M  V30 11078 C 1035.75 2.2787 3.58274 0
M  V30 11079 O 1036.78 1.96838 2.96873 0
M  V30 11080 O 1035.64 2.80734 4.68882 0
M  V30 11081 H 1032.73 0.393932 0.72715 0
M  V30 11082 H 1035.28 1.38085 0.986445 0
M  V30 11083 H 1034.05 2.9794 2.53668 0
M  V30 11084 H 1033.67 1.64839 3.6182 0
M  V30 11085 N 1034.67 -1.14067 1.0875 0
M  V30 11086 C 1035.63 -2.17453 0.724341 0
M  V30 11087 C 1036.63 -1.58959 -0.242614 0
M  V30 11088 O 1037.82 -1.74186 -0.0217008 0
M  V30 11089 C 1034.96 -3.40828 0.0700236 0
M  V30 11090 H 1036.15 -2.51094 1.63987 0
M  V30 11091 H 1033.7 -1.28775 0.885813 0
M  V30 11092 H 1034.44 -3.1277 -0.857061 0
M  V30 11093 H 1034.22 -3.84551 0.76569 0
M  V30 11094 H 1035.71 -4.17258 -0.168905 0
M  V30 11095 N 1036.15 -0.873678 -1.31166 0
M  V30 11096 C 1037.38 -0.501043 -2.00742 0
M  V30 11097 C 1037.79 0.907477 -1.65561 0
M  V30 11098 O 1037.15 1.59507 -0.886771 0
M  V30 11099 C 1037.2 -0.652877 -3.55556 0
M  V30 11100 O 1036.92 -2.00593 -3.89479 0
M  V30 11101 C 1038.42 -0.281742 -4.42404 0
M  V30 11102 H 1035.64 -0.194829 -0.642092 0
M  V30 11103 H 1038.19 -1.17587 -1.67313 0
M  V30 11104 H 1036.34 -0.0255627 -3.87392 0
M  V30 11105 H 1036.75 -2.01638 -4.84193 0
M  V30 11106 H 1038.23 -0.43892 -5.50252 0
M  V30 11107 H 1038.71 0.779389 -4.32229 0
M  V30 11108 H 1039.31 -0.88491 -4.15992 0
M  V30 11109 N 1037.63 1.44308 -0.633487 0
M  V30 11110 C 1039.04 1.85387 -0.221009 0
M  V30 11111 C 1039.39 1.5301 1.22811 0
M  V30 11112 O 1038.51 0.969325 1.93476 0
M  V30 11113 C 1039.11 3.36497 -0.394331 0
M  V30 11114 C 1037.67 3.76382 -0.0363405 0
M  V30 11115 C 1036.81 2.68146 -0.706598 0
M  V30 11116 H 1039.77 1.34741 -0.83849 0
M  V30 11117 H 1039.79 3.78735 0.366026 0
M  V30 11118 H 1039.3 3.60031 -1.44911 0
M  V30 11119 H 1037.4 3.58463 1.01661 0
M  V30 11120 H 1037.51 4.77 -0.448045 0
M  V30 11121 H 1035.88 2.54306 -0.14168 0
M  V30 11122 H 1036.66 2.94512 -1.76401 0
M  V30 11123 N 1039.1 0.374177 1.53094 0
M  V30 11124 C 1040.33 -0.213325 2.05797 0
M  V30 11125 C 1040.75 -1.41753 1.24706 0
M  V30 11126 O 1040.1 -1.80183 0.289868 0
M  V30 11127 C 1040.16 -0.598367 3.56513 0
M  V30 11128 O 1039.88 0.557983 4.34532 0
M  V30 11129 C 1041.38 -1.24334 4.25507 0
M  V30 11130 H 1038.6 -0.0357398 0.670048 0
M  V30 11131 H 1041.14 0.535035 1.97377 0
M  V30 11132 H 1039.3 -1.29663 3.65056 0
M  V30 11133 H 1039.71 0.244911 5.23928 0
M  V30 11134 H 1041.18 -1.46325 5.32253 0
M  V30 11135 H 1041.66 -2.20622 3.79766 0
M  V30 11136 H 1042.27 -0.586269 4.2124 0
M  V30 11137 N 1040.58 -1.57259 0.103575 0
M  V30 11138 C 1041.83 -1.94272 -0.557024 0
M  V30 11139 C 1042.15 -0.986739 -1.68192 0
M  V30 11140 O 1041.42 -0.0402818 -1.95859 0
M  V30 11141 H 1040 -0.717237 -0.208757 0
M  V30 11142 H 1042.66 -1.94167 0.168898 0
M  V30 11143 H 1041.76 -2.96914 -0.961691 0
M  V30 11144 N 1042.06 0.170153 -1.56679 0
M  V30 11145 C 1043.31 0.883211 -1.83224 0
M  V30 11146 C 1043.66 1.7982 -0.68429 0
M  V30 11147 O 1042.95 1.88922 0.319204 0
M  V30 11148 C 1043.15 1.71402 -3.13618 0
M  V30 11149 C 1042.98 0.880967 -4.40986 0
M  V30 11150 C 1041.75 0.555594 -5.02236 0
M  V30 11151 C 1043.95 0.221986 -5.13821 0
M  V30 11152 N 1041.93 -0.293479 -6.13198 0
M  V30 11153 C 1043.3 -0.488202 -6.18075 0
M  V30 11154 C 1045.35 0.14027 -4.97702 0
M  V30 11155 C 1044.06 -1.27236 -7.07957 0
M  V30 11156 C 1046.08 -0.630556 -5.88029 0
M  V30 11157 C 1045.44 -1.3291 -6.91747 0
M  V30 11158 H 1041.54 0.301769 -0.721429 0
M  V30 11159 H 1044.13 0.150113 -1.9412 0
M  V30 11160 H 1042.3 2.41853 -3.03911 0
M  V30 11161 H 1044.03 2.36847 -3.28155 0
M  V30 11162 H 1040.79 0.885952 -4.6524 0
M  V30 11163 H 1041.21 -0.708359 -6.73284 0
M  V30 11164 H 1045.85 0.665983 -4.17522 0
M  V30 11165 H 1043.57 -1.80941 -7.87582 0
M  V30 11166 H 1047.16 -0.695468 -5.77628 0
M  V30 11167 H 1046.04 -1.916 -7.60433 0
M  V30 11168 N 1043.54 1.5137 0.438746 0
M  V30 11169 C 1044.79 1.63645 1.18595 0
M  V30 11170 C 1045.11 0.354241 1.91755 0
M  V30 11171 O 1044.38 -0.629838 1.85499 0
M  V30 11172 H 1042.96 0.603103 0.440767 0
M  V30 11173 H 1045.62 1.88293 0.503159 0
M  V30 11174 H 1044.72 2.46342 1.9163 0
M  V30 11175 N 1045.02 -0.694098 1.41492 0
M  V30 11176 C 1045.95 -1.82042 1.46229 0
M  V30 11177 C 1046.93 -1.67047 0.320803 0
M  V30 11178 O 1048.11 -1.86758 0.53245 0
M  V30 11179 C 1045.24 -3.2019 1.34519 0
M  V30 11180 C 1044.2 -3.49892 2.46495 0
M  V30 11181 C 1043.52 -4.87411 2.1985 0
M  V30 11182 C 1044.82 -3.4872 3.88834 0
M  V30 11183 H 1046.52 -1.78335 2.40493 0
M  V30 11184 H 1044.06 -0.856566 1.15754 0
M  V30 11185 H 1046.02 -3.98699 1.36445 0
M  V30 11186 H 1044.74 -3.24527 0.367406 0
M  V30 11187 H 1043.4 -2.73734 2.43854 0
M  V30 11188 H 1043.05 -4.88375 1.20411 0
M  V30 11189 H 1042.75 -5.08248 2.94885 0
M  V30 11190 H 1044.27 -5.68228 2.23494 0
M  V30 11191 H 1045.68 -4.1723 3.93182 0
M  V30 11192 H 1044.08 -3.81089 4.63564 0
M  V30 11193 H 1045.15 -2.47665 4.16881 0
M  V30 11194 N 1046.49 -1.27344 -0.928501 0
M  V30 11195 C 1047.46 -1.10043 -2.01055 0
M  V30 11196 C 1048.46 -0.0446793 -1.60738 0
M  V30 11197 O 1049.65 -0.289202 -1.71783 0
M  V30 11198 C 1046.78 -0.676559 -3.34119 0
M  V30 11199 H 1047.97 -2.06126 -2.17835 0
M  V30 11200 H 1045.53 -1.10121 -1.10919 0
M  V30 11201 H 1046.26 0.285697 -3.23039 0
M  V30 11202 H 1046.05 -1.43903 -3.64739 0
M  V30 11203 H 1047.54 -0.577725 -4.13584 0
M  V30 11204 N 1047.97 1.13488 -1.09353 0
M  V30 11205 C 1049.22 1.841 -0.82401 0
M  V30 11206 C 1049.53 1.84393 0.652586 0
M  V30 11207 O 1050.74 2.5089 1.03762 0
M  V30 11208 C 1049.2 3.30523 -1.42418 0
M  V30 11209 C 1048.8 3.38621 -2.93326 0
M  V30 11210 C 1050.55 4.06182 -1.23356 0
M  V30 11211 C 1048.46 4.79311 -3.46432 0
M  V30 11212 H 1047.39 0.68974 -0.304589 0
M  V30 11213 H 1050.04 1.27866 -1.31615 0
M  V30 11214 H 1048.42 3.86555 -0.859727 0
M  V30 11215 H 1049.59 2.92587 -3.5599 0
M  V30 11216 H 1047.91 2.76426 -3.11412 0
M  V30 11217 H 1050.5 5.10047 -1.60488 0
M  V30 11218 H 1050.85 4.15936 -0.174152 0
M  V30 11219 H 1051.38 3.56477 -1.76547 0
M  V30 11220 H 1048.12 4.74748 -4.5199 0
M  V30 11221 H 1047.64 5.25842 -2.8853 0
M  V30 11222 H 1049.32 5.48227 -3.43593 0
M  V30 11223 N 1049.45 0.880621 1.30701 0
M  V30 11224 C 1050.7 0.495894 1.95922 0
M  V30 11225 C 1051.02 -0.957214 1.69889 0
M  V30 11226 O 1050.29 -1.67245 1.0201 0
M  V30 11227 H 1048.87 0.180394 0.724891 0
M  V30 11228 H 1051.53 1.12274 1.59313 0
M  V30 11229 H 1050.63 0.662508 3.04987 0
M  V30 11230 N 1050.93 -1.4397 0.641131 0
M  V30 11231 C 1051.88 -2.2786 -0.079879 0
M  V30 11232 C 1052.86 -1.39227 -0.80651 0
M  V30 11233 O 1054.06 -1.62956 -0.690969 0
M  V30 11234 C 1051.18 -3.26722 -1.05394 0
M  V30 11235 C 1050.27 -4.22842 -0.326411 0
M  V30 11236 N 1050.66 -5.016 0.650464 0
M  V30 11237 C 1048.96 -4.42349 -0.569507 0
M  V30 11238 C 1049.66 -5.71563 1.08121 0
M  V30 11239 N 1048.64 -5.41991 0.417932 0
M  V30 11240 H 1052.44 -2.86163 0.669906 0
M  V30 11241 H 1049.95 -1.55528 0.467433 0
M  V30 11242 H 1051.95 -3.85588 -1.58517 0
M  V30 11243 H 1050.61 -2.69979 -1.80392 0
M  V30 11244 H 1051.62 -5.07581 1.0287 0
M  V30 11245 H 1048.3 -3.96693 -1.30159 0
M  V30 11246 H 1049.69 -6.44805 1.88883 0
M  V30 11247 N 1052.41 -0.382291 -1.52893 0
M  V30 11248 C 1053.34 0.491199 -2.23875 0
M  V30 11249 C 1054.35 1.03249 -1.25871 0
M  V30 11250 O 1055.54 0.936016 -1.5199 0
M  V30 11251 C 1052.64 1.6927 -2.936 0
M  V30 11252 C 1051.81 1.28 -4.18252 0
M  V30 11253 C 1050.87 2.34541 -4.71038 0
M  V30 11254 O 1049.9 1.96239 -5.34302 0
M  V30 11255 N 1051.1 3.6636 -4.50289 0
M  V30 11256 H 1053.87 -0.116897 -2.99472 0
M  V30 11257 H 1051.43 -0.208296 -1.60554 0
M  V30 11258 H 1053.42 2.40054 -3.25816 0
M  V30 11259 H 1051.99 2.20729 -2.21354 0
M  V30 11260 H 1051.21 0.40133 -3.92152 0
M  V30 11261 H 1052.5 0.98082 -4.99257 0
M  V30 11262 H 1051.9 4.00245 -3.99775 0
M  V30 11263 H 1050.45 4.332 -4.87013 0
M  V30 11264 N 1053.89 1.57202 -0.111913 0
M  V30 11265 C 1055.3 1.57713 0.244702 0
M  V30 11266 C 1055.5 1.12419 1.67225 0
M  V30 11267 O 1054.56 0.808329 2.39212 0
M  V30 11268 C 1055.87 3.00695 0.0178289 0
M  V30 11269 C 1057.42 3.12887 0.0842781 0
M  V30 11270 C 1057.89 4.57856 -0.114812 0
M  V30 11271 N 1059.38 4.6316 -0.0605423 0
M  V30 11272 C 1060.12 5.73086 -0.189594 0
M  V30 11273 N 1059.62 6.91787 -0.37442 0
M  V30 11274 N 1061.41 5.6195 -0.12967 0
M  V30 11275 H 1053.56 1.84947 -1.04443 0
M  V30 11276 H 1055.82 0.854418 -0.4107 0
M  V30 11277 H 1055.53 3.38093 -0.968802 0
M  V30 11278 H 1055.4 3.69611 0.752815 0
M  V30 11279 H 1057.79 2.7535 1.06143 0
M  V30 11280 H 1057.87 2.46528 -0.682474 0
M  V30 11281 H 1057.51 4.9609 -1.0889 0
M  V30 11282 H 1057.44 5.22297 0.671839 0
M  V30 11283 H 1059.94 3.77817 0.0790856 0
M  V30 11284 H 1060.25 7.71406 -0.463948 0
M  V30 11285 H 1058.59 6.93788 -0.410303 0
M  V30 11286 H 1061.78 4.68098 0.0137115 0
M  V30 11287 H 1061.96 6.47578 -0.233688 0
M  V30 11288 N 1055.36 -0.161842 1.56767 0
M  V30 11289 C 1056.3 -1.22927 1.9226 0
M  V30 11290 C 1057.27 -1.42309 0.786562 0
M  V30 11291 O 1058.46 -1.57163 1.04078 0
M  V30 11292 C 1055.59 -2.59069 2.18177 0
M  V30 11293 C 1054.63 -2.56368 3.40849 0
M  V30 11294 S 1055.46 -2.04518 4.94907 0
M  V30 11295 C 1056.62 -3.42418 5.23928 0
M  V30 11296 H 1056.85 -0.926377 2.82499 0
M  V30 11297 H 1054.39 -0.366822 1.49979 0
M  V30 11298 H 1056.34 -3.37421 2.33789 0
M  V30 11299 H 1055.01 -2.86554 1.28629 0
M  V30 11300 H 1054.2 -3.56551 3.56213 0
M  V30 11301 H 1053.8 -1.86116 3.24402 0
M  V30 11302 H 1056.09 -4.38461 5.16486 0
M  V30 11303 H 1057.04 -3.3192 6.25487 0
M  V30 11304 H 1057.44 -3.38868 4.51474 0
M  V30 11305 N 1056.84 -1.516 -0.430713 0
M  V30 11306 C 1058.26 -1.39923 -0.767706 0
M  V30 11307 C 1058.46 -0.486756 -1.95532 0
M  V30 11308 O 1057.51 0.0555965 -2.52439 0
M  V30 11309 C 1058.83 -2.82074 -1.04187 0
M  V30 11310 C 1060.37 -2.9127 -1.1459 0
M  V30 11311 C 1060.85 -4.34342 -1.45295 0
M  V30 11312 N 1062.34 -4.37479 -1.52206 0
M  V30 11313 C 1063.08 -5.45219 -1.77549 0
M  V30 11314 N 1062.57 -6.6311 -2.0064 0
M  V30 11315 N 1064.36 -5.32707 -1.79386 0
M  V30 11316 H 1056.52 -2.09474 0.351351 0
M  V30 11317 H 1058.78 -0.943247 0.0948151 0
M  V30 11318 H 1058.48 -3.50868 -0.241837 0
M  V30 11319 H 1058.36 -3.21805 -1.96777 0
M  V30 11320 H 1060.75 -2.2267 -1.93655 0
M  V30 11321 H 1060.83 -2.55026 -0.198854 0
M  V30 11322 H 1060.47 -5.03494 -0.667559 0
M  V30 11323 H 1060.4 -4.68105 -2.41217 0
M  V30 11324 H 1062.89 -3.52488 -1.36237 0
M  V30 11325 H 1063.2 -7.41012 -2.19366 0
M  V30 11326 H 1061.55 -6.66214 -1.97948 0
M  V30 11327 H 1064.74 -4.39589 -1.60869 0
M  V30 11328 H 1064.91 -6.16752 -1.98799 0
M  V30 11329 N 1058.32 0.686584 -1.41858 0
M  V30 11330 C 1059.57 1.44379 -1.41418 0
M  V30 11331 C 1059.89 1.94981 -0.0273696 0
M  V30 11332 O 1059.16 1.72296 0.932248 0
M  V30 11333 H 1057.74 0.53574 -0.520568 0
M  V30 11334 H 1060.4 0.812056 -1.77177 0
M  V30 11335 H 1059.5 2.30258 -2.10684 0
M  V30 11336 N 1059.8 1.27835 0.921735 0
M  V30 11337 C 1061.03 1.17352 1.704 0
M  V30 11338 C 1061.44 -0.268892 1.86875 0
M  V30 11339 O 1060.8 -1.18253 1.39005 0
M  V30 11340 C 1060.85 1.85889 3.10045 0
M  V30 11341 O 1060.57 3.24495 2.94338 0
M  V30 11342 C 1062.07 1.81607 4.04393 0
M  V30 11343 H 1059.29 0.40773 0.532914 0
M  V30 11344 H 1061.83 1.68815 1.15419 0
M  V30 11345 H 1059.99 1.38316 3.61867 0
M  V30 11346 H 1060.4 3.58705 3.82663 0
M  V30 11347 H 1061.88 2.34165 4.99871 0
M  V30 11348 H 1062.35 0.786697 4.32097 0
M  V30 11349 H 1062.96 2.28822 3.58498 0
M  V30 11350 N 1061.28 -1.12907 1.09954 0
M  V30 11351 C 1062.52 -1.84306 0.838912 0
M  V30 11352 C 1062.85 -1.83825 -0.635508 0
M  V30 11353 O 1062.11 -1.27556 -1.48418 0
M  V30 11354 C 1062.4 -3.31885 1.32616 0
M  V30 11355 C 1062.07 -3.52542 2.81114 0
M  V30 11356 C 1060.73 -3.57888 3.21667 0
M  V30 11357 C 1063.08 -3.60065 3.76833 0
M  V30 11358 C 1060.41 -3.68296 4.567 0
M  V30 11359 C 1062.76 -3.72001 5.11662 0
M  V30 11360 C 1061.43 -3.75602 5.51797 0
M  V30 11361 H 1060.7 -0.674422 0.30698 0
M  V30 11362 H 1063.35 -1.33261 1.37527 0
M  V30 11363 H 1061.65 -3.85318 0.709719 0
M  V30 11364 H 1063.35 -3.85588 1.10105 0
M  V30 11365 H 1059.94 -3.4904 2.48735 0
M  V30 11366 H 1064.12 -3.55209 3.46612 0
M  V30 11367 H 1059.38 -3.69352 4.87226 0
M  V30 11368 H 1063.55 -3.76765 5.8568 0
M  V30 11369 H 1061.18 -3.83419 6.56425 0
M  V30 11370 N 1062.75 -0.88754 -1.30232 0
M  V30 11371 C 1064 -0.508031 -1.96334 0
M  V30 11372 C 1064.33 0.940905 -1.69884 0
M  V30 11373 O 1063.61 1.66523 -1.005 0
M  V30 11374 C 1063.89 -0.786566 -3.51405 0
M  V30 11375 C 1063.74 -2.28632 -3.8736 0
M  V30 11376 C 1065.06 -0.264803 -4.39303 0
M  V30 11377 H 1062.18 -0.186051 -0.71313 0
M  V30 11378 H 1064.82 -1.112 -1.5406 0
M  V30 11379 H 1062.97 -0.272523 -3.87543 0
M  V30 11380 H 1064.65 -2.86896 -3.61231 0
M  V30 11381 H 1062.89 -2.75194 -3.35337 0
M  V30 11382 H 1063.56 -2.43181 -4.95547 0
M  V30 11383 H 1066.04 -0.704809 -4.10087 0
M  V30 11384 H 1064.91 -0.488998 -5.46717 0
M  V30 11385 H 1065.17 0.834055 -4.34161 0
M  V30 11386 N 1064.23 1.43628 -0.648757 0
M  V30 11387 C 1065.2 2.29172 0.0360713 0
M  V30 11388 C 1066.2 1.41974 0.754976 0
M  V30 11389 O 1067.39 1.63654 0.5969 0
M  V30 11390 C 1064.52 3.23942 1.0618 0
M  V30 11391 H 1065.71 2.91214 -0.716544 0
M  V30 11392 H 1063.26 1.50833 -0.409759 0
M  V30 11393 H 1064 2.66786 1.8438 0
M  V30 11394 H 1063.78 3.88223 0.550016 0
M  V30 11395 H 1065.27 3.8816 1.54019 0
M  V30 11396 N 1065.71 0.390394 1.52688 0
M  V30 11397 C 1067.12 -0.083394 1.86514 0
M  V30 11398 C 1067.47 -1.46057 1.31003 0
M  V30 11399 O 1066.6 -2.06663 0.641809 0
M  V30 11400 C 1067.19 -0.158102 3.38431 0
M  V30 11401 C 1065.75 -0.576186 3.71964 0
M  V30 11402 C 1064.9 0.261156 2.76068 0
M  V30 11403 H 1067.85 0.608226 1.46582 0
M  V30 11404 H 1067.87 -0.977023 3.67742 0
M  V30 11405 H 1067.38 0.844365 3.78803 0
M  V30 11406 H 1065.48 -1.58598 3.37161 0
M  V30 11407 H 1065.6 -0.333577 4.77937 0
M  V30 11408 H 1063.96 -0.273737 2.53225 0
M  V30 11409 H 1064.74 1.26162 3.19277 0
M  V30 11410 N 1067.19 -1.57141 0.120249 0
M  V30 11411 C 1068.12 -2.18398 -0.826112 0
M  V30 11412 C 1069.1 -1.12439 -1.27638 0
M  V30 11413 O 1070.28 -1.40679 -1.33877 0
M  V30 11414 C 1067.41 -2.78438 -2.0758 0
M  V30 11415 C 1066.37 -3.89991 -1.76327 0
M  V30 11416 C 1065.69 -4.36844 -3.08336 0
M  V30 11417 C 1066.99 -5.12031 -1.03062 0
M  V30 11418 H 1068.69 -2.97731 -0.315656 0
M  V30 11419 H 1066.23 -1.43213 -0.150387 0
M  V30 11420 H 1068.19 -3.19951 -2.74243 0
M  V30 11421 H 1066.91 -1.96396 -2.60953 0
M  V30 11422 H 1065.57 -3.49055 -1.12053 0
M  V30 11423 H 1065.22 -3.51659 -3.59646 0
M  V30 11424 H 1064.92 -5.1207 -2.88199 0
M  V30 11425 H 1066.44 -4.81009 -3.76116 0
M  V30 11426 H 1067.86 -5.50555 -1.59881 0
M  V30 11427 H 1066.25 -5.92848 -0.930146 0
M  V30 11428 H 1067.32 -4.84897 -0.017582 0
M  V30 11429 N 1068.67 0.153526 -1.5685 0
M  V30 11430 C 1070.08 0.714247 -1.72498 0
M  V30 11431 C 1070.43 1.81968 -0.733621 0
M  V30 11432 O 1069.55 2.16163 0.10118 0
M  V30 11433 C 1070.15 1.30238 -3.12767 0
M  V30 11434 C 1068.71 1.80974 -3.30038 0
M  V30 11435 C 1067.85 0.695638 -2.68433 0
M  V30 11436 H 1070.81 -0.0720733 -1.58536 0
M  V30 11437 H 1070.83 2.17217 -3.12405 0
M  V30 11438 H 1070.34 0.497605 -3.84897 0
M  V30 11439 H 1068.44 2.64039 -2.62895 0
M  V30 11440 H 1068.55 1.94294 -4.37934 0
M  V30 11441 H 1066.92 1.12061 -2.28723 0
M  V30 11442 H 1067.7 -0.0975885 -3.43161 0
M  V30 11443 N 1070.14 1.51827 0.422667 0
M  V30 11444 C 1071.39 1.6445 1.16786 0
M  V30 11445 C 1071.71 0.373792 1.91995 0
M  V30 11446 O 1072.91 0.379621 2.68833 0
M  V30 11447 C 1071.37 2.90488 2.12473 0
M  V30 11448 C 1070.98 4.24617 1.42844 0
M  V30 11449 C 1072.72 3.12472 2.87335 0
M  V30 11450 C 1070.63 5.41791 2.371 0
M  V30 11451 H 1069.56 0.612561 0.439641 0
M  V30 11452 H 1072.21 1.78305 0.433534 0
M  V30 11453 H 1070.59 2.703 2.89402 0
M  V30 11454 H 1071.76 4.55239 0.71372 0
M  V30 11455 H 1070.08 4.08628 0.800769 0
M  V30 11456 H 1072.68 3.9719 3.57973 0
M  V30 11457 H 1073.02 2.26148 3.49518 0
M  V30 11458 H 1073.55 3.33069 2.17509 0
M  V30 11459 H 1070.29 6.3042 1.79584 0
M  V30 11460 H 1069.81 5.15526 3.06583 0
M  V30 11461 H 1071.49 5.74329 2.97918 0
M  V30 11462 N 1071.62 -0.679052 1.4222 0
M  V30 11463 C 1072.57 -1.78522 1.41824 0
M  V30 11464 C 1073.56 -1.58262 0.290179 0
M  V30 11465 O 1074.75 -1.68813 0.532092 0
M  V30 11466 C 1071.88 -3.16952 1.31895 0
M  V30 11467 C 1070.96 -3.42849 2.4963 0
M  V30 11468 N 1071.35 -3.39354 3.75063 0
M  V30 11469 C 1069.65 -3.73468 2.43799 0
M  V30 11470 C 1070.35 -3.64617 4.53243 0
M  V30 11471 N 1069.33 -3.85174 3.83591 0
M  V30 11472 H 1073.13 -1.74206 2.36705 0
M  V30 11473 H 1070.65 -0.879719 1.36509 0
M  V30 11474 H 1072.64 -3.96214 1.29693 0
M  V30 11475 H 1071.3 -3.22467 0.380127 0
M  V30 11476 H 1072.31 -3.19354 4.07718 0
M  V30 11477 H 1068.99 -3.86254 1.58474 0
M  V30 11478 H 1070.38 -3.67912 5.62219 0
M  V30 11479 N 1073.1 -1.28322 -0.914942 0
M  V30 11480 C 1074.33 -1.18254 -1.69775 0
M  V30 11481 C 1074.74 0.258978 -1.87015 0
M  V30 11482 O 1074.1 1.17514 -1.3963 0
M  V30 11483 C 1074.15 -1.8753 -3.09054 0
M  V30 11484 O 1073.87 -3.26051 -2.92613 0
M  V30 11485 C 1075.37 -1.83749 -4.03424 0
M  V30 11486 H 1072.59 -0.41055 -0.530744 0
M  V30 11487 H 1075.14 -1.69425 -1.14523 0
M  V30 11488 H 1073.29 -1.40233 -3.61128 0
M  V30 11489 H 1073.71 -3.60729 -3.80756 0
M  V30 11490 H 1075.18 -2.36813 -4.98622 0
M  V30 11491 H 1075.66 -0.809601 -4.31674 0
M  V30 11492 H 1076.26 -2.3072 -3.57279 0
M  V30 11493 N 1074.58 1.12322 -1.10551 0
M  V30 11494 C 1075.54 2.16273 -0.758844 0
M  V30 11495 C 1076.54 1.59325 0.217294 0
M  V30 11496 O 1077.73 1.74199 -0.00601346 0
M  V30 11497 C 1074.86 3.40674 -0.124238 0
M  V30 11498 H 1076.06 2.48454 -1.6796 0
M  V30 11499 H 1073.61 1.2735 -0.906188 0
M  V30 11500 H 1074.34 3.14094 0.807194 0
M  V30 11501 H 1074.13 3.83284 -0.826772 0
M  V30 11502 H 1075.62 4.17474 0.102502 0
M  V30 11503 N 1076.06 0.894434 1.2976 0
M  V30 11504 C 1076.97 0.372622 2.31622 0
M  V30 11505 C 1077.98 -0.52996 1.65733 0
M  V30 11506 O 1079.16 -0.420807 1.96955 0
M  V30 11507 C 1076.22 -0.396076 3.4443 0
M  V30 11508 C 1075.28 0.537394 4.25923 0
M  V30 11509 C 1074.52 -0.194713 5.33345 0
M  V30 11510 O 1074.74 -1.41943 5.52457 0
M  V30 11511 O 1073.67 0.460055 6.00139 0
M  V30 11512 H 1077.5 1.21756 2.78225 0
M  V30 11513 H 1075.09 0.65858 1.34101 0
M  V30 11514 H 1076.97 -0.830962 4.13126 0
M  V30 11515 H 1075.64 -1.21716 2.99945 0
M  V30 11516 H 1074.55 1.02129 3.5989 0
M  V30 11517 H 1075.88 1.32475 4.74037 0
M  V30 11518 N 1077.53 -1.43282 0.656365 0
M  V30 11519 C 1078.46 -2.33492 -0.0196962 0
M  V30 11520 C 1079.45 -1.49647 -0.80868 0
M  V30 11521 O 1080.63 -1.78303 -0.769529 0
M  V30 11522 C 1077.76 -3.33052 -0.984574 0
M  V30 11523 C 1076.71 -4.26908 -0.305483 0
M  V30 11524 C 1076.04 -5.16531 -1.38202 0
M  V30 11525 C 1077.34 -5.16073 0.804081 0
M  V30 11526 H 1079.03 -2.90272 0.733661 0
M  V30 11527 H 1076.58 -1.39574 0.354259 0
M  V30 11528 H 1078.53 -3.9506 -1.46647 0
M  V30 11529 H 1077.26 -2.74535 -1.76913 0
M  V30 11530 H 1075.92 -3.66268 0.155995 0
M  V30 11531 H 1075.56 -4.54351 -2.1581 0
M  V30 11532 H 1075.26 -5.80148 -0.932878 0
M  V30 11533 H 1076.79 -5.81414 -1.86522 0
M  V30 11534 H 1078.2 -5.71873 0.404212 0
M  V30 11535 H 1076.6 -5.88427 1.17789 0
M  V30 11536 H 1077.67 -4.55574 1.66073 0
M  V30 11537 N 1079.01 -0.398486 -1.52479 0
M  V30 11538 C 1079.94 0.423498 -2.29627 0
M  V30 11539 C 1080.92 1.05547 -1.33394 0
M  V30 11540 O 1082.11 1.0665 -1.62294 0
M  V30 11541 C 1079.24 1.54612 -3.10986 0
M  V30 11542 C 1078.19 1.03971 -4.15179 0
M  V30 11543 C 1077.52 2.25512 -4.84818 0
M  V30 11544 C 1078.82 0.10121 -5.22202 0
M  V30 11545 H 1080.51 -0.220222 -2.98589 0
M  V30 11546 H 1078.06 -0.107355 -1.43599 0
M  V30 11547 H 1080.01 2.12806 -3.63719 0
M  V30 11548 H 1078.74 2.21756 -2.39774 0
M  V30 11549 H 1077.4 0.480251 -3.63441 0
M  V30 11550 H 1077.04 2.91187 -4.10145 0
M  V30 11551 H 1076.74 1.92285 -5.55248 0
M  V30 11552 H 1078.27 2.84331 -5.40359 0
M  V30 11553 H 1079.68 0.591617 -5.70239 0
M  V30 11554 H 1078.08 -0.141737 -5.99933 0
M  V30 11555 H 1079.15 -0.847216 -4.77441 0
M  V30 11556 N 1080.49 1.57075 -0.12858 0
M  V30 11557 C 1081.45 2.14643 0.803813 0
M  V30 11558 C 1082.45 1.08363 1.18803 0
M  V30 11559 O 1083.64 1.34093 1.11197 0
M  V30 11560 C 1080.78 2.6945 2.08829 0
M  V30 11561 H 1081.97 2.98362 0.303347 0
M  V30 11562 H 1079.52 1.55833 0.120735 0
M  V30 11563 H 1080.26 1.89345 2.63285 0
M  V30 11564 H 1080.04 3.47187 1.82218 0
M  V30 11565 H 1081.53 3.13865 2.7546 0
M  V30 11566 N 1081.97 -0.145205 1.5693 0
M  V30 11567 C 1082.93 -1.16316 1.97492 0
M  V30 11568 C 1083.93 -1.35764 0.861668 0
M  V30 11569 O 1085.12 -1.32726 1.12825 0
M  V30 11570 C 1082.25 -2.52311 2.29242 0
M  V30 11571 H 1083.45 -0.815138 2.8861 0
M  V30 11572 H 1081 -0.38861 1.51392 0
M  V30 11573 H 1081.74 -2.92081 1.40922 0
M  V30 11574 H 1081.52 -2.39555 3.10412 0
M  V30 11575 H 1083.01 -3.25624 2.61456 0
M  V30 11576 N 1083.45 -1.52049 -0.414609 0
M  V30 11577 C 1084.69 -1.67511 -1.17129 0
M  V30 11578 C 1085.05 -0.39383 -1.87917 0
M  V30 11579 O 1086.25 -0.424496 -2.65427 0
M  V30 11580 C 1084.52 -2.85982 -2.14357 0
M  V30 11581 S 1086.08 -3.21898 -2.98206 0
M  V30 11582 H 1082.9 -0.589923 -0.396877 0
M  V30 11583 H 1085.5 -1.90025 -0.459409 0
M  V30 11584 H 1084.21 -3.77488 -1.6103 0
M  V30 11585 H 1083.74 -2.65725 -2.90092 0
M  V30 11586 H 1085.75 -2.70095 -4.16249 0
M  V30 11587 N 1084.93 0.6715 -1.42579 0
M  V30 11588 C 1086.17 1.43154 -1.43224 0
M  V30 11589 C 1086.5 1.94436 -0.0498695 0
M  V30 11590 O 1085.76 1.71521 0.942282 0
M  V30 11591 C 1086.05 2.64256 -2.40632 0
M  V30 11592 C 1085.72 2.31497 -3.86937 0
M  V30 11593 C 1084.38 2.22274 -4.26788 0
M  V30 11594 C 1086.73 2.04957 -4.7921 0
M  V30 11595 C 1084.06 1.84642 -5.56888 0
M  V30 11596 C 1086.41 1.68828 -6.09656 0
M  V30 11597 C 1085.08 1.58118 -6.48502 0
M  V30 11598 H 1084.35 0.523838 -0.524094 0
M  V30 11599 H 1087 0.765363 -1.7554 0
M  V30 11600 H 1085.3 3.35921 -2.01654 0
M  V30 11601 H 1087 3.22443 -2.38394 0
M  V30 11602 H 1083.59 2.39578 -3.55387 0
M  V30 11603 H 1087.77 2.11014 -4.49207 0
M  V30 11604 H 1083.03 1.74921 -5.85843 0
M  V30 11605 H 1087.2 1.47319 -6.8064 0
M  V30 11606 H 1084.83 1.28728 -7.49222 0
M  V30 11607 N 1086.4 1.28806 0.908124 0
M  V30 11608 C 1087.37 1.13228 1.99279 0
M  V30 11609 C 1088.37 0.0702456 1.60646 0
M  V30 11610 O 1089.56 0.316494 1.71301 0
M  V30 11611 C 1086.69 0.729629 3.33 0
M  V30 11612 H 1087.88 2.09566 2.14528 0
M  V30 11613 H 1085.43 1.11872 1.09153 0
M  V30 11614 H 1086.17 -0.234268 3.23453 0
M  V30 11615 H 1085.95 1.49688 3.62403 0
M  V30 11616 H 1087.44 0.643449 4.12613 0
M  V30 11617 N 1087.88 -1.11734 1.11145 0
M  V30 11618 C 1089.3 -1.35412 0.844736 0
M  V30 11619 C 1089.5 -1.94347 -0.532111 0
M  V30 11620 O 1088.55 -2.17443 -1.28353 0
M  V30 11621 C 1089.87 -2.28869 1.95037 0
M  V30 11622 C 1091.41 -2.42442 1.97967 0
M  V30 11623 C 1091.89 -3.39219 3.07725 0
M  V30 11624 N 1093.38 -3.4678 3.07079 0
M  V30 11625 C 1094.12 -4.21595 3.88646 0
M  V30 11626 N 1093.61 -4.99411 4.80167 0
M  V30 11627 N 1095.4 -4.17075 3.76835 0
M  V30 11628 H 1087.56 -0.718412 1.99881 0
M  V30 11629 H 1089.82 -0.378787 0.869037 0
M  V30 11630 H 1089.52 -1.92752 2.94176 0
M  V30 11631 H 1089.4 -3.2906 1.84389 0
M  V30 11632 H 1091.79 -2.77835 0.994561 0
M  V30 11633 H 1091.87 -1.42113 2.12691 0
M  V30 11634 H 1091.51 -3.04553 4.0646 0
M  V30 11635 H 1091.44 -4.39394 2.90242 0
M  V30 11636 H 1093.93 -2.91272 2.40767 0
M  V30 11637 H 1094.24 -5.53856 5.38946 0
M  V30 11638 H 1092.59 -4.98582 4.84191 0
M  V30 11639 H 1095.78 -3.55369 3.04681 0
M  V30 11640 H 1095.95 -4.75125 4.40637 0
M  V30 11641 N 1089.36 -0.901303 -1.29284 0
M  V30 11642 C 1090.58 -0.542823 -2.0017 0
M  V30 11643 C 1091.01 0.865583 -1.67001 0
M  V30 11644 O 1090.37 1.5764 -0.895502 0
M  V30 11645 C 1090.42 -0.743987 -3.52842 0
M  V30 11646 O 1089.52 0.202771 -4.11901 0
M  V30 11647 H 1088.86 -0.211903 -0.62928 0
M  V30 11648 H 1091.39 -1.21333 -1.64741 0
M  V30 11649 H 1091.4 -0.64926 -4.02801 0
M  V30 11650 H 1090.08 -1.77077 -3.7632 0
M  V30 11651 H 1088.65 0.0603637 -3.72851 0
M  V30 11652 N 1090.84 1.42931 -0.663954 0
M  V30 11653 C 1092.25 1.56098 -0.332496 0
M  V30 11654 C 1092.45 1.64564 1.16279 0
M  V30 11655 O 1091.51 1.6066 1.94794 0
M  V30 11656 C 1092.82 2.81649 -1.05329 0
M  V30 11657 C 1094.37 2.95408 -1.03457 0
M  V30 11658 C 1094.85 4.23805 -1.73647 0
M  V30 11659 N 1096.34 4.30693 -1.70462 0
M  V30 11660 C 1097.07 5.28833 -2.21637 0
M  V30 11661 N 1096.57 6.33189 -2.81147 0
M  V30 11662 N 1098.36 5.20558 -2.12075 0
M  V30 11663 H 1090.51 1.3568 -1.63416 0
M  V30 11664 H 1092.77 0.652361 -0.687844 0
M  V30 11665 H 1092.48 2.81494 -2.10842 0
M  V30 11666 H 1092.35 3.72208 -0.611626 0
M  V30 11667 H 1094.74 2.95097 0.0121936 0
M  V30 11668 H 1094.82 2.06109 -1.51502 0
M  V30 11669 H 1094.47 4.24876 -2.78285 0
M  V30 11670 H 1094.4 5.12019 -1.2306 0
M  V30 11671 H 1096.89 3.55904 -1.27046 0
M  V30 11672 H 1097.2 7.04411 -3.17844 0
M  V30 11673 H 1095.55 6.33781 -2.85212 0
M  V30 11674 H 1098.74 4.3795 -1.6528 0
M  V30 11675 H 1098.91 5.96881 -2.52264 0
M  V30 11676 N 1092.32 0.406567 1.52266 0
M  V30 11677 C 1093.54 -0.172101 2.06685 0
M  V30 11678 C 1093.97 -1.38306 1.27488 0
M  V30 11679 O 1093.32 -1.78726 0.304441 0
M  V30 11680 C 1093.37 -0.503463 3.57068 0
M  V30 11681 O 1092.48 -1.59485 3.80314 0
M  V30 11682 H 1091.82 -0.0153209 0.663823 0
M  V30 11683 H 1094.35 0.579025 1.96236 0
M  V30 11684 H 1094.36 -0.762833 4.00805 0
M  V30 11685 H 1093.03 0.381775 4.14144 0
M  V30 11686 H 1091.61 -1.32784 3.48458 0
M  V30 11687 N 1093.79 -1.57004 0.136909 0
M  V30 11688 C 1095.04 -1.9541 -0.51569 0
M  V30 11689 C 1095.36 -1.02219 -1.66061 0
M  V30 11690 O 1094.63 -0.0818172 -1.95729 0
M  V30 11691 H 1093.21 -0.721504 -0.193497 0
M  V30 11692 H 1095.88 -1.93765 0.210046 0
M  V30 11693 H 1094.97 -2.98887 -0.898494 0
M  V30 11694 N 1095.27 0.136881 -1.57004 0
M  V30 11695 C 1096.24 1.15267 -1.98106 0
M  V30 11696 C 1097.24 1.35305 -0.868856 0
M  V30 11697 O 1098.43 1.32126 -1.13527 0
M  V30 11698 C 1095.56 2.51092 -2.30577 0
M  V30 11699 H 1096.75 0.799821 -2.89038 0
M  V30 11700 H 1094.3 0.380576 -1.51596 0
M  V30 11701 H 1095.04 2.9133 -1.42469 0
M  V30 11702 H 1094.82 2.37906 -3.11678 0
M  V30 11703 H 1096.31 3.24232 -2.63179 0
M  V30 11704 N 1096.75 1.52266 0.40654 0
M  V30 11705 C 1097.98 1.70304 1.17491 0
M  V30 11706 C 1098.39 0.413656 1.84213 0
M  V30 11707 O 1097.75 -0.610524 1.71985 0
M  V30 11708 C 1097.8 2.84045 2.23609 0
M  V30 11709 O 1097.52 4.0799 1.5961 0
M  V30 11710 C 1099.02 3.13614 3.13306 0
M  V30 11711 H 1096.24 0.570669 0.352955 0
M  V30 11712 H 1098.79 1.98836 0.477967 0
M  V30 11713 H 1096.94 2.58025 2.88967 0
M  V30 11714 H 1097.36 4.7139 2.29983 0
M  V30 11715 H 1098.83 3.96707 3.83833 0
M  V30 11716 H 1099.31 2.27272 3.75824 0
M  V30 11717 H 1099.91 3.41409 2.53614 0
M  V30 11718 N 1098.23 -0.663929 1.42933 0
M  V30 11719 C 1099.16 -1.78899 1.50058 0
M  V30 11720 C 1100.14 -1.66329 0.356164 0
M  V30 11721 O 1101.32 -1.85587 0.571944 0
M  V30 11722 C 1098.45 -3.17265 1.41281 0
M  V30 11723 C 1097.41 -3.44584 2.53861 0
M  V30 11724 C 1096.73 -4.82638 2.3014 0
M  V30 11725 C 1098.03 -3.40394 3.96143 0
M  V30 11726 H 1099.73 -1.73194 2.44222 0
M  V30 11727 H 1097.27 -0.83182 1.17545 0
M  V30 11728 H 1099.23 -3.95715 1.44872 0
M  V30 11729 H 1097.95 -3.23675 0.43616 0
M  V30 11730 H 1096.61 -2.685 2.49606 0
M  V30 11731 H 1096.26 -4.85711 1.30743 0
M  V30 11732 H 1095.96 -5.01879 3.056 0
M  V30 11733 H 1097.48 -5.63359 2.35497 0
M  V30 11734 H 1098.9 -4.08796 4.01943 0
M  V30 11735 H 1097.29 -3.7117 4.71543 0
M  V30 11736 H 1098.36 -2.38767 4.22041 0
M  V30 11737 N 1099.71 -1.29285 -0.901281 0
M  V30 11738 C 1100.96 -1.16538 -1.64626 0
M  V30 11739 C 1101.27 0.282623 -1.93547 0
M  V30 11740 O 1102.47 0.531396 -2.66249 0
M  V30 11741 C 1100.93 -2.03809 -2.96631 0
M  V30 11742 C 1100.54 -3.53423 -2.75311 0
M  V30 11743 C 1102.28 -1.99782 -3.7455 0
M  V30 11744 C 1100.19 -4.32804 -4.03032 0
M  V30 11745 H 1099.12 -0.432561 -0.617581 0
M  V30 11746 H 1101.77 -1.53912 -0.999159 0
M  V30 11747 H 1100.15 -1.59302 -3.62545 0
M  V30 11748 H 1101.33 -4.05971 -2.18 0
M  V30 11749 H 1099.64 -3.59106 -2.10789 0
M  V30 11750 H 1102.24 -2.5635 -4.69243 0
M  V30 11751 H 1102.58 -0.97743 -4.04663 0
M  V30 11752 H 1103.11 -2.42324 -3.15474 0
M  V30 11753 H 1099.85 -5.35473 -3.78086 0
M  V30 11754 H 1099.37 -3.85025 -4.59909 0
M  V30 11755 H 1101.05 -4.43383 -4.71191 0
M  V30 11756 N 1101.18 1.11143 -1.11736 0
M  V30 11757 C 1102.43 1.82586 -0.866412 0
M  V30 11758 C 1102.75 1.85227 0.609593 0
M  V30 11759 O 1102.02 1.32505 1.44288 0
M  V30 11760 H 1100.6 0.676149 -0.31754 0
M  V30 11761 H 1103.27 1.34516 -1.41037 0
M  V30 11762 H 1102.36 2.8635 -1.24136 0
M  V30 11763 N 1102.66 0.908147 1.28804 0
M  V30 11764 C 1103.89 0.55409 1.99343 0
M  V30 11765 C 1104.31 -0.863262 1.67908 0
M  V30 11766 O 1103.66 -1.571 0.92875 0
M  V30 11767 C 1103.71 0.746916 3.537 0
M  V30 11768 O 1103.43 2.10849 3.84024 0
M  V30 11769 C 1104.94 0.398939 4.41501 0
M  V30 11770 H 1102.16 0.211784 0.636701 0
M  V30 11771 H 1104.7 1.21981 1.64137 0
M  V30 11772 H 1102.85 0.128264 3.87188 0
M  V30 11773 H 1103.27 2.14404 4.78676 0
M  V30 11774 H 1104.74 0.584656 5.48895 0
M  V30 11775 H 1105.22 -0.664517 4.34144 0
M  V30 11776 H 1105.83 0.994892 4.135 0
M  V30 11777 N 1104.14 -1.42577 0.671525 0
M  V30 11778 C 1105.42 -1.95222 0.121529 0
M  V30 11779 C 1105.8 -1.61209 -1.36289 0
M  V30 11780 O 1105.15 -0.906561 -2.09747 0
M  V30 11781 C 1105.36 -3.46846 0.387189 0
M  V30 11782 C 1106.7 -4.23525 0.301938 0
M  V30 11783 O 1107.73 -3.54753 0.320755 0
M  V30 11784 O 1106.59 -5.45967 0.241317 0
M  V30 11785 H 1103.68 -0.826999 0.000968615 0
M  V30 11786 H 1106.23 -1.52422 0.746029 0
M  V30 11787 H 1105 -3.64795 1.41563 0
M  V30 11788 H 1104.62 -3.96686 -0.26948 0
M  V30 11789 N 1105.62 -0.414636 -1.52048 0
M  V30 11790 C 1106.57 0.422766 -2.28726 0
M  V30 11791 C 1107.56 1.04099 -1.3364 0
M  V30 11792 O 1108.77 0.978559 -1.51077 0
M  V30 11793 H 1105.14 0.155123 -0.735827 0
M  V30 11794 H 1107.11 -0.245091 -2.97392 0
M  V30 11795 C 1105.86 1.52418 -3.12513 0
M  V30 11796 H 1105.18 1.05781 -3.85552 0
M  V30 11797 H 1106.62 2.08382 -3.6926 0
M  V30 11798 C 1105.08 2.49465 -2.26426 0
M  V30 11799 O 1105.61 3.53479 -1.90829 0
M  V30 11800 N 1103.82 2.19806 -1.90088 0
M  V30 11801 H 1103.37 1.35253 -2.19236 0
M  V30 11802 H 1103.32 2.84984 -1.32783 0
M  V30 11803 N 1107.1 1.56929 -0.145233 0
M  V30 11804 C 1108.32 2.00864 0.516564 0
M  V30 11805 C 1108.75 1.02466 1.57741 0
M  V30 11806 O 1108.1 0.000145439 1.813 0
M  V30 11807 C 1108.15 3.43552 1.09563 0
M  V30 11808 O 1107.26 3.4815 2.21055 0
M  V30 11809 H 1106.6 0.651835 0.126521 0
M  V30 11810 H 1109.13 2.0317 -0.241445 0
M  V30 11811 H 1109.14 3.82316 1.42473 0
M  V30 11812 H 1107.81 4.14677 0.318749 0
M  V30 11813 H 1106.39 3.21228 1.89387 0
M  V30 11814 N 1108.58 -0.128553 1.57075 0
M  V30 11815 C 1109.82 -0.839252 1.8462 0
M  V30 11816 C 1110.15 -1.79974 0.729582 0
M  V30 11817 O 1109.43 -1.92681 -0.265369 0
M  V30 11818 C 1109.71 -1.59756 3.22723 0
M  V30 11819 C 1109.57 -0.657313 4.44971 0
M  V30 11820 C 1110.88 -2.55592 3.58275 0
M  V30 11821 H 1108 -0.303652 0.671539 0
M  V30 11822 H 1110.65 -0.103802 1.89716 0
M  V30 11823 H 1108.8 -2.22451 3.18509 0
M  V30 11824 H 1110.47 -0.0399471 4.61283 0
M  V30 11825 H 1108.71 0.0318416 4.33788 0
M  V30 11826 H 1109.38 -1.22433 5.38251 0
M  V30 11827 H 1111.86 -2.03007 3.63218 0
M  V30 11828 H 1110.73 -3.05687 4.55902 0
M  V30 11829 H 1110.99 -3.37813 2.85193 0
M  V30 11830 N 1110.05 -1.5248 -0.398459 0
M  V30 11831 C 1111.3 -1.67309 -1.1461 0
M  V30 11832 C 1111.63 -0.407095 -1.89885 0
M  V30 11833 O 1110.91 0.594834 -1.85181 0
M  V30 11834 C 1111.19 -2.90204 -2.13198 0
M  V30 11835 C 1111.04 -4.26881 -1.4175 0
M  V30 11836 C 1112.36 -3.08634 -3.13741 0
M  V30 11837 H 1109.48 -0.608853 -0.415292 0
M  V30 11838 H 1112.12 -1.85057 -0.430573 0
M  V30 11839 H 1110.27 -2.75204 -2.74218 0
M  V30 11840 H 1111.95 -4.53631 -0.837676 0
M  V30 11841 H 1110.19 -4.27793 -0.719387 0
M  V30 11842 H 1110.86 -5.08939 -2.1374 0
M  V30 11843 H 1113.34 -3.22603 -2.62805 0
M  V30 11844 H 1112.21 -3.96117 -3.79977 0
M  V30 11845 H 1112.47 -2.22425 -3.82073 0
M  V30 11846 N 1111.53 0.65634 -1.43283 0
M  V30 11847 C 1112.46 1.78101 -1.51004 0
M  V30 11848 C 1113.44 1.66138 -0.36498 0
M  V30 11849 O 1114.63 1.85281 -0.581778 0
M  V30 11850 C 1111.76 3.16511 -1.42961 0
M  V30 11851 C 1110.71 3.43233 -2.55685 0
M  V30 11852 C 1110.04 4.81411 -2.32696 0
M  V30 11853 C 1111.34 3.38288 -3.97943 0
M  V30 11854 H 1113.03 1.71896 -2.45137 0
M  V30 11855 H 1110.58 0.825575 -1.17984 0
M  V30 11856 H 1112.53 3.94941 -1.46968 0
M  V30 11857 H 1111.25 3.23439 -0.45332 0
M  V30 11858 H 1109.91 2.67173 -2.51026 0
M  V30 11859 H 1109.56 4.85011 -1.33317 0
M  V30 11860 H 1109.26 5.00251 -3.08257 0
M  V30 11861 H 1110.79 5.62102 -2.38481 0
M  V30 11862 H 1112.2 4.06659 -4.04106 0
M  V30 11863 H 1110.6 3.68664 -4.73505 0
M  V30 11864 H 1111.67 2.36525 -4.23301 0
M  V30 11865 N 1113.01 1.29761 0.894412 0
M  V30 11866 C 1114.23 1.21064 1.68399 0
M  V30 11867 C 1114.66 -0.224608 1.86754 0
M  V30 11868 O 1114.02 -1.16199 1.39167 0
M  V30 11869 C 1114.07 1.93468 3.04306 0
M  V30 11870 O 1113.17 1.25533 3.9283 0
M  V30 11871 H 1112.51 0.419223 0.514925 0
M  V30 11872 H 1115.04 1.71421 1.11696 0
M  V30 11873 H 1115.05 2.02127 3.54413 0
M  V30 11874 H 1113.73 2.97857 2.90265 0
M  V30 11875 H 1112.3 1.25168 3.51266 0
M  V30 11876 N 1114.49 -1.10549 1.12324 0
M  V30 11877 C 1115.9 -1.34508 0.85905 0
M  V30 11878 C 1116.1 -1.94901 -0.511468 0
M  V30 11879 O 1115.16 -2.18793 -1.2604 0
M  V30 11880 C 1116.47 -2.26788 1.97453 0
M  V30 11881 C 1118.02 -2.40328 2.00528 0
M  V30 11882 C 1118.5 -3.35936 3.11305 0
M  V30 11883 N 1119.99 -3.43504 3.1074 0
M  V30 11884 C 1120.72 -4.17449 3.93096 0
M  V30 11885 N 1120.22 -4.9429 4.85437 0
M  V30 11886 N 1122.01 -4.13055 3.81237 0
M  V30 11887 H 1114.16 -0.697171 2.00632 0
M  V30 11888 H 1116.42 -0.369548 0.873005 0
M  V30 11889 H 1116.13 -1.89621 2.96204 0
M  V30 11890 H 1116 -3.27086 1.87869 0
M  V30 11891 H 1118.39 -2.76765 1.02397 0
M  V30 11892 H 1118.47 -1.39849 2.14186 0
M  V30 11893 H 1118.12 -3.00225 4.09667 0
M  V30 11894 H 1118.05 -4.36291 2.94886 0
M  V30 11895 H 1120.54 -2.88702 2.43843 0
M  V30 11896 H 1120.85 -5.48109 5.4479 0
M  V30 11897 H 1119.2 -4.93419 4.89452 0
M  V30 11898 H 1122.39 -3.52117 3.08433 0
M  V30 11899 H 1122.56 -4.70424 4.45651 0
M  V30 11900 N 1115.97 -0.914965 -1.28321 0
M  V30 11901 C 1116.91 -0.402792 -2.27258 0
M  V30 11902 C 1117.88 0.523412 -1.57638 0
M  V30 11903 O 1119.07 0.445344 -1.8553 0
M  V30 11904 C 1116.21 0.349956 -3.43321 0
M  V30 11905 C 1115.32 -0.608892 -4.27687 0
M  V30 11906 C 1114.46 0.162425 -5.30952 0
M  V30 11907 C 1113.49 -0.789959 -6.06981 0
M  V30 11908 N 1112.63 -0.0520826 -7.02081 0
M  V30 11909 H 1117.47 -1.25153 -2.70446 0
M  V30 11910 H 1115.01 -0.628444 -1.33 0
M  V30 11911 H 1116.97 0.802589 -4.09407 0
M  V30 11912 H 1115.6 1.16303 -3.01121 0
M  V30 11913 H 1114.65 -1.18005 -3.61634 0
M  V30 11914 H 1115.96 -1.33727 -4.8054 0
M  V30 11915 H 1115.11 0.675563 -6.02927 0
M  V30 11916 H 1113.85 0.923851 -4.7887 0
M  V30 11917 H 1112.86 -1.31446 -5.33856 0
M  V30 11918 H 1114.08 -1.55096 -6.61152 0
M  V30 11919 H 1112.03 0.691331 -6.52347 0
M  V30 11920 H 1111.95 -0.720267 -7.52561 0
M  V30 11921 H 1113.21 0.44082 -7.78253 0
M  V30 11922 N 1117.44 1.42219 -0.679077 0
M  V30 11923 C 1118.67 2.05516 -0.211342 0
M  V30 11924 C 1119.08 1.5113 1.13826 0
M  V30 11925 O 1118.42 0.647593 1.71907 0
M  V30 11926 C 1118.49 3.59425 -0.0736007 0
M  V30 11927 C 1118.15 4.36525 -1.3526 0
M  V30 11928 C 1119.15 4.66897 -2.28698 0
M  V30 11929 C 1116.83 4.76089 -1.60139 0
M  V30 11930 C 1118.83 5.35775 -3.45288 0
M  V30 11931 C 1116.51 5.44706 -2.77017 0
M  V30 11932 C 1117.51 5.74474 -3.69416 0
M  V30 11933 O 1117.2 6.41683 -4.8425 0
M  V30 11934 H 1116.93 0.668662 -0.0993318 0
M  V30 11935 H 1119.49 1.8327 -0.927434 0
M  V30 11936 H 1117.72 3.80346 0.69811 0
M  V30 11937 H 1119.4 4.04346 0.354813 0
M  V30 11938 H 1120.17 4.36828 -2.10729 0
M  V30 11939 H 1116.05 4.5231 -0.890887 0
M  V30 11940 H 1119.59 5.58927 -4.17428 0
M  V30 11941 H 1115.49 5.74194 -2.9491 0
M  V30 11942 H 1116.26 6.60175 -4.8385 0
M  V30 11943 N 1118.92 0.422693 1.51826 0
M  V30 11944 C 1120.15 -0.147744 2.06372 0
M  V30 11945 C 1120.56 -1.37714 1.29152 0
M  V30 11946 O 1119.92 -1.7917 0.347046 0
M  V30 11947 C 1119.97 -0.484642 3.58237 0
M  V30 11948 O 1119.69 0.695944 4.32537 0
M  V30 11949 C 1121.19 -1.10734 4.29247 0
M  V30 11950 H 1118.41 -0.0144047 0.670845 0
M  V30 11951 H 1120.96 0.597558 1.95575 0
M  V30 11952 H 1119.11 -1.17984 3.68997 0
M  V30 11953 H 1119.53 0.411471 5.22884 0
M  V30 11954 H 1121 -1.29318 5.36639 0
M  V30 11955 H 1121.48 -2.08429 3.86593 0
M  V30 11956 H 1122.08 -0.451958 4.22892 0
M  V30 11957 N 1120.4 -1.5685 0.153553 0
M  V30 11958 C 1121.62 -2.01135 -0.505904 0
M  V30 11959 C 1122.05 -1.03301 -1.57196 0
M  V30 11960 O 1121.41 -0.00976022 -1.81297 0
M  V30 11961 C 1121.46 -3.44129 -1.0774 0
M  V30 11962 O 1120.56 -3.49318 -2.19205 0
M  V30 11963 H 1119.9 -0.652496 -0.123062 0
M  V30 11964 H 1122.43 -2.03039 0.252216 0
M  V30 11965 H 1122.44 -3.83066 -1.40444 0
M  V30 11966 H 1121.12 -4.1484 -0.296754 0
M  V30 11967 H 1119.69 -3.22227 -1.8768 0
M  V30 11968 N 1121.88 0.120221 -1.57141 0
M  V30 11969 C 1123.12 0.828222 -1.84788 0
M  V30 11970 C 1123.45 1.79936 -0.738459 0
M  V30 11971 O 1122.71 1.93824 0.270295 0
M  V30 11972 C 1123.01 1.61338 -3.18912 0
M  V30 11973 C 1122.67 0.786637 -4.43985 0
M  V30 11974 C 1121.33 0.558645 -4.77946 0
M  V30 11975 C 1123.69 0.210281 -5.20776 0
M  V30 11976 C 1121.01 -0.255975 -5.86141 0
M  V30 11977 C 1123.37 -0.591523 -6.29828 0
M  V30 11978 C 1122.03 -0.829843 -6.62322 0
M  V30 11979 H 1121.3 0.303068 -0.676188 0
M  V30 11980 H 1123.95 0.0906538 -1.91285 0
M  V30 11981 H 1122.25 2.42182 -3.07986 0
M  V30 11982 H 1123.95 2.16513 -3.37525 0
M  V30 11983 H 1120.54 0.974426 -4.17376 0
M  V30 11984 H 1124.72 0.373641 -4.94892 0
M  V30 11985 H 1119.98 -0.449849 -6.09743 0
M  V30 11986 H 1124.15 -1.04512 -6.88513 0
M  V30 11987 H 1121.78 -1.4629 -7.45992 0
M  V30 11988 N 1123.36 1.52689 0.390367 0
M  V30 11989 C 1124.77 1.59623 0.968366 0
M  V30 11990 C 1125.12 0.44824 1.91011 0
M  V30 11991 O 1124.24 -0.428868 2.12108 0
M  V30 11992 C 1124.84 2.89312 1.76306 0
M  V30 11993 C 1123.4 2.98664 2.29079 0
M  V30 11994 C 1122.54 2.54725 1.09593 0
M  V30 11995 H 1125.5 1.57787 0.169959 0
M  V30 11996 H 1125.52 2.75721 2.62217 0
M  V30 11997 H 1125.03 3.72846 1.07738 0
M  V30 11998 H 1123.13 2.19665 3.00962 0
M  V30 11999 H 1123.24 4.03277 2.58659 0
M  V30 12000 H 1121.61 2.09012 1.45554 0
M  V30 12001 H 1122.39 3.40651 0.425625 0
M  V30 12002 N 1124.83 -0.648732 1.43629 0
M  V30 12003 C 1126.08 -1.40898 1.46695 0
M  V30 12004 C 1126.44 -1.92183 0.0914565 0
M  V30 12005 O 1125.73 -1.69642 -0.890623 0
M  V30 12006 C 1125.92 -2.60394 2.44806 0
M  V30 12007 C 1125.75 -2.20805 3.91759 0
M  V30 12008 C 1124.52 -2.08918 4.60088 0
M  V30 12009 C 1126.72 -1.80811 4.81469 0
M  V30 12010 N 1124.7 -1.62707 5.91946 0
M  V30 12011 C 1126.07 -1.45715 6.02633 0
M  V30 12012 C 1128.13 -1.68034 4.68689 0
M  V30 12013 C 1126.83 -0.991224 7.12438 0
M  V30 12014 C 1128.86 -1.22846 5.78501 0
M  V30 12015 C 1128.22 -0.886902 6.98794 0
M  V30 12016 H 1124.32 -0.511063 0.591894 0
M  V30 12017 H 1126.9 -0.746064 1.79839 0
M  V30 12018 H 1125.07 -3.24338 2.13681 0
M  V30 12019 H 1126.8 -3.27115 2.38281 0
M  V30 12020 H 1123.56 -2.28818 4.14656 0
M  V30 12021 H 1123.98 -1.41951 6.61951 0
M  V30 12022 H 1128.63 -1.93078 3.76139 0
M  V30 12023 H 1126.34 -0.728271 8.04812 0
M  V30 12024 H 1129.93 -1.13443 5.70633 0
M  V30 12025 H 1128.81 -0.542577 7.82321 0
M  V30 12026 N 1126.31 -1.30234 -0.887518 0
M  V30 12027 C 1127.24 -1.18969 -2.00919 0
M  V30 12028 C 1128.22 -0.080952 -1.69907 0
M  V30 12029 O 1129.41 -0.262546 -1.92417 0
M  V30 12030 C 1126.54 -0.878094 -3.36016 0
M  V30 12031 C 1125.49 -1.94449 -3.81279 0
M  V30 12032 C 1124.82 -1.48594 -5.13638 0
M  V30 12033 C 1126.12 -3.35519 -4.00281 0
M  V30 12034 H 1127.81 -2.12808 -2.10602 0
M  V30 12035 H 1125.36 -1.02454 -1.01189 0
M  V30 12036 H 1127.31 -0.785954 -4.14006 0
M  V30 12037 H 1126.04 0.0959779 -3.26459 0
M  V30 12038 H 1124.69 -2.02622 -3.05516 0
M  V30 12039 H 1124.34 -0.500204 -5.00507 0
M  V30 12040 H 1124.04 -2.19921 -5.44893 0
M  V30 12041 H 1125.57 -1.40754 -5.94156 0
M  V30 12042 H 1126.98 -3.30119 -4.68716 0
M  V30 12043 H 1125.38 -4.0491 -4.42909 0
M  V30 12044 H 1126.45 -3.77597 -3.04218 0
M  V30 12045 N 1127.79 1.09952 -1.12909 0
M  V30 12046 C 1128.72 2.18477 -0.824014 0
M  V30 12047 C 1129.7 1.68744 0.214324 0
M  V30 12048 O 1130.89 1.94057 0.0744281 0
M  V30 12049 C 1128.02 3.46143 -0.283308 0
M  V30 12050 C 1126.97 4.09178 -1.25528 0
M  V30 12051 C 1126.3 5.31604 -0.574574 0
M  V30 12052 C 1127.6 4.52308 -2.6118 0
M  V30 12053 H 1129.29 2.44254 -1.73148 0
M  V30 12054 H 1126.84 1.17394 -0.833952 0
M  V30 12055 H 1128.79 4.21361 -0.057583 0
M  V30 12056 H 1127.51 3.19872 0.659525 0
M  V30 12057 H 1126.17 3.35973 -1.4669 0
M  V30 12058 H 1125.82 5.01611 0.37356 0
M  V30 12059 H 1125.52 5.74732 -1.22299 0
M  V30 12060 H 1127.04 6.0955 -0.358004 0
M  V30 12061 H 1128.46 5.18776 -2.44017 0
M  V30 12062 H 1126.86 5.06302 -3.22147 0
M  V30 12063 H 1127.93 3.64977 -3.19249 0
M  V30 12064 N 1129.27 0.921757 1.27833 0
M  V30 12065 C 1130.52 0.557974 1.94245 0
M  V30 12066 C 1130.84 -0.90268 1.72849 0
M  V30 12067 O 1130.11 -1.63915 1.07279 0
M  V30 12068 H 1128.69 0.203364 0.718785 0
M  V30 12069 H 1131.35 1.17286 1.5566 0
M  V30 12070 H 1130.45 0.759202 3.02725 0
M  V30 12071 N 1130.75 -1.41857 0.686609 0
M  V30 12072 C 1131.99 -2.03236 0.217839 0
M  V30 12073 C 1132.35 -1.5317 -1.15771 0
M  V30 12074 O 1133.55 -2.06415 -1.72181 0
M  V30 12075 C 1131.82 -3.56428 0.263443 0
M  V30 12076 S 1133.38 -4.386 -0.132595 0
M  V30 12077 H 1130.2 -0.705472 0.088487 0
M  V30 12078 H 1132.8 -1.73428 0.902393 0
M  V30 12079 H 1131.51 -3.90362 1.26672 0
M  V30 12080 H 1131.04 -3.90925 -0.440556 0
M  V30 12081 H 1133.05 -4.77119 -1.3628 0
M  V30 12082 N 1132.22 -0.430739 -1.51599 0
M  V30 12083 C 1133.19 0.372319 -2.26156 0
M  V30 12084 C 1134.19 0.955338 -1.29344 0
M  V30 12085 O 1135.38 0.830823 -1.53111 0
M  V30 12086 C 1132.51 1.52613 -3.04831 0
M  V30 12087 H 1133.7 -0.280996 -2.98581 0
M  V30 12088 H 1131.26 -0.183749 -1.55216 0
M  V30 12089 H 1131.99 2.21569 -2.36807 0
M  V30 12090 H 1131.78 1.11433 -3.75932 0
M  V30 12091 H 1133.27 2.09366 -3.61325 0
M  V30 12092 N 1133.7 1.56767 -0.161869 0
M  V30 12093 C 1134.67 2.16299 0.758104 0
M  V30 12094 C 1135.67 1.10859 1.16478 0
M  V30 12095 O 1136.86 1.36422 1.08327 0
M  V30 12096 C 1133.99 2.73819 2.03067 0
M  V30 12097 H 1135.18 2.98938 0.239992 0
M  V30 12098 H 1132.73 1.56054 0.0876532 0
M  V30 12099 H 1133.47 1.94887 2.59209 0
M  V30 12100 H 1133.25 3.50974 1.74813 0
M  V30 12101 H 1134.74 3.19638 2.68741 0
M  V30 12102 N 1135.18 -0.111886 1.57202 0
M  V30 12103 C 1136.13 -1.15585 2.01849 0
M  V30 12104 C 1137.12 -1.42458 0.916621 0
M  V30 12105 O 1138.33 -1.42337 1.10182 0
M  V30 12106 H 1134.7 -0.389885 0.643035 0
M  V30 12107 H 1136.67 -0.752854 2.88747 0
M  V30 12108 C 1135.42 -2.47247 2.44467 0
M  V30 12109 H 1134.75 -2.27409 3.28824 0
M  V30 12110 H 1136.19 -3.18837 2.79497 0
M  V30 12111 C 1134.65 -3.10339 1.31115 0
M  V30 12112 O 1135.18 -3.96713 0.631029 0
M  V30 12113 N 1133.38 -2.70326 1.0664 0
M  V30 12114 H 1132.93 -2.00182 1.62126 0
M  V30 12115 H 1132.89 -3.12869 0.309944 0
M  V30 12116 N 1136.66 -1.52894 -0.382264 0
M  V30 12117 C 1137.9 -1.69465 -1.12486 0
M  V30 12118 C 1138.26 -0.432631 -1.87473 0
M  V30 12119 O 1137.55 0.573901 -1.82803 0
M  V30 12120 C 1137.75 -2.87309 -2.12576 0
M  V30 12121 C 1137.58 -4.24849 -1.47421 0
M  V30 12122 C 1136.35 -4.89965 -1.23542 0
M  V30 12123 C 1138.54 -5.05991 -0.920733 0
M  V30 12124 N 1136.53 -6.1147 -0.545631 0
M  V30 12125 C 1137.9 -6.18958 -0.359379 0
M  V30 12126 C 1139.95 -4.91138 -0.817797 0
M  V30 12127 C 1138.65 -7.18695 0.294853 0
M  V30 12128 C 1140.68 -5.91134 -0.177375 0
M  V30 12129 C 1140.04 -7.03411 0.373179 0
M  V30 12130 H 1136.14 -0.673527 -0.397347 0
M  V30 12131 H 1138.73 -1.90259 -0.413479 0
M  V30 12132 H 1136.9 -2.68083 -2.81044 0
M  V30 12133 H 1138.63 -2.92784 -2.79392 0
M  V30 12134 H 1135.38 -4.48808 -1.51223 0
M  V30 12135 H 1135.81 -6.76653 -0.216582 0
M  V30 12136 H 1140.45 -4.04536 -1.22924 0
M  V30 12137 H 1138.17 -8.04901 0.718285 0
M  V30 12138 H 1141.75 -5.81716 -0.0988833 0
M  V30 12139 H 1140.63 -7.7946 0.860905 0
M  V30 12140 N 1138.14 0.641106 -1.43971 0
M  V30 12141 C 1139.39 1.39676 -1.45511 0
M  V30 12142 C 1139.7 1.95403 -0.0877084 0
M  V30 12143 O 1140.91 2.71493 0.0193965 0
M  V30 12144 C 1139.36 2.52839 -2.56126 0
M  V30 12145 C 1138.97 2.03668 -3.99028 0
M  V30 12146 C 1140.71 3.30118 -2.66875 0
M  V30 12147 C 1138.62 3.14114 -5.01085 0
M  V30 12148 H 1137.55 0.524854 -0.541336 0
M  V30 12149 H 1140.2 0.69075 -1.70003 0
M  V30 12150 H 1138.58 3.25968 -2.24857 0
M  V30 12151 H 1139.76 1.3747 -4.39817 0
M  V30 12152 H 1138.07 1.39233 -3.92432 0
M  V30 12153 H 1140.67 4.12434 -3.40297 0
M  V30 12154 H 1141.01 3.78946 -1.72353 0
M  V30 12155 H 1141.55 2.64075 -2.97505 0
M  V30 12156 H 1138.28 2.70241 -5.97202 0
M  V30 12157 H 1137.8 3.78985 -4.64898 0
M  V30 12158 H 1139.48 3.79051 -5.24337 0
M  V30 12159 N 1139.62 1.30703 0.880598 0
M  V30 12160 C 1140.55 1.20033 2.00286 0
M  V30 12161 C 1141.53 0.0899614 1.69862 0
M  V30 12162 O 1142.71 0.272747 1.92275 0
M  V30 12163 C 1139.84 0.895902 3.35546 0
M  V30 12164 C 1138.8 1.96468 3.80242 0
M  V30 12165 C 1138.12 1.51316 5.12843 0
M  V30 12166 C 1139.42 3.37637 3.98496 0
M  V30 12167 H 1141.12 2.13922 2.0947 0
M  V30 12168 H 1138.66 1.02989 1.00644 0
M  V30 12169 H 1140.61 0.807899 4.13583 0
M  V30 12170 H 1139.34 -0.0786636 3.26505 0
M  V30 12171 H 1138 2.0424 3.04437 0
M  V30 12172 H 1137.65 0.52674 5.00234 0
M  V30 12173 H 1137.35 2.22807 5.43719 0
M  V30 12174 H 1138.87 1.43903 5.93401 0
M  V30 12175 H 1140.28 3.326 4.66959 0
M  V30 12176 H 1138.68 4.07253 4.40755 0
M  V30 12177 H 1139.75 3.79205 3.02211 0
M  V30 12178 N 1141.09 -1.09351 1.1349 0
M  V30 12179 C 1142.51 -1.3359 0.873269 0
M  V30 12180 C 1142.71 -1.95432 -0.490767 0
M  V30 12181 O 1141.77 -2.20117 -1.23712 0
M  V30 12182 C 1143.08 -2.24681 1.99847 0
M  V30 12183 C 1144.63 -2.38188 2.03065 0
M  V30 12184 C 1145.1 -3.32615 3.14851 0
M  V30 12185 N 1146.59 -3.40188 3.14366 0
M  V30 12186 C 1147.33 -4.13256 3.97501 0
M  V30 12187 N 1146.82 -4.89114 4.90652 0
M  V30 12188 N 1148.62 -4.08988 3.85597 0
M  V30 12189 H 1140.77 -0.675852 2.0136 0
M  V30 12190 H 1143.03 -0.360268 0.876876 0
M  V30 12191 H 1142.74 -1.86469 2.98198 0
M  V30 12192 H 1142.61 -3.25075 1.91327 0
M  V30 12193 H 1145 -2.75663 1.05327 0
M  V30 12194 H 1145.08 -1.3757 2.15658 0
M  V30 12195 H 1144.72 -2.95863 4.12829 0
M  V30 12196 H 1144.65 -4.33139 2.99496 0
M  V30 12197 H 1147.14 -2.861 2.46892 0
M  V30 12198 H 1147.46 -5.423 5.50573 0
M  V30 12199 H 1145.8 -4.882 4.94657 0
M  V30 12200 H 1148.99 -3.48826 3.12151 0
M  V30 12201 H 1149.17 -4.65671 4.50615 0
M  V30 12202 N 1142.57 -0.928524 -1.27343 0
M  V30 12203 C 1143.82 -0.568267 -1.93946 0
M  V30 12204 C 1144.14 0.893501 -1.73325 0
M  V30 12205 O 1143.41 1.63344 -1.08147 0
M  V30 12206 H 1141.99 -0.207173 -0.717696 0
M  V30 12207 H 1144.65 -1.1811 -1.55036 0
M  V30 12208 H 1143.75 -0.775246 -3.02318 0
M  V30 12209 N 1144.05 1.41491 -0.694123 0
M  V30 12210 C 1145.28 2.05579 -0.233466 0
M  V30 12211 C 1145.69 1.5223 1.11675 0
M  V30 12212 O 1145.05 0.669937 1.69759 0
M  V30 12213 C 1145.1 3.61047 -0.180967 0
M  V30 12214 O 1144.82 4.12421 -1.47785 0
M  V30 12215 C 1146.32 4.42278 0.300853 0
M  V30 12216 H 1143.54 0.662097 -0.108943 0
M  V30 12217 H 1146.09 1.81288 -0.946299 0
M  V30 12218 H 1144.24 3.84381 0.482678 0
M  V30 12219 H 1144.66 5.06454 -1.364 0
M  V30 12220 H 1146.13 5.51256 0.286464 0
M  V30 12221 H 1146.61 4.18276 1.33948 0
M  V30 12222 H 1147.21 4.24004 -0.331741 0
M  V30 12223 N 1145.53 0.438773 1.51369 0
M  V30 12224 C 1146.75 -0.128221 2.07003 0
M  V30 12225 C 1147.18 -1.3557 1.30393 0
M  V30 12226 O 1146.54 -1.7804 0.342283 0
M  V30 12227 C 1146.58 -0.42761 3.58056 0
M  V30 12228 O 1145.69 -1.51382 3.83611 0
M  V30 12229 H 1145.03 -0.00123679 0.663999 0
M  V30 12230 H 1147.56 0.62052 1.94963 0
M  V30 12231 H 1147.57 -0.677645 4.02333 0
M  V30 12232 H 1146.24 0.469535 4.13241 0
M  V30 12233 H 1144.82 -1.25363 3.51196 0
M  V30 12234 N 1147.01 -1.56678 0.170181 0
M  V30 12235 C 1148.25 -1.96849 -0.475064 0
M  V30 12236 C 1148.58 -1.05611 -1.6333 0
M  V30 12237 O 1147.84 -0.0899708 -1.95493 0
M  V30 12238 C 1148.13 -3.43103 -1.00076 0
M  V30 12239 C 1147.8 -4.50881 0.0414538 0
M  V30 12240 C 1146.46 -4.80082 0.327894 0
M  V30 12241 C 1148.81 -5.15791 0.748936 0
M  V30 12242 C 1146.14 -5.71491 1.32722 0
M  V30 12243 C 1148.49 -6.08278 1.73724 0
M  V30 12244 C 1147.16 -6.35847 2.03114 0
M  V30 12245 H 1146.43 -0.72032 -0.173838 0
M  V30 12246 H 1149.08 -1.89701 0.261903 0
M  V30 12247 H 1147.38 -3.47197 -1.81553 0
M  V30 12248 H 1149.08 -3.71525 -1.50899 0
M  V30 12249 H 1145.67 -4.2817 -0.191976 0
M  V30 12250 H 1149.85 -4.93344 0.540852 0
M  V30 12251 H 1145.11 -5.91134 1.56112 0
M  V30 12252 H 1149.28 -6.57643 2.29082 0
M  V30 12253 H 1146.91 -7.06479 2.80698 0
M  V30 12254 N 1148.48 0.103547 -1.57259 0
M  V30 12255 C 1149.73 0.809774 -1.85931 0
M  V30 12256 C 1150.06 1.78791 -0.758122 0
M  V30 12257 O 1149.34 1.93079 0.234682 0
M  V30 12258 C 1149.62 1.54601 -3.25224 0
M  V30 12259 C 1149.47 0.586439 -4.45961 0
M  V30 12260 C 1150.79 2.4986 -3.62296 0
M  V30 12261 H 1147.91 0.29293 -0.676285 0
M  V30 12262 H 1150.55 0.0736065 -1.89857 0
M  V30 12263 H 1148.7 2.17355 -3.22008 0
M  V30 12264 H 1150.38 -0.0334441 -4.61288 0
M  V30 12265 H 1148.62 -0.10085 -4.33683 0
M  V30 12266 H 1149.29 1.13855 -5.40131 0
M  V30 12267 H 1151.77 1.97203 -3.66402 0
M  V30 12268 H 1150.64 2.98396 -4.60707 0
M  V30 12269 H 1150.9 3.33233 -2.90531 0
M  V30 12270 N 1149.96 1.53094 0.37415 0
M  V30 12271 C 1151.19 1.72508 1.13687 0
M  V30 12272 C 1151.6 0.449922 1.83773 0
M  V30 12273 O 1150.94 -0.586391 1.74089 0
M  V30 12274 C 1151 2.82965 2.21746 0
M  V30 12275 C 1150.67 4.23599 1.71501 0
M  V30 12276 C 1151.67 5.06245 1.1837 0
M  V30 12277 C 1149.35 4.69978 1.77273 0
M  V30 12278 C 1151.34 6.33357 0.71679 0
M  V30 12279 C 1149.03 5.9707 1.30194 0
M  V30 12280 C 1150.03 6.7859 0.774856 0
M  V30 12281 O 1149.72 8.03298 0.310981 0
M  V30 12282 H 1149.45 0.580611 0.346218 0
M  V30 12283 H 1152 2.00596 0.441614 0
M  V30 12284 H 1150.23 2.5033 2.9474 0
M  V30 12285 H 1151.92 2.90638 2.83345 0
M  V30 12286 H 1152.69 4.71591 1.13256 0
M  V30 12287 H 1148.57 4.06605 2.17241 0
M  V30 12288 H 1152.11 6.96934 0.30471 0
M  V30 12289 H 1148.01 6.31225 1.34999 0
M  V30 12290 H 1148.78 8.17364 0.431098 0
M  V30 12291 N 1151.44 -0.633461 1.44309 0
M  V30 12292 C 1152.69 -1.39513 1.47187 0
M  V30 12293 C 1153.02 -1.93926 0.103186 0
M  V30 12294 O 1152.29 -1.73512 -0.878853 0
M  V30 12295 C 1152.58 -2.56213 2.53036 0
M  V30 12296 C 1152.43 -2.07164 3.99253 0
M  V30 12297 C 1153.75 -3.58403 2.55412 0
M  V30 12298 H 1150.87 -0.505936 0.535908 0
M  V30 12299 H 1153.51 -0.716445 1.75975 0
M  V30 12300 H 1151.66 -3.14111 2.28619 0
M  V30 12301 H 1153.33 -1.54115 4.34795 0
M  V30 12302 H 1151.57 -1.38367 4.11141 0
M  V30 12303 H 1152.25 -2.91172 4.6896 0
M  V30 12304 H 1154.72 -3.103 2.77224 0
M  V30 12305 H 1153.6 -4.37581 3.31382 0
M  V30 12306 H 1153.86 -4.12316 1.59523 0
M  V30 12307 N 1152.92 -1.31168 -0.873655 0
M  V30 12308 C 1154.33 -1.18584 -1.44203 0
M  V30 12309 C 1154.68 0.209114 -1.95082 0
M  V30 12310 O 1153.81 1.10662 -1.85965 0
M  V30 12311 C 1154.4 -2.14668 -2.62112 0
M  V30 12312 C 1152.96 -2.06029 -3.15006 0
M  V30 12313 C 1152.11 -2.04106 -1.87712 0
M  V30 12314 H 1155.06 -1.43273 -0.682536 0
M  V30 12315 H 1155.08 -1.73413 -3.38686 0
M  V30 12316 H 1154.59 -3.16186 -2.25051 0
M  V30 12317 H 1152.69 -1.07693 -3.56697 0
M  V30 12318 H 1152.8 -2.9496 -3.77539 0
M  V30 12319 H 1151.17 -1.49069 -2.0652 0
M  V30 12320 H 1151.95 -3.07373 -1.52894 0
M  V30 12321 N 1154.4 1.08748 -1.14068 0
M  V30 12322 C 1155.62 1.85353 -0.930532 0
M  V30 12323 C 1156.05 1.80892 0.515717 0
M  V30 12324 O 1155.4 1.19146 1.36652 0
M  V30 12325 C 1155.45 3.30962 -1.43167 0
M  V30 12326 O 1154.56 4.0769 -0.621468 0
M  V30 12327 H 1153.9 0.574485 -0.332962 0
M  V30 12328 H 1156.43 1.37282 -1.51707 0
M  V30 12329 H 1156.44 3.81807 -1.43832 0
M  V30 12330 H 1155.11 3.33524 -2.48464 0
M  V30 12331 H 1153.69 3.66587 -0.683267 0
M  V30 12332 N 1155.87 0.935264 1.26849 0
M  V30 12333 C 1156.84 0.44485 2.24842 0
M  V30 12334 C 1157.84 -0.440781 1.54641 0
M  V30 12335 O 1159.03 -0.240793 1.72528 0
M  V30 12336 C 1156.16 -0.359566 3.38998 0
M  V30 12337 H 1157.35 1.31074 2.6974 0
M  V30 12338 H 1154.91 0.716665 1.38901 0
M  V30 12339 H 1155.64 -1.24396 2.99493 0
M  V30 12340 H 1155.43 0.275529 3.91131 0
M  V30 12341 H 1156.92 -0.692804 4.11813 0
M  V30 12342 N 1157.35 -1.41121 0.701616 0
M  V30 12343 C 1158.28 -2.33436 0.0545974 0
M  V30 12344 C 1159.26 -1.52144 -0.760662 0
M  V30 12345 O 1160.45 -1.80661 -0.712414 0
M  V30 12346 C 1157.58 -3.36015 -0.878117 0
M  V30 12347 C 1156.53 -4.27664 -0.169511 0
M  V30 12348 C 1155.86 -5.20666 -1.21699 0
M  V30 12349 C 1157.16 -5.13254 0.967859 0
M  V30 12350 H 1158.85 -2.87791 0.825637 0
M  V30 12351 H 1156.4 -1.38377 0.398484 0
M  V30 12352 H 1158.35 -3.99526 -1.34004 0
M  V30 12353 H 1157.08 -2.80024 -1.68089 0
M  V30 12354 H 1155.73 -3.65586 0.272441 0
M  V30 12355 H 1155.38 -4.60987 -2.01246 0
M  V30 12356 H 1155.08 -5.82822 -0.747836 0
M  V30 12357 H 1156.61 -5.87053 -1.6793 0
M  V30 12358 H 1158.02 -5.70298 0.585944 0
M  V30 12359 H 1156.42 -5.84381 1.3645 0
M  V30 12360 H 1157.49 -4.5006 1.80483 0
M  V30 12361 N 1158.83 -0.446794 -1.51134 0
M  V30 12362 C 1159.78 0.374154 -2.29571 0
M  V30 12363 C 1160.77 1.01241 -1.35818 0
M  V30 12364 O 1161.98 0.946293 -1.53119 0
M  V30 12365 H 1158.35 0.13948 -0.738951 0
M  V30 12366 H 1160.32 -0.308117 -2.96805 0
M  V30 12367 C 1159.07 1.45754 -3.15675 0
M  V30 12368 H 1158.4 0.975787 -3.87709 0
M  V30 12369 H 1159.84 2.00502 -3.73597 0
M  V30 12370 C 1158.3 2.44606 -2.31667 0
M  V30 12371 O 1158.83 3.49352 -1.98284 0
M  V30 12372 N 1157.03 2.15725 -1.94708 0
M  V30 12373 H 1156.58 1.30572 -2.22056 0
M  V30 12374 H 1156.54 2.82103 -1.38798 0
M  V30 12375 N 1160.31 1.56586 -0.178487 0
M  V30 12376 C 1161.72 1.83633 0.337009 0
M  V30 12377 C 1162.07 1.09857 1.6256 0
M  V30 12378 O 1161.2 0.353933 2.13486 0
M  V30 12379 C 1161.79 3.33112 0.618225 0
M  V30 12380 C 1160.35 3.60629 1.07814 0
M  V30 12381 C 1159.5 2.7705 0.117825 0
M  V30 12382 H 1162.45 1.53508 -0.402612 0
M  V30 12383 H 1162.47 3.5098 1.46947 0
M  V30 12384 H 1161.98 3.8678 -0.319808 0
M  V30 12385 H 1160.08 3.12378 2.03103 0
M  V30 12386 H 1160.19 4.68921 0.982339 0
M  V30 12387 H 1158.56 2.47125 0.616563 0
M  V30 12388 H 1159.34 3.33501 -0.814356 0
M  V30 12389 N 1161.79 -0.095206 1.57312 0
M  V30 12390 C 1162.75 -1.09974 2.01093 0
M  V30 12391 C 1163.75 -1.32954 0.904424 0
M  V30 12392 O 1164.94 -1.29069 1.16991 0
M  V30 12393 C 1162.07 -2.4489 2.37153 0
M  V30 12394 H 1163.26 -0.722906 2.91057 0
M  V30 12395 H 1160.82 -0.340249 1.52552 0
M  V30 12396 H 1161.55 -2.8745 1.50143 0
M  V30 12397 H 1161.34 -2.29559 3.17876 0
M  V30 12398 H 1162.83 -3.17141 2.71683 0
M  V30 12399 N 1163.26 -1.53291 -0.366026 0
M  V30 12400 C 1164.54 -1.60055 -1.12436 0
M  V30 12401 C 1164.92 -0.407811 -2.07123 0
M  V30 12402 O 1164.27 0.601977 -2.20428 0
M  V30 12403 C 1164.48 -2.95062 -1.86385 0
M  V30 12404 C 1165.83 -3.49623 -2.40934 0
M  V30 12405 O 1166.85 -2.97088 -1.96512 0
M  V30 12406 O 1165.71 -4.41461 -3.2214 0
M  V30 12407 H 1162.8 -0.646476 -0.51575 0
M  V30 12408 H 1165.35 -1.65632 -0.369326 0
M  V30 12409 H 1164.12 -3.73312 -1.17277 0
M  V30 12410 H 1163.75 -2.92973 -2.68798 0
M  V30 12411 N 1164.74 0.6258 -1.44643 0
M  V30 12412 C 1166.02 1.38439 -1.38181 0
M  V30 12413 C 1166.4 2.11056 -0.0431928 0
M  V30 12414 O 1165.75 2.06683 0.974383 0
M  V30 12415 C 1165.96 2.34639 -2.58352 0
M  V30 12416 C 1167.31 2.97807 -3.02649 0
M  V30 12417 O 1168.33 2.44963 -2.58595 0
M  V30 12418 O 1167.19 3.93682 -3.79048 0
M  V30 12419 H 1164.28 0.619852 -0.54746 0
M  V30 12420 H 1166.83 0.650409 -1.56741 0
M  V30 12421 H 1165.6 1.80116 -3.47382 0
M  V30 12422 H 1165.22 3.15446 -2.42032 0
M  V30 12423 N 1166.22 1.31629 0.866686 0
M  V30 12424 C 1167.63 1.19347 1.43573 0
M  V30 12425 C 1167.98 -0.198765 1.95191 0
M  V30 12426 O 1167.11 -1.09674 1.86549 0
M  V30 12427 C 1167.7 2.16055 2.6097 0
M  V30 12428 C 1166.26 2.07697 3.13909 0
M  V30 12429 C 1165.41 2.05099 1.86627 0
M  V30 12430 H 1168.36 1.43633 0.674929 0
M  V30 12431 H 1168.38 1.75207 3.37761 0
M  V30 12432 H 1167.89 3.17375 2.23371 0
M  V30 12433 H 1165.99 1.09583 3.56121 0
M  V30 12434 H 1166.11 2.96958 3.75969 0
M  V30 12435 H 1164.47 1.50162 2.05727 0
M  V30 12436 H 1165.25 3.0818 1.51261 0
M  V30 12437 N 1167.7 -1.08142 1.14644 0
M  V30 12438 C 1168.92 -1.84857 0.940349 0
M  V30 12439 C 1169.35 -1.81163 -0.506117 0
M  V30 12440 O 1168.71 -1.19869 -1.36019 0
M  V30 12441 C 1168.76 -3.30198 1.4492 0
M  V30 12442 O 1167.86 -4.07355 0.64308 0
M  V30 12443 H 1167.2 -0.572711 0.336003 0
M  V30 12444 H 1169.73 -1.36475 1.52432 0
M  V30 12445 H 1169.74 -3.81039 1.45854 0
M  V30 12446 H 1168.42 -3.32202 2.50229 0
M  V30 12447 H 1166.99 -3.66219 0.702698 0
M  V30 12448 N 1169.18 -0.941978 -1.26351 0
M  V30 12449 C 1170.59 -0.644413 -1.46012 0
M  V30 12450 C 1170.79 0.802031 -1.84851 0
M  V30 12451 O 1169.85 1.57859 -1.9707 0
M  V30 12452 C 1171.16 -1.60652 -2.54188 0
M  V30 12453 C 1172.71 -1.6163 -2.68038 0
M  V30 12454 C 1173.19 -2.56573 -3.79387 0
M  V30 12455 N 1174.68 -2.54863 -3.8678 0
M  V30 12456 C 1175.41 -3.2501 -4.72394 0
M  V30 12457 N 1174.91 -4.04586 -5.6239 0
M  V30 12458 N 1176.7 -3.13958 -4.66247 0
M  V30 12459 H 1168.85 -1.8769 -0.994293 0
M  V30 12460 H 1171.11 -0.806621 -0.498063 0
M  V30 12461 H 1170.82 -2.63907 -2.32478 0
M  V30 12462 H 1170.69 -1.3592 -3.5186 0
M  V30 12463 H 1173.08 -0.59099 -2.89122 0
M  V30 12464 H 1173.16 -1.90417 -1.70807 0
M  V30 12465 H 1172.81 -3.59223 -3.59056 0
M  V30 12466 H 1172.74 -2.25077 -4.76076 0
M  V30 12467 H 1175.23 -1.97082 -3.22439 0
M  V30 12468 H 1175.54 -4.55061 -6.24612 0
M  V30 12469 H 1173.89 -4.08687 -5.62139 0
M  V30 12470 H 1177.08 -2.51273 -3.94943 0
M  V30 12471 H 1177.25 -3.68894 -5.32749 0
M  V30 12472 N 1170.66 1.40747 -0.709091 0
M  V30 12473 C 1171.9 2.00606 -0.245324 0
M  V30 12474 C 1172.22 1.56489 1.16346 0
M  V30 12475 O 1171.49 0.801456 1.78755 0
M  V30 12476 H 1170.07 0.741833 -0.0877098 0
M  V30 12477 H 1172.74 1.72178 -0.913271 0
M  V30 12478 H 1171.83 3.10901 -0.273322 0
M  V30 12479 N 1172.13 0.454803 1.50895 0
M  V30 12480 C 1173.55 0.108037 1.59234 0
M  V30 12481 C 1173.75 -1.38416 1.46435 0
M  V30 12482 O 1172.81 -2.15586 1.31449 0
M  V30 12483 C 1174.12 0.643721 2.93729 0
M  V30 12484 C 1175.67 0.605703 3.07083 0
M  V30 12485 C 1176.14 1.11865 4.44128 0
M  V30 12486 N 1177.63 1.07738 4.50496 0
M  V30 12487 C 1178.37 1.44495 5.54895 0
M  V30 12488 N 1177.86 1.88624 6.66628 0
M  V30 12489 N 1179.66 1.36201 5.45349 0
M  V30 12490 H 1171.81 1.4255 1.57459 0
M  V30 12491 H 1174.07 0.588504 0.743214 0
M  V30 12492 H 1173.78 1.68844 3.0852 0
M  V30 12493 H 1173.65 0.0782404 3.77119 0
M  V30 12494 H 1176.04 -0.430065 2.91949 0
M  V30 12495 H 1176.12 1.2078 2.2549 0
M  V30 12496 H 1175.76 2.15297 4.6001 0
M  V30 12497 H 1175.69 0.492933 5.24288 0
M  V30 12498 H 1178.18 0.753526 3.70311 0
M  V30 12499 H 1178.5 2.14863 7.4233 0
M  V30 12500 H 1176.84 1.92564 6.6779 0
M  V30 12501 H 1180.03 1.01579 4.56946 0
M  V30 12502 H 1180.21 1.65175 6.26595 0
M  V30 12503 N 1173.61 -1.56489 0.186789 0
M  V30 12504 C 1174.54 -2.21705 -0.732739 0
M  V30 12505 C 1175.52 -1.17751 -1.22755 0
M  V30 12506 O 1176.71 -1.46231 -1.27789 0
M  V30 12507 C 1173.84 -2.86992 -1.95584 0
M  V30 12508 C 1172.79 -3.97118 -1.59628 0
M  V30 12509 C 1172.12 -4.49529 -2.89531 0
M  V30 12510 C 1173.42 -5.15941 -0.812518 0
M  V30 12511 H 1175.11 -2.98802 -0.189094 0
M  V30 12512 H 1172.66 -1.43722 -0.0895099 0
M  V30 12513 H 1174.61 -3.31295 -2.60426 0
M  V30 12514 H 1173.33 -2.07287 -2.52388 0
M  V30 12515 H 1171.99 -3.53494 -0.971475 0
M  V30 12516 H 1171.64 -3.66596 -3.44407 0
M  V30 12517 H 1171.34 -5.23832 -2.66221 0
M  V30 12518 H 1172.87 -4.96528 -3.55376 0
M  V30 12519 H 1174.28 -5.56841 -1.36386 0
M  V30 12520 H 1172.68 -5.96259 -0.677862 0
M  V30 12521 H 1173.75 -4.84535 0.188095 0
M  V30 12522 N 1175.09 0.086862 -1.5736 0
M  V30 12523 C 1176.34 0.787281 -1.86135 0
M  V30 12524 C 1176.66 1.78866 -0.776667 0
M  V30 12525 O 1175.93 1.94915 0.19625 0
M  V30 12526 H 1174.51 0.293744 -0.686821 0
M  V30 12527 H 1177.17 0.0665326 -1.94786 0
M  V30 12528 H 1176.27 1.3128 -2.83147 0
M  V30 12529 N 1176.57 1.53483 0.357892 0
M  V30 12530 C 1177.5 1.83444 1.44466 0
M  V30 12531 C 1178.48 0.688486 1.55544 0
M  V30 12532 O 1179.66 0.93906 1.69986 0
M  V30 12533 C 1176.79 2.03122 2.81707 0
M  V30 12534 C 1175.75 3.1891 2.85448 0
M  V30 12535 C 1175.07 3.23895 4.25436 0
M  V30 12536 C 1176.37 4.57334 2.52275 0
M  V30 12537 H 1178.07 2.74456 1.19642 0
M  V30 12538 H 1175.61 1.3206 0.574112 0
M  V30 12539 H 1177.57 2.22666 3.57768 0
M  V30 12540 H 1176.29 1.08827 3.07935 0
M  V30 12541 H 1174.95 2.99199 2.11838 0
M  V30 12542 H 1174.6 2.27223 4.48753 0
M  V30 12543 H 1174.3 4.01694 4.28854 0
M  V30 12544 H 1175.82 3.45632 5.0336 0
M  V30 12545 H 1177.24 4.76988 3.1805 0
M  V30 12546 H 1175.63 5.37431 2.66998 0
M  V30 12547 H 1176.7 4.61921 1.47501 0
M  V30 12548 N 1178.05 -0.61812 1.44973 0
M  V30 12549 C 1179.28 -1.40225 1.51725 0
M  V30 12550 C 1179.68 -1.88643 0.145098 0
M  V30 12551 O 1179.03 -1.62237 -0.861677 0
M  V30 12552 C 1179.09 -2.64808 2.4314 0
M  V30 12553 C 1178.75 -2.381 3.90073 0
M  V30 12554 C 1179.75 -1.99116 4.80259 0
M  V30 12555 C 1177.43 -2.51338 4.34896 0
M  V30 12556 C 1179.43 -1.73716 6.13271 0
M  V30 12557 C 1177.12 -2.25552 5.67952 0
M  V30 12558 C 1178.11 -1.86801 6.56958 0
M  V30 12559 O 1177.8 -1.6131 7.8755 0
M  V30 12560 H 1177.53 -0.436024 0.516584 0
M  V30 12561 H 1180.09 -0.761929 1.90745 0
M  V30 12562 H 1178.32 -3.31524 1.9907 0
M  V30 12563 H 1180.01 -3.26835 2.40694 0
M  V30 12564 H 1180.77 -1.88435 4.46897 0
M  V30 12565 H 1176.65 -2.80468 3.65867 0
M  V30 12566 H 1180.2 -1.43395 6.82703 0
M  V30 12567 H 1176.09 -2.35847 6.00872 0
M  V30 12568 H 1176.86 -1.75449 7.99475 0
M  V30 12569 N 1179.52 -1.32087 -0.859693 0
M  V30 12570 C 1180.94 -1.10968 -1.14709 0
M  V30 12571 C 1181.14 0.113139 -2.01182 0
M  V30 12572 O 1180.2 0.799499 -2.39508 0
M  V30 12573 C 1181.51 -2.38657 -1.8293 0
M  V30 12574 C 1183.06 -2.44366 -1.95587 0
M  V30 12575 C 1183.53 -3.71963 -2.67222 0
M  V30 12576 N 1185.02 -3.72916 -2.7475 0
M  V30 12577 C 1185.76 -4.68346 -3.30816 0
M  V30 12578 N 1185.25 -5.74139 -3.87732 0
M  V30 12579 N 1187.05 -4.55851 -3.28872 0
M  V30 12580 H 1179.2 -2.10497 -0.283711 0
M  V30 12581 H 1181.46 -0.929108 -0.188315 0
M  V30 12582 H 1181.17 -3.2803 -1.26844 0
M  V30 12583 H 1181.04 -2.49236 -2.83128 0
M  V30 12584 H 1183.43 -1.55456 -2.50833 0
M  V30 12585 H 1183.51 -2.37744 -0.944001 0
M  V30 12586 H 1183.15 -4.61245 -2.1264 0
M  V30 12587 H 1183.08 -3.75855 -3.68837 0
M  V30 12588 H 1185.57 -2.96447 -2.34367 0
M  V30 12589 H 1185.89 -6.43021 -4.28654 0
M  V30 12590 H 1184.23 -5.779 -3.86078 0
M  V30 12591 H 1187.42 -3.72371 -2.83651 0
M  V30 12592 H 1187.6 -5.30398 -3.72266 0
M  V30 12593 N 1181 1.07532 -1.15215 0
M  V30 12594 C 1182.41 1.61567 -0.935568 0
M  V30 12595 C 1182.76 1.89085 0.523557 0
M  V30 12596 O 1181.89 1.65495 1.39429 0
M  V30 12597 C 1182.48 2.93531 -1.69189 0
M  V30 12598 C 1181.04 3.44316 -1.52063 0
M  V30 12599 C 1180.19 2.18404 -1.70866 0
M  V30 12600 H 1183.14 0.906431 -1.30267 0
M  V30 12601 H 1183.16 3.62377 -1.16031 0
M  V30 12602 H 1182.67 2.73471 -2.75381 0
M  V30 12603 H 1180.77 3.69462 -0.482567 0
M  V30 12604 H 1180.89 4.20478 -2.29642 0
M  V30 12605 H 1179.25 2.28012 -1.13502 0
M  V30 12606 H 1180.03 2.00841 -2.7842 0
M  V30 12607 N 1182.48 0.948665 1.2585 0
M  V30 12608 C 1183.41 0.482036 2.2847 0
M  V30 12609 C 1184.39 -0.468553 1.63519 0
M  V30 12610 O 1185.58 -0.368796 1.90666 0
M  V30 12611 C 1182.71 -0.246603 3.46423 0
M  V30 12612 C 1181.66 0.61815 4.23513 0
M  V30 12613 C 1180.99 -0.240884 5.34157 0
M  V30 12614 C 1182.29 1.89327 4.86778 0
M  V30 12615 H 1183.98 1.33973 2.67753 0
M  V30 12616 H 1181.53 0.645645 1.28715 0
M  V30 12617 H 1183.48 -0.584135 4.17332 0
M  V30 12618 H 1182.2 -1.13849 3.06114 0
M  V30 12619 H 1180.86 0.938682 3.54379 0
M  V30 12620 H 1180.51 -1.13235 4.90089 0
M  V30 12621 H 1180.21 0.334367 5.86648 0
M  V30 12622 H 1181.73 -0.573517 6.07901 0
M  V30 12623 H 1183.15 1.62252 5.49861 0
M  V30 12624 H 1181.55 2.41369 5.49419 0
M  V30 12625 H 1182.62 2.60006 4.09298 0
M  V30 12626 N 1183.96 -1.40369 0.716545 0
M  V30 12627 C 1184.89 -2.33365 0.0793533 0
M  V30 12628 C 1185.87 -1.52943 -0.744482 0
M  V30 12629 O 1187.05 -1.81406 -0.693212 0
M  V30 12630 C 1184.18 -3.36928 -0.842429 0
M  V30 12631 C 1183.14 -4.2782 -0.124142 0
M  V30 12632 C 1182.46 -5.21928 -1.1617 0
M  V30 12633 C 1183.76 -5.12199 1.02224 0
M  V30 12634 H 1185.46 -2.86899 0.856115 0
M  V30 12635 H 1183 -1.37946 0.413138 0
M  V30 12636 H 1184.96 -4.00925 -1.29759 0
M  V30 12637 H 1183.68 -2.81791 -1.6511 0
M  V30 12638 H 1182.34 -3.65277 0.311201 0
M  V30 12639 H 1181.99 -4.63096 -1.96345 0
M  V30 12640 H 1181.69 -5.83582 -0.685978 0
M  V30 12641 H 1183.21 -5.88802 -1.61694 0
M  V30 12642 H 1184.63 -5.69644 0.646399 0
M  V30 12643 H 1183.02 -5.82901 1.4264 0
M  V30 12644 H 1184.09 -4.4812 1.85246 0
M  V30 12645 N 1185.44 -0.462799 -1.50652 0
M  V30 12646 C 1186.85 -0.11648 -1.59174 0
M  V30 12647 C 1187.05 1.37638 -1.47167 0
M  V30 12648 O 1186.11 2.14886 -1.3259 0
M  V30 12649 C 1187.42 -0.659289 -2.93383 0
M  V30 12650 C 1188.97 -0.62198 -3.06758 0
M  V30 12651 C 1189.44 -1.14219 -4.43529 0
M  V30 12652 N 1190.94 -1.10125 -4.49919 0
M  V30 12653 C 1191.67 -1.47436 -5.54121 0
M  V30 12654 N 1191.17 -1.92156 -6.65618 0
M  V30 12655 N 1192.96 -1.39091 -5.44619 0
M  V30 12656 H 1185.11 -1.43383 -1.56701 0
M  V30 12657 H 1187.37 -0.592438 -0.740082 0
M  V30 12658 H 1187.08 -1.70477 -3.07621 0
M  V30 12659 H 1186.95 -0.0982388 -3.77072 0
M  V30 12660 H 1189.34 0.414576 -2.92173 0
M  V30 12661 H 1189.42 -1.21974 -2.24847 0
M  V30 12662 H 1189.07 -2.17734 -4.58862 0
M  V30 12663 H 1189 -0.52073 -5.24019 0
M  V30 12664 H 1191.49 -0.773154 -3.69906 0
M  V30 12665 H 1191.8 -2.18796 -7.4118 0
M  V30 12666 H 1190.14 -1.96103 -6.6676 0
M  V30 12667 H 1193.34 -1.04001 -4.564 0
M  V30 12668 H 1193.51 -1.68496 -6.2571 0
M  V30 12669 N 1186.91 1.56388 -0.195085 0
M  V30 12670 C 1187.84 2.22091 0.720971 0
M  V30 12671 C 1188.83 1.184 1.22128 0
M  V30 12672 O 1190.01 1.46907 1.27012 0
M  V30 12673 C 1187.14 2.88025 1.94059 0
M  V30 12674 C 1186.09 3.97959 1.5752 0
M  V30 12675 C 1185.42 4.51058 2.87143 0
M  V30 12676 C 1186.72 5.16365 0.785145 0
M  V30 12677 H 1188.41 2.98898 0.173245 0
M  V30 12678 H 1185.96 1.43767 0.0818868 0
M  V30 12679 H 1187.91 3.32671 2.58666 0
M  V30 12680 H 1186.64 2.08623 2.51285 0
M  V30 12681 H 1185.3 3.54004 0.952715 0
M  V30 12682 H 1184.94 3.68418 3.42458 0
M  V30 12683 H 1184.64 5.25237 2.63439 0
M  V30 12684 H 1186.17 4.98406 3.52738 0
M  V30 12685 H 1187.58 5.57556 1.33431 0
M  V30 12686 H 1185.98 5.9661 0.646231 0
M  V30 12687 H 1187.05 4.84428 -0.213789 0
M  V30 12688 N 1188.39 -0.0785156 1.57404 0
M  V30 12689 C 1189.8 -0.631132 1.75709 0
M  V30 12690 C 1190.15 -1.78261 0.819605 0
M  V30 12691 O 1189.28 -2.164 0.00206912 0
M  V30 12692 C 1189.87 -1.15168 3.18625 0
M  V30 12693 C 1188.43 -1.65021 3.38297 0
M  V30 12694 C 1187.58 -0.566773 2.71446 0
M  V30 12695 H 1190.53 0.147631 1.58012 0
M  V30 12696 H 1190.55 -2.02065 3.22413 0
M  V30 12697 H 1190.06 -0.313399 3.86833 0
M  V30 12698 H 1188.17 -2.51196 2.75194 0
M  V30 12699 H 1188.28 -1.73179 4.46706 0
M  V30 12700 H 1186.64 -1.01021 2.33809 0
M  V30 12701 H 1187.43 0.261204 3.42305 0
M  V30 12702 N 1189.87 -1.5367 -0.349747 0
M  V30 12703 C 1191.12 -1.70618 -1.09068 0
M  V30 12704 C 1191.45 -0.466133 -1.88832 0
M  V30 12705 O 1190.7 0.552079 -1.87751 0
M  V30 12706 C 1191 -2.91753 -2.06434 0
M  V30 12707 C 1190.67 -4.27614 -1.43029 0
M  V30 12708 C 1189.33 -4.64555 -1.25466 0
M  V30 12709 C 1191.68 -5.12037 -0.972987 0
M  V30 12710 C 1189.01 -5.83543 -0.607807 0
M  V30 12711 C 1191.36 -6.31685 -0.340073 0
M  V30 12712 C 1190.02 -6.67327 -0.152069 0
M  V30 12713 H 1189.29 -0.624334 -0.399108 0
M  V30 12714 H 1191.94 -1.87879 -0.370657 0
M  V30 12715 H 1190.25 -2.6907 -2.84796 0
M  V30 12716 H 1191.94 -3.02059 -2.63744 0
M  V30 12717 H 1188.53 -3.98535 -1.57696 0
M  V30 12718 H 1192.72 -4.84035 -1.09655 0
M  V30 12719 H 1187.97 -6.09737 -0.450705 0
M  V30 12720 H 1192.15 -6.96396 0.0223973 0
M  V30 12721 H 1189.77 -7.59388 0.35121 0
M  V30 12722 N 1191.35 0.610423 -1.45298 0
M  V30 12723 C 1192.28 1.73507 -1.4976 0
M  V30 12724 C 1193.29 1.58092 -0.38867 0
M  V30 12725 O 1194.48 1.66026 -0.655571 0
M  V30 12726 C 1191.58 3.11475 -1.33554 0
M  V30 12727 C 1190.76 3.53156 -2.5807 0
M  V30 12728 C 1189.81 4.70076 -2.36463 0
M  V30 12729 O 1188.84 4.77337 -3.10061 0
M  V30 12730 N 1190.04 5.63155 -1.40843 0
M  V30 12731 H 1192.81 1.70144 -2.46721 0
M  V30 12732 H 1190.37 0.79562 -1.41002 0
M  V30 12733 H 1192.36 3.87444 -1.16914 0
M  V30 12734 H 1190.93 3.09361 -0.448803 0
M  V30 12735 H 1190.15 2.67178 -2.89844 0
M  V30 12736 H 1191.44 3.77761 -3.40843 0
M  V30 12737 H 1190.84 5.60001 -0.800982 0
M  V30 12738 H 1189.39 6.38669 -1.30175 0
M  V30 12739 N 1192.83 1.32541 0.852676 0
M  V30 12740 C 1194.24 1.20863 1.42299 0
M  V30 12741 C 1194.59 -0.178051 1.9539 0
M  V30 12742 O 1193.71 -1.07689 1.87702 0
M  V30 12743 C 1194.31 2.18811 2.58664 0
M  V30 12744 C 1192.87 2.11015 3.11689 0
M  V30 12745 C 1192.01 2.07067 1.84441 0
M  V30 12746 H 1194.97 1.44341 0.659657 0
M  V30 12747 H 1194.99 1.78779 3.35884 0
M  V30 12748 H 1194.5 3.19726 2.19993 0
M  V30 12749 H 1192.6 1.13354 3.54939 0
M  V30 12750 H 1192.71 3.00929 3.72799 0
M  V30 12751 H 1191.08 1.52335 2.04123 0
M  V30 12752 H 1191.86 3.09767 1.47984 0
M  V30 12753 N 1194.3 -1.0692 1.15784 0
M  V30 12754 C 1195.53 -1.8331 0.959422 0
M  V30 12755 C 1195.95 -1.82268 -0.492332 0
M  V30 12756 O 1195.3 -1.23727 -1.34156 0
M  V30 12757 C 1195.36 -3.30202 1.47135 0
M  V30 12758 O 1195.08 -3.31328 2.86624 0
M  V30 12759 C 1196.58 -4.23346 1.31504 0
M  V30 12760 H 1193.8 -0.578202 0.340475 0
M  V30 12761 H 1196.34 -1.34939 1.53661 0
M  V30 12762 H 1194.5 -3.75908 0.936587 0
M  V30 12763 H 1194.91 -4.23135 3.0993 0
M  V30 12764 H 1196.38 -5.24465 1.72163 0
M  V30 12765 H 1196.86 -4.38431 0.259773 0
M  V30 12766 H 1197.47 -3.8348 1.83911 0
M  V30 12767 N 1195.78 -0.955326 -1.25345 0
M  V30 12768 C 1197.01 -0.627693 -1.97149 0
M  V30 12769 C 1197.43 0.800349 -1.70997 0
M  V30 12770 O 1196.78 1.53545 -0.986417 0
M  V30 12771 C 1196.83 -0.877675 -3.50684 0
M  V30 12772 O 1196.55 -2.24957 -3.75934 0
M  V30 12773 C 1198.06 -0.562524 -4.39716 0
M  V30 12774 H 1195.28 -0.235269 -0.628402 0
M  V30 12775 H 1197.82 -1.27989 -1.59496 0
M  V30 12776 H 1195.97 -0.271878 -3.86445 0
M  V30 12777 H 1196.39 -2.32022 -4.70389 0
M  V30 12778 H 1197.86 -0.787972 -5.46347 0
M  V30 12779 H 1198.34 0.50293 -4.36311 0
M  V30 12780 H 1198.95 -1.14767 -4.09522 0
M  V30 12781 N 1197.26 1.39987 -0.723979 0
M  V30 12782 C 1198.51 2.00334 -0.266587 0
M  V30 12783 C 1198.83 1.57714 1.14679 0
M  V30 12784 O 1198.1 0.82037 1.77895 0
M  V30 12785 H 1196.68 0.740861 -0.095573 0
M  V30 12786 H 1199.34 1.712 -0.931481 0
M  V30 12787 H 1198.44 3.10594 -0.306282 0
M  V30 12788 N 1198.74 0.470782 1.50404 0
M  V30 12789 C 1200.16 0.124919 1.5911 0
M  V30 12790 C 1200.36 -1.36855 1.47895 0
M  V30 12791 O 1199.41 -2.1418 1.33728 0
M  V30 12792 C 1200.72 0.674839 2.9303 0
M  V30 12793 C 1202.27 0.638239 3.06424 0
M  V30 12794 C 1202.75 1.1657 4.42917 0
M  V30 12795 N 1204.24 1.1251 4.49328 0
M  V30 12796 C 1204.97 1.50373 5.53331 0
M  V30 12797 N 1204.47 1.95684 6.6459 0
M  V30 12798 N 1206.26 1.41978 5.43874 0
M  V30 12799 H 1198.41 1.44212 1.55938 0
M  V30 12800 H 1200.68 0.596354 0.73693 0
M  V30 12801 H 1200.38 1.72106 3.06712 0
M  V30 12802 H 1200.26 0.118234 3.77015 0
M  V30 12803 H 1202.64 -0.399075 2.92389 0
M  V30 12804 H 1202.72 1.23164 2.24197 0
M  V30 12805 H 1202.37 2.20164 4.57701 0
M  V30 12806 H 1202.3 0.548513 5.23736 0
M  V30 12807 H 1204.79 0.79276 3.69491 0
M  V30 12808 H 1205.1 2.22724 7.40009 0
M  V30 12809 H 1203.45 1.99636 6.65711 0
M  V30 12810 H 1206.64 1.0642 4.55842 0
M  V30 12811 H 1206.81 1.71812 6.24808 0
M  V30 12812 N 1200.22 -1.56282 0.203376 0
M  V30 12813 C 1201.45 -2.02198 -0.438572 0
M  V30 12814 C 1201.86 -1.08343 -1.54619 0
M  V30 12815 O 1201.22 -0.0897594 -1.82279 0
M  V30 12816 C 1201.27 -3.4776 -0.987184 0
M  V30 12817 O 1200.99 -4.38034 0.0762552 0
M  V30 12818 C 1202.49 -4.09234 -1.70419 0
M  V30 12819 H 1199.71 -0.662041 -0.109282 0
M  V30 12820 H 1202.25 -2.02067 0.314509 0
M  V30 12821 H 1200.41 -3.48564 -1.69061 0
M  V30 12822 H 1200.82 -5.2344 -0.333322 0
M  V30 12823 H 1202.3 -5.1291 -2.04027 0
M  V30 12824 H 1202.77 -3.53172 -2.61087 0
M  V30 12825 H 1203.38 -4.12226 -1.04641 0
M  V30 12826 N 1201.7 0.070167 -1.57444 0
M  V30 12827 C 1202.92 0.785703 -1.91941 0
M  V30 12828 C 1203.35 1.70243 -0.799932 0
M  V30 12829 O 1202.7 1.79608 0.247139 0
M  V30 12830 C 1202.75 1.55398 -3.25398 0
M  V30 12831 O 1201.86 2.66475 -3.14746 0
M  V30 12832 H 1201.2 0.214245 -0.628486 0
M  V30 12833 H 1203.73 0.0379243 -2.04565 0
M  V30 12834 H 1203.74 1.93287 -3.5931 0
M  V30 12835 H 1202.41 0.881366 -4.06454 0
M  V30 12836 H 1200.99 2.3143 -2.92394 0
M  V30 12837 N 1203.17 1.53854 0.341593 0
M  V30 12838 C 1204.1 1.84966 1.42513 0
M  V30 12839 C 1205.08 0.704944 1.54805 0
M  V30 12840 O 1206.27 0.957036 1.68981 0
M  V30 12841 C 1203.4 2.06099 2.79536 0
M  V30 12842 C 1202.35 3.21919 2.82049 0
M  V30 12843 C 1201.68 3.28389 4.21977 0
M  V30 12844 C 1202.98 4.59984 2.4741 0
M  V30 12845 H 1204.67 2.7571 1.16724 0
M  V30 12846 H 1202.22 1.32662 0.560073 0
M  V30 12847 H 1204.17 2.26448 3.55386 0
M  V30 12848 H 1202.9 1.12087 3.06764 0
M  V30 12849 H 1201.56 3.01429 2.08653 0
M  V30 12850 H 1201.2 2.3197 4.46317 0
M  V30 12851 H 1200.9 4.0622 4.24569 0
M  V30 12852 H 1202.43 3.50951 4.99666 0
M  V30 12853 H 1203.84 4.80334 3.12973 0
M  V30 12854 H 1202.24 5.40233 2.61282 0
M  V30 12855 H 1203.31 4.6346 1.42594 0
M  V30 12856 N 1204.65 -0.602709 1.4562 0
M  V30 12857 C 1205.88 -1.38608 1.53203 0
M  V30 12858 C 1206.29 -1.88478 0.165098 0
M  V30 12859 O 1205.63 -1.63142 -0.844421 0
M  V30 12860 C 1205.69 -2.62214 2.45935 0
M  V30 12861 C 1205.36 -2.3395 3.92577 0
M  V30 12862 C 1206.36 -1.94011 4.82344 0
M  V30 12863 C 1204.04 -2.46711 4.37537 0
M  V30 12864 C 1206.03 -1.67202 6.15079 0
M  V30 12865 C 1203.72 -2.19515 5.70313 0
M  V30 12866 C 1204.72 -1.79823 6.58903 0
M  V30 12867 O 1204.41 -1.52948 7.89216 0
M  V30 12868 H 1204.14 -0.43052 0.52118 0
M  V30 12869 H 1206.69 -0.741655 1.91543 0
M  V30 12870 H 1204.92 -3.29394 2.02575 0
M  V30 12871 H 1206.61 -3.24264 2.44147 0
M  V30 12872 H 1207.38 -1.83684 4.48871 0
M  V30 12873 H 1203.26 -2.76572 3.68821 0
M  V30 12874 H 1206.8 -1.36146 6.84186 0
M  V30 12875 H 1202.7 -2.2946 6.03339 0
M  V30 12876 H 1203.47 -1.6696 8.01291 0
M  V30 12877 N 1206.13 -1.32992 -0.845635 0
M  V30 12878 C 1207.09 -1.22607 -1.9365 0
M  V30 12879 C 1208.09 -0.146812 -1.60128 0
M  V30 12880 O 1209.28 -0.397863 -1.69596 0
M  V30 12881 C 1206.41 -0.887677 -3.2914 0
M  V30 12882 H 1207.61 -2.19563 -2.04285 0
M  V30 12883 H 1205.16 -1.16952 -1.03691 0
M  V30 12884 H 1205.9 0.0796777 -3.24202 0
M  V30 12885 H 1205.68 -1.66808 -3.54849 0
M  V30 12886 H 1207.17 -0.83958 -4.09073 0
M  V30 12887 N 1207.61 1.06304 -1.1635 0
M  V30 12888 C 1208.88 1.75916 -0.855166 0
M  V30 12889 C 1209.26 2.0094 0.647024 0
M  V30 12890 O 1208.61 1.63642 1.59479 0
M  V30 12891 C 1208.82 3.06028 -1.67774 0
M  V30 12892 C 1210.17 3.80184 -1.89065 0
M  V30 12893 O 1211.19 3.15868 -1.64639 0
M  V30 12894 O 1210.05 4.95723 -2.30045 0
M  V30 12895 H 1207.15 0.764432 -0.315551 0
M  V30 12896 H 1209.69 1.12574 -1.26985 0
M  V30 12897 H 1208.47 2.83498 -2.69712 0
M  V30 12898 H 1208.09 3.77104 -1.26009 0
M  V30 12899 N 1209.09 0.96196 1.24836 0
M  V30 12900 C 1210.31 0.637709 1.97353 0
M  V30 12901 C 1210.74 -0.784919 1.7094 0
M  V30 12902 O 1210.09 -1.53188 0.969694 0
M  V30 12903 C 1210.14 0.911485 3.4889 0
M  V30 12904 O 1209.25 -0.00601668 4.124 0
M  V30 12905 H 1208.59 0.241685 0.618453 0
M  V30 12906 H 1211.12 1.29055 1.58764 0
M  V30 12907 H 1211.13 0.840702 3.99245 0
M  V30 12908 H 1209.8 1.9483 3.67442 0
M  V30 12909 H 1208.38 0.117597 3.72715 0
M  V30 12910 N 1210.56 -1.39601 0.731392 0
M  V30 12911 C 1211.97 -1.83424 0.348194 0
M  V30 12912 C 1212.33 -1.61106 -1.11979 0
M  V30 12913 O 1211.45 -1.1003 -1.86339 0
M  V30 12914 C 1212.05 -3.32982 0.6252 0
M  V30 12915 C 1210.6 -3.75238 0.295536 0
M  V30 12916 C 1209.75 -2.62642 0.88964 0
M  V30 12917 H 1212.7 -1.28644 0.929318 0
M  V30 12918 H 1212.72 -3.80357 -0.104254 0
M  V30 12919 H 1212.24 -3.49193 1.69368 0
M  V30 12920 H 1210.34 -3.64615 -0.767254 0
M  V30 12921 H 1210.45 -4.72781 0.775576 0
M  V30 12922 H 1208.81 -2.52726 0.316529 0
M  V30 12923 H 1209.6 -2.81661 1.96271 0
M  V30 12924 N 1212.04 -0.478751 -1.50152 0
M  V30 12925 C 1213.27 0.0732929 -2.0727 0
M  V30 12926 C 1213.69 1.32066 -1.33941 0
M  V30 12927 O 1213.05 1.7707 -0.389367 0
M  V30 12928 C 1213.1 0.332528 -3.59064 0
M  V30 12929 O 1212.2 1.41158 -3.8749 0
M  V30 12930 H 1211.54 -0.0163684 -0.663798 0
M  V30 12931 H 1214.07 -0.671993 -1.9325 0
M  V30 12932 H 1214.08 0.570735 -4.03988 0
M  V30 12933 H 1212.76 -0.578934 -4.11851 0
M  V30 12934 H 1211.34 1.16008 -3.54396 0
M  V30 12935 N 1213.52 1.56172 -0.211661 0
M  V30 12936 C 1214.77 1.98332 0.423332 0
M  V30 12937 C 1215.1 1.09895 1.60115 0
M  V30 12938 O 1214.37 0.154477 1.93886 0
M  V30 12939 C 1214.66 3.49495 0.86747 0
M  V30 12940 C 1214.51 4.48708 -0.313302 0
M  V30 12941 C 1215.83 4.04793 1.72716 0
M  V30 12942 H 1212.95 0.72107 0.152402 0
M  V30 12943 H 1215.59 1.87521 -0.305912 0
M  V30 12944 H 1213.74 3.58839 1.48885 0
M  V30 12945 H 1215.41 4.51385 -0.951291 0
M  V30 12946 H 1213.66 4.2299 -0.96238 0
M  V30 12947 H 1214.33 5.51985 0.0402402 0
M  V30 12948 H 1216.8 3.98332 1.20296 0
M  V30 12949 H 1215.68 5.10898 2.00684 0
M  V30 12950 H 1215.94 3.51067 2.68709 0
M  V30 12951 N 1215 -0.0618163 1.57479 0
M  V30 12952 C 1216.41 -0.612461 1.76368 0
M  V30 12953 C 1216.76 -1.77381 0.838466 0
M  V30 12954 O 1215.89 -2.16386 0.0250211 0
M  V30 12955 C 1216.48 -1.11782 3.19829 0
M  V30 12956 C 1215.04 -1.61424 3.40028 0
M  V30 12957 C 1214.19 -0.53795 2.72032 0
M  V30 12958 H 1217.14 0.164382 1.57846 0
M  V30 12959 H 1217.16 -1.98634 3.24538 0
M  V30 12960 H 1216.67 -0.272353 3.87143 0
M  V30 12961 H 1214.77 -2.48263 2.77842 0
M  V30 12962 H 1214.88 -1.68431 4.48517 0
M  V30 12963 H 1213.25 -0.985355 2.34868 0
M  V30 12964 H 1214.03 0.297495 3.42009 0
M  V30 12965 N 1216.48 -1.54033 -0.333429 0
M  V30 12966 C 1217.7 -1.76031 -1.09672 0
M  V30 12967 C 1218.13 -0.502844 -1.81254 0
M  V30 12968 O 1217.48 0.54509 -1.72912 0
M  V30 12969 C 1217.53 -2.947 -2.07809 0
M  V30 12970 O 1216.64 -2.65555 -3.15522 0
M  V30 12971 H 1215.98 -0.583611 -0.316692 0
M  V30 12972 H 1218.51 -2.01026 -0.380732 0
M  V30 12973 H 1218.52 -3.21771 -2.50853 0
M  V30 12974 H 1217.19 -3.85895 -1.55106 0
M  V30 12975 H 1215.77 -2.49403 -2.77223 0
M  V30 12976 N 1217.95 0.594978 -1.45938 0
M  V30 12977 C 1218.9 1.69949 -1.51991 0
M  V30 12978 C 1219.89 1.56301 -0.381956 0
M  V30 12979 O 1221.08 1.65423 -0.62961 0
M  V30 12980 C 1218.21 3.08723 -1.5015 0
M  V30 12981 C 1217.3 3.27712 -2.69194 0
M  V30 12982 N 1217.69 3.1691 -3.9421 0
M  V30 12983 C 1215.98 3.58618 -2.65158 0
M  V30 12984 C 1216.69 3.37572 -4.7373 0
M  V30 12985 N 1215.66 3.62154 -4.05395 0
M  V30 12986 H 1219.46 1.60109 -2.46459 0
M  V30 12987 H 1216.98 0.798634 -1.41406 0
M  V30 12988 H 1218.97 3.87978 -1.52573 0
M  V30 12989 H 1217.63 3.19702 -0.567488 0
M  V30 12990 H 1218.65 2.95039 -4.25643 0
M  V30 12991 H 1215.32 3.76358 -1.80724 0
M  V30 12992 H 1216.71 3.34507 -5.82713 0
M  V30 12993 N 1219.43 1.33438 0.838571 0
M  V30 12994 C 1220.36 1.26344 1.96365 0
M  V30 12995 C 1221.34 0.143956 1.6949 0
M  V30 12996 O 1222.53 0.333779 1.9131 0
M  V30 12997 C 1219.66 1.0022 3.32526 0
M  V30 12998 C 1218.61 2.08466 3.73799 0
M  V30 12999 C 1217.94 1.67555 5.07769 0
M  V30 13000 C 1219.24 3.50144 3.87552 0
M  V30 13001 H 1220.93 2.20478 2.02558 0
M  V30 13002 H 1218.48 1.06139 0.973168 0
M  V30 13003 H 1220.43 0.939068 4.10803 0
M  V30 13004 H 1219.16 0.0252514 3.2659 0
M  V30 13005 H 1217.81 2.13822 2.97785 0
M  V30 13006 H 1217.46 0.685619 4.98305 0
M  V30 13007 H 1217.16 2.39993 5.36356 0
M  V30 13008 H 1218.69 1.62708 5.88522 0
M  V30 13009 H 1220.1 3.47287 4.56141 0
M  V30 13010 H 1218.5 4.21069 4.27575 0
M  V30 13011 H 1219.57 3.88628 2.89994 0
M  V30 13012 N 1220.91 -1.05686 1.16912 0
M  V30 13013 C 1222.32 -1.60059 0.961153 0
M  V30 13014 C 1222.67 -1.89894 -0.493409 0
M  V30 13015 O 1221.8 -1.67692 -1.36778 0
M  V30 13016 C 1222.39 -2.90803 1.73837 0
M  V30 13017 C 1220.95 -3.41854 1.57522 0
M  V30 13018 C 1220.1 -2.15658 1.74319 0
M  V30 13019 H 1223.05 -0.885592 1.31693 0
M  V30 13020 H 1223.07 -3.60485 1.21781 0
M  V30 13021 H 1222.58 -2.69056 2.79697 0
M  V30 13022 H 1220.68 -3.68647 0.541284 0
M  V30 13023 H 1220.8 -4.16771 2.36302 0
M  V30 13024 H 1219.16 -2.26177 1.17115 0
M  V30 13025 H 1219.94 -1.96386 2.8158 0
M  V30 13026 N 1222.39 -0.968567 -1.24324 0
M  V30 13027 C 1223.67 -0.547774 -1.87773 0
M  V30 13028 C 1224.05 0.975107 -1.87229 0
M  V30 13029 O 1223.39 1.84683 -1.34553 0
M  V30 13030 C 1223.6 -1.1403 -3.29846 0
M  V30 13031 C 1224.95 -1.22572 -4.06523 0
M  V30 13032 O 1225.98 -1.09287 -3.3902 0
M  V30 13033 O 1224.83 -1.43579 -5.27302 0
M  V30 13034 H 1221.93 -0.182771 -0.806551 0
M  V30 13035 H 1224.47 -1.06289 -1.3229 0
M  V30 13036 H 1223.25 -2.18303 -3.24745 0
M  V30 13037 H 1222.87 -0.609275 -3.92904 0
M  V30 13038 N 1223.87 1.39211 -0.738786 0
M  V30 13039 C 1225.28 1.54116 -0.414773 0
M  V30 13040 C 1225.48 1.70497 1.07392 0
M  V30 13041 O 1224.54 1.7076 1.86003 0
M  V30 13042 C 1225.85 2.7567 -1.2011 0
M  V30 13043 C 1227.4 2.89508 -1.1897 0
M  V30 13044 C 1227.87 4.14005 -1.95868 0
M  V30 13045 N 1229.37 4.21052 -1.93053 0
M  V30 13046 C 1230.1 5.16341 -2.49358 0
M  V30 13047 N 1229.6 6.17396 -3.14316 0
M  V30 13048 N 1231.39 5.08585 -2.3937 0
M  V30 13049 H 1223.54 1.26827 -1.70378 0
M  V30 13050 H 1225.8 0.614983 -0.721457 0
M  V30 13051 H 1225.51 2.69922 -2.25467 0
M  V30 13052 H 1225.38 3.68443 -0.808065 0
M  V30 13053 H 1227.77 2.94747 -0.144248 0
M  V30 13054 H 1227.85 1.97788 -1.62214 0
M  V30 13055 H 1227.5 4.09527 -3.00416 0
M  V30 13056 H 1227.43 5.04776 -1.50028 0
M  V30 13057 H 1229.92 3.48669 -1.45733 0
M  V30 13058 H 1230.23 6.86572 -3.54737 0
M  V30 13059 H 1228.57 6.17772 -3.18407 0
M  V30 13060 H 1231.77 4.28573 -1.88262 0
M  V30 13061 H 1231.94 5.8267 -2.83549 0
M  V30 13062 N 1225.34 0.486708 1.49896 0
M  V30 13063 C 1226.59 -0.0629451 2.02702 0
M  V30 13064 C 1226.92 -1.37956 1.36681 0
M  V30 13065 O 1226.2 -1.88025 0.497678 0
M  V30 13066 C 1226.48 -0.230461 3.59362 0
M  V30 13067 C 1226.33 1.10828 4.35933 0
M  V30 13068 C 1227.65 -0.977785 4.29101 0
M  V30 13069 H 1224.77 -0.0214017 0.736689 0
M  V30 13070 H 1227.41 0.635339 1.79063 0
M  V30 13071 H 1225.56 -0.825222 3.79634 0
M  V30 13072 H 1227.24 1.74082 4.27192 0
M  V30 13073 H 1225.48 1.7011 3.99055 0
M  V30 13074 H 1226.15 0.944532 5.43859 0
M  V30 13075 H 1228.63 -0.473505 4.13397 0
M  V30 13076 H 1227.5 -1.06382 5.38492 0
M  V30 13077 H 1227.76 -2.01813 3.9335 0
M  V30 13078 N 1226.82 -1.56058 0.219941 0
M  V30 13079 C 1227.77 -2.16853 -0.704185 0
M  V30 13080 C 1228.76 -1.11639 -1.15869 0
M  V30 13081 O 1229.95 -1.37632 -1.11295 0
M  V30 13082 C 1227.08 -2.85073 -1.9128 0
M  V30 13083 C 1226.16 -3.9751 -1.47805 0
M  V30 13084 N 1226.56 -5.00121 -0.755792 0
M  V30 13085 C 1224.85 -4.0957 -1.76546 0
M  V30 13086 C 1225.55 -5.79241 -0.534332 0
M  V30 13087 N 1224.53 -5.32549 -1.09055 0
M  V30 13088 H 1228.33 -2.93547 -0.143914 0
M  V30 13089 H 1225.85 -1.62386 0.021133 0
M  V30 13090 H 1227.84 -3.27037 -2.58558 0
M  V30 13091 H 1226.5 -2.09874 -2.47756 0
M  V30 13092 H 1227.51 -5.16285 -0.408647 0
M  V30 13093 H 1224.19 -3.45521 -2.34353 0
M  V30 13094 H 1225.58 -6.71888 0.0404032 0
M  V30 13095 N 1228.3 0.053464 -1.57509 0
M  V30 13096 C 1229.55 0.749102 -1.88135 0
M  V30 13097 C 1229.88 1.76642 -0.814111 0
M  V30 13098 O 1229.13 1.94796 0.187845 0
M  V30 13099 C 1229.43 1.47666 -3.25468 0
M  V30 13100 C 1229.1 0.597619 -4.46922 0
M  V30 13101 C 1227.76 0.355429 -4.79886 0
M  V30 13102 C 1230.11 -0.0107869 -5.21199 0
M  V30 13103 C 1227.44 -0.504347 -5.84528 0
M  V30 13104 C 1229.79 -0.858123 -6.26753 0
M  V30 13105 C 1228.45 -1.11001 -6.58206 0
M  V30 13106 H 1227.72 0.274116 -0.688434 0
M  V30 13107 H 1230.37 0.00944162 -1.91498 0
M  V30 13108 H 1228.68 2.28901 -3.1798 0
M  V30 13109 H 1230.37 2.02002 -3.46404 0
M  V30 13110 H 1226.96 0.796526 -4.21134 0
M  V30 13111 H 1231.15 0.163404 -4.96031 0
M  V30 13112 H 1226.4 -0.708057 -6.07286 0
M  V30 13113 H 1230.58 -1.3362 -6.83461 0
M  V30 13114 H 1228.2 -1.77798 -7.39116 0
M  V30 13115 N 1229.78 1.54207 0.325255 0
M  V30 13116 C 1230.74 1.82757 1.38321 0
M  V30 13117 C 1231.74 0.699312 1.44797 0
M  V30 13118 O 1232.93 0.96762 1.44854 0
M  V30 13119 C 1230.06 1.98608 2.7707 0
M  V30 13120 H 1231.26 2.7728 1.14261 0
M  V30 13121 H 1228.81 1.45899 0.560647 0
M  V30 13122 H 1229.55 1.0629 3.06387 0
M  V30 13123 H 1229.33 2.80707 2.73763 0
M  V30 13124 H 1230.82 2.2215 3.53609 0
M  V30 13125 N 1231.26 -0.58723 1.46251 0
M  V30 13126 C 1232.48 -1.37661 1.55126 0
M  V30 13127 C 1232.91 -1.87123 0.191489 0
M  V30 13128 O 1232.27 -1.6131 -0.827576 0
M  V30 13129 C 1232.31 -2.54324 2.5564 0
M  V30 13130 O 1231.42 -3.55617 2.0883 0
M  V30 13131 H 1230.76 -0.410154 0.522178 0
M  V30 13132 H 1233.29 -0.712738 1.91784 0
M  V30 13133 H 1233.3 -3.01301 2.75103 0
M  V30 13134 H 1231.97 -2.17675 3.54387 0
M  V30 13135 H 1230.55 -3.15151 1.99335 0
M  V30 13136 N 1232.74 -1.33881 -0.831482 0
M  V30 13137 C 1234.15 -1.23112 -1.40358 0
M  V30 13138 C 1234.5 0.146944 -1.95649 0
M  V30 13139 O 1233.62 1.04689 -1.89391 0
M  V30 13140 C 1234.22 -2.22899 -2.5515 0
M  V30 13141 C 1232.78 -2.15946 -3.08292 0
M  V30 13142 C 1231.92 -2.09975 -1.81124 0
M  V30 13143 H 1234.87 -1.45372 -0.63661 0
M  V30 13144 H 1234.9 -1.841 -3.32997 0
M  V30 13145 H 1234.41 -3.23186 -2.14878 0
M  V30 13146 H 1232.51 -1.18987 -3.53091 0
M  V30 13147 H 1232.62 -3.06822 -3.67964 0
M  V30 13148 H 1230.99 -1.55564 -2.01673 0
M  V30 13149 H 1231.77 -3.12082 -1.43037 0
M  V30 13150 N 1234.21 1.05064 -1.1747 0
M  V30 13151 C 1235.14 2.14786 -0.915936 0
M  V30 13152 C 1236.12 1.69502 0.142561 0
M  V30 13153 O 1237.31 1.94198 -0.00794522 0
M  V30 13154 C 1234.44 3.44629 -0.429864 0
M  V30 13155 C 1233.39 4.03486 -1.42769 0
M  V30 13156 C 1232.72 5.28689 -0.799528 0
M  V30 13157 C 1234.02 4.40823 -2.80129 0
M  V30 13158 H 1235.71 2.3669 -1.83352 0
M  V30 13159 H 1233.26 1.13751 -0.882992 0
M  V30 13160 H 1235.21 4.20737 -0.236245 0
M  V30 13161 H 1233.94 3.22381 0.523263 0
M  V30 13162 H 1232.6 3.29449 -1.60808 0
M  V30 13163 H 1232.24 5.02744 0.160474 0
M  V30 13164 H 1231.94 5.69028 -1.46565 0
M  V30 13165 H 1233.47 6.07483 -0.616212 0
M  V30 13166 H 1234.88 5.07959 -2.65801 0
M  V30 13167 H 1233.28 4.92183 -3.43331 0
M  V30 13168 H 1234.35 3.51108 -3.34441 0
M  V30 13169 N 1235.69 0.975146 1.23809 0
M  V30 13170 C 1236.64 0.482305 2.2284 0
M  V30 13171 C 1237.63 -0.439787 1.54773 0
M  V30 13172 O 1238.82 -0.269496 1.74936 0
M  V30 13173 C 1235.95 -0.219056 3.426 0
M  V30 13174 C 1235.03 0.722299 4.17904 0
M  V30 13175 N 1235.42 1.86271 4.70252 0
M  V30 13176 C 1233.72 0.53457 4.42785 0
M  V30 13177 C 1234.42 2.45212 5.2749 0
M  V30 13178 N 1233.4 1.73652 5.15117 0
M  V30 13179 H 1237.2 1.35234 2.60939 0
M  V30 13180 H 1234.71 0.835162 1.3928 0
M  V30 13181 H 1236.71 -0.589401 4.12713 0
M  V30 13182 H 1235.37 -1.08544 3.0602 0
M  V30 13183 H 1236.38 2.24404 4.66758 0
M  V30 13184 H 1233.06 -0.287232 4.16511 0
M  V30 13185 H 1234.45 3.41491 5.78648 0
M  V30 13186 N 1237.17 -1.38817 0.746158 0
M  V30 13187 C 1238.42 -2.00577 0.299458 0
M  V30 13188 C 1238.75 -1.59087 -1.11378 0
M  V30 13189 O 1238.02 -0.824932 -1.7614 0
M  V30 13190 C 1238.31 -3.57713 0.413932 0
M  V30 13191 C 1238.16 -4.09189 1.86774 0
M  V30 13192 C 1239.48 -4.39659 -0.197082 0
M  V30 13193 H 1236.6 -0.728702 0.110285 0
M  V30 13194 H 1239.24 -1.64866 0.944408 0
M  V30 13195 H 1237.39 -3.88265 -0.135155 0
M  V30 13196 H 1239.06 -3.89311 2.47456 0
M  V30 13197 H 1237.3 -3.62333 2.38532 0
M  V30 13198 H 1237.98 -5.18305 1.89904 0
M  V30 13199 H 1240.45 -4.15216 0.271121 0
M  V30 13200 H 1239.33 -5.48832 -0.0867011 0
M  V30 13201 H 1239.59 -4.23028 -1.2845 0
M  V30 13202 N 1238.65 -0.49465 -1.49636 0
M  V30 13203 C 1239.61 0.276064 -2.27531 0
M  V30 13204 C 1240.61 0.899619 -1.3328 0
M  V30 13205 O 1241.8 0.765136 -1.56497 0
M  V30 13206 C 1238.93 1.39547 -3.1103 0
M  V30 13207 H 1240.13 -0.407381 -2.9712 0
M  V30 13208 H 1237.68 -0.249416 -1.54297 0
M  V30 13209 H 1238.41 2.11326 -2.45992 0
M  V30 13210 H 1238.2 0.953877 -3.8032 0
M  V30 13211 H 1239.69 1.93853 -3.69879 0
M  V30 13212 N 1240.13 1.55939 -0.228214 0
M  V30 13213 C 1241.37 1.99518 0.395485 0
M  V30 13214 C 1241.73 1.11339 1.56912 0
M  V30 13215 O 1241.02 0.164788 1.9089 0
M  V30 13216 C 1241.21 3.46581 0.872732 0
M  V30 13217 C 1241.04 4.48987 -0.253122 0
M  V30 13218 C 1239.81 5.0012 -0.721702 0
M  V30 13219 C 1242.01 5.02967 -1.0737 0
M  V30 13220 N 1239.99 5.86242 -1.82192 0
M  V30 13221 C 1241.36 5.86079 -2.02265 0
M  V30 13222 C 1243.42 4.85315 -1.11238 0
M  V30 13223 C 1242.12 6.53424 -3.00716 0
M  V30 13224 C 1244.15 5.53423 -2.0851 0
M  V30 13225 C 1243.51 6.36308 -3.02144 0
M  V30 13226 H 1239.61 0.774053 0.1112 0
M  V30 13227 H 1242.19 1.91681 -0.341512 0
M  V30 13228 H 1240.36 3.54852 1.57907 0
M  V30 13229 H 1242.1 3.77066 1.46981 0
M  V30 13230 H 1238.85 4.7259 -0.309119 0
M  V30 13231 H 1239.27 6.34003 -2.37423 0
M  V30 13232 H 1243.92 4.20881 -0.402389 0
M  V30 13233 H 1241.63 7.17035 -3.72674 0
M  V30 13234 H 1245.22 5.41727 -2.12186 0
M  V30 13235 H 1244.1 6.88081 -3.76183 0
M  V30 13236 N 1241.6 -0.0451101 1.57535 0
M  V30 13237 C 1243.02 -0.400463 1.54494 0
M  V30 13238 C 1243.22 -1.77584 0.952166 0
M  V30 13239 O 1242.28 -2.46069 0.566221 0
M  V30 13240 C 1243.59 -0.31703 2.99024 0
M  V30 13241 C 1245.14 -0.395284 3.10494 0
M  V30 13242 C 1245.61 -0.341475 4.56725 0
M  V30 13243 N 1247.1 -0.400755 4.61463 0
M  V30 13244 C 1247.84 -0.381757 5.72128 0
M  V30 13245 N 1247.33 -0.315995 6.92079 0
M  V30 13246 N 1249.13 -0.4303 5.60451 0
M  V30 13247 H 1241.28 0.855156 1.94424 0
M  V30 13248 H 1243.54 0.323618 0.891053 0
M  V30 13249 H 1243.25 0.627477 3.46057 0
M  V30 13250 H 1243.12 -1.11696 3.60283 0
M  V30 13251 H 1245.51 -1.33022 2.63418 0
M  V30 13252 H 1245.59 0.433709 2.52096 0
M  V30 13253 H 1245.23 0.589725 5.04465 0
M  V30 13254 H 1245.16 -1.18836 5.13016 0
M  V30 13255 H 1247.65 -0.454745 3.75154 0
M  V30 13256 H 1247.97 -0.306158 7.72193 0
M  V30 13257 H 1246.31 -0.282281 6.94427 0
M  V30 13258 H 1249.5 -0.479555 4.65637 0
M  V30 13259 H 1249.68 -0.412025 6.46689 0
M  V30 13260 N 1243.08 -1.54377 -0.317073 0
M  V30 13261 C 1244.49 -1.64062 -0.891105 0
M  V30 13262 C 1244.84 -0.538863 -1.88655 0
M  V30 13263 O 1243.97 0.32718 -2.13912 0
M  V30 13264 C 1244.56 -2.97395 -1.62302 0
M  V30 13265 C 1243.12 -3.09253 -2.14568 0
M  V30 13266 C 1242.27 -2.59664 -0.973146 0
M  V30 13267 H 1245.22 -1.58418 -0.0944829 0
M  V30 13268 H 1245.24 -2.87918 -2.48764 0
M  V30 13269 H 1244.75 -3.77562 -0.898268 0
M  V30 13270 H 1242.86 -2.33774 -2.90139 0
M  V30 13271 H 1242.97 -4.15159 -2.39123 0
M  V30 13272 H 1241.33 -2.15719 -1.35416 0
M  V30 13273 H 1242.12 -3.42294 -0.262611 0
M  V30 13274 N 1244.56 0.579466 -1.4656 0
M  V30 13275 C 1245.97 1.1616 -1.46164 0
M  V30 13276 C 1246.32 1.95134 -0.20423 0
M  V30 13277 O 1245.45 2.05022 0.692457 0
M  V30 13278 C 1246.04 2.11322 -2.64818 0
M  V30 13279 C 1244.6 2.64852 -2.67452 0
M  V30 13280 C 1243.75 1.40786 -2.38903 0
M  V30 13281 H 1246.7 0.367229 -1.54393 0
M  V30 13282 H 1246.72 2.94839 -2.4052 0
M  V30 13283 H 1246.23 1.53815 -3.56318 0
M  V30 13284 H 1244.33 3.26219 -1.80032 0
M  V30 13285 H 1244.45 3.07366 -3.67509 0
M  V30 13286 H 1242.81 1.70707 -1.89027 0
M  V30 13287 H 1243.59 0.851049 -3.32584 0
M  V30 13288 O 1246.08 1.44373 0.723796 0
M  V30 13289 H 1246.77 1.36511 1.37421 0
M  V30 END ATOM
M  V30 BEGIN BOND
M  V30 END BOND
M  V30 END CTAB
M  END
$$$$
