drugbank_target|P39304 3-keto-L-gulonate-6-phosphate decarboxylase UlaD (DB01655; DB01923; DB02630; DB03855; DB04034)
 OpenBabel12092119503D

  0  0  0     0  0            999 V3000
M  V30 BEGIN CTAB
M  V30 COUNTS 3319 3348 0 0 0
M  V30 BEGIN ATOM
M  V30 1 H -0.908 1.98254 -0.117106 0
M  V30 2 N 0 1.576 0 0
M  V30 3 C 0.933 2.03868 1.02534 0
M  V30 4 C 1.911 0.928543 1.3348 0
M  V30 5 O 3.095 1.19667 1.45644 0
M  V30 6 C 0.222 2.43627 2.35294 0
M  V30 7 C -0.732 3.65373 2.2001 0
M  V30 8 S 0.101 5.13292 1.52614 0
M  V30 9 C 1.257 5.56322 2.86805 0
M  V30 10 H 1.49 2.90518 0.631377 0
M  V30 11 H -0.977 1.52953 0.210867 0
M  V30 12 H 0.981 2.67203 3.11629 0
M  V30 13 H -0.358 1.57376 2.7183 0
M  V30 14 H -1.165 3.90944 3.18086 0
M  V30 15 H -1.563 3.418 1.51819 0
M  V30 16 H 0.729 5.58782 3.83104 0
M  V30 17 H 1.672 6.56266 2.65933 0
M  V30 18 H 2.08 4.83886 2.90714 0
M  V30 19 N 1.4781 -0.272755 1.55222 0
M  V30 20 C 2.7031 -1.02683 1.80197 0
M  V30 21 C 3.1281 -1.79142 0.573551 0
M  V30 22 O 2.4861 -1.74917 -0.476849 0
M  V30 23 C 2.5341 -1.9609 3.02624 0
M  V30 24 O 1.6381 -3.04863 2.77727 0
M  V30 25 H 0.9791 -0.293557 0.595584 0
M  V30 26 H 3.5091 -0.30159 2.02365 0
M  V30 27 H 3.5191 -2.38039 3.31363 0
M  V30 28 H 2.1941 -1.39851 3.91682 0
M  V30 29 H 0.7711 -2.67228 2.60084 0
M  V30 30 N 2.9562 -1.48159 -0.537278 0
M  V30 31 C 3.8862 -1.65029 -1.6519 0
M  V30 32 C 4.8672 -0.499281 -1.62607 0
M  V30 33 O 6.0522 -0.730972 -1.79918 0
M  V30 34 C 3.1822 -1.68303 -3.03795 0
M  V30 35 C 2.1362 -2.8283 -3.21234 0
M  V30 36 C 1.4622 -2.71189 -4.60826 0
M  V30 37 C 2.7622 -4.24211 -3.04701 0
M  V30 38 H 4.4562 -2.58341 -1.51328 0
M  V30 39 H 2.0022 -1.24325 -0.726585 0
M  V30 40 H 3.9552 -1.78693 -3.81637 0
M  V30 41 H 2.6792 -0.715635 -3.18663 0
M  V30 42 H 1.3382 -2.71983 -2.45807 0
M  V30 43 H 0.9862 -1.72435 -4.7252 0
M  V30 44 H 0.6862 -3.48035 -4.7344 0
M  V30 45 H 2.2102 -2.83537 -5.40777 0
M  V30 46 H 3.6242 -4.3593 -3.72341 0
M  V30 47 H 2.0212 -5.01998 -3.28813 0
M  V30 48 H 3.0912 -4.41184 -2.01209 0
M  V30 49 N 4.4343 0.785586 -1.36625 0
M  V30 50 C 5.8453 1.36101 -1.27803 0
M  V30 51 C 6.1963 1.96035 0.0804875 0
M  V30 52 O 5.3213 1.92834 0.982042 0
M  V30 53 C 5.9163 2.47442 -2.31426 0
M  V30 54 C 4.4753 3.00789 -2.26281 0
M  V30 55 C 3.6223 1.73896 -2.15999 0
M  V30 56 H 6.5733 0.586928 -1.47448 0
M  V30 57 H 6.5943 3.2656 -1.95291 0
M  V30 58 H 6.1063 2.03791 -3.30289 0
M  V30 59 H 4.2073 3.48851 -1.30896 0
M  V30 60 H 4.3203 3.57343 -3.19128 0
M  V30 61 H 2.6843 1.9628 -1.62316 0
M  V30 62 H 3.4673 1.32368 -3.16755 0
M  V30 63 N 5.9124 1.20967 1.01018 0
M  V30 64 C 6.8454 0.907578 2.09376 0
M  V30 65 C 7.8234 -0.142868 1.61971 0
M  V30 66 O 9.0074 -0.0150391 1.88494 0
M  V30 67 C 6.1344 0.361791 3.36762 0
M  V30 68 C 5.1804 1.39423 4.03068 0
M  V30 69 S 6.0134 2.96159 4.4615 0
M  V30 70 C 7.1694 2.43173 5.7673 0
M  V30 71 H 7.4024 1.82519 2.34678 0
M  V30 72 H 4.9354 1.03884 1.14225 0
M  V30 73 H 6.8934 0.0534523 4.10465 0
M  V30 74 H 5.5544 -0.53443 3.0952 0
M  V30 75 H 4.7474 0.961853 4.94737 0
M  V30 76 H 4.3494 1.65038 3.35617 0
M  V30 77 H 6.6414 1.83335 6.52223 0
M  V30 78 H 7.5844 3.33264 6.24773 0
M  V30 79 H 7.9924 1.85069 5.33301 0
M  V30 80 N 7.3905 -1.2043 1.01659 0
M  V30 81 C 8.3205 -2.25466 0.607226 0
M  V30 82 C 9.3015 -1.65853 -0.377716 0
M  V30 83 O 10.4865 -1.92409 -0.263149 0
M  V30 84 C 7.6165 -3.47256 -0.0552949 0
M  V30 85 C 6.5705 -4.19462 0.850632 0
M  V30 86 C 5.8965 -5.34673 0.0538859 0
M  V30 87 C 7.1965 -4.75603 2.15868 0
M  V30 88 H 8.8905 -2.59962 1.48526 0
M  V30 89 H 6.4365 -1.2496 0.715605 0
M  V30 90 H 8.3895 -4.19917 -0.353233 0
M  V30 91 H 7.1135 -3.11924 -0.968045 0
M  V30 92 H 5.7725 -3.48667 1.13257 0
M  V30 93 H 5.4205 -4.95585 -0.860514 0
M  V30 94 H 5.1205 -5.83913 0.657192 0
M  V30 95 H 6.6445 -6.10138 -0.237598 0
M  V30 96 H 8.0585 -5.40083 1.92311 0
M  V30 97 H 6.4555 -5.3528 2.71284 0
M  V30 98 H 7.5255 -3.94346 2.82169 0
M  V30 99 N 8.8686 -0.792821 -1.36206 0
M  V30 100 C 9.8006 -0.151469 -2.28699 0
M  V30 101 C 10.8136 0.641262 -1.49638 0
M  V30 102 O 12.0026 0.475885 -1.72039 0
M  V30 103 C 9.1026 0.808424 -3.29117 0
M  V30 104 C 8.2756 0.0650202 -4.37352 0
M  V30 105 C 7.3346 0.941358 -5.17711 0
M  V30 106 O 6.3606 0.397352 -5.67811 0
M  V30 107 N 7.5626 2.2652 -5.3448 0
M  V30 108 H 10.3276 -0.945982 -2.84379 0
M  V30 109 H 7.8886 -0.647032 -1.48409 0
M  V30 110 H 9.8806 1.3986 -3.79765 0
M  V30 111 H 8.4506 1.5038 -2.74052 0
M  V30 112 H 7.6706 -0.706255 -3.87822 0
M  V30 113 H 8.9586 -0.447847 -5.06825 0
M  V30 114 H 8.3566 2.73128 -4.95396 0
M  V30 115 H 6.9136 2.80493 -5.88359 0
M  V30 116 N 10.3467 1.47872 -0.545128 0
M  V30 117 C 11.5927 2.02793 -0.0166104 0
M  V30 118 C 11.9257 1.41987 1.32489 0
M  V30 119 O 11.2007 0.571045 1.85928 0
M  V30 120 C 11.4837 3.59989 0.0893294 0
M  V30 121 C 11.3367 4.3125 -1.27841 0
M  V30 122 C 12.6557 4.32606 0.808724 0
M  V30 123 H 9.7747 0.736962 -0.00751035 0
M  V30 124 H 12.4167 1.76433 -0.705085 0
M  V30 125 H 10.5667 3.82579 0.675681 0
M  V30 126 H 12.2387 4.20035 -1.90704 0
M  V30 127 H 10.4817 3.92076 -1.85632 0
M  V30 128 H 11.1527 5.39736 -1.15713 0
M  V30 129 H 13.6287 4.14936 0.310992 0
M  V30 130 H 12.5047 5.42251 0.851782 0
M  V30 131 H 12.7657 4.00963 1.86229 0
M  V30 132 N 11.8248 0.280983 1.55075 0
M  V30 133 C 12.7878 -0.590896 2.21452 0
M  V30 134 C 13.7878 -1.07682 1.19421 0
M  V30 135 O 14.9778 -0.97605 1.44288 0
M  V30 136 C 12.1098 -1.81587 2.88511 0
M  V30 137 H 13.3028 -0.0112554 2.99898 0
M  V30 138 H 10.8558 0.0316438 1.56268 0
M  V30 139 H 11.5908 -2.43587 2.14093 0
M  V30 140 H 11.3758 -1.4753 3.63287 0
M  V30 141 H 12.8658 -2.43575 3.39206 0
M  V30 142 N 13.3029 -1.57598 0.00835791 0
M  V30 143 C 14.2329 -2.1198 -0.979113 0
M  V30 144 C 15.2139 -1.03091 -1.35301 0
M  V30 145 O 16.3989 -1.30818 -1.43528 0
M  V30 146 C 13.5289 -2.62995 -2.26828 0
M  V30 147 C 12.4829 -3.76485 -2.03576 0
M  V30 148 C 11.8089 -4.13846 -3.38579 0
M  V30 149 C 13.1089 -5.0342 -1.39161 0
M  V30 150 H 14.8029 -2.94738 -0.526281 0
M  V30 151 H 12.3489 -1.41783 -0.251704 0
M  V30 152 H 14.3019 -2.99669 -2.96271 0
M  V30 153 H 13.0259 -1.7737 -2.7424 0
M  V30 154 H 11.6849 -3.40217 -1.36557 0
M  V30 155 H 11.3329 -3.25232 -3.83709 0
M  V30 156 H 11.0329 -4.90312 -3.23834 0
M  V30 157 H 12.5569 -4.53086 -4.09323 0
M  V30 158 H 13.9709 -5.37812 -1.98573 0
M  V30 159 H 12.3679 -5.84746 -1.34878 0
M  V30 160 H 13.4379 -4.83548 -0.361868 0
M  V30 161 N 14.781 0.264519 -1.55364 0
M  V30 162 C 16.058 1.01677 -1.67096 0
M  V30 163 C 16.438 2.03996 -0.543015 0
M  V30 164 O 15.786 2.23907 0.45585 0
M  V30 165 C 15.996 1.66596 -3.0667 0
M  V30 166 C 17.344 2.17442 -3.64697 0
M  V30 167 O 18.368 1.76568 -3.09358 0
M  V30 168 O 17.227 2.92439 -4.61673 0
M  V30 169 H 14.321 0.472161 -0.678965 0
M  V30 170 H 16.867 0.259703 -1.67701 0
M  V30 171 H 15.639 0.924962 -3.80211 0
M  V30 172 H 15.262 2.48968 -3.10001 0
M  V30 173 N 16.2591 1.48442 0.529413 0
M  V30 174 C 17.2071 1.63452 1.65487 0
M  V30 175 C 18.2011 0.500955 1.61823 0
M  V30 176 O 19.4071 0.679695 1.66674 0
M  V30 177 H 15.7821 0.514905 0.548066 0
M  V30 178 H 17.7531 2.57975 1.49971 0
M  V30 179 C 16.5021 1.69196 3.03756 0
M  V30 180 H 15.8251 2.55784 3.07269 0
M  V30 181 H 17.2651 1.83743 3.82119 0
M  V30 182 C 15.7241 0.430765 3.34135 0
M  V30 183 O 16.2541 -0.4561 3.99102 0
M  V30 184 N 14.4601 0.302293 2.89023 0
M  V30 185 H 14.0071 1.02496 2.36331 0
M  V30 186 H 13.9651 -0.540546 3.09718 0
M  V30 187 N 17.7372 -0.778329 1.37039 0
M  V30 188 C 18.6692 -1.90034 1.2814 0
M  V30 189 C 19.6822 -1.61585 0.198558 0
M  V30 190 O 20.8712 -1.72625 0.454175 0
M  V30 191 C 17.9712 -3.25108 0.956968 0
M  V30 192 C 17.1442 -3.81253 2.14394 0
M  V30 193 C 16.2032 -4.94789 1.79082 0
M  V30 194 O 15.2292 -5.10721 2.51301 0
M  V30 195 N 16.4312 -5.75878 0.731043 0
M  V30 196 H 19.1962 -1.98186 2.24816 0
M  V30 197 H 16.7572 -0.957129 1.30578 0
M  V30 198 H 18.7492 -3.9857 0.701701 0
M  V30 199 H 17.3192 -3.125 0.0789812 0
M  V30 200 H 16.5392 -2.99647 2.56135 0
M  V30 201 H 17.8272 -4.15495 2.93668 0
M  V30 202 H 17.2252 -5.65547 0.131618 0
M  V30 203 H 15.7822 -6.49596 0.535622 0
M  V30 204 N 19.2153 -1.21501 -1.00376 0
M  V30 205 C 20.4433 -1.059 -1.77744 0
M  V30 206 C 20.8583 0.391125 -1.84704 0
M  V30 207 O 20.2153 1.27133 -1.30933 0
M  V30 208 C 20.2663 -1.65111 -3.21591 0
M  V30 209 O 19.9873 -3.0445 -3.15027 0
M  V30 210 C 21.4883 -1.54637 -4.15454 0
M  V30 211 H 18.7083 -0.371825 -0.558558 0
M  V30 212 H 21.2523 -1.60865 -1.26264 0
M  V30 213 H 19.4073 -1.14235 -3.70175 0
M  V30 214 H 19.8213 -3.3278 -4.0541 0
M  V30 215 H 21.2953 -2.00808 -5.14179 0
M  V30 216 H 21.7723 -0.501022 -4.36333 0
M  V30 217 H 22.3783 -2.04767 -3.72761 0
M  V30 218 N 20.6934 1.19889 -1.02296 0
M  V30 219 C 21.6264 2.21639 -0.543282 0
M  V30 220 C 22.6044 1.57275 0.412698 0
M  V30 221 O 23.7884 1.85568 0.331198 0
M  V30 222 C 20.9154 3.38057 0.208571 0
M  V30 223 C 19.9614 4.20751 -0.697933 0
M  V30 224 S 20.7944 4.89529 -2.17075 0
M  V30 225 C 21.9504 6.09363 -1.42923 0
M  V30 226 H 22.1834 2.61984 -1.40541 0
M  V30 227 H 19.7164 1.30041 -0.832387 0
M  V30 228 H 21.6744 4.05539 0.63624 0
M  V30 229 H 20.3354 2.96159 1.04635 0
M  V30 230 H 19.5284 5.03862 -0.117831 0
M  V30 231 H 19.1304 3.58556 -1.06366 0
M  V30 232 H 21.4224 6.73742 -0.712637 0
M  V30 233 H 22.3654 6.71845 -2.23673 0
M  V30 234 H 22.7734 5.56798 -0.929327 0
M  V30 235 N 22.1715 0.800033 1.35784 0
M  V30 236 C 23.4485 0.30088 1.93272 0
M  V30 237 C 23.8285 -1.20857 1.73081 0
M  V30 238 O 23.1765 -2.00502 1.09596 0
M  V30 239 C 23.3865 0.70511 3.41803 0
M  V30 240 C 24.7345 0.690871 4.18942 0
M  V30 241 O 25.7585 0.646244 3.50289 0
M  V30 242 O 24.6175 0.74332 5.41421 0
M  V30 243 H 21.7115 0.0771605 0.823393 0
M  V30 244 H 24.2575 0.88329 1.449 0
M  V30 245 H 23.0295 1.74571 3.50201 0
M  V30 246 H 22.6525 0.0971541 3.97481 0
M  V30 247 N 23.6496 -1.47581 0.552962 0
M  V30 248 C 24.8746 -2.07378 0.0300593 0
M  V30 249 C 25.2996 -1.40355 -1.25229 0
M  V30 250 O 24.6576 -0.477099 -1.7491 0
M  V30 251 C 24.7056 -3.60274 -0.153231 0
M  V30 252 O 23.8096 -3.94041 -1.21678 0
M  V30 253 H 23.1506 -0.662158 0.0494182 0
M  V30 254 H 25.6806 -1.89662 0.767434 0
M  V30 255 H 25.6906 -4.0633 -0.368761 0
M  V30 256 H 24.3656 -4.08455 0.783397 0
M  V30 257 H 22.9426 -3.59735 -0.982079 0
M  V30 258 N 25.1277 -0.289203 -1.54924 0
M  V30 259 C 26.0907 0.579144 -2.21762 0
M  V30 260 C 27.0907 1.07047 -1.1999 0
M  V30 261 O 28.2807 0.968384 -1.44803 0
M  V30 262 C 25.4127 1.80055 -2.8947 0
M  V30 263 H 26.6057 -0.00464908 -2.999 0
M  V30 264 H 24.1587 -0.0399306 -1.56249 0
M  V30 265 H 24.8937 2.42449 -2.15381 0
M  V30 266 H 24.6787 1.45602 -3.64064 0
M  V30 267 H 26.1687 2.41773 -3.40493 0
M  V30 268 N 26.6058 1.57591 -0.0167156 0
M  V30 269 C 27.8358 1.95292 0.674149 0
M  V30 270 C 28.2438 0.891097 1.66901 0
M  V30 271 O 27.5868 -0.136908 1.83189 0
M  V30 272 C 27.6488 3.29072 1.44747 0
M  V30 273 C 27.3128 4.52879 0.612331 0
M  V30 274 C 28.3098 5.1979 -0.107126 0
M  V30 275 C 25.9948 4.99242 0.553381 0
M  V30 276 C 27.9888 6.31375 -0.874339 0
M  V30 277 C 25.6758 6.10713 -0.217546 0
M  V30 278 C 26.6738 6.76637 -0.930123 0
M  V30 279 O 26.3618 7.85969 -1.68844 0
M  V30 280 H 26.0938 0.648275 0.191615 0
M  V30 281 H 28.6478 2.05284 -0.0690148 0
M  V30 282 H 26.8778 3.15535 2.2355 0
M  V30 283 H 28.5668 3.51764 2.02526 0
M  V30 284 H 29.3328 4.84948 -0.0708392 0
M  V30 285 H 25.2118 4.47744 1.09757 0
M  V30 286 H 28.7558 6.82764 -1.43106 0
M  V30 287 H 24.6528 6.44994 -0.255593 0
M  V30 288 H 25.4208 8.02571 -1.6069 0
M  V30 289 N 28.0839 -0.256276 1.55502 0
M  V30 290 C 28.9939 -1.33882 1.92647 0
M  V30 291 C 30.0099 -1.53159 0.825727 0
M  V30 292 O 31.1859 -1.66963 1.12629 0
M  V30 293 C 28.2509 -2.6751 2.20543 0
M  V30 294 C 27.3119 -2.56836 3.43997 0
M  V30 295 C 26.5449 -3.84092 3.70553 0
M  V30 296 O 26.7679 -4.85545 2.99336 0
M  V30 297 O 25.7019 -3.83288 4.64084 0
M  V30 298 H 29.5279 -1.05374 2.84833 0
M  V30 299 H 27.1129 -0.456237 1.42263 0
M  V30 300 H 28.9949 -3.46492 2.39835 0
M  V30 301 H 27.6699 -2.9577 1.31536 0
M  V30 302 H 26.5769 -1.76172 3.30021 0
M  V30 303 H 27.9099 -2.33523 4.33275 0
M  V30 304 N 29.562 -1.4872 -0.521534 0
M  V30 305 C 30.79 -1.60843 -1.30142 0
M  V30 306 C 31.205 -0.271897 -1.86832 0
M  V30 307 O 30.562 0.739969 -1.66825 0
M  V30 308 C 30.613 -2.66155 -2.4463 0
M  V30 309 O 30.334 -3.94623 -1.90275 0
M  V30 310 C 31.835 -2.88795 -3.36322 0
M  V30 311 H 29.055 -0.542075 -0.395468 0
M  V30 312 H 31.599 -1.94609 -0.628285 0
M  V30 313 H 29.754 -2.35224 -3.07812 0
M  V30 314 H 30.168 -4.52468 -2.65279 0
M  V30 315 H 31.642 -3.66264 -4.12983 0
M  V30 316 H 32.119 -1.97934 -3.9207 0
M  V30 317 H 32.725 -3.21063 -2.78924 0
M  V30 318 N 31.0401 0.771051 -1.3745 0
M  V30 319 C 32.2681 1.56015 -1.35893 0
M  V30 320 C 32.6831 1.88718 0.0555523 0
M  V30 321 O 32.0401 1.51502 1.01752 0
M  V30 322 C 32.0911 2.87001 -2.19801 0
M  V30 323 O 31.8121 2.557 -3.55738 0
M  V30 324 C 33.3131 3.81228 -2.26231 0
M  V30 325 H 30.5331 0.483317 -0.465453 0
M  V30 326 H 33.0771 0.955611 -1.80799 0
M  V30 327 H 31.2321 3.43877 -1.78402 0
M  V30 328 H 31.6461 3.39584 -3.99729 0
M  V30 329 H 33.1201 4.70139 -2.89263 0
M  V30 330 H 33.5971 4.20409 -1.27093 0
M  V30 331 H 34.2031 3.30281 -2.67945 0
M  V30 332 N 32.5182 1.22032 0.997298 0
M  V30 333 C 33.9342 0.979326 1.26021 0
M  V30 334 C 34.1342 -0.32972 1.98784 0
M  V30 335 O 33.1902 -1.05345 2.29475 0
M  V30 336 C 34.5032 2.17509 2.07631 0
M  V30 337 C 36.0512 2.21817 2.2083 0
M  V30 338 C 36.5262 3.40933 3.05825 0
M  V30 339 N 38.0172 3.41067 3.13412 0
M  V30 340 C 38.7522 4.29885 3.79455 0
M  V30 341 N 38.2482 5.28914 4.47462 0
M  V30 342 N 40.0412 4.17673 3.76173 0
M  V30 343 H 32.1922 2.06202 0.509352 0
M  V30 344 H 34.4552 0.90334 0.287541 0
M  V30 345 H 34.1612 3.12415 1.61524 0
M  V30 346 H 34.0352 2.17206 3.08385 0
M  V30 347 H 36.4222 1.27462 2.66153 0
M  V30 348 H 36.5032 2.2616 1.1952 0
M  V30 349 H 36.1472 4.35586 2.61203 0
M  V30 350 H 36.0772 3.33829 4.07266 0
M  V30 351 H 38.5682 2.69406 2.65007 0
M  V30 352 H 38.8812 5.92973 4.95583 0
M  V30 353 H 37.2262 5.32831 4.46224 0
M  V30 354 H 40.4172 3.39564 3.22202 0
M  V30 355 H 40.5902 4.87098 4.27363 0
M  V30 356 N 33.9963 -1.19345 1.0293 0
M  V30 357 C 34.9263 -2.2481 0.631105 0
M  V30 358 C 35.9073 -1.66245 -0.360104 0
M  V30 359 O 37.0923 -1.92677 -0.242726 0
M  V30 360 C 34.2223 -3.47295 -0.0184607 0
M  V30 361 C 33.1763 -4.18536 0.895073 0
M  V30 362 C 32.5023 -5.34586 0.110592 0
M  V30 363 C 33.8023 -4.73287 2.209 0
M  V30 364 H 35.4963 -2.58372 1.51275 0
M  V30 365 H 33.0423 -1.24194 0.728818 0
M  V30 366 H 34.9953 -4.20268 -0.308675 0
M  V30 367 H 33.7193 -3.12933 -0.934907 0
M  V30 368 H 32.3783 -3.47446 1.16949 0
M  V30 369 H 32.0263 -4.96469 -0.807902 0
M  V30 370 H 31.7263 -5.83183 0.719087 0
M  V30 371 H 33.2503 -6.10355 -0.172871 0
M  V30 372 H 34.6643 -5.38013 1.98028 0
M  V30 373 H 33.0613 -5.32373 2.76946 0
M  V30 374 H 34.1313 -3.91331 2.86336 0
M  V30 375 N 35.4744 -0.807222 -1.35358 0
M  V30 376 C 36.7234 -0.384376 -1.98004 0
M  V30 377 C 37.0364 1.0543 -1.64754 0
M  V30 378 O 38.2424 1.58029 -2.20769 0
M  V30 379 C 36.6984 -0.636326 -3.5423 0
M  V30 380 C 36.3064 -2.08759 -3.96388 0
M  V30 381 C 38.0504 -0.278869 -4.23583 0
M  V30 382 C 35.9574 -2.28525 -5.45463 0
M  V30 383 H 34.8874 -0.139986 -0.740891 0
M  V30 384 H 37.5384 -0.991369 -1.54415 0
M  V30 385 H 35.9204 0.0406256 -3.95979 0
M  V30 386 H 37.0944 -2.8024 -3.6579 0
M  V30 387 H 35.4094 -2.40497 -3.39926 0
M  V30 388 H 38.0064 -0.404599 -5.33167 0
M  V30 389 H 38.3494 0.775012 -4.09022 0
M  V30 390 H 38.8824 -0.909764 -3.87257 0
M  V30 391 H 35.6214 -3.32361 -5.64992 0
M  V30 392 H 35.1414 -1.61569 -5.77629 0
M  V30 393 H 36.8204 -2.10109 -6.11934 0
M  V30 394 N 36.9525 1.47285 -0.560781 0
M  V30 395 C 37.9155 2.28535 0.174488 0
M  V30 396 C 38.9155 1.37153 0.839388 0
M  V30 397 O 40.1055 1.59748 0.694702 0
M  V30 398 C 37.2375 3.16934 1.25561 0
M  V30 399 H 38.4305 2.95012 -0.539262 0
M  V30 400 H 35.9835 1.53034 -0.317865 0
M  V30 401 H 36.7185 2.55157 2.00164 0
M  V30 402 H 36.5035 3.8419 0.783604 0
M  V30 403 H 37.9935 3.78143 1.77193 0
M  V30 404 N 38.4306 0.297415 1.54768 0
M  V30 405 C 39.3406 -0.58983 2.27064 0
M  V30 406 C 40.3566 -1.15144 1.30453 0
M  V30 407 O 41.5326 -1.17699 1.63428 0
M  V30 408 C 38.5976 -1.74714 2.9946 0
M  V30 409 C 37.6586 -1.21997 4.11601 0
M  V30 410 C 36.8916 -2.32212 4.80535 0
M  V30 411 O 37.1146 -3.52036 4.48806 0
M  V30 412 O 36.0486 -1.99106 5.68014 0
M  V30 413 H 39.8746 -0.00348199 3.037 0
M  V30 414 H 37.4596 0.0640035 1.49263 0
M  V30 415 H 39.3416 -2.42147 3.44881 0
M  V30 416 H 38.0166 -2.32016 2.25722 0
M  V30 417 H 36.9236 -0.511458 3.70587 0
M  V30 418 H 38.2566 -0.692419 4.87305 0
M  V30 419 N 39.9087 -1.5758 0.0250728 0
M  V30 420 C 40.8187 -2.1343 -0.973905 0
M  V30 421 C 41.8347 -1.08556 -1.35984 0
M  V30 422 O 43.0107 -1.40592 -1.44207 0
M  V30 423 C 40.0757 -2.64703 -2.23904 0
M  V30 424 C 39.1367 -3.84276 -1.91391 0
M  V30 425 C 38.3697 -4.33095 -3.11873 0
M  V30 426 O 38.5927 -3.81107 -4.24398 0
M  V30 427 O 37.5267 -5.24984 -2.94406 0
M  V30 428 H 41.3527 -2.99057 -0.529036 0
M  V30 429 H 38.9377 -1.48118 -0.195288 0
M  V30 430 H 40.8197 -2.97769 -2.98181 0
M  V30 431 H 39.4947 -1.82161 -2.6758 0
M  V30 432 H 38.4017 -3.56143 -1.14511 0
M  V30 433 H 39.7347 -4.67968 -1.52534 0
M  V30 434 N 41.3868 0.248026 -1.55636 0
M  V30 435 C 42.6328 0.97767 -1.77678 0
M  V30 436 C 42.9658 1.85016 -0.590135 0
M  V30 437 O 42.2408 1.90095 0.411611 0
M  V30 438 C 42.5238 1.83914 -3.09593 0
M  V30 439 C 42.3768 0.99491 -4.38659 0
M  V30 440 C 43.6958 2.82183 -3.37729 0
M  V30 441 H 40.8148 0.354005 -0.646413 0
M  V30 442 H 43.4568 0.248253 -1.88371 0
M  V30 443 H 41.6068 2.46104 -3.00608 0
M  V30 444 H 43.2788 0.391789 -4.59633 0
M  V30 445 H 41.5218 0.299231 -4.32767 0
M  V30 446 H 42.1928 1.63145 -5.2734 0
M  V30 447 H 44.6688 2.30129 -3.4667 0
M  V30 448 H 43.5448 3.39582 -4.31249 0
M  V30 449 H 43.8058 3.58588 -2.58586 0
M  V30 450 N 42.8649 1.48995 0.513639 0
M  V30 451 C 44.1419 1.48338 1.27495 0
M  V30 452 C 44.5219 0.204065 2.10111 0
M  V30 453 O 43.8699 -0.813881 2.13514 0
M  V30 454 C 44.0799 2.75498 2.14247 0
M  V30 455 C 45.4279 3.24484 2.73852 0
M  V30 456 O 46.4519 2.76528 2.24523 0
M  V30 457 O 45.3109 4.07974 3.6362 0
M  V30 458 H 42.4049 0.593149 0.576284 0
M  V30 459 H 44.9509 1.61246 0.528948 0
M  V30 460 H 43.7229 3.60109 1.53092 0
M  V30 461 H 43.3459 2.6539 2.96064 0
M  V30 462 N 44.343 -0.763751 1.37857 0
M  V30 463 C 45.592 -1.51789 1.32827 0
M  V30 464 C 45.905 -1.95426 -0.0823719 0
M  V30 465 O 47.111 -2.70298 -0.255172 0
M  V30 466 C 45.567 -2.74133 2.33193 0
M  V30 467 C 45.175 -2.37562 3.79827 0
M  V30 468 C 46.919 -3.52054 2.37188 0
M  V30 469 C 44.826 -3.56456 4.71904 0
M  V30 470 H 43.756 -0.569896 0.493695 0
M  V30 471 H 46.407 -0.835822 1.63359 0
M  V30 472 H 44.789 -3.4427 1.9569 0
M  V30 473 H 45.963 -1.75157 4.26212 0
M  V30 474 H 44.278 -1.72798 3.78853 0
M  V30 475 H 46.875 -4.40437 3.03182 0
M  V30 476 H 47.218 -3.92486 1.38782 0
M  V30 477 H 47.751 -2.88921 2.7344 0
M  V30 478 H 44.49 -3.21099 5.71468 0
M  V30 479 H 44.01 -4.17938 4.30218 0
M  V30 480 H 45.689 -4.23168 4.89426 0
M  V30 481 N 45.8211 -1.22559 -0.990812 0
M  V30 482 C 47.0701 -1.04553 -1.72486 0
M  V30 483 C 47.3831 0.419349 -1.91052 0
M  V30 484 O 48.5891 0.719121 -2.61803 0
M  V30 485 C 47.0451 -1.82231 -3.10355 0
M  V30 486 C 46.6531 -3.32981 -2.99713 0
M  V30 487 C 48.3971 -1.7268 -3.87791 0
M  V30 488 C 46.3041 -4.03091 -4.32748 0
M  V30 489 H 45.2341 -0.387614 -0.646739 0
M  V30 490 H 47.8851 -1.46429 -1.10593 0
M  V30 491 H 46.2671 -1.33155 -3.72942 0
M  V30 492 H 47.4411 -3.89466 -2.46278 0
M  V30 493 H 45.7561 -3.43231 -2.35758 0
M  V30 494 H 48.3531 -2.22381 -4.86262 0
M  V30 495 H 48.6961 -0.687607 -4.10582 0
M  V30 496 H 49.2291 -2.1931 -3.31885 0
M  V30 497 H 45.9681 -5.07273 -4.15156 0
M  V30 498 H 45.4881 -3.51394 -4.86089 0
M  V30 499 H 47.1671 -4.08804 -5.01486 0
M  V30 500 N 47.2992 1.18797 -1.03562 0
M  V30 501 C 48.2092 2.25913 -0.632505 0
M  V30 502 C 49.2252 1.70668 0.338882 0
M  V30 503 O 50.4012 2.00453 0.195076 0
M  V30 504 C 47.4662 3.467 0.00350942 0
M  V30 505 C 46.5272 4.17098 -1.01624 0
M  V30 506 C 45.7602 5.32119 -0.410478 0
M  V30 507 O 45.9832 5.64976 0.784725 0
M  V30 508 O 44.9172 5.9107 -1.13667 0
M  V30 509 H 48.7432 2.62648 -1.52478 0
M  V30 510 H 46.3282 1.25781 -0.806195 0
M  V30 511 H 48.2102 4.19878 0.35781 0
M  V30 512 H 46.8852 3.11798 0.869686 0
M  V30 513 H 45.7922 3.4601 -1.42224 0
M  V30 514 H 47.1252 4.55987 -1.85301 0
M  V30 515 N 48.7773 0.814389 1.34928 0
M  V30 516 C 50.0233 0.399013 1.98836 0
M  V30 517 C 50.3563 -1.03314 1.64438 0
M  V30 518 O 49.6313 -1.71811 0.911659 0
M  V30 519 C 49.9143 0.591629 3.55207 0
M  V30 520 C 49.7673 2.06928 3.99376 0
M  V30 521 C 51.0863 0.022199 4.40094 0
M  V30 522 H 48.2053 0.146451 0.722303 0
M  V30 523 H 50.8473 1.02537 1.59957 0
M  V30 524 H 48.9973 0.0584441 3.88456 0
M  V30 525 H 50.6693 2.66544 3.76499 0
M  V30 526 H 48.9123 2.56287 3.49999 0
M  V30 527 H 49.5833 2.1549 5.08201 0
M  V30 528 H 52.0593 0.477643 4.13349 0
M  V30 529 H 50.9353 0.186832 5.48582 0
M  V30 530 H 51.1963 -1.07215 4.28902 0
M  V30 531 N 50.2554 -1.46986 0.568584 0
M  V30 532 C 51.5034 -2.02041 0.0487022 0
M  V30 533 C 51.8244 -1.44408 -1.31039 0
M  V30 534 O 51.0944 -0.623477 -1.85714 0
M  V30 535 H 49.6744 -0.746849 0.015014 0
M  V30 536 H 52.3364 -1.80257 0.741168 0
M  V30 537 H 51.4324 -3.12085 -0.0308961 0
M  V30 538 N 51.7335 -0.305618 -1.54608 0
M  V30 539 C 52.9615 0.304775 -2.04643 0
M  V30 540 C 53.3765 1.47167 -1.18268 0
M  V30 541 O 52.7335 1.81296 -0.209328 0
M  V30 542 C 52.7845 0.756564 -3.53495 0
M  V30 543 O 52.5055 -0.36389 -4.36586 0
M  V30 544 C 54.0065 1.43163 -4.19546 0
M  V30 545 H 51.2265 0.0655481 -0.667791 0
M  V30 546 H 53.7705 -0.446592 -1.99564 0
M  V30 547 H 51.9255 1.45794 -3.58919 0
M  V30 548 H 52.3395 -0.0113121 -5.24499 0
M  V30 549 H 53.8135 1.69886 -5.25207 0
M  V30 550 H 54.2905 2.37318 -3.69563 0
M  V30 551 H 54.8965 0.773307 -4.18211 0
M  V30 552 N 53.2116 1.57565 -0.0334293 0
M  V30 553 C 54.4606 1.91155 0.643639 0
M  V30 554 C 54.7736 0.91192 1.73042 0
M  V30 555 O 55.9796 1.13923 2.46442 0
M  V30 556 C 54.4356 3.39443 1.1961 0
M  V30 557 C 54.0436 4.47774 0.142381 0
M  V30 558 C 55.7876 3.82094 1.84944 0
M  V30 559 C 53.6946 5.87162 0.706727 0
M  V30 560 H 52.6246 0.713368 0.244176 0
M  V30 561 H 55.2756 1.8323 -0.0994323 0
M  V30 562 H 53.6576 3.42313 1.99092 0
M  V30 563 H 54.8316 4.56469 -0.630296 0
M  V30 564 H 53.1466 4.14352 -0.412446 0
M  V30 565 H 55.7436 4.83591 2.2813 0
M  V30 566 H 56.0866 3.17386 2.69392 0
M  V30 567 H 56.6196 3.81665 1.12145 0
M  V30 568 H 53.3586 6.55424 -0.0997178 0
M  V30 569 H 52.8786 5.82064 1.44779 0
M  V30 570 H 54.5576 6.35866 1.19514 0
M  V30 571 N 54.6897 -0.239769 1.55765 0
M  V30 572 C 55.6197 -1.30052 1.9393 0
M  V30 573 C 56.6007 -1.49839 0.805132 0
M  V30 574 O 57.7857 -1.62328 1.06599 0
M  V30 575 C 54.9157 -2.65391 2.2402 0
M  V30 576 C 53.8697 -2.60289 3.39755 0
M  V30 577 C 53.1957 -3.99489 3.55405 0
M  V30 578 C 54.4957 -2.16654 4.75246 0
M  V30 579 H 56.1897 -0.983573 2.82783 0
M  V30 580 H 53.7357 -0.471701 1.36055 0
M  V30 581 H 55.6887 -3.3974 2.49308 0
M  V30 582 H 54.4127 -2.98736 1.32 0
M  V30 583 H 53.0717 -1.88398 3.14487 0
M  V30 584 H 52.7197 -4.30112 2.60793 0
M  V30 585 H 52.4197 -3.96962 4.33238 0
M  V30 586 H 53.9437 -4.75528 3.83022 0
M  V30 587 H 55.3577 -2.80737 4.99859 0
M  V30 588 H 53.7547 -2.25223 5.56232 0
M  V30 589 H 54.8247 -1.11835 4.71827 0
M  V30 590 N 56.1678 -1.49265 -0.50573 0
M  V30 591 C 57.4078 -1.60128 -1.27038 0
M  V30 592 C 57.7718 -0.279557 -1.89954 0
M  V30 593 O 58.9728 -0.263329 -2.67507 0
M  V30 594 C 57.2438 -2.72507 -2.31246 0
M  V30 595 S 58.8028 -3.0329 -3.17113 0
M  V30 596 H 55.6208 -0.564863 -0.4318 0
M  V30 597 H 58.2228 -1.86902 -0.573397 0
M  V30 598 H 56.9268 -3.67068 -1.83546 0
M  V30 599 H 56.4578 -2.4771 -3.05619 0
M  V30 600 H 58.4728 -2.44448 -4.31809 0
M  V30 601 N 57.6459 0.756429 -1.3826 0
M  V30 602 C 58.8919 1.51772 -1.34511 0
M  V30 603 C 59.2249 1.94089 0.0656691 0
M  V30 604 O 58.4999 1.65221 1.02626 0
M  V30 605 C 58.7829 2.77226 -2.29821 0
M  V30 606 C 58.6359 2.41065 -3.79747 0
M  V30 607 C 59.9549 3.79236 -2.23312 0
M  V30 608 H 57.0739 0.550578 -0.489931 0
M  V30 609 H 59.7159 0.866607 -1.69086 0
M  V30 610 H 57.8659 3.32784 -2.00467 0
M  V30 611 H 59.5379 1.91303 -4.19763 0
M  V30 612 H 57.7809 1.7356 -3.97567 0
M  V30 613 H 58.4519 3.3081 -4.41892 0
M  V30 614 H 60.9279 3.3321 -2.49219 0
M  V30 615 H 59.8039 4.64714 -2.92116 0
M  V30 616 H 60.0649 4.24615 -1.23102 0
M  V30 617 N 59.124 1.23083 0.984299 0
M  V30 618 C 60.372 1.05848 1.72165 0
M  V30 619 C 60.693 -0.406049 1.90726 0
M  V30 620 O 59.963 -1.29139 1.47309 0
M  V30 621 H 58.543 0.388685 0.637913 0
M  V30 622 H 61.205 1.54736 1.18503 0
M  V30 623 H 60.301 1.54327 2.71274 0
M  V30 624 N 60.6021 -1.18246 1.0419 0
M  V30 625 C 61.5121 -2.25574 0.644476 0
M  V30 626 C 62.5281 -1.70845 -0.329826 0
M  V30 627 O 63.7041 -2.00554 -0.184443 0
M  V30 628 C 60.7691 -3.46697 0.014877 0
M  V30 629 C 59.8301 -4.16554 1.03834 0
M  V30 630 C 59.0631 -5.31894 0.438692 0
M  V30 631 O 59.2861 -5.65385 -0.754752 0
M  V30 632 O 58.2201 -5.90459 1.168 0
M  V30 633 H 62.0461 -2.61836 1.53869 0
M  V30 634 H 59.6311 -1.25352 0.812854 0
M  V30 635 H 61.5131 -4.20062 -0.335538 0
M  V30 636 H 60.1881 -3.12255 -0.853138 0
M  V30 637 H 59.0951 -3.45251 1.44057 0
M  V30 638 H 60.4281 -4.54998 1.87716 0
M  V30 639 N 62.0802 -0.821533 -1.34494 0
M  V30 640 C 63.3282 -0.408139 -1.97936 0
M  V30 641 C 63.6492 1.03193 -1.65457 0
M  V30 642 O 62.9192 1.71622 -0.944595 0
M  V30 643 H 61.4992 -0.147928 -0.732206 0
M  V30 644 H 64.1612 -1.05067 -1.64155 0
M  V30 645 H 63.2572 -0.52601 -3.07635 0
M  V30 646 N 63.5583 1.46682 -0.576371 0
M  V30 647 C 64.8043 2.02712 -0.0596221 0
M  V30 648 C 65.1373 1.44765 1.29448 0
M  V30 649 O 64.4123 0.610355 1.84675 0
M  V30 650 C 64.6953 3.60098 0.0129503 0
M  V30 651 C 64.5483 4.28441 -1.3696 0
M  V30 652 C 65.8673 4.34224 0.71678 0
M  V30 653 H 62.9863 0.736637 -0.0231407 0
M  V30 654 H 65.6283 1.74898 -0.742351 0
M  V30 655 H 63.7783 3.83926 0.594378 0
M  V30 656 H 65.4503 4.15896 -1.9957 0
M  V30 657 H 63.6933 3.8805 -1.93907 0
M  V30 658 H 64.3643 5.3716 -1.27135 0
M  V30 659 H 66.8403 4.15503 0.222908 0
M  V30 660 H 65.7163 5.43936 0.73657 0
M  V30 661 H 65.9773 4.04823 1.77682 0
M  V30 662 N 65.0364 0.313813 1.54444 0
M  V30 663 C 66.4524 -0.0391619 1.59552 0
M  V30 664 C 66.6524 -1.51322 1.33056 0
M  V30 665 O 65.7084 -2.26782 1.11022 0
M  V30 666 C 67.0214 0.370302 2.98411 0
M  V30 667 C 68.5694 0.320139 3.11358 0
M  V30 668 C 69.0444 0.704617 4.52547 0
M  V30 669 N 70.5354 0.657645 4.58508 0
M  V30 670 C 71.2704 0.927453 5.6585 0
M  V30 671 N 70.7664 1.26389 6.81174 0
M  V30 672 N 72.5594 0.853662 5.5558 0
M  V30 673 H 64.7104 1.27433 1.69925 0
M  V30 674 H 66.9734 0.517511 0.794284 0
M  V30 675 H 66.6794 1.39694 3.22767 0
M  V30 676 H 66.5534 -0.269619 3.76235 0
M  V30 677 H 68.9404 -0.697275 2.86744 0
M  V30 678 H 69.0214 0.99486 2.35661 0
M  V30 679 H 68.6654 1.7199 4.77893 0
M  V30 680 H 68.5954 0.00768843 5.26599 0
M  V30 681 H 71.0864 0.409067 3.75679 0
M  V30 682 H 71.3994 1.4554 7.58972 0
M  V30 683 H 69.7444 1.30206 6.82694 0
M  V30 684 H 72.9354 0.590383 4.64362 0
M  V30 685 H 73.1084 1.0673 6.3915 0
M  V30 686 N 66.5145 -1.57545 0.0417849 0
M  V30 687 C 67.4775 -2.09885 -0.92093 0
M  V30 688 C 68.4775 -1.01648 -1.24596 0
M  V30 689 O 69.6675 -1.27759 -1.1842 0
M  V30 690 C 66.7995 -2.57527 -2.23367 0
M  V30 691 H 67.9925 -2.96236 -0.467382 0
M  V30 692 H 65.5455 -1.5493 -0.206467 0
M  V30 693 H 66.2805 -1.74542 -2.73323 0
M  V30 694 H 66.0655 -3.36613 -2.01083 0
M  V30 695 H 67.5555 -2.98201 -2.92346 0
M  V30 696 N 67.9926 0.231505 -1.5589 0
M  V30 697 C 69.2386 0.95877 -1.78705 0
M  V30 698 C 69.5716 1.8438 -0.609725 0
M  V30 699 O 68.8466 1.90521 0.391426 0
M  V30 700 C 69.1296 1.8062 -3.11526 0
M  V30 701 C 68.9826 0.948328 -4.39689 0
M  V30 702 C 70.3016 2.78585 -3.40703 0
M  V30 703 H 67.4206 0.347129 -0.650131 0
M  V30 704 H 70.0626 0.228259 -1.88624 0
M  V30 705 H 68.2126 2.42902 -3.03201 0
M  V30 706 H 69.8846 0.343016 -4.60023 0
M  V30 707 H 68.1276 0.253314 -4.3306 0
M  V30 708 H 68.7986 1.57543 -5.29041 0
M  V30 709 H 71.2746 2.26439 -3.49091 0
M  V30 710 H 70.1506 3.34988 -4.34826 0
M  V30 711 H 70.4116 3.55825 -2.62375 0
M  V30 712 N 69.4707 1.49531 0.497807 0
M  V30 713 C 70.8867 1.36365 0.829266 0
M  V30 714 C 71.0867 0.399184 1.97506 0
M  V30 715 O 70.1427 -0.167977 2.51941 0
M  V30 716 C 71.4557 2.77153 1.16647 0
M  V30 717 C 73.0037 2.85877 1.27449 0
M  V30 718 C 73.4787 4.2744 1.64497 0
M  V30 719 N 74.9697 4.30265 1.7154 0
M  V30 720 C 75.7047 5.3677 2.01656 0
M  V30 721 N 75.2007 6.53516 2.29976 0
M  V30 722 N 76.9937 5.24189 2.02934 0
M  V30 723 H 69.1447 2.10831 -0.257703 0
M  V30 724 H 71.4077 0.946534 -0.0527091 0
M  V30 725 H 71.1137 3.49442 0.397872 0
M  V30 726 H 70.9877 3.12722 2.10915 0
M  V30 727 H 73.3747 2.13824 2.0338 0
M  V30 728 H 73.4557 2.53887 0.312244 0
M  V30 729 H 73.0997 5.00021 0.891151 0
M  V30 730 H 73.0297 4.56896 2.61827 0
M  V30 731 H 75.5207 3.4607 1.51802 0
M  V30 732 H 75.8337 7.30506 2.52153 0
M  V30 733 H 74.1787 6.56737 2.27425 0
M  V30 734 H 77.3697 4.31988 1.80289 0
M  V30 735 H 77.5427 6.07286 2.26071 0
M  V30 736 N 70.9488 -0.749086 1.3866 0
M  V30 737 C 72.2258 -1.4992 1.25632 0
M  V30 738 C 72.6058 -2.10633 -0.140317 0
M  V30 739 O 71.9538 -1.97437 -1.15025 0
M  V30 740 C 72.1638 -2.56195 2.36992 0
M  V30 741 C 73.5118 -3.22972 2.75634 0
M  V30 742 O 74.5358 -2.66502 2.36337 0
M  V30 743 O 73.3948 -4.25122 3.43415 0
M  V30 744 H 70.4888 -0.665067 0.491544 0
M  V30 745 H 73.0348 -0.784113 1.50498 0
M  V30 746 H 71.8068 -2.09612 3.30422 0
M  V30 747 H 71.4298 -3.35279 2.13714 0
M  V30 748 N 72.4269 -1.23603 -0.977757 0
M  V30 749 C 73.3569 -1.04401 -2.0886 0
M  V30 750 C 74.3379 0.0399052 -1.70053 0
M  V30 751 O 75.5229 -0.125246 -1.93796 0
M  V30 752 C 72.6529 -0.637269 -3.41403 0
M  V30 753 C 71.6069 -1.66883 -3.94124 0
M  V30 754 C 70.9329 -1.11745 -5.22893 0
M  V30 755 C 72.2329 -3.06247 -4.23096 0
M  V30 756 H 73.9269 -1.97316 -2.25182 0
M  V30 757 H 71.4729 -0.950096 -1.08209 0
M  V30 758 H 73.4259 -0.48998 -4.18542 0
M  V30 759 H 72.1499 0.327557 -3.24953 0
M  V30 760 H 70.8089 -1.80416 -3.19133 0
M  V30 761 H 70.4569 -0.143527 -5.02795 0
M  V30 762 H 70.1569 -1.80672 -5.59134 0
M  V30 763 H 71.6809 -0.982067 -6.02651 0
M  V30 764 H 73.0949 -2.96001 -4.90975 0
M  V30 765 H 71.4919 -3.72436 -4.70544 0
M  V30 766 H 72.5619 -3.55041 -3.30263 0
M  V30 767 N 73.905 1.17692 -1.04816 0
M  V30 768 C 74.852 2.21581 -0.645797 0
M  V30 769 C 75.822 1.62367 0.350159 0
M  V30 770 O 77.007 1.89254 0.242433 0
M  V30 771 C 74.147 3.45092 -0.0227568 0
M  V30 772 C 73.26 4.18613 -1.06709 0
M  V30 773 C 72.395 5.29602 -0.411767 0
M  V30 774 C 71.434 5.94904 -1.44067 0
M  V30 775 N 70.571 6.97414 -0.809781 0
M  V30 776 H 75.411 2.55353 -1.5362 0
M  V30 777 H 72.948 1.25438 -0.768364 0
M  V30 778 H 74.906 4.15679 0.35588 0
M  V30 779 H 73.536 3.11917 0.831122 0
M  V30 780 H 72.588 3.46779 -1.5636 0
M  V30 781 H 73.9 4.63293 -1.84827 0
M  V30 782 H 73.054 6.06696 0.0206623 0
M  V30 783 H 71.793 4.86045 0.401438 0
M  V30 784 H 70.798 5.16544 -1.88316 0
M  V30 785 H 72.023 6.40542 -2.25571 0
M  V30 786 H 69.969 6.55998 -0.0170186 0
M  V30 787 H 69.886 7.40386 -1.52856 0
M  V30 788 H 71.154 7.78463 -0.401999 0
M  V30 789 N 75.3831 0.828654 1.34056 0
M  V30 790 C 76.3461 0.259927 2.27721 0
M  V30 791 C 77.3461 -0.565478 1.50529 0
M  V30 792 O 78.5361 -0.38075 1.69988 0
M  V30 793 C 75.6681 -0.634944 3.34935 0
M  V30 794 H 76.8611 1.0863 2.79534 0
M  V30 795 H 74.4141 0.600951 1.44285 0
M  V30 796 H 75.1491 -1.48416 2.88346 0
M  V30 797 H 74.9341 -0.0444999 3.92075 0
M  V30 798 H 76.4241 -1.02648 4.04788 0
M  V30 799 N 76.8612 -1.46375 0.584142 0
M  V30 800 C 77.7912 -2.33103 -0.136037 0
M  V30 801 C 78.7722 -1.45431 -0.882255 0
M  V30 802 O 79.9572 -1.74246 -0.857434 0
M  V30 803 C 77.0872 -3.27731 -1.14933 0
M  V30 804 C 76.0412 -4.24855 -0.517862 0
M  V30 805 C 75.3672 -5.09001 -1.63773 0
M  V30 806 C 76.6672 -5.19439 0.545886 0
M  V30 807 H 78.3612 -2.93568 0.588086 0
M  V30 808 H 75.9072 -1.41166 0.284259 0
M  V30 809 H 77.8602 -3.87261 -1.66153 0
M  V30 810 H 76.5842 -2.65377 -1.90375 0
M  V30 811 H 75.2432 -3.6659 -0.0267361 0
M  V30 812 H 74.8912 -4.43031 -2.38185 0
M  V30 813 H 74.5912 -5.74777 -1.22085 0
M  V30 814 H 76.1152 -5.71396 -2.15266 0
M  V30 815 H 77.5292 -5.73177 0.118704 0
M  V30 816 H 75.9262 -5.93566 0.88317 0
M  V30 817 H 76.9962 -4.63285 1.43162 0
M  V30 818 N 78.3393 -0.321999 -1.54275 0
M  V30 819 C 79.5693 0.282642 -2.04658 0
M  V30 820 C 79.9773 1.46453 -1.19784 0
M  V30 821 O 79.3203 1.82367 -0.220932 0
M  V30 822 C 79.3823 0.781857 -3.50895 0
M  V30 823 C 79.0463 -0.277517 -4.56157 0
M  V30 824 C 80.0433 -1.11307 -5.07845 0
M  V30 825 C 77.7283 -0.425256 -5.00497 0
M  V30 826 C 79.7223 -2.08211 -6.02434 0
M  V30 827 C 77.4093 -1.39771 -5.94901 0
M  V30 828 C 78.4073 -2.2246 -6.45756 0
M  V30 829 O 78.0953 -3.18054 -7.38307 0
M  V30 830 H 77.8273 0.0622636 -0.673126 0
M  V30 831 H 80.3813 -0.465792 -2.00049 0
M  V30 832 H 78.6113 1.58118 -3.52896 0
M  V30 833 H 80.3003 1.30467 -3.84361 0
M  V30 834 H 81.0663 -1.00991 -4.74369 0
M  V30 835 H 76.9453 0.20847 -4.60528 0
M  V30 836 H 80.4893 -2.72791 -6.42052 0
M  V30 837 H 76.3863 -1.50152 -6.27794 0
M  V30 838 H 77.1543 -3.13275 -7.56175 0
M  V30 839 N 79.8174 1.5752 -0.0501392 0
M  V30 840 C 81.2284 1.80271 0.485705 0
M  V30 841 C 81.5794 0.96228 1.70981 0
M  V30 842 O 80.7044 0.178578 2.15662 0
M  V30 843 C 81.2994 3.26957 0.887938 0
M  V30 844 C 79.8584 3.5063 1.36877 0
M  V30 845 C 79.0054 2.75165 0.343468 0
M  V30 846 H 81.9564 1.56281 -0.276028 0
M  V30 847 H 81.9774 3.37821 1.75093 0
M  V30 848 H 81.4894 3.881 -0.0031809 0
M  V30 849 H 79.5904 2.94766 2.27911 0
M  V30 850 H 79.7034 4.59343 1.36164 0
M  V30 851 H 78.0674 2.4127 0.816128 0
M  V30 852 H 78.8504 3.39034 -0.539548 0
M  V30 853 N 81.2955 -0.223234 1.56011 0
M  V30 854 C 82.2455 -1.28008 1.88674 0
M  V30 855 C 83.2295 -1.42369 0.749663 0
M  V30 856 O 84.4215 -1.45212 1.01205 0
M  V30 857 C 81.5505 -2.63084 2.20548 0
M  V30 858 C 80.6365 -2.52632 3.40643 0
M  V30 859 N 81.0275 -2.11829 4.59306 0
M  V30 860 C 79.3255 -2.83594 3.44224 0
M  V30 861 C 80.0265 -2.12587 5.41463 0
M  V30 862 N 79.0025 -2.5301 4.81131 0
M  V30 863 H 82.8045 -0.955487 2.77935 0
M  V30 864 H 80.3185 -0.431801 1.56554 0
M  V30 865 H 82.3155 -3.39385 2.42122 0
M  V30 866 H 80.9755 -2.96391 1.32599 0
M  V30 867 H 81.9865 -1.82988 4.84496 0
M  V30 868 H 78.6635 -3.21284 2.66614 0
M  V30 869 H 80.0535 -1.83179 6.46448 0
M  V30 870 N 82.7736 -1.49793 -0.48987 0
M  V30 871 C 83.7206 -1.67281 -1.59014 0
M  V30 872 C 84.6906 -0.514177 -1.57941 0
M  V30 873 O 85.8756 -0.742533 -1.75759 0
M  V30 874 C 83.0156 -1.75569 -2.97102 0
M  V30 875 C 82.1286 -3.0281 -3.08107 0
M  V30 876 C 81.2636 -3.02008 -4.36995 0
M  V30 877 C 80.3026 -4.23782 -4.41673 0
M  V30 878 N 79.4396 -4.20826 -5.62005 0
M  V30 879 H 84.2796 -2.61224 -1.43409 0
M  V30 880 H 81.8166 -1.29508 -0.697565 0
M  V30 881 H 83.7746 -1.78354 -3.77155 0
M  V30 882 H 82.4046 -0.850827 -3.11385 0
M  V30 883 H 81.4566 -3.09584 -2.21047 0
M  V30 884 H 82.7686 -3.92801 -3.07423 0
M  V30 885 H 81.9226 -3.03418 -5.25378 0
M  V30 886 H 80.6616 -2.09815 -4.4026 0
M  V30 887 H 79.6666 -4.22604 -3.5169 0
M  V30 888 H 80.8916 -5.17181 -4.40115 0
M  V30 889 H 78.8376 -3.31476 -5.66091 0
M  V30 890 H 78.7546 -5.04564 -5.62984 0
M  V30 891 H 80.0226 -4.26355 -6.52565 0
M  V30 892 N 84.2517 0.741722 -1.39055 0
M  V30 893 C 85.5007 1.49656 -1.35225 0
M  V30 894 C 85.8137 1.95533 0.0512708 0
M  V30 895 O 87.0197 2.7067 0.212138 0
M  V30 896 C 85.4757 2.70389 -2.37525 0
M  V30 897 C 85.0837 2.31489 -3.83558 0
M  V30 898 C 86.8277 3.48236 -2.42759 0
M  V30 899 C 84.7347 3.48903 -4.77515 0
M  V30 900 H 83.6647 0.56197 -0.502699 0
M  V30 901 H 86.3157 0.809727 -1.64668 0
M  V30 902 H 84.6977 3.41113 -2.01142 0
M  V30 903 H 85.8717 1.68354 -4.28945 0
M  V30 904 H 84.1867 1.66749 -3.81554 0
M  V30 905 H 86.7837 4.35558 -3.1015 0
M  V30 906 H 87.1267 3.90229 -1.45008 0
M  V30 907 H 87.6597 2.84535 -2.78002 0
M  V30 908 H 84.3987 3.11966 -5.76504 0
M  V30 909 H 83.9187 4.11041 -4.36813 0
M  V30 910 H 85.5977 4.15328 -4.96096 0
M  V30 911 N 85.7298 1.2412 0.971189 0
M  V30 912 C 86.9758 1.08041 1.71625 0
M  V30 913 C 87.3088 -0.380407 1.90438 0
M  V30 914 O 86.5838 -1.28127 1.46334 0
M  V30 915 C 86.8668 1.81682 3.10908 0
M  V30 916 C 86.7198 3.35493 2.99608 0
M  V30 917 C 88.0388 1.58671 4.10501 0
M  V30 918 H 85.1578 0.39388 0.622919 0
M  V30 919 H 87.7998 1.52743 1.13003 0
M  V30 920 H 85.9498 1.43684 3.60953 0
M  V30 921 H 87.6218 3.83068 2.57015 0
M  V30 922 H 85.8648 3.64052 2.35899 0
M  V30 923 H 86.5358 3.82217 3.98264 0
M  V30 924 H 89.0118 1.91719 3.69301 0
M  V30 925 H 87.8878 2.1266 5.06031 0
M  V30 926 H 88.1488 0.524161 4.38982 0
M  V30 927 N 87.2079 -1.17134 1.05439 0
M  V30 928 C 88.1379 -2.2342 0.678649 0
M  V30 929 C 89.1189 -1.66971 -0.32476 0
M  V30 930 O 90.3039 -1.93149 -0.201802 0
M  V30 931 C 87.4339 -3.47256 0.0552099 0
M  V30 932 C 86.3879 -4.16543 0.98365 0
M  V30 933 C 85.7139 -5.34231 0.223961 0
M  V30 934 C 87.0139 -4.68495 2.3089 0
M  V30 935 H 88.7079 -2.55105 1.56722 0
M  V30 936 H 86.2539 -1.2262 0.754998 0
M  V30 937 H 88.2069 -4.20828 -0.21946 0
M  V30 938 H 86.9309 -3.14846 -0.868319 0
M  V30 939 H 85.5899 -3.44887 1.24293 0
M  V30 940 H 85.2379 -4.98071 -0.702412 0
M  V30 941 H 84.9379 -5.81527 0.842627 0
M  V30 942 H 86.4619 -6.10585 -0.0433671 0
M  V30 943 H 87.8759 -5.33691 2.09396 0
M  V30 944 H 86.2729 -5.26379 2.88176 0
M  V30 945 H 87.3429 -3.85169 2.94572 0
M  V30 946 N 88.686 -0.835752 -1.33615 0
M  V30 947 C 89.649 -0.272 -2.2758 0
M  V30 948 C 90.649 0.557487 -1.50827 0
M  V30 949 O 91.839 0.37173 -1.70188 0
M  V30 950 C 88.971 0.617173 -3.35267 0
M  V30 951 H 90.164 -1.10111 -2.78954 0
M  V30 952 H 87.717 -0.608594 -1.43965 0
M  V30 953 H 88.452 1.46884 -2.89129 0
M  V30 954 H 88.237 0.0237066 -3.92093 0
M  V30 955 H 89.727 1.005 -4.05326 0
M  V30 956 N 90.1641 1.46063 -0.591896 0
M  V30 957 C 91.4411 1.95595 -0.0137119 0
M  V30 958 C 91.8211 1.5345 1.4497 0
M  V30 959 O 91.1691 0.789543 2.14426 0
M  V30 960 C 91.3791 3.48453 -0.195373 0
M  V30 961 C 92.7271 4.24546 -0.0679765 0
M  V30 962 O 93.7511 3.55982 -0.124681 0
M  V30 963 O 92.6101 5.46467 0.0600579 0
M  V30 964 H 89.7041 0.825795 0.0446279 0
M  V30 965 H 92.2501 1.56303 -0.660859 0
M  V30 966 H 91.0221 3.72045 -1.21235 0
M  V30 967 H 90.6451 3.94597 0.487775 0
M  V30 968 N 91.6422 0.330177 1.54103 0
M  V30 969 C 92.6052 -0.520144 2.2322 0
M  V30 970 C 93.6052 -1.03828 1.22786 0
M  V30 971 O 94.7952 -0.929652 1.4732 0
M  V30 972 C 91.9272 -1.72317 2.94142 0
M  V30 973 H 93.1202 0.0841605 2.99782 0
M  V30 974 H 90.6732 0.0813433 1.56088 0
M  V30 975 H 91.4082 -2.36653 2.21734 0
M  V30 976 H 91.1932 -1.35898 3.67796 0
M  V30 977 H 92.6832 -2.3266 3.46784 0
M  V30 978 N 93.1203 -1.57491 0.0584922 0
M  V30 979 C 94.0673 -2.11958 -0.913376 0
M  V30 980 C 95.0373 -1.02875 -1.30407 0
M  V30 981 O 96.2223 -1.30464 -1.39226 0
M  V30 982 C 93.3623 -2.67497 -2.18035 0
M  V30 983 C 92.4753 -3.90691 -1.84349 0
M  V30 984 C 91.6103 -4.3452 -3.05559 0
M  V30 985 C 90.6493 -5.50395 -2.67827 0
M  V30 986 N 89.7863 -5.89244 -3.81754 0
M  V30 987 H 94.6263 -2.94704 -0.442017 0
M  V30 988 H 92.1633 -1.45643 -0.206545 0
M  V30 989 H 94.1213 -2.978 -2.92183 0
M  V30 990 H 92.7513 -1.87537 -2.62735 0
M  V30 991 H 91.8033 -3.66934 -1.00319 0
M  V30 992 H 93.1153 -4.7489 -1.5258 0
M  V30 993 H 92.2693 -4.66414 -3.87998 0
M  V30 994 H 91.0083 -3.49147 -3.40511 0
M  V30 995 H 90.0133 -5.18165 -1.83806 0
M  V30 996 H 91.2383 -6.3749 -2.34059 0
M  V30 997 H 89.1843 -5.06823 -4.16493 0
M  V30 998 H 89.1013 -6.68151 -3.53708 0
M  V30 999 H 90.3693 -6.25756 -4.64811 0
M  V30 1000 N 94.5984 0.214957 -1.56127 0
M  V30 1001 C 95.8474 0.936451 -1.78643 0
M  V30 1002 C 96.1604 1.85237 -0.628229 0
M  V30 1003 O 97.3664 2.613 -0.737186 0
M  V30 1004 C 95.8224 1.7154 -3.16389 0
M  V30 1005 C 95.4304 0.845299 -4.39953 0
M  V30 1006 C 97.1744 2.42772 -3.48227 0
M  V30 1007 C 95.0814 1.62198 -5.68723 0
M  V30 1008 H 94.0114 0.353401 -0.666051 0
M  V30 1009 H 96.6624 0.190169 -1.82512 0
M  V30 1010 H 95.0444 2.50484 -3.06715 0
M  V30 1011 H 96.2184 0.0959353 -4.607 0
M  V30 1012 H 94.5334 0.244789 -4.1568 0
M  V30 1013 H 97.1304 3.01394 -4.41663 0
M  V30 1014 H 97.4734 3.15984 -2.71035 0
M  V30 1015 H 98.0064 1.70813 -3.5926 0
M  V30 1016 H 94.7454 0.933011 -6.48826 0
M  V30 1017 H 94.2654 2.34579 -5.52026 0
M  V30 1018 H 95.9444 2.18095 -6.09133 0
M  V30 1019 N 96.0765 1.50051 0.48192 0
M  V30 1020 C 97.0395 1.67584 1.5636 0
M  V30 1021 C 98.0395 0.546894 1.51214 0
M  V30 1022 O 99.2295 0.813725 1.54026 0
M  V30 1023 C 96.3615 1.691 2.96003 0
M  V30 1024 H 97.5545 2.64078 1.42136 0
M  V30 1025 H 95.1075 1.39369 0.707533 0
M  V30 1026 H 95.8425 0.742589 3.15684 0
M  V30 1027 H 95.6275 2.51105 3.01146 0
M  V30 1028 H 97.1175 1.84656 3.74556 0
M  V30 1029 N 97.5546 -0.734337 1.39446 0
M  V30 1030 C 98.8316 -1.48579 1.27215 0
M  V30 1031 C 99.2116 -2.1077 -0.117968 0
M  V30 1032 O 98.5596 -1.98646 -1.12924 0
M  V30 1033 C 98.7696 -2.53667 2.39696 0
M  V30 1034 C 100.118 -3.20031 2.79044 0
M  V30 1035 O 101.142 -2.6398 2.39151 0
M  V30 1036 O 100.001 -4.21455 3.47905 0
M  V30 1037 H 97.0946 -0.659816 0.49857 0
M  V30 1038 H 99.6406 -0.768106 1.51322 0
M  V30 1039 H 98.4126 -2.06096 3.32626 0
M  V30 1040 H 98.0356 -3.32994 2.17258 0
M  V30 1041 N 99.0327 -1.24633 -0.964593 0
M  V30 1042 C 99.9957 -1.0424 -2.04124 0
M  V30 1043 C 100.996 0.00137563 -1.608 0
M  V30 1044 O 102.186 -0.239883 -1.7254 0
M  V30 1045 C 99.3177 -0.580588 -3.3592 0
M  V30 1046 H 100.511 -1.99803 -2.23649 0
M  V30 1047 H 98.0637 -1.06899 -1.14027 0
M  V30 1048 H 98.7987 0.3781 -3.22088 0
M  V30 1049 H 98.5837 -1.33398 -3.6871 0
M  V30 1050 H 100.074 -0.459034 -4.15069 0
M  V30 1051 N 100.511 1.16574 -1.06058 0
M  V30 1052 C 101.759 1.86677 -0.77434 0
M  V30 1053 C 102.08 1.81959 0.701147 0
M  V30 1054 O 101.35 1.2515 1.50713 0
M  V30 1055 H 99.9298 0.691134 -0.283449 0
M  V30 1056 H 102.592 1.41378 -1.34158 0
M  V30 1057 H 101.688 2.92181 -1.09711 0
M  V30 1058 N 101.989 0.842826 1.3317 0
M  V30 1059 C 102.936 0.276885 2.29133 0
M  V30 1060 C 103.906 -0.609527 1.54512 0
M  V30 1061 O 105.091 -0.546955 1.82792 0
M  V30 1062 C 102.231 -0.538707 3.40869 0
M  V30 1063 C 101.344 0.372169 4.30394 0
M  V30 1064 C 100.479 -0.454908 5.29249 0
M  V30 1065 C 99.5179 0.45411 6.10413 0
M  V30 1066 N 98.6549 -0.335075 7.013 0
M  V30 1067 H 103.495 1.10052 2.76934 0
M  V30 1068 H 101.032 0.554161 1.36262 0
M  V30 1069 H 102.99 -1.02709 4.0436 0
M  V30 1070 H 101.62 -1.32727 2.9425 0
M  V30 1071 H 100.672 0.97888 3.6759 0
M  V30 1072 H 101.984 1.0703 4.87182 0
M  V30 1073 H 101.138 -1.00695 5.98285 0
M  V30 1074 H 99.8769 -1.18646 4.73048 0
M  V30 1075 H 98.8819 1.01813 5.40291 0
M  V30 1076 H 100.107 1.18409 6.68697 0
M  V30 1077 H 98.0529 -1.04994 6.47543 0
M  V30 1078 H 97.9699 0.304262 7.55387 0
M  V30 1079 H 99.2379 -0.869224 7.74638 0
M  V30 1080 N 103.467 -1.45747 0.599634 0
M  V30 1081 C 104.716 -2.01502 0.0893511 0
M  V30 1082 C 105.029 -1.4748 -1.28488 0
M  V30 1083 O 106.235 -1.95161 -1.88745 0
M  V30 1084 C 104.691 -3.59735 0.109082 0
M  V30 1085 C 104.299 -4.22754 1.48267 0
M  V30 1086 C 106.043 -4.23085 -0.346374 0
M  V30 1087 C 103.95 -5.73115 1.45921 0
M  V30 1088 H 102.88 -0.753417 0.0296347 0
M  V30 1089 H 105.531 -1.67303 0.753788 0
M  V30 1090 H 103.913 -3.91087 -0.621854 0
M  V30 1091 H 105.087 -4.02987 2.23468 0
M  V30 1092 H 103.402 -3.71567 1.87955 0
M  V30 1093 H 105.999 -5.33327 -0.38298 0
M  V30 1094 H 106.342 -3.93201 -1.36743 0
M  V30 1095 H 106.875 -3.9642 0.331038 0
M  V30 1096 H 103.614 -6.07685 2.45762 0
M  V30 1097 H 103.134 -5.95097 0.749665 0
M  V30 1098 H 104.813 -6.3616 1.17941 0
M  V30 1099 N 104.945 -0.338344 -1.53925 0
M  V30 1100 C 105.875 0.51328 -2.27789 0
M  V30 1101 C 106.856 1.107 -1.29149 0
M  V30 1102 O 108.041 1.12937 -1.57984 0
M  V30 1103 C 105.171 1.66697 -3.04679 0
M  V30 1104 C 104.125 1.20183 -4.1078 0
M  V30 1105 C 103.451 2.44363 -4.75595 0
M  V30 1106 C 104.751 0.30605 -5.21403 0
M  V30 1107 H 106.445 -0.102883 -2.99223 0
M  V30 1108 H 103.991 -0.0509219 -1.4391 0
M  V30 1109 H 105.944 2.26915 -3.55088 0
M  V30 1110 H 104.668 2.30995 -2.30887 0
M  V30 1111 H 103.327 0.622499 -3.61276 0
M  V30 1112 H 102.975 3.07057 -3.98403 0
M  V30 1113 H 102.675 2.13925 -5.47275 0
M  V30 1114 H 104.199 3.05317 -5.28786 0
M  V30 1115 H 105.613 0.814929 -5.67478 0
M  V30 1116 H 104.01 0.0937929 -6.00027 0
M  V30 1117 H 105.08 -0.65921 -4.80398 0
M  V30 1118 N 106.423 1.57458 -0.0668435 0
M  V30 1119 C 107.648 1.9804 0.616027 0
M  V30 1120 C 108.073 0.944771 1.62652 0
M  V30 1121 O 107.431 -0.0902094 1.81075 0
M  V30 1122 C 107.479 3.37665 1.26549 0
M  V30 1123 O 106.583 3.36701 2.38131 0
M  V30 1124 H 105.924 0.644719 0.158849 0
M  V30 1125 H 108.454 2.04121 -0.139891 0
M  V30 1126 H 108.464 3.7474 1.6135 0
M  V30 1127 H 107.139 4.12573 0.525016 0
M  V30 1128 H 105.716 3.1139 2.0516 0
M  V30 1129 N 107.901 -0.206675 1.56239 0
M  V30 1130 C 109.317 -0.557025 1.49564 0
M  V30 1131 C 109.517 -1.86424 0.764735 0
M  V30 1132 O 108.573 -2.50584 0.310491 0
M  V30 1133 C 109.886 -0.622478 2.94186 0
M  V30 1134 C 111.434 -0.712099 3.04792 0
M  V30 1135 C 111.909 -0.808767 4.50803 0
M  V30 1136 N 113.4 -0.8726 4.54907 0
M  V30 1137 C 114.135 -0.967365 5.65181 0
M  V30 1138 N 113.631 -1.02515 6.85173 0
M  V30 1139 N 115.424 -1.00366 5.53067 0
M  V30 1140 H 107.575 0.650943 2.02179 0
M  V30 1141 H 109.838 0.230387 0.919579 0
M  V30 1142 H 109.544 0.268727 3.50672 0
M  V30 1143 H 109.418 -1.4811 3.46905 0
M  V30 1144 H 111.805 -1.59374 2.48363 0
M  V30 1145 H 111.886 0.172489 2.55218 0
M  V30 1146 H 111.53 0.0684754 5.07854 0
M  V30 1147 H 111.46 -1.70899 4.98098 0
M  V30 1148 H 113.951 -0.837657 3.68499 0
M  V30 1149 H 114.264 -1.09765 7.64965 0
M  V30 1150 H 112.609 -0.994026 6.87855 0
M  V30 1151 H 115.8 -0.95527 4.58249 0
M  V30 1152 H 115.973 -1.07405 6.39037 0
M  V30 1153 N 109.379 -1.50304 -0.473955 0
M  V30 1154 C 110.312 -1.63595 -1.59097 0
M  V30 1155 C 111.29 -0.484142 -1.55225 0
M  V30 1156 O 112.474 -0.703271 -1.7489 0
M  V30 1157 C 109.601 -1.61589 -2.97669 0
M  V30 1158 C 108.647 -2.82295 -3.19705 0
M  V30 1159 S 109.48 -4.43635 -2.99913 0
M  V30 1160 C 110.636 -4.44317 -4.40832 0
M  V30 1161 H 110.869 -2.58082 -1.47583 0
M  V30 1162 H 108.402 -1.39531 -0.661087 0
M  V30 1163 H 110.36 -1.61116 -3.7756 0
M  V30 1164 H 109.021 -0.683421 -3.06575 0
M  V30 1165 H 108.214 -2.77188 -4.20931 0
M  V30 1166 H 107.816 -2.8032 -2.47582 0
M  V30 1167 H 110.108 -4.17703 -5.33414 0
M  V30 1168 H 111.051 -5.45911 -4.50984 0
M  V30 1169 H 111.459 -3.74059 -4.22777 0
M  V30 1170 N 110.857 0.726932 -1.39834 0
M  V30 1171 C 112.097 1.4992 -1.38936 0
M  V30 1172 C 112.461 1.91996 0.0126883 0
M  V30 1173 O 113.662 2.68399 0.146715 0
M  V30 1174 C 111.933 2.70013 -2.34153 0
M  V30 1175 S 113.492 3.59563 -2.51515 0
M  V30 1176 H 110.31 0.51271 -0.492595 0
M  V30 1177 H 112.912 0.85107 -1.76003 0
M  V30 1178 H 111.616 2.37254 -3.34871 0
M  V30 1179 H 111.147 3.39748 -1.98331 0
M  V30 1180 H 113.162 4.63973 -1.75909 0
M  V30 1181 N 112.336 1.25143 0.95797 0
M  V30 1182 C 113.583 1.09692 1.70217 0
M  V30 1183 C 113.911 -0.362654 1.91089 0
M  V30 1184 O 113.166 -1.28386 1.47701 0
M  V30 1185 C 113.465 1.79272 3.09187 0
M  V30 1186 C 113.131 3.29196 3.08125 0
M  V30 1187 C 111.793 3.70096 3.07543 0
M  V30 1188 C 114.145 4.24995 3.0171 0
M  V30 1189 C 111.473 5.05213 2.9829 0
M  V30 1190 C 113.825 5.60132 2.93999 0
M  V30 1191 C 112.489 6.00365 2.9175 0
M  V30 1192 H 111.759 0.401393 0.622868 0
M  V30 1193 H 114.406 1.55372 1.11945 0
M  V30 1194 H 112.711 1.26014 3.70982 0
M  V30 1195 H 114.408 1.64773 3.65583 0
M  V30 1196 H 110.998 2.96651 3.09348 0
M  V30 1197 H 115.182 3.9439 3.01281 0
M  V30 1198 H 110.438 5.35569 2.94916 0
M  V30 1199 H 114.612 6.3406 2.87996 0
M  V30 1200 H 112.239 7.05023 2.84336 0
M  V30 1201 N 113.814 -1.1601 1.06675 0
M  V30 1202 C 114.724 -2.24156 0.692179 0
M  V30 1203 C 115.74 -1.71507 -0.293513 0
M  V30 1204 O 116.916 -2.009 -0.141861 0
M  V30 1205 C 113.981 -3.46587 0.0884131 0
M  V30 1206 C 113.042 -4.14257 1.12646 0
M  V30 1207 C 112.275 -5.30844 0.551416 0
M  V30 1208 O 112.498 -5.66858 -0.634656 0
M  V30 1209 O 111.432 -5.87848 1.29298 0
M  V30 1210 H 115.258 -2.58513 1.59388 0
M  V30 1211 H 112.843 -1.23599 0.83926 0
M  V30 1212 H 114.725 -4.20679 -0.246361 0
M  V30 1213 H 113.4 -3.13994 -0.786712 0
M  V30 1214 H 112.307 -3.42118 1.51348 0
M  V30 1215 H 113.64 -4.50914 1.97325 0
M  V30 1216 N 115.292 -0.849877 -1.32721 0
M  V30 1217 C 116.255 -0.296122 -2.27279 0
M  V30 1218 C 117.255 0.541458 -1.5141 0
M  V30 1219 O 118.445 0.353658 -1.70572 0
M  V30 1220 C 115.577 0.581579 -3.35902 0
M  V30 1221 H 116.77 -1.13064 -2.77771 0
M  V30 1222 H 114.323 -0.62383 -1.43311 0
M  V30 1223 H 115.058 1.43809 -2.9067 0
M  V30 1224 H 114.843 -0.0178814 -3.92096 0
M  V30 1225 H 116.333 0.961951 -4.0637 0
M  V30 1226 N 116.77 1.45427 -0.607355 0
M  V30 1227 C 117.718 2.32269 0.12411 0
M  V30 1228 C 118.712 1.45955 0.859854 0
M  V30 1229 O 119.918 1.6244 0.775447 0
M  V30 1230 H 116.293 0.749691 0.0588839 0
M  V30 1231 H 118.264 2.91743 -0.626762 0
M  V30 1232 C 117.013 3.29567 1.1082 0
M  V30 1233 H 116.336 3.95978 0.551492 0
M  V30 1234 H 117.776 3.93061 1.58995 0
M  V30 1235 C 116.235 2.56722 2.18164 0
M  V30 1236 O 116.765 2.34842 3.25902 0
M  V30 1237 N 114.971 2.16861 1.93442 0
M  V30 1238 H 114.518 2.34855 1.05834 0
M  V30 1239 H 114.476 1.68444 2.65469 0
M  V30 1240 N 118.248 0.346503 1.53744 0
M  V30 1241 C 119.211 -0.496439 2.23759 0
M  V30 1242 C 120.211 -1.0252 1.2388 0
M  V30 1243 O 121.401 -0.913974 1.48297 0
M  V30 1244 C 118.533 -1.69187 2.95954 0
M  V30 1245 H 119.726 0.115952 2.99676 0
M  V30 1246 H 117.279 0.0978939 1.55993 0
M  V30 1247 H 118.014 -2.34288 2.24231 0
M  V30 1248 H 117.799 -1.31989 3.69217 0
M  V30 1249 H 119.289 -2.28969 3.49232 0
M  V30 1250 N 119.726 -1.57421 0.075193 0
M  V30 1251 C 121.003 -1.85029 -0.634329 0
M  V30 1252 C 121.383 -0.968305 -1.87582 0
M  V30 1253 O 120.731 -0.0354749 -2.28472 0
M  V30 1254 C 120.941 -3.35286 -0.968742 0
M  V30 1255 C 122.289 -4.02875 -1.34077 0
M  V30 1256 O 123.313 -3.40051 -1.06037 0
M  V30 1257 O 122.172 -5.13691 -1.86506 0
M  V30 1258 H 119.266 -0.7645 -0.315387 0
M  V30 1259 H 121.812 -1.69366 0.106382 0
M  V30 1260 H 120.584 -3.91203 -0.0871376 0
M  V30 1261 H 120.207 -3.56223 -1.7661 0
M  V30 1262 N 121.204 0.198386 -1.56346 0
M  V30 1263 C 122.45 0.916115 -1.81601 0
M  V30 1264 C 122.805 1.81025 -0.651744 0
M  V30 1265 O 122.098 1.88316 0.353229 0
M  V30 1266 C 122.292 1.77031 -3.10475 0
M  V30 1267 C 122.121 0.960365 -4.39326 0
M  V30 1268 C 120.891 0.646093 -5.01152 0
M  V30 1269 C 123.089 0.314628 -5.13337 0
M  V30 1270 N 121.071 -0.182828 -6.13628 0
M  V30 1271 C 122.442 -0.37664 -6.18855 0
M  V30 1272 C 124.497 0.230019 -4.97368 0
M  V30 1273 C 123.2 -1.14445 -7.10137 0
M  V30 1274 C 125.226 -0.524389 -5.89071 0
M  V30 1275 C 124.588 -1.20412 -6.94032 0
M  V30 1276 H 120.687 0.314732 -0.715868 0
M  V30 1277 H 123.271 0.185102 -1.93818 0
M  V30 1278 H 121.442 2.47295 -2.99499 0
M  V30 1279 H 123.174 2.42727 -3.2383 0
M  V30 1280 H 119.929 0.969724 -4.63566 0
M  V30 1281 H 120.353 -0.586802 -6.74452 0
M  V30 1282 H 124.995 0.741184 -4.16253 0
M  V30 1283 H 122.713 -1.66706 -7.90718 0
M  V30 1284 H 126.299 -0.591167 -5.78789 0
M  V30 1285 H 125.179 -1.77853 -7.63766 0
M  V30 1286 N 122.682 1.50554 0.465978 0
M  V30 1287 C 123.928 1.62038 1.21949 0
M  V30 1288 C 124.261 0.322116 1.9151 0
M  V30 1289 O 123.536 -0.676723 1.82348 0
M  V30 1290 C 123.819 2.80421 2.25912 0
M  V30 1291 C 123.672 4.20144 1.60622 0
M  V30 1292 C 124.991 2.94354 3.27176 0
M  V30 1293 H 122.11 0.589752 0.441998 0
M  V30 1294 H 124.752 1.82956 0.51257 0
M  V30 1295 H 122.902 2.62717 2.86203 0
M  V30 1296 H 124.574 4.49449 1.03889 0
M  V30 1297 H 122.817 4.24165 0.909211 0
M  V30 1298 H 123.488 4.98914 2.36196 0
M  V30 1299 H 125.964 3.10578 2.76913 0
M  V30 1300 H 124.84 3.788 3.97242 0
M  V30 1301 H 125.101 2.05186 3.916 0
M  V30 1302 N 124.16 -0.719506 1.40217 0
M  V30 1303 C 125.388 -1.50864 1.41589 0
M  V30 1304 C 125.803 -1.88794 0.0145275 0
M  V30 1305 O 125.16 -1.55174 -0.960594 0
M  V30 1306 C 125.211 -2.78646 2.30302 0
M  V30 1307 O 124.932 -2.42321 3.64983 0
M  V30 1308 C 126.433 -3.72569 2.40224 0
M  V30 1309 H 123.653 -0.465709 0.48307 0
M  V30 1310 H 126.197 -0.88785 1.84221 0
M  V30 1311 H 124.352 -3.37019 1.91042 0
M  V30 1312 H 124.766 -3.24514 4.12057 0
M  V30 1313 H 126.24 -4.5908 3.06512 0
M  V30 1314 H 126.717 -4.15403 1.42608 0
M  V30 1315 H 127.323 -3.20109 2.80019 0
M  V30 1316 N 125.638 -1.25649 -0.95132 0
M  V30 1317 C 126.884 -1.10757 -1.69884 0
M  V30 1318 C 127.217 0.350061 -1.91019 0
M  V30 1319 O 126.492 1.25783 -1.48354 0
M  V30 1320 C 126.775 -1.86606 -3.07978 0
M  V30 1321 C 126.628 -3.40217 -2.94232 0
M  V30 1322 C 127.947 -1.65182 -4.07925 0
M  V30 1323 H 125.066 -0.40374 -0.616574 0
M  V30 1324 H 127.708 -1.54521 -1.10558 0
M  V30 1325 H 125.858 -1.49409 -3.58621 0
M  V30 1326 H 127.53 -3.87108 -2.50889 0
M  V30 1327 H 125.773 -3.67759 -2.30078 0
M  V30 1328 H 126.444 -3.88505 -3.92133 0
M  V30 1329 H 128.92 -1.9757 -3.66204 0
M  V30 1330 H 127.796 -2.20683 -5.02583 0
M  V30 1331 H 128.057 -0.593933 -4.38092 0
M  V30 1332 N 127.117 1.15442 -1.07289 0
M  V30 1333 C 128.366 1.85557 -0.790669 0
M  V30 1334 C 128.679 1.83186 0.685739 0
M  V30 1335 O 129.885 2.48977 1.0827 0
M  V30 1336 C 128.341 3.33038 -1.36433 0
M  V30 1337 C 127.949 3.43856 -2.8717 0
M  V30 1338 C 129.693 4.0834 -1.1601 0
M  V30 1339 C 127.6 4.85482 -3.3773 0
M  V30 1340 H 126.53 0.695122 -0.292098 0
M  V30 1341 H 129.181 1.30219 -1.29287 0
M  V30 1342 H 127.563 3.88043 -0.789864 0
M  V30 1343 H 128.737 2.98961 -3.50655 0
M  V30 1344 H 127.052 2.81998 -3.06376 0
M  V30 1345 H 129.649 5.12859 -1.51262 0
M  V30 1346 H 129.992 4.16182 -0.0991007 0
M  V30 1347 H 130.525 3.59603 -1.70089 0
M  V30 1348 H 127.264 4.82823 -4.43353 0
M  V30 1349 H 126.784 5.30961 -2.78999 0
M  V30 1350 H 128.463 5.54335 -3.33648 0
M  V30 1351 N 128.595 0.856903 1.32268 0
M  V30 1352 C 129.835 0.467705 1.98977 0
M  V30 1353 C 130.199 -0.959231 1.66321 0
M  V30 1354 O 131.4 -1.4531 2.26138 0
M  V30 1355 C 129.671 0.70256 3.50427 0
M  V30 1356 S 131.23 0.411269 4.36868 0
M  V30 1357 H 128.048 0.175121 0.689096 0
M  V30 1358 H 130.65 1.1101 1.60925 0
M  V30 1359 H 129.354 1.74012 3.71683 0
M  V30 1360 H 128.885 0.0466707 3.93372 0
M  V30 1361 H 130.9 -0.761799 4.90317 0
M  V30 1362 N 130.073 -1.45103 0.615059 0
M  V30 1363 C 131.313 -2.04069 0.116282 0
M  V30 1364 C 131.677 -1.4721 -1.2326 0
M  V30 1365 O 132.878 -1.97577 -1.82255 0
M  V30 1366 C 131.149 -3.57298 0.085482 0
M  V30 1367 S 132.708 -4.37394 -0.351015 0
M  V30 1368 H 129.526 -0.709006 0.0532183 0
M  V30 1369 H 132.128 -1.77709 0.81484 0
M  V30 1370 H 130.832 -3.9619 1.0706 0
M  V30 1371 H 130.363 -3.88244 -0.634835 0
M  V30 1372 H 132.378 -4.69734 -1.59889 0
M  V30 1373 N 131.551 -0.354651 -1.53558 0
M  V30 1374 C 132.514 0.484566 -2.24019 0
M  V30 1375 C 133.514 1.01861 -1.24422 0
M  V30 1376 O 134.704 0.906097 -1.4878 0
M  V30 1377 C 131.836 1.67615 -2.96847 0
M  V30 1378 H 133.029 -0.131843 -2.9961 0
M  V30 1379 H 130.582 -0.106165 -1.55939 0
M  V30 1380 H 131.317 2.33095 -2.25471 0
M  V30 1381 H 131.102 1.30029 -3.69912 0
M  V30 1382 H 132.592 2.27114 -3.50441 0
M  V30 1383 N 133.029 1.57378 -0.0835403 0
M  V30 1384 C 134.306 1.85363 0.624507 0
M  V30 1385 C 134.686 0.978239 1.87066 0
M  V30 1386 O 134.034 0.0475908 2.2845 0
M  V30 1387 C 134.244 3.35795 0.950947 0
M  V30 1388 C 135.592 4.03581 1.31939 0
M  V30 1389 O 136.616 3.40609 1.04232 0
M  V30 1390 O 135.475 5.14672 1.83779 0
M  V30 1391 H 132.569 0.766162 0.311329 0
M  V30 1392 H 135.115 1.69307 -0.115362 0
M  V30 1393 H 133.887 3.91244 0.0663899 0
M  V30 1394 H 133.51 3.57154 1.74719 0
M  V30 1395 N 134.507 -0.190092 1.56449 0
M  V30 1396 C 135.756 -0.907912 1.80111 0
M  V30 1397 C 136.069 -1.84214 0.657619 0
M  V30 1398 O 137.275 -2.60094 0.778663 0
M  V30 1399 C 135.731 -1.66485 3.19078 0
M  V30 1400 C 135.339 -0.7752 4.41242 0
M  V30 1401 C 137.083 -2.37201 3.52045 0
M  V30 1402 C 134.99 -1.53129 5.71231 0
M  V30 1403 H 133.92 -0.34276 0.671589 0
M  V30 1404 H 136.571 -0.161109 1.82791 0
M  V30 1405 H 134.953 -2.45572 3.10661 0
M  V30 1406 H 136.127 -0.0226298 4.60794 0
M  V30 1407 H 134.442 -0.178627 4.16017 0
M  V30 1408 H 137.039 -2.94329 4.46402 0
M  V30 1409 H 137.382 -3.11632 2.76028 0
M  V30 1410 H 137.915 -1.65075 3.61932 0
M  V30 1411 H 134.654 -0.82967 6.50228 0
M  V30 1412 H 134.174 -2.25767 5.55688 0
M  V30 1413 H 135.853 -2.08377 6.12526 0
M  V30 1414 N 135.985 -1.50799 -0.457987 0
M  V30 1415 C 136.933 -1.71162 -1.575 0
M  V30 1416 C 137.927 -0.577592 -1.59249 0
M  V30 1417 O 139.133 -0.758443 -1.63241 0
M  V30 1418 H 135.508 -0.540468 -0.522875 0
M  V30 1419 H 137.479 -2.64837 -1.37492 0
M  V30 1420 C 136.228 -1.83496 -2.95338 0
M  V30 1421 H 135.551 -2.70153 -2.94716 0
M  V30 1422 H 136.991 -2.01765 -3.72917 0
M  V30 1423 C 135.45 -0.589694 -3.31699 0
M  V30 1424 O 135.98 0.265163 -4.00824 0
M  V30 1425 N 134.186 -0.439845 -2.87252 0
M  V30 1426 H 133.733 -1.13655 -2.31172 0
M  V30 1427 H 133.691 0.392159 -3.11945 0
M  V30 1428 N 137.463 0.71206 -1.40597 0
M  V30 1429 C 138.691 1.50111 -1.42388 0
M  V30 1430 C 139.106 1.88784 -0.0245395 0
M  V30 1431 O 138.463 1.55681 0.952351 0
M  V30 1432 C 138.514 2.7742 -2.31776 0
M  V30 1433 O 138.235 2.40382 -3.66262 0
M  V30 1434 C 139.736 3.7129 -2.42196 0
M  V30 1435 H 136.956 0.46314 -0.485533 0
M  V30 1436 H 139.5 0.878068 -1.8469 0
M  V30 1437 H 137.655 3.36001 -1.92827 0
M  V30 1438 H 138.069 3.22324 -4.13772 0
M  V30 1439 H 139.543 4.57448 -3.08943 0
M  V30 1440 H 140.02 4.14641 -1.44809 0
M  V30 1441 H 140.626 3.18619 -2.81712 0
M  V30 1442 N 138.941 1.26152 0.944643 0
M  V30 1443 C 139.904 1.07474 2.0244 0
M  V30 1444 C 140.904 0.0242064 1.60782 0
M  V30 1445 O 142.094 0.267302 1.72137 0
M  V30 1446 C 139.226 0.633956 3.34953 0
M  V30 1447 H 140.419 2.03336 2.20442 0
M  V30 1448 H 137.972 1.087 1.12312 0
M  V30 1449 H 138.707 -0.326811 3.22649 0
M  V30 1450 H 138.492 1.39247 3.66542 0
M  V30 1451 H 139.982 0.52501 4.14287 0
M  V30 1452 N 140.419 -1.14872 1.07899 0
M  V30 1453 C 141.366 -2.19791 0.704319 0
M  V30 1454 C 142.336 -1.63238 -0.306987 0
M  V30 1455 O 143.521 -1.8983 -0.192171 0
M  V30 1456 C 140.661 -3.44911 0.114244 0
M  V30 1457 C 139.774 -4.15637 1.1777 0
M  V30 1458 C 138.909 -5.28324 0.552037 0
M  V30 1459 C 137.948 -5.90875 1.59789 0
M  V30 1460 N 137.085 -6.95022 0.994404 0
M  V30 1461 H 141.925 -2.5119 1.60336 0
M  V30 1462 H 139.462 -1.23356 0.801352 0
M  V30 1463 H 141.42 -4.16477 -0.245544 0
M  V30 1464 H 140.05 -3.14011 -0.74813 0
M  V30 1465 H 139.102 -3.42512 1.65499 0
M  V30 1466 H 140.414 -4.5823 1.97046 0
M  V30 1467 H 139.568 -6.06538 0.1402 0
M  V30 1468 H 138.307 -4.86939 -0.272431 0
M  V30 1469 H 137.312 -5.11369 2.01945 0
M  V30 1470 H 138.537 -6.34337 2.42474 0
M  V30 1471 H 136.483 -6.55722 0.190939 0
M  V30 1472 H 136.4 -7.36073 1.72432 0
M  V30 1473 H 137.668 -7.77123 0.608253 0
M  V30 1474 N 141.898 -0.863906 -1.31812 0
M  V30 1475 C 143.146 -0.470904 -1.96537 0
M  V30 1476 C 143.467 0.978771 -1.68657 0
M  V30 1477 O 142.737 1.6853 -0.998717 0
M  V30 1478 H 141.317 -0.171148 -0.72713 0
M  V30 1479 H 143.979 -1.10236 -1.60729 0
M  V30 1480 H 143.075 -0.623616 -3.05806 0
M  V30 1481 N 143.376 1.44774 -0.622745 0
M  V30 1482 C 144.339 2.29069 0.0774015 0
M  V30 1483 C 145.339 1.4059 0.780461 0
M  V30 1484 O 146.529 1.62551 0.626322 0
M  V30 1485 C 143.661 3.21974 1.12006 0
M  V30 1486 H 144.854 2.92459 -0.663901 0
M  V30 1487 H 142.407 1.51548 -0.382486 0
M  V30 1488 H 143.142 2.63417 1.89162 0
M  V30 1489 H 142.927 3.87168 0.619951 0
M  V30 1490 H 144.417 3.85318 1.60995 0
M  V30 1491 N 144.854 0.36279 1.53368 0
M  V30 1492 C 145.784 -0.476976 2.28576 0
M  V30 1493 C 146.765 -1.08631 1.30894 0
M  V30 1494 O 147.95 -1.10409 1.59761 0
M  V30 1495 C 145.08 -1.61828 3.07293 0
M  V30 1496 C 144.034 -1.13633 4.1264 0
M  V30 1497 C 143.36 -2.36766 4.79423 0
M  V30 1498 C 144.66 -0.223061 5.21823 0
M  V30 1499 H 146.354 0.150474 2.99022 0
M  V30 1500 H 143.9 0.0738103 1.43811 0
M  V30 1501 H 145.853 -2.21237 3.58653 0
M  V30 1502 H 144.577 -2.27292 2.34533 0
M  V30 1503 H 143.236 -0.564945 3.62221 0
M  V30 1504 H 142.884 -3.0068 4.03238 0
M  V30 1505 H 142.584 -2.05192 5.50609 0
M  V30 1506 H 144.108 -2.96865 5.33576 0
M  V30 1507 H 145.522 -0.724545 5.68703 0
M  V30 1508 H 143.919 0.001678 6.001 0
M  V30 1509 H 144.989 0.735553 4.79289 0
M  V30 1510 N 146.332 -1.57332 0.0918853 0
M  V30 1511 C 147.609 -1.85691 -0.614668 0
M  V30 1512 C 147.989 -0.988146 -1.86545 0
M  V30 1513 O 147.337 -0.0597055 -2.28422 0
M  V30 1514 C 147.547 -3.36294 -0.933126 0
M  V30 1515 C 148.895 -4.04275 -1.29796 0
M  V30 1516 O 149.919 -3.41157 -1.02424 0
M  V30 1517 O 148.778 -5.1564 -1.81047 0
M  V30 1518 H 145.872 -0.767802 -0.307261 0
M  V30 1519 H 148.418 -1.69244 0.12434 0
M  V30 1520 H 147.19 -3.91273 -0.0456404 0
M  V30 1521 H 146.813 -3.58076 -1.72822 0
M  V30 1522 N 147.81 0.181792 -1.56548 0
M  V30 1523 C 149.056 0.901431 -1.81665 0
M  V30 1524 C 149.389 1.82347 -0.668075 0
M  V30 1525 O 148.664 1.91669 0.330615 0
M  V30 1526 C 148.947 1.70618 -3.17115 0
M  V30 1527 C 148.8 0.807964 -4.42484 0
M  V30 1528 C 150.119 2.67605 -3.49393 0
M  V30 1529 H 147.238 0.32627 -0.660846 0
M  V30 1530 H 149.88 0.168134 -1.89255 0
M  V30 1531 H 148.03 2.33133 -3.10775 0
M  V30 1532 H 149.702 0.19649 -4.60881 0
M  V30 1533 H 147.945 0.115411 -4.33646 0
M  V30 1534 H 148.616 1.40632 -5.33785 0
M  V30 1535 H 151.092 2.15218 -3.56118 0
M  V30 1536 H 149.968 3.20985 -4.45264 0
M  V30 1537 H 150.229 3.47298 -2.73563 0
M  V30 1538 N 149.288 1.51039 0.449983 0
M  V30 1539 C 150.251 1.70863 1.5277 0
M  V30 1540 C 151.251 0.578846 1.5002 0
M  V30 1541 O 152.441 0.846213 1.52266 0
M  V30 1542 C 149.573 1.75341 2.9235 0
M  V30 1543 H 150.766 2.67034 1.36502 0
M  V30 1544 H 148.319 1.40838 0.677812 0
M  V30 1545 H 149.054 0.809383 3.14037 0
M  V30 1546 H 148.839 2.57436 2.95752 0
M  V30 1547 H 150.329 1.92559 3.70555 0
M  V30 1548 N 150.766 -0.704594 1.40972 0
M  V30 1549 C 151.713 -1.81862 1.42109 0
M  V30 1550 C 152.683 -1.63781 0.276593 0
M  V30 1551 O 153.868 -1.84759 0.4763 0
M  V30 1552 C 151.008 -3.19669 1.30022 0
M  V30 1553 C 150.121 -3.49246 2.54267 0
M  V30 1554 C 149.256 -4.76618 2.3454 0
M  V30 1555 C 148.295 -4.99133 3.54306 0
M  V30 1556 N 147.432 -6.17726 3.33706 0
M  V30 1557 H 152.272 -1.80226 2.37324 0
M  V30 1558 H 149.809 -0.880238 1.17857 0
M  V30 1559 H 151.767 -3.99263 1.21018 0
M  V30 1560 H 150.397 -3.20506 0.384192 0
M  V30 1561 H 149.449 -2.64125 2.73756 0
M  V30 1562 H 150.761 -3.61788 3.43381 0
M  V30 1563 H 149.915 -5.64249 2.22952 0
M  V30 1564 H 148.654 -4.66305 1.42867 0
M  V30 1565 H 147.659 -4.09953 3.66359 0
M  V30 1566 H 148.884 -5.11311 4.4692 0
M  V30 1567 H 146.83 -6.08642 2.44725 0
M  V30 1568 H 146.747 -6.30995 4.16391 0
M  V30 1569 H 148.015 -7.08115 3.25873 0
M  V30 1570 N 152.244 -1.26651 -0.937939 0
M  V30 1571 C 153.154 -1.10276 -2.07066 0
M  V30 1572 C 154.17 -0.0354197 -1.73964 0
M  V30 1573 O 155.346 -0.239816 -1.99967 0
M  V30 1574 C 152.411 -0.740887 -3.38691 0
M  V30 1575 C 151.472 -1.88799 -3.85556 0
M  V30 1576 C 150.705 -1.54329 -5.10899 0
M  V30 1577 O 150.928 -0.446494 -5.6865 0
M  V30 1578 O 149.862 -2.37911 -5.52885 0
M  V30 1579 H 153.688 -2.05309 -2.23789 0
M  V30 1580 H 151.273 -1.05743 -1.0554 0
M  V30 1581 H 153.155 -0.55195 -4.1777 0
M  V30 1582 H 151.83 0.180022 -3.23199 0
M  V30 1583 H 150.737 -2.13191 -3.07409 0
M  V30 1584 H 152.07 -2.78874 -4.05574 0
M  V30 1585 N 153.722 1.14298 -1.08507 0
M  V30 1586 C 154.969 1.85359 -0.815373 0
M  V30 1587 C 155.297 1.83001 0.658865 0
M  V30 1588 O 154.552 1.25655 1.50031 0
M  V30 1589 C 154.851 3.33547 -1.28379 0
M  V30 1590 C 154.517 3.56093 -2.76602 0
M  V30 1591 C 153.179 3.61955 -3.17084 0
M  V30 1592 C 155.531 3.64834 -3.72217 0
M  V30 1593 C 152.859 3.74082 -4.51973 0
M  V30 1594 C 155.211 3.78487 -5.06883 0
M  V30 1595 C 153.875 3.82598 -5.46969 0
M  V30 1596 H 153.145 0.678276 -0.298366 0
M  V30 1597 H 155.792 1.35002 -1.35819 0
M  V30 1598 H 154.097 3.86191 -0.660593 0
M  V30 1599 H 155.794 3.86959 -1.05186 0
M  V30 1600 H 152.384 3.52179 -2.4427 0
M  V30 1601 H 156.568 3.59595 -3.42061 0
M  V30 1602 H 151.824 3.75527 -4.82483 0
M  V30 1603 H 155.998 3.84193 -5.80834 0
M  V30 1604 H 153.625 3.91747 -6.51489 0
M  V30 1605 N 155.201 0.870884 1.31352 0
M  V30 1606 C 156.149 0.316445 2.30437 0
M  V30 1607 C 157.143 -0.568965 1.59559 0
M  V30 1608 O 158.349 -0.454964 1.74155 0
M  V30 1609 H 154.724 0.0836521 0.747333 0
M  V30 1610 H 156.695 1.16606 2.74673 0
M  V30 1611 C 155.444 -0.46635 3.44558 0
M  V30 1612 H 154.767 0.205687 3.99271 0
M  V30 1613 H 156.207 -0.819614 4.16003 0
M  V30 1614 C 154.666 -1.65797 2.9328 0
M  V30 1615 O 155.196 -2.75728 2.92125 0
M  V30 1616 N 153.402 -1.49041 2.4947 0
M  V30 1617 H 152.949 -0.59612 2.50608 0
M  V30 1618 H 152.907 -2.28911 2.15516 0
M  V30 1619 N 156.679 -1.44442 0.630414 0
M  V30 1620 C 157.927 -2.01653 0.134351 0
M  V30 1621 C 158.248 -1.49836 -1.24796 0
M  V30 1622 O 157.518 -0.701684 -1.82902 0
M  V30 1623 H 156.098 -0.74554 0.0466769 0
M  V30 1624 H 158.76 -1.76952 0.816955 0
M  V30 1625 H 157.856 -3.11935 0.101498 0
M  V30 1626 N 158.157 -0.370918 -1.53173 0
M  V30 1627 C 159.434 0.273754 -1.93675 0
M  V30 1628 C 159.814 1.65938 -1.3049 0
M  V30 1629 O 159.162 2.23698 -0.465999 0
M  V30 1630 C 159.372 0.318602 -3.47543 0
M  V30 1631 C 160.72 0.556392 -4.20939 0
M  V30 1632 O 161.744 0.399587 -3.53952 0
M  V30 1633 O 160.603 0.862133 -5.39657 0
M  V30 1634 H 157.697 0.165448 -0.810281 0
M  V30 1635 H 160.243 -0.42409 -1.64315 0
M  V30 1636 H 159.015 -0.652687 -3.85818 0
M  V30 1637 H 158.638 1.06212 -3.83151 0
M  V30 1638 N 159.635 1.57281 -0.100228 0
M  V30 1639 C 160.881 1.94826 0.563101 0
M  V30 1640 C 161.214 0.982475 1.67514 0
M  V30 1641 O 160.489 0.0164069 1.94493 0
M  V30 1642 C 160.772 3.42453 1.11346 0
M  V30 1643 C 160.625 4.498 0.00612081 0
M  V30 1644 C 161.944 3.91506 2.01024 0
M  V30 1645 H 159.063 0.708428 0.203221 0
M  V30 1646 H 161.705 1.8922 -0.171979 0
M  V30 1647 H 159.855 3.47361 1.7399 0
M  V30 1648 H 161.527 4.57 -0.628357 0
M  V30 1649 H 159.77 4.28756 -0.659581 0
M  V30 1650 H 160.441 5.50306 0.432109 0
M  V30 1651 H 162.917 3.88784 1.48278 0
M  V30 1652 H 161.793 4.95358 2.36457 0
M  V30 1653 H 162.054 3.31099 2.92961 0
M  V30 1654 N 161.113 -0.173488 1.56642 0
M  V30 1655 C 162.045 -1.23935 1.92802 0
M  V30 1656 C 163.058 -1.40589 0.820889 0
M  V30 1657 O 164.247 -1.40631 1.09933 0
M  V30 1658 C 161.347 -2.60837 2.16373 0
M  V30 1659 C 160.52 -2.6551 3.47596 0
M  V30 1660 C 159.579 -3.8376 3.60021 0
M  V30 1661 O 158.605 -3.69859 4.32658 0
M  V30 1662 N 159.807 -5.00127 2.94709 0
M  V30 1663 H 162.572 -0.932236 2.84832 0
M  V30 1664 H 160.133 -0.363268 1.57772 0
M  V30 1665 H 162.125 -3.38407 2.21952 0
M  V30 1666 H 160.695 -2.83948 1.30738 0
M  V30 1667 H 159.915 -1.74052 3.53694 0
M  V30 1668 H 161.203 -2.65641 4.33949 0
M  V30 1669 H 160.601 -5.14322 2.35563 0
M  V30 1670 H 159.158 -5.75567 3.05886 0
M  V30 1671 N 162.591 -1.51276 -0.441967 0
M  V30 1672 C 163.84 -1.6295 -1.18871 0
M  V30 1673 C 164.153 -0.349312 -1.92456 0
M  V30 1674 O 165.359 -0.345355 -2.69295 0
M  V30 1675 C 163.815 -2.87759 -2.16155 0
M  V30 1676 C 163.423 -4.22764 -1.48239 0
M  V30 1677 C 165.167 -3.08788 -2.91291 0
M  V30 1678 C 163.074 -5.38728 -2.4398 0
M  V30 1679 H 162.004 -0.606913 -0.447406 0
M  V30 1680 H 164.655 -1.77739 -0.456205 0
M  V30 1681 H 163.037 -2.66593 -2.92821 0
M  V30 1682 H 164.211 -4.54293 -0.771635 0
M  V30 1683 H 162.526 -4.07575 -0.852741 0
M  V30 1684 H 165.123 -3.92599 -3.63002 0
M  V30 1685 H 165.466 -2.21679 -3.5237 0
M  V30 1686 H 165.999 -3.30272 -2.21733 0
M  V30 1687 H 162.738 -6.28082 -1.87598 0
M  V30 1688 H 162.258 -5.1158 -3.13123 0
M  V30 1689 H 163.937 -5.70489 -3.05207 0
M  V30 1690 N 164.069 0.697108 -1.41344 0
M  V30 1691 C 164.979 1.84088 -1.45427 0
M  V30 1692 C 165.995 1.70545 -0.34501 0
M  V30 1693 O 167.171 1.92488 -0.592492 0
M  V30 1694 C 164.236 3.20056 -1.33286 0
M  V30 1695 C 163.297 3.45718 -2.54514 0
M  V30 1696 C 162.53 4.75199 -2.42944 0
M  V30 1697 O 162.753 5.51579 -1.45318 0
M  V30 1698 O 161.687 5.0161 -3.32672 0
M  V30 1699 H 165.513 1.836 -2.41919 0
M  V30 1700 H 163.098 0.849966 -1.22866 0
M  V30 1701 H 164.98 4.01236 -1.28794 0
M  V30 1702 H 163.655 3.2123 -0.39909 0
M  V30 1703 H 162.562 2.64474 -2.64583 0
M  V30 1704 H 163.895 3.49356 -3.46715 0
M  V30 1705 N 165.547 1.27147 0.931209 0
M  V30 1706 C 166.477 1.12081 2.04842 0
M  V30 1707 C 167.458 0.0232364 1.70084 0
M  V30 1708 O 168.643 0.197085 1.93197 0
M  V30 1709 C 165.773 0.76354 3.38803 0
M  V30 1710 C 164.727 1.81396 3.87659 0
M  V30 1711 C 164.053 1.31075 5.18385 0
M  V30 1712 C 165.353 3.21739 4.11438 0
M  V30 1713 H 167.047 2.05537 2.17703 0
M  V30 1714 H 164.593 0.989603 1.04608 0
M  V30 1715 H 166.546 0.644982 4.16435 0
M  V30 1716 H 165.27 -0.206727 3.25945 0
M  V30 1717 H 163.929 1.92136 3.12217 0
M  V30 1718 H 163.577 0.330037 5.01916 0
M  V30 1719 H 163.277 2.013 5.52044 0
M  V30 1720 H 164.801 1.20506 5.98591 0
M  V30 1721 H 166.215 3.14019 4.79651 0
M  V30 1722 H 164.612 3.89644 4.56397 0
M  V30 1723 H 165.682 3.67054 3.16859 0
M  V30 1724 N 167.025 -1.13721 1.09112 0
M  V30 1725 C 168.253 -1.88773 0.846899 0
M  V30 1726 C 168.668 -1.7896 -0.601572 0
M  V30 1727 O 168.025 -1.15394 -1.41388 0
M  V30 1728 C 168.076 -3.3849 1.26913 0
M  V30 1729 O 167.797 -3.48043 2.66079 0
M  V30 1730 C 169.298 -4.30518 1.05682 0
M  V30 1731 H 166.518 -0.59772 0.304914 0
M  V30 1732 H 169.062 -1.43977 1.45227 0
M  V30 1733 H 167.217 -3.80881 0.707723 0
M  V30 1734 H 167.631 -4.4109 2.83795 0
M  V30 1735 H 169.105 -5.3391 1.40156 0
M  V30 1736 H 169.582 -4.392 -0.00563416 0
M  V30 1737 H 170.188 -3.93893 1.60402 0
M  V30 1738 N 168.503 -0.877838 -1.30888 0
M  V30 1739 C 169.751 -0.491723 -1.96027 0
M  V30 1740 C 170.072 0.960827 -1.69685 0
M  V30 1741 O 169.342 1.67462 -1.01654 0
M  V30 1742 H 167.922 -0.17885 -0.725273 0
M  V30 1743 H 170.584 -1.11935 -1.59551 0
M  V30 1744 H 169.68 -0.656016 -3.05128 0
M  V30 1745 N 169.982 1.44106 -0.638065 0
M  V30 1746 C 171.212 2.06037 -0.152394 0
M  V30 1747 C 171.62 1.47808 1.18108 0
M  V30 1748 O 170.963 0.598092 1.73691 0
M  V30 1749 C 171.025 3.59488 0.0293714 0
M  V30 1750 C 170.689 4.4022 -1.22702 0
M  V30 1751 C 171.686 4.73256 -2.15232 0
M  V30 1752 C 169.371 4.8048 -1.46437 0
M  V30 1753 C 171.365 5.45444 -3.29802 0
M  V30 1754 C 169.052 5.52417 -2.61303 0
M  V30 1755 C 170.05 5.84819 -3.52811 0
M  V30 1756 O 169.738 6.55289 -4.65673 0
M  V30 1757 H 169.47 0.671233 -0.0801401 0
M  V30 1758 H 172.024 1.85851 -0.874563 0
M  V30 1759 H 170.254 3.78191 0.806758 0
M  V30 1760 H 171.943 4.03164 0.470475 0
M  V30 1761 H 172.709 4.42684 -1.98131 0
M  V30 1762 H 168.588 4.54676 -0.760977 0
M  V30 1763 H 172.132 5.70653 -4.01249 0
M  V30 1764 H 168.029 5.82404 -2.78344 0
M  V30 1765 H 168.797 6.73762 -4.64744 0
M  V30 1766 N 171.46 0.379036 1.52974 0
M  V30 1767 C 172.706 -0.199244 2.02422 0
M  V30 1768 C 173.061 -1.4532 1.26095 0
M  V30 1769 O 172.354 -1.88377 0.34996 0
M  V30 1770 C 172.548 -0.53096 3.53434 0
M  V30 1771 C 172.377 0.689298 4.44386 0
M  V30 1772 C 171.147 1.20546 4.9071 0
M  V30 1773 C 173.345 1.55856 4.90116 0
M  V30 1774 N 171.327 2.38434 5.65705 0
M  V30 1775 C 172.698 2.58396 5.63588 0
M  V30 1776 C 174.753 1.57986 4.7217 0
M  V30 1777 C 173.456 3.62939 6.21022 0
M  V30 1778 C 175.482 2.6143 5.30479 0
M  V30 1779 C 174.844 3.62693 6.03849 0
M  V30 1780 H 170.943 -0.0352671 0.781204 0
M  V30 1781 H 173.527 0.526614 1.87443 0
M  V30 1782 H 171.698 -1.22588 3.68547 0
M  V30 1783 H 173.43 -1.0955 3.89591 0
M  V30 1784 H 170.185 0.768022 4.67331 0
M  V30 1785 H 170.609 2.98055 6.07859 0
M  V30 1786 H 175.251 0.810475 4.14959 0
M  V30 1787 H 172.969 4.40751 6.77321 0
M  V30 1788 H 176.555 2.63949 5.18481 0
M  V30 1789 H 175.435 4.41424 6.48163 0
M  V30 1790 N 172.938 -1.57226 0.108567 0
M  V30 1791 C 174.166 -1.99179 -0.559954 0
M  V30 1792 C 174.581 -0.988022 -1.60884 0
M  V30 1793 O 173.938 0.0205512 -1.82488 0
M  V30 1794 C 173.989 -3.41159 -1.19552 0
M  V30 1795 O 173.71 -4.37694 -0.188577 0
M  V30 1796 C 175.211 -3.98188 -1.94837 0
M  V30 1797 H 172.431 -0.654228 -0.149088 0
M  V30 1798 H 174.975 -2.03598 0.19183 0
M  V30 1799 H 173.13 -3.37711 -1.89815 0
M  V30 1800 H 173.544 -5.20469 -0.649014 0
M  V30 1801 H 175.018 -4.99644 -2.34648 0
M  V30 1802 H 175.495 -3.3675 -2.81951 0
M  V30 1803 H 176.101 -4.0515 -1.2936 0
M  V30 1804 N 174.416 0.165178 -1.56732 0
M  V30 1805 C 175.662 0.877389 -1.83503 0
M  V30 1806 C 176.017 1.79602 -0.689996 0
M  V30 1807 O 175.31 1.89023 0.313205 0
M  V30 1808 C 175.504 1.70405 -3.1416 0
M  V30 1809 C 175.333 0.866961 -4.41264 0
M  V30 1810 C 174.103 0.539646 -5.0241 0
M  V30 1811 C 176.301 0.205671 -5.13889 0
M  V30 1812 N 174.283 -0.312946 -6.13102 0
M  V30 1813 C 175.654 -0.507823 -6.17917 0
M  V30 1814 C 177.709 0.124468 -4.97744 0
M  V30 1815 C 176.412 -1.29483 -7.0755 0
M  V30 1816 C 178.438 -0.649222 -5.87826 0
M  V30 1817 C 177.8 -1.35106 -6.91322 0
M  V30 1818 H 173.899 0.299477 -0.722383 0
M  V30 1819 H 176.483 0.143949 -1.94167 0
M  V30 1820 H 174.654 2.40887 -3.04677 0
M  V30 1821 H 176.386 2.35804 -3.28905 0
M  V30 1822 H 173.141 0.871176 -4.65519 0
M  V30 1823 H 173.565 -0.729731 -6.73056 0
M  V30 1824 H 178.207 0.652724 -4.17731 0
M  V30 1825 H 175.925 -1.83441 -7.87004 0
M  V30 1826 H 179.511 -0.713804 -5.77405 0
M  V30 1827 H 178.391 -1.94013 -7.59821 0
M  V30 1828 N 175.894 1.51508 0.433938 0
M  V30 1829 C 176.804 1.75917 1.5521 0
M  V30 1830 C 177.82 0.643545 1.61662 0
M  V30 1831 O 178.996 0.926183 1.7884 0
M  V30 1832 C 176.061 1.88213 2.91164 0
M  V30 1833 C 175.122 3.12074 2.94802 0
M  V30 1834 C 174.355 3.23774 4.24271 0
M  V30 1835 O 174.578 2.4133 5.16833 0
M  V30 1836 O 173.512 4.16774 4.34262 0
M  V30 1837 H 177.338 2.70777 1.37527 0
M  V30 1838 H 174.923 1.36051 0.617293 0
M  V30 1839 H 176.805 1.98267 3.71845 0
M  V30 1840 H 175.48 0.965413 3.08968 0
M  V30 1841 H 174.387 3.07497 2.13065 0
M  V30 1842 H 175.72 4.03446 2.81943 0
M  V30 1843 N 177.372 -0.689602 1.41712 0
M  V30 1844 C 178.304 -1.815 1.39966 0
M  V30 1845 C 179.317 -1.59995 0.300917 0
M  V30 1846 O 180.506 -1.69387 0.563039 0
M  V30 1847 C 177.606 -3.18364 1.16179 0
M  V30 1848 C 176.779 -3.66847 2.38206 0
M  V30 1849 C 175.838 -4.82398 2.10186 0
M  V30 1850 O 174.864 -4.93706 2.83272 0
M  V30 1851 N 176.066 -5.70064 1.0958 0
M  V30 1852 H 178.831 -1.83488 2.36965 0
M  V30 1853 H 176.392 -0.872149 1.36401 0
M  V30 1854 H 178.384 -3.93301 0.953756 0
M  V30 1855 H 176.954 -3.11365 0.27756 0
M  V30 1856 H 176.174 -2.82751 2.74673 0
M  V30 1857 H 177.462 -3.95978 3.19498 0
M  V30 1858 H 176.86 -5.63565 0.491019 0
M  V30 1859 H 175.417 -6.44874 0.947656 0
M  V30 1860 N 178.85 -1.27639 -0.924453 0
M  V30 1861 C 179.813 -1.10681 -2.00705 0
M  V30 1862 C 180.813 -0.0497823 -1.60723 0
M  V30 1863 O 182.003 -0.294654 -1.7169 0
M  V30 1864 C 179.135 -0.687164 -3.33902 0
M  V30 1865 H 180.328 -2.06817 -2.17179 0
M  V30 1866 H 177.881 -1.10473 -1.10569 0
M  V30 1867 H 178.616 0.275439 -3.23128 0
M  V30 1868 H 178.401 -1.45061 -3.6428 0
M  V30 1869 H 179.891 -0.590853 -4.13399 0
M  V30 1870 N 180.328 1.1314 -1.09713 0
M  V30 1871 C 181.26 2.18343 -0.697056 0
M  V30 1872 C 182.273 1.60669 0.262551 0
M  V30 1873 O 183.462 1.78435 0.0481527 0
M  V30 1874 C 180.562 3.38899 -0.00684728 0
M  V30 1875 C 179.735 4.26078 -0.988741 0
M  V30 1876 C 178.794 5.25155 -0.331394 0
M  V30 1877 O 177.82 5.60701 -0.979926 0
M  V30 1878 N 179.022 5.73271 0.913261 0
M  V30 1879 H 181.787 2.5328 -1.60216 0
M  V30 1880 H 179.348 1.28491 -0.984971 0
M  V30 1881 H 181.34 4.02255 0.444191 0
M  V30 1882 H 179.91 3.02175 0.800551 0
M  V30 1883 H 179.13 3.59453 -1.61826 0
M  V30 1884 H 180.418 4.81178 -1.65364 0
M  V30 1885 H 179.816 5.46544 1.45966 0
M  V30 1886 H 178.373 6.3855 1.30757 0
M  V30 1887 N 181.806 0.884767 1.30421 0
M  V30 1888 C 182.738 0.308655 2.27112 0
M  V30 1889 C 183.751 -0.536655 1.53701 0
M  V30 1890 O 184.94 -0.35624 1.74909 0
M  V30 1891 C 182.04 -0.579782 3.33904 0
M  V30 1892 C 181.213 0.236417 4.36761 0
M  V30 1893 C 180.272 -0.582482 5.22966 0
M  V30 1894 O 179.298 -0.00525502 5.692 0
M  V30 1895 N 180.5 -1.89163 5.48815 0
M  V30 1896 H 183.265 1.13964 2.77186 0
M  V30 1897 H 180.826 0.747731 1.43599 0
M  V30 1898 H 182.818 -1.13366 3.88497 0
M  V30 1899 H 181.388 -1.31144 2.83761 0
M  V30 1900 H 180.608 0.97174 3.82035 0
M  V30 1901 H 181.896 0.795924 5.02536 0
M  V30 1902 H 181.294 -2.38352 5.13035 0
M  V30 1903 H 179.851 -2.39296 6.06284 0
M  V30 1904 N 183.284 -1.43765 0.645699 0
M  V30 1905 C 184.53 -2.02731 0.164844 0
M  V30 1906 C 184.885 -1.49983 -1.2051 0
M  V30 1907 O 184.178 -0.680208 -1.79119 0
M  V30 1908 C 184.372 -3.57238 0.107679 0
M  V30 1909 C 184.201 -4.24977 1.47054 0
M  V30 1910 C 182.971 -4.61356 2.06103 0
M  V30 1911 C 185.169 -4.54476 2.40741 0
M  V30 1912 N 183.151 -5.14132 3.35473 0
M  V30 1913 C 184.522 -5.08489 3.54737 0
M  V30 1914 C 186.577 -4.36438 2.39637 0
M  V30 1915 C 185.28 -5.46364 4.67845 0
M  V30 1916 C 187.306 -4.7537 3.5182 0
M  V30 1917 C 186.668 -5.2951 4.64541 0
M  V30 1918 H 182.767 -0.774976 0.104578 0
M  V30 1919 H 185.351 -1.75051 0.852367 0
M  V30 1920 H 183.522 -3.84498 -0.549165 0
M  V30 1921 H 185.254 -4.0288 -0.383351 0
M  V30 1922 H 182.009 -4.46151 1.58892 0
M  V30 1923 H 182.433 -5.4498 4.01654 0
M  V30 1924 H 187.075 -3.93861 1.53731 0
M  V30 1925 H 184.793 -5.87888 5.54448 0
M  V30 1926 H 188.379 -4.63115 3.52159 0
M  V30 1927 H 187.259 -5.59077 5.49911 0
M  V30 1928 N 184.763 -0.387143 -1.52771 0
M  V30 1929 C 186.179 -0.037007 -1.59557 0
M  V30 1930 C 186.379 1.44801 -1.40124 0
M  V30 1931 O 185.435 2.21227 -1.21716 0
M  V30 1932 C 186.748 -0.512256 -2.96305 0
M  V30 1933 C 188.296 -0.468328 -3.09476 0
M  V30 1934 C 188.771 -0.919731 -4.4867 0
M  V30 1935 N 190.262 -0.875656 -4.54848 0
M  V30 1936 C 190.997 -1.19637 -5.6078 0
M  V30 1937 N 190.493 -1.58745 -6.74368 0
M  V30 1938 N 192.286 -1.11776 -5.50874 0
M  V30 1939 H 184.437 -1.35395 -1.63652 0
M  V30 1940 H 186.7 -0.554818 -0.768688 0
M  V30 1941 H 186.406 -1.54935 -3.15734 0
M  V30 1942 H 186.28 0.089805 -3.77093 0
M  V30 1943 H 188.667 0.559671 -2.89744 0
M  V30 1944 H 188.748 -1.10616 -2.30646 0
M  V30 1945 H 188.392 -1.94595 -4.69143 0
M  V30 1946 H 188.322 -0.258927 -5.25963 0
M  V30 1947 H 190.813 -0.587843 -3.733 0
M  V30 1948 H 191.126 -1.81586 -7.51163 0
M  V30 1949 H 189.471 -1.6263 -6.75705 0
M  V30 1950 H 192.662 -0.811264 -4.61016 0
M  V30 1951 H 192.835 -1.37103 -6.3333 0
M  V30 1952 N 186.241 1.57166 -0.116904 0
M  V30 1953 C 187.518 1.86645 0.585049 0
M  V30 1954 C 187.898 1.0177 1.84949 0
M  V30 1955 O 187.246 0.0960379 2.28298 0
M  V30 1956 C 187.456 3.37736 0.879507 0
M  V30 1957 C 188.804 4.06289 1.23348 0
M  V30 1958 O 189.828 3.42743 0.969836 0
M  V30 1959 O 188.687 5.18455 1.7282 0
M  V30 1960 H 185.781 0.772593 0.295007 0
M  V30 1961 H 188.327 1.69025 -0.151249 0
M  V30 1962 H 187.099 3.91296 -0.0166136 0
M  V30 1963 H 186.722 3.6078 1.67103 0
M  V30 1964 N 187.719 -0.156864 1.56817 0
M  V30 1965 C 188.682 -1.17781 1.96622 0
M  V30 1966 C 189.682 -1.36401 0.851555 0
M  V30 1967 O 190.872 -1.33561 1.11836 0
M  V30 1968 C 188.004 -2.54008 2.27361 0
M  V30 1969 H 189.197 -0.836564 2.87996 0
M  V30 1970 H 186.75 -0.39985 1.51099 0
M  V30 1971 H 187.485 -2.9312 1.38748 0
M  V30 1972 H 187.27 -2.41856 3.08623 0
M  V30 1973 H 188.76 -3.27558 2.59029 0
M  V30 1974 N 189.197 -1.51736 -0.425897 0
M  V30 1975 C 190.445 -1.64644 -1.17204 0
M  V30 1976 C 190.766 -0.370486 -1.91448 0
M  V30 1977 O 190.036 0.614088 -1.86026 0
M  V30 1978 H 188.616 -0.606819 -0.435638 0
M  V30 1979 H 191.278 -1.88713 -0.487177 0
M  V30 1980 H 190.374 -2.47958 -1.89534 0
M  V30 1981 N 190.675 0.682077 -1.42076 0
M  V30 1982 C 191.924 1.43786 -1.41451 0
M  V30 1983 C 192.237 1.95574 -0.0317074 0
M  V30 1984 O 193.443 2.71326 0.0971462 0
M  V30 1985 C 191.899 2.60071 -2.48779 0
M  V30 1986 C 191.507 2.15013 -3.93031 0
M  V30 1987 C 193.251 3.37626 -2.57311 0
M  V30 1988 C 191.158 3.28336 -4.91883 0
M  V30 1989 H 190.088 0.540143 -0.526082 0
M  V30 1990 H 192.739 0.739157 -1.67955 0
M  V30 1991 H 191.121 3.32275 -2.15429 0
M  V30 1992 H 192.295 1.5001 -4.35699 0
M  V30 1993 H 190.61 1.50416 -3.88284 0
M  V30 1994 H 193.207 4.22012 -3.28345 0
M  V30 1995 H 193.55 3.83727 -1.61429 0
M  V30 1996 H 194.083 2.72488 -2.89819 0
M  V30 1997 H 190.822 2.87234 -5.89217 0
M  V30 1998 H 190.342 3.92145 -4.53853 0
M  V30 1999 H 192.021 3.93913 -5.13265 0
M  V30 2000 N 192.153 1.28127 0.917671 0
M  V30 2001 C 193.401 1.14825 1.66312 0
M  V30 2002 C 193.722 -0.304379 1.9261 0
M  V30 2003 O 192.992 -1.21149 1.53947 0
M  V30 2004 H 191.572 0.421953 0.616413 0
M  V30 2005 H 194.234 1.608 1.10134 0
M  V30 2006 H 193.33 1.68489 2.62712 0
M  V30 2007 N 193.631 -1.12557 1.10312 0
M  V30 2008 C 194.563 -2.17971 0.708625 0
M  V30 2009 C 195.576 -1.60806 -0.254027 0
M  V30 2010 O 196.765 -1.78458 -0.0386891 0
M  V30 2011 C 193.865 -3.38891 0.0248198 0
M  V30 2012 C 193.038 -4.25548 1.01132 0
M  V30 2013 C 192.097 -5.24972 0.35924 0
M  V30 2014 O 191.123 -5.60174 1.00965 0
M  V30 2015 N 192.325 -5.73747 -0.882847 0
M  V30 2016 H 195.09 -2.52427 1.61557 0
M  V30 2017 H 192.651 -1.27967 0.991771 0
M  V30 2018 H 194.643 -4.02485 -0.422852 0
M  V30 2019 H 193.213 -3.02596 -0.784514 0
M  V30 2020 H 192.433 -3.58589 1.6373 0
M  V30 2021 H 193.721 -4.80294 1.67914 0
M  V30 2022 H 193.119 -5.4731 -1.43065 0
M  V30 2023 H 191.676 -6.39234 -1.27369 0
M  V30 2024 N 195.109 -0.891671 -1.2995 0
M  V30 2025 C 196.355 -0.514261 -1.96171 0
M  V30 2026 C 196.688 0.935506 -1.70182 0
M  V30 2027 O 195.963 1.66204 -1.01028 0
M  V30 2028 C 196.246 -0.797719 -3.51153 0
M  V30 2029 C 196.099 -2.2986 -3.86632 0
M  V30 2030 C 197.418 -0.278749 -4.39216 0
M  V30 2031 H 194.537 -0.188314 -0.712535 0
M  V30 2032 H 197.179 -1.11689 -1.53706 0
M  V30 2033 H 195.329 -0.284826 -3.87455 0
M  V30 2034 H 197.001 -2.88042 -3.60319 0
M  V30 2035 H 195.244 -2.76257 -3.34462 0
M  V30 2036 H 195.915 -2.44753 -4.94773 0
M  V30 2037 H 198.391 -0.717825 -4.09862 0
M  V30 2038 H 197.267 -0.506353 -5.46559 0
M  V30 2039 H 197.528 0.820266 -4.34424 0
M  V30 2040 N 196.587 1.43421 -0.653314 0
M  V30 2041 C 197.833 2.02111 -0.166992 0
M  V30 2042 C 198.166 1.51423 1.21592 0
M  V30 2043 O 197.441 0.707389 1.8118 0
M  V30 2044 C 197.724 3.5966 -0.177948 0
M  V30 2045 C 197.577 4.20579 -1.59478 0
M  V30 2046 C 198.896 4.37413 0.4856 0
M  V30 2047 H 196.015 0.734374 -0.0621557 0
M  V30 2048 H 198.657 1.70717 -0.834016 0
M  V30 2049 H 196.807 3.86537 0.390032 0
M  V30 2050 H 198.479 4.04732 -2.21336 0
M  V30 2051 H 196.722 3.77226 -2.14204 0
M  V30 2052 H 197.393 5.29665 -1.5543 0
M  V30 2053 H 199.869 4.161 0.00234528 0
M  V30 2054 H 198.745 5.47075 0.447207 0
M  V30 2055 H 199.006 4.13672 1.55974 0
M  V30 2056 N 198.065 0.39524 1.52563 0
M  V30 2057 C 199.295 -0.184675 2.05773 0
M  V30 2058 C 199.703 -1.40571 1.26635 0
M  V30 2059 O 199.046 -1.81105 0.30769 0
M  V30 2060 C 199.108 -0.613551 3.54226 0
M  V30 2061 C 198.772 0.49484 4.54313 0
M  V30 2062 C 199.769 1.3541 5.01956 0
M  V30 2063 C 197.454 0.663565 4.97898 0
M  V30 2064 C 199.448 2.36716 5.91814 0
M  V30 2065 C 197.135 1.67996 5.87555 0
M  V30 2066 C 198.133 2.53017 6.34406 0
M  V30 2067 O 197.821 3.52917 7.22291 0
M  V30 2068 H 197.553 -0.030077 0.675331 0
M  V30 2069 H 200.107 0.560708 1.97599 0
M  V30 2070 H 198.337 -1.411 3.60038 0
M  V30 2071 H 200.026 -1.11981 3.90148 0
M  V30 2072 H 200.792 1.23509 4.6901 0
M  V30 2073 H 196.671 0.0114913 4.60999 0
M  V30 2074 H 200.215 3.03113 6.28306 0
M  V30 2075 H 196.112 1.79933 6.19915 0
M  V30 2076 H 196.88 3.48996 7.40367 0
M  V30 2077 N 199.544 -1.57102 0.125237 0
M  V30 2078 C 200.494 -2.12202 -0.833936 0
M  V30 2079 C 201.478 -1.04433 -1.22403 0
M  V30 2080 O 202.67 -1.30655 -1.19408 0
M  V30 2081 C 199.799 -2.72994 -2.08157 0
M  V30 2082 C 198.885 -3.87852 -1.71556 0
M  V30 2083 N 199.276 -4.9464 -1.05662 0
M  V30 2084 C 197.574 -3.98153 -2.00973 0
M  V30 2085 C 198.275 -5.74953 -0.883376 0
M  V30 2086 N 197.251 -5.24985 -1.41036 0
M  V30 2087 H 201.053 -2.92141 -0.321035 0
M  V30 2088 H 198.567 -1.62217 -0.0770315 0
M  V30 2089 H 200.564 -3.10816 -2.77847 0
M  V30 2090 H 199.224 -1.9452 -2.59985 0
M  V30 2091 H 200.235 -5.12872 -0.719878 0
M  V30 2092 H 196.912 -3.30728 -2.54804 0
M  V30 2093 H 198.302 -6.70904 -0.365675 0
M  V30 2094 N 201.022 0.148545 -1.56898 0
M  V30 2095 C 202.438 0.501131 -1.51528 0
M  V30 2096 C 202.638 1.83458 -0.833399 0
M  V30 2097 O 201.694 2.49259 -0.40328 0
M  V30 2098 C 203.007 0.512864 -2.96294 0
M  V30 2099 C 204.555 0.598487 -3.07225 0
M  V30 2100 C 205.03 0.640897 -4.53494 0
M  V30 2101 N 206.521 0.703163 -4.57832 0
M  V30 2102 C 207.256 0.756935 -5.68382 0
M  V30 2103 N 206.752 0.770147 -6.88506 0
M  V30 2104 N 208.545 0.797698 -5.56411 0
M  V30 2105 H 200.696 -0.725532 -1.99624 0
M  V30 2106 H 202.959 -0.264358 -0.910395 0
M  V30 2107 H 202.665 -0.398691 -3.49433 0
M  V30 2108 H 202.539 1.35133 -3.52163 0
M  V30 2109 H 204.926 1.50046 -2.54106 0
M  V30 2110 H 205.007 -0.267093 -2.54402 0
M  V30 2111 H 204.651 -0.256915 -5.0725 0
M  V30 2112 H 204.581 1.52295 -5.04097 0
M  V30 2113 H 207.072 0.700314 -3.71354 0
M  V30 2114 H 207.385 0.812983 -7.68512 0
M  V30 2115 H 205.73 0.738049 -6.9107 0
M  V30 2116 H 208.921 0.784535 -4.61479 0
M  V30 2117 H 209.094 0.83614 -6.42583 0
M  V30 2118 N 202.5 1.5196 0.417844 0
M  V30 2119 C 203.725 1.69717 1.1921 0
M  V30 2120 C 204.15 0.402148 1.83751 0
M  V30 2121 O 203.508 -0.639593 1.69643 0
M  V30 2122 C 203.556 2.82794 2.2374 0
M  V30 2123 O 202.66 2.47756 3.29683 0
M  V30 2124 H 202.001 0.565263 0.348387 0
M  V30 2125 H 204.531 1.98621 0.490985 0
M  V30 2126 H 204.541 3.07452 2.68212 0
M  V30 2127 H 203.216 3.76756 1.76146 0
M  V30 2128 H 201.793 2.33739 2.90552 0
M  V30 2129 N 203.978 -0.674533 1.42435 0
M  V30 2130 C 205.394 -0.98769 1.25367 0
M  V30 2131 C 205.594 -2.00879 0.158044 0
M  V30 2132 O 204.65 -2.48075 -0.470633 0
M  V30 2133 C 205.963 -1.49224 2.6106 0
M  V30 2134 C 207.511 -1.61 2.68417 0
M  V30 2135 C 207.986 -2.14852 4.04478 0
M  V30 2136 N 209.477 -2.22185 4.06434 0
M  V30 2137 C 210.212 -2.64928 5.08528 0
M  V30 2138 N 209.708 -3.07121 6.21006 0
M  V30 2139 N 211.501 -2.64679 4.95885 0
M  V30 2140 H 203.652 0.00152503 2.124 0
M  V30 2141 H 205.915 -0.0618434 0.945981 0
M  V30 2142 H 205.621 -0.816453 3.42092 0
M  V30 2143 H 205.495 -2.47094 2.84999 0
M  V30 2144 H 207.882 -2.27686 1.87732 0
M  V30 2145 H 207.963 -0.616195 2.48267 0
M  V30 2146 H 207.607 -1.48775 4.85622 0
M  V30 2147 H 207.537 -3.15024 4.2198 0
M  V30 2148 H 210.028 -1.92435 3.25234 0
M  V30 2149 H 210.341 -3.38423 6.94759 0
M  V30 2150 H 208.686 -3.04978 6.24511 0
M  V30 2151 H 211.877 -2.31078 4.07088 0
M  V30 2152 H 212.05 -2.9767 5.75584 0
M  V30 2153 N 205.456 -1.28612 -0.910864 0
M  V30 2154 C 206.733 -1.06632 -1.63979 0
M  V30 2155 C 207.113 0.393351 -2.07403 0
M  V30 2156 O 206.461 1.37999 -1.82122 0
M  V30 2157 C 206.671 -2.0436 -2.8291 0
M  V30 2158 C 208.019 -2.34666 -3.5386 0
M  V30 2159 O 209.043 -2.02467 -2.93062 0
M  V30 2160 O 207.902 -2.89631 -4.63439 0
M  V30 2161 H 204.996 -0.407737 -0.7195 0
M  V30 2162 H 207.542 -1.39942 -0.959914 0
M  V30 2163 H 206.314 -3.02727 -2.47936 0
M  V30 2164 H 205.937 -1.71714 -3.58609 0
M  V30 2165 N 206.934 1.1197 -1.10907 0
M  V30 2166 C 207.897 2.16031 -0.765707 0
M  V30 2167 C 208.897 1.59393 0.212235 0
M  V30 2168 O 210.087 1.74196 -0.0115441 0
M  V30 2169 C 207.219 3.40632 -0.135053 0
M  V30 2170 H 208.412 2.47919 -1.68748 0
M  V30 2171 H 205.965 1.27061 -0.910226 0
M  V30 2172 H 206.7 3.14348 0.797218 0
M  V30 2173 H 206.485 3.8302 -0.838937 0
M  V30 2174 H 207.975 4.17505 0.0892469 0
M  V30 2175 N 208.412 0.89855 1.29475 0
M  V30 2176 C 209.344 0.332726 2.26772 0
M  V30 2177 C 210.357 -0.520323 1.54261 0
M  V30 2178 O 211.546 -0.337668 1.75277 0
M  V30 2179 C 208.646 -0.544334 3.345 0
M  V30 2180 C 207.819 0.282728 4.36485 0
M  V30 2181 C 206.878 -0.526982 5.23555 0
M  V30 2182 O 205.904 0.0551165 5.69173 0
M  V30 2183 N 207.106 -1.83331 5.5079 0
M  V30 2184 H 209.871 1.16897 2.75962 0
M  V30 2185 H 207.432 0.762919 1.42798 0
M  V30 2186 H 209.424 -1.09239 3.89678 0
M  V30 2187 H 207.994 -1.28127 2.85136 0
M  V30 2188 H 207.214 1.01221 3.80983 0
M  V30 2189 H 208.502 0.84918 5.01664 0
M  V30 2190 H 207.9 -2.32898 5.15534 0
M  V30 2191 H 206.457 -2.32852 6.08788 0
M  V30 2192 N 209.89 -1.43072 0.660911 0
M  V30 2193 C 210.853 -2.29194 -0.0166406 0
M  V30 2194 C 211.853 -1.42609 -0.742912 0
M  V30 2195 O 213.043 -1.64155 -0.583004 0
M  V30 2196 C 210.175 -3.24831 -1.0343 0
M  V30 2197 H 211.368 -2.90596 0.741208 0
M  V30 2198 H 208.921 -1.5048 0.422532 0
M  V30 2199 H 209.656 -2.68339 -1.82111 0
M  V30 2200 H 209.441 -3.88676 -0.517082 0
M  V30 2201 H 210.931 -3.89451 -1.50723 0
M  V30 2202 N 211.368 -0.403325 -1.52352 0
M  V30 2203 C 212.331 0.413051 -2.25447 0
M  V30 2204 C 213.331 0.978513 -1.276 0
M  V30 2205 O 214.521 0.858305 -1.51587 0
M  V30 2206 C 211.653 1.58087 -3.02029 0
M  V30 2207 H 212.846 -0.227094 -2.99039 0
M  V30 2208 H 210.399 -0.155722 -1.55522 0
M  V30 2209 H 211.134 2.25804 -2.32772 0
M  V30 2210 H 210.919 1.18195 -3.73861 0
M  V30 2211 H 212.409 2.1585 -3.57489 0
M  V30 2212 N 212.846 1.57033 -0.133567 0
M  V30 2213 C 214.094 1.953 0.519848 0
M  V30 2214 C 214.415 1.01866 1.66278 0
M  V30 2215 O 213.685 0.0776513 1.95746 0
M  V30 2216 H 212.265 0.721091 0.195032 0
M  V30 2217 H 214.927 1.93809 -0.205921 0
M  V30 2218 H 214.023 2.98695 0.904854 0
M  V30 2219 N 214.325 -0.140222 1.56975 0
M  V30 2220 C 215.571 -0.852949 1.83991 0
M  V30 2221 C 215.904 -1.80512 0.716187 0
M  V30 2222 O 215.179 -1.92479 -0.279681 0
M  V30 2223 C 215.462 -1.6215 3.21527 0
M  V30 2224 C 215.315 -0.690363 4.4447 0
M  V30 2225 C 216.634 -2.58247 3.56366 0
M  V30 2226 H 213.753 -0.308634 0.669264 0
M  V30 2227 H 216.395 -0.117898 1.89634 0
M  V30 2228 H 214.545 -2.24812 3.16847 0
M  V30 2229 H 216.217 -0.0742264 4.6124 0
M  V30 2230 H 214.46 -0.000396433 4.338 0
M  V30 2231 H 215.131 -1.2643 5.37326 0
M  V30 2232 H 217.607 -2.05701 3.61699 0
M  V30 2233 H 216.483 -3.09067 4.53617 0
M  V30 2234 H 216.744 -3.39923 2.82674 0
M  V30 2235 N 215.803 -1.52179 -0.40978 0
M  V30 2236 C 216.766 -1.74853 -1.48186 0
M  V30 2237 C 217.766 -0.618417 -1.48433 0
M  V30 2238 O 218.956 -0.886286 -1.49969 0
M  V30 2239 C 216.088 -1.8303 -2.87598 0
M  V30 2240 H 217.281 -2.70559 -1.29374 0
M  V30 2241 H 214.834 -1.42586 -0.640233 0
M  V30 2242 H 215.569 -0.89236 -3.11781 0
M  V30 2243 H 215.354 -2.65187 -2.88822 0
M  V30 2244 H 216.844 -2.02316 -3.65319 0
M  V30 2245 N 217.281 0.66697 -1.42791 0
M  V30 2246 C 218.527 1.42754 -1.44889 0
M  V30 2247 C 218.882 1.92283 -0.0669755 0
M  V30 2248 O 218.175 1.68494 0.912154 0
M  V30 2249 C 218.369 2.6349 -2.4147 0
M  V30 2250 C 218.198 2.25776 -3.88915 0
M  V30 2251 C 216.968 2.1476 -4.57391 0
M  V30 2252 C 219.166 1.86927 -4.79127 0
M  V30 2253 N 217.148 1.70232 -5.89826 0
M  V30 2254 C 218.519 1.53378 -6.00729 0
M  V30 2255 C 220.574 1.73989 -4.66511 0
M  V30 2256 C 219.277 1.08187 -7.11117 0
M  V30 2257 C 221.303 1.30203 -5.76889 0
M  V30 2258 C 220.665 0.975818 -6.97608 0
M  V30 2259 H 216.764 0.518559 -0.585338 0
M  V30 2260 H 219.348 0.768906 -1.78874 0
M  V30 2261 H 217.519 3.27033 -2.09533 0
M  V30 2262 H 219.251 3.30123 -2.34096 0
M  V30 2263 H 216.006 2.3408 -4.11708 0
M  V30 2264 H 216.43 1.50369 -6.6009 0
M  V30 2265 H 221.072 1.97853 -3.7365 0
M  V30 2266 H 218.79 0.830701 -8.03819 0
M  V30 2267 H 222.376 1.20701 -5.69142 0
M  V30 2268 H 221.256 0.642157 -7.81566 0
M  V30 2269 N 218.759 1.29093 0.90403 0
M  V30 2270 C 220.007 1.16583 1.65085 0
M  V30 2271 C 220.328 -0.283933 1.92922 0
M  V30 2272 O 219.598 -1.19509 1.55224 0
M  V30 2273 H 218.178 0.428467 0.611903 0
M  V30 2274 H 220.84 1.61959 1.08422 0
M  V30 2275 H 219.936 1.71266 2.6091 0
M  V30 2276 N 220.237 -1.11381 1.11499 0
M  V30 2277 C 221.147 -2.21019 0.786628 0
M  V30 2278 C 222.163 -1.72597 -0.220507 0
M  V30 2279 O 223.339 -2.01321 -0.0565251 0
M  V30 2280 C 220.404 -3.459 0.235333 0
M  V30 2281 C 219.465 -4.09107 1.30115 0
M  V30 2282 C 218.698 -5.28027 0.776068 0
M  V30 2283 O 218.921 -5.6904 -0.393661 0
M  V30 2284 O 217.855 -5.81835 1.54114 0
M  V30 2285 H 221.681 -2.51521 1.70209 0
M  V30 2286 H 219.266 -1.19928 0.890928 0
M  V30 2287 H 221.148 -4.21346 -0.067715 0
M  V30 2288 H 219.823 -3.17049 -0.652828 0
M  V30 2289 H 218.73 -3.35391 1.65722 0
M  V30 2290 H 220.063 -4.42139 2.16273 0
M  V30 2291 N 221.715 -0.905404 -1.28997 0
M  V30 2292 C 222.678 -0.392253 -2.25819 0
M  V30 2293 C 223.678 0.476753 -1.5357 0
M  V30 2294 O 224.868 0.280994 -1.71919 0
M  V30 2295 C 222 0.438588 -3.38067 0
M  V30 2296 H 223.193 -1.24743 -2.72725 0
M  V30 2297 H 220.746 -0.684051 -1.40536 0
M  V30 2298 H 221.481 1.31352 -2.96508 0
M  V30 2299 H 221.266 -0.184167 -3.91667 0
M  V30 2300 H 222.756 0.78873 -4.10084 0
M  V30 2301 N 223.193 1.4272 -0.668489 0
M  V30 2302 C 224.47 1.95248 -0.117373 0
M  V30 2303 C 224.85 1.60919 1.36632 0
M  V30 2304 O 224.198 0.902095 2.09939 0
M  V30 2305 C 224.408 3.46927 -0.379806 0
M  V30 2306 C 225.756 4.23588 -0.292923 0
M  V30 2307 O 226.78 3.5482 -0.313204 0
M  V30 2308 O 225.639 5.46017 -0.229697 0
M  V30 2309 H 222.733 0.827 0.00079152 0
M  V30 2310 H 225.279 1.52581 -0.742783 0
M  V30 2311 H 224.051 3.65096 -1.40786 0
M  V30 2312 H 223.674 3.96627 0.277923 0
M  V30 2313 N 224.671 0.411399 1.52136 0
M  V30 2314 C 225.92 -0.165009 2.01024 0
M  V30 2315 C 226.233 -1.4603 1.30133 0
M  V30 2316 O 227.439 -2.1181 1.69849 0
M  V30 2317 C 225.895 -0.344618 3.58246 0
M  V30 2318 C 225.503 0.938716 4.38055 0
M  V30 2319 C 227.247 -0.876195 4.15359 0
M  V30 2320 C 225.154 0.726172 5.86925 0
M  V30 2321 H 224.084 -0.0654407 0.751155 0
M  V30 2322 H 226.735 0.537192 1.75461 0
M  V30 2323 H 225.117 -1.10921 3.80148 0
M  V30 2324 H 226.291 1.70963 4.27912 0
M  V30 2325 H 224.606 1.39688 3.92271 0
M  V30 2326 H 227.203 -1.05128 5.24263 0
M  V30 2327 H 227.546 -1.85152 3.7286 0
M  V30 2328 H 228.079 -0.170607 3.97434 0
M  V30 2329 H 224.818 1.67312 6.33788 0
M  V30 2330 H 224.338 -0.00540283 5.998 0
M  V30 2331 H 226.017 0.369231 6.45946 0
M  V30 2332 N 226.149 -1.5696 0.141893 0
M  V30 2333 C 227.377 -2.00322 -0.517579 0
M  V30 2334 C 227.792 -1.02193 -1.58752 0
M  V30 2335 O 227.149 -0.0181619 -1.82491 0
M  V30 2336 C 227.2 -3.43618 -1.12289 0
M  V30 2337 O 226.921 -4.37995 -0.0956929 0
M  V30 2338 C 228.422 -4.02231 -1.86347 0
M  V30 2339 H 225.642 -0.657243 -0.135177 0
M  V30 2340 H 228.186 -2.03146 0.234973 0
M  V30 2341 H 226.341 -3.41662 -1.82609 0
M  V30 2342 H 226.755 -5.21729 -0.538469 0
M  V30 2343 H 228.229 -5.04509 -2.23997 0
M  V30 2344 H 228.706 -3.42655 -2.74744 0
M  V30 2345 H 229.312 -4.07802 -1.20737 0
M  V30 2346 N 227.627 0.131896 -1.57047 0
M  V30 2347 C 228.59 1.14638 -1.98471 0
M  V30 2348 C 229.59 1.35029 -0.873148 0
M  V30 2349 O 230.78 1.31764 -1.13946 0
M  V30 2350 C 227.912 2.50358 -2.31373 0
M  V30 2351 H 229.105 0.79064 -2.8929 0
M  V30 2352 H 226.658 0.375761 -1.51716 0
M  V30 2353 H 227.393 2.90876 -1.43393 0
M  V30 2354 H 227.178 2.36915 -3.12432 0
M  V30 2355 H 228.668 3.23395 -2.64207 0
M  V30 2356 N 229.106 1.52395 0.401703 0
M  V30 2357 C 230.355 1.66044 1.14509 0
M  V30 2358 C 230.668 0.400216 1.91462 0
M  V30 2359 O 231.874 0.416632 2.68284 0
M  V30 2360 C 230.33 2.93388 2.0845 0
M  V30 2361 C 229.938 4.26545 1.36978 0
M  V30 2362 C 231.682 3.16402 2.83001 0
M  V30 2363 C 229.589 5.45007 2.29611 0
M  V30 2364 H 228.519 0.618562 0.431158 0
M  V30 2365 H 231.17 1.78886 0.40892 0
M  V30 2366 H 229.552 2.74263 2.8565 0
M  V30 2367 H 230.726 4.56179 0.650916 0
M  V30 2368 H 229.041 4.09692 0.74438 0
M  V30 2369 H 231.638 4.02085 3.52465 0
M  V30 2370 H 231.981 2.30943 3.46368 0
M  V30 2371 H 232.514 3.36034 2.12898 0
M  V30 2372 H 229.253 6.32835 1.70879 0
M  V30 2373 H 228.773 5.19702 2.9945 0
M  V30 2374 H 230.452 5.7838 2.89974 0
M  V30 2375 N 230.584 -0.659388 1.43143 0
M  V30 2376 C 231.531 -1.77249 1.47822 0
M  V30 2377 C 232.501 -1.62818 0.328558 0
M  V30 2378 O 233.686 -1.83151 0.534838 0
M  V30 2379 C 230.826 -3.15371 1.40126 0
M  V30 2380 C 229.939 -3.4098 2.65249 0
M  V30 2381 C 229.074 -4.68915 2.49584 0
M  V30 2382 C 228.113 -4.87608 3.70006 0
M  V30 2383 N 227.25 -6.06796 3.53189 0
M  V30 2384 H 232.09 -1.72584 2.42938 0
M  V30 2385 H 229.627 -0.842297 1.20598 0
M  V30 2386 H 231.585 -3.9521 1.33659 0
M  V30 2387 H 230.215 -3.19121 0.485964 0
M  V30 2388 H 229.267 -2.55282 2.8202 0
M  V30 2389 H 230.579 -3.50681 3.54717 0
M  V30 2390 H 229.733 -5.56871 2.4079 0
M  V30 2391 H 228.472 -4.61524 1.5763 0
M  V30 2392 H 227.477 -3.9809 3.79215 0
M  V30 2393 H 228.702 -4.96834 4.62961 0
M  V30 2394 H 226.648 -6.00549 2.63965 0
M  V30 2395 H 226.565 -6.17428 4.36255 0
M  V30 2396 H 227.833 -6.9739 3.48236 0
M  V30 2397 N 232.062 -1.29571 -0.897171 0
M  V30 2398 C 233.478 -1.07637 -1.17841 0
M  V30 2399 C 233.678 0.170713 -2.00776 0
M  V30 2400 O 232.734 0.867768 -2.3712 0
M  V30 2401 C 234.047 -2.3332 -1.8969 0
M  V30 2402 C 235.595 -2.38664 -2.02505 0
M  V30 2403 C 236.07 -3.64157 -2.77765 0
M  V30 2404 N 237.561 -3.64894 -2.85318 0
M  V30 2405 C 238.296 -4.58679 -3.44094 0
M  V30 2406 N 237.792 -5.62799 -4.04017 0
M  V30 2407 N 239.585 -4.46245 -3.41793 0
M  V30 2408 H 231.736 -2.09598 -0.343883 0
M  V30 2409 H 233.999 -0.923333 -0.214848 0
M  V30 2410 H 233.705 -3.24262 -1.36187 0
M  V30 2411 H 233.579 -2.41025 -2.9015 0
M  V30 2412 H 235.966 -1.48208 -2.55183 0
M  V30 2413 H 236.047 -2.34943 -1.01171 0
M  V30 2414 H 235.691 -4.54965 -2.25763 0
M  V30 2415 H 235.621 -3.65137 -3.7945 0
M  V30 2416 H 238.112 -2.89613 -2.42761 0
M  V30 2417 H 238.425 -6.3048 -4.46895 0
M  V30 2418 H 236.77 -5.66605 -4.02472 0
M  V30 2419 H 239.961 -3.64094 -2.94199 0
M  V30 2420 H 240.134 -5.19518 -3.87304 0
M  V30 2421 N 233.54 1.10788 -1.12088 0
M  V30 2422 C 234.47 2.19083 -0.807755 0
M  V30 2423 C 235.451 1.6858 0.226859 0
M  V30 2424 O 236.636 1.93997 0.0888475 0
M  V30 2425 C 233.766 3.46344 -0.257576 0
M  V30 2426 C 232.72 4.101 -1.22483 0
M  V30 2427 C 232.046 5.32016 -0.535052 0
M  V30 2428 C 233.346 4.54236 -2.57811 0
M  V30 2429 H 235.04 2.45534 -1.71328 0
M  V30 2430 H 232.586 1.1801 -0.825205 0
M  V30 2431 H 234.539 4.21392 -0.0262679 0
M  V30 2432 H 233.263 3.19373 0.683278 0
M  V30 2433 H 231.922 3.37054 -1.44189 0
M  V30 2434 H 231.57 5.01319 0.410827 0
M  V30 2435 H 231.27 5.75625 -1.18024 0
M  V30 2436 H 232.794 6.09799 -0.312695 0
M  V30 2437 H 234.208 5.20575 -2.40155 0
M  V30 2438 H 232.605 5.08682 -3.18375 0
M  V30 2439 H 233.675 3.6734 -3.16528 0
M  V30 2440 N 235.018 0.912232 1.28515 0
M  V30 2441 C 236.243 0.559774 1.99703 0
M  V30 2442 C 236.668 -0.851393 1.67729 0
M  V30 2443 O 236.026 -1.56875 0.908834 0
M  V30 2444 C 236.074 0.773874 3.52198 0
M  V30 2445 O 235.178 -0.167842 4.12058 0
M  V30 2446 H 234.519 0.21723 0.627461 0
M  V30 2447 H 237.049 1.22725 1.63706 0
M  V30 2448 H 237.059 0.683386 4.02236 0
M  V30 2449 H 235.734 1.80261 3.74805 0
M  V30 2450 H 234.311 -0.0287509 3.72889 0
M  V30 2451 N 236.496 -1.42363 0.676048 0
M  V30 2452 C 237.773 -1.95183 0.127726 0
M  V30 2453 C 238.153 -1.61641 -1.35777 0
M  V30 2454 O 237.501 -0.913216 -2.09458 0
M  V30 2455 C 237.711 -3.46721 0.398199 0
M  V30 2456 C 239.059 -4.23427 0.315383 0
M  V30 2457 O 240.083 -3.54649 0.332016 0
M  V30 2458 O 238.942 -5.45888 0.25865 0
M  V30 2459 H 236.036 -0.826992 0.00359427 0
M  V30 2460 H 238.582 -1.52184 0.750864 0
M  V30 2461 H 237.354 -3.64344 1.4272 0
M  V30 2462 H 236.977 -3.96769 -0.256885 0
M  V30 2463 N 237.974 -0.419461 -1.51915 0
M  V30 2464 C 238.907 0.445751 -2.23804 0
M  V30 2465 C 239.885 1.03951 -1.25031 0
M  V30 2466 O 241.069 1.08541 -1.54114 0
M  V30 2467 C 238.196 1.61964 -2.97465 0
M  V30 2468 C 237.242 1.14828 -4.10751 0
M  V30 2469 S 238.075 0.104938 -5.35397 0
M  V30 2470 C 239.231 1.28391 -6.1259 0
M  V30 2471 H 239.464 -0.164627 -2.96844 0
M  V30 2472 H 236.997 -0.203833 -1.53049 0
M  V30 2473 H 238.955 2.29271 -3.40507 0
M  V30 2474 H 237.616 2.20139 -2.24048 0
M  V30 2475 H 236.809 2.02561 -4.61503 0
M  V30 2476 H 236.411 0.553712 -3.69878 0
M  V30 2477 H 238.703 2.20563 -6.40592 0
M  V30 2478 H 239.646 0.816724 -7.03374 0
M  V30 2479 H 240.054 1.51439 -5.43807 0
M  V30 2480 N 239.452 1.56882 -0.150215 0
M  V30 2481 C 240.7 1.9584 0.499105 0
M  V30 2482 C 241.021 1.03623 1.65188 0
M  V30 2483 O 240.291 0.0984084 1.95653 0
M  V30 2484 H 238.871 0.723119 0.187373 0
M  V30 2485 H 241.533 1.9358 -0.226466 0
M  V30 2486 H 240.629 2.99638 0.873122 0
M  V30 2487 N 240.93 -0.123565 1.57115 0
M  V30 2488 C 242.177 -0.832153 1.84612 0
M  V30 2489 C 242.505 -1.80093 0.734627 0
M  V30 2490 O 241.76 -1.93766 -0.27442 0
M  V30 2491 C 242.059 -1.62016 3.18568 0
M  V30 2492 C 241.725 -0.796084 4.43817 0
M  V30 2493 C 240.387 -0.568816 4.77826 0
M  V30 2494 C 242.739 -0.221364 5.2073 0
M  V30 2495 C 240.067 0.243499 5.86194 0
M  V30 2496 C 242.419 0.578117 6.29953 0
M  V30 2497 C 241.083 0.815744 6.62497 0
M  V30 2498 H 240.353 -0.304507 0.675542 0
M  V30 2499 H 243 -0.0947248 1.91266 0
M  V30 2500 H 241.305 -2.42837 3.0747 0
M  V30 2501 H 243.002 -2.17231 3.37064 0
M  V30 2502 H 239.592 -0.983307 4.17168 0
M  V30 2503 H 243.776 -0.384173 4.94811 0
M  V30 2504 H 239.032 0.436871 6.09837 0
M  V30 2505 H 243.206 1.03046 6.88734 0
M  V30 2506 H 240.833 1.44701 7.46301 0
M  V30 2507 N 242.408 -1.52605 -0.393616 0
M  V30 2508 C 243.355 -1.77055 -1.48054 0
M  V30 2509 C 244.325 -0.61358 -1.54352 0
M  V30 2510 O 245.51 -0.852806 -1.70681 0
M  V30 2511 C 242.65 -1.94108 -2.85335 0
M  V30 2512 C 241.763 -3.21792 -2.88226 0
M  V30 2513 C 240.898 -3.29188 -4.16904 0
M  V30 2514 C 239.937 -4.51013 -4.13828 0
M  V30 2515 N 239.074 -4.55716 -5.34105 0
M  V30 2516 H 243.914 -2.69815 -1.26506 0
M  V30 2517 H 241.451 -1.33683 -0.61379 0
M  V30 2518 H 243.409 -2.01979 -3.65049 0
M  V30 2519 H 242.039 -1.04713 -3.05344 0
M  V30 2520 H 241.091 -3.23015 -2.00911 0
M  V30 2521 H 242.403 -4.11557 -2.8182 0
M  V30 2522 H 241.557 -3.36216 -5.05018 0
M  V30 2523 H 240.296 -2.37389 -4.26026 0
M  V30 2524 H 239.301 -4.44115 -3.24102 0
M  V30 2525 H 240.526 -5.44123 -4.06333 0
M  V30 2526 H 238.472 -3.66807 -5.43865 0
M  V30 2527 H 238.389 -5.39346 -5.29756 0
M  V30 2528 H 239.657 -4.66993 -6.2413 0
M  V30 2529 N 243.887 0.651787 -1.4349 0
M  V30 2530 C 245.133 1.41376 -1.45398 0
M  V30 2531 C 245.466 1.94041 -0.0784823 0
M  V30 2532 O 244.741 1.72379 0.900878 0
M  V30 2533 C 245.024 2.59414 -2.49752 0
M  V30 2534 C 244.877 2.12232 -3.96582 0
M  V30 2535 C 246.196 3.61626 -2.50827 0
M  V30 2536 H 243.315 0.512719 -0.529422 0
M  V30 2537 H 245.957 0.738796 -1.75048 0
M  V30 2538 H 244.107 3.16997 -2.246 0
M  V30 2539 H 245.779 1.59639 -4.32797 0
M  V30 2540 H 244.022 1.43592 -4.09346 0
M  V30 2541 H 244.693 2.9712 -4.65214 0
M  V30 2542 H 247.169 3.13805 -2.7325 0
M  V30 2543 H 246.045 4.41766 -3.25783 0
M  V30 2544 H 246.306 4.14314 -1.5426 0
M  V30 2545 N 245.365 1.30045 0.890287 0
M  V30 2546 C 246.593 1.21472 1.67487 0
M  V30 2547 C 247.008 -0.223241 1.87476 0
M  V30 2548 O 246.365 -1.14828 1.41847 0
M  V30 2549 C 246.416 1.93394 3.05419 0
M  V30 2550 O 246.137 3.31576 2.86337 0
M  V30 2551 C 247.638 1.91414 3.99844 0
M  V30 2552 H 244.858 0.420604 0.522813 0
M  V30 2553 H 247.402 1.7158 1.11268 0
M  V30 2554 H 245.557 1.47099 3.58386 0
M  V30 2555 H 245.971 3.67929 3.73802 0
M  V30 2556 H 247.445 2.46285 4.94012 0
M  V30 2557 H 247.922 0.891833 4.3005 0
M  V30 2558 H 248.528 2.37496 3.52811 0
M  V30 2559 N 246.843 -1.10192 1.12674 0
M  V30 2560 C 248.089 -1.82475 0.884915 0
M  V30 2561 C 248.422 -1.85093 -0.58773 0
M  V30 2562 O 247.697 -1.3134 -1.43457 0
M  V30 2563 C 247.98 -3.29018 1.46353 0
M  V30 2564 C 247.833 -3.34718 3.00473 0
M  V30 2565 C 249.152 -4.25473 1.12519 0
M  V30 2566 H 246.271 -0.662492 0.322915 0
M  V30 2567 H 248.913 -1.2913 1.39375 0
M  V30 2568 H 247.063 -3.74576 1.03077 0
M  V30 2569 H 248.735 -2.97622 3.52447 0
M  V30 2570 H 246.978 -2.74541 3.35872 0
M  V30 2571 H 247.649 -4.37918 3.36053 0
M  V30 2572 H 250.125 -3.88161 1.499 0
M  V30 2573 H 249.001 -5.26365 1.55663 0
M  V30 2574 H 249.262 -4.42084 0.0377407 0
M  V30 2575 N 248.321 -0.919034 -1.28029 0
M  V30 2576 C 249.549 -0.570971 -1.98866 0
M  V30 2577 C 249.964 0.848996 -1.68634 0
M  V30 2578 O 249.321 1.56307 -0.942036 0
M  V30 2579 C 249.372 -0.776876 -3.53054 0
M  V30 2580 O 249.093 -2.14097 -3.82222 0
M  V30 2581 C 250.594 -0.436356 -4.41147 0
M  V30 2582 H 247.814 -0.217175 -0.634883 0
M  V30 2583 H 250.358 -1.23368 -1.63097 0
M  V30 2584 H 248.513 -0.161085 -3.87065 0
M  V30 2585 H 248.927 -2.18455 -4.76841 0
M  V30 2586 H 250.401 -0.63117 -5.4838 0
M  V30 2587 H 250.878 0.627686 -4.34692 0
M  V30 2588 H 251.484 -1.02991 -4.12641 0
M  V30 2589 N 249.799 1.42003 -0.683588 0
M  V30 2590 C 251.047 2.01015 -0.209101 0
M  V30 2591 C 251.368 1.54365 1.19149 0
M  V30 2592 O 250.638 0.769083 1.80172 0
M  V30 2593 H 249.218 0.743294 -0.074315 0
M  V30 2594 H 251.88 1.73798 -0.882066 0
M  V30 2595 H 250.976 3.11343 -0.2172 0
M  V30 2596 N 251.277 0.427512 1.51691 0
M  V30 2597 C 252.525 -0.141948 2.01601 0
M  V30 2598 C 252.846 -1.44067 1.31414 0
M  V30 2599 O 252.116 -1.90763 0.445658 0
M  V30 2600 H 250.696 -0.0554468 0.744939 0
M  V30 2601 H 253.358 0.567968 1.86441 0
M  V30 2602 H 252.454 -0.324913 3.10404 0
M  V30 2603 N 252.755 -1.56801 0.158532 0
M  V30 2604 C 253.685 -2.20347 -0.772609 0
M  V30 2605 C 254.666 -1.15518 -1.24859 0
M  V30 2606 O 255.851 -1.43902 -1.30406 0
M  V30 2607 C 252.981 -2.83417 -2.00729 0
M  V30 2608 C 251.935 -3.94174 -1.66765 0
M  V30 2609 C 251.261 -4.44233 -2.97592 0
M  V30 2610 C 252.561 -5.14392 -0.905447 0
M  V30 2611 H 254.255 -2.98413 -0.242959 0
M  V30 2612 H 251.801 -1.43537 -0.115419 0
M  V30 2613 H 253.754 -3.26543 -2.6636 0
M  V30 2614 H 252.478 -2.02701 -2.56086 0
M  V30 2615 H 251.137 -3.51684 -1.03508 0
M  V30 2616 H 250.785 -3.60325 -3.50963 0
M  V30 2617 H 250.485 -5.18945 -2.75626 0
M  V30 2618 H 252.009 -4.90037 -3.64274 0
M  V30 2619 H 253.423 -5.5429 -1.46408 0
M  V30 2620 H 251.82 -5.9494 -0.7853 0
M  V30 2621 H 252.89 -4.84795 0.100668 0
M  V30 2622 N 254.233 0.115231 -1.57178 0
M  V30 2623 C 255.196 1.12526 -1.99676 0
M  V30 2624 C 256.196 1.34095 -0.88742 0
M  V30 2625 O 257.386 1.30548 -1.15337 0
M  V30 2626 C 254.518 2.4789 -2.34015 0
M  V30 2627 H 255.711 0.759912 -2.90113 0
M  V30 2628 H 253.264 0.359648 -1.52106 0
M  V30 2629 H 253.999 2.89339 -1.4647 0
M  V30 2630 H 253.784 2.33588 -3.14927 0
M  V30 2631 H 255.274 3.20575 -2.67622 0
M  V30 2632 N 255.711 1.52812 0.385517 0
M  V30 2633 C 256.641 1.80808 1.47752 0
M  V30 2634 C 257.622 0.660318 1.5676 0
M  V30 2635 O 258.807 0.908246 1.71652 0
M  V30 2636 C 255.937 1.98008 2.85324 0
M  V30 2637 C 254.891 3.13709 2.91154 0
M  V30 2638 C 254.217 3.16169 4.31209 0
M  V30 2639 C 255.517 4.52709 2.60483 0
M  V30 2640 H 257.211 2.72253 1.24573 0
M  V30 2641 H 254.757 1.31003 0.597839 0
M  V30 2642 H 256.71 2.16176 3.61726 0
M  V30 2643 H 255.434 1.03255 3.09848 0
M  V30 2644 H 254.093 2.95329 2.17201 0
M  V30 2645 H 253.741 2.19092 4.52778 0
M  V30 2646 H 253.441 3.93894 4.36029 0
M  V30 2647 H 254.965 3.36496 5.09512 0
M  V30 2648 H 256.379 4.71173 3.26602 0
M  V30 2649 H 254.776 5.32528 2.76648 0
M  V30 2650 H 255.846 4.59186 1.55809 0
M  V30 2651 N 257.189 -0.644168 1.43834 0
M  V30 2652 C 258.099 -1.78563 1.52159 0
M  V30 2653 C 259.115 -1.69147 0.408069 0
M  V30 2654 O 260.291 -1.90156 0.663524 0
M  V30 2655 C 257.356 -3.14888 1.45073 0
M  V30 2656 C 256.417 -3.36034 2.6717 0
M  V30 2657 C 255.65 -4.65855 2.60413 0
M  V30 2658 O 255.873 -5.45805 1.65689 0
M  V30 2659 O 254.807 -4.88918 3.5106 0
M  V30 2660 H 258.633 -1.74494 2.48567 0
M  V30 2661 H 256.218 -0.80378 1.25935 0
M  V30 2662 H 258.1 -3.96179 1.43597 0
M  V30 2663 H 256.775 -3.19528 0.518037 0
M  V30 2664 H 255.682 -2.54472 2.74217 0
M  V30 2665 H 257.015 -3.36247 3.59442 0
M  V30 2666 N 258.668 -1.30515 -0.883378 0
M  V30 2667 C 259.945 -1.10086 -1.6168 0
M  V30 2668 C 260.325 0.349269 -2.08191 0
M  V30 2669 O 259.673 1.34105 -1.85008 0
M  V30 2670 C 259.883 -2.10315 -2.78511 0
M  V30 2671 C 261.231 -2.42119 -3.48803 0
M  V30 2672 O 262.255 -2.08638 -2.88702 0
M  V30 2673 O 261.114 -2.99396 -4.57192 0
M  V30 2674 H 258.208 -0.422907 -0.710689 0
M  V30 2675 H 260.754 -1.41947 -0.930015 0
M  V30 2676 H 259.526 -3.07917 -2.41459 0
M  V30 2677 H 259.149 -1.79282 -3.54886 0
M  V30 2678 N 260.146 1.09593 -1.13257 0
M  V30 2679 C 261.076 2.18214 -0.830946 0
M  V30 2680 C 262.057 1.68812 0.208966 0
M  V30 2681 O 263.242 1.9408 0.0682666 0
M  V30 2682 C 260.372 3.46051 -0.294296 0
M  V30 2683 C 259.326 4.08778 -1.26826 0
M  V30 2684 C 258.652 5.31419 -0.591449 0
M  V30 2685 C 259.952 4.51476 -2.62615 0
M  V30 2686 H 261.646 2.43703 -1.73923 0
M  V30 2687 H 259.192 1.17128 -0.837675 0
M  V30 2688 H 261.145 4.2134 -0.0709606 0
M  V30 2689 H 259.869 3.20079 0.649366 0
M  V30 2690 H 258.528 3.35505 -1.47756 0
M  V30 2691 H 258.176 5.01727 0.357633 0
M  V30 2692 H 257.876 5.74341 -1.24123 0
M  V30 2693 H 259.4 6.09433 -0.377355 0
M  V30 2694 H 260.814 5.17999 -2.45663 0
M  V30 2695 H 259.211 5.05277 -3.23752 0
M  V30 2696 H 260.281 3.63962 -3.20406 0
M  V30 2697 N 261.624 0.925811 1.2754 0
M  V30 2698 C 263.035 0.610102 1.7645 0
M  V30 2699 C 263.386 -0.874723 1.75622 0
M  V30 2700 O 262.511 -1.68444 1.35851 0
M  V30 2701 C 263.106 1.10073 3.20421 0
M  V30 2702 C 261.665 0.835723 3.67005 0
M  V30 2703 C 260.812 1.26054 2.46993 0
M  V30 2704 H 263.763 1.10579 1.13833 0
M  V30 2705 H 263.784 0.447557 3.77859 0
M  V30 2706 H 263.296 2.18143 3.20991 0
M  V30 2707 H 261.397 -0.231249 3.71882 0
M  V30 2708 H 261.51 1.45193 4.56569 0
M  V30 2709 H 259.874 0.679111 2.45479 0
M  V30 2710 H 260.657 2.34984 2.50275 0
M  V30 2711 N 263.102 -1.41638 0.69111 0
M  V30 2712 C 264.032 -2.3347 0.037248 0
M  V30 2713 C 265.013 -1.51575 -0.771947 0
M  V30 2714 O 266.198 -1.80126 -0.72582 0
M  V30 2715 C 263.328 -3.35354 -0.903064 0
M  V30 2716 C 262.282 -4.27526 -0.201288 0
M  V30 2717 C 261.608 -5.19747 -1.25565 0
M  V30 2718 C 262.908 -5.13959 0.929689 0
M  V30 2719 H 264.602 -2.88397 0.804227 0
M  V30 2720 H 262.148 -1.38669 0.388189 0
M  V30 2721 H 264.101 -3.98519 -1.36969 0
M  V30 2722 H 262.825 -2.78767 -1.70166 0
M  V30 2723 H 261.484 -3.65779 0.245265 0
M  V30 2724 H 261.132 -4.59479 -2.04666 0
M  V30 2725 H 260.832 -5.8225 -0.791128 0
M  V30 2726 H 262.356 -5.85789 -1.72288 0
M  V30 2727 H 263.77 -5.70718 0.543546 0
M  V30 2728 H 262.167 -5.85379 1.32103 0
M  V30 2729 H 263.237 -4.51389 1.77133 0
M  V30 2730 N 264.58 -0.43555 -1.51462 0
M  V30 2731 C 265.827 0.131514 -2.02072 0
M  V30 2732 C 266.155 1.42868 -1.31981 0
M  V30 2733 O 265.41 1.91076 -0.422883 0
M  V30 2734 C 265.709 0.39942 -3.55161 0
M  V30 2735 C 265.375 -0.81172 -4.43533 0
M  V30 2736 C 264.037 -1.14387 -4.67407 0
M  V30 2737 C 266.389 -1.61976 -4.95392 0
M  V30 2738 C 263.717 -2.28477 -5.40384 0
M  V30 2739 C 266.069 -2.75164 -5.6962 0
M  V30 2740 C 264.733 -3.08835 -5.91758 0
M  V30 2741 H 264.003 0.0481244 -0.739436 0
M  V30 2742 H 266.65 -0.58238 -1.8243 0
M  V30 2743 H 264.955 1.19519 -3.73125 0
M  V30 2744 H 266.652 0.85157 -3.91854 0
M  V30 2745 H 263.242 -0.542898 -4.25148 0
M  V30 2746 H 267.426 -1.37637 -4.76833 0
M  V30 2747 H 262.682 -2.5488 -5.55739 0
M  V30 2748 H 266.856 -3.38147 -6.08793 0
M  V30 2749 H 264.483 -3.97353 -6.48086 0
M  V30 2750 N 266.058 1.56714 -0.166846 0
M  V30 2751 C 267.005 2.17746 0.765193 0
M  V30 2752 C 267.975 1.11614 1.23011 0
M  V30 2753 O 269.16 1.39745 1.29908 0
M  V30 2754 C 266.3 2.81882 1.9909 0
M  V30 2755 C 265.413 4.02462 1.56997 0
M  V30 2756 C 264.548 4.54537 2.749 0
M  V30 2757 C 263.587 5.67538 2.29275 0
M  V30 2758 N 262.724 6.14142 3.40255 0
M  V30 2759 H 267.564 2.97048 0.237952 0
M  V30 2760 H 265.101 1.4672 0.105725 0
M  V30 2761 H 267.059 3.17221 2.70974 0
M  V30 2762 H 265.689 2.05191 2.49192 0
M  V30 2763 H 264.741 3.72973 0.748037 0
M  V30 2764 H 266.053 4.84273 1.19503 0
M  V30 2765 H 265.207 4.92035 3.54946 0
M  V30 2766 H 263.946 3.71774 3.1565 0
M  V30 2767 H 262.951 5.29597 1.47674 0
M  V30 2768 H 264.176 6.52099 1.89588 0
M  V30 2769 H 262.122 5.3431 3.8059 0
M  V30 2770 H 262.039 6.9093 3.06841 0
M  V30 2771 H 263.307 6.56289 4.206 0
M  V30 2772 N 267.536 -0.106894 1.57237 0
M  V30 2773 C 268.784 -0.810921 1.85117 0
M  V30 2774 C 269.105 -1.7984 0.753827 0
M  V30 2775 O 268.375 -1.94649 -0.221056 0
M  V30 2776 H 266.955 -0.302466 0.683025 0
M  V30 2777 H 269.617 -0.0913324 1.94686 0
M  V30 2778 H 268.713 -1.34875 2.81452 0
M  V30 2779 N 269.014 -1.53014 -0.377408 0
M  V30 2780 C 270.263 -1.67845 -1.11853 0
M  V30 2781 C 270.576 -0.430625 -1.90801 0
M  V30 2782 O 271.782 -0.459261 -2.67587 0
M  V30 2783 C 270.238 -2.96668 -2.03756 0
M  V30 2784 C 269.846 -4.28671 -1.30175 0
M  V30 2785 C 271.59 -3.20865 -2.77932 0
M  V30 2786 C 269.497 -5.48591 -2.20911 0
M  V30 2787 H 268.427 -0.625343 -0.421263 0
M  V30 2788 H 271.078 -1.79514 -0.380409 0
M  V30 2789 H 269.46 -2.78773 -2.8125 0
M  V30 2790 H 270.634 -4.57157 -0.578259 0
M  V30 2791 H 268.949 -4.10825 -0.679108 0
M  V30 2792 H 271.546 -4.07642 -3.46024 0
M  V30 2793 H 271.889 -2.36424 -3.4265 0
M  V30 2794 H 272.422 -3.39379 -2.07525 0
M  V30 2795 H 269.161 -6.35474 -1.6079 0
M  V30 2796 H 268.681 -5.244 -2.91144 0
M  V30 2797 H 270.36 -5.8292 -2.80736 0
M  V30 2798 N 270.492 0.636531 -1.44174 0
M  V30 2799 C 271.903 1.21806 -1.41493 0
M  V30 2800 C 272.254 1.95785 -0.1275 0
M  V30 2801 O 271.379 2.02147 0.772376 0
M  V30 2802 C 271.974 2.21551 -2.56321 0
M  V30 2803 C 270.533 2.75143 -2.56853 0
M  V30 2804 C 269.68 1.50052 -2.33195 0
M  V30 2805 H 272.631 0.427531 -1.52833 0
M  V30 2806 H 272.652 3.0405 -2.28765 0
M  V30 2807 H 272.164 1.67679 -3.50008 0
M  V30 2808 H 270.265 3.33033 -1.67093 0
M  V30 2809 H 270.378 3.2155 -3.55165 0
M  V30 2810 H 268.742 1.77993 -1.82183 0
M  V30 2811 H 269.525 0.980903 -3.28988 0
M  V30 2812 N 271.97 1.30982 0.876444 0
M  V30 2813 C 273.219 1.19658 1.62373 0
M  V30 2814 C 273.532 -0.245636 1.94052 0
M  V30 2815 O 274.738 -0.48049 2.67214 0
M  V30 2816 C 273.194 2.09433 2.92687 0
M  V30 2817 C 272.802 3.58613 2.68516 0
M  V30 2818 C 274.546 2.06893 3.70669 0
M  V30 2819 C 272.453 4.40416 3.94699 0
M  V30 2820 H 271.383 0.444268 0.609214 0
M  V30 2821 H 274.034 1.55791 0.969605 0
M  V30 2822 H 272.416 1.66191 3.59439 0
M  V30 2823 H 273.59 4.10058 2.10212 0
M  V30 2824 H 271.905 3.63063 2.03898 0
M  V30 2825 H 274.502 2.65258 4.64265 0
M  V30 2826 H 274.845 1.05448 4.02724 0
M  V30 2827 H 275.378 2.48301 3.10792 0
M  V30 2828 H 272.117 5.42591 3.67798 0
M  V30 2829 H 271.637 3.93731 4.52477 0
M  V30 2830 H 273.316 4.52294 4.62644 0
M  V30 2831 N 273.449 -1.08991 1.13837 0
M  V30 2832 C 274.399 -2.1393 0.788535 0
M  V30 2833 C 275.383 -1.59396 -0.219516 0
M  V30 2834 O 276.575 -1.76985 -0.0227557 0
M  V30 2835 C 273.704 -3.42305 0.261147 0
M  V30 2836 C 272.79 -4.03736 1.29837 0
M  V30 2837 N 273.181 -4.39659 2.50067 0
M  V30 2838 C 271.479 -4.30993 1.1472 0
M  V30 2839 C 272.18 -4.88113 3.16419 0
M  V30 2840 N 271.156 -4.85846 2.43832 0
M  V30 2841 H 274.958 -2.39516 1.70322 0
M  V30 2842 H 272.472 -1.26263 1.02134 0
M  V30 2843 H 274.469 -4.16899 -0.0077405 0
M  V30 2844 H 273.129 -3.18172 -0.647805 0
M  V30 2845 H 274.14 -4.30878 2.8734 0
M  V30 2846 H 270.817 -4.16444 0.296773 0
M  V30 2847 H 272.207 -5.25336 4.18894 0
M  V30 2848 N 274.927 -0.932562 -1.27047 0
M  V30 2849 C 276.173 -0.576412 -1.94436 0
M  V30 2850 C 276.506 0.880891 -1.73072 0
M  V30 2851 O 275.781 1.62905 -1.06264 0
M  V30 2852 C 276.064 -0.909031 -3.48437 0
M  V30 2853 C 275.917 -2.42044 -3.79123 0
M  V30 2854 C 277.236 -0.418341 -4.38107 0
M  V30 2855 H 274.355 -0.210888 -0.706184 0
M  V30 2856 H 276.997 -1.16522 -1.50075 0
M  V30 2857 H 275.147 -0.407947 -3.86352 0
M  V30 2858 H 276.819 -2.99359 -3.50973 0
M  V30 2859 H 275.062 -2.86758 -3.25503 0
M  V30 2860 H 275.733 -2.6037 -4.86736 0
M  V30 2861 H 278.209 -0.847856 -4.0737 0
M  V30 2862 H 277.085 -0.679981 -5.44672 0
M  V30 2863 H 277.346 0.681642 -4.36814 0
M  V30 2864 N 276.405 1.4127 -0.698611 0
M  V30 2865 C 277.652 2.0118 -0.230865 0
M  V30 2866 C 277.98 1.55338 1.17049 0
M  V30 2867 O 277.235 0.756775 1.80475 0
M  V30 2868 C 277.534 3.56592 -0.240192 0
M  V30 2869 C 277.2 4.21955 -1.58948 0
M  V30 2870 C 275.862 4.39524 -1.95887 0
M  V30 2871 C 278.214 4.58576 -2.47704 0
M  V30 2872 C 275.542 4.90992 -3.2116 0
M  V30 2873 C 277.894 5.11435 -3.72313 0
M  V30 2874 C 276.558 5.27215 -4.0939 0
M  V30 2875 H 275.828 0.736169 -0.0844796 0
M  V30 2876 H 278.475 1.69124 -0.8983 0
M  V30 2877 H 276.78 3.88456 0.510797 0
M  V30 2878 H 278.477 4.00758 0.139296 0
M  V30 2879 H 275.067 4.08657 -1.29219 0
M  V30 2880 H 279.251 4.44654 -2.20445 0
M  V30 2881 H 274.507 5.01393 -3.49878 0
M  V30 2882 H 278.681 5.38752 -4.4127 0
M  V30 2883 H 276.308 5.66859 -5.06533 0
M  V30 2884 N 277.883 0.443576 1.51229 0
M  V30 2885 C 279.132 -0.122332 2.01329 0
M  V30 2886 C 279.445 -1.43237 1.33201 0
M  V30 2887 O 280.651 -2.0816 1.74304 0
M  V30 2888 C 279.107 -0.268551 3.58897 0
M  V30 2889 C 278.715 1.03142 4.35965 0
M  V30 2890 C 280.459 -0.787894 4.17124 0
M  V30 2891 C 278.366 0.850504 5.85252 0
M  V30 2892 H 277.296 -0.0494929 0.752374 0
M  V30 2893 H 279.947 0.574289 1.74282 0
M  V30 2894 H 278.329 -1.02832 3.82415 0
M  V30 2895 H 279.503 1.80001 4.24189 0
M  V30 2896 H 277.818 1.47977 3.89219 0
M  V30 2897 H 280.415 -0.939841 5.26375 0
M  V30 2898 H 280.758 -1.77201 3.76703 0
M  V30 2899 H 281.291 -0.0862669 3.97706 0
M  V30 2900 H 278.03 1.80718 6.30096 0
M  V30 2901 H 277.55 0.121825 5.99676 0
M  V30 2902 H 279.229 0.506163 6.45017 0
M  V30 2903 N 279.361 -1.56624 0.175154 0
M  V30 2904 C 280.324 -2.16934 -0.739738 0
M  V30 2905 C 281.324 -1.11842 -1.15533 0
M  V30 2906 O 282.514 -1.37335 -1.07167 0
M  V30 2907 C 279.646 -2.75531 -2.00738 0
M  V30 2908 H 280.839 -2.99131 -0.214639 0
M  V30 2909 H 278.392 -1.56123 -0.0744197 0
M  V30 2910 H 279.127 -1.97078 -2.57548 0
M  V30 2911 H 278.912 -3.52444 -1.71831 0
M  V30 2912 H 280.402 -3.21904 -2.66021 0
M  V30 2913 N 280.839 0.0985539 -1.57292 0
M  V30 2914 C 282.087 0.801092 -1.85545 0
M  V30 2915 C 282.408 1.79438 -0.763353 0
M  V30 2916 O 281.678 1.94763 0.21073 0
M  V30 2917 H 280.258 0.29884 -0.684619 0
M  V30 2918 H 282.92 0.0810064 -1.94732 0
M  V30 2919 H 282.016 1.3338 -2.82163 0
M  V30 2920 N 282.317 1.53212 0.369288 0
M  V30 2921 C 283.733 1.42902 0.710712 0
M  V30 2922 C 283.933 0.565135 1.93413 0
M  V30 2923 O 282.989 0.0461484 2.52458 0
M  V30 2924 C 284.302 2.86042 0.927382 0
M  V30 2925 C 285.85 2.9565 1.02762 0
M  V30 2926 C 286.325 4.39843 1.27679 0
M  V30 2927 N 287.816 4.43256 1.34457 0
M  V30 2928 C 288.551 5.51929 1.55439 0
M  V30 2929 N 288.047 6.70655 1.73762 0
M  V30 2930 N 289.84 5.39502 1.57779 0
M  V30 2931 H 281.991 2.07888 -0.435457 0
M  V30 2932 H 284.254 0.938661 -0.132739 0
M  V30 2933 H 283.96 3.51557 0.100287 0
M  V30 2934 H 283.834 3.29472 1.83653 0
M  V30 2935 H 286.221 2.30291 1.84527 0
M  V30 2936 H 286.302 2.5562 0.0959504 0
M  V30 2937 H 285.946 5.05774 0.464175 0
M  V30 2938 H 285.876 4.77443 2.22162 0
M  V30 2939 H 288.367 3.5769 1.21926 0
M  V30 2940 H 288.68 7.49248 1.89335 0
M  V30 2941 H 287.025 6.73648 1.70948 0
M  V30 2942 H 290.216 4.45713 1.43029 0
M  V30 2943 H 290.389 6.2426 1.7379 0
M  V30 2944 N 283.795 -0.628877 1.44509 0
M  V30 2945 C 285.02 -1.42048 1.5112 0
M  V30 2946 C 285.445 -1.87594 0.137818 0
M  V30 2947 O 284.803 -1.58873 -0.873437 0
M  V30 2948 C 284.851 -2.61541 2.48251 0
M  V30 2949 O 283.955 -3.61453 1.98559 0
M  V30 2950 H 283.296 -0.424942 0.510216 0
M  V30 2951 H 285.826 -0.767374 1.89664 0
M  V30 2952 H 285.836 -3.09057 2.66361 0
M  V30 2953 H 284.511 -2.27736 3.48007 0
M  V30 2954 H 283.088 -3.20731 1.90227 0
M  V30 2955 N 285.273 -1.31445 -0.869486 0
M  V30 2956 C 286.522 -1.20517 -1.61736 0
M  V30 2957 C 286.835 0.235341 -1.94179 0
M  V30 2958 O 288.041 0.466312 -2.67465 0
M  V30 2959 C 286.497 -2.10982 -2.91573 0
M  V30 2960 C 286.105 -3.60032 -2.66611 0
M  V30 2961 C 287.849 -2.08856 -3.69567 0
M  V30 2962 C 285.756 -4.42503 -3.92358 0
M  V30 2963 H 284.686 -0.447493 -0.606849 0
M  V30 2964 H 287.337 -1.56303 -0.96133 0
M  V30 2965 H 285.719 -1.68095 -3.58553 0
M  V30 2966 H 286.893 -4.11167 -2.08035 0
M  V30 2967 H 285.208 -3.64139 -2.0197 0
M  V30 2968 H 287.805 -2.67716 -4.62852 0
M  V30 2969 H 288.148 -1.07582 -4.02159 0
M  V30 2970 H 288.681 -2.49945 -3.09471 0
M  V30 2971 H 285.42 -5.44533 -3.64916 0
M  V30 2972 H 284.94 -3.96125 -4.50383 0
M  V30 2973 H 286.619 -4.54741 -4.60238 0
M  V30 2974 N 286.751 1.08385 -1.14413 0
M  V30 2975 C 288.167 1.32844 -0.884563 0
M  V30 2976 C 288.367 1.95841 0.474181 0
M  V30 2977 O 287.423 2.21158 1.21842 0
M  V30 2978 C 288.736 2.22978 -2.01745 0
M  V30 2979 C 290.284 2.36458 -2.05077 0
M  V30 2980 C 290.759 3.29934 -3.1766 0
M  V30 2981 N 292.25 3.37511 -3.17239 0
M  V30 2982 C 292.985 4.09871 -4.0099 0
M  V30 2983 N 292.481 4.84936 -4.94781 0
M  V30 2984 N 294.274 4.05704 -3.89051 0
M  V30 2985 H 286.425 0.658756 -2.01926 0
M  V30 2986 H 288.688 0.352821 -0.879899 0
M  V30 2987 H 288.394 1.83934 -2.99769 0
M  V30 2988 H 288.268 3.23441 -1.94077 0
M  V30 2989 H 290.655 2.7476 -1.0766 0
M  V30 2990 H 290.736 1.35736 -2.16816 0
M  V30 2991 H 290.38 2.92352 -4.15322 0
M  V30 2992 H 290.31 4.30584 -3.03158 0
M  V30 2993 H 292.801 2.83996 -2.49308 0
M  V30 2994 H 293.114 5.37612 -5.55151 0
M  V30 2995 H 291.459 4.83988 -4.98779 0
M  V30 2996 H 294.65 3.46167 -3.15097 0
M  V30 2997 H 294.823 4.61834 -4.54547 0
M  V30 2998 N 288.23 0.939286 1.26551 0
M  V30 2999 C 289.507 0.5038 1.89001 0
M  V30 3000 C 289.887 -1.01854 1.84903 0
M  V30 3001 O 289.235 -1.87773 1.30206 0
M  V30 3002 C 289.445 1.063 3.32417 0
M  V30 3003 C 290.793 1.13051 4.09273 0
M  V30 3004 O 291.817 1.01345 3.41479 0
M  V30 3005 O 290.676 1.31233 5.30509 0
M  V30 3006 H 287.77 0.163897 0.810597 0
M  V30 3007 H 290.316 1.03173 1.34735 0
M  V30 3008 H 289.088 2.10665 3.29752 0
M  V30 3009 H 288.711 0.517408 3.94219 0
M  V30 3010 N 289.708 -1.40897 0.706093 0
M  V30 3011 C 290.671 -2.29131 0.0562841 0
M  V30 3012 C 291.671 -1.44901 -0.697166 0
M  V30 3013 O 292.861 -1.65926 -0.530484 0
M  V30 3014 C 289.993 -3.27957 -0.93043 0
M  V30 3015 H 291.186 -2.88091 0.833284 0
M  V30 3016 H 288.739 -1.4906 0.470192 0
M  V30 3017 H 289.474 -2.73997 -1.73482 0
M  V30 3018 H 289.259 -3.90124 -0.393166 0
M  V30 3019 H 290.749 -3.94049 -1.38256 0
M  V30 3020 N 291.186 -0.45159 -1.50991 0
M  V30 3021 C 292.149 0.341117 -2.26647 0
M  V30 3022 C 293.149 0.937422 -1.30649 0
M  V30 3023 O 294.339 0.809644 -1.54241 0
M  V30 3024 C 291.471 1.48398 -3.06905 0
M  V30 3025 H 292.664 -0.322117 -2.98165 0
M  V30 3026 H 290.217 -0.205122 -1.54948 0
M  V30 3027 H 290.952 2.18284 -2.39838 0
M  V30 3028 H 290.737 1.06241 -3.77432 0
M  V30 3029 H 292.227 2.04367 -3.64176 0
M  V30 3030 N 292.664 1.56529 -0.183458 0
M  V30 3031 C 293.889 2.02064 0.467428 0
M  V30 3032 C 294.314 1.06282 1.55196 0
M  V30 3033 O 293.672 0.0443565 1.81246 0
M  V30 3034 C 293.72 3.46122 1.01153 0
M  V30 3035 O 292.824 3.53437 2.12499 0
M  V30 3036 H 292.165 0.654726 0.110588 0
M  V30 3037 H 294.695 2.02521 -0.290917 0
M  V30 3038 H 294.705 3.85676 1.33108 0
M  V30 3039 H 293.38 4.15331 0.217533 0
M  V30 3040 H 291.957 3.2575 1.81497 0
M  V30 3041 N 294.142 -0.090211 1.57342 0
M  V30 3042 C 295.553 -0.644173 1.75235 0
M  V30 3043 C 295.904 -1.78865 0.806335 0
M  V30 3044 O 295.029 -2.16395 -0.0140128 0
M  V30 3045 C 295.624 -1.17532 3.1776 0
M  V30 3046 C 294.183 -1.67531 3.37061 0
M  V30 3047 C 293.33 -0.58693 2.71017 0
M  V30 3048 H 296.281 0.135884 1.58117 0
M  V30 3049 H 296.302 -2.04455 3.20902 0
M  V30 3050 H 295.814 -0.342138 3.86589 0
M  V30 3051 H 293.915 -2.53234 2.73319 0
M  V30 3052 H 294.028 -1.76493 4.45406 0
M  V30 3053 H 292.392 -1.02756 2.33052 0
M  V30 3054 H 293.175 0.235758 3.4249 0
M  V30 3055 N 295.62 -1.53406 -0.361157 0
M  V30 3056 C 296.866 -1.70054 -1.10496 0
M  V30 3057 C 297.199 -0.453278 -1.88836 0
M  V30 3058 O 296.474 0.5495 -1.86576 0
M  V30 3059 C 296.757 -2.95317 -2.06058 0
M  V30 3060 C 296.61 -4.3021 -1.31298 0
M  V30 3061 C 297.929 -3.16193 -3.06121 0
M  V30 3062 H 295.048 -0.618799 -0.400321 0
M  V30 3063 H 297.69 -1.86052 -0.385318 0
M  V30 3064 H 295.84 -2.81809 -2.67425 0
M  V30 3065 H 297.512 -4.55538 -0.726807 0
M  V30 3066 H 295.755 -4.29421 -0.614853 0
M  V30 3067 H 296.426 -5.14 -2.01265 0
M  V30 3068 H 298.902 -3.28916 -2.5486 0
M  V30 3069 H 297.778 -4.05266 -3.70204 0
M  V30 3070 H 298.039 -2.31676 -3.76535 0
M  V30 3071 N 297.098 0.621204 -1.44841 0
M  V30 3072 C 298.008 1.7612 -1.5498 0
M  V30 3073 C 299.024 1.68477 -0.434927 0
M  V30 3074 O 300.2 1.89076 -0.693693 0
M  V30 3075 C 297.265 3.1254 -1.50065 0
M  V30 3076 C 296.326 3.31741 -2.72482 0
M  V30 3077 C 295.559 4.61653 -2.67792 0
M  V30 3078 O 295.782 5.431 -1.74352 0
M  V30 3079 O 294.716 4.83271 -3.58794 0
M  V30 3080 H 298.542 1.70518 -2.51311 0
M  V30 3081 H 296.127 0.783643 -1.27198 0
M  V30 3082 H 298.009 3.93844 -1.49882 0
M  V30 3083 H 296.684 3.18663 -0.568806 0
M  V30 3084 H 295.591 2.50077 -2.7823 0
M  V30 3085 H 296.924 3.30486 -3.64746 0
M  V30 3086 N 298.576 1.31904 0.862503 0
M  V30 3087 C 299.539 1.20131 1.95195 0
M  V30 3088 C 300.539 0.126409 1.60302 0
M  V30 3089 O 301.729 0.376234 1.70089 0
M  V30 3090 C 298.861 0.845691 3.30244 0
M  V30 3091 H 300.054 2.16943 2.07064 0
M  V30 3092 H 297.607 1.15622 1.05172 0
M  V30 3093 H 298.342 -0.120957 3.24074 0
M  V30 3094 H 298.127 1.62276 3.56944 0
M  V30 3095 H 299.617 0.787418 4.10109 0
M  V30 3096 N 300.054 -1.07777 1.14986 0
M  V30 3097 C 301.017 -2.13041 0.845358 0
M  V30 3098 C 302.017 -1.60071 -0.152931 0
M  V30 3099 O 303.207 -1.74033 0.0761879 0
M  V30 3100 C 300.339 -3.39896 0.261383 0
M  V30 3101 H 301.532 -2.41485 1.77834 0
M  V30 3102 H 299.085 -1.23595 0.956757 0
M  V30 3103 H 299.82 -3.17091 -0.68 0
M  V30 3104 H 299.605 -3.79642 0.980514 0
M  V30 3105 H 301.095 -4.17548 0.0657687 0
M  V30 3106 N 301.532 -0.945985 -1.26051 0
M  V30 3107 C 302.948 -0.649045 -1.45807 0
M  V30 3108 C 303.148 0.796158 -1.85104 0
M  V30 3109 O 302.204 1.57233 -1.97571 0
M  V30 3110 C 303.517 -1.61458 -2.53677 0
M  V30 3111 C 305.065 -1.62481 -2.67524 0
M  V30 3112 C 305.54 -2.57776 -3.7857 0
M  V30 3113 N 307.031 -2.5609 -3.85969 0
M  V30 3114 C 307.766 -3.26508 -4.7136 0
M  V30 3115 N 307.262 -4.0637 -5.61102 0
M  V30 3116 N 309.055 -3.15437 -4.65248 0
M  V30 3117 H 301.206 -1.88005 -0.988328 0
M  V30 3118 H 303.469 -0.808198 -0.4955 0
M  V30 3119 H 303.175 -2.64644 -2.31638 0
M  V30 3120 H 303.049 -1.37036 -3.51427 0
M  V30 3121 H 305.436 -0.600167 -2.88933 0
M  V30 3122 H 305.517 -1.90958 -1.70202 0
M  V30 3123 H 305.161 -3.60361 -3.57913 0
M  V30 3124 H 305.091 -2.26587 -4.75359 0
M  V30 3125 H 307.582 -1.98105 -3.21812 0
M  V30 3126 H 307.895 -4.57042 -6.23164 0
M  V30 3127 H 306.24 -4.10469 -5.60839 0
M  V30 3128 H 309.431 -2.52525 -3.94143 0
M  V30 3129 H 309.604 -3.70584 -5.31575 0
M  V30 3130 N 303.011 1.40521 -0.713556 0
M  V30 3131 C 303.943 2.29191 -0.0203126 0
M  V30 3132 C 304.956 1.45723 0.725864 0
M  V30 3133 O 306.145 1.69033 0.573581 0
M  V30 3134 C 303.245 3.2395 0.995486 0
M  V30 3135 C 302.418 4.36262 0.315256 0
M  V30 3136 C 301.477 5.11474 1.23616 0
M  V30 3137 O 300.503 5.64606 0.721719 0
M  V30 3138 N 301.705 5.20638 2.56743 0
M  V30 3139 H 304.47 2.89327 -0.781652 0
M  V30 3140 H 302.031 1.51869 -0.561022 0
M  V30 3141 H 304.023 3.71137 1.61368 0
M  V30 3142 H 302.593 2.64995 1.6582 0
M  V30 3143 H 301.813 3.91228 -0.483106 0
M  V30 3144 H 303.101 5.08558 -0.157004 0
M  V30 3145 H 302.499 4.7895 3.01037 0
M  V30 3146 H 301.056 5.71339 3.13712 0
M  V30 3147 N 304.489 0.459591 1.5075 0
M  V30 3148 C 305.736 -0.0993495 2.02256 0
M  V30 3149 C 306.064 -1.40751 1.34237 0
M  V30 3150 O 305.319 -1.90379 0.453228 0
M  V30 3151 C 305.618 -0.342866 3.55752 0
M  V30 3152 C 305.284 0.88218 4.42186 0
M  V30 3153 C 303.946 1.21808 4.65528 0
M  V30 3154 C 306.298 1.69837 4.92752 0
M  V30 3155 C 303.626 2.37045 5.36681 0
M  V30 3156 C 305.978 2.84192 5.65171 0
M  V30 3157 C 304.642 3.1821 5.8677 0
M  V30 3158 H 303.912 -0.0363545 0.740108 0
M  V30 3159 H 306.559 0.611329 1.8148 0
M  V30 3160 H 304.864 -1.13567 3.7498 0
M  V30 3161 H 306.561 -0.789121 3.93159 0
M  V30 3162 H 303.151 0.610467 4.2423 0
M  V30 3163 H 307.335 1.45205 4.74583 0
M  V30 3164 H 302.591 2.63689 5.51614 0
M  V30 3165 H 306.765 3.4779 6.03337 0
M  V30 3166 H 304.392 4.07613 6.41682 0
M  V30 3167 N 305.967 -1.56429 0.191757 0
M  V30 3168 C 306.914 -2.18936 -0.730454 0
M  V30 3169 C 307.884 -1.13557 -1.21219 0
M  V30 3170 O 309.069 -1.41794 -1.27668 0
M  V30 3171 C 306.209 -2.85013 -1.9458 0
M  V30 3172 C 305.322 -4.04909 -1.50574 0
M  V30 3173 C 304.457 -4.58853 -2.67634 0
M  V30 3174 C 303.496 -5.71114 -2.20217 0
M  V30 3175 N 302.633 -6.19478 -3.30442 0
M  V30 3176 H 307.473 -2.97389 -0.190664 0
M  V30 3177 H 305.01 -1.46869 -0.0823694 0
M  V30 3178 H 306.968 -3.21492 -2.65893 0
M  V30 3179 H 305.598 -2.09129 -2.45896 0
M  V30 3180 H 304.65 -3.74115 -0.688605 0
M  V30 3181 H 305.962 -4.86113 -1.11784 0
M  V30 3182 H 305.116 -4.97619 -3.47074 0
M  V30 3183 H 303.855 -3.76749 -3.09696 0
M  V30 3184 H 302.86 -5.31879 -1.3923 0
M  V30 3185 H 304.085 -6.55033 -1.79189 0
M  V30 3186 H 302.031 -5.40297 -3.72041 0
M  V30 3187 H 301.948 -6.95725 -2.9581 0
M  V30 3188 H 303.216 -6.62898 -4.10106 0
M  V30 3189 N 307.445 0.0818655 -1.57387 0
M  V30 3190 C 308.861 0.436412 -1.53517 0
M  V30 3191 C 309.061 1.79758 -0.910459 0
M  V30 3192 O 308.117 2.47324 -0.508636 0
M  V30 3193 C 309.43 0.386734 -2.98203 0
M  V30 3194 C 310.978 0.467644 -3.09487 0
M  V30 3195 C 311.453 0.447978 -4.55804 0
M  V30 3196 N 312.944 0.508348 -4.60402 0
M  V30 3197 C 313.679 0.515184 -5.71081 0
M  V30 3198 N 313.175 0.477435 -6.91153 0
M  V30 3199 N 314.968 0.560988 -5.59294 0
M  V30 3200 H 307.119 -0.809546 -1.96367 0
M  V30 3201 H 309.382 -0.302733 -0.898363 0
M  V30 3202 H 309.088 -0.546539 -3.47427 0
M  V30 3203 H 308.962 1.20075 -3.57578 0
M  V30 3204 H 311.349 1.39134 -2.60242 0
M  V30 3205 H 311.43 -0.374753 -2.5304 0
M  V30 3206 H 311.074 -0.471826 -5.05704 0
M  V30 3207 H 311.004 1.30777 -5.10103 0
M  V30 3208 H 313.495 0.54218 -3.7399 0
M  V30 3209 H 313.808 0.486299 -7.71268 0
M  V30 3210 H 312.153 0.444278 -6.93579 0
M  V30 3211 H 315.344 0.5881 -4.64391 0
M  V30 3212 H 315.517 0.562846 -6.45551 0
M  V30 3213 N 308.923 1.53595 0.353017 0
M  V30 3214 C 310.148 1.7462 1.11904 0
M  V30 3215 C 310.573 0.479721 1.8188 0
M  V30 3216 O 309.931 -0.567066 1.72204 0
M  V30 3217 C 309.979 2.92029 2.11545 0
M  V30 3218 O 309.083 2.61516 3.18878 0
M  V30 3219 H 308.424 0.579531 0.324099 0
M  V30 3220 H 310.954 2.00525 0.406301 0
M  V30 3221 H 310.964 3.18551 2.5493 0
M  V30 3222 H 309.639 3.83888 1.60008 0
M  V30 3223 H 308.216 2.45852 2.80377 0
M  V30 3224 N 310.401 -0.613514 1.45168 0
M  V30 3225 C 311.65 -1.36874 1.4815 0
M  V30 3226 C 311.963 -1.952 0.124982 0
M  V30 3227 O 313.169 -2.71481 0.0324176 0
M  V30 3228 C 311.625 -2.47905 2.60904 0
M  V30 3229 C 311.233 -1.96016 4.02842 0
M  V30 3230 C 312.977 -3.24965 2.73126 0
M  V30 3231 C 310.884 -3.04494 5.06988 0
M  V30 3232 H 309.814 -0.514428 0.551253 0
M  V30 3233 H 312.465 -0.658182 1.7129 0
M  V30 3234 H 310.847 -3.21618 2.31037 0
M  V30 3235 H 312.021 -1.29051 4.4236 0
M  V30 3236 H 310.336 -1.31719 3.95018 0
M  V30 3237 H 312.933 -4.05865 3.48106 0
M  V30 3238 H 313.276 -3.75588 1.79553 0
M  V30 3239 H 313.809 -2.5835 3.0249 0
M  V30 3240 H 310.548 -2.58795 6.0225 0
M  V30 3241 H 310.068 -3.70044 4.72046 0
M  V30 3242 H 311.747 -3.68976 5.31475 0
M  V30 3243 N 311.879 -1.3236 -0.855495 0
M  V30 3244 C 312.842 -1.21164 -1.94556 0
M  V30 3245 C 313.842 -0.134908 -1.60233 0
M  V30 3246 O 315.032 -0.385249 -1.69887 0
M  V30 3247 C 312.164 -0.863192 -3.29791 0
M  V30 3248 H 313.357 -2.18038 -2.05911 0
M  V30 3249 H 310.91 -1.16179 -1.04557 0
M  V30 3250 H 311.645 0.103769 -3.24134 0
M  V30 3251 H 311.43 -1.64166 -3.56078 0
M  V30 3252 H 312.92 -0.809156 -4.09686 0
M  V30 3253 N 313.357 1.07166 -1.15556 0
M  V30 3254 C 314.267 2.17947 -0.868116 0
M  V30 3255 C 315.283 1.73297 0.156297 0
M  V30 3256 O 316.459 2.01392 -0.0182327 0
M  V30 3257 C 313.524 3.44789 -0.36355 0
M  V30 3258 C 312.585 4.03996 -1.45209 0
M  V30 3259 C 311.818 5.24783 -0.971508 0
M  V30 3260 O 312.041 5.70109 0.182194 0
M  V30 3261 O 310.975 5.75715 -1.75603 0
M  V30 3262 H 314.801 2.4503 -1.79427 0
M  V30 3263 H 312.386 1.16539 -0.934824 0
M  V30 3264 H 314.268 4.21307 -0.0887113 0
M  V30 3265 H 312.943 3.19253 0.534708 0
M  V30 3266 H 311.85 3.29009 -1.78056 0
M  V30 3267 H 313.183 4.33808 -2.32533 0
M  V30 3268 N 314.835 0.952656 1.25548 0
M  V30 3269 C 315.765 0.489287 2.28316 0
M  V30 3270 C 316.746 -0.463359 1.63667 0
M  V30 3271 O 317.931 -0.36274 1.90782 0
M  V30 3272 C 315.061 -0.235603 3.465 0
M  V30 3273 C 314.015 0.631593 4.23314 0
M  V30 3274 C 313.341 -0.223923 5.34231 0
M  V30 3275 C 314.641 1.90871 4.86174 0
M  V30 3276 H 316.335 1.34822 2.67326 0
M  V30 3277 H 313.881 0.649728 1.28509 0
M  V30 3278 H 315.834 -0.570882 4.17515 0
M  V30 3279 H 314.558 -1.12877 3.06474 0
M  V30 3280 H 313.217 0.949929 3.54079 0
M  V30 3281 H 312.865 -1.11678 4.90446 0
M  V30 3282 H 312.565 0.35299 5.86539 0
M  V30 3283 H 314.089 -0.554214 6.0808 0
M  V30 3284 H 315.503 1.63997 5.49343 0
M  V30 3285 H 313.9 2.43112 5.4865 0
M  V30 3286 H 314.97 2.61304 4.08471 0
M  V30 3287 N 316.313 -1.40141 0.720998 0
M  V30 3288 C 317.559 -2.01572 0.272075 0
M  V30 3289 C 317.914 -1.5616 -1.12391 0
M  V30 3290 O 317.207 -0.774198 -1.75262 0
M  V30 3291 C 317.401 -3.56165 0.296892 0
M  V30 3292 C 317.23 -4.16584 1.69375 0
M  V30 3293 C 316 -4.49783 2.30269 0
M  V30 3294 C 318.198 -4.41076 2.64493 0
M  V30 3295 N 316.18 -4.95626 3.62254 0
M  V30 3296 C 317.551 -4.88971 3.81192 0
M  V30 3297 C 319.606 -4.23122 2.62435 0
M  V30 3298 C 318.309 -5.20796 4.96149 0
M  V30 3299 C 320.335 -4.56052 3.76524 0
M  V30 3300 C 319.697 -5.04141 4.91956 0
M  V30 3301 H 315.796 -0.768343 0.145511 0
M  V30 3302 H 318.38 -1.70287 0.943959 0
M  V30 3303 H 316.551 -3.86868 -0.344578 0
M  V30 3304 H 318.283 -4.04346 -0.169254 0
M  V30 3305 H 315.038 -4.37101 1.82318 0
M  V30 3306 H 315.462 -5.22923 4.29977 0
M  V30 3307 H 320.104 -3.85158 1.74393 0
M  V30 3308 H 317.822 -5.57672 5.84831 0
M  V30 3309 H 321.408 -4.43796 3.76213 0
M  V30 3310 H 320.288 -5.29142 5.78774 0
M  V30 3311 N 317.792 -0.46758 -1.50504 0
M  V30 3312 C 319.04 0.0884469 -2.01906 0
M  V30 3313 C 319.361 1.40532 -1.35188 0
M  V30 3314 O 318.631 1.89515 -0.496079 0
M  V30 3315 H 317.211 0.0356765 -0.746148 0
M  V30 3316 H 319.873 -0.6172 -1.84869 0
M  V30 3317 H 318.969 0.2425 -3.11156 0
M  V30 3318 O 319.309 1.5785 -0.341429 0
M  V30 3319 H 320 1.92508 0.21453 0
M  V30 END ATOM
M  V30 BEGIN BOND
M  V30 END BOND
M  V30 END CTAB
M  END
$$$$
