drugbank_target|P15328 Folate receptor alpha (DB00158; DB05168; DB05595)
 OpenBabel12092120313D

  0  0  0     0  0            999 V3000
M  V30 BEGIN CTAB
M  V30 COUNTS 4089 4160 0 0 0
M  V30 BEGIN ATOM
M  V30 1 H -0.908 1.98254 -0.117106 0
M  V30 2 N 0 1.576 0 0
M  V30 3 C 0.933 2.03868 1.02534 0
M  V30 4 C 1.911 0.928543 1.3348 0
M  V30 5 O 3.095 1.19667 1.45644 0
M  V30 6 C 0.222 2.43627 2.35294 0
M  V30 7 C -0.732 3.65373 2.2001 0
M  V30 8 S 0.101 5.13292 1.52614 0
M  V30 9 C 1.257 5.56322 2.86805 0
M  V30 10 H 1.49 2.90518 0.631377 0
M  V30 11 H -0.977 1.52953 0.210867 0
M  V30 12 H 0.981 2.67203 3.11629 0
M  V30 13 H -0.358 1.57376 2.7183 0
M  V30 14 H -1.165 3.90944 3.18086 0
M  V30 15 H -1.563 3.418 1.51819 0
M  V30 16 H 0.729 5.58782 3.83104 0
M  V30 17 H 1.672 6.56266 2.65933 0
M  V30 18 H 2.08 4.83886 2.90714 0
M  V30 19 N 1.4781 -0.272755 1.55222 0
M  V30 20 C 2.4411 -1.32041 1.87344 0
M  V30 21 C 3.4411 -1.42342 0.74803 0
M  V30 22 O 4.6311 -1.41488 1.0162 0
M  V30 23 C 1.7631 -2.70173 2.07893 0
M  V30 24 H 2.9561 -1.04789 2.80997 0
M  V30 25 H 0.5091 -0.51083 1.47717 0
M  V30 26 H 1.2441 -3.02605 1.16622 0
M  V30 27 H 1.0291 -2.64082 2.89833 0
M  V30 28 H 2.5191 -3.45869 2.34017 0
M  V30 29 N 2.9562 -1.48159 -0.537278 0
M  V30 30 C 3.8882 -1.58218 -1.65831 0
M  V30 31 C 4.9012 -0.466948 -1.5596 0
M  V30 32 O 6.0902 -0.73747 -1.62553 0
M  V30 33 C 3.1902 -1.48906 -3.04434 0
M  V30 34 C 2.3632 -2.75343 -3.3986 0
M  V30 35 C 1.4222 -2.59588 -4.57712 0
M  V30 36 O 0.4482 -3.33457 -4.61297 0
M  V30 37 N 1.6502 -1.68724 -5.55439 0
M  V30 38 H 4.4152 -2.54891 -1.57641 0
M  V30 39 H 1.9762 -1.4479 -0.724386 0
M  V30 40 H 3.9682 -1.36072 -3.81139 0
M  V30 41 H 2.5382 -0.602368 -3.06741 0
M  V30 42 H 1.7582 -3.02795 -2.52406 0
M  V30 43 H 3.0462 -3.5924 -3.60311 0
M  V30 44 H 2.4442 -1.07898 -5.55315 0
M  V30 45 H 1.0012 -1.61832 -6.3139 0
M  V30 46 N 4.4343 0.785586 -1.36625 0
M  V30 47 C 5.8503 1.08419 -1.17122 0
M  V30 48 C 6.0503 2.015 0.00208491 0
M  V30 49 O 5.1063 2.43551 0.666278 0
M  V30 50 C 6.4193 1.69498 -2.48377 0
M  V30 51 C 7.9673 1.81821 -2.54775 0
M  V30 52 C 8.4423 2.46315 -3.86126 0
M  V30 53 N 9.9333 2.53779 -3.87492 0
M  V30 54 C 10.6683 3.045 -4.85868 0
M  V30 55 N 10.1643 3.55499 -5.94637 0
M  V30 56 N 11.9573 3.03247 -4.73284 0
M  V30 57 H 4.1083 0.167264 -2.1174 0
M  V30 58 H 6.3713 0.13682 -0.938075 0
M  V30 59 H 6.0773 1.08571 -3.34522 0
M  V30 60 H 5.9513 2.6896 -2.64462 0
M  V30 61 H 8.3383 2.41884 -1.69045 0
M  V30 62 H 8.4193 0.811532 -2.42586 0
M  V30 63 H 8.0633 1.86895 -4.72263 0
M  V30 64 H 7.9933 3.47561 -3.95612 0
M  V30 65 H 10.4843 2.17672 -3.08913 0
M  V30 66 H 10.7973 3.92562 -6.65669 0
M  V30 67 H 9.1423 3.5364 -5.98301 0
M  V30 68 H 12.3333 2.62696 -3.87438 0
M  V30 69 H 12.5063 3.42467 -5.50109 0
M  V30 70 N 5.9124 1.20967 1.01018 0
M  V30 71 C 6.8454 0.907578 2.09376 0
M  V30 72 C 7.8234 -0.142868 1.61971 0
M  V30 73 O 9.0074 -0.0150391 1.88494 0
M  V30 74 C 6.1344 0.361791 3.36762 0
M  V30 75 C 5.1804 1.39423 4.03068 0
M  V30 76 S 6.0134 2.96159 4.4615 0
M  V30 77 C 7.1694 2.43173 5.7673 0
M  V30 78 H 7.4024 1.82519 2.34678 0
M  V30 79 H 4.9354 1.03884 1.14225 0
M  V30 80 H 6.8934 0.0534523 4.10465 0
M  V30 81 H 5.5544 -0.53443 3.0952 0
M  V30 82 H 4.7474 0.961853 4.94737 0
M  V30 83 H 4.3494 1.65038 3.35617 0
M  V30 84 H 6.6414 1.83335 6.52223 0
M  V30 85 H 7.5844 3.33264 6.24773 0
M  V30 86 H 7.9924 1.85069 5.33301 0
M  V30 87 N 7.3905 -1.2043 1.01659 0
M  V30 88 C 8.6185 -1.93777 0.725132 0
M  V30 89 C 9.0335 -1.74772 -0.714166 0
M  V30 90 O 8.3905 -1.06169 -1.4844 0
M  V30 91 C 8.4415 -3.45876 1.05129 0
M  V30 92 O 8.1625 -3.6426 2.43406 0
M  V30 93 C 9.6635 -4.36368 0.780891 0
M  V30 94 H 6.8835 -0.615901 0.266284 0
M  V30 95 H 9.4275 -1.52922 1.35776 0
M  V30 96 H 7.5825 -3.8461 0.464065 0
M  V30 97 H 7.9965 -4.58246 2.55169 0
M  V30 98 H 9.4705 -5.41743 1.05918 0
M  V30 99 H 9.9475 -4.38275 -0.284937 0
M  V30 100 H 10.5535 -4.03296 1.35027 0
M  V30 101 N 8.8686 -0.792821 -1.36206 0
M  V30 102 C 10.0966 -0.378825 -2.03402 0
M  V30 103 C 10.5116 1.00586 -1.59774 0
M  V30 104 O 9.8686 1.64574 -0.788764 0
M  V30 105 C 9.9196 -0.43683 -3.58851 0
M  V30 106 O 9.6406 -1.76691 -4.00889 0
M  V30 107 C 11.1416 -0.0138943 -4.43298 0
M  V30 108 H 8.3616 -0.155673 -0.652692 0
M  V30 109 H 10.9056 -1.07261 -1.74113 0
M  V30 110 H 9.0606 0.208575 -3.86838 0
M  V30 111 H 9.4746 -1.72011 -4.95492 0
M  V30 112 H 10.9486 -0.105615 -5.51899 0
M  V30 113 H 11.4256 1.03915 -4.2673 0
M  V30 114 H 12.0316 -0.63192 -4.20579 0
M  V30 115 N 10.3467 1.47872 -0.545128 0
M  V30 116 C 11.2787 2.27869 0.246621 0
M  V30 117 C 12.2917 1.36282 0.890561 0
M  V30 118 O 13.4807 1.61207 0.766449 0
M  V30 119 C 10.5807 3.10159 1.36582 0
M  V30 120 C 9.7537 4.29627 0.820954 0
M  V30 121 C 8.8127 4.93607 1.82314 0
M  V30 122 O 7.8387 5.52366 1.37406 0
M  V30 123 N 9.0407 4.87211 3.15603 0
M  V30 124 H 11.8057 2.96459 -0.439539 0
M  V30 125 H 9.3667 1.57367 -0.380421 0
M  V30 126 H 11.3587 3.49829 2.03474 0
M  V30 127 H 9.9287 2.43891 1.9554 0
M  V30 128 H 9.1487 3.94192 -0.0244032 0
M  V30 129 H 10.4367 5.06928 0.436063 0
M  V30 130 H 9.8347 4.40651 3.54744 0
M  V30 131 H 8.3917 5.30937 3.78087 0
M  V30 132 N 11.8248 0.280983 1.55075 0
M  V30 133 C 12.7548 -0.597469 2.25727 0
M  V30 134 C 13.7358 -1.15417 1.24952 0
M  V30 135 O 14.9208 -1.18722 1.53684 0
M  V30 136 C 12.0508 -1.7789 2.98283 0
M  V30 137 C 11.0048 -1.35347 4.06036 0
M  V30 138 C 10.3308 -2.61846 4.66198 0
M  V30 139 C 11.6308 -0.499354 5.19907 0
M  V30 140 H 13.3248 -0.00824265 2.99399 0
M  V30 141 H 10.8708 -0.0025244 1.44 0
M  V30 142 H 12.8238 -2.39937 3.46422 0
M  V30 143 H 11.5478 -2.39405 2.22155 0
M  V30 144 H 10.2068 -0.756156 3.58717 0
M  V30 145 H 9.8548 -3.21632 3.86732 0
M  V30 146 H 9.5548 -2.3409 5.38958 0
M  V30 147 H 11.0788 -3.24732 5.1709 0
M  V30 148 H 12.4928 -1.02498 5.64063 0
M  V30 149 H 10.8898 -0.316424 5.99265 0
M  V30 150 H 11.9598 0.480459 4.82514 0
M  V30 151 N 13.3029 -1.57598 0.00835791 0
M  V30 152 C 14.2329 -2.1198 -0.979113 0
M  V30 153 C 15.2139 -1.03091 -1.35301 0
M  V30 154 O 16.3989 -1.30818 -1.43528 0
M  V30 155 C 13.5289 -2.62995 -2.26828 0
M  V30 156 C 12.4829 -3.76485 -2.03576 0
M  V30 157 C 11.8089 -4.13846 -3.38579 0
M  V30 158 C 13.1089 -5.0342 -1.39161 0
M  V30 159 H 14.8029 -2.94738 -0.526281 0
M  V30 160 H 12.3489 -1.41783 -0.251704 0
M  V30 161 H 14.3019 -2.99669 -2.96271 0
M  V30 162 H 13.0259 -1.7737 -2.7424 0
M  V30 163 H 11.6849 -3.40217 -1.36557 0
M  V30 164 H 11.3329 -3.25232 -3.83709 0
M  V30 165 H 11.0329 -4.90312 -3.23834 0
M  V30 166 H 12.5569 -4.53086 -4.09323 0
M  V30 167 H 13.9709 -5.37812 -1.98573 0
M  V30 168 H 12.3679 -5.84746 -1.34878 0
M  V30 169 H 13.4379 -4.83548 -0.361868 0
M  V30 170 N 14.781 0.264519 -1.55364 0
M  V30 171 C 15.711 1.33121 -1.91836 0
M  V30 172 C 16.692 1.51101 -0.781192 0
M  V30 173 O 17.877 1.64003 -1.04003 0
M  V30 174 C 15.007 2.68921 -2.19769 0
M  V30 175 C 13.961 2.65661 -3.35571 0
M  V30 176 C 13.287 4.05093 -3.49004 0
M  V30 177 C 14.587 2.24187 -4.71739 0
M  V30 178 H 16.281 1.02844 -2.81182 0
M  V30 179 H 13.827 0.493286 -1.35287 0
M  V30 180 H 15.78 3.43663 -2.43872 0
M  V30 181 H 14.504 3.00799 -1.27231 0
M  V30 182 H 13.163 1.93377 -3.1145 0
M  V30 183 H 12.811 4.34206 -2.53917 0
M  V30 184 H 12.511 4.03804 -4.26868 0
M  V30 185 H 14.035 4.81561 -3.75408 0
M  V30 186 H 15.449 2.88654 -4.9533 0
M  V30 187 H 13.846 2.34044 -5.52579 0
M  V30 188 H 14.916 1.19327 -4.69988 0
M  V30 189 N 16.2591 1.48442 0.529413 0
M  V30 190 C 17.1891 1.65902 1.64313 0
M  V30 191 C 18.1701 0.507897 1.6234 0
M  V30 192 O 19.3551 0.740503 1.79528 0
M  V30 193 C 16.4851 1.69911 3.02898 0
M  V30 194 C 15.4391 2.8453 3.19729 0
M  V30 195 C 14.7651 2.73629 4.59381 0
M  V30 196 C 16.0651 4.25821 3.02447 0
M  V30 197 H 17.7591 2.5914 1.49955 0
M  V30 198 H 15.3051 1.24709 0.719982 0
M  V30 199 H 17.2581 1.80715 3.80684 0
M  V30 200 H 15.9821 0.732524 3.18279 0
M  V30 201 H 14.6411 2.73283 2.44361 0
M  V30 202 H 14.2891 1.74938 4.71599 0
M  V30 203 H 13.9891 3.50541 4.71588 0
M  V30 204 H 15.5131 2.86401 5.39265 0
M  V30 205 H 16.9271 4.37898 3.70024 0
M  V30 206 H 15.3241 5.03735 3.26146 0
M  V30 207 H 16.3941 4.42244 1.98867 0
M  V30 208 N 17.7372 -0.778329 1.37039 0
M  V30 209 C 18.6672 -1.90546 1.34962 0
M  V30 210 C 19.6482 -1.68681 0.219274 0
M  V30 211 O 20.8332 -1.89634 0.418624 0
M  V30 212 C 17.9632 -3.27734 1.14925 0
M  V30 213 C 16.9172 -3.64147 2.24902 0
M  V30 214 C 16.2432 -4.99806 1.89996 0
M  V30 215 C 17.5432 -3.71579 3.67051 0
M  V30 216 H 19.2372 -1.92541 2.29277 0
M  V30 217 H 16.7832 -0.924948 1.10366 0
M  V30 218 H 18.7362 -4.06215 1.12104 0
M  V30 219 H 17.4602 -3.26154 0.170631 0
M  V30 220 H 16.1192 -2.8797 2.26868 0
M  V30 221 H 15.7672 -4.94759 0.906796 0
M  V30 222 H 15.4672 -5.25139 2.63634 0
M  V30 223 H 16.9912 -5.80694 1.88749 0
M  V30 224 H 18.4052 -4.40227 3.67251 0
M  V30 225 H 16.8022 -4.08405 4.39688 0
M  V30 226 H 17.8722 -2.72404 4.01154 0
M  V30 227 N 19.2153 -1.21501 -1.00376 0
M  V30 228 C 20.4613 -1.03452 -1.74429 0
M  V30 229 C 20.7943 0.430764 -1.89362 0
M  V30 230 O 20.0693 1.31962 -1.42886 0
M  V30 231 C 20.3523 -1.73375 -3.15615 0
M  V30 232 C 20.2053 -3.27431 -3.08397 0
M  V30 233 C 21.5243 -1.47732 -4.14564 0
M  V30 234 H 18.6433 -0.377226 -0.633143 0
M  V30 235 H 21.2853 -1.49693 -1.17013 0
M  V30 236 H 19.4353 -1.34064 -3.64636 0
M  V30 237 H 21.1073 -3.76119 -2.67081 0
M  V30 238 H 19.3503 -3.5767 -2.45468 0
M  V30 239 H 20.0213 -3.71524 -4.08258 0
M  V30 240 H 22.4973 -1.8186 -3.74254 0
M  V30 241 H 21.3733 -1.99169 -5.11491 0
M  V30 242 H 21.6343 -0.407589 -4.40217 0
M  V30 243 N 20.6934 1.19889 -1.02296 0
M  V30 244 C 21.9394 1.89973 -0.726759 0
M  V30 245 C 22.2944 1.7776 0.73614 0
M  V30 246 O 21.5874 1.15523 1.52856 0
M  V30 247 C 21.7814 3.39883 -1.10518 0
M  V30 248 C 21.6104 3.66684 -2.60332 0
M  V30 249 C 20.3804 3.85045 -3.27213 0
M  V30 250 C 22.5784 3.68727 -3.58532 0
M  V30 251 N 20.5604 3.99422 -4.66192 0
M  V30 252 C 21.9314 3.88604 -4.83101 0
M  V30 253 C 23.9864 3.51722 -3.52414 0
M  V30 254 C 22.6894 3.9324 -6.02292 0
M  V30 255 C 24.7154 3.57632 -4.71013 0
M  V30 256 C 24.0774 3.77988 -5.94394 0
M  V30 257 H 20.1764 0.714551 -0.317712 0
M  V30 258 H 22.7604 1.44123 -1.30907 0
M  V30 259 H 20.9314 3.8447 -0.551142 0
M  V30 260 H 22.6634 3.97464 -0.761853 0
M  V30 261 H 19.4184 3.83689 -2.77632 0
M  V30 262 H 19.8424 4.10473 -5.38368 0
M  V30 263 H 24.4844 3.34945 -2.58015 0
M  V30 264 H 22.2024 4.08811 -6.97065 0
M  V30 265 H 25.7884 3.45773 -4.67902 0
M  V30 266 H 24.6684 3.82428 -6.8463 0
M  V30 267 N 22.1715 0.800033 1.35784 0
M  V30 268 C 23.4175 0.377901 1.99248 0
M  V30 269 C 23.7505 -1.05052 1.63333 0
M  V30 270 O 23.0255 -1.72768 0.893385 0
M  V30 271 C 23.3085 0.553922 3.55814 0
M  V30 272 C 23.1615 2.0268 4.01548 0
M  V30 273 C 24.4805 -0.0244802 4.40093 0
M  V30 274 H 21.5995 0.138782 0.723815 0
M  V30 275 H 24.2415 1.00835 1.61035 0
M  V30 276 H 22.3915 0.0172398 3.88496 0
M  V30 277 H 24.0635 2.62536 3.79305 0
M  V30 278 H 22.3065 2.5256 3.52698 0
M  V30 279 H 22.9775 2.10087 5.10458 0
M  V30 280 H 25.4535 0.433775 4.13833 0
M  V30 281 H 24.3295 0.128637 5.48749 0
M  V30 282 H 24.5905 -1.11758 4.27741 0
M  V30 283 N 23.6496 -1.47581 0.552962 0
M  V30 284 C 24.6126 -2.28439 -0.186605 0
M  V30 285 C 25.6126 -1.36706 -0.84665 0
M  V30 286 O 26.8026 -1.59378 -0.703164 0
M  V30 287 C 23.9346 -3.16264 -1.2724 0
M  V30 288 H 25.1276 -2.95294 0.523609 0
M  V30 289 H 22.6806 -1.532 0.309745 0
M  V30 290 H 23.4156 -2.54091 -2.01514 0
M  V30 291 H 23.2006 -3.83769 -0.803968 0
M  V30 292 H 24.6906 -3.77198 -1.79196 0
M  V30 293 N 25.1277 -0.289203 -1.54924 0
M  V30 294 C 26.3737 0.323998 -2.00195 0
M  V30 295 C 26.7067 1.54441 -1.17735 0
M  V30 296 O 25.9817 1.92875 -0.250878 0
M  V30 297 C 26.2647 0.692276 -3.53383 0
M  V30 298 C 26.1177 -0.536457 -4.46589 0
M  V30 299 C 27.4367 1.52335 -4.12895 0
M  V30 300 H 24.5557 0.116289 -0.727768 0
M  V30 301 H 27.1977 -0.398954 -1.85764 0
M  V30 302 H 25.3477 1.30822 -3.65811 0
M  V30 303 H 27.0197 -1.17499 -4.46085 0
M  V30 304 H 25.2627 -1.17192 -4.1767 0
M  V30 305 H 25.9337 -0.234806 -5.515 0
M  V30 306 H 28.4097 1.00302 -4.0383 0
M  V30 307 H 27.2857 1.74982 -5.20262 0
M  V30 308 H 27.5467 2.50886 -3.64018 0
M  V30 309 N 26.6058 1.57591 -0.0167156 0
M  V30 310 C 27.8518 1.91567 0.665582 0
M  V30 311 C 28.1848 0.892298 1.72487 0
M  V30 312 O 27.4598 -0.0867127 1.94307 0
M  V30 313 C 27.7428 3.36069 1.29342 0
M  V30 314 C 27.5958 4.49135 0.244541 0
M  V30 315 C 28.9148 3.803 2.21495 0
M  V30 316 H 26.0338 0.69666 0.240488 0
M  V30 317 H 28.6758 1.89866 -0.0714356 0
M  V30 318 H 26.8258 3.3765 1.92158 0
M  V30 319 H 28.4978 4.59689 -0.385228 0
M  V30 320 H 26.7408 4.3165 -0.431379 0
M  V30 321 H 27.4118 5.47242 0.723207 0
M  V30 322 H 29.8878 3.80377 1.68678 0
M  V30 323 H 28.7638 4.82127 2.62382 0
M  V30 324 H 29.0248 3.15104 3.101 0
M  V30 325 N 28.0839 -0.256276 1.55502 0
M  V30 326 C 29.3319 -0.983672 1.76545 0
M  V30 327 C 29.6529 -1.86206 0.578982 0
M  V30 328 O 28.9229 -1.91656 -0.405577 0
M  V30 329 H 27.5029 -0.366191 0.651086 0
M  V30 330 H 30.1649 -0.276479 1.92929 0
M  V30 331 H 29.2609 -1.61087 2.67315 0
M  V30 332 N 29.562 -1.4872 -0.521534 0
M  V30 333 C 30.472 -1.66569 -1.65203 0
M  V30 334 C 31.488 -0.548197 -1.65139 0
M  V30 335 O 32.664 -0.820339 -1.83936 0
M  V30 336 C 29.729 -1.70917 -3.01642 0
M  V30 337 C 28.79 -2.94356 -3.12495 0
M  V30 338 C 28.023 -2.98487 -4.42426 0
M  V30 339 O 28.246 -2.10786 -5.30024 0
M  V30 340 O 27.18 -3.90746 -4.57822 0
M  V30 341 H 31.006 -2.62298 -1.5308 0
M  V30 342 H 28.591 -1.3222 -0.695565 0
M  V30 343 H 30.473 -1.7625 -3.82771 0
M  V30 344 H 29.148 -0.783633 -3.14071 0
M  V30 345 H 28.055 -2.94552 -2.3063 0
M  V30 346 H 29.388 -3.86322 -3.04986 0
M  V30 347 N 31.0401 0.771051 -1.3745 0
M  V30 348 C 32.0031 1.86598 -1.33093 0
M  V30 349 C 33.0031 1.59076 -0.234845 0
M  V30 350 O 34.1931 1.67145 -0.490732 0
M  V30 351 C 31.3251 3.23747 -1.06773 0
M  V30 352 H 32.5181 1.91873 -2.30488 0
M  V30 353 H 30.0711 0.970876 -1.2249 0
M  V30 354 H 30.8061 3.24148 -0.099129 0
M  V30 355 H 30.5911 3.45115 -1.86112 0
M  V30 356 H 32.0811 4.03824 -1.06377 0
M  V30 357 N 32.5182 1.22032 0.997298 0
M  V30 358 C 33.4502 0.944263 2.08845 0
M  V30 359 C 34.4632 -0.0754663 1.62625 0
M  V30 360 O 35.6522 0.157994 1.77799 0
M  V30 361 C 32.7522 0.397723 3.36558 0
M  V30 362 C 31.9252 1.47362 4.11829 0
M  V30 363 C 30.9842 0.934951 5.17827 0
M  V30 364 O 30.0102 1.62016 5.45655 0
M  V30 365 N 31.2122 -0.245895 5.79979 0
M  V30 366 H 33.9772 1.88363 2.33109 0
M  V30 367 H 31.5382 1.12661 1.16272 0
M  V30 368 H 33.5302 0.0227771 4.04694 0
M  V30 369 H 32.1002 -0.446646 3.09393 0
M  V30 370 H 31.3202 2.02208 3.38386 0
M  V30 371 H 32.6082 2.19764 4.58891 0
M  V30 372 H 32.0062 -0.819475 5.59733 0
M  V30 373 H 30.5632 -0.562272 6.4937 0
M  V30 374 N 33.9963 -1.19345 1.0293 0
M  V30 375 C 35.2243 -1.92997 0.745644 0
M  V30 376 C 35.6393 -1.75519 -0.695589 0
M  V30 377 O 34.9963 -1.07737 -1.47306 0
M  V30 378 C 35.0473 -3.44741 1.08792 0
M  V30 379 O 34.7683 -3.61658 2.47256 0
M  V30 380 C 36.2693 -4.35515 0.827129 0
M  V30 381 H 33.4893 -0.613042 0.272801 0
M  V30 382 H 36.0333 -1.51473 1.3739 0
M  V30 383 H 34.1883 -3.84097 0.504832 0
M  V30 384 H 34.6023 -4.55514 2.60015 0
M  V30 385 H 36.0763 -5.40589 1.11658 0
M  V30 386 H 36.5533 -4.38552 -0.238436 0
M  V30 387 H 37.1593 -4.01841 1.39297 0
M  V30 388 N 35.4744 -0.807222 -1.35358 0
M  V30 389 C 36.8904 -0.491038 -1.51858 0
M  V30 390 C 37.0904 0.987648 -1.75635 0
M  V30 391 O 36.1464 1.77265 -1.79815 0
M  V30 392 C 37.4594 -1.33695 -2.69344 0
M  V30 393 C 39.0074 -1.33246 -2.83222 0
M  V30 394 C 39.4824 -2.1625 -4.03733 0
M  V30 395 N 40.9734 -2.1379 -4.10911 0
M  V30 396 C 41.7084 -2.74772 -5.03277 0
M  V30 397 N 41.2044 -3.44684 -6.0097 0
M  V30 398 N 42.9974 -2.6441 -4.96028 0
M  V30 399 H 35.1484 -1.76485 -1.18181 0
M  V30 400 H 37.4114 -0.751199 -0.578276 0
M  V30 401 H 37.1174 -2.38634 -2.58354 0
M  V30 402 H 36.9914 -0.990618 -3.6396 0
M  V30 403 H 39.3784 -0.290911 -2.93663 0
M  V30 404 H 39.4594 -1.71866 -1.89461 0
M  V30 405 H 39.1034 -3.20445 -3.94052 0
M  V30 406 H 39.0334 -1.74989 -4.96675 0
M  V30 407 H 41.5244 -1.62923 -3.40976 0
M  V30 408 H 41.8374 -3.88501 -6.68047 0
M  V30 409 H 40.1824 -3.48788 -6.01142 0
M  V30 410 H 43.3734 -2.0938 -4.18662 0
M  V30 411 H 43.5464 -3.12225 -5.6782 0
M  V30 412 N 36.9525 1.47285 -0.560781 0
M  V30 413 C 38.2015 2.01668 -0.035895 0
M  V30 414 C 38.5145 1.44021 1.32353 0
M  V30 415 O 39.7205 1.90088 1.93853 0
M  V30 416 C 38.1765 3.59897 -0.0136659 0
M  V30 417 C 37.7845 4.26536 -1.37006 0
M  V30 418 C 39.5285 4.22017 0.458425 0
M  V30 419 C 37.4355 5.76782 -1.30675 0
M  V30 420 H 36.3655 0.753938 -0.00964879 0
M  V30 421 H 39.0165 1.69243 -0.709166 0
M  V30 422 H 37.3985 3.89301 0.725325 0
M  V30 423 H 38.5725 4.0877 -2.12705 0
M  V30 424 H 36.8875 3.76419 -1.78038 0
M  V30 425 H 39.4845 5.32124 0.524247 0
M  V30 426 H 39.8275 3.89437 1.4712 0
M  V30 427 H 40.3605 3.97159 -0.225818 0
M  V30 428 H 37.0995 6.13988 -2.29564 0
M  V30 429 H 36.6195 5.96875 -0.591622 0
M  V30 430 H 38.2985 6.39063 -1.01033 0
M  V30 431 N 38.4306 0.297415 1.54768 0
M  V30 432 C 39.3936 -0.567375 2.22066 0
M  V30 433 C 40.3936 -1.06409 1.20556 0
M  V30 434 O 41.5836 -0.960691 1.45315 0
M  V30 435 C 38.7156 -1.78517 2.90421 0
M  V30 436 H 39.9086 0.0205534 2.99893 0
M  V30 437 H 37.4616 0.0482163 1.56226 0
M  V30 438 H 38.1966 -2.41303 2.16664 0
M  V30 439 H 37.9816 -1.43669 3.64831 0
M  V30 440 H 39.4716 -2.39964 3.41771 0
M  V30 441 N 39.9087 -1.5758 0.0250728 0
M  V30 442 C 41.1547 -1.92746 -0.649648 0
M  V30 443 C 41.5097 -0.901588 -1.69968 0
M  V30 444 O 40.8027 0.0829251 -1.9142 0
M  V30 445 C 40.9967 -3.32421 -1.31268 0
M  V30 446 C 40.8257 -4.48499 -0.328394 0
M  V30 447 C 39.5957 -5.05251 0.070284 0
M  V30 448 C 41.7937 -5.12618 0.415665 0
M  V30 449 N 39.7757 -6.04851 1.05016 0
M  V30 450 C 41.1467 -6.0728 1.24943 0
M  V30 451 C 43.2017 -4.95612 0.476803 0
M  V30 452 C 41.9047 -6.86766 2.1388 0
M  V30 453 C 43.9307 -5.75703 1.3535 0
M  V30 454 C 43.2927 -6.69978 2.17504 0
M  V30 455 H 39.3917 -0.753231 -0.210159 0
M  V30 456 H 41.9757 -1.94486 0.0912999 0
M  V30 457 H 40.1467 -3.31508 -2.02379 0
M  V30 458 H 41.8787 -3.54946 -1.94411 0
M  V30 459 H 38.6337 -4.72628 -0.303323 0
M  V30 460 H 39.0577 -6.5934 1.53622 0
M  V30 461 H 43.6997 -4.22554 -0.144105 0
M  V30 462 H 41.4177 -7.59132 2.77027 0
M  V30 463 H 45.0037 -5.64579 1.40504 0
M  V30 464 H 43.8837 -7.30873 2.84244 0
M  V30 465 N 41.3868 0.248026 -1.55636 0
M  V30 466 C 42.3498 1.29044 -1.89421 0
M  V30 467 C 43.3498 1.41134 -0.770581 0
M  V30 468 O 44.5398 1.39854 -1.03858 0
M  V30 469 C 41.6718 2.66831 -2.12165 0
M  V30 470 H 42.8648 1.00305 -2.82629 0
M  V30 471 H 40.4178 0.487265 -1.48511 0
M  V30 472 H 41.1528 3.00711 -1.21422 0
M  V30 473 H 40.9378 2.59438 -2.93997 0
M  V30 474 H 42.4278 3.42103 -2.3949 0
M  V30 475 N 42.8649 1.48995 0.513639 0
M  V30 476 C 44.2809 1.35478 0.843682 0
M  V30 477 C 44.4809 0.378213 1.97919 0
M  V30 478 O 43.5369 -0.194689 2.51748 0
M  V30 479 C 44.8499 2.75901 1.1958 0
M  V30 480 C 46.3979 2.84509 1.30474 0
M  V30 481 C 46.8729 4.25671 1.69021 0
M  V30 482 N 48.3639 4.28422 1.76094 0
M  V30 483 C 49.0989 5.34601 2.07338 0
M  V30 484 N 48.5949 6.5104 2.36894 0
M  V30 485 N 50.3879 5.22007 2.08483 0
M  V30 486 H 42.5389 2.11092 -0.235328 0
M  V30 487 H 44.8019 0.947039 -0.0426669 0
M  V30 488 H 44.5079 3.49001 0.434913 0
M  V30 489 H 44.3819 3.10467 2.1422 0
M  V30 490 H 46.7689 2.11655 2.05637 0
M  V30 491 H 46.8499 2.53542 0.339155 0
M  V30 492 H 46.4939 4.99048 0.944135 0
M  V30 493 H 46.4239 4.54094 2.66658 0
M  V30 494 H 48.9149 3.44441 1.55464 0
M  V30 495 H 49.2279 7.2779 2.59887 0
M  V30 496 H 47.5729 6.54287 2.34378 0
M  V30 497 H 50.7639 4.30051 1.84861 0
M  V30 498 H 50.9369 6.04854 2.325 0
M  V30 499 N 44.343 -0.763751 1.37857 0
M  V30 500 C 45.571 -1.55293 1.36718 0
M  V30 501 C 45.986 -1.88745 -0.0455434 0
M  V30 502 O 45.343 -1.52039 -1.00947 0
M  V30 503 C 45.394 -2.85831 2.2132 0
M  V30 504 O 45.115 -2.5381 3.57089 0
M  V30 505 C 46.616 -3.80023 2.28249 0
M  V30 506 H 43.836 -0.480841 0.468009 0
M  V30 507 H 46.38 -0.946009 1.81303 0
M  V30 508 H 44.535 -3.42926 1.80223 0
M  V30 509 H 44.949 -3.37459 4.01524 0
M  V30 510 H 46.423 -4.68599 2.91752 0
M  V30 511 H 46.9 -4.1973 1.2932 0
M  V30 512 H 47.506 -3.28855 2.69693 0
M  V30 513 N 45.8211 -1.22559 -0.990812 0
M  V30 514 C 46.7311 -1.01394 -2.11557 0
M  V30 515 C 47.7471 0.0383962 -1.73958 0
M  V30 516 O 48.9231 -0.154787 -2.00804 0
M  V30 517 C 45.9881 -0.596569 -3.41529 0
M  V30 518 C 45.0491 -1.72276 -3.93217 0
M  V30 519 C 44.2821 -1.32521 -5.16985 0
M  V30 520 O 44.5051 -0.204909 -5.70032 0
M  V30 521 O 43.4391 -2.14247 -5.62478 0
M  V30 522 H 47.2651 -1.95633 -2.32296 0
M  V30 523 H 44.8501 -1.01172 -1.0993 0
M  V30 524 H 46.7321 -0.374263 -4.19735 0
M  V30 525 H 45.4071 0.316939 -3.22145 0
M  V30 526 H 44.3141 -1.99961 -3.16174 0
M  V30 527 H 45.6471 -2.61421 -4.17037 0
M  V30 528 N 47.2992 1.18797 -1.03562 0
M  V30 529 C 48.2292 2.24472 -0.643019 0
M  V30 530 C 49.2102 1.66433 0.351283 0
M  V30 531 O 50.3952 1.92803 0.232505 0
M  V30 532 C 47.5252 3.473 4.24935e-05 0
M  V30 533 C 46.4792 4.18055 -0.917257 0
M  V30 534 C 45.8052 5.34519 -0.138941 0
M  V30 535 C 47.1052 4.72109 -2.23407 0
M  V30 536 H 48.7992 2.57566 -1.52643 0
M  V30 537 H 46.3452 1.23806 -0.735394 0
M  V30 538 H 48.2982 4.20426 0.286383 0
M  V30 539 H 47.0222 3.13424 0.918299 0
M  V30 540 H 45.6812 3.46821 -1.1879 0
M  V30 541 H 45.3292 4.96891 0.781562 0
M  V30 542 H 45.0292 5.82794 -0.750005 0
M  V30 543 H 46.5532 6.10438 0.1405 0
M  V30 544 H 47.9672 5.36955 -2.00879 0
M  V30 545 H 46.3642 5.30897 -2.79765 0
M  V30 546 H 47.4342 3.89807 -2.88407 0
M  V30 547 N 48.7773 0.814389 1.34928 0
M  V30 548 C 49.7073 0.244827 2.32213 0
M  V30 549 C 50.6883 -0.634024 1.57842 0
M  V30 550 O 51.8733 -0.562676 1.8587 0
M  V30 551 C 49.0033 -0.601106 3.42058 0
M  V30 552 C 47.9573 0.179896 4.27622 0
M  V30 553 C 47.2833 -0.788237 5.28858 0
M  V30 554 C 48.5833 1.38329 5.03649 0
M  V30 555 H 50.2773 1.05763 2.80097 0
M  V30 556 H 47.8233 0.510029 1.34665 0
M  V30 557 H 49.7763 -1.00968 4.09125 0
M  V30 558 H 48.5003 -1.44688 2.92802 0
M  V30 559 H 47.1593 0.569739 3.62146 0
M  V30 560 H 46.8073 -1.62973 4.75866 0
M  V30 561 H 46.5073 -0.269942 5.8698 0
M  V30 562 H 48.0313 -1.19485 5.98795 0
M  V30 563 H 49.4453 1.04918 5.63618 0
M  V30 564 H 47.8423 1.83662 5.71304 0
M  V30 565 H 48.9123 2.16592 4.33839 0
M  V30 566 N 50.2554 -1.46986 0.568584 0
M  V30 567 C 51.2034 -2.31858 -0.185649 0
M  V30 568 C 52.1974 -1.43624 -0.898249 0
M  V30 569 O 53.4034 -1.60327 -0.818242 0
M  V30 570 H 49.7784 -0.747866 -0.0787399 0
M  V30 571 H 51.7494 -2.93303 0.549191 0
M  V30 572 C 50.4984 -3.26513 -1.19519 0
M  V30 573 H 49.8214 -3.94377 -0.656285 0
M  V30 574 H 51.2614 -3.88707 -1.6936 0
M  V30 575 C 49.7204 -2.50847 -2.24894 0
M  V30 576 O 50.2504 -2.26119 -3.32014 0
M  V30 577 N 48.4564 -2.11656 -1.99124 0
M  V30 578 H 48.0034 -2.31966 -1.12024 0
M  V30 579 H 47.9614 -1.61347 -2.69842 0
M  V30 580 N 51.7335 -0.305618 -1.54608 0
M  V30 581 C 52.9795 0.302746 -2.00528 0
M  V30 582 C 53.3125 1.53184 -1.19367 0
M  V30 583 O 52.5875 1.92598 -0.271321 0
M  V30 584 C 52.8705 0.654756 -3.54097 0
M  V30 585 C 52.7235 -0.583793 -4.45995 0
M  V30 586 C 54.0425 1.47947 -4.14487 0
M  V30 587 H 51.1615 0.108564 -0.72896 0
M  V30 588 H 53.8035 -0.418634 -1.85331 0
M  V30 589 H 51.9535 1.26935 -3.67178 0
M  V30 590 H 53.6255 -1.22224 -4.44814 0
M  V30 591 H 51.8685 -1.21615 -4.16404 0
M  V30 592 H 52.5395 -0.293287 -5.5122 0
M  V30 593 H 55.0155 0.96013 -4.04871 0
M  V30 594 H 53.8915 1.69454 -5.22088 0
M  V30 595 H 54.1525 2.47011 -3.66658 0
M  V30 596 N 53.2116 1.57565 -0.0334293 0
M  V30 597 C 54.4516 1.93844 0.648379 0
M  V30 598 C 54.8156 0.910387 1.69044 0
M  V30 599 O 56.0166 1.15952 2.42505 0
M  V30 600 C 54.2876 3.35017 1.24492 0
M  V30 601 S 55.8466 3.93229 1.94721 0
M  V30 602 H 52.6646 0.678231 0.213364 0
M  V30 603 H 55.2666 1.95254 -0.0981253 0
M  V30 604 H 53.9706 4.07652 0.474128 0
M  V30 605 H 53.5016 3.37061 2.02864 0
M  V30 606 H 55.5166 3.77014 3.22606 0
M  V30 607 N 54.6897 -0.239769 1.55765 0
M  V30 608 C 55.6227 -1.32356 1.85895 0
M  V30 609 C 56.6007 -1.46053 0.714662 0
M  V30 610 O 57.7847 -1.62154 0.961157 0
M  V30 611 C 54.9117 -2.6962 2.04994 0
M  V30 612 C 53.9577 -2.73036 3.27648 0
M  V30 613 S 54.7907 -2.28929 4.84099 0
M  V30 614 C 55.9467 -3.68103 5.06212 0
M  V30 615 H 56.1797 -1.06601 2.77531 0
M  V30 616 H 53.7127 -0.441112 1.47965 0
M  V30 617 H 55.6707 -3.48653 2.16682 0
M  V30 618 H 54.3317 -2.92609 1.14188 0
M  V30 619 H 53.5247 -3.7386 3.38 0
M  V30 620 H 53.1267 -2.02052 3.14723 0
M  V30 621 H 55.4187 -4.63656 4.93993 0
M  V30 622 H 56.3617 -3.6268 6.08168 0
M  V30 623 H 56.7697 -3.60947 4.34025 0
M  V30 624 N 56.1678 -1.49265 -0.50573 0
M  V30 625 C 57.1158 -1.66065 -1.62866 0
M  V30 626 C 58.1098 -0.526636 -1.61006 0
M  V30 627 O 59.3158 -0.706126 -1.65571 0
M  V30 628 H 55.6908 -0.52356 -0.539805 0
M  V30 629 H 57.6618 -2.60329 -1.45848 0
M  V30 630 C 56.4108 -1.74008 -3.01026 0
M  V30 631 H 55.7338 -2.6064 -3.03161 0
M  V30 632 H 57.1738 -1.89798 -3.79147 0
M  V30 633 C 55.6328 -0.483868 -3.33407 0
M  V30 634 O 56.1628 0.392548 -3.99777 0
M  V30 635 N 54.3688 -0.348236 -2.88506 0
M  V30 636 H 53.9158 -1.06242 -2.34671 0
M  V30 637 H 53.8738 0.491204 -3.10539 0
M  V30 638 N 57.6459 0.756429 -1.3826 0
M  V30 639 C 58.6089 1.85176 -1.35065 0
M  V30 640 C 59.6089 1.58818 -0.251703 0
M  V30 641 O 60.7989 1.66615 -0.508433 0
M  V30 642 C 57.9309 3.22596 -1.10201 0
M  V30 643 H 59.1239 1.89417 -2.3251 0
M  V30 644 H 56.6769 0.95783 -1.23512 0
M  V30 645 H 57.4119 3.24025 -0.133504 0
M  V30 646 H 57.1969 3.43122 -1.89762 0
M  V30 647 H 58.6869 4.02673 -1.10654 0
M  V30 648 N 59.124 1.23083 0.984299 0
M  V30 649 C 60.071 1.00854 2.07598 0
M  V30 650 C 61.041 -0.0726709 1.65941 0
M  V30 651 O 62.226 0.0786535 1.90638 0
M  V30 652 C 59.366 0.601645 3.39815 0
M  V30 653 C 58.479 1.75456 3.94765 0
M  V30 654 C 57.614 1.29482 5.15177 0
M  V30 655 C 56.653 2.41873 5.62284 0
M  V30 656 N 55.79 1.96885 6.73929 0
M  V30 657 H 60.63 1.943 2.25946 0
M  V30 658 H 58.167 0.968001 1.10762 0
M  V30 659 H 60.125 0.346854 4.15756 0
M  V30 660 H 58.755 -0.295803 3.21442 0
M  V30 661 H 57.807 2.12346 3.15616 0
M  V30 662 H 59.119 2.59965 4.25699 0
M  V30 663 H 58.273 0.997923 5.98437 0
M  V30 664 H 57.012 0.420046 4.85888 0
M  V30 665 H 56.017 2.72342 4.77608 0
M  V30 666 H 57.242 3.29881 5.93595 0
M  V30 667 H 55.188 1.11782 6.46406 0
M  V30 668 H 55.105 2.74956 7.04227 0
M  V30 669 H 56.373 1.70289 7.60672 0
M  V30 670 N 60.6021 -1.18246 1.0419 0
M  V30 671 C 61.5521 -2.19843 0.604392 0
M  V30 672 C 62.5361 -1.56962 -0.353814 0
M  V30 673 O 63.7281 -1.76156 -0.17267 0
M  V30 674 C 60.8571 -3.43287 -0.0298975 0
M  V30 675 C 59.9431 -4.13288 0.951531 0
M  V30 676 N 60.3341 -4.59271 2.11906 0
M  V30 677 C 58.6321 -4.39165 0.7778 0
M  V30 678 C 59.3331 -5.13173 2.73912 0
M  V30 679 N 58.3091 -5.04763 2.01779 0
M  V30 680 H 62.1111 -2.53089 1.4941 0
M  V30 681 H 59.6251 -1.34465 0.910658 0
M  V30 682 H 61.6221 -4.15334 -0.361037 0
M  V30 683 H 60.2821 -3.11537 -0.915127 0
M  V30 684 H 61.2931 -4.5368 2.49789 0
M  V30 685 H 57.9701 -4.17461 -0.0572331 0
M  V30 686 H 59.3601 -5.58947 3.72864 0
M  V30 687 N 62.0802 -0.821533 -1.34494 0
M  V30 688 C 63.0302 -0.214793 -2.26986 0
M  V30 689 C 64.0142 0.620125 -1.4847 0
M  V30 690 O 65.2062 0.474933 -1.70509 0
M  V30 691 C 62.3352 0.623566 -3.37589 0
M  V30 692 C 61.4212 -0.221904 -4.23519 0
M  V30 693 N 61.8122 -1.29223 -4.89014 0
M  V30 694 C 60.1102 -0.00600922 -4.46 0
M  V30 695 C 60.8112 -1.80965 -5.52835 0
M  V30 696 N 59.7872 -1.11376 -5.32068 0
M  V30 697 H 63.5892 -1.03354 -2.75128 0
M  V30 698 H 61.1032 -0.6642 -1.48196 0
M  V30 699 H 63.1002 1.0744 -4.02818 0
M  V30 700 H 61.7602 1.44049 -2.90998 0
M  V30 701 H 62.7712 -1.67502 -4.90065 0
M  V30 702 H 59.4482 0.77886 -4.10171 0
M  V30 703 H 60.8382 -2.70502 -6.15043 0
M  V30 704 N 63.5583 1.46682 -0.576371 0
M  V30 705 C 64.5053 2.30241 0.160499 0
M  V30 706 C 65.4753 1.40233 0.890162 0
M  V30 707 O 66.6603 1.69186 0.882084 0
M  V30 708 C 63.8003 3.24578 1.1723 0
M  V30 709 C 62.9133 4.29684 0.446736 0
M  V30 710 C 62.0483 5.11154 1.44551 0
M  V30 711 C 61.0873 6.08015 0.70599 0
M  V30 712 N 60.2243 6.82376 1.65251 0
M  V30 713 H 65.0643 2.92727 -0.558127 0
M  V30 714 H 62.6013 1.44272 -0.287056 0
M  V30 715 H 64.5593 3.77711 1.77172 0
M  V30 716 H 63.1893 2.63916 1.85872 0
M  V30 717 H 62.2413 3.79458 -0.267594 0
M  V30 718 H 63.5533 4.98626 -0.131686 0
M  V30 719 H 62.7073 5.68533 2.11791 0
M  V30 720 H 61.4463 4.42158 2.05786 0
M  V30 721 H 60.4513 5.49796 0.0197725 0
M  V30 722 H 61.6763 6.79028 0.09912 0
M  V30 723 H 59.6223 6.16094 2.25308 0
M  V30 724 H 59.5393 7.47556 1.12673 0
M  V30 725 H 60.8073 7.44316 2.31546 0
M  V30 726 N 65.0364 0.313813 1.54444 0
M  V30 727 C 65.9464 -0.565714 2.27677 0
M  V30 728 C 66.9624 -1.13754 1.31666 0
M  V30 729 O 68.1384 -1.15959 1.64668 0
M  V30 730 C 65.2034 -1.71528 3.01296 0
M  V30 731 C 64.2644 -1.17624 4.12872 0
M  V30 732 C 63.4974 -2.27102 4.8297 0
M  V30 733 O 63.7204 -3.47256 4.52514 0
M  V30 734 O 62.6544 -1.9307 5.70094 0
M  V30 735 H 66.4804 0.0287296 3.03686 0
M  V30 736 H 64.0654 0.0798312 1.49187 0
M  V30 737 H 65.9474 -2.38476 3.4743 0
M  V30 738 H 64.6224 -2.29608 2.2817 0
M  V30 739 H 63.5294 -0.472124 3.71109 0
M  V30 740 H 64.8624 -0.640695 4.88012 0
M  V30 741 N 66.5145 -1.57545 0.0417849 0
M  V30 742 C 67.4615 -2.10977 -0.935805 0
M  V30 743 C 68.4315 -1.01486 -1.31491 0
M  V30 744 O 69.6165 -1.2898 -1.40602 0
M  V30 745 C 66.7565 -2.65169 -2.2086 0
M  V30 746 C 65.8695 -3.88714 -1.88482 0
M  V30 747 C 65.0045 -4.31254 -3.1015 0
M  V30 748 C 64.0435 -5.47524 -2.7365 0
M  V30 749 N 63.1805 -5.85162 -3.87982 0
M  V30 750 H 68.0205 -2.94218 -0.473249 0
M  V30 751 H 65.5575 -1.45415 -0.221981 0
M  V30 752 H 67.5155 -2.94685 -2.95325 0
M  V30 753 H 66.1455 -1.8474 -2.64709 0
M  V30 754 H 65.1975 -3.65849 -1.04205 0
M  V30 755 H 66.5095 -4.73245 -1.57608 0
M  V30 756 H 65.6635 -4.62273 -3.92923 0
M  V30 757 H 64.4025 -3.45516 -3.44195 0
M  V30 758 H 63.4075 -5.16187 -1.89291 0
M  V30 759 H 64.6325 -6.34971 -2.40807 0
M  V30 760 H 62.5785 -5.02377 -4.21846 0
M  V30 761 H 62.4955 -6.64362 -3.60775 0
M  V30 762 H 63.7635 -6.20791 -4.71422 0
M  V30 763 N 67.9926 0.231505 -1.5589 0
M  V30 764 C 69.4036 0.799327 -1.68724 0
M  V30 765 C 69.7546 1.85398 -0.642022 0
M  V30 766 O 68.8796 2.1539 0.208784 0
M  V30 767 C 69.4746 1.45664 -3.05888 0
M  V30 768 C 68.0336 1.97197 -3.20609 0
M  V30 769 C 67.1806 0.828552 -2.64632 0
M  V30 770 H 70.1316 0.00702616 -1.58698 0
M  V30 771 H 70.1526 2.32517 -3.01191 0
M  V30 772 H 69.6646 0.688808 -3.81939 0
M  V30 773 H 67.7656 2.76813 -2.4941 0
M  V30 774 H 67.8786 2.15878 -4.27707 0
M  V30 775 H 66.2426 1.23321 -2.22854 0
M  V30 776 H 67.0256 0.0735544 -3.43221 0
M  V30 777 N 69.4707 1.49531 0.497807 0
M  V30 778 C 70.7187 1.58865 1.24926 0
M  V30 779 C 71.0397 0.278721 1.92998 0
M  V30 780 O 70.3097 -0.702144 1.82885 0
M  V30 781 H 68.8897 0.585343 0.464094 0
M  V30 782 H 71.5517 1.86174 0.57666 0
M  V30 783 H 70.6477 2.38633 2.01149 0
M  V30 784 N 70.9488 -0.749086 1.3866 0
M  V30 785 C 72.3598 -1.32664 1.31366 0
M  V30 786 C 72.7108 -1.96179 -0.028484 0
M  V30 787 O 71.8358 -1.9537 -0.93057 0
M  V30 788 C 72.4308 -2.41219 2.37905 0
M  V30 789 C 70.9898 -2.94684 2.34176 0
M  V30 790 C 70.1368 -1.68108 2.20533 0
M  V30 791 H 73.0878 -0.547628 1.48952 0
M  V30 792 H 73.1088 -3.21268 2.0388 0
M  V30 793 H 72.6208 -1.94962 3.35576 0
M  V30 794 H 70.7218 -3.45258 1.401 0
M  V30 795 H 70.8348 -3.48757 3.2849 0
M  V30 796 H 69.1988 -1.91907 1.67463 0
M  V30 797 H 69.9818 -1.23923 3.20153 0
M  V30 798 N 72.4269 -1.23603 -0.977757 0
M  V30 799 C 73.3369 -1.03632 -2.1047 0
M  V30 800 C 74.3529 0.0199435 -1.73989 0
M  V30 801 O 75.5289 -0.176076 -2.00629 0
M  V30 802 C 72.5939 -0.63276 -3.40877 0
M  V30 803 C 71.6549 -1.76437 -3.91367 0
M  V30 804 C 70.8879 -1.37997 -5.15551 0
M  V30 805 O 71.1109 -0.265357 -5.69782 0
M  V30 806 O 70.0449 -2.20201 -5.60174 0
M  V30 807 H 73.8709 -1.98086 -2.30208 0
M  V30 808 H 71.4559 -1.02332 -1.08851 0
M  V30 809 H 73.3379 -0.418761 -4.19314 0
M  V30 810 H 72.0129 0.282754 -3.22463 0
M  V30 811 H 70.9199 -2.03304 -3.14036 0
M  V30 812 H 72.2529 -2.6583 -4.14241 0
M  V30 813 N 73.905 1.17692 -1.04816 0
M  V30 814 C 75.182 1.83768 -0.669963 0
M  V30 815 C 75.562 1.93232 0.849986 0
M  V30 816 O 74.91 1.46397 1.75443 0
M  V30 817 C 75.12 3.21641 -1.35455 0
M  V30 818 C 76.468 3.97592 -1.49017 0
M  V30 819 O 77.492 3.31107 -1.31326 0
M  V30 820 O 76.351 5.16729 -1.77914 0
M  V30 821 H 73.445 0.792799 -0.235368 0
M  V30 822 H 75.991 1.25021 -1.14751 0
M  V30 823 H 74.763 3.097 -2.39168 0
M  V30 824 H 74.386 3.88052 -0.866107 0
M  V30 825 N 75.3831 0.828654 1.34056 0
M  V30 826 C 76.3301 0.252567 2.29414 0
M  V30 827 C 77.3001 -0.62588 1.53857 0
M  V30 828 O 78.4851 -0.566312 1.82202 0
M  V30 829 C 75.6251 -0.574831 3.40279 0
M  V30 830 C 74.7381 0.326499 4.30764 0
M  V30 831 C 73.8731 -0.511016 5.28736 0
M  V30 832 C 72.9121 0.389342 6.1086 0
M  V30 833 N 72.0491 -0.409439 7.00905 0
M  V30 834 H 76.8891 1.07108 2.78086 0
M  V30 835 H 74.4261 0.539677 1.36843 0
M  V30 836 H 76.3841 -1.06992 4.03248 0
M  V30 837 H 75.0141 -1.35841 2.92826 0
M  V30 838 H 74.0661 0.939837 3.68607 0
M  V30 839 H 75.3781 1.01857 4.88289 0
M  V30 840 H 74.5321 -1.07035 5.97184 0
M  V30 841 H 73.2711 -1.23657 4.71763 0
M  V30 842 H 72.2761 0.960769 5.4134 0
M  V30 843 H 73.5011 1.1131 6.69916 0
M  V30 844 H 71.4471 -1.11856 6.46393 0
M  V30 845 H 71.3641 0.224126 7.55668 0
M  V30 846 H 72.6321 -0.951336 7.73673 0
M  V30 847 N 76.8612 -1.46375 0.584142 0
M  V30 848 C 77.7912 -2.33103 -0.136037 0
M  V30 849 C 78.7722 -1.45431 -0.882255 0
M  V30 850 O 79.9572 -1.74246 -0.857434 0
M  V30 851 C 77.0872 -3.27731 -1.14933 0
M  V30 852 C 76.0412 -4.24855 -0.517862 0
M  V30 853 C 75.3672 -5.09001 -1.63773 0
M  V30 854 C 76.6672 -5.19439 0.545886 0
M  V30 855 H 78.3612 -2.93568 0.588086 0
M  V30 856 H 75.9072 -1.41166 0.284259 0
M  V30 857 H 77.8602 -3.87261 -1.66153 0
M  V30 858 H 76.5842 -2.65377 -1.90375 0
M  V30 859 H 75.2432 -3.6659 -0.0267361 0
M  V30 860 H 74.8912 -4.43031 -2.38185 0
M  V30 861 H 74.5912 -5.74777 -1.22085 0
M  V30 862 H 76.1152 -5.71396 -2.15266 0
M  V30 863 H 77.5292 -5.73177 0.118704 0
M  V30 864 H 75.9262 -5.93566 0.88317 0
M  V30 865 H 76.9962 -4.63285 1.43162 0
M  V30 866 N 78.3393 -0.321999 -1.54275 0
M  V30 867 C 79.2893 0.560185 -2.21011 0
M  V30 868 C 80.2733 1.08283 -1.19011 0
M  V30 869 O 81.4653 1.02011 -1.44647 0
M  V30 870 C 78.5943 1.72137 -2.97025 0
M  V30 871 C 77.6803 1.21369 -4.06363 0
M  V30 872 N 78.0713 0.425566 -5.04007 0
M  V30 873 C 76.3693 1.49255 -4.20284 0
M  V30 874 C 77.0703 0.152601 -5.815 0
M  V30 875 N 76.0463 0.738294 -5.38563 0
M  V30 876 H 79.8483 -0.049265 -2.93859 0
M  V30 877 H 77.3623 -0.127779 -1.61897 0
M  V30 878 H 79.3593 2.36512 -3.43319 0
M  V30 879 H 78.0193 2.33431 -2.25699 0
M  V30 880 H 79.0303 0.068551 -5.17855 0
M  V30 881 H 75.7073 2.11145 -3.60172 0
M  V30 882 H 77.0973 -0.481764 -6.70171 0
M  V30 883 N 79.8174 1.5752 -0.0501392 0
M  V30 884 C 80.7274 2.14952 0.939827 0
M  V30 885 C 81.7434 1.10706 1.34239 0
M  V30 886 O 82.9194 1.42869 1.41952 0
M  V30 887 C 79.9844 2.68232 2.19665 0
M  V30 888 C 79.0454 3.87272 1.85253 0
M  V30 889 C 78.2784 4.38002 3.04943 0
M  V30 890 O 78.5014 3.87811 4.18281 0
M  V30 891 O 77.4354 5.29602 2.86017 0
M  V30 892 H 81.2614 2.9986 0.481392 0
M  V30 893 H 78.8464 1.4841 0.171699 0
M  V30 894 H 80.7284 3.02475 2.93406 0
M  V30 895 H 79.4034 1.86395 2.64648 0
M  V30 896 H 78.3104 3.5792 1.0883 0
M  V30 897 H 79.6434 4.70336 1.4507 0
M  V30 898 N 81.2955 -0.223234 1.56011 0
M  V30 899 C 82.2275 -1.30006 1.88762 0
M  V30 900 C 83.2405 -1.43129 0.775746 0
M  V30 901 O 84.4295 -1.44057 1.05403 0
M  V30 902 C 81.5295 -2.67589 2.07965 0
M  V30 903 C 80.7025 -2.76434 3.38973 0
M  V30 904 C 79.7615 -3.95019 3.47629 0
M  V30 905 O 78.7875 -3.83436 4.20672 0
M  V30 906 N 79.9895 -5.09249 2.78649 0
M  V30 907 H 82.7545 -1.02238 2.81722 0
M  V30 908 H 80.3155 -0.413278 1.56536 0
M  V30 909 H 82.3075 -3.45297 2.11073 0
M  V30 910 H 80.8775 -2.87964 1.21638 0
M  V30 911 H 80.0975 -1.85216 3.47978 0
M  V30 912 H 81.3855 -2.79313 4.25278 0
M  V30 913 H 80.7835 -5.21556 2.19081 0
M  V30 914 H 79.3405 -5.85007 2.8742 0
M  V30 915 N 82.7736 -1.49793 -0.48987 0
M  V30 916 C 84.0136 -1.61466 -1.25332 0
M  V30 917 C 84.3776 -0.299688 -1.89647 0
M  V30 918 O 85.5786 -0.291687 -2.67213 0
M  V30 919 C 83.8496 -2.74944 -2.28343 0
M  V30 920 S 85.4086 -3.06637 -3.13878 0
M  V30 921 H 82.2266 -0.569411 -0.425784 0
M  V30 922 H 84.8286 -1.875 -0.553541 0
M  V30 923 H 83.5326 -3.68994 -1.79643 0
M  V30 924 H 83.0636 -2.50938 -3.02975 0
M  V30 925 H 85.0786 -2.49015 -4.29192 0
M  V30 926 N 84.2517 0.741722 -1.39055 0
M  V30 927 C 85.6677 1.04638 -1.20512 0
M  V30 928 C 85.8677 2.01405 -0.0620218 0
M  V30 929 O 84.9237 2.45547 0.588457 0
M  V30 930 C 86.2367 1.6151 -2.53643 0
M  V30 931 C 87.7847 1.73623 -2.6043 0
M  V30 932 C 88.2597 2.33906 -3.93767 0
M  V30 933 N 89.7507 2.41323 -3.9537 0
M  V30 934 C 90.4857 2.88888 -4.95309 0
M  V30 935 N 89.9817 3.36401 -6.05645 0
M  V30 936 N 91.7747 2.88037 -4.82692 0
M  V30 937 H 83.9257 0.0998155 -2.12165 0
M  V30 938 H 86.1887 0.106907 -0.941953 0
M  V30 939 H 85.8947 0.978739 -3.37807 0
M  V30 940 H 85.7687 2.60411 -2.72885 0
M  V30 941 H 88.1557 2.36384 -1.76655 0
M  V30 942 H 88.2367 0.733945 -2.45045 0
M  V30 943 H 87.8807 1.71776 -4.7797 0
M  V30 944 H 87.8107 3.34799 -4.06469 0
M  V30 945 H 90.3017 2.07734 -3.15682 0
M  V30 946 H 90.6147 3.71186 -6.77821 0
M  V30 947 H 88.9597 3.34427 -6.09248 0
M  V30 948 H 92.1507 2.50237 -3.95599 0
M  V30 949 H 92.3237 3.24792 -5.60726 0
M  V30 950 N 85.7298 1.2412 0.971189 0
M  V30 951 C 87.1408 1.07236 1.52831 0
M  V30 952 C 87.4918 -0.357352 1.92918 0
M  V30 953 O 86.6168 -1.24528 1.76979 0
M  V30 954 C 87.2118 1.94043 2.77728 0
M  V30 955 C 85.7708 1.81394 3.29808 0
M  V30 956 C 84.9178 1.89189 2.02738 0
M  V30 957 H 87.8688 1.37648 0.789864 0
M  V30 958 H 87.8898 1.47066 3.5093 0
M  V30 959 H 87.4018 2.98093 2.4852 0
M  V30 960 H 85.5028 0.801634 3.63874 0
M  V30 961 H 85.6158 2.65294 3.98944 0
M  V30 962 H 83.9798 1.32877 2.17292 0
M  V30 963 H 84.7628 2.94812 1.759 0
M  V30 964 N 87.2079 -1.17134 1.05439 0
M  V30 965 C 88.4539 -1.87979 0.776872 0
M  V30 966 C 88.8089 -1.7965 -0.688751 0
M  V30 967 O 88.1019 -1.19535 -1.4974 0
M  V30 968 C 88.2959 -3.36833 1.19491 0
M  V30 969 C 88.1249 -3.59653 2.69963 0
M  V30 970 C 86.8949 -3.76234 3.37307 0
M  V30 971 C 89.0929 -3.59091 3.68182 0
M  V30 972 N 87.0749 -3.86922 4.76618 0
M  V30 973 C 88.4459 -3.75659 4.93235 0
M  V30 974 C 90.5009 -3.42255 3.61616 0
M  V30 975 C 89.2039 -3.77133 6.12506 0
M  V30 976 C 91.2299 -3.45018 4.8033 0
M  V30 977 C 90.5919 -3.62096 6.04207 0
M  V30 978 H 86.6909 -0.705876 0.336546 0
M  V30 979 H 89.2749 -1.40602 1.34682 0
M  V30 980 H 87.4459 -3.82873 0.652884 0
M  V30 981 H 89.1779 -3.95305 0.866966 0
M  V30 982 H 85.9329 -3.76193 2.87708 0
M  V30 983 H 86.3569 -3.96055 5.49062 0
M  V30 984 H 90.9989 -3.27986 2.66805 0
M  V30 985 H 88.7169 -3.90186 7.07659 0
M  V30 986 H 92.3029 -3.33246 4.76905 0
M  V30 987 H 91.1829 -3.64142 6.94529 0
M  V30 988 N 88.686 -0.835752 -1.33615 0
M  V30 989 C 90.102 -0.523139 -1.50783 0
M  V30 990 C 90.302 0.950171 -1.77691 0
M  V30 991 O 89.358 1.73411 -1.83534 0
M  V30 992 C 90.671 -1.39378 -2.66448 0
M  V30 993 C 92.219 -1.39223 -2.80332 0
M  V30 994 C 92.694 -2.24765 -3.99055 0
M  V30 995 N 94.185 -2.22458 -4.06284 0
M  V30 996 C 94.92 -2.85386 -4.97336 0
M  V30 997 N 94.416 -3.57354 -5.93523 0
M  V30 998 N 96.209 -2.74872 -4.90308 0
M  V30 999 H 88.36 -1.78952 -1.14411 0
M  V30 1000 H 90.623 -0.763297 -0.562212 0
M  V30 1001 H 90.329 -2.44061 -2.53234 0
M  V30 1002 H 90.203 -1.0676 -3.61776 0
M  V30 1003 H 92.59 -0.353136 -2.92979 0
M  V30 1004 H 92.671 -1.75846 -1.85773 0
M  V30 1005 H 92.315 -3.28732 -3.87167 0
M  V30 1006 H 92.245 -1.85485 -4.92852 0
M  V30 1007 H 94.736 -1.70119 -3.37443 0
M  V30 1008 H 95.049 -4.02584 -6.59656 0
M  V30 1009 H 93.394 -3.61461 -5.93608 0
M  V30 1010 H 96.585 -2.18213 -4.14126 0
M  V30 1011 H 96.758 -3.24199 -5.61069 0
M  V30 1012 N 90.1641 1.46063 -0.591896 0
M  V30 1013 C 91.1111 2.30399 0.136069 0
M  V30 1014 C 92.0811 1.41169 0.875238 0
M  V30 1015 O 93.2661 1.70112 0.86409 0
M  V30 1016 C 90.4061 3.25804 1.13781 0
M  V30 1017 C 89.5191 4.30134 0.401137 0
M  V30 1018 C 88.6541 5.12659 1.39121 0
M  V30 1019 C 87.6931 6.0873 0.641462 0
M  V30 1020 N 86.8301 6.8409 1.58004 0
M  V30 1021 H 91.6701 2.92118 -0.589144 0
M  V30 1022 H 89.2071 1.43959 -0.302342 0
M  V30 1023 H 91.1651 3.79569 1.73156 0
M  V30 1024 H 89.7951 2.65872 1.83062 0
M  V30 1025 H 88.8471 3.79152 -0.307826 0
M  V30 1026 H 90.1591 4.98458 -0.184565 0
M  V30 1027 H 89.3131 5.70747 2.05749 0
M  V30 1028 H 88.0521 4.44316 2.01084 0
M  V30 1029 H 87.0571 5.49786 -0.0385419 0
M  V30 1030 H 88.2821 6.79095 0.0270945 0
M  V30 1031 H 86.2281 6.18449 2.18761 0
M  V30 1032 H 86.1451 7.48709 1.04738 0
M  V30 1033 H 87.4131 7.4673 2.23639 0
M  V30 1034 N 91.6422 0.330177 1.54103 0
M  V30 1035 C 92.5902 -0.548226 2.26047 0
M  V30 1036 C 93.5842 -1.11309 1.27698 0
M  V30 1037 O 94.7902 -1.06036 1.45452 0
M  V30 1038 H 91.1652 -0.195456 0.726155 0
M  V30 1039 H 93.1362 0.0807567 2.98291 0
M  V30 1040 C 91.8852 -1.69415 3.03634 0
M  V30 1041 H 91.2082 -1.26876 3.79134 0
M  V30 1042 H 92.6482 -2.28423 3.5721 0
M  V30 1043 C 91.1072 -2.61569 2.12328 0
M  V30 1044 O 91.6372 -3.63462 1.7105 0
M  V30 1045 N 89.8432 -2.29952 1.77681 0
M  V30 1046 H 89.3902 -1.47134 2.11446 0
M  V30 1047 H 89.3482 -2.91871 1.16869 0
M  V30 1048 N 93.1203 -1.57491 0.0584922 0
M  V30 1049 C 94.0833 -2.1085 -0.898617 0
M  V30 1050 C 95.0833 -1.02964 -1.23511 0
M  V30 1051 O 96.2733 -1.29007 -1.17059 0
M  V30 1052 C 93.4053 -2.59881 -2.20623 0
M  V30 1053 H 94.5983 -2.96715 -0.435936 0
M  V30 1054 H 92.1513 -1.55141 -0.190023 0
M  V30 1055 H 92.8863 -1.77431 -2.71457 0
M  V30 1056 H 92.6713 -3.38727 -1.97501 0
M  V30 1057 H 94.1613 -3.01285 -2.89166 0
M  V30 1058 N 94.5984 0.214957 -1.56127 0
M  V30 1059 C 95.8384 0.945364 -1.81224 0
M  V30 1060 C 96.2024 1.81265 -0.633005 0
M  V30 1061 O 97.4034 2.57731 -0.763423 0
M  V30 1062 C 95.6744 1.75665 -3.1125 0
M  V30 1063 S 97.2334 2.54179 -3.57685 0
M  V30 1064 H 94.0514 0.317443 -0.6362 0
M  V30 1065 H 96.6534 0.210381 -1.94365 0
M  V30 1066 H 95.3574 1.10977 -3.9511 0
M  V30 1067 H 94.8884 2.53381 -3.00934 0
M  V30 1068 H 96.9034 3.7792 -3.21545 0
M  V30 1069 N 96.0765 1.50051 0.48192 0
M  V30 1070 C 97.3165 1.62128 1.24474 0
M  V30 1071 C 97.6805 0.309742 1.89485 0
M  V30 1072 O 98.8815 0.305854 2.67054 0
M  V30 1073 C 97.1525 2.76151 2.26882 0
M  V30 1074 S 98.7115 3.08297 3.12247 0
M  V30 1075 H 95.5295 0.571661 0.422759 0
M  V30 1076 H 98.1315 1.87791 0.54359 0
M  V30 1077 H 96.8355 3.69942 1.77683 0
M  V30 1078 H 96.3665 2.52541 3.0164 0
M  V30 1079 H 98.3815 2.51287 4.27866 0
M  V30 1080 N 97.5546 -0.734337 1.39446 0
M  V30 1081 C 98.7796 -1.52866 1.40167 0
M  V30 1082 C 99.2046 -1.881 -0.00171513 0
M  V30 1083 O 98.5626 -1.51957 -0.988879 0
M  V30 1084 C 98.6106 -2.79235 2.28167 0
M  V30 1085 O 97.7146 -3.75185 1.71201 0
M  V30 1086 H 97.0556 -0.461618 0.477289 0
M  V30 1087 H 99.5856 -0.905949 1.8345 0
M  V30 1088 H 99.5956 -3.27963 2.42702 0
M  V30 1089 H 98.2706 -2.52923 3.30156 0
M  V30 1090 H 96.8476 -3.33958 1.65912 0
M  V30 1091 N 99.0327 -1.24633 -0.964593 0
M  V30 1092 C 100.261 -1.11501 -1.74285 0
M  V30 1093 C 100.676 0.332165 -1.85855 0
M  V30 1094 O 100.033 1.22903 -1.34911 0
M  V30 1095 C 100.084 -1.75258 -3.16175 0
M  V30 1096 O 99.8047 -3.14318 -3.05182 0
M  V30 1097 C 101.306 -1.67776 -4.10324 0
M  V30 1098 H 98.5257 -0.389407 -0.546446 0
M  V30 1099 H 101.07 -1.64801 -1.21083 0
M  V30 1100 H 99.2247 -1.25954 -3.66353 0
M  V30 1101 H 99.6387 -3.4551 -3.94618 0
M  V30 1102 H 101.113 -2.17064 -5.0753 0
M  V30 1103 H 101.59 -0.639584 -4.34518 0
M  V30 1104 H 102.196 -2.16522 -3.66058 0
M  V30 1105 N 100.511 1.16574 -1.06058 0
M  V30 1106 C 101.459 2.22941 -0.663343 0
M  V30 1107 C 102.453 1.66358 0.319593 0
M  V30 1108 O 103.659 1.7905 0.184713 0
M  V30 1109 H 100.034 0.725907 -0.196376 0
M  V30 1110 H 102.005 2.53736 -1.57037 0
M  V30 1111 C 100.754 3.47642 -0.0632808 0
M  V30 1112 H 100.077 3.91493 -0.810733 0
M  V30 1113 H 101.517 4.2363 0.177177 0
M  V30 1114 C 99.9758 3.1509 1.19248 0
M  V30 1115 O 100.506 3.30673 2.28075 0
M  V30 1116 N 98.7118 2.6924 1.09353 0
M  V30 1117 H 98.2588 2.5676 0.207912 0
M  V30 1118 H 98.2168 2.47833 1.93458 0
M  V30 1119 N 101.989 0.842826 1.3317 0
M  V30 1120 C 103.217 0.454055 2.01856 0
M  V30 1121 C 103.632 -0.94587 1.63397 0
M  V30 1122 O 102.989 -1.61534 0.849302 0
M  V30 1123 C 103.04 0.569715 3.56982 0
M  V30 1124 O 102.761 1.91448 3.94055 0
M  V30 1125 C 104.262 0.178412 4.42941 0
M  V30 1126 H 101.482 0.17979 0.646465 0
M  V30 1127 H 104.026 1.1365 1.70012 0
M  V30 1128 H 102.181 -0.0648587 3.87346 0
M  V30 1129 H 102.595 1.90282 4.88767 0
M  V30 1130 H 104.069 0.310376 5.51127 0
M  V30 1131 H 104.546 -0.880056 4.30293 0
M  V30 1132 H 105.152 0.787579 4.17944 0
M  V30 1133 N 103.467 -1.45747 0.599634 0
M  V30 1134 C 104.692 -2.07178 0.0960198 0
M  V30 1135 C 105.117 -1.44268 -1.207 0
M  V30 1136 O 104.475 -0.532503 -1.73303 0
M  V30 1137 C 104.523 -3.60579 -0.0385348 0
M  V30 1138 O 103.627 -3.97713 -1.0908 0
M  V30 1139 H 102.968 -0.660251 0.0704593 0
M  V30 1140 H 105.498 -1.87124 0.827385 0
M  V30 1141 H 105.508 -4.07298 -0.239304 0
M  V30 1142 H 104.183 -4.05756 0.912947 0
M  V30 1143 H 102.76 -3.62678 -0.867135 0
M  V30 1144 N 104.945 -0.338344 -1.53925 0
M  V30 1145 C 105.877 0.555117 -2.22376 0
M  V30 1146 C 106.89 1.06812 -1.22862 0
M  V30 1147 O 108.079 0.979163 -1.49247 0
M  V30 1148 C 105.179 1.77609 -2.88631 0
M  V30 1149 C 104.352 1.39927 -4.14414 0
M  V30 1150 C 103.411 2.47936 -4.64127 0
M  V30 1151 O 102.437 2.11461 -5.28463 0
M  V30 1152 N 103.639 3.79107 -4.39612 0
M  V30 1153 H 106.404 -0.0310778 -2.99684 0
M  V30 1154 H 103.965 -0.162226 -1.61085 0
M  V30 1155 H 105.957 2.49287 -3.18807 0
M  V30 1156 H 104.527 2.26978 -2.14941 0
M  V30 1157 H 103.747 0.513481 -3.90841 0
M  V30 1158 H 105.035 1.12341 -4.96243 0
M  V30 1159 H 104.433 4.11531 -3.88148 0
M  V30 1160 H 102.99 4.4697 -4.74406 0
M  V30 1161 N 106.423 1.57458 -0.0668435 0
M  V30 1162 C 107.333 2.15937 0.916975 0
M  V30 1163 C 108.349 1.12123 1.33058 0
M  V30 1164 O 109.525 1.44366 1.40429 0
M  V30 1165 C 106.59 2.70547 2.16807 0
M  V30 1166 C 105.651 3.89215 1.81135 0
M  V30 1167 C 104.884 4.41211 3.0028 0
M  V30 1168 O 105.107 3.92225 4.14144 0
M  V30 1169 O 104.041 5.32605 2.80384 0
M  V30 1170 H 107.867 3.00354 0.449561 0
M  V30 1171 H 105.452 1.48584 0.155949 0
M  V30 1172 H 107.334 3.0557 2.90181 0
M  V30 1173 H 106.009 1.89192 2.62656 0
M  V30 1174 H 104.916 3.59054 1.05028 0
M  V30 1175 H 106.249 4.71848 1.40073 0
M  V30 1176 N 107.901 -0.206675 1.56239 0
M  V30 1177 C 108.864 -1.23976 1.92776 0
M  V30 1178 C 109.864 -1.39041 0.807729 0
M  V30 1179 O 111.054 -1.37051 1.0753 0
M  V30 1180 C 108.186 -2.61112 2.19165 0
M  V30 1181 H 109.379 -0.927764 2.85189 0
M  V30 1182 H 106.932 -0.447718 1.4975 0
M  V30 1183 H 107.667 -2.97386 1.29352 0
M  V30 1184 H 107.452 -2.51552 3.00772 0
M  V30 1185 H 108.942 -3.35633 2.48476 0
M  V30 1186 N 109.379 -1.50304 -0.473955 0
M  V30 1187 C 110.329 -1.65347 -1.56985 0
M  V30 1188 C 111.313 -0.508176 -1.52664 0
M  V30 1189 O 112.505 -0.762446 -1.59737 0
M  V30 1190 C 109.634 -1.74832 -2.95447 0
M  V30 1191 C 108.72 -2.95028 -3.04662 0
M  V30 1192 N 109.111 -4.18747 -2.83698 0
M  V30 1193 C 107.409 -2.93527 -3.35795 0
M  V30 1194 C 108.11 -4.99687 -2.97805 0
M  V30 1195 N 107.086 -4.33585 -3.2788 0
M  V30 1196 H 110.888 -2.58698 -1.39472 0
M  V30 1197 H 108.402 -1.47449 -0.680629 0
M  V30 1198 H 110.399 -1.83712 -3.7424 0
M  V30 1199 H 109.059 -0.826376 -3.14008 0
M  V30 1200 H 110.07 -4.48291 -2.59337 0
M  V30 1201 H 106.747 -2.10821 -3.60362 0
M  V30 1202 H 108.137 -6.08057 -2.85861 0
M  V30 1203 N 110.857 0.726932 -1.39834 0
M  V30 1204 C 111.804 1.841 -1.39197 0
M  V30 1205 C 112.774 1.642 -0.250502 0
M  V30 1206 O 113.959 1.85494 -0.446846 0
M  V30 1207 C 111.099 3.21697 -1.24919 0
M  V30 1208 C 110.212 3.53247 -2.48678 0
M  V30 1209 C 109.347 4.80289 -2.26928 0
M  V30 1210 C 108.386 5.04707 -3.4632 0
M  V30 1211 N 107.523 6.22956 -3.23836 0
M  V30 1212 H 112.363 1.83979 -2.34427 0
M  V30 1213 H 109.9 0.898876 -1.16442 0
M  V30 1214 H 111.858 4.01137 -1.1465 0
M  V30 1215 H 110.488 3.21076 -0.333153 0
M  V30 1216 H 109.54 2.68447 -2.69519 0
M  V30 1217 H 110.852 3.67205 -3.37582 0
M  V30 1218 H 110.006 5.67725 -2.13947 0
M  V30 1219 H 108.745 4.68519 -1.35431 0
M  V30 1220 H 107.75 4.1573 -3.5979 0
M  V30 1221 H 108.975 5.18357 -4.38729 0
M  V30 1222 H 106.921 6.12459 -2.35011 0
M  V30 1223 H 106.838 6.37539 -4.063 0
M  V30 1224 H 108.106 7.1321 -3.14566 0
M  V30 1225 N 112.336 1.25143 0.95797 0
M  V30 1226 C 113.613 1.00472 1.67823 0
M  V30 1227 C 113.993 -0.470056 2.058 0
M  V30 1228 O 113.341 -1.44663 1.76875 0
M  V30 1229 C 113.551 1.9372 2.90299 0
M  V30 1230 C 114.899 2.21371 3.62326 0
M  V30 1231 O 115.923 1.91451 3.00375 0
M  V30 1232 O 114.782 2.72231 4.7387 0
M  V30 1233 H 111.876 0.380752 0.734137 0
M  V30 1234 H 114.422 1.36283 1.01119 0
M  V30 1235 H 113.194 2.93316 2.59001 0
M  V30 1236 H 112.817 1.58286 3.64735 0
M  V30 1237 N 113.814 -1.1601 1.06675 0
M  V30 1238 C 115.06 -1.86909 0.786945 0
M  V30 1239 C 115.393 -1.81717 -0.685018 0
M  V30 1240 O 114.668 -1.23551 -1.50218 0
M  V30 1241 C 114.951 -3.36313 1.28707 0
M  V30 1242 C 114.804 -3.50175 2.82308 0
M  V30 1243 C 116.123 -4.3084 0.898071 0
M  V30 1244 H 113.242 -0.678677 0.287343 0
M  V30 1245 H 115.884 -1.36336 1.32334 0
M  V30 1246 H 114.034 -3.79513 0.830768 0
M  V30 1247 H 115.706 -3.15886 3.36175 0
M  V30 1248 H 113.949 -2.91959 3.20847 0
M  V30 1249 H 114.62 -4.55116 3.12368 0
M  V30 1250 H 117.096 -3.95561 1.29114 0
M  V30 1251 H 115.972 -5.33876 1.27543 0
M  V30 1252 H 116.233 -4.41662 -0.196651 0
M  V30 1253 N 115.292 -0.849877 -1.32721 0
M  V30 1254 C 116.517 -0.463856 -2.02146 0
M  V30 1255 C 116.942 0.930449 -1.63476 0
M  V30 1256 O 116.3 1.61033 -0.832952 0
M  V30 1257 C 116.348 -0.604955 -3.55489 0
M  V30 1258 O 115.452 0.36425 -4.10788 0
M  V30 1259 H 114.793 -0.187046 -0.637111 0
M  V30 1260 H 117.323 -1.14775 -1.69375 0
M  V30 1261 H 117.333 -0.490696 -4.05038 0
M  V30 1262 H 116.008 -1.62174 -3.82978 0
M  V30 1263 H 114.585 0.206628 -3.72327 0
M  V30 1264 N 116.77 1.45427 -0.607355 0
M  V30 1265 C 118 2.06314 -0.108656 0
M  V30 1266 C 118.408 1.45269 1.21217 0
M  V30 1267 O 117.751 0.561115 1.74921 0
M  V30 1268 C 117.813 3.59345 0.105618 0
M  V30 1269 C 117.477 4.42723 -1.13337 0
M  V30 1270 C 118.474 4.77715 -2.05145 0
M  V30 1271 C 116.159 4.83478 -1.36213 0
M  V30 1272 C 118.153 5.52317 -3.18158 0
M  V30 1273 C 115.84 5.57835 -2.49527 0
M  V30 1274 C 116.838 5.92171 -3.40327 0
M  V30 1275 O 116.526 6.65019 -4.51669 0
M  V30 1276 H 116.258 0.672782 -0.0658842 0
M  V30 1277 H 118.812 1.87664 -0.834945 0
M  V30 1278 H 117.042 3.76394 0.886796 0
M  V30 1279 H 118.731 4.02076 0.555886 0
M  V30 1280 H 119.497 4.46787 -1.88697 0
M  V30 1281 H 115.376 4.56188 -0.664362 0
M  V30 1282 H 118.92 5.79036 -3.89054 0
M  V30 1283 H 114.817 5.88177 -2.65928 0
M  V30 1284 H 115.585 6.83469 -4.50348 0
M  V30 1285 N 118.248 0.346503 1.53744 0
M  V30 1286 C 119.178 -0.501193 2.28058 0
M  V30 1287 C 120.159 -1.10014 1.29734 0
M  V30 1288 O 121.344 -1.12097 1.58581 0
M  V30 1289 C 118.474 -1.65078 3.05559 0
M  V30 1290 C 117.428 -1.18003 4.11411 0
M  V30 1291 C 116.754 -2.41837 4.76884 0
M  V30 1292 C 118.054 -0.278394 5.21558 0
M  V30 1293 H 119.748 0.11875 2.99164 0
M  V30 1294 H 117.294 0.0585531 1.43881 0
M  V30 1295 H 119.247 -2.25028 3.56287 0
M  V30 1296 H 117.971 -2.29767 2.32109 0
M  V30 1297 H 116.63 -0.603331 3.61601 0
M  V30 1298 H 116.278 -3.0494 4.00026 0
M  V30 1299 H 115.978 -2.1102 5.48402 0
M  V30 1300 H 117.502 -3.02508 5.30397 0
M  V30 1301 H 118.916 -0.784823 5.67903 0
M  V30 1302 H 117.313 -0.0619707 6.00068 0
M  V30 1303 H 118.383 0.684677 4.80042 0
M  V30 1304 N 119.726 -1.57421 0.075193 0
M  V30 1305 C 120.956 -1.97659 -0.601203 0
M  V30 1306 C 121.364 -0.952427 -1.63479 0
M  V30 1307 O 120.707 0.0688241 -1.83571 0
M  V30 1308 C 120.769 -3.34218 -1.32434 0
M  V30 1309 C 120.433 -4.5484 -0.443826 0
M  V30 1310 C 121.43 -5.19034 0.299969 0
M  V30 1311 C 119.115 -5.00952 -0.367709 0
M  V30 1312 C 121.109 -6.27695 1.10807 0
M  V30 1313 C 118.796 -6.09484 0.444058 0
M  V30 1314 C 119.794 -6.72719 1.18061 0
M  V30 1315 O 119.482 -7.79161 1.97898 0
M  V30 1316 H 119.214 -0.65494 -0.167422 0
M  V30 1317 H 121.768 -2.04886 0.145157 0
M  V30 1318 H 119.998 -3.23615 -2.11685 0
M  V30 1319 H 121.687 -3.59038 -1.89331 0
M  V30 1320 H 122.453 -4.84351 0.250776 0
M  V30 1321 H 118.332 -4.51509 -0.930638 0
M  V30 1322 H 121.876 -6.76982 1.68347 0
M  V30 1323 H 117.773 -6.43601 0.494803 0
M  V30 1324 H 118.541 -7.96055 1.90367 0
M  V30 1325 N 121.204 0.198386 -1.56346 0
M  V30 1326 C 122.62 0.549085 -1.49857 0
M  V30 1327 C 122.82 1.86016 -0.774611 0
M  V30 1328 O 121.876 2.50416 -0.323776 0
M  V30 1329 C 123.189 0.606868 -2.94512 0
M  V30 1330 C 124.737 0.695925 -3.05165 0
M  V30 1331 C 125.212 0.784848 -4.51225 0
M  V30 1332 N 126.703 0.848463 -4.55363 0
M  V30 1333 C 127.438 0.937378 -5.65686 0
M  V30 1334 N 126.934 0.9888 -6.85707 0
M  V30 1335 N 128.727 0.974312 -5.53592 0
M  V30 1336 H 120.878 -0.661655 -2.01831 0
M  V30 1337 H 123.141 -0.235261 -0.918344 0
M  V30 1338 H 122.847 -0.28732 -3.50524 0
M  V30 1339 H 122.721 1.46268 -3.47686 0
M  V30 1340 H 125.108 1.58055 -2.49204 0
M  V30 1341 H 125.189 -0.186022 -2.55123 0
M  V30 1342 H 124.833 -0.0954072 -5.0781 0
M  V30 1343 H 124.763 1.68255 -4.98997 0
M  V30 1344 H 127.254 0.818103 -3.68938 0
M  V30 1345 H 127.567 1.05707 -7.65536 0
M  V30 1346 H 125.912 0.957534 -6.88372 0
M  V30 1347 H 129.103 0.930954 -4.58749 0
M  V30 1348 H 129.276 1.04015 -6.39597 0
M  V30 1349 N 122.682 1.50554 0.465978 0
M  V30 1350 C 123.929 1.61798 1.21768 0
M  V30 1351 C 124.257 0.320696 1.91838 0
M  V30 1352 O 123.512 -0.693724 1.82992 0
M  V30 1353 C 123.811 2.75152 2.28093 0
M  V30 1354 C 123.477 4.15454 1.75239 0
M  V30 1355 C 122.139 4.53628 1.60546 0
M  V30 1356 C 124.491 5.03121 1.36083 0
M  V30 1357 C 121.819 5.77204 1.05128 0
M  V30 1358 C 124.171 6.27249 0.821056 0
M  V30 1359 C 122.835 6.64221 0.660795 0
M  V30 1360 H 122.105 0.592063 0.445582 0
M  V30 1361 H 124.752 1.84503 0.512927 0
M  V30 1362 H 123.057 2.46556 3.04496 0
M  V30 1363 H 124.754 2.81055 2.86023 0
M  V30 1364 H 121.344 3.85341 1.87644 0
M  V30 1365 H 125.528 4.74257 1.46267 0
M  V30 1366 H 120.784 6.0452 0.91462 0
M  V30 1367 H 124.958 6.94537 0.509018 0
M  V30 1368 H 122.585 7.59854 0.229226 0
M  V30 1369 N 124.16 -0.719506 1.40217 0
M  V30 1370 C 125.108 -1.85493 1.40339 0
M  V30 1371 C 126.102 -1.66995 0.284415 0
M  V30 1372 O 127.308 -1.74148 0.455252 0
M  V30 1373 H 123.683 -0.610857 0.438586 0
M  V30 1374 H 125.654 -1.82506 2.36081 0
M  V30 1375 C 124.403 -3.23321 1.27901 0
M  V30 1376 H 123.726 -3.38159 2.1328 0
M  V30 1377 H 125.166 -4.02914 1.32045 0
M  V30 1378 C 123.625 -3.36898 -0.0111355 0
M  V30 1379 O 124.155 -3.89674 -0.975538 0
M  V30 1380 N 122.361 -2.90492 -0.0793393 0
M  V30 1381 H 121.908 -2.47731 0.706183 0
M  V30 1382 H 121.866 -2.99955 -0.942038 0
M  V30 1383 N 125.638 -1.25649 -0.95132 0
M  V30 1384 C 126.884 -1.11766 -1.69941 0
M  V30 1385 C 127.239 0.33735 -1.89419 0
M  V30 1386 O 126.532 1.24491 -1.45645 0
M  V30 1387 C 126.726 -1.80909 -3.08231 0
M  V30 1388 C 126.555 -3.32984 -3.02245 0
M  V30 1389 C 125.325 -4.02247 -3.05819 0
M  V30 1390 C 127.523 -4.29332 -2.83157 0
M  V30 1391 N 125.505 -5.41072 -2.90024 0
M  V30 1392 C 126.876 -5.55265 -2.75828 0
M  V30 1393 C 128.931 -4.19707 -2.67863 0
M  V30 1394 C 127.634 -6.72671 -2.54767 0
M  V30 1395 C 129.66 -5.36809 -2.48173 0
M  V30 1396 C 129.022 -6.61683 -2.41567 0
M  V30 1397 H 125.121 -0.463708 -0.629682 0
M  V30 1398 H 127.705 -1.58796 -1.12659 0
M  V30 1399 H 125.876 -1.36369 -3.63673 0
M  V30 1400 H 127.608 -1.59739 -3.71841 0
M  V30 1401 H 124.363 -3.53531 -3.15139 0
M  V30 1402 H 124.787 -6.13938 -2.85323 0
M  V30 1403 H 129.429 -3.23907 -2.71743 0
M  V30 1404 H 127.147 -7.68577 -2.49629 0
M  V30 1405 H 130.733 -5.31224 -2.37259 0
M  V30 1406 H 129.613 -7.50768 -2.26531 0
M  V30 1407 N 127.117 1.15442 -1.07289 0
M  V30 1408 C 128.065 2.22225 -0.686952 0
M  V30 1409 C 129.059 1.66688 0.30193 0
M  V30 1410 O 130.265 1.79236 0.165712 0
M  V30 1411 H 126.64 0.723783 -0.204064 0
M  V30 1412 H 128.611 2.52056 -1.5972 0
M  V30 1413 C 127.36 3.47556 -0.100149 0
M  V30 1414 H 126.683 3.90612 -0.852211 0
M  V30 1415 H 128.123 4.23794 0.132235 0
M  V30 1416 C 126.582 3.16337 1.159 0
M  V30 1417 O 127.112 3.33074 2.24555 0
M  V30 1418 N 125.318 2.70385 1.06491 0
M  V30 1419 H 124.865 2.56966 0.180668 0
M  V30 1420 H 124.823 2.49871 1.90819 0
M  V30 1421 N 128.595 0.856903 1.32268 0
M  V30 1422 C 129.545 0.274899 2.26337 0
M  V30 1423 C 130.529 -0.580543 1.50062 0
M  V30 1424 O 131.721 -0.429559 1.71708 0
M  V30 1425 C 128.85 -0.533841 3.39124 0
M  V30 1426 C 127.936 0.334114 4.22782 0
M  V30 1427 N 128.327 1.42143 4.85416 0
M  V30 1428 C 126.625 0.124256 4.45827 0
M  V30 1429 C 127.326 1.95559 5.47843 0
M  V30 1430 N 126.302 1.25444 5.28928 0
M  V30 1431 H 130.104 1.10612 2.72291 0
M  V30 1432 H 127.618 0.703258 1.46383 0
M  V30 1433 H 129.615 -0.96722 4.05525 0
M  V30 1434 H 128.275 -1.36283 2.94715 0
M  V30 1435 H 129.286 1.80436 4.85451 0
M  V30 1436 H 125.963 -0.669837 4.12092 0
M  V30 1437 H 127.353 2.86714 6.07655 0
M  V30 1438 N 130.073 -1.45103 0.615059 0
M  V30 1439 C 131.313 -2.04069 0.116282 0
M  V30 1440 C 131.677 -1.4721 -1.2326 0
M  V30 1441 O 132.878 -1.97577 -1.82255 0
M  V30 1442 C 131.149 -3.57298 0.085482 0
M  V30 1443 S 132.708 -4.37394 -0.351015 0
M  V30 1444 H 129.526 -0.709006 0.0532183 0
M  V30 1445 H 132.128 -1.77709 0.81484 0
M  V30 1446 H 130.832 -3.9619 1.0706 0
M  V30 1447 H 130.363 -3.88244 -0.634835 0
M  V30 1448 H 132.378 -4.69734 -1.59889 0
M  V30 1449 N 131.551 -0.354651 -1.53558 0
M  V30 1450 C 132.799 0.237972 -2.00694 0
M  V30 1451 C 133.12 1.50173 -1.24391 0
M  V30 1452 O 132.39 1.92673 -0.354135 0
M  V30 1453 H 130.97 0.0909256 -0.741446 0
M  V30 1454 H 133.632 -0.478368 -1.88938 0
M  V30 1455 H 132.728 0.47264 -3.085 0
M  V30 1456 N 133.029 1.57378 -0.0835403 0
M  V30 1457 C 133.939 2.16897 0.894021 0
M  V30 1458 C 134.955 1.13528 1.31861 0
M  V30 1459 O 136.131 1.45848 1.3889 0
M  V30 1460 C 133.196 2.72831 2.13925 0
M  V30 1461 C 132.257 3.91115 1.76997 0
M  V30 1462 C 131.49 4.44371 2.95584 0
M  V30 1463 O 131.713 3.96596 4.09961 0
M  V30 1464 O 130.647 5.35549 2.74719 0
M  V30 1465 H 134.473 3.00814 0.417679 0
M  V30 1466 H 132.058 1.48741 0.140181 0
M  V30 1467 H 133.94 3.0863 2.86924 0
M  V30 1468 H 132.615 1.91967 2.60635 0
M  V30 1469 H 131.522 3.60148 1.01214 0
M  V30 1470 H 132.855 4.73307 1.3506 0
M  V30 1471 N 134.507 -0.190092 1.56449 0
M  V30 1472 C 135.44 -1.26375 1.90012 0
M  V30 1473 C 136.418 -1.43705 0.760765 0
M  V30 1474 O 137.602 -1.59014 1.01226 0
M  V30 1475 C 134.729 -2.62962 2.13468 0
M  V30 1476 C 133.775 -2.62474 3.36169 0
M  V30 1477 S 134.608 -2.13412 4.91137 0
M  V30 1478 C 135.764 -3.51812 5.17667 0
M  V30 1479 H 135.997 -0.977181 2.80782 0
M  V30 1480 H 133.53 -0.393814 1.49293 0
M  V30 1481 H 135.488 -3.41583 2.27664 0
M  V30 1482 H 134.149 -2.88828 1.23439 0
M  V30 1483 H 133.342 -3.62918 3.49723 0
M  V30 1484 H 132.944 -1.91937 3.20992 0
M  V30 1485 H 135.236 -4.47706 5.08494 0
M  V30 1486 H 136.179 -3.43148 6.19399 0
M  V30 1487 H 136.587 -3.46956 4.45288 0
M  V30 1488 N 135.985 -1.50799 -0.457987 0
M  V30 1489 C 136.948 -1.7005 -1.53674 0
M  V30 1490 C 137.948 -0.570881 -1.50325 0
M  V30 1491 O 139.138 -0.838126 -1.52712 0
M  V30 1492 C 136.27 -1.73788 -2.93276 0
M  V30 1493 H 137.463 -2.66306 -1.37917 0
M  V30 1494 H 135.016 -1.40477 -0.685271 0
M  V30 1495 H 135.751 -0.792717 -3.14462 0
M  V30 1496 H 135.536 -2.55864 -2.97113 0
M  V30 1497 H 137.026 -1.90591 -3.71571 0
M  V30 1498 N 137.463 0.71206 -1.40597 0
M  V30 1499 C 138.874 1.29135 -1.34837 0
M  V30 1500 C 139.225 1.96186 -0.0235395 0
M  V30 1501 O 138.35 1.97768 0.878444 0
M  V30 1502 C 138.945 2.34827 -2.44217 0
M  V30 1503 C 137.504 2.88371 -2.41907 0
M  V30 1504 C 136.651 1.62202 -2.24913 0
M  V30 1505 H 139.602 0.507944 -1.50352 0
M  V30 1506 H 139.623 3.15749 -2.12327 0
M  V30 1507 H 139.135 1.85996 -3.40627 0
M  V30 1508 H 137.236 3.41422 -1.49204 0
M  V30 1509 H 137.349 3.39925 -3.37621 0
M  V30 1510 H 135.713 1.874 -1.72492 0
M  V30 1511 H 136.496 1.15391 -3.23326 0
M  V30 1512 N 138.941 1.26152 0.944643 0
M  V30 1513 C 139.904 1.07474 2.0244 0
M  V30 1514 C 140.904 0.0242064 1.60782 0
M  V30 1515 O 142.094 0.267302 1.72137 0
M  V30 1516 C 139.226 0.633956 3.34953 0
M  V30 1517 H 140.419 2.03336 2.20442 0
M  V30 1518 H 137.972 1.087 1.12312 0
M  V30 1519 H 138.707 -0.326811 3.22649 0
M  V30 1520 H 138.492 1.39247 3.66542 0
M  V30 1521 H 139.982 0.52501 4.14287 0
M  V30 1522 N 140.419 -1.14872 1.07899 0
M  V30 1523 C 141.659 -1.8745 0.814965 0
M  V30 1524 C 142.023 -1.80758 -0.64733 0
M  V30 1525 O 143.224 -2.48422 -1.02664 0
M  V30 1526 C 141.495 -3.32286 1.31607 0
M  V30 1527 S 143.054 -4.22537 1.18357 0
M  V30 1528 H 139.872 -0.646833 0.295174 0
M  V30 1529 H 142.474 -1.38555 1.37923 0
M  V30 1530 H 141.178 -3.34703 2.37491 0
M  V30 1531 H 140.709 -3.86238 0.747261 0
M  V30 1532 H 142.724 -4.96044 0.124586 0
M  V30 1533 N 141.898 -0.863906 -1.31812 0
M  V30 1534 C 142.845 -0.313303 -2.28664 0
M  V30 1535 C 143.815 0.584868 -1.55462 0
M  V30 1536 O 145 0.517805 -1.83639 0
M  V30 1537 C 142.14 0.48441 -3.41683 0
M  V30 1538 C 141.253 -0.440594 -4.29747 0
M  V30 1539 C 140.388 0.370652 -5.29905 0
M  V30 1540 C 139.427 -0.551164 -6.09613 0
M  V30 1541 N 138.564 0.223462 -7.01744 0
M  V30 1542 H 143.404 -1.14444 -2.75148 0
M  V30 1543 H 140.941 -0.575769 -1.35364 0
M  V30 1544 H 142.899 0.962627 -4.05943 0
M  V30 1545 H 141.529 1.28029 -2.96325 0
M  V30 1546 H 140.581 -1.03724 -3.65986 0
M  V30 1547 H 141.893 -1.14767 -4.85417 0
M  V30 1548 H 141.047 0.911638 -5.99812 0
M  V30 1549 H 139.786 1.11105 -4.74876 0
M  V30 1550 H 138.791 -1.10396 -5.38603 0
M  V30 1551 H 140.016 -1.29032 -6.66729 0
M  V30 1552 H 137.962 0.946787 -6.49132 0
M  V30 1553 H 137.879 -0.424399 -7.54808 0
M  V30 1554 H 139.147 0.745876 -7.75923 0
M  V30 1555 N 143.376 1.44774 -0.622745 0
M  V30 1556 C 144.792 1.56986 -0.287652 0
M  V30 1557 C 144.992 1.61167 1.20944 0
M  V30 1558 O 144.048 1.55015 1.99315 0
M  V30 1559 C 145.361 2.84551 -0.972188 0
M  V30 1560 C 146.909 2.9825 -0.949536 0
M  V30 1561 C 147.384 4.28605 -1.61437 0
M  V30 1562 N 148.875 4.35399 -1.58057 0
M  V30 1563 C 149.61 5.34964 -2.064 0
M  V30 1564 N 149.106 6.40981 -2.62897 0
M  V30 1565 N 150.899 5.26419 -1.97078 0
M  V30 1566 H 143.05 1.40304 -1.59463 0
M  V30 1567 H 145.313 0.671794 -0.668878 0
M  V30 1568 H 145.019 2.87417 -2.02693 0
M  V30 1569 H 144.893 3.73807 -0.504771 0
M  V30 1570 H 147.28 2.94941 0.0967067 0
M  V30 1571 H 147.361 2.10364 -1.45536 0
M  V30 1572 H 147.005 4.32672 -2.66002 0
M  V30 1573 H 146.935 5.15334 -1.08344 0
M  V30 1574 H 149.426 3.59397 -1.16801 0
M  V30 1575 H 149.739 7.13225 -2.97539 0
M  V30 1576 H 148.084 6.4169 -2.66943 0
M  V30 1577 H 151.275 4.42504 -1.52669 0
M  V30 1578 H 151.448 6.03861 -2.35066 0
M  V30 1579 N 144.854 0.36279 1.53368 0
M  V30 1580 C 145.804 -0.501391 2.22419 0
M  V30 1581 C 146.788 -1.0509 1.2184 0
M  V30 1582 O 147.98 -0.981404 1.47301 0
M  V30 1583 C 145.109 -1.64201 3.01484 0
M  V30 1584 C 144.195 -1.10552 4.09438 0
M  V30 1585 N 144.586 -0.291788 5.04958 0
M  V30 1586 C 142.884 -1.3806 4.24094 0
M  V30 1587 C 143.585 0.00162655 5.817 0
M  V30 1588 N 142.561 -0.595244 5.40331 0
M  V30 1589 H 146.363 0.127159 2.93625 0
M  V30 1590 H 143.877 0.170658 1.61501 0
M  V30 1591 H 145.874 -2.27326 3.49469 0
M  V30 1592 H 144.534 -2.27365 2.31809 0
M  V30 1593 H 145.545 0.0687731 5.17854 0
M  V30 1594 H 142.222 -2.01522 3.65644 0
M  V30 1595 H 143.612 0.659278 6.68658 0
M  V30 1596 N 146.332 -1.57332 0.0918853 0
M  V30 1597 C 147.579 -1.94236 -0.572577 0
M  V30 1598 C 147.907 -0.973398 -1.6839 0
M  V30 1599 O 147.162 0.00756912 -1.95699 0
M  V30 1600 C 147.461 -3.37689 -1.17051 0
M  V30 1601 C 147.127 -4.50527 -0.183304 0
M  V30 1602 C 145.789 -4.81119 0.0882276 0
M  V30 1603 C 148.141 -5.18883 0.49095 0
M  V30 1604 C 145.469 -5.77395 1.04076 0
M  V30 1605 C 147.821 -6.1618 1.43193 0
M  V30 1606 C 146.485 -6.45179 1.71173 0
M  V30 1607 H 145.755 -0.710762 -0.209521 0
M  V30 1608 H 148.402 -1.9077 0.167036 0
M  V30 1609 H 146.707 -3.37718 -1.9863 0
M  V30 1610 H 148.404 -3.63543 -1.69227 0
M  V30 1611 H 144.994 -4.26681 -0.405124 0
M  V30 1612 H 149.178 -4.95427 0.294312 0
M  V30 1613 H 144.434 -5.98179 1.26457 0
M  V30 1614 H 148.608 -6.68243 1.96023 0
M  V30 1615 H 146.235 -7.1959 2.4514 0
M  V30 1616 N 147.81 0.181792 -1.56548 0
M  V30 1617 C 149.059 0.898348 -1.8059 0
M  V30 1618 C 149.372 1.83862 -0.667379 0
M  V30 1619 O 150.578 2.59678 -0.792446 0
M  V30 1620 C 149.034 1.64791 -3.19956 0
M  V30 1621 C 148.642 0.751789 -4.41647 0
M  V30 1622 C 150.386 2.35331 -3.53298 0
M  V30 1623 C 148.293 1.50098 -5.72035 0
M  V30 1624 H 147.223 0.339194 -0.673397 0
M  V30 1625 H 149.874 0.151413 -1.82874 0
M  V30 1626 H 148.256 2.43921 -3.11959 0
M  V30 1627 H 149.43 -0.0018076 -4.608 0
M  V30 1628 H 147.745 0.156562 -4.16106 0
M  V30 1629 H 150.342 2.91958 -4.47956 0
M  V30 1630 H 150.685 3.10164 -2.77676 0
M  V30 1631 H 151.218 1.63154 -3.62803 0
M  V30 1632 H 147.957 0.795175 -6.50659 0
M  V30 1633 H 147.477 2.22817 -5.56878 0
M  V30 1634 H 149.156 2.05125 -6.13622 0
M  V30 1635 N 149.288 1.51039 0.449983 0
M  V30 1636 C 150.22 1.67617 1.56324 0
M  V30 1637 C 151.233 0.557083 1.52972 0
M  V30 1638 O 152.422 0.830989 1.57977 0
M  V30 1639 C 149.522 1.66402 2.95235 0
M  V30 1640 C 148.695 2.9469 3.23229 0
M  V30 1641 C 147.754 2.85832 4.41799 0
M  V30 1642 O 146.78 3.59785 4.41071 0
M  V30 1643 N 147.982 2.00821 5.44657 0
M  V30 1644 H 150.747 2.63648 1.42512 0
M  V30 1645 H 148.308 1.48767 0.638737 0
M  V30 1646 H 150.3 1.58062 3.72557 0
M  V30 1647 H 148.87 0.780182 3.02708 0
M  V30 1648 H 148.09 3.16996 2.34323 0
M  V30 1649 H 149.378 3.79636 3.38754 0
M  V30 1650 H 148.776 1.40091 5.48079 0
M  V30 1651 H 147.333 1.98368 6.20881 0
M  V30 1652 N 150.766 -0.704594 1.40972 0
M  V30 1653 C 152.043 -1.45847 1.30338 0
M  V30 1654 C 152.423 -2.10973 -0.0732344 0
M  V30 1655 O 151.771 -2.00997 -1.08685 0
M  V30 1656 C 151.981 -2.48525 2.45023 0
M  V30 1657 C 153.329 -3.1404 2.8577 0
M  V30 1658 O 154.353 -2.58848 2.44696 0
M  V30 1659 O 153.212 -4.13981 3.56766 0
M  V30 1660 H 150.306 -0.649092 0.512454 0
M  V30 1661 H 152.852 -0.735836 1.52917 0
M  V30 1662 H 151.624 -1.98994 3.36923 0
M  V30 1663 H 151.247 -3.2831 2.24272 0
M  V30 1664 N 152.244 -1.26651 -0.937939 0
M  V30 1665 C 153.472 -1.15173 -1.7188 0
M  V30 1666 C 153.887 0.292668 -1.86518 0
M  V30 1667 O 153.244 1.20014 -1.37488 0
M  V30 1668 C 153.295 -1.81925 -3.12387 0
M  V30 1669 O 153.016 -3.2072 -2.98446 0
M  V30 1670 C 154.517 -1.76442 -4.06673 0
M  V30 1671 H 151.737 -0.400911 -0.538063 0
M  V30 1672 H 154.281 -1.67332 -1.1756 0
M  V30 1673 H 152.436 -1.33696 -3.63599 0
M  V30 1674 H 152.85 -3.53802 -3.872 0
M  V30 1675 H 154.324 -2.27781 -5.02812 0
M  V30 1676 H 154.801 -0.731608 -4.33064 0
M  V30 1677 H 155.407 -2.24238 -3.61382 0
M  V30 1678 N 153.722 1.14298 -1.08507 0
M  V30 1679 C 154.962 1.87016 -0.824894 0
M  V30 1680 C 155.326 1.81099 0.637735 0
M  V30 1681 O 156.527 2.48963 1.01345 0
M  V30 1682 C 154.798 3.31584 -1.33368 0
M  V30 1683 S 156.357 4.21903 -1.20596 0
M  V30 1684 H 153.175 0.645259 -0.2986 0
M  V30 1685 H 155.777 1.37822 -1.38656 0
M  V30 1686 H 154.481 3.33439 -2.39262 0
M  V30 1687 H 154.012 3.85836 -0.767734 0
M  V30 1688 H 156.027 4.95971 -0.150891 0
M  V30 1689 N 155.201 0.870884 1.31352 0
M  V30 1690 C 156.131 0.343096 2.30966 0
M  V30 1691 C 157.112 -0.566507 1.60389 0
M  V30 1692 O 158.297 -0.483336 1.88089 0
M  V30 1693 C 155.427 -0.455487 3.443 0
M  V30 1694 C 154.381 0.361103 4.26474 0
M  V30 1695 C 153.707 -0.563221 5.31725 0
M  V30 1696 C 155.007 1.59566 4.97329 0
M  V30 1697 H 156.701 1.17548 2.75359 0
M  V30 1698 H 154.247 0.566686 1.32381 0
M  V30 1699 H 156.2 -0.83525 4.13039 0
M  V30 1700 H 154.924 -1.32139 2.98675 0
M  V30 1701 H 153.583 0.722825 3.59403 0
M  V30 1702 H 153.231 -1.42643 4.82351 0
M  V30 1703 H 152.931 -0.0207409 5.87596 0
M  V30 1704 H 154.455 -0.939808 6.03324 0
M  V30 1705 H 155.869 1.28728 5.58661 0
M  V30 1706 H 154.266 2.07728 5.63 0
M  V30 1707 H 155.336 2.34798 4.24262 0
M  V30 1708 N 156.679 -1.44442 0.630414 0
M  V30 1709 C 157.909 -2.06115 0.141465 0
M  V30 1710 C 158.317 -1.47179 -1.1889 0
M  V30 1711 O 157.66 -0.588873 -1.74006 0
M  V30 1712 C 157.722 -3.59467 -0.0484355 0
M  V30 1713 C 157.386 -4.40864 1.20366 0
M  V30 1714 C 158.383 -4.74391 2.12719 0
M  V30 1715 C 156.068 -4.8125 1.43887 0
M  V30 1716 C 158.062 -5.47186 3.26904 0
M  V30 1717 C 155.749 -5.53795 2.5837 0
M  V30 1718 C 156.747 -5.86682 3.49705 0
M  V30 1719 O 156.435 -6.57749 4.62191 0
M  V30 1720 H 156.167 -0.671648 0.0765792 0
M  V30 1721 H 158.721 -1.86312 0.864695 0
M  V30 1722 H 156.951 -3.77758 -0.826803 0
M  V30 1723 H 158.64 -4.02909 -0.491849 0
M  V30 1724 H 159.406 -4.43728 1.95781 0
M  V30 1725 H 155.285 -4.55073 0.736853 0
M  V30 1726 H 158.829 -5.72773 3.98217 0
M  V30 1727 H 154.726 -5.83872 2.75251 0
M  V30 1728 H 155.494 -6.76217 4.61164 0
M  V30 1729 N 158.157 -0.370918 -1.53173 0
M  V30 1730 C 159.067 0.480823 -2.2962 0
M  V30 1731 C 160.083 1.08789 -1.35798 0
M  V30 1732 O 161.259 1.09768 -1.68858 0
M  V30 1733 C 158.324 1.60227 -3.07454 0
M  V30 1734 C 157.385 1.0222 -4.16953 0
M  V30 1735 C 156.618 2.0902 -4.91066 0
M  V30 1736 O 156.841 3.30222 -4.65091 0
M  V30 1737 O 155.775 1.71778 -5.76867 0
M  V30 1738 H 159.601 -0.141421 -3.03371 0
M  V30 1739 H 157.186 -0.135146 -1.48787 0
M  V30 1740 H 159.068 2.25417 -3.56041 0
M  V30 1741 H 157.743 2.20982 -2.36535 0
M  V30 1742 H 156.65 0.334064 -3.72605 0
M  V30 1743 H 157.983 0.459131 -4.90054 0
M  V30 1744 N 159.635 1.57281 -0.100228 0
M  V30 1745 C 160.875 1.96419 0.56558 0
M  V30 1746 C 161.239 0.981265 1.65031 0
M  V30 1747 O 162.44 1.26133 2.37369 0
M  V30 1748 C 160.711 3.39996 1.10171 0
M  V30 1749 S 162.27 4.01134 1.77867 0
M  V30 1750 H 159.088 0.68667 0.184406 0
M  V30 1751 H 161.69 1.94662 -0.180851 0
M  V30 1752 H 160.394 4.09296 0.300803 0
M  V30 1753 H 159.925 3.45361 1.88385 0
M  V30 1754 H 161.94 3.90358 3.06326 0
M  V30 1755 N 161.113 -0.173488 1.56642 0
M  V30 1756 C 162.338 -0.910149 1.86363 0
M  V30 1757 C 162.763 -1.75132 0.686318 0
M  V30 1758 O 162.121 -1.77595 -0.364643 0
M  V30 1759 C 162.169 -1.76447 3.14482 0
M  V30 1760 O 161.273 -2.86584 2.96553 0
M  V30 1761 H 160.614 -0.255086 0.613047 0
M  V30 1762 H 163.144 -0.172283 2.03873 0
M  V30 1763 H 163.154 -2.16483 3.45831 0
M  V30 1764 H 161.829 -1.14658 3.99783 0
M  V30 1765 H 160.406 -2.50146 2.76553 0
M  V30 1766 N 162.591 -1.51276 -0.441967 0
M  V30 1767 C 164.002 -1.56244 -1.02199 0
M  V30 1768 C 164.353 -0.383149 -1.92422 0
M  V30 1769 O 163.478 0.500613 -2.1053 0
M  V30 1770 C 164.073 -2.83162 -1.86024 0
M  V30 1771 C 162.632 -2.90716 -2.39084 0
M  V30 1772 C 161.779 -2.50858 -1.18175 0
M  V30 1773 H 164.73 -1.5712 -0.223416 0
M  V30 1774 H 164.751 -2.66663 -2.71425 0
M  V30 1775 H 164.263 -3.68974 -1.20331 0
M  V30 1776 H 162.364 -2.09323 -3.08244 0
M  V30 1777 H 162.477 -3.94266 -2.72198 0
M  V30 1778 H 160.841 -2.03951 -1.52565 0
M  V30 1779 H 161.624 -3.3901 -0.541001 0
M  V30 1780 N 164.069 0.697108 -1.41344 0
M  V30 1781 C 165.017 1.83237 -1.43272 0
M  V30 1782 C 166.011 1.66522 -0.310947 0
M  V30 1783 O 167.217 1.73402 -0.482899 0
M  V30 1784 H 163.592 0.603802 -0.448249 0
M  V30 1785 H 165.563 1.78727 -2.38954 0
M  V30 1786 C 164.312 3.21245 -1.33029 0
M  V30 1787 H 163.635 3.34723 -2.18633 0
M  V30 1788 H 165.075 4.00763 -1.38439 0
M  V30 1789 C 163.534 3.36873 -0.0424635 0
M  V30 1790 O 164.064 3.91177 0.913421 0
M  V30 1791 N 162.27 2.90581 0.0331145 0
M  V30 1792 H 161.817 2.46577 -0.745506 0
M  V30 1793 H 161.775 3.01416 0.894199 0
M  V30 1794 N 165.547 1.27147 0.931209 0
M  V30 1795 C 166.477 1.12081 2.04842 0
M  V30 1796 C 167.458 0.0232364 1.70084 0
M  V30 1797 O 168.643 0.197085 1.93197 0
M  V30 1798 C 165.773 0.76354 3.38803 0
M  V30 1799 C 164.727 1.81396 3.87659 0
M  V30 1800 C 164.053 1.31075 5.18385 0
M  V30 1801 C 165.353 3.21739 4.11438 0
M  V30 1802 H 167.047 2.05537 2.17703 0
M  V30 1803 H 164.593 0.989603 1.04608 0
M  V30 1804 H 166.546 0.644982 4.16435 0
M  V30 1805 H 165.27 -0.206727 3.25945 0
M  V30 1806 H 163.929 1.92136 3.12217 0
M  V30 1807 H 163.577 0.330037 5.01916 0
M  V30 1808 H 163.277 2.013 5.52044 0
M  V30 1809 H 164.801 1.20506 5.98591 0
M  V30 1810 H 166.215 3.14019 4.79651 0
M  V30 1811 H 164.612 3.89644 4.56397 0
M  V30 1812 H 165.682 3.67054 3.16859 0
M  V30 1813 N 167.025 -1.13721 1.09112 0
M  V30 1814 C 168.273 -1.84559 0.823562 0
M  V30 1815 C 168.594 -1.83754 -0.652658 0
M  V30 1816 O 167.864 -1.29102 -1.47342 0
M  V30 1817 H 166.444 -0.683376 0.301673 0
M  V30 1818 H 169.106 -1.37771 1.37859 0
M  V30 1819 H 168.202 -2.8917 1.17419 0
M  V30 1820 N 168.503 -0.877838 -1.30888 0
M  V30 1821 C 169.914 -0.544193 -1.78593 0
M  V30 1822 C 170.265 0.939301 -1.72254 0
M  V30 1823 O 169.39 1.7337 -1.29505 0
M  V30 1824 C 169.985 -0.98105 -3.24285 0
M  V30 1825 C 168.544 -0.698935 -3.69854 0
M  V30 1826 C 167.691 -1.168 -2.51502 0
M  V30 1827 H 170.642 -1.06278 -1.17859 0
M  V30 1828 H 170.663 -0.307009 -3.79259 0
M  V30 1829 H 170.175 -2.06079 -3.28866 0
M  V30 1830 H 168.276 0.369112 -3.70767 0
M  V30 1831 H 168.389 -1.28148 -4.61644 0
M  V30 1832 H 166.753 -0.587535 -2.47831 0
M  V30 1833 H 167.536 -2.25533 -2.58824 0
M  V30 1834 N 169.982 1.44106 -0.638065 0
M  V30 1835 C 171.228 2.02815 -0.15409 0
M  V30 1836 C 171.583 1.49342 1.21304 0
M  V30 1837 O 170.876 0.670699 1.79478 0
M  V30 1838 C 171.07 3.5729 -0.0887327 0
M  V30 1839 C 170.899 4.2575 -1.44799 0
M  V30 1840 C 169.669 4.62443 -2.03653 0
M  V30 1841 C 171.867 4.55746 -2.38327 0
M  V30 1842 N 169.849 5.15903 -3.32741 0
M  V30 1843 C 171.22 5.10364 -3.52036 0
M  V30 1844 C 173.275 4.37703 -2.3732 0
M  V30 1845 C 171.978 5.48837 -4.64941 0
M  V30 1846 C 174.004 4.77229 -3.49294 0
M  V30 1847 C 173.366 5.31966 -4.61726 0
M  V30 1848 H 169.465 0.775519 -0.100466 0
M  V30 1849 H 172.049 1.755 -0.843071 0
M  V30 1850 H 170.22 3.84201 0.569548 0
M  V30 1851 H 171.952 4.02671 0.404711 0
M  V30 1852 H 168.707 4.46987 -1.56523 0
M  V30 1853 H 169.131 5.47102 -3.98758 0
M  V30 1854 H 173.773 3.94671 -1.51641 0
M  V30 1855 H 171.491 5.9082 -5.51323 0
M  V30 1856 H 175.077 4.64976 -3.49698 0
M  V30 1857 H 173.957 5.61986 -5.46939 0
M  V30 1858 N 171.46 0.379036 1.52974 0
M  V30 1859 C 172.709 -0.207612 2.00629 0
M  V30 1860 C 173.022 -1.48758 1.27006 0
M  V30 1861 O 174.228 -2.15365 1.65318 0
M  V30 1862 C 172.684 -0.42053 3.57435 0
M  V30 1863 C 172.292 0.845587 4.39948 0
M  V30 1864 C 174.036 -0.964102 4.13407 0
M  V30 1865 C 171.943 0.601513 5.88333 0
M  V30 1866 H 170.873 -0.0813591 0.749598 0
M  V30 1867 H 173.524 0.499853 1.76561 0
M  V30 1868 H 171.906 -1.18959 3.7771 0
M  V30 1869 H 173.08 1.61848 4.31442 0
M  V30 1870 H 171.395 1.31336 3.95145 0
M  V30 1871 H 173.992 -1.16225 5.21916 0
M  V30 1872 H 174.335 -1.93019 3.68849 0
M  V30 1873 H 174.868 -0.25487 3.96983 0
M  V30 1874 H 171.607 1.53831 6.37194 0
M  V30 1875 H 171.127 -0.132628 5.99653 0
M  V30 1876 H 172.806 0.232134 6.46583 0
M  V30 1877 N 172.938 -1.57226 0.108567 0
M  V30 1878 C 173.87 -2.11809 -0.875752 0
M  V30 1879 C 174.883 -1.05839 -1.23701 0
M  V30 1880 O 176.072 -1.33245 -1.18778 0
M  V30 1881 C 173.172 -2.59411 -2.18081 0
M  V30 1882 C 172.345 -3.89364 -1.99284 0
M  V30 1883 C 171.404 -4.22672 -3.13424 0
M  V30 1884 O 170.43 -4.91668 -2.86795 0
M  V30 1885 N 171.632 -3.79154 -4.3957 0
M  V30 1886 H 174.397 -2.9689 -0.409477 0
M  V30 1887 H 171.958 -1.61721 -0.076158 0
M  V30 1888 H 173.95 -2.7873 -2.93414 0
M  V30 1889 H 172.52 -1.79268 -2.5609 0
M  V30 1890 H 171.74 -3.79059 -1.08203 0
M  V30 1891 H 173.028 -4.74358 -1.84017 0
M  V30 1892 H 172.426 -3.23486 -4.64083 0
M  V30 1893 H 170.983 -4.03602 -5.11809 0
M  V30 1894 N 174.416 0.165178 -1.56732 0
M  V30 1895 C 175.348 1.22911 -1.93457 0
M  V30 1896 C 176.361 1.40152 -0.828333 0
M  V30 1897 O 177.55 1.40046 -1.10677 0
M  V30 1898 C 174.65 2.59686 -2.17753 0
M  V30 1899 C 173.823 2.63663 -3.48999 0
M  V30 1900 C 172.882 3.81845 -3.62051 0
M  V30 1901 O 171.908 3.67559 -4.34613 0
M  V30 1902 N 173.11 4.98557 -2.97357 0
M  V30 1903 H 175.875 0.917118 -2.85323 0
M  V30 1904 H 173.436 0.354895 -1.57962 0
M  V30 1905 H 175.428 3.37225 -2.23743 0
M  V30 1906 H 173.998 2.83251 -1.32242 0
M  V30 1907 H 173.218 1.72173 -3.54612 0
M  V30 1908 H 174.506 2.63336 -4.35352 0
M  V30 1909 H 173.904 5.13065 -2.38287 0
M  V30 1910 H 172.461 5.73936 -3.08934 0
M  V30 1911 N 175.894 1.51508 0.433938 0
M  V30 1912 C 177.14 1.64588 1.18484 0
M  V30 1913 C 177.473 0.362666 1.90784 0
M  V30 1914 O 176.748 -0.637892 1.83742 0
M  V30 1915 C 177.031 2.85149 2.19913 0
M  V30 1916 C 176.884 4.23456 1.51674 0
M  V30 1917 C 178.203 3.01227 3.20858 0
M  V30 1918 H 175.322 0.598994 0.429389 0
M  V30 1919 H 177.964 1.84002 0.473647 0
M  V30 1920 H 176.114 2.68729 2.80566 0
M  V30 1921 H 177.786 4.51552 0.943322 0
M  V30 1922 H 176.029 4.25998 0.819035 0
M  V30 1923 H 176.7 5.03812 2.2556 0
M  V30 1924 H 179.176 3.16382 2.70263 0
M  V30 1925 H 178.052 3.87141 3.89118 0
M  V30 1926 H 178.313 2.13447 3.8716 0
M  V30 1927 N 177.372 -0.689602 1.41712 0
M  V30 1928 C 178.649 -1.44457 1.31877 0
M  V30 1929 C 179.029 -2.11039 -0.0508537 0
M  V30 1930 O 178.377 -2.02138 -1.06547 0
M  V30 1931 C 178.587 -2.45913 2.47645 0
M  V30 1932 C 179.935 -3.10991 2.89084 0
M  V30 1933 O 180.959 -2.56238 2.47428 0
M  V30 1934 O 179.818 -4.10174 3.61137 0
M  V30 1935 H 176.912 -0.64362 0.519309 0
M  V30 1936 H 179.458 -0.719576 1.53689 0
M  V30 1937 H 178.23 -1.95409 3.39015 0
M  V30 1938 H 177.853 -3.25913 2.27742 0
M  V30 1939 N 178.85 -1.27639 -0.924453 0
M  V30 1940 C 179.782 -1.06442 -2.02985 0
M  V30 1941 C 180.795 -0.0194771 -1.62788 0
M  V30 1942 O 181.984 -0.261388 -1.76576 0
M  V30 1943 C 179.084 -0.59327 -3.33667 0
M  V30 1944 C 178.257 -1.71123 -4.02537 0
M  V30 1945 C 177.316 -1.23527 -5.11495 0
M  V30 1946 O 176.342 -1.93553 -5.35281 0
M  V30 1947 N 177.544 -0.0926678 -5.80426 0
M  V30 1948 H 180.309 -2.01633 -2.2173 0
M  V30 1949 H 177.87 -1.19248 -1.09505 0
M  V30 1950 H 179.862 -0.258686 -4.03872 0
M  V30 1951 H 178.432 0.265502 -3.1147 0
M  V30 1952 H 177.652 -2.21593 -3.26022 0
M  V30 1953 H 178.94 -2.46145 -4.45298 0
M  V30 1954 H 178.338 0.491741 -5.63559 0
M  V30 1955 H 176.895 0.182714 -6.51544 0
M  V30 1956 N 180.328 1.1314 -1.09713 0
M  V30 1957 C 181.553 1.88862 -0.857081 0
M  V30 1958 C 181.978 1.78729 0.586304 0
M  V30 1959 O 181.336 1.13692 1.41222 0
M  V30 1960 C 181.384 3.36325 -1.30069 0
M  V30 1961 O 180.488 4.09815 -0.461007 0
M  V30 1962 H 179.829 0.587108 -0.310162 0
M  V30 1963 H 182.359 1.43129 -1.46203 0
M  V30 1964 H 182.369 3.87157 -1.28738 0
M  V30 1965 H 181.044 3.43017 -2.35185 0
M  V30 1966 H 179.621 3.68986 -0.538888 0
M  V30 1967 N 181.806 0.884767 1.30421 0
M  V30 1968 C 183.052 0.513218 1.96819 0
M  V30 1969 C 183.407 -0.927347 1.68577 0
M  V30 1970 O 182.7 -1.64644 0.979941 0
M  V30 1971 C 182.894 0.724318 3.49983 0
M  V30 1972 C 182.723 2.18385 3.93113 0
M  V30 1973 C 181.493 2.82839 4.18725 0
M  V30 1974 C 183.691 3.15763 4.05953 0
M  V30 1975 N 181.673 4.1939 4.48314 0
M  V30 1976 C 183.044 4.37387 4.39423 0
M  V30 1977 C 185.099 3.11555 3.88379 0
M  V30 1978 C 183.802 5.55343 4.5715 0
M  V30 1979 C 185.828 4.28782 4.07308 0
M  V30 1980 C 185.19 5.49172 4.41123 0
M  V30 1981 H 181.289 0.237123 0.745182 0
M  V30 1982 H 183.873 1.14246 1.57658 0
M  V30 1983 H 182.044 0.124565 3.882 0
M  V30 1984 H 183.776 0.31969 4.03435 0
M  V30 1985 H 180.531 2.33708 4.11919 0
M  V30 1986 H 180.955 4.89911 4.67243 0
M  V30 1987 H 185.597 2.19576 3.61312 0
M  V30 1988 H 183.315 6.47826 4.8306 0
M  V30 1989 H 186.901 4.26995 3.95179 0
M  V30 1990 H 185.781 6.38371 4.55469 0
M  V30 1991 N 183.284 -1.43765 0.645699 0
M  V30 1992 C 184.7 -1.56509 0.312591 0
M  V30 1993 C 184.9 -1.6307 -1.18365 0
M  V30 1994 O 183.956 -1.58167 -1.96824 0
M  V30 1995 C 185.269 -2.82968 1.01733 0
M  V30 1996 C 186.817 -2.96701 0.996865 0
M  V30 1997 C 187.292 -4.25982 1.68236 0
M  V30 1998 N 188.783 -4.32829 1.64964 0
M  V30 1999 C 189.518 -5.31613 2.14885 0
M  V30 2000 N 189.014 -6.36718 2.73061 0
M  V30 2001 N 190.807 -5.23217 2.05428 0
M  V30 2002 H 182.958 -1.3775 1.61675 0
M  V30 2003 H 185.221 -0.661067 0.679481 0
M  V30 2004 H 184.927 -2.84156 2.0724 0
M  V30 2005 H 184.801 -3.72957 0.564177 0
M  V30 2006 H 187.188 -2.95058 -0.0497719 0
M  V30 2007 H 187.269 -2.08022 1.48865 0
M  V30 2008 H 186.913 -4.28386 2.72852 0
M  V30 2009 H 186.843 -5.13545 1.16529 0
M  V30 2010 H 189.334 -3.57493 1.22503 0
M  V30 2011 H 189.647 -7.08401 3.08848 0
M  V30 2012 H 187.992 -6.37362 2.77118 0
M  V30 2013 H 191.183 -4.40019 1.59689 0
M  V30 2014 H 191.356 -6.00045 2.44643 0
M  V30 2015 N 184.763 -0.387143 -1.52771 0
M  V30 2016 C 185.71 0.449048 -2.26389 0
M  V30 2017 C 186.68 1.05961 -1.27912 0
M  V30 2018 O 187.865 1.08804 -1.56737 0
M  V30 2019 C 185.005 1.57155 -3.0724 0
M  V30 2020 C 184.118 0.984066 -4.20643 0
M  V30 2021 C 183.253 2.07745 -4.88892 0
M  V30 2022 C 182.292 1.46574 -5.94292 0
M  V30 2023 N 181.429 2.49834 -6.56146 0
M  V30 2024 H 186.269 -0.185205 -2.97424 0
M  V30 2025 H 183.806 -0.103164 -1.46738 0
M  V30 2026 H 185.764 2.23309 -3.52405 0
M  V30 2027 H 184.394 2.17615 -2.38419 0
M  V30 2028 H 183.446 0.212193 -3.79808 0
M  V30 2029 H 184.758 0.497029 -4.96318 0
M  V30 2030 H 183.912 2.81673 -5.3735 0
M  V30 2031 H 182.651 2.59807 -4.12737 0
M  V30 2032 H 181.656 0.711696 -5.45174 0
M  V30 2033 H 182.881 0.953088 -6.72379 0
M  V30 2034 H 180.827 3.0107 -5.82832 0
M  V30 2035 H 180.744 2.05879 -7.27427 0
M  V30 2036 H 182.012 3.23399 -7.09249 0
M  V30 2037 N 186.241 1.57166 -0.116904 0
M  V30 2038 C 187.151 2.18745 0.847812 0
M  V30 2039 C 188.167 1.163 1.29423 0
M  V30 2040 O 189.343 1.48761 1.35765 0
M  V30 2041 C 186.408 2.77307 2.0809 0
M  V30 2042 C 185.469 3.94781 1.68661 0
M  V30 2043 C 184.702 4.50541 2.86091 0
M  V30 2044 O 184.925 4.05202 4.01456 0
M  V30 2045 O 183.859 5.41256 2.63298 0
M  V30 2046 H 187.685 3.01632 0.353778 0
M  V30 2047 H 185.27 1.49005 0.108599 0
M  V30 2048 H 187.152 3.14647 2.80313 0
M  V30 2049 H 185.827 1.97452 2.56504 0
M  V30 2050 H 184.734 3.62214 0.935518 0
M  V30 2051 H 186.067 4.76065 1.24991 0
M  V30 2052 N 187.719 -0.156864 1.56817 0
M  V30 2053 C 189.135 -0.50916 1.5126 0
M  V30 2054 C 189.335 -1.83897 0.823658 0
M  V30 2055 O 188.391 -2.49469 0.390055 0
M  V30 2056 C 189.704 -0.52857 2.96018 0
M  V30 2057 C 191.252 -0.614771 3.06903 0
M  V30 2058 C 191.727 -0.664938 4.53147 0
M  V30 2059 N 193.218 -0.727433 4.57452 0
M  V30 2060 C 193.953 -0.787067 5.67973 0
M  V30 2061 N 193.449 -0.806649 6.88088 0
M  V30 2062 N 195.242 -0.827195 5.5598 0
M  V30 2063 H 187.393 0.714935 2.00006 0
M  V30 2064 H 189.656 0.259526 0.911784 0
M  V30 2065 H 189.362 0.380154 3.49639 0
M  V30 2066 H 189.236 -1.36998 3.51442 0
M  V30 2067 H 191.623 -1.51392 2.53307 0
M  V30 2068 H 191.704 0.253597 2.5454 0
M  V30 2069 H 191.348 0.230011 5.07379 0
M  V30 2070 H 191.278 -1.54966 5.03282 0
M  V30 2071 H 193.769 -0.719998 3.70978 0
M  V30 2072 H 194.082 -0.853727 7.6807 0
M  V30 2073 H 192.427 -0.774687 6.90669 0
M  V30 2074 H 195.618 -0.808998 4.61056 0
M  V30 2075 H 195.791 -0.870206 6.4213 0
M  V30 2076 N 189.197 -1.51736 -0.425897 0
M  V30 2077 C 190.443 -1.65214 -1.1761 0
M  V30 2078 C 190.776 -0.372778 -1.90589 0
M  V30 2079 O 190.051 0.628139 -1.84078 0
M  V30 2080 C 190.334 -2.86312 -2.18398 0
M  V30 2081 C 190.187 -4.24254 -1.49426 0
M  V30 2082 C 191.506 -3.02925 -3.19256 0
M  V30 2083 H 188.625 -0.601263 -0.426206 0
M  V30 2084 H 191.267 -1.8425 -0.463882 0
M  V30 2085 H 189.417 -2.70213 -2.79137 0
M  V30 2086 H 191.089 -4.52046 -0.919362 0
M  V30 2087 H 189.332 -4.26426 -0.796432 0
M  V30 2088 H 190.003 -5.05001 -2.22885 0
M  V30 2089 H 192.479 -3.1781 -2.68581 0
M  V30 2090 H 191.355 -3.89199 -3.8706 0
M  V30 2091 H 191.616 -2.15497 -3.86023 0
M  V30 2092 N 190.675 0.682077 -1.42076 0
M  V30 2093 C 191.605 1.80796 -1.47767 0
M  V30 2094 C 192.586 1.6677 -0.334954 0
M  V30 2095 O 193.771 1.863 -0.548264 0
M  V30 2096 C 190.901 3.19038 -1.37229 0
M  V30 2097 C 189.855 3.47789 -2.49453 0
M  V30 2098 C 189.181 4.8553 -2.23975 0
M  V30 2099 C 190.481 3.45411 -3.91776 0
M  V30 2100 H 192.175 1.7629 -2.41997 0
M  V30 2101 H 189.721 0.846721 -1.16476 0
M  V30 2102 H 191.674 3.97528 -1.39821 0
M  V30 2103 H 190.398 3.24204 -0.394907 0
M  V30 2104 H 189.057 2.71657 -2.46166 0
M  V30 2105 H 188.705 4.87337 -1.24547 0
M  V30 2106 H 188.405 5.0573 -2.99184 0
M  V30 2107 H 189.929 5.66312 -2.28304 0
M  V30 2108 H 191.343 4.13882 -3.96705 0
M  V30 2109 H 189.74 3.77145 -4.66778 0
M  V30 2110 H 190.81 2.44122 -4.18966 0
M  V30 2111 N 192.153 1.28127 0.917671 0
M  V30 2112 C 193.101 1.11569 2.04096 0
M  V30 2113 C 194.095 0.0360242 1.69362 0
M  V30 2114 O 195.301 0.194501 1.78946 0
M  V30 2115 H 191.676 0.344097 0.668656 0
M  V30 2116 H 193.647 2.06711 2.15205 0
M  V30 2117 C 192.396 0.790197 3.38602 0
M  V30 2118 H 191.719 1.61293 3.6582 0
M  V30 2119 H 193.159 0.714271 4.1794 0
M  V30 2120 C 191.618 -0.505897 3.3308 0
M  V30 2121 O 192.148 -1.53736 3.71117 0
M  V30 2122 N 190.354 -0.505193 2.86175 0
M  V30 2123 H 189.901 0.334621 2.55417 0
M  V30 2124 H 189.859 -1.37243 2.82863 0
M  V30 2125 N 193.631 -1.12557 1.10312 0
M  V30 2126 C 194.877 -1.84311 0.846011 0
M  V30 2127 C 195.21 -1.83805 -0.626859 0
M  V30 2128 O 194.485 -1.28268 -1.46211 0
M  V30 2129 C 194.768 -3.32048 1.39341 0
M  V30 2130 C 194.621 -3.41016 2.93305 0
M  V30 2131 C 195.94 -4.27764 1.03468 0
M  V30 2132 H 193.059 -0.669192 0.30879 0
M  V30 2133 H 195.701 -1.32057 1.36605 0
M  V30 2134 H 193.851 -3.76678 0.951087 0
M  V30 2135 H 195.523 -3.05031 3.46055 0
M  V30 2136 H 193.766 -2.81603 3.29973 0
M  V30 2137 H 194.437 -4.44948 3.26689 0
M  V30 2138 H 196.913 -3.91253 1.41633 0
M  V30 2139 H 195.789 -5.29549 1.44463 0
M  V30 2140 H 196.05 -4.42064 -0.0560404 0
M  V30 2141 N 195.109 -0.891671 -1.2995 0
M  V30 2142 C 196.52 -0.563104 -1.78006 0
M  V30 2143 C 196.871 0.920978 -1.73241 0
M  V30 2144 O 195.996 1.71987 -1.31337 0
M  V30 2145 C 196.591 -1.01539 -3.23226 0
M  V30 2146 C 195.15 -0.738124 -3.69092 0
M  V30 2147 C 194.297 -1.19461 -2.50249 0
M  V30 2148 H 197.248 -1.07522 -1.16725 0
M  V30 2149 H 197.269 -0.347217 -3.78912 0
M  V30 2150 H 196.781 -2.09555 -3.26662 0
M  V30 2151 H 194.882 0.329766 -3.71138 0
M  V30 2152 H 194.995 -1.33037 -4.60259 0
M  V30 2153 H 193.359 -0.613787 -2.47194 0
M  V30 2154 H 194.142 -2.28265 -2.56417 0
M  V30 2155 N 196.587 1.43421 -0.653314 0
M  V30 2156 C 197.517 2.33487 0.0246656 0
M  V30 2157 C 198.498 1.49475 0.811863 0
M  V30 2158 O 199.683 1.78139 0.773322 0
M  V30 2159 C 196.813 3.32841 0.99166 0
M  V30 2160 C 195.767 4.26842 0.314568 0
M  V30 2161 C 195.093 5.16236 1.39302 0
M  V30 2162 C 196.393 5.16243 -0.793095 0
M  V30 2163 H 198.087 2.90427 -0.727481 0
M  V30 2164 H 195.633 1.39649 -0.351287 0
M  V30 2165 H 197.586 3.94747 1.47487 0
M  V30 2166 H 196.31 2.74158 1.77497 0
M  V30 2167 H 194.969 3.663 -0.148199 0
M  V30 2168 H 194.617 4.53891 2.16776 0
M  V30 2169 H 194.317 5.79948 0.945223 0
M  V30 2170 H 195.841 5.81015 1.87759 0
M  V30 2171 H 197.255 5.71958 -0.392039 0
M  V30 2172 H 195.652 5.88676 -1.16536 0
M  V30 2173 H 196.722 4.55927 -1.65103 0
M  V30 2174 N 198.065 0.39524 1.52563 0
M  V30 2175 C 199.305 -0.184744 2.03563 0
M  V30 2176 C 199.669 -1.43548 1.27507 0
M  V30 2177 O 200.87 -2.093 1.68662 0
M  V30 2178 C 199.141 -0.440294 3.54678 0
M  V30 2179 S 200.7 -0.989712 4.27493 0
M  V30 2180 H 197.518 -0.0515075 0.709132 0
M  V30 2181 H 200.12 0.544957 1.87751 0
M  V30 2182 H 198.824 0.477005 4.07618 0
M  V30 2183 H 198.355 -1.19825 3.74707 0
M  V30 2184 H 200.37 -2.27155 4.41152 0
M  V30 2185 N 199.544 -1.57102 0.125237 0
M  V30 2186 C 200.491 -2.15641 -0.822655 0
M  V30 2187 C 201.461 -1.08313 -1.25927 0
M  V30 2188 O 202.646 -1.36251 -1.33567 0
M  V30 2189 C 199.786 -2.76504 -2.06494 0
M  V30 2190 C 198.899 -3.98158 -1.67612 0
M  V30 2191 C 198.034 -4.47088 -2.86854 0
M  V30 2192 C 197.073 -5.6126 -2.44242 0
M  V30 2193 N 196.21 -6.04905 -3.56419 0
M  V30 2194 H 201.05 -2.96313 -0.316625 0
M  V30 2195 H 198.587 -1.46388 -0.144588 0
M  V30 2196 H 200.545 -3.09925 -2.79289 0
M  V30 2197 H 199.175 -1.98512 -2.54545 0
M  V30 2198 H 198.227 -3.70858 -0.846661 0
M  V30 2199 H 199.539 -4.80934 -1.32301 0
M  V30 2200 H 198.693 -4.82451 -3.67867 0
M  V30 2201 H 197.432 -3.63275 -3.25396 0
M  V30 2202 H 196.437 -5.25495 -1.61663 0
M  V30 2203 H 197.662 -6.46843 -2.0681 0
M  V30 2204 H 195.608 -5.24032 -3.94623 0
M  V30 2205 H 195.525 -6.82552 -3.25051 0
M  V30 2206 H 196.793 -6.44907 -4.37853 0
M  V30 2207 N 201.022 0.148545 -1.56898 0
M  V30 2208 C 201.932 1.20293 -2.01412 0
M  V30 2209 C 202.948 1.47107 -0.929273 0
M  V30 2210 O 204.124 1.58807 -1.23863 0
M  V30 2211 C 201.189 2.51682 -2.38447 0
M  V30 2212 C 200.25 2.32529 -3.60872 0
M  V30 2213 C 199.483 3.57653 -3.96132 0
M  V30 2214 O 199.706 4.63771 -3.32073 0
M  V30 2215 O 198.64 3.50408 -4.89385 0
M  V30 2216 H 202.466 0.855025 -2.91416 0
M  V30 2217 H 200.051 0.357151 -1.45068 0
M  V30 2218 H 201.933 3.29147 -2.63135 0
M  V30 2219 H 200.608 2.86006 -1.51599 0
M  V30 2220 H 199.515 1.53019 -3.41373 0
M  V30 2221 H 200.848 2.03121 -4.48333 0
M  V30 2222 N 202.5 1.5196 0.417844 0
M  V30 2223 C 203.777 1.56146 1.17803 0
M  V30 2224 C 204.157 0.337275 2.08388 0
M  V30 2225 O 203.505 -0.676447 2.18258 0
M  V30 2226 C 203.715 2.88566 1.96293 0
M  V30 2227 C 205.063 3.41244 2.52662 0
M  V30 2228 O 206.087 2.90247 2.06483 0
M  V30 2229 O 204.946 4.30273 3.36938 0
M  V30 2230 H 202.04 0.628598 0.537395 0
M  V30 2231 H 204.586 1.64283 0.425331 0
M  V30 2232 H 203.358 3.69116 1.2988 0
M  V30 2233 H 202.981 2.83681 2.78587 0
M  V30 2234 N 203.978 -0.674533 1.42435 0
M  V30 2235 C 205.218 -1.4466 1.44405 0
M  V30 2236 C 205.582 -1.91911 0.0585784 0
M  V30 2237 O 206.783 -2.68759 -0.0469991 0
M  V30 2238 C 205.054 -2.61136 2.44013 0
M  V30 2239 S 206.613 -3.49981 2.64687 0
M  V30 2240 H 203.431 -0.494074 0.511284 0
M  V30 2241 H 206.033 -0.785162 1.7904 0
M  V30 2242 H 204.737 -2.24662 3.43446 0
M  V30 2243 H 204.268 -3.32153 2.10803 0
M  V30 2244 H 206.283 -4.57124 1.93007 0
M  V30 2245 N 205.456 -1.28612 -0.910864 0
M  V30 2246 C 206.366 -1.14643 -2.0468 0
M  V30 2247 C 207.382 -0.0723121 -1.7385 0
M  V30 2248 O 208.558 -0.282178 -1.99413 0
M  V30 2249 C 205.623 -0.812561 -3.37044 0
M  V30 2250 C 204.684 -1.96935 -3.81465 0
M  V30 2251 C 203.917 -1.65131 -5.07511 0
M  V30 2252 O 204.14 -0.567013 -5.67575 0
M  V30 2253 O 203.074 -2.49585 -5.47714 0
M  V30 2254 H 206.9 -2.1001 -2.19384 0
M  V30 2255 H 204.485 -1.07958 -1.03274 0
M  V30 2256 H 206.367 -0.640441 -4.16505 0
M  V30 2257 H 205.042 0.111426 -3.23508 0
M  V30 2258 H 203.949 -2.19664 -3.02818 0
M  V30 2259 H 205.282 -2.87414 -3.99567 0
M  V30 2260 N 206.934 1.1197 -1.10907 0
M  V30 2261 C 207.866 2.17592 -0.720175 0
M  V30 2262 C 208.879 1.60938 0.245495 0
M  V30 2263 O 210.068 1.78476 0.0292245 0
M  V30 2264 C 207.168 3.38873 -0.0427917 0
M  V30 2265 C 206.341 4.25006 -1.03388 0
M  V30 2266 C 205.4 5.24774 -0.387075 0
M  V30 2267 O 204.426 5.59631 -1.03934 0
M  V30 2268 N 205.628 5.74208 0.852407 0
M  V30 2269 H 208.393 2.51567 -1.62893 0
M  V30 2270 H 205.954 1.27439 -0.998543 0
M  V30 2271 H 207.946 4.02703 0.401501 0
M  V30 2272 H 206.516 3.03007 0.768456 0
M  V30 2273 H 205.736 3.57716 -1.65629 0
M  V30 2274 H 207.024 4.79397 -1.70458 0
M  V30 2275 H 206.422 5.48062 1.40161 0
M  V30 2276 H 204.979 6.39901 1.23977 0
M  V30 2277 N 208.412 0.89855 1.29475 0
M  V30 2278 C 209.658 0.534065 1.96263 0
M  V30 2279 C 210.013 -0.909415 1.69551 0
M  V30 2280 O 209.306 -1.63596 0.997349 0
M  V30 2281 C 209.5 0.761398 3.49195 0
M  V30 2282 C 209.329 2.22542 3.90775 0
M  V30 2283 C 208.099 2.87264 4.15701 0
M  V30 2284 C 210.297 3.20051 4.02581 0
M  V30 2285 N 208.279 4.24121 4.4384 0
M  V30 2286 C 209.65 4.42023 4.34759 0
M  V30 2287 C 211.705 3.15657 3.85052 0
M  V30 2288 C 210.408 5.60161 4.51235 0
M  V30 2289 C 212.434 4.33078 4.02737 0
M  V30 2290 C 211.796 5.5382 4.35273 0
M  V30 2291 H 207.895 0.245013 0.742625 0
M  V30 2292 H 210.479 1.15912 1.56437 0
M  V30 2293 H 208.65 0.165732 3.88046 0
M  V30 2294 H 210.382 0.362462 4.03074 0
M  V30 2295 H 207.137 2.38064 4.09417 0
M  V30 2296 H 207.561 4.94839 4.6202 0
M  V30 2297 H 212.203 2.23396 3.58962 0
M  V30 2298 H 209.921 6.52913 4.76162 0
M  V30 2299 H 213.507 4.31163 3.90628 0
M  V30 2300 H 212.387 6.43166 4.48672 0
M  V30 2301 N 209.89 -1.43072 0.660911 0
M  V30 2302 C 211.136 -2.02545 0.186337 0
M  V30 2303 C 211.491 -1.51253 -1.18913 0
M  V30 2304 O 210.784 -0.699167 -1.78388 0
M  V30 2305 C 210.978 -3.57103 0.145563 0
M  V30 2306 C 210.807 -4.23393 1.51554 0
M  V30 2307 C 209.577 -4.59144 2.10984 0
M  V30 2308 C 211.775 -4.51897 2.45548 0
M  V30 2309 N 209.757 -5.10545 3.40907 0
M  V30 2310 C 211.128 -5.04698 3.6011 0
M  V30 2311 C 213.183 -4.33872 2.44253 0
M  V30 2312 C 211.886 -5.41371 4.73613 0
M  V30 2313 C 213.912 -4.71612 3.56842 0
M  V30 2314 C 213.274 -5.24553 4.70131 0
M  V30 2315 H 209.373 -0.773823 0.112792 0
M  V30 2316 H 211.957 -1.74137 0.870885 0
M  V30 2317 H 210.128 -3.85059 -0.508353 0
M  V30 2318 H 211.86 -4.03264 -0.340598 0
M  V30 2319 H 208.615 -4.4444 1.63615 0
M  V30 2320 H 209.039 -5.40689 4.07411 0
M  V30 2321 H 213.681 -3.92208 1.579 0
M  V30 2322 H 211.399 -5.81975 5.60652 0
M  V30 2323 H 214.985 -4.59354 3.57051 0
M  V30 2324 H 213.865 -5.53213 5.5581 0
M  V30 2325 N 211.368 -0.403325 -1.52352 0
M  V30 2326 C 212.278 0.432009 -2.30588 0
M  V30 2327 C 213.294 1.05884 -1.38075 0
M  V30 2328 O 214.47 1.06161 -1.71148 0
M  V30 2329 C 211.535 1.53669 -3.10784 0
M  V30 2330 C 210.596 0.933525 -4.19027 0
M  V30 2331 C 209.829 1.98557 -4.9539 0
M  V30 2332 O 210.052 3.20283 -4.71991 0
M  V30 2333 O 208.986 1.59504 -5.80381 0
M  V30 2334 H 212.812 -0.205739 -3.03002 0
M  V30 2335 H 210.397 -0.166675 -1.48467 0
M  V30 2336 H 212.279 2.17814 -3.60742 0
M  V30 2337 H 210.954 2.15915 -2.41169 0
M  V30 2338 H 209.861 0.254954 -3.7323 0
M  V30 2339 H 211.194 0.35508 -4.90918 0
M  V30 2340 N 212.846 1.57033 -0.133567 0
M  V30 2341 C 214.123 1.87256 0.56522 0
M  V30 2342 C 214.503 1.03726 1.83859 0
M  V30 2343 O 213.851 0.120247 2.28183 0
M  V30 2344 C 214.061 3.3865 0.843636 0
M  V30 2345 C 215.409 4.07574 1.19032 0
M  V30 2346 O 216.433 3.43752 0.933429 0
M  V30 2347 O 215.292 5.20259 1.67312 0
M  V30 2348 H 212.386 0.775678 0.286796 0
M  V30 2349 H 214.932 1.68855 -0.169168 0
M  V30 2350 H 213.704 3.91257 -0.0581149 0
M  V30 2351 H 213.327 3.62532 1.63268 0
M  V30 2352 N 214.325 -0.140222 1.56975 0
M  V30 2353 C 215.565 -0.857823 1.85528 0
M  V30 2354 C 215.929 -1.78039 0.718768 0
M  V30 2355 O 217.13 -2.53795 0.885521 0
M  V30 2356 C 215.401 -1.60615 3.19277 0
M  V30 2357 S 216.96 -2.36824 3.69405 0
M  V30 2358 H 213.778 -0.286727 0.650622 0
M  V30 2359 H 216.38 -0.117408 1.95147 0
M  V30 2360 H 215.084 -0.919994 3.99955 0
M  V30 2361 H 214.615 -2.38735 3.12681 0
M  V30 2362 H 216.63 -3.62148 3.3921 0
M  V30 2363 N 215.803 -1.52179 -0.40978 0
M  V30 2364 C 217.219 -1.40968 -0.74835 0
M  V30 2365 C 217.419 -0.513657 -1.94843 0
M  V30 2366 O 216.475 0.0208026 -2.52491 0
M  V30 2367 C 217.788 -2.83483 -1.0029 0
M  V30 2368 C 219.336 -2.92821 -1.10565 0
M  V30 2369 C 219.811 -4.36303 -1.39296 0
M  V30 2370 N 221.302 -4.39535 -1.46162 0
M  V30 2371 C 222.037 -5.47614 -1.70018 0
M  V30 2372 N 221.533 -6.65812 -1.91483 0
M  V30 2373 N 223.326 -5.35129 -1.72027 0
M  V30 2374 H 215.477 -2.0897 0.380186 0
M  V30 2375 H 217.74 -0.94185 0.107805 0
M  V30 2376 H 217.446 -3.51168 -0.193461 0
M  V30 2377 H 217.32 -3.24487 -1.92323 0
M  V30 2378 H 219.707 -2.25318 -1.90568 0
M  V30 2379 H 219.788 -2.55276 -0.16369 0
M  V30 2380 H 219.432 -5.04366 -0.598109 0
M  V30 2381 H 219.362 -4.71385 -2.34743 0
M  V30 2382 H 221.853 -3.54332 -1.31367 0
M  V30 2383 H 222.166 -7.43964 -2.09134 0
M  V30 2384 H 220.511 -6.68879 -1.88749 0
M  V30 2385 H 223.702 -4.41764 -1.54796 0
M  V30 2386 H 223.875 -6.19433 -1.9028 0
M  V30 2387 N 217.281 0.66697 -1.42791 0
M  V30 2388 C 218.509 1.45505 -1.47091 0
M  V30 2389 C 218.924 1.8861 -0.0845873 0
M  V30 2390 O 218.281 1.58632 0.90234 0
M  V30 2391 C 218.332 2.69906 -2.40485 0
M  V30 2392 O 218.053 2.28608 -3.73725 0
M  V30 2393 C 219.554 3.63396 -2.53886 0
M  V30 2394 H 216.774 0.447459 -0.500022 0
M  V30 2395 H 219.318 0.818866 -1.8739 0
M  V30 2396 H 217.473 3.29696 -2.03419 0
M  V30 2397 H 217.887 3.08997 -4.23817 0
M  V30 2398 H 219.361 4.47387 -3.2334 0
M  V30 2399 H 219.838 4.09824 -1.57927 0
M  V30 2400 H 220.444 3.09495 -2.91706 0
M  V30 2401 N 218.759 1.29093 0.90403 0
M  V30 2402 C 219.984 1.19809 1.69294 0
M  V30 2403 C 220.409 -0.238481 1.86582 0
M  V30 2404 O 219.767 -1.1723 1.383 0
M  V30 2405 C 219.815 1.91202 3.05736 0
M  V30 2406 O 218.919 1.22611 3.93752 0
M  V30 2407 H 218.26 0.415385 0.518027 0
M  V30 2408 H 220.79 1.70586 1.12967 0
M  V30 2409 H 220.8 1.99487 3.55906 0
M  V30 2410 H 219.475 2.95692 2.92471 0
M  V30 2411 H 218.052 1.22554 3.52186 0
M  V30 2412 N 220.237 -1.11381 1.11499 0
M  V30 2413 C 221.467 -1.86663 0.885464 0
M  V30 2414 C 221.875 -1.80464 -0.568281 0
M  V30 2415 O 221.218 -1.18445 -1.40415 0
M  V30 2416 C 221.28 -3.36337 1.26956 0
M  V30 2417 C 220.944 -3.66304 2.73259 0
M  V30 2418 C 221.941 -3.63733 3.71476 0
M  V30 2419 C 219.626 -3.9529 3.09921 0
M  V30 2420 C 221.62 -3.89725 5.04374 0
M  V30 2421 C 219.307 -4.20941 4.43004 0
M  V30 2422 C 220.305 -4.18147 5.40039 0
M  V30 2423 O 219.993 -4.43153 6.70724 0
M  V30 2424 H 219.725 -0.597114 0.316908 0
M  V30 2425 H 222.279 -1.41782 1.48617 0
M  V30 2426 H 220.509 -3.81826 0.611999 0
M  V30 2427 H 222.198 -3.92986 1.01573 0
M  V30 2428 H 222.964 -3.41389 3.44498 0
M  V30 2429 H 218.843 -3.966 2.35009 0
M  V30 2430 H 222.387 -3.8746 5.80104 0
M  V30 2431 H 218.284 -4.42761 4.69716 0
M  V30 2432 H 219.052 -4.60717 6.76522 0
M  V30 2433 N 221.715 -0.905404 -1.28997 0
M  V30 2434 C 222.943 -0.549846 -1.9946 0
M  V30 2435 C 223.358 0.866834 -1.67724 0
M  V30 2436 O 222.715 1.57298 -0.925404 0
M  V30 2437 C 222.766 -0.739387 -3.53858 0
M  V30 2438 O 222.487 -2.10031 -3.84472 0
M  V30 2439 C 223.988 -0.389541 -4.41585 0
M  V30 2440 H 221.208 -0.210429 -0.637151 0
M  V30 2441 H 223.752 -1.21632 -1.64396 0
M  V30 2442 H 221.907 -0.120023 -3.87214 0
M  V30 2443 H 222.321 -2.13385 -4.79132 0
M  V30 2444 H 223.795 -0.572972 -5.49018 0
M  V30 2445 H 224.272 0.673756 -4.34001 0
M  V30 2446 H 224.878 -0.986089 -4.1371 0
M  V30 2447 N 223.193 1.4272 -0.668489 0
M  V30 2448 C 224.433 2.03497 -0.19194 0
M  V30 2449 C 224.797 1.51684 1.17712 0
M  V30 2450 O 225.998 2.04205 1.74796 0
M  V30 2451 C 224.269 3.56734 -0.218032 0
M  V30 2452 S 225.828 4.38395 0.188438 0
M  V30 2453 H 222.646 0.706542 -0.0794959 0
M  V30 2454 H 225.248 1.74563 -0.880235 0
M  V30 2455 H 223.952 3.91943 -1.2169 0
M  V30 2456 H 223.483 3.90333 0.490303 0
M  V30 2457 H 225.498 4.75345 1.42345 0
M  V30 2458 N 224.671 0.411399 1.52136 0
M  V30 2459 C 225.618 -0.412975 2.27075 0
M  V30 2460 C 226.588 -1.03912 1.29582 0
M  V30 2461 O 227.773 -1.06296 1.58448 0
M  V30 2462 C 224.913 -1.52247 3.09701 0
M  V30 2463 C 224.026 -0.917021 4.22155 0
M  V30 2464 C 223.161 -1.9994 4.92135 0
M  V30 2465 C 222.2 -1.37101 5.96548 0
M  V30 2466 N 221.337 -2.39364 6.60038 0
M  V30 2467 H 226.177 0.232499 2.97092 0
M  V30 2468 H 223.714 0.126496 1.46555 0
M  V30 2469 H 225.672 -2.17674 3.55913 0
M  V30 2470 H 224.302 -2.13794 2.41851 0
M  V30 2471 H 223.354 -0.151742 3.80097 0
M  V30 2472 H 224.666 -0.418006 4.97045 0
M  V30 2473 H 223.82 -2.73088 5.41763 0
M  V30 2474 H 222.559 -2.53208 4.16818 0
M  V30 2475 H 221.564 -0.624873 5.46237 0
M  V30 2476 H 222.789 -0.845998 6.7381 0
M  V30 2477 H 220.735 -2.91759 5.87548 0
M  V30 2478 H 220.652 -1.9428 7.3061 0
M  V30 2479 H 221.92 -3.12074 7.14304 0
M  V30 2480 N 226.149 -1.5696 0.141893 0
M  V30 2481 C 227.374 -2.00754 -0.520838 0
M  V30 2482 C 227.799 -1.0213 -1.57959 0
M  V30 2483 O 227.157 0.00371324 -1.813 0
M  V30 2484 C 227.205 -3.43318 -1.10294 0
M  V30 2485 O 226.309 -3.47679 -2.21795 0
M  V30 2486 H 225.65 -0.651564 -0.127908 0
M  V30 2487 H 228.18 -2.03221 0.23712 0
M  V30 2488 H 228.19 -3.82012 -1.43287 0
M  V30 2489 H 226.865 -4.14608 -0.327574 0
M  V30 2490 H 225.442 -3.20824 -1.9007 0
M  V30 2491 N 227.627 0.131896 -1.57047 0
M  V30 2492 C 228.575 1.18146 -2.0036 0
M  V30 2493 C 229.569 1.43614 -0.898406 0
M  V30 2494 O 230.775 1.43729 -1.08361 0
M  V30 2495 H 227.15 0.398042 -0.638018 0
M  V30 2496 H 229.121 0.789564 -2.87765 0
M  V30 2497 C 227.87 2.50341 -2.41298 0
M  V30 2498 H 227.193 2.31578 -3.25902 0
M  V30 2499 H 228.633 3.22371 -2.75414 0
M  V30 2500 C 227.092 3.11984 -1.27153 0
M  V30 2501 O 227.622 3.97484 -0.580459 0
M  V30 2502 N 225.828 2.71662 -1.03189 0
M  V30 2503 H 225.375 2.02231 -1.59564 0
M  V30 2504 H 225.333 3.13238 -0.270077 0
M  V30 2505 N 229.106 1.52395 0.401703 0
M  V30 2506 C 230.352 1.68019 1.14635 0
M  V30 2507 C 230.707 0.408722 1.88009 0
M  V30 2508 O 230 -0.597133 1.82057 0
M  V30 2509 C 230.194 2.84578 2.16217 0
M  V30 2510 C 230.023 4.22938 1.5282 0
M  V30 2511 C 228.793 4.88352 1.29772 0
M  V30 2512 C 230.991 5.04778 0.985094 0
M  V30 2513 N 228.973 6.10726 0.623455 0
M  V30 2514 C 230.344 6.1845 0.438172 0
M  V30 2515 C 232.399 4.90057 0.880275 0
M  V30 2516 C 231.102 7.19013 -0.203306 0
M  V30 2517 C 233.128 5.9086 0.252639 0
M  V30 2518 C 232.49 7.03829 -0.283573 0
M  V30 2519 H 228.589 0.668413 0.405892 0
M  V30 2520 H 231.173 1.89717 0.437674 0
M  V30 2521 H 229.344 2.64483 2.84435 0
M  V30 2522 H 231.076 2.89202 2.83098 0
M  V30 2523 H 227.831 4.46846 1.56926 0
M  V30 2524 H 228.255 6.76323 0.302733 0
M  V30 2525 H 232.897 4.02938 1.28065 0
M  V30 2526 H 230.615 8.05751 -0.615726 0
M  V30 2527 H 234.201 5.81543 0.172954 0
M  V30 2528 H 233.081 7.80493 -0.761575 0
M  V30 2529 N 230.584 -0.659388 1.43143 0
M  V30 2530 C 231.534 -1.7655 1.44271 0
M  V30 2531 C 232.518 -1.57847 0.311961 0
M  V30 2532 O 233.71 -1.68064 0.555306 0
M  V30 2533 C 230.839 -3.15104 1.36251 0
M  V30 2534 C 229.925 -3.39377 2.54331 0
M  V30 2535 N 230.316 -3.34153 3.79704 0
M  V30 2536 C 228.614 -3.70072 2.48922 0
M  V30 2537 C 229.315 -3.58337 4.58225 0
M  V30 2538 N 228.291 -3.79851 3.88863 0
M  V30 2539 H 232.093 -1.70928 2.39083 0
M  V30 2540 H 229.607 -0.860823 1.37708 0
M  V30 2541 H 231.604 -3.94389 1.35141 0
M  V30 2542 H 230.264 -3.21913 0.424531 0
M  V30 2543 H 231.275 -3.13704 4.1208 0
M  V30 2544 H 227.952 -3.84034 1.63781 0
M  V30 2545 H 229.342 -3.60129 5.67236 0
M  V30 2546 N 232.062 -1.29571 -0.897171 0
M  V30 2547 C 233.009 -1.14916 -2.00158 0
M  V30 2548 C 233.979 -0.0418149 -1.66047 0
M  V30 2549 O 235.164 -0.209793 -1.89643 0
M  V30 2550 C 232.304 -0.834307 -3.34863 0
M  V30 2551 C 231.417 -2.02234 -3.8174 0
M  V30 2552 C 230.552 -1.64664 -5.05034 0
M  V30 2553 C 229.591 -2.80033 -5.44286 0
M  V30 2554 N 228.728 -2.42843 -6.58765 0
M  V30 2555 H 233.568 -2.09403 -2.12025 0
M  V30 2556 H 231.105 -1.042 -1.0383 0
M  V30 2557 H 233.063 -0.632436 -4.12379 0
M  V30 2558 H 231.693 0.0736656 -3.22716 0
M  V30 2559 H 230.745 -2.33583 -3.00238 0
M  V30 2560 H 232.057 -2.88673 -4.06779 0
M  V30 2561 H 231.211 -1.4078 -5.9014 0
M  V30 2562 H 229.95 -0.753766 -4.8184 0
M  V30 2563 H 228.955 -3.04596 -4.57713 0
M  V30 2564 H 230.18 -3.69989 -5.6946 0
M  V30 2565 H 228.126 -1.56046 -6.3717 0
M  V30 2566 H 228.043 -3.22815 -6.83613 0
M  V30 2567 H 229.311 -2.22285 -7.47134 0
M  V30 2568 N 233.54 1.10788 -1.12088 0
M  V30 2569 C 234.788 1.8231 -0.872205 0
M  V30 2570 C 235.109 1.85419 0.603709 0
M  V30 2571 O 234.379 1.32963 1.43867 0
M  V30 2572 H 232.959 0.675137 -0.319686 0
M  V30 2573 H 235.621 1.34068 -1.41463 0
M  V30 2574 H 234.717 2.85955 -1.25045 0
M  V30 2575 N 235.018 0.912232 1.28515 0
M  V30 2576 C 236.264 0.554851 1.95686 0
M  V30 2577 C 236.619 -0.89138 1.70506 0
M  V30 2578 O 235.912 -1.62529 1.01464 0
M  V30 2579 C 236.106 0.798392 3.48368 0
M  V30 2580 C 235.935 2.26674 3.88393 0
M  V30 2581 C 234.705 2.91657 4.12631 0
M  V30 2582 C 236.903 3.24303 3.99164 0
M  V30 2583 N 234.885 4.28805 4.39317 0
M  V30 2584 C 236.256 4.4661 4.30046 0
M  V30 2585 C 238.311 3.19723 3.81683 0
M  V30 2586 C 237.014 5.64915 4.45268 0
M  V30 2587 C 239.04 4.37325 3.98121 0
M  V30 2588 C 238.402 5.58406 4.29375 0
M  V30 2589 H 234.501 0.252876 0.739985 0
M  V30 2590 H 237.085 1.17565 1.55199 0
M  V30 2591 H 235.256 0.20688 3.87849 0
M  V30 2592 H 236.988 0.405193 4.02666 0
M  V30 2593 H 233.743 2.42393 4.06869 0
M  V30 2594 H 234.167 4.99712 4.56746 0
M  V30 2595 H 238.809 2.27191 3.56573 0
M  V30 2596 H 236.527 6.57927 4.6921 0
M  V30 2597 H 240.113 4.35282 3.86033 0
M  V30 2598 H 238.993 6.47889 4.41825 0
M  V30 2599 N 236.496 -1.42363 0.676048 0
M  V30 2600 C 237.444 -2.32596 -0.0131507 0
M  V30 2601 C 238.438 -1.49891 -0.789238 0
M  V30 2602 O 239.644 -1.65955 -0.697061 0
M  V30 2603 H 236.019 -0.751647 -0.0230481 0
M  V30 2604 H 237.99 -2.88421 0.765243 0
M  V30 2605 C 236.739 -3.34479 -0.949702 0
M  V30 2606 H 236.062 -3.98158 -0.361938 0
M  V30 2607 H 237.502 -4.00199 -1.4006 0
M  V30 2608 C 235.961 -2.66838 -2.05667 0
M  V30 2609 O 236.491 -2.50124 -3.14326 0
M  V30 2610 N 234.697 -2.25843 -1.82875 0
M  V30 2611 H 234.244 -2.39637 -0.945085 0
M  V30 2612 H 234.202 -1.80918 -2.5713 0
M  V30 2613 N 237.974 -0.419461 -1.51915 0
M  V30 2614 C 239.22 0.145505 -2.02879 0
M  V30 2615 C 239.575 1.41926 -1.29903 0
M  V30 2616 O 238.868 1.87383 -0.399782 0
M  V30 2617 C 239.062 0.437067 -3.54717 0
M  V30 2618 C 238.891 -0.806877 -4.42402 0
M  V30 2619 C 237.661 -1.33514 -4.87342 0
M  V30 2620 C 239.859 -1.68796 -4.85811 0
M  V30 2621 N 237.841 -2.53349 -5.59185 0
M  V30 2622 C 239.212 -2.73247 -5.56539 0
M  V30 2623 C 241.267 -1.70449 -4.67816 0
M  V30 2624 C 239.97 -3.79276 -6.11181 0
M  V30 2625 C 241.996 -2.75403 -5.23361 0
M  V30 2626 C 241.358 -3.78575 -5.9402 0
M  V30 2627 H 237.457 0.0145424 -0.781865 0
M  V30 2628 H 240.041 -0.576126 -1.85981 0
M  V30 2629 H 238.212 1.12774 -3.71667 0
M  V30 2630 H 239.944 0.99182 -3.92358 0
M  V30 2631 H 236.699 -0.891657 -4.65131 0
M  V30 2632 H 237.123 -3.14066 -5.99743 0
M  V30 2633 H 241.765 -0.920209 -4.12664 0
M  V30 2634 H 239.483 -4.58554 -6.65397 0
M  V30 2635 H 243.069 -2.77603 -5.113 0
M  V30 2636 H 241.949 -4.58453 -6.36231 0
M  V30 2637 N 239.452 1.56882 -0.150215 0
M  V30 2638 C 240.68 2.00593 0.506948 0
M  V30 2639 C 241.095 1.03033 1.58208 0
M  V30 2640 O 240.452 0.0278396 1.82479 0
M  V30 2641 C 240.503 3.44209 1.10465 0
M  V30 2642 O 240.224 4.3804 0.0724636 0
M  V30 2643 C 241.725 4.03214 1.84211 0
M  V30 2644 H 238.945 0.65795 0.13169 0
M  V30 2645 H 241.489 2.03018 -0.245743 0
M  V30 2646 H 239.644 3.42625 1.80795 0
M  V30 2647 H 240.058 5.22007 0.510793 0
M  V30 2648 H 241.532 5.0569 2.21318 0
M  V30 2649 H 242.009 3.44107 2.72923 0
M  V30 2650 H 242.615 4.08437 1.18572 0
M  V30 2651 N 240.93 -0.123565 1.57115 0
M  V30 2652 C 242.155 -0.850398 1.89164 0
M  V30 2653 C 242.58 -1.7286 0.741688 0
M  V30 2654 O 241.938 -1.78665 -0.307958 0
M  V30 2655 C 241.986 -1.66353 3.19936 0
M  V30 2656 O 241.09 -2.77004 3.0552 0
M  V30 2657 H 240.431 -0.235454 0.620852 0
M  V30 2658 H 242.961 -0.107335 2.04318 0
M  V30 2659 H 242.971 -2.05372 3.52543 0
M  V30 2660 H 241.646 -1.01881 4.03228 0
M  V30 2661 H 240.223 -2.41221 2.84371 0
M  V30 2662 N 242.408 -1.52605 -0.393616 0
M  V30 2663 C 243.656 -1.67093 -1.13685 0
M  V30 2664 C 243.977 -0.411011 -1.90619 0
M  V30 2665 O 243.247 0.574491 -1.87287 0
M  V30 2666 H 241.827 -0.615923 -0.422668 0
M  V30 2667 H 244.489 -1.89704 -0.447039 0
M  V30 2668 H 243.585 -2.51922 -1.84232 0
M  V30 2669 N 243.887 0.651787 -1.4349 0
M  V30 2670 C 245.134 1.41167 -1.45183 0
M  V30 2671 C 245.462 1.94349 -0.0766601 0
M  V30 2672 O 244.717 1.72804 0.918555 0
M  V30 2673 C 245.016 2.60914 -2.44251 0
M  V30 2674 C 244.682 2.26142 -3.9009 0
M  V30 2675 C 243.344 2.16371 -4.2981 0
M  V30 2676 C 245.696 1.98334 -4.81989 0
M  V30 2677 C 243.024 1.7695 -5.5938 0
M  V30 2678 C 245.376 1.6041 -6.11924 0
M  V30 2679 C 244.04 1.49166 -6.5062 0
M  V30 2680 H 243.31 0.516566 -0.531263 0
M  V30 2681 H 245.957 0.741099 -1.76579 0
M  V30 2682 H 244.262 3.3311 -2.06265 0
M  V30 2683 H 245.959 3.19127 -2.42815 0
M  V30 2684 H 242.549 2.34658 -3.58655 0
M  V30 2685 H 246.733 2.04803 -4.52072 0
M  V30 2686 H 241.989 1.66831 -5.88198 0
M  V30 2687 H 246.163 1.37925 -6.82605 0
M  V30 2688 H 243.79 1.1839 -7.50925 0
M  V30 2689 N 245.365 1.30045 0.890287 0
M  V30 2690 C 246.313 1.15873 2.01683 0
M  V30 2691 C 247.307 0.0719403 1.69247 0
M  V30 2692 O 248.513 0.232414 1.78493 0
M  V30 2693 H 244.888 0.358203 0.661207 0
M  V30 2694 H 246.859 2.11229 2.10772 0
M  V30 2695 C 245.608 0.861842 3.36849 0
M  V30 2696 H 244.931 1.69016 3.62317 0
M  V30 2697 H 246.371 0.802762 4.16331 0
M  V30 2698 C 244.83 -0.435132 3.34078 0
M  V30 2699 O 245.36 -1.4583 3.74295 0
M  V30 2700 N 243.566 -0.444377 2.87182 0
M  V30 2701 H 243.113 0.388723 2.5465 0
M  V30 2702 H 243.071 -1.31213 2.85711 0
M  V30 2703 N 246.843 -1.10192 1.12674 0
M  V30 2704 C 247.79 -2.16606 0.796906 0
M  V30 2705 C 248.76 -1.64394 -0.237476 0
M  V30 2706 O 249.945 -1.90474 -0.111484 0
M  V30 2707 C 247.085 -3.44116 0.26043 0
M  V30 2708 C 246.198 -4.10268 1.35293 0
M  V30 2709 C 245.333 -5.25507 0.775621 0
M  V30 2710 C 244.372 -5.83567 1.84706 0
M  V30 2711 N 243.509 -6.90179 1.28829 0
M  V30 2712 H 248.349 -2.44163 1.70846 0
M  V30 2713 H 245.886 -1.19846 0.85295 0
M  V30 2714 H 247.844 -4.17143 -0.0686814 0
M  V30 2715 H 246.474 -3.16901 -0.614274 0
M  V30 2716 H 245.526 -3.35184 1.79877 0
M  V30 2717 H 246.838 -4.4946 2.16303 0
M  V30 2718 H 245.992 -6.05398 0.397327 0
M  V30 2719 H 244.731 -4.87656 -0.0656581 0
M  V30 2720 H 243.736 -5.02344 2.23452 0
M  V30 2721 H 244.961 -6.23482 2.69161 0
M  V30 2722 H 242.907 -6.54322 0.468881 0
M  V30 2723 H 242.824 -7.28097 2.03497 0
M  V30 2724 H 244.092 -7.73844 0.937311 0
M  V30 2725 N 248.321 -0.919034 -1.28029 0
M  V30 2726 C 249.561 -0.562107 -1.96519 0
M  V30 2727 C 249.925 0.878784 -1.70708 0
M  V30 2728 O 251.126 1.34355 -2.32813 0
M  V30 2729 C 249.397 -0.868953 -3.46676 0
M  V30 2730 S 250.956 -0.619237 -4.34409 0
M  V30 2731 H 247.774 -0.2078 -0.679956 0
M  V30 2732 H 250.376 -1.18562 -1.55446 0
M  V30 2733 H 249.08 -1.91547 -3.62957 0
M  V30 2734 H 248.611 -0.234301 -3.92702 0
M  V30 2735 H 250.626 0.526995 -4.93394 0
M  V30 2736 N 249.799 1.42003 -0.683588 0
M  V30 2737 C 250.762 2.29191 -0.0198243 0
M  V30 2738 C 251.762 1.43773 0.72013 0
M  V30 2739 O 252.952 1.65061 0.556815 0
M  V30 2740 C 250.084 3.26435 0.982487 0
M  V30 2741 H 251.277 2.8938 -0.787345 0
M  V30 2742 H 248.83 1.49789 -0.446418 0
M  V30 2743 H 249.565 2.71203 1.77819 0
M  V30 2744 H 249.35 3.89449 0.455182 0
M  V30 2745 H 250.84 3.918 1.44508 0
M  V30 2746 N 251.277 0.427512 1.51691 0
M  V30 2747 C 252.523 -0.142439 2.02299 0
M  V30 2748 C 252.856 -1.43214 1.31162 0
M  V30 2749 O 252.131 -1.89833 0.423511 0
M  V30 2750 C 252.414 -0.371301 3.58181 0
M  V30 2751 C 252.267 0.936358 4.39946 0
M  V30 2752 C 253.586 -1.14542 4.24933 0
M  V30 2753 H 250.705 -0.0502937 0.735282 0
M  V30 2754 H 253.347 0.564584 1.81418 0
M  V30 2755 H 251.497 -0.973559 3.76104 0
M  V30 2756 H 253.169 1.57184 4.33694 0
M  V30 2757 H 251.412 1.5432 4.05423 0
M  V30 2758 H 252.083 0.730388 5.47147 0
M  V30 2759 H 254.559 -0.635362 4.11221 0
M  V30 2760 H 253.435 -1.27431 5.33903 0
M  V30 2761 H 253.696 -2.17093 3.85127 0
M  V30 2762 N 252.755 -1.56801 0.158532 0
M  V30 2763 C 254.003 -1.96102 -0.488712 0
M  V30 2764 C 254.324 -1.04498 -1.64636 0
M  V30 2765 O 253.594 -0.108783 -1.95598 0
M  V30 2766 H 252.174 -0.724102 -0.183535 0
M  V30 2767 H 254.836 -1.93457 0.236728 0
M  V30 2768 H 253.932 -3.00097 -0.857219 0
M  V30 2769 N 254.233 0.115231 -1.57178 0
M  V30 2770 C 255.196 1.12526 -1.99676 0
M  V30 2771 C 256.196 1.34095 -0.88742 0
M  V30 2772 O 257.386 1.30548 -1.15337 0
M  V30 2773 C 254.518 2.4789 -2.34015 0
M  V30 2774 H 255.711 0.759912 -2.90113 0
M  V30 2775 H 253.264 0.359648 -1.52106 0
M  V30 2776 H 253.999 2.89339 -1.4647 0
M  V30 2777 H 253.784 2.33588 -3.14927 0
M  V30 2778 H 255.274 3.20575 -2.67622 0
M  V30 2779 N 255.711 1.52812 0.385517 0
M  V30 2780 C 256.674 1.77188 1.45386 0
M  V30 2781 C 257.674 0.641953 1.4743 0
M  V30 2782 O 258.864 0.910033 1.4854 0
M  V30 2783 C 255.996 1.87582 2.8465 0
M  V30 2784 H 257.189 2.72583 1.25054 0
M  V30 2785 H 254.742 1.43586 0.617467 0
M  V30 2786 H 255.477 0.941849 3.10322 0
M  V30 2787 H 255.262 2.69748 2.84567 0
M  V30 2788 H 256.752 2.08102 3.62054 0
M  V30 2789 N 257.189 -0.644168 1.43834 0
M  V30 2790 C 258.429 -1.41565 1.47441 0
M  V30 2791 C 258.793 -1.91743 0.0992723 0
M  V30 2792 O 259.994 -2.68798 0.0100192 0
M  V30 2793 C 258.265 -2.55902 2.49498 0
M  V30 2794 S 259.824 -3.44287 2.72051 0
M  V30 2795 H 256.642 -0.483118 0.521649 0
M  V30 2796 H 259.244 -0.747008 1.80666 0
M  V30 2797 H 257.948 -2.17327 3.48134 0
M  V30 2798 H 257.479 -3.27607 2.17801 0
M  V30 2799 H 259.494 -4.52927 2.0266 0
M  V30 2800 N 258.668 -1.30515 -0.883378 0
M  V30 2801 C 259.6 -1.12846 -1.99496 0
M  V30 2802 C 260.613 -0.0712571 -1.62644 0
M  V30 2803 O 261.802 -0.317432 -1.75655 0
M  V30 2804 C 258.902 -0.699123 -3.3161 0
M  V30 2805 C 258.075 -1.83842 -3.96889 0
M  V30 2806 C 257.134 -1.39737 -5.07307 0
M  V30 2807 O 256.16 -2.10485 -5.28852 0
M  V30 2808 N 257.362 -0.277279 -5.79837 0
M  V30 2809 H 260.127 -2.08585 -2.15203 0
M  V30 2810 H 257.688 -1.22672 -1.05656 0
M  V30 2811 H 259.68 -0.387044 -4.02845 0
M  V30 2812 H 258.25 0.166276 -3.12157 0
M  V30 2813 H 257.47 -2.31853 -3.18807 0
M  V30 2814 H 258.758 -2.60187 -4.37241 0
M  V30 2815 H 258.156 0.3122 -5.64838 0
M  V30 2816 H 256.713 -0.0246623 -6.51795 0
M  V30 2817 N 260.146 1.09593 -1.13257 0
M  V30 2818 C 261.557 1.63229 -0.906274 0
M  V30 2819 C 261.908 1.8811 0.557578 0
M  V30 2820 O 261.033 1.62953 1.42391 0
M  V30 2821 C 261.628 2.96535 -1.63867 0
M  V30 2822 C 260.187 3.47003 -1.45828 0
M  V30 2823 C 259.334 2.2145 -1.66898 0
M  V30 2824 H 262.285 0.92978 -1.28611 0
M  V30 2825 H 262.306 3.64411 -1.09476 0
M  V30 2826 H 261.818 2.78394 -2.70404 0
M  V30 2827 H 259.919 3.70272 -0.415848 0
M  V30 2828 H 260.032 4.24551 -2.2202 0
M  V30 2829 H 258.396 2.30022 -1.09371 0
M  V30 2830 H 259.179 2.0583 -2.74752 0
M  V30 2831 N 261.624 0.925811 1.2754 0
M  V30 2832 C 262.871 0.565255 1.94451 0
M  V30 2833 C 263.199 -0.89316 1.7278 0
M  V30 2834 O 262.454 -1.65213 1.04895 0
M  V30 2835 C 262.753 0.835296 3.47502 0
M  V30 2836 C 262.419 2.27515 3.89291 0
M  V30 2837 C 261.081 2.66879 4.00411 0
M  V30 2838 C 263.433 3.21158 4.10496 0
M  V30 2839 C 260.761 3.99014 4.30122 0
M  V30 2840 C 263.113 4.52871 4.4169 0
M  V30 2841 C 261.777 4.92072 4.51023 0
M  V30 2842 H 261.047 0.206841 0.711546 0
M  V30 2843 H 263.694 1.16942 1.51647 0
M  V30 2844 H 261.999 0.148442 3.91519 0
M  V30 2845 H 263.696 0.535322 3.97411 0
M  V30 2846 H 260.286 1.95976 3.81171 0
M  V30 2847 H 264.47 2.9195 4.01346 0
M  V30 2848 H 259.726 4.2907 4.35556 0
M  V30 2849 H 263.9 5.25436 4.57045 0
M  V30 2850 H 261.527 5.9449 4.738 0
M  V30 2851 N 263.102 -1.41638 0.69111 0
M  V30 2852 C 264.052 -2.28 -0.000107832 0
M  V30 2853 C 265.036 -1.41964 -0.757304 0
M  V30 2854 O 266.228 -1.65274 -0.633532 0
M  V30 2855 C 263.357 -3.30209 -0.938983 0
M  V30 2856 C 262.443 -4.23725 -0.17827 0
M  V30 2857 N 262.834 -4.99017 0.825563 0
M  V30 2858 C 261.132 -4.44071 -0.414392 0
M  V30 2859 C 261.833 -5.67431 1.28052 0
M  V30 2860 N 260.809 -5.40197 0.607304 0
M  V30 2861 H 264.611 -2.83644 0.769617 0
M  V30 2862 H 262.125 -1.53797 0.521562 0
M  V30 2863 H 264.122 -3.90898 -1.44929 0
M  V30 2864 H 262.782 -2.76126 -1.70836 0
M  V30 2865 H 263.793 -5.03671 1.20566 0
M  V30 2866 H 260.47 -4.01004 -1.162 0
M  V30 2867 H 261.86 -6.37801 2.11327 0
M  V30 2868 N 264.58 -0.43555 -1.51462 0
M  V30 2869 C 265.827 0.131514 -2.02072 0
M  V30 2870 C 266.155 1.42868 -1.31981 0
M  V30 2871 O 265.41 1.91076 -0.422883 0
M  V30 2872 C 265.709 0.39942 -3.55161 0
M  V30 2873 C 265.375 -0.81172 -4.43533 0
M  V30 2874 C 264.037 -1.14387 -4.67407 0
M  V30 2875 C 266.389 -1.61976 -4.95392 0
M  V30 2876 C 263.717 -2.28477 -5.40384 0
M  V30 2877 C 266.069 -2.75164 -5.6962 0
M  V30 2878 C 264.733 -3.08835 -5.91758 0
M  V30 2879 H 264.003 0.0481244 -0.739436 0
M  V30 2880 H 266.65 -0.58238 -1.8243 0
M  V30 2881 H 264.955 1.19519 -3.73125 0
M  V30 2882 H 266.652 0.85157 -3.91854 0
M  V30 2883 H 263.242 -0.542898 -4.25148 0
M  V30 2884 H 267.426 -1.37637 -4.76833 0
M  V30 2885 H 262.682 -2.5488 -5.55739 0
M  V30 2886 H 266.856 -3.38147 -6.08793 0
M  V30 2887 H 264.483 -3.97353 -6.48086 0
M  V30 2888 N 266.058 1.56714 -0.166846 0
M  V30 2889 C 267.288 2.00828 0.48494 0
M  V30 2890 C 267.696 1.04612 1.57648 0
M  V30 2891 O 267.039 0.0383201 1.8366 0
M  V30 2892 C 267.101 3.4137 1.12723 0
M  V30 2893 C 266.765 4.56654 0.177886 0
M  V30 2894 C 267.762 5.16402 -0.60207 0
M  V30 2895 C 265.447 5.02244 0.0750139 0
M  V30 2896 C 267.441 6.20167 -1.47215 0
M  V30 2897 C 265.128 6.05859 -0.798649 0
M  V30 2898 C 266.126 6.64691 -1.57082 0
M  V30 2899 O 265.814 7.66297 -2.42989 0
M  V30 2900 H 265.546 0.663587 0.128953 0
M  V30 2901 H 268.1 2.03692 -0.264365 0
M  V30 2902 H 266.33 3.35406 1.92457 0
M  V30 2903 H 268.019 3.69466 1.68076 0
M  V30 2904 H 268.785 4.82065 -0.53274 0
M  V30 2905 H 264.664 4.56167 0.665812 0
M  V30 2906 H 268.208 6.66016 -2.07531 0
M  V30 2907 H 264.105 6.39621 -0.869199 0
M  V30 2908 H 264.873 7.83601 -2.36455 0
M  V30 2909 N 267.536 -0.106894 1.57237 0
M  V30 2910 C 268.783 -0.812526 1.85484 0
M  V30 2911 C 269.111 -1.79304 0.753687 0
M  V30 2912 O 268.366 -1.94047 -0.253853 0
M  V30 2913 C 268.665 -1.58628 3.20268 0
M  V30 2914 C 268.331 -0.748967 4.44636 0
M  V30 2915 C 266.993 -0.518104 4.78403 0
M  V30 2916 C 269.345 -0.166122 5.20935 0
M  V30 2917 C 266.673 0.305659 5.85903 0
M  V30 2918 C 269.025 0.644899 6.29304 0
M  V30 2919 C 267.689 0.885965 6.61594 0
M  V30 2920 H 266.959 -0.297324 0.678734 0
M  V30 2921 H 269.606 -0.0744332 1.91355 0
M  V30 2922 H 267.911 -2.39562 3.10028 0
M  V30 2923 H 269.608 -2.13643 3.39349 0
M  V30 2924 H 266.198 -0.939006 4.18187 0
M  V30 2925 H 270.382 -0.33167 4.95191 0
M  V30 2926 H 265.638 0.501528 6.0934 0
M  V30 2927 H 269.812 1.10345 6.87602 0
M  V30 2928 H 267.439 1.52609 7.44725 0
M  V30 2929 N 269.014 -1.53014 -0.377408 0
M  V30 2930 C 270.425 -1.60438 -0.954798 0
M  V30 2931 C 270.776 -0.464418 -1.90624 0
M  V30 2932 O 269.901 0.41087 -2.12464 0
M  V30 2933 C 270.496 -2.90797 -1.73847 0
M  V30 2934 C 269.055 -3.00595 -2.26538 0
M  V30 2935 C 268.202 -2.55645 -1.07429 0
M  V30 2936 H 271.153 -1.57926 -0.156575 0
M  V30 2937 H 271.174 -2.77935 -2.5987 0
M  V30 2938 H 270.686 -3.73746 -1.04574 0
M  V30 2939 H 268.787 -2.22208 -2.99089 0
M  V30 2940 H 268.9 -4.05456 -2.5523 0
M  V30 2941 H 267.264 -2.10239 -1.43777 0
M  V30 2942 H 268.047 -3.41 -0.396728 0
M  V30 2943 N 270.492 0.636531 -1.44174 0
M  V30 2944 C 271.72 1.42353 -1.50144 0
M  V30 2945 C 272.135 1.88389 -0.124575 0
M  V30 2946 O 271.492 1.6051 0.868489 0
M  V30 2947 C 271.543 2.64744 -2.46156 0
M  V30 2948 O 271.264 2.20629 -3.7849 0
M  V30 2949 C 272.765 3.57929 -2.61537 0
M  V30 2950 H 269.985 0.436752 -0.5094 0
M  V30 2951 H 272.529 0.778933 -1.89084 0
M  V30 2952 H 270.684 3.25307 -2.10366 0
M  V30 2953 H 271.098 2.99938 -4.30276 0
M  V30 2954 H 272.572 4.40428 -3.32757 0
M  V30 2955 H 273.049 4.06382 -1.66585 0
M  V30 2956 H 273.655 3.03238 -2.98206 0
M  V30 2957 N 271.97 1.30982 0.876444 0
M  V30 2958 C 273.381 1.18277 1.44456 0
M  V30 2959 C 273.732 -0.213265 1.95037 0
M  V30 2960 O 272.857 -1.11057 1.85729 0
M  V30 2961 C 273.452 2.1411 2.62569 0
M  V30 2962 C 272.011 2.05358 3.15444 0
M  V30 2963 C 271.158 2.03706 1.88146 0
M  V30 2964 H 274.109 1.43127 0.685584 0
M  V30 2965 H 274.13 1.72692 3.39054 0
M  V30 2966 H 273.642 3.15706 2.25724 0
M  V30 2967 H 271.743 1.06934 3.56926 0
M  V30 2968 H 271.856 2.94156 3.78166 0
M  V30 2969 H 270.22 1.48629 2.06837 0
M  V30 2970 H 271.003 3.07047 1.53547 0
M  V30 2971 N 273.449 -1.08991 1.13837 0
M  V30 2972 C 274.677 -1.85011 0.926202 0
M  V30 2973 C 275.092 -1.8135 -0.525127 0
M  V30 2974 O 274.449 -1.21287 -1.36366 0
M  V30 2975 C 274.5 -3.32802 1.41155 0
M  V30 2976 O 274.221 -3.36444 2.80601 0
M  V30 2977 C 275.722 -4.25649 1.23847 0
M  V30 2978 H 272.942 -0.584249 0.32999 0
M  V30 2979 H 275.486 -1.37688 1.51202 0
M  V30 2980 H 273.641 -3.77536 0.868631 0
M  V30 2981 H 274.055 -4.28657 3.02248 0
M  V30 2982 H 275.529 -5.27485 1.62675 0
M  V30 2983 H 276.006 -4.38828 0.18065 0
M  V30 2984 H 276.612 -3.86735 1.76964 0
M  V30 2985 N 274.927 -0.932562 -1.27047 0
M  V30 2986 C 276.173 -0.576412 -1.94436 0
M  V30 2987 C 276.506 0.880891 -1.73072 0
M  V30 2988 O 275.781 1.62905 -1.06264 0
M  V30 2989 C 276.064 -0.909031 -3.48437 0
M  V30 2990 C 275.917 -2.42044 -3.79123 0
M  V30 2991 C 277.236 -0.418341 -4.38107 0
M  V30 2992 H 274.355 -0.210888 -0.706184 0
M  V30 2993 H 276.997 -1.16522 -1.50075 0
M  V30 2994 H 275.147 -0.407947 -3.86352 0
M  V30 2995 H 276.819 -2.99359 -3.50973 0
M  V30 2996 H 275.062 -2.86758 -3.25503 0
M  V30 2997 H 275.733 -2.6037 -4.86736 0
M  V30 2998 H 278.209 -0.847856 -4.0737 0
M  V30 2999 H 277.085 -0.679981 -5.44672 0
M  V30 3000 H 277.346 0.681642 -4.36814 0
M  V30 3001 N 276.405 1.4127 -0.698611 0
M  V30 3002 C 277.335 2.33447 -0.049629 0
M  V30 3003 C 278.316 1.51982 0.763898 0
M  V30 3004 O 279.501 1.80509 0.716257 0
M  V30 3005 C 276.631 3.35828 0.885267 0
M  V30 3006 C 275.585 4.27627 0.178613 0
M  V30 3007 C 274.911 5.20406 1.22807 0
M  V30 3008 C 276.211 5.13459 -0.956933 0
M  V30 3009 H 277.905 2.87966 -0.81951 0
M  V30 3010 H 275.451 1.38461 -0.395538 0
M  V30 3011 H 277.404 3.9924 1.34854 0
M  V30 3012 H 276.128 2.79666 1.68685 0
M  V30 3013 H 274.787 3.65643 -0.26466 0
M  V30 3014 H 274.435 4.60558 2.02226 0
M  V30 3015 H 274.135 5.82661 0.760239 0
M  V30 3016 H 275.659 5.86695 1.69179 0
M  V30 3017 H 277.073 5.70421 -0.573805 0
M  V30 3018 H 275.47 5.8467 -1.35205 0
M  V30 3019 H 276.54 4.50443 -1.79524 0
M  V30 3020 N 277.883 0.443576 1.51229 0
M  V30 3021 C 279.123 -0.119889 2.04048 0
M  V30 3022 C 279.487 -1.39418 1.32009 0
M  V30 3023 O 280.688 -2.03829 1.75235 0
M  V30 3024 C 278.959 -0.327233 3.55899 0
M  V30 3025 S 280.518 -0.853208 4.30425 0
M  V30 3026 H 277.336 -0.028921 0.710412 0
M  V30 3027 H 279.938 0.604413 1.85922 0
M  V30 3028 H 278.642 0.606445 4.05895 0
M  V30 3029 H 278.173 -1.07844 3.7833 0
M  V30 3030 H 280.188 -2.13005 4.48155 0
M  V30 3031 N 279.361 -1.56624 0.175154 0
M  V30 3032 C 280.309 -2.19468 -0.770495 0
M  V30 3033 C 281.303 -1.15985 -1.23466 0
M  V30 3034 O 282.509 -1.34176 -1.19987 0
M  V30 3035 H 278.884 -0.703095 -0.266761 0
M  V30 3036 H 280.855 -2.97613 -0.216542 0
M  V30 3037 C 279.604 -2.85264 -1.98796 0
M  V30 3038 H 278.927 -3.64623 -1.63983 0
M  V30 3039 H 280.367 -3.327 -2.62843 0
M  V30 3040 C 278.826 -1.85239 -2.81404 0
M  V30 3041 O 279.356 -1.34024 -3.78682 0
M  V30 3042 N 277.562 -1.53911 -2.46495 0
M  V30 3043 H 277.109 -1.95751 -1.67449 0
M  V30 3044 H 277.067 -0.872382 -3.02054 0
M  V30 3045 N 280.839 0.0985539 -1.57292 0
M  V30 3046 C 281.749 1.13824 -2.05137 0
M  V30 3047 C 282.765 1.44076 -0.975604 0
M  V30 3048 O 283.941 1.54786 -1.28853 0
M  V30 3049 C 281.006 2.43969 -2.46333 0
M  V30 3050 C 280.067 2.2093 -3.68087 0
M  V30 3051 C 279.3 3.44869 -4.0731 0
M  V30 3052 O 279.523 4.52972 -3.46659 0
M  V30 3053 O 278.457 3.34661 -5.00285 0
M  V30 3054 H 282.283 0.761881 -2.93988 0
M  V30 3055 H 279.868 0.310818 -1.46131 0
M  V30 3056 H 281.75 3.20609 -2.73473 0
M  V30 3057 H 280.425 2.81038 -1.60621 0
M  V30 3058 H 279.332 1.42081 -3.46069 0
M  V30 3059 H 280.665 1.88755 -4.54568 0
M  V30 3060 N 282.317 1.53212 0.369288 0
M  V30 3061 C 283.566 1.68436 1.10961 0
M  V30 3062 C 283.879 0.440738 1.9057 0
M  V30 3063 O 285.085 0.473446 2.6734 0
M  V30 3064 C 283.541 2.97744 2.0218 0
M  V30 3065 C 283.149 4.29355 1.279 0
M  V30 3066 C 284.893 3.22334 2.76226 0
M  V30 3067 C 282.8 5.49755 2.17999 0
M  V30 3068 H 281.73 0.627568 0.41794 0
M  V30 3069 H 284.381 1.79713 0.370884 0
M  V30 3070 H 282.763 2.8026 2.79768 0
M  V30 3071 H 283.937 4.57458 0.554007 0
M  V30 3072 H 282.252 4.11179 0.657311 0
M  V30 3073 H 284.849 4.09471 3.43857 0
M  V30 3074 H 285.192 2.38238 3.41392 0
M  V30 3075 H 285.725 3.40475 2.05723 0
M  V30 3076 H 282.464 6.36318 1.57417 0
M  V30 3077 H 281.984 5.25937 2.88359 0
M  V30 3078 H 283.663 5.84401 2.77641 0
M  V30 3079 N 283.795 -0.628877 1.44509 0
M  V30 3080 C 285.041 -1.38863 1.48623 0
M  V30 3081 C 285.396 -1.92038 0.117933 0
M  V30 3082 O 284.689 -1.70853 -0.86716 0
M  V30 3083 C 284.883 -2.56995 2.48371 0
M  V30 3084 C 284.712 -2.15385 3.94765 0
M  V30 3085 C 283.482 -2.02558 4.62924 0
M  V30 3086 C 285.68 -1.74158 4.83915 0
M  V30 3087 N 283.662 -1.54534 5.94132 0
M  V30 3088 C 285.033 -1.37396 6.04584 0
M  V30 3089 C 287.088 -1.61559 4.7096 0
M  V30 3090 C 285.791 -0.892948 7.13736 0
M  V30 3091 C 287.817 -1.14862 5.80139 0
M  V30 3092 C 287.179 -0.790516 6.9995 0
M  V30 3093 H 283.278 -0.502858 0.59888 0
M  V30 3094 H 285.862 -0.72121 1.8085 0
M  V30 3095 H 284.033 -3.21362 2.1813 0
M  V30 3096 H 285.765 -3.23801 2.42766 0
M  V30 3097 H 282.52 -2.23082 4.1777 0
M  V30 3098 H 282.944 -1.32815 6.63844 0
M  V30 3099 H 287.586 -1.87876 3.78764 0
M  V30 3100 H 285.304 -0.617291 8.05739 0
M  V30 3101 H 288.89 -1.05569 5.72142 0
M  V30 3102 H 287.77 -0.434713 7.82994 0
M  V30 3103 N 285.273 -1.31445 -0.869486 0
M  V30 3104 C 286.501 -1.24122 -1.65534 0
M  V30 3105 C 286.916 0.193387 -1.87807 0
M  V30 3106 O 286.273 1.12557 -1.43656 0
M  V30 3107 C 286.324 -1.98229 -3.02304 0
M  V30 3108 O 286.045 -3.3609 -2.81026 0
M  V30 3109 C 287.546 -1.97751 -3.96749 0
M  V30 3110 H 284.766 -0.428868 -0.516055 0
M  V30 3111 H 287.31 -1.73328 -1.08525 0
M  V30 3112 H 285.465 -1.52782 -3.56001 0
M  V30 3113 H 285.879 -3.7383 -3.67902 0
M  V30 3114 H 287.353 -2.54114 -4.90031 0
M  V30 3115 H 287.83 -0.960137 -4.28577 0
M  V30 3116 H 288.436 -2.43079 -3.48988 0
M  V30 3117 N 286.751 1.08385 -1.14413 0
M  V30 3118 C 287.701 2.13509 -0.79987 0
M  V30 3119 C 288.685 1.5951 0.211059 0
M  V30 3120 O 289.877 1.76995 0.0133694 0
M  V30 3121 C 287.006 3.42162 -0.279297 0
M  V30 3122 C 286.092 4.03042 -1.31976 0
M  V30 3123 N 286.483 4.38327 -2.52395 0
M  V30 3124 C 284.781 4.30379 -1.17004 0
M  V30 3125 C 285.482 4.86428 -3.19003 0
M  V30 3126 N 284.458 4.84547 -2.46405 0
M  V30 3127 H 288.26 2.38609 -1.7159 0
M  V30 3128 H 285.774 1.2572 -1.02802 0
M  V30 3129 H 287.771 4.16898 -0.0143688 0
M  V30 3130 H 286.431 3.18511 0.630923 0
M  V30 3131 H 287.442 4.29349 -2.89621 0
M  V30 3132 H 284.119 4.16281 -0.318854 0
M  V30 3133 H 285.509 5.23107 -4.21674 0
M  V30 3134 N 288.23 0.939286 1.26551 0
M  V30 3135 C 289.455 0.602008 1.98471 0
M  V30 3136 C 289.88 -0.815624 1.69497 0
M  V30 3137 O 289.238 -1.54912 0.941905 0
M  V30 3138 C 289.286 0.848407 3.50477 0
M  V30 3139 O 288.39 -0.0804009 4.12322 0
M  V30 3140 H 287.731 0.23049 0.622712 0
M  V30 3141 H 290.261 1.2617 1.61066 0
M  V30 3142 H 290.271 0.768553 4.00696 0
M  V30 3143 H 288.946 1.88171 3.70897 0
M  V30 3144 H 287.523 0.0503508 3.72866 0
M  V30 3145 N 289.708 -1.40897 0.706093 0
M  V30 3146 C 290.938 -2.05075 0.250523 0
M  V30 3147 C 291.346 -1.53275 -1.10921 0
M  V30 3148 O 290.689 -0.680281 -1.7064 0
M  V30 3149 C 290.751 -3.59219 0.142178 0
M  V30 3150 C 290.415 -4.33864 1.43566 0
M  V30 3151 C 291.412 -4.62448 2.37566 0
M  V30 3152 C 289.097 -4.72946 1.69195 0
M  V30 3153 C 291.091 -5.29088 3.5545 0
M  V30 3154 C 288.778 -5.3932 2.87362 0
M  V30 3155 C 289.776 -5.6732 3.80312 0
M  V30 3156 O 289.464 -6.32325 4.96408 0
M  V30 3157 H 289.196 -0.666645 0.112074 0
M  V30 3158 H 291.75 -1.81467 0.962239 0
M  V30 3159 H 289.98 -3.81609 -0.6254 0
M  V30 3160 H 291.669 -4.0495 -0.277584 0
M  V30 3161 H 292.435 -4.32727 2.19027 0
M  V30 3162 H 288.314 -4.50527 0.977042 0
M  V30 3163 H 291.858 -5.50859 4.28018 0
M  V30 3164 H 287.755 -5.68461 3.05814 0
M  V30 3165 H 288.523 -6.50821 4.9636 0
M  V30 3166 N 291.186 -0.45159 -1.50991 0
M  V30 3167 C 292.133 0.352625 -2.2809 0
M  V30 3168 C 293.103 1.0044 -1.32291 0
M  V30 3169 O 294.288 1.02058 -1.6121 0
M  V30 3170 C 291.428 1.43983 -3.13629 0
M  V30 3171 C 290.541 0.804772 -4.24438 0
M  V30 3172 C 289.676 1.86822 -4.97263 0
M  V30 3173 C 288.715 1.21236 -5.99973 0
M  V30 3174 N 287.852 2.2178 -6.66152 0
M  V30 3175 H 292.692 -0.311186 -2.96371 0
M  V30 3176 H 290.229 -0.165308 -1.46168 0
M  V30 3177 H 292.187 2.08161 -3.61559 0
M  V30 3178 H 290.817 2.07307 -2.47434 0
M  V30 3179 H 289.869 0.0509129 -3.80366 0
M  V30 3180 H 291.181 0.286076 -4.97979 0
M  V30 3181 H 290.335 2.58628 -5.48813 0
M  V30 3182 H 289.074 2.42068 -4.23385 0
M  V30 3183 H 288.079 0.479828 -5.47702 0
M  V30 3184 H 289.304 0.667051 -6.75816 0
M  V30 3185 H 287.25 2.76079 -5.95077 0
M  V30 3186 H 287.167 1.74841 -7.35504 0
M  V30 3187 H 288.435 2.93026 -7.22327 0
M  V30 3188 N 292.664 1.56529 -0.183458 0
M  V30 3189 C 293.91 1.97537 0.459036 0
M  V30 3190 C 294.243 1.06989 1.62071 0
M  V30 3191 O 293.518 0.11948 1.94133 0
M  V30 3192 C 293.801 3.47874 0.930368 0
M  V30 3193 C 293.654 4.492 -0.232317 0
M  V30 3194 C 294.973 4.01612 1.79989 0
M  V30 3195 H 292.092 0.718204 0.165383 0
M  V30 3196 H 294.734 1.88042 -0.272038 0
M  V30 3197 H 292.884 3.56095 1.55333 0
M  V30 3198 H 294.556 4.53027 -0.86972 0
M  V30 3199 H 292.799 4.24657 -0.885928 0
M  V30 3200 H 293.47 5.51823 0.139796 0
M  V30 3201 H 295.946 3.96097 1.27461 0
M  V30 3202 H 294.822 5.07195 2.09867 0
M  V30 3203 H 295.083 3.46163 2.74998 0
M  V30 3204 N 294.142 -0.090211 1.57342 0
M  V30 3205 C 295.367 -0.810082 1.90925 0
M  V30 3206 C 295.792 -1.71248 0.778187 0
M  V30 3207 O 295.15 -1.79278 -0.269991 0
M  V30 3208 C 295.198 -1.59529 3.23393 0
M  V30 3209 O 294.302 -2.70461 3.11327 0
M  V30 3210 H 293.643 -0.222231 0.625707 0
M  V30 3211 H 296.173 -0.0639716 2.045 0
M  V30 3212 H 296.183 -1.97847 3.5682 0
M  V30 3213 H 294.858 -0.933055 4.05299 0
M  V30 3214 H 293.435 -2.35135 2.89423 0
M  V30 3215 N 295.62 -1.53406 -0.361157 0
M  V30 3216 C 296.568 -1.80832 -1.46296 0
M  V30 3217 C 297.562 -0.677699 -1.55253 0
M  V30 3218 O 298.768 -0.860723 -1.58087 0
M  V30 3219 H 295.143 -0.572627 -0.487445 0
M  V30 3220 H 297.114 -2.73045 -1.20371 0
M  V30 3221 C 295.863 -2.01907 -2.8307 0
M  V30 3222 H 295.186 -2.88349 -2.76938 0
M  V30 3223 H 296.626 -2.25072 -3.59331 0
M  V30 3224 C 295.085 -0.799449 -3.27277 0
M  V30 3225 O 295.615 0.00971761 -4.01699 0
M  V30 3226 N 293.821 -0.621637 -2.83873 0
M  V30 3227 H 293.368 -1.28126 -2.23476 0
M  V30 3228 H 293.326 0.19298 -3.13807 0
M  V30 3229 N 297.098 0.621204 -1.44841 0
M  V30 3230 C 298.328 1.40548 -1.51426 0
M  V30 3231 C 298.736 1.88673 -0.141083 0
M  V30 3232 O 298.079 1.62053 0.865128 0
M  V30 3233 C 298.141 2.65325 -2.42576 0
M  V30 3234 C 297.805 2.3893 -3.89566 0
M  V30 3235 C 298.802 2.00138 -4.79834 0
M  V30 3236 C 296.487 2.52263 -4.3436 0
M  V30 3237 C 298.481 1.75021 -6.129 0
M  V30 3238 C 296.168 2.2676 -5.67471 0
M  V30 3239 C 297.166 1.88199 -6.56559 0
M  V30 3240 O 296.854 1.62986 -7.87204 0
M  V30 3241 H 296.586 0.437122 -0.515655 0
M  V30 3242 H 299.14 0.765987 -1.90583 0
M  V30 3243 H 297.37 3.31947 -1.98364 0
M  V30 3244 H 299.059 3.27347 -2.39998 0
M  V30 3245 H 299.825 1.89386 -4.46495 0
M  V30 3246 H 295.704 2.81246 -3.65269 0
M  V30 3247 H 299.248 1.44848 -6.82396 0
M  V30 3248 H 295.145 2.37125 -6.00368 0
M  V30 3249 H 295.913 1.7715 -7.991 0
M  V30 3250 N 298.576 1.31904 0.862503 0
M  V30 3251 C 299.801 1.25135 1.65397 0
M  V30 3252 C 300.226 -0.179 1.87246 0
M  V30 3253 O 299.584 -1.1277 1.4196 0
M  V30 3254 C 299.632 2.00832 2.99498 0
M  V30 3255 O 298.736 1.35075 3.89652 0
M  V30 3256 H 298.077 0.431655 0.504549 0
M  V30 3257 H 300.607 1.74094 1.07483 0
M  V30 3258 H 300.617 2.10709 3.49379 0
M  V30 3259 H 299.292 3.04847 2.82916 0
M  V30 3260 H 297.869 1.33696 3.48109 0
M  V30 3261 N 300.054 -1.07777 1.14986 0
M  V30 3262 C 301.47 -1.32373 0.891596 0
M  V30 3263 C 301.67 -1.9609 -0.463788 0
M  V30 3264 O 300.726 -2.21801 -1.20667 0
M  V30 3265 C 302.039 -2.21905 2.02925 0
M  V30 3266 C 303.587 -2.35367 2.06329 0
M  V30 3267 C 304.062 -3.28245 3.19405 0
M  V30 3268 N 305.553 -3.35824 3.19024 0
M  V30 3269 C 306.288 -4.07739 4.03158 0
M  V30 3270 N 305.784 -4.82306 4.97346 0
M  V30 3271 N 307.577 -4.03635 3.91197 0
M  V30 3272 H 299.728 -0.648039 2.02273 0
M  V30 3273 H 301.991 -0.348149 0.881757 0
M  V30 3274 H 301.697 -1.82342 3.0074 0
M  V30 3275 H 301.571 -3.22407 1.95789 0
M  V30 3276 H 303.958 -2.74186 1.09116 0
M  V30 3277 H 304.039 -1.34585 2.17533 0
M  V30 3278 H 303.683 -2.90146 4.16867 0
M  V30 3279 H 303.613 -4.28971 3.05437 0
M  V30 3280 H 306.104 -2.8267 2.50811 0
M  V30 3281 H 306.417 -5.34661 5.57994 0
M  V30 3282 H 304.762 -4.81337 5.01338 0
M  V30 3283 H 307.953 -3.44491 3.16928 0
M  V30 3284 H 308.126 -4.59417 4.5699 0
M  V30 3285 N 301.532 -0.945985 -1.26051 0
M  V30 3286 C 302.78 -0.594941 -1.93145 0
M  V30 3287 C 303.101 0.86953 -1.7454 0
M  V30 3288 O 302.371 1.61838 -1.10387 0
M  V30 3289 H 300.951 -0.217044 -0.714773 0
M  V30 3290 H 303.613 -1.20235 -1.53393 0
M  V30 3291 H 302.709 -0.816835 -3.01221 0
M  V30 3292 N 303.011 1.40521 -0.713556 0
M  V30 3293 C 304.236 2.05759 -0.26035 0
M  V30 3294 C 304.661 1.53403 1.08854 0
M  V30 3295 O 304.019 0.668535 1.68524 0
M  V30 3296 C 304.067 3.59745 -0.248122 0
M  V30 3297 O 303.171 4.05123 0.77131 0
M  V30 3298 H 302.512 0.652564 -0.122703 0
M  V30 3299 H 305.042 1.79958 -0.973467 0
M  V30 3300 H 305.052 4.07911 -0.0851129 0
M  V30 3301 H 303.727 3.97218 -1.2325 0
M  V30 3302 H 302.304 3.68422 0.57619 0
M  V30 3303 N 304.489 0.459591 1.5075 0
M  V30 3304 C 305.737 -0.0991532 2.01857 0
M  V30 3305 C 306.058 -1.41247 1.34441 0
M  V30 3306 O 305.328 -1.89775 0.486022 0
M  V30 3307 H 303.908 -0.039633 0.745948 0
M  V30 3308 H 306.57 0.607387 1.85194 0
M  V30 3309 H 305.666 -0.258998 3.11023 0
M  V30 3310 N 305.967 -1.56429 0.191757 0
M  V30 3311 C 307.383 -1.58754 -0.164137 0
M  V30 3312 C 307.583 -1.20782 -1.61288 0
M  V30 3313 O 306.639 -0.928999 -2.34789 0
M  V30 3314 C 307.952 -3.00396 0.135195 0
M  V30 3315 C 309.5 -3.1291 0.0750351 0
M  V30 3316 C 309.975 -4.56679 0.347632 0
M  V30 3317 N 311.466 -4.62252 0.296131 0
M  V30 3318 C 312.201 -5.71379 0.480948 0
M  V30 3319 N 311.697 -6.88986 0.725933 0
M  V30 3320 N 313.49 -5.60563 0.415435 0
M  V30 3321 H 305.641 -1.79393 1.13718 0
M  V30 3322 H 307.904 -0.832414 0.453643 0
M  V30 3323 H 307.61 -3.32726 1.13958 0
M  V30 3324 H 307.484 -3.72963 -0.563773 0
M  V30 3325 H 309.871 -2.80394 -0.919948 0
M  V30 3326 H 309.952 -2.42736 0.807029 0
M  V30 3327 H 309.596 -4.89907 1.33992 0
M  V30 3328 H 309.526 -5.25039 -0.405212 0
M  V30 3329 H 312.017 -3.7773 0.113259 0
M  V30 3330 H 312.33 -7.68046 0.855857 0
M  V30 3331 H 310.675 -6.90801 0.762788 0
M  V30 3332 H 313.866 -4.67561 0.224486 0
M  V30 3333 H 314.039 -6.45551 0.562889 0
M  V30 3334 N 307.445 0.0818655 -1.57387 0
M  V30 3335 C 308.685 0.788375 -1.88584 0
M  V30 3336 C 309.049 1.75248 -0.784351 0
M  V30 3337 O 310.25 2.50334 -0.979105 0
M  V30 3338 C 308.521 1.48654 -3.25018 0
M  V30 3339 S 310.08 2.22951 -3.7794 0
M  V30 3340 H 306.898 0.262383 -0.660815 0
M  V30 3341 H 309.5 0.0448995 -1.95448 0
M  V30 3342 H 308.204 0.770919 -4.03094 0
M  V30 3343 H 307.735 2.26965 -3.21326 0
M  V30 3344 H 309.75 3.49309 -3.52417 0
M  V30 3345 N 308.923 1.53595 0.353017 0
M  V30 3346 C 310.172 1.69603 1.09168 0
M  V30 3347 C 310.485 0.460925 1.90092 0
M  V30 3348 O 311.691 0.501774 2.66823 0
M  V30 3349 C 310.147 2.99872 1.9901 0
M  V30 3350 C 309.755 4.30687 1.23339 0
M  V30 3351 C 311.499 3.25246 2.72792 0
M  V30 3352 C 309.406 5.52036 2.12156 0
M  V30 3353 H 308.336 0.631966 0.411261 0
M  V30 3354 H 310.987 1.80096 0.351802 0
M  V30 3355 H 309.369 2.83212 2.7678 0
M  V30 3356 H 310.543 4.58019 0.505456 0
M  V30 3357 H 308.858 4.11853 0.613663 0
M  V30 3358 H 311.455 4.13095 3.39495 0
M  V30 3359 H 311.798 2.41846 3.38846 0
M  V30 3360 H 312.331 3.42638 2.021 0
M  V30 3361 H 309.07 6.37951 1.50659 0
M  V30 3362 H 308.59 5.28966 2.82764 0
M  V30 3363 H 310.269 5.87313 2.71427 0
M  V30 3364 N 310.401 -0.613514 1.45168 0
M  V30 3365 C 311.333 -1.73825 1.4939 0
M  V30 3366 C 312.346 -1.58175 0.385304 0
M  V30 3367 O 313.535 -1.66165 0.652036 0
M  V30 3368 C 310.635 -3.11758 1.32891 0
M  V30 3369 C 309.808 -3.53704 2.57317 0
M  V30 3370 C 308.867 -4.70579 2.35462 0
M  V30 3371 O 307.893 -4.77996 3.09044 0
M  V30 3372 N 309.095 -5.63454 1.39644 0
M  V30 3373 H 311.86 -1.70669 2.46358 0
M  V30 3374 H 309.421 -0.79862 1.40832 0
M  V30 3375 H 311.413 -3.87692 1.1609 0
M  V30 3376 H 309.983 -3.09456 0.442218 0
M  V30 3377 H 309.203 -2.67794 2.89275 0
M  V30 3378 H 310.491 -3.78486 3.40038 0
M  V30 3379 H 309.889 -5.6017 0.789062 0
M  V30 3380 H 308.446 -6.38944 1.28816 0
M  V30 3381 N 311.879 -1.3236 -0.855495 0
M  V30 3382 C 312.812 -1.15559 -1.96777 0
M  V30 3383 C 313.79 -0.0552681 -1.62506 0
M  V30 3384 O 314.974 -0.214419 -1.87277 0
M  V30 3385 C 312.101 -0.768851 -3.29858 0
M  V30 3386 C 311.147 -1.87429 -3.83109 0
M  V30 3387 S 311.98 -3.48243 -4.06801 0
M  V30 3388 C 313.136 -3.11539 -5.42858 0
M  V30 3389 H 313.369 -2.09717 -2.10727 0
M  V30 3390 H 310.902 -1.17011 -1.00737 0
M  V30 3391 H 312.86 -0.55248 -4.06765 0
M  V30 3392 H 311.521 0.153857 -3.13723 0
M  V30 3393 H 310.714 -1.55667 -4.79358 0
M  V30 3394 H 310.316 -2.04647 -3.13042 0
M  V30 3395 H 312.608 -2.61331 -6.2507 0
M  V30 3396 H 313.551 -4.06806 -5.79582 0
M  V30 3397 H 313.959 -2.48582 -5.06821 0
M  V30 3398 N 313.357 1.07166 -1.15556 0
M  V30 3399 C 314.603 1.80222 -0.942961 0
M  V30 3400 C 314.958 1.85121 0.524209 0
M  V30 3401 O 314.251 1.32531 1.38369 0
M  V30 3402 C 314.445 3.24707 -1.49332 0
M  V30 3403 C 314.274 3.33887 -3.01247 0
M  V30 3404 C 313.044 3.44337 -3.69811 0
M  V30 3405 C 315.242 3.24484 -3.99017 0
M  V30 3406 N 313.224 3.42439 -5.09518 0
M  V30 3407 C 314.595 3.29726 -5.25053 0
M  V30 3408 C 316.65 3.08307 -3.90962 0
M  V30 3409 C 315.353 3.20455 -6.43973 0
M  V30 3410 C 317.379 3.00371 -5.09442 0
M  V30 3411 C 316.741 3.06227 -6.34354 0
M  V30 3412 H 312.84 0.672709 -0.398731 0
M  V30 3413 H 315.424 1.27905 -1.46794 0
M  V30 3414 H 313.595 3.7544 -0.994946 0
M  V30 3415 H 315.327 3.85894 -1.21935 0
M  V30 3416 H 312.082 3.48762 -3.20409 0
M  V30 3417 H 312.506 3.45013 -5.8249 0
M  V30 3418 H 317.148 3.02633 -2.95251 0
M  V30 3419 H 314.866 3.24888 -7.39914 0
M  V30 3420 H 318.452 2.88955 -5.04971 0
M  V30 3421 H 317.332 3.00132 -7.24493 0
M  V30 3422 N 314.835 0.952656 1.25548 0
M  V30 3423 C 316.082 0.606373 1.93208 0
M  V30 3424 C 316.41 -0.85631 1.74636 0
M  V30 3425 O 315.665 -1.62951 1.08376 0
M  V30 3426 C 315.964 0.908818 3.45652 0
M  V30 3427 C 315.63 2.35722 3.84378 0
M  V30 3428 C 314.292 2.75312 3.9466 0
M  V30 3429 C 316.644 3.29793 4.03591 0
M  V30 3430 C 313.972 4.08047 4.21562 0
M  V30 3431 C 316.324 4.62138 4.31985 0
M  V30 3432 C 314.988 5.01528 4.40484 0
M  V30 3433 H 314.258 0.221888 0.706998 0
M  V30 3434 H 316.905 1.20132 1.49133 0
M  V30 3435 H 315.21 0.231456 3.91116 0
M  V30 3436 H 316.907 0.619498 3.96186 0
M  V30 3437 H 313.497 2.04017 3.76928 0
M  V30 3438 H 317.681 3.00397 3.95064 0
M  V30 3439 H 312.937 4.38212 4.26357 0
M  V30 3440 H 317.111 5.35012 4.45797 0
M  V30 3441 H 314.738 6.04406 4.61083 0
M  V30 3442 N 316.313 -1.40141 0.720998 0
M  V30 3443 C 317.59 -1.94677 0.189757 0
M  V30 3444 C 317.97 -1.65879 -1.30566 0
M  V30 3445 O 317.318 -0.979391 -2.06447 0
M  V30 3446 C 317.528 -3.45279 0.508304 0
M  V30 3447 C 318.876 -4.22209 0.449934 0
M  V30 3448 O 319.9 -3.53413 0.444677 0
M  V30 3449 O 318.759 -5.44788 0.432189 0
M  V30 3450 H 315.853 -0.826459 0.0299026 0
M  V30 3451 H 318.399 -1.49719 0.7989 0
M  V30 3452 H 317.171 -3.59619 1.54239 0
M  V30 3453 H 316.794 -3.97386 -0.130525 0
M  V30 3454 N 317.792 -0.46758 -1.50504 0
M  V30 3455 C 319.203 -0.0116166 -1.86696 0
M  V30 3456 C 319.554 1.39202 -1.38265 0
M  V30 3457 O 318.679 2.0313 -0.746132 0
M  V30 3458 C 319.274 -0.0143044 -3.38797 0
M  V30 3459 C 317.833 0.386175 -3.74414 0
M  V30 3460 C 316.98 -0.401287 -2.74381 0
M  V30 3461 H 319.931 -0.682022 -1.43297 0
M  V30 3462 H 319.952 0.788641 -3.72237 0
M  V30 3463 H 319.464 -1.03602 -3.74016 0
M  V30 3464 H 317.565 1.41237 -3.44794 0
M  V30 3465 H 317.678 0.0899596 -4.79016 0
M  V30 3466 H 316.042 0.144536 -2.5429 0
M  V30 3467 H 316.825 -1.42244 -3.12444 0
M  V30 3468 N 319.27 1.56325 -0.20005 0
M  V30 3469 C 320.233 2.18084 0.705132 0
M  V30 3470 C 321.233 1.13666 1.1374 0
M  V30 3471 O 322.423 1.39023 1.04968 0
M  V30 3472 C 319.555 2.78689 1.96329 0
M  V30 3473 H 320.748 2.99435 0.167023 0
M  V30 3474 H 318.301 1.56221 0.0495725 0
M  V30 3475 H 319.036 2.0115 2.5438 0
M  V30 3476 H 318.821 3.55133 1.66202 0
M  V30 3477 H 320.311 3.26096 2.60866 0
M  V30 3478 N 320.748 -0.0735177 1.57428 0
M  V30 3479 C 321.68 -1.11423 2.00294 0
M  V30 3480 C 322.693 -1.35084 0.908637 0
M  V30 3481 O 323.882 -1.33355 1.18654 0
M  V30 3482 C 320.982 -2.46548 2.32523 0
M  V30 3483 C 320.155 -2.42867 3.63778 0
M  V30 3484 C 319.214 -3.60087 3.83697 0
M  V30 3485 O 318.24 -3.41595 4.55304 0
M  V30 3486 N 319.442 -4.80372 3.25919 0
M  V30 3487 H 322.207 -0.749206 2.90184 0
M  V30 3488 H 319.768 -0.262195 1.59763 0
M  V30 3489 H 321.76 -3.23607 2.43024 0
M  V30 3490 H 320.33 -2.75059 1.48531 0
M  V30 3491 H 319.55 -1.51206 3.64047 0
M  V30 3492 H 320.838 -2.37506 4.49965 0
M  V30 3493 H 320.236 -4.983 2.67795 0
M  V30 3494 H 318.793 -5.54948 3.41871 0
M  V30 3495 N 322.226 -1.5378 -0.344866 0
M  V30 3496 C 323.474 -1.70625 -1.08311 0
M  V30 3497 C 323.795 -0.471447 -1.89215 0
M  V30 3498 O 323.065 0.514616 -1.8902 0
M  V30 3499 H 321.645 -0.629058 -0.402859 0
M  V30 3500 H 324.307 -1.9103 -0.386459 0
M  V30 3501 H 323.403 -2.57656 -1.76124 0
M  V30 3502 N 323.704 0.605807 -1.45491 0
M  V30 3503 C 324.652 1.73754 -1.54636 0
M  V30 3504 C 325.646 1.64207 -0.416219 0
M  V30 3505 O 326.852 1.69979 -0.592199 0
M  V30 3506 H 323.227 0.574073 -0.485741 0
M  V30 3507 H 325.198 1.63169 -2.49837 0
M  V30 3508 C 323.947 3.12135 -1.53189 0
M  V30 3509 H 323.27 3.20141 -2.39478 0
M  V30 3510 H 324.71 3.91147 -1.63645 0
M  V30 3511 C 323.169 3.35921 -0.256616 0
M  V30 3512 O 323.699 3.96194 0.662798 0
M  V30 3513 N 321.905 2.90204 -0.151751 0
M  V30 3514 H 321.452 2.41336 -0.90081 0
M  V30 3515 H 321.41 3.06492 0.700699 0
M  V30 3516 N 325.182 1.32811 0.848464 0
M  V30 3517 C 326.593 1.21315 1.41914 0
M  V30 3518 C 326.944 -0.171847 1.95446 0
M  V30 3519 O 326.069 -1.07093 1.88043 0
M  V30 3520 C 326.664 2.19631 2.57968 0
M  V30 3521 C 325.223 2.12003 3.11017 0
M  V30 3522 C 324.37 2.07651 1.83783 0
M  V30 3523 H 327.321 1.44549 0.655071 0
M  V30 3524 H 327.342 1.79845 3.35315 0
M  V30 3525 H 326.854 3.20423 2.18976 0
M  V30 3526 H 324.955 1.14481 3.54577 0
M  V30 3527 H 325.068 3.02111 3.71841 0
M  V30 3528 H 323.432 1.52983 2.03638 0
M  V30 3529 H 324.215 3.10235 1.47 0
M  V30 3530 N 326.66 -1.06551 1.16123 0
M  V30 3531 C 327.608 -2.16063 0.861371 0
M  V30 3532 C 328.602 -1.6856 -0.168517 0
M  V30 3533 O 329.808 -1.79986 -0.0227579 0
M  V30 3534 H 326.183 -0.705278 0.260934 0
M  V30 3535 H 328.154 -2.38567 1.79244 0
M  V30 3536 C 326.903 -3.45661 0.376018 0
M  V30 3537 H 326.226 -3.82604 1.15992 0
M  V30 3538 H 327.666 -4.23504 0.204951 0
M  V30 3539 C 326.125 -3.24546 -0.903954 0
M  V30 3540 O 326.655 -3.49865 -1.97377 0
M  V30 3541 N 324.861 -2.77992 -0.846679 0
M  V30 3542 H 324.408 -2.57589 0.0241017 0
M  V30 3543 H 324.366 -2.64244 -1.70359 0
M  V30 3544 N 328.138 -0.959301 -1.25041 0
M  V30 3545 C 329.048 -0.489994 -2.29426 0
M  V30 3546 C 330.064 0.444944 -1.68215 0
M  V30 3547 O 331.24 0.320046 -1.98841 0
M  V30 3548 C 328.305 0.220309 -3.45999 0
M  V30 3549 C 327.366 -0.753418 -4.22637 0
M  V30 3550 C 326.599 -0.076918 -5.33645 0
M  V30 3551 O 326.822 1.13649 -5.58963 0
M  V30 3552 O 325.756 -0.764824 -5.97021 0
M  V30 3553 H 329.582 -1.35755 -2.71669 0
M  V30 3554 H 327.167 -0.725961 -1.30576 0
M  V30 3555 H 329.049 0.619677 -4.16819 0
M  V30 3556 H 327.724 1.06296 -3.0575 0
M  V30 3557 H 326.631 -1.20308 -3.54227 0
M  V30 3558 H 327.964 -1.56423 -4.66683 0
M  V30 3559 N 329.616 1.39756 -0.72842 0
M  V30 3560 C 330.526 2.34444 -0.0855374 0
M  V30 3561 C 331.542 1.57976 0.729356 0
M  V30 3562 O 332.718 1.90301 0.659346 0
M  V30 3563 C 329.783 3.36965 0.815798 0
M  V30 3564 C 328.844 4.29299 -0.0105996 0
M  V30 3565 C 328.077 5.26923 0.84781 0
M  V30 3566 O 328.3 5.30859 2.08673 0
M  V30 3567 O 327.234 6.01249 0.279969 0
M  V30 3568 H 331.06 2.91065 -0.866892 0
M  V30 3569 H 328.645 1.4117 -0.48902 0
M  V30 3570 H 330.527 3.99804 1.33171 0
M  V30 3571 H 329.202 2.82739 1.57608 0
M  V30 3572 H 328.109 3.69703 -0.571877 0
M  V30 3573 H 329.442 4.86712 -0.73295 0
M  V30 3574 N 331.094 0.475555 1.50254 0
M  V30 3575 C 332.34 -0.0780073 2.0265 0
M  V30 3576 C 332.673 -1.38968 1.35652 0
M  V30 3577 O 331.948 -1.8839 0.483691 0
M  V30 3578 C 332.231 -0.257161 3.59181 0
M  V30 3579 C 332.084 1.07585 4.36744 0
M  V30 3580 C 333.403 -1.00965 4.28362 0
M  V30 3581 H 330.522 -0.0268758 0.73651 0
M  V30 3582 H 333.164 0.622015 1.7953 0
M  V30 3583 H 331.314 -0.853412 3.79011 0
M  V30 3584 H 332.986 1.70902 4.28474 0
M  V30 3585 H 331.229 1.6714 4.00308 0
M  V30 3586 H 331.9 0.904088 5.44546 0
M  V30 3587 H 334.376 -0.504214 4.13034 0
M  V30 3588 H 333.252 -1.10381 5.37687 0
M  V30 3589 H 333.513 -2.04731 3.91839 0
M  V30 3590 N 332.573 -1.56217 0.208337 0
M  V30 3591 C 333.536 -2.18455 -0.693557 0
M  V30 3592 C 334.536 -1.14268 -1.13135 0
M  V30 3593 O 335.726 -1.39577 -1.0423 0
M  V30 3594 C 332.858 -2.79727 -1.94848 0
M  V30 3595 H 334.051 -2.99519 -0.15114 0
M  V30 3596 H 331.604 -1.56245 -0.041287 0
M  V30 3597 H 332.339 -2.02497 -2.53309 0
M  V30 3598 H 332.124 -3.56009 -1.64316 0
M  V30 3599 H 333.614 -3.27475 -2.59133 0
M  V30 3600 N 334.051 0.0651679 -1.57465 0
M  V30 3601 C 335.467 0.420105 -1.53972 0
M  V30 3602 C 335.667 1.78782 -0.929474 0
M  V30 3603 O 334.723 2.46771 -0.534839 0
M  V30 3604 C 336.036 0.355084 -2.98596 0
M  V30 3605 C 337.584 0.434792 -3.09965 0
M  V30 3606 C 338.059 0.399609 -4.56253 0
M  V30 3607 N 339.55 0.459488 -4.60915 0
M  V30 3608 C 340.285 0.454584 -5.71595 0
M  V30 3609 N 339.781 0.404102 -6.9162 0
M  V30 3610 N 341.574 0.501635 -5.59857 0
M  V30 3611 H 333.725 -0.830328 -1.95498 0
M  V30 3612 H 335.988 -0.312244 -0.895102 0
M  V30 3613 H 335.694 -0.583357 -3.46828 0
M  V30 3614 H 335.568 1.16275 -3.58831 0
M  V30 3615 H 337.955 1.36366 -2.61703 0
M  V30 3616 H 338.036 -0.40157 -2.52628 0
M  V30 3617 H 337.68 -0.525436 -5.05175 0
M  V30 3618 H 337.61 1.25359 -5.11461 0
M  V30 3619 H 340.101 0.502482 -3.74544 0
M  V30 3620 H 340.414 0.404468 -7.71741 0
M  V30 3621 H 338.759 0.37069 -6.94011 0
M  V30 3622 H 341.95 0.538812 -4.64989 0
M  V30 3623 H 342.123 0.494345 -6.46112 0
M  V30 3624 N 335.529 1.53961 0.336706 0
M  V30 3625 C 336.776 1.71536 1.07618 0
M  V30 3626 C 337.104 0.482125 1.8843 0
M  V30 3627 O 336.359 -0.536142 1.88213 0
M  V30 3628 C 336.658 2.93493 2.03953 0
M  V30 3629 C 336.324 4.28811 1.39399 0
M  V30 3630 C 334.986 4.65602 1.21523 0
M  V30 3631 C 337.338 5.12844 0.929541 0
M  V30 3632 C 334.666 5.84037 0.558312 0
M  V30 3633 C 337.018 6.31951 0.286505 0
M  V30 3634 C 335.682 6.67432 0.0954869 0
M  V30 3635 H 334.952 0.627696 0.393801 0
M  V30 3636 H 337.599 1.88186 0.354715 0
M  V30 3637 H 335.904 2.71475 2.82504 0
M  V30 3638 H 337.601 3.04285 2.61174 0
M  V30 3639 H 334.191 3.99858 1.54311 0
M  V30 3640 H 338.375 4.84947 1.05548 0
M  V30 3641 H 333.631 6.10097 0.398995 0
M  V30 3642 H 337.805 6.96352 -0.0814376 0
M  V30 3643 H 335.432 7.59063 -0.415579 0
M  V30 3644 N 337.007 -0.598083 1.45811 0
M  V30 3645 C 338.237 -1.38121 1.53643 0
M  V30 3646 C 338.645 -1.88425 0.171081 0
M  V30 3647 O 337.988 -1.63409 -0.839237 0
M  V30 3648 C 338.05 -2.61432 2.46766 0
M  V30 3649 C 337.714 -2.32702 3.93318 0
M  V30 3650 C 338.711 -1.92479 4.82957 0
M  V30 3651 C 336.396 -2.45321 4.38318 0
M  V30 3652 C 338.39 -1.65248 6.15607 0
M  V30 3653 C 336.077 -2.17703 5.71007 0
M  V30 3654 C 337.075 -1.7773 6.5947 0
M  V30 3655 O 336.763 -1.50441 7.89698 0
M  V30 3656 H 336.495 -0.428863 0.522544 0
M  V30 3657 H 339.049 -0.73557 1.91777 0
M  V30 3658 H 337.279 -3.28749 2.0362 0
M  V30 3659 H 338.968 -3.23487 2.45175 0
M  V30 3660 H 339.734 -1.82258 4.49452 0
M  V30 3661 H 335.613 -2.75399 3.69697 0
M  V30 3662 H 339.157 -1.33973 6.84614 0
M  V30 3663 H 335.054 -2.27544 6.04065 0
M  V30 3664 H 335.822 -1.64415 8.01817 0
M  V30 3665 N 338.485 -1.33259 -0.841409 0
M  V30 3666 C 339.448 -1.23221 -1.9326 0
M  V30 3667 C 340.448 -0.151895 -1.60081 0
M  V30 3668 O 341.638 -0.403246 -1.69468 0
M  V30 3669 C 338.77 -0.898123 -3.28856 0
M  V30 3670 H 339.963 -2.2021 -2.03587 0
M  V30 3671 H 337.516 -1.17281 -1.03319 0
M  V30 3672 H 338.251 0.0693841 -3.24226 0
M  V30 3673 H 338.036 -1.67934 -3.54317 0
M  V30 3674 H 339.526 -0.852563 -4.08805 0
M  V30 3675 N 339.963 1.05934 -1.16686 0
M  V30 3676 C 340.926 2.11669 -0.879144 0
M  V30 3677 C 341.926 1.60294 0.127445 0
M  V30 3678 O 343.116 1.7389 -0.103865 0
M  V30 3679 C 340.248 3.39438 -0.315425 0
M  V30 3680 H 341.441 2.38626 -1.81653 0
M  V30 3681 H 338.994 1.22058 -0.976299 0
M  V30 3682 H 339.729 3.18132 0.629468 0
M  V30 3683 H 339.514 3.78034 -1.04079 0
M  V30 3684 H 341.004 4.17391 -0.132189 0
M  V30 3685 N 341.441 0.965919 1.2453 0
M  V30 3686 C 342.404 0.499547 2.2369 0
M  V30 3687 C 343.404 -0.40294 1.5567 0
M  V30 3688 O 344.594 -0.19865 1.73064 0
M  V30 3689 C 341.726 -0.276792 3.39774 0
M  V30 3690 H 342.919 1.37613 2.66463 0
M  V30 3691 H 340.472 0.750324 1.37112 0
M  V30 3692 H 341.207 -1.17055 3.02438 0
M  V30 3693 H 340.992 0.370826 3.90343 0
M  V30 3694 H 342.482 -0.592175 4.1338 0
M  V30 3695 N 342.919 -1.39368 0.735821 0
M  V30 3696 C 343.852 -2.28155 0.0451175 0
M  V30 3697 C 344.83 -1.44433 -0.746852 0
M  V30 3698 O 346.014 -1.73823 -0.729237 0
M  V30 3699 C 343.141 -3.253 -0.943266 0
M  V30 3700 C 342.187 -4.25826 -0.239685 0
M  V30 3701 S 343.02 -5.25166 1.04693 0
M  V30 3702 C 344.176 -6.2587 0.0611639 0
M  V30 3703 H 344.409 -2.86388 0.79807 0
M  V30 3704 H 341.942 -1.45104 0.527653 0
M  V30 3705 H 343.9 -3.81789 -1.50824 0
M  V30 3706 H 342.561 -2.66085 -1.66906 0
M  V30 3707 H 341.754 -4.94229 -0.987596 0
M  V30 3708 H 341.356 -3.73141 0.253274 0
M  V30 3709 H 343.648 -6.73007 -0.778941 0
M  V30 3710 H 344.591 -7.04508 0.712362 0
M  V30 3711 H 344.999 -5.63639 -0.311602 0
M  V30 3712 N 344.397 -0.483516 -1.5 0
M  V30 3713 C 345.622 0.0667119 -2.07293 0
M  V30 3714 C 346.047 1.3164 -1.3436 0
M  V30 3715 O 345.405 1.76945 -0.394987 0
M  V30 3716 C 345.453 0.321126 -3.59167 0
M  V30 3717 O 344.557 1.39927 -3.87936 0
M  V30 3718 H 343.898 -0.0184758 -0.663743 0
M  V30 3719 H 346.428 -0.678125 -1.93035 0
M  V30 3720 H 346.438 0.557906 -4.04168 0
M  V30 3721 H 345.113 -0.592007 -4.11665 0
M  V30 3722 H 343.69 1.14882 -3.54763 0
M  V30 3723 N 345.875 1.56104 -0.216619 0
M  V30 3724 C 347.123 1.97781 0.415593 0
M  V30 3725 C 347.444 1.10536 1.60645 0
M  V30 3726 O 346.714 0.181303 1.95059 0
M  V30 3727 H 345.294 0.730415 0.156534 0
M  V30 3728 H 347.956 1.92445 -0.308366 0
M  V30 3729 H 347.052 3.03072 0.74525 0
M  V30 3730 N 347.353 -0.0568162 1.57498 0
M  V30 3731 C 348.316 -1.05038 2.03715 0
M  V30 3732 C 349.316 -1.30709 0.936577 0
M  V30 3733 O 350.506 -1.26178 1.20103 0
M  V30 3734 C 347.638 -2.39034 2.43055 0
M  V30 3735 H 348.831 -0.651715 2.92733 0
M  V30 3736 H 346.384 -0.302947 1.53336 0
M  V30 3737 H 347.119 -2.83703 1.57108 0
M  V30 3738 H 346.904 -2.21739 3.2338 0
M  V30 3739 H 348.394 -3.10421 2.79336 0
M  V30 3740 N 348.832 -1.54138 -0.328536 0
M  V30 3741 C 350.08 -1.71765 -1.06496 0
M  V30 3742 C 350.401 -0.49149 -1.88704 0
M  V30 3743 O 349.671 0.494539 -1.89555 0
M  V30 3744 H 348.251 -0.633295 -0.396164 0
M  V30 3745 H 350.913 -1.91429 -0.366176 0
M  V30 3746 H 350.009 -2.5951 -1.73381 0
M  V30 3747 N 350.31 0.590341 -1.46126 0
M  V30 3748 C 351.721 1.17243 -1.45296 0
M  V30 3749 C 352.072 1.95281 -0.189723 0
M  V30 3750 O 351.197 2.04502 0.707674 0
M  V30 3751 C 351.792 2.13284 -2.6324 0
M  V30 3752 C 350.351 2.66832 -2.65476 0
M  V30 3753 C 349.498 1.42557 -2.3785 0
M  V30 3754 H 352.449 0.378692 -1.54116 0
M  V30 3755 H 352.47 2.96619 -2.38323 0
M  V30 3756 H 351.982 1.56459 -3.55165 0
M  V30 3757 H 350.083 3.27548 -1.77603 0
M  V30 3758 H 350.196 3.10088 -3.65215 0
M  V30 3759 H 348.56 1.72107 -1.87753 0
M  V30 3760 H 349.343 0.875741 -3.31942 0
M  V30 3761 N 351.788 1.33704 0.83433 0
M  V30 3762 C 353.034 1.26612 1.59188 0
M  V30 3763 C 353.389 -0.165439 1.91687 0
M  V30 3764 O 352.682 -1.10873 1.56262 0
M  V30 3765 C 352.876 2.07926 2.90692 0
M  V30 3766 C 352.705 3.58844 2.71038 0
M  V30 3767 C 351.475 4.28148 2.68361 0
M  V30 3768 C 353.673 4.53082 2.43353 0
M  V30 3769 N 351.655 5.64987 2.40132 0
M  V30 3770 C 353.026 5.77843 2.24716 0
M  V30 3771 C 355.081 4.42119 2.28987 0
M  V30 3772 C 353.784 6.92877 1.9317 0
M  V30 3773 C 355.81 5.56973 1.98835 0
M  V30 3774 C 355.172 6.80745 1.81012 0
M  V30 3775 H 351.271 0.518517 0.585375 0
M  V30 3776 H 353.855 1.68294 0.979044 0
M  V30 3777 H 352.026 1.68558 3.49918 0
M  V30 3778 H 353.758 1.92568 3.55949 0
M  V30 3779 H 350.513 3.80469 2.82029 0
M  V30 3780 H 350.937 6.37133 2.28889 0
M  V30 3781 H 355.579 3.47058 2.41477 0
M  V30 3782 H 353.297 7.87931 1.79418 0
M  V30 3783 H 356.883 5.50428 1.88468 0
M  V30 3784 H 355.763 7.68115 1.58017 0
M  V30 3785 N 353.266 -1.05314 1.17247 0
M  V30 3786 C 354.229 -2.112 0.890357 0
M  V30 3787 C 355.229 -1.60359 -0.118943 0
M  V30 3788 O 356.419 -1.73833 0.113086 0
M  V30 3789 C 353.551 -3.39266 0.333422 0
M  V30 3790 H 354.744 -2.37659 1.82916 0
M  V30 3791 H 352.297 -1.21538 0.982758 0
M  V30 3792 H 353.032 -3.18462 -0.612587 0
M  V30 3793 H 352.817 -3.77477 1.06082 0
M  V30 3794 H 354.307 -4.17315 0.154322 0
M  V30 3795 N 354.744 -0.972509 -1.24016 0
M  V30 3796 C 355.707 -0.511403 -2.23422 0
M  V30 3797 C 356.707 0.394679 -1.55881 0
M  V30 3798 O 357.897 0.189469 -1.73167 0
M  V30 3799 C 355.029 0.258769 -3.39916 0
M  V30 3800 H 356.222 -1.39024 -2.6573 0
M  V30 3801 H 353.775 -0.757585 -1.36713 0
M  V30 3802 H 354.51 1.1545 -3.03054 0
M  V30 3803 H 354.295 -0.391522 -3.9014 0
M  V30 3804 H 355.785 0.570244 -4.13688 0
M  V30 3805 N 356.222 1.38976 -0.743202 0
M  V30 3806 C 357.468 2.01114 -0.304109 0
M  V30 3807 C 357.823 1.57929 1.09892 0
M  V30 3808 O 357.116 0.801983 1.74008 0
M  V30 3809 C 357.31 3.55647 -0.353517 0
M  V30 3810 C 357.139 4.13837 -1.75981 0
M  V30 3811 C 355.909 4.46062 -2.37395 0
M  V30 3812 C 358.107 4.36812 -2.71477 0
M  V30 3813 N 356.089 4.898 -3.70093 0
M  V30 3814 C 357.46 4.82844 -3.88923 0
M  V30 3815 C 359.515 4.18893 -2.69134 0
M  V30 3816 C 358.218 5.12837 -5.04371 0
M  V30 3817 C 360.244 4.50005 -3.83731 0
M  V30 3818 C 359.606 4.96251 -4.99914 0
M  V30 3819 H 355.705 0.765931 -0.157716 0
M  V30 3820 H 358.289 1.68763 -0.970931 0
M  V30 3821 H 356.46 3.87368 0.282987 0
M  V30 3822 H 358.192 4.04564 0.104904 0
M  V30 3823 H 354.947 4.34145 -1.89248 0
M  V30 3824 H 355.371 5.16016 -4.38242 0
M  V30 3825 H 360.013 3.82335 -1.80499 0
M  V30 3826 H 357.731 5.48297 -5.9363 0
M  V30 3827 H 361.317 4.37755 -3.83225 0
M  V30 3828 H 360.197 5.19867 -5.87118 0
M  V30 3829 N 357.7 0.491464 1.49741 0
M  V30 3830 C 359.111 0.0413169 1.86654 0
M  V30 3831 C 359.462 -1.36985 1.40462 0
M  V30 3832 O 358.587 -2.01917 0.778354 0
M  V30 3833 C 359.182 0.0682023 3.38731 0
M  V30 3834 C 357.741 -0.32656 3.74981 0
M  V30 3835 C 356.888 0.444888 2.73708 0
M  V30 3836 H 359.839 0.704733 1.42194 0
M  V30 3837 H 359.86 -0.729322 3.73445 0
M  V30 3838 H 359.372 1.09539 3.72321 0
M  V30 3839 H 357.473 -1.35734 3.46997 0
M  V30 3840 H 357.586 -0.013741 4.79098 0
M  V30 3841 H 355.95 -0.104062 2.54487 0
M  V30 3842 H 356.733 1.47197 3.10142 0
M  V30 3843 N 359.178 -1.55987 0.224894 0
M  V30 3844 C 360.425 -1.9839 -0.4059 0
M  V30 3845 C 360.753 -1.11261 -1.59535 0
M  V30 3846 O 360.008 -0.158314 -1.95059 0
M  V30 3847 C 360.307 -3.46394 -0.880106 0
M  V30 3848 C 359.973 -4.5046 0.19918 0
M  V30 3849 C 358.635 -4.7864 0.495661 0
M  V30 3850 C 360.987 -5.12855 0.928939 0
M  V30 3851 C 358.315 -5.66497 1.52636 0
M  V30 3852 C 360.667 -6.01828 1.949 0
M  V30 3853 C 359.331 -6.28351 2.25236 0
M  V30 3854 H 358.601 -0.725961 -0.148529 0
M  V30 3855 H 361.248 -1.88668 0.328113 0
M  V30 3856 H 359.553 -3.53337 -1.69294 0
M  V30 3857 H 361.25 -3.76577 -1.37808 0
M  V30 3858 H 357.84 -4.28579 -0.0420526 0
M  V30 3859 H 362.024 -4.9115 0.713129 0
M  V30 3860 H 357.28 -5.8531 1.76698 0
M  V30 3861 H 361.454 -6.49225 2.51951 0
M  V30 3862 H 359.081 -6.96226 3.05244 0
M  V30 3863 N 360.656 0.0484629 -1.57525 0
M  V30 3864 C 361.586 1.0549 -2.08313 0
M  V30 3865 C 362.567 1.38929 -0.981463 0
M  V30 3866 O 363.752 1.48151 -1.25558 0
M  V30 3867 C 360.882 2.36162 -2.54646 0
M  V30 3868 C 359.836 2.17016 -3.68901 0
M  V30 3869 C 359.162 3.53278 -4.01371 0
M  V30 3870 C 360.462 1.57219 -4.98076 0
M  V30 3871 H 362.156 0.632195 -2.92649 0
M  V30 3872 H 359.702 0.302654 -1.40784 0
M  V30 3873 H 361.655 3.06882 -2.88793 0
M  V30 3874 H 360.379 2.80456 -1.67368 0
M  V30 3875 H 359.038 1.48733 -3.35073 0
M  V30 3876 H 358.686 3.95185 -3.11188 0
M  V30 3877 H 358.386 3.41299 -4.78318 0
M  V30 3878 H 359.91 4.25391 -4.38035 0
M  V30 3879 H 361.324 2.17832 -5.30304 0
M  V30 3880 H 359.721 1.55871 -5.79503 0
M  V30 3881 H 360.791 0.535956 -4.81929 0
M  V30 3882 N 362.134 1.5431 0.320358 0
M  V30 3883 C 363.064 1.86912 1.3995 0
M  V30 3884 C 364.045 0.726211 1.53819 0
M  V30 3885 O 365.23 0.980233 1.67646 0
M  V30 3886 C 362.36 2.09932 2.7667 0
M  V30 3887 C 361.314 3.25776 2.77586 0
M  V30 3888 C 360.64 3.34173 4.17412 0
M  V30 3889 C 361.94 4.6335 2.41048 0
M  V30 3890 H 363.634 2.77292 1.12914 0
M  V30 3891 H 361.18 1.33421 0.541738 0
M  V30 3892 H 363.133 2.31324 3.52232 0
M  V30 3893 H 361.857 1.16304 3.0519 0
M  V30 3894 H 360.516 3.04276 2.04479 0
M  V30 3895 H 360.164 2.38098 4.43078 0
M  V30 3896 H 359.864 4.12033 4.18931 0
M  V30 3897 H 361.388 3.57803 4.94782 0
M  V30 3898 H 362.802 4.84602 3.06324 0
M  V30 3899 H 361.199 5.43782 2.53813 0
M  V30 3900 H 362.269 4.65381 1.36193 0
M  V30 3901 N 363.613 -0.582584 1.46437 0
M  V30 3902 C 364.838 -1.37168 1.55563 0
M  V30 3903 C 365.263 -1.87061 0.19743 0
M  V30 3904 O 364.621 -1.61572 -0.822451 0
M  V30 3905 C 364.669 -2.53511 2.56446 0
M  V30 3906 O 363.773 -3.54953 2.09958 0
M  V30 3907 H 363.114 -0.408494 0.523477 0
M  V30 3908 H 365.644 -0.706646 1.9201 0
M  V30 3909 H 365.654 -3.00426 2.76058 0
M  V30 3910 H 364.329 -2.16549 3.55076 0
M  V30 3911 H 362.906 -3.14516 2.00334 0
M  V30 3912 N 365.091 -1.34144 -0.827227 0
M  V30 3913 C 366.021 -1.28005 -1.95287 0
M  V30 3914 C 367.002 -0.158321 -1.69362 0
M  V30 3915 O 368.187 -0.349987 -1.9102 0
M  V30 3916 C 365.317 -1.03036 -3.31664 0
M  V30 3917 C 364.271 -2.11628 -3.72019 0
M  V30 3918 C 363.597 -1.71854 -5.0633 0
M  V30 3919 C 364.897 -3.53417 -3.8457 0
M  V30 3920 H 366.591 -2.22187 -2.00682 0
M  V30 3921 H 364.137 -1.0696 -0.964135 0
M  V30 3922 H 366.09 -0.973863 -4.09993 0
M  V30 3923 H 364.814 -0.0529391 -3.26557 0
M  V30 3924 H 363.473 -2.16339 -2.95961 0
M  V30 3925 H 363.121 -0.727841 -4.97706 0
M  V30 3926 H 362.821 -2.44531 -5.34302 0
M  V30 3927 H 364.345 -1.67692 -5.87122 0
M  V30 3928 H 365.759 -3.51142 -4.5318 0
M  V30 3929 H 364.156 -4.24679 -4.2399 0
M  V30 3930 H 365.226 -3.91072 -2.86689 0
M  V30 3931 N 366.569 1.04691 -1.17803 0
M  V30 3932 C 367.532 2.10724 -0.901545 0
M  V30 3933 C 368.532 1.6042 0.110437 0
M  V30 3934 O 369.722 1.7377 -0.122303 0
M  V30 3935 C 366.854 3.39084 -0.351409 0
M  V30 3936 H 368.047 2.36686 -1.84174 0
M  V30 3937 H 365.6 1.21015 -0.98919 0
M  V30 3938 H 366.335 3.18782 0.59569 0
M  V30 3939 H 366.12 3.76909 -1.08083 0
M  V30 3940 H 367.61 4.17227 -0.176451 0
M  V30 3941 N 368.047 0.979072 1.23499 0
M  V30 3942 C 368.977 0.537606 2.27227 0
M  V30 3943 C 369.958 -0.428539 1.64613 0
M  V30 3944 O 371.143 -0.322191 1.91509 0
M  V30 3945 C 368.273 -0.162052 3.46922 0
M  V30 3946 C 367.227 0.721242 4.21879 0
M  V30 3947 C 366.553 -0.110555 5.34586 0
M  V30 3948 C 367.853 2.01141 4.82016 0
M  V30 3949 H 369.547 1.40462 2.64406 0
M  V30 3950 H 367.093 0.67684 1.27102 0
M  V30 3951 H 369.046 -0.482192 4.18632 0
M  V30 3952 H 367.77 -1.06351 3.08799 0
M  V30 3953 H 366.429 1.02482 3.51984 0
M  V30 3954 H 366.077 -1.0125 4.92704 0
M  V30 3955 H 365.777 0.477325 5.85658 0
M  V30 3956 H 367.301 -0.425107 6.09118 0
M  V30 3957 H 368.715 1.75612 5.45741 0
M  V30 3958 H 367.112 2.54695 5.43369 0
M  V30 3959 H 368.182 2.69909 4.02836 0
M  V30 3960 N 369.525 -1.3858 0.750561 0
M  V30 3961 C 370.458 -2.28095 0.0693139 0
M  V30 3962 C 371.436 -1.45217 -0.731491 0
M  V30 3963 O 372.62 -1.74587 -0.71076 0
M  V30 3964 C 369.747 -3.26282 -0.90871 0
M  V30 3965 C 368.793 -4.26056 -0.194507 0
M  V30 3966 S 369.626 -5.24026 1.10257 0
M  V30 3967 C 370.782 -6.2577 0.127542 0
M  V30 3968 H 371.015 -2.85526 0.8284 0
M  V30 3969 H 368.548 -1.44536 0.543014 0
M  V30 3970 H 370.506 -3.83367 -1.46766 0
M  V30 3971 H 369.167 -2.6784 -1.64075 0
M  V30 3972 H 368.36 -4.95249 -0.93512 0
M  V30 3973 H 367.962 -3.72852 0.292837 0
M  V30 3974 H 370.254 -6.73796 -0.707516 0
M  V30 3975 H 371.197 -7.03712 0.787044 0
M  V30 3976 H 371.605 -5.63938 -0.251803 0
M  V30 3977 N 371.003 -0.499398 -1.49478 0
M  V30 3978 C 371.933 0.269244 -2.31943 0
M  V30 3979 C 372.914 0.964054 -1.40143 0
M  V30 3980 O 374.099 0.955767 -1.69052 0
M  V30 3981 C 371.229 1.33504 -3.20615 0
M  V30 3982 C 370.183 0.760202 -4.21195 0
M  V30 3983 C 369.509 1.9264 -4.98792 0
M  V30 3984 C 370.809 -0.247661 -5.21712 0
M  V30 3985 H 372.503 -0.419082 -2.96452 0
M  V30 3986 H 370.049 -0.202988 -1.42562 0
M  V30 3987 H 372.002 1.88048 -3.77115 0
M  V30 3988 H 370.726 2.05253 -2.54045 0
M  V30 3989 H 369.385 0.23653 -3.65836 0
M  V30 3990 H 369.033 2.63154 -4.28671 0
M  V30 3991 H 368.733 1.54785 -5.66847 0
M  V30 3992 H 370.257 2.4762 -5.58137 0
M  V30 3993 H 371.671 0.209579 -5.72917 0
M  V30 3994 H 370.068 -0.541962 -5.97648 0
M  V30 3995 H 371.138 -1.16409 -4.7072 0
M  V30 3996 N 372.481 1.55866 -0.233164 0
M  V30 3997 C 373.411 2.23783 0.666599 0
M  V30 3998 C 374.392 1.21343 1.19205 0
M  V30 3999 O 375.577 1.4996 1.23392 0
M  V30 4000 C 372.707 2.92671 1.86978 0
M  V30 4001 C 371.661 4.01682 1.47768 0
M  V30 4002 C 370.987 4.57926 2.76058 0
M  V30 4003 C 372.287 5.18126 0.658993 0
M  V30 4004 H 373.981 2.99232 0.100306 0
M  V30 4005 H 371.527 1.43924 0.046804 0
M  V30 4006 H 373.48 3.3888 2.50476 0
M  V30 4007 H 372.204 2.14688 2.46123 0
M  V30 4008 H 370.863 3.56222 0.866106 0
M  V30 4009 H 370.511 3.76659 3.33372 0
M  V30 4010 H 370.211 5.31505 2.50552 0
M  V30 4011 H 371.735 5.06859 3.40479 0
M  V30 4012 H 373.149 5.60644 1.19795 0
M  V30 4013 H 371.546 5.98009 0.500552 0
M  V30 4014 H 372.616 4.83763 -0.331856 0
M  V30 4015 N 373.959 -0.0401083 1.57549 0
M  V30 4016 C 375.205 -0.728793 1.89895 0
M  V30 4017 C 375.56 -1.73551 0.830535 0
M  V30 4018 O 374.853 -1.90914 -0.162007 0
M  V30 4019 C 375.047 -1.44902 3.26708 0
M  V30 4020 C 374.876 -0.513568 4.46758 0
M  V30 4021 C 373.646 -0.138698 5.0511 0
M  V30 4022 C 375.844 0.203341 5.13898 0
M  V30 4023 N 373.826 0.799159 6.08676 0
M  V30 4024 C 375.197 0.997246 6.11927 0
M  V30 4025 C 377.252 0.271459 4.97159 0
M  V30 4026 C 375.955 1.85299 6.95023 0
M  V30 4027 C 377.981 1.11429 5.80808 0
M  V30 4028 C 377.343 1.89615 6.78399 0
M  V30 4029 H 373.442 -0.241125 0.743897 0
M  V30 4030 H 376.026 0.0108016 1.94697 0
M  V30 4031 H 374.197 -2.15914 3.22856 0
M  V30 4032 H 375.929 -2.08921 3.46603 0
M  V30 4033 H 372.684 -0.498496 4.70969 0
M  V30 4034 H 373.108 1.26227 6.65128 0
M  V30 4035 H 377.75 -0.318709 4.21597 0
M  V30 4036 H 375.468 2.454 7.69938 0
M  V30 4037 H 379.054 1.17038 5.69906 0
M  V30 4038 H 377.934 2.53779 7.42001 0
M  V30 4039 N 375.437 -1.54477 -0.31217 0
M  V30 4040 C 376.367 -1.87652 -1.38957 0
M  V30 4041 C 377.348 -0.734358 -1.53431 0
M  V30 4042 O 378.533 -0.98911 -1.67123 0
M  V30 4043 C 375.663 -2.11396 -2.75552 0
M  V30 4044 C 374.617 -3.27243 -2.75855 0
M  V30 4045 C 373.943 -3.36382 -4.15633 0
M  V30 4046 C 375.243 -4.64622 -2.38587 0
M  V30 4047 H 376.937 -2.77887 -1.11442 0
M  V30 4048 H 374.483 -1.33707 -0.534655 0
M  V30 4049 H 376.436 -2.33189 -3.51 0
M  V30 4050 H 375.16 -1.17921 -3.04569 0
M  V30 4051 H 373.819 -3.05356 -2.02863 0
M  V30 4052 H 373.467 -2.40445 -4.41809 0
M  V30 4053 H 373.167 -4.14249 -4.1674 0
M  V30 4054 H 374.691 -3.60422 -4.92877 0
M  V30 4055 H 376.105 -4.86219 -3.03749 0
M  V30 4056 H 374.502 -5.45121 -2.50925 0
M  V30 4057 H 375.572 -4.66097 -1.33723 0
M  V30 4058 N 376.915 0.57481 -1.46744 0
M  V30 4059 C 377.845 1.69337 -1.60771 0
M  V30 4060 C 378.826 1.63825 -0.457736 0
M  V30 4061 O 380.011 1.8172 -0.684947 0
M  V30 4062 C 377.141 3.0798 -1.60517 0
M  V30 4063 C 376.095 3.28327 -2.74564 0
M  V30 4064 C 375.421 4.67578 -2.59373 0
M  V30 4065 C 376.721 3.15398 -4.16319 0
M  V30 4066 H 378.415 1.57853 -2.54407 0
M  V30 4067 H 375.961 0.75799 -1.22436 0
M  V30 4068 H 377.914 3.86061 -1.68923 0
M  V30 4069 H 376.638 3.20381 -0.634305 0
M  V30 4070 H 375.297 2.52649 -2.65639 0
M  V30 4071 H 374.945 4.76755 -1.60353 0
M  V30 4072 H 374.645 4.82144 -3.35873 0
M  V30 4073 H 376.169 5.47817 -2.69682 0
M  V30 4074 H 377.583 3.83315 -4.26313 0
M  V30 4075 H 375.98 3.41482 -4.93468 0
M  V30 4076 H 377.05 2.12372 -4.3592 0
M  V30 4077 N 378.394 1.34581 0.820102 0
M  V30 4078 C 379.619 1.30333 1.61332 0
M  V30 4079 C 380.044 -0.119339 1.87721 0
M  V30 4080 O 379.402 -1.08197 1.45475 0
M  V30 4081 C 379.45 2.10258 2.92957 0
M  V30 4082 O 378.554 1.47404 3.85157 0
M  V30 4083 H 377.895 0.447488 0.490561 0
M  V30 4084 H 380.425 1.77425 1.01889 0
M  V30 4085 H 380.435 2.21718 3.42498 0
M  V30 4086 H 379.11 3.13693 2.73074 0
M  V30 4087 H 377.687 1.44703 3.43679 0
M  V30 4088 O 379.911 -0.958615 1.29972 0
M  V30 4089 H 380.602 -1.5862 1.11172 0
M  V30 END ATOM
M  V30 BEGIN BOND
M  V30 END BOND
M  V30 END CTAB
M  END
$$$$
