drugbank_target|P12004 Proliferating cell nuclear antigen (DB00279; DB00945)
 OpenBabel12092121073D

  0  0  0     0  0            999 V3000
M  V30 BEGIN CTAB
M  V30 COUNTS 4012 4038 0 0 0
M  V30 BEGIN ATOM
M  V30 1 H -0.908 1.98254 -0.117106 0
M  V30 2 N 0 1.576 0 0
M  V30 3 C 0.933 2.03868 1.02534 0
M  V30 4 C 1.911 0.928543 1.3348 0
M  V30 5 O 3.095 1.19667 1.45644 0
M  V30 6 C 0.222 2.43627 2.35294 0
M  V30 7 C -0.732 3.65373 2.2001 0
M  V30 8 S 0.101 5.13292 1.52614 0
M  V30 9 C 1.257 5.56322 2.86805 0
M  V30 10 H 1.49 2.90518 0.631377 0
M  V30 11 H -0.977 1.52953 0.210867 0
M  V30 12 H 0.981 2.67203 3.11629 0
M  V30 13 H -0.358 1.57376 2.7183 0
M  V30 14 H -1.165 3.90944 3.18086 0
M  V30 15 H -1.563 3.418 1.51819 0
M  V30 16 H 0.729 5.58782 3.83104 0
M  V30 17 H 1.672 6.56266 2.65933 0
M  V30 18 H 2.08 4.83886 2.90714 0
M  V30 19 N 1.4781 -0.272755 1.55222 0
M  V30 20 C 2.7251 -1.00433 1.7584 0
M  V30 21 C 3.0531 -1.86275 0.559629 0
M  V30 22 O 2.3081 -1.90269 -0.457857 0
M  V30 23 C 2.6071 -1.91642 3.01675 0
M  V30 24 C 2.2731 -1.21548 4.34208 0
M  V30 25 C 0.9351 -1.02166 4.70229 0
M  V30 26 C 3.2871 -0.716684 5.16249 0
M  V30 27 C 0.6151 -0.316334 5.85847 0
M  V30 28 C 2.9671 -0.0249476 6.32595 0
M  V30 29 C 1.6311 0.180579 6.67256 0
M  V30 30 H 0.9011 -0.367509 0.643443 0
M  V30 31 H 3.5481 -0.276596 1.89492 0
M  V30 32 H 1.8531 -2.71037 2.82924 0
M  V30 33 H 3.5501 -2.48369 3.14824 0
M  V30 34 H 0.1401 -1.37645 4.05896 0
M  V30 35 H 4.3241 -0.854047 4.88896 0
M  V30 36 H -0.4199 -0.146378 6.11225 0
M  V30 37 H 3.7541 0.369311 6.9542 0
M  V30 38 H 1.3811 0.729098 7.56696 0
M  V30 39 N 2.9562 -1.48159 -0.537278 0
M  V30 40 C 3.8662 -1.64807 -1.6696 0
M  V30 41 C 4.8822 -0.530651 -1.65711 0
M  V30 42 O 6.0582 -0.800784 -1.84796 0
M  V30 43 C 3.1232 -1.67708 -3.03438 0
M  V30 44 C 2.1842 -2.91025 -3.156 0
M  V30 45 C 1.4172 -2.93778 -4.45567 0
M  V30 46 O 1.6402 -2.05153 -5.3223 0
M  V30 47 O 0.5742 -3.85868 -4.61941 0
M  V30 48 H 4.4002 -2.6066 -1.55853 0
M  V30 49 H 1.9852 -1.31475 -0.709549 0
M  V30 50 H 3.8672 -1.7218 -3.84619 0
M  V30 51 H 2.5422 -0.750278 -3.14885 0
M  V30 52 H 1.4492 -2.92089 -2.33741 0
M  V30 53 H 2.7822 -3.83065 -3.09066 0
M  V30 54 N 4.4343 0.785586 -1.36625 0
M  V30 55 C 5.3973 1.87999 -1.31107 0
M  V30 56 C 6.3973 1.59316 -0.217959 0
M  V30 57 O 7.5873 1.67656 -0.472977 0
M  V30 58 C 4.7193 3.24861 -1.03334 0
M  V30 59 H 5.9123 1.94307 -2.2844 0
M  V30 60 H 3.4653 0.983813 -1.21453 0
M  V30 61 H 4.2003 3.24235 -0.0647432 0
M  V30 62 H 3.9853 3.4707 -1.82441 0
M  V30 63 H 5.4753 4.04929 -1.02088 0
M  V30 64 N 5.9124 1.20967 1.01018 0
M  V30 65 C 7.3284 0.965905 1.27053 0
M  V30 66 C 7.5284 -0.350785 1.98423 0
M  V30 67 O 6.5844 -1.07773 2.28344 0
M  V30 68 C 7.8974 2.15294 2.09926 0
M  V30 69 C 9.4454 2.19463 2.23171 0
M  V30 70 C 9.9204 3.3767 3.09424 0
M  V30 71 N 11.4114 3.37724 3.17012 0
M  V30 72 C 12.1464 4.25837 3.83993 0
M  V30 73 N 11.6424 5.24138 4.53047 0
M  V30 74 N 13.4354 4.1366 3.80581 0
M  V30 75 H 5.5864 2.0565 0.531194 0
M  V30 76 H 7.8494 0.90024 0.297106 0
M  V30 77 H 7.5554 3.10684 1.64828 0
M  V30 78 H 7.4294 2.13923 3.10672 0
M  V30 79 H 9.8164 1.24632 2.6749 0
M  V30 80 H 9.8974 2.2488 1.21912 0
M  V30 81 H 9.5414 4.32791 2.65808 0
M  V30 82 H 9.4714 3.29491 4.10784 0
M  V30 83 H 11.9624 2.6658 2.6785 0
M  V30 84 H 12.2754 5.87684 5.01844 0
M  V30 85 H 10.6204 5.28068 4.5185 0
M  V30 86 H 13.8114 3.36127 3.25785 0
M  V30 87 H 13.9844 4.82538 4.32505 0
M  V30 88 N 7.3905 -1.2043 1.01659 0
M  V30 89 C 8.3205 -2.25466 0.607226 0
M  V30 90 C 9.3015 -1.65853 -0.377716 0
M  V30 91 O 10.4865 -1.92409 -0.263149 0
M  V30 92 C 7.6165 -3.47256 -0.0552949 0
M  V30 93 C 6.5705 -4.19462 0.850632 0
M  V30 94 C 5.8965 -5.34673 0.0538859 0
M  V30 95 C 7.1965 -4.75603 2.15868 0
M  V30 96 H 8.8905 -2.59962 1.48526 0
M  V30 97 H 6.4365 -1.2496 0.715605 0
M  V30 98 H 8.3895 -4.19917 -0.353233 0
M  V30 99 H 7.1135 -3.11924 -0.968045 0
M  V30 100 H 5.7725 -3.48667 1.13257 0
M  V30 101 H 5.4205 -4.95585 -0.860514 0
M  V30 102 H 5.1205 -5.83913 0.657192 0
M  V30 103 H 6.6445 -6.10138 -0.237598 0
M  V30 104 H 8.0585 -5.40083 1.92311 0
M  V30 105 H 6.4555 -5.3528 2.71284 0
M  V30 106 H 7.5255 -3.94346 2.82169 0
M  V30 107 N 8.8686 -0.792821 -1.36206 0
M  V30 108 C 10.1146 -0.36733 -1.99446 0
M  V30 109 C 10.4476 1.05917 -1.62774 0
M  V30 110 O 9.7226 1.7324 -0.88421 0
M  V30 111 C 10.0056 -0.535044 -3.56103 0
M  V30 112 C 9.8586 -2.00548 -4.02617 0
M  V30 113 C 11.1776 0.0478191 -4.40074 0
M  V30 114 H 8.2966 -0.134941 -0.724541 0
M  V30 115 H 10.9386 -0.999794 -1.61568 0
M  V30 116 H 9.0886 0.00336329 -3.885 0
M  V30 117 H 10.7606 -2.60521 -3.80692 0
M  V30 118 H 9.0036 -2.50686 -3.54032 0
M  V30 119 H 9.6746 -2.07377 -5.11565 0
M  V30 120 H 12.1506 -0.411822 -4.14057 0
M  V30 121 H 11.0266 -0.0995336 -5.4881 0
M  V30 122 H 11.2876 1.14025 -4.27142 0
M  V30 123 N 10.3467 1.47872 -0.545128 0
M  V30 124 C 11.2787 2.27869 0.246621 0
M  V30 125 C 12.2917 1.36282 0.890561 0
M  V30 126 O 13.4807 1.61207 0.766449 0
M  V30 127 C 10.5807 3.10159 1.36582 0
M  V30 128 C 9.7537 4.29627 0.820954 0
M  V30 129 C 8.8127 4.93607 1.82314 0
M  V30 130 O 7.8387 5.52366 1.37406 0
M  V30 131 N 9.0407 4.87211 3.15603 0
M  V30 132 H 11.8057 2.96459 -0.439539 0
M  V30 133 H 9.3667 1.57367 -0.380421 0
M  V30 134 H 11.3587 3.49829 2.03474 0
M  V30 135 H 9.9287 2.43891 1.9554 0
M  V30 136 H 9.1487 3.94192 -0.0244032 0
M  V30 137 H 10.4367 5.06928 0.436063 0
M  V30 138 H 9.8347 4.40651 3.54744 0
M  V30 139 H 8.3917 5.30937 3.78087 0
M  V30 140 N 11.8248 0.280983 1.55075 0
M  V30 141 C 13.0728 -0.333455 1.9933 0
M  V30 142 C 13.3938 -1.55937 1.17085 0
M  V30 143 O 12.6638 -1.94143 0.261805 0
M  V30 144 H 11.2438 -0.126197 0.736263 0
M  V30 145 H 13.9058 0.387678 1.91005 0
M  V30 146 H 13.0018 -0.619292 3.05894 0
M  V30 147 N 13.3029 -1.57598 0.00835791 0
M  V30 148 C 14.5279 -1.95617 -0.689103 0
M  V30 149 C 14.9529 -0.883753 -1.66046 0
M  V30 150 O 14.3109 0.157352 -1.80616 0
M  V30 151 C 14.3589 -3.32736 -1.38994 0
M  V30 152 O 13.4629 -3.27631 -2.50463 0
M  V30 153 H 12.8039 -0.638379 -0.182668 0
M  V30 154 H 15.3339 -2.045 0.064036 0
M  V30 155 H 15.3439 -3.68494 -1.75147 0
M  V30 156 H 14.0189 -4.1034 -0.677778 0
M  V30 157 H 12.5959 -3.03561 -2.16576 0
M  V30 158 N 14.781 0.264519 -1.55364 0
M  V30 159 C 16.03 0.992812 -1.75574 0
M  V30 160 C 16.343 1.87142 -0.568979 0
M  V30 161 O 17.549 2.63513 -0.653682 0
M  V30 162 C 16.005 1.81519 -3.10771 0
M  V30 163 C 15.613 0.984839 -4.37041 0
M  V30 164 C 17.357 2.53727 -3.40327 0
M  V30 165 C 15.264 1.80209 -5.63275 0
M  V30 166 H 14.194 0.374412 -0.65447 0
M  V30 167 H 16.845 0.248138 -1.81815 0
M  V30 168 H 15.227 2.60115 -2.98591 0
M  V30 169 H 16.401 0.242455 -4.60162 0
M  V30 170 H 14.716 0.37691 -4.14691 0
M  V30 171 H 17.313 3.15292 -4.3185 0
M  V30 172 H 17.656 3.24447 -2.60845 0
M  V30 173 H 18.189 1.82156 -3.53644 0
M  V30 174 H 14.928 1.13896 -6.45529 0
M  V30 175 H 14.448 2.52022 -5.44284 0
M  V30 176 H 16.127 2.37364 -6.01887 0
M  V30 177 N 16.2591 1.48442 0.529413 0
M  V30 178 C 17.1891 1.65902 1.64313 0
M  V30 179 C 18.1701 0.507897 1.6234 0
M  V30 180 O 19.3551 0.740503 1.79528 0
M  V30 181 C 16.4851 1.69911 3.02898 0
M  V30 182 C 15.4391 2.8453 3.19729 0
M  V30 183 C 14.7651 2.73629 4.59381 0
M  V30 184 C 16.0651 4.25821 3.02447 0
M  V30 185 H 17.7591 2.5914 1.49955 0
M  V30 186 H 15.3051 1.24709 0.719982 0
M  V30 187 H 17.2581 1.80715 3.80684 0
M  V30 188 H 15.9821 0.732524 3.18279 0
M  V30 189 H 14.6411 2.73283 2.44361 0
M  V30 190 H 14.2891 1.74938 4.71599 0
M  V30 191 H 13.9891 3.50541 4.71588 0
M  V30 192 H 15.5131 2.86401 5.39265 0
M  V30 193 H 16.9271 4.37898 3.70024 0
M  V30 194 H 15.3241 5.03735 3.26146 0
M  V30 195 H 16.3941 4.42244 1.98867 0
M  V30 196 N 17.7372 -0.778329 1.37039 0
M  V30 197 C 18.6842 -1.89139 1.32269 0
M  V30 198 C 19.6542 -1.65017 0.189387 0
M  V30 199 O 20.8392 -1.87024 0.377693 0
M  V30 200 C 17.9792 -3.26112 1.12894 0
M  V30 201 C 17.0922 -3.62233 2.35396 0
M  V30 202 C 16.2272 -4.8838 2.08946 0
M  V30 203 C 15.2662 -5.17212 3.2735 0
M  V30 204 N 14.4032 -6.34546 3.00492 0
M  V30 205 H 19.2432 -1.92552 2.27437 0
M  V30 206 H 16.7802 -0.941473 1.13025 0
M  V30 207 H 18.7382 -4.05116 0.996835 0
M  V30 208 H 17.3682 -3.22091 0.213758 0
M  V30 209 H 16.4202 -2.78265 2.5937 0
M  V30 210 H 17.7322 -3.79481 3.23721 0
M  V30 211 H 16.8862 -5.75274 1.92729 0
M  V30 212 H 15.6252 -4.73222 1.17949 0
M  V30 213 H 14.6302 -4.28796 3.44113 0
M  V30 214 H 15.8552 -5.34283 4.19188 0
M  V30 215 H 13.8012 -6.20759 2.12118 0
M  V30 216 H 13.7182 -6.52179 3.82358 0
M  V30 217 H 14.9862 -7.24394 2.87879 0
M  V30 218 N 19.2153 -1.21501 -1.00376 0
M  V30 219 C 20.1623 -0.975387 -2.09177 0
M  V30 220 C 21.1323 0.0990615 -1.65804 0
M  V30 221 O 22.3173 -0.0483147 -1.90739 0
M  V30 222 C 19.4573 -0.547507 -3.40729 0
M  V30 223 C 18.5703 -1.69153 -3.97506 0
M  V30 224 C 17.7053 -1.2127 -5.17172 0
M  V30 225 C 16.7443 -2.32897 -5.66061 0
M  V30 226 N 15.8813 -1.86138 -6.76976 0
M  V30 227 H 20.7213 -1.9068 -2.29009 0
M  V30 228 H 18.2583 -0.950257 -1.12288 0
M  V30 229 H 20.2163 -0.280667 -4.16255 0
M  V30 230 H 18.8463 0.346904 -3.20931 0
M  V30 231 H 17.8983 -2.07298 -3.18954 0
M  V30 232 H 19.2103 -2.5316 -4.29781 0
M  V30 233 H 18.3643 -0.902591 -5.99948 0
M  V30 234 H 17.1033 -0.342692 -4.86495 0
M  V30 235 H 16.1083 -2.64709 -4.81881 0
M  V30 236 H 17.3333 -3.20396 -5.98768 0
M  V30 237 H 15.2793 -1.01484 -6.48103 0
M  V30 238 H 15.1963 -2.63717 -7.08512 0
M  V30 239 H 16.4643 -1.58165 -7.63285 0
M  V30 240 N 20.6934 1.19889 -1.02296 0
M  V30 241 C 21.9394 1.89701 -0.717033 0
M  V30 242 C 22.2724 1.7905 0.751989 0
M  V30 243 O 21.5474 1.17891 1.547 0
M  V30 244 C 21.8304 3.40858 -1.16136 0
M  V30 245 C 21.6834 3.60411 -2.69117 0
M  V30 246 C 23.0024 4.33876 -0.737549 0
M  V30 247 H 20.1214 0.688874 -0.261957 0
M  V30 248 H 22.7634 1.41154 -1.27183 0
M  V30 249 H 20.9134 3.82335 -0.689342 0
M  V30 250 H 22.5854 3.28145 -3.2422 0
M  V30 251 H 20.8284 3.03665 -3.0979 0
M  V30 252 H 21.4994 4.66396 -2.95261 0
M  V30 253 H 23.9754 4.00081 -1.14344 0
M  V30 254 H 22.8514 5.38242 -1.0764 0
M  V30 255 H 23.1124 4.40628 0.360436 0
M  V30 256 N 22.1715 0.800033 1.35784 0
M  V30 257 C 23.1015 0.220184 2.3246 0
M  V30 258 C 24.0825 -0.65073 1.57161 0
M  V30 259 O 25.2675 -0.582359 1.85263 0
M  V30 260 C 22.3975 -0.637353 3.41402 0
M  V30 261 C 21.3515 0.134531 4.27789 0
M  V30 262 C 20.6775 -0.844285 5.27992 0
M  V30 263 C 21.9775 1.32979 5.05088 0
M  V30 264 H 23.6715 1.02787 2.81203 0
M  V30 265 H 21.2175 0.495717 1.35199 0
M  V30 266 H 23.1705 -1.05302 4.08031 0
M  V30 267 H 21.8945 -1.47785 2.91251 0
M  V30 268 H 20.5535 0.531296 3.6273 0
M  V30 269 H 20.2015 -1.68011 4.74111 0
M  V30 270 H 19.9015 -0.332184 5.8666 0
M  V30 271 H 21.4255 -1.2583 5.97494 0
M  V30 272 H 22.8395 0.98934 5.64699 0
M  V30 273 H 21.2365 1.77593 5.7322 0
M  V30 274 H 22.3065 2.11978 4.36111 0
M  V30 275 N 23.6496 -1.47581 0.552962 0
M  V30 276 C 24.5596 -2.33743 -0.200353 0
M  V30 277 C 25.5756 -1.47928 -0.916151 0
M  V30 278 O 26.7516 -1.80865 -0.885993 0
M  V30 279 C 23.8166 -3.24536 -1.21973 0
M  V30 280 C 22.8776 -4.26238 -0.511819 0
M  V30 281 C 22.1106 -5.12693 -1.48263 0
M  V30 282 O 22.3336 -5.01525 -2.71714 0
M  V30 283 O 21.2676 -5.93375 -1.00945 0
M  V30 284 H 25.0936 -2.9945 0.506304 0
M  V30 285 H 22.6786 -1.46071 0.313622 0
M  V30 286 H 24.5606 -3.80631 -1.80827 0
M  V30 287 H 23.2356 -2.61462 -1.90839 0
M  V30 288 H 22.1426 -3.73914 0.117799 0
M  V30 289 H 23.4756 -4.92014 0.135308 0
M  V30 290 N 25.1277 -0.289203 -1.54924 0
M  V30 291 C 26.0907 0.579144 -2.21762 0
M  V30 292 C 27.0907 1.07047 -1.1999 0
M  V30 293 O 28.2807 0.968384 -1.44803 0
M  V30 294 C 25.4127 1.80055 -2.8947 0
M  V30 295 H 26.6057 -0.00464908 -2.999 0
M  V30 296 H 24.1587 -0.0399306 -1.56249 0
M  V30 297 H 24.8937 2.42449 -2.15381 0
M  V30 298 H 24.6787 1.45602 -3.64064 0
M  V30 299 H 26.1687 2.41773 -3.40493 0
M  V30 300 N 26.6058 1.57591 -0.0167156 0
M  V30 301 C 27.5358 2.12496 0.967858 0
M  V30 302 C 28.5168 1.03807 1.34752 0
M  V30 303 O 29.7018 1.31577 1.42833 0
M  V30 304 C 26.8318 2.64194 2.25431 0
M  V30 305 C 25.7858 3.77559 2.01576 0
M  V30 306 C 25.1118 4.15636 3.36379 0
M  V30 307 C 26.4118 5.04151 1.36489 0
M  V30 308 H 28.1058 2.95013 0.510643 0
M  V30 309 H 25.6518 1.41915 0.244181 0
M  V30 310 H 27.6048 3.01236 2.94678 0
M  V30 311 H 26.3288 1.78821 2.73296 0
M  V30 312 H 24.9878 3.40937 1.34751 0
M  V30 313 H 24.6358 3.27263 3.81979 0
M  V30 314 H 24.3358 4.92022 3.21229 0
M  V30 315 H 25.8598 4.5525 4.06915 0
M  V30 316 H 27.2738 5.38857 1.95718 0
M  V30 317 H 25.6708 5.85453 1.31776 0
M  V30 318 H 26.7408 4.83733 0.336219 0
M  V30 319 N 28.0839 -0.256276 1.55502 0
M  V30 320 C 29.0309 -1.31714 1.89526 0
M  V30 321 C 30.0009 -1.4828 0.748479 0
M  V30 322 O 31.1859 -1.62416 1.00128 0
M  V30 323 C 28.3259 -2.66933 2.18725 0
M  V30 324 C 27.4389 -2.58452 3.4616 0
M  V30 325 C 26.5739 -3.85961 3.64976 0
M  V30 326 C 25.6129 -3.72059 4.86044 0
M  V30 327 N 24.7499 -4.9144 5.01429 0
M  V30 328 H 29.5899 -1.01998 2.80001 0
M  V30 329 H 27.1269 -0.492413 1.38613 0
M  V30 330 H 29.0849 -3.4563 2.33657 0
M  V30 331 H 27.7149 -2.94816 1.31466 0
M  V30 332 H 26.7669 -1.71374 3.3961 0
M  V30 333 H 28.0789 -2.44085 4.34999 0
M  V30 334 H 27.2329 -4.73101 3.79816 0
M  V30 335 H 25.9719 -4.03215 2.74353 0
M  V30 336 H 24.9769 -2.83302 4.7119 0
M  V30 337 H 26.2019 -3.56309 5.78118 0
M  V30 338 H 24.1479 -5.09072 4.13741 0
M  V30 339 H 24.0649 -4.79668 5.84341 0
M  V30 340 H 25.3329 -5.80104 5.20672 0
M  V30 341 N 29.562 -1.4872 -0.521534 0
M  V30 342 C 30.839 -1.4766 -1.2828 0
M  V30 343 C 31.219 -0.19292 -2.10217 0
M  V30 344 O 30.567 0.825193 -2.13079 0
M  V30 345 C 30.777 -2.74358 -2.15705 0
M  V30 346 C 32.125 -3.23028 -2.75569 0
M  V30 347 O 33.149 -2.75333 -2.25987 0
M  V30 348 O 32.008 -4.0604 -3.65778 0
M  V30 349 H 29.102 -0.590085 -0.579421 0
M  V30 350 H 31.648 -1.60963 -0.537492 0
M  V30 351 H 30.42 -3.59292 -1.54999 0
M  V30 352 H 30.043 -2.63816 -2.97467 0
M  V30 353 N 31.0401 0.771051 -1.3745 0
M  V30 354 C 31.9701 1.89827 -1.3597 0
M  V30 355 C 32.9511 1.68562 -0.228216 0
M  V30 356 O 34.1361 1.8941 -0.428675 0
M  V30 357 C 31.2661 3.2712 -1.16662 0
M  V30 358 C 30.2201 3.6295 -2.2683 0
M  V30 359 C 29.5461 4.98791 -1.92644 0
M  V30 360 C 30.8461 3.69627 -3.69017 0
M  V30 361 H 32.5401 1.91323 -2.30295 0
M  V30 362 H 30.0861 0.919082 -1.10855 0
M  V30 363 H 32.0391 4.05615 -1.14256 0
M  V30 364 H 30.7631 3.26059 -0.187926 0
M  V30 365 H 29.4221 2.86763 -2.28392 0
M  V30 366 H 29.0701 4.94271 -0.933021 0
M  V30 367 H 28.7701 5.23733 -2.66416 0
M  V30 368 H 30.2941 5.79685 -1.91826 0
M  V30 369 H 31.7081 4.38273 -3.69581 0
M  V30 370 H 30.1051 4.06067 -4.41848 0
M  V30 371 H 31.1751 2.70273 -4.02592 0
M  V30 372 N 32.5182 1.22032 0.997298 0
M  V30 373 C 33.7672 1.03637 1.73038 0
M  V30 374 C 34.0802 -0.429475 1.90827 0
M  V30 375 O 35.2862 -0.732995 2.61418 0
M  V30 376 C 33.7422 1.80582 3.11317 0
M  V30 377 C 33.3502 3.31387 3.01474 0
M  V30 378 C 35.0942 1.70621 3.88701 0
M  V30 379 C 33.0012 4.00791 4.3488 0
M  V30 380 H 31.9312 0.384179 0.648785 0
M  V30 381 H 34.5822 1.4584 1.11368 0
M  V30 382 H 32.9642 1.31175 3.73643 0
M  V30 383 H 34.1382 3.88155 2.4834 0
M  V30 384 H 32.4532 3.41976 2.37575 0
M  V30 385 H 35.0502 2.19799 4.87434 0
M  V30 386 H 35.3932 0.665823 4.10941 0
M  V30 387 H 35.9262 2.17547 3.33044 0
M  V30 388 H 32.6652 5.05064 4.1784 0
M  V30 389 H 32.1852 3.48811 4.87945 0
M  V30 390 H 33.8642 4.06139 5.03647 0
M  V30 391 N 33.9963 -1.19345 1.0293 0
M  V30 392 C 34.9443 -2.24621 0.604001 0
M  V30 393 C 35.9383 -1.65452 -0.363587 0
M  V30 394 O 37.1443 -1.78497 -0.23212 0
M  V30 395 H 33.5193 -0.730858 0.177061 0
M  V30 396 H 35.4903 -2.5781 1.50255 0
M  V30 397 C 34.2393 -3.47688 -0.0289127 0
M  V30 398 H 33.5623 -3.93505 0.706651 0
M  V30 399 H 35.0023 -4.23011 -0.289432 0
M  V30 400 C 33.4613 -3.11817 -1.2756 0
M  V30 401 O 33.9913 -3.2451 -2.36762 0
M  V30 402 N 32.1973 -2.66246 -1.16453 0
M  V30 403 H 31.7443 -2.56118 -0.275914 0
M  V30 404 H 31.7023 -2.42617 -1.99961 0
M  V30 405 N 35.4744 -0.807222 -1.35358 0
M  V30 406 C 36.3844 -0.219594 -2.3357 0
M  V30 407 C 37.4004 0.637734 -1.61892 0
M  V30 408 O 38.5764 0.549336 -1.93763 0
M  V30 409 C 35.6414 0.62158 -3.41083 0
M  V30 410 C 34.7024 -0.256315 -4.28534 0
M  V30 411 C 33.9354 0.544807 -5.30912 0
M  V30 412 O 34.1584 1.77944 -5.41934 0
M  V30 413 O 33.0924 -0.0646478 -6.01865 0
M  V30 414 H 36.9184 -1.03208 -2.85625 0
M  V30 415 H 34.5034 -0.569025 -1.38139 0
M  V30 416 H 36.3854 1.10067 -4.06772 0
M  V30 417 H 35.0604 1.41165 -2.91297 0
M  V30 418 H 33.9674 -0.782559 -3.65823 0
M  V30 419 H 35.3004 -1.01034 -4.81719 0
M  V30 420 N 36.9525 1.47285 -0.560781 0
M  V30 421 C 37.9155 2.28535 0.174488 0
M  V30 422 C 38.9155 1.37153 0.839388 0
M  V30 423 O 40.1055 1.59748 0.694702 0
M  V30 424 C 37.2375 3.16934 1.25561 0
M  V30 425 H 38.4305 2.95012 -0.539262 0
M  V30 426 H 35.9835 1.53034 -0.317865 0
M  V30 427 H 36.7185 2.55157 2.00164 0
M  V30 428 H 36.5035 3.8419 0.783604 0
M  V30 429 H 37.9935 3.78143 1.77193 0
M  V30 430 N 38.4306 0.297415 1.54768 0
M  V30 431 C 39.6706 -0.313829 2.01976 0
M  V30 432 C 40.0346 -1.51366 1.1812 0
M  V30 433 O 41.2356 -2.19603 1.5501 0
M  V30 434 C 39.5066 -0.664964 3.51159 0
M  V30 435 S 41.0656 -1.25958 4.20333 0
M  V30 436 H 37.8836 -0.0965014 0.704421 0
M  V30 437 H 40.4856 0.424451 1.90837 0
M  V30 438 H 39.1896 0.21681 4.09827 0
M  V30 439 H 38.7206 -1.43413 3.66328 0
M  V30 440 H 40.7356 -2.54751 4.25813 0
M  V30 441 N 39.9087 -1.5758 0.0250728 0
M  V30 442 C 41.1547 -1.92746 -0.649648 0
M  V30 443 C 41.5097 -0.901588 -1.69968 0
M  V30 444 O 40.8027 0.0829251 -1.9142 0
M  V30 445 C 40.9967 -3.32421 -1.31268 0
M  V30 446 C 40.8257 -4.48499 -0.328394 0
M  V30 447 C 39.5957 -5.05251 0.070284 0
M  V30 448 C 41.7937 -5.12618 0.415665 0
M  V30 449 N 39.7757 -6.04851 1.05016 0
M  V30 450 C 41.1467 -6.0728 1.24943 0
M  V30 451 C 43.2017 -4.95612 0.476803 0
M  V30 452 C 41.9047 -6.86766 2.1388 0
M  V30 453 C 43.9307 -5.75703 1.3535 0
M  V30 454 C 43.2927 -6.69978 2.17504 0
M  V30 455 H 39.3917 -0.753231 -0.210159 0
M  V30 456 H 41.9757 -1.94486 0.0912999 0
M  V30 457 H 40.1467 -3.31508 -2.02379 0
M  V30 458 H 41.8787 -3.54946 -1.94411 0
M  V30 459 H 38.6337 -4.72628 -0.303323 0
M  V30 460 H 39.0577 -6.5934 1.53622 0
M  V30 461 H 43.6997 -4.22554 -0.144105 0
M  V30 462 H 41.4177 -7.59132 2.77027 0
M  V30 463 H 45.0037 -5.64579 1.40504 0
M  V30 464 H 43.8837 -7.30873 2.84244 0
M  V30 465 N 41.3868 0.248026 -1.55636 0
M  V30 466 C 42.6638 0.998988 -1.68165 0
M  V30 467 C 43.0438 2.03409 -0.564621 0
M  V30 468 O 42.3918 2.24378 0.432076 0
M  V30 469 C 42.6018 1.63334 -3.0842 0
M  V30 470 C 43.9498 2.13562 -3.66983 0
M  V30 471 O 44.9738 1.73277 -3.11213 0
M  V30 472 O 43.8328 2.87526 -4.64749 0
M  V30 473 H 40.9268 0.464933 -0.683935 0
M  V30 474 H 43.4728 0.241902 -1.67967 0
M  V30 475 H 42.2448 0.884583 -3.8117 0
M  V30 476 H 41.8678 2.45666 -3.12624 0
M  V30 477 N 42.8649 1.48995 0.513639 0
M  V30 478 C 44.1139 1.57093 1.2651 0
M  V30 479 C 44.4269 0.257091 1.93903 0
M  V30 480 O 45.6329 0.216478 2.70636 0
M  V30 481 C 44.0889 2.77118 2.29638 0
M  V30 482 C 43.6969 4.15209 1.68241 0
M  V30 483 C 45.4409 2.94538 3.05692 0
M  V30 484 C 43.3479 5.26474 2.69406 0
M  V30 485 H 42.2779 0.584876 0.475854 0
M  V30 486 H 44.9289 1.7536 0.540487 0
M  V30 487 H 43.3109 2.52319 3.05207 0
M  V30 488 H 44.4849 4.50094 0.987505 0
M  V30 489 H 42.7999 4.03042 1.04623 0
M  V30 490 H 45.3969 3.74832 3.8132 0
M  V30 491 H 45.7399 2.04614 3.62545 0
M  V30 492 H 46.2729 3.19316 2.37238 0
M  V30 493 H 43.0119 6.18417 2.17351 0
M  V30 494 H 42.5319 4.96058 3.37175 0
M  V30 495 H 44.2109 5.55277 3.32078 0
M  V30 496 N 44.343 -0.763751 1.37857 0
M  V30 497 C 45.568 -1.55805 1.36893 0
M  V30 498 C 45.993 -1.88054 -0.0416135 0
M  V30 499 O 45.351 -1.49825 -1.02089 0
M  V30 500 C 45.399 -2.84012 2.22192 0
M  V30 501 O 44.503 -3.78732 1.63204 0
M  V30 502 H 43.844 -0.471638 0.46739 0
M  V30 503 H 46.374 -0.944657 1.81487 0
M  V30 504 H 46.384 -3.33037 2.35691 0
M  V30 505 H 45.059 -2.59869 3.24716 0
M  V30 506 H 43.636 -3.37402 1.58791 0
M  V30 507 N 45.8211 -1.22559 -0.990812 0
M  V30 508 C 47.0461 -1.07862 -1.77145 0
M  V30 509 C 47.4711 0.366447 -1.84496 0
M  V30 510 O 46.8291 1.26478 -1.29896 0
M  V30 511 C 46.8771 -1.69686 -3.18181 0
M  V30 512 O 45.9811 -0.951946 -4.01263 0
M  V30 513 H 45.3221 -0.378712 -0.545411 0
M  V30 514 H 47.8521 -1.62399 -1.2445 0
M  V30 515 H 47.8621 -1.74496 -3.68802 0
M  V30 516 H 46.5371 -2.74841 -3.12146 0
M  V30 517 H 45.1141 -0.980011 -3.59792 0
M  V30 518 N 47.2992 1.18797 -1.03562 0
M  V30 519 C 48.5242 1.9314 -0.755764 0
M  V30 520 C 48.9492 1.7537 0.68022 0
M  V30 521 O 48.3072 1.06046 1.47051 0
M  V30 522 C 48.3552 3.42747 -1.12058 0
M  V30 523 O 47.4592 4.11683 -0.243124 0
M  V30 524 H 46.8002 0.602724 -0.278604 0
M  V30 525 H 49.3302 1.50678 -1.3841 0
M  V30 526 H 49.3402 3.93437 -1.08035 0
M  V30 527 H 48.0152 3.55002 -2.16672 0
M  V30 528 H 46.5922 3.71323 -0.342539 0
M  V30 529 N 48.7773 0.814389 1.34928 0
M  V30 530 C 50.0253 0.397636 1.9815 0
M  V30 531 C 50.3463 -1.04069 1.64908 0
M  V30 532 O 49.6163 -1.72121 0.93548 0
M  V30 533 H 48.1963 0.144043 0.732981 0
M  V30 534 H 50.8583 1.04195 1.6471 0
M  V30 535 H 49.9543 0.509688 3.0791 0
M  V30 536 N 50.2554 -1.46986 0.568584 0
M  V30 537 C 51.5014 -2.02741 0.0488709 0
M  V30 538 C 51.8344 -1.44077 -1.30214 0
M  V30 539 O 51.1094 -0.600552 -1.84996 0
M  V30 540 C 51.3924 -3.60086 -0.032047 0
M  V30 541 C 51.2454 -4.29162 1.34686 0
M  V30 542 C 52.5644 -4.33838 -0.739798 0
M  V30 543 H 49.6834 -0.736749 0.0192338 0
M  V30 544 H 52.3254 -1.75289 0.733065 0
M  V30 545 H 50.4754 -3.83606 -0.61473 0
M  V30 546 H 52.1474 -4.16948 1.97362 0
M  V30 547 H 50.3904 -3.89073 1.91846 0
M  V30 548 H 51.0614 -5.37826 1.24285 0
M  V30 549 H 53.5374 -4.15378 -0.244939 0
M  V30 550 H 52.4134 -5.43537 -0.765406 0
M  V30 551 H 52.6744 -4.03875 -1.79827 0
M  V30 552 N 51.7335 -0.305618 -1.54608 0
M  V30 553 C 52.6815 0.584119 -2.25146 0
M  V30 554 C 53.6755 1.13326 -1.25911 0
M  V30 555 O 54.8815 1.08337 -1.43747 0
M  V30 556 H 51.2565 0.206983 -0.722954 0
M  V30 557 H 53.2275 -0.033291 -2.98381 0
M  V30 558 C 51.9765 1.74225 -3.009 0
M  V30 559 H 51.2995 1.32892 -3.77067 0
M  V30 560 H 52.7395 2.34077 -3.53531 0
M  V30 561 C 51.1985 2.64914 -2.0814 0
M  V30 562 O 51.7285 3.66137 -1.65246 0
M  V30 563 N 49.9345 2.3275 -1.74 0
M  V30 564 H 49.4815 1.50479 -2.09078 0
M  V30 565 H 49.4395 2.93694 -1.12211 0
M  V30 566 N 53.2116 1.57565 -0.0334293 0
M  V30 567 C 54.1416 2.13511 0.945265 0
M  V30 568 C 55.1226 1.05231 1.33643 0
M  V30 569 O 56.3076 1.33084 1.41429 0
M  V30 570 C 53.4376 2.6657 2.22616 0
M  V30 571 C 52.3916 3.79676 1.97561 0
M  V30 572 C 51.7176 4.1918 3.31952 0
M  V30 573 C 53.0176 5.0557 1.31135 0
M  V30 574 H 54.7116 2.95538 0.479325 0
M  V30 575 H 52.2576 1.42166 0.229115 0
M  V30 576 H 54.2106 3.04344 2.91466 0
M  V30 577 H 52.9346 1.8171 2.71384 0
M  V30 578 H 51.5936 3.42347 1.31127 0
M  V30 579 H 51.2416 3.31296 3.78487 0
M  V30 580 H 50.9416 4.95402 3.15992 0
M  V30 581 H 52.4656 4.59541 4.02063 0
M  V30 582 H 53.8796 5.40903 1.89992 0
M  V30 583 H 52.2766 5.86818 1.25559 0
M  V30 584 H 53.3466 4.84062 0.284894 0
M  V30 585 N 54.6897 -0.239769 1.55765 0
M  V30 586 C 55.6217 -1.32001 1.87372 0
M  V30 587 C 56.6347 -1.43944 0.760522 0
M  V30 588 O 57.8237 -1.45167 1.0387 0
M  V30 589 C 54.9237 -2.69779 2.05115 0
M  V30 590 C 54.0967 -2.80014 3.36022 0
M  V30 591 C 53.1557 -3.98684 3.4342 0
M  V30 592 O 52.1817 -3.87877 4.16582 0
M  V30 593 N 53.3837 -5.12176 2.73232 0
M  V30 594 H 56.1487 -1.0522 2.80622 0
M  V30 595 H 53.7097 -0.429857 1.56089 0
M  V30 596 H 55.7017 -3.47517 2.07399 0
M  V30 597 H 54.2717 -2.89237 1.18577 0
M  V30 598 H 53.4917 -1.88896 3.45994 0
M  V30 599 H 54.7797 -2.83808 4.22292 0
M  V30 600 H 54.1777 -5.2385 2.13536 0
M  V30 601 H 52.7347 -5.88022 2.81199 0
M  V30 602 N 56.1678 -1.49265 -0.50573 0
M  V30 603 C 57.3928 -1.62478 -1.28902 0
M  V30 604 C 57.8178 -0.294332 -1.85783 0
M  V30 605 O 57.1758 0.737412 -1.65626 0
M  V30 606 C 57.2238 -2.69268 -2.39848 0
M  V30 607 O 56.3278 -2.28113 -3.43567 0
M  V30 608 H 55.6688 -0.54399 -0.380751 0
M  V30 609 H 58.1988 -1.95421 -0.605952 0
M  V30 610 H 58.2088 -2.91291 -2.85681 0
M  V30 611 H 56.8838 -3.65846 -1.97812 0
M  V30 612 H 55.4608 -2.16401 -3.03685 0
M  V30 613 N 57.6459 0.756429 -1.3826 0
M  V30 614 C 58.5789 1.87802 -1.29637 0
M  V30 615 C 59.5569 1.61667 -0.173939 0
M  V30 616 O 60.7409 1.85208 -0.350775 0
M  V30 617 C 57.8679 3.23354 -1.00797 0
M  V30 618 C 56.9139 3.68379 -2.14939 0
M  V30 619 S 57.7469 3.8025 -3.77054 0
M  V30 620 C 58.9029 5.18626 -3.50396 0
M  V30 621 H 59.1359 1.94829 -2.24564 0
M  V30 622 H 56.6689 0.919117 -1.24063 0
M  V30 623 H 58.6269 4.01637 -0.848413 0
M  V30 624 H 57.2879 3.14008 -0.0759369 0
M  V30 625 H 56.4809 4.66693 -1.90299 0
M  V30 626 H 56.0829 2.97242 -2.26988 0
M  V30 627 H 58.3749 6.04289 -3.06334 0
M  V30 628 H 59.3179 5.48286 -4.48094 0
M  V30 629 H 59.7259 4.87289 -2.84973 0
M  V30 630 N 59.124 1.23083 0.984299 0
M  V30 631 C 60.401 0.9689 1.69917 0
M  V30 632 C 60.781 -0.513604 2.04757 0
M  V30 633 O 60.129 -1.48383 1.73767 0
M  V30 634 C 60.339 1.87518 2.94343 0
M  V30 635 C 61.687 2.13636 3.6694 0
M  V30 636 O 62.711 1.85036 3.04368 0
M  V30 637 O 61.57 2.62119 4.79537 0
M  V30 638 H 58.664 0.365095 0.742048 0
M  V30 639 H 61.21 1.34107 1.03987 0
M  V30 640 H 59.982 2.87756 2.65164 0
M  V30 641 H 59.605 1.50514 3.6801 0
M  V30 642 N 60.6021 -1.18246 1.0419 0
M  V30 643 C 61.8271 -1.92736 0.765996 0
M  V30 644 C 62.2521 -1.75728 -0.67091 0
M  V30 645 O 61.6101 -1.06825 -1.46486 0
M  V30 646 C 61.6581 -3.42148 1.13875 0
M  V30 647 O 60.7621 -4.11548 0.264954 0
M  V30 648 H 60.1031 -0.601238 0.281797 0
M  V30 649 H 62.6331 -1.49942 1.39207 0
M  V30 650 H 62.6431 -3.92858 1.1012 0
M  V30 651 H 61.3181 -3.53848 2.18551 0
M  V30 652 H 59.8951 -3.71137 0.362226 0
M  V30 653 N 62.0802 -0.821533 -1.34494 0
M  V30 654 C 63.3052 -0.420873 -2.03085 0
M  V30 655 C 63.7302 0.964915 -1.61465 0
M  V30 656 O 63.0882 1.62763 -0.798607 0
M  V30 657 C 63.1362 -0.529414 -3.56693 0
M  V30 658 O 62.2402 0.451302 -4.09923 0
M  V30 659 H 61.5812 -0.173489 -0.640935 0
M  V30 660 H 64.1112 -1.11157 -1.71771 0
M  V30 661 H 64.1212 -0.404671 -4.05988 0
M  V30 662 H 62.7962 -1.54014 -3.86332 0
M  V30 663 H 61.3732 0.285558 -3.71805 0
M  V30 664 N 63.5583 1.46682 -0.576371 0
M  V30 665 C 64.5083 2.27278 0.181288 0
M  V30 666 C 65.4923 1.35497 0.867721 0
M  V30 667 O 66.6843 1.59717 0.762863 0
M  V30 668 C 63.8133 3.21703 1.19841 0
M  V30 669 C 62.8993 4.20969 0.51442 0
M  V30 670 N 63.2903 5.03999 -0.426407 0
M  V30 671 C 61.5883 4.39373 0.765963 0
M  V30 672 C 62.2893 5.75812 -0.825565 0
M  V30 673 N 61.2653 5.43315 -0.176116 0
M  V30 674 H 65.0673 2.88863 -0.541785 0
M  V30 675 H 62.5813 1.57455 -0.397697 0
M  V30 676 H 64.5783 3.78145 1.75533 0
M  V30 677 H 63.2383 2.61677 1.92238 0
M  V30 678 H 64.2493 5.11659 -0.8016 0
M  V30 679 H 60.9263 3.90502 1.47698 0
M  V30 680 H 62.3163 6.52577 -1.59976 0
M  V30 681 N 65.0364 0.313813 1.54444 0
M  V30 682 C 66.2824 -0.292108 2.00685 0
M  V30 683 C 66.6154 -1.52548 1.20177 0
M  V30 684 O 65.8904 -1.92452 0.281531 0
M  V30 685 C 66.1734 -0.635968 3.5444 0
M  V30 686 C 66.0264 0.607437 4.4568 0
M  V30 687 C 67.3454 -1.45747 4.15266 0
M  V30 688 H 64.4644 -0.104697 0.729526 0
M  V30 689 H 67.1064 0.428457 1.85106 0
M  V30 690 H 65.2564 -1.24986 3.67846 0
M  V30 691 H 66.9284 1.24581 4.44159 0
M  V30 692 H 65.1714 1.23822 4.15753 0
M  V30 693 H 65.8424 0.322515 5.51057 0
M  V30 694 H 68.3184 -0.938645 4.05375 0
M  V30 695 H 67.1944 -1.66683 5.2298 0
M  V30 696 H 67.4554 -2.45063 3.67963 0
M  V30 697 N 66.5145 -1.57545 0.0417849 0
M  V30 698 C 67.7395 -1.97035 -0.647455 0
M  V30 699 C 68.1645 -0.918775 -1.64135 0
M  V30 700 O 67.5225 0.119006 -1.80909 0
M  V30 701 C 67.5705 -3.35609 -1.31905 0
M  V30 702 O 66.6745 -3.3287 -2.43457 0
M  V30 703 H 66.0155 -0.64211 -0.169086 0
M  V30 704 H 68.5455 -2.04318 0.107399 0
M  V30 705 H 68.5555 -3.72126 -1.67291 0
M  V30 706 H 67.2305 -4.11685 -0.590586 0
M  V30 707 H 65.8075 -3.08087 -2.10088 0
M  V30 708 N 67.9926 0.231505 -1.5589 0
M  V30 709 C 68.9226 1.29022 -1.94617 0
M  V30 710 C 69.9036 1.4941 -0.813067 0
M  V30 711 O 71.0886 1.6176 -1.07459 0
M  V30 712 C 68.2186 2.64199 -2.25424 0
M  V30 713 C 67.1726 2.58484 -3.41131 0
M  V30 714 C 66.4986 3.97599 -3.57518 0
M  V30 715 C 67.7986 2.1413 -4.76388 0
M  V30 716 H 69.4926 0.968563 -2.83301 0
M  V30 717 H 67.0386 0.464479 -1.36303 0
M  V30 718 H 68.9916 3.38413 -2.51107 0
M  V30 719 H 67.7156 2.98032 -1.33583 0
M  V30 720 H 66.3746 1.86727 -3.15481 0
M  V30 721 H 66.0226 4.28723 -2.6307 0
M  V30 722 H 65.7226 3.94659 -4.35337 0
M  V30 723 H 67.2466 4.7349 -3.85538 0
M  V30 724 H 68.6606 2.78083 -5.01341 0
M  V30 725 H 67.0576 2.2227 -5.57419 0
M  V30 726 H 68.1276 1.09331 -4.72414 0
M  V30 727 N 69.4707 1.49531 0.497807 0
M  V30 728 C 70.7167 1.59415 1.25358 0
M  V30 729 C 71.0497 0.281422 1.9215 0
M  V30 730 O 70.3247 -0.715249 1.80871 0
M  V30 731 C 70.6077 2.75566 2.3181 0
M  V30 732 C 70.4607 4.16642 1.69498 0
M  V30 733 C 71.7797 2.87347 3.33346 0
M  V30 734 H 68.8987 0.580244 0.454408 0
M  V30 735 H 71.5407 1.81827 0.551262 0
M  V30 736 H 69.6907 2.56587 2.91711 0
M  V30 737 H 71.3627 4.47145 1.13399 0
M  V30 738 H 69.6057 4.22141 0.998978 0
M  V30 739 H 70.2767 4.93792 2.46725 0
M  V30 740 H 72.7527 3.04634 2.83438 0
M  V30 741 H 71.6287 3.70289 4.05188 0
M  V30 742 H 71.8897 1.96834 3.95865 0
M  V30 743 N 70.9488 -0.749086 1.3866 0
M  V30 744 C 71.8808 -1.87273 1.32142 0
M  V30 745 C 72.8938 -1.61127 0.232787 0
M  V30 746 O 74.0828 -1.71623 0.49069 0
M  V30 747 C 71.1828 -3.23005 1.02571 0
M  V30 748 C 70.3558 -3.7662 2.22433 0
M  V30 749 C 69.4148 -4.90879 1.89537 0
M  V30 750 O 68.4408 -5.05276 2.62078 0
M  V30 751 N 69.6428 -5.74198 0.853031 0
M  V30 752 H 72.4078 -1.93373 2.28969 0
M  V30 753 H 69.9688 -0.929216 1.32579 0
M  V30 754 H 71.9608 -3.96992 0.786085 0
M  V30 755 H 70.5308 -3.12262 0.145249 0
M  V30 756 H 69.7508 -2.94147 2.62434 0
M  V30 757 H 71.0388 -4.09173 3.02415 0
M  V30 758 H 70.4368 -5.6514 0.25155 0
M  V30 759 H 68.9938 -6.48313 0.67329 0
M  V30 760 N 72.4269 -1.23603 -0.977757 0
M  V30 761 C 73.3569 -1.04401 -2.0886 0
M  V30 762 C 74.3379 0.0399052 -1.70053 0
M  V30 763 O 75.5229 -0.125246 -1.93796 0
M  V30 764 C 72.6529 -0.637269 -3.41403 0
M  V30 765 C 71.6069 -1.66883 -3.94124 0
M  V30 766 C 70.9329 -1.11745 -5.22893 0
M  V30 767 C 72.2329 -3.06247 -4.23096 0
M  V30 768 H 73.9269 -1.97316 -2.25182 0
M  V30 769 H 71.4729 -0.950096 -1.08209 0
M  V30 770 H 73.4259 -0.48998 -4.18542 0
M  V30 771 H 72.1499 0.327557 -3.24953 0
M  V30 772 H 70.8089 -1.80416 -3.19133 0
M  V30 773 H 70.4569 -0.143527 -5.02795 0
M  V30 774 H 70.1569 -1.80672 -5.59134 0
M  V30 775 H 71.6809 -0.982067 -6.02651 0
M  V30 776 H 73.0949 -2.96001 -4.90975 0
M  V30 777 H 71.4919 -3.72436 -4.70544 0
M  V30 778 H 72.5619 -3.55041 -3.30263 0
M  V30 779 N 73.905 1.17692 -1.04816 0
M  V30 780 C 75.133 1.91786 -0.776254 0
M  V30 781 C 75.548 1.76604 0.667577 0
M  V30 782 O 74.905 1.10067 1.45573 0
M  V30 783 C 74.956 3.42967 -1.14263 0
M  V30 784 O 74.677 3.57678 -2.52978 0
M  V30 785 C 76.178 4.34144 -0.896311 0
M  V30 786 H 73.398 0.608624 -0.282519 0
M  V30 787 H 75.942 1.49268 -1.39783 0
M  V30 788 H 74.097 3.83245 -0.565874 0
M  V30 789 H 74.511 4.51319 -2.67229 0
M  V30 790 H 75.985 5.38744 -1.20244 0
M  V30 791 H 76.462 4.38876 0.168636 0
M  V30 792 H 77.068 3.99574 -1.45672 0
M  V30 793 N 75.3831 0.828654 1.34056 0
M  V30 794 C 76.3131 0.269443 2.3194 0
M  V30 795 C 77.2941 -0.617247 1.58506 0
M  V30 796 O 78.4791 -0.542931 1.86456 0
M  V30 797 C 75.6091 -0.564793 3.42677 0
M  V30 798 C 74.5631 0.225241 4.27407 0
M  V30 799 C 73.8891 -0.7321 5.29664 0
M  V30 800 C 75.1891 1.43663 5.02154 0
M  V30 801 H 76.8831 1.08728 2.7896 0
M  V30 802 H 74.4291 0.524283 1.34117 0
M  V30 803 H 76.3821 -0.966233 4.10173 0
M  V30 804 H 75.1061 -1.41574 2.9432 0
M  V30 805 H 73.7651 0.608117 3.61521 0
M  V30 806 H 73.4131 -1.57916 4.77568 0
M  V30 807 H 73.1131 -0.20767 5.87233 0
M  V30 808 H 74.6371 -1.13128 6.00029 0
M  V30 809 H 76.0511 1.1089 5.62473 0
M  V30 810 H 74.4481 1.89711 5.69324 0
M  V30 811 H 75.5181 2.21181 4.31517 0
M  V30 812 N 76.8612 -1.46375 0.584142 0
M  V30 813 C 78.2772 -1.57694 0.245929 0
M  V30 814 C 78.4772 -1.57903 -1.25175 0
M  V30 815 O 77.5332 -1.49676 -2.03355 0
M  V30 816 C 78.8462 -2.87028 0.896402 0
M  V30 817 C 80.3942 -3.00662 0.870127 0
M  V30 818 C 80.8692 -4.32734 1.50017 0
M  V30 819 N 82.3602 -4.39436 1.46458 0
M  V30 820 C 83.0952 -5.40248 1.92144 0
M  V30 821 N 82.5912 -6.47726 2.4581 0
M  V30 822 N 84.3842 -5.31459 1.83052 0
M  V30 823 H 76.5352 -1.44483 1.55687 0
M  V30 824 H 78.7982 -0.689291 0.650831 0
M  V30 825 H 78.5042 -2.9269 1.95002 0
M  V30 826 H 78.3782 -3.75014 0.405486 0
M  V30 827 H 80.7652 -2.94581 -0.174871 0
M  V30 828 H 80.8462 -2.14148 1.39908 0
M  V30 829 H 80.4902 -4.39573 2.54437 0
M  V30 830 H 80.4202 -5.18025 0.946432 0
M  V30 831 H 82.9112 -3.62367 1.07231 0
M  V30 832 H 83.2242 -7.20863 2.78525 0
M  V30 833 H 81.5692 -6.48542 2.49836 0
M  V30 834 H 84.7602 -4.46396 1.40883 0
M  V30 835 H 84.9332 -6.09881 2.18973 0
M  V30 836 N 78.3393 -0.321999 -1.54275 0
M  V30 837 C 79.5643 0.285791 -2.05422 0
M  V30 838 C 79.9893 1.45124 -1.19669 0
M  V30 839 O 79.3473 1.80132 -0.205441 0
M  V30 840 C 79.3953 0.69956 -3.53749 0
M  V30 841 O 78.4993 1.8021 -3.70942 0
M  V30 842 H 77.8403 0.0518962 -0.661969 0
M  V30 843 H 80.3703 -0.469954 -1.9913 0
M  V30 844 H 80.3803 0.982649 -3.9599 0
M  V30 845 H 79.0553 -0.152864 -4.15619 0
M  V30 846 H 77.6323 1.51794 -3.40607 0
M  V30 847 N 79.8174 1.5752 -0.0501392 0
M  V30 848 C 80.7274 2.14952 0.939827 0
M  V30 849 C 81.7434 1.10706 1.34239 0
M  V30 850 O 82.9194 1.42869 1.41952 0
M  V30 851 C 79.9844 2.68232 2.19665 0
M  V30 852 C 79.0454 3.87272 1.85253 0
M  V30 853 C 78.2784 4.38002 3.04943 0
M  V30 854 O 78.5014 3.87811 4.18281 0
M  V30 855 O 77.4354 5.29602 2.86017 0
M  V30 856 H 81.2614 2.9986 0.481392 0
M  V30 857 H 78.8464 1.4841 0.171699 0
M  V30 858 H 80.7284 3.02475 2.93406 0
M  V30 859 H 79.4034 1.86395 2.64648 0
M  V30 860 H 78.3104 3.5792 1.0883 0
M  V30 861 H 79.6434 4.70336 1.4507 0
M  V30 862 N 81.2955 -0.223234 1.56011 0
M  V30 863 C 82.5435 -0.946003 1.78592 0
M  V30 864 C 82.8645 -1.84936 0.618349 0
M  V30 865 O 82.1345 -1.92473 -0.364833 0
M  V30 866 H 80.7145 -0.352298 0.658707 0
M  V30 867 H 83.3765 -0.235494 1.93472 0
M  V30 868 H 82.4725 -1.55381 2.70672 0
M  V30 869 N 82.7736 -1.49793 -0.48987 0
M  V30 870 C 84.0206 -1.59841 -1.24327 0
M  V30 871 C 84.3486 -0.290135 -1.92324 0
M  V30 872 O 83.6036 0.722749 -1.81865 0
M  V30 873 C 83.9026 -2.71488 -2.32441 0
M  V30 874 C 83.5686 -4.12614 -1.81826 0
M  V30 875 C 82.2306 -4.51017 -1.67742 0
M  V30 876 C 84.5826 -5.00892 -1.4407 0
M  V30 877 C 81.9106 -5.75459 -1.14297 0
M  V30 878 C 84.2626 -6.25863 -0.920742 0
M  V30 879 C 82.9266 -6.63086 -0.766383 0
M  V30 880 H 82.1966 -0.584899 -0.454944 0
M  V30 881 H 84.8436 -1.83663 -0.542215 0
M  V30 882 H 83.1486 -2.4168 -3.0838 0
M  V30 883 H 84.8456 -2.76469 -2.90458 0
M  V30 884 H 81.4356 -3.82307 -1.93751 0
M  V30 885 H 85.6196 -4.7187 -1.53794 0
M  V30 886 H 80.8756 -6.02989 -1.01068 0
M  V30 887 H 85.0496 -6.9364 -0.619448 0
M  V30 888 H 82.6766 -7.59393 -0.350083 0
M  V30 889 N 84.2517 0.741722 -1.39055 0
M  V30 890 C 85.5287 1.49252 -1.26425 0
M  V30 891 C 85.9087 2.10705 0.129144 0
M  V30 892 O 85.2567 1.98045 1.13976 0
M  V30 893 C 85.4667 2.54934 -2.38347 0
M  V30 894 C 86.8147 3.21506 -2.77343 0
M  V30 895 O 87.8387 2.65245 -2.37747 0
M  V30 896 O 86.6977 4.23294 -3.45665 0
M  V30 897 H 83.7917 0.662451 -0.495064 0
M  V30 898 H 86.3377 0.776121 -1.50912 0
M  V30 899 H 85.1097 2.07857 -3.31529 0
M  V30 900 H 84.7327 3.34141 -2.15489 0
M  V30 901 N 85.7298 1.2412 0.971189 0
M  V30 902 C 86.9578 1.10575 1.74874 0
M  V30 903 C 87.3728 -0.342017 1.85676 0
M  V30 904 O 86.7298 -1.23617 1.34258 0
M  V30 905 C 86.7808 1.73579 3.171 0
M  V30 906 O 86.5018 3.12695 3.06844 0
M  V30 907 C 88.0028 1.65598 4.11208 0
M  V30 908 H 85.2228 0.386504 0.548503 0
M  V30 909 H 87.7668 1.64156 1.21955 0
M  V30 910 H 85.9218 1.24009 3.67016 0
M  V30 911 H 86.3358 3.43412 3.96445 0
M  V30 912 H 87.8098 2.1437 5.08674 0
M  V30 913 H 88.2868 0.616532 4.34851 0
M  V30 914 H 88.8928 2.14578 3.67201 0
M  V30 915 N 87.2079 -1.17134 1.05439 0
M  V30 916 C 88.4379 -1.91094 0.785274 0
M  V30 917 C 88.8459 -1.77198 -0.663142 0
M  V30 918 O 88.1889 -1.10835 -1.46497 0
M  V30 919 C 88.2509 -3.42594 1.08949 0
M  V30 920 C 87.9149 -3.80274 2.53458 0
M  V30 921 C 88.9119 -3.82912 3.51673 0
M  V30 922 C 86.5969 -4.11162 2.88532 0
M  V30 923 C 88.5909 -4.15913 4.83006 0
M  V30 924 C 86.2779 -4.43831 4.20068 0
M  V30 925 C 87.2759 -4.46185 5.17115 0
M  V30 926 O 86.9639 -4.78083 6.46291 0
M  V30 927 H 86.6959 -0.613073 0.284811 0
M  V30 928 H 89.2499 -1.49461 1.40893 0
M  V30 929 H 87.4799 -3.84534 0.408741 0
M  V30 930 H 89.1689 -3.97817 0.805991 0
M  V30 931 H 89.9349 -3.5917 3.25917 0
M  V30 932 H 85.8139 -4.085 2.13656 0
M  V30 933 H 89.3579 -4.17665 5.5875 0
M  V30 934 H 85.2549 -4.67037 4.45586 0
M  V30 935 H 86.0229 -4.9593 6.51149 0
M  V30 936 N 88.686 -0.835752 -1.33615 0
M  V30 937 C 90.102 -0.523139 -1.50783 0
M  V30 938 C 90.302 0.950171 -1.77691 0
M  V30 939 O 89.358 1.73411 -1.83534 0
M  V30 940 C 90.671 -1.39378 -2.66448 0
M  V30 941 C 92.219 -1.39223 -2.80332 0
M  V30 942 C 92.694 -2.24765 -3.99055 0
M  V30 943 N 94.185 -2.22458 -4.06284 0
M  V30 944 C 94.92 -2.85386 -4.97336 0
M  V30 945 N 94.416 -3.57354 -5.93523 0
M  V30 946 N 96.209 -2.74872 -4.90308 0
M  V30 947 H 88.36 -1.78952 -1.14411 0
M  V30 948 H 90.623 -0.763297 -0.562212 0
M  V30 949 H 90.329 -2.44061 -2.53234 0
M  V30 950 H 90.203 -1.0676 -3.61776 0
M  V30 951 H 92.59 -0.353136 -2.92979 0
M  V30 952 H 92.671 -1.75846 -1.85773 0
M  V30 953 H 92.315 -3.28732 -3.87167 0
M  V30 954 H 92.245 -1.85485 -4.92852 0
M  V30 955 H 94.736 -1.70119 -3.37443 0
M  V30 956 H 95.049 -4.02584 -6.59656 0
M  V30 957 H 93.394 -3.61461 -5.93608 0
M  V30 958 H 96.585 -2.18213 -4.14126 0
M  V30 959 H 96.758 -3.24199 -5.61069 0
M  V30 960 N 90.1641 1.46063 -0.591896 0
M  V30 961 C 91.4041 2.04228 -0.0838014 0
M  V30 962 C 91.7681 1.45231 1.25587 0
M  V30 963 O 92.9691 1.94653 1.85375 0
M  V30 964 C 91.2401 3.57389 -0.0286282 0
M  V30 965 S 92.7991 4.3678 0.420557 0
M  V30 966 H 89.6171 0.709762 -0.0419319 0
M  V30 967 H 92.2191 1.78983 -0.786465 0
M  V30 968 H 90.9231 3.97843 -1.00743 0
M  V30 969 H 90.4541 3.87185 0.69652 0
M  V30 970 H 92.4691 4.67131 1.67341 0
M  V30 971 N 91.6422 0.330177 1.54103 0
M  V30 972 C 92.9192 -0.325007 1.92881 0
M  V30 973 C 93.2992 -1.6934 1.26045 0
M  V30 974 O 92.6472 -2.24855 0.406526 0
M  V30 975 C 92.8572 -0.410634 3.46576 0
M  V30 976 C 94.2052 -0.667801 4.19316 0
M  V30 977 O 95.2292 -0.49329 3.52768 0
M  V30 978 O 94.0882 -1.00491 5.37181 0
M  V30 979 H 91.1822 -0.186873 0.80561 0
M  V30 980 H 93.7282 0.380376 1.65382 0
M  V30 981 H 92.5002 0.550164 3.87413 0
M  V30 982 H 92.1232 -1.16333 3.802 0
M  V30 983 N 93.1203 -1.57491 0.0584922 0
M  V30 984 C 94.5363 -1.56792 -0.298091 0
M  V30 985 C 94.7363 -1.06679 -1.70944 0
M  V30 986 O 93.7923 -0.726672 -2.41818 0
M  V30 987 C 95.1053 -3.00461 -0.119879 0
M  V30 988 C 96.6533 -3.1242 -0.190428 0
M  V30 989 C 97.1283 -4.57982 -0.0406567 0
M  V30 990 N 98.6193 -4.63099 -0.0966958 0
M  V30 991 C 99.3543 -5.734 -0.00502943 0
M  V30 992 N 98.8503 -6.9266 0.139402 0
M  V30 993 N 100.643 -5.62067 -0.0611391 0
M  V30 994 H 92.7943 -1.88386 0.98105 0
M  V30 995 H 95.0573 -0.867865 0.381463 0
M  V30 996 H 94.7633 -3.41187 0.85349 0
M  V30 997 H 94.6373 -3.66843 -0.877833 0
M  V30 998 H 97.0243 -2.71589 -1.15427 0
M  V30 999 H 97.1053 -2.48702 0.598405 0
M  V30 1000 H 96.7493 -4.995 0.919897 0
M  V30 1001 H 96.6793 -5.19715 -0.848727 0
M  V30 1002 H 99.1703 -3.77331 -0.207277 0
M  V30 1003 H 99.4833 -7.72536 0.201855 0
M  V30 1004 H 97.8283 -6.94781 0.174586 0
M  V30 1005 H 101.019 -4.67782 -0.172583 0
M  V30 1006 H 101.192 -6.47999 0.0137562 0
M  V30 1007 N 94.5984 0.214957 -1.56127 0
M  V30 1008 C 95.5464 1.28601 -1.93816 0
M  V30 1009 C 96.5404 1.48175 -0.821016 0
M  V30 1010 O 97.7464 1.49271 -1.0059 0
M  V30 1011 H 94.1214 0.431302 -0.616022 0
M  V30 1012 H 96.0924 0.940991 -2.83175 0
M  V30 1013 C 94.8414 2.62779 -2.27689 0
M  V30 1014 H 94.1644 2.48527 -3.13168 0
M  V30 1015 H 95.6044 3.36517 -2.57939 0
M  V30 1016 C 94.0634 3.18285 -1.10436 0
M  V30 1017 O 94.5934 4.00002 -0.368945 0
M  V30 1018 N 92.7994 2.7675 -0.886433 0
M  V30 1019 H 92.3464 2.10404 -1.48619 0
M  V30 1020 H 92.3044 3.14229 -0.103656 0
M  V30 1021 N 96.0765 1.50051 0.48192 0
M  V30 1022 C 97.0065 1.71046 1.58951 0
M  V30 1023 C 97.9875 0.559288 1.60642 0
M  V30 1024 O 99.1725 0.797243 1.77081 0
M  V30 1025 C 96.3025 1.79462 2.97339 0
M  V30 1026 C 95.2565 2.94558 3.10515 0
M  V30 1027 C 94.5825 2.88105 4.50444 0
M  V30 1028 C 95.8825 4.35227 2.88747 0
M  V30 1029 H 97.5765 2.6378 1.41635 0
M  V30 1030 H 95.1225 1.26936 0.679942 0
M  V30 1031 H 97.0755 1.92734 3.74742 0
M  V30 1032 H 95.7995 0.833412 3.15788 0
M  V30 1033 H 94.4585 2.80918 2.35543 0
M  V30 1034 H 94.1065 1.89853 4.65795 0
M  V30 1035 H 93.8065 3.65366 4.60197 0
M  V30 1036 H 95.3305 3.03412 5.29881 0
M  V30 1037 H 96.7445 4.49449 3.55905 0
M  V30 1038 H 95.1415 5.13856 3.09955 0
M  V30 1039 H 96.2115 4.48347 1.84696 0
M  V30 1040 N 97.5546 -0.734337 1.39446 0
M  V30 1041 C 98.5176 -1.83004 1.37994 0
M  V30 1042 C 99.5176 -1.58397 0.276938 0
M  V30 1043 O 100.708 -1.65785 0.534875 0
M  V30 1044 C 97.8396 -3.20802 1.1532 0
M  V30 1045 H 99.0326 -1.85694 2.35494 0
M  V30 1046 H 96.5856 -0.938059 1.25021 0
M  V30 1047 H 97.3206 -3.23772 0.185036 0
M  V30 1048 H 97.1056 -3.4006 1.95197 0
M  V30 1049 H 98.5956 -4.00862 1.17046 0
M  V30 1050 N 99.0327 -1.24633 -0.964593 0
M  V30 1051 C 99.9657 -0.984662 -2.05863 0
M  V30 1052 C 100.944 0.0826554 -1.6239 0
M  V30 1053 O 102.128 -0.0549296 -1.8842 0
M  V30 1054 C 99.2547 -0.486529 -3.35187 0
M  V30 1055 C 98.3007 -1.54286 -3.97615 0
M  V30 1056 S 99.1337 -3.12513 -4.34851 0
M  V30 1057 C 100.29 -2.6441 -5.67308 0
M  V30 1058 H 100.523 -1.91104 -2.27743 0
M  V30 1059 H 98.0557 -1.08052 -1.10291 0
M  V30 1060 H 100.014 -0.205757 -4.09984 0
M  V30 1061 H 98.6747 0.419186 -3.1129 0
M  V30 1062 H 97.8677 -1.14481 -4.90826 0
M  V30 1063 H 97.4697 -1.7738 -3.2926 0
M  V30 1064 H 99.7617 -2.07416 -6.44969 0
M  V30 1065 H 100.705 -3.56222 -6.11973 0
M  V30 1066 H 101.113 -2.04734 -5.26065 0
M  V30 1067 N 100.511 1.16574 -1.06058 0
M  V30 1068 C 101.759 1.86677 -0.77434 0
M  V30 1069 C 102.08 1.81959 0.701147 0
M  V30 1070 O 101.35 1.2515 1.50713 0
M  V30 1071 H 99.9298 0.691134 -0.283449 0
M  V30 1072 H 102.592 1.41378 -1.34158 0
M  V30 1073 H 101.688 2.92181 -1.09711 0
M  V30 1074 N 101.989 0.842826 1.3317 0
M  V30 1075 C 103.235 0.441099 1.97945 0
M  V30 1076 C 103.568 -0.998024 1.66593 0
M  V30 1077 O 102.843 -1.69839 0.947898 0
M  V30 1078 C 103.126 0.666841 3.53872 0
M  V30 1079 C 102.979 2.15352 3.94897 0
M  V30 1080 C 104.298 0.115544 4.39948 0
M  V30 1081 H 101.417 0.161739 0.719034 0
M  V30 1082 H 104.059 1.05907 1.57746 0
M  V30 1083 H 102.209 0.140828 3.88245 0
M  V30 1084 H 103.881 2.7447 3.70761 0
M  V30 1085 H 102.124 2.63653 3.44484 0
M  V30 1086 H 102.795 2.26221 5.03516 0
M  V30 1087 H 105.271 0.565213 4.12243 0
M  V30 1088 H 104.147 0.303152 5.48062 0
M  V30 1089 H 104.408 -0.980935 4.3108 0
M  V30 1090 N 103.467 -1.45747 0.599634 0
M  V30 1091 C 104.415 -2.322 -0.136426 0
M  V30 1092 C 105.409 -1.45497 -0.867583 0
M  V30 1093 O 106.615 -1.62027 -0.78405 0
M  V30 1094 H 102.99 -0.749368 -0.0628588 0
M  V30 1095 H 104.961 -2.92072 0.611281 0
M  V30 1096 C 103.71 -3.28974 -1.12567 0
M  V30 1097 H 103.033 -3.9568 -0.572484 0
M  V30 1098 H 104.473 -3.92212 -1.61077 0
M  V30 1099 C 102.932 -2.55561 -2.19523 0
M  V30 1100 O 103.462 -2.33111 -3.27143 0
M  V30 1101 N 101.668 -2.15832 -1.94589 0
M  V30 1102 H 101.215 -2.3429 -1.07078 0
M  V30 1103 H 101.173 -1.67034 -2.66359 0
M  V30 1104 N 104.945 -0.338344 -1.53925 0
M  V30 1105 C 105.875 0.51328 -2.27789 0
M  V30 1106 C 106.856 1.107 -1.29149 0
M  V30 1107 O 108.041 1.12937 -1.57984 0
M  V30 1108 C 105.171 1.66697 -3.04679 0
M  V30 1109 C 104.125 1.20183 -4.1078 0
M  V30 1110 C 103.451 2.44363 -4.75595 0
M  V30 1111 C 104.751 0.30605 -5.21403 0
M  V30 1112 H 106.445 -0.102883 -2.99223 0
M  V30 1113 H 103.991 -0.0509219 -1.4391 0
M  V30 1114 H 105.944 2.26915 -3.55088 0
M  V30 1115 H 104.668 2.30995 -2.30887 0
M  V30 1116 H 103.327 0.622499 -3.61276 0
M  V30 1117 H 102.975 3.07057 -3.98403 0
M  V30 1118 H 102.675 2.13925 -5.47275 0
M  V30 1119 H 104.199 3.05317 -5.28786 0
M  V30 1120 H 105.613 0.814929 -5.67478 0
M  V30 1121 H 104.01 0.0937929 -6.00027 0
M  V30 1122 H 105.08 -0.65921 -4.80398 0
M  V30 1123 N 106.423 1.57458 -0.0668435 0
M  V30 1124 C 107.651 1.97624 0.612565 0
M  V30 1125 C 108.066 0.94502 1.63447 0
M  V30 1126 O 107.423 -0.0689276 1.8237 0
M  V30 1127 C 107.474 3.37869 1.28555 0
M  V30 1128 O 107.195 4.3704 0.304557 0
M  V30 1129 C 108.696 3.92882 2.05325 0
M  V30 1130 H 105.916 0.650045 0.166381 0
M  V30 1131 H 108.46 2.04035 -0.137782 0
M  V30 1132 H 106.615 3.3256 1.98702 0
M  V30 1133 H 107.029 5.18565 0.786779 0
M  V30 1134 H 108.503 4.93247 2.47812 0
M  V30 1135 H 108.98 3.29156 2.9078 0
M  V30 1136 H 109.586 4.01577 1.40056 0
M  V30 1137 N 107.901 -0.206675 1.56239 0
M  V30 1138 C 109.126 -0.949474 1.8439 0
M  V30 1139 C 109.551 -1.76549 0.649016 0
M  V30 1140 O 108.909 -1.76782 -0.402231 0
M  V30 1141 C 108.957 -1.83078 3.10668 0
M  V30 1142 O 108.061 -2.9281 2.90407 0
M  V30 1143 H 107.402 -0.268033 0.607499 0
M  V30 1144 H 109.932 -0.215488 2.03462 0
M  V30 1145 H 109.942 -2.2377 3.41161 0
M  V30 1146 H 108.617 -1.23112 3.97261 0
M  V30 1147 H 107.194 -2.55956 2.71184 0
M  V30 1148 N 109.379 -1.50304 -0.473955 0
M  V30 1149 C 110.312 -1.63595 -1.59097 0
M  V30 1150 C 111.29 -0.484142 -1.55225 0
M  V30 1151 O 112.474 -0.703271 -1.7489 0
M  V30 1152 C 109.601 -1.61589 -2.97669 0
M  V30 1153 C 108.647 -2.82295 -3.19705 0
M  V30 1154 S 109.48 -4.43635 -2.99913 0
M  V30 1155 C 110.636 -4.44317 -4.40832 0
M  V30 1156 H 110.869 -2.58082 -1.47583 0
M  V30 1157 H 108.402 -1.39531 -0.661087 0
M  V30 1158 H 110.36 -1.61116 -3.7756 0
M  V30 1159 H 109.021 -0.683421 -3.06575 0
M  V30 1160 H 108.214 -2.77188 -4.20931 0
M  V30 1161 H 107.816 -2.8032 -2.47582 0
M  V30 1162 H 110.108 -4.17703 -5.33414 0
M  V30 1163 H 111.051 -5.45911 -4.50984 0
M  V30 1164 H 111.459 -3.74059 -4.22777 0
M  V30 1165 N 110.857 0.726932 -1.39834 0
M  V30 1166 C 112.082 1.52121 -1.40976 0
M  V30 1167 C 112.507 1.88098 -0.00826029 0
M  V30 1168 O 111.865 1.52479 0.980807 0
M  V30 1169 C 111.913 2.78021 -2.29644 0
M  V30 1170 O 111.017 3.74272 -1.73188 0
M  V30 1171 H 110.358 0.45908 -0.479731 0
M  V30 1172 H 112.888 0.896207 -1.83927 0
M  V30 1173 H 112.898 3.26671 -2.44438 0
M  V30 1174 H 111.573 2.51169 -3.31492 0
M  V30 1175 H 110.15 3.33073 -1.6768 0
M  V30 1176 N 112.336 1.25143 0.95797 0
M  V30 1177 C 113.283 1.05235 2.05412 0
M  V30 1178 C 114.253 -0.0374561 1.66058 0
M  V30 1179 O 115.438 0.119073 1.90428 0
M  V30 1180 C 112.578 0.673589 3.38462 0
M  V30 1181 C 111.691 1.8379 3.90954 0
M  V30 1182 C 110.826 1.40381 5.12315 0
M  V30 1183 C 109.865 2.53746 5.57027 0
M  V30 1184 N 109.002 2.11136 6.69601 0
M  V30 1185 H 113.842 1.99048 2.21774 0
M  V30 1186 H 111.379 0.991277 1.08683 0
M  V30 1187 H 113.337 0.434964 4.14926 0
M  V30 1188 H 111.967 -0.227554 3.21997 0
M  V30 1189 H 111.019 2.18992 3.11041 0
M  V30 1190 H 112.331 2.68937 4.20089 0
M  V30 1191 H 111.485 1.12464 5.96185 0
M  V30 1192 H 110.224 0.523015 4.84887 0
M  V30 1193 H 109.229 2.82412 4.71724 0
M  V30 1194 H 110.454 3.42398 5.86464 0
M  V30 1195 H 108.4 1.25468 6.4389 0
M  V30 1196 H 108.317 2.89832 6.98236 0
M  V30 1197 H 109.585 1.86385 7.56889 0
M  V30 1198 N 113.814 -1.1601 1.06675 0
M  V30 1199 C 115.063 -1.85973 0.780818 0
M  V30 1200 C 115.376 -1.82819 -0.695444 0
M  V30 1201 O 116.582 -2.484 -1.09589 0
M  V30 1202 C 115.038 -3.33757 1.34665 0
M  V30 1203 C 114.646 -3.45374 2.85343 0
M  V30 1204 C 116.39 -4.0895 1.13843 0
M  V30 1205 C 114.297 -4.87266 3.35151 0
M  V30 1206 H 113.227 -0.696661 0.288407 0
M  V30 1207 H 115.878 -1.30903 1.28595 0
M  V30 1208 H 114.26 -3.88456 0.769274 0
M  V30 1209 H 115.434 -3.00816 3.49065 0
M  V30 1210 H 113.749 -2.83619 3.04876 0
M  V30 1211 H 116.346 -5.13654 1.4854 0
M  V30 1212 H 116.689 -4.16229 0.0770282 0
M  V30 1213 H 117.222 -3.605 1.68179 0
M  V30 1214 H 113.961 -4.85168 4.40786 0
M  V30 1215 H 113.481 -5.32433 2.76179 0
M  V30 1216 H 115.16 -5.56097 3.30704 0
M  V30 1217 N 115.292 -0.849877 -1.32721 0
M  V30 1218 C 116.222 -0.306308 -2.31482 0
M  V30 1219 C 117.203 0.591952 -1.59468 0
M  V30 1220 O 118.388 0.513199 -1.87296 0
M  V30 1221 C 115.518 0.510204 -3.43532 0
M  V30 1222 C 114.472 -0.293209 -4.26994 0
M  V30 1223 C 113.798 0.647743 -5.30762 0
M  V30 1224 C 115.098 -1.51634 -4.99804 0
M  V30 1225 H 116.792 -1.13153 -2.77195 0
M  V30 1226 H 114.338 -0.545553 -1.33266 0
M  V30 1227 H 116.291 0.900856 -4.11658 0
M  V30 1228 H 115.015 1.36874 -2.96535 0
M  V30 1229 H 113.674 -0.665555 -3.60508 0
M  V30 1230 H 113.322 1.50299 -4.8002 0
M  V30 1231 H 113.022 0.11422 -5.87489 0
M  V30 1232 H 114.546 1.03567 -6.01753 0
M  V30 1233 H 115.96 -1.19824 -5.60638 0
M  V30 1234 H 114.357 -1.98745 -5.66234 0
M  V30 1235 H 115.427 -2.28018 -4.27943 0
M  V30 1236 N 116.77 1.45427 -0.607355 0
M  V30 1237 C 117.717 2.3053 0.111625 0
M  V30 1238 C 118.687 1.4209 0.860216 0
M  V30 1239 O 119.872 1.71019 0.845998 0
M  V30 1240 C 117.012 3.26992 1.10319 0
M  V30 1241 C 116.125 4.30535 0.355493 0
M  V30 1242 C 115.26 5.14105 1.33676 0
M  V30 1243 C 114.299 6.09376 0.576862 0
M  V30 1244 N 113.436 6.85727 1.5074 0
M  V30 1245 H 118.276 2.91477 -0.620093 0
M  V30 1246 H 115.813 1.43631 -0.317594 0
M  V30 1247 H 117.771 3.81385 1.6912 0
M  V30 1248 H 116.401 2.67799 1.80232 0
M  V30 1249 H 115.453 3.78805 -0.348023 0
M  V30 1250 H 116.765 4.98235 -0.237423 0
M  V30 1251 H 115.919 5.72897 1.99684 0
M  V30 1252 H 114.658 4.46423 1.9636 0
M  V30 1253 H 113.663 5.49715 -0.0968519 0
M  V30 1254 H 114.888 6.79085 -0.0449341 0
M  V30 1255 H 112.834 6.20735 2.12189 0
M  V30 1256 H 112.751 7.49778 0.967913 0
M  V30 1257 H 114.019 7.4906 2.15706 0
M  V30 1258 N 118.248 0.346503 1.53744 0
M  V30 1259 C 119.488 -0.249413 2.02873 0
M  V30 1260 C 119.852 -1.47532 1.22876 0
M  V30 1261 O 121.053 -2.1456 1.61918 0
M  V30 1262 C 119.324 -0.552909 3.53097 0
M  V30 1263 S 120.883 -1.12521 4.24128 0
M  V30 1264 H 117.701 -0.074042 0.707134 0
M  V30 1265 H 120.303 0.48495 1.8939 0
M  V30 1266 H 119.007 0.347083 4.0893 0
M  V30 1267 H 118.538 -1.31686 3.70705 0
M  V30 1268 H 120.553 -2.41075 4.33702 0
M  V30 1269 N 119.726 -1.57421 0.075193 0
M  V30 1270 C 120.689 -2.11791 -0.876203 0
M  V30 1271 C 121.689 -1.04268 -1.22412 0
M  V30 1272 O 122.879 -1.30242 -1.15684 0
M  V30 1273 C 120.011 -2.62207 -2.17854 0
M  V30 1274 H 121.204 -2.9716 -0.40444 0
M  V30 1275 H 118.757 -1.55333 -0.173557 0
M  V30 1276 H 119.492 -1.803 -2.6956 0
M  V30 1277 H 119.277 -3.40802 -1.93897 0
M  V30 1278 H 120.767 -3.04335 -2.85955 0
M  V30 1279 N 121.204 0.198386 -1.56346 0
M  V30 1280 C 122.452 0.91747 -1.80075 0
M  V30 1281 C 122.773 1.83929 -0.647692 0
M  V30 1282 O 122.043 1.93029 0.334166 0
M  V30 1283 H 120.623 0.341774 -0.664228 0
M  V30 1284 H 123.285 0.204684 -1.93822 0
M  V30 1285 H 122.381 1.51055 -2.7311 0
M  V30 1286 N 122.682 1.50554 0.465978 0
M  V30 1287 C 123.63 1.70324 1.58406 0
M  V30 1288 C 124.624 0.569139 1.59553 0
M  V30 1289 O 125.83 0.749776 1.63641 0
M  V30 1290 H 122.205 0.537688 0.525734 0
M  V30 1291 H 124.176 2.64104 1.38894 0
M  V30 1292 C 122.925 1.81928 2.96307 0
M  V30 1293 H 122.248 2.68586 2.96144 0
M  V30 1294 H 123.688 1.99784 3.73982 0
M  V30 1295 C 122.147 0.572095 3.32007 0
M  V30 1296 O 122.677 -0.286416 4.00678 0
M  V30 1297 N 120.883 0.424606 2.87481 0
M  V30 1298 H 120.43 1.12427 2.31771 0
M  V30 1299 H 120.388 -0.408697 3.11732 0
M  V30 1300 N 124.16 -0.719506 1.40217 0
M  V30 1301 C 125.07 -1.86378 1.42479 0
M  V30 1302 C 126.086 -1.71073 0.317834 0
M  V30 1303 O 127.262 -1.93406 0.561794 0
M  V30 1304 C 124.327 -3.22136 1.28178 0
M  V30 1305 C 123.388 -3.49723 2.48982 0
M  V30 1306 C 122.621 -4.79004 2.35353 0
M  V30 1307 O 122.844 -5.53821 1.36524 0
M  V30 1308 O 121.778 -5.06839 3.2465 0
M  V30 1309 H 125.604 -1.87425 2.38968 0
M  V30 1310 H 123.189 -0.869405 1.21498 0
M  V30 1311 H 125.071 -4.03234 1.22395 0
M  V30 1312 H 123.746 -3.21825 0.347934 0
M  V30 1313 H 122.653 -2.6865 2.60342 0
M  V30 1314 H 123.986 -3.54828 3.41113 0
M  V30 1315 N 125.638 -1.25649 -0.95132 0
M  V30 1316 C 126.915 -1.01361 -1.67288 0
M  V30 1317 C 127.295 0.459135 -2.06046 0
M  V30 1318 O 126.643 1.43723 -1.7764 0
M  V30 1319 C 126.853 -1.95256 -2.89268 0
M  V30 1320 C 128.201 -2.23289 -3.61147 0
M  V30 1321 O 129.225 -1.93041 -2.99355 0
M  V30 1322 O 128.084 -2.74741 -4.72419 0
M  V30 1323 H 125.178 -0.38464 -0.732107 0
M  V30 1324 H 127.724 -1.36817 -1.00395 0
M  V30 1325 H 126.496 -2.94685 -2.57442 0
M  V30 1326 H 126.119 -1.60218 -3.6389 0
M  V30 1327 N 127.117 1.15442 -1.07289 0
M  V30 1328 C 128.366 1.85557 -0.790669 0
M  V30 1329 C 128.679 1.83186 0.685739 0
M  V30 1330 O 129.885 2.48977 1.0827 0
M  V30 1331 C 128.341 3.33038 -1.36433 0
M  V30 1332 C 127.949 3.43856 -2.8717 0
M  V30 1333 C 129.693 4.0834 -1.1601 0
M  V30 1334 C 127.6 4.85482 -3.3773 0
M  V30 1335 H 126.53 0.695122 -0.292098 0
M  V30 1336 H 129.181 1.30219 -1.29287 0
M  V30 1337 H 127.563 3.88043 -0.789864 0
M  V30 1338 H 128.737 2.98961 -3.50655 0
M  V30 1339 H 127.052 2.81998 -3.06376 0
M  V30 1340 H 129.649 5.12859 -1.51262 0
M  V30 1341 H 129.992 4.16182 -0.0991007 0
M  V30 1342 H 130.525 3.59603 -1.70089 0
M  V30 1343 H 127.264 4.82823 -4.43353 0
M  V30 1344 H 126.784 5.30961 -2.78999 0
M  V30 1345 H 128.463 5.54335 -3.33648 0
M  V30 1346 N 128.595 0.856903 1.32268 0
M  V30 1347 C 129.844 0.457599 1.96441 0
M  V30 1348 C 130.157 -0.992426 1.68553 0
M  V30 1349 O 131.363 -1.49727 2.26482 0
M  V30 1350 C 129.819 0.767358 3.51624 0
M  V30 1351 C 129.427 2.23326 3.88367 0
M  V30 1352 C 131.171 0.435887 4.22256 0
M  V30 1353 C 129.078 2.48613 5.36606 0
M  V30 1354 H 128.008 0.167387 0.735185 0
M  V30 1355 H 130.659 1.048 1.5063 0
M  V30 1356 H 129.041 0.106367 3.95857 0
M  V30 1357 H 130.215 2.93623 3.55137 0
M  V30 1358 H 128.53 2.52948 3.30766 0
M  V30 1359 H 131.127 0.602202 5.31298 0
M  V30 1360 H 131.47 -0.622672 4.11617 0
M  V30 1361 H 132.003 1.05286 3.83614 0
M  V30 1362 H 128.742 3.53101 5.52268 0
M  V30 1363 H 128.262 1.82896 5.71235 0
M  V30 1364 H 129.941 2.32676 6.03714 0
M  V30 1365 N 130.073 -1.45103 0.615059 0
M  V30 1366 C 131.301 -2.06553 0.11977 0
M  V30 1367 C 131.716 -1.45842 -1.19898 0
M  V30 1368 O 131.073 -0.575325 -1.73194 0
M  V30 1369 C 131.124 -3.61495 -0.018364 0
M  V30 1370 O 130.845 -4.19942 1.24822 0
M  V30 1371 C 132.346 -4.39947 -0.544237 0
M  V30 1372 H 129.566 -0.667096 0.0722739 0
M  V30 1373 H 132.11 -1.8623 0.84491 0
M  V30 1374 H 130.265 -3.81135 -0.693865 0
M  V30 1375 H 130.679 -5.13204 1.0827 0
M  V30 1376 H 132.153 -5.48838 -0.589953 0
M  V30 1377 H 132.63 -4.10255 -1.56805 0
M  V30 1378 H 133.236 -4.25188 0.0974703 0
M  V30 1379 N 131.551 -0.354651 -1.53558 0
M  V30 1380 C 132.481 0.489091 -2.2832 0
M  V30 1381 C 133.462 1.09324 -1.30316 0
M  V30 1382 O 134.647 1.11255 -1.59173 0
M  V30 1383 C 131.777 1.63456 -3.0643 0
M  V30 1384 C 130.731 1.1582 -4.12031 0
M  V30 1385 C 130.057 2.39305 -4.7816 0
M  V30 1386 C 131.357 0.250731 -5.21698 0
M  V30 1387 H 133.051 -0.134614 -2.99097 0
M  V30 1388 H 130.597 -0.0661826 -1.43848 0
M  V30 1389 H 132.55 2.23136 -3.57475 0
M  V30 1390 H 131.274 2.28533 -2.33325 0
M  V30 1391 H 129.933 0.584146 -3.61916 0
M  V30 1392 H 129.581 3.02814 -4.01637 0
M  V30 1393 H 129.281 2.08109 -5.49513 0
M  V30 1394 H 130.805 2.99691 -5.31994 0
M  V30 1395 H 132.219 0.754695 -5.68311 0
M  V30 1396 H 130.616 0.0301468 -6.00092 0
M  V30 1397 H 131.686 -0.710125 -4.79672 0
M  V30 1398 N 133.029 1.57378 -0.0835403 0
M  V30 1399 C 134.445 1.57246 0.273109 0
M  V30 1400 C 134.645 1.09385 1.69225 0
M  V30 1401 O 133.701 0.765051 2.40631 0
M  V30 1402 C 135.014 3.00614 0.0720628 0
M  V30 1403 C 136.562 3.12684 0.1407 0
M  V30 1404 C 137.037 4.57989 -0.0322094 0
M  V30 1405 N 138.528 4.63194 0.0230085 0
M  V30 1406 C 139.263 5.73335 -0.0861941 0
M  V30 1407 N 138.759 6.9235 -0.24958 0
M  V30 1408 N 140.552 5.62093 -0.0282886 0
M  V30 1409 H 132.703 1.86801 -1.0109 0
M  V30 1410 H 134.966 0.861687 -0.395222 0
M  V30 1411 H 134.672 3.39786 -0.907662 0
M  V30 1412 H 134.546 3.68193 0.81936 0
M  V30 1413 H 136.933 2.73391 1.11092 0
M  V30 1414 H 137.014 2.47719 -0.637896 0
M  V30 1415 H 136.658 4.97973 -0.999247 0
M  V30 1416 H 136.588 5.21 0.765937 0
M  V30 1417 H 139.079 3.77613 0.14722 0
M  V30 1418 H 139.392 7.72117 -0.324733 0
M  V30 1419 H 137.737 6.94415 -0.285097 0
M  V30 1420 H 140.928 4.67997 0.0981408 0
M  V30 1421 H 141.101 6.47895 -0.116845 0
M  V30 1422 N 134.507 -0.190092 1.56449 0
M  V30 1423 C 135.47 -1.21925 1.9408 0
M  V30 1424 C 136.47 -1.38176 0.822431 0
M  V30 1425 O 137.66 -1.35903 1.08977 0
M  V30 1426 C 134.792 -2.58773 2.21922 0
M  V30 1427 H 135.985 -0.897464 2.86157 0
M  V30 1428 H 133.538 -0.43181 1.50217 0
M  V30 1429 H 134.273 -2.95998 1.32499 0
M  V30 1430 H 134.058 -2.48348 3.03424 0
M  V30 1431 H 135.548 -3.32978 2.52022 0
M  V30 1432 N 135.985 -1.50799 -0.457987 0
M  V30 1433 C 136.895 -1.73426 -1.57989 0
M  V30 1434 C 137.911 -0.617745 -1.62665 0
M  V30 1435 O 139.087 -0.897614 -1.80291 0
M  V30 1436 C 136.152 -1.83557 -2.94122 0
M  V30 1437 C 135.213 -3.07345 -2.99729 0
M  V30 1438 C 134.446 -3.16983 -4.29368 0
M  V30 1439 O 134.669 -2.33077 -5.20607 0
M  V30 1440 O 133.603 -4.09812 -4.40837 0
M  V30 1441 H 137.429 -2.68555 -1.41817 0
M  V30 1442 H 135.014 -1.35052 -0.638859 0
M  V30 1443 H 136.896 -1.92326 -3.74952 0
M  V30 1444 H 135.571 -0.916137 -3.10465 0
M  V30 1445 H 134.478 -3.04068 -2.1793 0
M  V30 1446 H 135.811 -3.9891 -2.88326 0
M  V30 1447 N 137.463 0.71206 -1.40597 0
M  V30 1448 C 138.74 1.46536 -1.29563 0
M  V30 1449 C 139.12 2.10931 0.0844217 0
M  V30 1450 O 138.468 2.00418 1.0975 0
M  V30 1451 C 138.678 2.49821 -2.43701 0
M  V30 1452 C 140.026 3.15551 -2.841 0
M  V30 1453 O 141.05 2.60142 -2.4332 0
M  V30 1454 O 139.909 4.15867 -3.54566 0
M  V30 1455 H 137.003 0.651801 -0.509004 0
M  V30 1456 H 139.549 0.743935 -1.52524 0
M  V30 1457 H 138.321 2.00778 -3.35863 0
M  V30 1458 H 137.944 3.29495 -2.22528 0
M  V30 1459 N 138.941 1.26152 0.944643 0
M  V30 1460 C 139.889 1.07215 2.06417 0
M  V30 1461 C 140.883 9.2007e-05 1.694 0
M  V30 1462 O 142.089 0.1565 1.79318 0
M  V30 1463 H 138.464 0.329837 0.675805 0
M  V30 1464 H 140.435 2.02099 2.19541 0
M  V30 1465 C 139.184 0.718197 3.40202 0
M  V30 1466 H 138.507 1.53497 3.69159 0
M  V30 1467 H 139.947 0.625459 4.19361 0
M  V30 1468 C 138.406 -0.576435 3.31932 0
M  V30 1469 O 138.936 -1.61574 3.67773 0
M  V30 1470 N 137.142 -0.565781 2.85039 0
M  V30 1471 H 136.689 0.280367 2.5607 0
M  V30 1472 H 136.647 -1.43213 2.79888 0
M  V30 1473 N 140.419 -1.14872 1.07899 0
M  V30 1474 C 141.382 -2.17986 0.708161 0
M  V30 1475 C 142.382 -1.58775 -0.25442 0
M  V30 1476 O 143.572 -1.74166 -0.034645 0
M  V30 1477 C 140.704 -3.40871 0.0446929 0
M  V30 1478 H 141.897 -2.52306 1.62116 0
M  V30 1479 H 139.45 -1.2943 0.876218 0
M  V30 1480 H 140.185 -3.12124 -0.880281 0
M  V30 1481 H 139.97 -3.8511 0.737091 0
M  V30 1482 H 141.46 -4.17121 -0.19991 0
M  V30 1483 N 141.898 -0.863906 -1.31812 0
M  V30 1484 C 143.175 -0.39275 -1.91616 0
M  V30 1485 C 143.555 1.12461 -1.7865 0
M  V30 1486 O 142.903 1.95045 -1.19037 0
M  V30 1487 C 143.113 -0.867385 -3.38049 0
M  V30 1488 C 144.461 -0.889966 -4.15168 0
M  V30 1489 O 145.485 -0.812635 -3.46806 0
M  V30 1490 O 144.344 -1.00079 -5.37258 0
M  V30 1491 H 141.438 -0.116358 -0.818773 0
M  V30 1492 H 143.984 -0.951418 -1.40521 0
M  V30 1493 H 142.756 -1.91081 -3.41473 0
M  V30 1494 H 142.379 -0.286687 -3.96565 0
M  V30 1495 N 143.376 1.44774 -0.622745 0
M  V30 1496 C 144.604 2.06487 -0.130722 0
M  V30 1497 C 145.019 1.46476 1.19123 0
M  V30 1498 O 144.376 0.584502 1.72887 0
M  V30 1499 C 144.427 3.615 -0.000807207 0
M  V30 1500 O 144.148 4.19274 -1.27048 0
M  V30 1501 C 145.649 4.40229 0.520898 0
M  V30 1502 H 142.869 0.666704 -0.0758106 0
M  V30 1503 H 145.413 1.85779 -0.854774 0
M  V30 1504 H 143.568 3.81498 0.673643 0
M  V30 1505 H 143.982 5.12622 -1.1099 0
M  V30 1506 H 145.456 5.49144 0.560838 0
M  V30 1507 H 145.933 4.1108 1.54627 0
M  V30 1508 H 146.539 4.25131 -0.120018 0
M  V30 1509 N 144.854 0.36279 1.53368 0
M  V30 1510 C 145.784 -0.476976 2.28576 0
M  V30 1511 C 146.765 -1.08631 1.30894 0
M  V30 1512 O 147.95 -1.10409 1.59761 0
M  V30 1513 C 145.08 -1.61828 3.07293 0
M  V30 1514 C 144.034 -1.13633 4.1264 0
M  V30 1515 C 143.36 -2.36766 4.79423 0
M  V30 1516 C 144.66 -0.223061 5.21823 0
M  V30 1517 H 146.354 0.150474 2.99022 0
M  V30 1518 H 143.9 0.0738103 1.43811 0
M  V30 1519 H 145.853 -2.21237 3.58653 0
M  V30 1520 H 144.577 -2.27292 2.34533 0
M  V30 1521 H 143.236 -0.564945 3.62221 0
M  V30 1522 H 142.884 -3.0068 4.03238 0
M  V30 1523 H 142.584 -2.05192 5.50609 0
M  V30 1524 H 144.108 -2.96865 5.33576 0
M  V30 1525 H 145.522 -0.724545 5.68703 0
M  V30 1526 H 143.919 0.001678 6.001 0
M  V30 1527 H 144.989 0.735553 4.79289 0
M  V30 1528 N 146.332 -1.57332 0.0918853 0
M  V30 1529 C 147.295 -2.12708 -0.85369 0
M  V30 1530 C 148.295 -1.05561 -1.213 0
M  V30 1531 O 149.485 -1.31461 -1.14296 0
M  V30 1532 C 146.617 -2.64503 -2.15061 0
M  V30 1533 H 147.81 -2.97573 -0.3729 0
M  V30 1534 H 145.363 -1.55509 -0.157072 0
M  V30 1535 H 146.098 -1.83149 -2.67632 0
M  V30 1536 H 145.883 -3.4284 -1.90272 0
M  V30 1537 H 147.373 -3.07351 -2.82711 0
M  V30 1538 N 147.81 0.181792 -1.56548 0
M  V30 1539 C 148.74 1.22765 -1.98623 0
M  V30 1540 C 149.721 1.46747 -0.860189 0
M  V30 1541 O 150.906 1.58259 -1.12551 0
M  V30 1542 C 148.036 2.56894 -2.33715 0
M  V30 1543 C 146.99 2.475 -3.49182 0
M  V30 1544 C 146.316 3.86023 -3.69986 0
M  V30 1545 C 147.616 1.98866 -4.82959 0
M  V30 1546 H 149.31 0.877942 -2.86239 0
M  V30 1547 H 146.856 0.42088 -1.37712 0
M  V30 1548 H 148.809 3.30253 -2.61746 0
M  V30 1549 H 147.533 2.93632 -1.42997 0
M  V30 1550 H 146.192 1.76596 -3.21262 0
M  V30 1551 H 145.84 4.20136 -2.76576 0
M  V30 1552 H 145.54 3.80609 -4.47672 0
M  V30 1553 H 147.064 4.60984 -4.00407 0
M  V30 1554 H 148.478 2.61992 -5.09934 0
M  V30 1555 H 146.875 2.04424 -5.64208 0
M  V30 1556 H 147.945 0.942465 -4.75653 0
M  V30 1557 N 149.288 1.51039 0.449983 0
M  V30 1558 C 150.534 1.63322 1.20223 0
M  V30 1559 C 150.867 0.34241 1.91158 0
M  V30 1560 O 150.142 -0.657344 1.83055 0
M  V30 1561 C 150.425 2.82801 2.22925 0
M  V30 1562 C 150.278 4.21823 1.56157 0
M  V30 1563 C 151.597 2.97807 3.24035 0
M  V30 1564 H 148.716 0.594407 0.435718 0
M  V30 1565 H 151.358 1.83489 0.493136 0
M  V30 1566 H 149.508 2.65738 2.834 0
M  V30 1567 H 151.18 4.50526 0.991162 0
M  V30 1568 H 149.423 4.25105 0.864172 0
M  V30 1569 H 150.094 5.01391 2.30891 0
M  V30 1570 H 152.57 3.13497 2.73603 0
M  V30 1571 H 151.446 3.82992 3.93202 0
M  V30 1572 H 151.707 2.09328 3.89402 0
M  V30 1573 N 150.766 -0.704594 1.40972 0
M  V30 1574 C 152.013 -1.46458 1.39844 0
M  V30 1575 C 152.341 -1.94499 0.00447594 0
M  V30 1576 O 151.596 -1.69275 -0.982057 0
M  V30 1577 C 151.895 -2.698 2.34399 0
M  V30 1578 C 151.561 -2.40464 3.81429 0
M  V30 1579 C 150.223 -2.32174 4.21484 0
M  V30 1580 C 152.575 -2.16086 4.74296 0
M  V30 1581 C 149.903 -1.97589 5.52427 0
M  V30 1582 C 152.255 -1.83011 6.05549 0
M  V30 1583 C 150.919 -1.7321 6.44635 0
M  V30 1584 H 150.189 -0.535927 0.511725 0
M  V30 1585 H 152.836 -0.806124 1.73706 0
M  V30 1586 H 151.141 -3.40536 1.93759 0
M  V30 1587 H 152.838 -3.27919 2.30804 0
M  V30 1588 H 149.428 -2.47808 3.49699 0
M  V30 1589 H 153.612 -2.2144 4.4416 0
M  V30 1590 H 148.868 -1.88547 5.81601 0
M  V30 1591 H 153.042 -1.63164 6.77016 0
M  V30 1592 H 150.669 -1.46179 7.46013 0
M  V30 1593 N 152.244 -1.26651 -0.937939 0
M  V30 1594 C 153.154 -1.10276 -2.07066 0
M  V30 1595 C 154.17 -0.0354197 -1.73964 0
M  V30 1596 O 155.346 -0.239816 -1.99967 0
M  V30 1597 C 152.411 -0.740887 -3.38691 0
M  V30 1598 C 151.472 -1.88799 -3.85556 0
M  V30 1599 C 150.705 -1.54329 -5.10899 0
M  V30 1600 O 150.928 -0.446494 -5.6865 0
M  V30 1601 O 149.862 -2.37911 -5.52885 0
M  V30 1602 H 153.688 -2.05309 -2.23789 0
M  V30 1603 H 151.273 -1.05743 -1.0554 0
M  V30 1604 H 153.155 -0.55195 -4.1777 0
M  V30 1605 H 151.83 0.180022 -3.23199 0
M  V30 1606 H 150.737 -2.13191 -3.07409 0
M  V30 1607 H 152.07 -2.78874 -4.05574 0
M  V30 1608 N 153.722 1.14298 -1.08507 0
M  V30 1609 C 154.685 2.17607 -0.719711 0
M  V30 1610 C 155.685 1.58907 0.245997 0
M  V30 1611 O 156.875 1.74181 0.0254081 0
M  V30 1612 C 154.007 3.40842 -0.0627695 0
M  V30 1613 H 155.2 2.51443 -1.63452 0
M  V30 1614 H 152.753 1.28963 -0.88307 0
M  V30 1615 H 153.488 3.12587 0.863716 0
M  V30 1616 H 153.273 3.84713 -0.757504 0
M  V30 1617 H 154.763 4.17221 0.177786 0
M  V30 1618 N 155.201 0.870884 1.31352 0
M  V30 1619 C 156.612 0.534714 1.78879 0
M  V30 1620 C 156.963 -0.948423 1.71754 0
M  V30 1621 O 156.088 -1.74055 1.28584 0
M  V30 1622 C 156.683 0.963839 3.24801 0
M  V30 1623 C 155.242 0.679311 3.70219 0
M  V30 1624 C 154.389 1.15465 2.52117 0
M  V30 1625 H 157.34 1.05651 1.18421 0
M  V30 1626 H 157.361 0.286892 3.79417 0
M  V30 1627 H 156.873 2.04332 3.29955 0
M  V30 1628 H 154.974 -0.388769 3.70566 0
M  V30 1629 H 155.087 1.25698 4.62317 0
M  V30 1630 H 153.451 0.574383 2.48139 0
M  V30 1631 H 154.234 2.24157 2.60016 0
M  V30 1632 N 156.679 -1.44442 0.630414 0
M  V30 1633 C 157.627 -2.32437 -0.0871428 0
M  V30 1634 C 158.621 -1.47304 -0.836525 0
M  V30 1635 O 159.827 -1.63653 -0.749506 0
M  V30 1636 H 156.202 -0.750533 -0.0469495 0
M  V30 1637 H 158.173 -2.90709 0.673096 0
M  V30 1638 C 156.922 -3.31288 -1.05563 0
M  V30 1639 H 156.245 -3.96805 -0.488426 0
M  V30 1640 H 157.685 -3.9554 -1.52721 0
M  V30 1641 C 156.144 -2.6016 -2.14052 0
M  V30 1642 O 156.674 -2.39997 -3.22124 0
M  V30 1643 N 154.88 -2.19911 -1.89967 0
M  V30 1644 H 154.427 -2.36509 -1.02085 0
M  V30 1645 H 154.385 -1.72646 -2.62756 0
M  V30 1646 N 158.157 -0.370918 -1.53173 0
M  V30 1647 C 159.089 0.507823 -2.23503 0
M  V30 1648 C 160.102 1.04182 -1.251 0
M  V30 1649 O 161.291 0.947286 -1.5129 0
M  V30 1650 C 158.391 1.71447 -2.92334 0
M  V30 1651 C 157.564 1.31105 -4.17289 0
M  V30 1652 C 156.623 2.38035 -4.69282 0
M  V30 1653 O 155.649 2.00204 -5.32829 0
M  V30 1654 N 156.851 3.69697 -4.47554 0
M  V30 1655 H 159.616 -0.0946382 -2.99551 0
M  V30 1656 H 157.177 -0.196358 -1.60705 0
M  V30 1657 H 159.169 2.42469 -3.24023 0
M  V30 1658 H 157.739 2.22368 -2.19707 0
M  V30 1659 H 156.959 0.430462 -3.91843 0
M  V30 1660 H 158.247 1.0179 -4.98514 0
M  V30 1661 H 157.645 4.03205 -3.9679 0
M  V30 1662 H 156.202 4.36807 -4.8378 0
M  V30 1663 N 159.635 1.57281 -0.100228 0
M  V30 1664 C 160.545 2.17833 0.870965 0
M  V30 1665 C 161.561 1.14921 1.30649 0
M  V30 1666 O 162.737 1.47313 1.37335 0
M  V30 1667 C 159.802 2.75085 2.1102 0
M  V30 1668 C 158.863 3.9297 1.72838 0
M  V30 1669 C 158.096 4.47482 2.90854 0
M  V30 1670 O 158.319 4.00922 4.05731 0
M  V30 1671 O 157.253 5.38433 2.69023 0
M  V30 1672 H 161.079 3.0124 0.38575 0
M  V30 1673 H 158.664 1.48881 0.124397 0
M  V30 1674 H 160.546 3.11656 2.83634 0
M  V30 1675 H 159.221 1.94721 2.58584 0
M  V30 1676 H 158.128 3.61201 0.973883 0
M  V30 1677 H 159.461 4.74713 1.30033 0
M  V30 1678 N 161.113 -0.173488 1.56642 0
M  V30 1679 C 162.06 -1.21482 1.96242 0
M  V30 1680 C 163.03 -1.44104 0.826027 0
M  V30 1681 O 164.215 -1.5688 1.08597 0
M  V30 1682 C 161.355 -2.54964 2.32567 0
M  V30 1683 C 160.468 -2.39739 3.59373 0
M  V30 1684 C 159.603 -3.66072 3.84921 0
M  V30 1685 C 158.642 -3.45771 5.05083 0
M  V30 1686 N 157.779 -4.64169 5.26775 0
M  V30 1687 H 162.619 -0.870123 2.85014 0
M  V30 1688 H 160.156 -0.418245 1.41029 0
M  V30 1689 H 162.114 -3.32758 2.5165 0
M  V30 1690 H 160.744 -2.87433 1.46908 0
M  V30 1691 H 159.796 -1.53131 3.48217 0
M  V30 1692 H 161.108 -2.20683 4.47326 0
M  V30 1693 H 160.262 -4.52303 4.0436 0
M  V30 1694 H 159.001 -3.88105 2.9534 0
M  V30 1695 H 158.006 -2.57927 4.85545 0
M  V30 1696 H 159.231 -3.25163 5.96193 0
M  V30 1697 H 157.177 -4.86425 4.40144 0
M  V30 1698 H 157.094 -4.48019 6.08946 0
M  V30 1699 H 158.362 -5.51689 5.5069 0
M  V30 1700 N 162.591 -1.51276 -0.441967 0
M  V30 1701 C 163.837 -1.63958 -1.19355 0
M  V30 1702 C 164.17 -0.352543 -1.90973 0
M  V30 1703 O 163.445 0.647627 -1.83401 0
M  V30 1704 C 163.728 -2.83979 -2.21422 0
M  V30 1705 C 163.581 -4.22646 -1.53918 0
M  V30 1706 C 164.9 -2.99521 -3.22451 0
M  V30 1707 H 162.019 -0.596709 -0.432559 0
M  V30 1708 H 164.661 -1.83748 -0.483398 0
M  V30 1709 H 162.811 -2.67237 -2.81987 0
M  V30 1710 H 164.483 -4.51045 -0.967256 0
M  V30 1711 H 162.726 -4.25558 -0.841615 0
M  V30 1712 H 163.397 -5.02609 -2.28229 0
M  V30 1713 H 165.873 -3.14944 -2.71937 0
M  V30 1714 H 164.749 -3.85072 -3.91166 0
M  V30 1715 H 165.01 -2.11391 -3.88287 0
M  V30 1716 N 164.069 0.697108 -1.41344 0
M  V30 1717 C 165.294 1.49096 -1.44171 0
M  V30 1718 C 165.719 1.88038 -0.0481568 0
M  V30 1719 O 165.077 1.54525 0.948243 0
M  V30 1720 C 165.125 2.73088 -2.3549 0
M  V30 1721 O 164.229 3.70514 -1.81088 0
M  V30 1722 H 163.57 0.448801 -0.489361 0
M  V30 1723 H 166.1 0.856992 -1.85787 0
M  V30 1724 H 166.11 3.21413 -2.51312 0
M  V30 1725 H 164.785 2.44081 -3.36745 0
M  V30 1726 H 163.362 3.29441 -1.74708 0
M  V30 1727 N 165.547 1.27147 0.931209 0
M  V30 1728 C 166.824 1.0401 1.65654 0
M  V30 1729 C 167.204 -0.426297 2.06751 0
M  V30 1730 O 166.552 -1.40879 1.79904 0
M  V30 1731 C 166.762 1.99834 2.86125 0
M  V30 1732 C 168.11 2.29007 3.57549 0
M  V30 1733 O 169.134 1.97779 2.96246 0
M  V30 1734 O 167.993 2.82222 4.67989 0
M  V30 1735 H 165.087 0.396239 0.725895 0
M  V30 1736 H 167.633 1.38397 0.982056 0
M  V30 1737 H 166.405 2.98744 2.52721 0
M  V30 1738 H 166.028 1.65987 3.61295 0
M  V30 1739 N 167.025 -1.13721 1.09112 0
M  V30 1740 C 168.255 -1.88499 0.845671 0
M  V30 1741 C 168.663 -1.79218 -0.606432 0
M  V30 1742 O 168.006 -1.1544 -1.42896 0
M  V30 1743 C 168.068 -3.38954 1.19793 0
M  V30 1744 C 167.732 -3.72018 2.65428 0
M  V30 1745 C 168.729 -3.7153 3.63677 0
M  V30 1746 C 166.414 -4.01775 3.01467 0
M  V30 1747 C 168.408 -4.00336 4.95994 0
M  V30 1748 C 166.095 -4.30243 4.33975 0
M  V30 1749 C 167.093 -4.29508 5.31048 0
M  V30 1750 O 166.781 -4.5728 6.61173 0
M  V30 1751 H 166.513 -0.603702 0.304171 0
M  V30 1752 H 169.067 -1.44903 1.45576 0
M  V30 1753 H 167.297 -3.83039 0.530871 0
M  V30 1754 H 168.986 -3.95052 0.932146 0
M  V30 1755 H 169.752 -3.4862 3.37179 0
M  V30 1756 H 165.631 -4.01496 2.26544 0
M  V30 1757 H 169.175 -3.99678 5.71755 0
M  V30 1758 H 165.072 -4.52625 4.60219 0
M  V30 1759 H 165.84 -4.74964 6.66597 0
M  V30 1760 N 168.503 -0.877838 -1.30888 0
M  V30 1761 C 169.413 -0.343096 -2.32078 0
M  V30 1762 C 170.429 0.551022 -1.65045 0
M  V30 1763 O 171.605 0.445854 -1.96403 0
M  V30 1764 C 168.67 0.439905 -3.43898 0
M  V30 1765 C 167.731 -0.483111 -4.26573 0
M  V30 1766 C 166.964 0.262616 -5.33053 0
M  V30 1767 O 167.187 1.48967 -5.50604 0
M  V30 1768 O 166.121 -0.383593 -6.00676 0
M  V30 1769 H 169.947 -1.18203 -2.79753 0
M  V30 1770 H 167.532 -0.64145 -1.34929 0
M  V30 1771 H 169.414 0.883504 -4.12034 0
M  V30 1772 H 168.089 1.25526 -2.98371 0
M  V30 1773 H 166.996 -0.975374 -3.61161 0
M  V30 1774 H 168.329 -1.26427 -4.75686 0
M  V30 1775 N 169.982 1.44106 -0.638065 0
M  V30 1776 C 170.915 2.27924 0.112161 0
M  V30 1777 C 171.893 1.38945 0.844574 0
M  V30 1778 O 173.077 1.68386 0.847248 0
M  V30 1779 C 170.204 3.18029 1.16512 0
M  V30 1780 C 169.25 4.23163 0.532458 0
M  V30 1781 S 170.083 5.31131 -0.682666 0
M  V30 1782 C 171.239 6.24805 0.37013 0
M  V30 1783 H 171.472 2.91205 -0.598887 0
M  V30 1784 H 169.005 1.48394 -0.426441 0
M  V30 1785 H 170.963 3.70492 1.76766 0
M  V30 1786 H 169.624 2.53955 1.8484 0
M  V30 1787 H 168.817 4.86252 1.32571 0
M  V30 1788 H 168.419 3.74 0.00437644 0
M  V30 1789 H 170.711 6.66042 1.24071 0
M  V30 1790 H 171.654 7.07741 -0.225349 0
M  V30 1791 H 172.062 5.60154 0.699141 0
M  V30 1792 N 171.46 0.379036 1.52974 0
M  V30 1793 C 172.407 -0.461048 2.26148 0
M  V30 1794 C 173.377 -1.06637 1.27349 0
M  V30 1795 O 174.562 -1.09633 1.56157 0
M  V30 1796 C 171.702 -1.58782 3.06402 0
M  V30 1797 C 170.815 -1.00636 4.20115 0
M  V30 1798 C 169.95 -2.10334 4.87784 0
M  V30 1799 C 168.989 -1.49724 5.93506 0
M  V30 1800 N 168.126 -2.5331 6.54812 0
M  V30 1801 H 172.966 0.169429 2.97518 0
M  V30 1802 H 170.503 0.0953806 1.4679 0
M  V30 1803 H 172.461 -2.25174 3.51215 0
M  V30 1804 H 171.091 -2.18876 2.37261 0
M  V30 1805 H 170.143 -0.232332 3.7969 0
M  V30 1806 H 171.455 -0.523343 4.96047 0
M  V30 1807 H 170.609 -2.84519 5.35849 0
M  V30 1808 H 169.348 -2.61992 4.11353 0
M  V30 1809 H 168.353 -0.740598 5.44789 0
M  V30 1810 H 169.578 -0.988732 6.71864 0
M  V30 1811 H 167.524 -3.04156 5.81227 0
M  V30 1812 H 167.441 -2.09734 7.26325 0
M  V30 1813 H 168.709 -3.27155 7.07524 0
M  V30 1814 N 172.938 -1.57226 0.108567 0
M  V30 1815 C 173.868 -2.17778 -0.84232 0
M  V30 1816 C 174.849 -1.11487 -1.2847 0
M  V30 1817 O 176.034 -1.39681 -1.34918 0
M  V30 1818 C 173.164 -2.76888 -2.09644 0
M  V30 1819 C 172.118 -3.88669 -1.79221 0
M  V30 1820 C 171.444 -4.34541 -3.11574 0
M  V30 1821 C 172.744 -5.11251 -1.06864 0
M  V30 1822 H 174.438 -2.97489 -0.337774 0
M  V30 1823 H 171.984 -1.43097 -0.161025 0
M  V30 1824 H 173.937 -3.17904 -2.76614 0
M  V30 1825 H 172.661 -1.94451 -2.62405 0
M  V30 1826 H 171.32 -3.48213 -1.14644 0
M  V30 1827 H 170.968 -3.48977 -3.62249 0
M  V30 1828 H 170.668 -5.09914 -2.91996 0
M  V30 1829 H 172.192 -4.782 -3.7968 0
M  V30 1830 H 173.606 -5.49352 -1.63968 0
M  V30 1831 H 172.003 -5.9214 -0.974178 0
M  V30 1832 H 173.073 -4.8487 -0.0536168 0
M  V30 1833 N 174.416 0.165178 -1.56732 0
M  V30 1834 C 175.349 1.23336 -1.91998 0
M  V30 1835 C 176.327 1.42476 -0.783531 0
M  V30 1836 O 177.511 1.57384 -1.03743 0
M  V30 1837 C 174.638 2.59533 -2.17625 0
M  V30 1838 C 173.684 2.57093 -3.40302 0
M  V30 1839 S 174.517 2.05571 -4.9447 0
M  V30 1840 C 175.673 3.43532 -5.23198 0
M  V30 1841 H 175.906 0.932387 -2.82301 0
M  V30 1842 H 173.439 0.370013 -1.49901 0
M  V30 1843 H 175.397 3.37918 -2.3307 0
M  V30 1844 H 174.058 2.86827 -1.28019 0
M  V30 1845 H 173.251 3.57308 -3.55453 0
M  V30 1846 H 172.853 1.86806 -3.24005 0
M  V30 1847 H 175.145 4.39559 -5.15552 0
M  V30 1848 H 176.088 3.33251 -6.2478 0
M  V30 1849 H 176.496 3.39828 -4.50752 0
M  V30 1850 N 175.894 1.51508 0.433938 0
M  V30 1851 C 177.171 1.54888 1.19453 0
M  V30 1852 C 177.551 0.315154 2.08734 0
M  V30 1853 O 176.899 -0.699558 2.17528 0
M  V30 1854 C 177.109 2.86467 1.99342 0
M  V30 1855 C 178.457 3.38545 2.56267 0
M  V30 1856 O 179.481 2.88041 2.0955 0
M  V30 1857 O 178.34 4.26675 3.41483 0
M  V30 1858 H 175.434 0.622863 0.544032 0
M  V30 1859 H 177.98 1.63823 0.442732 0
M  V30 1860 H 176.752 3.67718 1.33788 0
M  V30 1861 H 176.375 2.8071 2.8158 0
M  V30 1862 N 177.372 -0.689602 1.41712 0
M  V30 1863 C 178.302 -1.81577 1.46806 0
M  V30 1864 C 179.283 -1.66945 0.326105 0
M  V30 1865 O 180.468 -1.86588 0.538377 0
M  V30 1866 C 177.598 -3.19762 1.35535 0
M  V30 1867 C 176.552 -3.49107 2.47605 0
M  V30 1868 C 175.878 -4.86711 2.21397 0
M  V30 1869 C 177.178 -3.47483 3.89939 0
M  V30 1870 H 178.872 -1.7757 2.41058 0
M  V30 1871 H 176.418 -0.852887 1.16025 0
M  V30 1872 H 178.371 -3.98263 1.3771 0
M  V30 1873 H 177.095 -3.24409 0.377708 0
M  V30 1874 H 175.754 -2.72959 2.44722 0
M  V30 1875 H 175.402 -4.8799 1.21961 0
M  V30 1876 H 175.102 -5.0731 2.96497 0
M  V30 1877 H 176.626 -5.67515 2.25297 0
M  V30 1878 H 178.04 -4.1598 3.94505 0
M  V30 1879 H 176.437 -3.79615 4.64771 0
M  V30 1880 H 177.507 -2.46341 4.17665 0
M  V30 1881 N 178.85 -1.27639 -0.924453 0
M  V30 1882 C 180.127 -1.04887 -1.651 0
M  V30 1883 C 180.507 0.415327 -2.06974 0
M  V30 1884 O 179.855 1.39923 -1.80648 0
M  V30 1885 C 180.065 -2.01348 -2.85061 0
M  V30 1886 C 181.413 -2.30899 -3.56329 0
M  V30 1887 O 182.437 -1.99348 -2.95193 0
M  V30 1888 O 181.296 -2.84699 -4.66485 0
M  V30 1889 H 178.39 -0.400083 -0.723784 0
M  V30 1890 H 180.936 -1.38916 -0.974703 0
M  V30 1891 H 179.708 -3.0008 -2.51133 0
M  V30 1892 H 179.331 -1.679 -3.6041 0
M  V30 1893 N 180.328 1.1314 -1.09713 0
M  V30 1894 C 181.574 1.84757 -0.836224 0
M  V30 1895 C 181.907 1.8347 0.636598 0
M  V30 1896 O 181.182 1.27491 1.46889 0
M  V30 1897 C 181.465 3.32782 -1.37578 0
M  V30 1898 C 181.318 3.42567 -2.91493 0
M  V30 1899 C 182.637 4.28307 -1.01198 0
M  V30 1900 H 179.756 0.67082 -0.305236 0
M  V30 1901 H 182.398 1.3278 -1.35903 0
M  V30 1902 H 180.548 3.77177 -0.931097 0
M  V30 1903 H 182.22 3.06862 -3.44432 0
M  V30 1904 H 180.463 2.83349 -3.28475 0
M  V30 1905 H 181.134 4.46674 -3.24324 0
M  V30 1906 H 183.61 3.91999 -1.39556 0
M  V30 1907 H 182.486 5.30307 -1.41653 0
M  V30 1908 H 182.747 4.42029 0.0794833 0
M  V30 1909 N 181.806 0.884767 1.30421 0
M  V30 1910 C 182.716 0.355398 2.31892 0
M  V30 1911 C 183.732 -0.542261 1.65335 0
M  V30 1912 O 184.908 -0.435432 1.96637 0
M  V30 1913 C 181.973 -0.421661 3.44126 0
M  V30 1914 C 181.034 0.505727 4.26311 0
M  V30 1915 C 180.267 -0.234343 5.33185 0
M  V30 1916 O 180.49 -1.46045 5.51386 0
M  V30 1917 O 179.424 0.415443 6.00465 0
M  V30 1918 H 183.25 1.19685 2.79122 0
M  V30 1919 H 180.835 0.648596 1.34587 0
M  V30 1920 H 182.717 -0.861641 4.12497 0
M  V30 1921 H 181.392 -1.23942 2.99032 0
M  V30 1922 H 180.299 0.994513 3.60639 0
M  V30 1923 H 181.632 1.28948 4.75009 0
M  V30 1924 N 183.284 -1.43765 0.645699 0
M  V30 1925 C 184.216 -2.29027 -0.0890605 0
M  V30 1926 C 185.229 -1.42093 -0.794563 0
M  V30 1927 O 186.418 -1.66104 -0.653575 0
M  V30 1928 C 183.518 -3.18831 -1.14891 0
M  V30 1929 C 182.691 -4.34261 -0.523043 0
M  V30 1930 C 181.75 -5.04994 -1.47878 0
M  V30 1931 O 180.776 -5.6052 -0.990277 0
M  V30 1932 N 181.978 -5.07795 -2.81291 0
M  V30 1933 H 184.743 -2.92727 0.64272 0
M  V30 1934 H 182.304 -1.54373 0.487924 0
M  V30 1935 H 184.296 -3.63015 -1.78892 0
M  V30 1936 H 182.866 -2.56782 -1.78275 0
M  V30 1937 H 182.086 -3.93088 0.295896 0
M  V30 1938 H 183.374 -5.08728 -0.0858147 0
M  V30 1939 H 182.772 -4.64042 -3.23546 0
M  V30 1940 H 181.329 -5.55721 -3.40614 0
M  V30 1941 N 184.763 -0.387143 -1.52771 0
M  V30 1942 C 185.693 0.440551 -2.29306 0
M  V30 1943 C 186.674 1.06535 -1.32606 0
M  V30 1944 O 187.859 1.07853 -1.61497 0
M  V30 1945 C 184.989 1.56919 -3.09829 0
M  V30 1946 C 183.943 1.07054 -4.14395 0
M  V30 1947 C 183.269 2.29109 -4.83129 0
M  V30 1948 C 184.569 0.140015 -5.22112 0
M  V30 1949 H 186.263 -0.198026 -2.98744 0
M  V30 1950 H 183.809 -0.09668 -1.43675 0
M  V30 1951 H 185.762 2.15503 -3.62128 0
M  V30 1952 H 184.486 2.23532 -2.3812 0
M  V30 1953 H 183.145 0.507247 -3.63074 0
M  V30 1954 H 182.793 2.94227 -4.0797 0
M  V30 1955 H 182.493 1.96406 -5.53804 0
M  V30 1956 H 184.017 2.88339 -5.38231 0
M  V30 1957 H 185.431 0.633978 -5.69784 0
M  V30 1958 H 183.828 -0.0971485 -6.00021 0
M  V30 1959 H 184.898 -0.811711 -4.78058 0
M  V30 1960 N 186.241 1.57166 -0.116904 0
M  V30 1961 C 187.489 1.94737 0.540533 0
M  V30 1962 C 187.81 1.00096 1.67349 0
M  V30 1963 O 187.08 0.0568854 1.95817 0
M  V30 1964 H 185.66 0.718981 0.202669 0
M  V30 1965 H 188.322 1.94017 -0.185353 0
M  V30 1966 H 187.418 2.97719 0.936483 0
M  V30 1967 N 187.719 -0.156864 1.56817 0
M  V30 1968 C 188.968 -0.869504 1.81996 0
M  V30 1969 C 189.281 -1.82777 0.696545 0
M  V30 1970 O 190.487 -2.58384 0.833658 0
M  V30 1971 C 188.943 -1.59679 3.22538 0
M  V30 1972 C 188.551 -0.681431 4.42787 0
M  V30 1973 C 190.295 -2.2968 3.56997 0
M  V30 1974 C 188.202 -1.40978 5.74351 0
M  V30 1975 H 187.132 -0.328438 0.678708 0
M  V30 1976 H 189.783 -0.1223 1.83092 0
M  V30 1977 H 188.165 -2.38927 3.158 0
M  V30 1978 H 189.339 0.0751166 4.60739 0
M  V30 1979 H 187.654 -0.0903431 4.16302 0
M  V30 1980 H 190.251 -2.84794 4.52544 0
M  V30 1981 H 190.594 -3.05707 2.82576 0
M  V30 1982 H 191.127 -1.57361 3.65352 0
M  V30 1983 H 187.866 -0.691561 6.51842 0
M  V30 1984 H 187.386 -2.13929 5.60352 0
M  V30 1985 H 189.065 -1.95337 6.16808 0
M  V30 1986 N 189.197 -1.51736 -0.425897 0
M  V30 1987 C 190.608 -1.5732 -1.00536 0
M  V30 1988 C 190.959 -0.403537 -1.92005 0
M  V30 1989 O 190.084 0.478256 -2.11049 0
M  V30 1990 C 190.679 -2.85119 -1.8301 0
M  V30 1991 C 189.238 -2.93236 -2.35987 0
M  V30 1992 C 188.385 -2.52098 -1.15508 0
M  V30 1993 H 191.336 -1.57348 -0.206739 0
M  V30 1994 H 191.357 -2.69526 -2.68581 0
M  V30 1995 H 190.869 -3.7023 -1.16411 0
M  V30 1996 H 188.97 -2.12581 -3.06007 0
M  V30 1997 H 189.083 -3.9713 -2.68001 0
M  V30 1998 H 187.447 -2.05558 -1.50393 0
M  V30 1999 H 188.23 -3.39565 -0.505014 0
M  V30 2000 N 190.675 0.682077 -1.42076 0
M  V30 2001 C 191.585 1.82535 -1.47371 0
M  V30 2002 C 192.601 1.7017 -0.363079 0
M  V30 2003 O 193.777 1.91848 -0.612875 0
M  V30 2004 C 190.842 3.18624 -1.36674 0
M  V30 2005 C 189.903 3.42999 -2.58167 0
M  V30 2006 C 189.136 4.72595 -2.4797 0
M  V30 2007 O 189.359 5.50006 -1.5116 0
M  V30 2008 O 188.293 4.98054 -3.37974 0
M  V30 2009 H 192.119 1.81023 -2.43853 0
M  V30 2010 H 189.704 0.836887 -1.2376 0
M  V30 2011 H 191.586 3.99847 -1.33043 0
M  V30 2012 H 190.261 3.20789 -0.433138 0
M  V30 2013 H 189.168 2.61653 -2.67373 0
M  V30 2014 H 190.501 3.45659 -3.50401 0
M  V30 2015 N 192.153 1.28127 0.917671 0
M  V30 2016 C 193.085 1.07517 2.02417 0
M  V30 2017 C 194.098 0.0281099 1.62776 0
M  V30 2018 O 195.287 0.270748 1.76435 0
M  V30 2019 C 192.387 0.610957 3.33347 0
M  V30 2020 C 191.56 1.73255 4.01624 0
M  V30 2021 C 190.619 1.26238 5.10833 0
M  V30 2022 O 189.645 1.96389 5.34247 0
M  V30 2023 N 190.847 0.123448 5.80369 0
M  V30 2024 H 193.612 2.02806 2.20658 0
M  V30 2025 H 191.173 1.19827 1.08871 0
M  V30 2026 H 193.165 0.280101 4.0373 0
M  V30 2027 H 191.735 -0.24898 3.11607 0
M  V30 2028 H 190.955 2.23319 3.24842 0
M  V30 2029 H 192.243 2.48503 4.43986 0
M  V30 2030 H 191.641 -0.461847 5.63812 0
M  V30 2031 H 190.198 -0.148158 6.51632 0
M  V30 2032 N 193.631 -1.12557 1.10312 0
M  V30 2033 C 194.541 -2.21841 0.763142 0
M  V30 2034 C 195.557 -1.72354 -0.238801 0
M  V30 2035 O 196.733 -2.01249 -0.0778746 0
M  V30 2036 C 193.798 -3.46131 0.198632 0
M  V30 2037 C 192.859 -4.10464 1.25769 0
M  V30 2038 C 192.092 -5.28821 0.72002 0
M  V30 2039 O 192.315 -5.6859 -0.453993 0
M  V30 2040 O 191.249 -5.83437 1.47935 0
M  V30 2041 H 195.075 -2.53312 1.67532 0
M  V30 2042 H 192.66 -1.20867 0.878157 0
M  V30 2043 H 194.542 -4.2125 -0.112401 0
M  V30 2044 H 193.217 -3.16338 -0.686419 0
M  V30 2045 H 192.124 -3.3713 1.62156 0
M  V30 2046 H 193.457 -4.44408 2.11571 0
M  V30 2047 N 195.109 -0.891671 -1.2995 0
M  V30 2048 C 196.339 -0.527893 -1.99742 0
M  V30 2049 C 196.747 0.88979 -1.66971 0
M  V30 2050 O 196.09 1.59766 -0.906667 0
M  V30 2051 C 196.152 -0.630804 -3.53922 0
M  V30 2052 C 195.816 -2.01401 -4.10228 0
M  V30 2053 C 196.813 -2.98422 -4.25724 0
M  V30 2054 C 194.498 -2.32121 -4.45449 0
M  V30 2055 C 196.492 -4.24293 -4.75662 0
M  V30 2056 C 194.179 -3.58237 -4.95086 0
M  V30 2057 C 195.177 -4.54137 -5.10146 0
M  V30 2058 O 194.865 -5.78014 -5.58708 0
M  V30 2059 H 194.597 -0.201953 -0.645129 0
M  V30 2060 H 197.151 -1.20076 -1.66646 0
M  V30 2061 H 195.381 0.0990616 -3.86573 0
M  V30 2062 H 197.07 -0.277338 -4.04951 0
M  V30 2063 H 197.836 -2.76001 -3.98809 0
M  V30 2064 H 193.715 -1.5824 -4.32991 0
M  V30 2065 H 197.259 -4.99153 -4.87332 0
M  V30 2066 H 193.156 -3.80491 -5.21437 0
M  V30 2067 H 193.924 -5.8049 -5.77039 0
M  V30 2068 N 196.587 1.43421 -0.653314 0
M  V30 2069 C 197.812 2.06678 -0.172846 0
M  V30 2070 C 198.237 1.48648 1.15262 0
M  V30 2071 O 197.595 0.596457 1.71208 0
M  V30 2072 C 197.643 3.60474 -0.0953184 0
M  V30 2073 O 196.747 4.01487 0.942442 0
M  V30 2074 H 196.088 0.657181 -0.0949155 0
M  V30 2075 H 198.618 1.83925 -0.896265 0
M  V30 2076 H 198.628 4.07905 0.0879728 0
M  V30 2077 H 197.303 4.02088 -1.06291 0
M  V30 2078 H 195.88 3.65646 0.731932 0
M  V30 2079 N 198.065 0.39524 1.52563 0
M  V30 2080 C 199.305 -0.184744 2.03563 0
M  V30 2081 C 199.669 -1.43548 1.27507 0
M  V30 2082 O 200.87 -2.093 1.68662 0
M  V30 2083 C 199.141 -0.440294 3.54678 0
M  V30 2084 S 200.7 -0.989712 4.27493 0
M  V30 2085 H 197.518 -0.0515075 0.709132 0
M  V30 2086 H 200.12 0.544957 1.87751 0
M  V30 2087 H 198.824 0.477005 4.07618 0
M  V30 2088 H 198.355 -1.19825 3.74707 0
M  V30 2089 H 200.37 -2.27155 4.41152 0
M  V30 2090 N 199.544 -1.57102 0.125237 0
M  V30 2091 C 200.79 -1.95697 -0.532035 0
M  V30 2092 C 201.123 -1.009 -1.6593 0
M  V30 2093 O 200.398 -0.047347 -1.94442 0
M  V30 2094 C 200.681 -3.44181 -1.05884 0
M  V30 2095 C 200.534 -4.49752 0.0654392 0
M  V30 2096 C 201.853 -3.94655 -1.9477 0
M  V30 2097 H 198.972 -0.711571 -0.191925 0
M  V30 2098 H 201.614 -1.88923 0.20206 0
M  V30 2099 H 199.764 -3.50085 -1.68442 0
M  V30 2100 H 201.436 -4.55943 0.700982 0
M  V30 2101 H 199.679 -4.27653 0.727709 0
M  V30 2102 H 200.35 -5.50924 -0.344505 0
M  V30 2103 H 202.826 -3.91094 -1.42074 0
M  V30 2104 H 201.702 -4.99057 -2.28546 0
M  V30 2105 H 201.963 -3.35718 -2.87656 0
M  V30 2106 N 201.022 0.148545 -1.56898 0
M  V30 2107 C 202.268 0.862694 -1.83536 0
M  V30 2108 C 202.601 1.80889 -0.706604 0
M  V30 2109 O 201.876 1.92328 0.289885 0
M  V30 2110 C 202.159 1.63853 -3.20662 0
M  V30 2111 C 202.012 0.713925 -4.44098 0
M  V30 2112 C 203.331 2.60133 -3.54991 0
M  V30 2113 H 200.45 0.312179 -0.667618 0
M  V30 2114 H 203.092 0.127953 -1.89569 0
M  V30 2115 H 201.242 2.26489 -3.1565 0
M  V30 2116 H 202.914 0.098686 -4.61194 0
M  V30 2117 H 201.157 0.0234019 -4.33794 0
M  V30 2118 H 201.828 1.29278 -5.36648 0
M  V30 2119 H 204.304 2.07616 -3.60603 0
M  V30 2120 H 203.18 3.11468 -4.51972 0
M  V30 2121 H 203.441 3.41417 -2.80868 0
M  V30 2122 N 202.5 1.5196 0.417844 0
M  V30 2123 C 203.447 1.74678 1.50852 0
M  V30 2124 C 204.417 0.588947 1.55308 0
M  V30 2125 O 205.602 0.825544 1.72016 0
M  V30 2126 C 202.742 1.89544 2.88387 0
M  V30 2127 C 201.855 3.17166 2.93309 0
M  V30 2128 C 200.99 3.22513 4.22088 0
M  V30 2129 C 200.029 4.44372 4.20951 0
M  V30 2130 N 199.166 4.47161 5.41287 0
M  V30 2131 H 204.006 2.67768 1.30783 0
M  V30 2132 H 201.543 1.32689 0.63498 0
M  V30 2133 H 203.501 1.96146 3.68216 0
M  V30 2134 H 202.131 0.998424 3.06971 0
M  V30 2135 H 201.183 3.19778 2.06024 0
M  V30 2136 H 202.495 4.07021 2.88332 0
M  V30 2137 H 201.649 3.28139 5.10303 0
M  V30 2138 H 200.388 2.30581 4.29748 0
M  V30 2139 H 199.393 4.38902 3.31127 0
M  V30 2140 H 200.618 5.3759 4.14938 0
M  V30 2141 H 198.564 3.58108 5.49632 0
M  V30 2142 H 198.481 5.3085 5.3827 0
M  V30 2143 H 199.749 4.57005 6.3148 0
M  V30 2144 N 203.978 -0.674533 1.42435 0
M  V30 2145 C 204.911 -1.79924 1.40366 0
M  V30 2146 C 205.889 -1.60378 0.267899 0
M  V30 2147 O 207.073 -1.82847 0.458159 0
M  V30 2148 C 204.2 -3.16927 1.19478 0
M  V30 2149 C 203.246 -3.55221 2.36051 0
M  V30 2150 S 204.079 -3.5762 3.98583 0
M  V30 2151 C 205.235 -4.97315 3.80038 0
M  V30 2152 H 205.468 -1.81405 2.35541 0
M  V30 2153 H 203.001 -0.845221 1.29211 0
M  V30 2154 H 204.959 -3.96007 1.08114 0
M  V30 2155 H 203.62 -3.13031 0.258883 0
M  V30 2156 H 202.813 -4.54804 2.17185 0
M  V30 2157 H 202.415 -2.83502 2.43932 0
M  V30 2158 H 204.707 -5.85401 3.41045 0
M  V30 2159 H 205.65 -5.21228 4.79298 0
M  V30 2160 H 206.058 -4.69845 3.12899 0
M  V30 2161 N 205.456 -1.28612 -0.910864 0
M  V30 2162 C 206.867 -1.14406 -1.47541 0
M  V30 2163 C 207.218 0.264901 -1.94403 0
M  V30 2164 O 206.343 1.15942 -1.82719 0
M  V30 2165 C 206.938 -2.07073 -2.68153 0
M  V30 2166 C 205.497 -1.96923 -3.20778 0
M  V30 2167 C 204.644 -1.98646 -1.93481 0
M  V30 2168 H 207.595 -1.41259 -0.723291 0
M  V30 2169 H 207.616 -1.63642 -3.43514 0
M  V30 2170 H 207.128 -3.09611 -2.34015 0
M  V30 2171 H 205.229 -0.97433 -3.59635 0
M  V30 2172 H 205.342 -2.84026 -3.85832 0
M  V30 2173 H 203.706 -1.43093 -2.10705 0
M  V30 2174 H 204.489 -3.02868 -1.61634 0
M  V30 2175 N 206.934 1.1197 -1.10907 0
M  V30 2176 C 208.159 1.87942 -0.877064 0
M  V30 2177 C 208.584 1.79341 0.567314 0
M  V30 2178 O 207.942 1.15184 1.40009 0
M  V30 2179 C 207.99 3.34926 -1.33629 0
M  V30 2180 O 207.094 4.09303 -0.504447 0
M  V30 2181 H 206.435 0.583785 -0.316371 0
M  V30 2182 H 208.965 1.4157 -1.47712 0
M  V30 2183 H 208.975 3.8577 -1.32837 0
M  V30 2184 H 207.65 3.40504 -2.3881 0
M  V30 2185 H 206.227 3.68393 -0.577993 0
M  V30 2186 N 208.412 0.89855 1.29475 0
M  V30 2187 C 209.66 0.522847 1.9522 0
M  V30 2188 C 209.981 -0.93371 1.71192 0
M  V30 2189 O 209.251 -1.65823 1.04305 0
M  V30 2190 H 207.831 0.190366 0.722336 0
M  V30 2191 H 210.493 1.14459 1.5775 0
M  V30 2192 H 209.589 0.704476 3.04045 0
M  V30 2193 N 209.89 -1.43072 0.660911 0
M  V30 2194 C 210.8 -2.34585 -0.0264163 0
M  V30 2195 C 211.816 -1.54316 -0.803898 0
M  V30 2196 O 212.992 -1.86939 -0.749391 0
M  V30 2197 C 210.057 -3.32689 -0.975639 0
M  V30 2198 C 209.118 -4.2886 -0.194236 0
M  V30 2199 C 208.351 -5.22278 -1.09825 0
M  V30 2200 O 208.574 -5.20299 -2.33763 0
M  V30 2201 O 207.508 -5.99228 -0.566513 0
M  V30 2202 H 211.334 -2.94869 0.727034 0
M  V30 2203 H 208.919 -1.43342 0.42111 0
M  V30 2204 H 210.801 -3.92995 -1.52094 0
M  V30 2205 H 209.476 -2.74898 -1.70918 0
M  V30 2206 H 208.383 -3.72011 0.394835 0
M  V30 2207 H 209.716 -4.89655 0.499899 0
M  V30 2208 N 211.368 -0.403325 -1.52352 0
M  V30 2209 C 212.615 0.174347 -2.01748 0
M  V30 2210 C 212.943 1.45636 -1.2892 0
M  V30 2211 O 212.198 1.9193 -0.382258 0
M  V30 2212 C 212.497 0.474665 -3.54234 0
M  V30 2213 C 212.163 -0.717458 -4.45155 0
M  V30 2214 C 210.825 -1.04447 -4.69728 0
M  V30 2215 C 213.177 -1.51432 -4.98716 0
M  V30 2216 C 210.505 -2.16963 -5.45109 0
M  V30 2217 C 212.857 -2.6302 -5.75329 0
M  V30 2218 C 211.521 -2.96213 -5.98175 0
M  V30 2219 H 210.791 0.0637981 -0.738248 0
M  V30 2220 H 213.438 -0.543553 -1.83624 0
M  V30 2221 H 211.743 1.27406 -3.70506 0
M  V30 2222 H 213.44 0.934496 -3.89959 0
M  V30 2223 H 210.03 -0.452596 -4.26204 0
M  V30 2224 H 214.214 -1.27491 -4.79645 0
M  V30 2225 H 209.47 -2.43034 -5.61021 0
M  V30 2226 H 213.644 -3.25158 -6.15829 0
M  V30 2227 H 211.271 -3.83516 -6.56368 0
M  V30 2228 N 212.846 1.57033 -0.133567 0
M  V30 2229 C 213.809 2.14897 0.796995 0
M  V30 2230 C 214.809 1.0874 1.18458 0
M  V30 2231 O 215.999 1.34446 1.1077 0
M  V30 2232 C 213.131 2.70112 2.07973 0
M  V30 2233 H 214.324 2.98457 0.293873 0
M  V30 2234 H 211.877 1.55871 0.115787 0
M  V30 2235 H 212.612 1.9018 2.62682 0
M  V30 2236 H 212.397 3.47764 1.81115 0
M  V30 2237 H 213.887 3.14738 2.74462 0
M  V30 2238 N 214.325 -0.140222 1.56975 0
M  V30 2239 C 215.741 -0.493088 1.51792 0
M  V30 2240 C 215.941 -1.83013 0.843116 0
M  V30 2241 O 214.997 -2.49041 0.416493 0
M  V30 2242 C 216.31 -0.497144 2.96562 0
M  V30 2243 C 217.858 -0.582186 3.07538 0
M  V30 2244 C 218.333 -0.616838 4.53827 0
M  V30 2245 N 219.824 -0.678873 4.58198 0
M  V30 2246 C 220.559 -0.726782 5.68775 0
M  V30 2247 N 220.055 -0.733623 6.88905 0
M  V30 2248 N 221.848 -0.768179 5.56826 0
M  V30 2249 H 213.999 0.736108 1.99237 0
M  V30 2250 H 216.262 0.269182 0.90898 0
M  V30 2251 H 215.968 0.417217 3.49217 0
M  V30 2252 H 215.842 -1.33263 3.52875 0
M  V30 2253 H 218.229 -1.48697 2.54899 0
M  V30 2254 H 218.31 0.280581 2.54257 0
M  V30 2255 H 217.954 0.283812 5.07106 0
M  V30 2256 H 217.884 -1.49619 5.04898 0
M  V30 2257 H 220.375 -0.68061 3.7172 0
M  V30 2258 H 220.688 -0.772215 7.68932 0
M  V30 2259 H 219.033 -0.701389 6.91452 0
M  V30 2260 H 222.224 -0.760051 4.61888 0
M  V30 2261 H 222.397 -0.80205 6.43017 0
M  V30 2262 N 215.803 -1.52179 -0.40978 0
M  V30 2263 C 217.052 -1.65434 -1.15388 0
M  V30 2264 C 217.365 -0.390056 -1.91671 0
M  V30 2265 O 218.571 -0.402399 -2.68501 0
M  V30 2266 C 217.027 -2.92279 -2.10003 0
M  V30 2267 C 216.635 -4.25813 -1.39239 0
M  V30 2268 C 218.379 -3.14897 -2.84675 0
M  V30 2269 C 216.286 -5.43782 -2.32498 0
M  V30 2270 H 215.216 -0.616267 -0.434432 0
M  V30 2271 H 217.867 -1.78666 -0.418401 0
M  V30 2272 H 216.249 -2.72744 -2.871 0
M  V30 2273 H 217.423 -4.55828 -0.675099 0
M  V30 2274 H 215.738 -4.09292 -0.766097 0
M  V30 2275 H 218.335 -4.0021 -3.54593 0
M  V30 2276 H 218.678 -2.29103 -3.47588 0
M  V30 2277 H 219.211 -3.34901 -2.14677 0
M  V30 2278 H 215.95 -6.3192 -1.74233 0
M  V30 2279 H 215.47 -5.18106 -3.02201 0
M  V30 2280 H 217.149 -5.76834 -2.93038 0
M  V30 2281 N 217.281 0.66697 -1.42791 0
M  V30 2282 C 218.521 1.43892 -1.4517 0
M  V30 2283 C 218.885 1.91877 -0.0687551 0
M  V30 2284 O 220.086 2.6878 0.0327455 0
M  V30 2285 C 218.357 2.59839 -2.45395 0
M  V30 2286 S 219.916 3.48572 -2.66539 0
M  V30 2287 H 216.734 0.491356 -0.513897 0
M  V30 2288 H 219.336 0.775656 -1.79454 0
M  V30 2289 H 218.04 2.22838 -3.44632 0
M  V30 2290 H 217.571 3.3103 -2.12562 0
M  V30 2291 H 219.586 4.56094 -1.95429 0
M  V30 2292 N 218.759 1.29093 0.90403 0
M  V30 2293 C 220.175 1.07011 1.1841 0
M  V30 2294 C 220.375 -0.181358 2.00682 0
M  V30 2295 O 219.431 -0.880331 2.36657 0
M  V30 2296 C 220.744 2.32311 1.90924 0
M  V30 2297 C 222.292 2.37587 2.03768 0
M  V30 2298 C 222.767 3.62679 2.79693 0
M  V30 2299 N 224.258 3.63376 2.87249 0
M  V30 2300 C 224.993 4.56848 3.46522 0
M  V30 2301 N 224.489 5.60648 4.06996 0
M  V30 2302 N 226.282 4.44426 3.44154 0
M  V30 2303 H 218.433 2.09412 0.354993 0
M  V30 2304 H 220.696 0.922181 0.219742 0
M  V30 2305 H 220.402 3.23536 1.37905 0
M  V30 2306 H 220.276 2.39483 2.91424 0
M  V30 2307 H 222.663 1.46853 2.55965 0
M  V30 2308 H 222.744 2.34403 1.02415 0
M  V30 2309 H 222.388 4.53762 2.28173 0
M  V30 2310 H 222.318 3.63119 3.81381 0
M  V30 2311 H 224.809 2.88321 2.44293 0
M  V30 2312 H 225.122 6.28101 4.50232 0
M  V30 2313 H 223.467 5.64463 4.05471 0
M  V30 2314 H 226.658 3.62529 2.96126 0
M  V30 2315 H 226.831 5.17457 3.90054 0
M  V30 2316 N 220.237 -1.11381 1.11499 0
M  V30 2317 C 221.514 -1.7955 0.775965 0
M  V30 2318 C 221.894 -1.97859 -0.73588 0
M  V30 2319 O 221.242 -1.56376 -1.66609 0
M  V30 2320 C 221.452 -3.13196 1.53977 0
M  V30 2321 C 222.8 -3.88227 1.71944 0
M  V30 2322 O 223.824 -3.22887 1.50407 0
M  V30 2323 O 222.683 -5.05477 2.07738 0
M  V30 2324 H 219.777 -0.777728 0.28119 0
M  V30 2325 H 222.323 -1.18118 1.21845 0
M  V30 2326 H 221.095 -2.95229 2.56818 0
M  V30 2327 H 220.718 -3.82342 1.09088 0
M  V30 2328 N 221.715 -0.905404 -1.28997 0
M  V30 2329 C 222.645 -0.404212 -2.29975 0
M  V30 2330 C 223.626 0.523784 -1.61835 0
M  V30 2331 O 224.811 0.433298 -1.89304 0
M  V30 2332 C 221.941 0.364042 -3.45387 0
M  V30 2333 C 220.895 -0.474048 -4.25367 0
M  V30 2334 C 220.221 0.422045 -5.33032 0
M  V30 2335 C 221.521 -1.72696 -4.92923 0
M  V30 2336 H 223.215 -1.24807 -2.72146 0
M  V30 2337 H 220.761 -0.601585 -1.30832 0
M  V30 2338 H 222.714 0.725447 -4.15109 0
M  V30 2339 H 221.438 1.24174 -3.02074 0
M  V30 2340 H 220.097 -0.81786 -3.57361 0
M  V30 2341 H 219.745 1.29804 -4.85963 0
M  V30 2342 H 219.445 -0.135057 -5.87445 0
M  V30 2343 H 220.969 0.779517 -6.05604 0
M  V30 2344 H 222.383 -1.43495 -5.55051 0
M  V30 2345 H 220.78 -2.22582 -5.57295 0
M  V30 2346 H 221.85 -2.45964 -4.17887 0
M  V30 2347 N 223.193 1.4272 -0.668489 0
M  V30 2348 C 224.418 2.06484 -0.194758 0
M  V30 2349 C 224.843 1.49862 1.13679 0
M  V30 2350 O 224.201 0.614582 1.70565 0
M  V30 2351 C 224.249 3.60353 -0.133546 0
M  V30 2352 O 223.353 4.02464 0.899806 0
M  V30 2353 H 222.694 0.656137 -0.10188 0
M  V30 2354 H 225.224 1.82964 -0.915722 0
M  V30 2355 H 225.234 4.07976 0.0447041 0
M  V30 2356 H 223.909 4.00938 -1.1055 0
M  V30 2357 H 222.486 3.66402 0.693109 0
M  V30 2358 N 224.671 0.411399 1.52136 0
M  V30 2359 C 225.621 -0.430376 2.23901 0
M  V30 2360 C 226.605 -1.0116 1.25121 0
M  V30 2361 O 227.797 -0.934044 1.50348 0
M  V30 2362 C 224.926 -1.54527 3.06556 0
M  V30 2363 C 224.012 -0.9747 4.12747 0
M  V30 2364 N 224.403 -0.130991 5.0563 0
M  V30 2365 C 222.701 -1.24497 4.28271 0
M  V30 2366 C 223.402 0.186689 5.814 0
M  V30 2367 N 222.378 -0.42304 5.41951 0
M  V30 2368 H 226.18 0.220509 2.93072 0
M  V30 2369 H 223.694 0.221952 1.60876 0
M  V30 2370 H 225.691 -2.16093 3.56524 0
M  V30 2371 H 224.351 -2.19875 2.38925 0
M  V30 2372 H 225.362 0.23349 5.17373 0
M  V30 2373 H 222.039 -1.89787 3.7187 0
M  V30 2374 H 223.429 0.871673 6.66222 0
M  V30 2375 N 226.149 -1.5696 0.141893 0
M  V30 2376 C 227.398 -1.95135 -0.510427 0
M  V30 2377 C 227.711 -1.02896 -1.66348 0
M  V30 2378 O 228.917 -1.30629 -2.38009 0
M  V30 2379 C 227.373 -3.46876 -0.959427 0
M  V30 2380 C 226.981 -4.47691 0.166419 0
M  V30 2381 C 228.725 -3.93927 -1.58183 0
M  V30 2382 C 226.632 -5.90636 -0.300565 0
M  V30 2383 H 225.562 -0.728494 -0.194454 0
M  V30 2384 H 228.213 -1.8211 0.22542 0
M  V30 2385 H 226.595 -3.55215 -1.75038 0
M  V30 2386 H 227.769 -4.51043 0.94325 0
M  V30 2387 H 226.084 -4.10527 0.696905 0
M  V30 2388 H 228.681 -4.98158 -1.94275 0
M  V30 2389 H 229.024 -3.3519 -2.46888 0
M  V30 2390 H 229.557 -3.88484 -0.855863 0
M  V30 2391 H 226.296 -6.5318 0.550989 0
M  V30 2392 H 225.816 -5.90655 -1.04338 0
M  V30 2393 H 227.495 -6.42588 -0.754265 0
M  V30 2394 N 227.627 0.131896 -1.57047 0
M  V30 2395 C 228.875 0.840269 -1.83804 0
M  V30 2396 C 229.196 1.81017 -0.72512 0
M  V30 2397 O 228.466 1.94272 0.251995 0
M  V30 2398 H 227.046 0.313294 -0.678127 0
M  V30 2399 H 229.708 0.122294 -1.94516 0
M  V30 2400 H 228.804 1.39335 -2.79271 0
M  V30 2401 N 229.106 1.52395 0.401703 0
M  V30 2402 C 230.383 1.57387 1.16141 0
M  V30 2403 C 230.763 0.359359 2.08019 0
M  V30 2404 O 230.111 -0.65326 2.18963 0
M  V30 2405 C 230.321 2.90631 1.93221 0
M  V30 2406 C 231.669 3.43904 2.49028 0
M  V30 2407 O 232.693 2.92421 2.03393 0
M  V30 2408 O 231.552 4.33823 3.32356 0
M  V30 2409 H 228.646 0.634262 0.530698 0
M  V30 2410 H 231.192 1.64725 0.407883 0
M  V30 2411 H 229.964 3.70473 1.25958 0
M  V30 2412 H 229.587 2.8662 2.75563 0
M  V30 2413 N 230.584 -0.659388 1.43143 0
M  V30 2414 C 231.547 -1.75432 1.47501 0
M  V30 2415 C 232.547 -1.56707 0.360512 0
M  V30 2416 O 233.737 -1.62717 0.622002 0
M  V30 2417 C 230.869 -3.14239 1.32162 0
M  V30 2418 H 232.062 -1.7295 2.45006 0
M  V30 2419 H 229.615 -0.870469 1.29817 0
M  V30 2420 H 230.35 -3.22336 0.356401 0
M  V30 2421 H 230.135 -3.29235 2.12948 0
M  V30 2422 H 231.625 -3.94094 1.3813 0
M  V30 2423 N 232.062 -1.29571 -0.897171 0
M  V30 2424 C 233.308 -1.17863 -1.65034 0
M  V30 2425 C 233.641 0.268729 -1.92332 0
M  V30 2426 O 232.916 1.19378 -1.53555 0
M  V30 2427 C 233.199 -1.995 -2.99786 0
M  V30 2428 C 233.052 -3.5239 -2.79538 0
M  V30 2429 C 234.371 -1.82335 -4.00552 0
M  V30 2430 H 231.49 -0.429528 -0.598895 0
M  V30 2431 H 234.132 -1.59072 -1.03905 0
M  V30 2432 H 232.282 -1.64485 -3.51962 0
M  V30 2433 H 233.954 -3.97401 -2.34244 0
M  V30 2434 H 232.197 -3.77187 -2.14273 0
M  V30 2435 H 232.868 -4.04787 -3.75302 0
M  V30 2436 H 235.344 -2.12924 -3.57495 0
M  V30 2437 H 234.22 -2.41801 -4.92771 0
M  V30 2438 H 234.481 -0.779209 -4.35179 0
M  V30 2439 N 233.54 1.10788 -1.12088 0
M  V30 2440 C 234.786 1.82942 -0.875226 0
M  V30 2441 C 235.119 1.84779 0.597538 0
M  V30 2442 O 234.394 1.30578 1.44152 0
M  V30 2443 C 234.677 3.29789 -1.44606 0
M  V30 2444 C 234.53 3.36307 -2.98693 0
M  V30 2445 C 235.849 4.26064 -1.10261 0
M  V30 2446 H 232.968 0.664195 -0.319397 0
M  V30 2447 H 235.61 1.29867 -1.38689 0
M  V30 2448 H 233.76 3.75118 -1.01089 0
M  V30 2449 H 235.432 2.99487 -3.50864 0
M  V30 2450 H 233.675 2.76318 -3.34411 0
M  V30 2451 H 234.346 4.39694 -3.33726 0
M  V30 2452 H 236.822 3.88951 -1.4784 0
M  V30 2453 H 235.698 5.27183 -1.52869 0
M  V30 2454 H 235.959 4.42098 -0.0142953 0
M  V30 2455 N 235.018 0.912232 1.28515 0
M  V30 2456 C 236.267 0.540504 1.94323 0
M  V30 2457 C 236.58 -0.920044 1.72611 0
M  V30 2458 O 237.786 -1.39986 2.32629 0
M  V30 2459 C 236.242 0.915803 3.48053 0
M  V30 2460 C 235.85 2.39598 3.78546 0
M  V30 2461 C 237.594 0.614588 4.20027 0
M  V30 2462 C 235.501 2.71148 5.25578 0
M  V30 2463 H 234.431 0.198418 0.727424 0
M  V30 2464 H 237.082 1.11094 1.46049 0
M  V30 2465 H 235.464 0.274168 3.9505 0
M  V30 2466 H 236.638 3.08422 3.42364 0
M  V30 2467 H 234.953 2.66749 3.1974 0
M  V30 2468 H 237.55 0.827002 5.28266 0
M  V30 2469 H 237.893 -0.447531 4.13887 0
M  V30 2470 H 238.426 1.21462 3.78803 0
M  V30 2471 H 235.165 3.76207 5.36794 0
M  V30 2472 H 234.685 2.0696 5.62963 0
M  V30 2473 H 236.364 2.58072 5.93302 0
M  V30 2474 N 236.496 -1.42363 0.676048 0
M  V30 2475 C 237.721 -2.06377 0.205705 0
M  V30 2476 C 238.146 -1.50463 -1.12883 0
M  V30 2477 O 237.504 -0.623619 -1.70237 0
M  V30 2478 C 237.552 -3.60277 0.152655 0
M  V30 2479 O 236.656 -4.02935 -0.87845 0
M  V30 2480 H 235.997 -0.655588 0.105359 0
M  V30 2481 H 238.527 -1.82475 0.925412 0
M  V30 2482 H 238.537 -4.07993 -0.0230675 0
M  V30 2483 H 237.212 -4.00346 1.12675 0
M  V30 2484 H 235.789 -3.66764 -0.673668 0
M  V30 2485 N 237.974 -0.419461 -1.51915 0
M  V30 2486 C 239.214 0.152336 -2.03832 0
M  V30 2487 C 239.578 1.41501 -1.29775 0
M  V30 2488 O 240.779 2.06591 -1.7197 0
M  V30 2489 C 239.05 0.383812 -3.55333 0
M  V30 2490 S 240.609 0.921577 -4.29013 0
M  V30 2491 H 237.427 0.0402193 -0.709862 0
M  V30 2492 H 240.029 -0.574758 -1.8686 0
M  V30 2493 H 238.733 -0.541794 -4.06808 0
M  V30 2494 H 238.264 1.13849 -3.76566 0
M  V30 2495 H 240.279 2.20108 -4.4471 0
M  V30 2496 N 239.452 1.56882 -0.150215 0
M  V30 2497 C 240.415 2.1573 0.774157 0
M  V30 2498 C 241.415 1.0999 1.17298 0
M  V30 2499 O 242.605 1.35613 1.09338 0
M  V30 2500 C 239.737 2.72302 2.05096 0
M  V30 2501 H 240.93 2.98752 0.262201 0
M  V30 2502 H 238.483 1.55985 0.099248 0
M  V30 2503 H 239.218 1.92956 2.6065 0
M  V30 2504 H 239.003 3.49665 1.77416 0
M  V30 2505 H 240.493 3.17632 2.71109 0
M  V30 2506 N 240.93 -0.123565 1.57115 0
M  V30 2507 C 241.877 -1.15177 2.00007 0
M  V30 2508 C 242.847 -1.41403 0.871454 0
M  V30 2509 O 244.032 -1.53346 1.13533 0
M  V30 2510 C 241.172 -2.47436 2.40561 0
M  V30 2511 C 240.285 -2.28184 3.66819 0
M  V30 2512 C 239.42 -3.53641 3.96373 0
M  V30 2513 C 238.459 -3.29528 5.15827 0
M  V30 2514 N 237.596 -4.47175 5.41275 0
M  V30 2515 H 242.436 -0.779008 2.87638 0
M  V30 2516 H 239.973 -0.373166 1.42288 0
M  V30 2517 H 241.931 -3.24584 2.62109 0
M  V30 2518 H 240.561 -2.82614 1.55978 0
M  V30 2519 H 239.613 -1.41976 3.52912 0
M  V30 2520 H 240.925 -2.0634 4.5412 0
M  V30 2521 H 240.079 -4.39209 4.18545 0
M  V30 2522 H 238.818 -3.78512 3.07538 0
M  V30 2523 H 237.823 -2.42349 4.93505 0
M  V30 2524 H 239.048 -3.06031 6.06236 0
M  V30 2525 H 236.994 -4.72175 4.55397 0
M  V30 2526 H 236.911 -4.28419 6.22891 0
M  V30 2527 H 238.179 -5.3389 5.67963 0
M  V30 2528 N 242.408 -1.52605 -0.393616 0
M  V30 2529 C 243.685 -1.58001 -1.15304 0
M  V30 2530 C 244.065 -0.370385 -2.07825 0
M  V30 2531 O 243.413 0.641638 -2.19306 0
M  V30 2532 C 243.623 -2.91652 -1.91677 0
M  V30 2533 C 244.971 -3.4522 -2.47201 0
M  V30 2534 O 245.995 -2.93495 -2.01839 0
M  V30 2535 O 244.854 -4.35579 -3.3005 0
M  V30 2536 H 241.948 -0.637068 -0.527327 0
M  V30 2537 H 244.494 -1.64939 -0.399141 0
M  V30 2538 H 243.266 -3.71136 -1.23992 0
M  V30 2539 H 242.889 -2.88077 -2.74039 0
M  V30 2540 N 243.887 0.651787 -1.4349 0
M  V30 2541 C 245.135 1.40888 -1.44897 0
M  V30 2542 C 245.456 1.94856 -0.0749086 0
M  V30 2543 O 244.726 1.74518 0.889956 0
M  V30 2544 H 243.306 0.522887 -0.533478 0
M  V30 2545 H 245.968 0.768609 -1.79104 0
M  V30 2546 H 245.064 2.25052 -2.16236 0
M  V30 2547 N 245.365 1.30045 0.890287 0
M  V30 2548 C 246.611 1.18737 1.64406 0
M  V30 2549 C 246.944 -0.258525 1.92472 0
M  V30 2550 O 246.219 -1.18562 1.54186 0
M  V30 2551 C 246.502 2.01087 2.98724 0
M  V30 2552 C 246.355 3.53867 2.77665 0
M  V30 2553 C 247.674 1.84457 3.9958 0
M  V30 2554 H 244.793 0.432698 0.596608 0
M  V30 2555 H 247.435 1.5962 1.0306 0
M  V30 2556 H 245.585 1.66349 3.51084 0
M  V30 2557 H 247.257 3.98637 2.32133 0
M  V30 2558 H 245.5 3.78318 2.12269 0
M  V30 2559 H 246.171 4.06772 3.7315 0
M  V30 2560 H 248.647 2.14817 3.56361 0
M  V30 2561 H 247.523 2.44411 4.91482 0
M  V30 2562 H 247.784 0.802276 4.3476 0
M  V30 2563 N 246.843 -1.10192 1.12674 0
M  V30 2564 C 247.79 -2.16606 0.796906 0
M  V30 2565 C 248.76 -1.64394 -0.237476 0
M  V30 2566 O 249.945 -1.90474 -0.111484 0
M  V30 2567 C 247.085 -3.44116 0.26043 0
M  V30 2568 C 246.198 -4.10268 1.35293 0
M  V30 2569 C 245.333 -5.25507 0.775621 0
M  V30 2570 C 244.372 -5.83567 1.84706 0
M  V30 2571 N 243.509 -6.90179 1.28829 0
M  V30 2572 H 248.349 -2.44163 1.70846 0
M  V30 2573 H 245.886 -1.19846 0.85295 0
M  V30 2574 H 247.844 -4.17143 -0.0686814 0
M  V30 2575 H 246.474 -3.16901 -0.614274 0
M  V30 2576 H 245.526 -3.35184 1.79877 0
M  V30 2577 H 246.838 -4.4946 2.16303 0
M  V30 2578 H 245.992 -6.05398 0.397327 0
M  V30 2579 H 244.731 -4.87656 -0.0656581 0
M  V30 2580 H 243.736 -5.02344 2.23452 0
M  V30 2581 H 244.961 -6.23482 2.69161 0
M  V30 2582 H 242.907 -6.54322 0.468881 0
M  V30 2583 H 242.824 -7.28097 2.03497 0
M  V30 2584 H 244.092 -7.73844 0.937311 0
M  V30 2585 N 248.321 -0.919034 -1.28029 0
M  V30 2586 C 249.568 -0.554934 -1.94748 0
M  V30 2587 C 249.896 0.90231 -1.72304 0
M  V30 2588 O 249.151 1.65767 -1.04018 0
M  V30 2589 C 249.45 -0.816855 -3.4794 0
M  V30 2590 C 249.116 -2.25448 -3.90492 0
M  V30 2591 C 247.778 -2.64752 -4.01821 0
M  V30 2592 C 250.13 -3.18977 -4.12193 0
M  V30 2593 C 247.458 -3.96727 -4.32232 0
M  V30 2594 C 249.81 -4.50523 -4.44086 0
M  V30 2595 C 248.474 -4.89673 -4.53626 0
M  V30 2596 H 247.744 -0.203065 -0.712633 0
M  V30 2597 H 250.391 -1.16136 -1.52265 0
M  V30 2598 H 248.696 -0.127677 -3.91592 0
M  V30 2599 H 250.393 -0.514238 -3.97689 0
M  V30 2600 H 246.983 -1.93952 -3.82205 0
M  V30 2601 H 251.167 -2.89817 -4.02889 0
M  V30 2602 H 246.423 -4.26754 -4.37825 0
M  V30 2603 H 250.597 -5.23005 -4.59825 0
M  V30 2604 H 248.224 -5.91969 -4.76946 0
M  V30 2605 N 249.799 1.42003 -0.683588 0
M  V30 2606 C 251.024 2.06265 -0.216647 0
M  V30 2607 C 251.449 1.51059 1.12083 0
M  V30 2608 O 250.807 0.632638 1.69904 0
M  V30 2609 C 250.855 3.60191 -0.171759 0
M  V30 2610 O 249.959 4.03396 0.857069 0
M  V30 2611 H 249.3 0.65502 -0.108834 0
M  V30 2612 H 251.83 1.81982 -0.935077 0
M  V30 2613 H 251.84 4.08 0.0014303 0
M  V30 2614 H 250.515 3.99743 -1.14796 0
M  V30 2615 H 249.092 3.67117 0.654208 0
M  V30 2616 N 251.277 0.427512 1.51691 0
M  V30 2617 C 252.24 -0.377132 2.26076 0
M  V30 2618 C 253.24 -0.958089 1.29141 0
M  V30 2619 O 254.43 -0.83408 1.52934 0
M  V30 2620 C 251.562 -1.53262 3.04506 0
M  V30 2621 H 252.755 0.27464 2.9864 0
M  V30 2622 H 250.308 0.180445 1.55255 0
M  V30 2623 H 251.043 -2.22072 2.36335 0
M  V30 2624 H 250.828 -1.12232 3.75694 0
M  V30 2625 H 252.318 -2.10135 3.60878 0
M  V30 2626 N 252.755 -1.56801 0.158532 0
M  V30 2627 C 253.98 -2.01295 -0.499516 0
M  V30 2628 C 254.405 -1.03799 -1.56867 0
M  V30 2629 O 253.763 -0.0155162 -1.81293 0
M  V30 2630 C 253.811 -3.44469 -1.06647 0
M  V30 2631 O 252.915 -3.50012 -2.18095 0
M  V30 2632 H 252.256 -0.652884 -0.12099 0
M  V30 2633 H 254.786 -2.02958 0.258661 0
M  V30 2634 H 254.796 -3.8351 -1.39227 0
M  V30 2635 H 253.471 -4.14932 -0.283581 0
M  V30 2636 H 252.048 -3.22822 -1.86656 0
M  V30 2637 N 254.233 0.115231 -1.57178 0
M  V30 2638 C 255.481 0.820727 -1.84685 0
M  V30 2639 C 255.802 1.80237 -0.744279 0
M  V30 2640 O 255.072 1.94529 0.231375 0
M  V30 2641 H 253.652 0.306084 -0.681411 0
M  V30 2642 H 256.314 0.101656 -1.94635 0
M  V30 2643 H 255.41 1.36366 -2.80733 0
M  V30 2644 N 255.711 1.52812 0.385517 0
M  V30 2645 C 256.621 1.80766 1.49535 0
M  V30 2646 C 257.637 0.694651 1.59532 0
M  V30 2647 O 258.813 0.982611 1.75803 0
M  V30 2648 C 255.878 1.97381 2.85029 0
M  V30 2649 C 254.939 3.21295 2.84724 0
M  V30 2650 C 254.172 3.37108 4.13756 0
M  V30 2651 O 254.395 2.5765 5.08893 0
M  V30 2652 O 253.329 4.30378 4.20783 0
M  V30 2653 H 257.155 2.75015 1.28842 0
M  V30 2654 H 254.74 1.37946 0.573697 0
M  V30 2655 H 256.622 2.09996 3.65349 0
M  V30 2656 H 255.297 1.06322 3.05741 0
M  V30 2657 H 254.204 3.1412 2.03174 0
M  V30 2658 H 255.537 4.12212 2.68965 0
M  V30 2659 N 257.189 -0.644168 1.43834 0
M  V30 2660 C 258.119 -1.76814 1.52509 0
M  V30 2661 C 259.1 -1.65823 0.379052 0
M  V30 2662 O 260.285 -1.84781 0.597466 0
M  V30 2663 C 257.415 -3.15288 1.4564 0
M  V30 2664 C 256.369 -3.41053 2.58586 0
M  V30 2665 C 255.695 -4.79421 2.36769 0
M  V30 2666 C 256.995 -3.34902 4.00797 0
M  V30 2667 H 258.689 -1.69812 2.46586 0
M  V30 2668 H 256.235 -0.815542 1.1868 0
M  V30 2669 H 258.188 -3.93681 1.50311 0
M  V30 2670 H 256.912 -3.23043 0.480725 0
M  V30 2671 H 255.571 -2.65035 2.53282 0
M  V30 2672 H 255.219 -4.83863 1.37424 0
M  V30 2673 H 254.919 -4.9762 3.12487 0
M  V30 2674 H 256.443 -5.6006 2.43238 0
M  V30 2675 H 257.857 -4.03218 4.07539 0
M  V30 2676 H 256.254 -3.64637 4.76613 0
M  V30 2677 H 257.324 -2.32928 4.25291 0
M  V30 2678 N 258.668 -1.30515 -0.883378 0
M  V30 2679 C 259.916 -1.19194 -1.63209 0
M  V30 2680 C 260.237 0.253205 -1.93349 0
M  V30 2681 O 259.507 1.17025 -1.57105 0
M  V30 2682 H 258.087 -0.438148 -0.605009 0
M  V30 2683 H 260.749 -1.63663 -1.05832 0
M  V30 2684 H 259.845 -1.75396 -2.58153 0
M  V30 2685 N 260.146 1.09593 -1.13257 0
M  V30 2686 C 261.094 2.18271 -0.803783 0
M  V30 2687 C 262.088 1.68054 0.213148 0
M  V30 2688 O 263.294 1.79862 0.0704699 0
M  V30 2689 H 259.669 0.711949 -0.242143 0
M  V30 2690 H 261.64 2.43235 -1.72856 0
M  V30 2691 C 260.389 3.46536 -0.28424 0
M  V30 2692 H 259.712 3.85545 -1.05807 0
M  V30 2693 H 261.152 4.23899 -0.0925945 0
M  V30 2694 C 259.611 3.22036 0.989684 0
M  V30 2695 O 260.141 3.44509 2.06584 0
M  V30 2696 N 258.347 2.7565 0.920086 0
M  V30 2697 H 257.894 2.57562 0.0442019 0
M  V30 2698 H 257.852 2.59635 1.77306 0
M  V30 2699 N 261.624 0.925811 1.2754 0
M  V30 2700 C 262.872 0.564138 1.94067 0
M  V30 2701 C 263.193 -0.897188 1.73134 0
M  V30 2702 O 262.463 -1.63573 1.07799 0
M  V30 2703 H 261.043 0.205645 0.718136 0
M  V30 2704 H 263.705 1.1778 1.55287 0
M  V30 2705 H 262.801 0.76881 3.02483 0
M  V30 2706 N 263.102 -1.41638 0.69111 0
M  V30 2707 C 264.05 -2.32597 0.0115199 0
M  V30 2708 C 265.044 -1.5072 -0.773296 0
M  V30 2709 O 266.25 -1.66685 -0.67942 0
M  V30 2710 H 262.625 -0.751849 -0.0150746 0
M  V30 2711 H 264.596 -2.87593 0.795791 0
M  V30 2712 C 263.345 -3.35467 -0.914172 0
M  V30 2713 H 262.668 -3.9852 -0.319687 0
M  V30 2714 H 264.108 -4.01662 -1.35808 0
M  V30 2715 C 262.567 -2.69004 -2.02826 0
M  V30 2716 O 263.097 -2.53444 -3.11655 0
M  V30 2717 N 261.303 -2.2777 -1.80469 0
M  V30 2718 H 260.85 -2.40626 -0.919615 0
M  V30 2719 H 260.808 -1.83635 -2.55197 0
M  V30 2720 N 264.58 -0.43555 -1.51462 0
M  V30 2721 C 265.829 0.133007 -2.01261 0
M  V30 2722 C 266.142 1.43942 -1.32439 0
M  V30 2723 O 267.348 2.09081 -1.73198 0
M  V30 2724 C 265.804 0.287581 -3.58749 0
M  V30 2725 C 265.412 -1.00829 -4.36506 0
M  V30 2726 C 267.156 0.810004 -4.167 0
M  V30 2727 C 265.063 -0.819454 -5.85695 0
M  V30 2728 H 263.993 0.0534822 -0.752101 0
M  V30 2729 H 266.644 -0.565038 -1.74584 0
M  V30 2730 H 265.026 1.04859 -3.81865 0
M  V30 2731 H 266.2 -1.77749 -4.25138 0
M  V30 2732 H 264.515 -1.45911 -3.89999 0
M  V30 2733 H 267.112 0.967743 -5.2587 0
M  V30 2734 H 267.455 1.79196 -3.75758 0
M  V30 2735 H 267.988 0.107357 -3.97655 0
M  V30 2736 H 264.727 -1.77374 -6.31046 0
M  V30 2737 H 264.247 -0.0900208 -5.99732 0
M  V30 2738 H 265.926 -0.471949 -6.45276 0
M  V30 2739 N 266.058 1.56714 -0.166846 0
M  V30 2740 C 267.005 2.17746 0.765193 0
M  V30 2741 C 267.975 1.11614 1.23011 0
M  V30 2742 O 269.16 1.39745 1.29908 0
M  V30 2743 C 266.3 2.81882 1.9909 0
M  V30 2744 C 265.413 4.02462 1.56997 0
M  V30 2745 C 264.548 4.54537 2.749 0
M  V30 2746 C 263.587 5.67538 2.29275 0
M  V30 2747 N 262.724 6.14142 3.40255 0
M  V30 2748 H 267.564 2.97048 0.237952 0
M  V30 2749 H 265.101 1.4672 0.105725 0
M  V30 2750 H 267.059 3.17221 2.70974 0
M  V30 2751 H 265.689 2.05191 2.49192 0
M  V30 2752 H 264.741 3.72973 0.748037 0
M  V30 2753 H 266.053 4.84273 1.19503 0
M  V30 2754 H 265.207 4.92035 3.54946 0
M  V30 2755 H 263.946 3.71774 3.1565 0
M  V30 2756 H 262.951 5.29597 1.47674 0
M  V30 2757 H 264.176 6.52099 1.89588 0
M  V30 2758 H 262.122 5.3431 3.8059 0
M  V30 2759 H 262.039 6.9093 3.06841 0
M  V30 2760 H 263.307 6.56289 4.206 0
M  V30 2761 N 267.536 -0.106894 1.57237 0
M  V30 2762 C 268.466 -1.13148 2.04254 0
M  V30 2763 C 269.447 -1.42476 0.929224 0
M  V30 2764 O 270.632 -1.52709 1.19973 0
M  V30 2765 C 267.762 -2.4545 2.45706 0
M  V30 2766 C 266.716 -2.30558 3.60592 0
M  V30 2767 C 266.042 -3.67931 3.87983 0
M  V30 2768 C 267.342 -1.75597 4.91897 0
M  V30 2769 H 269.036 -0.740374 2.90101 0
M  V30 2770 H 266.582 -0.354696 1.39563 0
M  V30 2771 H 268.535 -3.17389 2.77205 0
M  V30 2772 H 267.259 -2.86475 1.56843 0
M  V30 2773 H 265.918 -1.61067 3.29322 0
M  V30 2774 H 265.566 -4.06462 2.96306 0
M  V30 2775 H 265.266 -3.58817 4.65322 0
M  V30 2776 H 266.79 -4.41356 4.21945 0
M  V30 2777 H 268.204 -2.37364 5.21854 0
M  V30 2778 H 266.601 -1.77272 5.73319 0
M  V30 2779 H 267.671 -0.714451 4.79608 0
M  V30 2780 N 269.014 -1.53014 -0.377408 0
M  V30 2781 C 270.239 -1.72818 -1.14668 0
M  V30 2782 C 270.664 -0.450725 -1.8262 0
M  V30 2783 O 270.022 0.59439 -1.7128 0
M  V30 2784 C 270.07 -2.88627 -2.16164 0
M  V30 2785 O 269.174 -2.56409 -3.22998 0
M  V30 2786 H 268.515 -0.574301 -0.333278 0
M  V30 2787 H 271.045 -1.99853 -0.438152 0
M  V30 2788 H 271.055 -3.14455 -2.59966 0
M  V30 2789 H 269.73 -3.81294 -1.66095 0
M  V30 2790 H 268.307 -2.4136 -2.84253 0
M  V30 2791 N 270.492 0.636531 -1.44174 0
M  V30 2792 C 271.424 1.7618 -1.46606 0
M  V30 2793 C 272.437 1.58768 -0.360091 0
M  V30 2794 O 273.626 1.67181 -0.625518 0
M  V30 2795 C 270.726 3.13833 -1.27915 0
M  V30 2796 C 269.899 3.57753 -2.51658 0
M  V30 2797 C 268.958 4.74265 -2.27945 0
M  V30 2798 O 267.984 4.82852 -3.01401 0
M  V30 2799 N 269.186 5.65604 -1.30662 0
M  V30 2800 H 271.951 1.74567 -2.43612 0
M  V30 2801 H 269.512 0.820924 -1.39544 0
M  V30 2802 H 271.504 3.8949 -1.09907 0
M  V30 2803 H 270.074 3.10121 -0.39293 0
M  V30 2804 H 269.294 2.72362 -2.84978 0
M  V30 2805 H 270.582 3.83847 -3.33974 0
M  V30 2806 H 269.98 5.61354 -0.699844 0
M  V30 2807 H 268.537 6.40913 -1.18634 0
M  V30 2808 N 271.97 1.30982 0.876444 0
M  V30 2809 C 273.198 1.23242 1.6619 0
M  V30 2810 C 273.613 -0.203345 1.87702 0
M  V30 2811 O 272.97 -1.13317 1.43057 0
M  V30 2812 C 273.021 1.96623 3.03351 0
M  V30 2813 O 272.742 3.34594 2.82804 0
M  V30 2814 C 274.243 1.95644 3.97792 0
M  V30 2815 H 271.463 0.426126 0.518322 0
M  V30 2816 H 274.007 1.7275 1.09442 0
M  V30 2817 H 272.162 1.50892 3.56806 0
M  V30 2818 H 272.576 3.71873 3.69879 0
M  V30 2819 H 274.05 2.51511 4.91372 0
M  V30 2820 H 274.527 0.937395 4.2908 0
M  V30 2821 H 275.133 2.41225 3.50272 0
M  V30 2822 N 273.449 -1.08991 1.13837 0
M  V30 2823 C 274.674 -1.85551 0.926585 0
M  V30 2824 C 275.099 -1.80782 -0.519566 0
M  V30 2825 O 274.457 -1.18855 -1.36906 0
M  V30 2826 C 274.505 -3.31266 1.42462 0
M  V30 2827 O 273.609 -4.07822 0.612789 0
M  V30 2828 H 272.95 -0.575192 0.331738 0
M  V30 2829 H 275.48 -1.37604 1.51414 0
M  V30 2830 H 275.49 -3.82112 1.43019 0
M  V30 2831 H 274.165 -3.34052 2.47754 0
M  V30 2832 H 272.742 -3.66731 0.675463 0
M  V30 2833 N 274.927 -0.932562 -1.27047 0
M  V30 2834 C 275.875 -0.42603 -2.28665 0
M  V30 2835 C 276.869 0.49219 -1.62092 0
M  V30 2836 O 278.075 0.371355 -1.76128 0
M  V30 2837 H 274.45 -0.119213 -0.742491 0
M  V30 2838 H 276.421 -1.29579 -2.68797 0
M  V30 2839 C 275.17 0.301426 -3.46391 0
M  V30 2840 H 274.493 -0.39595 -3.97834 0
M  V30 2841 H 275.933 0.6202 -4.1944 0
M  V30 2842 C 274.392 1.51616 -3.00856 0
M  V30 2843 O 274.922 2.61476 -3.04948 0
M  V30 2844 N 273.128 1.36969 -2.56296 0
M  V30 2845 H 272.675 0.475873 -2.53166 0
M  V30 2846 H 272.633 2.18368 -2.26192 0
M  V30 2847 N 276.405 1.4127 -0.698611 0
M  V30 2848 C 277.651 2.01478 -0.231207 0
M  V30 2849 C 277.984 1.55215 1.16713 0
M  V30 2850 O 277.259 0.764672 1.78838 0
M  V30 2851 C 277.542 3.58912 -0.292281 0
M  V30 2852 C 277.395 4.15293 -1.72778 0
M  V30 2853 C 278.714 4.38736 0.346194 0
M  V30 2854 H 275.833 0.732025 -0.0854878 0
M  V30 2855 H 278.475 1.67977 -0.887906 0
M  V30 2856 H 276.625 3.87582 0.26686 0
M  V30 2857 H 278.297 3.97486 -2.341 0
M  V30 2858 H 276.54 3.7022 -2.26096 0
M  V30 2859 H 277.211 5.24452 -1.72202 0
M  V30 2860 H 279.687 4.15897 -0.130035 0
M  V30 2861 H 278.563 5.48221 0.272932 0
M  V30 2862 H 278.824 4.18425 1.42734 0
M  V30 2863 N 277.883 0.443576 1.51229 0
M  V30 2864 C 279.16 -0.181038 1.9476 0
M  V30 2865 C 279.54 -1.59523 1.38259 0
M  V30 2866 O 278.888 -2.2122 0.572198 0
M  V30 2867 C 279.098 -0.152422 3.48667 0
M  V30 2868 C 280.446 -0.354923 4.23114 0
M  V30 2869 O 281.47 -0.230257 3.55455 0
M  V30 2870 O 280.329 -0.603674 5.43156 0
M  V30 2871 H 277.423 -0.1266 0.817252 0
M  V30 2872 H 279.969 0.502004 1.62105 0
M  V30 2873 H 278.741 0.836022 3.82265 0
M  V30 2874 H 278.364 -0.878107 3.87782 0
M  V30 2875 N 279.361 -1.56624 0.175154 0
M  V30 2876 C 280.308 -2.18149 -0.753634 0
M  V30 2877 C 281.278 -1.12265 -1.22417 0
M  V30 2878 O 282.463 -1.40432 -1.29165 0
M  V30 2879 C 279.603 -2.82933 -1.97592 0
M  V30 2880 C 278.716 -4.03289 -1.5486 0
M  V30 2881 C 277.851 -4.55988 -2.72485 0
M  V30 2882 C 276.89 -5.68746 -2.26262 0
M  V30 2883 N 276.027 -6.15938 -3.36994 0
M  V30 2884 H 280.867 -2.9717 -0.222195 0
M  V30 2885 H 278.404 -1.46774 -0.0979422 0
M  V30 2886 H 280.362 -3.18653 -2.69288 0
M  V30 2887 H 278.992 -2.06509 -2.481 0
M  V30 2888 H 278.044 -3.73364 -0.728246 0
M  V30 2889 H 279.356 -4.849 -1.16933 0
M  V30 2890 H 278.51 -4.9391 -3.52332 0
M  V30 2891 H 277.249 -3.73443 -3.13674 0
M  V30 2892 H 276.254 -5.30372 -1.44863 0
M  V30 2893 H 277.479 -6.53095 -1.86127 0
M  V30 2894 H 275.425 -5.36321 -3.77751 0
M  V30 2895 H 275.342 -6.92548 -3.03172 0
M  V30 2896 H 276.61 -6.58511 -4.17114 0
M  V30 2897 N 280.839 0.0985539 -1.57292 0
M  V30 2898 C 281.749 1.13824 -2.05137 0
M  V30 2899 C 282.765 1.44076 -0.975604 0
M  V30 2900 O 283.941 1.54786 -1.28853 0
M  V30 2901 C 281.006 2.43969 -2.46333 0
M  V30 2902 C 280.067 2.2093 -3.68087 0
M  V30 2903 C 279.3 3.44869 -4.0731 0
M  V30 2904 O 279.523 4.52972 -3.46659 0
M  V30 2905 O 278.457 3.34661 -5.00285 0
M  V30 2906 H 282.283 0.761881 -2.93988 0
M  V30 2907 H 279.868 0.310818 -1.46131 0
M  V30 2908 H 281.75 3.20609 -2.73473 0
M  V30 2909 H 280.425 2.81038 -1.60621 0
M  V30 2910 H 279.332 1.42081 -3.46069 0
M  V30 2911 H 280.665 1.88755 -4.54568 0
M  V30 2912 N 282.317 1.53212 0.369288 0
M  V30 2913 C 283.227 1.82342 1.47609 0
M  V30 2914 C 284.243 0.711532 1.58787 0
M  V30 2915 O 285.419 1.0012 1.74751 0
M  V30 2916 C 282.484 2.00393 2.8292 0
M  V30 2917 C 281.545 3.24297 2.81301 0
M  V30 2918 C 280.778 3.41478 4.10157 0
M  V30 2919 O 281.001 2.63033 5.06132 0
M  V30 2920 O 279.935 4.34817 4.16194 0
M  V30 2921 H 283.761 2.76366 1.25918 0
M  V30 2922 H 281.346 1.38547 0.559034 0
M  V30 2923 H 283.228 2.13859 3.63101 0
M  V30 2924 H 281.903 1.09559 3.04596 0
M  V30 2925 H 280.81 3.16257 1.99831 0
M  V30 2926 H 282.143 4.15041 2.64578 0
M  V30 2927 N 283.795 -0.628877 1.44509 0
M  V30 2928 C 284.705 -1.7694 1.54044 0
M  V30 2929 C 285.721 -1.68705 0.425987 0
M  V30 2930 O 286.897 -1.89442 0.683656 0
M  V30 2931 C 283.962 -3.13332 1.48405 0
M  V30 2932 C 283.023 -3.33181 2.70719 0
M  V30 2933 C 282.256 -4.63067 2.6534 0
M  V30 2934 O 282.479 -5.44017 1.71469 0
M  V30 2935 O 281.413 -4.85167 3.56226 0
M  V30 2936 H 285.239 -1.71848 2.50403 0
M  V30 2937 H 282.824 -0.790378 1.26781 0
M  V30 2938 H 284.706 -3.94634 1.47791 0
M  V30 2939 H 283.381 -3.1896 0.551898 0
M  V30 2940 H 282.288 -2.51549 2.769 0
M  V30 2941 H 283.621 -3.32416 3.62988 0
M  V30 2942 N 285.273 -1.31445 -0.869486 0
M  V30 2943 C 286.236 -1.19094 -1.9583 0
M  V30 2944 C 287.236 -0.117906 -1.60367 0
M  V30 2945 O 288.426 -0.367208 -1.70286 0
M  V30 2946 C 285.558 -0.828165 -3.30688 0
M  V30 2947 H 286.751 -2.15842 -2.08212 0
M  V30 2948 H 284.304 -1.15063 -1.05784 0
M  V30 2949 H 285.039 0.138142 -3.24006 0
M  V30 2950 H 284.824 -1.6038 -3.578 0
M  V30 2951 H 286.314 -0.765658 -4.10521 0
M  V30 2952 N 286.751 1.08385 -1.14413 0
M  V30 2953 C 287.997 1.81044 -0.913834 0
M  V30 2954 C 288.33 1.86004 0.558209 0
M  V30 2955 O 287.605 1.33606 1.4135 0
M  V30 2956 C 287.888 3.26648 -1.51569 0
M  V30 2957 C 287.741 3.29895 -3.0576 0
M  V30 2958 C 289.06 4.23629 -1.19273 0
M  V30 2959 H 286.179 0.65727 -0.333414 0
M  V30 2960 H 288.821 1.26896 -1.41412 0
M  V30 2961 H 286.971 3.72889 -1.09023 0
M  V30 2962 H 288.643 2.91977 -3.57137 0
M  V30 2963 H 286.886 2.69163 -3.40197 0
M  V30 2964 H 287.557 4.32516 -3.42977 0
M  V30 2965 H 290.033 3.85727 -1.56057 0
M  V30 2966 H 288.909 5.23822 -1.64017 0
M  V30 2967 H 289.17 4.41968 -0.108068 0
M  V30 2968 N 288.23 0.939286 1.26551 0
M  V30 2969 C 289.458 0.602536 1.97932 0
M  V30 2970 C 289.873 -0.82206 1.69964 0
M  V30 2971 O 289.23 -1.54789 0.966784 0
M  V30 2972 C 289.281 0.832946 3.51773 0
M  V30 2973 O 289.002 2.20151 3.78768 0
M  V30 2974 C 290.503 0.506483 4.40397 0
M  V30 2975 H 287.723 0.227248 0.631347 0
M  V30 2976 H 290.267 1.25948 1.61113 0
M  V30 2977 H 288.422 0.222644 3.8676 0
M  V30 2978 H 288.836 2.26013 4.73306 0
M  V30 2979 H 290.31 0.718333 5.47306 0
M  V30 2980 H 290.787 -0.558451 4.35635 0
M  V30 2981 H 291.393 1.09543 4.10951 0
M  V30 2982 N 289.708 -1.40897 0.706093 0
M  V30 2983 C 290.957 -2.00284 0.238574 0
M  V30 2984 C 291.27 -1.56604 -1.17194 0
M  V30 2985 O 292.476 -2.08624 -1.73748 0
M  V30 2986 C 290.932 -3.57934 0.375623 0
M  V30 2987 C 290.54 -4.10591 1.79217 0
M  V30 2988 C 292.284 -4.24488 -0.0315857 0
M  V30 2989 C 290.191 -5.60712 1.88032 0
M  V30 2990 H 289.121 -0.749144 0.0854398 0
M  V30 2991 H 291.772 -1.61251 0.875813 0
M  V30 2992 H 290.154 -3.94622 -0.330042 0
M  V30 2993 H 291.328 -3.85301 2.52745 0
M  V30 2994 H 289.643 -3.56601 2.15 0
M  V30 2995 H 292.24 -5.34698 0.0136842 0
M  V30 2996 H 292.583 -4.02261 -1.072 0
M  V30 2997 H 293.116 -3.92873 0.624181 0
M  V30 2998 H 289.855 -5.87781 2.90161 0
M  V30 2999 H 289.375 -5.87896 1.18903 0
M  V30 3000 H 291.054 -6.25658 1.64805 0
M  V30 3001 N 291.186 -0.45159 -1.50991 0
M  V30 3002 C 292.096 0.358431 -2.31846 0
M  V30 3003 C 293.112 1.01438 -1.41373 0
M  V30 3004 O 294.288 1.00663 -1.74439 0
M  V30 3005 C 291.353 1.43704 -3.15515 0
M  V30 3006 C 290.414 0.799742 -4.21785 0
M  V30 3007 C 289.647 1.82696 -5.01456 0
M  V30 3008 O 289.87 3.05105 -4.81941 0
M  V30 3009 O 288.804 1.40958 -5.85162 0
M  V30 3010 H 292.63 -0.302032 -3.02194 0
M  V30 3011 H 290.215 -0.213825 -1.47862 0
M  V30 3012 H 292.097 2.06227 -3.67489 0
M  V30 3013 H 290.772 2.08133 -2.47916 0
M  V30 3014 H 289.679 0.136084 -3.73852 0
M  V30 3015 H 291.012 0.198718 -4.91799 0
M  V30 3016 N 292.664 1.56529 -0.183458 0
M  V30 3017 C 293.597 2.14417 0.781052 0
M  V30 3018 C 294.575 1.07761 1.21763 0
M  V30 3019 O 295.759 1.35807 1.30724 0
M  V30 3020 C 292.886 2.69361 2.05335 0
M  V30 3021 C 291.932 3.885 1.75982 0
M  V30 3022 S 292.765 5.27568 0.918256 0
M  V30 3023 C 293.921 5.85926 2.20095 0
M  V30 3024 H 294.154 2.95893 0.2889 0
M  V30 3025 H 291.687 1.54368 0.0313844 0
M  V30 3026 H 293.645 3.01662 2.78406 0
M  V30 3027 H 292.306 1.87949 2.51663 0
M  V30 3028 H 291.499 4.25314 2.70415 0
M  V30 3029 H 291.101 3.57149 1.10999 0
M  V30 3030 H 293.393 5.99579 3.15453 0
M  V30 3031 H 294.336 6.82761 1.87731 0
M  V30 3032 H 294.744 5.14438 2.32409 0
M  V30 3033 N 294.142 -0.090211 1.57342 0
M  V30 3034 C 295.09 -1.12792 2.03422 0
M  V30 3035 C 296.084 -1.41182 0.936166 0
M  V30 3036 O 297.29 -1.40805 1.12133 0
M  V30 3037 H 293.665 -0.380986 0.648347 0
M  V30 3038 H 295.636 -0.71299 2.89757 0
M  V30 3039 C 294.385 -2.43855 2.47851 0
M  V30 3040 H 293.708 -2.22855 3.31927 0
M  V30 3041 H 295.148 -3.14955 2.83865 0
M  V30 3042 C 293.607 -3.08503 1.3538 0
M  V30 3043 O 294.137 -3.95805 0.685641 0
M  V30 3044 N 292.343 -2.68831 1.10355 0
M  V30 3045 H 291.89 -1.97929 1.64869 0
M  V30 3046 H 291.848 -3.12412 0.353031 0
M  V30 3047 N 295.62 -1.53406 -0.361157 0
M  V30 3048 C 296.53 -1.83122 -1.4664 0
M  V30 3049 C 297.546 -0.719943 -1.58407 0
M  V30 3050 O 298.722 -1.01046 -1.74218 0
M  V30 3051 C 295.787 -2.01891 -2.81853 0
M  V30 3052 C 294.848 -3.25784 -2.79577 0
M  V30 3053 C 294.081 -3.43648 -4.0834 0
M  V30 3054 O 294.304 -2.65714 -5.0473 0
M  V30 3055 O 293.238 -4.37018 -4.13883 0
M  V30 3056 H 297.064 -2.7703 -1.24451 0
M  V30 3057 H 294.649 -1.38841 -0.551678 0
M  V30 3058 H 296.531 -2.15782 -3.61962 0
M  V30 3059 H 295.206 -1.11173 -3.0401 0
M  V30 3060 H 294.113 -3.17312 -1.98151 0
M  V30 3061 H 295.446 -4.16439 -2.62373 0
M  V30 3062 N 297.098 0.621204 -1.44841 0
M  V30 3063 C 298.509 1.20298 -1.42777 0
M  V30 3064 C 298.86 1.95639 -0.148259 0
M  V30 3065 O 297.985 2.02955 0.750892 0
M  V30 3066 C 298.58 2.1882 -2.58657 0
M  V30 3067 C 297.139 2.72403 -2.59756 0
M  V30 3068 C 296.286 1.4757 -2.34773 0
M  V30 3069 H 299.237 0.411297 -1.53278 0
M  V30 3070 H 299.258 3.01607 -2.31977 0
M  V30 3071 H 298.77 1.63957 -3.51766 0
M  V30 3072 H 296.871 3.31242 -1.70615 0
M  V30 3073 H 296.984 3.17765 -3.58556 0
M  V30 3074 H 295.348 1.76051 -1.8406 0
M  V30 3075 H 296.131 0.945954 -3.3001 0
M  V30 3076 N 298.576 1.31904 0.862503 0
M  V30 3077 C 299.822 1.22197 1.61851 0
M  V30 3078 C 300.155 -0.217641 1.92977 0
M  V30 3079 O 299.43 -1.15264 1.56666 0
M  V30 3080 C 299.713 2.07378 2.94391 0
M  V30 3081 C 299.566 3.59678 2.70096 0
M  V30 3082 C 300.885 1.92891 3.95577 0
M  V30 3083 H 298.004 0.445255 0.587296 0
M  V30 3084 H 300.646 1.6177 0.99651 0
M  V30 3085 H 298.796 1.73758 3.47477 0
M  V30 3086 H 300.468 4.03472 2.23625 0
M  V30 3087 H 298.711 3.82735 2.04197 0
M  V30 3088 H 299.382 4.14595 3.64438 0
M  V30 3089 H 301.858 2.22327 3.51724 0
M  V30 3090 H 300.734 2.54781 4.86187 0
M  V30 3091 H 300.995 0.894315 4.3296 0
M  V30 3092 N 300.054 -1.07777 1.14986 0
M  V30 3093 C 300.986 -2.14769 0.800436 0
M  V30 3094 C 301.999 -1.61739 -0.185595 0
M  V30 3095 O 303.188 -1.78462 0.0370358 0
M  V30 3096 C 300.288 -3.38481 0.168533 0
M  V30 3097 C 299.461 -4.20876 1.1909 0
M  V30 3098 C 298.52 -5.22976 0.581575 0
M  V30 3099 O 297.546 -5.55388 1.24633 0
M  V30 3100 N 298.748 -5.76976 -0.638706 0
M  V30 3101 H 301.513 -2.45348 1.72118 0
M  V30 3102 H 299.074 -1.23645 1.04515 0
M  V30 3103 H 301.066 -4.03916 -0.251764 0
M  V30 3104 H 299.636 -3.05651 -0.655467 0
M  V30 3105 H 298.856 -3.51322 1.78791 0
M  V30 3106 H 300.144 -4.7274 1.88133 0
M  V30 3107 H 299.542 -5.52886 -1.19723 0
M  V30 3108 H 298.099 -6.44061 -1.00142 0
M  V30 3109 N 301.532 -0.945985 -1.26051 0
M  V30 3110 C 302.462 -0.477172 -2.28572 0
M  V30 3111 C 303.443 0.472032 -1.63419 0
M  V30 3112 O 304.628 0.372853 -1.90587 0
M  V30 3113 C 301.758 0.253975 -3.4637 0
M  V30 3114 C 300.712 -0.609135 -4.23643 0
M  V30 3115 C 300.038 0.252252 -5.34105 0
M  V30 3116 C 301.338 -1.8829 -4.8718 0
M  V30 3117 H 303.032 -1.33402 -2.68038 0
M  V30 3118 H 300.578 -0.642904 -1.28852 0
M  V30 3119 H 302.531 0.593016 -4.17207 0
M  V30 3120 H 301.255 1.145 -3.05871 0
M  V30 3121 H 299.914 -0.931138 -3.54578 0
M  V30 3122 H 299.562 1.14278 -4.89846 0
M  V30 3123 H 299.262 -0.32188 -5.86718 0
M  V30 3124 H 300.786 0.586454 -6.07777 0
M  V30 3125 H 302.2 -1.61081 -5.50205 0
M  V30 3126 H 300.597 -2.40199 -5.49931 0
M  V30 3127 H 301.667 -2.59134 -4.09851 0
M  V30 3128 N 303.011 1.40521 -0.713556 0
M  V30 3129 C 304.239 2.05237 -0.261775 0
M  V30 3130 C 304.654 1.53755 1.09567 0
M  V30 3131 O 304.011 0.693268 1.6882 0
M  V30 3132 C 304.062 3.60763 -0.230706 0
M  V30 3133 O 303.783 4.10345 -1.53455 0
M  V30 3134 C 305.284 4.42651 0.239874 0
M  V30 3135 H 302.504 0.660533 -0.118057 0
M  V30 3136 H 305.048 1.79967 -0.971192 0
M  V30 3137 H 303.203 3.8501 0.429661 0
M  V30 3138 H 303.617 5.04526 -1.43366 0
M  V30 3139 H 305.091 5.51599 0.210468 0
M  V30 3140 H 305.568 4.20082 1.28171 0
M  V30 3141 H 306.174 4.23507 -0.390142 0
M  V30 3142 N 304.489 0.459591 1.5075 0
M  V30 3143 C 305.736 -0.0993495 2.02256 0
M  V30 3144 C 306.064 -1.40751 1.34237 0
M  V30 3145 O 305.319 -1.90379 0.453228 0
M  V30 3146 C 305.618 -0.342866 3.55752 0
M  V30 3147 C 305.284 0.88218 4.42186 0
M  V30 3148 C 303.946 1.21808 4.65528 0
M  V30 3149 C 306.298 1.69837 4.92752 0
M  V30 3150 C 303.626 2.37045 5.36681 0
M  V30 3151 C 305.978 2.84192 5.65171 0
M  V30 3152 C 304.642 3.1821 5.8677 0
M  V30 3153 H 303.912 -0.0363545 0.740108 0
M  V30 3154 H 306.559 0.611329 1.8148 0
M  V30 3155 H 304.864 -1.13567 3.7498 0
M  V30 3156 H 306.561 -0.789121 3.93159 0
M  V30 3157 H 303.151 0.610467 4.2423 0
M  V30 3158 H 307.335 1.45205 4.74583 0
M  V30 3159 H 302.591 2.63689 5.51614 0
M  V30 3160 H 306.765 3.4779 6.03337 0
M  V30 3161 H 304.392 4.07613 6.41682 0
M  V30 3162 N 305.967 -1.56429 0.191757 0
M  V30 3163 C 306.93 -2.17707 -0.716688 0
M  V30 3164 C 307.93 -1.13061 -1.14341 0
M  V30 3165 O 309.12 -1.38464 -1.05704 0
M  V30 3166 C 306.252 -2.77644 -1.97804 0
M  V30 3167 H 307.445 -2.99342 -0.1829 0
M  V30 3168 H 304.998 -1.56193 -0.0578566 0
M  V30 3169 H 305.733 -1.99799 -2.55443 0
M  V30 3170 H 305.518 -3.54246 -1.68083 0
M  V30 3171 H 307.008 -3.24708 -2.62592 0
M  V30 3172 N 307.445 0.0818655 -1.57387 0
M  V30 3173 C 308.375 1.09885 -2.06028 0
M  V30 3174 C 309.356 1.4098 -0.951774 0
M  V30 3175 O 310.541 1.50781 -1.22387 0
M  V30 3176 C 307.671 2.4151 -2.4958 0
M  V30 3177 C 306.625 2.24792 -3.64215 0
M  V30 3178 C 305.951 3.61712 -3.93787 0
M  V30 3179 C 307.251 1.67749 -4.94629 0
M  V30 3180 H 308.945 0.694128 -2.91243 0
M  V30 3181 H 306.491 0.332448 -1.4011 0
M  V30 3182 H 308.444 3.12939 -2.82219 0
M  V30 3183 H 307.168 2.83943 -1.61381 0
M  V30 3184 H 305.827 1.55807 -3.31843 0
M  V30 3185 H 305.475 4.01697 -3.02735 0
M  V30 3186 H 305.175 3.51368 -4.70971 0
M  V30 3187 H 306.699 4.34587 -4.28913 0
M  V30 3188 H 308.113 2.29032 -5.25564 0
M  V30 3189 H 306.51 1.68128 -5.76067 0
M  V30 3190 H 307.58 0.638059 -4.80684 0
M  V30 3191 N 308.923 1.53595 0.353017 0
M  V30 3192 C 310.339 1.43648 0.695516 0
M  V30 3193 C 310.539 0.585617 1.92802 0
M  V30 3194 O 309.595 0.0729223 2.52395 0
M  V30 3195 C 310.908 2.8701 0.896991 0
M  V30 3196 C 312.456 2.96723 0.996209 0
M  V30 3197 C 312.931 4.41173 1.23007 0
M  V30 3198 N 314.422 4.44657 1.29749 0
M  V30 3199 C 315.157 5.53547 1.49577 0
M  V30 3200 N 314.653 6.72461 1.66639 0
M  V30 3201 N 316.446 5.41145 1.52048 0
M  V30 3202 H 308.597 2.07415 -0.457481 0
M  V30 3203 H 310.86 0.9372 -0.142687 0
M  V30 3204 H 310.566 3.51644 0.0629938 0
M  V30 3205 H 310.44 3.31401 1.80148 0
M  V30 3206 H 312.827 2.32235 1.82074 0
M  V30 3207 H 312.908 2.55707 0.0688331 0
M  V30 3208 H 312.552 5.06238 0.410505 0
M  V30 3209 H 312.482 4.79772 2.17086 0
M  V30 3210 H 314.973 3.58963 1.18126 0
M  V30 3211 H 315.286 7.51214 1.81378 0
M  V30 3212 H 313.631 6.75423 1.63794 0
M  V30 3213 H 316.822 4.47205 1.38294 0
M  V30 3214 H 316.995 6.26068 1.67159 0
M  V30 3215 N 310.401 -0.613514 1.45168 0
M  V30 3216 C 311.631 -1.39743 1.52169 0
M  V30 3217 C 312.039 -1.88596 0.151086 0
M  V30 3218 O 311.382 -1.6251 -0.856521 0
M  V30 3219 C 311.444 -2.64035 2.43979 0
M  V30 3220 C 311.108 -2.36861 3.90827 0
M  V30 3221 C 312.105 -1.97591 4.80889 0
M  V30 3222 C 309.79 -2.49956 4.35692 0
M  V30 3223 C 311.784 -1.71768 6.1382 0
M  V30 3224 C 309.471 -2.23747 5.68665 0
M  V30 3225 C 310.469 -1.84714 6.57548 0
M  V30 3226 O 310.157 -1.58809 7.88058 0
M  V30 3227 H 309.889 -0.434382 0.517966 0
M  V30 3228 H 312.443 -0.75587 1.90986 0
M  V30 3229 H 310.673 -3.3089 2.00122 0
M  V30 3230 H 312.362 -3.26069 2.41731 0
M  V30 3231 H 313.128 -1.87015 4.47493 0
M  V30 3232 H 309.007 -2.79305 3.66756 0
M  V30 3233 H 312.551 -1.41227 6.83155 0
M  V30 3234 H 308.448 -2.33938 6.01617 0
M  V30 3235 H 309.216 -1.7291 8.00028 0
M  V30 3236 N 311.879 -1.3236 -0.855495 0
M  V30 3237 C 312.809 -1.23833 -1.97958 0
M  V30 3238 C 313.79 -0.122361 -1.69659 0
M  V30 3239 O 314.975 -0.30939 -1.9172 0
M  V30 3240 C 312.105 -0.959772 -3.33775 0
M  V30 3241 C 311.059 -2.03689 -3.76424 0
M  V30 3242 C 310.385 -1.61075 -5.09862 0
M  V30 3243 C 311.685 -3.4518 -3.9198 0
M  V30 3244 H 313.379 -2.1788 -2.0535 0
M  V30 3245 H 310.925 -1.04891 -0.986605 0
M  V30 3246 H 312.878 -0.886678 -4.11966 0
M  V30 3247 H 311.602 0.0163404 -3.26596 0
M  V30 3248 H 310.261 -2.10012 -3.00484 0
M  V30 3249 H 309.909 -0.622107 -4.99138 0
M  V30 3250 H 309.609 -2.33143 -5.39368 0
M  V30 3251 H 311.133 -1.55201 -5.90546 0
M  V30 3252 H 312.547 -3.4145 -4.60526 0
M  V30 3253 H 310.944 -4.1559 -4.32903 0
M  V30 3254 H 312.014 -3.84903 -2.94919 0
M  V30 3255 N 313.357 1.07166 -1.15556 0
M  V30 3256 C 314.305 2.16517 -0.8499 0
M  V30 3257 C 315.299 1.68468 0.177454 0
M  V30 3258 O 316.505 1.79971 0.0323026 0
M  V30 3259 H 312.88 0.706652 -0.25719 0
M  V30 3260 H 314.851 2.39514 -1.77976 0
M  V30 3261 C 313.6 3.45855 -0.357682 0
M  V30 3262 H 312.923 3.83214 -1.13961 0
M  V30 3263 H 314.363 4.23607 -0.182489 0
M  V30 3264 C 312.822 3.24062 0.921152 0
M  V30 3265 O 313.352 3.48813 1.9923 0
M  V30 3266 N 311.558 2.77539 0.86141 0
M  V30 3267 H 311.105 2.57598 -0.0104408 0
M  V30 3268 H 311.063 2.63337 1.71758 0
M  V30 3269 N 314.835 0.952656 1.25548 0
M  V30 3270 C 316.082 0.606373 1.93208 0
M  V30 3271 C 316.41 -0.85631 1.74636 0
M  V30 3272 O 315.665 -1.62951 1.08376 0
M  V30 3273 C 315.964 0.908818 3.45652 0
M  V30 3274 C 315.63 2.35722 3.84378 0
M  V30 3275 C 314.292 2.75312 3.9466 0
M  V30 3276 C 316.644 3.29793 4.03591 0
M  V30 3277 C 313.972 4.08047 4.21562 0
M  V30 3278 C 316.324 4.62138 4.31985 0
M  V30 3279 C 314.988 5.01528 4.40484 0
M  V30 3280 H 314.258 0.221888 0.706998 0
M  V30 3281 H 316.905 1.20132 1.49133 0
M  V30 3282 H 315.21 0.231456 3.91116 0
M  V30 3283 H 316.907 0.619498 3.96186 0
M  V30 3284 H 313.497 2.04017 3.76928 0
M  V30 3285 H 317.681 3.00397 3.95064 0
M  V30 3286 H 312.937 4.38212 4.26357 0
M  V30 3287 H 317.111 5.35012 4.45797 0
M  V30 3288 H 314.738 6.04406 4.61083 0
M  V30 3289 N 316.313 -1.40141 0.720998 0
M  V30 3290 C 317.56 -2.00787 0.262842 0
M  V30 3291 C 317.888 -1.5718 -1.14563 0
M  V30 3292 O 317.143 -0.785391 -1.79249 0
M  V30 3293 C 317.442 -3.56165 0.296892 0
M  V30 3294 C 317.108 -4.19373 1.65641 0
M  V30 3295 C 315.77 -4.36352 2.02855 0
M  V30 3296 C 318.122 -4.54578 2.54968 0
M  V30 3297 C 315.45 -4.8582 3.28931 0
M  V30 3298 C 317.802 -5.05447 3.80402 0
M  V30 3299 C 316.466 -5.20635 4.17726 0
M  V30 3300 H 315.736 -0.734731 0.0961807 0
M  V30 3301 H 318.383 -1.67673 0.925093 0
M  V30 3302 H 316.688 -3.8922 -0.448932 0
M  V30 3303 H 318.385 -4.00929 -0.0755208 0
M  V30 3304 H 314.975 -4.06549 1.35704 0
M  V30 3305 H 319.159 -4.41091 2.27491 0
M  V30 3306 H 314.415 -4.95764 3.57811 0
M  V30 3307 H 318.589 -5.31663 4.49786 0
M  V30 3308 H 316.216 -5.58728 5.15487 0
M  V30 3309 N 317.792 -0.46758 -1.50504 0
M  V30 3310 C 319.02 0.0864133 -2.06719 0
M  V30 3311 C 319.435 1.33819 -1.33184 0
M  V30 3312 O 318.792 1.78061 -0.400083 0
M  V30 3313 C 318.843 0.378079 -3.59517 0
M  V30 3314 O 318.564 -0.824044 -4.3028 0
M  V30 3315 C 320.065 0.979426 -4.32345 0
M  V30 3316 H 317.285 -0.00551697 -0.670977 0
M  V30 3317 H 319.829 -0.655354 -1.93715 0
M  V30 3318 H 317.984 1.06977 -3.72337 0
M  V30 3319 H 318.398 -0.566518 -5.21432 0
M  V30 3320 H 319.872 1.1333 -5.40241 0
M  V30 3321 H 320.349 1.9686 -3.9261 0
M  V30 3322 H 320.955 0.326216 -4.24047 0
M  V30 3323 N 319.27 1.56325 -0.20005 0
M  V30 3324 C 320.217 2.1932 0.718833 0
M  V30 3325 C 321.187 1.14198 1.20615 0
M  V30 3326 O 322.372 1.42469 1.26914 0
M  V30 3327 C 319.512 2.86041 1.93066 0
M  V30 3328 C 318.625 4.05702 1.48425 0
M  V30 3329 C 317.76 4.60266 2.65196 0
M  V30 3330 C 316.799 5.72273 2.17185 0
M  V30 3331 N 315.936 6.21221 3.27152 0
M  V30 3332 H 320.776 2.97486 0.17489 0
M  V30 3333 H 318.313 1.46911 0.0745794 0
M  V30 3334 H 320.271 3.22897 2.64184 0
M  V30 3335 H 318.901 2.1043 2.44783 0
M  V30 3336 H 317.953 3.74475 0.668755 0
M  V30 3337 H 319.265 4.86699 1.09204 0
M  V30 3338 H 318.419 4.99453 3.4443 0
M  V30 3339 H 317.158 3.78386 3.07693 0
M  V30 3340 H 316.163 5.3261 1.36407 0
M  V30 3341 H 317.388 6.55974 1.75713 0
M  V30 3342 H 315.334 5.42263 3.69171 0
M  V30 3343 H 315.251 6.97284 2.92116 0
M  V30 3344 H 316.519 6.65063 4.06585 0
M  V30 3345 N 320.748 -0.0735177 1.57428 0
M  V30 3346 C 321.711 -1.07192 2.02589 0
M  V30 3347 C 322.711 -1.31695 0.922661 0
M  V30 3348 O 323.901 -1.27445 1.18758 0
M  V30 3349 C 321.033 -2.41599 2.40506 0
M  V30 3350 H 322.226 -0.682727 2.92025 0
M  V30 3351 H 319.779 -0.319193 1.53006 0
M  V30 3352 H 320.514 -2.85354 1.5409 0
M  V30 3353 H 320.299 -2.25156 3.21009 0
M  V30 3354 H 321.789 -3.13367 2.76027 0
M  V30 3355 N 322.226 -1.5378 -0.344866 0
M  V30 3356 C 323.454 -1.74899 -1.10534 0
M  V30 3357 C 323.869 -0.487534 -1.82397 0
M  V30 3358 O 323.226 0.540741 -1.74305 0
M  V30 3359 C 323.277 -2.92822 -2.11984 0
M  V30 3360 O 322.998 -4.14089 -1.43044 0
M  V30 3361 C 324.499 -3.25982 -3.00417 0
M  V30 3362 H 321.719 -0.584426 -0.329678 0
M  V30 3363 H 324.263 -2.006 -0.397474 0
M  V30 3364 H 322.418 -2.69457 -2.78338 0
M  V30 3365 H 322.832 -4.80272 -2.10805 0
M  V30 3366 H 324.306 -4.11848 -3.67539 0
M  V30 3367 H 324.783 -2.42228 -3.66363 0
M  V30 3368 H 325.389 -3.51349 -2.39654 0
M  V30 3369 N 323.704 0.605807 -1.45491 0
M  V30 3370 C 325.115 1.18777 -1.44045 0
M  V30 3371 C 325.466 1.95471 -0.169001 0
M  V30 3372 O 324.591 2.0374 0.729324 0
M  V30 3373 C 325.186 2.16064 -2.60963 0
M  V30 3374 C 323.745 2.69633 -2.62631 0
M  V30 3375 C 322.892 1.45072 -2.36325 0
M  V30 3376 H 325.843 0.395017 -1.53705 0
M  V30 3377 H 325.864 2.9913 -2.35163 0
M  V30 3378 H 325.376 1.60217 -3.53486 0
M  V30 3379 H 323.477 3.29414 -1.74119 0
M  V30 3380 H 323.59 3.13944 -3.61906 0
M  V30 3381 H 321.954 1.74089 -1.85917 0
M  V30 3382 H 322.737 0.910899 -3.30995 0
M  V30 3383 N 325.182 1.32811 0.848464 0
M  V30 3384 C 326.112 1.24882 1.97299 0
M  V30 3385 C 327.093 0.131357 1.69592 0
M  V30 3386 O 328.278 0.319553 1.91553 0
M  V30 3387 C 325.408 0.97746 3.33261 0
M  V30 3388 C 324.362 2.05682 3.75338 0
M  V30 3389 C 323.688 1.63777 5.09 0
M  V30 3390 C 324.988 3.47254 3.90144 0
M  V30 3391 H 326.682 2.18966 2.04191 0
M  V30 3392 H 324.228 1.05413 0.981029 0
M  V30 3393 H 326.181 0.908513 4.1149 0
M  V30 3394 H 324.905 0.000980011 3.266 0
M  V30 3395 H 323.564 2.11603 2.99366 0
M  V30 3396 H 323.212 0.648569 4.98801 0
M  V30 3397 H 322.912 2.36 5.38124 0
M  V30 3398 H 324.436 1.5833 5.89715 0
M  V30 3399 H 325.85 3.43888 4.58709 0
M  V30 3400 H 324.247 4.1788 4.30693 0
M  V30 3401 H 325.317 3.86462 2.92874 0
M  V30 3402 N 326.66 -1.06551 1.16123 0
M  V30 3403 C 327.885 -1.83544 0.965735 0
M  V30 3404 C 328.31 -1.81843 -0.481102 0
M  V30 3405 O 327.668 -1.21732 -1.34354 0
M  V30 3406 C 327.716 -3.28169 1.49457 0
M  V30 3407 O 326.82 -4.0643 0.699157 0
M  V30 3408 H 326.161 -0.568026 0.343864 0
M  V30 3409 H 328.691 -1.34362 1.54299 0
M  V30 3410 H 328.701 -3.78992 1.51092 0
M  V30 3411 H 327.376 -3.28722 2.54784 0
M  V30 3412 H 325.953 -3.65216 0.7531 0
M  V30 3413 N 328.138 -0.959301 -1.25041 0
M  V30 3414 C 329.363 -0.633507 -1.97488 0
M  V30 3415 C 329.788 0.788555 -1.70773 0
M  V30 3416 O 329.146 1.53394 -0.966431 0
M  V30 3417 C 329.194 -0.904057 -3.49083 0
M  V30 3418 O 328.298 0.0147939 -4.12397 0
M  V30 3419 H 327.639 -0.240368 -0.618966 0
M  V30 3420 H 330.169 -1.28717 -1.59038 0
M  V30 3421 H 330.179 -0.832203 -3.99423 0
M  V30 3422 H 328.854 -1.94048 -3.67856 0
M  V30 3423 H 327.431 -0.109664 -3.72739 0
M  V30 3424 N 329.616 1.39756 -0.72842 0
M  V30 3425 C 330.844 2.04948 -0.283528 0
M  V30 3426 C 331.259 1.54908 1.0793 0
M  V30 3427 O 330.616 0.711135 1.68075 0
M  V30 3428 C 330.667 3.60498 -0.268957 0
M  V30 3429 O 330.388 4.08695 -1.57798 0
M  V30 3430 C 331.889 4.4288 0.192912 0
M  V30 3431 H 329.109 0.659243 -0.125056 0
M  V30 3432 H 331.653 1.78927 -0.990226 0
M  V30 3433 H 329.808 3.85444 0.388801 0
M  V30 3434 H 330.222 5.02977 -1.48709 0
M  V30 3435 H 331.696 5.51791 0.151952 0
M  V30 3436 H 332.173 4.21418 1.23708 0
M  V30 3437 H 332.779 4.23069 -0.435039 0
M  V30 3438 N 331.094 0.475555 1.50254 0
M  V30 3439 C 332.34 -0.0780073 2.0265 0
M  V30 3440 C 332.673 -1.38968 1.35652 0
M  V30 3441 O 331.948 -1.8839 0.483691 0
M  V30 3442 C 332.231 -0.257161 3.59181 0
M  V30 3443 C 332.084 1.07585 4.36744 0
M  V30 3444 C 333.403 -1.00965 4.28362 0
M  V30 3445 H 330.522 -0.0268758 0.73651 0
M  V30 3446 H 333.164 0.622015 1.7953 0
M  V30 3447 H 331.314 -0.853412 3.79011 0
M  V30 3448 H 332.986 1.70902 4.28474 0
M  V30 3449 H 331.229 1.6714 4.00308 0
M  V30 3450 H 331.9 0.904088 5.44546 0
M  V30 3451 H 334.376 -0.504214 4.13034 0
M  V30 3452 H 333.252 -1.10381 5.37687 0
M  V30 3453 H 333.513 -2.04731 3.91839 0
M  V30 3454 N 332.573 -1.56217 0.208337 0
M  V30 3455 C 333.801 -2.02337 -0.43215 0
M  V30 3456 C 334.216 -1.08834 -1.54275 0
M  V30 3457 O 333.573 -0.0955462 -1.8225 0
M  V30 3458 C 333.624 -3.48072 -0.976138 0
M  V30 3459 O 333.345 -4.38007 0.0901621 0
M  V30 3460 C 334.846 -4.09773 -1.69119 0
M  V30 3461 H 332.066 -0.662385 -0.10718 0
M  V30 3462 H 334.61 -2.01966 0.320923 0
M  V30 3463 H 332.765 -3.49099 -1.67954 0
M  V30 3464 H 333.179 -5.23543 -0.316701 0
M  V30 3465 H 334.653 -5.13556 -2.02397 0
M  V30 3466 H 335.13 -3.53999 -2.59964 0
M  V30 3467 H 335.736 -4.12556 -1.03332 0
M  V30 3468 N 334.051 0.0651679 -1.57465 0
M  V30 3469 C 334.981 1.07693 -2.07182 0
M  V30 3470 C 335.962 1.39962 -0.966673 0
M  V30 3471 O 337.147 1.49475 -1.2398 0
M  V30 3472 C 334.277 2.3885 -2.52127 0
M  V30 3473 C 333.231 2.20917 -3.66579 0
M  V30 3474 C 332.557 3.57515 -3.97601 0
M  V30 3475 C 333.857 1.62493 -4.9638 0
M  V30 3476 H 335.551 0.663199 -2.91962 0
M  V30 3477 H 333.097 0.317569 -1.40455 0
M  V30 3478 H 335.05 3.09928 -2.85522 0
M  V30 3479 H 333.774 2.82215 -1.64384 0
M  V30 3480 H 332.433 1.52279 -3.33477 0
M  V30 3481 H 332.081 3.98463 -3.06979 0
M  V30 3482 H 331.781 3.46353 -4.74672 0
M  V30 3483 H 333.305 4.30013 -4.33499 0
M  V30 3484 H 334.719 2.23445 -5.27963 0
M  V30 3485 H 333.116 1.62009 -5.77818 0
M  V30 3486 H 334.186 0.587041 -4.81333 0
M  V30 3487 N 335.529 1.53961 0.336706 0
M  V30 3488 C 336.754 1.75797 1.10046 0
M  V30 3489 C 337.179 0.498985 1.81361 0
M  V30 3490 O 336.537 -0.548769 1.72795 0
M  V30 3491 C 336.585 2.94257 2.08436 0
M  V30 3492 O 335.689 2.64883 3.16087 0
M  V30 3493 H 335.03 0.582936 0.317934 0
M  V30 3494 H 337.56 2.00945 0.38501 0
M  V30 3495 H 337.57 3.21237 2.51537 0
M  V30 3496 H 336.245 3.85564 1.55927 0
M  V30 3497 H 334.822 2.48812 2.77753 0
M  V30 3498 N 337.007 -0.598083 1.45811 0
M  V30 3499 C 337.94 -1.7223 1.49706 0
M  V30 3500 C 338.918 -1.58732 0.352535 0
M  V30 3501 O 340.102 -1.80162 0.554438 0
M  V30 3502 C 337.229 -3.10148 1.3611 0
M  V30 3503 C 336.275 -3.42209 2.54549 0
M  V30 3504 S 337.108 -3.35989 4.16979 0
M  V30 3505 C 338.264 -4.76471 4.05865 0
M  V30 3506 H 338.497 -1.68665 2.44826 0
M  V30 3507 H 336.03 -0.775541 1.33509 0
M  V30 3508 H 337.988 -3.8972 1.28953 0
M  V30 3509 H 336.649 -3.11219 0.424451 0
M  V30 3510 H 335.842 -4.42652 2.40988 0
M  V30 3511 H 335.444 -2.70173 2.58617 0
M  V30 3512 H 337.736 -5.665 3.71596 0
M  V30 3513 H 338.679 -4.95089 5.06253 0
M  V30 3514 H 339.087 -4.52599 3.37364 0
M  V30 3515 N 338.485 -1.33259 -0.841409 0
M  V30 3516 C 339.71 -1.2775 -1.63385 0
M  V30 3517 C 340.135 0.149188 -1.87507 0
M  V30 3518 O 339.493 1.10498 -1.43736 0
M  V30 3519 C 339.541 -2.05571 -2.96265 0
M  V30 3520 O 338.645 -1.41257 -3.87453 0
M  V30 3521 H 337.986 -0.439627 -0.497618 0
M  V30 3522 H 340.516 -1.75782 -1.04699 0
M  V30 3523 H 340.526 -2.16241 -3.45982 0
M  V30 3524 H 339.201 -3.09309 -2.7803 0
M  V30 3525 H 337.778 -1.39217 -3.45938 0
M  V30 3526 N 339.963 1.05934 -1.16686 0
M  V30 3527 C 340.926 2.11669 -0.879144 0
M  V30 3528 C 341.926 1.60294 0.127445 0
M  V30 3529 O 343.116 1.7389 -0.103865 0
M  V30 3530 C 340.248 3.39438 -0.315425 0
M  V30 3531 H 341.441 2.38626 -1.81653 0
M  V30 3532 H 338.994 1.22058 -0.976299 0
M  V30 3533 H 339.729 3.18132 0.629468 0
M  V30 3534 H 339.514 3.78034 -1.04079 0
M  V30 3535 H 341.004 4.17391 -0.132189 0
M  V30 3536 N 341.441 0.965919 1.2453 0
M  V30 3537 C 342.718 0.543777 1.87889 0
M  V30 3538 C 343.098 -0.97909 1.87021 0
M  V30 3539 O 342.446 -1.84969 1.3416 0
M  V30 3540 C 342.656 1.13327 3.30088 0
M  V30 3541 C 344.004 1.21707 4.06783 0
M  V30 3542 O 345.028 1.08566 3.39252 0
M  V30 3543 O 343.887 1.42456 5.27606 0
M  V30 3544 H 340.981 0.181054 0.806938 0
M  V30 3545 H 343.527 1.06007 1.32516 0
M  V30 3546 H 342.299 2.17612 3.25209 0
M  V30 3547 H 341.922 0.600911 3.93033 0
M  V30 3548 N 342.919 -1.39368 0.735821 0
M  V30 3549 C 344.165 -2.00794 0.284544 0
M  V30 3550 C 344.498 -1.58255 -1.12557 0
M  V30 3551 O 343.773 -0.811819 -1.76748 0
M  V30 3552 C 344.056 -3.58011 0.387337 0
M  V30 3553 C 343.909 -4.10566 1.83728 0
M  V30 3554 C 345.228 -4.395 -0.22975 0
M  V30 3555 H 342.347 -0.729501 0.104866 0
M  V30 3556 H 344.989 -1.65564 0.93213 0
M  V30 3557 H 343.139 -3.88154 -0.164006 0
M  V30 3558 H 344.811 -3.91139 2.44556 0
M  V30 3559 H 343.054 -3.64095 2.35833 0
M  V30 3560 H 343.725 -5.19702 1.86047 0
M  V30 3561 H 346.201 -4.15406 0.240257 0
M  V30 3562 H 345.077 -5.48752 -0.127485 0
M  V30 3563 H 345.338 -4.22062 -1.3159 0
M  V30 3564 N 344.397 -0.483516 -1.5 0
M  V30 3565 C 345.808 -0.0314176 -1.86674 0
M  V30 3566 C 346.159 1.37728 -1.39733 0
M  V30 3567 O 345.284 2.02327 -0.767635 0
M  V30 3568 C 345.879 -0.0502376 -3.38763 0
M  V30 3569 C 344.438 0.346442 -3.74802 0
M  V30 3570 C 343.585 -0.430366 -2.7394 0
M  V30 3571 H 346.536 -0.697182 -1.42566 0
M  V30 3572 H 346.557 0.749116 -3.73053 0
M  V30 3573 H 346.069 -1.07563 -3.72897 0
M  V30 3574 H 344.17 1.37572 -3.46273 0
M  V30 3575 H 344.283 0.0391486 -4.79084 0
M  V30 3576 H 342.647 0.117557 -2.54429 0
M  V30 3577 H 343.43 -1.4555 -3.10918 0
M  V30 3578 N 345.875 1.56104 -0.216619 0
M  V30 3579 C 346.805 2.23063 0.690296 0
M  V30 3580 C 347.786 1.20072 1.20485 0
M  V30 3581 O 348.971 1.48643 1.24976 0
M  V30 3582 C 346.101 2.90672 1.90072 0
M  V30 3583 C 345.055 4.00092 1.5202 0
M  V30 3584 C 344.381 4.54972 2.80899 0
M  V30 3585 C 345.681 5.17398 0.71391 0
M  V30 3586 H 347.375 2.99109 0.132038 0
M  V30 3587 H 344.921 1.43866 0.0620664 0
M  V30 3588 H 346.874 3.36204 2.54057 0
M  V30 3589 H 345.598 2.12066 2.48386 0
M  V30 3590 H 344.257 3.55283 0.903839 0
M  V30 3591 H 343.905 3.73102 3.37348 0
M  V30 3592 H 343.605 5.28817 2.56176 0
M  V30 3593 H 345.129 5.0322 3.45836 0
M  V30 3594 H 346.543 5.59342 1.25735 0
M  V30 3595 H 344.94 5.97444 0.563951 0
M  V30 3596 H 346.01 4.84088 -0.280527 0
M  V30 3597 N 347.353 -0.0568162 1.57498 0
M  V30 3598 C 348.599 -0.75422 1.88253 0
M  V30 3599 C 348.932 -1.76461 0.810865 0
M  V30 3600 O 348.207 -1.93691 -0.177259 0
M  V30 3601 C 348.49 -1.44878 3.2967 0
M  V30 3602 C 348.343 -0.453789 4.47505 0
M  V30 3603 C 349.662 -2.38994 3.69554 0
M  V30 3604 H 346.781 -0.272724 0.684683 0
M  V30 3605 H 349.423 -0.0172113 1.89992 0
M  V30 3606 H 347.573 -2.077 3.28318 0
M  V30 3607 H 349.245 0.170371 4.60985 0
M  V30 3608 H 347.488 0.229552 4.33192 0
M  V30 3609 H 348.159 -0.977699 5.43273 0
M  V30 3610 H 350.635 -1.86239 3.72095 0
M  V30 3611 H 349.511 -2.84587 4.69363 0
M  V30 3612 H 349.772 -3.24461 3.00296 0
M  V30 3613 N 348.832 -1.54138 -0.328536 0
M  V30 3614 C 350.078 -1.7236 -1.06865 0
M  V30 3615 C 350.411 -0.493231 -1.87832 0
M  V30 3616 O 349.686 0.5098 -1.877 0
M  V30 3617 C 349.969 -2.99621 -1.99747 0
M  V30 3618 C 349.822 -4.32899 -1.22143 0
M  V30 3619 C 351.141 -3.22615 -2.99345 0
M  V30 3620 H 348.26 -0.627151 -0.387105 0
M  V30 3621 H 350.902 -1.86827 -0.345767 0
M  V30 3622 H 349.052 -2.87418 -2.61387 0
M  V30 3623 H 350.724 -4.56978 -0.630017 0
M  V30 3624 H 348.967 -4.30628 -0.523628 0
M  V30 3625 H 349.638 -5.18154 -1.90318 0
M  V30 3626 H 352.114 -3.34248 -2.47826 0
M  V30 3627 H 350.99 -4.13027 -3.61524 0
M  V30 3628 H 351.251 -2.3961 -3.71536 0
M  V30 3629 N 350.31 0.590341 -1.46126 0
M  V30 3630 C 351.22 1.72793 -1.58681 0
M  V30 3631 C 352.236 1.67516 -0.470566 0
M  V30 3632 O 353.412 1.87562 -0.733642 0
M  V30 3633 C 350.477 3.09287 -1.5666 0
M  V30 3634 C 349.538 3.25886 -2.79458 0
M  V30 3635 C 348.771 4.55869 -2.77524 0
M  V30 3636 O 348.994 5.3928 -1.85832 0
M  V30 3637 O 347.928 4.75552 -3.68964 0
M  V30 3638 H 351.754 1.65149 -2.54872 0
M  V30 3639 H 349.339 0.756486 -1.28832 0
M  V30 3640 H 351.221 3.90577 -1.58202 0
M  V30 3641 H 349.896 3.17385 -0.636271 0
M  V30 3642 H 348.803 2.44119 -2.83472 0
M  V30 3643 H 350.136 3.22675 -3.71674 0
M  V30 3644 N 351.788 1.33704 0.83433 0
M  V30 3645 C 353.018 1.28281 1.6195 0
M  V30 3646 C 353.426 -0.147603 1.88623 0
M  V30 3647 O 352.769 -1.1016 1.47005 0
M  V30 3648 C 352.831 1.99386 2.99141 0
M  V30 3649 C 352.495 3.48681 2.95416 0
M  V30 3650 C 353.492 4.438 2.70809 0
M  V30 3651 C 351.177 3.90925 3.15409 0
M  V30 3652 C 353.171 5.79138 2.66229 0
M  V30 3653 C 350.858 5.26366 3.10454 0
M  V30 3654 C 351.856 6.20284 2.85895 0
M  V30 3655 O 351.544 7.53245 2.80852 0
M  V30 3656 H 351.276 0.44315 0.510484 0
M  V30 3657 H 353.83 1.76711 1.04702 0
M  V30 3658 H 352.06 1.45554 3.58261 0
M  V30 3659 H 353.749 1.87403 3.60049 0
M  V30 3660 H 354.515 4.12485 2.5511 0
M  V30 3661 H 350.394 3.18229 3.33543 0
M  V30 3662 H 353.938 6.52416 2.4698 0
M  V30 3663 H 349.835 5.57304 3.25703 0
M  V30 3664 H 350.603 7.62846 2.96661 0
M  V30 3665 N 353.266 -1.05314 1.17247 0
M  V30 3666 C 354.213 -2.13031 0.888058 0
M  V30 3667 C 355.183 -1.65253 -0.167537 0
M  V30 3668 O 356.368 -1.90775 -0.0305974 0
M  V30 3669 C 353.508 -3.42702 0.406147 0
M  V30 3670 C 352.621 -4.04161 1.52572 0
M  V30 3671 C 351.756 -5.21744 0.997808 0
M  V30 3672 C 350.795 -5.75207 2.09291 0
M  V30 3673 N 349.932 -6.84094 1.57986 0
M  V30 3674 H 354.772 -2.36698 1.81048 0
M  V30 3675 H 352.309 -1.16121 0.903013 0
M  V30 3676 H 354.267 -4.17059 0.108305 0
M  V30 3677 H 352.897 -3.19222 -0.479313 0
M  V30 3678 H 351.949 -3.27253 1.93931 0
M  V30 3679 H 353.261 -4.39881 2.35172 0
M  V30 3680 H 352.415 -6.03168 0.653739 0
M  V30 3681 H 351.154 -4.87495 0.141232 0
M  V30 3682 H 350.159 -4.92414 2.44557 0
M  V30 3683 H 351.384 -6.11505 2.95362 0
M  V30 3684 H 349.33 -6.51745 0.74598 0
M  V30 3685 H 349.247 -7.18811 2.34195 0
M  V30 3686 H 350.515 -7.69172 1.26468 0
M  V30 3687 N 354.744 -0.972509 -1.24016 0
M  V30 3688 C 355.993 -0.632603 -1.91523 0
M  V30 3689 C 356.306 0.836641 -1.76804 0
M  V30 3690 O 357.512 1.28728 -2.39043 0
M  V30 3691 C 355.968 -1.08082 -3.43287 0
M  V30 3692 C 355.576 -2.57386 -3.66683 0
M  V30 3693 C 357.32 -0.814288 -4.16617 0
M  V30 3694 C 355.227 -2.95915 -5.12043 0
M  V30 3695 H 354.157 -0.232898 -0.717129 0
M  V30 3696 H 356.808 -1.17936 -1.40582 0
M  V30 3697 H 355.19 -0.462339 -3.93292 0
M  V30 3698 H 356.364 -3.24405 -3.27258 0
M  V30 3699 H 354.679 -2.81701 -3.06649 0
M  V30 3700 H 357.276 -1.0781 -5.23718 0
M  V30 3701 H 357.619 0.24955 -4.15551 0
M  V30 3702 H 358.152 -1.39397 -3.72577 0
M  V30 3703 H 354.891 -4.0139 -5.18234 0
M  V30 3704 H 354.411 -2.33584 -5.52448 0
M  V30 3705 H 356.09 -2.86086 -5.80314 0
M  V30 3706 N 356.222 1.38976 -0.743202 0
M  V30 3707 C 357.185 2.28901 -0.117014 0
M  V30 3708 C 358.185 1.46698 0.658503 0
M  V30 3709 O 359.375 1.67274 0.486305 0
M  V30 3710 C 356.507 3.30309 0.84315 0
M  V30 3711 H 357.7 2.8578 -0.909373 0
M  V30 3712 H 355.253 1.47761 -0.509547 0
M  V30 3713 H 355.988 2.785 1.66157 0
M  V30 3714 H 355.773 3.91029 0.289594 0
M  V30 3715 H 357.263 3.97577 1.2776 0
M  V30 3716 N 357.7 0.491464 1.49741 0
M  V30 3717 C 358.977 -0.118984 1.95238 0
M  V30 3718 C 359.357 -1.55044 1.43264 0
M  V30 3719 O 358.705 -2.19287 0.642287 0
M  V30 3720 C 358.915 -0.0414187 3.48975 0
M  V30 3721 C 360.263 -0.220133 4.24029 0
M  V30 3722 O 361.287 -0.117055 3.56008 0
M  V30 3723 O 360.146 -0.430567 5.44801 0
M  V30 3724 H 357.24 -0.100536 0.820866 0
M  V30 3725 H 359.786 0.553322 1.60426 0
M  V30 3726 H 358.558 0.957214 3.79412 0
M  V30 3727 H 358.181 -0.754292 3.9038 0
M  V30 3728 N 359.178 -1.55987 0.224894 0
M  V30 3729 C 360.111 -2.16413 -0.723929 0
M  V30 3730 C 361.089 -1.10952 -1.18863 0
M  V30 3731 O 362.273 -1.39225 -1.27077 0
M  V30 3732 C 359.4 -2.74711 -1.98121 0
M  V30 3733 C 358.446 -3.9303 -1.6562 0
M  V30 3734 S 359.279 -5.29817 -0.778058 0
M  V30 3735 C 360.435 -5.91555 -2.04483 0
M  V30 3736 H 360.668 -2.96555 -0.210347 0
M  V30 3737 H 358.201 -1.54397 0.00955457 0
M  V30 3738 H 360.159 -3.08938 -2.70311 0
M  V30 3739 H 358.82 -1.94555 -2.46591 0
M  V30 3740 H 358.013 -4.32334 -2.59043 0
M  V30 3741 H 357.615 -3.59966 -1.01491 0
M  V30 3742 H 359.907 -6.07732 -2.99446 0
M  V30 3743 H 360.85 -6.87498 -1.69563 0
M  V30 3744 H 361.258 -5.20419 -2.18688 0
M  V30 3745 N 360.656 0.0484629 -1.57525 0
M  V30 3746 C 361.904 0.741657 -1.88 0
M  V30 3747 C 362.225 1.76918 -0.820054 0
M  V30 3748 O 361.495 1.95335 0.148661 0
M  V30 3749 H 360.075 0.276908 -0.69378 0
M  V30 3750 H 362.737 0.019013 -1.94891 0
M  V30 3751 H 361.833 1.24336 -2.86264 0
M  V30 3752 N 362.134 1.5431 0.320358 0
M  V30 3753 C 363.084 1.803 1.39556 0
M  V30 3754 C 364.068 0.659166 1.46778 0
M  V30 3755 O 365.26 0.91926 1.51257 0
M  V30 3756 C 362.389 2.03665 2.76361 0
M  V30 3757 C 361.475 3.24178 2.73439 0
M  V30 3758 N 361.866 4.4516 2.40137 0
M  V30 3759 C 360.164 3.25816 3.04565 0
M  V30 3760 C 360.865 5.27109 2.4603 0
M  V30 3761 N 359.841 4.64368 2.82601 0
M  V30 3762 H 363.643 2.71416 1.12742 0
M  V30 3763 H 361.157 1.53548 0.528856 0
M  V30 3764 H 363.154 2.20425 3.53862 0
M  V30 3765 H 361.814 1.13805 3.04103 0
M  V30 3766 H 362.825 4.72104 2.12927 0
M  V30 3767 H 359.502 2.46001 3.37328 0
M  V30 3768 H 360.892 6.33728 2.23246 0
M  V30 3769 N 363.613 -0.582584 1.46437 0
M  V30 3770 C 364.543 -1.70187 1.59871 0
M  V30 3771 C 365.524 -1.64066 0.449042 0
M  V30 3772 O 366.709 -1.82081 0.6753 0
M  V30 3773 C 363.839 -3.08827 1.58881 0
M  V30 3774 C 362.793 -3.29779 2.72819 0
M  V30 3775 C 362.119 -4.68947 2.5689 0
M  V30 3776 C 363.419 -3.17601 4.1464 0
M  V30 3777 H 365.113 -1.592 2.53566 0
M  V30 3778 H 362.659 -0.764472 1.22032 0
M  V30 3779 H 364.612 -3.86951 1.66873 0
M  V30 3780 H 363.336 -3.20713 0.617306 0
M  V30 3781 H 361.995 -2.54054 2.64296 0
M  V30 3782 H 361.643 -4.77599 1.57823 0
M  V30 3783 H 361.343 -4.83919 3.33312 0
M  V30 3784 H 362.867 -5.4924 2.66773 0
M  V30 3785 H 364.281 -3.8557 4.24274 0
M  V30 3786 H 362.678 -3.44094 4.9165 0
M  V30 3787 H 363.748 -2.14681 4.34788 0
M  V30 3788 N 365.091 -1.34144 -0.827227 0
M  V30 3789 C 366.038 -1.25364 -1.93785 0
M  V30 3790 C 367.008 -0.129774 -1.65592 0
M  V30 3791 O 368.193 -0.310024 -1.88264 0
M  V30 3792 C 365.333 -1.01064 -3.2997 0
M  V30 3793 C 364.446 -2.22185 -3.70484 0
M  V30 3794 C 363.581 -1.91203 -4.95595 0
M  V30 3795 C 362.62 -3.08491 -5.28677 0
M  V30 3796 N 361.757 -2.77421 -6.44967 0
M  V30 3797 H 366.597 -2.20347 -2.00627 0
M  V30 3798 H 364.134 -1.09558 -0.981608 0
M  V30 3799 H 366.092 -0.850139 -4.08446 0
M  V30 3800 H 364.722 -0.0975026 -3.22653 0
M  V30 3801 H 363.774 -2.4917 -2.87434 0
M  V30 3802 H 365.086 -3.0983 -3.90905 0
M  V30 3803 H 364.24 -1.71864 -5.81848 0
M  V30 3804 H 362.979 -1.00812 -4.77167 0
M  V30 3805 H 361.984 -3.28431 -4.40923 0
M  V30 3806 H 363.209 -3.99655 -5.49047 0
M  V30 3807 H 361.155 -1.89601 -6.28003 0
M  V30 3808 H 361.072 -3.58598 -6.6554 0
M  V30 3809 H 362.34 -2.61577 -7.34301 0
M  V30 3810 N 366.569 1.04691 -1.17803 0
M  V30 3811 C 367.799 1.81183 -0.992788 0
M  V30 3812 C 368.207 1.8347 0.462098 0
M  V30 3813 O 367.55 1.2643 1.33271 0
M  V30 3814 C 367.612 3.28363 -1.46349 0
M  V30 3815 C 367.276 3.49749 -2.94151 0
M  V30 3816 C 368.273 3.41456 -3.92051 0
M  V30 3817 C 365.958 3.76548 -3.32441 0
M  V30 3818 C 367.952 3.59656 -5.26238 0
M  V30 3819 C 365.639 3.94396 -4.66792 0
M  V30 3820 C 366.637 3.8595 -5.635 0
M  V30 3821 O 366.325 4.03294 -6.9542 0
M  V30 3822 H 366.057 0.577622 -0.351182 0
M  V30 3823 H 368.611 1.32876 -1.5663 0
M  V30 3824 H 366.841 3.77609 -0.833574 0
M  V30 3825 H 368.53 3.86395 -1.24313 0
M  V30 3826 H 369.296 3.20723 -3.63815 0
M  V30 3827 H 365.175 3.82224 -2.57732 0
M  V30 3828 H 368.719 3.52979 -6.01707 0
M  V30 3829 H 364.616 4.14622 -4.94731 0
M  V30 3830 H 365.384 4.2049 -7.02232 0
M  V30 3831 N 368.047 0.979072 1.23499 0
M  V30 3832 C 369.277 0.664237 1.95631 0
M  V30 3833 C 369.685 -0.772653 1.72704 0
M  V30 3834 O 369.028 -1.53141 1.01457 0
M  V30 3835 C 369.09 0.873115 3.48736 0
M  V30 3836 C 368.754 2.29182 3.95379 0
M  V30 3837 C 369.751 3.2704 4.04155 0
M  V30 3838 C 367.436 2.62256 4.28401 0
M  V30 3839 C 369.43 4.56052 4.45304 0
M  V30 3840 C 367.117 3.91491 4.69231 0
M  V30 3841 C 368.115 4.88201 4.77649 0
M  V30 3842 O 367.803 6.15129 5.17563 0
M  V30 3843 H 367.535 0.245915 0.629684 0
M  V30 3844 H 370.089 1.3127 1.57979 0
M  V30 3845 H 368.319 0.167476 3.86337 0
M  V30 3846 H 370.008 0.555642 4.02079 0
M  V30 3847 H 370.774 3.02819 3.78848 0
M  V30 3848 H 366.653 1.87692 4.21061 0
M  V30 3849 H 370.197 5.31538 4.51789 0
M  V30 3850 H 366.094 4.15508 4.93987 0
M  V30 3851 H 366.862 6.18862 5.35679 0
M  V30 3852 N 369.525 -1.3858 0.750561 0
M  V30 3853 C 370.455 -2.33102 0.136237 0
M  V30 3854 C 371.436 -1.54713 -0.706965 0
M  V30 3855 O 372.621 -1.83043 -0.648769 0
M  V30 3856 C 369.751 -3.38882 -0.760017 0
M  V30 3857 C 368.705 -4.27995 -0.0197785 0
M  V30 3858 C 368.031 -5.24605 -1.03408 0
M  V30 3859 C 369.331 -5.09554 1.14684 0
M  V30 3860 H 371.025 -2.84726 0.925822 0
M  V30 3861 H 368.571 -1.36898 0.446654 0
M  V30 3862 H 370.524 -4.0397 -1.19943 0
M  V30 3863 H 369.248 -2.85734 -1.58189 0
M  V30 3864 H 367.907 -3.64409 0.400184 0
M  V30 3865 H 367.555 -4.67746 -1.84994 0
M  V30 3866 H 367.255 -5.85081 -0.543464 0
M  V30 3867 H 368.779 -5.9257 -1.47288 0
M  V30 3868 H 370.193 -5.67899 0.785118 0
M  V30 3869 H 368.59 -5.7925 1.56812 0
M  V30 3870 H 369.66 -4.4347 1.96118 0
M  V30 3871 N 371.003 -0.499398 -1.49478 0
M  V30 3872 C 371.966 0.268838 -2.27618 0
M  V30 3873 C 372.966 0.895383 -1.33565 0
M  V30 3874 O 374.156 0.760164 -1.56739 0
M  V30 3875 C 371.288 1.38559 -3.11471 0
M  V30 3876 H 372.481 -0.416812 -2.96989 0
M  V30 3877 H 370.034 -0.254313 -1.54217 0
M  V30 3878 H 370.769 2.10544 -2.46661 0
M  V30 3879 H 370.554 0.941797 -3.80621 0
M  V30 3880 H 372.044 1.92678 -3.70493 0
M  V30 3881 N 372.481 1.55866 -0.233164 0
M  V30 3882 C 373.892 1.847 0.272554 0
M  V30 3883 C 374.243 1.15477 1.58617 0
M  V30 3884 O 373.368 0.42841 2.12117 0
M  V30 3885 C 373.963 3.35071 0.501299 0
M  V30 3886 C 372.522 3.6418 0.951304 0
M  V30 3887 C 371.669 2.77292 0.0208209 0
M  V30 3888 H 374.62 1.52005 -0.456074 0
M  V30 3889 H 374.641 3.55906 1.34577 0
M  V30 3890 H 374.153 3.85424 -0.454936 0
M  V30 3891 H 372.254 3.19293 1.92049 0
M  V30 3892 H 372.367 4.72071 0.817675 0
M  V30 3893 H 370.731 2.49131 0.529723 0
M  V30 3894 H 371.514 3.30448 -0.93054 0
M  V30 3895 N 373.959 -0.0401083 1.57549 0
M  V30 3896 C 374.906 -1.04413 2.05831 0
M  V30 3897 C 375.876 -1.36585 0.945184 0
M  V30 3898 O 377.061 -1.47112 1.21502 0
M  V30 3899 C 374.201 -2.34336 2.53339 0
M  V30 3900 C 373.314 -2.08419 3.78398 0
M  V30 3901 C 372.449 -3.32133 4.14561 0
M  V30 3902 C 371.488 -3.01721 5.3257 0
M  V30 3903 N 370.625 -4.17855 5.64218 0
M  V30 3904 H 375.465 -0.625442 2.91363 0
M  V30 3905 H 373.002 -0.297218 1.44066 0
M  V30 3906 H 374.96 -3.10234 2.78946 0
M  V30 3907 H 373.59 -2.73948 1.7074 0
M  V30 3908 H 372.642 -1.23069 3.59942 0
M  V30 3909 H 373.954 -1.81978 4.64419 0
M  V30 3910 H 373.108 -4.16406 4.41238 0
M  V30 3911 H 371.847 -3.61678 3.2717 0
M  V30 3912 H 370.852 -2.15849 5.05657 0
M  V30 3913 H 372.077 -2.73466 6.21605 0
M  V30 3914 H 370.023 -4.47372 4.79786 0
M  V30 3915 H 369.94 -3.94798 6.44725 0
M  V30 3916 H 371.208 -5.03033 5.95465 0
M  V30 3917 N 375.437 -1.54477 -0.31217 0
M  V30 3918 C 376.686 -1.72438 -1.04633 0
M  V30 3919 C 376.999 -0.511163 -1.88803 0
M  V30 3920 O 378.205 -0.572341 -2.65399 0
M  V30 3921 C 376.661 -3.05043 -1.9099 0
M  V30 3922 C 376.269 -4.33806 -1.11877 0
M  V30 3923 C 378.013 -3.32364 -2.64073 0
M  V30 3924 C 375.92 -5.57467 -1.97445 0
M  V30 3925 H 374.85 -0.642647 -0.394361 0
M  V30 3926 H 377.501 -1.80966 -0.303929 0
M  V30 3927 H 375.883 -2.90451 -2.69173 0
M  V30 3928 H 377.057 -4.59199 -0.383843 0
M  V30 3929 H 375.372 -4.13336 -0.504252 0
M  V30 3930 H 377.969 -4.21951 -3.28423 0
M  V30 3931 H 378.312 -2.50745 -3.32314 0
M  V30 3932 H 378.845 -3.47875 -1.92944 0
M  V30 3933 H 375.584 -6.41722 -1.33692 0
M  V30 3934 H 375.104 -5.36277 -2.6864 0
M  V30 3935 H 376.783 -5.94303 -2.5576 0
M  V30 3936 N 376.915 0.57481 -1.46744 0
M  V30 3937 C 377.825 1.711 -1.60505 0
M  V30 3938 C 378.841 1.67008 -0.488307 0
M  V30 3939 O 380.017 1.86774 -0.753495 0
M  V30 3940 C 377.082 3.07608 -1.59932 0
M  V30 3941 C 376.143 3.22904 -2.82898 0
M  V30 3942 C 375.376 4.529 -2.82343 0
M  V30 3943 O 375.599 5.37278 -1.91542 0
M  V30 3944 O 374.533 4.71611 -3.73987 0
M  V30 3945 H 378.359 1.62436 -2.56609 0
M  V30 3946 H 375.944 0.742779 -1.29627 0
M  V30 3947 H 377.826 3.88877 -1.62336 0
M  V30 3948 H 376.501 3.16692 -0.669898 0
M  V30 3949 H 375.408 2.41099 -2.86046 0
M  V30 3950 H 376.741 3.18715 -3.75076 0
M  V30 3951 N 378.394 1.34581 0.820102 0
M  V30 3952 C 379.671 1.17675 1.56244 0
M  V30 3953 C 380.051 -0.249541 2.0962 0
M  V30 3954 O 379.399 -1.25125 1.91196 0
M  V30 3955 C 379.609 2.23364 2.6816 0
M  V30 3956 C 380.957 2.58485 3.36854 0
M  V30 3957 O 381.981 2.22175 2.78418 0
M  V30 3958 O 380.84 3.20868 4.42386 0
M  V30 3959 H 377.934 0.456333 0.689702 0
M  V30 3960 H 380.48 1.46222 0.861231 0
M  V30 3961 H 379.252 3.19087 2.26493 0
M  V30 3962 H 378.875 1.96009 3.45928 0
M  V30 3963 N 379.872 -1.04064 1.18357 0
M  V30 3964 C 380.782 -2.15569 0.925596 0
M  V30 3965 C 381.798 -1.7365 -0.110295 0
M  V30 3966 O 382.974 -2.01273 0.0716218 0
M  V30 3967 C 380.039 -3.43704 0.454836 0
M  V30 3968 C 379.1 -4.00004 1.55869 0
M  V30 3969 C 378.333 -5.22023 1.1103 0
M  V30 3970 O 378.556 -5.70392 -0.0309756 0
M  V30 3971 O 377.49 -5.70856 1.90805 0
M  V30 3972 H 381.316 -2.40187 1.8586 0
M  V30 3973 H 378.901 -1.1402 0.965394 0
M  V30 3974 H 380.783 -4.20923 0.200382 0
M  V30 3975 H 379.458 -3.20559 -0.449876 0
M  V30 3976 H 378.365 -3.24172 1.86716 0
M  V30 3977 H 379.698 -4.2749 2.43953 0
M  V30 3978 N 381.35 -0.985608 -1.22978 0
M  V30 3979 C 382.26 -0.538548 -2.28335 0
M  V30 3980 C 383.276 0.409163 -1.69121 0
M  V30 3981 O 384.452 0.277797 -1.99475 0
M  V30 3982 C 381.517 0.146867 -3.46389 0
M  V30 3983 C 380.578 -0.842896 -4.20944 0
M  V30 3984 C 379.811 -0.190095 -5.33361 0
M  V30 3985 O 380.034 1.01767 -5.61248 0
M  V30 3986 O 378.968 -0.891289 -5.95264 0
M  V30 3987 H 382.794 -1.41487 -2.68729 0
M  V30 3988 H 380.379 -0.753495 -1.29007 0
M  V30 3989 H 382.261 0.531125 -4.1804 0
M  V30 3990 H 380.936 0.997871 -3.07935 0
M  V30 3991 H 379.843 -1.27795 -3.51595 0
M  V30 3992 H 381.176 -1.66287 -4.6326 0
M  V30 3993 N 382.828 1.3818 -0.7579 0
M  V30 3994 C 384.076 1.99624 -0.315361 0
M  V30 3995 C 384.397 1.60464 1.10799 0
M  V30 3996 O 383.667 0.863507 1.75842 0
M  V30 3997 H 382.247 0.73831 -0.113611 0
M  V30 3998 H 384.909 1.68878 -0.972952 0
M  V30 3999 H 384.005 3.09754 -0.381931 0
M  V30 4000 N 384.306 0.507319 1.49211 0
M  V30 4001 C 385.531 -0.033725 2.07373 0
M  V30 4002 C 385.956 -1.29485 1.36437 0
M  V30 4003 O 385.314 -1.76294 0.423087 0
M  V30 4004 C 385.362 -0.263945 3.59633 0
M  V30 4005 O 384.466 -1.33737 3.90113 0
M  V30 4006 H 383.807 0.0290331 0.663365 0
M  V30 4007 H 386.337 0.708749 1.91932 0
M  V30 4008 H 386.347 -0.493536 4.05004 0
M  V30 4009 H 385.022 0.657424 4.10671 0
M  V30 4010 H 383.599 -1.09224 3.56545 0
M  V30 4011 O 385.823 -1.56889 0.38316 0
M  V30 4012 H 386.514 -1.93009 -0.163415 0
M  V30 END ATOM
M  V30 BEGIN BOND
M  V30 END BOND
M  V30 END CTAB
M  END
$$$$
