drugbank_target|P0A6L0 Deoxyribose-phosphate aldolase (DB04087)
 OpenBabel12092120003D

  0  0  0     0  0            999 V3000
M  V30 BEGIN CTAB
M  V30 COUNTS 3922 3949 0 0 0
M  V30 BEGIN ATOM
M  V30 1 H -0.908 1.98254 -0.117106 0
M  V30 2 N 0 1.576 0 0
M  V30 3 C 0.933 2.03868 1.02534 0
M  V30 4 C 1.911 0.928543 1.3348 0
M  V30 5 O 3.095 1.19667 1.45644 0
M  V30 6 C 0.222 2.43627 2.35294 0
M  V30 7 C -0.732 3.65373 2.2001 0
M  V30 8 S 0.101 5.13292 1.52614 0
M  V30 9 C 1.257 5.56322 2.86805 0
M  V30 10 H 1.49 2.90518 0.631377 0
M  V30 11 H -0.977 1.52953 0.210867 0
M  V30 12 H 0.981 2.67203 3.11629 0
M  V30 13 H -0.358 1.57376 2.7183 0
M  V30 14 H -1.165 3.90944 3.18086 0
M  V30 15 H -1.563 3.418 1.51819 0
M  V30 16 H 0.729 5.58782 3.83104 0
M  V30 17 H 1.672 6.56266 2.65933 0
M  V30 18 H 2.08 4.83886 2.90714 0
M  V30 19 N 1.4781 -0.272755 1.55222 0
M  V30 20 C 2.7061 -1.02255 1.79865 0
M  V30 21 C 3.1211 -1.79924 0.572088 0
M  V30 22 O 2.4781 -1.76638 -0.458842 0
M  V30 23 C 2.5291 -1.98094 3.02392 0
M  V30 24 O 2.2501 -1.23572 4.20311 0
M  V30 25 C 3.7511 -2.84884 3.39641 0
M  V30 26 H 0.9711 -0.302057 0.599168 0
M  V30 27 H 3.5151 -0.303465 2.02236 0
M  V30 28 H 1.6701 -2.65465 2.82147 0
M  V30 29 H 2.0841 -1.88172 4.89583 0
M  V30 30 H 3.5581 -3.47927 4.28545 0
M  V30 31 H 4.0351 -3.54665 2.59055 0
M  V30 32 H 4.6411 -2.23003 3.62146 0
M  V30 33 N 2.9562 -1.48159 -0.537278 0
M  V30 34 C 4.2332 -1.46291 -1.29839 0
M  V30 35 C 4.6132 -0.170613 -2.10409 0
M  V30 36 O 3.9612 0.847746 -2.12192 0
M  V30 37 C 4.1712 -2.72055 -2.18603 0
M  V30 38 C 5.5192 -3.20087 -2.7898 0
M  V30 39 O 6.5432 -2.72921 -2.28894 0
M  V30 40 O 5.4022 -4.02138 -3.70064 0
M  V30 41 H 2.4962 -0.583906 -0.585647 0
M  V30 42 H 5.0422 -1.60384 -0.554534 0
M  V30 43 H 3.8142 -3.57628 -1.58801 0
M  V30 44 H 3.4372 -2.60646 -3.00249 0
M  V30 45 N 4.4343 0.785586 -1.36625 0
M  V30 46 C 5.3643 1.91259 -1.33949 0
M  V30 47 C 6.3453 1.68795 -0.210325 0
M  V30 48 O 7.5303 1.89854 -0.408561 0
M  V30 49 C 4.6603 3.28339 -1.13186 0
M  V30 50 C 3.6143 3.65335 -2.22967 0
M  V30 51 C 2.9403 5.00806 -1.87342 0
M  V30 52 C 4.2403 3.7352 -3.65075 0
M  V30 53 H 5.9343 1.93755 -2.28253 0
M  V30 54 H 3.4803 0.930788 -1.09874 0
M  V30 55 H 5.4333 4.06804 -1.09948 0
M  V30 56 H 4.1573 3.2624 -0.153332 0
M  V30 57 H 2.8163 2.89169 -2.25337 0
M  V30 58 H 2.4643 4.95233 -0.880545 0
M  V30 59 H 2.1643 5.26529 -2.60846 0
M  V30 60 H 3.6883 5.81687 -1.85667 0
M  V30 61 H 5.1023 4.42168 -3.64911 0
M  V30 62 H 3.4993 4.10731 -4.37516 0
M  V30 63 H 4.5693 2.74527 -3.99703 0
M  V30 64 N 5.9124 1.20967 1.01018 0
M  V30 65 C 6.8594 0.964281 2.09691 0
M  V30 66 C 7.8294 -0.107853 1.65749 0
M  V30 67 O 9.0144 0.0381987 1.90762 0
M  V30 68 C 6.1544 0.52943 3.41015 0
M  V30 69 C 5.2674 1.67043 3.98398 0
M  V30 70 C 4.4024 1.18525 5.17808 0
M  V30 71 C 3.4414 2.29892 5.67288 0
M  V30 72 N 2.5784 1.82546 6.77954 0
M  V30 73 H 7.4184 1.89463 2.30017 0
M  V30 74 H 4.9554 0.944289 1.1279 0
M  V30 75 H 6.9134 0.258588 4.16398 0
M  V30 76 H 5.5434 -0.363919 3.20742 0
M  V30 77 H 4.5954 2.05603 3.20049 0
M  V30 78 H 5.9074 2.50877 4.31117 0
M  V30 79 H 5.0614 0.870762 6.00419 0
M  V30 80 H 3.8004 0.316887 4.86669 0
M  V30 81 H 2.8054 2.6215 4.83278 0
M  V30 82 H 4.0304 3.17216 6.00459 0
M  V30 83 H 1.9764 0.980454 6.48632 0
M  V30 84 H 1.8934 2.59956 7.09901 0
M  V30 85 H 3.1614 1.54115 7.64113 0
M  V30 86 N 7.3905 -1.2043 1.01659 0
M  V30 87 C 8.3535 -2.21433 0.591616 0
M  V30 88 C 9.3535 -1.57203 -0.338226 0
M  V30 89 O 10.5435 -1.73737 -0.126918 0
M  V30 90 C 7.6755 -3.40628 -0.136058 0
M  V30 91 H 8.8685 -2.60545 1.48514 0
M  V30 92 H 6.4215 -1.33893 0.806379 0
M  V30 93 H 7.1565 -3.07019 -1.04449 0
M  V30 94 H 6.9415 -3.88475 0.531917 0
M  V30 95 H 8.4315 -4.15475 -0.420735 0
M  V30 96 N 8.8686 -0.792821 -1.36206 0
M  V30 97 C 10.0936 -0.377701 -2.03932 0
M  V30 98 C 10.5186 0.998947 -1.59382 0
M  V30 99 O 9.8766 1.64421 -0.763903 0
M  V30 100 C 9.9246 -0.453635 -3.57735 0
M  V30 101 O 9.0286 0.538151 -4.08874 0
M  V30 102 H 8.3696 -0.159855 -0.644471 0
M  V30 103 H 10.8996 -1.07488 -1.7409 0
M  V30 104 H 10.9096 -0.318464 -4.06755 0
M  V30 105 H 9.5846 -1.45784 -3.89512 0
M  V30 106 H 8.1616 0.364359 -3.71116 0
M  V30 107 N 10.3467 1.47872 -0.545128 0
M  V30 108 C 11.5717 2.07391 -0.0190611 0
M  V30 109 C 11.9967 1.39688 1.25971 0
M  V30 110 O 11.3547 0.467816 1.7516 0
M  V30 111 C 11.4027 3.60188 0.172335 0
M  V30 112 O 10.5067 3.9339 1.23766 0
M  V30 113 H 9.8477 0.662411 -0.0459059 0
M  V30 114 H 12.3777 1.90066 -0.757365 0
M  V30 115 H 12.3877 4.06129 0.390305 0
M  V30 116 H 11.0627 4.08865 -0.761725 0
M  V30 117 H 9.6397 3.5921 1.00114 0
M  V30 118 N 11.8248 0.280983 1.55075 0
M  V30 119 C 12.7548 -0.597469 2.25727 0
M  V30 120 C 13.7358 -1.15417 1.24952 0
M  V30 121 O 14.9208 -1.18722 1.53684 0
M  V30 122 C 12.0508 -1.7789 2.98283 0
M  V30 123 C 11.0048 -1.35347 4.06036 0
M  V30 124 C 10.3308 -2.61846 4.66198 0
M  V30 125 C 11.6308 -0.499354 5.19907 0
M  V30 126 H 13.3248 -0.00824265 2.99399 0
M  V30 127 H 10.8708 -0.0025244 1.44 0
M  V30 128 H 12.8238 -2.39937 3.46422 0
M  V30 129 H 11.5478 -2.39405 2.22155 0
M  V30 130 H 10.2068 -0.756156 3.58717 0
M  V30 131 H 9.8548 -3.21632 3.86732 0
M  V30 132 H 9.5548 -2.3409 5.38958 0
M  V30 133 H 11.0788 -3.24732 5.1709 0
M  V30 134 H 12.4928 -1.02498 5.64063 0
M  V30 135 H 10.8898 -0.316424 5.99265 0
M  V30 136 H 11.9598 0.480459 4.82514 0
M  V30 137 N 13.3029 -1.57598 0.00835791 0
M  V30 138 C 14.7189 -1.55764 -0.347822 0
M  V30 139 C 14.9189 -1.01186 -1.74252 0
M  V30 140 O 13.9749 -0.649371 -2.44007 0
M  V30 141 C 15.2879 -2.99927 -0.215407 0
M  V30 142 C 16.8359 -3.11656 -0.289725 0
M  V30 143 C 17.3109 -4.57621 -0.18634 0
M  V30 144 N 18.8019 -4.62557 -0.243978 0
M  V30 145 C 19.5369 -5.73094 -0.18745 0
M  V30 146 N 19.0329 -6.92753 -0.0810331 0
M  V30 147 N 20.8259 -5.61588 -0.239925 0
M  V30 148 H 12.9769 -1.91411 0.92062 0
M  V30 149 H 15.2399 -0.879562 0.353659 0
M  V30 150 H 14.9459 -3.43729 0.744512 0
M  V30 151 H 14.8199 -3.63865 -0.994097 0
M  V30 152 H 17.2069 -2.67779 -1.24009 0
M  V30 153 H 17.2879 -2.5048 0.51898 0
M  V30 154 H 16.9319 -5.02174 0.760519 0
M  V30 155 H 16.8619 -5.16752 -1.01364 0
M  V30 156 H 19.3529 -3.76481 -0.327217 0
M  V30 157 H 19.6659 -7.72787 -0.0440241 0
M  V30 158 H 18.0109 -6.94984 -0.0465419 0
M  V30 159 H 21.2019 -4.66996 -0.321317 0
M  V30 160 H 21.3749 -6.47714 -0.192407 0
M  V30 161 N 14.781 0.264519 -1.55364 0
M  V30 162 C 15.744 1.31046 -1.88042 0
M  V30 163 C 16.744 1.41943 -0.755569 0
M  V30 164 O 17.934 1.40947 -1.02369 0
M  V30 165 C 15.066 2.69067 -2.09323 0
M  V30 166 H 16.259 1.03297 -2.81549 0
M  V30 167 H 13.812 0.502989 -1.47986 0
M  V30 168 H 14.547 3.01982 -1.18226 0
M  V30 169 H 14.332 2.62542 -2.91229 0
M  V30 170 H 15.822 3.44623 -2.35848 0
M  V30 171 N 16.2591 1.48442 0.529413 0
M  V30 172 C 17.1891 1.65902 1.64313 0
M  V30 173 C 18.1701 0.507897 1.6234 0
M  V30 174 O 19.3551 0.740503 1.79528 0
M  V30 175 C 16.4851 1.69911 3.02898 0
M  V30 176 C 15.4391 2.8453 3.19729 0
M  V30 177 C 14.7651 2.73629 4.59381 0
M  V30 178 C 16.0651 4.25821 3.02447 0
M  V30 179 H 17.7591 2.5914 1.49955 0
M  V30 180 H 15.3051 1.24709 0.719982 0
M  V30 181 H 17.2581 1.80715 3.80684 0
M  V30 182 H 15.9821 0.732524 3.18279 0
M  V30 183 H 14.6411 2.73283 2.44361 0
M  V30 184 H 14.2891 1.74938 4.71599 0
M  V30 185 H 13.9891 3.50541 4.71588 0
M  V30 186 H 15.5131 2.86401 5.39265 0
M  V30 187 H 16.9271 4.37898 3.70024 0
M  V30 188 H 15.3241 5.03735 3.26146 0
M  V30 189 H 16.3941 4.42244 1.98867 0
M  V30 190 N 17.7372 -0.778329 1.37039 0
M  V30 191 C 18.6842 -1.89139 1.32269 0
M  V30 192 C 19.6542 -1.65017 0.189387 0
M  V30 193 O 20.8392 -1.87024 0.377693 0
M  V30 194 C 17.9792 -3.26112 1.12894 0
M  V30 195 C 17.0922 -3.62233 2.35396 0
M  V30 196 C 16.2272 -4.8838 2.08946 0
M  V30 197 C 15.2662 -5.17212 3.2735 0
M  V30 198 N 14.4032 -6.34546 3.00492 0
M  V30 199 H 19.2432 -1.92552 2.27437 0
M  V30 200 H 16.7802 -0.941473 1.13025 0
M  V30 201 H 18.7382 -4.05116 0.996835 0
M  V30 202 H 17.3682 -3.22091 0.213758 0
M  V30 203 H 16.4202 -2.78265 2.5937 0
M  V30 204 H 17.7322 -3.79481 3.23721 0
M  V30 205 H 16.8862 -5.75274 1.92729 0
M  V30 206 H 15.6252 -4.73222 1.17949 0
M  V30 207 H 14.6302 -4.28796 3.44113 0
M  V30 208 H 15.8552 -5.34283 4.19188 0
M  V30 209 H 13.8012 -6.20759 2.12118 0
M  V30 210 H 13.7182 -6.52179 3.82358 0
M  V30 211 H 14.9862 -7.24394 2.87879 0
M  V30 212 N 19.2153 -1.21501 -1.00376 0
M  V30 213 C 20.1453 -0.999478 -2.11028 0
M  V30 214 C 21.1263 0.0759671 -1.6993 0
M  V30 215 O 22.3113 -0.0841106 -1.94018 0
M  V30 216 C 19.4413 -0.564709 -3.42678 0
M  V30 217 C 18.3953 -1.58486 -3.97576 0
M  V30 218 C 17.7213 -1.00628 -5.25146 0
M  V30 219 C 19.0213 -2.97204 -4.29496 0
M  V30 220 H 20.7153 -1.92495 -2.29317 0
M  V30 221 H 18.2613 -0.92693 -1.102 0
M  V30 222 H 20.2143 -0.401091 -4.19487 0
M  V30 223 H 18.9383 0.396411 -3.24185 0
M  V30 224 H 17.5973 -1.73606 -3.22888 0
M  V30 225 H 17.2453 -0.0368439 -5.02987 0
M  V30 226 H 16.9453 -1.68771 -5.62841 0
M  V30 227 H 18.4693 -0.854015 -6.04598 0
M  V30 228 H 19.8833 -2.8552 -4.97143 0
M  V30 229 H 18.2803 -3.62372 -4.78338 0
M  V30 230 H 19.3503 -3.47956 -3.3772 0
M  V30 231 N 20.6934 1.19889 -1.02296 0
M  V30 232 C 21.6264 2.21639 -0.543282 0
M  V30 233 C 22.6044 1.57275 0.412698 0
M  V30 234 O 23.7884 1.85568 0.331198 0
M  V30 235 C 20.9154 3.38057 0.208571 0
M  V30 236 C 19.9614 4.20751 -0.697933 0
M  V30 237 S 20.7944 4.89529 -2.17075 0
M  V30 238 C 21.9504 6.09363 -1.42923 0
M  V30 239 H 22.1834 2.61984 -1.40541 0
M  V30 240 H 19.7164 1.30041 -0.832387 0
M  V30 241 H 21.6744 4.05539 0.63624 0
M  V30 242 H 20.3354 2.96159 1.04635 0
M  V30 243 H 19.5284 5.03862 -0.117831 0
M  V30 244 H 19.1304 3.58556 -1.06366 0
M  V30 245 H 21.4224 6.73742 -0.712637 0
M  V30 246 H 22.3654 6.71845 -2.23673 0
M  V30 247 H 22.7734 5.56798 -0.929327 0
M  V30 248 N 22.1715 0.800033 1.35784 0
M  V30 249 C 23.4485 0.30088 1.93272 0
M  V30 250 C 23.8285 -1.20857 1.73081 0
M  V30 251 O 23.1765 -2.00502 1.09596 0
M  V30 252 C 23.3865 0.70511 3.41803 0
M  V30 253 C 24.7345 0.690871 4.18942 0
M  V30 254 O 25.7585 0.646244 3.50289 0
M  V30 255 O 24.6175 0.74332 5.41421 0
M  V30 256 H 21.7115 0.0771605 0.823393 0
M  V30 257 H 24.2575 0.88329 1.449 0
M  V30 258 H 23.0295 1.74571 3.50201 0
M  V30 259 H 22.6525 0.0971541 3.97481 0
M  V30 260 N 23.6496 -1.47581 0.552962 0
M  V30 261 C 24.5796 -2.32762 -0.185451 0
M  V30 262 C 25.5606 -1.43527 -0.912905 0
M  V30 263 O 26.7456 -1.72388 -0.894201 0
M  V30 264 C 23.8756 -3.25219 -1.21859 0
M  V30 265 C 22.8296 -4.23661 -0.607864 0
M  V30 266 C 22.1556 -5.05413 -1.74533 0
M  V30 267 C 23.4556 -5.20481 0.435582 0
M  V30 268 H 25.1496 -2.94749 0.525684 0
M  V30 269 H 22.6956 -1.41738 0.254251 0
M  V30 270 H 24.6486 -3.8365 -1.7433 0
M  V30 271 H 23.3726 -2.61279 -1.95961 0
M  V30 272 H 22.0316 -3.66451 -0.104489 0
M  V30 273 H 21.6796 -4.3788 -2.47529 0
M  V30 274 H 21.3796 -5.72059 -1.34249 0
M  V30 275 H 22.9036 -5.66701 -2.27338 0
M  V30 276 H 24.3176 -5.733 -0.00290157 0
M  V30 277 H 22.7146 -5.95305 0.757067 0
M  V30 278 H 23.7846 -4.66217 1.33303 0
M  V30 279 N 25.1277 -0.289203 -1.54924 0
M  V30 280 C 26.3557 0.326463 -2.04308 0
M  V30 281 C 26.7707 1.48413 -1.16701 0
M  V30 282 O 26.1277 1.81507 -0.190087 0
M  V30 283 C 26.1787 0.794014 -3.52672 0
M  V30 284 O 25.8997 -0.317564 -4.36948 0
M  V30 285 C 27.4007 1.47605 -4.18004 0
M  V30 286 H 24.6207 0.0726272 -0.667058 0
M  V30 287 H 27.1647 -0.425401 -2.00026 0
M  V30 288 H 25.3197 1.49593 -3.57352 0
M  V30 289 H 25.7337 0.0443186 -5.24481 0
M  V30 290 H 27.2077 1.75447 -5.23376 0
M  V30 291 H 27.6847 2.41224 -3.67025 0
M  V30 292 H 28.2907 0.81762 -4.17367 0
M  V30 293 N 26.6058 1.57591 -0.0167156 0
M  V30 294 C 27.8338 1.95575 0.675128 0
M  V30 295 C 28.2488 0.892542 1.6637 0
M  V30 296 O 27.6058 -0.126912 1.82058 0
M  V30 297 C 27.6568 3.33608 1.39239 0
M  V30 298 O 27.3778 4.3585 0.443444 0
M  V30 299 C 28.8788 3.86151 2.17721 0
M  V30 300 H 26.0988 0.644423 0.186978 0
M  V30 301 H 28.6428 2.0437 -0.0728 0
M  V30 302 H 26.7978 3.2607 2.09182 0
M  V30 303 H 27.2118 5.158 0.951358 0
M  V30 304 H 28.6858 4.85114 2.63379 0
M  V30 305 H 29.1628 3.19738 3.01105 0
M  V30 306 H 29.7688 3.96918 1.52761 0
M  V30 307 N 28.0839 -0.256276 1.55502 0
M  V30 308 C 29.0139 -1.32102 1.92539 0
M  V30 309 C 29.9949 -1.50684 0.789194 0
M  V30 310 O 31.1799 -1.63449 1.04872 0
M  V30 311 C 28.3099 -2.67752 2.21192 0
M  V30 312 C 27.2639 -2.63878 3.36975 0
M  V30 313 C 26.5899 -4.03236 3.51147 0
M  V30 314 C 27.8899 -2.21682 4.72921 0
M  V30 315 H 29.5839 -1.01351 2.81724 0
M  V30 316 H 27.1299 -0.486105 1.35547 0
M  V30 317 H 29.0829 -3.42365 2.45691 0
M  V30 318 H 27.8069 -3.0012 1.28824 0
M  V30 319 H 26.4659 -1.91722 3.12471 0
M  V30 320 H 26.1139 -4.32854 2.56216 0
M  V30 321 H 25.8139 -4.01535 4.29003 0
M  V30 322 H 27.3379 -4.79563 3.77957 0
M  V30 323 H 28.7519 -2.86023 4.96854 0
M  V30 324 H 27.1489 -2.3111 5.53812 0
M  V30 325 H 28.2189 -1.16833 4.70615 0
M  V30 326 N 29.562 -1.4872 -0.521534 0
M  V30 327 C 30.51 -1.64328 -1.64618 0
M  V30 328 C 31.504 -0.50953 -1.61555 0
M  V30 329 O 32.71 -0.688525 -1.66311 0
M  V30 330 H 29.085 -0.517805 -0.545328 0
M  V30 331 H 31.056 -2.58767 -1.48601 0
M  V30 332 C 29.805 -1.70805 -3.02855 0
M  V30 333 H 29.128 -2.5741 -3.05909 0
M  V30 334 H 30.568 -1.85766 -3.81139 0
M  V30 335 C 29.027 -0.448479 -3.33902 0
M  V30 336 O 29.557 0.434928 -3.99339 0
M  V30 337 N 27.763 -0.317616 -2.88859 0
M  V30 338 H 27.31 -1.03748 -2.35784 0
M  V30 339 H 27.268 0.524113 -3.10001 0
M  V30 340 N 31.0401 0.771051 -1.3745 0
M  V30 341 C 32.3171 1.519 -1.23231 0
M  V30 342 C 32.6971 2.10383 0.173809 0
M  V30 343 O 32.0451 1.95583 1.18151 0
M  V30 344 C 32.2551 2.59933 -2.32886 0
M  V30 345 C 33.6031 3.27316 -2.70461 0
M  V30 346 O 34.6271 2.70228 -2.32068 0
M  V30 347 O 33.4861 4.30531 -3.36608 0
M  V30 348 H 30.5801 0.672803 -0.480901 0
M  V30 349 H 33.1261 0.807957 -1.49232 0
M  V30 350 H 31.8981 2.14842 -3.27045 0
M  V30 351 H 31.5211 3.38637 -2.08353 0
M  V30 352 N 32.5182 1.22032 0.997298 0
M  V30 353 C 33.7952 0.950823 1.70935 0
M  V30 354 C 34.1752 -0.535292 2.042 0
M  V30 355 O 33.5232 -1.50217 1.72183 0
M  V30 356 C 33.7332 1.84386 2.96315 0
M  V30 357 C 35.0812 2.09732 3.69185 0
M  V30 358 O 36.1052 1.81798 3.06314 0
M  V30 359 O 34.9642 2.57018 4.82291 0
M  V30 360 H 32.0582 0.357204 0.745878 0
M  V30 361 H 34.6042 1.32997 1.05404 0
M  V30 362 H 33.3762 2.84928 2.68201 0
M  V30 363 H 32.9992 1.46602 3.69586 0
M  V30 364 N 33.9963 -1.19345 1.0293 0
M  V30 365 C 35.2733 -1.84811 0.640642 0
M  V30 366 C 35.6533 -1.91855 -0.88062 0
M  V30 367 O 35.0013 -1.43587 -1.7775 0
M  V30 368 C 35.2113 -3.23755 1.30321 0
M  V30 369 C 36.5593 -3.99912 1.42673 0
M  V30 370 O 37.5833 -3.33155 1.26041 0
M  V30 371 O 36.4423 -5.19494 1.6967 0
M  V30 372 H 33.5363 -0.796443 0.222726 0
M  V30 373 H 36.0823 -1.26831 1.12748 0
M  V30 374 H 34.8543 -3.13466 2.34211 0
M  V30 375 H 34.4773 -3.89381 0.804261 0
M  V30 376 N 35.4744 -0.807222 -1.35358 0
M  V30 377 C 36.7024 -0.400377 -2.02989 0
M  V30 378 C 37.1174 0.988859 -1.60832 0
M  V30 379 O 36.4744 1.63729 -0.806175 0
M  V30 380 C 36.5254 -0.474867 -3.58368 0
M  V30 381 O 36.2464 -1.80933 -3.98992 0
M  V30 382 C 37.7474 -0.0609112 -4.43258 0
M  V30 383 H 34.9674 -0.162587 -0.651004 0
M  V30 384 H 37.5114 -1.09102 -1.72965 0
M  V30 385 H 35.6664 0.167534 -3.87038 0
M  V30 386 H 36.0804 -1.77256 -4.9364 0
M  V30 387 H 37.5544 -0.164145 -5.51756 0
M  V30 388 H 38.0314 0.993831 -4.27808 0
M  V30 389 H 38.6374 -0.676492 -4.19885 0
M  V30 390 N 36.9525 1.47285 -0.560781 0
M  V30 391 C 38.2295 1.9558 0.0277798 0
M  V30 392 C 38.6095 1.5034 1.48192 0
M  V30 393 O 37.9575 0.743882 2.16052 0
M  V30 394 C 38.1675 3.48789 -0.121418 0
M  V30 395 C 39.5155 4.24594 0.0220912 0
M  V30 396 O 40.5395 3.56166 -0.0491439 0
M  V30 397 O 39.3985 5.46217 0.175958 0
M  V30 398 H 36.4925 0.824663 0.0621342 0
M  V30 399 H 39.0385 1.5767 -0.627556 0
M  V30 400 H 37.8105 3.74533 -1.13316 0
M  V30 401 H 37.4335 3.93473 0.571366 0
M  V30 402 N 38.4306 0.297415 1.54768 0
M  V30 403 C 39.3406 -0.58983 2.27064 0
M  V30 404 C 40.3566 -1.15144 1.30453 0
M  V30 405 O 41.5326 -1.17699 1.63428 0
M  V30 406 C 38.5976 -1.74714 2.9946 0
M  V30 407 C 37.6586 -1.21997 4.11601 0
M  V30 408 C 36.8916 -2.32212 4.80535 0
M  V30 409 O 37.1146 -3.52036 4.48806 0
M  V30 410 O 36.0486 -1.99106 5.68014 0
M  V30 411 H 39.8746 -0.00348199 3.037 0
M  V30 412 H 37.4596 0.0640035 1.49263 0
M  V30 413 H 39.3416 -2.42147 3.44881 0
M  V30 414 H 38.0166 -2.32016 2.25722 0
M  V30 415 H 36.9236 -0.511458 3.70587 0
M  V30 416 H 38.2566 -0.692419 4.87305 0
M  V30 417 N 39.9087 -1.5758 0.0250728 0
M  V30 418 C 40.8557 -2.09973 -0.958129 0
M  V30 419 C 41.8257 -1.00085 -1.3256 0
M  V30 420 O 43.0107 -1.27481 -1.41962 0
M  V30 421 C 40.1507 -2.62812 -2.2366 0
M  V30 422 C 39.2637 -3.86693 -1.92594 0
M  V30 423 C 38.3987 -4.27941 -3.14707 0
M  V30 424 C 37.4377 -5.44591 -2.79442 0
M  V30 425 N 36.5747 -5.81014 -3.94167 0
M  V30 426 H 41.4147 -2.937 -0.504428 0
M  V30 427 H 38.9517 -1.45172 -0.237392 0
M  V30 428 H 40.9097 -2.91536 -2.98434 0
M  V30 429 H 39.5397 -1.81922 -2.66654 0
M  V30 430 H 38.5917 -3.64723 -1.0808 0
M  V30 431 H 39.9037 -4.71547 -1.62619 0
M  V30 432 H 39.0577 -4.58079 -3.97804 0
M  V30 433 H 37.7967 -3.41845 -3.4784 0
M  V30 434 H 36.8017 -5.1415 -1.94755 0
M  V30 435 H 38.0267 -6.32382 -2.47528 0
M  V30 436 H 35.9727 -4.97874 -4.2715 0
M  V30 437 H 35.8897 -6.60498 -3.67801 0
M  V30 438 H 37.1577 -6.15756 -4.7798 0
M  V30 439 N 41.3868 0.248026 -1.55636 0
M  V30 440 C 42.6328 0.97767 -1.77678 0
M  V30 441 C 42.9658 1.85016 -0.590135 0
M  V30 442 O 42.2408 1.90095 0.411611 0
M  V30 443 C 42.5238 1.83914 -3.09593 0
M  V30 444 C 42.3768 0.99491 -4.38659 0
M  V30 445 C 43.6958 2.82183 -3.37729 0
M  V30 446 H 40.8148 0.354005 -0.646413 0
M  V30 447 H 43.4568 0.248253 -1.88371 0
M  V30 448 H 41.6068 2.46104 -3.00608 0
M  V30 449 H 43.2788 0.391789 -4.59633 0
M  V30 450 H 41.5218 0.299231 -4.32767 0
M  V30 451 H 42.1928 1.63145 -5.2734 0
M  V30 452 H 44.6688 2.30129 -3.4667 0
M  V30 453 H 43.5448 3.39582 -4.31249 0
M  V30 454 H 43.8058 3.58588 -2.58586 0
M  V30 455 N 42.8649 1.48995 0.513639 0
M  V30 456 C 44.1139 1.57093 1.2651 0
M  V30 457 C 44.4269 0.257091 1.93903 0
M  V30 458 O 45.6329 0.216478 2.70636 0
M  V30 459 C 44.0889 2.77118 2.29638 0
M  V30 460 C 43.6969 4.15209 1.68241 0
M  V30 461 C 45.4409 2.94538 3.05692 0
M  V30 462 C 43.3479 5.26474 2.69406 0
M  V30 463 H 42.2779 0.584876 0.475854 0
M  V30 464 H 44.9289 1.7536 0.540487 0
M  V30 465 H 43.3109 2.52319 3.05207 0
M  V30 466 H 44.4849 4.50094 0.987505 0
M  V30 467 H 42.7999 4.03042 1.04623 0
M  V30 468 H 45.3969 3.74832 3.8132 0
M  V30 469 H 45.7399 2.04614 3.62545 0
M  V30 470 H 46.2729 3.19316 2.37238 0
M  V30 471 H 43.0119 6.18417 2.17351 0
M  V30 472 H 42.5319 4.96058 3.37175 0
M  V30 473 H 44.2109 5.55277 3.32078 0
M  V30 474 N 44.343 -0.763751 1.37857 0
M  V30 475 C 45.306 -1.85889 1.34081 0
M  V30 476 C 46.306 -1.58949 0.243277 0
M  V30 477 O 47.496 -1.66882 0.499589 0
M  V30 478 C 44.628 -3.23176 1.08489 0
M  V30 479 H 45.821 -1.90648 2.31502 0
M  V30 480 H 43.374 -0.964367 1.23003 0
M  V30 481 H 44.109 -3.24091 0.116318 0
M  V30 482 H 43.894 -3.44124 1.8794 0
M  V30 483 H 45.384 -4.03254 1.08517 0
M  V30 484 N 45.8211 -1.22559 -0.990812 0
M  V30 485 C 46.7511 -1.0218 -2.09956 0
M  V30 486 C 47.7321 0.0579394 -1.70001 0
M  V30 487 O 48.9171 -0.104684 -1.93918 0
M  V30 488 C 46.0471 -0.601023 -3.4206 0
M  V30 489 C 45.0011 -1.62694 -3.95872 0
M  V30 490 C 44.3271 -1.06193 -5.24049 0
M  V30 491 C 45.6271 -3.01743 -4.2632 0
M  V30 492 H 47.3211 -1.94916 -2.27262 0
M  V30 493 H 44.8671 -0.938566 -1.09211 0
M  V30 494 H 46.8201 -0.445561 -4.19038 0
M  V30 495 H 45.5441 0.362005 -3.24588 0
M  V30 496 H 44.2031 -1.77021 -3.21028 0
M  V30 497 H 43.8511 -0.0901903 -5.02919 0
M  V30 498 H 43.5511 -1.74732 -5.61019 0
M  V30 499 H 45.0751 -0.918092 -6.03658 0
M  V30 500 H 46.4891 -2.90777 -4.94087 0
M  V30 501 H 44.8861 -3.67425 -4.74467 0
M  V30 502 H 45.9561 -3.51518 -3.34011 0
M  V30 503 N 47.2992 1.18797 -1.03562 0
M  V30 504 C 48.5392 1.90346 -0.744832 0
M  V30 505 C 48.9032 1.78231 0.713972 0
M  V30 506 O 50.1042 2.44441 1.11813 0
M  V30 507 C 48.3752 3.36942 -1.19184 0
M  V30 508 S 49.9342 4.26638 -1.02593 0
M  V30 509 H 46.7522 0.657343 -0.270963 0
M  V30 510 H 49.3542 1.43579 -1.32685 0
M  V30 511 H 48.0582 3.43287 -2.24905 0
M  V30 512 H 47.5892 3.88745 -0.603397 0
M  V30 513 H 49.6042 4.96164 0.0596033 0
M  V30 514 N 48.7773 0.814389 1.34928 0
M  V30 515 C 49.7273 0.202752 2.27097 0
M  V30 516 C 50.7113 -0.62799 1.48139 0
M  V30 517 O 51.9033 -0.483969 1.70255 0
M  V30 518 C 49.0323 -0.64146 3.37254 0
M  V30 519 C 48.1183 0.19944 4.23631 0
M  V30 520 N 48.5093 1.26628 4.89693 0
M  V30 521 C 46.8073 -0.0176433 4.45997 0
M  V30 522 C 47.5083 1.78031 5.53787 0
M  V30 523 N 46.4843 1.08553 5.32651 0
M  V30 524 H 50.2863 1.01893 2.75672 0
M  V30 525 H 47.8003 0.656332 1.48546 0
M  V30 526 H 49.7973 -1.09575 4.02243 0
M  V30 527 H 48.4573 -1.4559 2.9023 0
M  V30 528 H 49.4683 1.64901 4.90946 0
M  V30 529 H 46.1453 -0.800601 4.09752 0
M  V30 530 H 47.5353 2.67236 6.16469 0
M  V30 531 N 50.2554 -1.46986 0.568584 0
M  V30 532 C 51.1874 -2.28233 -0.210337 0
M  V30 533 C 52.2004 -1.37682 -0.868767 0
M  V30 534 O 53.3894 -1.62406 -0.740705 0
M  V30 535 C 50.4894 -3.12293 -1.3163 0
M  V30 536 C 49.6624 -4.30878 -0.7525 0
M  V30 537 C 48.7214 -4.96445 -1.74439 0
M  V30 538 O 47.7474 -5.54482 -1.286 0
M  V30 539 N 48.9494 -4.92171 -3.07812 0
M  V30 540 H 51.7144 -2.95723 0.486648 0
M  V30 541 H 49.2754 -1.56742 0.405409 0
M  V30 542 H 51.2674 -3.53022 -1.97883 0
M  V30 543 H 49.8374 -2.46971 -1.91636 0
M  V30 544 H 49.0574 -3.94104 0.0871128 0
M  V30 545 H 50.3454 -5.07558 -0.35536 0
M  V30 546 H 49.7434 -4.46239 -3.47688 0
M  V30 547 H 48.3004 -5.36884 -3.69592 0
M  V30 548 N 51.7335 -0.305618 -1.54608 0
M  V30 549 C 52.6965 0.555591 -2.22364 0
M  V30 550 C 53.6965 1.05768 -1.21119 0
M  V30 551 O 54.8865 0.952972 -1.45822 0
M  V30 552 C 52.0185 1.76974 -2.91364 0
M  V30 553 H 53.2115 -0.0364572 -2.99878 0
M  V30 554 H 50.7645 -0.0565007 -1.56198 0
M  V30 555 H 51.4995 2.40151 -2.17941 0
M  V30 556 H 51.2845 1.41732 -3.65588 0
M  V30 557 H 52.7745 2.38148 -3.43038 0
M  V30 558 N 53.2116 1.57565 -0.0334293 0
M  V30 559 C 54.1586 2.10478 0.946981 0
M  V30 560 C 55.1286 1.00787 1.32027 0
M  V30 561 O 56.3136 1.28232 1.41284 0
M  V30 562 C 53.4536 2.63994 2.22263 0
M  V30 563 C 52.5666 3.87709 1.90541 0
M  V30 564 C 51.7016 4.29604 3.12433 0
M  V30 565 C 50.7406 5.46065 2.76549 0
M  V30 566 N 49.8776 5.83096 3.9108 0
M  V30 567 H 54.7176 2.93963 0.488846 0
M  V30 568 H 52.2546 1.45296 0.22969 0
M  V30 569 H 54.2126 2.93114 2.96884 0
M  V30 570 H 52.8426 1.83333 2.65685 0
M  V30 571 H 51.8946 3.65291 1.06144 0
M  V30 572 H 53.2066 4.72403 1.60116 0
M  V30 573 H 52.3606 4.60182 3.9537 0
M  V30 574 H 51.0996 3.43685 3.46023 0
M  V30 575 H 50.1046 5.15176 1.92026 0
M  V30 576 H 51.3296 6.33685 2.44171 0
M  V30 577 H 49.2756 5.00132 4.24504 0
M  V30 578 H 49.1926 6.6244 3.64293 0
M  V30 579 H 50.4606 6.18282 4.74708 0
M  V30 580 N 54.6897 -0.239769 1.55765 0
M  V30 581 C 55.9177 -0.98417 1.81994 0
M  V30 582 C 56.3327 -1.7867 0.610124 0
M  V30 583 O 55.6897 -1.77571 -0.421271 0
M  V30 584 C 55.7407 -1.91635 3.06526 0
M  V30 585 O 55.4617 -1.14629 4.22838 0
M  V30 586 C 56.9627 -2.77616 3.45607 0
M  V30 587 H 54.1827 -0.28928 0.605441 0
M  V30 588 H 56.7267 -0.260499 2.02834 0
M  V30 589 H 54.8817 -2.5942 2.87715 0
M  V30 590 H 55.2957 -1.77745 4.93464 0
M  V30 591 H 56.7697 -3.38759 4.35828 0
M  V30 592 H 57.2467 -3.4909 2.6652 0
M  V30 593 H 57.8527 -2.15271 3.66795 0
M  V30 594 N 56.1678 -1.49265 -0.50573 0
M  V30 595 C 57.5788 -1.51769 -1.08734 0
M  V30 596 C 57.9298 -0.301192 -1.93874 0
M  V30 597 O 57.0548 0.589456 -2.08217 0
M  V30 598 C 57.6498 -2.75017 -1.97867 0
M  V30 599 C 56.2088 -2.80314 -2.51199 0
M  V30 600 C 55.3558 -2.4562 -1.28709 0
M  V30 601 H 58.3068 -1.56031 -0.289855 0
M  V30 602 H 58.3278 -2.5491 -2.82491 0
M  V30 603 H 57.8398 -3.63539 -1.35873 0
M  V30 604 H 55.9408 -1.96061 -3.16845 0
M  V30 605 H 56.0538 -3.82366 -2.88675 0
M  V30 606 H 54.4178 -1.97297 -1.61078 0
M  V30 607 H 55.2008 -3.36411 -0.6843 0
M  V30 608 N 57.6459 0.756429 -1.3826 0
M  V30 609 C 58.8919 1.51772 -1.34511 0
M  V30 610 C 59.2249 1.94089 0.0656691 0
M  V30 611 O 58.4999 1.65221 1.02626 0
M  V30 612 C 58.7829 2.77226 -2.29821 0
M  V30 613 C 58.6359 2.41065 -3.79747 0
M  V30 614 C 59.9549 3.79236 -2.23312 0
M  V30 615 H 57.0739 0.550578 -0.489931 0
M  V30 616 H 59.7159 0.866607 -1.69086 0
M  V30 617 H 57.8659 3.32784 -2.00467 0
M  V30 618 H 59.5379 1.91303 -4.19763 0
M  V30 619 H 57.7809 1.7356 -3.97567 0
M  V30 620 H 58.4519 3.3081 -4.41892 0
M  V30 621 H 60.9279 3.3321 -2.49219 0
M  V30 622 H 59.8039 4.64714 -2.92116 0
M  V30 623 H 60.0649 4.24615 -1.23102 0
M  V30 624 N 59.124 1.23083 0.984299 0
M  V30 625 C 60.372 1.05848 1.72165 0
M  V30 626 C 60.693 -0.406049 1.90726 0
M  V30 627 O 59.963 -1.29139 1.47309 0
M  V30 628 H 58.543 0.388685 0.637913 0
M  V30 629 H 61.205 1.54736 1.18503 0
M  V30 630 H 60.301 1.54327 2.71274 0
M  V30 631 N 60.6021 -1.18246 1.0419 0
M  V30 632 C 61.5501 -2.23968 0.627792 0
M  V30 633 C 62.5441 -1.65828 -0.346019 0
M  V30 634 O 63.7501 -1.78733 -0.213175 0
M  V30 635 H 60.1251 -0.728939 0.184802 0
M  V30 636 H 62.0961 -2.56202 1.52981 0
M  V30 637 C 60.8451 -3.47699 0.00796591 0
M  V30 638 H 60.1681 -3.92734 0.748347 0
M  V30 639 H 61.6081 -4.23294 -0.24455 0
M  V30 640 C 60.0671 -3.13153 -1.24246 0
M  V30 641 O 60.5971 -3.27003 -2.33307 0
M  V30 642 N 58.8031 -2.67467 -1.13622 0
M  V30 643 H 58.3501 -2.56396 -0.248734 0
M  V30 644 H 58.3081 -2.44724 -1.97377 0
M  V30 645 N 62.0802 -0.821533 -1.34494 0
M  V30 646 C 63.3082 -0.421884 -2.02553 0
M  V30 647 C 63.7232 0.971745 -1.61872 0
M  V30 648 O 63.0802 1.62864 -0.823496 0
M  V30 649 C 63.1312 -0.51285 -3.57844 0
M  V30 650 O 62.8522 -1.85155 -3.97051 0
M  V30 651 C 64.3532 -0.107921 -4.43169 0
M  V30 652 H 61.5732 -0.169482 -0.649243 0
M  V30 653 H 64.1172 -1.1093 -1.71798 0
M  V30 654 H 62.2722 0.126474 -3.87193 0
M  V30 655 H 62.6862 -1.82482 -4.91732 0
M  V30 656 H 64.1602 -0.222657 -5.51551 0
M  V30 657 H 64.6372 0.948401 -4.28838 0
M  V30 658 H 65.2432 -0.720989 -4.19144 0
M  V30 659 N 63.5583 1.46682 -0.576371 0
M  V30 660 C 64.5213 2.28707 0.150239 0
M  V30 661 C 65.5213 1.38035 0.824794 0
M  V30 662 O 66.7113 1.60476 0.677719 0
M  V30 663 C 63.8433 3.18248 1.22192 0
M  V30 664 H 65.0363 2.94423 -0.570521 0
M  V30 665 H 62.5893 1.52688 -0.334078 0
M  V30 666 H 63.3243 2.57265 1.97447 0
M  V30 667 H 63.1093 3.85 0.742812 0
M  V30 668 H 64.5993 3.80001 1.73172 0
M  V30 669 N 65.0364 0.313813 1.54444 0
M  V30 670 C 65.9994 -0.54379 2.22656 0
M  V30 671 C 66.9994 -1.05124 1.21678 0
M  V30 672 O 68.1894 -0.945225 1.46325 0
M  V30 673 C 65.3214 -1.75427 2.92298 0
M  V30 674 H 66.5144 0.0523599 2.99854 0
M  V30 675 H 64.0674 0.0647834 1.56166 0
M  V30 676 H 64.8024 -2.38991 2.19211 0
M  V30 677 H 64.5874 -1.39791 3.66334 0
M  V30 678 H 66.0774 -2.36325 3.44297 0
M  V30 679 N 66.5145 -1.57545 0.0417849 0
M  V30 680 C 67.7635 -1.91494 -0.633492 0
M  V30 681 C 68.0765 -0.921084 -1.72556 0
M  V30 682 O 69.2825 -1.15228 -2.45835 0
M  V30 683 C 67.7385 -3.40072 -1.17808 0
M  V30 684 C 67.3465 -4.47843 -0.118633 0
M  V30 685 C 69.0905 -3.8307 -1.82915 0
M  V30 686 C 66.9975 -5.87529 -0.675578 0
M  V30 687 H 65.9275 -0.714653 -0.24039 0
M  V30 688 H 68.5785 -1.83175 0.109148 0
M  V30 689 H 66.9605 -3.43364 -1.97274 0
M  V30 690 H 68.1345 -4.56128 0.654494 0
M  V30 691 H 66.4495 -4.14128 0.434414 0
M  V30 692 H 69.0465 -4.84794 -2.25563 0
M  V30 693 H 69.3895 -3.1881 -2.67705 0
M  V30 694 H 69.9225 -3.82255 -1.10119 0
M  V30 695 H 66.6615 -6.55362 0.134475 0
M  V30 696 H 66.1815 -5.82824 -1.4169 0
M  V30 697 H 67.8605 -6.36491 -1.1614 0
M  V30 698 N 67.9926 0.231505 -1.5589 0
M  V30 699 C 69.2326 0.964533 -1.80211 0
M  V30 700 C 69.5966 1.81926 -0.613744 0
M  V30 701 O 70.7976 2.58526 -0.736045 0
M  V30 702 C 69.0686 1.78956 -3.09369 0
M  V30 703 S 70.6276 2.57959 -3.54969 0
M  V30 704 H 67.4456 0.324173 -0.632798 0
M  V30 705 H 70.0476 0.230985 -1.94131 0
M  V30 706 H 68.7516 1.15161 -3.93911 0
M  V30 707 H 68.2826 2.56559 -2.9823 0
M  V30 708 H 70.2976 3.81309 -3.17519 0
M  V30 709 N 69.4707 1.49531 0.497807 0
M  V30 710 C 70.7197 1.58426 1.24837 0
M  V30 711 C 71.0327 0.277643 1.93619 0
M  V30 712 O 72.2387 0.24517 2.70391 0
M  V30 713 C 70.6947 2.79538 2.26686 0
M  V30 714 C 70.3027 4.16971 1.63828 0
M  V30 715 C 72.0467 2.97764 3.0255 0
M  V30 716 C 69.9537 5.29301 2.63807 0
M  V30 717 H 68.8837 0.58989 0.469623 0
M  V30 718 H 71.5347 1.75923 0.521857 0
M  V30 719 H 69.9167 2.55542 3.02514 0
M  V30 720 H 71.0907 4.51116 0.939711 0
M  V30 721 H 69.4057 4.04129 1.00342 0
M  V30 722 H 72.0027 3.78856 3.77323 0
M  V30 723 H 72.3457 2.08448 3.60354 0
M  V30 724 H 72.8787 3.21815 2.33838 0
M  V30 725 H 69.6177 6.20687 2.10779 0
M  V30 726 H 69.1377 4.99606 3.31894 0
M  V30 727 H 70.8167 5.58768 3.2617 0
M  V30 728 N 70.9488 -0.749086 1.3866 0
M  V30 729 C 72.1788 -1.53611 1.38157 0
M  V30 730 C 72.5868 -1.89177 -0.0293595 0
M  V30 731 O 71.9298 -1.53606 -1.00752 0
M  V30 732 C 71.9918 -2.86087 2.17702 0
M  V30 733 C 71.6558 -2.73034 3.66472 0
M  V30 734 C 72.6528 -2.42526 4.59866 0
M  V30 735 C 70.3378 -2.90345 4.09884 0
M  V30 736 C 72.3318 -2.29492 5.94653 0
M  V30 737 C 70.0188 -2.7693 5.4475 0
M  V30 738 C 71.0168 -2.46547 6.36949 0
M  V30 739 O 70.7048 -2.33199 7.69333 0
M  V30 740 H 70.4368 -0.481773 0.474205 0
M  V30 741 H 72.9908 -0.934465 1.82912 0
M  V30 742 H 71.2208 -3.48458 1.67672 0
M  V30 743 H 72.9098 -3.47625 2.09551 0
M  V30 744 H 73.6758 -2.28816 4.27631 0
M  V30 745 H 69.5548 -3.1299 3.38464 0
M  V30 746 H 73.0988 -2.05698 6.66584 0
M  V30 747 H 68.9958 -2.90215 5.76581 0
M  V30 748 H 69.7638 -2.48376 7.79905 0
M  V30 749 N 72.4269 -1.23603 -0.977757 0
M  V30 750 C 73.8379 -1.06424 -1.53398 0
M  V30 751 C 74.1889 0.367578 -1.92726 0
M  V30 752 O 73.3139 1.25465 -1.76316 0
M  V30 753 C 73.9089 -1.92568 -2.78753 0
M  V30 754 C 72.4679 -1.79642 -3.30765 0
M  V30 755 C 71.6149 -1.88111 -2.03739 0
M  V30 756 H 74.5659 -1.37227 -0.797152 0
M  V30 757 H 74.5869 -1.45203 -3.51705 0
M  V30 758 H 74.0989 -2.96771 -2.50098 0
M  V30 759 H 72.1999 -0.782325 -3.64294 0
M  V30 760 H 72.3129 -2.63174 -4.00345 0
M  V30 761 H 70.6769 -1.31723 -2.17994 0
M  V30 762 H 71.4599 -2.93875 -1.77461 0
M  V30 763 N 73.905 1.17692 -1.04816 0
M  V30 764 C 75.321 1.39863 -0.768794 0
M  V30 765 C 75.521 1.91118 0.638451 0
M  V30 766 O 74.577 2.10036 1.40146 0
M  V30 767 C 75.89 2.39274 -1.82122 0
M  V30 768 C 77.438 2.52987 -1.843 0
M  V30 769 C 77.913 3.55669 -2.88555 0
M  V30 770 N 79.404 3.63183 -2.87493 0
M  V30 771 C 80.139 4.42381 -3.64811 0
M  V30 772 N 79.635 5.25125 -4.51903 0
M  V30 773 N 81.428 4.37217 -3.53267 0
M  V30 774 H 73.579 0.82752 -1.95617 0
M  V30 775 H 75.842 0.426123 -0.846831 0
M  V30 776 H 75.548 2.08678 -2.83102 0
M  V30 777 H 75.422 3.38725 -1.65967 0
M  V30 778 H 77.809 2.82896 -0.839869 0
M  V30 779 H 77.89 1.53623 -2.04532 0
M  V30 780 H 77.534 3.26499 -3.89051 0
M  V30 781 H 77.464 4.54728 -2.65575 0
M  V30 782 H 79.955 3.04103 -2.24343 0
M  V30 783 H 80.268 5.82728 -5.07591 0
M  V30 784 H 78.613 5.24519 -4.55966 0
M  V30 785 H 81.804 3.71626 -2.84625 0
M  V30 786 H 81.977 4.98696 -4.13771 0
M  V30 787 N 75.3831 0.828654 1.34056 0
M  V30 788 C 76.6301 0.419458 1.98108 0
M  V30 789 C 76.9581 -1.01886 1.65679 0
M  V30 790 O 76.2131 -1.72539 0.923512 0
M  V30 791 C 76.5121 0.575226 3.52741 0
M  V30 792 C 76.1781 1.98012 4.05095 0
M  V30 793 C 74.8401 2.36442 4.19104 0
M  V30 794 C 77.1921 2.89824 4.33188 0
M  V30 795 C 74.5201 3.66009 4.58535 0
M  V30 796 C 76.8721 4.1886 4.74066 0
M  V30 797 C 75.5361 4.5726 4.86281 0
M  V30 798 H 74.8061 0.153491 0.724929 0
M  V30 799 H 77.4531 1.05371 1.59904 0
M  V30 800 H 75.7581 -0.142385 3.91541 0
M  V30 801 H 77.4551 0.239057 4.00287 0
M  V30 802 H 74.0451 1.67162 3.94658 0
M  V30 803 H 78.2291 2.61375 4.21897 0
M  V30 804 H 73.4851 3.95579 4.66184 0
M  V30 805 H 77.6591 4.90086 4.94761 0
M  V30 806 H 75.2861 5.57707 5.16592 0
M  V30 807 N 76.8612 -1.46375 0.584142 0
M  V30 808 C 78.1102 -2.01585 0.0679741 0
M  V30 809 C 78.4232 -1.46109 -1.30045 0
M  V30 810 O 79.6292 -1.93148 -1.90804 0
M  V30 811 C 78.0852 -3.5983 0.0709207 0
M  V30 812 C 77.6932 -4.24303 1.43775 0
M  V30 813 C 79.4372 -4.22693 -0.391228 0
M  V30 814 C 77.3442 -5.74631 1.39834 0
M  V30 815 H 76.2742 -0.753689 0.0216421 0
M  V30 816 H 78.9252 -1.68093 0.736001 0
M  V30 817 H 77.3072 -3.90405 -0.663299 0
M  V30 818 H 78.4812 -4.05335 2.19181 0
M  V30 819 H 76.7962 -3.73539 1.84004 0
M  V30 820 H 79.3932 -5.3289 -0.439524 0
M  V30 821 H 79.7362 -3.91728 -1.40906 0
M  V30 822 H 80.2692 -3.96749 0.288974 0
M  V30 823 H 77.0082 -6.10258 2.39303 0
M  V30 824 H 76.5282 -5.95858 0.686505 0
M  V30 825 H 78.2072 -6.37375 1.11187 0
M  V30 826 N 78.3393 -0.321999 -1.54275 0
M  V30 827 C 79.7503 0.166384 -1.85957 0
M  V30 828 C 80.1013 1.51747 -1.24367 0
M  V30 829 O 79.2263 2.09317 -0.549124 0
M  V30 830 C 79.8213 0.308681 -3.37391 0
M  V30 831 C 78.3803 0.741286 -3.69028 0
M  V30 832 C 77.5273 -0.137937 -2.76957 0
M  V30 833 H 80.4783 -0.542335 -1.49146 0
M  V30 834 H 80.4993 1.13984 -3.63026 0
M  V30 835 H 80.0113 -0.674809 -3.82188 0
M  V30 836 H 78.1123 1.73458 -3.29762 0
M  V30 837 H 78.2253 0.546118 -4.75977 0
M  V30 838 H 76.5893 0.386251 -2.51754 0
M  V30 839 H 77.3723 -1.11816 -3.2458 0
M  V30 840 N 79.8174 1.5752 -0.0501392 0
M  V30 841 C 81.0664 1.91827 0.623328 0
M  V30 842 C 81.3794 0.930222 1.72065 0
M  V30 843 O 82.5854 1.1653 2.4522 0
M  V30 844 C 81.0414 3.40692 1.16003 0
M  V30 845 C 80.6494 4.479 0.0948811 0
M  V30 846 C 82.3934 3.84034 1.80881 0
M  V30 847 C 80.3004 5.87879 0.644411 0
M  V30 848 H 79.2304 0.715918 0.236596 0
M  V30 849 H 81.8814 1.83115 -0.118861 0
M  V30 850 H 80.2634 3.44405 1.9545 0
M  V30 851 H 81.4374 4.55775 -0.678675 0
M  V30 852 H 79.7524 4.13892 -0.45637 0
M  V30 853 H 82.3494 4.85984 2.22988 0
M  V30 854 H 82.6924 3.20225 2.6601 0
M  V30 855 H 83.2254 3.82833 1.0809 0
M  V30 856 H 79.9644 6.55282 -0.169229 0
M  V30 857 H 79.4844 5.83567 1.38598 0
M  V30 858 H 81.1634 6.37098 1.12763 0
M  V30 859 N 81.2955 -0.223234 1.56011 0
M  V30 860 C 82.2585 -1.26014 1.9145 0
M  V30 861 C 83.2585 -1.3989 0.792937 0
M  V30 862 O 84.4485 -1.38184 1.0607 0
M  V30 863 C 81.5805 -2.63422 2.16383 0
M  V30 864 H 82.7735 -0.95796 2.84189 0
M  V30 865 H 80.3265 -0.463576 1.49267 0
M  V30 866 H 81.0615 -2.98741 1.2619 0
M  V30 867 H 80.8465 -2.54728 2.98088 0
M  V30 868 H 82.3365 -3.38249 2.44903 0
M  V30 869 N 82.7736 -1.49793 -0.48987 0
M  V30 870 C 84.1896 -1.36803 -0.822022 0
M  V30 871 C 84.3896 -0.409652 -1.97292 0
M  V30 872 O 83.4456 0.154614 -2.52026 0
M  V30 873 C 84.7586 -2.77768 -1.15175 0
M  V30 874 C 86.3066 -2.86549 -1.25931 0
M  V30 875 C 86.7816 -4.28306 -1.62228 0
M  V30 876 N 88.2726 -4.31169 -1.69256 0
M  V30 877 C 89.0076 -5.37832 -1.98807 0
M  V30 878 N 88.5036 -6.54726 -2.26507 0
M  V30 879 N 90.2966 -5.25258 -2.00152 0
M  V30 880 H 82.4476 -2.10691 0.268881 0
M  V30 881 H 84.7106 -0.946241 0.057728 0
M  V30 882 H 84.4166 -3.49648 -0.379335 0
M  V30 883 H 84.2906 -3.13836 -2.09253 0
M  V30 884 H 86.6776 -2.14899 -2.02243 0
M  V30 885 H 86.7586 -2.54049 -0.298776 0
M  V30 886 H 86.4026 -5.00486 -0.864622 0
M  V30 887 H 86.3326 -4.58279 -2.594 0
M  V30 888 H 88.8236 -3.4687 -1.49965 0
M  V30 889 H 89.1366 -7.31833 -2.48276 0
M  V30 890 H 87.4816 -6.57933 -2.23939 0
M  V30 891 H 90.6726 -4.32938 -1.77996 0
M  V30 892 H 90.8456 -6.08476 -2.22848 0
M  V30 893 N 84.2517 0.741722 -1.39055 0
M  V30 894 C 85.1987 1.85566 -1.37237 0
M  V30 895 C 86.1687 1.64457 -0.233072 0
M  V30 896 O 87.3537 1.85957 -0.427147 0
M  V30 897 C 84.4937 3.23004 -1.215 0
M  V30 898 C 83.6067 3.55864 -2.44918 0
M  V30 899 C 82.7417 4.82669 -2.21821 0
M  V30 900 C 81.7807 5.08351 -3.40948 0
M  V30 901 N 80.9177 6.26356 -3.17211 0
M  V30 902 H 85.7577 1.86455 -2.32462 0
M  V30 903 H 83.2947 0.911176 -1.15482 0
M  V30 904 H 85.2527 4.02331 -1.10389 0
M  V30 905 H 83.8827 3.21411 -0.29908 0
M  V30 906 H 82.9347 2.7129 -2.66657 0
M  V30 907 H 84.2467 3.70765 -3.33668 0
M  V30 908 H 83.4007 5.69962 -2.07914 0
M  V30 909 H 82.1397 4.69929 -1.30454 0
M  V30 910 H 81.1447 4.19522 -3.55361 0
M  V30 911 H 82.3697 5.22981 -4.33207 0
M  V30 912 H 80.3157 6.14917 -2.28502 0
M  V30 913 H 80.2327 6.41813 -3.99515 0
M  V30 914 H 81.5007 7.16506 -3.06984 0
M  V30 915 N 85.7298 1.2412 0.971189 0
M  V30 916 C 86.9578 1.10575 1.74874 0
M  V30 917 C 87.3728 -0.342017 1.85676 0
M  V30 918 O 86.7298 -1.23617 1.34258 0
M  V30 919 C 86.7808 1.73579 3.171 0
M  V30 920 O 86.5018 3.12695 3.06844 0
M  V30 921 C 88.0028 1.65598 4.11208 0
M  V30 922 H 85.2228 0.386504 0.548503 0
M  V30 923 H 87.7668 1.64156 1.21955 0
M  V30 924 H 85.9218 1.24009 3.67016 0
M  V30 925 H 86.3358 3.43412 3.96445 0
M  V30 926 H 87.8098 2.1437 5.08674 0
M  V30 927 H 88.2868 0.616532 4.34851 0
M  V30 928 H 88.8928 2.14578 3.67201 0
M  V30 929 N 87.2079 -1.17134 1.05439 0
M  V30 930 C 88.1379 -2.2342 0.678649 0
M  V30 931 C 89.1189 -1.66971 -0.32476 0
M  V30 932 O 90.3039 -1.93149 -0.201802 0
M  V30 933 C 87.4339 -3.47256 0.0552099 0
M  V30 934 C 86.3879 -4.16543 0.98365 0
M  V30 935 C 85.7139 -5.34231 0.223961 0
M  V30 936 C 87.0139 -4.68495 2.3089 0
M  V30 937 H 88.7079 -2.55105 1.56722 0
M  V30 938 H 86.2539 -1.2262 0.754998 0
M  V30 939 H 88.2069 -4.20828 -0.21946 0
M  V30 940 H 86.9309 -3.14846 -0.868319 0
M  V30 941 H 85.5899 -3.44887 1.24293 0
M  V30 942 H 85.2379 -4.98071 -0.702412 0
M  V30 943 H 84.9379 -5.81527 0.842627 0
M  V30 944 H 86.4619 -6.10585 -0.0433671 0
M  V30 945 H 87.8759 -5.33691 2.09396 0
M  V30 946 H 86.2729 -5.26379 2.88176 0
M  V30 947 H 87.3429 -3.85169 2.94572 0
M  V30 948 N 88.686 -0.835752 -1.33615 0
M  V30 949 C 89.633 -0.26473 -2.29277 0
M  V30 950 C 90.603 0.617712 -1.54187 0
M  V30 951 O 91.788 0.556641 -1.825 0
M  V30 952 C 88.928 0.556777 -3.40579 0
M  V30 953 C 88.041 -0.349339 -4.30585 0
M  V30 954 C 87.176 0.482969 -5.29 0
M  V30 955 C 86.215 -0.421732 -6.10645 0
M  V30 956 N 85.352 0.372262 -7.01112 0
M  V30 957 H 90.192 -1.08582 -2.77514 0
M  V30 958 H 87.729 -0.546927 -1.36554 0
M  V30 959 H 89.687 1.04852 -4.03809 0
M  V30 960 H 88.317 1.34286 -2.93542 0
M  V30 961 H 87.369 -0.959372 -3.68104 0
M  V30 962 H 88.681 -1.04445 -4.87742 0
M  V30 963 H 87.835 1.03866 -5.97743 0
M  V30 964 H 86.574 1.21153 -4.72412 0
M  V30 965 H 85.579 -0.989464 -5.40823 0
M  V30 966 H 86.804 -1.14861 -6.69316 0
M  V30 967 H 84.75 1.08426 -6.46977 0
M  V30 968 H 84.667 -0.264198 -7.55538 0
M  V30 969 H 85.935 0.910293 -7.74167 0
M  V30 970 N 90.1641 1.46063 -0.591896 0
M  V30 971 C 91.0741 2.34192 0.13831 0
M  V30 972 C 92.0901 1.50305 0.876608 0
M  V30 973 O 93.2661 1.8315 0.837728 0
M  V30 974 C 90.3311 3.27656 1.13326 0
M  V30 975 C 89.3921 4.27445 0.39863 0
M  V30 976 C 88.6251 5.16443 1.34618 0
M  V30 977 O 88.8481 5.08553 2.58321 0
M  V30 978 O 87.7821 5.95843 0.851768 0
M  V30 979 H 91.6081 2.98002 -0.58552 0
M  V30 980 H 89.1931 1.45188 -0.352239 0
M  V30 981 H 91.0751 3.85291 1.70671 0
M  V30 982 H 89.7501 2.6643 1.83839 0
M  V30 983 H 88.6571 3.73471 -0.216895 0
M  V30 984 H 89.9901 4.91482 -0.265709 0
M  V30 985 N 91.6422 0.330177 1.54103 0
M  V30 986 C 92.5742 -0.566902 2.22079 0
M  V30 987 C 93.5872 -1.07462 1.22294 0
M  V30 988 O 94.7762 -0.987065 1.48726 0
M  V30 989 C 91.8762 -1.79138 2.87685 0
M  V30 990 C 91.0492 -1.42123 4.13666 0
M  V30 991 C 90.1082 -2.50394 4.62806 0
M  V30 992 O 89.1342 -2.14261 5.27334 0
M  V30 993 N 90.3362 -3.81433 4.37595 0
M  V30 994 H 93.1012 0.0151844 2.99696 0
M  V30 995 H 90.6622 0.153681 1.61169 0
M  V30 996 H 92.6542 -2.50975 3.1748 0
M  V30 997 H 91.2242 -2.28115 2.13734 0
M  V30 998 H 90.4442 -0.534201 3.90564 0
M  V30 999 H 91.7322 -1.14971 4.9564 0
M  V30 1000 H 91.1302 -4.13584 3.8596 0
M  V30 1001 H 89.6872 -4.4948 4.72029 0
M  V30 1002 N 93.1203 -1.57491 0.0584922 0
M  V30 1003 C 94.3683 -1.92597 -0.612436 0
M  V30 1004 C 94.6893 -0.938162 -1.70949 0
M  V30 1005 O 93.9593 0.0158301 -1.95894 0
M  V30 1006 H 92.5393 -0.710964 -0.229214 0
M  V30 1007 H 95.2013 -1.94571 0.113218 0
M  V30 1008 H 94.2973 -2.94038 -1.04633 0
M  V30 1009 N 94.5984 0.214957 -1.56127 0
M  V30 1010 C 95.8264 0.955092 -1.83536 0
M  V30 1011 C 96.2414 1.77677 -0.638472 0
M  V30 1012 O 95.5984 1.78219 0.392968 0
M  V30 1013 C 95.6494 1.86734 -3.09536 0
M  V30 1014 O 95.3704 1.07887 -4.24608 0
M  V30 1015 C 96.8714 2.72082 -3.4998 0
M  V30 1016 H 94.0914 0.279611 -0.609966 0
M  V30 1017 H 96.6354 0.228197 -2.03223 0
M  V30 1018 H 94.7904 2.5481 -2.91806 0
M  V30 1019 H 95.2044 1.69872 -4.9623 0
M  V30 1020 H 96.6784 3.31782 -4.41163 0
M  V30 1021 H 97.1554 3.44806 -2.7204 0
M  V30 1022 H 97.7614 2.09409 -3.70173 0
M  V30 1023 N 96.0765 1.50051 0.48192 0
M  V30 1024 C 97.4875 1.5348 1.06305 0
M  V30 1025 C 97.8385 0.331997 1.93371 0
M  V30 1026 O 96.9635 -0.556256 2.09129 0
M  V30 1027 C 97.5585 2.7813 1.93466 0
M  V30 1028 C 96.1175 2.84275 2.46707 0
M  V30 1029 C 95.2645 2.47637 1.24785 0
M  V30 1030 H 98.2155 1.56472 0.264995 0
M  V30 1031 H 98.2365 2.59372 2.78399 0
M  V30 1032 H 97.7485 3.65654 1.30072 0
M  V30 1033 H 95.8495 2.01077 3.13686 0
M  V30 1034 H 95.9625 3.8691 2.82555 0
M  V30 1035 H 94.3265 1.99835 1.57918 0
M  V30 1036 H 95.1095 3.37457 0.630694 0
M  V30 1037 N 97.5546 -0.734337 1.39446 0
M  V30 1038 C 98.4646 -1.87879 1.40495 0
M  V30 1039 C 99.4806 -1.714 0.299672 0
M  V30 1040 O 100.657 -1.93991 0.541249 0
M  V30 1041 C 97.7216 -3.23477 1.24754 0
M  V30 1042 C 96.7826 -3.52344 2.45259 0
M  V30 1043 C 96.0156 -4.81473 2.30259 0
M  V30 1044 O 96.2386 -5.55237 1.30643 0
M  V30 1045 O 95.1726 -5.10254 3.19256 0
M  V30 1046 H 98.9986 -1.89949 2.36966 0
M  V30 1047 H 96.5836 -0.882243 1.20569 0
M  V30 1048 H 98.4656 -4.04509 1.18111 0
M  V30 1049 H 97.1406 -3.22176 0.313781 0
M  V30 1050 H 96.0476 -2.71396 2.57478 0
M  V30 1051 H 97.3806 -3.58426 3.37331 0
M  V30 1052 N 99.0327 -1.24633 -0.964593 0
M  V30 1053 C 100.282 -1.08188 -1.7023 0
M  V30 1054 C 100.595 0.37873 -1.91898 0
M  V30 1055 O 101.801 0.663427 -2.6327 0
M  V30 1056 C 100.257 -1.88773 -3.06419 0
M  V30 1057 C 99.8647 -3.39263 -2.92582 0
M  V30 1058 C 101.609 -1.80867 -3.84041 0
M  V30 1059 C 99.5157 -4.1218 -4.24101 0
M  V30 1060 H 98.4457 -0.401245 -0.638372 0
M  V30 1061 H 101.097 -1.48742 -1.07462 0
M  V30 1062 H 99.4787 -1.41035 -3.70034 0
M  V30 1063 H 100.653 -3.94603 -2.37961 0
M  V30 1064 H 98.9677 -3.48154 -2.28424 0
M  V30 1065 H 101.565 -2.32646 -4.81435 0
M  V30 1066 H 101.908 -0.774543 -4.09031 0
M  V30 1067 H 102.441 -2.26301 -3.27159 0
M  V30 1068 H 99.1797 -5.15965 -4.04303 0
M  V30 1069 H 98.6997 -3.61626 -4.78526 0
M  V30 1070 H 100.379 -4.19349 -4.92702 0
M  V30 1071 N 100.511 1.16574 -1.06058 0
M  V30 1072 C 101.927 1.3904 -0.783585 0
M  V30 1073 C 102.127 1.91784 0.618145 0
M  V30 1074 O 101.183 2.11511 1.37911 0
M  V30 1075 C 102.496 2.37329 -1.84649 0
M  V30 1076 C 104.044 2.51018 -1.86973 0
M  V30 1077 C 104.519 3.52588 -2.92311 0
M  V30 1078 N 106.01 3.60113 -2.91329 0
M  V30 1079 C 106.745 4.38486 -3.69482 0
M  V30 1080 N 106.241 5.20302 -4.57447 0
M  V30 1081 N 108.034 4.33446 -3.57885 0
M  V30 1082 H 100.185 0.806725 -1.96483 0
M  V30 1083 H 102.448 0.417117 -0.851303 0
M  V30 1084 H 102.154 2.05663 -2.85299 0
M  V30 1085 H 102.028 3.36946 -1.6955 0
M  V30 1086 H 104.415 2.81989 -0.869827 0
M  V30 1087 H 104.496 1.51445 -2.0615 0
M  V30 1088 H 104.14 3.22354 -3.92492 0
M  V30 1089 H 104.07 4.51886 -2.70383 0
M  V30 1090 H 106.561 3.01707 -2.27555 0
M  V30 1091 H 106.874 5.77311 -5.13743 0
M  V30 1092 H 105.219 5.19653 -4.61503 0
M  V30 1093 H 108.41 3.68586 -2.88551 0
M  V30 1094 H 108.583 4.94279 -4.19037 0
M  V30 1095 N 101.989 0.842826 1.3317 0
M  V30 1096 C 103.238 0.436738 1.96915 0
M  V30 1097 C 103.551 -1.01025 1.67491 0
M  V30 1098 O 104.757 -1.5212 2.24881 0
M  V30 1099 C 103.213 0.730021 3.52418 0
M  V30 1100 C 102.821 2.19195 3.90714 0
M  V30 1101 C 104.565 0.391076 4.22695 0
M  V30 1102 C 102.472 2.42907 5.39212 0
M  V30 1103 H 101.402 0.15958 0.736919 0
M  V30 1104 H 104.053 1.03196 1.51733 0
M  V30 1105 H 102.435 0.0643755 3.95948 0
M  V30 1106 H 103.609 2.8984 3.58231 0
M  V30 1107 H 101.924 2.49425 3.33431 0
M  V30 1108 H 104.521 0.545817 5.31907 0
M  V30 1109 H 104.864 -0.666294 4.10933 0
M  V30 1110 H 105.397 1.01212 3.84709 0
M  V30 1111 H 102.136 3.47224 5.55982 0
M  V30 1112 H 101.656 1.76827 5.73142 0
M  V30 1113 H 103.335 2.2626 6.06148 0
M  V30 1114 N 103.467 -1.45747 0.599634 0
M  V30 1115 C 104.43 -2.28917 -0.113835 0
M  V30 1116 C 105.43 -1.3933 -0.802729 0
M  V30 1117 O 106.62 -1.61534 -0.652103 0
M  V30 1118 C 103.752 -3.20152 -1.17114 0
M  V30 1119 H 104.945 -2.93478 0.617289 0
M  V30 1120 H 102.498 -1.52137 0.358327 0
M  V30 1121 H 103.233 -2.60374 -1.93329 0
M  V30 1122 H 103.018 -3.86133 -0.681468 0
M  V30 1123 H 104.508 -3.82708 -1.67105 0
M  V30 1124 N 104.945 -0.338344 -1.53925 0
M  V30 1125 C 106.173 0.261298 -2.05243 0
M  V30 1126 C 106.588 1.44625 -1.21363 0
M  V30 1127 O 105.945 1.80811 -0.247736 0
M  V30 1128 C 105.996 0.681412 -3.5502 0
M  V30 1129 O 105.717 -0.456414 -4.35716 0
M  V30 1130 C 107.218 1.34232 -4.22489 0
M  V30 1131 H 104.438 0.0513685 -0.669031 0
M  V30 1132 H 106.982 -0.488822 -1.98572 0
M  V30 1133 H 105.137 1.38148 -3.61931 0
M  V30 1134 H 105.551 -0.122564 -5.24357 0
M  V30 1135 H 107.025 1.58708 -5.28693 0
M  V30 1136 H 107.502 2.29426 -3.74514 0
M  V30 1137 H 108.108 0.684424 -4.19757 0
M  V30 1138 N 106.423 1.57458 -0.0668435 0
M  V30 1139 C 107.669 1.93587 0.6043 0
M  V30 1140 C 108.002 0.946722 1.69561 0
M  V30 1141 O 107.277 -0.0248516 1.94484 0
M  V30 1142 C 107.56 3.40014 1.18585 0
M  V30 1143 C 107.413 4.49685 0.101529 0
M  V30 1144 C 108.732 3.87154 2.09284 0
M  V30 1145 H 105.851 0.703958 0.218202 0
M  V30 1146 H 108.493 1.89542 -0.131804 0
M  V30 1147 H 106.643 3.43592 1.81319 0
M  V30 1148 H 108.315 4.5823 -0.531279 0
M  V30 1149 H 106.558 4.30059 -0.568487 0
M  V30 1150 H 107.229 5.49266 0.54874 0
M  V30 1151 H 109.705 3.85551 1.56491 0
M  V30 1152 H 108.581 4.90231 2.46911 0
M  V30 1153 H 108.842 3.2481 2.99918 0
M  V30 1154 N 107.901 -0.206675 1.56239 0
M  V30 1155 C 109.129 -0.945345 1.8404 0
M  V30 1156 C 109.544 -1.77336 0.647885 0
M  V30 1157 O 108.901 -1.78425 -0.383511 0
M  V30 1158 C 108.952 -1.8509 3.10522 0
M  V30 1159 O 108.673 -1.05634 4.25174 0
M  V30 1160 C 110.174 -2.70222 3.51418 0
M  V30 1161 H 107.394 -0.276372 0.61144 0
M  V30 1162 H 109.938 -0.217417 2.03341 0
M  V30 1163 H 108.093 -2.53259 2.93153 0
M  V30 1164 H 108.507 -1.67238 4.97124 0
M  V30 1165 H 109.981 -3.29438 4.42916 0
M  V30 1166 H 110.458 -3.43358 2.73864 0
M  V30 1167 H 111.064 -2.07443 3.71278 0
M  V30 1168 N 109.379 -1.50304 -0.473955 0
M  V30 1169 C 110.327 -1.69482 -1.59307 0
M  V30 1170 C 111.321 -0.560669 -1.59853 0
M  V30 1171 O 112.527 -0.741087 -1.64036 0
M  V30 1172 H 108.902 -0.534892 -0.528578 0
M  V30 1173 H 110.873 -2.63364 -1.40293 0
M  V30 1174 C 109.622 -1.80354 -2.97267 0
M  V30 1175 H 108.945 -2.67012 -2.97564 0
M  V30 1176 H 110.385 -1.97798 -3.75036 0
M  V30 1177 C 108.844 -0.55448 -3.32306 0
M  V30 1178 O 109.374 0.307661 -4.0052 0
M  V30 1179 N 107.58 -0.409354 -2.87702 0
M  V30 1180 H 107.127 -1.11196 -2.32364 0
M  V30 1181 H 107.085 0.425223 -3.11511 0
M  V30 1182 N 110.857 0.726932 -1.39834 0
M  V30 1183 C 112.104 1.48664 -1.37496 0
M  V30 1184 C 112.432 1.94482 0.0264678 0
M  V30 1185 O 111.687 1.67692 1.00886 0
M  V30 1186 C 111.986 2.73495 -2.30077 0
M  V30 1187 C 111.652 2.46502 -3.77555 0
M  V30 1188 C 110.314 2.3885 -4.17737 0
M  V30 1189 C 112.666 2.23604 -4.70798 0
M  V30 1190 C 109.994 2.06352 -5.49214 0
M  V30 1191 C 112.346 1.92622 -6.02561 0
M  V30 1192 C 111.01 1.83444 -6.41798 0
M  V30 1193 H 110.28 0.544001 -0.503135 0
M  V30 1194 H 112.927 0.833657 -1.72402 0
M  V30 1195 H 111.232 3.43575 -1.88317 0
M  V30 1196 H 112.929 3.31549 -2.25558 0
M  V30 1197 H 109.519 2.5334 -3.45712 0
M  V30 1198 H 113.703 2.28479 -4.40581 0
M  V30 1199 H 108.959 1.97776 -5.78528 0
M  V30 1200 H 113.133 1.73914 -6.74334 0
M  V30 1201 H 110.76 1.58029 -7.43593 0
M  V30 1202 N 112.336 1.25143 0.95797 0
M  V30 1203 C 113.747 1.08851 1.51685 0
M  V30 1204 C 114.098 -0.33687 1.93286 0
M  V30 1205 O 113.223 -1.22644 1.7829 0
M  V30 1206 C 113.818 1.96978 2.75654 0
M  V30 1207 C 112.377 1.84881 3.27866 0
M  V30 1208 C 111.524 1.91329 2.0072 0
M  V30 1209 H 114.475 1.38478 0.77522 0
M  V30 1210 H 114.496 1.5078 3.4935 0
M  V30 1211 H 114.008 3.00712 2.45345 0
M  V30 1212 H 112.109 0.840182 3.63004 0
M  V30 1213 H 112.222 2.6951 3.96107 0
M  V30 1214 H 110.586 1.35174 2.15871 0
M  V30 1215 H 111.369 2.96661 1.72764 0
M  V30 1216 N 113.814 -1.1601 1.06675 0
M  V30 1217 C 114.764 -2.18512 0.650888 0
M  V30 1218 C 115.748 -1.57677 -0.320441 0
M  V30 1219 O 116.94 -1.76482 -0.135266 0
M  V30 1220 C 114.069 -3.43273 0.0429255 0
M  V30 1221 C 113.155 -4.11176 1.03898 0
M  V30 1222 N 113.546 -4.54672 2.216 0
M  V30 1223 C 111.844 -4.37417 0.870779 0
M  V30 1224 C 112.545 -5.07248 2.84736 0
M  V30 1225 N 111.521 -5.0037 2.12441 0
M  V30 1226 H 115.323 -2.49863 1.54745 0
M  V30 1227 H 112.837 -1.32503 0.938975 0
M  V30 1228 H 114.834 -4.16006 -0.272857 0
M  V30 1229 H 113.494 -3.13408 -0.84884 0
M  V30 1230 H 114.505 -4.4828 2.59356 0
M  V30 1231 H 111.182 -4.17488 0.0313293 0
M  V30 1232 H 112.572 -5.50912 3.84636 0
M  V30 1233 N 115.292 -0.849877 -1.32721 0
M  V30 1234 C 116.54 -0.450032 -1.97026 0
M  V30 1235 C 116.861 0.996604 -1.67609 0
M  V30 1236 O 116.131 1.6958 -0.980786 0
M  V30 1237 H 114.711 -0.163426 -0.728904 0
M  V30 1238 H 117.373 -1.08526 -1.6189 0
M  V30 1239 H 116.469 -0.591146 -3.0645 0
M  V30 1240 N 116.77 1.45427 -0.607355 0
M  V30 1241 C 117.718 2.32269 0.12411 0
M  V30 1242 C 118.712 1.45955 0.859854 0
M  V30 1243 O 119.918 1.6244 0.775447 0
M  V30 1244 H 116.293 0.749691 0.0588839 0
M  V30 1245 H 118.264 2.91743 -0.626762 0
M  V30 1246 C 117.013 3.29567 1.1082 0
M  V30 1247 H 116.336 3.95978 0.551492 0
M  V30 1248 H 117.776 3.93061 1.58995 0
M  V30 1249 C 116.235 2.56722 2.18164 0
M  V30 1250 O 116.765 2.34842 3.25902 0
M  V30 1251 N 114.971 2.16861 1.93442 0
M  V30 1252 H 114.518 2.34855 1.05834 0
M  V30 1253 H 114.476 1.68444 2.65469 0
M  V30 1254 N 118.248 0.346503 1.53744 0
M  V30 1255 C 119.525 -0.304532 1.93215 0
M  V30 1256 C 119.905 -1.67993 1.27834 0
M  V30 1257 O 119.253 -2.24411 0.430352 0
M  V30 1258 C 119.463 -0.373852 3.46992 0
M  V30 1259 C 120.811 -0.62329 4.2 0
M  V30 1260 O 121.835 -0.455847 3.53271 0
M  V30 1261 O 120.694 -0.947879 5.38217 0
M  V30 1262 H 117.788 -0.178318 0.807547 0
M  V30 1263 H 120.334 0.397895 1.64969 0
M  V30 1264 H 119.106 0.591224 3.86808 0
M  V30 1265 H 118.729 -1.12294 3.81413 0
M  V30 1266 N 119.726 -1.57421 0.075193 0
M  V30 1267 C 121.003 -1.85029 -0.634329 0
M  V30 1268 C 121.383 -0.968305 -1.87582 0
M  V30 1269 O 120.731 -0.0354749 -2.28472 0
M  V30 1270 C 120.941 -3.35286 -0.968742 0
M  V30 1271 C 122.289 -4.02875 -1.34077 0
M  V30 1272 O 123.313 -3.40051 -1.06037 0
M  V30 1273 O 122.172 -5.13691 -1.86506 0
M  V30 1274 H 119.266 -0.7645 -0.315387 0
M  V30 1275 H 121.812 -1.69366 0.106382 0
M  V30 1276 H 120.584 -3.91203 -0.0871376 0
M  V30 1277 H 120.207 -3.56223 -1.7661 0
M  V30 1278 N 121.204 0.198386 -1.56346 0
M  V30 1279 C 122.453 0.917451 -1.79627 0
M  V30 1280 C 122.766 1.8456 -0.64784 0
M  V30 1281 O 123.972 2.60504 -0.764859 0
M  V30 1282 C 122.428 1.68175 -3.18191 0
M  V30 1283 C 122.036 0.798589 -4.40825 0
M  V30 1284 C 123.78 2.39065 -3.50782 0
M  V30 1285 C 121.687 1.56157 -5.70411 0
M  V30 1286 H 120.617 0.346317 -0.669762 0
M  V30 1287 H 123.268 0.170801 -1.82703 0
M  V30 1288 H 121.65 2.47216 -3.09354 0
M  V30 1289 H 122.824 0.0470665 -4.60776 0
M  V30 1290 H 121.139 0.200686 -4.15916 0
M  V30 1291 H 123.736 2.96692 -4.44835 0
M  V30 1292 H 124.079 3.13091 -2.74371 0
M  V30 1293 H 124.612 1.66993 -3.61052 0
M  V30 1294 H 121.351 0.864142 -6.49779 0
M  V30 1295 H 120.871 2.2871 -5.54483 0
M  V30 1296 H 122.55 2.11622 -6.11412 0
M  V30 1297 N 122.682 1.50554 0.465978 0
M  V30 1298 C 123.959 1.5232 1.22712 0
M  V30 1299 C 124.339 0.270807 2.09356 0
M  V30 1300 O 123.687 -0.745541 2.15995 0
M  V30 1301 C 123.897 2.82175 2.05374 0
M  V30 1302 C 125.245 3.33033 2.6339 0
M  V30 1303 O 126.269 2.83531 2.15612 0
M  V30 1304 O 125.128 4.19336 3.50456 0
M  V30 1305 H 122.222 0.611183 0.557122 0
M  V30 1306 H 124.768 1.62847 0.477381 0
M  V30 1307 H 123.54 3.64797 1.41558 0
M  V30 1308 H 123.163 2.74675 2.87471 0
M  V30 1309 N 124.16 -0.719506 1.40217 0
M  V30 1310 C 125.409 -1.47486 1.37589 0
M  V30 1311 C 125.722 -1.9559 -0.0201568 0
M  V30 1312 O 126.928 -2.70973 -0.169049 0
M  V30 1313 C 125.384 -2.66575 2.41796 0
M  V30 1314 C 124.992 -2.25358 3.87192 0
M  V30 1315 C 126.736 -3.4433 2.48269 0
M  V30 1316 C 124.643 -3.41262 4.83005 0
M  V30 1317 H 123.573 -0.553901 0.511576 0
M  V30 1318 H 126.224 -0.783427 1.65936 0
M  V30 1319 H 124.606 -3.3787 2.06543 0
M  V30 1320 H 125.78 -1.61509 4.31569 0
M  V30 1321 H 124.095 -1.60657 3.84159 0
M  V30 1322 H 126.692 -4.30569 3.17041 0
M  V30 1323 H 127.035 -3.87872 1.51198 0
M  V30 1324 H 127.568 -2.80076 2.82493 0
M  V30 1325 H 124.307 -3.02755 5.81394 0
M  V30 1326 H 123.827 -4.0404 4.43297 0
M  V30 1327 H 125.506 -4.07383 5.02641 0
M  V30 1328 N 125.638 -1.25649 -0.95132 0
M  V30 1329 C 126.601 -1.06399 -2.03007 0
M  V30 1330 C 127.601 -0.0156794 -1.60792 0
M  V30 1331 O 128.791 -0.25817 -1.72276 0
M  V30 1332 C 125.923 -0.616184 -3.35285 0
M  V30 1333 H 127.116 -2.02164 -2.21517 0
M  V30 1334 H 124.669 -1.08103 -1.12887 0
M  V30 1335 H 125.404 0.343917 -3.22471 0
M  V30 1336 H 125.189 -1.37301 -3.67275 0
M  V30 1337 H 126.679 -0.503032 -4.14559 0
M  V30 1338 N 127.117 1.15442 -1.07289 0
M  V30 1339 C 128.047 2.22312 -0.714107 0
M  V30 1340 C 129.028 1.67467 0.298155 0
M  V30 1341 O 130.213 1.93445 0.171048 0
M  V30 1342 C 127.343 3.47124 -0.110448 0
M  V30 1343 C 126.297 4.14926 -1.04979 0
M  V30 1344 C 125.623 5.33807 -0.308924 0
M  V30 1345 C 126.923 4.64762 -2.38314 0
M  V30 1346 H 128.617 2.5258 -1.6076 0
M  V30 1347 H 126.163 1.21404 -0.77441 0
M  V30 1348 H 128.116 4.21124 0.152482 0
M  V30 1349 H 126.84 3.16187 0.81812 0
M  V30 1350 H 125.499 3.42866 -1.29764 0
M  V30 1351 H 125.147 4.99126 0.623084 0
M  V30 1352 H 124.847 5.80113 -0.935036 0
M  V30 1353 H 126.371 6.10576 -0.0537771 0
M  V30 1354 H 127.785 5.30292 -2.1786 0
M  V30 1355 H 126.182 5.21728 -2.96514 0
M  V30 1356 H 127.252 3.80434 -3.00663 0
M  V30 1357 N 128.595 0.856903 1.32268 0
M  V30 1358 C 129.558 0.308171 2.27119 0
M  V30 1359 C 130.558 -0.533421 1.51695 0
M  V30 1360 O 131.748 -0.344607 1.70757 0
M  V30 1361 C 128.88 -0.563757 3.36206 0
M  V30 1362 H 130.073 1.14535 2.77167 0
M  V30 1363 H 127.626 0.631421 1.42978 0
M  V30 1364 H 128.361 -1.42266 2.91429 0
M  V30 1365 H 128.146 0.0386749 3.92081 0
M  V30 1366 H 129.636 -0.940386 4.06874 0
M  V30 1367 N 130.073 -1.45103 0.615059 0
M  V30 1368 C 130.983 -2.34382 -0.101034 0
M  V30 1369 C 131.999 -1.51681 -0.852585 0
M  V30 1370 O 133.175 -1.8446 -0.808484 0
M  V30 1371 C 130.24 -3.29417 -1.08099 0
M  V30 1372 C 129.301 -4.28025 -0.330577 0
M  V30 1373 C 128.534 -5.1852 -1.26385 0
M  V30 1374 O 128.757 -5.12598 -2.50198 0
M  V30 1375 O 127.691 -5.97122 -0.756866 0
M  V30 1376 H 131.517 -2.97033 0.632855 0
M  V30 1377 H 129.102 -1.4461 0.375293 0
M  V30 1378 H 130.984 -3.87958 -1.6452 0
M  V30 1379 H 129.659 -2.69321 -1.79577 0
M  V30 1380 H 128.566 -3.73078 0.276283 0
M  V30 1381 H 129.899 -4.90997 0.343866 0
M  V30 1382 N 131.551 -0.354651 -1.53558 0
M  V30 1383 C 132.779 0.239515 -2.05509 0
M  V30 1384 C 133.194 1.4333 -1.2289 0
M  V30 1385 O 132.551 1.80538 -0.266899 0
M  V30 1386 C 132.602 0.643719 -3.55723 0
M  V30 1387 O 132.323 -0.502602 -4.35207 0
M  V30 1388 C 133.824 1.29743 -4.23889 0
M  V30 1389 H 131.044 0.0442697 -0.669538 0
M  V30 1390 H 133.588 -0.509856 -1.98042 0
M  V30 1391 H 131.743 1.34302 -3.63376 0
M  V30 1392 H 132.157 -0.178172 -5.24197 0
M  V30 1393 H 133.631 1.53091 -5.30346 0
M  V30 1394 H 134.108 2.25441 -3.76926 0
M  V30 1395 H 134.714 0.639865 -4.20459 0
M  V30 1396 N 133.029 1.57378 -0.0835403 0
M  V30 1397 C 134.445 1.57246 0.273109 0
M  V30 1398 C 134.645 1.09385 1.69225 0
M  V30 1399 O 133.701 0.765051 2.40631 0
M  V30 1400 C 135.014 3.00614 0.0720628 0
M  V30 1401 C 136.562 3.12684 0.1407 0
M  V30 1402 C 137.037 4.57989 -0.0322094 0
M  V30 1403 N 138.528 4.63194 0.0230085 0
M  V30 1404 C 139.263 5.73335 -0.0861941 0
M  V30 1405 N 138.759 6.9235 -0.24958 0
M  V30 1406 N 140.552 5.62093 -0.0282886 0
M  V30 1407 H 132.703 1.86801 -1.0109 0
M  V30 1408 H 134.966 0.861687 -0.395222 0
M  V30 1409 H 134.672 3.39786 -0.907662 0
M  V30 1410 H 134.546 3.68193 0.81936 0
M  V30 1411 H 136.933 2.73391 1.11092 0
M  V30 1412 H 137.014 2.47719 -0.637896 0
M  V30 1413 H 136.658 4.97973 -0.999247 0
M  V30 1414 H 136.588 5.21 0.765937 0
M  V30 1415 H 139.079 3.77613 0.14722 0
M  V30 1416 H 139.392 7.72117 -0.324733 0
M  V30 1417 H 137.737 6.94415 -0.285097 0
M  V30 1418 H 140.928 4.67997 0.0981408 0
M  V30 1419 H 141.101 6.47895 -0.116845 0
M  V30 1420 N 134.507 -0.190092 1.56449 0
M  V30 1421 C 135.47 -1.21925 1.9408 0
M  V30 1422 C 136.47 -1.38176 0.822431 0
M  V30 1423 O 137.66 -1.35903 1.08977 0
M  V30 1424 C 134.792 -2.58773 2.21922 0
M  V30 1425 H 135.985 -0.897464 2.86157 0
M  V30 1426 H 133.538 -0.43181 1.50217 0
M  V30 1427 H 134.273 -2.95998 1.32499 0
M  V30 1428 H 134.058 -2.48348 3.03424 0
M  V30 1429 H 135.548 -3.32978 2.52022 0
M  V30 1430 N 135.985 -1.50799 -0.457987 0
M  V30 1431 C 136.948 -1.7005 -1.53674 0
M  V30 1432 C 137.948 -0.570881 -1.50325 0
M  V30 1433 O 139.138 -0.838126 -1.52712 0
M  V30 1434 C 136.27 -1.73788 -2.93276 0
M  V30 1435 H 137.463 -2.66306 -1.37917 0
M  V30 1436 H 135.016 -1.40477 -0.685271 0
M  V30 1437 H 135.751 -0.792717 -3.14462 0
M  V30 1438 H 135.536 -2.55864 -2.97113 0
M  V30 1439 H 137.026 -1.90591 -3.71571 0
M  V30 1440 N 137.463 0.71206 -1.40597 0
M  V30 1441 C 138.712 1.46754 -1.38369 0
M  V30 1442 C 139.025 1.95598 0.0097839 0
M  V30 1443 O 140.231 2.71059 0.154677 0
M  V30 1444 C 138.687 2.65289 -2.43207 0
M  V30 1445 C 138.295 2.23301 -3.88382 0
M  V30 1446 C 140.039 3.43008 -2.50091 0
M  V30 1447 C 137.946 3.38696 -4.84808 0
M  V30 1448 H 136.876 0.55118 -0.514506 0
M  V30 1449 H 139.527 0.774616 -1.66349 0
M  V30 1450 H 137.909 3.36769 -2.08332 0
M  V30 1451 H 139.083 1.59218 -4.32419 0
M  V30 1452 H 137.398 1.58618 -3.85006 0
M  V30 1453 H 139.995 4.28881 -3.1932 0
M  V30 1454 H 140.338 3.87065 -1.53253 0
M  V30 1455 H 140.871 2.78574 -2.83974 0
M  V30 1456 H 137.61 2.99668 -5.82992 0
M  V30 1457 H 137.13 4.01683 -4.45433 0
M  V30 1458 H 138.809 4.04712 -5.04794 0
M  V30 1459 N 138.941 1.26152 0.944643 0
M  V30 1460 C 139.904 1.07474 2.0244 0
M  V30 1461 C 140.904 0.0242064 1.60782 0
M  V30 1462 O 142.094 0.267302 1.72137 0
M  V30 1463 C 139.226 0.633956 3.34953 0
M  V30 1464 H 140.419 2.03336 2.20442 0
M  V30 1465 H 137.972 1.087 1.12312 0
M  V30 1466 H 138.707 -0.326811 3.22649 0
M  V30 1467 H 138.492 1.39247 3.66542 0
M  V30 1468 H 139.982 0.52501 4.14287 0
M  V30 1469 N 140.419 -1.14872 1.07899 0
M  V30 1470 C 141.649 -1.89386 0.825631 0
M  V30 1471 C 142.057 -1.78565 -0.625406 0
M  V30 1472 O 141.4 -1.13918 -1.44113 0
M  V30 1473 C 141.462 -3.40206 1.16191 0
M  V30 1474 C 141.126 -3.74812 2.61467 0
M  V30 1475 C 142.123 -3.75367 3.59716 0
M  V30 1476 C 139.808 -4.0495 2.97189 0
M  V30 1477 C 141.802 -4.05574 4.9172 0
M  V30 1478 C 139.489 -4.34821 4.29388 0
M  V30 1479 C 140.487 -4.35116 5.26463 0
M  V30 1480 O 140.175 -4.64267 6.56286 0
M  V30 1481 H 139.907 -0.606894 0.297751 0
M  V30 1482 H 142.461 -1.46438 1.44031 0
M  V30 1483 H 140.691 -3.8358 0.490214 0
M  V30 1484 H 142.38 -3.96018 0.890193 0
M  V30 1485 H 143.146 -3.52176 3.33462 0
M  V30 1486 H 139.025 -4.03876 2.22273 0
M  V30 1487 H 142.569 -4.05719 5.67484 0
M  V30 1488 H 138.466 -4.5748 4.55392 0
M  V30 1489 H 139.234 -4.82007 6.61522 0
M  V30 1490 N 141.898 -0.863906 -1.31812 0
M  V30 1491 C 143.146 -0.470904 -1.96537 0
M  V30 1492 C 143.467 0.978771 -1.68657 0
M  V30 1493 O 142.737 1.6853 -0.998717 0
M  V30 1494 H 141.317 -0.171148 -0.72713 0
M  V30 1495 H 143.979 -1.10236 -1.60729 0
M  V30 1496 H 143.075 -0.623616 -3.05806 0
M  V30 1497 N 143.376 1.44774 -0.622745 0
M  V30 1498 C 144.339 2.29069 0.0774015 0
M  V30 1499 C 145.339 1.4059 0.780461 0
M  V30 1500 O 146.529 1.62551 0.626322 0
M  V30 1501 C 143.661 3.21974 1.12006 0
M  V30 1502 H 144.854 2.92459 -0.663901 0
M  V30 1503 H 142.407 1.51548 -0.382486 0
M  V30 1504 H 143.142 2.63417 1.89162 0
M  V30 1505 H 142.927 3.87168 0.619951 0
M  V30 1506 H 144.417 3.85318 1.60995 0
M  V30 1507 N 144.854 0.36279 1.53368 0
M  V30 1508 C 146.131 -0.284021 1.93527 0
M  V30 1509 C 146.511 -1.66628 1.29608 0
M  V30 1510 O 145.859 -2.23942 0.45413 0
M  V30 1511 C 146.069 -0.337028 3.47369 0
M  V30 1512 C 147.417 -0.578708 4.20638 0
M  V30 1513 O 148.441 -0.418352 3.53735 0
M  V30 1514 O 147.3 -0.89074 5.39192 0
M  V30 1515 H 144.394 -0.169743 0.809393 0
M  V30 1516 H 146.94 0.41537 1.64538 0
M  V30 1517 H 145.712 0.632217 3.86159 0
M  V30 1518 H 145.335 -1.08243 3.82582 0
M  V30 1519 N 146.332 -1.57332 0.0918853 0
M  V30 1520 C 147.242 -2.17368 -0.882505 0
M  V30 1521 C 148.258 -1.14226 -1.31257 0
M  V30 1522 O 149.434 -1.46582 -1.38115 0
M  V30 1523 C 146.499 -2.73962 -2.12476 0
M  V30 1524 C 145.56 -3.92048 -1.7492 0
M  V30 1525 C 144.793 -4.45933 -2.93223 0
M  V30 1526 O 145.016 -3.98764 -4.07852 0
M  V30 1527 O 143.95 -5.36999 -2.71875 0
M  V30 1528 H 147.776 -3.01031 -0.40172 0
M  V30 1529 H 145.361 -1.48813 -0.132291 0
M  V30 1530 H 147.243 -3.10147 -2.85283 0
M  V30 1531 H 145.918 -1.93347 -2.59613 0
M  V30 1532 H 144.825 -3.6068 -0.993025 0
M  V30 1533 H 146.158 -4.74017 -1.32548 0
M  V30 1534 N 147.81 0.181792 -1.56548 0
M  V30 1535 C 149.056 0.901431 -1.81665 0
M  V30 1536 C 149.389 1.82347 -0.668075 0
M  V30 1537 O 148.664 1.91669 0.330615 0
M  V30 1538 C 148.947 1.70618 -3.17115 0
M  V30 1539 C 148.8 0.807964 -4.42484 0
M  V30 1540 C 150.119 2.67605 -3.49393 0
M  V30 1541 H 147.238 0.32627 -0.660846 0
M  V30 1542 H 149.88 0.168134 -1.89255 0
M  V30 1543 H 148.03 2.33133 -3.10775 0
M  V30 1544 H 149.702 0.19649 -4.60881 0
M  V30 1545 H 147.945 0.115411 -4.33646 0
M  V30 1546 H 148.616 1.40632 -5.33785 0
M  V30 1547 H 151.092 2.15218 -3.56118 0
M  V30 1548 H 149.968 3.20985 -4.45264 0
M  V30 1549 H 150.229 3.47298 -2.73563 0
M  V30 1550 N 149.288 1.51039 0.449983 0
M  V30 1551 C 150.565 1.53612 1.21089 0
M  V30 1552 C 150.945 0.292997 2.09057 0
M  V30 1553 O 150.293 -0.72259 2.16774 0
M  V30 1554 C 150.503 2.84337 2.0237 0
M  V30 1555 C 151.851 3.35807 2.59843 0
M  V30 1556 O 152.875 2.85802 2.12593 0
M  V30 1557 O 151.734 4.23029 3.45989 0
M  V30 1558 H 148.828 0.617057 0.550608 0
M  V30 1559 H 151.374 1.63344 0.460082 0
M  V30 1560 H 150.146 3.66278 1.37681 0
M  V30 1561 H 149.769 2.77708 2.84542 0
M  V30 1562 N 150.766 -0.704594 1.40972 0
M  V30 1563 C 152.012 -1.46675 1.40051 0
M  V30 1564 C 152.345 -1.94199 0.00641102 0
M  V30 1565 O 151.62 -1.68916 -0.964235 0
M  V30 1566 C 151.903 -2.68505 2.39952 0
M  V30 1567 C 151.756 -2.26805 3.88432 0
M  V30 1568 C 153.075 -3.70686 2.37233 0
M  V30 1569 H 150.194 -0.532015 0.510028 0
M  V30 1570 H 152.836 -0.803255 1.72185 0
M  V30 1571 H 150.986 -3.25114 2.1268 0
M  V30 1572 H 152.658 -1.75592 4.26574 0
M  V30 1573 H 150.901 -1.58685 4.03734 0
M  V30 1574 H 151.572 -3.14181 4.53866 0
M  V30 1575 H 154.048 -3.23731 2.61415 0
M  V30 1576 H 152.924 -4.53553 3.09162 0
M  V30 1577 H 153.185 -4.19754 1.38777 0
M  V30 1578 N 152.244 -1.26651 -0.937939 0
M  V30 1579 C 153.49 -1.12553 -1.687 0
M  V30 1580 C 153.823 0.329782 -1.91379 0
M  V30 1581 O 153.098 1.24202 -1.4968 0
M  V30 1582 C 153.381 -1.89862 -3.05981 0
M  V30 1583 C 153.234 -3.43318 -2.90607 0
M  V30 1584 C 154.553 -1.69499 -4.0615 0
M  V30 1585 H 151.672 -0.410257 -0.612257 0
M  V30 1586 H 154.314 -1.55685 -1.08913 0
M  V30 1587 H 152.464 -1.53204 -3.57017 0
M  V30 1588 H 154.136 -3.89747 -2.46769 0
M  V30 1589 H 152.379 -3.70179 -2.26164 0
M  V30 1590 H 153.05 -3.92642 -3.8799 0
M  V30 1591 H 155.526 -2.01442 -3.64088 0
M  V30 1592 H 154.402 -2.26002 -5.00214 0
M  V30 1593 H 154.663 -0.640365 -4.37438 0
M  V30 1594 N 153.722 1.14298 -1.08507 0
M  V30 1595 C 154.969 1.85359 -0.815373 0
M  V30 1596 C 155.297 1.83001 0.658865 0
M  V30 1597 O 154.552 1.25655 1.50031 0
M  V30 1598 C 154.851 3.33547 -1.28379 0
M  V30 1599 C 154.517 3.56093 -2.76602 0
M  V30 1600 C 153.179 3.61955 -3.17084 0
M  V30 1601 C 155.531 3.64834 -3.72217 0
M  V30 1602 C 152.859 3.74082 -4.51973 0
M  V30 1603 C 155.211 3.78487 -5.06883 0
M  V30 1604 C 153.875 3.82598 -5.46969 0
M  V30 1605 H 153.145 0.678276 -0.298366 0
M  V30 1606 H 155.792 1.35002 -1.35819 0
M  V30 1607 H 154.097 3.86191 -0.660593 0
M  V30 1608 H 155.794 3.86959 -1.05186 0
M  V30 1609 H 152.384 3.52179 -2.4427 0
M  V30 1610 H 156.568 3.59595 -3.42061 0
M  V30 1611 H 151.824 3.75527 -4.82483 0
M  V30 1612 H 155.998 3.84193 -5.80834 0
M  V30 1613 H 153.625 3.91747 -6.51489 0
M  V30 1614 N 155.201 0.870884 1.31352 0
M  V30 1615 C 156.612 0.534714 1.78879 0
M  V30 1616 C 156.963 -0.948423 1.71754 0
M  V30 1617 O 156.088 -1.74055 1.28584 0
M  V30 1618 C 156.683 0.963839 3.24801 0
M  V30 1619 C 155.242 0.679311 3.70219 0
M  V30 1620 C 154.389 1.15465 2.52117 0
M  V30 1621 H 157.34 1.05651 1.18421 0
M  V30 1622 H 157.361 0.286892 3.79417 0
M  V30 1623 H 156.873 2.04332 3.29955 0
M  V30 1624 H 154.974 -0.388769 3.70566 0
M  V30 1625 H 155.087 1.25698 4.62317 0
M  V30 1626 H 153.451 0.574383 2.48139 0
M  V30 1627 H 154.234 2.24157 2.60016 0
M  V30 1628 N 156.679 -1.44442 0.630414 0
M  V30 1629 C 157.909 -2.06115 0.141465 0
M  V30 1630 C 158.317 -1.47179 -1.1889 0
M  V30 1631 O 157.66 -0.588873 -1.74006 0
M  V30 1632 C 157.722 -3.59467 -0.0484355 0
M  V30 1633 C 157.386 -4.40864 1.20366 0
M  V30 1634 C 158.383 -4.74391 2.12719 0
M  V30 1635 C 156.068 -4.8125 1.43887 0
M  V30 1636 C 158.062 -5.47186 3.26904 0
M  V30 1637 C 155.749 -5.53795 2.5837 0
M  V30 1638 C 156.747 -5.86682 3.49705 0
M  V30 1639 O 156.435 -6.57749 4.62191 0
M  V30 1640 H 156.167 -0.671648 0.0765792 0
M  V30 1641 H 158.721 -1.86312 0.864695 0
M  V30 1642 H 156.951 -3.77758 -0.826803 0
M  V30 1643 H 158.64 -4.02909 -0.491849 0
M  V30 1644 H 159.406 -4.43728 1.95781 0
M  V30 1645 H 155.285 -4.55073 0.736853 0
M  V30 1646 H 158.829 -5.72773 3.98217 0
M  V30 1647 H 154.726 -5.83872 2.75251 0
M  V30 1648 H 155.494 -6.76217 4.61164 0
M  V30 1649 N 158.157 -0.370918 -1.53173 0
M  V30 1650 C 159.573 -0.0200818 -1.59587 0
M  V30 1651 C 159.773 1.46279 -1.38581 0
M  V30 1652 O 158.829 2.22506 -1.19363 0
M  V30 1653 C 160.142 -0.4808 -2.96831 0
M  V30 1654 C 161.69 -0.435477 -3.09956 0
M  V30 1655 C 162.165 -0.872092 -4.4962 0
M  V30 1656 N 163.656 -0.827364 -4.55751 0
M  V30 1657 C 164.391 -1.13683 -5.62018 0
M  V30 1658 N 163.887 -1.51584 -6.76014 0
M  V30 1659 N 165.68 -1.05927 -5.52029 0
M  V30 1660 H 157.831 -1.33652 -1.65079 0
M  V30 1661 H 160.094 -0.546634 -0.774529 0
M  V30 1662 H 159.8 -1.51577 -3.1736 0
M  V30 1663 H 159.674 0.129796 -3.76977 0
M  V30 1664 H 162.061 0.590371 -2.89134 0
M  V30 1665 H 162.142 -1.08164 -2.31806 0
M  V30 1666 H 161.786 -1.89608 -4.71181 0
M  V30 1667 H 161.716 -0.203127 -5.26208 0
M  V30 1668 H 164.207 -0.548216 -3.73902 0
M  V30 1669 H 164.52 -1.73609 -7.53047 0
M  V30 1670 H 162.865 -1.55454 -6.77391 0
M  V30 1671 H 166.056 -0.762321 -4.61851 0
M  V30 1672 H 166.229 -1.30378 -6.34749 0
M  V30 1673 N 159.635 1.57281 -0.100228 0
M  V30 1674 C 160.598 2.13158 0.842398 0
M  V30 1675 C 161.598 1.06202 1.20738 0
M  V30 1676 O 162.788 1.32066 1.13597 0
M  V30 1677 C 159.92 2.65639 2.13655 0
M  V30 1678 H 161.113 2.97766 0.357114 0
M  V30 1679 H 158.666 1.5559 0.148823 0
M  V30 1680 H 159.401 1.84566 2.66657 0
M  V30 1681 H 159.186 3.43844 1.88451 0
M  V30 1682 H 160.676 3.08846 2.81077 0
M  V30 1683 N 161.113 -0.173488 1.56642 0
M  V30 1684 C 162.043 -1.2171 1.99271 0
M  V30 1685 C 163.024 -1.46289 0.867959 0
M  V30 1686 O 164.209 -1.5766 1.13388 0
M  V30 1687 C 161.339 -2.55651 2.35074 0
M  V30 1688 C 160.293 -2.45645 3.50489 0
M  V30 1689 C 159.619 -3.84056 3.72028 0
M  V30 1690 C 160.919 -1.96302 4.84007 0
M  V30 1691 H 162.613 -0.86275 2.867 0
M  V30 1692 H 160.159 -0.413571 1.37933 0
M  V30 1693 H 162.112 -3.2886 2.63494 0
M  V30 1694 H 160.836 -2.92869 1.44552 0
M  V30 1695 H 159.495 -1.7489 3.22194 0
M  V30 1696 H 159.143 -4.18664 2.788 0
M  V30 1697 H 158.843 -3.7823 4.49684 0
M  V30 1698 H 160.367 -4.58854 4.02846 0
M  V30 1699 H 161.781 -2.59284 5.11317 0
M  V30 1700 H 160.178 -2.01429 5.65284 0
M  V30 1701 H 161.248 -0.917226 4.76146 0
M  V30 1702 N 162.591 -1.51276 -0.441967 0
M  V30 1703 C 163.524 -1.66933 -1.55591 0
M  V30 1704 C 164.502 -0.516958 -1.54163 0
M  V30 1705 O 165.686 -0.740209 -1.73358 0
M  V30 1706 C 162.813 -1.67866 -2.94174 0
M  V30 1707 C 161.859 -2.89013 -3.13646 0
M  V30 1708 S 162.692 -4.49897 -2.90436 0
M  V30 1709 C 163.848 -4.53568 -4.31308 0
M  V30 1710 H 164.081 -2.61155 -1.42076 0
M  V30 1711 H 161.614 -1.40902 -0.631341 0
M  V30 1712 H 163.572 -1.69089 -3.74058 0
M  V30 1713 H 162.233 -0.748296 -3.05056 0
M  V30 1714 H 161.426 -2.86054 -4.14957 0
M  V30 1715 H 161.028 -2.85509 -2.4158 0
M  V30 1716 H 163.32 -4.28924 -5.24434 0
M  V30 1717 H 164.263 -5.55355 -4.39303 0
M  V30 1718 H 164.671 -3.82943 -4.14747 0
M  V30 1719 N 164.069 0.697108 -1.41344 0
M  V30 1720 C 165.032 1.79281 -1.42797 0
M  V30 1721 C 166.032 1.57607 -0.318837 0
M  V30 1722 O 167.222 1.64309 -0.578642 0
M  V30 1723 C 164.354 3.17632 -1.23785 0
M  V30 1724 H 165.547 1.79385 -2.40335 0
M  V30 1725 H 163.1 0.904582 -1.27464 0
M  V30 1726 H 163.835 3.23167 -0.270814 0
M  V30 1727 H 163.62 3.34765 -2.04144 0
M  V30 1728 H 165.11 3.97617 -1.27633 0
M  V30 1729 N 165.547 1.27147 0.931209 0
M  V30 1730 C 166.795 1.13055 1.6752 0
M  V30 1731 C 167.116 -0.324791 1.92276 0
M  V30 1732 O 166.386 -1.22775 1.52654 0
M  V30 1733 H 164.966 0.415391 0.620854 0
M  V30 1734 H 167.628 1.59623 1.11833 0
M  V30 1735 H 166.724 1.65694 2.64485 0
M  V30 1736 N 167.025 -1.13721 1.09112 0
M  V30 1737 C 167.973 -2.21103 0.722219 0
M  V30 1738 C 168.967 -1.67147 -0.275374 0
M  V30 1739 O 170.173 -1.79477 -0.137176 0
M  V30 1740 H 166.548 -0.720445 0.215553 0
M  V30 1741 H 168.519 -2.49483 1.63709 0
M  V30 1742 C 167.268 -3.47352 0.15543 0
M  V30 1743 H 166.591 -3.89206 0.914246 0
M  V30 1744 H 168.031 -4.2395 -0.0647967 0
M  V30 1745 C 166.49 -3.1814 -1.10852 0
M  V30 1746 O 167.02 -3.36604 -2.19227 0
M  V30 1747 N 165.226 -2.72045 -1.02176 0
M  V30 1748 H 164.773 -2.57221 -0.139764 0
M  V30 1749 H 164.731 -2.52875 -1.8682 0
M  V30 1750 N 168.503 -0.877838 -1.30888 0
M  V30 1751 C 169.413 -0.343096 -2.32078 0
M  V30 1752 C 170.429 0.551022 -1.65045 0
M  V30 1753 O 171.605 0.445854 -1.96403 0
M  V30 1754 C 168.67 0.439905 -3.43898 0
M  V30 1755 C 167.731 -0.483111 -4.26573 0
M  V30 1756 C 166.964 0.262616 -5.33053 0
M  V30 1757 O 167.187 1.48967 -5.50604 0
M  V30 1758 O 166.121 -0.383593 -6.00676 0
M  V30 1759 H 169.947 -1.18203 -2.79753 0
M  V30 1760 H 167.532 -0.64145 -1.34929 0
M  V30 1761 H 169.414 0.883504 -4.12034 0
M  V30 1762 H 168.089 1.25526 -2.98371 0
M  V30 1763 H 166.996 -0.975374 -3.61161 0
M  V30 1764 H 168.329 -1.26427 -4.75686 0
M  V30 1765 N 169.982 1.44106 -0.638065 0
M  V30 1766 C 170.914 2.28976 0.101205 0
M  V30 1767 C 171.927 1.4167 0.802088 0
M  V30 1768 O 173.116 1.65755 0.662375 0
M  V30 1769 C 170.216 3.18217 1.16581 0
M  V30 1770 C 169.389 4.33978 0.546066 0
M  V30 1771 C 168.448 5.04202 1.50554 0
M  V30 1772 O 167.474 5.59986 1.01999 0
M  V30 1773 N 168.676 5.06296 2.8398 0
M  V30 1774 H 171.441 2.93064 -0.627186 0
M  V30 1775 H 169.002 1.54629 -0.479731 0
M  V30 1776 H 170.994 3.62061 1.80815 0
M  V30 1777 H 169.564 2.55833 1.79634 0
M  V30 1778 H 168.784 3.93239 -0.275046 0
M  V30 1779 H 170.072 5.08675 0.112793 0
M  V30 1780 H 169.47 4.62319 3.26002 0
M  V30 1781 H 168.027 5.53907 3.43556 0
M  V30 1782 N 171.46 0.379036 1.52974 0
M  V30 1783 C 172.706 -0.206727 2.01744 0
M  V30 1784 C 173.039 -1.47314 1.26539 0
M  V30 1785 O 172.314 -1.91084 0.362903 0
M  V30 1786 C 172.597 -0.485066 3.56818 0
M  V30 1787 C 172.45 0.795919 4.42702 0
M  V30 1788 C 173.769 -1.28003 4.21074 0
M  V30 1789 H 170.888 -0.0736607 0.73331 0
M  V30 1790 H 173.53 0.506581 1.83122 0
M  V30 1791 H 171.68 -1.09272 3.72816 0
M  V30 1792 H 173.352 1.43307 4.38476 0
M  V30 1793 H 171.595 1.41344 4.10127 0
M  V30 1794 H 172.266 0.555947 5.49193 0
M  V30 1795 H 174.742 -0.765867 4.08991 0
M  V30 1796 H 173.618 -1.44352 5.29579 0
M  V30 1797 H 173.879 -2.29236 3.78026 0
M  V30 1798 N 172.938 -1.57226 0.108567 0
M  V30 1799 C 174.186 -1.94448 -0.550853 0
M  V30 1800 C 174.507 -0.992074 -1.67878 0
M  V30 1801 O 173.777 -0.0465 -1.95845 0
M  V30 1802 H 172.357 -0.717897 -0.206479 0
M  V30 1803 H 175.019 -1.94112 0.175062 0
M  V30 1804 H 174.115 -2.97218 -0.952259 0
M  V30 1805 N 174.416 0.165178 -1.56732 0
M  V30 1806 C 175.663 0.880807 -1.8234 0
M  V30 1807 C 175.991 1.81977 -0.686621 0
M  V30 1808 O 175.246 1.92971 0.325697 0
M  V30 1809 C 175.545 1.70405 -3.1416 0
M  V30 1810 C 175.211 0.913475 -4.4155 0
M  V30 1811 C 173.873 0.695303 -4.7615 0
M  V30 1812 C 176.225 0.359349 -5.1996 0
M  V30 1813 C 173.553 -0.0879947 -5.86634 0
M  V30 1814 C 175.905 -0.410893 -6.31264 0
M  V30 1815 C 174.569 -0.639808 -6.64427 0
M  V30 1816 H 173.839 0.32231 -0.667231 0
M  V30 1817 H 176.486 0.145402 -1.90947 0
M  V30 1818 H 174.791 2.50903 -3.00923 0
M  V30 1819 H 176.488 2.26091 -3.31186 0
M  V30 1820 H 173.078 1.09357 -4.14414 0
M  V30 1821 H 177.262 0.515228 -4.93618 0
M  V30 1822 H 172.518 -0.27503 -6.10781 0
M  V30 1823 H 176.692 -0.847494 -6.91224 0
M  V30 1824 H 174.319 -1.24864 -7.49875 0
M  V30 1825 N 175.894 1.51508 0.433938 0
M  V30 1826 C 177.171 1.54888 1.19453 0
M  V30 1827 C 177.551 0.315154 2.08734 0
M  V30 1828 O 176.899 -0.699558 2.17528 0
M  V30 1829 C 177.109 2.86467 1.99342 0
M  V30 1830 C 178.457 3.38545 2.56267 0
M  V30 1831 O 179.481 2.88041 2.0955 0
M  V30 1832 O 178.34 4.26675 3.41483 0
M  V30 1833 H 175.434 0.622863 0.544032 0
M  V30 1834 H 177.98 1.63823 0.442732 0
M  V30 1835 H 176.752 3.67718 1.33788 0
M  V30 1836 H 176.375 2.8071 2.8158 0
M  V30 1837 N 177.372 -0.689602 1.41712 0
M  V30 1838 C 178.302 -1.81577 1.46806 0
M  V30 1839 C 179.283 -1.66945 0.326105 0
M  V30 1840 O 180.468 -1.86588 0.538377 0
M  V30 1841 C 177.598 -3.19762 1.35535 0
M  V30 1842 C 176.552 -3.49107 2.47605 0
M  V30 1843 C 175.878 -4.86711 2.21397 0
M  V30 1844 C 177.178 -3.47483 3.89939 0
M  V30 1845 H 178.872 -1.7757 2.41058 0
M  V30 1846 H 176.418 -0.852887 1.16025 0
M  V30 1847 H 178.371 -3.98263 1.3771 0
M  V30 1848 H 177.095 -3.24409 0.377708 0
M  V30 1849 H 175.754 -2.72959 2.44722 0
M  V30 1850 H 175.402 -4.8799 1.21961 0
M  V30 1851 H 175.102 -5.0731 2.96497 0
M  V30 1852 H 176.626 -5.67515 2.25297 0
M  V30 1853 H 178.04 -4.1598 3.94505 0
M  V30 1854 H 176.437 -3.79615 4.64771 0
M  V30 1855 H 177.507 -2.46341 4.17665 0
M  V30 1856 N 178.85 -1.27639 -0.924453 0
M  V30 1857 C 180.096 -1.14336 -1.67497 0
M  V30 1858 C 180.429 0.309465 -1.91718 0
M  V30 1859 O 179.704 1.22608 -1.50989 0
M  V30 1860 C 179.987 -1.93096 -3.0395 0
M  V30 1861 C 179.84 -3.46381 -2.8695 0
M  V30 1862 C 181.159 -1.73798 -4.0433 0
M  V30 1863 H 178.278 -0.416728 -0.607871 0
M  V30 1864 H 180.92 -1.56832 -1.07256 0
M  V30 1865 H 179.07 -1.56982 -3.55372 0
M  V30 1866 H 180.742 -3.92343 -2.42621 0
M  V30 1867 H 178.985 -3.72557 -2.22225 0
M  V30 1868 H 179.656 -3.96735 -3.83804 0
M  V30 1869 H 182.132 -2.05293 -3.61931 0
M  V30 1870 H 181.008 -2.31294 -4.97789 0
M  V30 1871 H 181.269 -0.686725 -4.36734 0
M  V30 1872 N 180.328 1.1314 -1.09713 0
M  V30 1873 C 181.275 2.18642 -0.739196 0
M  V30 1874 C 182.245 1.63706 0.280978 0
M  V30 1875 O 183.43 1.90111 0.161946 0
M  V30 1876 C 180.57 3.44685 -0.169102 0
M  V30 1877 C 179.683 4.13711 -1.24367 0
M  V30 1878 C 178.818 5.27379 -0.636019 0
M  V30 1879 C 177.857 5.88259 -1.69169 0
M  V30 1880 N 176.994 6.93352 -1.10485 0
M  V30 1881 H 181.834 2.48607 -1.64312 0
M  V30 1882 H 179.371 1.22066 -0.820875 0
M  V30 1883 H 181.329 4.16815 0.179256 0
M  V30 1884 H 179.959 3.15161 0.698079 0
M  V30 1885 H 179.011 3.39835 -1.70927 0
M  V30 1886 H 180.323 4.55037 -2.04311 0
M  V30 1887 H 179.477 6.06238 -0.236677 0
M  V30 1888 H 178.216 4.8731 0.194928 0
M  V30 1889 H 177.221 5.08092 -2.10055 0
M  V30 1890 H 178.446 6.30399 -2.52536 0
M  V30 1891 H 176.392 6.55335 -0.295234 0
M  V30 1892 H 176.309 7.33236 -1.84121 0
M  V30 1893 H 177.577 7.76057 -0.73181 0
M  V30 1894 N 181.806 0.884767 1.30421 0
M  V30 1895 C 182.769 0.356277 2.26414 0
M  V30 1896 C 183.769 -0.501124 1.52792 0
M  V30 1897 O 184.959 -0.30831 1.7145 0
M  V30 1898 C 182.091 -0.492316 3.37326 0
M  V30 1899 H 183.284 1.20389 2.74675 0
M  V30 1900 H 180.837 0.661607 1.41607 0
M  V30 1901 H 181.572 -1.36052 2.94381 0
M  V30 1902 H 181.357 0.121832 3.91911 0
M  V30 1903 H 182.847 -0.853871 4.08777 0
M  V30 1904 N 183.284 -1.43765 0.645699 0
M  V30 1905 C 184.524 -2.03776 0.159542 0
M  V30 1906 C 184.888 -1.49792 -1.2011 0
M  V30 1907 O 186.089 -2.01398 -1.78023 0
M  V30 1908 C 184.36 -3.57036 0.161251 0
M  V30 1909 S 185.919 -4.3804 -0.258159 0
M  V30 1910 H 182.737 -0.707717 0.0682454 0
M  V30 1911 H 185.339 -1.75941 0.852352 0
M  V30 1912 H 184.043 -3.9383 1.15439 0
M  V30 1913 H 183.574 -3.89503 -0.552339 0
M  V30 1914 H 185.589 -4.7302 -1.49889 0
M  V30 1915 N 184.763 -0.387143 -1.52771 0
M  V30 1916 C 185.71 0.449048 -2.26389 0
M  V30 1917 C 186.68 1.05961 -1.27912 0
M  V30 1918 O 187.865 1.08804 -1.56737 0
M  V30 1919 C 185.005 1.57155 -3.0724 0
M  V30 1920 C 184.118 0.984066 -4.20643 0
M  V30 1921 C 183.253 2.07745 -4.88892 0
M  V30 1922 C 182.292 1.46574 -5.94292 0
M  V30 1923 N 181.429 2.49834 -6.56146 0
M  V30 1924 H 186.269 -0.185205 -2.97424 0
M  V30 1925 H 183.806 -0.103164 -1.46738 0
M  V30 1926 H 185.764 2.23309 -3.52405 0
M  V30 1927 H 184.394 2.17615 -2.38419 0
M  V30 1928 H 183.446 0.212193 -3.79808 0
M  V30 1929 H 184.758 0.497029 -4.96318 0
M  V30 1930 H 183.912 2.81673 -5.3735 0
M  V30 1931 H 182.651 2.59807 -4.12737 0
M  V30 1932 H 181.656 0.711696 -5.45174 0
M  V30 1933 H 182.881 0.953088 -6.72379 0
M  V30 1934 H 180.827 3.0107 -5.82832 0
M  V30 1935 H 180.744 2.05879 -7.27427 0
M  V30 1936 H 182.012 3.23399 -7.09249 0
M  V30 1937 N 186.241 1.57166 -0.116904 0
M  V30 1938 C 187.151 2.18745 0.847812 0
M  V30 1939 C 188.167 1.163 1.29423 0
M  V30 1940 O 189.343 1.48761 1.35765 0
M  V30 1941 C 186.408 2.77307 2.0809 0
M  V30 1942 C 185.469 3.94781 1.68661 0
M  V30 1943 C 184.702 4.50541 2.86091 0
M  V30 1944 O 184.925 4.05202 4.01456 0
M  V30 1945 O 183.859 5.41256 2.63298 0
M  V30 1946 H 187.685 3.01632 0.353778 0
M  V30 1947 H 185.27 1.49005 0.108599 0
M  V30 1948 H 187.152 3.14647 2.80313 0
M  V30 1949 H 185.827 1.97452 2.56504 0
M  V30 1950 H 184.734 3.62214 0.935518 0
M  V30 1951 H 186.067 4.76065 1.24991 0
M  V30 1952 N 187.719 -0.156864 1.56817 0
M  V30 1953 C 188.682 -1.17781 1.96622 0
M  V30 1954 C 189.682 -1.36401 0.851555 0
M  V30 1955 O 190.872 -1.33561 1.11836 0
M  V30 1956 C 188.004 -2.54008 2.27361 0
M  V30 1957 H 189.197 -0.836564 2.87996 0
M  V30 1958 H 186.75 -0.39985 1.51099 0
M  V30 1959 H 187.485 -2.9312 1.38748 0
M  V30 1960 H 187.27 -2.41856 3.08623 0
M  V30 1961 H 188.76 -3.27558 2.59029 0
M  V30 1962 N 189.197 -1.51736 -0.425897 0
M  V30 1963 C 190.437 -1.66636 -1.18371 0
M  V30 1964 C 190.801 -0.379854 -1.88205 0
M  V30 1965 O 192.002 -0.404758 -2.65735 0
M  V30 1966 C 190.273 -2.84382 -2.16476 0
M  V30 1967 S 191.832 -3.19673 -3.0059 0
M  V30 1968 H 188.65 -0.586957 -0.40125 0
M  V30 1969 H 191.252 -1.89679 -0.473518 0
M  V30 1970 H 189.956 -3.76281 -1.63831 0
M  V30 1971 H 189.487 -2.63562 -2.92059 0
M  V30 1972 H 191.502 -2.66994 -4.18245 0
M  V30 1973 N 190.675 0.682077 -1.42076 0
M  V30 1974 C 191.638 1.77756 -1.44691 0
M  V30 1975 C 192.638 1.5726 -0.335535 0
M  V30 1976 O 193.828 1.63686 -0.596037 0
M  V30 1977 C 190.96 3.16301 -1.27146 0
M  V30 1978 H 192.153 1.76826 -2.42224 0
M  V30 1979 H 189.706 0.891012 -1.28416 0
M  V30 1980 H 190.441 3.22862 -0.305075 0
M  V30 1981 H 190.226 3.32581 -2.07683 0
M  V30 1982 H 191.716 3.96241 -1.31843 0
M  V30 1983 N 192.153 1.28127 0.917671 0
M  V30 1984 C 193.116 1.11744 2.00115 0
M  V30 1985 C 194.116 0.0583052 1.60694 0
M  V30 1986 O 195.306 0.303755 1.71531 0
M  V30 1987 C 192.438 0.704862 3.33533 0
M  V30 1988 H 193.631 2.07966 2.16079 0
M  V30 1989 H 191.184 1.11058 1.09981 0
M  V30 1990 H 191.919 -0.258299 3.2327 0
M  V30 1991 H 191.704 1.4699 3.63505 0
M  V30 1992 H 193.194 0.612768 4.1308 0
M  V30 1993 N 193.631 -1.12557 1.10312 0
M  V30 1994 C 194.594 -2.16434 0.75424 0
M  V30 1995 C 195.594 -1.59278 -0.220685 0
M  V30 1996 O 196.784 -1.742 0.00230591 0
M  V30 1997 C 193.916 -3.40699 0.116987 0
M  V30 1998 H 195.109 -2.48811 1.67431 0
M  V30 1999 H 192.662 -1.27542 0.903475 0
M  V30 2000 H 193.397 -3.13921 -0.813877 0
M  V30 2001 H 193.182 -3.83459 0.818613 0
M  V30 2002 H 194.672 -4.17451 -0.111387 0
M  V30 2003 N 195.109 -0.891671 -1.2995 0
M  V30 2004 C 196.057 -0.353066 -2.29905 0
M  V30 2005 C 197.051 0.543509 -1.60444 0
M  V30 2006 O 198.257 0.4272 -1.74857 0
M  V30 2007 H 194.632 -0.095531 -0.745907 0
M  V30 2008 H 196.603 -1.20961 -2.72784 0
M  V30 2009 C 195.352 0.411475 -3.45257 0
M  V30 2010 H 194.675 -0.269182 -3.98893 0
M  V30 2011 H 196.115 0.753328 -4.17254 0
M  V30 2012 C 194.574 1.6111 -2.9588 0
M  V30 2013 O 195.104 2.71045 -2.96475 0
M  V30 2014 N 193.31 1.45054 -2.51809 0
M  V30 2015 H 192.857 0.556175 -2.51524 0
M  V30 2016 H 192.815 2.25453 -2.1913 0
M  V30 2017 N 196.587 1.43421 -0.653314 0
M  V30 2018 C 197.833 2.02111 -0.166992 0
M  V30 2019 C 198.166 1.51423 1.21592 0
M  V30 2020 O 197.441 0.707389 1.8118 0
M  V30 2021 C 197.724 3.5966 -0.177948 0
M  V30 2022 C 197.577 4.20579 -1.59478 0
M  V30 2023 C 198.896 4.37413 0.4856 0
M  V30 2024 H 196.015 0.734374 -0.0621557 0
M  V30 2025 H 198.657 1.70717 -0.834016 0
M  V30 2026 H 196.807 3.86537 0.390032 0
M  V30 2027 H 198.479 4.04732 -2.21336 0
M  V30 2028 H 196.722 3.77226 -2.14204 0
M  V30 2029 H 197.393 5.29665 -1.5543 0
M  V30 2030 H 199.869 4.161 0.00234528 0
M  V30 2031 H 198.745 5.47075 0.447207 0
M  V30 2032 H 199.006 4.13672 1.55974 0
M  V30 2033 N 198.065 0.39524 1.52563 0
M  V30 2034 C 198.995 -0.428384 2.29537 0
M  V30 2035 C 199.976 -1.05831 1.33169 0
M  V30 2036 O 201.161 -1.06995 1.62067 0
M  V30 2037 C 198.291 -1.55274 3.10656 0
M  V30 2038 C 197.245 -1.04855 4.14957 0
M  V30 2039 C 196.571 -2.26543 4.84337 0
M  V30 2040 C 197.871 -0.112324 5.22179 0
M  V30 2041 H 199.565 0.213867 2.98635 0
M  V30 2042 H 197.111 0.104298 1.43622 0
M  V30 2043 H 199.064 -2.1358 3.63265 0
M  V30 2044 H 197.788 -2.22266 2.39302 0
M  V30 2045 H 196.447 -0.487985 3.63338 0
M  V30 2046 H 196.095 -2.92059 4.09525 0
M  V30 2047 H 195.795 -1.93466 5.54837 0
M  V30 2048 H 197.319 -2.85481 5.39753 0
M  V30 2049 H 198.733 -0.603752 5.70112 0
M  V30 2050 H 197.13 0.128968 5.99961 0
M  V30 2051 H 198.2 0.837052 4.77621 0
M  V30 2052 N 199.544 -1.57102 0.125237 0
M  V30 2053 C 200.474 -2.18659 -0.819174 0
M  V30 2054 C 201.455 -1.12843 -1.27281 0
M  V30 2055 O 202.64 -1.41104 -1.33429 0
M  V30 2056 C 199.77 -2.79096 -2.06695 0
M  V30 2057 C 198.724 -3.90548 -1.75088 0
M  V30 2058 C 198.05 -4.37821 -3.06948 0
M  V30 2059 C 199.35 -5.12356 -1.01435 0
M  V30 2060 H 201.044 -2.9783 -0.306202 0
M  V30 2061 H 198.59 -1.4326 -0.145839 0
M  V30 2062 H 200.543 -3.2082 -2.73226 0
M  V30 2063 H 199.267 -1.97223 -2.60328 0
M  V30 2064 H 197.926 -3.49409 -1.10944 0
M  V30 2065 H 197.574 -3.52799 -3.58527 0
M  V30 2066 H 197.274 -5.12982 -2.86571 0
M  V30 2067 H 198.798 -4.822 -3.74587 0
M  V30 2068 H 200.212 -5.5106 -1.58132 0
M  V30 2069 H 198.609 -5.9314 -0.911319 0
M  V30 2070 H 199.679 -4.849 -0.00218681 0
M  V30 2071 N 201.022 0.148545 -1.56898 0
M  V30 2072 C 201.969 1.18345 -1.98149 0
M  V30 2073 C 202.939 1.42772 -0.848848 0
M  V30 2074 O 204.124 1.55132 -1.11079 0
M  V30 2075 C 201.264 2.51231 -2.36594 0
M  V30 2076 C 200.377 2.33991 -3.63142 0
M  V30 2077 C 199.512 3.59902 -3.90697 0
M  V30 2078 C 198.551 3.37692 -5.1052 0
M  V30 2079 N 197.688 4.5573 -5.34092 0
M  V30 2080 H 202.528 0.82467 -2.86362 0
M  V30 2081 H 200.065 0.395756 -1.41676 0
M  V30 2082 H 202.023 3.28713 -2.56912 0
M  V30 2083 H 200.653 2.85059 -1.51463 0
M  V30 2084 H 199.705 1.47572 -3.50609 0
M  V30 2085 H 201.017 2.13539 -4.5078 0
M  V30 2086 H 200.171 4.45813 -4.11505 0
M  V30 2087 H 198.91 3.83357 -3.01477 0
M  V30 2088 H 197.915 2.5017 -4.89587 0
M  V30 2089 H 199.14 3.15637 -6.0129 0
M  V30 2090 H 197.086 4.79361 -4.47827 0
M  V30 2091 H 197.003 4.38274 -6.15996 0
M  V30 2092 H 198.271 5.42858 -5.59397 0
M  V30 2093 N 202.5 1.5196 0.417844 0
M  V30 2094 C 203.746 1.65836 1.16732 0
M  V30 2095 C 204.079 0.382881 1.90388 0
M  V30 2096 O 203.354 -0.618368 1.84408 0
M  V30 2097 C 203.637 2.87466 2.16876 0
M  V30 2098 C 203.49 4.25041 1.47174 0
M  V30 2099 C 204.809 3.04613 3.17646 0
M  V30 2100 H 201.928 0.603515 0.423011 0
M  V30 2101 H 204.57 1.84494 0.454105 0
M  V30 2102 H 202.72 2.71689 2.777 0
M  V30 2103 H 204.392 4.52527 0.895376 0
M  V30 2104 H 202.635 4.26843 0.773806 0
M  V30 2105 H 203.306 5.06176 2.20204 0
M  V30 2106 H 205.782 3.1923 2.66892 0
M  V30 2107 H 204.658 3.91247 3.8499 0
M  V30 2108 H 204.919 2.17541 3.84874 0
M  V30 2109 N 203.978 -0.674533 1.42435 0
M  V30 2110 C 205.227 -1.43034 1.42212 0
M  V30 2111 C 205.54 -1.95555 0.0420788 0
M  V30 2112 O 206.746 -2.71374 -0.0827558 0
M  V30 2113 C 205.202 -2.58748 2.50155 0
M  V30 2114 C 204.81 -2.12925 3.94166 0
M  V30 2115 C 206.554 -3.36257 2.59098 0
M  V30 2116 C 204.461 -3.25723 4.93618 0
M  V30 2117 H 203.391 -0.537345 0.528939 0
M  V30 2118 H 206.042 -0.73024 1.68344 0
M  V30 2119 H 204.424 -3.31128 2.17188 0
M  V30 2120 H 205.598 -1.47697 4.36488 0
M  V30 2121 H 203.913 -1.48354 3.89076 0
M  V30 2122 H 206.51 -4.20264 3.30578 0
M  V30 2123 H 206.853 -3.82866 1.63461 0
M  V30 2124 H 207.386 -2.70947 2.9126 0
M  V30 2125 H 204.125 -2.84105 5.90732 0
M  V30 2126 H 203.645 -3.89732 4.55926 0
M  V30 2127 H 205.324 -3.91186 5.15347 0
M  V30 2128 N 205.456 -1.28612 -0.910864 0
M  V30 2129 C 206.705 -1.15311 -1.65488 0
M  V30 2130 C 207.018 0.296999 -1.93332 0
M  V30 2131 O 208.224 0.551168 -2.65847 0
M  V30 2132 C 206.68 -2.01599 -2.98137 0
M  V30 2133 C 206.288 -3.51367 -2.7793 0
M  V30 2134 C 208.032 -1.96993 -3.76024 0
M  V30 2135 C 205.939 -4.29797 -4.06237 0
M  V30 2136 H 204.869 -0.42796 -0.620779 0
M  V30 2137 H 207.52 -1.53166 -1.01057 0
M  V30 2138 H 205.902 -1.56603 -3.63719 0
M  V30 2139 H 207.076 -4.0434 -2.21011 0
M  V30 2140 H 205.391 -3.57529 -2.13452 0
M  V30 2141 H 207.988 -2.52856 -4.71135 0
M  V30 2142 H 208.331 -0.94733 -4.05378 0
M  V30 2143 H 208.864 -2.39973 -3.17266 0
M  V30 2144 H 205.603 -5.32648 -3.82055 0
M  V30 2145 H 205.123 -3.81596 -4.62757 0
M  V30 2146 H 206.802 -4.39869 -4.74473 0
M  V30 2147 N 206.934 1.1197 -1.10907 0
M  V30 2148 C 207.844 2.21433 -0.774896 0
M  V30 2149 C 208.86 1.72478 0.229657 0
M  V30 2150 O 210.036 2.01288 0.0672008 0
M  V30 2151 C 207.101 3.4602 -0.216986 0
M  V30 2152 C 206.162 4.09791 -1.27944 0
M  V30 2153 C 205.395 5.28431 -0.748055 0
M  V30 2154 O 205.618 5.68823 0.423833 0
M  V30 2155 O 204.552 5.82644 -1.51027 0
M  V30 2156 H 208.378 2.5242 -1.68873 0
M  V30 2157 H 205.963 1.20399 -0.884555 0
M  V30 2158 H 207.845 4.21304 0.090059 0
M  V30 2159 H 206.52 3.16698 0.669633 0
M  V30 2160 H 205.427 3.36265 -1.63941 0
M  V30 2161 H 206.76 4.4328 -2.13925 0
M  V30 2162 N 208.412 0.89855 1.29475 0
M  V30 2163 C 209.64 0.539261 1.99749 0
M  V30 2164 C 210.055 -0.875716 1.67262 0
M  V30 2165 O 209.412 -1.57786 0.917049 0
M  V30 2166 C 209.463 0.72061 3.54245 0
M  V30 2167 O 209.184 2.07989 3.8558 0
M  V30 2168 C 210.685 0.366118 4.41786 0
M  V30 2169 H 207.905 0.207047 0.638258 0
M  V30 2170 H 210.449 1.20758 1.65039 0
M  V30 2171 H 208.604 0.0994862 3.87272 0
M  V30 2172 H 209.018 2.10841 4.80257 0
M  V30 2173 H 210.492 0.543848 5.49314 0
M  V30 2174 H 210.969 -0.696763 4.33638 0
M  V30 2175 H 211.575 0.964135 4.14228 0
M  V30 2176 N 209.89 -1.43072 0.660911 0
M  V30 2177 C 211.138 -2.01323 0.177094 0
M  V30 2178 C 211.459 -1.5245 -1.2159 0
M  V30 2179 O 210.729 -0.740322 -1.81373 0
M  V30 2180 H 209.309 -0.744382 0.0624804 0
M  V30 2181 H 211.971 -1.75179 0.854305 0
M  V30 2182 H 211.067 -3.11649 0.167641 0
M  V30 2183 N 211.368 -0.403325 -1.52352 0
M  V30 2184 C 212.278 0.432009 -2.30588 0
M  V30 2185 C 213.294 1.05884 -1.38075 0
M  V30 2186 O 214.47 1.06161 -1.71148 0
M  V30 2187 C 211.535 1.53669 -3.10784 0
M  V30 2188 C 210.596 0.933525 -4.19027 0
M  V30 2189 C 209.829 1.98557 -4.9539 0
M  V30 2190 O 210.052 3.20283 -4.71991 0
M  V30 2191 O 208.986 1.59504 -5.80381 0
M  V30 2192 H 212.812 -0.205739 -3.03002 0
M  V30 2193 H 210.397 -0.166675 -1.48467 0
M  V30 2194 H 212.279 2.17814 -3.60742 0
M  V30 2195 H 210.954 2.15915 -2.41169 0
M  V30 2196 H 209.861 0.254954 -3.7323 0
M  V30 2197 H 211.194 0.35508 -4.90918 0
M  V30 2198 N 212.846 1.57033 -0.133567 0
M  V30 2199 C 213.776 2.1909 0.807567 0
M  V30 2200 C 214.757 1.13517 1.26681 0
M  V30 2201 O 215.942 1.41809 1.32679 0
M  V30 2202 C 213.072 2.80188 2.05212 0
M  V30 2203 C 212.026 3.91471 1.73015 0
M  V30 2204 C 211.352 4.39443 3.04622 0
M  V30 2205 C 212.652 5.12886 0.987168 0
M  V30 2206 H 214.346 2.97988 0.290403 0
M  V30 2207 H 211.892 1.43335 0.138239 0
M  V30 2208 H 213.845 3.22264 2.71521 0
M  V30 2209 H 212.569 1.98601 2.59278 0
M  V30 2210 H 211.228 3.49993 1.0909 0
M  V30 2211 H 210.876 3.54695 3.56651 0
M  V30 2212 H 210.576 5.14495 2.83847 0
M  V30 2213 H 212.1 4.8418 3.72024 0
M  V30 2214 H 213.514 5.51891 1.55208 0
M  V30 2215 H 211.911 5.93615 0.87985 0
M  V30 2216 H 212.981 4.84894 -0.0235286 0
M  V30 2217 N 214.325 -0.140222 1.56975 0
M  V30 2218 C 215.272 -1.17292 1.98774 0
M  V30 2219 C 216.242 -1.4232 0.856408 0
M  V30 2220 O 217.427 -1.54541 1.119 0
M  V30 2221 C 214.567 -2.49973 2.37923 0
M  V30 2222 C 213.68 -2.32062 3.64378 0
M  V30 2223 C 212.815 -3.57825 3.926 0
M  V30 2224 C 211.854 -3.3498 5.12303 0
M  V30 2225 N 210.991 -4.52891 5.36502 0
M  V30 2226 H 215.831 -0.809472 2.86795 0
M  V30 2227 H 213.368 -0.388237 1.41884 0
M  V30 2228 H 215.326 -3.27346 2.58652 0
M  V30 2229 H 213.956 -2.84252 1.52972 0
M  V30 2230 H 213.008 -1.45711 3.51387 0
M  V30 2231 H 214.32 -2.11145 4.51906 0
M  V30 2232 H 213.474 -4.43624 4.13863 0
M  V30 2233 H 212.213 -3.81753 3.03506 0
M  V30 2234 H 211.218 -2.4757 4.90906 0
M  V30 2235 H 212.443 -3.12444 6.02956 0
M  V30 2236 H 210.389 -4.76979 4.50363 0
M  V30 2237 H 210.306 -4.35001 6.18312 0
M  V30 2238 H 211.574 -5.39884 5.62268 0
M  V30 2239 N 215.803 -1.52179 -0.40978 0
M  V30 2240 C 217.08 -1.56769 -1.16974 0
M  V30 2241 C 217.46 -0.348322 -2.08206 0
M  V30 2242 O 216.808 0.664862 -2.18613 0
M  V30 2243 C 217.018 -2.89603 -1.9476 0
M  V30 2244 C 218.366 -3.42579 -2.50849 0
M  V30 2245 O 219.39 -2.91338 -2.04941 0
M  V30 2246 O 218.249 -4.32054 -3.34652 0
M  V30 2247 H 215.343 -0.631439 -0.534054 0
M  V30 2248 H 217.889 -1.64507 -0.416613 0
M  V30 2249 H 216.661 -3.698 -1.27921 0
M  V30 2250 H 216.284 -2.85155 -2.77079 0
M  V30 2251 N 217.281 0.66697 -1.42791 0
M  V30 2252 C 218.191 1.80962 -1.49299 0
M  V30 2253 C 219.207 1.69775 -0.381108 0
M  V30 2254 O 220.383 1.91188 -0.633188 0
M  V30 2255 C 217.448 3.17156 -1.40045 0
M  V30 2256 C 216.509 3.40242 -2.6179 0
M  V30 2257 C 215.742 4.69939 -2.52969 0
M  V30 2258 O 215.965 5.48372 -1.56985 0
M  V30 2259 O 214.899 4.94441 -3.43237 0
M  V30 2260 H 218.725 1.78427 -2.45759 0
M  V30 2261 H 216.31 0.823713 -1.24641 0
M  V30 2262 H 218.192 3.98413 -1.37276 0
M  V30 2263 H 216.867 3.20312 -0.467138 0
M  V30 2264 H 215.774 2.58802 -2.70134 0
M  V30 2265 H 217.107 3.41923 -3.54047 0
M  V30 2266 N 218.759 1.29093 0.90403 0
M  V30 2267 C 219.722 1.1386 1.98919 0
M  V30 2268 C 220.722 0.0753457 1.60623 0
M  V30 2269 O 221.912 0.321931 1.71199 0
M  V30 2270 C 219.044 0.740198 3.32767 0
M  V30 2271 H 220.237 2.10246 2.13861 0
M  V30 2272 H 217.79 1.12218 1.08797 0
M  V30 2273 H 218.525 -0.223997 3.23525 0
M  V30 2274 H 218.31 1.50838 3.61926 0
M  V30 2275 H 219.8 0.656546 4.12407 0
M  V30 2276 N 220.237 -1.11381 1.11499 0
M  V30 2277 C 221.167 -2.19509 0.796125 0
M  V30 2278 C 222.148 -1.68458 -0.235796 0
M  V30 2279 O 223.333 -1.93947 -0.0991344 0
M  V30 2280 C 220.463 -3.46475 0.239205 0
M  V30 2281 C 219.417 -4.10744 1.20307 0
M  V30 2282 C 218.743 -5.32293 0.50683 0
M  V30 2283 C 220.043 -4.55597 2.55399 0
M  V30 2284 H 221.737 -2.46439 1.70024 0
M  V30 2285 H 219.283 -1.18446 0.818935 0
M  V30 2286 H 221.236 -4.214 0.00392006 0
M  V30 2287 H 219.96 -3.19006 -0.700206 0
M  V30 2288 H 218.619 -3.37813 1.42399 0
M  V30 2289 H 218.267 -5.01095 -0.437408 0
M  V30 2290 H 217.967 -5.76243 1.1497 0
M  V30 2291 H 219.491 -6.09956 0.280351 0
M  V30 2292 H 220.905 -5.21841 2.37391 0
M  V30 2293 H 219.302 -5.10363 3.15673 0
M  V30 2294 H 220.372 -3.69013 3.14575 0
M  V30 2295 N 221.715 -0.905404 -1.28997 0
M  V30 2296 C 222.964 -0.530191 -1.94607 0
M  V30 2297 C 223.277 0.929185 -1.72121 0
M  V30 2298 O 224.483 1.41218 -2.31883 0
M  V30 2299 C 222.939 -0.897333 -3.48534 0
M  V30 2300 C 222.547 -2.37587 -3.79811 0
M  V30 2301 C 224.291 -0.592304 -4.20347 0
M  V30 2302 C 222.198 -2.68357 -5.27009 0
M  V30 2303 H 221.128 -0.194558 -0.728466 0
M  V30 2304 H 223.779 -1.10318 -1.46636 0
M  V30 2305 H 222.161 -0.253214 -3.9519 0
M  V30 2306 H 223.335 -3.06602 -3.43994 0
M  V30 2307 H 221.65 -2.6505 -3.2115 0
M  V30 2308 H 224.247 -0.798975 -5.28697 0
M  V30 2309 H 224.59 0.469474 -4.13644 0
M  V30 2310 H 225.123 -1.19452 -3.79442 0
M  V30 2311 H 221.862 -3.73355 -5.38782 0
M  V30 2312 H 221.382 -2.03971 -5.64053 0
M  V30 2313 H 223.061 -2.54922 -5.94663 0
M  V30 2314 N 223.193 1.4272 -0.668489 0
M  V30 2315 C 224.609 1.55992 -0.33745 0
M  V30 2316 C 224.809 1.64933 1.15756 0
M  V30 2317 O 223.865 1.61278 1.94282 0
M  V30 2318 C 225.178 2.81314 -1.06222 0
M  V30 2319 C 226.726 2.95078 -1.04394 0
M  V30 2320 C 227.201 4.23252 -1.74991 0
M  V30 2321 N 228.692 4.3015 -1.71829 0
M  V30 2322 C 229.427 5.28127 -2.23315 0
M  V30 2323 N 228.923 6.32293 -2.83156 0
M  V30 2324 N 230.716 5.19882 -2.13726 0
M  V30 2325 H 222.867 1.3516 -1.63846 0
M  V30 2326 H 225.13 0.650174 -0.689912 0
M  V30 2327 H 224.836 2.80823 -2.11734 0
M  V30 2328 H 224.71 3.72012 -0.62344 0
M  V30 2329 H 227.097 2.951 0.0028244 0
M  V30 2330 H 227.178 2.05627 -1.52155 0
M  V30 2331 H 226.822 4.2399 -2.79633 0
M  V30 2332 H 226.752 5.11626 -1.24685 0
M  V30 2333 H 229.243 3.55499 -1.28175 0
M  V30 2334 H 229.556 7.03398 -3.20079 0
M  V30 2335 H 227.901 6.32873 -2.87223 0
M  V30 2336 H 231.092 4.37423 -1.66669 0
M  V30 2337 H 231.265 5.96077 -2.54158 0
M  V30 2338 N 224.671 0.411399 1.52136 0
M  V30 2339 C 225.618 -0.412975 2.27075 0
M  V30 2340 C 226.588 -1.03912 1.29582 0
M  V30 2341 O 227.773 -1.06296 1.58448 0
M  V30 2342 C 224.913 -1.52247 3.09701 0
M  V30 2343 C 224.026 -0.917021 4.22155 0
M  V30 2344 C 223.161 -1.9994 4.92135 0
M  V30 2345 C 222.2 -1.37101 5.96548 0
M  V30 2346 N 221.337 -2.39364 6.60038 0
M  V30 2347 H 226.177 0.232499 2.97092 0
M  V30 2348 H 223.714 0.126496 1.46555 0
M  V30 2349 H 225.672 -2.17674 3.55913 0
M  V30 2350 H 224.302 -2.13794 2.41851 0
M  V30 2351 H 223.354 -0.151742 3.80097 0
M  V30 2352 H 224.666 -0.418006 4.97045 0
M  V30 2353 H 223.82 -2.73088 5.41763 0
M  V30 2354 H 222.559 -2.53208 4.16818 0
M  V30 2355 H 221.564 -0.624873 5.46237 0
M  V30 2356 H 222.789 -0.845998 6.7381 0
M  V30 2357 H 220.735 -2.91759 5.87548 0
M  V30 2358 H 220.652 -1.9428 7.3061 0
M  V30 2359 H 221.92 -3.12074 7.14304 0
M  V30 2360 N 226.149 -1.5696 0.141893 0
M  V30 2361 C 227.112 -2.15316 -0.785587 0
M  V30 2362 C 228.112 -1.09366 -1.1788 0
M  V30 2363 O 229.302 -1.35031 -1.10056 0
M  V30 2364 C 226.434 -2.71211 -2.06537 0
M  V30 2365 H 227.627 -2.98608 -0.278041 0
M  V30 2366 H 225.18 -1.5593 -0.107519 0
M  V30 2367 H 225.915 -1.91571 -2.6167 0
M  V30 2368 H 225.7 -3.4872 -1.79268 0
M  V30 2369 H 227.19 -3.16189 -2.72789 0
M  V30 2370 N 227.627 0.131896 -1.57047 0
M  V30 2371 C 228.852 0.860418 -1.8871 0
M  V30 2372 C 229.277 1.73251 -0.73251 0
M  V30 2373 O 228.635 1.785 0.317429 0
M  V30 2374 C 228.683 1.68047 -3.19049 0
M  V30 2375 O 227.787 2.7862 -3.04047 0
M  V30 2376 H 227.128 0.238743 -0.619595 0
M  V30 2377 H 229.658 0.118169 -2.04258 0
M  V30 2378 H 229.668 2.07238 -3.51449 0
M  V30 2379 H 228.343 1.04018 -4.02682 0
M  V30 2380 H 226.92 2.42726 -2.83088 0
M  V30 2381 N 229.106 1.52395 0.401703 0
M  V30 2382 C 230.016 1.7917 1.51444 0
M  V30 2383 C 231.032 0.677691 1.6026 0
M  V30 2384 O 232.208 0.963909 1.76835 0
M  V30 2385 C 229.273 1.94347 2.87107 0
M  V30 2386 C 228.334 3.18257 2.88116 0
M  V30 2387 C 227.567 3.32701 4.17308 0
M  V30 2388 O 227.79 2.52238 5.11598 0
M  V30 2389 O 226.724 4.25891 4.25324 0
M  V30 2390 H 230.55 2.73633 1.31752 0
M  V30 2391 H 228.135 1.3733 0.588296 0
M  V30 2392 H 230.017 2.06109 3.67555 0
M  V30 2393 H 228.692 1.03073 3.06851 0
M  V30 2394 H 227.599 3.11947 2.06494 0
M  V30 2395 H 228.932 4.09336 2.73322 0
M  V30 2396 N 230.584 -0.659388 1.43143 0
M  V30 2397 C 231.833 -1.41518 1.43721 0
M  V30 2398 C 232.146 -1.95499 0.0628176 0
M  V30 2399 O 233.352 -2.71446 -0.0539683 0
M  V30 2400 C 231.808 -2.5608 2.52885 0
M  V30 2401 C 231.416 -2.08733 3.96402 0
M  V30 2402 C 233.16 -3.3349 2.62649 0
M  V30 2403 C 231.067 -3.20469 4.97045 0
M  V30 2404 H 229.997 -0.531705 0.534608 0
M  V30 2405 H 232.648 -0.712343 1.69109 0
M  V30 2406 H 231.03 -3.28805 2.20688 0
M  V30 2407 H 232.204 -1.43059 4.3803 0
M  V30 2408 H 230.519 -1.44219 3.90627 0
M  V30 2409 H 233.116 -4.16734 3.35017 0
M  V30 2410 H 233.459 -3.8111 1.67513 0
M  V30 2411 H 233.992 -2.67842 2.94118 0
M  V30 2412 H 230.731 -2.77824 5.93712 0
M  V30 2413 H 230.251 -3.84874 4.60034 0
M  V30 2414 H 231.93 -3.85698 5.19467 0
M  V30 2415 N 232.062 -1.29571 -0.897171 0
M  V30 2416 C 233.287 -1.20705 -1.68656 0
M  V30 2417 C 233.712 0.228582 -1.86706 0
M  V30 2418 O 233.07 1.16494 -1.3892 0
M  V30 2419 C 233.118 -1.9282 -3.04717 0
M  V30 2420 O 232.222 -1.24697 -3.93096 0
M  V30 2421 H 231.563 -0.418126 -0.515816 0
M  V30 2422 H 234.093 -1.71183 -1.12061 0
M  V30 2423 H 234.103 -2.01372 -3.54843 0
M  V30 2424 H 232.778 -2.97239 -2.90899 0
M  V30 2425 H 231.355 -1.2442 -3.51531 0
M  V30 2426 N 233.54 1.10788 -1.12088 0
M  V30 2427 C 234.789 1.82036 -0.868659 0
M  V30 2428 C 235.102 1.85929 0.607426 0
M  V30 2429 O 236.308 2.53346 0.97613 0
M  V30 2430 C 234.764 3.26951 -1.50435 0
M  V30 2431 C 234.372 3.31367 -3.01496 0
M  V30 2432 C 236.116 4.03053 -1.33225 0
M  V30 2433 C 234.023 4.7072 -3.58017 0
M  V30 2434 H 232.953 0.682108 -0.321318 0
M  V30 2435 H 235.604 1.24618 -1.34694 0
M  V30 2436 H 233.986 3.84343 -0.953735 0
M  V30 2437 H 235.16 2.83819 -3.6302 0
M  V30 2438 H 233.475 2.6875 -3.18061 0
M  V30 2439 H 236.072 5.05981 -1.72878 0
M  V30 2440 H 236.415 4.15387 -0.275529 0
M  V30 2441 H 236.948 3.52066 -1.85188 0
M  V30 2442 H 233.687 4.63585 -4.63432 0
M  V30 2443 H 233.207 5.1865 -3.01268 0
M  V30 2444 H 234.886 5.39685 -3.56859 0
M  V30 2445 N 235.018 0.912232 1.28515 0
M  V30 2446 C 235.965 0.397954 2.27343 0
M  V30 2447 C 236.935 -0.526766 1.57526 0
M  V30 2448 O 238.12 -0.449292 1.85435 0
M  V30 2449 C 235.26 -0.357263 3.43246 0
M  V30 2450 C 234.373 0.599788 4.27816 0
M  V30 2451 C 233.508 -0.173725 5.30916 0
M  V30 2452 C 232.547 0.777039 6.07148 0
M  V30 2453 N 231.684 0.0371398 7.0209 0
M  V30 2454 H 236.524 1.24577 2.70711 0
M  V30 2455 H 234.061 0.625612 1.33133 0
M  V30 2456 H 236.019 -0.8113 4.09236 0
M  V30 2457 H 234.649 -1.16943 3.00872 0
M  V30 2458 H 233.701 1.17235 3.61884 0
M  V30 2459 H 235.013 1.32704 4.80823 0
M  V30 2460 H 234.167 -0.688394 6.02782 0
M  V30 2461 H 232.906 -0.934041 4.78672 0
M  V30 2462 H 231.911 1.3031 5.34134 0
M  V30 2463 H 233.136 1.53689 6.61481 0
M  V30 2464 H 231.082 -0.705213 6.52198 0
M  V30 2465 H 230.999 0.704249 7.52713 0
M  V30 2466 H 232.267 -0.457383 7.78157 0
M  V30 2467 N 236.496 -1.42363 0.676048 0
M  V30 2468 C 237.459 -2.29199 0.00766941 0
M  V30 2469 C 238.459 -1.43389 -0.727745 0
M  V30 2470 O 239.649 -1.64764 -0.56556 0
M  V30 2471 C 236.781 -3.2591 -0.999785 0
M  V30 2472 H 237.974 -2.89794 0.771988 0
M  V30 2473 H 235.527 -1.50024 0.438468 0
M  V30 2474 H 236.262 -2.70256 -1.79255 0
M  V30 2475 H 236.047 -3.89202 -0.475829 0
M  V30 2476 H 237.537 -3.91028 -1.46583 0
M  V30 2477 N 237.974 -0.419461 -1.51915 0
M  V30 2478 C 239.222 0.152637 -2.01523 0
M  V30 2479 C 239.543 1.44762 -1.30649 0
M  V30 2480 O 238.813 1.90997 -0.435535 0
M  V30 2481 H 237.393 0.0593966 -0.744635 0
M  V30 2482 H 240.055 -0.558073 -1.86739 0
M  V30 2483 H 239.151 0.341369 -3.10227 0
M  V30 2484 N 239.452 1.56882 -0.150215 0
M  V30 2485 C 240.415 2.1573 0.774157 0
M  V30 2486 C 241.415 1.0999 1.17298 0
M  V30 2487 O 242.605 1.35613 1.09338 0
M  V30 2488 C 239.737 2.72302 2.05096 0
M  V30 2489 H 240.93 2.98752 0.262201 0
M  V30 2490 H 238.483 1.55985 0.099248 0
M  V30 2491 H 239.218 1.92956 2.6065 0
M  V30 2492 H 239.003 3.49665 1.77416 0
M  V30 2493 H 240.493 3.17632 2.71109 0
M  V30 2494 N 240.93 -0.123565 1.57115 0
M  V30 2495 C 242.207 -0.862196 1.75572 0
M  V30 2496 C 242.587 -1.98279 0.724475 0
M  V30 2497 O 241.935 -2.27102 -0.252407 0
M  V30 2498 C 242.145 -1.38309 3.20424 0
M  V30 2499 C 243.493 -1.83724 3.82793 0
M  V30 2500 O 244.517 -1.47999 3.23998 0
M  V30 2501 O 243.376 -2.49685 4.86127 0
M  V30 2502 H 240.47 -0.409113 0.718718 0
M  V30 2503 H 243.016 -0.107661 1.69358 0
M  V30 2504 H 241.788 -0.578889 3.86994 0
M  V30 2505 H 241.411 -2.20046 3.31158 0
M  V30 2506 N 242.408 -1.52605 -0.393616 0
M  V30 2507 C 243.655 -1.67424 -1.1391 0
M  V30 2508 C 243.983 -0.411859 -1.90089 0
M  V30 2509 O 243.238 0.605626 -1.86093 0
M  V30 2510 C 243.537 -2.85721 -2.14705 0
M  V30 2511 C 243.203 -4.23342 -1.55218 0
M  V30 2512 C 241.865 -4.60771 -1.3872 0
M  V30 2513 C 244.217 -5.09041 -1.11924 0
M  V30 2514 C 241.545 -5.81563 -0.774689 0
M  V30 2515 C 243.897 -6.30452 -0.520853 0
M  V30 2516 C 242.561 -6.66617 -0.343134 0
M  V30 2517 H 241.831 -0.612648 -0.416826 0
M  V30 2518 H 244.478 -1.8674 -0.424315 0
M  V30 2519 H 242.783 -2.60803 -2.92385 0
M  V30 2520 H 244.48 -2.94382 -2.72288 0
M  V30 2521 H 241.07 -3.93855 -1.69045 0
M  V30 2522 H 245.254 -4.80695 -1.23473 0
M  V30 2523 H 240.51 -6.08196 -0.625154 0
M  V30 2524 H 244.684 -6.96175 -0.177065 0
M  V30 2525 H 242.311 -7.60083 0.133571 0
M  V30 2526 N 243.887 0.651787 -1.4349 0
M  V30 2527 C 245.136 1.40754 -1.44469 0
M  V30 2528 C 245.449 1.95463 -0.0731845 0
M  V30 2529 O 246.655 2.71471 0.0395721 0
M  V30 2530 C 245.111 2.54735 -2.5424 0
M  V30 2531 C 244.719 2.06628 -3.97504 0
M  V30 2532 C 246.463 3.32092 -2.64414 0
M  V30 2533 C 244.37 3.17829 -4.98737 0
M  V30 2534 H 243.3 0.528862 -0.53742 0
M  V30 2535 H 245.951 0.703365 -1.69485 0
M  V30 2536 H 244.333 3.2763 -2.22428 0
M  V30 2537 H 245.507 1.40734 -4.38783 0
M  V30 2538 H 243.822 1.42146 -3.91387 0
M  V30 2539 H 246.419 4.14952 -3.37223 0
M  V30 2540 H 246.762 3.80217 -1.69532 0
M  V30 2541 H 247.295 2.66279 -2.95534 0
M  V30 2542 H 244.034 2.74671 -5.95177 0
M  V30 2543 H 243.554 3.82429 -4.62069 0
M  V30 2544 H 245.233 3.82937 -5.21505 0
M  V30 2545 N 245.365 1.30045 0.890287 0
M  V30 2546 C 246.312 1.15976 1.99545 0
M  V30 2547 C 247.282 0.0506202 1.66023 0
M  V30 2548 O 248.467 0.219847 1.89529 0
M  V30 2549 C 245.607 0.852054 3.34416 0
M  V30 2550 C 244.72 2.04255 3.80662 0
M  V30 2551 C 243.855 1.6734 5.04154 0
M  V30 2552 C 242.894 2.82916 5.42794 0
M  V30 2553 N 242.031 2.46333 6.57468 0
M  V30 2554 H 246.871 2.10524 2.10911 0
M  V30 2555 H 244.408 1.04749 1.03276 0
M  V30 2556 H 246.366 0.654296 4.12037 0
M  V30 2557 H 244.996 -0.0565502 3.2275 0
M  V30 2558 H 244.048 2.35172 2.98995 0
M  V30 2559 H 245.36 2.90826 4.05242 0
M  V30 2560 H 244.514 1.43908 5.89386 0
M  V30 2561 H 243.253 0.779308 4.81433 0
M  V30 2562 H 242.258 3.0702 4.56091 0
M  V30 2563 H 243.483 3.73004 5.6749 0
M  V30 2564 H 241.429 1.59423 6.36334 0
M  V30 2565 H 241.346 3.26436 6.81891 0
M  V30 2566 H 242.614 2.26244 7.45945 0
M  V30 2567 N 246.843 -1.10192 1.12674 0
M  V30 2568 C 248.071 -1.85983 0.906527 0
M  V30 2569 C 248.486 -1.80783 -0.544333 0
M  V30 2570 O 247.843 -1.19834 -1.37645 0
M  V30 2571 C 247.894 -3.34281 1.37618 0
M  V30 2572 O 247.615 -3.39401 2.77017 0
M  V30 2573 C 249.116 -4.26938 1.19325 0
M  V30 2574 H 246.336 -0.587716 0.323775 0
M  V30 2575 H 248.88 -1.39284 1.49734 0
M  V30 2576 H 247.035 -3.78436 0.828539 0
M  V30 2577 H 247.449 -4.31838 2.97684 0
M  V30 2578 H 248.923 -5.29181 1.57071 0
M  V30 2579 H 249.4 -4.38995 0.134097 0
M  V30 2580 H 250.006 -3.8859 1.72852 0
M  V30 2581 N 248.321 -0.919034 -1.28029 0
M  V30 2582 C 249.546 -0.570357 -1.99403 0
M  V30 2583 C 249.971 0.842486 -1.68178 0
M  V30 2584 O 249.329 1.56391 -0.917141 0
M  V30 2585 C 249.377 -0.792541 -3.51783 0
M  V30 2586 O 248.481 0.145988 -4.12142 0
M  V30 2587 H 247.822 -0.220555 -0.6263 0
M  V30 2588 H 250.352 -1.23592 -1.63053 0
M  V30 2589 H 250.362 -0.704708 -4.01868 0
M  V30 2590 H 249.037 -1.82247 -3.73844 0
M  V30 2591 H 247.614 0.00897528 -3.72899 0
M  V30 2592 N 249.799 1.42003 -0.683588 0
M  V30 2593 C 251.027 2.05746 -0.218182 0
M  V30 2594 C 251.442 1.51396 1.12804 0
M  V30 2595 O 250.799 0.657303 1.70252 0
M  V30 2596 C 250.85 3.61171 -0.154131 0
M  V30 2597 O 250.571 4.13508 -1.44716 0
M  V30 2598 C 252.072 4.42042 0.333713 0
M  V30 2599 H 249.292 0.662888 -0.10402 0
M  V30 2600 H 251.836 1.81987 -0.9328 0
M  V30 2601 H 249.991 3.84012 0.511231 0
M  V30 2602 H 250.405 5.07453 -1.32632 0
M  V30 2603 H 251.879 5.51028 0.327423 0
M  V30 2604 H 252.356 4.17269 1.37053 0
M  V30 2605 H 252.962 4.24239 -0.300222 0
M  V30 2606 N 251.277 0.427512 1.51691 0
M  V30 2607 C 252.525 -0.141948 2.01601 0
M  V30 2608 C 252.846 -1.44067 1.31414 0
M  V30 2609 O 252.116 -1.90763 0.445658 0
M  V30 2610 H 250.696 -0.0554468 0.744939 0
M  V30 2611 H 253.358 0.567968 1.86441 0
M  V30 2612 H 252.454 -0.324913 3.10404 0
M  V30 2613 N 252.755 -1.56801 0.158532 0
M  V30 2614 C 253.702 -2.17337 -0.776729 0
M  V30 2615 C 254.672 -1.1096 -1.23601 0
M  V30 2616 O 255.857 -1.39054 -1.30647 0
M  V30 2617 C 252.997 -2.80822 -2.00582 0
M  V30 2618 C 252.11 -4.01624 -1.59129 0
M  V30 2619 C 251.245 -4.53072 -2.77306 0
M  V30 2620 C 250.284 -5.66314 -2.32282 0
M  V30 2621 N 249.421 -6.12329 -3.43508 0
M  V30 2622 H 254.261 -2.96918 -0.253701 0
M  V30 2623 H 251.798 -1.46661 -0.113504 0
M  V30 2624 H 253.756 -3.15779 -2.72652 0
M  V30 2625 H 252.386 -2.03866 -2.50277 0
M  V30 2626 H 251.438 -3.72571 -0.767806 0
M  V30 2627 H 252.75 -4.83633 -1.2207 0
M  V30 2628 H 251.904 -4.90145 -3.57551 0
M  V30 2629 H 250.643 -3.70095 -3.17617 0
M  V30 2630 H 249.648 -5.28806 -1.5048 0
M  V30 2631 H 250.873 -6.51085 -1.93043 0
M  V30 2632 H 248.819 -5.32284 -3.83418 0
M  V30 2633 H 248.736 -6.89293 -3.105 0
M  V30 2634 H 250.004 -6.5405 -4.24075 0
M  V30 2635 N 254.233 0.115231 -1.57178 0
M  V30 2636 C 255.479 0.82357 -1.85325 0
M  V30 2637 C 255.812 1.79349 -0.744814 0
M  V30 2638 O 255.087 1.92899 0.249024 0
M  V30 2639 C 255.37 1.57014 -3.24066 0
M  V30 2640 C 255.223 0.619565 -4.45513 0
M  V30 2641 C 256.542 2.52545 -3.60429 0
M  V30 2642 H 253.661 0.297948 -0.674089 0
M  V30 2643 H 256.303 0.0877138 -1.89797 0
M  V30 2644 H 254.453 2.19742 -3.20383 0
M  V30 2645 H 256.125 0.000837639 -4.613 0
M  V30 2646 H 254.368 -0.0686174 -4.33746 0
M  V30 2647 H 255.039 1.17866 -5.3927 0
M  V30 2648 H 257.515 1.9992 -3.64926 0
M  V30 2649 H 256.391 3.01811 -4.58477 0
M  V30 2650 H 256.652 3.35383 -2.88047 0
M  V30 2651 N 255.711 1.52812 0.385517 0
M  V30 2652 C 256.674 1.77188 1.45386 0
M  V30 2653 C 257.674 0.641953 1.4743 0
M  V30 2654 O 258.864 0.910033 1.4854 0
M  V30 2655 C 255.996 1.87582 2.8465 0
M  V30 2656 H 257.189 2.72583 1.25054 0
M  V30 2657 H 254.742 1.43586 0.617467 0
M  V30 2658 H 255.477 0.941849 3.10322 0
M  V30 2659 H 255.262 2.69748 2.84567 0
M  V30 2660 H 256.752 2.08102 3.62054 0
M  V30 2661 N 257.189 -0.644168 1.43834 0
M  V30 2662 C 258.435 -1.40603 1.46146 0
M  V30 2663 C 258.768 -1.93997 0.0887717 0
M  V30 2664 O 258.043 -1.72854 -0.891724 0
M  V30 2665 C 258.326 -2.58086 2.51124 0
M  V30 2666 C 258.179 -2.10126 3.97702 0
M  V30 2667 C 259.498 -3.60291 2.52742 0
M  V30 2668 H 256.617 -0.509905 0.532134 0
M  V30 2669 H 259.259 -0.729502 1.75437 0
M  V30 2670 H 257.409 -3.15801 2.26278 0
M  V30 2671 H 259.081 -1.57342 4.33637 0
M  V30 2672 H 257.324 -1.41419 4.10101 0
M  V30 2673 H 257.995 -2.94649 4.66783 0
M  V30 2674 H 260.471 -3.12352 2.7491 0
M  V30 2675 H 259.347 -4.40032 3.28121 0
M  V30 2676 H 259.608 -4.1349 1.56455 0
M  V30 2677 N 258.668 -1.30515 -0.883378 0
M  V30 2678 C 259.616 -1.16941 -2.01066 0
M  V30 2679 C 260.61 -0.0809148 -1.69207 0
M  V30 2680 O 261.816 -0.241877 -1.78367 0
M  V30 2681 H 258.191 -0.361705 -0.659298 0
M  V30 2682 H 260.162 -2.12344 -2.09649 0
M  V30 2683 C 258.911 -0.879694 -3.36388 0
M  V30 2684 H 258.234 -1.70936 -3.61415 0
M  V30 2685 H 259.674 -0.82483 -4.159 0
M  V30 2686 C 258.133 0.417409 -3.34304 0
M  V30 2687 O 258.663 1.43843 -3.75063 0
M  V30 2688 N 256.869 0.429141 -2.87414 0
M  V30 2689 H 256.416 -0.402222 -2.5444 0
M  V30 2690 H 256.374 1.29696 -2.86403 0
M  V30 2691 N 260.146 1.09593 -1.13257 0
M  V30 2692 C 261.109 2.14359 -0.811358 0
M  V30 2693 C 262.109 1.59808 0.178377 0
M  V30 2694 O 263.299 1.74132 -0.0484911 0
M  V30 2695 C 260.431 3.40269 -0.207276 0
M  V30 2696 H 261.624 2.44284 -1.73969 0
M  V30 2697 H 259.177 1.25102 -0.936973 0
M  V30 2698 H 259.912 3.15969 0.73036 0
M  V30 2699 H 259.697 3.81154 -0.919992 0
M  V30 2700 H 261.187 4.176 0.000667944 0
M  V30 2701 N 261.624 0.925811 1.2754 0
M  V30 2702 C 262.852 0.581509 1.9856 0
M  V30 2703 C 263.267 -0.840041 1.69082 0
M  V30 2704 O 262.624 -1.55805 0.950312 0
M  V30 2705 C 262.675 0.795589 3.52637 0
M  V30 2706 O 262.396 2.16121 3.81082 0
M  V30 2707 C 263.897 0.459744 4.4091 0
M  V30 2708 H 261.117 0.220538 0.633722 0
M  V30 2709 H 263.661 1.24232 1.6244 0
M  V30 2710 H 261.816 0.18161 3.86974 0
M  V30 2711 H 262.23 2.2098 4.75676 0
M  V30 2712 H 263.704 0.660244 5.48037 0
M  V30 2713 H 264.181 -0.604625 4.35018 0
M  V30 2714 H 264.787 1.05178 4.12089 0
M  V30 2715 N 263.102 -1.41638 0.69111 0
M  V30 2716 C 264.513 -1.84346 0.295517 0
M  V30 2717 C 264.864 -1.57833 -1.16547 0
M  V30 2718 O 263.989 -1.04648 -1.89414 0
M  V30 2719 C 264.584 -3.34636 0.529575 0
M  V30 2720 C 263.143 -3.7593 0.187944 0
M  V30 2721 C 262.29 -2.65082 0.814052 0
M  V30 2722 H 265.241 -1.31253 0.892092 0
M  V30 2723 H 265.262 -3.79903 -0.213148 0
M  V30 2724 H 264.774 -3.53901 1.59297 0
M  V30 2725 H 262.875 -3.62268 -0.871367 0
M  V30 2726 H 262.988 -4.74808 0.63985 0
M  V30 2727 H 261.352 -2.53528 0.244017 0
M  V30 2728 H 262.135 -2.87167 1.88123 0
M  V30 2729 N 264.58 -0.43555 -1.51462 0
M  V30 2730 C 265.49 0.383001 -2.31453 0
M  V30 2731 C 266.506 1.02931 -1.4029 0
M  V30 2732 O 267.682 1.02507 -1.73362 0
M  V30 2733 C 264.747 1.47043 -3.13973 0
M  V30 2734 C 263.808 0.844433 -4.20913 0
M  V30 2735 C 263.041 1.88004 -4.9949 0
M  V30 2736 O 263.264 3.10199 -4.78678 0
M  V30 2737 O 262.198 1.47157 -5.83634 0
M  V30 2738 H 266.024 -0.269964 -3.02498 0
M  V30 2739 H 263.609 -0.19813 -1.4808 0
M  V30 2740 H 265.491 2.10113 -3.65281 0
M  V30 2741 H 264.166 2.10751 -2.45695 0
M  V30 2742 H 263.073 0.175729 -3.73687 0
M  V30 2743 H 264.406 0.250869 -4.9156 0
M  V30 2744 N 266.058 1.56714 -0.166846 0
M  V30 2745 C 267.283 2.01557 0.488833 0
M  V30 2746 C 267.708 1.0463 1.56314 0
M  V30 2747 O 267.066 0.0251304 1.81283 0
M  V30 2748 C 267.114 3.4503 1.04818 0
M  V30 2749 O 266.218 3.51163 2.16236 0
M  V30 2750 H 265.559 0.653516 0.117526 0
M  V30 2751 H 268.089 2.02818 -0.269421 0
M  V30 2752 H 268.099 3.84243 1.37191 0
M  V30 2753 H 266.774 4.15077 0.261572 0
M  V30 2754 H 265.351 3.23807 1.84942 0
M  V30 2755 N 267.536 -0.106894 1.57237 0
M  V30 2756 C 268.499 -1.11466 2.0027 0
M  V30 2757 C 269.499 -1.33623 0.894519 0
M  V30 2758 O 270.689 -1.29935 1.16028 0
M  V30 2759 C 267.821 -2.46646 2.35327 0
M  V30 2760 H 269.014 -0.744516 2.90512 0
M  V30 2761 H 266.567 -0.351576 1.52295 0
M  V30 2762 H 267.302 -2.88558 1.48003 0
M  V30 2763 H 267.087 -2.31915 3.16161 0
M  V30 2764 H 268.577 -3.19151 2.69318 0
M  V30 2765 N 269.014 -1.53014 -0.377408 0
M  V30 2766 C 270.43 -1.42523 -0.718281 0
M  V30 2767 C 270.63 -0.55487 -1.9371 0
M  V30 2768 O 269.686 -0.0327593 -2.52479 0
M  V30 2769 C 270.999 -2.85546 -0.942539 0
M  V30 2770 C 272.547 -2.95101 -1.04329 0
M  V30 2771 C 273.022 -4.3916 -1.3001 0
M  V30 2772 N 274.513 -4.42536 -1.36806 0
M  V30 2773 C 275.248 -5.51097 -1.58364 0
M  V30 2774 N 274.744 -6.69724 -1.77317 0
M  V30 2775 N 276.537 -5.38657 -1.60638 0
M  V30 2776 H 268.688 -2.08116 0.424426 0
M  V30 2777 H 270.951 -0.939352 0.127759 0
M  V30 2778 H 270.657 -3.51499 -0.118929 0
M  V30 2779 H 270.531 -3.28493 -1.85397 0
M  V30 2780 H 272.918 -2.29309 -1.85745 0
M  V30 2781 H 272.999 -2.55566 -0.109505 0
M  V30 2782 H 272.643 -5.05521 -0.490991 0
M  V30 2783 H 272.573 -4.76258 -2.24691 0
M  V30 2784 H 275.064 -3.57039 -1.23821 0
M  V30 2785 H 275.377 -7.48233 -1.93306 0
M  V30 2786 H 273.722 -6.72732 -1.74518 0
M  V30 2787 H 276.913 -4.44948 -1.45391 0
M  V30 2788 H 277.086 -6.2333 -1.77098 0
M  V30 2789 N 270.492 0.636531 -1.44174 0
M  V30 2790 C 271.741 1.39213 -1.45954 0
M  V30 2791 C 272.054 1.95374 -0.0939119 0
M  V30 2792 O 273.26 2.71498 0.0107767 0
M  V30 2793 C 271.716 2.52025 -2.56927 0
M  V30 2794 C 271.324 2.024 -3.99673 0
M  V30 2795 C 273.068 3.29269 -2.67922 0
M  V30 2796 C 270.975 3.12521 -5.0208 0
M  V30 2797 H 269.905 0.523132 -0.542999 0
M  V30 2798 H 272.556 0.685349 -1.70221 0
M  V30 2799 H 270.938 3.25253 -2.25891 0
M  V30 2800 H 272.112 1.36073 -4.40251 0
M  V30 2801 H 270.427 1.37987 -3.92872 0
M  V30 2802 H 273.024 4.11352 -3.41605 0
M  V30 2803 H 273.367 3.78397 -1.73555 0
M  V30 2804 H 273.9 2.63129 -2.98342 0
M  V30 2805 H 270.639 2.68343 -5.98057 0
M  V30 2806 H 270.159 3.77507 -4.66099 0
M  V30 2807 H 271.838 3.77385 -5.25538 0
M  V30 2808 N 271.97 1.30982 0.876444 0
M  V30 2809 C 272.903 1.12414 1.98591 0
M  V30 2810 C 273.881 0.0294078 1.62573 0
M  V30 2811 O 275.065 0.184598 1.87594 0
M  V30 2812 C 272.192 0.716276 3.3104 0
M  V30 2813 C 271.238 1.81311 3.86042 0
M  V30 2814 S 272.071 3.41727 4.1229 0
M  V30 2815 C 273.227 3.02863 5.47745 0
M  V30 2816 H 273.46 2.06338 2.14037 0
M  V30 2817 H 270.993 1.15393 1.02586 0
M  V30 2818 H 272.951 0.487697 4.07593 0
M  V30 2819 H 271.612 -0.203749 3.13438 0
M  V30 2820 H 270.805 1.48021 4.81774 0
M  V30 2821 H 270.407 1.99641 3.16259 0
M  V30 2822 H 272.699 2.51353 6.29148 0
M  V30 2823 H 273.642 3.97533 5.8598 0
M  V30 2824 H 274.05 2.40487 5.10711 0
M  V30 2825 N 273.449 -1.08991 1.13837 0
M  V30 2826 C 274.382 -2.15049 0.763477 0
M  V30 2827 C 275.36 -1.60629 -0.252398 0
M  V30 2828 O 276.544 -1.87958 -0.142853 0
M  V30 2829 C 273.671 -3.38441 0.132545 0
M  V30 2830 C 272.717 -4.11596 1.11763 0
M  V30 2831 S 273.55 -4.6521 2.65216 0
M  V30 2832 C 274.706 -5.91896 2.03495 0
M  V30 2833 H 274.939 -2.46518 1.66182 0
M  V30 2834 H 272.472 -1.21008 0.958976 0
M  V30 2835 H 274.43 -4.09883 -0.225074 0
M  V30 2836 H 273.091 -3.05182 -0.743135 0
M  V30 2837 H 272.284 -5.00121 0.624076 0
M  V30 2838 H 271.886 -3.46038 1.41894 0
M  V30 2839 H 274.178 -6.63156 1.38675 0
M  V30 2840 H 275.121 -6.45938 2.9012 0
M  V30 2841 H 275.529 -5.44625 1.48471 0
M  V30 2842 N 274.927 -0.932562 -1.27047 0
M  V30 2843 C 275.837 -0.441219 -2.30414 0
M  V30 2844 C 276.853 0.480525 -1.67233 0
M  V30 2845 O 278.029 0.362151 -1.98117 0
M  V30 2846 C 275.094 0.293651 -3.45454 0
M  V30 2847 C 274.155 -0.663601 -4.2414 0
M  V30 2848 C 273.388 0.0362932 -5.33688 0
M  V30 2849 O 273.611 1.2548 -5.56427 0
M  V30 2850 O 272.545 -0.638015 -5.98509 0
M  V30 2851 H 276.371 -1.29962 -2.74488 0
M  V30 2852 H 273.956 -0.6981 -1.32087 0
M  V30 2853 H 275.838 0.707951 -4.15411 0
M  V30 2854 H 274.513 1.12758 -3.03426 0
M  V30 2855 H 273.42 -1.12768 -3.56699 0
M  V30 2856 H 274.753 -1.46489 -4.69896 0
M  V30 2857 N 276.405 1.4127 -0.698611 0
M  V30 2858 C 277.651 2.01478 -0.231207 0
M  V30 2859 C 277.984 1.55215 1.16713 0
M  V30 2860 O 277.259 0.764672 1.78838 0
M  V30 2861 C 277.542 3.58912 -0.292281 0
M  V30 2862 C 277.395 4.15293 -1.72778 0
M  V30 2863 C 278.714 4.38736 0.346194 0
M  V30 2864 H 275.833 0.732025 -0.0854878 0
M  V30 2865 H 278.475 1.67977 -0.887906 0
M  V30 2866 H 276.625 3.87582 0.26686 0
M  V30 2867 H 278.297 3.97486 -2.341 0
M  V30 2868 H 276.54 3.7022 -2.26096 0
M  V30 2869 H 277.211 5.24452 -1.72202 0
M  V30 2870 H 279.687 4.15897 -0.130035 0
M  V30 2871 H 278.563 5.48221 0.272932 0
M  V30 2872 H 278.824 4.18425 1.42734 0
M  V30 2873 N 277.883 0.443576 1.51229 0
M  V30 2874 C 279.132 -0.122332 2.01329 0
M  V30 2875 C 279.445 -1.43237 1.33201 0
M  V30 2876 O 280.651 -2.0816 1.74304 0
M  V30 2877 C 279.107 -0.268551 3.58897 0
M  V30 2878 C 278.715 1.03142 4.35965 0
M  V30 2879 C 280.459 -0.787894 4.17124 0
M  V30 2880 C 278.366 0.850504 5.85252 0
M  V30 2881 H 277.296 -0.0494929 0.752374 0
M  V30 2882 H 279.947 0.574289 1.74282 0
M  V30 2883 H 278.329 -1.02832 3.82415 0
M  V30 2884 H 279.503 1.80001 4.24189 0
M  V30 2885 H 277.818 1.47977 3.89219 0
M  V30 2886 H 280.415 -0.939841 5.26375 0
M  V30 2887 H 280.758 -1.77201 3.76703 0
M  V30 2888 H 281.291 -0.0862669 3.97706 0
M  V30 2889 H 278.03 1.80718 6.30096 0
M  V30 2890 H 277.55 0.121825 5.99676 0
M  V30 2891 H 279.229 0.506163 6.45017 0
M  V30 2892 N 279.361 -1.56624 0.175154 0
M  V30 2893 C 280.777 -1.58571 -0.180966 0
M  V30 2894 C 280.977 -1.19065 -1.6256 0
M  V30 2895 O 280.033 -0.904044 -2.35761 0
M  V30 2896 C 281.346 -3.00522 0.103326 0
M  V30 2897 C 282.894 -3.12972 0.0418426 0
M  V30 2898 C 283.369 -4.57022 0.299175 0
M  V30 2899 N 284.86 -4.62541 0.247086 0
M  V30 2900 C 285.595 -5.71857 0.420318 0
M  V30 2901 N 285.091 -6.89717 0.652816 0
M  V30 2902 N 286.884 -5.60972 0.355957 0
M  V30 2903 H 279.035 -1.80589 1.11809 0
M  V30 2904 H 281.298 -0.837178 0.444788 0
M  V30 2905 H 281.004 -3.33916 1.10422 0
M  V30 2906 H 280.878 -3.72344 -0.603299 0
M  V30 2907 H 283.265 -2.79403 -0.949636 0
M  V30 2908 H 283.346 -2.43578 0.781238 0
M  V30 2909 H 282.99 -4.913 1.28788 0
M  V30 2910 H 282.92 -5.24579 -0.460876 0
M  V30 2911 H 285.411 -3.77829 0.0731895 0
M  V30 2912 H 285.724 -7.68911 0.774347 0
M  V30 2913 H 284.069 -6.91572 0.689476 0
M  V30 2914 H 287.26 -4.67773 0.174882 0
M  V30 2915 H 287.433 -6.46111 0.494388 0
M  V30 2916 N 280.839 0.0985539 -1.57292 0
M  V30 2917 C 282.116 0.834155 -1.76921 0
M  V30 2918 C 282.496 1.97101 -0.755928 0
M  V30 2919 O 281.844 2.27474 0.216245 0
M  V30 2920 C 282.054 1.33194 -3.22584 0
M  V30 2921 C 283.402 1.77611 -3.85668 0
M  V30 2922 O 284.426 1.42825 -3.26312 0
M  V30 2923 O 283.285 2.4192 -4.90038 0
M  V30 2924 H 280.379 0.397628 -0.725135 0
M  V30 2925 H 282.925 0.0807044 -1.69508 0
M  V30 2926 H 281.697 0.517248 -3.87866 0
M  V30 2927 H 281.32 2.1475 -3.34616 0
M  V30 2928 N 282.317 1.53212 0.369288 0
M  V30 2929 C 283.25 1.74166 1.4745 0
M  V30 2930 C 284.228 0.589923 1.51521 0
M  V30 2931 O 285.412 0.822078 1.69629 0
M  V30 2932 C 282.539 1.81711 2.8583 0
M  V30 2933 C 281.585 3.03649 2.99499 0
M  V30 2934 S 282.418 4.63242 2.6864 0
M  V30 2935 C 283.574 4.7363 4.09177 0
M  V30 2936 H 283.807 2.67636 1.29454 0
M  V30 2937 H 281.34 1.43754 0.563396 0
M  V30 2938 H 283.298 1.86743 3.65564 0
M  V30 2939 H 281.959 0.89299 3.01139 0
M  V30 2940 H 281.152 3.05526 4.00836 0
M  V30 2941 H 280.754 2.9671 2.27683 0
M  V30 2942 H 283.046 4.53456 5.03372 0
M  V30 2943 H 283.989 5.75682 4.12306 0
M  V30 2944 H 284.397 4.02295 3.96004 0
M  V30 2945 N 283.795 -0.628877 1.44509 0
M  V30 2946 C 285.043 -1.38565 1.4712 0
M  V30 2947 C 285.364 -1.94712 0.105899 0
M  V30 2948 O 284.634 -1.75912 -0.862079 0
M  V30 2949 H 283.214 -0.514333 0.541729 0
M  V30 2950 H 285.876 -0.740018 1.80305 0
M  V30 2951 H 284.972 -2.21583 2.19789 0
M  V30 2952 N 285.273 -1.31445 -0.869486 0
M  V30 2953 C 286.519 -1.21337 -1.62496 0
M  V30 2954 C 286.852 0.227872 -1.92858 0
M  V30 2955 O 286.127 1.16094 -1.56053 0
M  V30 2956 C 286.41 -2.05814 -2.95487 0
M  V30 2957 C 286.263 -3.5824 -2.72 0
M  V30 2958 C 287.582 -1.9079 -3.96594 0
M  V30 2959 H 284.701 -0.442135 -0.589649 0
M  V30 2960 H 287.343 -1.6124 -1.00507 0
M  V30 2961 H 285.493 -1.71913 -3.48394 0
M  V30 2962 H 287.165 -4.0228 -2.25762 0
M  V30 2963 H 285.408 -3.81647 -2.06224 0
M  V30 2964 H 286.079 -4.12657 -3.66631 0
M  V30 2965 H 288.555 -2.20459 -3.52898 0
M  V30 2966 H 287.431 -2.52199 -4.87531 0
M  V30 2967 H 287.692 -0.871341 -4.33428 0
M  V30 2968 N 286.751 1.08385 -1.14413 0
M  V30 2969 C 287.661 2.18856 -0.844951 0
M  V30 2970 C 288.677 1.73121 0.174668 0
M  V30 2971 O 289.853 2.014 0.00312857 0
M  V30 2972 C 286.918 3.45155 -0.32696 0
M  V30 2973 C 285.979 4.05513 -1.40916 0
M  V30 2974 C 285.212 5.25784 -0.915793 0
M  V30 2975 O 285.435 5.69884 0.242651 0
M  V30 2976 O 284.369 5.77545 -1.69487 0
M  V30 2977 H 288.195 2.46919 -1.76818 0
M  V30 2978 H 285.78 1.17524 -0.922411 0
M  V30 2979 H 287.662 4.21377 -0.0440211 0
M  V30 2980 H 286.337 3.18668 0.568539 0
M  V30 2981 H 285.244 3.30879 -1.74556 0
M  V30 2982 H 286.577 4.3625 -2.27919 0
M  V30 2983 N 288.23 0.939286 1.26551 0
M  V30 2984 C 289.177 0.446088 2.26448 0
M  V30 2985 C 290.147 -0.493234 1.58608 0
M  V30 2986 O 291.332 -0.409857 1.86346 0
M  V30 2987 C 288.472 -0.284375 3.43926 0
M  V30 2988 C 287.585 0.690399 4.26448 0
M  V30 2989 C 286.72 -0.0610712 5.31165 0
M  V30 2990 C 285.759 0.905649 6.05363 0
M  V30 2991 N 284.896 0.186055 7.01853 0
M  V30 2992 H 289.736 1.30291 2.68008 0
M  V30 2993 H 287.273 0.65371 1.31776 0
M  V30 2994 H 289.231 -0.724313 4.10864 0
M  V30 2995 H 287.861 -1.10535 3.03285 0
M  V30 2996 H 286.913 1.24885 3.59316 0
M  V30 2997 H 288.225 1.42873 4.779 0
M  V30 2998 H 287.379 -0.56038 6.04106 0
M  V30 2999 H 286.118 -0.832297 4.80546 0
M  V30 3000 H 285.123 1.4161 5.3125 0
M  V30 3001 H 286.348 1.67685 6.58072 0
M  V30 3002 H 284.294 -0.566714 6.53548 0
M  V30 3003 H 284.211 0.863752 7.51049 0
M  V30 3004 H 285.479 -0.292221 7.78952 0
M  V30 3005 N 289.708 -1.40897 0.706093 0
M  V30 3006 C 290.936 -2.05373 0.250887 0
M  V30 3007 C 291.351 -1.53172 -1.10381 0
M  V30 3008 O 290.708 -0.684305 -1.69185 0
M  V30 3009 C 290.759 -3.6088 0.211571 0
M  V30 3010 O 290.48 -4.11153 1.51276 0
M  V30 3011 C 291.981 -4.42517 -0.263346 0
M  V30 3012 H 289.201 -0.66115 0.114552 0
M  V30 3013 H 291.745 -1.80479 0.961635 0
M  V30 3014 H 289.9 -3.84777 -0.450073 0
M  V30 3015 H 290.314 -5.05279 1.40689 0
M  V30 3016 H 291.788 -5.51479 -0.239718 0
M  V30 3017 H 292.265 -4.19396 -1.30397 0
M  V30 3018 H 292.871 -4.23708 0.367677 0
M  V30 3019 N 291.186 -0.45159 -1.50991 0
M  V30 3020 C 292.432 0.110237 -2.025 0
M  V30 3021 C 292.765 1.41109 -1.33424 0
M  V30 3022 O 292.04 1.89135 -0.453659 0
M  V30 3023 C 292.323 0.314271 -3.58726 0
M  V30 3024 C 292.176 -1.00623 -4.38401 0
M  V30 3025 C 293.495 1.07767 -4.26702 0
M  V30 3026 H 290.614 0.0385897 -0.735989 0
M  V30 3027 H 293.256 -0.593374 -1.80497 0
M  V30 3028 H 291.406 0.913601 -3.77605 0
M  V30 3029 H 293.078 -1.64064 -4.31139 0
M  V30 3030 H 291.321 -1.6075 -4.02917 0
M  V30 3031 H 291.992 -0.817341 -5.45915 0
M  V30 3032 H 294.468 0.56986 -4.12179 0
M  V30 3033 H 293.344 1.18921 -5.35863 0
M  V30 3034 H 293.605 2.10939 -3.88532 0
M  V30 3035 N 292.664 1.56529 -0.183458 0
M  V30 3036 C 293.912 1.96855 0.457452 0
M  V30 3037 C 294.233 1.07104 1.62953 0
M  V30 3038 O 293.503 0.139887 1.954 0
M  V30 3039 H 292.083 0.72693 0.171992 0
M  V30 3040 H 294.745 1.93056 -0.267476 0
M  V30 3041 H 293.841 3.01423 0.809368 0
M  V30 3042 N 294.142 -0.090211 1.57342 0
M  V30 3043 C 295.389 -0.792807 1.86335 0
M  V30 3044 C 295.717 -1.78494 0.772662 0
M  V30 3045 O 294.972 -1.94305 -0.233258 0
M  V30 3046 C 295.271 -1.55222 3.21933 0
M  V30 3047 C 294.937 -0.701765 4.45406 0
M  V30 3048 C 293.599 -0.467334 4.78925 0
M  V30 3049 C 295.951 -0.11086 5.21082 0
M  V30 3050 C 293.279 0.367785 5.85546 0
M  V30 3051 C 295.631 0.711609 6.28585 0
M  V30 3052 C 294.295 0.956086 6.60617 0
M  V30 3053 H 293.565 -0.290109 0.681849 0
M  V30 3054 H 296.212 -0.0541332 1.91423 0
M  V30 3055 H 294.517 -2.3626 3.12551 0
M  V30 3056 H 296.214 -2.10032 3.41595 0
M  V30 3057 H 292.804 -0.894598 4.1916 0
M  V30 3058 H 296.988 -0.279129 4.95514 0
M  V30 3059 H 292.244 0.566128 6.08773 0
M  V30 3060 H 296.418 1.17632 6.86393 0
M  V30 3061 H 294.045 1.60499 7.43064 0
M  V30 3062 N 295.62 -1.53406 -0.361157 0
M  V30 3063 C 296.567 -1.80156 -1.44265 0
M  V30 3064 C 297.537 -0.646183 -1.53015 0
M  V30 3065 O 298.722 -0.888818 -1.68833 0
M  V30 3066 C 295.862 -2.00116 -2.81154 0
M  V30 3067 C 294.975 -3.27833 -2.81335 0
M  V30 3068 C 294.11 -3.37957 -4.09828 0
M  V30 3069 C 293.149 -4.59689 -4.04168 0
M  V30 3070 N 292.286 -4.66942 -5.24318 0
M  V30 3071 H 297.126 -2.72438 -1.20754 0
M  V30 3072 H 294.663 -1.34954 -0.585296 0
M  V30 3073 H 296.621 -2.09677 -3.60682 0
M  V30 3074 H 295.251 -1.11167 -3.03054 0
M  V30 3075 H 294.303 -3.27204 -1.94014 0
M  V30 3076 H 295.615 -4.17442 -2.73027 0
M  V30 3077 H 294.769 -3.46853 -4.97773 0
M  V30 3078 H 293.508 -2.46372 -4.20894 0
M  V30 3079 H 292.513 -4.50889 -3.14609 0
M  V30 3080 H 293.738 -5.5262 -3.947 0
M  V30 3081 H 291.684 -3.7826 -5.35962 0
M  V30 3082 H 291.601 -5.50462 -5.18197 0
M  V30 3083 H 292.869 -4.80127 -6.14084 0
M  V30 3084 N 297.098 0.621204 -1.44841 0
M  V30 3085 C 298.509 1.20298 -1.42777 0
M  V30 3086 C 298.86 1.95639 -0.148259 0
M  V30 3087 O 297.985 2.02955 0.750892 0
M  V30 3088 C 298.58 2.1882 -2.58657 0
M  V30 3089 C 297.139 2.72403 -2.59756 0
M  V30 3090 C 296.286 1.4757 -2.34773 0
M  V30 3091 H 299.237 0.411297 -1.53278 0
M  V30 3092 H 299.258 3.01607 -2.31977 0
M  V30 3093 H 298.77 1.63957 -3.51766 0
M  V30 3094 H 296.871 3.31242 -1.70615 0
M  V30 3095 H 296.984 3.17765 -3.58556 0
M  V30 3096 H 295.348 1.76051 -1.8406 0
M  V30 3097 H 296.131 0.945954 -3.3001 0
M  V30 3098 N 298.576 1.31904 0.862503 0
M  V30 3099 C 299.539 1.20131 1.95195 0
M  V30 3100 C 300.539 0.126409 1.60302 0
M  V30 3101 O 301.729 0.376234 1.70089 0
M  V30 3102 C 298.861 0.845691 3.30244 0
M  V30 3103 H 300.054 2.16943 2.07064 0
M  V30 3104 H 297.607 1.15622 1.05172 0
M  V30 3105 H 298.342 -0.120957 3.24074 0
M  V30 3106 H 298.127 1.62276 3.56944 0
M  V30 3107 H 299.617 0.787418 4.10109 0
M  V30 3108 N 300.054 -1.07777 1.14986 0
M  V30 3109 C 301.302 -1.79934 0.920235 0
M  V30 3110 C 301.623 -1.86955 -0.554336 0
M  V30 3111 O 300.893 -1.36731 -1.40291 0
M  V30 3112 H 299.473 -0.666424 0.337473 0
M  V30 3113 H 302.135 -1.3027 1.44968 0
M  V30 3114 H 301.231 -2.82539 1.32583 0
M  V30 3115 N 301.532 -0.945985 -1.26051 0
M  V30 3116 C 302.78 -0.594941 -1.93145 0
M  V30 3117 C 303.101 0.86953 -1.7454 0
M  V30 3118 O 302.371 1.61838 -1.10387 0
M  V30 3119 H 300.951 -0.217044 -0.714773 0
M  V30 3120 H 303.613 -1.20235 -1.53393 0
M  V30 3121 H 302.709 -0.816835 -3.01221 0
M  V30 3122 N 303.011 1.40521 -0.713556 0
M  V30 3123 C 304.257 2.01221 -0.252564 0
M  V30 3124 C 304.59 1.56444 1.1506 0
M  V30 3125 O 303.865 0.783597 1.78017 0
M  V30 3126 C 304.148 3.58582 -0.330332 0
M  V30 3127 C 304.001 4.13437 -1.77173 0
M  V30 3128 C 305.32 4.39079 0.299641 0
M  V30 3129 H 302.439 0.731077 -0.0932471 0
M  V30 3130 H 305.081 1.67026 -0.905673 0
M  V30 3131 H 303.231 3.87844 0.225737 0
M  V30 3132 H 304.903 3.9498 -2.38303 0
M  V30 3133 H 303.146 3.67801 -2.3001 0
M  V30 3134 H 303.817 5.22597 -1.77755 0
M  V30 3135 H 306.293 4.15735 -0.174139 0
M  V30 3136 H 305.169 5.4848 0.214771 0
M  V30 3137 H 305.43 4.19915 1.38288 0
M  V30 3138 N 304.489 0.459591 1.5075 0
M  V30 3139 C 305.905 0.113092 1.59199 0
M  V30 3140 C 306.105 -1.37951 1.46874 0
M  V30 3141 O 305.161 -2.15168 1.32132 0
M  V30 3142 C 306.474 0.653043 2.93523 0
M  V30 3143 C 308.022 0.615449 3.0689 0
M  V30 3144 C 308.497 1.13275 4.43771 0
M  V30 3145 N 309.988 1.09167 4.50152 0
M  V30 3146 C 310.723 1.46256 5.54434 0
M  V30 3147 N 310.219 1.90739 6.66026 0
M  V30 3148 N 312.012 1.37932 5.44914 0
M  V30 3149 H 304.163 1.43049 1.57005 0
M  V30 3150 H 306.426 0.590861 0.741341 0
M  V30 3151 H 306.132 1.69822 3.07983 0
M  V30 3152 H 306.006 0.0902132 3.77092 0
M  V30 3153 H 308.393 -0.420793 2.92084 0
M  V30 3154 H 308.474 1.21495 2.25106 0
M  V30 3155 H 308.118 2.16757 4.59324 0
M  V30 3156 H 308.048 0.509576 5.24129 0
M  V30 3157 H 310.539 0.76528 3.7007 0
M  V30 3158 H 310.852 2.17218 7.41644 0
M  V30 3159 H 309.197 1.94683 6.67176 0
M  V30 3160 H 312.388 1.0303 4.56621 0
M  V30 3161 H 312.561 1.67164 6.26067 0
M  V30 3162 N 305.967 -1.56429 0.191757 0
M  V30 3163 C 307.195 -2.01867 -0.453586 0
M  V30 3164 C 307.61 -1.07191 -1.5542 0
M  V30 3165 O 306.967 -0.0762108 -1.82341 0
M  V30 3166 C 307.018 -3.47017 -1.013 0
M  V30 3167 O 306.739 -4.38078 0.0437005 0
M  V30 3168 C 308.24 -4.07956 -1.73456 0
M  V30 3169 H 305.46 -0.661211 -0.114199 0
M  V30 3170 H 308.004 -2.02295 0.299483 0
M  V30 3171 H 306.159 -3.47298 -1.71647 0
M  V30 3172 H 306.573 -5.23178 -0.372212 0
M  V30 3173 H 308.047 -5.1138 -2.07833 0
M  V30 3174 H 308.524 -3.51222 -2.63704 0
M  V30 3175 H 309.13 -4.11437 -1.07702 0
M  V30 3176 N 307.445 0.0818655 -1.57387 0
M  V30 3177 C 308.408 1.08265 -2.02018 0
M  V30 3178 C 309.408 1.32183 -0.915664 0
M  V30 3179 O 310.598 1.28073 -1.18081 0
M  V30 3180 C 307.73 2.42871 -2.39221 0
M  V30 3181 H 308.923 0.698204 -2.91659 0
M  V30 3182 H 306.476 0.327303 -1.52835 0
M  V30 3183 H 307.211 2.86167 -1.52575 0
M  V30 3184 H 306.996 2.26855 -3.19811 0
M  V30 3185 H 308.486 3.14826 -2.74362 0
M  V30 3186 N 308.923 1.53595 0.353017 0
M  V30 3187 C 309.833 1.83897 1.45667 0
M  V30 3188 C 310.849 0.728334 1.58023 0
M  V30 3189 O 312.025 1.01968 1.73679 0
M  V30 3190 C 309.09 2.03383 2.80778 0
M  V30 3191 C 308.151 3.27262 2.77845 0
M  V30 3192 C 307.384 3.45809 4.06512 0
M  V30 3193 O 307.607 2.68387 5.03314 0
M  V30 3194 O 306.541 4.39207 4.11559 0
M  V30 3195 H 310.367 2.77686 1.2298 0
M  V30 3196 H 307.952 1.39132 0.544308 0
M  V30 3197 H 309.834 2.17698 3.60812 0
M  V30 3198 H 308.509 1.12783 3.03417 0
M  V30 3199 H 307.416 3.18359 1.96465 0
M  V30 3200 H 308.749 4.17824 2.60161 0
M  V30 3201 N 310.401 -0.613514 1.45168 0
M  V30 3202 C 311.678 -1.37263 1.39349 0
M  V30 3203 C 312.058 -2.11012 0.0610848 0
M  V30 3204 O 311.406 -2.07502 -0.956825 0
M  V30 3205 C 311.616 -2.3244 2.60332 0
M  V30 3206 C 312.964 -2.9523 3.05163 0
M  V30 3207 O 313.988 -2.42762 2.60663 0
M  V30 3208 O 312.847 -3.90454 3.82372 0
M  V30 3209 H 309.941 -0.615188 0.552696 0
M  V30 3210 H 312.487 -0.637097 1.57287 0
M  V30 3211 H 311.259 -1.77164 3.48896 0
M  V30 3212 H 310.882 -3.13383 2.44698 0
M  V30 3213 N 311.879 -1.3236 -0.855495 0
M  V30 3214 C 312.842 -1.21164 -1.94556 0
M  V30 3215 C 313.842 -0.134908 -1.60233 0
M  V30 3216 O 315.032 -0.385249 -1.69887 0
M  V30 3217 C 312.164 -0.863192 -3.29791 0
M  V30 3218 H 313.357 -2.18038 -2.05911 0
M  V30 3219 H 310.91 -1.16179 -1.04557 0
M  V30 3220 H 311.645 0.103769 -3.24134 0
M  V30 3221 H 311.43 -1.64166 -3.56078 0
M  V30 3222 H 312.92 -0.809156 -4.09686 0
M  V30 3223 N 313.357 1.07166 -1.15556 0
M  V30 3224 C 314.289 2.14341 -0.811815 0
M  V30 3225 C 315.302 1.61835 0.177015 0
M  V30 3226 O 316.491 1.78439 -0.0464996 0
M  V30 3227 C 313.591 3.38387 -0.186481 0
M  V30 3228 C 312.764 4.20238 -1.21321 0
M  V30 3229 C 311.823 5.2266 -0.609302 0
M  V30 3230 O 310.849 5.54719 -1.27576 0
M  V30 3231 N 312.051 5.77306 0.608099 0
M  V30 3232 H 314.816 2.44431 -1.73417 0
M  V30 3233 H 312.377 1.23089 -1.0517 0
M  V30 3234 H 314.369 4.04044 0.230339 0
M  V30 3235 H 312.939 3.05994 0.639249 0
M  V30 3236 H 312.159 3.50369 -1.80652 0
M  V30 3237 H 313.447 4.71736 -1.90638 0
M  V30 3238 H 312.845 5.53513 1.1679 0
M  V30 3239 H 311.402 6.44583 0.96725 0
M  V30 3240 N 314.835 0.952656 1.25548 0
M  V30 3241 C 315.782 0.47008 2.25962 0
M  V30 3242 C 316.752 -0.476384 1.59122 0
M  V30 3243 O 317.937 -0.39007 1.8677 0
M  V30 3244 C 315.077 -0.247881 3.44209 0
M  V30 3245 C 314.19 0.735591 4.25691 0
M  V30 3246 C 313.325 -0.0047306 5.312 0
M  V30 3247 C 312.364 0.969805 6.04368 0
M  V30 3248 N 311.501 0.260486 7.01617 0
M  V30 3249 H 316.341 1.33126 2.66611 0
M  V30 3250 H 313.878 0.66765 1.31076 0
M  V30 3251 H 315.836 -0.680695 4.1161 0
M  V30 3252 H 314.466 -1.07312 3.0444 0
M  V30 3253 H 313.518 1.28689 3.57971 0
M  V30 3254 H 314.83 1.47934 4.76358 0
M  V30 3255 H 313.984 -0.496275 6.04667 0
M  V30 3256 H 312.723 -0.781282 4.81401 0
M  V30 3257 H 311.728 1.47237 5.29718 0
M  V30 3258 H 312.953 1.74655 6.56256 0
M  V30 3259 H 310.899 -0.497364 6.54112 0
M  V30 3260 H 310.816 0.943362 7.50091 0
M  V30 3261 H 312.084 -0.209587 7.79218 0
M  V30 3262 N 316.313 -1.40141 0.720998 0
M  V30 3263 C 317.543 -2.04798 0.27226 0
M  V30 3264 C 317.951 -1.54442 -1.09289 0
M  V30 3265 O 317.294 -0.698342 -1.69908 0
M  V30 3266 C 317.356 -3.59048 0.18027 0
M  V30 3267 C 317.02 -4.32317 1.48159 0
M  V30 3268 C 318.017 -4.59902 2.42458 0
M  V30 3269 C 315.702 -4.71125 1.74202 0
M  V30 3270 C 317.696 -5.25288 3.61042 0
M  V30 3271 C 315.383 -5.36242 2.93066 0
M  V30 3272 C 316.381 -5.63254 3.86308 0
M  V30 3273 O 316.069 -6.27024 5.03086 0
M  V30 3274 H 315.801 -0.665419 0.119139 0
M  V30 3275 H 318.355 -1.80436 0.981432 0
M  V30 3276 H 316.585 -3.82251 -0.58489 0
M  V30 3277 H 318.274 -4.05221 -0.234618 0
M  V30 3278 H 319.04 -4.30379 2.23604 0
M  V30 3279 H 314.919 -4.49466 1.02477 0
M  V30 3280 H 318.463 -5.46289 4.33837 0
M  V30 3281 H 314.36 -5.65185 3.11826 0
M  V30 3282 H 315.128 -6.4552 5.03235 0
M  V30 3283 N 317.792 -0.46758 -1.50504 0
M  V30 3284 C 318.722 0.318381 -2.31319 0
M  V30 3285 C 319.703 0.993564 -1.38066 0
M  V30 3286 O 320.888 0.991411 -1.66987 0
M  V30 3287 C 318.018 1.40275 -3.17711 0
M  V30 3288 C 316.972 0.849373 -4.19487 0
M  V30 3289 C 316.298 2.03177 -4.94594 0
M  V30 3290 C 317.598 -0.136942 -5.2212 0
M  V30 3291 H 319.292 -0.356106 -2.97275 0
M  V30 3292 H 316.838 -0.172703 -1.42961 0
M  V30 3293 H 318.791 1.96004 -3.73042 0
M  V30 3294 H 317.515 2.10596 -2.49634 0
M  V30 3295 H 316.174 0.314076 -3.65252 0
M  V30 3296 H 315.822 2.72187 -4.22993 0
M  V30 3297 H 315.522 1.66774 -5.63436 0
M  V30 3298 H 317.046 2.59403 -5.52759 0
M  V30 3299 H 318.46 0.331056 -5.72343 0
M  V30 3300 H 316.857 -0.41507 -5.98663 0
M  V30 3301 H 317.927 -1.06398 -4.73083 0
M  V30 3302 N 319.27 1.56325 -0.20005 0
M  V30 3303 C 320.233 2.18084 0.705132 0
M  V30 3304 C 321.233 1.13666 1.1374 0
M  V30 3305 O 322.423 1.39023 1.04968 0
M  V30 3306 C 319.555 2.78689 1.96329 0
M  V30 3307 H 320.748 2.99435 0.167023 0
M  V30 3308 H 318.301 1.56221 0.0495725 0
M  V30 3309 H 319.036 2.0115 2.5438 0
M  V30 3310 H 318.821 3.55133 1.66202 0
M  V30 3311 H 320.311 3.26096 2.60866 0
M  V30 3312 N 320.748 -0.0735177 1.57428 0
M  V30 3313 C 321.997 -0.771809 1.86349 0
M  V30 3314 C 322.31 -1.78828 0.792452 0
M  V30 3315 O 323.516 -2.53602 0.96945 0
M  V30 3316 C 321.972 -1.42358 3.30548 0
M  V30 3317 C 321.58 -0.445761 4.45777 0
M  V30 3318 C 323.324 -2.10434 3.6867 0
M  V30 3319 C 321.231 -1.10335 5.81016 0
M  V30 3320 H 320.161 -0.291999 0.695164 0
M  V30 3321 H 322.812 -0.0250749 1.83483 0
M  V30 3322 H 321.194 -2.21852 3.28021 0
M  V30 3323 H 322.368 0.319239 4.59693 0
M  V30 3324 H 320.683 0.130457 4.16196 0
M  V30 3325 H 323.28 -2.60405 4.67004 0
M  V30 3326 H 323.623 -2.90298 2.98383 0
M  V30 3327 H 324.156 -1.37773 3.7318 0
M  V30 3328 H 320.895 -0.345061 6.54591 0
M  V30 3329 H 320.415 -1.83925 5.70904 0
M  V30 3330 H 322.094 -1.62367 6.26295 0
M  V30 3331 N 322.226 -1.5378 -0.344866 0
M  V30 3332 C 323.189 -1.80981 -1.40637 0
M  V30 3333 C 324.189 -0.680816 -1.45676 0
M  V30 3334 O 325.379 -0.949095 -1.46075 0
M  V30 3335 C 322.511 -1.95063 -2.79577 0
M  V30 3336 H 323.704 -2.75803 -1.17783 0
M  V30 3337 H 321.257 -1.45173 -0.579181 0
M  V30 3338 H 321.992 -1.02379 -3.07716 0
M  V30 3339 H 321.777 -2.77198 -2.77315 0
M  V30 3340 H 323.267 -2.17629 -3.56409 0
M  V30 3341 N 323.704 0.605807 -1.45491 0
M  V30 3342 C 324.981 1.36522 -1.40075 0
M  V30 3343 C 325.361 2.10976 -0.0722744 0
M  V30 3344 O 324.709 2.08007 0.945808 0
M  V30 3345 C 324.919 2.31056 -2.61561 0
M  V30 3346 C 326.267 2.93608 -3.06724 0
M  V30 3347 O 327.291 2.41376 -2.61946 0
M  V30 3348 O 326.15 3.88421 -3.84437 0
M  V30 3349 H 323.244 0.612248 -0.555951 0
M  V30 3350 H 325.79 0.628747 -1.57623 0
M  V30 3351 H 324.562 1.75311 -3.49831 0
M  V30 3352 H 324.185 3.12081 -2.46356 0
M  V30 3353 N 325.182 1.32811 0.848464 0
M  V30 3354 C 326.092 1.24278 1.98978 0
M  V30 3355 C 327.108 0.155176 1.73307 0
M  V30 3356 O 328.284 0.376999 1.9784 0
M  V30 3357 C 325.349 0.972444 3.32783 0
M  V30 3358 C 324.41 2.14911 3.71634 0
M  V30 3359 C 323.643 1.89157 4.99054 0
M  V30 3360 O 323.866 0.837165 5.64223 0
M  V30 3361 O 322.8 2.75433 5.35183 0
M  V30 3362 H 326.626 2.20238 2.09115 0
M  V30 3363 H 324.211 1.12762 0.980052 0
M  V30 3364 H 326.093 0.838432 4.12975 0
M  V30 3365 H 324.768 0.043051 3.23671 0
M  V30 3366 H 323.675 2.33862 2.91992 0
M  V30 3367 H 325.008 3.06151 3.85399 0
M  V30 3368 N 326.66 -1.06551 1.16123 0
M  V30 3369 C 327.59 -2.15935 0.88851 0
M  V30 3370 C 328.571 -1.69306 -0.164135 0
M  V30 3371 O 329.756 -1.94193 -0.0167857 0
M  V30 3372 C 326.886 -3.45149 0.385942 0
M  V30 3373 C 325.84 -4.05271 1.3762 0
M  V30 3374 C 325.166 -5.29664 0.732137 0
M  V30 3375 C 326.466 -4.44355 2.74493 0
M  V30 3376 H 328.16 -2.39006 1.80323 0
M  V30 3377 H 325.706 -1.14866 0.868435 0
M  V30 3378 H 327.659 -4.21004 0.182647 0
M  V30 3379 H 326.383 -3.21689 -0.564274 0
M  V30 3380 H 325.042 -3.3147 1.56599 0
M  V30 3381 H 324.69 -5.02499 -0.224483 0
M  V30 3382 H 324.39 -5.70848 1.39307 0
M  V30 3383 H 325.914 -6.08218 0.538802 0
M  V30 3384 H 327.328 -5.11303 2.59311 0
M  V30 3385 H 325.725 -4.96515 3.37035 0
M  V30 3386 H 326.795 -3.55339 3.29943 0
M  V30 3387 N 328.138 -0.959301 -1.25041 0
M  V30 3388 C 329.385 -0.616611 -1.92884 0
M  V30 3389 C 329.713 0.847036 -1.75087 0
M  V30 3390 O 328.968 1.62374 -1.09239 0
M  V30 3391 C 329.267 -0.927136 -3.45165 0
M  V30 3392 C 328.933 -2.37757 -3.83122 0
M  V30 3393 C 327.595 -2.77402 -3.93194 0
M  V30 3394 C 329.947 -3.31929 -4.01836 0
M  V30 3395 C 327.275 -4.10277 -4.19392 0
M  V30 3396 C 329.627 -4.64423 -4.29528 0
M  V30 3397 C 328.291 -5.03857 -4.37818 0
M  V30 3398 H 327.561 -0.225634 -0.705812 0
M  V30 3399 H 330.208 -1.20921 -1.48493 0
M  V30 3400 H 328.513 -0.252195 -3.90987 0
M  V30 3401 H 330.21 -0.6405 -3.95852 0
M  V30 3402 H 326.8 -2.06013 -3.75841 0
M  V30 3403 H 330.984 -3.02488 -3.93465 0
M  V30 3404 H 326.24 -4.40467 -4.24027 0
M  V30 3405 H 330.414 -5.37369 -4.42953 0
M  V30 3406 H 328.041 -6.06843 -4.57871 0
M  V30 3407 N 329.616 1.39756 -0.72842 0
M  V30 3408 C 330.864 2.00248 -0.272946 0
M  V30 3409 C 331.185 1.58077 1.14178 0
M  V30 3410 O 330.455 0.826014 1.77634 0
M  V30 3411 H 329.035 0.740554 -0.0979247 0
M  V30 3412 H 331.697 1.70903 -0.936912 0
M  V30 3413 H 330.793 3.10495 -0.316142 0
M  V30 3414 N 331.094 0.475555 1.50254 0
M  V30 3415 C 332.057 -0.305016 2.27161 0
M  V30 3416 C 333.057 -0.916519 1.32123 0
M  V30 3417 O 334.247 -0.785003 1.5551 0
M  V30 3418 C 331.379 -1.43496 3.09227 0
M  V30 3419 H 332.572 0.369511 2.97615 0
M  V30 3420 H 330.125 0.229747 1.54602 0
M  V30 3421 H 330.86 -2.14441 2.43281 0
M  V30 3422 H 330.645 -1.00223 3.79075 0
M  V30 3423 H 332.135 -1.98548 3.67381 0
M  V30 3424 N 332.573 -1.56217 0.208337 0
M  V30 3425 C 333.85 -1.89739 -0.475234 0
M  V30 3426 C 334.23 -1.1238 -1.78701 0
M  V30 3427 O 333.578 -0.228979 -2.2735 0
M  V30 3428 C 333.788 -3.42289 -0.681101 0
M  V30 3429 C 335.136 -4.12789 -0.994507 0
M  V30 3430 O 336.16 -3.47814 -0.768357 0
M  V30 3431 O 335.019 -5.27649 -1.42299 0
M  V30 3432 H 332.113 -0.788478 -0.249461 0
M  V30 3433 H 334.659 -1.67855 0.249538 0
M  V30 3434 H 333.431 -3.90534 0.244722 0
M  V30 3435 H 333.054 -3.69909 -1.45785 0
M  V30 3436 N 334.051 0.0651679 -1.57465 0
M  V30 3437 C 335.297 0.758912 -1.88712 0
M  V30 3438 C 335.652 1.7485 -0.802819 0
M  V30 3439 O 334.945 1.90632 0.192359 0
M  V30 3440 C 335.139 1.50081 -3.24362 0
M  V30 3441 C 334.968 0.584579 -4.45884 0
M  V30 3442 C 333.738 0.219039 -5.04825 0
M  V30 3443 C 335.936 -0.121559 -5.14156 0
M  V30 3444 N 333.918 -0.702222 -6.09871 0
M  V30 3445 C 335.289 -0.899767 -6.13436 0
M  V30 3446 C 337.344 -0.192331 -4.97528 0
M  V30 3447 C 336.047 -1.74218 -6.97883 0
M  V30 3448 C 338.073 -1.02174 -5.82507 0
M  V30 3449 C 337.435 -1.78798 -6.8133 0
M  V30 3450 H 333.534 0.25293 -0.739967 0
M  V30 3451 H 336.118 0.0201744 -1.9469 0
M  V30 3452 H 334.289 2.21023 -3.1938 0
M  V30 3453 H 336.021 2.14409 -3.43236 0
M  V30 3454 H 332.776 0.57336 -4.70117 0
M  V30 3455 H 333.2 -1.15629 -6.67052 0
M  V30 3456 H 337.842 0.385741 -4.21037 0
M  V30 3457 H 335.56 -2.3312 -7.73745 0
M  V30 3458 H 339.146 -1.07957 -5.71696 0
M  V30 3459 H 338.026 -2.41942 -7.45945 0
M  V30 3460 N 335.529 1.53961 0.336706 0
M  V30 3461 C 336.492 1.81724 1.39675 0
M  V30 3462 C 337.492 0.688532 1.45313 0
M  V30 3463 O 338.682 0.956829 1.45569 0
M  V30 3464 C 335.814 1.96543 2.78538 0
M  V30 3465 H 337.007 2.76424 1.16318 0
M  V30 3466 H 334.56 1.45478 0.571474 0
M  V30 3467 H 335.295 1.0401 3.07168 0
M  V30 3468 H 335.08 2.78665 2.75841 0
M  V30 3469 H 336.57 2.19516 3.5525 0
M  V30 3470 N 337.007 -0.598083 1.45811 0
M  V30 3471 C 338.284 -1.35777 1.40797 0
M  V30 3472 C 338.664 -2.10935 0.083462 0
M  V30 3473 O 338.012 -2.08505 -0.934763 0
M  V30 3474 C 338.222 -2.29666 2.62783 0
M  V30 3475 C 339.57 -2.91977 3.08277 0
M  V30 3476 O 340.594 -2.39984 2.63223 0
M  V30 3477 O 339.453 -3.86376 3.86491 0
M  V30 3478 H 336.547 -0.609291 0.55919 0
M  V30 3479 H 339.093 -0.620379 1.57954 0
M  V30 3480 H 337.865 -1.73454 3.50756 0
M  V30 3481 H 337.488 -3.1077 2.48008 0
M  V30 3482 N 338.485 -1.33259 -0.841409 0
M  V30 3483 C 339.448 -1.23221 -1.9326 0
M  V30 3484 C 340.448 -0.151895 -1.60081 0
M  V30 3485 O 341.638 -0.403246 -1.69468 0
M  V30 3486 C 338.77 -0.898123 -3.28856 0
M  V30 3487 H 339.963 -2.2021 -2.03587 0
M  V30 3488 H 337.516 -1.17281 -1.03319 0
M  V30 3489 H 338.251 0.0693841 -3.24226 0
M  V30 3490 H 338.036 -1.67934 -3.54317 0
M  V30 3491 H 339.526 -0.852563 -4.08805 0
M  V30 3492 N 339.963 1.05934 -1.16686 0
M  V30 3493 C 341.379 1.30938 -0.912542 0
M  V30 3494 C 341.579 1.96803 0.432533 0
M  V30 3495 O 340.635 2.23693 1.17123 0
M  V30 3496 C 341.948 2.18649 -2.06429 0
M  V30 3497 C 343.496 2.32055 -2.10047 0
M  V30 3498 C 343.971 3.23122 -3.24586 0
M  V30 3499 N 345.462 3.30706 -3.24327 0
M  V30 3500 C 346.197 4.01273 -4.09594 0
M  V30 3501 N 345.693 4.74332 -5.04956 0
M  V30 3502 N 347.486 3.97361 -3.97569 0
M  V30 3503 H 339.637 0.615777 -2.03278 0
M  V30 3504 H 341.9 0.334077 -0.887185 0
M  V30 3505 H 341.606 1.77534 -3.03603 0
M  V30 3506 H 341.48 3.19252 -2.00894 0
M  V30 3507 H 343.867 2.72415 -1.13464 0
M  V30 3508 H 343.948 1.31107 -2.19647 0
M  V30 3509 H 343.592 2.83477 -4.2143 0
M  V30 3510 H 343.522 4.24057 -3.12223 0
M  V30 3511 H 346.013 2.78644 -2.55276 0
M  V30 3512 H 346.326 5.25716 -5.6643 0
M  V30 3513 H 344.671 4.733 -5.08933 0
M  V30 3514 H 347.862 3.39405 -3.22369 0
M  V30 3515 H 348.035 4.52089 -4.64241 0
M  V30 3516 N 341.441 0.965919 1.2453 0
M  V30 3517 C 342.391 0.465731 2.23193 0
M  V30 3518 C 343.375 -0.451277 1.54442 0
M  V30 3519 O 344.567 -0.282489 1.74731 0
M  V30 3520 C 341.696 -0.244511 3.42428 0
M  V30 3521 C 340.782 0.691222 4.18429 0
M  V30 3522 N 341.173 1.82771 4.71623 0
M  V30 3523 C 339.471 0.501649 4.4317 0
M  V30 3524 C 340.172 2.41285 5.29298 0
M  V30 3525 N 339.148 1.69819 5.16394 0
M  V30 3526 H 342.95 1.33291 2.61937 0
M  V30 3527 H 340.464 0.824789 1.39896 0
M  V30 3528 H 342.461 -0.620056 4.12263 0
M  V30 3529 H 341.121 -1.10815 3.05205 0
M  V30 3530 H 342.132 2.20929 4.68413 0
M  V30 3531 H 338.809 -0.318177 4.16286 0
M  V30 3532 H 340.199 3.37181 5.8117 0
M  V30 3533 N 342.919 -1.39368 0.735821 0
M  V30 3534 C 344.149 -2.04498 0.293967 0
M  V30 3535 C 344.557 -1.55593 -1.07645 0
M  V30 3536 O 343.9 -0.716324 -1.69158 0
M  V30 3537 C 343.962 -3.58836 0.218342 0
M  V30 3538 C 343.626 -4.30721 1.52736 0
M  V30 3539 C 344.623 -4.57305 2.47322 0
M  V30 3540 C 342.308 -4.69251 1.79189 0
M  V30 3541 C 344.302 -5.21429 3.66593 0
M  V30 3542 C 341.989 -5.33104 2.98737 0
M  V30 3543 C 342.987 -5.59125 3.9226 0
M  V30 3544 O 342.675 -6.21653 5.09708 0
M  V30 3545 H 342.407 -0.664118 0.126189 0
M  V30 3546 H 344.961 -1.79385 1.00051 0
M  V30 3547 H 343.191 -3.8285 -0.544314 0
M  V30 3548 H 344.88 -4.05447 -0.191626 0
M  V30 3549 H 345.646 -4.27983 2.28156 0
M  V30 3550 H 341.525 -4.48354 1.07239 0
M  V30 3551 H 345.069 -5.41656 4.39607 0
M  V30 3552 H 340.966 -5.61846 3.17803 0
M  V30 3553 H 341.734 -6.40146 5.10054 0
M  V30 3554 N 344.397 -0.483516 -1.5 0
M  V30 3555 C 345.813 -0.138404 -1.58999 0
M  V30 3556 C 346.013 1.35597 -1.4905 0
M  V30 3557 O 345.069 2.13039 -1.35539 0
M  V30 3558 C 346.382 -0.699658 -2.92447 0
M  V30 3559 C 347.93 -0.664195 -3.05872 0
M  V30 3560 C 348.405 -1.20321 -4.41913 0
M  V30 3561 N 349.896 -1.16315 -4.48358 0
M  V30 3562 C 350.631 -1.55058 -5.52037 0
M  V30 3563 N 350.127 -2.01311 -6.62907 0
M  V30 3564 N 351.92 -1.46584 -5.42651 0
M  V30 3565 H 344.071 -1.45529 -1.5471 0
M  V30 3566 H 346.334 -0.60258 -0.731848 0
M  V30 3567 H 346.04 -1.747 -3.05242 0
M  V30 3568 H 345.914 -0.150194 -3.76901 0
M  V30 3569 H 348.301 0.374272 -2.92717 0
M  V30 3570 H 348.382 -1.25061 -2.23144 0
M  V30 3571 H 348.026 -2.24037 -4.55818 0
M  V30 3572 H 347.956 -0.592896 -5.23252 0
M  V30 3573 H 350.447 -0.824058 -3.68806 0
M  V30 3574 H 350.76 -2.2899 -7.38095 0
M  V30 3575 H 349.105 -2.05273 -6.63994 0
M  V30 3576 H 352.296 -1.10281 -4.54924 0
M  V30 3577 H 352.469 -1.77103 -6.23329 0
M  V30 3578 N 345.875 1.56104 -0.216619 0
M  V30 3579 C 347.122 1.98172 0.416416 0
M  V30 3580 C 347.45 1.10413 1.60122 0
M  V30 3581 O 346.705 0.147967 1.9514 0
M  V30 3582 C 347.004 3.45923 0.898464 0
M  V30 3583 C 346.67 4.50559 -0.175288 0
M  V30 3584 C 345.332 4.78897 -0.470271 0
M  V30 3585 C 347.684 5.1334 -0.901728 0
M  V30 3586 C 345.012 5.67299 -1.4963 0
M  V30 3587 C 347.364 6.02853 -1.91705 0
M  V30 3588 C 346.028 6.29537 -2.21901 0
M  V30 3589 H 345.298 0.725164 0.152377 0
M  V30 3590 H 347.945 1.88839 -0.318103 0
M  V30 3591 H 346.25 3.52434 1.71165 0
M  V30 3592 H 347.947 3.75841 1.39803 0
M  V30 3593 H 344.537 4.28551 0.0647806 0
M  V30 3594 H 348.721 4.91521 -0.687072 0
M  V30 3595 H 343.977 5.86239 -1.73592 0
M  V30 3596 H 348.151 6.50552 -2.48505 0
M  V30 3597 H 345.778 6.97835 -3.01548 0
M  V30 3598 N 347.353 -0.0568162 1.57498 0
M  V30 3599 C 348.601 -0.751617 1.87604 0
M  V30 3600 C 348.922 -1.77351 0.81066 0
M  V30 3601 O 348.192 -1.95254 -0.159018 0
M  V30 3602 H 346.772 -0.280583 0.692302 0
M  V30 3603 H 349.434 -0.0293483 1.94878 0
M  V30 3604 H 348.53 -1.25852 2.856 0
M  V30 3605 N 348.832 -1.54138 -0.328536 0
M  V30 3606 C 349.795 -1.82462 -1.38709 0
M  V30 3607 C 350.795 -0.696229 -1.44946 0
M  V30 3608 O 351.985 -0.964535 -1.4506 0
M  V30 3609 C 349.117 -1.98018 -2.77492 0
M  V30 3610 H 350.31 -2.77037 -1.14851 0
M  V30 3611 H 347.863 -1.45779 -0.563751 0
M  V30 3612 H 348.598 -1.05637 -3.06613 0
M  V30 3613 H 348.383 -2.80124 -2.74359 0
M  V30 3614 H 349.873 -2.21396 -3.54081 0
M  V30 3615 N 350.31 0.590341 -1.46126 0
M  V30 3616 C 351.535 1.37991 -1.54833 0
M  V30 3617 C 351.96 1.87163 -0.187506 0
M  V30 3618 O 351.318 1.61133 0.831008 0
M  V30 3619 C 351.366 2.54867 -2.55098 0
M  V30 3620 O 350.47 3.56061 -2.08073 0
M  V30 3621 H 349.811 0.411265 -0.521303 0
M  V30 3622 H 352.341 0.716819 -1.91632 0
M  V30 3623 H 352.351 3.01886 -2.74461 0
M  V30 3624 H 351.026 2.18429 -3.53923 0
M  V30 3625 H 349.603 3.15574 -1.98664 0
M  V30 3626 N 351.788 1.33704 0.83433 0
M  V30 3627 C 353.013 1.28615 1.62705 0
M  V30 3628 C 353.438 -0.139242 1.87584 0
M  V30 3629 O 352.796 -1.09734 1.4432 0
M  V30 3630 C 352.844 2.07139 2.95171 0
M  V30 3631 O 351.948 1.4331 3.86699 0
M  V30 3632 H 351.289 0.44226 0.49528 0
M  V30 3633 H 353.819 1.76335 1.03766 0
M  V30 3634 H 353.829 2.18073 3.44831 0
M  V30 3635 H 352.504 3.10779 2.76386 0
M  V30 3636 H 351.081 1.4105 3.45195 0
M  V30 3637 N 353.266 -1.05314 1.17247 0
M  V30 3638 C 354.196 -2.1498 0.911362 0
M  V30 3639 C 355.177 -1.69471 -0.146169 0
M  V30 3640 O 356.362 -1.942 0.003812 0
M  V30 3641 C 353.492 -3.4472 0.422528 0
M  V30 3642 C 352.446 -4.03789 1.4191 0
M  V30 3643 C 351.772 -5.28858 0.788274 0
M  V30 3644 C 353.072 -4.41418 2.7919 0
M  V30 3645 H 354.766 -2.3708 1.82848 0
M  V30 3646 H 352.312 -1.13938 0.880569 0
M  V30 3647 H 354.265 -4.20787 0.227289 0
M  V30 3648 H 352.989 -3.22269 -0.530123 0
M  V30 3649 H 351.648 -3.2979 1.60106 0
M  V30 3650 H 351.296 -5.02709 -0.171173 0
M  V30 3651 H 350.996 -5.69338 1.45353 0
M  V30 3652 H 352.52 -6.07612 0.603282 0
M  V30 3653 H 353.934 -5.08524 2.64719 0
M  V30 3654 H 352.331 -4.92913 3.42282 0
M  V30 3655 H 353.401 -3.51819 3.33693 0
M  V30 3656 N 354.744 -0.972509 -1.24016 0
M  V30 3657 C 355.674 -0.525548 -2.27509 0
M  V30 3658 C 356.655 0.437262 -1.64384 0
M  V30 3659 O 357.84 0.332343 -1.91335 0
M  V30 3660 C 354.97 0.180448 -3.46831 0
M  V30 3661 C 353.924 -0.698859 -4.22256 0
M  V30 3662 C 353.25 0.138903 -5.3452 0
M  V30 3663 C 354.55 -1.98582 -4.83076 0
M  V30 3664 H 356.244 -1.39058 -2.65148 0
M  V30 3665 H 353.79 -0.67009 -1.27459 0
M  V30 3666 H 355.743 0.504387 -4.18371 0
M  V30 3667 H 354.467 1.07987 -3.08231 0
M  V30 3668 H 353.126 -1.00614 -3.52523 0
M  V30 3669 H 352.774 1.03862 -4.9216 0
M  V30 3670 H 352.474 -0.446259 -5.85903 0
M  V30 3671 H 353.998 0.457404 -6.08884 0
M  V30 3672 H 355.412 -1.72715 -5.46665 0
M  V30 3673 H 353.809 -2.5181 -5.44713 0
M  V30 3674 H 354.879 -2.67769 -4.04262 0
M  V30 3675 N 356.222 1.38976 -0.743202 0
M  V30 3676 C 357.185 2.28901 -0.117014 0
M  V30 3677 C 358.185 1.46698 0.658503 0
M  V30 3678 O 359.375 1.67274 0.486305 0
M  V30 3679 C 356.507 3.30309 0.84315 0
M  V30 3680 H 357.7 2.8578 -0.909373 0
M  V30 3681 H 355.253 1.47761 -0.509547 0
M  V30 3682 H 355.988 2.785 1.66157 0
M  V30 3683 H 355.773 3.91029 0.289594 0
M  V30 3684 H 357.263 3.97577 1.2776 0
M  V30 3685 N 357.7 0.491464 1.49741 0
M  V30 3686 C 358.925 -0.0557177 2.07325 0
M  V30 3687 C 359.35 -1.30925 1.35056 0
M  V30 3688 O 358.708 -1.76733 0.404365 0
M  V30 3689 C 358.756 -0.302074 3.59333 0
M  V30 3690 O 357.86 -1.37868 3.88672 0
M  V30 3691 H 357.201 0.0219956 0.663636 0
M  V30 3692 H 359.731 0.688352 1.92673 0
M  V30 3693 H 359.741 -0.536464 4.04458 0
M  V30 3694 H 358.416 0.61383 4.11345 0
M  V30 3695 H 356.993 -1.12999 3.55367 0
M  V30 3696 N 359.178 -1.55987 0.224894 0
M  V30 3697 C 360.108 -2.23426 -0.678457 0
M  V30 3698 C 361.089 -1.20709 -1.19847 0
M  V30 3699 O 362.274 -1.49304 -1.24186 0
M  V30 3700 C 359.404 -2.91676 -1.88527 0
M  V30 3701 C 358.358 -4.00893 -1.49896 0
M  V30 3702 C 357.684 -4.56455 -2.78483 0
M  V30 3703 C 358.984 -5.17769 -0.686461 0
M  V30 3704 H 360.678 -2.99175 -0.116173 0
M  V30 3705 H 358.224 -1.43897 -0.054436 0
M  V30 3706 H 360.177 -3.37547 -2.5227 0
M  V30 3707 H 358.901 -2.1338 -2.47258 0
M  V30 3708 H 357.56 -3.55758 -0.884985 0
M  V30 3709 H 357.208 -3.74886 -3.35365 0
M  V30 3710 H 356.908 -5.30169 -2.53368 0
M  V30 3711 H 358.432 -5.05047 -3.43162 0
M  V30 3712 H 359.846 -5.60001 -1.22767 0
M  V30 3713 H 358.243 -5.97735 -0.532259 0
M  V30 3714 H 359.313 -4.83932 0.306196 0
M  V30 3715 N 360.656 0.0484629 -1.57525 0
M  V30 3716 C 361.586 1.0549 -2.08313 0
M  V30 3717 C 362.567 1.38929 -0.981463 0
M  V30 3718 O 363.752 1.48151 -1.25558 0
M  V30 3719 C 360.882 2.36162 -2.54646 0
M  V30 3720 C 359.836 2.17016 -3.68901 0
M  V30 3721 C 359.162 3.53278 -4.01371 0
M  V30 3722 C 360.462 1.57219 -4.98076 0
M  V30 3723 H 362.156 0.632195 -2.92649 0
M  V30 3724 H 359.702 0.302654 -1.40784 0
M  V30 3725 H 361.655 3.06882 -2.88793 0
M  V30 3726 H 360.379 2.80456 -1.67368 0
M  V30 3727 H 359.038 1.48733 -3.35073 0
M  V30 3728 H 358.686 3.95185 -3.11188 0
M  V30 3729 H 358.386 3.41299 -4.78318 0
M  V30 3730 H 359.91 4.25391 -4.38035 0
M  V30 3731 H 361.324 2.17832 -5.30304 0
M  V30 3732 H 359.721 1.55871 -5.79503 0
M  V30 3733 H 360.791 0.535956 -4.81929 0
M  V30 3734 N 362.134 1.5431 0.320358 0
M  V30 3735 C 363.081 1.83918 1.39438 0
M  V30 3736 C 364.051 0.686525 1.51248 0
M  V30 3737 O 365.236 0.933269 1.66417 0
M  V30 3738 C 362.376 2.075 2.75749 0
M  V30 3739 C 361.489 3.35177 2.72544 0
M  V30 3740 C 360.624 3.48704 4.00723 0
M  V30 3741 C 359.663 4.70244 3.91838 0
M  V30 3742 N 358.8 4.80679 5.11754 0
M  V30 3743 H 363.64 2.75544 1.13489 0
M  V30 3744 H 361.177 1.36459 0.549309 0
M  V30 3745 H 363.135 2.19166 3.54996 0
M  V30 3746 H 361.765 1.19163 3 0
M  V30 3747 H 360.817 3.32233 1.85271 0
M  V30 3748 H 362.129 4.24534 2.61863 0
M  V30 3749 H 361.283 3.59928 4.88402 0
M  V30 3750 H 360.022 2.57445 4.14214 0
M  V30 3751 H 359.027 4.59072 3.02544 0
M  V30 3752 H 360.252 5.6289 3.7991 0
M  V30 3753 H 358.198 3.92337 5.25745 0
M  V30 3754 H 358.115 5.64007 5.0342 0
M  V30 3755 H 359.383 4.96239 6.01138 0
M  V30 3756 N 363.613 -0.582584 1.46437 0
M  V30 3757 C 364.576 -1.67366 1.56592 0
M  V30 3758 C 365.576 -1.54575 0.443072 0
M  V30 3759 O 366.766 -1.59191 0.707381 0
M  V30 3760 C 363.898 -3.06791 1.48634 0
M  V30 3761 H 365.091 -1.5972 2.5383 0
M  V30 3762 H 362.644 -0.800432 1.34249 0
M  V30 3763 H 363.379 -3.19993 0.526763 0
M  V30 3764 H 363.164 -3.17484 2.30101 0
M  V30 3765 H 364.654 -3.86218 1.58826 0
M  V30 3766 N 365.091 -1.34144 -0.827227 0
M  V30 3767 C 366.021 -1.28005 -1.95287 0
M  V30 3768 C 367.002 -0.158321 -1.69362 0
M  V30 3769 O 368.187 -0.349987 -1.9102 0
M  V30 3770 C 365.317 -1.03036 -3.31664 0
M  V30 3771 C 364.271 -2.11628 -3.72019 0
M  V30 3772 C 363.597 -1.71854 -5.0633 0
M  V30 3773 C 364.897 -3.53417 -3.8457 0
M  V30 3774 H 366.591 -2.22187 -2.00682 0
M  V30 3775 H 364.137 -1.0696 -0.964135 0
M  V30 3776 H 366.09 -0.973863 -4.09993 0
M  V30 3777 H 364.814 -0.0529391 -3.26557 0
M  V30 3778 H 363.473 -2.16339 -2.95961 0
M  V30 3779 H 363.121 -0.727841 -4.97706 0
M  V30 3780 H 362.821 -2.44531 -5.34302 0
M  V30 3781 H 364.345 -1.67692 -5.87122 0
M  V30 3782 H 365.759 -3.51142 -4.5318 0
M  V30 3783 H 364.156 -4.24679 -4.2399 0
M  V30 3784 H 365.226 -3.91072 -2.86689 0
M  V30 3785 N 366.569 1.04691 -1.17803 0
M  V30 3786 C 367.817 1.7743 -0.967617 0
M  V30 3787 C 368.138 1.88359 0.504574 0
M  V30 3788 O 367.408 1.40402 1.36617 0
M  V30 3789 H 365.988 0.657242 -0.355024 0
M  V30 3790 H 368.65 1.2638 -1.48371 0
M  V30 3791 H 367.746 2.78924 -1.40027 0
M  V30 3792 N 368.047 0.979072 1.23499 0
M  V30 3793 C 368.997 0.489378 2.22686 0
M  V30 3794 C 369.981 -0.434871 1.54912 0
M  V30 3795 O 371.173 -0.263941 1.75021 0
M  V30 3796 C 368.302 -0.208178 3.42668 0
M  V30 3797 C 367.388 0.735563 4.17672 0
M  V30 3798 N 367.779 1.87763 4.69658 0
M  V30 3799 C 366.077 0.548625 4.42613 0
M  V30 3800 C 366.778 2.46886 5.26709 0
M  V30 3801 N 365.754 1.75287 5.14563 0
M  V30 3802 H 369.556 1.36062 2.60508 0
M  V30 3803 H 367.07 0.83958 1.39014 0
M  V30 3804 H 369.067 -0.576295 4.12898 0
M  V30 3805 H 367.727 -1.07572 3.06363 0
M  V30 3806 H 368.738 2.25885 4.66043 0
M  V30 3807 H 365.415 -0.274006 4.166 0
M  V30 3808 H 366.805 3.43326 5.77561 0
M  V30 3809 N 369.525 -1.3858 0.750561 0
M  V30 3810 C 370.773 -1.99789 0.30477 0
M  V30 3811 C 371.094 -1.59874 -1.11649 0
M  V30 3812 O 370.364 -0.85417 -1.76297 0
M  V30 3813 H 368.944 -0.738902 0.109694 0
M  V30 3814 H 371.606 -1.69391 0.963983 0
M  V30 3815 H 370.702 -3.09952 0.365499 0
M  V30 3816 N 371.003 -0.499398 -1.49478 0
M  V30 3817 C 372.28 0.108629 -1.95298 0
M  V30 3818 C 372.66 1.54282 -1.44084 0
M  V30 3819 O 372.008 2.18944 -0.653908 0
M  V30 3820 C 372.218 0.0229111 -3.48992 0
M  V30 3821 C 373.566 0.197643 -4.2414 0
M  V30 3822 O 374.59 0.0981735 -3.56065 0
M  V30 3823 O 373.449 0.401669 -5.45022 0
M  V30 3824 H 370.543 0.096181 -0.821388 0
M  V30 3825 H 373.089 -0.561822 -1.6013 0
M  V30 3826 H 371.861 -0.977321 -3.78899 0
M  V30 3827 H 371.484 0.733579 -3.90774 0
M  V30 3828 N 372.481 1.55866 -0.233164 0
M  V30 3829 C 373.729 1.9821 0.394593 0
M  V30 3830 C 374.05 1.12234 1.59463 0
M  V30 3831 O 373.32 0.201981 1.94856 0
M  V30 3832 H 371.9 0.732034 0.148778 0
M  V30 3833 H 374.562 1.92107 -0.32876 0
M  V30 3834 H 373.658 3.03845 0.713063 0
M  V30 3835 N 373.959 -0.0401083 1.57549 0
M  V30 3836 C 374.906 -1.04413 2.05831 0
M  V30 3837 C 375.876 -1.36585 0.945184 0
M  V30 3838 O 377.061 -1.47112 1.21502 0
M  V30 3839 C 374.201 -2.34336 2.53339 0
M  V30 3840 C 373.314 -2.08419 3.78398 0
M  V30 3841 C 372.449 -3.32133 4.14561 0
M  V30 3842 C 371.488 -3.01721 5.3257 0
M  V30 3843 N 370.625 -4.17855 5.64218 0
M  V30 3844 H 375.465 -0.625442 2.91363 0
M  V30 3845 H 373.002 -0.297218 1.44066 0
M  V30 3846 H 374.96 -3.10234 2.78946 0
M  V30 3847 H 373.59 -2.73948 1.7074 0
M  V30 3848 H 372.642 -1.23069 3.59942 0
M  V30 3849 H 373.954 -1.81978 4.64419 0
M  V30 3850 H 373.108 -4.16406 4.41238 0
M  V30 3851 H 371.847 -3.61678 3.2717 0
M  V30 3852 H 370.852 -2.15849 5.05657 0
M  V30 3853 H 372.077 -2.73466 6.21605 0
M  V30 3854 H 370.023 -4.47372 4.79786 0
M  V30 3855 H 369.94 -3.94798 6.44725 0
M  V30 3856 H 371.208 -5.03033 5.95465 0
M  V30 3857 N 375.437 -1.54477 -0.31217 0
M  V30 3858 C 376.662 -1.77526 -1.07235 0
M  V30 3859 C 377.087 -0.527775 -1.80544 0
M  V30 3860 O 376.445 0.52121 -1.73646 0
M  V30 3861 C 376.493 -2.97535 -2.03728 0
M  V30 3862 O 375.597 -2.69878 -3.11833 0
M  V30 3863 H 374.938 -0.58792 -0.30862 0
M  V30 3864 H 377.468 -2.01532 -0.352993 0
M  V30 3865 H 377.478 -3.25198 -2.46395 0
M  V30 3866 H 376.153 -3.87996 -1.49774 0
M  V30 3867 H 374.73 -2.53199 -2.7376 0
M  V30 3868 N 376.915 0.57481 -1.46744 0
M  V30 3869 C 377.878 1.66533 -1.57478 0
M  V30 3870 C 378.878 1.54338 -0.451263 0
M  V30 3871 O 380.068 1.58814 -0.715813 0
M  V30 3872 C 377.2 3.05999 -1.50259 0
M  V30 3873 H 378.393 1.58372 -2.54673 0
M  V30 3874 H 375.946 0.793301 -1.34672 0
M  V30 3875 H 376.681 3.19709 -0.543725 0
M  V30 3876 H 376.466 3.16259 -2.31781 0
M  V30 3877 H 377.956 3.8537 -1.60872 0
M  V30 3878 N 378.394 1.34581 0.820102 0
M  V30 3879 C 379.619 1.30333 1.61332 0
M  V30 3880 C 380.044 -0.119339 1.87721 0
M  V30 3881 O 379.402 -1.08197 1.45475 0
M  V30 3882 C 379.45 2.10258 2.92957 0
M  V30 3883 O 378.554 1.47404 3.85157 0
M  V30 3884 H 377.895 0.447488 0.490561 0
M  V30 3885 H 380.425 1.77425 1.01889 0
M  V30 3886 H 380.435 2.21718 3.42498 0
M  V30 3887 H 379.11 3.13693 2.73074 0
M  V30 3888 H 377.687 1.44703 3.43679 0
M  V30 3889 N 379.872 -1.04064 1.18357 0
M  V30 3890 C 381.097 -1.81454 1.00445 0
M  V30 3891 C 381.522 -1.82823 -0.442423 0
M  V30 3892 O 380.88 -1.24555 -1.31741 0
M  V30 3893 C 380.928 -3.24925 1.56384 0
M  V30 3894 O 380.032 -4.04856 0.785209 0
M  V30 3895 H 379.373 -0.560604 0.355835 0
M  V30 3896 H 381.903 -1.31059 1.57114 0
M  V30 3897 H 381.913 -3.75702 1.59097 0
M  V30 3898 H 380.588 -3.23244 2.61699 0
M  V30 3899 H 379.165 -3.63537 0.830399 0
M  V30 3900 N 381.35 -0.985608 -1.22978 0
M  V30 3901 C 382.58 -0.674603 -1.95276 0
M  V30 3902 C 382.988 0.763483 -1.73111 0
M  V30 3903 O 382.331 1.52601 -1.02268 0
M  V30 3904 C 382.393 -0.891597 -3.48268 0
M  V30 3905 C 382.057 -2.31275 -3.94158 0
M  V30 3906 C 383.054 -3.29179 -4.02415 0
M  V30 3907 C 380.739 -2.64524 -4.27004 0
M  V30 3908 C 382.733 -4.58407 -4.42879 0
M  V30 3909 C 380.42 -3.93974 -4.67149 0
M  V30 3910 C 381.418 -4.90727 -4.75053 0
M  V30 3911 O 381.106 -6.17865 -5.14294 0
M  V30 3912 H 380.838 -0.249251 -0.628371 0
M  V30 3913 H 383.392 -1.32106 -1.5728 0
M  V30 3914 H 381.622 -0.187962 -3.86243 0
M  V30 3915 H 383.311 -0.576957 -4.01779 0
M  V30 3916 H 384.077 -3.04823 -3.77237 0
M  V30 3917 H 379.956 -1.89923 -4.2006 0
M  V30 3918 H 383.5 -5.33926 -4.48964 0
M  V30 3919 H 379.397 -4.18122 -4.91777 0
M  V30 3920 H 380.165 -6.21694 -5.32389 0
M  V30 3921 O 382.867 1.34428 -0.895061 0
M  V30 3922 H 383.558 1.87018 -0.504368 0
M  V30 END ATOM
M  V30 BEGIN BOND
M  V30 END BOND
M  V30 END CTAB
M  END
$$$$
