60921
  -OEChem-10051719343D

 60 64  0     0  0  0  0  0  0999 V2000
   -1.4375   -2.2206   -1.6592 Br  0  0  0  0  0  0  0  0  0  0  0  0
   -5.3758    0.7466   -1.5158 S   0  0  0  0  0  0  0  0  0  0  0  0
   -3.0662    1.9049   -1.2539 F   0  0  0  0  0  0  0  0  0  0  0  0
   -4.7917    3.1787   -0.8593 F   0  0  0  0  0  0  0  0  0  0  0  0
   -4.1932    1.6787    0.6035 F   0  0  0  0  0  0  0  0  0  0  0  0
    3.0195   -1.8665   -1.6303 O   0  0  0  0  0  0  0  0  0  0  0  0
   -1.9503    0.2865    1.5107 O   0  0  0  0  0  0  0  0  0  0  0  0
   -6.6513    0.7703   -0.8280 O   0  0  0  0  0  0  0  0  0  0  0  0
   -5.2997    1.0097   -2.9407 O   0  0  0  0  0  0  0  0  0  0  0  0
    4.0719    0.8802   -0.1794 N   0  0  0  0  0  0  0  0  0  0  0  0
    5.7630    0.2105    1.0945 N   0  0  0  0  0  0  0  0  0  0  0  0
    4.4876   -0.7952   -2.9896 N   0  0  0  0  0  0  0  0  0  0  0  0
   -4.5254   -0.7119   -1.1913 N   0  0  0  0  0  0  0  0  0  0  0  0
    6.3711   -2.0661    0.0494 C   0  0  0  0  0  0  0  0  0  0  0  0
    7.7745   -2.0994    0.5798 C   0  0  0  0  0  0  0  0  0  0  0  0
    7.5316   -2.1110   -0.9011 C   0  0  0  0  0  0  0  0  0  0  0  0
    5.5767   -0.7782    0.1698 C   0  0  0  0  0  0  0  0  0  0  0  0
    4.5278   -0.3423   -0.6051 C   0  0  0  0  0  0  0  0  0  0  0  0
    4.8368    1.1847    0.8453 C   0  0  0  0  0  0  0  0  0  0  0  0
    2.9705    1.6549   -0.7591 C   0  0  0  0  0  0  0  0  0  0  0  0
    4.6929    2.4353    1.6182 C   0  0  0  0  0  0  0  0  0  0  0  0
    3.9535   -1.0397   -1.7207 C   0  0  0  0  0  0  0  0  0  0  0  0
    1.6610    1.3181   -0.1249 C   0  0  0  0  0  0  0  0  0  0  0  0
    6.0375    3.1144    1.9017 C   0  0  0  0  0  0  0  0  0  0  0  0
    0.8798    0.2871   -0.6645 C   0  0  0  0  0  0  0  0  0  0  0  0
    1.2342    2.0346    0.9962 C   0  0  0  0  0  0  0  0  0  0  0  0
   -0.3500   -0.0169   -0.0550 C   0  0  0  0  0  0  0  0  0  0  0  0
   -0.7396    0.7196    1.0590 C   0  0  0  0  0  0  0  0  0  0  0  0
    0.0150    1.7494    1.6180 C   0  0  0  0  0  0  0  0  0  0  0  0
   -1.3945   -0.9508   -0.2846 C   0  0  0  0  0  0  0  0  0  0  0  0
   -2.3384   -0.7246    0.6903 C   0  0  0  0  0  0  0  0  0  0  0  0
   -3.6080   -1.3136    1.0156 C   0  0  0  0  0  0  0  0  0  0  0  0
   -4.6638   -1.3062    0.1039 C   0  0  0  0  0  0  0  0  0  0  0  0
   -3.7740   -1.9005    2.2701 C   0  0  0  0  0  0  0  0  0  0  0  0
   -5.8853   -1.8859    0.4468 C   0  0  0  0  0  0  0  0  0  0  0  0
   -4.9957   -2.4800    2.6129 C   0  0  0  0  0  0  0  0  0  0  0  0
   -6.0514   -2.4727    1.7013 C   0  0  0  0  0  0  0  0  0  0  0  0
   -4.3132    1.9176   -0.7245 C   0  0  0  0  0  0  0  0  0  0  0  0
    5.7898   -2.9755    0.1594 H   0  0  0  0  0  0  0  0  0  0  0  0
    8.2030   -1.2018    1.0089 H   0  0  0  0  0  0  0  0  0  0  0  0
    8.1173   -3.0181    1.0407 H   0  0  0  0  0  0  0  0  0  0  0  0
    7.7105   -3.0368   -1.4344 H   0  0  0  0  0  0  0  0  0  0  0  0
    7.7874   -1.2186   -1.4595 H   0  0  0  0  0  0  0  0  0  0  0  0
    3.2037    2.7214   -0.6867 H   0  0  0  0  0  0  0  0  0  0  0  0
    2.9482    1.4451   -1.8353 H   0  0  0  0  0  0  0  0  0  0  0  0
    4.2079    2.2040    2.5739 H   0  0  0  0  0  0  0  0  0  0  0  0
    4.0706    3.1813    1.1212 H   0  0  0  0  0  0  0  0  0  0  0  0
    6.5509    3.3705    0.9686 H   0  0  0  0  0  0  0  0  0  0  0  0
    5.8832    4.0351    2.4732 H   0  0  0  0  0  0  0  0  0  0  0  0
    6.6966    2.4606    2.4828 H   0  0  0  0  0  0  0  0  0  0  0  0
    1.1868   -0.2404   -1.5594 H   0  0  0  0  0  0  0  0  0  0  0  0
    1.8358    2.8431    1.4009 H   0  0  0  0  0  0  0  0  0  0  0  0
    4.1216   -1.2678   -3.8092 H   0  0  0  0  0  0  0  0  0  0  0  0
    5.2524   -0.1438   -3.1348 H   0  0  0  0  0  0  0  0  0  0  0  0
   -0.3248    2.3030    2.4852 H   0  0  0  0  0  0  0  0  0  0  0  0
   -2.9622   -1.9189    2.9937 H   0  0  0  0  0  0  0  0  0  0  0  0
   -3.6017   -0.8039   -1.6297 H   0  0  0  0  0  0  0  0  0  0  0  0
   -6.7138   -1.9032   -0.2566 H   0  0  0  0  0  0  0  0  0  0  0  0
   -5.1246   -2.9383    3.5891 H   0  0  0  0  0  0  0  0  0  0  0  0
   -7.0013   -2.9272    1.9669 H   0  0  0  0  0  0  0  0  0  0  0  0
  1 30  1  0  0  0  0
  2  8  2  0  0  0  0
  2  9  2  0  0  0  0
  2 13  1  0  0  0  0
  2 38  1  0  0  0  0
  3 38  1  0  0  0  0
  4 38  1  0  0  0  0
  5 38  1  0  0  0  0
  6 22  2  0  0  0  0
  7 28  1  0  0  0  0
  7 31  1  0  0  0  0
 10 18  1  0  0  0  0
 10 19  1  0  0  0  0
 10 20  1  0  0  0  0
 11 17  1  0  0  0  0
 11 19  2  0  0  0  0
 12 22  1  0  0  0  0
 12 53  1  0  0  0  0
 12 54  1  0  0  0  0
 13 33  1  0  0  0  0
 13 57  1  0  0  0  0
 14 15  1  0  0  0  0
 14 16  1  0  0  0  0
 14 17  1  0  0  0  0
 14 39  1  0  0  0  0
 15 16  1  0  0  0  0
 15 40  1  0  0  0  0
 15 41  1  0  0  0  0
 16 42  1  0  0  0  0
 16 43  1  0  0  0  0
 17 18  2  0  0  0  0
 18 22  1  0  0  0  0
 19 21  1  0  0  0  0
 20 23  1  0  0  0  0
 20 44  1  0  0  0  0
 20 45  1  0  0  0  0
 21 24  1  0  0  0  0
 21 46  1  0  0  0  0
 21 47  1  0  0  0  0
 23 25  2  0  0  0  0
 23 26  1  0  0  0  0
 24 48  1  0  0  0  0
 24 49  1  0  0  0  0
 24 50  1  0  0  0  0
 25 27  1  0  0  0  0
 25 51  1  0  0  0  0
 26 29  2  0  0  0  0
 26 52  1  0  0  0  0
 27 28  2  0  0  0  0
 27 30  1  0  0  0  0
 28 29  1  0  0  0  0
 29 55  1  0  0  0  0
 30 31  2  0  0  0  0
 31 32  1  0  0  0  0
 32 33  1  0  0  0  0
 32 34  2  0  0  0  0
 33 35  2  0  0  0  0
 34 36  1  0  0  0  0
 34 56  1  0  0  0  0
 35 37  1  0  0  0  0
 35 58  1  0  0  0  0
 36 37  2  0  0  0  0
 36 59  1  0  0  0  0
 37 60  1  0  0  0  0
M  END
> <DATABASE_ID>
DB01347

> <DATABASE_NAME>
drugbank

> <ORIGINAL_SOURCE>
PUBCHEM

> <ORIGINAL_SOURCE_URL>
https://pubchem.ncbi.nlm.nih.gov/rest/pug/compound/inchikey/DUEWVPTZCSAMNB-UHFFFAOYSA-N/SDF?record_type=3d

> <SMILES>
CCC1=NC(C2CC2)=C(N1CC1=CC2=C(OC(=C2Br)C2=CC=CC=C2NS(=O)(=O)C(F)(F)F)C=C1)C(N)=O

> <INCHI_IDENTIFIER>
InChI=1S/C25H22BrF3N4O4S/c1-2-19-31-21(14-8-9-14)22(24(30)34)33(19)12-13-7-10-18-16(11-13)20(26)23(37-18)15-5-3-4-6-17(15)32-38(35,36)25(27,28)29/h3-7,10-11,14,32H,2,8-9,12H2,1H3,(H2,30,34)

> <INCHI_KEY>
DUEWVPTZCSAMNB-UHFFFAOYSA-N

> <FORMULA>
C25H22BrF3N4O4S

> <MOLECULAR_WEIGHT>
611.431

> <EXACT_MASS>
610.049723164

> <JCHEM_ACCEPTOR_COUNT>
4

> <JCHEM_AVERAGE_POLARIZABILITY>
54.20307385878802

> <JCHEM_BIOAVAILABILITY>
1

> <JCHEM_DONOR_COUNT>
2

> <JCHEM_FORMAL_CHARGE>
0

> <JCHEM_GHOSE_FILTER>
0

> <JCHEM_IUPAC>
1-{[3-bromo-2-(2-trifluoromethanesulfonamidophenyl)-1-benzofuran-5-yl]methyl}-4-cyclopropyl-2-ethyl-1H-imidazole-5-carboxamide

> <ALOGPS_LOGP>
5.89

> <JCHEM_LOGP>
3.3470178684072986

> <ALOGPS_LOGS>
-4.61

> <JCHEM_MDDR_LIKE_RULE>
1

> <JCHEM_NUMBER_OF_RINGS>
5

> <JCHEM_PHYSIOLOGICAL_CHARGE>
-1

> <JCHEM_PKA>
14.88644794859994

> <JCHEM_PKA_STRONGEST_ACIDIC>
2.266136176134234

> <JCHEM_PKA_STRONGEST_BASIC>
5.1833769826087615

> <JCHEM_POLAR_SURFACE_AREA>
120.22

> <JCHEM_REFRACTIVITY>
137.14749999999998

> <JCHEM_ROTATABLE_BOND_COUNT>
8

> <JCHEM_RULE_OF_FIVE>
0

> <ALOGPS_SOLUBILITY>
1.51e-02 g/l

> <JCHEM_TRADITIONAL_IUPAC>
saprisartan

> <JCHEM_VEBER_RULE>
0

> <DRUGBANK_ID>
DB01347

> <DRUG_GROUPS>
experimental

> <GENERIC_NAME>
Saprisartan

> <SALTS>
Saprisartan potassium

$$$$