drugbank_target|P00533 Epidermal growth factor receptor (DB00002; DB00281; DB00317; DB00530; DB01259; DB01269; DB03496; DB04988; DB05101; DB05294; DB05374; DB05424; DB05524; DB05944; DB06021; DB07602; DB07662; DB08916; DB09330; DB09559; DB10772; DB11731; DB11737; DB11828; DB11963; DB12010; DB12202; DB12267; DB13164; DB15035; DB15327)
 OpenBabel12092119393D

  0  0  0     0  0            999 V3000
M  V30 BEGIN CTAB
M  V30 COUNTS 18664 18867 0 0 0
M  V30 BEGIN ATOM
M  V30 1 H -0.908 1.98254 -0.117106 0
M  V30 2 N 0 1.576 0 0
M  V30 3 C 0.933 2.03868 1.02534 0
M  V30 4 C 1.911 0.928543 1.3348 0
M  V30 5 O 3.095 1.19667 1.45644 0
M  V30 6 C 0.222 2.43627 2.35294 0
M  V30 7 C -0.732 3.65373 2.2001 0
M  V30 8 S 0.101 5.13292 1.52614 0
M  V30 9 C 1.257 5.56322 2.86805 0
M  V30 10 H 1.49 2.90518 0.631377 0
M  V30 11 H -0.977 1.52953 0.210867 0
M  V30 12 H 0.981 2.67203 3.11629 0
M  V30 13 H -0.358 1.57376 2.7183 0
M  V30 14 H -1.165 3.90944 3.18086 0
M  V30 15 H -1.563 3.418 1.51819 0
M  V30 16 H 0.729 5.58782 3.83104 0
M  V30 17 H 1.672 6.56266 2.65933 0
M  V30 18 H 2.08 4.83886 2.90714 0
M  V30 19 N 1.4781 -0.272755 1.55222 0
M  V30 20 C 2.8941 -0.619959 1.47067 0
M  V30 21 C 3.0941 -1.895 0.684978 0
M  V30 22 O 2.1501 -2.51675 0.203931 0
M  V30 23 C 3.4631 -0.746693 2.91282 0
M  V30 24 C 5.0111 -0.840731 3.01497 0
M  V30 25 C 5.4861 -0.99924 4.46967 0
M  V30 26 N 6.9771 -1.06476 4.50796 0
M  V30 27 C 7.7121 -1.20621 5.6057 0
M  V30 28 N 7.2081 -1.31483 6.80209 0
M  V30 29 N 9.0011 -1.23733 5.48312 0
M  V30 30 H 1.1521 0.564606 2.04758 0
M  V30 31 H 3.4151 0.191177 0.928523 0
M  V30 32 H 3.1211 0.119753 3.51496 0
M  V30 33 H 2.9951 -1.6269 3.40311 0
M  V30 34 H 5.3821 -1.69764 2.41379 0
M  V30 35 H 5.4631 0.0640874 2.5572 0
M  V30 36 H 5.1071 -0.146984 5.07687 0
M  V30 37 H 5.0371 -1.91871 4.90401 0
M  V30 38 H 7.5281 -0.993196 3.64615 0
M  V30 39 H 7.8411 -1.42111 7.59621 0
M  V30 40 H 6.1861 -1.28487 6.8302 0
M  V30 41 H 9.3771 -1.14877 4.53785 0
M  V30 42 H 9.5501 -1.34412 6.33906 0
M  V30 43 N 2.9562 -1.48159 -0.537278 0
M  V30 44 C 4.3672 -1.49429 -1.11928 0
M  V30 45 C 4.7182 -0.26 -1.9447 0
M  V30 46 O 3.8432 0.633489 -2.0692 0
M  V30 47 C 4.4382 -2.70758 -2.03656 0
M  V30 48 C 2.9972 -2.74923 -2.57088 0
M  V30 49 C 2.1442 -2.42835 -1.3389 0
M  V30 50 H 5.0952 -1.55381 -0.322886 0
M  V30 51 H 5.1162 -2.48861 -2.87834 0
M  V30 52 H 4.6282 -3.60575 -1.43553 0
M  V30 53 H 2.7292 -1.89296 -3.20933 0
M  V30 54 H 2.8422 -3.76157 -2.9672 0
M  V30 55 H 1.2062 -1.93836 -1.65226 0
M  V30 56 H 1.9892 -3.34884 -0.755504 0
M  V30 57 N 4.4343 0.785586 -1.36625 0
M  V30 58 C 5.6593 1.57963 -1.34397 0
M  V30 59 C 6.0843 1.87964 0.071526 0
M  V30 60 O 5.4423 1.48182 1.0446 0
M  V30 61 C 5.4903 2.87511 -2.17646 0
M  V30 62 O 4.5943 3.81281 -1.57158 0
M  V30 63 H 3.9353 0.479014 -0.459828 0
M  V30 64 H 6.4653 0.973411 -1.79961 0
M  V30 65 H 6.4753 3.36745 -2.30362 0
M  V30 66 H 5.1503 2.65002 -3.20541 0
M  V30 67 H 3.7273 3.39885 -1.53403 0
M  V30 68 N 5.9124 1.20967 1.01018 0
M  V30 69 C 7.1604 1.02172 1.74371 0
M  V30 70 C 7.4814 -0.446414 1.89821 0
M  V30 71 O 6.7514 -1.32234 1.44537 0
M  V30 72 H 5.3314 0.375066 0.646014 0
M  V30 73 H 7.9934 1.52187 1.21758 0
M  V30 74 H 7.0894 1.48538 2.74487 0
M  V30 75 N 7.3905 -1.2043 1.01659 0
M  V30 76 C 8.6185 -1.93777 0.725132 0
M  V30 77 C 9.0335 -1.74772 -0.714166 0
M  V30 78 O 8.3905 -1.06169 -1.4844 0
M  V30 79 C 8.4415 -3.45876 1.05129 0
M  V30 80 O 8.1625 -3.6426 2.43406 0
M  V30 81 C 9.6635 -4.36368 0.780891 0
M  V30 82 H 6.8835 -0.615901 0.266284 0
M  V30 83 H 9.4275 -1.52922 1.35776 0
M  V30 84 H 7.5825 -3.8461 0.464065 0
M  V30 85 H 7.9965 -4.58246 2.55169 0
M  V30 86 H 9.4705 -5.41743 1.05918 0
M  V30 87 H 9.9475 -4.38275 -0.284937 0
M  V30 88 H 10.5535 -4.03296 1.35027 0
M  V30 89 N 8.8686 -0.792821 -1.36206 0
M  V30 90 C 9.8316 -0.199459 -2.2833 0
M  V30 91 C 10.8316 0.605189 -1.48977 0
M  V30 92 O 12.0216 0.425685 -1.68919 0
M  V30 93 C 9.1536 0.723523 -3.33134 0
M  V30 94 H 10.3466 -1.01181 -2.82316 0
M  V30 95 H 7.8996 -0.562485 -1.45828 0
M  V30 96 H 8.6346 1.56008 -2.84309 0
M  V30 97 H 8.4196 0.148436 -3.91819 0
M  V30 98 H 9.9096 1.13344 -4.01924 0
M  V30 99 N 10.3467 1.47872 -0.545128 0
M  V30 100 C 11.5947 2.02093 -0.016553 0
M  V30 101 C 11.9157 1.42305 1.3332 0
M  V30 102 O 11.1857 0.593853 1.86682 0
M  V30 103 H 9.7657 0.746993 -0.00313038 0
M  V30 104 H 12.4277 1.81414 -0.712397 0
M  V30 105 H 11.5237 3.11996 0.0805422 0
M  V30 106 N 11.8248 0.280983 1.55075 0
M  V30 107 C 12.7878 -0.590896 2.21452 0
M  V30 108 C 13.7878 -1.07682 1.19421 0
M  V30 109 O 14.9778 -0.97605 1.44288 0
M  V30 110 C 12.1098 -1.81587 2.88511 0
M  V30 111 H 13.3028 -0.0112554 2.99898 0
M  V30 112 H 10.8558 0.0316438 1.56268 0
M  V30 113 H 11.5908 -2.43587 2.14093 0
M  V30 114 H 11.3758 -1.4753 3.63287 0
M  V30 115 H 12.8658 -2.43575 3.39206 0
M  V30 116 N 13.3029 -1.57598 0.00835791 0
M  V30 117 C 14.2659 -2.07884 -0.965242 0
M  V30 118 C 15.2659 -0.989825 -1.26725 0
M  V30 119 O 16.4559 -1.25218 -1.21104 0
M  V30 120 C 13.5879 -2.52731 -2.28779 0
M  V30 121 H 14.7809 -2.95178 -0.530112 0
M  V30 122 H 12.3339 -1.54458 -0.239283 0
M  V30 123 H 13.0689 -1.68705 -2.76964 0
M  V30 124 H 12.8539 -3.32272 -2.08177 0
M  V30 125 H 14.3439 -2.91933 -2.98605 0
M  V30 126 N 14.781 0.264519 -1.55364 0
M  V30 127 C 15.711 1.33121 -1.91836 0
M  V30 128 C 16.692 1.51101 -0.781192 0
M  V30 129 O 17.877 1.64003 -1.04003 0
M  V30 130 C 15.007 2.68921 -2.19769 0
M  V30 131 C 13.961 2.65661 -3.35571 0
M  V30 132 C 13.287 4.05093 -3.49004 0
M  V30 133 C 14.587 2.24187 -4.71739 0
M  V30 134 H 16.281 1.02844 -2.81182 0
M  V30 135 H 13.827 0.493286 -1.35287 0
M  V30 136 H 15.78 3.43663 -2.43872 0
M  V30 137 H 14.504 3.00799 -1.27231 0
M  V30 138 H 13.163 1.93377 -3.1145 0
M  V30 139 H 12.811 4.34206 -2.53917 0
M  V30 140 H 12.511 4.03804 -4.26868 0
M  V30 141 H 14.035 4.81561 -3.75408 0
M  V30 142 H 15.449 2.88654 -4.9533 0
M  V30 143 H 13.846 2.34044 -5.52579 0
M  V30 144 H 14.916 1.19327 -4.69988 0
M  V30 145 N 16.2591 1.48442 0.529413 0
M  V30 146 C 17.1891 1.65902 1.64313 0
M  V30 147 C 18.1701 0.507897 1.6234 0
M  V30 148 O 19.3551 0.740503 1.79528 0
M  V30 149 C 16.4851 1.69911 3.02898 0
M  V30 150 C 15.4391 2.8453 3.19729 0
M  V30 151 C 14.7651 2.73629 4.59381 0
M  V30 152 C 16.0651 4.25821 3.02447 0
M  V30 153 H 17.7591 2.5914 1.49955 0
M  V30 154 H 15.3051 1.24709 0.719982 0
M  V30 155 H 17.2581 1.80715 3.80684 0
M  V30 156 H 15.9821 0.732524 3.18279 0
M  V30 157 H 14.6411 2.73283 2.44361 0
M  V30 158 H 14.2891 1.74938 4.71599 0
M  V30 159 H 13.9891 3.50541 4.71588 0
M  V30 160 H 15.5131 2.86401 5.39265 0
M  V30 161 H 16.9271 4.37898 3.70024 0
M  V30 162 H 15.3241 5.03735 3.26146 0
M  V30 163 H 16.3941 4.42244 1.98867 0
M  V30 164 N 17.7372 -0.778329 1.37039 0
M  V30 165 C 18.7002 -1.87301 1.32102 0
M  V30 166 C 19.7002 -1.59198 0.226405 0
M  V30 167 O 20.8902 -1.67403 0.481861 0
M  V30 168 C 18.0222 -3.24309 1.05055 0
M  V30 169 H 19.2152 -1.93093 2.29467 0
M  V30 170 H 16.7682 -0.977358 1.21973 0
M  V30 171 H 17.5032 -3.24196 0.0819373 0
M  V30 172 H 17.2882 -3.46098 1.84279 0
M  V30 173 H 18.7782 -4.04382 1.04234 0
M  V30 174 N 19.2153 -1.21501 -1.00376 0
M  V30 175 C 20.1453 -0.999478 -2.11028 0
M  V30 176 C 21.1263 0.0759671 -1.6993 0
M  V30 177 O 22.3113 -0.0841106 -1.94018 0
M  V30 178 C 19.4413 -0.564709 -3.42678 0
M  V30 179 C 18.3953 -1.58486 -3.97576 0
M  V30 180 C 17.7213 -1.00628 -5.25146 0
M  V30 181 C 19.0213 -2.97204 -4.29496 0
M  V30 182 H 20.7153 -1.92495 -2.29317 0
M  V30 183 H 18.2613 -0.92693 -1.102 0
M  V30 184 H 20.2143 -0.401091 -4.19487 0
M  V30 185 H 18.9383 0.396411 -3.24185 0
M  V30 186 H 17.5973 -1.73606 -3.22888 0
M  V30 187 H 17.2453 -0.0368439 -5.02987 0
M  V30 188 H 16.9453 -1.68771 -5.62841 0
M  V30 189 H 18.4693 -0.854015 -6.04598 0
M  V30 190 H 19.8833 -2.8552 -4.97143 0
M  V30 191 H 18.2803 -3.62372 -4.78338 0
M  V30 192 H 19.3503 -3.47956 -3.3772 0
M  V30 193 N 20.6934 1.19889 -1.02296 0
M  V30 194 C 21.6234 2.25141 -0.619174 0
M  V30 195 C 22.6044 1.66051 0.368915 0
M  V30 196 O 23.7894 1.92546 0.252941 0
M  V30 197 C 20.9194 3.4728 0.0368783 0
M  V30 198 C 19.8734 4.19005 -0.872865 0
M  V30 199 C 19.1994 5.34637 -0.0822402 0
M  V30 200 C 20.4994 4.74452 -2.18387 0
M  V30 201 H 22.1934 2.59171 -1.49903 0
M  V30 202 H 19.7394 1.24579 -0.722222 0
M  V30 203 H 21.6924 4.20098 0.330958 0
M  V30 204 H 20.4164 3.12433 0.95149 0
M  V30 205 H 19.0754 3.48061 -1.15105 0
M  V30 206 H 18.7234 4.96034 0.83422 0
M  V30 207 H 18.4234 5.83557 -0.688149 0
M  V30 208 H 19.9474 6.10255 0.205238 0
M  V30 209 H 21.3614 5.39055 -1.95172 0
M  V30 210 H 19.7584 5.33834 -2.74119 0
M  V30 211 H 20.8284 3.92844 -2.84257 0
M  V30 212 N 22.1715 0.800033 1.35784 0
M  V30 213 C 23.1345 0.211565 2.28221 0
M  V30 214 C 24.1345 -0.59728 1.49296 0
M  V30 215 O 25.3245 -0.416721 1.69142 0
M  V30 216 C 22.4565 -0.705846 3.33513 0
M  V30 217 H 23.6495 1.02677 2.81776 0
M  V30 218 H 21.2025 0.570211 1.45528 0
M  V30 219 H 21.9375 -1.54498 2.85133 0
M  V30 220 H 21.7225 -0.127655 3.91892 0
M  V30 221 H 23.2125 -1.11211 4.02519 0
M  V30 222 N 23.6496 -1.47581 0.552962 0
M  V30 223 C 24.6126 -2.28439 -0.186605 0
M  V30 224 C 25.6126 -1.36706 -0.84665 0
M  V30 225 O 26.8026 -1.59378 -0.703164 0
M  V30 226 C 23.9346 -3.16264 -1.2724 0
M  V30 227 H 25.1276 -2.95294 0.523609 0
M  V30 228 H 22.6806 -1.532 0.309745 0
M  V30 229 H 23.4156 -2.54091 -2.01514 0
M  V30 230 H 23.2006 -3.83769 -0.803968 0
M  V30 231 H 24.6906 -3.77198 -1.79196 0
M  V30 232 N 25.1277 -0.289203 -1.54924 0
M  V30 233 C 26.0577 0.58549 -2.2604 0
M  V30 234 C 27.0387 1.14753 -1.25562 0
M  V30 235 O 28.2237 1.17906 -1.54311 0
M  V30 236 C 25.3537 1.76305 -2.99222 0
M  V30 237 C 24.3077 1.33191 -4.06748 0
M  V30 238 C 23.6337 2.5937 -4.6758 0
M  V30 239 C 24.9337 0.471775 -5.20165 0
M  V30 240 H 26.6277 -0.00763532 -2.99399 0
M  V30 241 H 24.1737 -0.00511229 -1.43999 0
M  V30 242 H 26.1267 2.38097 -3.47689 0
M  V30 243 H 24.8507 2.38223 -2.23422 0
M  V30 244 H 23.5097 0.737121 -3.59113 0
M  V30 245 H 23.1577 3.19576 -3.88433 0
M  V30 246 H 22.8577 2.31228 -5.40192 0
M  V30 247 H 24.3817 3.21985 -5.18804 0
M  V30 248 H 25.7957 0.995056 -5.64599 0
M  V30 249 H 24.1927 0.284639 -5.99425 0
M  V30 250 H 25.2627 -0.506041 -4.82252 0
M  V30 251 N 26.6058 1.57591 -0.0167156 0
M  V30 252 C 27.8458 1.93145 0.668902 0
M  V30 253 C 28.2098 0.892406 1.7 0
M  V30 254 O 29.4108 1.13373 2.43721 0
M  V30 255 C 27.6818 3.33678 1.28039 0
M  V30 256 S 29.2408 3.91142 1.9888 0
M  V30 257 H 26.0588 0.67593 0.220545 0
M  V30 258 H 28.6608 1.95347 -0.0774105 0
M  V30 259 H 27.3648 4.07126 0.517339 0
M  V30 260 H 26.8958 3.3489 2.06427 0
M  V30 261 H 28.9108 3.73571 3.26587 0
M  V30 262 N 28.0839 -0.256276 1.55502 0
M  V30 263 C 29.4949 -0.826068 1.67431 0
M  V30 264 C 29.8459 -1.86396 0.612446 0
M  V30 265 O 28.9709 -2.15031 -0.243025 0
M  V30 266 C 29.5659 -1.50512 3.03532 0
M  V30 267 C 28.1249 -2.02273 3.17431 0
M  V30 268 C 27.2719 -0.870548 2.63281 0
M  V30 269 H 30.2229 -0.0322728 1.58667 0
M  V30 270 H 30.2439 -2.37279 2.97454 0
M  V30 271 H 29.7559 -0.749484 3.80794 0
M  V30 272 H 27.8569 -2.80746 2.44974 0
M  V30 273 H 27.9699 -2.22655 4.24219 0
M  V30 274 H 26.3339 -1.26851 2.20864 0
M  V30 275 H 27.1169 -0.128149 3.43061 0
M  V30 276 N 29.562 -1.4872 -0.521534 0
M  V30 277 C 30.525 -1.63379 -1.60748 0
M  V30 278 C 31.525 -0.50661 -1.52611 0
M  V30 279 O 32.715 -0.772601 -1.5613 0
M  V30 280 C 29.847 -1.61192 -3.00383 0
M  V30 281 H 31.04 -2.60217 -1.49087 0
M  V30 282 H 28.593 -1.37444 -0.744235 0
M  V30 283 H 29.328 -0.65863 -3.17541 0
M  V30 284 H 29.113 -2.43032 -3.07698 0
M  V30 285 H 30.603 -1.7466 -3.7932 0
M  V30 286 N 31.0401 0.771051 -1.3745 0
M  V30 287 C 32.2651 1.56529 -1.36065 0
M  V30 288 C 32.6901 1.88029 0.0515859 0
M  V30 289 O 32.0481 1.49282 1.02882 0
M  V30 290 C 32.0961 2.85187 -2.20683 0
M  V30 291 O 31.2001 3.79593 -1.61193 0
M  V30 292 H 30.5411 0.47411 -0.464883 0
M  V30 293 H 33.0711 0.954269 -1.80983 0
M  V30 294 H 33.0811 3.34283 -2.33921 0
M  V30 295 H 31.7561 2.61588 -3.23334 0
M  V30 296 H 30.3331 3.38239 -1.56999 0
M  V30 297 N 32.5182 1.22032 0.997298 0
M  V30 298 C 33.9342 0.979326 1.26021 0
M  V30 299 C 34.1342 -0.32972 1.98784 0
M  V30 300 O 33.1902 -1.05345 2.29475 0
M  V30 301 C 34.5032 2.17509 2.07631 0
M  V30 302 C 36.0512 2.21817 2.2083 0
M  V30 303 C 36.5262 3.40933 3.05825 0
M  V30 304 N 38.0172 3.41067 3.13412 0
M  V30 305 C 38.7522 4.29885 3.79455 0
M  V30 306 N 38.2482 5.28914 4.47462 0
M  V30 307 N 40.0412 4.17673 3.76173 0
M  V30 308 H 32.1922 2.06202 0.509352 0
M  V30 309 H 34.4552 0.90334 0.287541 0
M  V30 310 H 34.1612 3.12415 1.61524 0
M  V30 311 H 34.0352 2.17206 3.08385 0
M  V30 312 H 36.4222 1.27462 2.66153 0
M  V30 313 H 36.5032 2.2616 1.1952 0
M  V30 314 H 36.1472 4.35586 2.61203 0
M  V30 315 H 36.0772 3.33829 4.07266 0
M  V30 316 H 38.5682 2.69406 2.65007 0
M  V30 317 H 38.8812 5.92973 4.95583 0
M  V30 318 H 37.2262 5.32831 4.46224 0
M  V30 319 H 40.4172 3.39564 3.22202 0
M  V30 320 H 40.5902 4.87098 4.27363 0
M  V30 321 N 33.9963 -1.19345 1.0293 0
M  V30 322 C 34.9593 -2.20793 0.615069 0
M  V30 323 C 35.9593 -1.57553 -0.321533 0
M  V30 324 O 37.1493 -1.73862 -0.108483 0
M  V30 325 C 34.2813 -3.40754 -0.0999222 0
M  V30 326 H 35.4743 -2.58955 1.51269 0
M  V30 327 H 33.0273 -1.3303 0.820534 0
M  V30 328 H 33.7623 -3.0811 -1.01187 0
M  V30 329 H 33.5473 -3.87889 0.57309 0
M  V30 330 H 35.0373 -4.15898 -0.376645 0
M  V30 331 N 35.4744 -0.807222 -1.35358 0
M  V30 332 C 36.4044 -0.232509 -2.3234 0
M  V30 333 C 37.3854 0.642386 -1.57504 0
M  V30 334 O 38.5704 0.572526 -1.85569 0
M  V30 335 C 35.7004 0.619238 -3.41735 0
M  V30 336 C 34.6544 -0.157215 -4.27711 0
M  V30 337 C 33.9804 0.816273 -5.28433 0
M  V30 338 C 35.2804 -1.35656 -5.04376 0
M  V30 339 H 36.9744 -1.04276 -2.80654 0
M  V30 340 H 34.5204 -0.50288 -1.34934 0
M  V30 341 H 36.4734 1.03137 -4.08584 0
M  V30 342 H 35.1974 1.46239 -2.92031 0
M  V30 343 H 33.8564 -0.550525 -3.62443 0
M  V30 344 H 33.5044 1.65494 -4.74996 0
M  V30 345 H 33.2044 0.301067 -5.86828 0
M  V30 346 H 34.7284 1.22659 -5.98153 0
M  V30 347 H 36.1424 -1.01927 -5.64166 0
M  V30 348 H 34.5394 -1.8063 -5.7227 0
M  V30 349 H 35.6094 -2.14288 -4.34981 0
M  V30 350 N 36.9525 1.47285 -0.560781 0
M  V30 351 C 37.8625 2.33846 0.187954 0
M  V30 352 C 38.8785 1.48412 0.908293 0
M  V30 353 O 40.0545 1.81332 0.876388 0
M  V30 354 C 37.1195 3.25178 1.2025 0
M  V30 355 C 36.1805 4.26504 0.489208 0
M  V30 356 C 35.4135 5.13472 1.45542 0
M  V30 357 O 35.6365 5.02959 2.6905 0
M  V30 358 O 34.5705 5.93902 0.977963 0
M  V30 359 H 38.3965 2.99177 -0.522177 0
M  V30 360 H 35.9815 1.45903 -0.321364 0
M  V30 361 H 37.8635 3.81584 1.78805 0
M  V30 362 H 36.5385 2.6247 1.89449 0
M  V30 363 H 35.4455 3.73847 -0.137627 0
M  V30 364 H 36.7785 4.91935 -0.161399 0
M  V30 365 N 38.4306 0.297415 1.54768 0
M  V30 366 C 39.3406 -0.58983 2.27064 0
M  V30 367 C 40.3566 -1.15144 1.30453 0
M  V30 368 O 41.5326 -1.17699 1.63428 0
M  V30 369 C 38.5976 -1.74714 2.9946 0
M  V30 370 C 37.6586 -1.21997 4.11601 0
M  V30 371 C 36.8916 -2.32212 4.80535 0
M  V30 372 O 37.1146 -3.52036 4.48806 0
M  V30 373 O 36.0486 -1.99106 5.68014 0
M  V30 374 H 39.8746 -0.00348199 3.037 0
M  V30 375 H 37.4596 0.0640035 1.49263 0
M  V30 376 H 39.3416 -2.42147 3.44881 0
M  V30 377 H 38.0166 -2.32016 2.25722 0
M  V30 378 H 36.9236 -0.511458 3.70587 0
M  V30 379 H 38.2566 -0.692419 4.87305 0
M  V30 380 N 39.9087 -1.5758 0.0250728 0
M  V30 381 C 40.8557 -2.09973 -0.958129 0
M  V30 382 C 41.8257 -1.00085 -1.3256 0
M  V30 383 O 43.0107 -1.27481 -1.41962 0
M  V30 384 C 40.1507 -2.62812 -2.2366 0
M  V30 385 C 39.2637 -3.86693 -1.92594 0
M  V30 386 C 38.3987 -4.27941 -3.14707 0
M  V30 387 C 37.4377 -5.44591 -2.79442 0
M  V30 388 N 36.5747 -5.81014 -3.94167 0
M  V30 389 H 41.4147 -2.937 -0.504428 0
M  V30 390 H 38.9517 -1.45172 -0.237392 0
M  V30 391 H 40.9097 -2.91536 -2.98434 0
M  V30 392 H 39.5397 -1.81922 -2.66654 0
M  V30 393 H 38.5917 -3.64723 -1.0808 0
M  V30 394 H 39.9037 -4.71547 -1.62619 0
M  V30 395 H 39.0577 -4.58079 -3.97804 0
M  V30 396 H 37.7967 -3.41845 -3.4784 0
M  V30 397 H 36.8017 -5.1415 -1.94755 0
M  V30 398 H 38.0267 -6.32382 -2.47528 0
M  V30 399 H 35.9727 -4.97874 -4.2715 0
M  V30 400 H 35.8897 -6.60498 -3.67801 0
M  V30 401 H 37.1577 -6.15756 -4.7798 0
M  V30 402 N 41.3868 0.248026 -1.55636 0
M  V30 403 C 42.3338 1.30707 -1.90222 0
M  V30 404 C 43.3038 1.47881 -0.756332 0
M  V30 405 O 44.4888 1.61883 -1.00988 0
M  V30 406 C 41.6288 2.65769 -2.20138 0
M  V30 407 C 40.7418 2.56612 -3.47526 0
M  V30 408 C 39.8768 3.8402 -3.67017 0
M  V30 409 C 38.9158 3.69476 -4.8801 0
M  V30 410 N 38.0528 4.88774 -5.04029 0
M  V30 411 H 42.8928 1.00512 -2.80538 0
M  V30 412 H 40.4298 0.485055 -1.38873 0
M  V30 413 H 42.3878 3.44386 -2.35487 0
M  V30 414 H 41.0178 2.94115 -1.33027 0
M  V30 415 H 40.0698 1.69571 -3.40514 0
M  V30 416 H 41.3818 2.41774 -4.36287 0
M  V30 417 H 40.5358 4.7108 -3.8232 0
M  V30 418 H 39.2748 4.01754 -2.76487 0
M  V30 419 H 38.2798 2.80799 -4.72686 0
M  V30 420 H 39.5048 3.53238 -5.8 0
M  V30 421 H 37.4508 5.0687 -4.16435 0
M  V30 422 H 37.3678 4.76562 -5.86877 0
M  V30 423 H 38.6358 5.77335 -5.23741 0
M  V30 424 N 42.8649 1.48995 0.513639 0
M  V30 425 C 44.1109 1.58076 1.27042 0
M  V30 426 C 44.4439 0.261026 1.92438 0
M  V30 427 O 43.7189 -0.734393 1.80103 0
M  V30 428 C 44.0019 2.73091 2.34719 0
M  V30 429 C 43.8549 4.14821 1.73907 0
M  V30 430 C 45.1739 2.83796 3.36375 0
M  V30 431 H 42.2929 0.575391 0.460536 0
M  V30 432 H 44.9349 1.81232 0.570516 0
M  V30 433 H 43.0849 2.53479 2.94416 0
M  V30 434 H 44.7569 4.45917 1.18135 0
M  V30 435 H 42.9999 4.21058 1.0437 0
M  V30 436 H 43.6709 4.91147 2.51949 0
M  V30 437 H 46.1469 3.01611 2.86653 0
M  V30 438 H 45.0229 3.65971 4.09093 0
M  V30 439 H 45.2839 1.92624 3.9793 0
M  V30 440 N 44.343 -0.763751 1.37857 0
M  V30 441 C 45.583 -1.53551 1.34913 0
M  V30 442 C 45.947 -1.91895 -0.0635882 0
M  V30 443 O 47.148 -2.67916 -0.217825 0
M  V30 444 C 45.419 -2.76126 2.26912 0
M  V30 445 S 46.978 -3.66105 2.41893 0
M  V30 446 H 43.796 -0.52559 0.478828 0
M  V30 447 H 46.398 -0.897435 1.73685 0
M  V30 448 H 45.102 -2.4605 3.28463 0
M  V30 449 H 44.633 -3.44887 1.89253 0
M  V30 450 H 46.648 -4.68473 1.63545 0
M  V30 451 N 45.8211 -1.22559 -0.990812 0
M  V30 452 C 46.7531 -0.955325 -2.08342 0
M  V30 453 C 47.7661 0.0668408 -1.62663 0
M  V30 454 O 48.9551 -0.167421 -1.77713 0
M  V30 455 C 46.0551 -0.415566 -3.36342 0
M  V30 456 C 45.2281 -1.49544 -4.11042 0
M  V30 457 C 44.2871 -0.962399 -5.17324 0
M  V30 458 O 43.3131 -1.64907 -5.44788 0
M  V30 459 N 44.5151 0.215134 -5.80101 0
M  V30 460 H 47.2801 -1.89596 -2.32106 0
M  V30 461 H 44.8411 -1.13276 -1.15673 0
M  V30 462 H 46.8331 -0.0442386 -4.04676 0
M  V30 463 H 45.4031 0.430232 -3.09625 0
M  V30 464 H 44.6231 -2.04 -3.37309 0
M  V30 465 H 45.9111 -2.22195 -4.57719 0
M  V30 466 H 45.3091 0.789779 -5.6016 0
M  V30 467 H 43.8661 0.527826 -6.49659 0
M  V30 468 N 47.2992 1.18797 -1.03562 0
M  V30 469 C 48.5472 1.88278 -0.734569 0
M  V30 470 C 48.8682 1.8043 0.739586 0
M  V30 471 O 48.1382 1.21925 1.53333 0
M  V30 472 H 46.7182 0.696991 -0.268725 0
M  V30 473 H 49.3802 1.44192 -1.31129 0
M  V30 474 H 48.4762 2.94443 -1.03489 0
M  V30 475 N 48.7773 0.814389 1.34928 0
M  V30 476 C 50.0053 0.411136 2.02774 0
M  V30 477 C 50.4203 -0.980316 1.61354 0
M  V30 478 O 49.7773 -1.63299 0.814847 0
M  V30 479 C 49.8283 0.493865 3.58111 0
M  V30 480 O 49.5493 1.83047 3.98027 0
M  V30 481 C 51.0503 0.0844174 4.4322 0
M  V30 482 H 48.2703 0.166037 0.650133 0
M  V30 483 H 50.8143 1.10018 1.72384 0
M  V30 484 H 48.9693 -0.147006 3.87121 0
M  V30 485 H 49.3833 1.79872 4.92693 0
M  V30 486 H 50.8573 0.193404 5.51661 0
M  V30 487 H 51.3343 -0.97113 4.28329 0
M  V30 488 H 51.9403 0.69875 4.19521 0
M  V30 489 N 50.2554 -1.46986 0.568584 0
M  V30 490 C 51.4804 -2.07335 0.0520528 0
M  V30 491 C 51.9054 -1.41675 -1.23733 0
M  V30 492 O 51.2634 -0.495623 -1.74394 0
M  V30 493 C 51.3114 -3.60417 -0.11501 0
M  V30 494 O 50.4154 -3.95309 -1.17492 0
M  V30 495 H 49.7564 -0.661597 0.0564385 0
M  V30 496 H 52.2864 -1.88837 0.787507 0
M  V30 497 H 52.2964 -4.06698 -0.325644 0
M  V30 498 H 50.9714 -4.07601 0.826675 0
M  V30 499 H 49.5484 -3.60757 -0.943869 0
M  V30 500 N 51.7335 -0.305618 -1.54608 0
M  V30 501 C 52.6815 0.584119 -2.25146 0
M  V30 502 C 53.6755 1.13326 -1.25911 0
M  V30 503 O 54.8815 1.08337 -1.43747 0
M  V30 504 H 51.2565 0.206983 -0.722954 0
M  V30 505 H 53.2275 -0.033291 -2.98381 0
M  V30 506 C 51.9765 1.74225 -3.009 0
M  V30 507 H 51.2995 1.32892 -3.77067 0
M  V30 508 H 52.7395 2.34077 -3.53531 0
M  V30 509 C 51.1985 2.64914 -2.0814 0
M  V30 510 O 51.7285 3.66137 -1.65246 0
M  V30 511 N 49.9345 2.3275 -1.74 0
M  V30 512 H 49.4815 1.50479 -2.09078 0
M  V30 513 H 49.4395 2.93694 -1.12211 0
M  V30 514 N 53.2116 1.57565 -0.0334293 0
M  V30 515 C 54.1586 2.10478 0.946981 0
M  V30 516 C 55.1286 1.00787 1.32027 0
M  V30 517 O 56.3136 1.28232 1.41284 0
M  V30 518 C 53.4536 2.63994 2.22263 0
M  V30 519 C 52.5666 3.87709 1.90541 0
M  V30 520 C 51.7016 4.29604 3.12433 0
M  V30 521 C 50.7406 5.46065 2.76549 0
M  V30 522 N 49.8776 5.83096 3.9108 0
M  V30 523 H 54.7176 2.93963 0.488846 0
M  V30 524 H 52.2546 1.45296 0.22969 0
M  V30 525 H 54.2126 2.93114 2.96884 0
M  V30 526 H 52.8426 1.83333 2.65685 0
M  V30 527 H 51.8946 3.65291 1.06144 0
M  V30 528 H 53.2066 4.72403 1.60116 0
M  V30 529 H 52.3606 4.60182 3.9537 0
M  V30 530 H 51.0996 3.43685 3.46023 0
M  V30 531 H 50.1046 5.15176 1.92026 0
M  V30 532 H 51.3296 6.33685 2.44171 0
M  V30 533 H 49.2756 5.00132 4.24504 0
M  V30 534 H 49.1926 6.6244 3.64293 0
M  V30 535 H 50.4606 6.18282 4.74708 0
M  V30 536 N 54.6897 -0.239769 1.55765 0
M  V30 537 C 55.6197 -1.30052 1.9393 0
M  V30 538 C 56.6007 -1.49839 0.805132 0
M  V30 539 O 57.7857 -1.62328 1.06599 0
M  V30 540 C 54.9157 -2.65391 2.2402 0
M  V30 541 C 53.8697 -2.60289 3.39755 0
M  V30 542 C 53.1957 -3.99489 3.55405 0
M  V30 543 C 54.4957 -2.16654 4.75246 0
M  V30 544 H 56.1897 -0.983573 2.82783 0
M  V30 545 H 53.7357 -0.471701 1.36055 0
M  V30 546 H 55.6887 -3.3974 2.49308 0
M  V30 547 H 54.4127 -2.98736 1.32 0
M  V30 548 H 53.0717 -1.88398 3.14487 0
M  V30 549 H 52.7197 -4.30112 2.60793 0
M  V30 550 H 52.4197 -3.96962 4.33238 0
M  V30 551 H 53.9437 -4.75528 3.83022 0
M  V30 552 H 55.3577 -2.80737 4.99859 0
M  V30 553 H 53.7547 -2.25223 5.56232 0
M  V30 554 H 54.8247 -1.11835 4.71827 0
M  V30 555 N 56.1678 -1.49265 -0.50573 0
M  V30 556 C 57.3958 -1.62215 -1.28429 0
M  V30 557 C 57.8108 -0.291697 -1.86533 0
M  V30 558 O 57.1678 0.722233 -1.67601 0
M  V30 559 C 57.2188 -2.68735 -2.41793 0
M  V30 560 O 56.9398 -3.96619 -1.86078 0
M  V30 561 C 58.4408 -2.92346 -3.3324 0
M  V30 562 H 55.6608 -0.546239 -0.389697 0
M  V30 563 H 58.2048 -1.95265 -0.607609 0
M  V30 564 H 56.3598 -2.38476 -3.053 0
M  V30 565 H 56.7738 -4.55256 -2.60465 0
M  V30 566 H 58.2478 -3.70623 -4.09075 0
M  V30 567 H 58.7248 -2.02081 -3.89948 0
M  V30 568 H 59.3308 -3.24003 -2.75503 0
M  V30 569 N 57.6459 0.756429 -1.3826 0
M  V30 570 C 58.5779 1.87971 -1.31147 0
M  V30 571 C 59.5909 1.61248 -0.224239 0
M  V30 572 O 60.7799 1.71881 -0.481581 0
M  V30 573 C 57.8799 3.23545 -1.00857 0
M  V30 574 C 57.0529 3.77794 -2.20432 0
M  V30 575 C 56.1119 4.91877 -1.86931 0
M  V30 576 O 55.1379 5.06659 -2.59395 0
M  V30 577 N 56.3399 5.74643 -0.822568 0
M  V30 578 H 59.1049 1.94585 -2.2794 0
M  V30 579 H 56.6659 0.936234 -1.32084 0
M  V30 580 H 58.6579 3.97403 -0.765021 0
M  V30 581 H 57.2279 3.12335 -0.128687 0
M  V30 582 H 56.4479 2.95534 -2.6087 0
M  V30 583 H 57.7359 4.10771 -3.00241 0
M  V30 584 H 57.1339 5.65266 -0.221575 0
M  V30 585 H 55.6909 6.48661 -0.638899 0
M  V30 586 N 59.124 1.23083 0.984299 0
M  V30 587 C 60.054 1.03292 2.09411 0
M  V30 588 C 61.035 -0.048923 1.7003 0
M  V30 589 O 62.22 0.114967 1.93859 0
M  V30 590 C 59.35 0.619155 3.41736 0
M  V30 591 C 58.304 1.64791 3.95004 0
M  V30 592 C 57.63 1.0897 5.23478 0
M  V30 593 C 58.93 3.03999 4.24714 0
M  V30 594 H 60.624 1.96119 2.26225 0
M  V30 595 H 58.17 0.944344 1.08711 0
M  V30 596 H 60.123 0.467777 4.18796 0
M  V30 597 H 58.847 -0.344786 3.24775 0
M  V30 598 H 57.506 1.78721 3.20085 0
M  V30 599 H 57.154 0.11686 5.02864 0
M  V30 600 H 56.854 1.77704 5.60085 0
M  V30 601 H 58.378 0.950093 6.03163 0
M  V30 602 H 59.792 2.93393 4.92538 0
M  V30 603 H 58.189 3.69936 4.72512 0
M  V30 604 H 59.259 3.53285 3.32142 0
M  V30 605 N 60.6021 -1.18246 1.0419 0
M  V30 606 C 61.8501 -1.87886 0.744543 0
M  V30 607 C 62.1711 -1.8082 -0.730006 0
M  V30 608 O 61.4411 -1.22736 -1.52685 0
M  V30 609 H 60.0211 -0.695556 0.272417 0
M  V30 610 H 62.6831 -1.43494 1.31892 0
M  V30 611 H 61.7791 -2.9389 1.05049 0
M  V30 612 N 62.0802 -0.821533 -1.34494 0
M  V30 613 C 63.3082 -0.421884 -2.02553 0
M  V30 614 C 63.7232 0.971745 -1.61872 0
M  V30 615 O 63.0802 1.62864 -0.823496 0
M  V30 616 C 63.1312 -0.51285 -3.57844 0
M  V30 617 O 62.8522 -1.85155 -3.97051 0
M  V30 618 C 64.3532 -0.107921 -4.43169 0
M  V30 619 H 61.5732 -0.169482 -0.649243 0
M  V30 620 H 64.1172 -1.1093 -1.71798 0
M  V30 621 H 62.2722 0.126474 -3.87193 0
M  V30 622 H 62.6862 -1.82482 -4.91732 0
M  V30 623 H 64.1602 -0.222657 -5.51551 0
M  V30 624 H 64.6372 0.948401 -4.28838 0
M  V30 625 H 65.2432 -0.720989 -4.19144 0
M  V30 626 N 63.5583 1.46682 -0.576371 0
M  V30 627 C 64.8053 2.02412 -0.0595339 0
M  V30 628 C 65.1333 1.44859 1.29793 0
M  V30 629 O 64.3883 0.601099 1.8624 0
M  V30 630 C 64.6873 3.57345 0.062886 0
M  V30 631 C 64.3533 4.33908 -1.22616 0
M  V30 632 C 63.0153 4.54544 -1.57933 0
M  V30 633 C 65.3673 4.77919 -2.07948 0
M  V30 634 C 62.6953 5.16444 -2.78393 0
M  V30 635 C 65.0473 5.41149 -3.27629 0
M  V30 636 C 63.7113 5.60014 -3.63236 0
M  V30 637 H 62.9813 0.74068 -0.021785 0
M  V30 638 H 65.6283 1.76128 -0.751735 0
M  V30 639 H 63.9333 3.82729 0.838178 0
M  V30 640 H 65.6303 3.98136 0.478439 0
M  V30 641 H 62.2203 4.18138 -0.941202 0
M  V30 642 H 66.4043 4.61738 -1.81967 0
M  V30 643 H 61.6603 5.29242 -3.06126 0
M  V30 644 H 65.8343 5.74211 -3.94023 0
M  V30 645 H 63.4613 6.07748 -4.56669 0
M  V30 646 N 65.0364 0.313813 1.54444 0
M  V30 647 C 65.9464 -0.565714 2.27677 0
M  V30 648 C 66.9624 -1.13754 1.31666 0
M  V30 649 O 68.1384 -1.15959 1.64668 0
M  V30 650 C 65.2034 -1.71528 3.01296 0
M  V30 651 C 64.2644 -1.17624 4.12872 0
M  V30 652 C 63.4974 -2.27102 4.8297 0
M  V30 653 O 63.7204 -3.47256 4.52514 0
M  V30 654 O 62.6544 -1.9307 5.70094 0
M  V30 655 H 66.4804 0.0287296 3.03686 0
M  V30 656 H 64.0654 0.0798312 1.49187 0
M  V30 657 H 65.9474 -2.38476 3.4743 0
M  V30 658 H 64.6224 -2.29608 2.2817 0
M  V30 659 H 63.5294 -0.472124 3.71109 0
M  V30 660 H 64.8624 -0.640695 4.88012 0
M  V30 661 N 66.5145 -1.57545 0.0417849 0
M  V30 662 C 67.7915 -1.83642 -0.673433 0
M  V30 663 C 68.1715 -0.928298 -1.89594 0
M  V30 664 O 67.5195 0.0129955 -2.28496 0
M  V30 665 C 67.7295 -3.33155 -1.03964 0
M  V30 666 C 69.0775 -3.99941 -1.42592 0
M  V30 667 O 70.1015 -3.37725 -1.13226 0
M  V30 668 O 68.9605 -5.09619 -1.9736 0
M  V30 669 H 66.0545 -0.757638 -0.331533 0
M  V30 670 H 68.6005 -1.69554 0.070433 0
M  V30 671 H 67.3725 -3.9093 -0.170098 0
M  V30 672 H 66.9955 -3.52396 -1.84126 0
M  V30 673 N 67.9926 0.231505 -1.5589 0
M  V30 674 C 68.9426 1.29007 -1.87993 0
M  V30 675 C 69.9266 1.42764 -0.742102 0
M  V30 676 O 71.1186 1.45747 -1.00433 0
M  V30 677 C 68.2476 2.6425 -2.1915 0
M  V30 678 C 67.3336 2.54435 -3.39299 0
M  V30 679 N 67.7246 2.14262 -4.58176 0
M  V30 680 C 66.0226 2.85416 -3.42715 0
M  V30 681 C 66.7236 2.15455 -5.40328 0
M  V30 682 N 65.6996 2.55558 -4.79783 0
M  V30 683 H 69.5016 0.970213 -2.77424 0
M  V30 684 H 67.0156 0.440097 -1.56323 0
M  V30 685 H 69.0126 3.40665 -2.40319 0
M  V30 686 H 67.6726 2.9709 -1.31025 0
M  V30 687 H 68.6836 1.85554 -4.83518 0
M  V30 688 H 65.3606 3.22693 -2.64906 0
M  V30 689 H 66.7506 1.86605 -6.45467 0
M  V30 690 N 69.4707 1.49531 0.497807 0
M  V30 691 C 70.7177 1.59179 1.25173 0
M  V30 692 C 71.0457 0.279932 1.92475 0
M  V30 693 O 70.3007 -0.732383 1.81479 0
M  V30 694 C 70.5997 2.70252 2.33878 0
M  V30 695 C 70.2657 4.11644 1.84012 0
M  V30 696 C 68.9277 4.50121 1.70132 0
M  V30 697 C 71.2797 5.00121 1.46725 0
M  V30 698 C 68.6077 5.74845 1.17348 0
M  V30 699 C 70.9597 6.25366 0.95392 0
M  V30 700 C 69.6237 6.6267 0.801538 0
M  V30 701 H 68.8937 0.582478 0.45804 0
M  V30 702 H 71.5407 1.83373 0.551948 0
M  V30 703 H 69.8457 2.40041 3.09657 0
M  V30 704 H 71.5427 2.74925 2.9192 0
M  V30 705 H 68.1327 3.81274 1.95775 0
M  V30 706 H 72.3167 4.71048 1.56294 0
M  V30 707 H 67.5727 6.02444 1.04264 0
M  V30 708 H 71.7467 6.93301 0.656225 0
M  V30 709 H 69.3737 7.59197 0.390351 0
M  V30 710 N 70.9488 -0.749086 1.3866 0
M  V30 711 C 71.8788 -1.8764 1.38973 0
M  V30 712 C 72.8598 -1.68178 0.255004 0
M  V30 713 O 74.0448 -1.88704 0.458754 0
M  V30 714 C 71.1748 -3.25222 1.21851 0
M  V30 715 C 70.1288 -3.59295 2.32575 0
M  V30 716 C 69.4548 -4.95663 2.00555 0
M  V30 717 C 70.7548 -3.63709 3.7485 0
M  V30 718 H 72.4488 -1.87635 2.3331 0
M  V30 719 H 69.9948 -0.901329 1.12303 0
M  V30 720 H 71.9478 -4.03746 1.20695 0
M  V30 721 H 70.6718 -3.25719 0.239775 0
M  V30 722 H 69.3308 -2.83093 2.32925 0
M  V30 723 H 68.9788 -4.92724 1.01154 0
M  V30 724 H 68.6788 -5.19429 2.74714 0
M  V30 725 H 70.2028 -5.7656 2.01024 0
M  V30 726 H 71.6168 -4.32338 3.76506 0
M  V30 727 H 70.0138 -3.98986 4.48252 0
M  V30 728 H 71.0838 -2.63834 4.06841 0
M  V30 729 N 72.4269 -1.23603 -0.977757 0
M  V30 730 C 73.6519 -1.09735 -1.75991 0
M  V30 731 C 74.0769 0.346858 -1.84874 0
M  V30 732 O 73.4349 1.25093 -1.3123 0
M  V30 733 C 73.4829 -1.73051 -3.16363 0
M  V30 734 O 72.5869 -0.994452 -4.0023 0
M  V30 735 H 71.9279 -0.384476 -0.541364 0
M  V30 736 H 74.4579 -1.6371 -1.2272 0
M  V30 737 H 74.4679 -1.78398 -3.66931 0
M  V30 738 H 73.1429 -2.78137 -3.09213 0
M  V30 739 H 71.7199 -1.01812 -3.58732 0
M  V30 740 N 73.905 1.17692 -1.04816 0
M  V30 741 C 74.835 2.23777 -0.666791 0
M  V30 742 C 75.816 1.66796 0.33361 0
M  V30 743 O 77.001 1.93039 0.212042 0
M  V30 744 C 74.131 3.47281 -0.0367933 0
M  V30 745 C 73.085 4.17059 -0.961546 0
M  V30 746 C 72.411 5.34342 -0.195626 0
M  V30 747 C 73.711 4.69713 -2.28402 0
M  V30 748 H 75.405 2.55933 -1.55367 0
M  V30 749 H 72.951 1.23019 -0.748484 0
M  V30 750 H 74.904 4.20706 0.241775 0
M  V30 751 H 73.628 3.14381 0.885004 0
M  V30 752 H 72.287 3.45541 -1.22462 0
M  V30 753 H 71.935 4.97692 0.728816 0
M  V30 754 H 71.635 5.81966 -0.811775 0
M  V30 755 H 73.159 6.10553 0.0757473 0
M  V30 756 H 74.573 5.34794 -2.06563 0
M  V30 757 H 72.97 5.279 -2.8538 0
M  V30 758 H 74.04 3.86726 -2.92525 0
M  V30 759 N 75.3831 0.828654 1.34056 0
M  V30 760 C 76.3151 0.212052 2.28217 0
M  V30 761 C 77.3281 -0.601362 1.51286 0
M  V30 762 O 78.5171 -0.430104 1.73241 0
M  V30 763 C 75.6171 -0.72088 3.31144 0
M  V30 764 C 74.7901 0.0509587 4.3737 0
M  V30 765 C 73.8491 -0.803766 5.20025 0
M  V30 766 O 72.8751 -0.246667 5.68665 0
M  V30 767 N 74.0771 -2.1227 5.40298 0
M  V30 768 H 76.8421 1.02105 2.81771 0
M  V30 769 H 74.4031 0.686153 1.46641 0
M  V30 770 H 76.3951 -1.29742 3.8334 0
M  V30 771 H 74.9651 -1.43061 2.77943 0
M  V30 772 H 74.1851 0.808831 3.85813 0
M  V30 773 H 75.4731 0.582065 5.0546 0
M  V30 774 H 74.8711 -2.59898 5.02464 0
M  V30 775 H 73.4281 -2.64796 5.95589 0
M  V30 776 N 76.8612 -1.46375 0.584142 0
M  V30 777 C 78.2772 -1.57694 0.245929 0
M  V30 778 C 78.4772 -1.57903 -1.25175 0
M  V30 779 O 77.5332 -1.49676 -2.03355 0
M  V30 780 C 78.8462 -2.87028 0.896402 0
M  V30 781 C 80.3942 -3.00662 0.870127 0
M  V30 782 C 80.8692 -4.32734 1.50017 0
M  V30 783 N 82.3602 -4.39436 1.46458 0
M  V30 784 C 83.0952 -5.40248 1.92144 0
M  V30 785 N 82.5912 -6.47726 2.4581 0
M  V30 786 N 84.3842 -5.31459 1.83052 0
M  V30 787 H 76.5352 -1.44483 1.55687 0
M  V30 788 H 78.7982 -0.689291 0.650831 0
M  V30 789 H 78.5042 -2.9269 1.95002 0
M  V30 790 H 78.3782 -3.75014 0.405486 0
M  V30 791 H 80.7652 -2.94581 -0.174871 0
M  V30 792 H 80.8462 -2.14148 1.39908 0
M  V30 793 H 80.4902 -4.39573 2.54437 0
M  V30 794 H 80.4202 -5.18025 0.946432 0
M  V30 795 H 82.9112 -3.62367 1.07231 0
M  V30 796 H 83.2242 -7.20863 2.78525 0
M  V30 797 H 81.5692 -6.48542 2.49836 0
M  V30 798 H 84.7602 -4.46396 1.40883 0
M  V30 799 H 84.9332 -6.09881 2.18973 0
M  V30 800 N 78.3393 -0.321999 -1.54275 0
M  V30 801 C 79.2723 0.58718 -2.20516 0
M  V30 802 C 80.2503 1.11693 -1.18167 0
M  V30 803 O 81.4343 1.18122 -1.46899 0
M  V30 804 C 78.5613 1.80554 -2.86562 0
M  V30 805 C 77.6073 1.40718 -4.02617 0
M  V30 806 S 78.4403 0.445218 -5.33646 0
M  V30 807 C 79.5963 1.6709 -6.03185 0
M  V30 808 H 79.8293 0.0244875 -2.9729 0
M  V30 809 H 77.3623 -0.106087 -1.54035 0
M  V30 810 H 79.3203 2.50462 -3.25237 0
M  V30 811 H 77.9813 2.33942 -2.09595 0
M  V30 812 H 77.1743 2.31501 -4.47687 0
M  V30 813 H 76.7763 0.78782 -3.65608 0
M  V30 814 H 79.0683 2.60856 -6.25268 0
M  V30 815 H 80.0113 1.26239 -6.96756 0
M  V30 816 H 80.4193 1.85716 -5.33076 0
M  V30 817 N 79.8174 1.5752 -0.0501392 0
M  V30 818 C 81.0644 1.9265 0.623874 0
M  V30 819 C 81.3924 0.928411 1.70912 0
M  V30 820 O 80.6474 -0.0594525 1.9561 0
M  V30 821 C 80.9464 3.34467 1.25963 0
M  V30 822 C 80.6124 4.49883 0.302689 0
M  V30 823 C 79.2744 4.81184 0.0393636 0
M  V30 824 C 81.6264 5.20002 -0.353205 0
M  V30 825 C 78.9544 5.79951 -0.887308 0
M  V30 826 C 81.3064 6.1976 -1.26806 0
M  V30 827 C 79.9704 6.49491 -1.54007 0
M  V30 828 H 79.2404 0.704957 0.228292 0
M  V30 829 H 81.8874 1.91146 -0.116398 0
M  V30 830 H 80.1924 3.32333 2.07514 0
M  V30 831 H 81.8894 3.58928 1.78806 0
M  V30 832 H 78.4794 4.25457 0.518109 0
M  V30 833 H 82.6634 4.96033 -0.162854 0
M  V30 834 H 77.9194 6.01322 -1.10553 0
M  V30 835 H 82.0934 6.73205 -1.78236 0
M  V30 836 H 79.7204 7.25837 -2.25976 0
M  V30 837 N 81.2955 -0.223234 1.56011 0
M  V30 838 C 82.2435 -1.29627 1.93131 0
M  V30 839 C 83.2375 -1.48608 0.813146 0
M  V30 840 O 84.4435 -1.49802 0.997966 0
M  V30 841 H 80.8185 -0.434563 0.613726 0
M  V30 842 H 82.7895 -0.955995 2.82672 0
M  V30 843 C 81.5385 -2.63983 2.26292 0
M  V30 844 H 80.8615 -2.50185 3.11846 0
M  V30 845 H 82.3015 -3.3788 2.56151 0
M  V30 846 C 80.7605 -3.18866 1.08747 0
M  V30 847 O 81.2905 -4.00192 0.347727 0
M  V30 848 N 79.4965 -2.77217 0.871743 0
M  V30 849 H 79.0435 -2.1119 1.47501 0
M  V30 850 H 79.0015 -3.1428 0.0869905 0
M  V30 851 N 82.7736 -1.49793 -0.48987 0
M  V30 852 C 83.7216 -1.67783 -1.61095 0
M  V30 853 C 84.7156 -0.543683 -1.60438 0
M  V30 854 O 85.9216 -0.723647 -1.64813 0
M  V30 855 H 82.2966 -0.529255 -0.534222 0
M  V30 856 H 84.2676 -2.61861 -1.43078 0
M  V30 857 C 83.0166 -1.77191 -2.99164 0
M  V30 858 H 82.3396 -2.63841 -3.0038 0
M  V30 859 H 83.7796 -1.93809 -3.77113 0
M  V30 860 C 82.2386 -0.519203 -3.32875 0
M  V30 861 O 82.7686 0.350124 -4.00171 0
M  V30 862 N 80.9746 -0.378816 -2.8812 0
M  V30 863 H 80.5216 -1.08725 -2.33531 0
M  V30 864 H 80.4796 0.458239 -3.11043 0
M  V30 865 N 84.2517 0.741722 -1.39055 0
M  V30 866 C 85.4917 1.51385 -1.37338 0
M  V30 867 C 85.8557 1.91972 0.0330513 0
M  V30 868 O 87.0567 2.68229 0.175174 0
M  V30 869 C 85.3277 2.72481 -2.31276 0
M  V30 870 S 86.8867 3.62211 -2.47687 0
M  V30 871 H 83.7047 0.517906 -0.487129 0
M  V30 872 H 86.3067 0.86969 -1.7509 0
M  V30 873 H 85.0107 2.40793 -3.32336 0
M  V30 874 H 84.5417 3.41832 -1.94716 0
M  V30 875 H 86.5567 4.65812 -1.70978 0
M  V30 876 N 85.7298 1.2412 0.971189 0
M  V30 877 C 86.6398 1.04747 2.09917 0
M  V30 878 C 87.6558 -0.0107162 1.73997 0
M  V30 879 O 88.8318 0.186714 2.00533 0
M  V30 880 C 85.8968 0.650828 3.40537 0
M  V30 881 C 84.9578 1.7851 3.90426 0
M  V30 882 C 84.1908 1.40729 5.14812 0
M  V30 883 O 84.4138 0.29557 5.69634 0
M  V30 884 O 83.3478 2.23168 5.58999 0
M  V30 885 H 87.1738 1.99304 2.29154 0
M  V30 886 H 84.7588 1.02908 1.08307 0
M  V30 887 H 86.6408 0.440992 4.19086 0
M  V30 888 H 85.3158 -0.265649 3.22608 0
M  V30 889 H 84.2228 2.04966 3.12953 0
M  V30 890 H 85.5558 2.68023 4.12825 0
M  V30 891 N 87.2079 -1.17134 1.05439 0
M  V30 892 C 88.4539 -1.87733 0.767077 0
M  V30 893 C 88.7869 -1.8098 -0.704253 0
M  V30 894 O 88.0619 -1.21951 -1.5152 0
M  V30 895 C 88.3449 -3.37659 1.25133 0
M  V30 896 C 88.1979 -3.53149 2.78578 0
M  V30 897 C 89.5169 -4.31768 0.852324 0
M  V30 898 H 86.6359 -0.681687 0.280129 0
M  V30 899 H 89.2779 -1.37732 1.30881 0
M  V30 900 H 87.4279 -3.80373 0.790469 0
M  V30 901 H 89.0999 -3.19434 3.32806 0
M  V30 902 H 87.3429 -2.95345 3.17732 0
M  V30 903 H 88.0139 -4.58403 3.07523 0
M  V30 904 H 90.4899 -3.96909 1.24911 0
M  V30 905 H 89.3659 -5.35199 1.21873 0
M  V30 906 H 89.6269 -4.41429 -0.243485 0
M  V30 907 N 88.686 -0.835752 -1.33615 0
M  V30 908 C 89.932 -0.430596 -1.98176 0
M  V30 909 C 90.265 1.00684 -1.66061 0
M  V30 910 O 89.54 1.70339 -0.938877 0
M  V30 911 C 89.823 -0.648065 -3.5422 0
M  V30 912 C 89.676 -2.13255 -3.96033 0
M  V30 913 C 90.995 -0.0922113 -4.40003 0
M  V30 914 H 88.114 -0.157924 -0.719881 0
M  V30 915 H 90.756 -1.05069 -1.58305 0
M  V30 916 H 88.906 -0.120237 -3.88314 0
M  V30 917 H 90.578 -2.725 -3.72211 0
M  V30 918 H 88.821 -2.61823 -3.45878 0
M  V30 919 H 89.492 -2.23547 -5.04708 0
M  V30 920 H 91.968 -0.543343 -4.12537 0
M  V30 921 H 90.844 -0.274083 -5.48215 0
M  V30 922 H 91.105 1.00378 -4.30554 0
M  V30 923 N 90.1641 1.46063 -0.591896 0
M  V30 924 C 91.0941 2.33172 0.123673 0
M  V30 925 C 92.0751 1.45897 0.87453 0
M  V30 926 O 93.2601 1.74698 0.848181 0
M  V30 927 C 90.3901 3.28336 1.13194 0
M  V30 928 C 89.3441 4.25124 0.495324 0
M  V30 929 C 88.6701 5.09863 1.61071 0
M  V30 930 C 89.9701 5.19143 -0.573425 0
M  V30 931 H 91.6641 2.93252 -0.603646 0
M  V30 932 H 89.2101 1.41014 -0.291741 0
M  V30 933 H 91.1631 3.88137 1.64097 0
M  V30 934 H 89.8871 2.66383 1.88965 0
M  V30 935 H 88.5461 3.66599 0.00729452 0
M  V30 936 H 88.1941 4.44288 2.35832 0
M  V30 937 H 87.8941 5.75417 1.19035 0
M  V30 938 H 89.4181 5.72529 2.12233 0
M  V30 939 H 90.8321 5.73106 -0.1491 0
M  V30 940 H 89.2291 5.93089 -0.914636 0
M  V30 941 H 90.2991 4.62519 -1.45617 0
M  V30 942 N 91.6422 0.330177 1.54103 0
M  V30 943 C 92.8902 -0.269871 2.0029 0
M  V30 944 C 93.2112 -1.52133 1.21986 0
M  V30 945 O 92.4812 -1.93212 0.323438 0
M  V30 946 H 91.0612 -0.10271 0.739905 0
M  V30 947 H 93.7232 0.448249 1.89675 0
M  V30 948 H 92.8192 -0.52166 3.07709 0
M  V30 949 N 93.1203 -1.57491 0.0584922 0
M  V30 950 C 94.0683 -2.13148 -0.931168 0
M  V30 951 C 95.0623 -1.06507 -1.31729 0
M  V30 952 O 96.2683 -1.24906 -1.29609 0
M  V30 953 H 92.6433 -0.68137 -0.31818 0
M  V30 954 H 94.6143 -2.95187 -0.436707 0
M  V30 955 C 93.3633 -2.69732 -2.19408 0
M  V30 956 H 92.6863 -3.51454 -1.90578 0
M  V30 957 H 94.1263 -3.12287 -2.86798 0
M  V30 958 C 92.5853 -1.63855 -2.94369 0
M  V30 959 O 93.1153 -1.05565 -3.87581 0
M  V30 960 N 91.3213 -1.35202 -2.57233 0
M  V30 961 H 90.8683 -1.82791 -1.81508 0
M  V30 962 H 90.8263 -0.645922 -3.07693 0
M  V30 963 N 94.5984 0.214957 -1.56127 0
M  V30 964 C 95.5284 1.2695 -1.95974 0
M  V30 965 C 96.5094 1.48539 -0.828868 0
M  V30 966 O 97.6944 1.60611 -1.09168 0
M  V30 967 C 94.8244 2.61794 -2.28214 0
M  V30 968 C 93.7784 2.54851 -3.43853 0
M  V30 969 C 93.1044 3.93785 -3.61715 0
M  V30 970 C 94.4044 2.09065 -4.78632 0
M  V30 971 H 96.0984 0.93846 -2.84312 0
M  V30 972 H 93.6444 0.449996 -1.36788 0
M  V30 973 H 95.5974 3.35731 -2.54682 0
M  V30 974 H 94.3214 2.96599 -1.36736 0
M  V30 975 H 92.9804 1.8337 -3.17444 0
M  V30 976 H 92.6284 4.25908 -2.67602 0
M  V30 977 H 92.3284 3.90019 -4.39498 0
M  V30 978 H 93.8524 4.69374 -3.90539 0
M  V30 979 H 95.2664 2.7275 -5.04262 0
M  V30 980 H 93.6634 2.16346 -5.59745 0
M  V30 981 H 94.7334 1.04315 -4.73547 0
M  V30 982 N 96.0765 1.50051 0.48192 0
M  V30 983 C 96.9865 1.7089 1.60728 0
M  V30 984 C 98.0025 0.591788 1.63627 0
M  V30 985 O 99.1785 0.868817 1.81696 0
M  V30 986 C 96.2435 1.78855 2.97005 0
M  V30 987 C 95.3045 3.02537 3.04581 0
M  V30 988 C 94.5375 3.10112 4.34357 0
M  V30 989 O 94.7605 2.24765 5.24249 0
M  V30 990 O 93.6945 4.02747 4.47301 0
M  V30 991 H 97.5205 2.66264 1.46072 0
M  V30 992 H 95.1055 1.34018 0.660264 0
M  V30 993 H 96.9875 1.86336 3.77964 0
M  V30 994 H 95.6625 0.866628 3.11883 0
M  V30 995 H 94.5695 3.00563 2.22739 0
M  V30 996 H 95.9025 3.94272 2.94636 0
M  V30 997 N 97.5546 -0.734337 1.39446 0
M  V30 998 C 98.8036 -1.48937 1.36017 0
M  V30 999 C 99.1166 -1.95557 -0.0409005 0
M  V30 1000 O 100.323 -2.70779 -0.19778 0
M  V30 1001 C 98.7786 -2.69125 2.38955 0
M  V30 1002 C 98.3866 -2.29452 3.8478 0
M  V30 1003 C 100.131 -3.46944 2.44603 0
M  V30 1004 C 98.0376 -3.46366 4.79358 0
M  V30 1005 H 96.9676 -0.559296 0.505672 0
M  V30 1006 H 99.6186 -0.800983 1.65095 0
M  V30 1007 H 98.0006 -3.40041 2.02948 0
M  V30 1008 H 99.1746 -1.66077 4.29831 0
M  V30 1009 H 97.4896 -1.64723 3.82433 0
M  V30 1010 H 100.087 -4.33907 3.12456 0
M  V30 1011 H 100.43 -3.89454 1.47076 0
M  V30 1012 H 100.963 -2.83056 2.79507 0
M  V30 1013 H 97.7016 -3.08905 5.78151 0
M  V30 1014 H 97.2216 -4.08719 4.38986 0
M  V30 1015 H 98.9006 -4.12691 4.98292 0
M  V30 1016 N 99.0327 -1.24633 -0.964593 0
M  V30 1017 C 100.261 -1.11501 -1.74285 0
M  V30 1018 C 100.676 0.332165 -1.85855 0
M  V30 1019 O 100.033 1.22903 -1.34911 0
M  V30 1020 C 100.084 -1.75258 -3.16175 0
M  V30 1021 O 99.8047 -3.14318 -3.05182 0
M  V30 1022 C 101.306 -1.67776 -4.10324 0
M  V30 1023 H 98.5257 -0.389407 -0.546446 0
M  V30 1024 H 101.07 -1.64801 -1.21083 0
M  V30 1025 H 99.2247 -1.25954 -3.66353 0
M  V30 1026 H 99.6387 -3.4551 -3.94618 0
M  V30 1027 H 101.113 -2.17064 -5.0753 0
M  V30 1028 H 101.59 -0.639584 -4.34518 0
M  V30 1029 H 102.196 -2.16522 -3.66058 0
M  V30 1030 N 100.511 1.16574 -1.06058 0
M  V30 1031 C 101.741 1.90675 -0.795397 0
M  V30 1032 C 102.149 1.77547 0.653735 0
M  V30 1033 O 101.492 1.11611 1.45907 0
M  V30 1034 C 101.554 3.42011 -1.10764 0
M  V30 1035 C 101.218 3.78924 -2.55471 0
M  V30 1036 C 102.215 3.81042 -3.53699 0
M  V30 1037 C 99.8998 4.09626 -2.90708 0
M  V30 1038 C 101.894 4.13346 -4.85205 0
M  V30 1039 C 99.5808 4.41597 -4.22416 0
M  V30 1040 C 100.579 4.43436 -5.19474 0
M  V30 1041 O 100.267 4.74649 -6.48817 0
M  V30 1042 H 99.9988 0.611554 -0.288058 0
M  V30 1043 H 102.553 1.48711 -1.41683 0
M  V30 1044 H 100.783 3.84312 -0.429128 0
M  V30 1045 H 102.472 3.97384 -0.827077 0
M  V30 1046 H 103.238 3.57437 -3.27817 0
M  V30 1047 H 99.1168 4.07361 -2.15819 0
M  V30 1048 H 102.661 4.14696 -5.60957 0
M  V30 1049 H 98.5578 4.64667 -4.48056 0
M  V30 1050 H 99.3258 4.9247 -6.5377 0
M  V30 1051 N 101.989 0.842826 1.3317 0
M  V30 1052 C 103.235 0.441099 1.97945 0
M  V30 1053 C 103.568 -0.998024 1.66593 0
M  V30 1054 O 102.843 -1.69839 0.947898 0
M  V30 1055 C 103.126 0.666841 3.53872 0
M  V30 1056 C 102.979 2.15352 3.94897 0
M  V30 1057 C 104.298 0.115544 4.39948 0
M  V30 1058 H 101.417 0.161739 0.719034 0
M  V30 1059 H 104.059 1.05907 1.57746 0
M  V30 1060 H 102.209 0.140828 3.88245 0
M  V30 1061 H 103.881 2.7447 3.70761 0
M  V30 1062 H 102.124 2.63653 3.44484 0
M  V30 1063 H 102.795 2.26221 5.03516 0
M  V30 1064 H 105.271 0.565213 4.12243 0
M  V30 1065 H 104.147 0.303152 5.48062 0
M  V30 1066 H 104.408 -0.980935 4.3108 0
M  V30 1067 N 103.467 -1.45747 0.599634 0
M  V30 1068 C 104.399 -2.28628 -0.161879 0
M  V30 1069 C 105.412 -1.39494 -0.839367 0
M  V30 1070 O 106.601 -1.63941 -0.706089 0
M  V30 1071 C 103.701 -3.15014 -1.24976 0
M  V30 1072 C 102.874 -4.32378 -0.660935 0
M  V30 1073 C 101.933 -5.00033 -1.63869 0
M  V30 1074 O 100.959 -5.57085 -1.1681 0
M  V30 1075 N 102.161 -4.98589 -2.97303 0
M  V30 1076 H 104.926 -2.94624 0.549265 0
M  V30 1077 H 102.487 -1.55847 0.438565 0
M  V30 1078 H 104.479 -3.5714 -1.9035 0
M  V30 1079 H 103.049 -2.5098 -1.86354 0
M  V30 1080 H 102.269 -3.9383 0.170688 0
M  V30 1081 H 103.557 -5.08197 -0.247619 0
M  V30 1082 H 102.955 -4.53514 -3.38145 0
M  V30 1083 H 101.512 -5.44603 -3.58121 0
M  V30 1084 N 104.945 -0.338344 -1.53925 0
M  V30 1085 C 106.361 0.0137736 -1.59594 0
M  V30 1086 C 106.561 1.49186 -1.35447 0
M  V30 1087 O 105.617 2.24987 -1.14616 0
M  V30 1088 C 106.93 -0.41773 -2.97784 0
M  V30 1089 C 108.478 -0.369633 -3.1081 0
M  V30 1090 C 108.953 -0.776524 -4.51369 0
M  V30 1091 N 110.444 -0.730506 -4.57403 0
M  V30 1092 C 111.179 -1.01736 -5.64303 0
M  V30 1093 N 110.675 -1.3721 -6.79077 0
M  V30 1094 N 112.468 -0.941942 -5.54151 0
M  V30 1095 H 104.619 -1.3012 -1.67876 0
M  V30 1096 H 106.882 -0.530082 -0.78595 0
M  V30 1097 H 106.588 -1.44811 -3.20504 0
M  V30 1098 H 106.462 0.209729 -3.76616 0
M  V30 1099 H 108.849 0.651568 -2.87817 0
M  V30 1100 H 108.93 -1.03223 -2.34049 0
M  V30 1101 H 108.574 -1.79571 -4.75096 0
M  V30 1102 H 108.504 -0.0914649 -5.26521 0
M  V30 1103 H 110.995 -0.468783 -3.74981 0
M  V30 1104 H 111.308 -1.57597 -7.5656 0
M  V30 1105 H 109.653 -1.4105 -6.80536 0
M  V30 1106 H 112.844 -0.664184 -4.63364 0
M  V30 1107 H 113.017 -1.16884 -6.37371 0
M  V30 1108 N 106.423 1.57458 -0.0668435 0
M  V30 1109 C 107.371 2.13639 0.919851 0
M  V30 1110 C 108.365 1.07204 1.31163 0
M  V30 1111 O 109.571 1.25591 1.28945 0
M  V30 1112 H 105.946 0.683048 0.314562 0
M  V30 1113 H 107.917 2.95415 0.421047 0
M  V30 1114 C 106.666 2.70892 2.17975 0
M  V30 1115 H 105.989 3.5246 1.88711 0
M  V30 1116 H 107.429 3.13803 2.85138 0
M  V30 1117 C 105.888 1.65414 2.93496 0
M  V30 1118 O 106.418 1.07619 3.87015 0
M  V30 1119 N 104.624 1.36564 2.56512 0
M  V30 1120 H 104.171 1.83751 1.80536 0
M  V30 1121 H 104.129 0.66223 3.07347 0
M  V30 1122 N 107.901 -0.206675 1.56239 0
M  V30 1123 C 109.131 -0.943975 1.83773 0
M  V30 1124 C 109.539 -1.77841 0.645703 0
M  V30 1125 O 108.882 -1.79403 -0.395008 0
M  V30 1126 C 108.944 -1.899 3.05251 0
M  V30 1127 C 108.608 -1.24764 4.39639 0
M  V30 1128 C 109.605 -0.630216 5.16066 0
M  V30 1129 C 107.29 -1.25496 4.8637 0
M  V30 1130 C 109.284 -0.0287946 6.37393 0
M  V30 1131 C 106.971 -0.649698 6.07637 0
M  V30 1132 C 107.969 -0.0376845 6.8299 0
M  V30 1133 O 107.657 0.55812 8.0196 0
M  V30 1134 H 107.389 -0.281508 0.614597 0
M  V30 1135 H 109.943 -0.222458 2.04192 0
M  V30 1136 H 108.173 -2.6599 2.80689 0
M  V30 1137 H 109.862 -2.5031 3.1953 0
M  V30 1138 H 110.628 -0.616785 4.81062 0
M  V30 1139 H 106.507 -1.72072 4.27683 0
M  V30 1140 H 110.051 0.449518 6.9615 0
M  V30 1141 H 105.948 -0.660592 6.42111 0
M  V30 1142 H 106.716 0.453891 8.17241 0
M  V30 1143 N 109.379 -1.50304 -0.473955 0
M  V30 1144 C 110.656 -1.51667 -1.23518 0
M  V30 1145 C 111.036 -0.259701 -2.09496 0
M  V30 1146 O 110.384 0.756986 -2.15597 0
M  V30 1147 C 110.594 -2.81082 -2.06868 0
M  V30 1148 C 111.942 -3.31631 -2.65153 0
M  V30 1149 O 112.966 -2.82384 -2.17113 0
M  V30 1150 O 111.825 -4.17471 -3.52675 0
M  V30 1151 H 108.919 -0.60822 -0.560355 0
M  V30 1152 H 111.465 -1.62592 -0.486011 0
M  V30 1153 H 110.237 -3.64041 -1.4349 0
M  V30 1154 H 109.86 -2.73146 -2.88924 0
M  V30 1155 N 110.857 0.726932 -1.39834 0
M  V30 1156 C 111.787 1.85405 -1.41941 0
M  V30 1157 C 112.768 1.67751 -0.281728 0
M  V30 1158 O 113.953 1.8795 -0.488717 0
M  V30 1159 C 111.083 3.23243 -1.2701 0
M  V30 1160 C 110.037 3.55549 -2.38262 0
M  V30 1161 C 109.363 4.9241 -2.08415 0
M  V30 1162 C 110.663 3.577 -3.80589 0
M  V30 1163 H 112.357 1.83899 -2.36266 0
M  V30 1164 H 109.903 0.883349 -1.13723 0
M  V30 1165 H 111.856 4.01775 -1.27103 0
M  V30 1166 H 110.58 3.25296 -0.291564 0
M  V30 1167 H 109.239 2.79351 -2.37399 0
M  V30 1168 H 108.887 4.91052 -1.0898 0
M  V30 1169 H 108.587 5.14992 -2.82943 0
M  V30 1170 H 110.111 5.73289 -2.10171 0
M  V30 1171 H 111.525 4.26293 -3.83337 0
M  V30 1172 H 109.922 3.91804 -4.54543 0
M  V30 1173 H 110.992 2.57328 -4.10987 0
M  V30 1174 N 112.336 1.25143 0.95797 0
M  V30 1175 C 113.561 1.12521 1.74223 0
M  V30 1176 C 113.986 -0.317402 1.85403 0
M  V30 1177 O 113.344 -1.2299 1.33204 0
M  V30 1178 C 113.392 1.78062 3.1357 0
M  V30 1179 O 112.496 1.058 3.98598 0
M  V30 1180 H 111.837 0.39304 0.535178 0
M  V30 1181 H 114.367 1.65641 1.201 0
M  V30 1182 H 114.377 1.84213 3.64046 0
M  V30 1183 H 113.052 2.83021 3.04749 0
M  V30 1184 H 111.629 1.07506 3.57067 0
M  V30 1185 N 113.814 -1.1601 1.06675 0
M  V30 1186 C 115.061 -1.86633 0.785781 0
M  V30 1187 C 115.389 -1.81929 -0.687896 0
M  V30 1188 O 114.644 -1.23253 -1.52011 0
M  V30 1189 C 114.943 -3.35547 1.23057 0
M  V30 1190 C 114.609 -3.60448 2.70902 0
M  V30 1191 C 113.271 -3.66954 3.11285 0
M  V30 1192 C 115.623 -3.7071 3.66365 0
M  V30 1193 C 112.951 -3.81225 4.45965 0
M  V30 1194 C 115.303 -3.86503 5.00797 0
M  V30 1195 C 113.967 -3.91252 5.40813 0
M  V30 1196 H 113.237 -0.682937 0.287538 0
M  V30 1197 H 115.884 -1.37146 1.33654 0
M  V30 1198 H 114.189 -3.87193 0.59907 0
M  V30 1199 H 115.886 -3.88583 0.990163 0
M  V30 1200 H 112.476 -3.56021 2.38636 0
M  V30 1201 H 116.66 -3.64991 3.36296 0
M  V30 1202 H 111.916 -3.83155 4.76447 0
M  V30 1203 H 116.09 -3.93385 5.74649 0
M  V30 1204 H 113.717 -4.02062 6.45174 0
M  V30 1205 N 115.292 -0.849877 -1.32721 0
M  V30 1206 C 116.222 -0.306308 -2.31482 0
M  V30 1207 C 117.203 0.591952 -1.59468 0
M  V30 1208 O 118.388 0.513199 -1.87296 0
M  V30 1209 C 115.518 0.510204 -3.43532 0
M  V30 1210 C 114.472 -0.293209 -4.26994 0
M  V30 1211 C 113.798 0.647743 -5.30762 0
M  V30 1212 C 115.098 -1.51634 -4.99804 0
M  V30 1213 H 116.792 -1.13153 -2.77195 0
M  V30 1214 H 114.338 -0.545553 -1.33266 0
M  V30 1215 H 116.291 0.900856 -4.11658 0
M  V30 1216 H 115.015 1.36874 -2.96535 0
M  V30 1217 H 113.674 -0.665555 -3.60508 0
M  V30 1218 H 113.322 1.50299 -4.8002 0
M  V30 1219 H 113.022 0.11422 -5.87489 0
M  V30 1220 H 114.546 1.03567 -6.01753 0
M  V30 1221 H 115.96 -1.19824 -5.60638 0
M  V30 1222 H 114.357 -1.98745 -5.66234 0
M  V30 1223 H 115.427 -2.28018 -4.27943 0
M  V30 1224 N 116.77 1.45427 -0.607355 0
M  V30 1225 C 117.717 2.3053 0.111625 0
M  V30 1226 C 118.687 1.4209 0.860216 0
M  V30 1227 O 119.872 1.71019 0.845998 0
M  V30 1228 C 117.012 3.26992 1.10319 0
M  V30 1229 C 116.125 4.30535 0.355493 0
M  V30 1230 C 115.26 5.14105 1.33676 0
M  V30 1231 C 114.299 6.09376 0.576862 0
M  V30 1232 N 113.436 6.85727 1.5074 0
M  V30 1233 H 118.276 2.91477 -0.620093 0
M  V30 1234 H 115.813 1.43631 -0.317594 0
M  V30 1235 H 117.771 3.81385 1.6912 0
M  V30 1236 H 116.401 2.67799 1.80232 0
M  V30 1237 H 115.453 3.78805 -0.348023 0
M  V30 1238 H 116.765 4.98235 -0.237423 0
M  V30 1239 H 115.919 5.72897 1.99684 0
M  V30 1240 H 114.658 4.46423 1.9636 0
M  V30 1241 H 113.663 5.49715 -0.0968519 0
M  V30 1242 H 114.888 6.79085 -0.0449341 0
M  V30 1243 H 112.834 6.20735 2.12189 0
M  V30 1244 H 112.751 7.49778 0.967913 0
M  V30 1245 H 114.019 7.4906 2.15706 0
M  V30 1246 N 118.248 0.346503 1.53744 0
M  V30 1247 C 119.476 -0.25041 2.05379 0
M  V30 1248 C 119.891 -1.43979 1.22129 0
M  V30 1249 O 119.248 -1.80677 0.257321 0
M  V30 1250 C 119.299 -0.662575 3.55376 0
M  V30 1251 O 119.02 0.479515 4.35468 0
M  V30 1252 C 120.521 -1.31989 4.23195 0
M  V30 1253 H 117.741 -0.0478198 0.669294 0
M  V30 1254 H 120.285 0.499346 1.9831 0
M  V30 1255 H 118.44 -1.36227 3.62658 0
M  V30 1256 H 118.854 0.15037 5.24284 0
M  V30 1257 H 120.328 -1.55902 5.29527 0
M  V30 1258 H 120.805 -2.27436 3.75725 0
M  V30 1259 H 121.411 -0.662154 4.20114 0
M  V30 1260 N 119.726 -1.57421 0.075193 0
M  V30 1261 C 120.975 -1.92794 -0.592731 0
M  V30 1262 C 121.288 -0.957478 -1.70563 0
M  V30 1263 O 122.494 -1.20417 -2.43335 0
M  V30 1264 C 120.95 -3.42495 -1.10569 0
M  V30 1265 C 120.558 -4.47994 -0.0236121 0
M  V30 1266 C 122.302 -3.86864 -1.74748 0
M  V30 1267 C 120.209 -5.88829 -0.550803 0
M  V30 1268 H 119.139 -0.719591 -0.225177 0
M  V30 1269 H 121.79 -1.82902 0.147978 0
M  V30 1270 H 120.172 -3.47471 -1.89947 0
M  V30 1271 H 121.346 -4.54637 0.751099 0
M  V30 1272 H 119.661 -4.13113 0.522159 0
M  V30 1273 H 122.258 -4.8947 -2.15229 0
M  V30 1274 H 122.601 -3.24417 -2.60882 0
M  V30 1275 H 123.134 -3.84504 -1.01986 0
M  V30 1276 H 119.873 -6.54929 0.273457 0
M  V30 1277 H 119.393 -5.85698 -1.29296 0
M  V30 1278 H 121.072 -6.38811 -1.02613 0
M  V30 1279 N 121.204 0.198386 -1.56346 0
M  V30 1280 C 122.136 1.26987 -1.90806 0
M  V30 1281 C 123.149 1.41877 -0.798419 0
M  V30 1282 O 124.338 1.42362 -1.07682 0
M  V30 1283 C 121.438 2.64246 -2.12196 0
M  V30 1284 C 120.611 2.71007 -3.43328 0
M  V30 1285 C 119.67 3.89439 -3.5387 0
M  V30 1286 O 118.696 3.76695 -4.26719 0
M  V30 1287 N 119.898 5.04752 -2.86715 0
M  V30 1288 H 122.663 0.977433 -2.83313 0
M  V30 1289 H 120.224 0.388322 -1.57174 0
M  V30 1290 H 122.216 3.41896 -2.1654 0
M  V30 1291 H 120.786 2.85992 -1.26204 0
M  V30 1292 H 120.006 1.79657 -3.50881 0
M  V30 1293 H 121.294 2.72512 -4.29668 0
M  V30 1294 H 120.692 5.18004 -2.2735 0
M  V30 1295 H 119.249 5.8036 -2.96691 0
M  V30 1296 N 122.682 1.50554 0.465978 0
M  V30 1297 C 123.592 1.72585 1.58907 0
M  V30 1298 C 124.608 0.60911 1.6299 0
M  V30 1299 O 125.784 0.88804 1.80765 0
M  V30 1300 C 122.849 1.81995 2.95091 0
M  V30 1301 C 121.91 3.05751 3.01355 0
M  V30 1302 C 121.143 3.14702 4.31043 0
M  V30 1303 O 121.366 2.30313 5.21835 0
M  V30 1304 O 120.3 4.07468 4.43005 0
M  V30 1305 H 124.126 2.67799 1.43239 0
M  V30 1306 H 121.711 1.34711 0.646013 0
M  V30 1307 H 123.593 1.90335 3.75966 0
M  V30 1308 H 122.268 0.899659 3.10947 0
M  V30 1309 H 121.175 3.02908 2.19539 0
M  V30 1310 H 122.508 3.97375 2.90437 0
M  V30 1311 N 124.16 -0.719506 1.40217 0
M  V30 1312 C 125.406 -1.48152 1.38488 0
M  V30 1313 C 125.739 -1.94195 -0.0141867 0
M  V30 1314 O 125.014 -1.67884 -0.982096 0
M  V30 1315 C 125.297 -2.71035 2.37091 0
M  V30 1316 C 125.15 -2.30912 3.86005 0
M  V30 1317 C 126.469 -3.73182 2.33288 0
M  V30 1318 H 123.588 -0.537395 0.504357 0
M  V30 1319 H 126.23 -0.821472 1.71324 0
M  V30 1320 H 124.38 -3.27352 2.0922 0
M  V30 1321 H 126.052 -1.80107 4.24687 0
M  V30 1322 H 124.295 -1.62958 4.02029 0
M  V30 1323 H 124.966 -3.18978 4.50508 0
M  V30 1324 H 127.442 -3.26485 2.57966 0
M  V30 1325 H 126.318 -4.56806 3.04334 0
M  V30 1326 H 126.579 -4.21202 1.34317 0
M  V30 1327 N 125.638 -1.25649 -0.95132 0
M  V30 1328 C 126.601 -1.06399 -2.03007 0
M  V30 1329 C 127.601 -0.0156794 -1.60792 0
M  V30 1330 O 128.791 -0.25817 -1.72276 0
M  V30 1331 C 125.923 -0.616184 -3.35285 0
M  V30 1332 H 127.116 -2.02164 -2.21517 0
M  V30 1333 H 124.669 -1.08103 -1.12887 0
M  V30 1334 H 125.404 0.343917 -3.22471 0
M  V30 1335 H 125.189 -1.37301 -3.67275 0
M  V30 1336 H 126.679 -0.503032 -4.14559 0
M  V30 1337 N 127.117 1.15442 -1.07289 0
M  V30 1338 C 128.365 1.85845 -0.794096 0
M  V30 1339 C 128.686 1.82692 0.681809 0
M  V30 1340 O 127.956 1.26741 1.49377 0
M  V30 1341 H 126.536 0.688089 -0.290763 0
M  V30 1342 H 129.198 1.39947 -1.3565 0
M  V30 1343 H 128.294 2.91001 -1.12804 0
M  V30 1344 N 128.595 0.856903 1.32268 0
M  V30 1345 C 129.825 0.47475 2.01071 0
M  V30 1346 C 130.233 -0.933746 1.64553 0
M  V30 1347 O 129.576 -1.62114 0.863989 0
M  V30 1348 C 129.638 0.536746 3.55471 0
M  V30 1349 C 129.302 1.90453 4.15423 0
M  V30 1350 C 130.299 2.87029 4.33486 0
M  V30 1351 C 127.984 2.20229 4.51447 0
M  V30 1352 C 129.978 4.11532 4.86744 0
M  V30 1353 C 127.665 3.44984 5.0441 0
M  V30 1354 C 128.663 4.40452 5.22007 0
M  V30 1355 O 128.351 5.62998 5.73837 0
M  V30 1356 H 128.083 0.184778 0.650256 0
M  V30 1357 H 130.637 1.15615 1.69771 0
M  V30 1358 H 128.867 -0.20152 3.86175 0
M  V30 1359 H 130.556 0.169875 4.05544 0
M  V30 1360 H 131.322 2.6533 4.05986 0
M  V30 1361 H 127.201 1.46705 4.37034 0
M  V30 1362 H 130.745 4.86056 5.00395 0
M  V30 1363 H 126.642 3.66532 5.31342 0
M  V30 1364 H 127.41 5.64987 5.92226 0
M  V30 1365 N 130.073 -1.45103 0.615059 0
M  V30 1366 C 131.319 -2.02483 0.113347 0
M  V30 1367 C 131.652 -1.48146 -1.25564 0
M  V30 1368 O 130.927 -0.659104 -1.82992 0
M  V30 1369 C 131.21 -3.60005 0.0825278 0
M  V30 1370 C 131.063 -4.2466 1.48271 0
M  V30 1371 C 132.382 -4.35972 -0.601401 0
M  V30 1372 H 129.501 -0.735764 0.0426632 0
M  V30 1373 H 132.143 -1.72868 0.788461 0
M  V30 1374 H 130.293 -3.85367 -0.492378 0
M  V30 1375 H 131.965 -4.10458 2.10527 0
M  V30 1376 H 130.208 -3.82772 2.04127 0
M  V30 1377 H 130.879 -5.336 1.41332 0
M  V30 1378 H 133.355 -4.15947 -0.112666 0
M  V30 1379 H 132.231 -5.45697 -0.592097 0
M  V30 1380 H 132.492 -4.09391 -1.66887 0
M  V30 1381 N 131.551 -0.354651 -1.53558 0
M  V30 1382 C 132.481 0.489091 -2.2832 0
M  V30 1383 C 133.462 1.09324 -1.30316 0
M  V30 1384 O 134.647 1.11255 -1.59173 0
M  V30 1385 C 131.777 1.63456 -3.0643 0
M  V30 1386 C 130.731 1.1582 -4.12031 0
M  V30 1387 C 130.057 2.39305 -4.7816 0
M  V30 1388 C 131.357 0.250731 -5.21698 0
M  V30 1389 H 133.051 -0.134614 -2.99097 0
M  V30 1390 H 130.597 -0.0661826 -1.43848 0
M  V30 1391 H 132.55 2.23136 -3.57475 0
M  V30 1392 H 131.274 2.28533 -2.33325 0
M  V30 1393 H 129.933 0.584146 -3.61916 0
M  V30 1394 H 129.581 3.02814 -4.01637 0
M  V30 1395 H 129.281 2.08109 -5.49513 0
M  V30 1396 H 130.805 2.99691 -5.31994 0
M  V30 1397 H 132.219 0.754695 -5.68311 0
M  V30 1398 H 130.616 0.0301468 -6.00092 0
M  V30 1399 H 131.686 -0.710125 -4.79672 0
M  V30 1400 N 133.029 1.57378 -0.0835403 0
M  V30 1401 C 134.278 1.93106 0.582498 0
M  V30 1402 C 134.591 0.96651 1.70053 0
M  V30 1403 O 135.797 1.21705 2.42693 0
M  V30 1404 C 134.253 3.43076 1.08751 0
M  V30 1405 C 133.861 4.48 -0.000146404 0
M  V30 1406 C 135.605 3.87785 1.72694 0
M  V30 1407 C 133.512 5.89113 0.519568 0
M  V30 1408 H 132.442 0.720775 0.221358 0
M  V30 1409 H 135.093 1.82821 -0.157675 0
M  V30 1410 H 133.475 3.48474 1.88101 0
M  V30 1411 H 134.649 4.54233 -0.775199 0
M  V30 1412 H 132.964 4.1283 -0.54406 0
M  V30 1413 H 135.561 4.90604 2.1263 0
M  V30 1414 H 135.904 3.25796 2.59158 0
M  V30 1415 H 136.437 3.8504 0.999457 0
M  V30 1416 H 133.176 6.54775 -0.308186 0
M  V30 1417 H 132.696 5.86376 1.26188 0
M  V30 1418 H 134.375 6.39346 0.992237 0
M  V30 1419 N 134.507 -0.190092 1.56449 0
M  V30 1420 C 135.47 -1.21925 1.9408 0
M  V30 1421 C 136.47 -1.38176 0.822431 0
M  V30 1422 O 137.66 -1.35903 1.08977 0
M  V30 1423 C 134.792 -2.58773 2.21922 0
M  V30 1424 H 135.985 -0.897464 2.86157 0
M  V30 1425 H 133.538 -0.43181 1.50217 0
M  V30 1426 H 134.273 -2.95998 1.32499 0
M  V30 1427 H 134.058 -2.48348 3.03424 0
M  V30 1428 H 135.548 -3.32978 2.52022 0
M  V30 1429 N 135.985 -1.50799 -0.457987 0
M  V30 1430 C 136.915 -1.73553 -1.5621 0
M  V30 1431 C 137.896 -0.584774 -1.59732 0
M  V30 1432 O 139.081 -0.825314 -1.7579 0
M  V30 1433 C 136.211 -1.84169 -2.94447 0
M  V30 1434 C 135.165 -2.99461 -3.0579 0
M  V30 1435 C 134.491 -2.95235 -4.45803 0
M  V30 1436 C 135.791 -4.39766 -2.81786 0
M  V30 1437 H 137.485 -2.66 -1.37421 0
M  V30 1438 H 135.031 -1.28002 -0.659662 0
M  V30 1439 H 136.984 -1.98672 -3.71628 0
M  V30 1440 H 135.708 -0.883545 -3.14422 0
M  V30 1441 H 134.367 -2.8463 -2.31044 0
M  V30 1442 H 134.015 -1.97239 -4.62715 0
M  V30 1443 H 133.715 -3.72642 -4.54326 0
M  V30 1444 H 135.239 -3.11803 -5.24987 0
M  V30 1445 H 136.653 -4.55054 -3.4871 0
M  V30 1446 H 135.05 -5.18722 -3.0174 0
M  V30 1447 H 136.12 -4.51229 -1.7754 0
M  V30 1448 N 137.463 0.71206 -1.40597 0
M  V30 1449 C 138.411 1.84746 -1.41321 0
M  V30 1450 C 139.405 1.66842 -0.293268 0
M  V30 1451 O 140.611 1.73904 -0.464481 0
M  V30 1452 H 136.986 0.608522 -0.441819 0
M  V30 1453 H 138.957 1.81252 -2.37045 0
M  V30 1454 C 137.706 3.22638 -1.29614 0
M  V30 1455 H 137.029 3.37023 -2.15071 0
M  V30 1456 H 138.469 4.02209 -1.3418 0
M  V30 1457 C 136.928 3.36899 -0.00673121 0
M  V30 1458 O 137.458 3.90186 0.954859 0
M  V30 1459 N 135.664 2.9053 0.0639327 0
M  V30 1460 H 135.211 2.47353 -0.719311 0
M  V30 1461 H 135.169 3.0045 0.926118 0
M  V30 1462 N 138.941 1.26152 0.944643 0
M  V30 1463 C 140.169 1.14259 1.72489 0
M  V30 1464 C 140.584 -0.302555 1.8636 0
M  V30 1465 O 139.941 -1.20741 1.36849 0
M  V30 1466 C 139.992 1.80266 3.13347 0
M  V30 1467 O 139.713 3.19133 3.00143 0
M  V30 1468 C 141.214 1.74283 4.07603 0
M  V30 1469 H 138.434 0.398051 0.540181 0
M  V30 1470 H 140.978 1.66706 1.18446 0
M  V30 1471 H 139.133 1.31766 3.64303 0
M  V30 1472 H 139.547 3.51744 3.89071 0
M  V30 1473 H 141.021 2.25111 5.04013 0
M  V30 1474 H 141.498 0.708631 4.33446 0
M  V30 1475 H 142.104 2.22319 3.62567 0
M  V30 1476 N 140.419 -1.14872 1.07899 0
M  V30 1477 C 141.665 -1.86064 0.806725 0
M  V30 1478 C 141.998 -1.82434 -0.665706 0
M  V30 1479 O 141.273 -1.25138 -1.48899 0
M  V30 1480 C 141.556 -3.34929 1.32267 0
M  V30 1481 C 141.409 -3.47161 2.86006 0
M  V30 1482 C 142.728 -4.29863 0.943717 0
M  V30 1483 H 139.847 -0.675591 0.294526 0
M  V30 1484 H 142.489 -1.34925 1.33773 0
M  V30 1485 H 140.639 -3.78611 0.870974 0
M  V30 1486 H 142.311 -3.12302 3.39507 0
M  V30 1487 H 140.554 -2.88539 3.23925 0
M  V30 1488 H 141.225 -4.51777 3.17177 0
M  V30 1489 H 143.701 -3.9417 1.33302 0
M  V30 1490 H 142.577 -5.32494 1.33198 0
M  V30 1491 H 142.838 -4.41846 -0.149796 0
M  V30 1492 N 141.898 -0.863906 -1.31812 0
M  V30 1493 C 142.808 -0.318461 -2.32428 0
M  V30 1494 C 143.824 0.568496 -1.64451 0
M  V30 1495 O 145 0.46666 -1.95919 0
M  V30 1496 C 142.065 0.476355 -3.43412 0
M  V30 1497 C 141.126 -0.43784 -4.27061 0
M  V30 1498 C 140.359 0.319138 -5.32745 0
M  V30 1499 O 140.582 1.54799 -5.48993 0
M  V30 1500 O 139.516 -0.319861 -6.01049 0
M  V30 1501 H 143.342 -1.15229 -2.80991 0
M  V30 1502 H 140.927 -0.627103 -1.35602 0
M  V30 1503 H 142.809 0.927156 -4.11074 0
M  V30 1504 H 141.484 1.28683 -2.97022 0
M  V30 1505 H 140.391 -0.937013 -3.62175 0
M  V30 1506 H 141.724 -1.21375 -4.77 0
M  V30 1507 N 143.376 1.44774 -0.622745 0
M  V30 1508 C 144.792 1.56986 -0.287652 0
M  V30 1509 C 144.992 1.61167 1.20944 0
M  V30 1510 O 144.048 1.55015 1.99315 0
M  V30 1511 C 145.361 2.84551 -0.972188 0
M  V30 1512 C 146.909 2.9825 -0.949536 0
M  V30 1513 C 147.384 4.28605 -1.61437 0
M  V30 1514 N 148.875 4.35399 -1.58057 0
M  V30 1515 C 149.61 5.34964 -2.064 0
M  V30 1516 N 149.106 6.40981 -2.62897 0
M  V30 1517 N 150.899 5.26419 -1.97078 0
M  V30 1518 H 143.05 1.40304 -1.59463 0
M  V30 1519 H 145.313 0.671794 -0.668878 0
M  V30 1520 H 145.019 2.87417 -2.02693 0
M  V30 1521 H 144.893 3.73807 -0.504771 0
M  V30 1522 H 147.28 2.94941 0.0967067 0
M  V30 1523 H 147.361 2.10364 -1.45536 0
M  V30 1524 H 147.005 4.32672 -2.66002 0
M  V30 1525 H 146.935 5.15334 -1.08344 0
M  V30 1526 H 149.426 3.59397 -1.16801 0
M  V30 1527 H 149.739 7.13225 -2.97539 0
M  V30 1528 H 148.084 6.4169 -2.66943 0
M  V30 1529 H 151.275 4.42504 -1.52669 0
M  V30 1530 H 151.448 6.03861 -2.35066 0
M  V30 1531 N 144.854 0.36279 1.53368 0
M  V30 1532 C 146.103 -0.22888 2.00397 0
M  V30 1533 C 146.416 -1.50096 1.25421 0
M  V30 1534 O 147.622 -2.17106 1.63025 0
M  V30 1535 C 146.078 -0.458417 3.56969 0
M  V30 1536 C 145.686 0.798877 4.4082 0
M  V30 1537 C 147.43 -1.00789 4.12361 0
M  V30 1538 C 145.337 0.539078 5.88938 0
M  V30 1539 H 144.267 -0.089305 0.748693 0
M  V30 1540 H 146.918 0.481099 1.77081 0
M  V30 1541 H 145.3 -1.22959 3.76427 0
M  V30 1542 H 146.474 1.57262 4.33134 0
M  V30 1543 H 144.789 1.27137 3.96516 0
M  V30 1544 H 147.386 -1.21754 5.20653 0
M  V30 1545 H 147.729 -1.9692 3.66781 0
M  V30 1546 H 148.262 -0.296961 3.9669 0
M  V30 1547 H 145.001 1.47064 6.3879 0
M  V30 1548 H 144.521 -0.196222 5.99479 0
M  V30 1549 H 146.2 0.163542 6.46793 0
M  V30 1550 N 146.332 -1.57332 0.0918853 0
M  V30 1551 C 147.743 -1.81496 -0.437739 0
M  V30 1552 C 148.094 -1.00727 -1.6837 0
M  V30 1553 O 147.219 -0.235694 -2.15113 0
M  V30 1554 C 147.814 -3.29197 -0.800939 0
M  V30 1555 C 146.373 -3.54136 -1.27532 0
M  V30 1556 C 145.52 -2.75979 -0.270392 0
M  V30 1557 H 148.471 -1.55494 0.317366 0
M  V30 1558 H 148.492 -3.42344 -1.66074 0
M  V30 1559 H 148.004 -3.87955 0.106078 0
M  V30 1560 H 146.105 -3.00705 -2.20016 0
M  V30 1561 H 146.218 -4.62792 -1.23938 0
M  V30 1562 H 144.582 -2.43349 -0.751872 0
M  V30 1563 H 145.365 -3.37484 0.629248 0
M  V30 1564 N 147.81 0.181792 -1.56548 0
M  V30 1565 C 148.74 1.22765 -1.98623 0
M  V30 1566 C 149.721 1.46747 -0.860189 0
M  V30 1567 O 150.906 1.58259 -1.12551 0
M  V30 1568 C 148.036 2.56894 -2.33715 0
M  V30 1569 C 146.99 2.475 -3.49182 0
M  V30 1570 C 146.316 3.86023 -3.69986 0
M  V30 1571 C 147.616 1.98866 -4.82959 0
M  V30 1572 H 149.31 0.877942 -2.86239 0
M  V30 1573 H 146.856 0.42088 -1.37712 0
M  V30 1574 H 148.809 3.30253 -2.61746 0
M  V30 1575 H 147.533 2.93632 -1.42997 0
M  V30 1576 H 146.192 1.76596 -3.21262 0
M  V30 1577 H 145.84 4.20136 -2.76576 0
M  V30 1578 H 145.54 3.80609 -4.47672 0
M  V30 1579 H 147.064 4.60984 -4.00407 0
M  V30 1580 H 148.478 2.61992 -5.09934 0
M  V30 1581 H 146.875 2.04424 -5.64208 0
M  V30 1582 H 147.945 0.942465 -4.75653 0
M  V30 1583 N 149.288 1.51039 0.449983 0
M  V30 1584 C 150.198 1.74261 1.57067 0
M  V30 1585 C 151.214 0.626363 1.62335 0
M  V30 1586 O 152.39 0.907162 1.79812 0
M  V30 1587 C 149.455 1.85114 2.93144 0
M  V30 1588 C 148.516 3.0893 2.98095 0
M  V30 1589 C 147.749 3.19256 4.27681 0
M  V30 1590 O 147.972 2.35835 5.19363 0
M  V30 1591 O 146.906 4.12144 4.38658 0
M  V30 1592 H 150.732 2.69303 1.40391 0
M  V30 1593 H 148.317 1.35389 0.631688 0
M  V30 1594 H 150.199 1.94311 3.73926 0
M  V30 1595 H 148.874 0.932588 3.09975 0
M  V30 1596 H 147.781 3.0522 2.16314 0
M  V30 1597 H 149.114 4.00433 2.86206 0
M  V30 1598 N 150.766 -0.704594 1.40972 0
M  V30 1599 C 151.714 -1.83994 1.42299 0
M  V30 1600 C 152.708 -1.66684 0.302111 0
M  V30 1601 O 153.914 -1.73655 0.473697 0
M  V30 1602 H 150.289 -0.606171 0.44504 0
M  V30 1603 H 152.26 -1.79992 2.38003 0
M  V30 1604 C 151.009 -3.21946 1.31323 0
M  V30 1605 H 150.332 -3.35878 2.16855 0
M  V30 1606 H 151.772 -4.01491 1.36311 0
M  V30 1607 C 150.231 -3.36891 0.0245977 0
M  V30 1608 O 150.761 -3.90687 -0.934153 0
M  V30 1609 N 148.967 -2.90559 -0.0485243 0
M  V30 1610 H 148.514 -2.46968 0.732419 0
M  V30 1611 H 148.472 -3.00937 -0.910171 0
M  V30 1612 N 152.244 -1.26651 -0.937939 0
M  V30 1613 C 153.174 -1.10993 -2.05433 0
M  V30 1614 C 154.155 -0.0142161 -1.70094 0
M  V30 1615 O 155.34 -0.186837 -1.93299 0
M  V30 1616 C 152.47 -0.745561 -3.39203 0
M  V30 1617 C 151.424 -1.79337 -3.88616 0
M  V30 1618 C 150.75 -1.28324 -5.19073 0
M  V30 1619 C 152.05 -3.19553 -4.13138 0
M  V30 1620 H 153.744 -2.0438 -2.1879 0
M  V30 1621 H 151.29 -0.984041 -1.05131 0
M  V30 1622 H 153.243 -0.622888 -4.16771 0
M  V30 1623 H 151.967 0.22401 -3.25831 0
M  V30 1624 H 150.626 -1.90477 -3.13231 0
M  V30 1625 H 150.274 -0.303414 -5.02084 0
M  V30 1626 H 149.974 -1.98369 -5.53103 0
M  V30 1627 H 151.498 -1.1733 -5.99221 0
M  V30 1628 H 152.912 -3.11471 -4.81309 0
M  V30 1629 H 151.309 -3.87218 -4.58457 0
M  V30 1630 H 152.379 -3.65368 -3.18801 0
M  V30 1631 N 153.722 1.14298 -1.08507 0
M  V30 1632 C 154.654 2.1907 -0.673859 0
M  V30 1633 C 155.667 1.60381 0.279577 0
M  V30 1634 O 156.856 1.78374 0.0670754 0
M  V30 1635 C 153.956 3.38888 0.0290979 0
M  V30 1636 C 153.129 4.27103 -0.943494 0
M  V30 1637 C 152.188 5.25477 -0.275676 0
M  V30 1638 O 151.214 5.61709 -0.920401 0
M  V30 1639 N 152.416 5.7227 0.974013 0
M  V30 1640 H 155.181 2.54965 -1.57521 0
M  V30 1641 H 152.742 1.29528 -0.971287 0
M  V30 1642 H 154.734 4.01761 0.48683 0
M  V30 1643 H 153.304 3.01309 0.832555 0
M  V30 1644 H 152.524 3.61149 -1.58004 0
M  V30 1645 H 153.812 4.82905 -1.60251 0
M  V30 1646 H 153.21 5.44965 1.51755 0
M  V30 1647 H 151.767 6.37127 1.37522 0
M  V30 1648 N 155.201 0.870884 1.31352 0
M  V30 1649 C 156.45 0.478408 1.95944 0
M  V30 1650 C 156.763 -0.974493 1.69597 0
M  V30 1651 O 157.969 -1.47316 2.28058 0
M  V30 1652 C 156.425 0.804609 3.50791 0
M  V30 1653 C 156.033 2.27433 3.85977 0
M  V30 1654 C 157.777 0.480648 4.2177 0
M  V30 1655 C 155.684 2.5429 5.33939 0
M  V30 1656 H 154.614 0.175175 0.733369 0
M  V30 1657 H 157.265 1.06391 1.4951 0
M  V30 1658 H 155.647 0.148347 3.95722 0
M  V30 1659 H 156.821 2.97373 3.52002 0
M  V30 1660 H 155.136 2.56442 3.28065 0
M  V30 1661 H 157.733 0.658519 5.30629 0
M  V30 1662 H 158.076 -0.578979 4.12254 0
M  V30 1663 H 158.609 1.09349 3.82476 0
M  V30 1664 H 155.348 3.58939 5.48491 0
M  V30 1665 H 154.868 1.88945 5.69263 0
M  V30 1666 H 156.547 2.39066 6.01212 0
M  V30 1667 N 156.679 -1.44442 0.630414 0
M  V30 1668 C 157.928 -2.01267 0.132073 0
M  V30 1669 C 158.241 -1.50172 -1.25331 0
M  V30 1670 O 159.447 -1.9912 -1.84562 0
M  V30 1671 C 157.903 -3.59422 0.185362 0
M  V30 1672 C 157.511 -4.19514 1.57201 0
M  V30 1673 C 159.255 -4.23724 -0.256553 0
M  V30 1674 C 157.162 -5.69891 1.58045 0
M  V30 1675 H 156.092 -0.752619 0.0456092 0
M  V30 1676 H 158.743 -1.65666 0.789106 0
M  V30 1677 H 157.125 -3.92318 -0.538759 0
M  V30 1678 H 158.299 -3.98156 2.31966 0
M  V30 1679 H 156.614 -3.67496 1.95795 0
M  V30 1680 H 159.211 -5.34019 -0.269767 0
M  V30 1681 H 159.554 -3.96013 -1.28372 0
M  V30 1682 H 160.087 -3.95629 0.41505 0
M  V30 1683 H 156.826 -6.02336 2.58597 0
M  V30 1684 H 156.346 -5.93373 0.875725 0
M  V30 1685 H 158.025 -6.33515 1.31408 0
M  V30 1686 N 158.157 -0.370918 -1.53173 0
M  V30 1687 C 159.573 -0.0200818 -1.59587 0
M  V30 1688 C 159.773 1.46279 -1.38581 0
M  V30 1689 O 158.829 2.22506 -1.19363 0
M  V30 1690 C 160.142 -0.4808 -2.96831 0
M  V30 1691 C 161.69 -0.435477 -3.09956 0
M  V30 1692 C 162.165 -0.872092 -4.4962 0
M  V30 1693 N 163.656 -0.827364 -4.55751 0
M  V30 1694 C 164.391 -1.13683 -5.62018 0
M  V30 1695 N 163.887 -1.51584 -6.76014 0
M  V30 1696 N 165.68 -1.05927 -5.52029 0
M  V30 1697 H 157.831 -1.33652 -1.65079 0
M  V30 1698 H 160.094 -0.546634 -0.774529 0
M  V30 1699 H 159.8 -1.51577 -3.1736 0
M  V30 1700 H 159.674 0.129796 -3.76977 0
M  V30 1701 H 162.061 0.590371 -2.89134 0
M  V30 1702 H 162.142 -1.08164 -2.31806 0
M  V30 1703 H 161.786 -1.89608 -4.71181 0
M  V30 1704 H 161.716 -0.203127 -5.26208 0
M  V30 1705 H 164.207 -0.548216 -3.73902 0
M  V30 1706 H 164.52 -1.73609 -7.53047 0
M  V30 1707 H 162.865 -1.55454 -6.77391 0
M  V30 1708 H 166.056 -0.762321 -4.61851 0
M  V30 1709 H 166.229 -1.30378 -6.34749 0
M  V30 1710 N 159.635 1.57281 -0.100228 0
M  V30 1711 C 160.883 1.94153 0.561157 0
M  V30 1712 C 161.204 0.983157 1.68401 0
M  V30 1713 O 160.474 0.0361132 1.95867 0
M  V30 1714 H 159.054 0.716791 0.210283 0
M  V30 1715 H 161.716 1.94202 -0.164765 0
M  V30 1716 H 160.812 2.96709 0.968008 0
M  V30 1717 N 161.113 -0.173488 1.56642 0
M  V30 1718 C 162.061 -1.23417 1.97157 0
M  V30 1719 C 163.055 -1.45946 0.860013 0
M  V30 1720 O 164.261 -1.46551 1.04512 0
M  V30 1721 H 160.636 -0.414818 0.62724 0
M  V30 1722 H 162.607 -0.865582 2.8557 0
M  V30 1723 C 161.356 -2.5665 2.34576 0
M  V30 1724 H 160.679 -2.40137 3.19647 0
M  V30 1725 H 162.119 -3.2956 2.6677 0
M  V30 1726 C 160.578 -3.15245 1.18836 0
M  V30 1727 O 161.108 -3.98883 0.474869 0
M  V30 1728 N 159.314 -2.74303 0.959497 0
M  V30 1729 H 158.861 -2.0639 1.54146 0
M  V30 1730 H 158.819 -3.13844 0.186932 0
M  V30 1731 N 162.591 -1.51276 -0.441967 0
M  V30 1732 C 163.524 -1.66933 -1.55591 0
M  V30 1733 C 164.502 -0.516958 -1.54163 0
M  V30 1734 O 165.686 -0.740209 -1.73358 0
M  V30 1735 C 162.813 -1.67866 -2.94174 0
M  V30 1736 C 161.859 -2.89013 -3.13646 0
M  V30 1737 S 162.692 -4.49897 -2.90436 0
M  V30 1738 C 163.848 -4.53568 -4.31308 0
M  V30 1739 H 164.081 -2.61155 -1.42076 0
M  V30 1740 H 161.614 -1.40902 -0.631341 0
M  V30 1741 H 163.572 -1.69089 -3.74058 0
M  V30 1742 H 162.233 -0.748296 -3.05056 0
M  V30 1743 H 161.426 -2.86054 -4.14957 0
M  V30 1744 H 161.028 -2.85509 -2.4158 0
M  V30 1745 H 163.32 -4.28924 -5.24434 0
M  V30 1746 H 164.263 -5.55355 -4.39303 0
M  V30 1747 H 164.671 -3.82943 -4.14747 0
M  V30 1748 N 164.069 0.697108 -1.41344 0
M  V30 1749 C 165.299 1.48377 -1.43763 0
M  V30 1750 C 165.707 1.89156 -0.0408726 0
M  V30 1751 O 165.05 1.57239 0.949812 0
M  V30 1752 C 165.112 2.7781 -2.2817 0
M  V30 1753 C 164.776 2.59244 -3.76353 0
M  V30 1754 C 165.773 2.25292 -4.68551 0
M  V30 1755 C 163.458 2.74933 -4.20378 0
M  V30 1756 C 165.452 2.07264 -6.02761 0
M  V30 1757 C 163.139 2.56521 -5.54653 0
M  V30 1758 C 164.137 2.22737 -6.4566 0
M  V30 1759 O 163.825 2.04485 -7.77458 0
M  V30 1760 H 163.557 0.463842 -0.491759 0
M  V30 1761 H 166.111 0.865934 -1.86255 0
M  V30 1762 H 164.341 3.41995 -1.8049 0
M  V30 1763 H 166.03 3.39608 -2.22309 0
M  V30 1764 H 166.796 2.12787 -4.35829 0
M  V30 1765 H 162.675 3.00213 -3.49848 0
M  V30 1766 H 166.219 1.80817 -6.73759 0
M  V30 1767 H 162.116 2.68616 -5.86955 0
M  V30 1768 H 162.884 2.1926 -7.88586 0
M  V30 1769 N 165.547 1.27147 0.931209 0
M  V30 1770 C 166.777 1.15914 1.71019 0
M  V30 1771 C 167.185 -0.287112 1.87009 0
M  V30 1772 O 166.528 -1.20761 1.38429 0
M  V30 1773 C 166.59 1.76647 3.13107 0
M  V30 1774 C 166.254 3.25807 3.20467 0
M  V30 1775 C 167.251 4.22489 3.02983 0
M  V30 1776 C 164.936 3.66452 3.43538 0
M  V30 1777 C 166.93 5.57794 3.08454 0
M  V30 1778 C 164.617 5.01888 3.48643 0
M  V30 1779 C 165.615 5.97369 3.31119 0
M  V30 1780 O 165.303 7.30337 3.35952 0
M  V30 1781 H 165.035 0.404062 0.54195 0
M  V30 1782 H 167.589 1.68457 1.17521 0
M  V30 1783 H 165.819 1.18578 3.68071 0
M  V30 1784 H 167.508 1.60179 3.72958 0
M  V30 1785 H 168.274 3.92425 2.85004 0
M  V30 1786 H 164.153 2.92611 3.5623 0
M  V30 1787 H 167.697 6.32298 2.94694 0
M  V30 1788 H 163.594 5.31609 3.66145 0
M  V30 1789 H 164.362 7.38739 3.5243 0
M  V30 1790 N 167.025 -1.13721 1.09112 0
M  V30 1791 C 167.935 -2.22638 0.73957 0
M  V30 1792 C 168.951 -1.72091 -0.257068 0
M  V30 1793 O 170.127 -2.01155 -0.0992154 0
M  V30 1794 C 167.192 -3.46322 0.16191 0
M  V30 1795 C 166.253 -4.11775 1.21408 0
M  V30 1796 C 165.486 -5.29555 0.663891 0
M  V30 1797 O 165.709 -5.68077 -0.514274 0
M  V30 1798 O 164.643 -5.84973 1.41738 0
M  V30 1799 H 168.469 -2.55074 1.64836 0
M  V30 1800 H 166.054 -1.21791 0.865289 0
M  V30 1801 H 167.936 -4.21107 -0.157073 0
M  V30 1802 H 166.611 -3.15593 -0.719932 0
M  V30 1803 H 165.518 -3.3883 1.58571 0
M  V30 1804 H 166.851 -4.46627 2.06845 0
M  V30 1805 N 168.503 -0.877838 -1.30888 0
M  V30 1806 C 169.451 -0.328662 -2.30266 0
M  V30 1807 C 170.445 0.560496 -1.59859 0
M  V30 1808 O 171.651 0.445722 -1.74394 0
M  V30 1809 H 168.026 -0.0876142 -0.746879 0
M  V30 1810 H 169.997 -1.18061 -2.74051 0
M  V30 1811 C 168.746 0.448071 -3.44801 0
M  V30 1812 H 168.069 -0.226859 -3.99156 0
M  V30 1813 H 169.509 0.797541 -4.16432 0
M  V30 1814 C 167.968 1.64239 -2.94155 0
M  V30 1815 O 168.498 2.74175 -2.93583 0
M  V30 1816 N 166.704 1.47716 -2.50256 0
M  V30 1817 H 166.251 0.582821 -2.5092 0
M  V30 1818 H 166.209 2.27765 -2.16727 0
M  V30 1819 N 169.982 1.44106 -0.638065 0
M  V30 1820 C 171.207 2.0685 -0.150916 0
M  V30 1821 C 171.632 1.47417 1.16833 0
M  V30 1822 O 170.99 0.578264 1.71831 0
M  V30 1823 C 171.038 3.60555 -0.05708 0
M  V30 1824 O 170.142 4.00465 0.984972 0
M  V30 1825 H 169.483 0.658151 -0.0879399 0
M  V30 1826 H 172.013 1.84865 -0.876707 0
M  V30 1827 H 172.023 4.07789 0.131232 0
M  V30 1828 H 170.698 4.03193 -1.02021 0
M  V30 1829 H 169.275 3.64849 0.770672 0
M  V30 1830 N 171.46 0.379036 1.52974 0
M  V30 1831 C 172.69 -0.20649 2.05566 0
M  V30 1832 C 173.098 -1.41906 1.25137 0
M  V30 1833 O 172.441 -1.81421 0.288464 0
M  V30 1834 C 172.503 -0.651086 3.53555 0
M  V30 1835 C 172.167 0.446626 4.54812 0
M  V30 1836 C 173.164 1.30079 5.03364 0
M  V30 1837 C 170.849 0.610719 4.98573 0
M  V30 1838 C 172.843 2.30426 5.94292 0
M  V30 1839 C 170.53 1.61754 5.89304 0
M  V30 1840 C 171.528 2.46274 6.37054 0
M  V30 1841 O 171.216 3.45237 7.25994 0
M  V30 1842 H 170.948 -0.0372381 0.674974 0
M  V30 1843 H 173.502 0.539718 1.98182 0
M  V30 1844 H 171.732 -1.44911 3.58522 0
M  V30 1845 H 173.421 -1.16112 3.88938 0
M  V30 1846 H 174.187 1.18527 4.70294 0
M  V30 1847 H 170.066 -0.0374044 4.60985 0
M  V30 1848 H 173.61 2.96432 6.31485 0
M  V30 1849 H 169.507 1.73348 6.21788 0
M  V30 1850 H 170.275 3.41124 7.44027 0
M  V30 1851 N 172.938 -1.57226 0.108567 0
M  V30 1852 C 173.901 -2.13602 -0.831082 0
M  V30 1853 C 174.901 -1.06841 -1.20173 0
M  V30 1854 O 176.091 -1.32666 -1.12895 0
M  V30 1855 C 173.223 -2.66769 -2.12243 0
M  V30 1856 H 174.416 -2.97951 -0.341317 0
M  V30 1857 H 171.969 -1.55667 -0.14057 0
M  V30 1858 H 172.704 -1.85977 -2.65675 0
M  V30 1859 H 172.489 -3.44839 -1.86625 0
M  V30 1860 H 173.979 -3.10332 -2.79435 0
M  V30 1861 N 174.416 0.165178 -1.56732 0
M  V30 1862 C 175.346 1.20651 -1.99914 0
M  V30 1863 C 176.327 1.45827 -0.875705 0
M  V30 1864 O 177.512 1.57057 -1.14223 0
M  V30 1865 C 174.642 2.54401 -2.36427 0
M  V30 1866 C 173.596 2.43782 -3.51787 0
M  V30 1867 C 172.922 3.82078 -3.7406 0
M  V30 1868 C 174.222 1.93732 -4.85041 0
M  V30 1869 H 175.916 0.847534 -2.87154 0
M  V30 1870 H 173.462 0.40625 -1.38151 0
M  V30 1871 H 175.415 3.27458 -2.65234 0
M  V30 1872 H 174.139 2.92098 -1.46103 0
M  V30 1873 H 172.798 1.73178 -3.23117 0
M  V30 1874 H 172.446 4.17179 -2.81017 0
M  V30 1875 H 172.146 3.7584 -4.51684 0
M  V30 1876 H 173.67 4.56712 -4.05274 0
M  V30 1877 H 175.084 2.56569 -5.12684 0
M  V30 1878 H 173.481 1.98428 -5.66345 0
M  V30 1879 H 174.551 0.891962 -4.76626 0
M  V30 1880 N 175.894 1.51508 0.433938 0
M  V30 1881 C 176.857 1.72473 1.50949 0
M  V30 1882 C 177.857 0.594725 1.49398 0
M  V30 1883 O 179.047 0.862315 1.5136 0
M  V30 1884 C 176.179 1.78431 2.90474 0
M  V30 1885 H 177.372 2.68467 1.33662 0
M  V30 1886 H 174.925 1.41549 0.662836 0
M  V30 1887 H 175.66 0.842645 3.13161 0
M  V30 1888 H 175.445 2.60558 2.93005 0
M  V30 1889 H 176.935 1.96479 3.68491 0
M  V30 1890 N 177.372 -0.689602 1.41712 0
M  V30 1891 C 178.618 -1.45181 1.41599 0
M  V30 1892 C 178.951 -1.94181 0.0270081 0
M  V30 1893 O 178.226 -1.6993 -0.946265 0
M  V30 1894 C 178.509 -2.65945 2.42787 0
M  V30 1895 C 178.362 -2.22672 3.90816 0
M  V30 1896 C 179.681 -3.68149 2.41151 0
M  V30 1897 H 176.8 -0.526576 0.515642 0
M  V30 1898 H 179.442 -0.784947 1.73028 0
M  V30 1899 H 177.592 -3.2284 2.16116 0
M  V30 1900 H 179.264 -1.71058 4.28412 0
M  V30 1901 H 177.507 -1.54394 4.05395 0
M  V30 1902 H 178.178 -3.0935 4.57172 0
M  V30 1903 H 180.654 -3.2094 2.64834 0
M  V30 1904 H 179.53 -4.50248 3.13955 0
M  V30 1905 H 179.791 -4.18259 1.43221 0
M  V30 1906 N 178.85 -1.27639 -0.924453 0
M  V30 1907 C 179.78 -1.13166 -2.04244 0
M  V30 1908 C 180.761 -0.032256 -1.70069 0
M  V30 1909 O 181.946 -0.207328 -1.9309 0
M  V30 1910 C 179.076 -0.781496 -3.38393 0
M  V30 1911 C 178.03 -1.83449 -3.86692 0
M  V30 1912 C 177.356 -1.33822 -5.17683 0
M  V30 1913 C 178.656 -3.23917 -4.09726 0
M  V30 1914 H 180.35 -2.06689 -2.1661 0
M  V30 1915 H 177.896 -0.995136 -1.04082 0
M  V30 1916 H 179.849 -0.667057 -4.16087 0
M  V30 1917 H 178.573 0.189439 -3.2605 0
M  V30 1918 H 177.232 -1.93789 -3.11193 0
M  V30 1919 H 176.88 -0.35665 -5.01734 0
M  V30 1920 H 176.58 -2.04224 -5.50968 0
M  V30 1921 H 178.104 -1.23679 -5.97943 0
M  V30 1922 H 179.518 -3.16559 -4.77978 0
M  V30 1923 H 177.915 -3.92059 -4.54324 0
M  V30 1924 H 178.985 -3.68729 -3.14908 0
M  V30 1925 N 180.328 1.1314 -1.09713 0
M  V30 1926 C 181.553 1.88862 -0.857081 0
M  V30 1927 C 181.978 1.78729 0.586304 0
M  V30 1928 O 181.336 1.13692 1.41222 0
M  V30 1929 C 181.384 3.36325 -1.30069 0
M  V30 1930 O 180.488 4.09815 -0.461007 0
M  V30 1931 H 179.829 0.587108 -0.310162 0
M  V30 1932 H 182.359 1.43129 -1.46203 0
M  V30 1933 H 182.369 3.87157 -1.28738 0
M  V30 1934 H 181.044 3.43017 -2.35185 0
M  V30 1935 H 179.621 3.68986 -0.538888 0
M  V30 1936 N 181.806 0.884767 1.30421 0
M  V30 1937 C 182.754 0.340869 2.30089 0
M  V30 1938 C 183.748 -0.55201 1.60154 0
M  V30 1939 O 184.954 -0.436467 1.74628 0
M  V30 1940 H 181.329 0.0915739 0.746404 0
M  V30 1941 H 183.3 1.19513 2.73421 0
M  V30 1942 C 182.049 -0.429779 3.45034 0
M  V30 1943 H 181.372 0.248024 3.9903 0
M  V30 1944 H 182.812 -0.775445 4.16849 0
M  V30 1945 C 181.271 -1.62677 2.95022 0
M  V30 1946 O 181.801 -2.72614 2.95033 0
M  V30 1947 N 180.007 -1.46387 2.51036 0
M  V30 1948 H 179.554 -0.569506 2.51226 0
M  V30 1949 H 179.512 -2.26612 2.17932 0
M  V30 1950 N 183.284 -1.43765 0.645699 0
M  V30 1951 C 184.514 -2.05953 0.163318 0
M  V30 1952 C 184.922 -1.48432 -1.17322 0
M  V30 1953 O 184.265 -0.607295 -1.73371 0
M  V30 1954 C 184.327 -3.59499 -0.0103065 0
M  V30 1955 C 183.991 -4.39563 1.25035 0
M  V30 1956 C 184.988 -4.72108 2.17739 0
M  V30 1957 C 182.673 -4.79697 1.48983 0
M  V30 1958 C 184.667 -5.43688 3.3269 0
M  V30 1959 C 182.354 -5.51023 2.64229 0
M  V30 1960 C 183.352 -5.8294 3.55908 0
M  V30 1961 O 183.04 -6.5281 4.69142 0
M  V30 1962 H 182.772 -0.670798 0.0836986 0
M  V30 1963 H 185.326 -1.85384 0.884407 0
M  V30 1964 H 183.556 -3.78613 -0.78669 0
M  V30 1965 H 185.245 -4.03408 -0.449087 0
M  V30 1966 H 186.011 -4.41627 2.00476 0
M  V30 1967 H 181.89 -4.54266 0.785078 0
M  V30 1968 H 185.434 -5.68517 4.04269 0
M  V30 1969 H 181.331 -5.8092 2.81429 0
M  V30 1970 H 182.099 -6.71288 4.6831 0
M  V30 1971 N 184.763 -0.387143 -1.52771 0
M  V30 1972 C 186.04 0.253197 -1.93954 0
M  V30 1973 C 186.42 1.64545 -1.32243 0
M  V30 1974 O 185.768 2.23191 -0.489699 0
M  V30 1975 C 185.978 0.281722 -3.47861 0
M  V30 1976 C 187.326 0.511715 -4.21505 0
M  V30 1977 O 188.35 0.362023 -3.54356 0
M  V30 1978 O 187.209 0.804847 -5.40541 0
M  V30 1979 H 184.303 0.156845 -0.811991 0
M  V30 1980 H 186.849 -0.441494 -1.63856 0
M  V30 1981 H 185.621 -0.693571 -3.85104 0
M  V30 1982 H 185.244 1.02142 -3.84256 0
M  V30 1983 N 186.241 1.57166 -0.116904 0
M  V30 1984 C 187.204 2.14039 0.819742 0
M  V30 1985 C 188.204 1.07477 1.19605 0
M  V30 1986 O 189.394 1.33263 1.1219 0
M  V30 1987 C 186.526 2.67891 2.10826 0
M  V30 1988 H 187.719 2.98128 0.325511 0
M  V30 1989 H 185.272 1.55739 0.132312 0
M  V30 1990 H 186.007 1.87384 2.64685 0
M  V30 1991 H 185.792 3.45823 1.84793 0
M  V30 1992 H 187.282 3.11809 2.77785 0
M  V30 1993 N 187.719 -0.156864 1.56817 0
M  V30 1994 C 188.667 -1.21319 1.98455 0
M  V30 1995 C 189.661 -1.45025 0.875444 0
M  V30 1996 O 190.867 -1.45435 1.0606 0
M  V30 1997 H 187.242 -0.408142 0.631605 0
M  V30 1998 H 189.213 -0.835244 2.86472 0
M  V30 1999 C 187.962 -2.54148 2.37285 0
M  V30 2000 H 187.285 -2.36733 3.22176 0
M  V30 2001 H 188.725 -3.26712 2.70251 0
M  V30 2002 C 187.184 -3.13967 1.22173 0
M  V30 2003 O 187.714 -3.98357 0.517149 0
M  V30 2004 N 185.92 -2.7327 0.988536 0
M  V30 2005 H 185.467 -2.04744 1.56326 0
M  V30 2006 H 185.425 -3.13628 0.220209 0
M  V30 2007 N 189.197 -1.51736 -0.425897 0
M  V30 2008 C 190.144 -1.73875 -1.51776 0
M  V30 2009 C 191.114 -0.580702 -1.55618 0
M  V30 2010 O 192.299 -0.81641 -1.72451 0
M  V30 2011 C 189.439 -1.88012 -2.89388 0
M  V30 2012 C 188.552 -3.15606 -2.94986 0
M  V30 2013 C 187.687 -3.20271 -4.23793 0
M  V30 2014 C 186.726 -4.42134 -4.23302 0
M  V30 2015 N 185.863 -4.44284 -5.43651 0
M  V30 2016 H 190.703 -2.67071 -1.32201 0
M  V30 2017 H 188.24 -1.32351 -0.642008 0
M  V30 2018 H 190.198 -1.9419 -3.69251 0
M  V30 2019 H 188.828 -0.98213 -3.07496 0
M  V30 2020 H 187.88 -3.18681 -2.07717 0
M  V30 2021 H 189.192 -4.05486 -2.90486 0
M  V30 2022 H 188.346 -3.25428 -5.12036 0
M  V30 2023 H 187.085 -2.28299 -4.30965 0
M  V30 2024 H 186.09 -4.3714 -3.3345 0
M  V30 2025 H 187.315 -5.35382 -4.17783 0
M  V30 2026 H 185.261 -3.55188 -5.51523 0
M  V30 2027 H 185.178 -5.27988 -5.41078 0
M  V30 2028 H 186.446 -4.53649 -6.33895 0
M  V30 2029 N 190.675 0.682077 -1.42076 0
M  V30 2030 C 191.903 1.47057 -1.4554 0
M  V30 2031 C 192.318 1.8869 -0.0645779 0
M  V30 2032 O 191.675 1.57666 0.919115 0
M  V30 2033 C 191.726 2.72442 -2.37609 0
M  V30 2034 O 191.447 2.32559 -3.71279 0
M  V30 2035 C 192.948 3.66069 -2.50017 0
M  V30 2036 H 190.168 0.452737 -0.495248 0
M  V30 2037 H 192.712 0.838695 -1.8651 0
M  V30 2038 H 190.867 3.31835 -1.9991 0
M  V30 2039 H 191.281 3.13475 -4.20516 0
M  V30 2040 H 192.755 4.50792 -3.18576 0
M  V30 2041 H 193.232 4.11476 -1.53572 0
M  V30 2042 H 193.838 3.12572 -2.88407 0
M  V30 2043 N 192.153 1.28127 0.917671 0
M  V30 2044 C 193.401 1.14825 1.66312 0
M  V30 2045 C 193.722 -0.304379 1.9261 0
M  V30 2046 O 192.992 -1.21149 1.53947 0
M  V30 2047 H 191.572 0.421953 0.616413 0
M  V30 2048 H 194.234 1.608 1.10134 0
M  V30 2049 H 193.33 1.68489 2.62712 0
M  V30 2050 N 193.631 -1.12557 1.10312 0
M  V30 2051 C 194.561 -2.20341 0.772798 0
M  V30 2052 C 195.542 -1.68198 -0.25365 0
M  V30 2053 O 196.727 -1.93831 -0.119699 0
M  V30 2054 C 193.857 -3.46709 0.202443 0
M  V30 2055 C 192.811 -4.11996 1.15943 0
M  V30 2056 C 192.137 -5.328 0.450345 0
M  V30 2057 C 193.437 -4.5828 2.50552 0
M  V30 2058 H 195.131 -2.48229 1.674 0
M  V30 2059 H 192.677 -1.19308 0.806326 0
M  V30 2060 H 194.63 -4.2138 -0.0407752 0
M  V30 2061 H 193.354 -3.18245 -0.734001 0
M  V30 2062 H 192.013 -3.39305 1.38808 0
M  V30 2063 H 191.661 -5.00602 -0.490531 0
M  V30 2064 H 191.361 -5.7743 1.08851 0
M  V30 2065 H 192.885 -6.10219 0.215642 0
M  V30 2066 H 194.299 -5.2433 2.31843 0
M  V30 2067 H 192.696 -5.13683 3.10242 0
M  V30 2068 H 193.766 -3.72329 3.10643 0
M  V30 2069 N 195.109 -0.891671 -1.2995 0
M  V30 2070 C 196.056 -0.361736 -2.27948 0
M  V30 2071 C 197.026 0.551761 -1.56668 0
M  V30 2072 O 198.211 0.478736 -1.84696 0
M  V30 2073 C 195.351 0.411825 -3.42634 0
M  V30 2074 C 194.464 -0.531651 -4.28716 0
M  V30 2075 C 193.599 0.258167 -5.30572 0
M  V30 2076 C 192.638 -0.680349 -6.08307 0
M  V30 2077 N 191.775 0.0745613 -7.0206 0
M  V30 2078 H 196.615 -1.20254 -2.72659 0
M  V30 2079 H 194.152 -0.604352 -1.34112 0
M  V30 2080 H 196.11 0.876304 -4.07893 0
M  V30 2081 H 194.74 1.21715 -2.98974 0
M  V30 2082 H 193.792 -1.11463 -3.63703 0
M  V30 2083 H 195.104 -1.25038 -4.82874 0
M  V30 2084 H 194.258 0.784204 -6.0161 0
M  V30 2085 H 192.997 1.01008 -4.77126 0
M  V30 2086 H 192.002 -1.21796 -5.3614 0
M  V30 2087 H 193.227 -1.43145 -6.63842 0
M  V30 2088 H 191.173 0.808883 -6.50994 0
M  V30 2089 H 191.09 -0.584409 -7.53738 0
M  V30 2090 H 192.358 0.581123 -7.77331 0
M  V30 2091 N 196.587 1.43421 -0.653314 0
M  V30 2092 C 197.497 2.34568 0.0388565 0
M  V30 2093 C 198.513 1.53888 0.81207 0
M  V30 2094 O 199.689 1.86539 0.759294 0
M  V30 2095 C 196.754 3.32167 0.993269 0
M  V30 2096 C 195.815 4.28751 0.216977 0
M  V30 2097 C 195.048 5.21688 1.12593 0
M  V30 2098 O 195.271 5.19052 2.36519 0
M  V30 2099 O 194.205 5.98919 0.598284 0
M  V30 2100 H 198.031 2.95251 -0.711386 0
M  V30 2101 H 195.616 1.43564 -0.413502 0
M  V30 2102 H 197.498 3.92183 1.54176 0
M  V30 2103 H 196.173 2.73987 1.72374 0
M  V30 2104 H 195.08 3.72215 -0.375101 0
M  V30 2105 H 196.413 4.89913 -0.473924 0
M  V30 2106 N 198.065 0.39524 1.52563 0
M  V30 2107 C 198.995 -0.428384 2.29537 0
M  V30 2108 C 199.976 -1.05831 1.33169 0
M  V30 2109 O 201.161 -1.06995 1.62067 0
M  V30 2110 C 198.291 -1.55274 3.10656 0
M  V30 2111 C 197.245 -1.04855 4.14957 0
M  V30 2112 C 196.571 -2.26543 4.84337 0
M  V30 2113 C 197.871 -0.112324 5.22179 0
M  V30 2114 H 199.565 0.213867 2.98635 0
M  V30 2115 H 197.111 0.104298 1.43622 0
M  V30 2116 H 199.064 -2.1358 3.63265 0
M  V30 2117 H 197.788 -2.22266 2.39302 0
M  V30 2118 H 196.447 -0.487985 3.63338 0
M  V30 2119 H 196.095 -2.92059 4.09525 0
M  V30 2120 H 195.795 -1.93466 5.54837 0
M  V30 2121 H 197.319 -2.85481 5.39753 0
M  V30 2122 H 198.733 -0.603752 5.70112 0
M  V30 2123 H 197.13 0.128968 5.99961 0
M  V30 2124 H 198.2 0.837052 4.77621 0
M  V30 2125 N 199.544 -1.57102 0.125237 0
M  V30 2126 C 200.955 -1.82384 -0.399142 0
M  V30 2127 C 201.306 -1.04276 -1.66195 0
M  V30 2128 O 200.431 -0.281269 -2.14564 0
M  V30 2129 C 201.026 -3.30821 -0.730932 0
M  V30 2130 C 199.585 -3.56762 -1.19992 0
M  V30 2131 C 198.732 -2.7649 -0.211792 0
M  V30 2132 H 201.683 -1.54786 0.350277 0
M  V30 2133 H 201.704 -3.4579 -1.58775 0
M  V30 2134 H 201.216 -3.87643 0.188345 0
M  V30 2135 H 199.317 -3.05305 -2.13588 0
M  V30 2136 H 199.43 -4.65317 -1.14093 0
M  V30 2137 H 197.794 -2.4489 -0.700085 0
M  V30 2138 H 198.577 -3.36073 0.700691 0
M  V30 2139 N 201.022 0.148545 -1.56898 0
M  V30 2140 C 201.955 1.21293 -1.93296 0
M  V30 2141 C 202.933 1.41637 -0.798599 0
M  V30 2142 O 204.117 1.56275 -1.05406 0
M  V30 2143 C 201.244 2.5721 -2.20365 0
M  V30 2144 C 200.29 2.53469 -3.4301 0
M  V30 2145 S 201.123 2.00315 -4.96623 0
M  V30 2146 C 202.279 3.37964 -5.26812 0
M  V30 2147 H 202.512 0.902393 -2.83274 0
M  V30 2148 H 200.045 0.354094 -1.50285 0
M  V30 2149 H 202.003 3.35427 -2.36641 0
M  V30 2150 H 200.664 2.85454 -1.31054 0
M  V30 2151 H 199.857 3.53518 -3.59223 0
M  V30 2152 H 199.459 1.83359 -3.25968 0
M  V30 2153 H 201.751 4.34066 -5.20185 0
M  V30 2154 H 202.694 3.26606 -6.28279 0
M  V30 2155 H 203.102 3.35028 -4.54331 0
M  V30 2156 N 202.5 1.5196 0.417844 0
M  V30 2157 C 203.916 1.40569 0.755816 0
M  V30 2158 C 204.116 0.503316 1.95113 0
M  V30 2159 O 203.172 -0.0341925 2.52477 0
M  V30 2160 C 204.485 2.82947 1.01791 0
M  V30 2161 C 206.033 2.92231 1.12116 0
M  V30 2162 C 206.508 4.35559 1.41608 0
M  V30 2163 N 207.999 4.38753 1.48491 0
M  V30 2164 C 208.734 5.46705 1.7292 0
M  V30 2165 N 208.23 6.64788 1.95011 0
M  V30 2166 N 210.023 5.34209 1.74863 0
M  V30 2167 H 202.174 2.09168 -0.369098 0
M  V30 2168 H 204.437 0.942409 -0.102809 0
M  V30 2169 H 204.143 3.5106 0.212081 0
M  V30 2170 H 204.017 3.23462 1.94042 0
M  V30 2171 H 206.404 2.24304 1.9176 0
M  V30 2172 H 206.485 2.55185 0.177225 0
M  V30 2173 H 206.129 5.04042 0.624848 0
M  V30 2174 H 206.059 4.70133 2.37239 0
M  V30 2175 H 208.55 3.5363 1.33244 0
M  V30 2176 H 208.863 7.42845 2.13076 0
M  V30 2177 H 207.208 6.67869 1.92293 0
M  V30 2178 H 210.399 4.40937 1.57137 0
M  V30 2179 H 210.572 6.18415 1.93563 0
M  V30 2180 N 203.978 -0.674533 1.42435 0
M  V30 2181 C 204.926 -1.80934 1.46169 0
M  V30 2182 C 205.92 -1.66006 0.3374 0
M  V30 2183 O 207.126 -1.72611 0.510425 0
M  V30 2184 H 203.501 -0.596594 0.457798 0
M  V30 2185 H 205.472 -1.74903 2.41767 0
M  V30 2186 C 204.221 -3.19088 1.38123 0
M  V30 2187 H 203.544 -3.31203 2.23931 0
M  V30 2188 H 204.984 -3.9851 1.44797 0
M  V30 2189 C 203.443 -3.36763 0.0960517 0
M  V30 2190 O 203.973 -3.92581 -0.851073 0
M  V30 2191 N 202.179 -2.90597 0.0131186 0
M  V30 2192 H 201.726 -2.45359 0.784639 0
M  V30 2193 H 201.684 -3.028 -0.846133 0
M  V30 2194 N 205.456 -1.28612 -0.910864 0
M  V30 2195 C 206.386 -1.15326 -2.03032 0
M  V30 2196 C 207.367 -0.0502924 -1.70026 0
M  V30 2197 O 208.552 -0.227797 -1.92859 0
M  V30 2198 C 205.682 -0.817343 -3.37545 0
M  V30 2199 C 204.636 -1.8754 -3.84724 0
M  V30 2200 C 203.962 -1.39305 -5.16235 0
M  V30 2201 C 205.262 -3.28244 -4.06267 0
M  V30 2202 H 206.956 -2.08975 -2.14406 0
M  V30 2203 H 204.502 -1.00612 -1.03021 0
M  V30 2204 H 206.455 -0.711151 -4.15356 0
M  V30 2205 H 205.179 0.154846 -3.26233 0
M  V30 2206 H 203.838 -1.97079 -3.09121 0
M  V30 2207 H 203.486 -0.409846 -5.01328 0
M  V30 2208 H 203.186 -2.10057 -5.48771 0
M  V30 2209 H 204.71 -1.30014 -5.96598 0
M  V30 2210 H 206.124 -3.21611 -4.74594 0
M  V30 2211 H 204.521 -3.96855 -4.5014 0
M  V30 2212 H 205.591 -3.72048 -3.10979 0
M  V30 2213 N 206.934 1.1197 -1.10907 0
M  V30 2214 C 207.866 2.17592 -0.720175 0
M  V30 2215 C 208.879 1.60938 0.245495 0
M  V30 2216 O 210.068 1.78476 0.0292245 0
M  V30 2217 C 207.168 3.38873 -0.0427917 0
M  V30 2218 C 206.341 4.25006 -1.03388 0
M  V30 2219 C 205.4 5.24774 -0.387075 0
M  V30 2220 O 204.426 5.59631 -1.03934 0
M  V30 2221 N 205.628 5.74208 0.852407 0
M  V30 2222 H 208.393 2.51567 -1.62893 0
M  V30 2223 H 205.954 1.27439 -0.998543 0
M  V30 2224 H 207.946 4.02703 0.401501 0
M  V30 2225 H 206.516 3.03007 0.768456 0
M  V30 2226 H 205.736 3.57716 -1.65629 0
M  V30 2227 H 207.024 4.79397 -1.70458 0
M  V30 2228 H 206.422 5.48062 1.40161 0
M  V30 2229 H 204.979 6.39901 1.23977 0
M  V30 2230 N 208.412 0.89855 1.29475 0
M  V30 2231 C 209.322 0.379974 2.31502 0
M  V30 2232 C 210.338 -0.524695 1.659 0
M  V30 2233 O 211.514 -0.414551 1.97087 0
M  V30 2234 C 208.579 -0.385138 3.44554 0
M  V30 2235 C 207.64 0.550914 4.2575 0
M  V30 2236 C 206.873 -0.177778 5.33404 0
M  V30 2237 O 207.096 -1.40189 5.52904 0
M  V30 2238 O 206.03 0.479106 5.9999 0
M  V30 2239 H 209.856 1.22639 2.77837 0
M  V30 2240 H 207.441 0.662834 1.33891 0
M  V30 2241 H 209.323 -0.817841 4.13388 0
M  V30 2242 H 207.998 -1.20763 3.0033 0
M  V30 2243 H 206.905 1.03271 3.59564 0
M  V30 2244 H 208.238 1.33979 4.73614 0
M  V30 2245 N 209.89 -1.43072 0.660911 0
M  V30 2246 C 211.139 -2.00942 0.174735 0
M  V30 2247 C 211.452 -1.52797 -1.22117 0
M  V30 2248 O 212.658 -2.02991 -1.80297 0
M  V30 2249 C 211.114 -3.58948 0.261559 0
M  V30 2250 C 210.722 -4.16085 1.66064 0
M  V30 2251 C 212.466 -4.24173 -0.166617 0
M  V30 2252 C 210.373 -5.6641 1.70098 0
M  V30 2253 H 209.303 -0.751483 0.0615631 0
M  V30 2254 H 211.954 -1.63955 0.824069 0
M  V30 2255 H 210.336 -3.93372 -0.455421 0
M  V30 2256 H 211.51 -3.93147 2.40359 0
M  V30 2257 H 209.825 -3.6326 2.03546 0
M  V30 2258 H 212.422 -5.34471 -0.156433 0
M  V30 2259 H 212.765 -3.98647 -1.19943 0
M  V30 2260 H 213.298 -3.94659 0.498875 0
M  V30 2261 H 210.037 -5.96715 2.71315 0
M  V30 2262 H 209.557 -5.91382 1.00139 0
M  V30 2263 H 211.236 -6.30585 1.44816 0
M  V30 2264 N 211.368 -0.403325 -1.52352 0
M  V30 2265 C 212.298 0.416205 -2.29761 0
M  V30 2266 C 213.279 1.05123 -1.33728 0
M  V30 2267 O 214.464 1.06134 -1.62632 0
M  V30 2268 C 211.594 1.53624 -3.11475 0
M  V30 2269 C 210.548 1.02653 -4.15507 0
M  V30 2270 C 209.874 2.23971 -4.85532 0
M  V30 2271 C 211.174 0.08463 -5.22231 0
M  V30 2272 H 212.868 -0.229701 -2.98518 0
M  V30 2273 H 210.414 -0.111913 -1.43564 0
M  V30 2274 H 212.367 2.1165 -3.64393 0
M  V30 2275 H 211.091 2.20994 -2.40477 0
M  V30 2276 H 209.75 0.46871 -3.63591 0
M  V30 2277 H 209.398 2.89883 -4.11068 0
M  V30 2278 H 209.098 1.90521 -5.55856 0
M  V30 2279 H 210.622 2.82614 -5.41259 0
M  V30 2280 H 212.036 0.573509 -5.70424 0
M  V30 2281 H 210.433 -0.160783 -5.99885 0
M  V30 2282 H 211.503 -0.86237 -4.7717 0
M  V30 2283 N 212.846 1.57033 -0.133567 0
M  V30 2284 C 213.796 2.12641 0.822671 0
M  V30 2285 C 214.78 1.05081 1.21847 0
M  V30 2286 O 215.972 1.31287 1.18713 0
M  V30 2287 C 213.101 2.74094 2.06706 0
M  V30 2288 C 212.187 3.88757 1.69497 0
M  V30 2289 N 212.578 4.95194 1.03037 0
M  V30 2290 C 210.876 3.99213 1.98859 0
M  V30 2291 C 211.577 5.75414 0.852873 0
M  V30 2292 N 210.553 5.25726 1.3825 0
M  V30 2293 H 214.355 2.92308 0.305537 0
M  V30 2294 H 211.869 1.62256 0.0684276 0
M  V30 2295 H 213.866 3.12285 2.76195 0
M  V30 2296 H 212.526 1.95896 2.5895 0
M  V30 2297 H 213.537 5.13247 0.692669 0
M  V30 2298 H 210.214 3.32075 2.53047 0
M  V30 2299 H 211.604 6.71089 0.330091 0
M  V30 2300 N 214.325 -0.140222 1.56975 0
M  V30 2301 C 215.573 -0.850005 1.83356 0
M  V30 2302 C 215.894 -1.81399 0.71551 0
M  V30 2303 O 215.164 -1.94136 -0.262294 0
M  V30 2304 H 213.744 -0.316886 0.676456 0
M  V30 2305 H 216.406 -0.132608 1.94448 0
M  V30 2306 H 215.502 -1.40814 2.78528 0
M  V30 2307 N 215.803 -1.52179 -0.40978 0
M  V30 2308 C 216.766 -1.74853 -1.48186 0
M  V30 2309 C 217.766 -0.618417 -1.48433 0
M  V30 2310 O 218.956 -0.886286 -1.49969 0
M  V30 2311 C 216.088 -1.8303 -2.87598 0
M  V30 2312 H 217.281 -2.70559 -1.29374 0
M  V30 2313 H 214.834 -1.42586 -0.640233 0
M  V30 2314 H 215.569 -0.89236 -3.11781 0
M  V30 2315 H 215.354 -2.65187 -2.88822 0
M  V30 2316 H 216.844 -2.02316 -3.65319 0
M  V30 2317 N 217.281 0.66697 -1.42791 0
M  V30 2318 C 218.527 1.4291 -1.43891 0
M  V30 2319 C 218.86 1.94114 -0.0578972 0
M  V30 2320 O 218.135 1.71414 0.91911 0
M  V30 2321 C 218.418 2.62049 -2.46987 0
M  V30 2322 C 218.271 2.16426 -3.94309 0
M  V30 2323 C 219.59 3.64266 -2.46978 0
M  V30 2324 H 216.709 0.518306 -0.523954 0
M  V30 2325 H 219.351 0.757321 -1.74255 0
M  V30 2326 H 217.501 3.19361 -2.21225 0
M  V30 2327 H 219.173 1.64221 -4.31079 0
M  V30 2328 H 217.416 1.47925 -4.078 0
M  V30 2329 H 218.087 3.02038 -4.62036 0
M  V30 2330 H 220.563 3.16686 -2.69906 0
M  V30 2331 H 219.439 4.45196 -3.21079 0
M  V30 2332 H 219.7 4.15927 -1.49857 0
M  V30 2333 N 218.759 1.29093 0.90403 0
M  V30 2334 C 220.175 1.07011 1.1841 0
M  V30 2335 C 220.375 -0.181358 2.00682 0
M  V30 2336 O 219.431 -0.880331 2.36657 0
M  V30 2337 C 220.744 2.32311 1.90924 0
M  V30 2338 C 222.292 2.37587 2.03768 0
M  V30 2339 C 222.767 3.62679 2.79693 0
M  V30 2340 N 224.258 3.63376 2.87249 0
M  V30 2341 C 224.993 4.56848 3.46522 0
M  V30 2342 N 224.489 5.60648 4.06996 0
M  V30 2343 N 226.282 4.44426 3.44154 0
M  V30 2344 H 218.433 2.09412 0.354993 0
M  V30 2345 H 220.696 0.922181 0.219742 0
M  V30 2346 H 220.402 3.23536 1.37905 0
M  V30 2347 H 220.276 2.39483 2.91424 0
M  V30 2348 H 222.663 1.46853 2.55965 0
M  V30 2349 H 222.744 2.34403 1.02415 0
M  V30 2350 H 222.388 4.53762 2.28173 0
M  V30 2351 H 222.318 3.63119 3.81381 0
M  V30 2352 H 224.809 2.88321 2.44293 0
M  V30 2353 H 225.122 6.28101 4.50232 0
M  V30 2354 H 223.467 5.64463 4.05471 0
M  V30 2355 H 226.658 3.62529 2.96126 0
M  V30 2356 H 226.831 5.17457 3.90054 0
M  V30 2357 N 220.237 -1.11381 1.11499 0
M  V30 2358 C 221.484 -1.83132 0.864231 0
M  V30 2359 C 221.812 -1.84683 -0.610114 0
M  V30 2360 O 221.067 -1.29589 -1.46646 0
M  V30 2361 C 221.366 -3.30026 1.37177 0
M  V30 2362 C 221.032 -3.48634 2.85946 0
M  V30 2363 C 219.694 -3.53421 3.26569 0
M  V30 2364 C 222.046 -3.54837 3.81759 0
M  V30 2365 C 219.374 -3.61967 4.61733 0
M  V30 2366 C 221.726 -3.64915 5.1674 0
M  V30 2367 C 220.39 -3.67962 5.5692 0
M  V30 2368 H 219.66 -0.670127 0.316245 0
M  V30 2369 H 222.307 -1.31354 1.3935 0
M  V30 2370 H 220.612 -3.84304 0.762753 0
M  V30 2371 H 222.309 -3.84034 1.15408 0
M  V30 2372 H 218.899 -3.45579 2.53521 0
M  V30 2373 H 223.083 -3.50399 3.51474 0
M  V30 2374 H 218.339 -3.62603 4.92269 0
M  V30 2375 H 222.513 -3.68658 5.90816 0
M  V30 2376 H 220.14 -3.74336 6.61647 0
M  V30 2377 N 221.715 -0.905404 -1.28997 0
M  V30 2378 C 222.94 -0.549175 -1.99997 0
M  V30 2379 C 223.365 0.860276 -1.67275 0
M  V30 2380 O 222.723 1.57355 -0.900502 0
M  V30 2381 C 222.771 -0.755185 -3.52604 0
M  V30 2382 O 221.875 0.189692 -4.11964 0
M  V30 2383 H 221.216 -0.213899 -0.628604 0
M  V30 2384 H 223.746 -1.21856 -1.64354 0
M  V30 2385 H 223.756 -0.662045 -4.02593 0
M  V30 2386 H 222.431 -1.78271 -3.75755 0
M  V30 2387 H 221.008 0.0485257 -3.72868 0
M  V30 2388 N 223.193 1.4272 -0.668489 0
M  V30 2389 C 224.141 2.32586 0.0254857 0
M  V30 2390 C 225.135 1.49471 0.797176 0
M  V30 2391 O 226.341 1.65583 0.705853 0
M  V30 2392 H 222.716 0.751514 0.0270339 0
M  V30 2393 H 224.687 2.88823 -0.749936 0
M  V30 2394 C 223.436 3.3397 0.967427 0
M  V30 2395 H 222.759 3.97961 0.383048 0
M  V30 2396 H 224.199 3.9945 1.42181 0
M  V30 2397 C 222.658 2.65744 2.0708 0
M  V30 2398 O 223.188 2.48454 3.15648 0
M  V30 2399 N 221.394 2.2487 1.8407 0
M  V30 2400 H 220.941 2.39132 0.95778 0
M  V30 2401 H 220.899 1.79552 2.58086 0
M  V30 2402 N 224.671 0.411399 1.52136 0
M  V30 2403 C 225.619 -0.427633 2.28635 0
M  V30 2404 C 226.613 -1.04383 1.33419 0
M  V30 2405 O 227.819 -0.981772 1.50868 0
M  V30 2406 H 224.194 -0.156689 0.735495 0
M  V30 2407 H 226.165 0.238761 2.97443 0
M  V30 2408 C 224.914 -1.53082 3.12188 0
M  V30 2409 H 224.237 -1.06601 3.85326 0
M  V30 2410 H 225.677 -2.09167 3.68816 0
M  V30 2411 C 224.136 -2.49946 2.25895 0
M  V30 2412 O 224.666 -3.53884 1.90076 0
M  V30 2413 N 222.872 -2.2021 1.8962 0
M  V30 2414 H 222.419 -1.35719 2.18948 0
M  V30 2415 H 222.377 -2.85266 1.32176 0
M  V30 2416 N 226.149 -1.5696 0.141893 0
M  V30 2417 C 227.56 -1.82797 -0.379776 0
M  V30 2418 C 227.911 -1.06033 -1.6508 0
M  V30 2419 O 227.036 -0.304011 -2.14254 0
M  V30 2420 C 227.631 -3.31578 -0.695802 0
M  V30 2421 C 226.19 -3.58014 -1.16201 0
M  V30 2422 C 225.337 -2.76699 -0.182455 0
M  V30 2423 H 228.288 -1.54406 0.366675 0
M  V30 2424 H 228.309 -3.47454 -1.55099 0
M  V30 2425 H 227.821 -3.87421 0.229449 0
M  V30 2426 H 225.922 -3.07553 -2.10338 0
M  V30 2427 H 226.035 -4.66501 -1.09151 0
M  V30 2428 H 224.399 -2.45618 -0.674072 0
M  V30 2429 H 225.182 -3.35311 0.736297 0
M  V30 2430 N 227.627 0.131896 -1.57047 0
M  V30 2431 C 228.59 1.14638 -1.98471 0
M  V30 2432 C 229.59 1.35029 -0.873148 0
M  V30 2433 O 230.78 1.31764 -1.13946 0
M  V30 2434 C 227.912 2.50358 -2.31373 0
M  V30 2435 H 229.105 0.79064 -2.8929 0
M  V30 2436 H 226.658 0.375761 -1.51716 0
M  V30 2437 H 227.393 2.90876 -1.43393 0
M  V30 2438 H 227.178 2.36915 -3.12432 0
M  V30 2439 H 228.668 3.23395 -2.64207 0
M  V30 2440 N 229.106 1.52395 0.401703 0
M  V30 2441 C 230.036 1.79231 1.49661 0
M  V30 2442 C 231.017 0.643654 1.57452 0
M  V30 2443 O 232.202 0.889989 1.72606 0
M  V30 2444 C 229.332 1.94971 2.87409 0
M  V30 2445 C 228.286 3.10604 2.94465 0
M  V30 2446 C 227.612 3.11577 4.34538 0
M  V30 2447 C 228.912 4.49921 2.6527 0
M  V30 2448 H 230.606 2.70917 1.27454 0
M  V30 2449 H 228.152 1.30362 0.6117 0
M  V30 2450 H 230.105 2.12328 3.63999 0
M  V30 2451 H 228.829 0.999632 3.10926 0
M  V30 2452 H 227.488 2.93009 2.20321 0
M  V30 2453 H 227.136 2.14277 4.55076 0
M  V30 2454 H 226.836 3.89247 4.40183 0
M  V30 2455 H 228.36 3.31073 5.13053 0
M  V30 2456 H 229.774 4.67683 3.31581 0
M  V30 2457 H 228.171 5.29564 2.82281 0
M  V30 2458 H 229.241 4.57507 1.60671 0
M  V30 2459 N 230.584 -0.659388 1.43143 0
M  V30 2460 C 231.824 -1.43121 1.45931 0
M  V30 2461 C 232.188 -1.91838 0.0789298 0
M  V30 2462 O 233.389 -2.68794 -0.018491 0
M  V30 2463 C 231.66 -2.58534 2.46769 0
M  V30 2464 S 233.219 -3.47154 2.68384 0
M  V30 2465 H 230.037 -0.488624 0.516496 0
M  V30 2466 H 232.639 -0.766128 1.79863 0
M  V30 2467 H 231.343 -2.21007 3.45809 0
M  V30 2468 H 230.874 -3.29898 2.14315 0
M  V30 2469 H 232.889 -4.55051 1.97845 0
M  V30 2470 N 232.062 -1.29571 -0.897171 0
M  V30 2471 C 233.01 -1.14802 -2.02295 0
M  V30 2472 C 234.004 -0.0629637 -1.69283 0
M  V30 2473 O 235.21 -0.222945 -1.78614 0
M  V30 2474 H 231.585 -0.354692 -0.663097 0
M  V30 2475 H 233.556 -2.10108 -2.11889 0
M  V30 2476 C 232.305 -0.843966 -3.37302 0
M  V30 2477 H 231.628 -1.67093 -3.63208 0
M  V30 2478 H 233.068 -0.780672 -4.16751 0
M  V30 2479 C 231.527 0.452843 -3.33843 0
M  V30 2480 O 232.057 1.47813 -3.73516 0
M  V30 2481 N 230.263 0.459601 -2.86943 0
M  V30 2482 H 229.81 -0.375213 -2.54853 0
M  V30 2483 H 229.768 1.32726 -2.85011 0
M  V30 2484 N 233.54 1.10788 -1.12088 0
M  V30 2485 C 234.786 1.82942 -0.875226 0
M  V30 2486 C 235.119 1.84779 0.597538 0
M  V30 2487 O 234.394 1.30578 1.44152 0
M  V30 2488 C 234.677 3.29789 -1.44606 0
M  V30 2489 C 234.53 3.36307 -2.98693 0
M  V30 2490 C 235.849 4.26064 -1.10261 0
M  V30 2491 H 232.968 0.664195 -0.319397 0
M  V30 2492 H 235.61 1.29867 -1.38689 0
M  V30 2493 H 233.76 3.75118 -1.01089 0
M  V30 2494 H 235.432 2.99487 -3.50864 0
M  V30 2495 H 233.675 2.76318 -3.34411 0
M  V30 2496 H 234.346 4.39694 -3.33726 0
M  V30 2497 H 236.822 3.88951 -1.4784 0
M  V30 2498 H 235.698 5.27183 -1.52869 0
M  V30 2499 H 235.959 4.42098 -0.0142953 0
M  V30 2500 N 235.018 0.912232 1.28515 0
M  V30 2501 C 235.928 0.404506 2.31086 0
M  V30 2502 C 236.944 -0.50707 1.66448 0
M  V30 2503 O 238.12 -0.393624 1.97516 0
M  V30 2504 C 235.185 -0.348572 3.44943 0
M  V30 2505 C 234.246 0.59604 4.25142 0
M  V30 2506 C 233.479 -0.121194 5.33562 0
M  V30 2507 O 233.702 -1.34317 5.5436 0
M  V30 2508 O 232.636 0.542716 5.99448 0
M  V30 2509 H 236.462 1.25579 2.76521 0
M  V30 2510 H 234.047 0.676998 1.33181 0
M  V30 2511 H 235.929 -0.77395 4.14232 0
M  V30 2512 H 234.604 -1.17571 3.01594 0
M  V30 2513 H 233.511 1.07079 3.58448 0
M  V30 2514 H 234.844 1.38995 4.72167 0
M  V30 2515 N 236.496 -1.42363 0.676048 0
M  V30 2516 C 237.721 -2.06377 0.205705 0
M  V30 2517 C 238.146 -1.50463 -1.12883 0
M  V30 2518 O 237.504 -0.623619 -1.70237 0
M  V30 2519 C 237.552 -3.60277 0.152655 0
M  V30 2520 O 236.656 -4.02935 -0.87845 0
M  V30 2521 H 235.997 -0.655588 0.105359 0
M  V30 2522 H 238.527 -1.82475 0.925412 0
M  V30 2523 H 238.537 -4.07993 -0.0230675 0
M  V30 2524 H 237.212 -4.00346 1.12675 0
M  V30 2525 H 235.789 -3.66764 -0.673668 0
M  V30 2526 N 237.974 -0.419461 -1.51915 0
M  V30 2527 C 239.223 0.154346 -2.01109 0
M  V30 2528 C 239.536 1.45338 -1.30905 0
M  V30 2529 O 240.742 2.10906 -1.7097 0
M  V30 2530 C 239.198 0.325615 -3.58424 0
M  V30 2531 C 238.806 -0.961934 -4.37551 0
M  V30 2532 C 240.55 0.854155 -4.15818 0
M  V30 2533 C 238.457 -0.757287 -5.86531 0
M  V30 2534 H 237.387 0.0614563 -0.751491 0
M  V30 2535 H 240.038 -0.54649 -1.75173 0
M  V30 2536 H 238.42 1.08903 -3.80731 0
M  V30 2537 H 239.594 -1.7323 -4.26999 0
M  V30 2538 H 237.909 -1.41766 -3.91524 0
M  V30 2539 H 240.506 1.02346 -5.24814 0
M  V30 2540 H 240.849 1.83172 -3.73837 0
M  V30 2541 H 241.382 0.149528 -3.97519 0
M  V30 2542 H 238.121 -1.70671 -6.32892 0
M  V30 2543 H 237.641 -0.0264061 -5.99794 0
M  V30 2544 H 239.32 -0.403482 -6.45741 0
M  V30 2545 N 239.452 1.56882 -0.150215 0
M  V30 2546 C 240.384 2.14057 0.819286 0
M  V30 2547 C 241.397 1.09082 1.20851 0
M  V30 2548 O 242.586 1.36347 1.15203 0
M  V30 2549 C 239.686 2.65102 2.11127 0
M  V30 2550 C 238.859 3.94511 1.88891 0
M  V30 2551 C 237.918 4.30834 3.02107 0
M  V30 2552 O 236.944 4.99099 2.73659 0
M  V30 2553 N 238.146 3.90676 4.29363 0
M  V30 2554 H 240.911 2.97871 0.330618 0
M  V30 2555 H 238.472 1.61866 0.0332538 0
M  V30 2556 H 240.464 2.86411 2.85921 0
M  V30 2557 H 239.034 1.85994 2.51247 0
M  V30 2558 H 238.254 3.81795 0.981152 0
M  V30 2559 H 239.542 4.7907 1.71376 0
M  V30 2560 H 238.94 3.35677 4.55343 0
M  V30 2561 H 237.497 4.1703 5.00928 0
M  V30 2562 N 240.93 -0.123565 1.57115 0
M  V30 2563 C 242.176 -0.828428 1.85765 0
M  V30 2564 C 242.531 -1.77709 0.737371 0
M  V30 2565 O 241.824 -1.89787 -0.262978 0
M  V30 2566 C 242.018 -1.62016 3.18568 0
M  V30 2567 C 241.847 -0.749663 4.43407 0
M  V30 2568 C 240.617 -0.406251 5.03664 0
M  V30 2569 C 242.815 -0.0693505 5.14253 0
M  V30 2570 N 240.797 0.475389 6.12057 0
M  V30 2571 C 242.168 0.671474 6.16353 0
M  V30 2572 C 244.223 0.00754393 4.97899 0
M  V30 2573 C 242.926 1.48197 7.03868 0
M  V30 2574 C 244.952 0.804845 5.85898 0
M  V30 2575 C 244.314 1.53388 6.87497 0
M  V30 2576 H 240.413 -0.280219 0.73007 0
M  V30 2577 H 242.997 -0.0924183 1.94481 0
M  V30 2578 H 241.168 -2.32724 3.10957 0
M  V30 2579 H 242.9 -2.27 3.35042 0
M  V30 2580 H 239.655 -0.747446 4.67665 0
M  V30 2581 H 240.079 0.907924 6.70884 0
M  V30 2582 H 244.721 -0.541741 4.19315 0
M  V30 2583 H 242.439 2.04242 7.81864 0
M  V30 2584 H 246.025 0.866642 5.75309 0
M  V30 2585 H 244.905 2.1409 7.5441 0
M  V30 2586 N 242.408 -1.52605 -0.393616 0
M  V30 2587 C 243.824 -1.41753 -0.733357 0
M  V30 2588 C 244.024 -0.534293 -1.94287 0
M  V30 2589 O 243.08 -0.0059787 -2.52499 0
M  V30 2590 C 244.393 -2.84531 -0.972772 0
M  V30 2591 C 245.941 -2.93978 -1.07453 0
M  V30 2592 C 246.416 -4.37756 -1.3466 0
M  V30 2593 N 247.907 -4.4106 -1.41492 0
M  V30 2594 C 248.642 -5.49387 -1.642 0
M  V30 2595 N 248.138 -6.67806 -1.8441 0
M  V30 2596 N 249.931 -5.36923 -1.66342 0
M  V30 2597 H 242.082 -2.08555 0.402328 0
M  V30 2598 H 244.345 -0.940654 0.117789 0
M  V30 2599 H 244.051 -3.51353 -0.156204 0
M  V30 2600 H 243.925 -3.26508 -1.88871 0
M  V30 2601 H 246.312 -2.27326 -1.88167 0
M  V30 2602 H 246.393 -2.55435 -0.136605 0
M  V30 2603 H 246.037 -5.04972 -0.544581 0
M  V30 2604 H 245.967 -4.73848 -2.2973 0
M  V30 2605 H 248.458 -3.55705 -1.27601 0
M  V30 2606 H 248.771 -7.46141 -2.01231 0
M  V30 2607 H 247.116 -6.70843 -1.81644 0
M  V30 2608 H 250.307 -4.43381 -1.50102 0
M  V30 2609 H 250.48 -6.21416 -1.837 0
M  V30 2610 N 243.887 0.651787 -1.4349 0
M  V30 2611 C 245.164 1.40909 -1.35661 0
M  V30 2612 C 245.544 2.11099 -0.00511733 0
M  V30 2613 O 244.892 2.04892 1.0115 0
M  V30 2614 C 245.102 2.3926 -2.54078 0
M  V30 2615 C 246.45 3.03217 -2.97228 0
M  V30 2616 O 247.474 2.49588 -2.54135 0
M  V30 2617 O 246.333 4.00455 -3.71885 0
M  V30 2618 H 243.427 0.629625 -0.536191 0
M  V30 2619 H 245.973 0.678575 -1.55542 0
M  V30 2620 H 244.745 1.86352 -3.44076 0
M  V30 2621 H 244.368 3.1976 -2.36303 0
M  V30 2622 N 245.365 1.30045 0.890287 0
M  V30 2623 C 246.614 1.17929 1.63633 0
M  V30 2624 C 246.927 -0.266204 1.9378 0
M  V30 2625 O 248.133 -0.508804 2.6669 0
M  V30 2626 C 246.589 2.06317 2.94892 0
M  V30 2627 C 246.197 3.55745 2.72305 0
M  V30 2628 C 247.941 2.0295 3.72843 0
M  V30 2629 C 245.848 4.36205 3.99348 0
M  V30 2630 H 244.778 0.437782 0.613892 0
M  V30 2631 H 247.429 1.54754 0.986075 0
M  V30 2632 H 245.811 1.6237 3.61182 0
M  V30 2633 H 246.985 4.07805 2.1455 0
M  V30 2634 H 245.3 3.6088 2.07737 0
M  V30 2635 H 247.897 2.60319 4.67053 0
M  V30 2636 H 248.24 1.0117 4.0382 0
M  V30 2637 H 248.773 2.4499 3.13408 0
M  V30 2638 H 245.512 5.38659 3.73533 0
M  V30 2639 H 245.032 3.8891 4.56628 0
M  V30 2640 H 246.711 4.47362 4.67415 0
M  V30 2641 N 246.843 -1.10192 1.12674 0
M  V30 2642 C 248.089 -1.82475 0.884915 0
M  V30 2643 C 248.422 -1.85093 -0.58773 0
M  V30 2644 O 247.697 -1.3134 -1.43457 0
M  V30 2645 C 247.98 -3.29018 1.46353 0
M  V30 2646 C 247.833 -3.34718 3.00473 0
M  V30 2647 C 249.152 -4.25473 1.12519 0
M  V30 2648 H 246.271 -0.662492 0.322915 0
M  V30 2649 H 248.913 -1.2913 1.39375 0
M  V30 2650 H 247.063 -3.74576 1.03077 0
M  V30 2651 H 248.735 -2.97622 3.52447 0
M  V30 2652 H 246.978 -2.74541 3.35872 0
M  V30 2653 H 247.649 -4.37918 3.36053 0
M  V30 2654 H 250.125 -3.88161 1.499 0
M  V30 2655 H 249.001 -5.26365 1.55663 0
M  V30 2656 H 249.262 -4.42084 0.0377407 0
M  V30 2657 N 248.321 -0.919034 -1.28029 0
M  V30 2658 C 249.546 -0.570357 -1.99403 0
M  V30 2659 C 249.971 0.842486 -1.68178 0
M  V30 2660 O 249.329 1.56391 -0.917141 0
M  V30 2661 C 249.377 -0.792541 -3.51783 0
M  V30 2662 O 248.481 0.145988 -4.12142 0
M  V30 2663 H 247.822 -0.220555 -0.6263 0
M  V30 2664 H 250.352 -1.23592 -1.63053 0
M  V30 2665 H 250.362 -0.704708 -4.01868 0
M  V30 2666 H 249.037 -1.82247 -3.73844 0
M  V30 2667 H 247.614 0.00897528 -3.72899 0
M  V30 2668 N 249.799 1.42003 -0.683588 0
M  V30 2669 C 251.024 2.06265 -0.216647 0
M  V30 2670 C 251.449 1.51059 1.12083 0
M  V30 2671 O 250.807 0.632638 1.69904 0
M  V30 2672 C 250.855 3.60191 -0.171759 0
M  V30 2673 O 249.959 4.03396 0.857069 0
M  V30 2674 H 249.3 0.65502 -0.108834 0
M  V30 2675 H 251.83 1.81982 -0.935077 0
M  V30 2676 H 251.84 4.08 0.0014303 0
M  V30 2677 H 250.515 3.99743 -1.14796 0
M  V30 2678 H 249.092 3.67117 0.654208 0
M  V30 2679 N 251.277 0.427512 1.51691 0
M  V30 2680 C 252.554 -0.201684 1.94557 0
M  V30 2681 C 252.934 -1.60981 1.36559 0
M  V30 2682 O 252.282 -2.21814 0.548702 0
M  V30 2683 C 252.492 -0.189394 3.48486 0
M  V30 2684 C 253.84 -0.39978 4.22714 0
M  V30 2685 O 254.864 -0.267945 3.55191 0
M  V30 2686 O 253.723 -0.661249 5.42485 0
M  V30 2687 H 250.817 -0.135261 0.815864 0
M  V30 2688 H 253.363 0.484782 1.62628 0
M  V30 2689 H 252.135 0.795431 3.8313 0
M  V30 2690 H 251.758 -0.919187 3.86829 0
M  V30 2691 N 252.755 -1.56801 0.158532 0
M  V30 2692 C 254.002 -1.9649 -0.489679 0
M  V30 2693 C 254.33 -1.04394 -1.6411 0
M  V30 2694 O 253.585 -0.0754401 -1.95555 0
M  V30 2695 C 253.884 -3.4235 -1.02623 0
M  V30 2696 C 253.55 -4.50899 0.00794526 0
M  V30 2697 C 252.212 -4.80312 0.292207 0
M  V30 2698 C 254.564 -5.16333 0.710584 0
M  V30 2699 C 251.892 -5.72461 1.28472 0
M  V30 2700 C 254.244 -6.09553 1.69199 0
M  V30 2701 C 252.908 -6.37339 1.98383 0
M  V30 2702 H 252.178 -0.719009 -0.179186 0
M  V30 2703 H 254.825 -1.8989 0.247798 0
M  V30 2704 H 253.13 -3.45838 -1.84128 0
M  V30 2705 H 254.827 -3.70393 -1.53656 0
M  V30 2706 H 251.417 -4.28015 -0.22379 0
M  V30 2707 H 255.601 -4.93732 0.504174 0
M  V30 2708 H 250.857 -5.92278 1.51714 0
M  V30 2709 H 255.031 -6.59327 2.24189 0
M  V30 2710 H 252.658 -7.08546 2.7544 0
M  V30 2711 N 254.233 0.115231 -1.57178 0
M  V30 2712 C 255.163 1.1423 -2.03651 0
M  V30 2713 C 256.144 1.42967 -0.921655 0
M  V30 2714 O 257.329 1.53343 -1.19162 0
M  V30 2715 C 254.459 2.4675 -2.44401 0
M  V30 2716 C 253.413 2.32467 -3.59365 0
M  V30 2717 C 252.739 3.69984 -3.86026 0
M  V30 2718 C 254.039 1.78203 -4.90959 0
M  V30 2719 H 255.733 0.755749 -2.89705 0
M  V30 2720 H 253.279 0.362093 -1.39373 0
M  V30 2721 H 255.232 3.18854 -2.75517 0
M  V30 2722 H 253.956 2.87302 -1.55322 0
M  V30 2723 H 252.615 1.62811 -3.28463 0
M  V30 2724 H 252.263 4.08028 -2.94147 0
M  V30 2725 H 251.963 3.61279 -4.63412 0
M  V30 2726 H 253.487 4.43587 -4.19599 0
M  V30 2727 H 254.901 2.40128 -5.20587 0
M  V30 2728 H 253.298 1.8031 -5.72371 0
M  V30 2729 H 254.368 0.739876 -4.79222 0
M  V30 2730 N 255.711 1.52812 0.385517 0
M  V30 2731 C 256.936 1.72207 1.15583 0
M  V30 2732 C 257.361 0.441034 1.82857 0
M  V30 2733 O 256.719 -0.603465 1.70962 0
M  V30 2734 C 256.767 2.87476 2.17692 0
M  V30 2735 O 255.871 2.54693 3.24354 0
M  V30 2736 H 255.212 0.572526 0.336319 0
M  V30 2737 H 257.742 1.99618 0.448744 0
M  V30 2738 H 257.752 3.13072 2.6163 0
M  V30 2739 H 256.427 3.80408 1.68115 0
M  V30 2740 H 255.004 2.3985 2.85529 0
M  V30 2741 N 257.189 -0.644168 1.43834 0
M  V30 2742 C 258.137 -1.77793 1.49974 0
M  V30 2743 C 259.131 -1.65253 0.372536 0
M  V30 2744 O 260.337 -1.7149 0.546924 0
M  V30 2745 H 256.712 -0.58675 0.47035 0
M  V30 2746 H 258.683 -1.69736 2.45423 0
M  V30 2747 C 257.432 -3.16087 1.4486 0
M  V30 2748 H 256.755 -3.26378 2.30905 0
M  V30 2749 H 258.195 -3.95349 1.53217 0
M  V30 2750 C 256.654 -3.36484 0.167463 0
M  V30 2751 O 257.184 -3.94298 -0.767609 0
M  V30 2752 N 255.39 -2.90504 0.0747556 0
M  V30 2753 H 254.937 -2.4364 0.836507 0
M  V30 2754 H 254.895 -3.04527 -0.781714 0
M  V30 2755 N 258.668 -1.30515 -0.883378 0
M  V30 2756 C 259.601 -1.11359 -1.99184 0
M  V30 2757 C 260.579 -0.0207858 -1.62587 0
M  V30 2758 O 261.763 -0.174646 -1.87689 0
M  V30 2759 C 258.89 -0.69871 -3.31415 0
M  V30 2760 C 257.936 -1.79261 -3.86998 0
M  V30 2761 S 258.769 -3.39536 -4.14096 0
M  V30 2762 C 259.925 -2.99954 -5.49344 0
M  V30 2763 H 260.158 -2.052 -2.15128 0
M  V30 2764 H 257.691 -1.14847 -1.03196 0
M  V30 2765 H 259.649 -0.466075 -4.07846 0
M  V30 2766 H 258.31 0.220368 -3.13326 0
M  V30 2767 H 257.503 -1.45464 -4.82552 0
M  V30 2768 H 257.105 -1.97961 -3.17313 0
M  V30 2769 H 259.397 -2.48013 -6.30473 0
M  V30 2770 H 260.34 -3.9442 -5.8808 0
M  V30 2771 H 260.748 -2.37775 -5.1198 0
M  V30 2772 N 260.146 1.09593 -1.13257 0
M  V30 2773 C 261.371 1.8604 -0.916732 0
M  V30 2774 C 261.796 1.80504 0.529146 0
M  V30 2775 O 261.154 1.18127 1.37534 0
M  V30 2776 C 261.202 3.32017 -1.40703 0
M  V30 2777 O 260.306 4.08141 -0.591153 0
M  V30 2778 H 259.647 0.576943 -0.328683 0
M  V30 2779 H 262.177 1.38405 -1.50682 0
M  V30 2780 H 262.187 3.82865 -1.4099 0
M  V30 2781 H 260.862 3.35361 -2.45979 0
M  V30 2782 H 259.439 3.67084 -0.656005 0
M  V30 2783 N 261.624 0.925811 1.2754 0
M  V30 2784 C 262.557 0.367836 2.25216 0
M  V30 2785 C 263.535 -0.534738 1.53556 0
M  V30 2786 O 264.719 -0.475672 1.824 0
M  V30 2787 C 261.846 -0.47298 3.35381 0
M  V30 2788 C 260.892 0.365898 4.24928 0
M  V30 2789 S 261.725 1.78025 5.05042 0
M  V30 2790 C 262.881 0.947068 6.18693 0
M  V30 2791 H 263.114 1.19568 2.72196 0
M  V30 2792 H 260.647 0.727867 1.36167 0
M  V30 2793 H 262.605 -0.952242 3.99303 0
M  V30 2794 H 261.266 -1.27533 2.87044 0
M  V30 2795 H 260.459 -0.277582 5.03235 0
M  V30 2796 H 260.061 0.779261 3.65792 0
M  V30 2797 H 262.353 0.182201 6.77255 0
M  V30 2798 H 263.296 1.70309 6.87314 0
M  V30 2799 H 263.704 0.489913 5.6237 0
M  V30 2800 N 263.102 -1.41638 0.69111 0
M  V30 2801 C 264.379 -1.95036 0.148421 0
M  V30 2802 C 264.759 -1.63072 -1.34055 0
M  V30 2803 O 264.107 -0.93538 -2.08478 0
M  V30 2804 C 264.317 -3.46279 0.434951 0
M  V30 2805 C 265.665 -4.23069 0.360275 0
M  V30 2806 O 266.689 -3.54277 0.369613 0
M  V30 2807 O 265.548 -5.45583 0.316534 0
M  V30 2808 H 262.642 -0.826908 0.0123654 0
M  V30 2809 H 265.188 -1.5138 0.766963 0
M  V30 2810 H 263.96 -3.6281 1.46576 0
M  V30 2811 H 263.583 -3.97019 -0.214787 0
M  V30 2812 N 264.58 -0.43555 -1.51462 0
M  V30 2813 C 265.827 0.131514 -2.02072 0
M  V30 2814 C 266.155 1.42868 -1.31981 0
M  V30 2815 O 265.41 1.91076 -0.422883 0
M  V30 2816 C 265.709 0.39942 -3.55161 0
M  V30 2817 C 265.375 -0.81172 -4.43533 0
M  V30 2818 C 264.037 -1.14387 -4.67407 0
M  V30 2819 C 266.389 -1.61976 -4.95392 0
M  V30 2820 C 263.717 -2.28477 -5.40384 0
M  V30 2821 C 266.069 -2.75164 -5.6962 0
M  V30 2822 C 264.733 -3.08835 -5.91758 0
M  V30 2823 H 264.003 0.0481244 -0.739436 0
M  V30 2824 H 266.65 -0.58238 -1.8243 0
M  V30 2825 H 264.955 1.19519 -3.73125 0
M  V30 2826 H 266.652 0.85157 -3.91854 0
M  V30 2827 H 263.242 -0.542898 -4.25148 0
M  V30 2828 H 267.426 -1.37637 -4.76833 0
M  V30 2829 H 262.682 -2.5488 -5.55739 0
M  V30 2830 H 266.856 -3.38147 -6.08793 0
M  V30 2831 H 264.483 -3.97353 -6.48086 0
M  V30 2832 N 266.058 1.56714 -0.166846 0
M  V30 2833 C 266.99 2.14914 0.796537 0
M  V30 2834 C 268.003 1.10357 1.19688 0
M  V30 2835 O 269.192 1.37561 1.13751 0
M  V30 2836 C 266.292 2.67326 2.08303 0
M  V30 2837 C 265.465 3.96493 1.84696 0
M  V30 2838 C 264.524 4.34014 2.97521 0
M  V30 2839 O 263.55 5.01973 2.6835 0
M  V30 2840 N 264.752 3.95208 4.25196 0
M  V30 2841 H 267.517 2.98205 0.299006 0
M  V30 2842 H 265.078 1.61892 0.0160839 0
M  V30 2843 H 267.07 2.89428 2.82867 0
M  V30 2844 H 265.64 1.88649 2.4926 0
M  V30 2845 H 264.86 3.82814 0.940602 0
M  V30 2846 H 266.148 4.8086 1.66285 0
M  V30 2847 H 265.546 3.40487 4.51758 0
M  V30 2848 H 264.103 4.2232 4.96477 0
M  V30 2849 N 267.536 -0.106894 1.57237 0
M  V30 2850 C 268.484 -1.14944 2.02215 0
M  V30 2851 C 269.478 -1.42167 0.92114 0
M  V30 2852 O 270.684 -1.41987 1.10634 0
M  V30 2853 H 267.059 -0.387841 0.64427 0
M  V30 2854 H 269.03 -0.743683 2.88984 0
M  V30 2855 C 267.779 -2.4647 2.4525 0
M  V30 2856 H 267.102 -2.26363 3.29545 0
M  V30 2857 H 268.542 -3.17948 2.80508 0
M  V30 2858 C 267.001 -3.09921 1.321 0
M  V30 2859 O 267.531 -3.9651 0.643622 0
M  V30 2860 N 265.737 -2.69986 1.07497 0
M  V30 2861 H 265.284 -1.99667 1.62761 0
M  V30 2862 H 265.242 -3.12769 0.319876 0
M  V30 2863 N 269.014 -1.53014 -0.377408 0
M  V30 2864 C 269.964 -1.74996 -1.46152 0
M  V30 2865 C 270.948 -0.604236 -1.49123 0
M  V30 2866 O 272.14 -0.862489 -1.54564 0
M  V30 2867 C 269.269 -1.93267 -2.8373 0
M  V30 2868 C 268.355 -3.13807 -2.85283 0
M  V30 2869 N 268.746 -4.35941 -2.56493 0
M  V30 2870 C 267.044 -3.14288 -3.16448 0
M  V30 2871 C 267.745 -5.17615 -2.65424 0
M  V30 2872 N 266.721 -4.53559 -2.99641 0
M  V30 2873 H 270.523 -2.67044 -1.22738 0
M  V30 2874 H 268.037 -1.51479 -0.585479 0
M  V30 2875 H 270.034 -2.0714 -3.61799 0
M  V30 2876 H 268.694 -1.0244 -3.08117 0
M  V30 2877 H 269.705 -4.63876 -2.30302 0
M  V30 2878 H 266.382 -2.33312 -3.46225 0
M  V30 2879 H 267.772 -6.25006 -2.46612 0
M  V30 2880 N 270.492 0.636531 -1.44174 0
M  V30 2881 C 271.422 1.76003 -1.53444 0
M  V30 2882 C 272.403 1.65619 -0.387841 0
M  V30 2883 O 273.588 1.84461 -0.607257 0
M  V30 2884 C 270.718 3.14511 -1.4731 0
M  V30 2885 C 269.672 3.39677 -2.60391 0
M  V30 2886 C 268.998 4.78159 -2.39308 0
M  V30 2887 C 270.298 3.32772 -4.02567 0
M  V30 2888 H 271.992 1.68501 -2.47483 0
M  V30 2889 H 269.538 0.809237 -1.19111 0
M  V30 2890 H 271.491 3.92878 -1.52397 0
M  V30 2891 H 270.215 3.22783 -0.49785 0
M  V30 2892 H 268.874 2.63688 -2.54684 0
M  V30 2893 H 268.522 4.83128 -1.39988 0
M  V30 2894 H 268.222 4.95956 -3.15122 0
M  V30 2895 H 269.746 5.58762 -2.46205 0
M  V30 2896 H 271.16 4.01051 -4.09672 0
M  V30 2897 H 269.557 3.62104 -4.7854 0
M  V30 2898 H 270.627 2.30669 -4.2652 0
M  V30 2899 N 271.97 1.30982 0.876444 0
M  V30 2900 C 273.218 1.20058 1.62575 0
M  V30 2901 C 273.539 -0.242947 1.93481 0
M  V30 2902 O 272.809 -1.1619 1.57724 0
M  V30 2903 H 271.389 0.44135 0.602677 0
M  V30 2904 H 274.051 1.64222 1.04962 0
M  V30 2905 H 273.147 1.76762 2.57219 0
M  V30 2906 N 273.449 -1.08991 1.13837 0
M  V30 2907 C 274.674 -1.85551 0.926585 0
M  V30 2908 C 275.099 -1.80782 -0.519566 0
M  V30 2909 O 274.457 -1.18855 -1.36906 0
M  V30 2910 C 274.505 -3.31266 1.42462 0
M  V30 2911 O 273.609 -4.07822 0.612789 0
M  V30 2912 H 272.95 -0.575192 0.331738 0
M  V30 2913 H 275.48 -1.37604 1.51414 0
M  V30 2914 H 275.49 -3.82112 1.43019 0
M  V30 2915 H 274.165 -3.34052 2.47754 0
M  V30 2916 H 272.742 -3.66731 0.675463 0
M  V30 2917 N 274.927 -0.932562 -1.27047 0
M  V30 2918 C 276.167 -0.582919 -1.95912 0
M  V30 2919 C 276.531 0.860629 -1.71631 0
M  V30 2920 O 277.732 1.31878 -2.34225 0
M  V30 2921 C 276.003 -0.905673 -3.45734 0
M  V30 2922 S 277.562 -0.665277 -4.33727 0
M  V30 2923 H 274.38 -0.215 -0.677714 0
M  V30 2924 H 276.982 -1.20204 -1.54179 0
M  V30 2925 H 275.686 -1.95386 -3.60905 0
M  V30 2926 H 275.217 -0.275939 -3.92431 0
M  V30 2927 H 277.232 0.474635 -4.93925 0
M  V30 2928 N 276.405 1.4127 -0.698611 0
M  V30 2929 C 277.337 2.292 0.00399731 0
M  V30 2930 C 278.35 1.44944 0.741279 0
M  V30 2931 O 279.539 1.68416 0.591477 0
M  V30 2932 C 276.639 3.22875 1.02979 0
M  V30 2933 C 275.812 4.35904 0.36151 0
M  V30 2934 C 274.871 5.10134 1.29033 0
M  V30 2935 O 273.897 5.63809 0.781562 0
M  V30 2936 N 275.099 5.17885 2.6225 0
M  V30 2937 H 277.864 2.9014 -0.750921 0
M  V30 2938 H 275.425 1.52455 -0.544882 0
M  V30 2939 H 277.417 3.69404 1.65296 0
M  V30 2940 H 275.987 2.63221 1.68622 0
M  V30 2941 H 275.207 3.91719 -0.441584 0
M  V30 2942 H 276.495 5.08696 -0.103055 0
M  V30 2943 H 275.893 4.7573 3.061 0
M  V30 2944 H 274.45 5.6798 3.19754 0
M  V30 2945 N 277.883 0.443576 1.51229 0
M  V30 2946 C 278.83 -0.364716 2.279 0
M  V30 2947 C 279.8 -1.0114 1.31757 0
M  V30 2948 O 280.985 -1.02912 1.60667 0
M  V30 2949 C 278.125 -1.45644 3.12861 0
M  V30 2950 C 277.238 -0.827269 4.24005 0
M  V30 2951 C 276.373 -1.89456 4.96266 0
M  V30 2952 C 275.412 -1.24416 5.99322 0
M  V30 2953 N 274.549 -2.25309 6.64966 0
M  V30 2954 H 279.389 0.295464 2.96532 0
M  V30 2955 H 276.926 0.157554 1.46254 0
M  V30 2956 H 278.884 -2.10076 3.6045 0
M  V30 2957 H 277.514 -2.08616 2.46331 0
M  V30 2958 H 276.566 -0.0710839 3.80334 0
M  V30 2959 H 277.878 -0.312481 4.9782 0
M  V30 2960 H 277.032 -2.61535 5.47434 0
M  V30 2961 H 275.771 -2.4431 4.22095 0
M  V30 2962 H 274.776 -0.508868 5.4744 0
M  V30 2963 H 276.001 -0.702882 6.75453 0
M  V30 2964 H 273.947 -2.79231 5.93604 0
M  V30 2965 H 273.864 -1.78739 7.34567 0
M  V30 2966 H 275.132 -2.96853 7.20763 0
M  V30 2967 N 279.361 -1.56624 0.175154 0
M  V30 2968 C 280.601 -1.98894 -0.471221 0
M  V30 2969 C 280.965 -1.05889 -1.60161 0
M  V30 2970 O 282.166 -1.37315 -2.3108 0
M  V30 2971 C 280.437 -3.44865 -0.938241 0
M  V30 2972 S 281.996 -4.09164 -1.58526 0
M  V30 2973 H 278.814 -0.694686 -0.151434 0
M  V30 2974 H 281.416 -1.93577 0.27352 0
M  V30 2975 H 280.12 -4.10265 -0.10518 0
M  V30 2976 H 279.651 -3.53956 -1.71693 0
M  V30 2977 H 281.666 -4.04528 -2.87352 0
M  V30 2978 N 280.839 0.0985539 -1.57292 0
M  V30 2979 C 282.116 0.834155 -1.76921 0
M  V30 2980 C 282.496 1.97101 -0.755928 0
M  V30 2981 O 281.844 2.27474 0.216245 0
M  V30 2982 C 282.054 1.33194 -3.22584 0
M  V30 2983 C 283.402 1.77611 -3.85668 0
M  V30 2984 O 284.426 1.42825 -3.26312 0
M  V30 2985 O 283.285 2.4192 -4.90038 0
M  V30 2986 H 280.379 0.397628 -0.725135 0
M  V30 2987 H 282.925 0.0807044 -1.69508 0
M  V30 2988 H 281.697 0.517248 -3.87866 0
M  V30 2989 H 281.32 2.1475 -3.34616 0
M  V30 2990 N 282.317 1.53212 0.369288 0
M  V30 2991 C 283.728 1.60943 0.946276 0
M  V30 2992 C 284.079 0.47452 1.90375 0
M  V30 2993 O 283.204 -0.399597 2.12679 0
M  V30 2994 C 283.799 2.91715 1.72302 0
M  V30 2995 C 282.358 3.01792 2.24941 0
M  V30 2996 C 281.505 2.56211 1.06072 0
M  V30 2997 H 284.456 1.58007 0.148198 0
M  V30 2998 H 284.477 2.79309 2.58393 0
M  V30 2999 H 283.989 3.74295 1.0259 0
M  V30 3000 H 282.09 2.23791 2.97906 0
M  V30 3001 H 282.203 4.06803 2.53077 0
M  V30 3002 H 280.567 2.10998 1.4266 0
M  V30 3003 H 281.35 3.41206 0.378639 0
M  V30 3004 N 283.795 -0.628877 1.44509 0
M  V30 3005 C 285.02 -1.42048 1.5112 0
M  V30 3006 C 285.445 -1.87594 0.137818 0
M  V30 3007 O 284.803 -1.58873 -0.873437 0
M  V30 3008 C 284.851 -2.61541 2.48251 0
M  V30 3009 O 283.955 -3.61453 1.98559 0
M  V30 3010 H 283.296 -0.424942 0.510216 0
M  V30 3011 H 285.826 -0.767374 1.89664 0
M  V30 3012 H 285.836 -3.09057 2.66361 0
M  V30 3013 H 284.511 -2.27736 3.48007 0
M  V30 3014 H 283.088 -3.20731 1.90227 0
M  V30 3015 N 285.273 -1.31445 -0.869486 0
M  V30 3016 C 286.513 -1.22458 -1.63656 0
M  V30 3017 C 286.877 0.213846 -1.90805 0
M  V30 3018 O 288.078 0.427212 -2.65383 0
M  V30 3019 C 286.349 -2.04564 -2.93067 0
M  V30 3020 S 287.908 -2.12445 -3.83944 0
M  V30 3021 H 284.726 -0.436145 -0.561514 0
M  V30 3022 H 287.328 -1.66114 -1.03085 0
M  V30 3023 H 286.032 -3.0816 -2.71045 0
M  V30 3024 H 285.563 -1.6163 -3.58663 0
M  V30 3025 H 287.578 -1.26312 -4.79854 0
M  V30 3026 N 286.751 1.08385 -1.14413 0
M  V30 3027 C 288.162 1.62258 -0.923535 0
M  V30 3028 C 288.513 1.88691 0.537595 0
M  V30 3029 O 287.638 1.64454 1.40655 0
M  V30 3030 C 288.233 2.94781 -1.67002 0
M  V30 3031 C 286.792 3.45437 -1.495 0
M  V30 3032 C 285.939 2.19668 -1.69238 0
M  V30 3033 H 288.89 0.916086 -1.2959 0
M  V30 3034 H 288.911 3.63229 -1.13334 0
M  V30 3035 H 288.423 2.7551 -2.73342 0
M  V30 3036 H 286.524 3.6981 -0.455097 0
M  V30 3037 H 286.637 4.22173 -2.2651 0
M  V30 3038 H 285.001 2.28849 -1.11804 0
M  V30 3039 H 285.784 2.02905 -2.7692 0
M  V30 3040 N 288.23 0.939286 1.26551 0
M  V30 3041 C 289.178 0.43815 2.28436 0
M  V30 3042 C 290.172 -0.483587 1.62351 0
M  V30 3043 O 291.378 -0.362009 1.76322 0
M  V30 3044 H 287.753 0.123149 0.741848 0
M  V30 3045 H 289.724 1.31002 2.68106 0
M  V30 3046 C 288.473 -0.283052 3.46546 0
M  V30 3047 H 287.796 0.417043 3.97619 0
M  V30 3048 H 289.236 -0.597948 4.19763 0
M  V30 3049 C 287.695 -1.50018 3.01656 0
M  V30 3050 O 288.225 -2.59855 3.0633 0
M  V30 3051 N 286.431 -1.35608 2.57019 0
M  V30 3052 H 285.978 -0.46244 2.53415 0
M  V30 3053 H 285.936 -2.17165 2.27347 0
M  V30 3054 N 289.708 -1.40897 0.706093 0
M  V30 3055 C 290.956 -2.00657 0.241054 0
M  V30 3056 C 291.277 -1.56241 -1.16678 0
M  V30 3057 O 290.547 -0.79765 -1.78926 0
M  V30 3058 H 289.127 -0.742018 0.0861308 0
M  V30 3059 H 291.789 -1.72372 0.909604 0
M  V30 3060 H 290.885 -3.10958 0.266705 0
M  V30 3061 N 291.186 -0.45159 -1.50991 0
M  V30 3062 C 292.411 0.110667 -2.07105 0
M  V30 3063 C 292.836 1.3446 -1.31538 0
M  V30 3064 O 292.194 1.77743 -0.357365 0
M  V30 3065 C 292.242 0.397238 -3.58405 0
M  V30 3066 O 291.346 1.48124 -3.84881 0
M  V30 3067 H 290.687 -0.00439271 -0.663985 0
M  V30 3068 H 293.217 -0.637026 -1.9443 0
M  V30 3069 H 293.227 0.64351 -4.02893 0
M  V30 3070 H 291.902 -0.504553 -4.12828 0
M  V30 3071 H 290.479 1.22381 -3.52246 0
M  V30 3072 N 292.664 1.56529 -0.183458 0
M  V30 3073 C 293.904 1.99141 0.460667 0
M  V30 3074 C 294.268 1.06736 1.59597 0
M  V30 3075 O 295.469 1.38538 2.30349 0
M  V30 3076 C 293.74 3.45358 0.919939 0
M  V30 3077 S 295.299 4.09999 1.56354 0
M  V30 3078 H 292.117 0.695479 0.147748 0
M  V30 3079 H 294.719 1.93429 -0.283782 0
M  V30 3080 H 293.423 4.10315 0.0834208 0
M  V30 3081 H 292.954 3.54862 1.69814 0
M  V30 3082 H 294.969 4.06046 2.85203 0
M  V30 3083 N 294.142 -0.090211 1.57342 0
M  V30 3084 C 295.388 -0.788838 1.8748 0
M  V30 3085 C 295.743 -1.76105 0.7749 0
M  V30 3086 O 295.036 -1.90302 -0.222663 0
M  V30 3087 C 295.23 -1.55222 3.21933 0
M  V30 3088 C 295.059 -0.655441 4.44898 0
M  V30 3089 C 293.829 -0.299325 5.04413 0
M  V30 3090 C 296.027 0.0397458 5.14285 0
M  V30 3091 N 294.009 0.605108 6.10911 0
M  V30 3092 C 295.38 0.802061 6.1479 0
M  V30 3093 C 297.435 0.113154 4.97771 0
M  V30 3094 C 296.138 1.63093 7.00566 0
M  V30 3095 C 298.164 0.928942 5.84059 0
M  V30 3096 C 297.526 1.67936 6.84088 0
M  V30 3097 H 293.625 -0.26467 0.735849 0
M  V30 3098 H 296.209 -0.0511453 1.94633 0
M  V30 3099 H 294.38 -2.26076 3.15823 0
M  V30 3100 H 296.112 -2.19843 3.39781 0
M  V30 3101 H 292.867 -0.648079 4.69145 0
M  V30 3102 H 293.291 1.05002 6.68808 0
M  V30 3103 H 297.933 -0.452676 4.2037 0
M  V30 3104 H 295.651 2.20781 7.77355 0
M  V30 3105 H 299.237 0.988478 5.73341 0
M  V30 3106 H 298.117 2.30044 7.49699 0
M  V30 3107 N 295.62 -1.53406 -0.361157 0
M  V30 3108 C 296.868 -1.69467 -1.10115 0
M  V30 3109 C 297.189 -0.451352 -1.89705 0
M  V30 3110 O 296.459 0.534636 -1.88463 0
M  V30 3111 H 295.039 -0.624749 -0.409508 0
M  V30 3112 H 297.701 -1.90609 -0.406699 0
M  V30 3113 H 296.797 -2.55774 -1.78847 0
M  V30 3114 N 297.098 0.621204 -1.44841 0
M  V30 3115 C 298.061 1.71459 -1.521 0
M  V30 3116 C 299.061 1.55696 -0.401933 0
M  V30 3117 O 300.251 1.61011 -0.664925 0
M  V30 3118 C 297.383 3.10624 -1.40447 0
M  V30 3119 H 298.576 1.66394 -2.49506 0
M  V30 3120 H 296.129 0.835745 -1.3208 0
M  V30 3121 H 296.864 3.21277 -0.441737 0
M  V30 3122 H 296.649 3.23473 -2.21602 0
M  V30 3123 H 298.139 3.90293 -1.4853 0
M  V30 3124 N 298.576 1.31904 0.862503 0
M  V30 3125 C 299.824 1.21776 1.61292 0
M  V30 3126 C 300.145 -0.222413 1.93727 0
M  V30 3127 O 299.415 -1.1451 1.58947 0
M  V30 3128 H 297.995 0.447717 0.597962 0
M  V30 3129 H 300.657 1.65326 1.03215 0
M  V30 3130 H 299.753 1.7948 2.5533 0
M  V30 3131 N 300.054 -1.07777 1.14986 0
M  V30 3132 C 300.964 -2.18404 0.856546 0
M  V30 3133 C 301.98 -1.73211 -0.165485 0
M  V30 3134 O 303.156 -2.01399 0.00755219 0
M  V30 3135 C 300.221 -3.44977 0.34526 0
M  V30 3136 C 299.282 -4.0476 1.43065 0
M  V30 3137 C 298.515 -5.25291 0.943663 0
M  V30 3138 O 298.738 -5.70004 -0.212426 0
M  V30 3139 O 297.672 -5.76638 1.72547 0
M  V30 3140 H 301.498 -2.45978 1.78125 0
M  V30 3141 H 299.083 -1.17033 0.928631 0
M  V30 3142 H 300.965 -4.21348 0.0663671 0
M  V30 3143 H 299.64 -3.18965 -0.551631 0
M  V30 3144 H 298.547 -3.29949 1.76309 0
M  V30 3145 H 299.88 -4.35035 2.30229 0
M  V30 3146 N 301.532 -0.945985 -1.26051 0
M  V30 3147 C 302.442 -0.465633 -2.29933 0
M  V30 3148 C 303.458 0.462761 -1.67733 0
M  V30 3149 O 304.634 0.341118 -1.9849 0
M  V30 3150 C 301.699 0.256994 -3.45746 0
M  V30 3151 C 300.76 -0.708549 -4.23412 0
M  V30 3152 C 299.993 -0.0203135 -5.33696 0
M  V30 3153 O 300.216 1.19571 -5.57726 0
M  V30 3154 O 299.15 -0.701459 -5.97799 0
M  V30 3155 H 302.976 -1.32866 -2.73094 0
M  V30 3156 H 300.561 -0.712071 -1.31339 0
M  V30 3157 H 302.443 0.663852 -4.16138 0
M  V30 3158 H 301.118 1.09533 -3.04605 0
M  V30 3159 H 300.025 -1.16545 -3.55483 0
M  V30 3160 H 301.358 -1.51465 -4.68315 0
M  V30 3161 N 303.011 1.40521 -0.713556 0
M  V30 3162 C 303.959 2.32549 -0.0485227 0
M  V30 3163 C 304.953 1.51931 0.74922 0
M  V30 3164 O 306.159 1.67745 0.652816 0
M  V30 3165 H 302.534 0.751994 0.00311138 0
M  V30 3166 H 304.505 2.86291 -0.841443 0
M  V30 3167 C 303.254 3.36879 0.860687 0
M  V30 3168 H 302.577 3.98978 0.256246 0
M  V30 3169 H 304.017 4.03772 1.294 0
M  V30 3170 C 302.476 2.72197 1.9852 0
M  V30 3171 O 303.006 2.5837 3.07584 0
M  V30 3172 N 301.212 2.30612 1.76823 0
M  V30 3173 H 300.759 2.42059 0.881217 0
M  V30 3174 H 300.717 1.87672 2.52243 0
M  V30 3175 N 304.489 0.459591 1.5075 0
M  V30 3176 C 305.729 -0.09824 2.04164 0
M  V30 3177 C 306.093 -1.3801 1.33481 0
M  V30 3178 O 307.294 -2.01959 1.77387 0
M  V30 3179 C 305.565 -0.289467 3.56226 0
M  V30 3180 S 307.124 -0.807507 4.31306 0
M  V30 3181 H 303.942 -0.0213845 0.710678 0
M  V30 3182 H 306.544 0.624098 1.85271 0
M  V30 3183 H 305.248 0.649461 4.05229 0
M  V30 3184 H 304.779 -1.03825 3.79452 0
M  V30 3185 H 306.794 -2.0824 4.50389 0
M  V30 3186 N 305.967 -1.56429 0.191757 0
M  V30 3187 C 306.899 -2.16154 -0.762245 0
M  V30 3188 C 307.912 -1.12247 -1.17917 0
M  V30 3189 O 309.101 -1.39353 -1.11548 0
M  V30 3190 C 306.201 -2.70606 -2.04024 0
M  V30 3191 C 305.374 -3.99381 -1.78364 0
M  V30 3192 C 304.433 -4.38692 -2.90578 0
M  V30 3193 O 303.459 -5.06179 -2.6033 0
M  V30 3194 N 304.661 -4.01922 -4.18854 0
M  V30 3195 H 307.426 -2.98643 -0.251526 0
M  V30 3196 H 304.987 -1.61897 0.00967373 0
M  V30 3197 H 306.979 -2.93891 -2.78227 0
M  V30 3198 H 305.549 -1.9259 -2.46227 0
M  V30 3199 H 304.769 -3.84262 -0.879581 0
M  V30 3200 H 306.057 -4.83445 -1.58614 0
M  V30 3201 H 305.455 -3.47631 -4.46283 0
M  V30 3202 H 304.012 -4.30165 -4.89695 0
M  V30 3203 N 307.445 0.0818655 -1.57387 0
M  V30 3204 C 308.392 1.09834 -2.0299 0
M  V30 3205 C 309.362 1.39043 -0.908639 0
M  V30 3206 O 310.547 1.50282 -1.17559 0
M  V30 3207 C 307.687 2.40971 -2.47037 0
M  V30 3208 C 306.8 2.18379 -3.7274 0
M  V30 3209 C 305.935 3.43008 -4.0561 0
M  V30 3210 C 304.974 3.15736 -5.24383 0
M  V30 3211 N 304.111 4.32667 -5.52941 0
M  V30 3212 H 308.951 0.702472 -2.89602 0
M  V30 3213 H 306.488 0.33531 -1.43227 0
M  V30 3214 H 308.446 3.1752 -2.70623 0
M  V30 3215 H 307.076 2.78379 -1.63417 0
M  V30 3216 H 306.128 1.32569 -3.56552 0
M  V30 3217 H 307.44 1.94227 -4.59431 0
M  V30 3218 H 306.594 4.27958 -4.30043 0
M  V30 3219 H 305.333 3.70225 -3.17466 0
M  V30 3220 H 304.338 2.2918 -4.99757 0
M  V30 3221 H 305.563 2.8985 -6.14136 0
M  V30 3222 H 303.509 4.59935 -4.67756 0
M  V30 3223 H 303.426 4.11753 -6.34031 0
M  V30 3224 H 304.694 5.18644 -5.81918 0
M  V30 3225 N 308.923 1.53595 0.353017 0
M  V30 3226 C 309.853 1.83902 1.43883 0
M  V30 3227 C 310.834 0.693421 1.55324 0
M  V30 3228 O 312.019 0.944452 1.69687 0
M  V30 3229 C 309.149 2.04016 2.8106 0
M  V30 3230 C 308.103 3.19814 2.84434 0
M  V30 3231 C 307.429 3.25244 4.24406 0
M  V30 3232 C 308.729 4.58133 2.50822 0
M  V30 3233 H 310.423 2.74835 1.1877 0
M  V30 3234 H 307.969 1.32242 0.569917 0
M  V30 3235 H 309.922 2.238 3.57059 0
M  V30 3236 H 308.646 1.09804 3.07588 0
M  V30 3237 H 307.305 2.9987 2.10887 0
M  V30 3238 H 306.953 2.28646 4.48029 0
M  V30 3239 H 306.653 4.03054 4.27576 0
M  V30 3240 H 308.177 3.47228 5.0226 0
M  V30 3241 H 309.591 4.77995 3.16534 0
M  V30 3242 H 307.988 5.38276 2.6529 0
M  V30 3243 H 309.058 4.62387 1.46034 0
M  V30 3244 N 310.401 -0.613514 1.45168 0
M  V30 3245 C 311.629 -1.39946 1.5239 0
M  V30 3246 C 312.044 -1.88167 0.154531 0
M  V30 3247 O 311.401 -1.61872 -0.842843 0
M  V30 3248 C 311.452 -2.60795 2.50337 0
M  V30 3249 O 311.173 -2.1458 3.81952 0
M  V30 3250 C 312.674 -3.53723 2.67198 0
M  V30 3251 H 309.894 -0.428593 0.516284 0
M  V30 3252 H 312.438 -0.748753 1.903 0
M  V30 3253 H 310.593 -3.21919 2.15515 0
M  V30 3254 H 311.007 -2.93055 4.34993 0
M  V30 3255 H 312.481 -4.35079 3.39721 0
M  V30 3256 H 312.958 -4.0368 1.73029 0
M  V30 3257 H 313.564 -2.98456 3.02992 0
M  V30 3258 N 311.879 -1.3236 -0.855495 0
M  V30 3259 C 312.826 -1.21225 -1.964 0
M  V30 3260 C 313.796 -0.0946204 -1.6583 0
M  V30 3261 O 314.981 -0.27002 -1.8888 0
M  V30 3262 C 312.121 -0.940419 -3.32039 0
M  V30 3263 C 311.234 -2.14276 -3.75113 0
M  V30 3264 C 310.369 -1.80648 -4.9954 0
M  V30 3265 C 309.408 -2.97208 -5.35102 0
M  V30 3266 N 308.545 -2.63678 -6.50706 0
M  V30 3267 H 313.385 -2.16042 -2.05255 0
M  V30 3268 H 310.922 -1.07451 -1.00463 0
M  V30 3269 H 312.88 -0.763311 -4.10158 0
M  V30 3270 H 311.51 -0.0290413 -3.22787 0
M  V30 3271 H 310.562 -2.43017 -2.92655 0
M  V30 3272 H 311.874 -3.01468 -3.97389 0
M  V30 3273 H 311.028 -1.59484 -5.85363 0
M  V30 3274 H 309.767 -0.906678 -4.79198 0
M  V30 3275 H 308.772 -3.19004 -4.47791 0
M  V30 3276 H 309.997 -3.87918 -5.57401 0
M  V30 3277 H 307.943 -1.76238 -6.31883 0
M  V30 3278 H 307.86 -3.444 -6.72997 0
M  V30 3279 H 309.128 -2.45942 -7.39684 0
M  V30 3280 N 313.357 1.07166 -1.15556 0
M  V30 3281 C 314.606 1.79181 -0.926132 0
M  V30 3282 C 314.919 1.87768 0.547967 0
M  V30 3283 O 316.125 2.56323 0.895036 0
M  V30 3284 C 314.581 3.22 -1.60761 0
M  V30 3285 C 314.189 3.21607 -3.11886 0
M  V30 3286 C 315.933 3.9861 -1.4598 0
M  V30 3287 C 313.84 4.59092 -3.72812 0
M  V30 3288 H 312.77 0.67154 -0.342856 0
M  V30 3289 H 315.421 1.2027 -1.3859 0
M  V30 3290 H 313.803 3.81115 -1.07553 0
M  V30 3291 H 314.977 2.72127 -3.71865 0
M  V30 3292 H 313.292 2.58495 -3.2645 0
M  V30 3293 H 315.889 5.00225 -1.88888 0
M  V30 3294 H 316.232 4.143 -0.407541 0
M  V30 3295 H 316.765 3.45996 -1.96295 0
M  V30 3296 H 313.504 4.48606 -4.77946 0
M  V30 3297 H 313.024 5.08803 -3.17616 0
M  V30 3298 H 314.703 5.28059 -3.73848 0
M  V30 3299 N 314.835 0.952656 1.25548 0
M  V30 3300 C 316.084 0.602053 1.92505 0
M  V30 3301 C 316.397 -0.864663 1.75451 0
M  V30 3302 O 317.603 -1.32514 2.36965 0
M  V30 3303 C 316.059 1.02607 3.44963 0
M  V30 3304 C 315.667 2.51519 3.70732 0
M  V30 3305 C 317.411 0.747905 4.1786 0
M  V30 3306 C 315.318 2.87732 5.16686 0
M  V30 3307 H 314.248 0.22146 0.720744 0
M  V30 3308 H 316.899 1.15684 1.42441 0
M  V30 3309 H 315.281 0.399712 3.93978 0
M  V30 3310 H 316.455 3.19157 3.32378 0
M  V30 3311 H 314.77 2.76786 3.11092 0
M  V30 3312 H 317.367 0.994647 5.25367 0
M  V30 3313 H 317.71 -0.315629 4.15102 0
M  V30 3314 H 318.243 1.33452 3.74747 0
M  V30 3315 H 314.982 3.93095 5.24554 0
M  V30 3316 H 314.502 2.24765 5.56094 0
M  V30 3317 H 316.181 2.76817 5.84792 0
M  V30 3318 N 316.313 -1.40141 0.720998 0
M  V30 3319 C 317.553 -2.02644 0.267335 0
M  V30 3320 C 317.917 -1.55948 -1.12001 0
M  V30 3321 O 319.118 -2.10552 -1.67097 0
M  V30 3322 C 317.389 -3.55679 0.350281 0
M  V30 3323 S 318.948 -4.38793 -0.0256004 0
M  V30 3324 H 315.766 -0.703105 0.105664 0
M  V30 3325 H 318.368 -1.71175 0.944416 0
M  V30 3326 H 317.072 -3.87157 1.36153 0
M  V30 3327 H 316.603 -3.91883 -0.345096 0
M  V30 3328 H 318.618 -4.803 -1.24604 0
M  V30 3329 N 317.792 -0.46758 -1.50504 0
M  V30 3330 C 318.755 0.317059 -2.26996 0
M  V30 3331 C 319.755 0.923513 -1.31635 0
M  V30 3332 O 320.945 0.793239 -1.55091 0
M  V30 3333 C 318.077 1.45134 -3.08462 0
M  V30 3334 H 319.27 -0.353723 -2.97807 0
M  V30 3335 H 316.823 -0.221545 -1.54722 0
M  V30 3336 H 317.558 2.15728 -2.4214 0
M  V30 3337 H 317.343 1.02232 -3.78538 0
M  V30 3338 H 318.833 2.00493 -3.66323 0
M  V30 3339 N 319.27 1.56325 -0.20005 0
M  V30 3340 C 320.202 2.16555 0.750771 0
M  V30 3341 C 321.215 1.12871 1.1732 0
M  V30 3342 O 322.404 1.39943 1.10807 0
M  V30 3343 C 319.504 2.71684 2.02586 0
M  V30 3344 C 318.677 4.00321 1.76244 0
M  V30 3345 C 317.736 4.40227 2.88248 0
M  V30 3346 O 316.762 5.07552 2.57642 0
M  V30 3347 N 317.964 4.04138 4.16717 0
M  V30 3348 H 320.729 2.98772 0.235685 0
M  V30 3349 H 318.29 1.6189 -0.0182594 0
M  V30 3350 H 320.282 2.95363 2.76664 0
M  V30 3351 H 318.852 1.93893 2.45202 0
M  V30 3352 H 318.072 3.84723 0.85919 0
M  V30 3353 H 319.36 4.84279 1.56048 0
M  V30 3354 H 318.758 3.49993 4.44434 0
M  V30 3355 H 317.315 4.32756 4.87407 0
M  V30 3356 N 320.748 -0.0735177 1.57428 0
M  V30 3357 C 321.68 -1.11423 2.00294 0
M  V30 3358 C 322.693 -1.35084 0.908637 0
M  V30 3359 O 323.882 -1.33355 1.18654 0
M  V30 3360 C 320.982 -2.46548 2.32523 0
M  V30 3361 C 320.155 -2.42867 3.63778 0
M  V30 3362 C 319.214 -3.60087 3.83697 0
M  V30 3363 O 318.24 -3.41595 4.55304 0
M  V30 3364 N 319.442 -4.80372 3.25919 0
M  V30 3365 H 322.207 -0.749206 2.90184 0
M  V30 3366 H 319.768 -0.262195 1.59763 0
M  V30 3367 H 321.76 -3.23607 2.43024 0
M  V30 3368 H 320.33 -2.75059 1.48531 0
M  V30 3369 H 319.55 -1.51206 3.64047 0
M  V30 3370 H 320.838 -2.37506 4.49965 0
M  V30 3371 H 320.236 -4.983 2.67795 0
M  V30 3372 H 318.793 -5.54948 3.41871 0
M  V30 3373 N 322.226 -1.5378 -0.344866 0
M  V30 3374 C 323.466 -1.72677 -1.09371 0
M  V30 3375 C 323.83 -0.479084 -1.85927 0
M  V30 3376 O 325.031 -0.54505 -2.63216 0
M  V30 3377 C 323.302 -2.95457 -2.01097 0
M  V30 3378 S 324.861 -3.35158 -2.83222 0
M  V30 3379 H 321.679 -0.607402 -0.369573 0
M  V30 3380 H 324.281 -1.91922 -0.372307 0
M  V30 3381 H 322.985 -3.84437 -1.43655 0
M  V30 3382 H 322.516 -2.78673 -2.77678 0
M  V30 3383 H 324.531 -2.88789 -4.03504 0
M  V30 3384 N 323.704 0.605807 -1.45491 0
M  V30 3385 C 324.929 1.39625 -1.53361 0
M  V30 3386 C 325.354 1.87351 -0.167645 0
M  V30 3387 O 324.712 1.60243 0.848051 0
M  V30 3388 C 324.76 2.57559 -2.5238 0
M  V30 3389 O 323.864 3.58248 -2.04285 0
M  V30 3390 H 323.205 0.416771 -0.516912 0
M  V30 3391 H 325.735 0.737103 -1.90861 0
M  V30 3392 H 325.745 3.0478 -2.71244 0
M  V30 3393 H 324.42 2.22171 -3.51586 0
M  V30 3394 H 322.997 3.17664 -1.95305 0
M  V30 3395 N 325.182 1.32811 0.848464 0
M  V30 3396 C 326.43 1.23479 1.59991 0
M  V30 3397 C 326.751 -0.201853 1.93952 0
M  V30 3398 O 326.021 -1.12818 1.60153 0
M  V30 3399 H 324.601 0.454034 0.593179 0
M  V30 3400 H 327.263 1.66412 1.01455 0
M  V30 3401 H 326.359 1.82178 2.53412 0
M  V30 3402 N 326.66 -1.06551 1.16123 0
M  V30 3403 C 328.076 -1.3142 0.905585 0
M  V30 3404 C 328.276 -1.96571 -0.442964 0
M  V30 3405 O 327.332 -2.23068 -1.18308 0
M  V30 3406 C 328.645 -2.19741 2.05267 0
M  V30 3407 C 330.193 -2.33165 2.08813 0
M  V30 3408 C 330.668 -3.24838 3.22868 0
M  V30 3409 N 332.159 -3.32421 3.22568 0
M  V30 3410 C 332.894 -4.0344 4.0746 0
M  V30 3411 N 332.39 -4.77003 5.02434 0
M  V30 3412 N 334.183 -3.99464 3.95456 0
M  V30 3413 H 326.334 -0.626548 2.02949 0
M  V30 3414 H 328.597 -0.338777 0.8854 0
M  V30 3415 H 328.303 -1.79142 3.02657 0
M  V30 3416 H 328.177 -3.20313 1.99198 0
M  V30 3417 H 330.564 -2.73013 1.12018 0
M  V30 3418 H 330.645 -1.3227 2.18948 0
M  V30 3419 H 330.289 -2.85708 4.19921 0
M  V30 3420 H 330.219 -4.25707 3.0997 0
M  V30 3421 H 332.71 -2.79994 2.53795 0
M  V30 3422 H 333.023 -5.28712 5.63634 0
M  V30 3423 H 331.368 -4.75992 5.06415 0
M  V30 3424 H 334.559 -3.4111 3.20564 0
M  V30 3425 H 334.732 -4.54544 4.61837 0
M  V30 3426 N 328.138 -0.959301 -1.25041 0
M  V30 3427 C 329.378 -0.624343 -1.94631 0
M  V30 3428 C 329.742 0.82403 -1.73418 0
M  V30 3429 O 330.943 1.26881 -2.3697 0
M  V30 3430 C 329.214 -0.978805 -3.43736 0
M  V30 3431 S 330.773 -0.757127 -4.32219 0
M  V30 3432 H 327.591 -0.229327 -0.673001 0
M  V30 3433 H 330.193 -1.23447 -1.51595 0
M  V30 3434 H 328.897 -2.02997 -3.56679 0
M  V30 3435 H 328.428 -0.359117 -3.91757 0
M  V30 3436 H 330.443 0.369759 -4.9482 0
M  V30 3437 N 329.616 1.39756 -0.72842 0
M  V30 3438 C 331.032 1.5442 -0.403308 0
M  V30 3439 C 331.232 1.69694 1.08656 0
M  V30 3440 O 330.288 1.69373 1.87267 0
M  V30 3441 C 331.601 2.76555 -1.18058 0
M  V30 3442 C 333.149 2.90384 -1.16815 0
M  V30 3443 C 333.624 4.15449 -1.92785 0
M  V30 3444 N 335.115 4.22475 -1.89918 0
M  V30 3445 C 335.85 5.1818 -2.45514 0
M  V30 3446 N 335.346 6.19714 -3.09719 0
M  V30 3447 N 337.139 5.1035 -2.35584 0
M  V30 3448 H 329.29 1.28089 -1.69431 0
M  V30 3449 H 331.553 0.620327 -0.716867 0
M  V30 3450 H 331.259 2.7159 -2.23455 0
M  V30 3451 H 331.133 3.69033 -0.780662 0
M  V30 3452 H 333.52 2.94846 -0.12234 0
M  V30 3453 H 333.601 1.98988 -1.6074 0
M  V30 3454 H 333.245 4.11749 -2.97364 0
M  V30 3455 H 333.175 5.05877 -1.46272 0
M  V30 3456 H 335.666 3.49743 -1.43138 0
M  V30 3457 H 335.979 6.8919 -3.49625 0
M  V30 3458 H 334.324 6.20121 -3.13807 0
M  V30 3459 H 337.515 4.2996 -1.85072 0
M  V30 3460 H 337.688 5.84761 -2.79211 0
M  V30 3461 N 331.094 0.475555 1.50254 0
M  V30 3462 C 332.342 -0.077738 2.0195 0
M  V30 3463 C 332.663 -1.39813 1.35931 0
M  V30 3464 O 331.933 -1.89249 0.506123 0
M  V30 3465 H 330.513 -0.031719 0.746326 0
M  V30 3466 H 333.175 0.626995 1.84539 0
M  V30 3467 H 332.271 -0.225995 3.11281 0
M  V30 3468 N 332.573 -1.56217 0.208337 0
M  V30 3469 C 333.52 -2.19699 -0.707192 0
M  V30 3470 C 334.49 -1.14836 -1.20008 0
M  V30 3471 O 335.675 -1.4314 -1.26157 0
M  V30 3472 C 332.815 -2.87061 -1.91546 0
M  V30 3473 C 331.928 -4.06483 -1.46271 0
M  V30 3474 C 331.063 -4.61665 -2.62752 0
M  V30 3475 C 330.102 -5.73417 -2.14147 0
M  V30 3476 N 329.239 -6.22948 -3.23853 0
M  V30 3477 H 334.079 -2.97575 -0.159111 0
M  V30 3478 H 331.616 -1.46948 -0.0667874 0
M  V30 3479 H 333.574 -3.24294 -2.62468 0
M  V30 3480 H 332.204 -2.11725 -2.43664 0
M  V30 3481 H 331.256 -3.74825 -0.648886 0
M  V30 3482 H 332.568 -4.87271 -1.06622 0
M  V30 3483 H 331.722 -5.01272 -3.41776 0
M  V30 3484 H 330.461 -3.80013 -3.05682 0
M  V30 3485 H 329.466 -5.33326 -1.33581 0
M  V30 3486 H 330.691 -6.56897 -1.72232 0
M  V30 3487 H 328.637 -5.44213 -3.6629 0
M  V30 3488 H 328.554 -6.98823 -2.88414 0
M  V30 3489 H 329.822 -6.6721 -4.03052 0
M  V30 3490 N 334.051 0.0651679 -1.57465 0
M  V30 3491 C 335.276 0.779605 -1.9219 0
M  V30 3492 C 335.701 1.69988 -0.805333 0
M  V30 3493 O 335.059 1.79685 0.241435 0
M  V30 3494 C 335.107 1.54364 -3.2589 0
M  V30 3495 O 334.211 2.65474 -3.1559 0
M  V30 3496 H 333.552 0.212249 -0.629163 0
M  V30 3497 H 336.082 0.0314294 -2.04576 0
M  V30 3498 H 336.092 1.92146 -3.59922 0
M  V30 3499 H 334.767 0.868457 -4.06732 0
M  V30 3500 H 333.344 2.30501 -2.93128 0
M  V30 3501 N 335.529 1.53961 0.336706 0
M  V30 3502 C 336.94 1.62914 0.911925 0
M  V30 3503 C 337.291 0.514795 1.89326 0
M  V30 3504 O 336.416 -0.354395 2.13478 0
M  V30 3505 C 337.011 2.95304 1.66076 0
M  V30 3506 C 335.57 3.06496 2.18489 0
M  V30 3507 C 334.717 2.58403 1.00613 0
M  V30 3508 H 337.668 1.58285 0.114649 0
M  V30 3509 H 337.689 2.84727 2.5241 0
M  V30 3510 H 337.201 3.76387 0.946276 0
M  V30 3511 H 335.302 2.3006 2.93092 0
M  V30 3512 H 335.415 4.1208 2.44391 0
M  V30 3513 H 333.779 2.13977 1.38152 0
M  V30 3514 H 334.562 3.41932 0.306179 0
M  V30 3515 N 337.007 -0.598083 1.45811 0
M  V30 3516 C 338.232 -1.3881 1.54099 0
M  V30 3517 C 338.657 -1.8726 0.177578 0
M  V30 3518 O 338.015 -1.6069 -0.839541 0
M  V30 3519 C 338.063 -2.56217 2.53743 0
M  V30 3520 O 337.167 -3.5716 2.06182 0
M  V30 3521 H 336.508 -0.414024 0.519115 0
M  V30 3522 H 339.038 -0.726971 1.91249 0
M  V30 3523 H 339.048 -3.03337 2.72856 0
M  V30 3524 H 337.723 -2.20303 3.5276 0
M  V30 3525 H 336.3 -3.16624 1.96987 0
M  V30 3526 N 338.485 -1.33259 -0.841409 0
M  V30 3527 C 339.762 -1.15174 -1.58096 0
M  V30 3528 C 340.142 0.282858 -2.09196 0
M  V30 3529 O 339.49 1.28151 -1.89181 0
M  V30 3530 C 339.7 -2.1907 -2.71679 0
M  V30 3531 C 341.048 -2.53093 -3.40924 0
M  V30 3532 O 342.072 -2.17717 -2.81918 0
M  V30 3533 O 340.931 -3.1379 -4.47435 0
M  V30 3534 H 338.025 -0.445303 -0.696875 0
M  V30 3535 H 340.571 -1.44833 -0.884385 0
M  V30 3536 H 339.343 -3.15443 -2.31541 0
M  V30 3537 H 338.966 -1.90481 -3.49002 0
M  V30 3538 N 339.963 1.05934 -1.16686 0
M  V30 3539 C 341.203 1.80382 -0.961345 0
M  V30 3540 C 341.567 1.85331 0.501643 0
M  V30 3541 O 342.768 2.55795 0.825986 0
M  V30 3542 C 341.039 3.20777 -1.57596 0
M  V30 3543 S 342.598 4.11795 -1.51559 0
M  V30 3544 H 339.416 0.621332 -0.345641 0
M  V30 3545 H 342.018 1.27157 -1.48497 0
M  V30 3546 H 340.722 3.14773 -2.63337 0
M  V30 3547 H 340.253 3.79078 -1.05182 0
M  V30 3548 H 342.268 4.93485 -0.518374 0
M  V30 3549 N 341.441 0.965919 1.2453 0
M  V30 3550 C 342.681 0.634656 1.94297 0
M  V30 3551 C 343.045 -0.814822 1.73852 0
M  V30 3552 O 344.246 -1.25622 2.3764 0
M  V30 3553 C 342.517 0.99702 3.43212 0
M  V30 3554 S 344.076 0.780038 4.31811 0
M  V30 3555 H 340.894 0.232893 0.671775 0
M  V30 3556 H 343.496 1.24249 1.50938 0
M  V30 3557 H 342.2 2.04886 3.55598 0
M  V30 3558 H 341.731 0.379888 3.91562 0
M  V30 3559 H 343.746 -0.343512 4.9501 0
M  V30 3560 N 342.919 -1.39368 0.735821 0
M  V30 3561 C 343.869 -2.27885 0.0724287 0
M  V30 3562 C 344.853 -1.44301 -0.711756 0
M  V30 3563 O 346.045 -1.67206 -0.58063 0
M  V30 3564 C 343.174 -3.33029 -0.833454 0
M  V30 3565 C 342.26 -4.24078 -0.0433749 0
M  V30 3566 N 342.651 -4.96138 0.983903 0
M  V30 3567 C 340.949 -4.45164 -0.272905 0
M  V30 3568 C 341.65 -5.63069 1.4604 0
M  V30 3569 N 340.626 -5.37991 0.778857 0
M  V30 3570 H 344.428 -2.81052 0.859467 0
M  V30 3571 H 341.942 -1.5206 0.570227 0
M  V30 3572 H 343.939 -3.95311 -1.32419 0
M  V30 3573 H 342.599 -2.81421 -1.61964 0
M  V30 3574 H 343.61 -4.9958 1.36528 0
M  V30 3575 H 340.287 -4.04497 -1.03383 0
M  V30 3576 H 341.677 -6.30755 2.31511 0
M  V30 3577 N 344.397 -0.483516 -1.5 0
M  V30 3578 C 345.345 0.318061 -2.30415 0
M  V30 3579 C 346.339 0.978988 -1.38247 0
M  V30 3580 O 347.545 0.908673 -1.55381 0
M  V30 3581 H 343.92 0.121419 -0.742133 0
M  V30 3582 H 345.891 -0.380403 -2.95965 0
M  V30 3583 C 344.64 1.38013 -3.19136 0
M  V30 3584 H 343.963 0.880952 -3.89973 0
M  V30 3585 H 345.403 1.91332 -3.78375 0
M  V30 3586 C 343.862 2.38884 -2.37563 0
M  V30 3587 O 344.392 3.44412 -2.06744 0
M  V30 3588 N 342.598 2.10912 -1.99911 0
M  V30 3589 H 342.145 1.25118 -2.25174 0
M  V30 3590 H 342.103 2.78635 -1.45636 0
M  V30 3591 N 345.875 1.56104 -0.216619 0
M  V30 3592 C 346.807 2.17339 0.72776 0
M  V30 3593 C 347.82 1.14109 1.16116 0
M  V30 3594 O 349.009 1.4111 1.09317 0
M  V30 3595 C 346.109 2.73818 1.99693 0
M  V30 3596 C 345.282 4.02168 1.71988 0
M  V30 3597 C 344.341 4.43259 2.83562 0
M  V30 3598 O 343.367 5.10257 2.52244 0
M  V30 3599 N 344.569 4.08535 4.12407 0
M  V30 3600 H 347.334 2.99005 0.203983 0
M  V30 3601 H 344.895 1.61861 -0.0354289 0
M  V30 3602 H 346.887 2.9828 2.73516 0
M  V30 3603 H 345.457 1.96483 2.43132 0
M  V30 3604 H 344.677 3.85612 0.818337 0
M  V30 3605 H 345.965 4.85907 1.50903 0
M  V30 3606 H 345.363 3.54687 4.40696 0
M  V30 3607 H 343.92 4.37901 4.8279 0
M  V30 3608 N 347.353 -0.0568162 1.57498 0
M  V30 3609 C 348.593 -0.758273 1.89815 0
M  V30 3610 C 348.957 -1.73978 0.812132 0
M  V30 3611 O 350.158 -2.48744 1.01881 0
M  V30 3612 C 348.429 -1.43465 3.27342 0
M  V30 3613 S 349.988 -2.1691 3.81439 0
M  V30 3614 H 346.806 -0.251836 0.664906 0
M  V30 3615 H 349.408 -0.0137997 1.95495 0
M  V30 3616 H 348.112 -0.706693 4.0427 0
M  V30 3617 H 347.643 -2.21825 3.24896 0
M  V30 3618 H 349.658 -3.43658 3.5793 0
M  V30 3619 N 348.832 -1.54138 -0.328536 0
M  V30 3620 C 349.795 -1.82462 -1.38709 0
M  V30 3621 C 350.795 -0.696229 -1.44946 0
M  V30 3622 O 351.985 -0.964535 -1.4506 0
M  V30 3623 C 349.117 -1.98018 -2.77492 0
M  V30 3624 H 350.31 -2.77037 -1.14851 0
M  V30 3625 H 347.863 -1.45779 -0.563751 0
M  V30 3626 H 348.598 -1.05637 -3.06613 0
M  V30 3627 H 348.383 -2.80124 -2.74359 0
M  V30 3628 H 349.873 -2.21396 -3.54081 0
M  V30 3629 N 350.31 0.590341 -1.46126 0
M  V30 3630 C 351.273 1.68194 -1.55703 0
M  V30 3631 C 352.273 1.54808 -0.434868 0
M  V30 3632 O 353.463 1.59564 -0.698928 0
M  V30 3633 C 350.595 3.07575 -1.47005 0
M  V30 3634 H 351.788 1.61064 -2.52979 0
M  V30 3635 H 349.341 0.807541 -1.33823 0
M  V30 3636 H 350.076 3.20268 -0.509785 0
M  V30 3637 H 349.861 3.187 -2.28414 0
M  V30 3638 H 351.351 3.87055 -1.56776 0
M  V30 3639 N 351.788 1.33704 0.83433 0
M  V30 3640 C 353.036 1.25169 1.58673 0
M  V30 3641 C 353.357 -0.18127 1.94156 0
M  V30 3642 O 352.627 -1.11113 1.6134 0
M  V30 3643 H 351.207 0.4603 0.58833 0
M  V30 3644 H 353.869 1.67478 0.996847 0
M  V30 3645 H 352.965 1.84856 2.51465 0
M  V30 3646 N 353.266 -1.05314 1.17247 0
M  V30 3647 C 354.506 -1.79869 0.970898 0
M  V30 3648 C 354.87 -1.85594 -0.491808 0
M  V30 3649 O 356.071 -2.56229 -0.812409 0
M  V30 3650 C 354.342 -3.19937 1.59295 0
M  V30 3651 S 355.901 -4.10986 1.53741 0
M  V30 3652 H 352.719 -0.61949 0.348931 0
M  V30 3653 H 355.321 -1.26368 1.49169 0
M  V30 3654 H 354.025 -3.13372 2.65003 0
M  V30 3655 H 353.556 -3.78515 1.07191 0
M  V30 3656 H 355.571 -4.93203 0.544537 0
M  V30 3657 N 354.744 -0.972509 -1.24016 0
M  V30 3658 C 355.972 -0.654803 -1.96265 0
M  V30 3659 C 356.387 0.776708 -1.72083 0
M  V30 3660 O 355.744 1.52171 -1.00748 0
M  V30 3661 C 355.795 -0.92592 -3.49441 0
M  V30 3662 O 355.516 -2.30116 -3.72798 0
M  V30 3663 C 357.017 -0.623068 -4.38899 0
M  V30 3664 H 354.237 -0.243907 -0.6251 0
M  V30 3665 H 356.781 -1.30175 -1.57717 0
M  V30 3666 H 354.936 -0.325108 -3.86033 0
M  V30 3667 H 355.35 -2.38483 -4.67147 0
M  V30 3668 H 356.824 -0.863189 -5.45209 0
M  V30 3669 H 357.301 0.442754 -4.36963 0
M  V30 3670 H 357.907 -1.204 -4.07902 0
M  V30 3671 N 356.222 1.38976 -0.743202 0
M  V30 3672 C 357.47 1.99948 -0.29417 0
M  V30 3673 C 357.791 1.59279 1.12495 0
M  V30 3674 O 357.061 0.844808 1.76748 0
M  V30 3675 H 355.641 0.739473 -0.105774 0
M  V30 3676 H 358.303 1.699 -0.954986 0
M  V30 3677 H 357.399 3.10142 -0.349056 0
M  V30 3678 N 357.7 0.491464 1.49741 0
M  V30 3679 C 359.111 0.0413169 1.86654 0
M  V30 3680 C 359.462 -1.36985 1.40462 0
M  V30 3681 O 358.587 -2.01917 0.778354 0
M  V30 3682 C 359.182 0.0682023 3.38731 0
M  V30 3683 C 357.741 -0.32656 3.74981 0
M  V30 3684 C 356.888 0.444888 2.73708 0
M  V30 3685 H 359.839 0.704733 1.42194 0
M  V30 3686 H 359.86 -0.729322 3.73445 0
M  V30 3687 H 359.372 1.09539 3.72321 0
M  V30 3688 H 357.473 -1.35734 3.46997 0
M  V30 3689 H 357.586 -0.013741 4.79098 0
M  V30 3690 H 355.95 -0.104062 2.54487 0
M  V30 3691 H 356.733 1.47197 3.10142 0
M  V30 3692 N 359.178 -1.55987 0.224894 0
M  V30 3693 C 360.594 -1.59066 -0.130426 0
M  V30 3694 C 360.794 -1.24176 -1.5869 0
M  V30 3695 O 359.85 -0.978592 -2.32766 0
M  V30 3696 C 361.163 -3.00042 0.198883 0
M  V30 3697 C 362.711 -3.1268 0.141391 0
M  V30 3698 C 363.186 -4.55839 0.444422 0
M  V30 3699 N 364.677 -4.6152 0.394115 0
M  V30 3700 C 365.412 -5.70231 0.602038 0
M  V30 3701 N 364.908 -6.87291 0.871914 0
M  V30 3702 N 366.701 -5.59555 0.534245 0
M  V30 3703 H 358.852 -1.76941 1.17497 0
M  V30 3704 H 361.115 -0.822604 0.471197 0
M  V30 3705 H 360.821 -3.30234 1.2099 0
M  V30 3706 H 360.695 -3.74075 -0.484535 0
M  V30 3707 H 363.082 -2.82283 -0.860265 0
M  V30 3708 H 363.163 -2.40969 0.858335 0
M  V30 3709 H 362.807 -4.86954 1.44353 0
M  V30 3710 H 362.737 -5.2578 -0.293752 0
M  V30 3711 H 365.228 -3.77405 0.193356 0
M  V30 3712 H 365.541 -7.66058 1.01858 0
M  V30 3713 H 363.886 -6.89028 0.909145 0
M  V30 3714 H 367.077 -4.6698 0.323612 0
M  V30 3715 H 367.25 -6.44211 0.699693 0
M  V30 3716 N 360.656 0.0484629 -1.57525 0
M  V30 3717 C 361.566 1.07241 -2.08654 0
M  V30 3718 C 362.582 1.409 -1.02095 0
M  V30 3719 O 363.758 1.50609 -1.33712 0
M  V30 3720 C 360.823 2.36008 -2.5397 0
M  V30 3721 C 359.884 2.09108 -3.7493 0
M  V30 3722 C 359.117 3.31736 -4.18075 0
M  V30 3723 O 359.34 4.41714 -3.60895 0
M  V30 3724 O 358.274 3.18576 -5.10679 0
M  V30 3725 H 362.1 0.667965 -2.96263 0
M  V30 3726 H 359.685 0.26417 -1.47046 0
M  V30 3727 H 361.567 3.11747 -2.83535 0
M  V30 3728 H 360.242 2.75786 -1.69481 0
M  V30 3729 H 359.149 1.31 -3.50414 0
M  V30 3730 H 360.482 1.74198 -4.60343 0
M  V30 3731 N 362.134 1.5431 0.320358 0
M  V30 3732 C 363.359 1.76954 1.08175 0
M  V30 3733 C 363.784 0.518193 1.80821 0
M  V30 3734 O 363.142 -0.530411 1.73368 0
M  V30 3735 C 363.19 2.96451 2.05303 0
M  V30 3736 O 362.294 2.68221 3.13259 0
M  V30 3737 H 361.635 0.586275 0.311733 0
M  V30 3738 H 364.165 2.01342 0.363676 0
M  V30 3739 H 364.175 3.23887 2.48116 0
M  V30 3740 H 362.85 3.87196 1.51829 0
M  V30 3741 H 361.427 2.51744 2.75099 0
M  V30 3742 N 363.613 -0.582584 1.46437 0
M  V30 3743 C 364.89 -1.34276 1.4223 0
M  V30 3744 C 365.27 -2.10835 0.10583 0
M  V30 3745 O 364.618 -2.09485 -0.912596 0
M  V30 3746 C 364.828 -2.26865 2.65204 0
M  V30 3747 C 366.176 -2.88691 3.11356 0
M  V30 3748 O 367.2 -2.37178 2.65753 0
M  V30 3749 O 366.059 -3.82255 3.90568 0
M  V30 3750 H 363.153 -0.603326 0.565621 0
M  V30 3751 H 365.699 -0.603591 1.58603 0
M  V30 3752 H 364.471 -1.69724 3.52576 0
M  V30 3753 H 364.094 -3.08122 2.5129 0
M  V30 3754 N 365.091 -1.34144 -0.827227 0
M  V30 3755 C 366.331 -1.27603 -1.59677 0
M  V30 3756 C 366.695 0.153035 -1.91389 0
M  V30 3757 O 367.896 0.342566 -2.66608 0
M  V30 3758 C 366.167 -2.13784 -2.86411 0
M  V30 3759 S 367.726 -2.24552 -3.76991 0
M  V30 3760 H 364.544 -0.453789 -0.547354 0
M  V30 3761 H 367.146 -1.69309 -0.977479 0
M  V30 3762 H 365.85 -3.16627 -2.61104 0
M  V30 3763 H 365.381 -1.72959 -3.5334 0
M  V30 3764 H 367.396 -1.41514 -4.75593 0
M  V30 3765 N 366.569 1.04691 -1.17803 0
M  V30 3766 C 367.499 2.14494 -0.92275 0
M  V30 3767 C 368.48 1.69546 0.137179 0
M  V30 3768 O 369.665 1.94195 -0.0141108 0
M  V30 3769 C 366.795 3.44491 -0.440803 0
M  V30 3770 C 365.749 4.03031 -1.4405 0
M  V30 3771 C 365.075 5.28432 -0.81631 0
M  V30 3772 C 366.375 4.39932 -2.81527 0
M  V30 3773 H 368.069 2.36107 -1.84103 0
M  V30 3774 H 365.615 1.1347 -0.886599 0
M  V30 3775 H 367.568 4.2066 -0.249602 0
M  V30 3776 H 366.292 3.22546 0.513025 0
M  V30 3777 H 364.951 3.28937 -1.61853 0
M  V30 3778 H 364.599 5.02792 0.144511 0
M  V30 3779 H 364.299 5.68559 -1.48371 0
M  V30 3780 H 365.823 6.07284 -0.635496 0
M  V30 3781 H 367.237 5.07113 -2.67412 0
M  V30 3782 H 365.634 4.9109 -3.44892 0
M  V30 3783 H 366.704 3.50045 -3.35554 0
M  V30 3784 N 368.047 0.979072 1.23499 0
M  V30 3785 C 369.293 0.648178 1.92163 0
M  V30 3786 C 369.626 -0.816049 1.76222 0
M  V30 3787 O 368.901 -1.58849 1.12237 0
M  V30 3788 C 369.184 1.03773 3.44824 0
M  V30 3789 C 369.037 2.55948 3.69879 0
M  V30 3790 C 370.356 0.580653 4.36253 0
M  V30 3791 H 367.475 0.236952 0.69787 0
M  V30 3792 H 370.117 1.22012 1.45647 0
M  V30 3793 H 368.267 0.551058 3.84572 0
M  V30 3794 H 369.939 3.12179 3.3962 0
M  V30 3795 H 368.182 2.98641 3.14636 0
M  V30 3796 H 368.853 2.78255 4.76737 0
M  V30 3797 H 371.329 0.998465 4.03943 0
M  V30 3798 H 370.205 0.881663 5.41773 0
M  V30 3799 H 370.466 -0.519052 4.39042 0
M  V30 3800 N 369.525 -1.3858 0.750561 0
M  V30 3801 C 370.765 -2.02032 0.310258 0
M  V30 3802 C 371.129 -1.58288 -1.08668 0
M  V30 3803 O 372.33 -2.14049 -1.62593 0
M  V30 3804 C 370.601 -3.54856 0.425647 0
M  V30 3805 S 372.16 -4.38748 0.0674797 0
M  V30 3806 H 368.978 -0.700705 0.120554 0
M  V30 3807 H 371.58 -1.69134 0.980512 0
M  V30 3808 H 370.284 -3.84182 1.44335 0
M  V30 3809 H 369.815 -3.92527 -0.261894 0
M  V30 3810 H 371.83 -4.82835 -1.14388 0
M  V30 3811 N 371.003 -0.499398 -1.49478 0
M  V30 3812 C 372.419 -0.155261 -1.58843 0
M  V30 3813 C 372.619 1.34008 -1.50479 0
M  V30 3814 O 371.675 2.11589 -1.37791 0
M  V30 3815 C 372.988 -0.730636 -2.91689 0
M  V30 3816 C 374.536 -0.696599 -3.0515 0
M  V30 3817 C 375.011 -1.25001 -4.40612 0
M  V30 3818 N 376.502 -1.21064 -4.47099 0
M  V30 3819 C 377.237 -1.60905 -5.50361 0
M  V30 3820 N 376.733 -2.08331 -6.60735 0
M  V30 3821 N 378.526 -1.52331 -5.41065 0
M  V30 3822 H 370.677 -1.47162 -1.53158 0
M  V30 3823 H 372.94 -0.610309 -0.725415 0
M  V30 3824 H 372.646 -1.77928 -3.03372 0
M  V30 3825 H 372.52 -0.190161 -3.7672 0
M  V30 3826 H 374.907 0.343204 -2.93097 0
M  V30 3827 H 374.988 -1.2742 -2.21806 0
M  V30 3828 H 374.632 -2.28859 -4.53416 0
M  V30 3829 H 374.562 -0.64836 -5.22593 0
M  V30 3830 H 377.053 -0.863128 -3.67911 0
M  V30 3831 H 377.366 -2.36805 -7.35624 0
M  V30 3832 H 375.711 -2.12304 -6.6178 0
M  V30 3833 H 378.902 -1.151 -4.53729 0
M  V30 3834 H 379.075 -1.83704 -6.21415 0
M  V30 3835 N 372.481 1.55866 -0.233164 0
M  V30 3836 C 373.428 2.20796 0.67215 0
M  V30 3837 C 374.398 1.16731 1.18166 0
M  V30 3838 O 375.583 1.45129 1.23864 0
M  V30 3839 C 372.723 2.90072 1.86955 0
M  V30 3840 C 371.836 4.08759 1.39786 0
M  V30 3841 C 370.971 4.65787 2.55374 0
M  V30 3842 C 370.01 5.76752 2.04998 0
M  V30 3843 N 369.147 6.28021 3.13901 0
M  V30 3844 H 373.987 2.9779 0.111749 0
M  V30 3845 H 371.524 1.47036 0.0434007 0
M  V30 3846 H 373.482 3.28428 2.57276 0
M  V30 3847 H 372.112 2.15575 2.40265 0
M  V30 3848 H 371.164 3.7581 0.589173 0
M  V30 3849 H 372.476 4.88906 0.98856 0
M  V30 3850 H 371.63 5.06646 3.33758 0
M  V30 3851 H 370.369 3.84828 2.99598 0
M  V30 3852 H 369.374 5.35383 1.25079 0
M  V30 3853 H 370.599 6.59553 1.61759 0
M  V30 3854 H 368.545 5.49971 3.57586 0
M  V30 3855 H 368.462 7.03323 2.7726 0
M  V30 3856 H 369.73 6.73538 3.92386 0
M  V30 3857 N 373.959 -0.0401083 1.57549 0
M  V30 3858 C 375.206 -0.733125 1.88763 0
M  V30 3859 C 375.534 -1.75946 0.829058 0
M  V30 3860 O 374.789 -1.94949 -0.171323 0
M  V30 3861 C 375.088 -1.44902 3.26708 0
M  V30 3862 C 374.754 -0.559707 4.47413 0
M  V30 3863 C 373.416 -0.314731 4.8017 0
M  V30 3864 C 375.768 0.0549743 5.21171 0
M  V30 3865 C 373.096 0.553886 5.8408 0
M  V30 3866 C 375.448 0.911229 6.26003 0
M  V30 3867 C 374.112 1.16577 6.57241 0
M  V30 3868 H 373.382 -0.268269 0.690733 0
M  V30 3869 H 376.029 0.00679408 1.91499 0
M  V30 3870 H 374.334 -2.26197 3.1991 0
M  V30 3871 H 376.031 -1.99058 3.48105 0
M  V30 3872 H 372.621 -0.760793 4.21794 0
M  V30 3873 H 376.805 -0.121344 4.96152 0
M  V30 3874 H 372.061 0.759518 6.06664 0
M  V30 3875 H 376.235 1.3941 6.82303 0
M  V30 3876 H 373.862 1.84058 7.37582 0
M  V30 3877 N 375.437 -1.54477 -0.31217 0
M  V30 3878 C 376.853 -1.45442 -0.657185 0
M  V30 3879 C 377.053 -0.63653 -1.91182 0
M  V30 3880 O 376.109 -0.139815 -2.52113 0
M  V30 3881 C 377.422 -2.89287 -0.82058 0
M  V30 3882 C 378.97 -2.9926 -0.917188 0
M  V30 3883 C 379.445 -4.44279 -1.11267 0
M  V30 3884 N 380.936 -4.4794 -1.17914 0
M  V30 3885 C 381.671 -5.57318 -1.34848 0
M  V30 3886 N 381.167 -6.76642 -1.48752 0
M  V30 3887 N 382.96 -5.44986 -1.37647 0
M  V30 3888 H 375.111 -2.06129 0.512313 0
M  V30 3889 H 377.374 -0.933088 0.167485 0
M  V30 3890 H 377.08 -3.51687 0.0302604 0
M  V30 3891 H 376.954 -3.36061 -1.71298 0
M  V30 3892 H 379.341 -2.36981 -1.75852 0
M  V30 3893 H 379.422 -2.558 -0.00101257 0
M  V30 3894 H 379.066 -5.07149 -0.27614 0
M  V30 3895 H 378.996 -4.85359 -2.04289 0
M  V30 3896 H 381.487 -3.61969 -1.08567 0
M  V30 3897 H 381.8 -7.55758 -1.61397 0
M  V30 3898 H 380.145 -6.79529 -1.45828 0
M  V30 3899 H 383.336 -4.50715 -1.26388 0
M  V30 3900 H 383.509 -6.3028 -1.50501 0
M  V30 3901 N 376.915 0.57481 -1.46744 0
M  V30 3902 C 378.192 1.3352 -1.4294 0
M  V30 3903 C 378.572 2.10775 -0.117009 0
M  V30 3904 O 377.92 2.09966 0.901474 0
M  V30 3905 C 378.13 2.25456 -2.66403 0
M  V30 3906 C 379.478 2.87035 -3.12883 0
M  V30 3907 O 380.502 2.35766 -2.67007 0
M  V30 3908 O 379.361 3.80179 -3.92589 0
M  V30 3909 H 376.455 0.600318 -0.568812 0
M  V30 3910 H 379.001 0.595171 -1.58921 0
M  V30 3911 H 377.773 1.67851 -3.53471 0
M  V30 3912 H 377.396 3.06785 -2.52921 0
M  V30 3913 N 378.394 1.34581 0.820102 0
M  V30 3914 C 379.304 1.28471 1.96297 0
M  V30 3915 C 380.32 0.191902 1.72939 0
M  V30 3916 O 381.496 0.418879 1.96996 0
M  V30 3917 C 378.561 1.04281 3.30645 0
M  V30 3918 C 377.622 2.22745 3.66992 0
M  V30 3919 C 376.855 1.997 4.9493 0
M  V30 3920 O 377.078 0.956656 5.6232 0
M  V30 3921 O 376.012 2.86723 5.2922 0
M  V30 3922 H 379.838 2.24624 2.04396 0
M  V30 3923 H 377.423 1.14816 0.955913 0
M  V30 3924 H 379.305 0.925841 4.11104 0
M  V30 3925 H 377.98 0.111697 3.23507 0
M  V30 3926 H 376.887 2.40003 2.86966 0
M  V30 3927 H 378.22 3.14257 3.78819 0
M  V30 3928 N 379.872 -1.04064 1.18357 0
M  V30 3929 C 380.835 -2.10243 0.912707 0
M  V30 3930 C 381.835 -1.60477 -0.101928 0
M  V30 3931 O 383.025 -1.73703 0.131517 0
M  V30 3932 C 380.157 -3.38893 0.369387 0
M  V30 3933 H 381.35 -2.35706 1.85426 0
M  V30 3934 H 378.903 -1.20489 0.995594 0
M  V30 3935 H 379.638 -3.19094 -0.578776 0
M  V30 3936 H 379.423 -3.76331 1.1008 0
M  V30 3937 H 380.913 -4.17128 0.198575 0
M  V30 3938 N 381.35 -0.985608 -1.22978 0
M  V30 3939 C 382.578 -0.675582 -1.95559 0
M  V30 3940 C 382.993 0.758413 -1.72897 0
M  V30 3941 O 382.35 1.51094 -1.02357 0
M  V30 3942 C 382.401 -0.96293 -3.48439 0
M  V30 3943 O 382.122 -2.34057 -3.70336 0
M  V30 3944 C 383.623 -0.669585 -4.38214 0
M  V30 3945 H 380.843 -0.250523 -0.622478 0
M  V30 3946 H 383.387 -1.3184 -1.56328 0
M  V30 3947 H 381.542 -0.366033 -3.85667 0
M  V30 3948 H 381.956 -2.43424 -4.64591 0
M  V30 3949 H 383.43 -0.920967 -5.44263 0
M  V30 3950 H 383.907 0.396383 -4.37408 0
M  V30 3951 H 384.513 -1.2472 -4.06602 0
M  V30 3952 N 382.828 1.3818 -0.7579 0
M  V30 3953 C 384.068 2.01864 -0.320968 0
M  V30 3954 C 384.432 1.58863 1.07827 0
M  V30 3955 O 385.633 2.14908 1.61456 0
M  V30 3956 C 383.904 3.54626 -0.44446 0
M  V30 3957 S 385.463 4.38706 -0.0907467 0
M  V30 3958 H 382.281 0.700056 -0.124268 0
M  V30 3959 H 384.883 1.68611 -0.989468 0
M  V30 3960 H 383.587 3.83411 -1.4637 0
M  V30 3961 H 383.118 3.92661 0.241073 0
M  V30 3962 H 385.133 4.83435 1.11826 0
M  V30 3963 N 384.306 0.507319 1.49211 0
M  V30 3964 C 385.253 -0.267728 2.29242 0
M  V30 3965 C 386.223 -0.954609 1.35928 0
M  V30 3966 O 387.408 -0.960046 1.64887 0
M  V30 3967 C 384.548 -1.32243 3.18756 0
M  V30 3968 C 383.661 -0.64669 4.27132 0
M  V30 3969 C 382.796 -1.68238 5.03855 0
M  V30 3970 C 381.835 -0.98885 6.0406 0
M  V30 3971 N 380.972 -1.96903 6.73924 0
M  V30 3972 H 385.812 0.420968 2.95012 0
M  V30 3973 H 383.349 0.219443 1.45454 0
M  V30 3974 H 385.307 -1.94599 3.69036 0
M  V30 3975 H 383.937 -1.97981 2.54958 0
M  V30 3976 H 382.989 0.0902926 3.80293 0
M  V30 3977 H 384.301 -0.101058 4.98698 0
M  V30 3978 H 383.455 -2.38081 5.58034 0
M  V30 3979 H 382.194 -2.26187 4.32077 0
M  V30 3980 H 381.199 -0.276222 5.49106 0
M  V30 3981 H 382.424 -0.415767 6.77826 0
M  V30 3982 H 380.37 -2.53803 6.04913 0
M  V30 3983 H 380.287 -1.47423 7.41487 0
M  V30 3984 H 381.555 -2.66015 7.32705 0
M  V30 3985 N 385.784 -1.5574 0.241426 0
M  V30 3986 C 387.061 -1.90704 -0.434881 0
M  V30 3987 C 387.441 -1.16145 -1.76277 0
M  V30 3988 O 386.789 -0.277152 -2.26813 0
M  V30 3989 C 386.999 -3.43657 -0.608343 0
M  V30 3990 C 388.347 -4.14806 -0.906725 0
M  V30 3991 O 389.371 -3.49366 -0.694408 0
M  V30 3992 O 388.23 -5.30548 -1.31075 0
M  V30 3993 H 385.324 -0.793592 -0.23268 0
M  V30 3994 H 387.87 -1.67288 0.285086 0
M  V30 3995 H 386.642 -3.89927 0.327505 0
M  V30 3996 H 386.265 -3.72918 -1.37906 0
M  V30 3997 N 387.262 0.0317525 -1.57568 0
M  V30 3998 C 388.49 0.734949 -1.93407 0
M  V30 3999 C 388.905 1.69036 -0.84096 0
M  V30 4000 O 388.262 1.81582 0.182836 0
M  V30 4001 C 388.313 1.49432 -3.29169 0
M  V30 4002 O 388.034 0.577261 -4.3428 0
M  V30 4003 C 389.535 2.29492 -3.79273 0
M  V30 4004 H 386.755 0.206706 -0.638368 0
M  V30 4005 H 389.299 -0.00992046 -2.04498 0
M  V30 4006 H 387.454 2.1911 -3.19483 0
M  V30 4007 H 387.868 1.10952 -5.1263 0
M  V30 4008 H 389.342 2.78172 -4.76785 0
M  V30 4009 H 389.819 3.10794 -3.10328 0
M  V30 4010 H 390.425 1.64894 -3.92033 0
M  V30 4011 N 388.74 1.54641 0.303973 0
M  V30 4012 C 389.98 1.75516 1.04755 0
M  V30 4013 C 390.344 0.528211 1.84591 0
M  V30 4014 O 391.545 0.614645 2.61678 0
M  V30 4015 C 389.816 3.00685 1.93193 0
M  V30 4016 S 391.375 3.42549 2.74237 0
M  V30 4017 H 388.193 0.616987 0.353339 0
M  V30 4018 H 390.795 1.92842 0.321292 0
M  V30 4019 H 389.499 3.8811 1.33411 0
M  V30 4020 H 389.03 2.85937 2.70191 0
M  V30 4021 H 391.045 2.99386 3.95705 0
M  V30 4022 N 390.218 -0.567019 1.47046 0
M  V30 4023 C 391.629 -1.14916 1.47143 0
M  V30 4024 C 391.98 -1.94954 0.220767 0
M  V30 4025 O 391.105 -2.05602 -0.67505 0
M  V30 4026 C 391.7 -2.09069 2.666 0
M  V30 4027 C 390.259 -2.62575 2.69687 0
M  V30 4028 C 389.406 -1.38755 2.40088 0
M  V30 4029 H 392.357 -0.354126 1.54699 0
M  V30 4030 H 392.378 -2.92789 2.43011 0
M  V30 4031 H 391.89 -1.50789 3.57609 0
M  V30 4032 H 389.991 -3.24681 1.82792 0
M  V30 4033 H 390.104 -3.04239 3.70102 0
M  V30 4034 H 388.468 -1.69098 1.90468 0
M  V30 4035 H 389.251 -0.822822 3.33293 0
M  V30 4036 N 391.696 -1.35014 -0.812953 0
M  V30 4037 C 393.107 -1.25035 -1.38648 0
M  V30 4038 C 393.458 0.119967 -1.95833 0
M  V30 4039 O 392.583 1.02069 -1.90816 0
M  V30 4040 C 393.178 -2.26394 -2.52054 0
M  V30 4041 C 391.737 -2.20175 -3.05287 0
M  V30 4042 C 390.884 -2.12451 -1.78213 0
M  V30 4043 H 393.835 -1.46235 -0.616516 0
M  V30 4044 H 393.856 -1.88672 -3.30429 0
M  V30 4045 H 393.368 -3.26116 -2.10404 0
M  V30 4046 H 391.469 -1.23841 -3.51417 0
M  V30 4047 H 391.582 -3.11863 -3.63701 0
M  V30 4048 H 389.946 -1.58328 -1.9951 0
M  V30 4049 H 390.729 -3.14024 -1.38723 0
M  V30 4050 N 393.175 1.03435 -1.18907 0
M  V30 4051 C 394.105 2.13503 -0.945448 0
M  V30 4052 C 395.086 1.69682 0.119189 0
M  V30 4053 O 396.271 1.94169 -0.034707 0
M  V30 4054 C 393.401 3.44004 -0.477316 0
M  V30 4055 C 392.355 4.0148 -1.48316 0
M  V30 4056 C 391.681 5.27537 -0.872311 0
M  V30 4057 C 392.981 4.36921 -2.86177 0
M  V30 4058 H 394.675 2.34141 -1.86597 0
M  V30 4059 H 392.221 1.12523 -0.898584 0
M  V30 4060 H 394.174 4.20372 -0.294204 0
M  V30 4061 H 392.898 3.23072 0.478786 0
M  V30 4062 H 391.557 3.27201 -1.65332 0
M  V30 4063 H 391.205 5.02917 0.0911752 0
M  V30 4064 H 390.905 5.66954 -1.54393 0
M  V30 4065 H 392.429 6.06576 -0.699871 0
M  V30 4066 H 393.843 5.04248 -2.72776 0
M  V30 4067 H 392.24 4.87405 -3.50081 0
M  V30 4068 H 393.31 3.46466 -3.39248 0
M  V30 4069 N 394.653 0.992116 1.22453 0
M  V30 4070 C 395.586 0.486701 2.22949 0
M  V30 4071 C 396.564 -0.45259 1.56174 0
M  V30 4072 O 397.748 -0.378317 1.84665 0
M  V30 4073 C 394.875 -0.294537 3.37417 0
M  V30 4074 C 393.921 0.590628 4.22391 0
M  V30 4075 S 394.754 2.04546 4.94895 0
M  V30 4076 C 395.91 1.27369 6.12803 0
M  V30 4077 H 396.143 1.33828 2.65475 0
M  V30 4078 H 393.676 0.799023 1.32117 0
M  V30 4079 H 395.634 -0.739241 4.03789 0
M  V30 4080 H 394.295 -1.12139 2.934 0
M  V30 4081 H 393.488 -0.0104375 5.03999 0
M  V30 4082 H 393.09 0.972064 3.61147 0
M  V30 4083 H 395.382 0.540943 6.75337 0
M  V30 4084 H 396.325 2.06502 6.7732 0
M  V30 4085 H 396.733 0.787324 5.58983 0
M  V30 4086 N 396.131 -1.37776 0.765217 0
M  V30 4087 C 397.061 -2.32945 0.160953 0
M  V30 4088 C 398.042 -1.55454 -0.690516 0
M  V30 4089 O 399.227 -1.83721 -0.629318 0
M  V30 4090 C 396.357 -3.39669 -0.724031 0
M  V30 4091 C 395.311 -4.27992 0.0256173 0
M  V30 4092 C 394.637 -5.25673 -0.978383 0
M  V30 4093 C 395.937 -5.08309 1.20082 0
M  V30 4094 H 397.631 -2.83728 0.955969 0
M  V30 4095 H 395.177 -1.36416 0.461149 0
M  V30 4096 H 397.13 -4.05219 -1.15652 0
M  V30 4097 H 395.854 -2.87396 -1.5515 0
M  V30 4098 H 394.513 -3.63964 0.438812 0
M  V30 4099 H 394.161 -4.69682 -1.80022 0
M  V30 4100 H 393.861 -5.85625 -0.481378 0
M  V30 4101 H 395.385 -5.94098 -1.40995 0
M  V30 4102 H 396.799 -5.67034 0.845307 0
M  V30 4103 H 395.196 -5.77554 1.62947 0
M  V30 4104 H 396.266 -4.41365 2.00811 0
M  V30 4105 N 397.609 -0.515225 -1.4894 0
M  V30 4106 C 398.839 0.0205735 -2.0659 0
M  V30 4107 C 399.247 1.30064 -1.37405 0
M  V30 4108 O 398.59 1.78087 -0.450632 0
M  V30 4109 C 398.652 0.330124 -3.57981 0
M  V30 4110 C 398.316 -0.854295 -4.48944 0
M  V30 4111 C 399.313 -1.7487 -4.89609 0
M  V30 4112 C 396.998 -1.05712 -4.9105 0
M  V30 4113 C 398.992 -2.82996 -5.71132 0
M  V30 4114 C 396.679 -2.14154 -5.72347 0
M  V30 4115 C 397.677 -3.0263 -6.12294 0
M  V30 4116 O 397.365 -4.09198 -6.91962 0
M  V30 4117 H 397.097 -0.0236833 -0.675585 0
M  V30 4118 H 399.651 -0.715956 -1.92518 0
M  V30 4119 H 397.881 1.12044 -3.70112 0
M  V30 4120 H 399.57 0.806233 -3.97812 0
M  V30 4121 H 400.336 -1.60388 -4.57712 0
M  V30 4122 H 396.215 -0.377788 -4.59449 0
M  V30 4123 H 399.759 -3.52083 -6.02232 0
M  V30 4124 H 395.656 -2.28626 -6.03656 0
M  V30 4125 H 396.424 -4.06726 -7.10293 0
M  V30 4126 N 399.087 1.5561 -0.249682 0
M  V30 4127 C 400.035 2.22894 0.664906 0
M  V30 4128 C 401.029 1.21743 1.17792 0
M  V30 4129 O 402.235 1.39748 1.13449 0
M  V30 4130 H 398.61 0.715022 0.232912 0
M  V30 4131 H 400.581 2.98307 0.0742998 0
M  V30 4132 C 399.33 2.94424 1.84959 0
M  V30 4133 H 398.653 3.72031 1.46399 0
M  V30 4134 H 400.093 3.44862 2.4667 0
M  V30 4135 C 398.552 1.98454 2.72245 0
M  V30 4136 O 399.082 1.51939 3.71857 0
M  V30 4137 N 397.288 1.65496 2.38871 0
M  V30 4138 H 396.835 2.03517 1.57919 0
M  V30 4139 H 396.793 1.0155 2.97548 0
M  V30 4140 N 400.565 -0.0233959 1.57583 0
M  V30 4141 C 401.976 -0.56927 1.77809 0
M  V30 4142 C 402.327 -1.75284 0.881472 0
M  V30 4143 O 401.452 -2.1626 0.0777805 0
M  V30 4144 C 402.047 -1.03949 3.22459 0
M  V30 4145 C 400.606 -1.53084 3.43864 0
M  V30 4146 C 399.753 -0.471454 2.73263 0
M  V30 4147 H 402.704 0.202825 1.57399 0
M  V30 4148 H 402.725 -1.90661 3.29285 0
M  V30 4149 H 402.237 -0.177865 3.87692 0
M  V30 4150 H 400.338 -2.41414 2.83814 0
M  V30 4151 H 400.451 -1.57443 4.52491 0
M  V30 4152 H 398.815 -0.927788 2.37201 0
M  V30 4153 H 399.598 0.380808 3.41181 0
M  V30 4154 N 402.043 -1.548 -0.295768 0
M  V30 4155 C 403.271 -1.78327 -1.04914 0
M  V30 4156 C 403.686 -0.545316 -1.80753 0
M  V30 4157 O 403.043 0.485013 -1.75937 0
M  V30 4158 C 403.094 -2.99418 -2.02561 0
M  V30 4159 O 402.815 -4.18431 -1.29798 0
M  V30 4160 C 404.316 -3.35375 -2.89895 0
M  V30 4161 H 401.536 -0.594618 -0.310918 0
M  V30 4162 H 404.08 -2.01763 -0.333454 0
M  V30 4163 H 402.235 -2.78175 -2.69624 0
M  V30 4164 H 402.649 -4.86736 -1.95419 0
M  V30 4165 H 404.123 -4.23332 -3.54251 0
M  V30 4166 H 404.6 -2.53761 -3.58472 0
M  V30 4167 H 405.206 -3.58796 -2.28355 0
M  V30 4168 N 403.521 0.559213 -1.47345 0
M  V30 4169 C 404.749 1.34194 -1.57479 0
M  V30 4170 C 405.164 1.87463 -0.224261 0
M  V30 4171 O 404.521 1.64888 0.782185 0
M  V30 4172 C 404.572 2.51324 -2.59843 0
M  V30 4173 O 404.293 2.00256 -3.89653 0
M  V30 4174 C 405.794 3.43563 -2.80142 0
M  V30 4175 H 403.014 0.409136 -0.531835 0
M  V30 4176 H 405.558 0.677609 -1.92947 0
M  V30 4177 H 403.713 3.13699 -2.27314 0
M  V30 4178 H 404.127 2.76708 -4.4557 0
M  V30 4179 H 405.601 4.2217 -3.55635 0
M  V30 4180 H 406.078 3.9698 -1.87892 0
M  V30 4181 H 406.684 2.87005 -3.1386 0
M  V30 4182 N 404.999 1.35443 0.805782 0
M  V30 4183 C 406.229 1.31687 1.59192 0
M  V30 4184 C 406.637 -0.10756 1.88894 0
M  V30 4185 O 405.98 -1.07017 1.49309 0
M  V30 4186 C 406.042 2.05686 2.94845 0
M  V30 4187 C 405.706 3.54868 2.87954 0
M  V30 4188 C 406.703 4.49444 2.61335 0
M  V30 4189 C 404.388 3.97528 3.07046 0
M  V30 4190 C 406.382 5.84655 2.53885 0
M  V30 4191 C 404.069 5.32833 2.99219 0
M  V30 4192 C 405.067 6.26209 2.72674 0
M  V30 4193 O 404.755 7.59032 2.64811 0
M  V30 4194 H 404.487 0.453878 0.50097 0
M  V30 4195 H 407.041 1.78892 1.0093 0
M  V30 4196 H 405.271 1.5312 3.55093 0
M  V30 4197 H 406.96 1.94998 3.55993 0
M  V30 4198 H 407.726 4.17804 2.46303 0
M  V30 4199 H 403.605 3.25233 3.26718 0
M  V30 4200 H 407.149 6.57508 2.33086 0
M  V30 4201 H 403.046 5.64087 3.13809 0
M  V30 4202 H 403.814 7.68967 2.80413 0
M  V30 4203 N 406.477 -1.02803 1.19454 0
M  V30 4204 C 407.409 -2.11181 0.890807 0
M  V30 4205 C 408.422 -1.6238 -0.116829 0
M  V30 4206 O 409.611 -1.78144 0.112694 0
M  V30 4207 C 406.711 -3.37461 0.311942 0
M  V30 4208 C 405.884 -4.15446 1.36834 0
M  V30 4209 C 404.943 -5.20039 0.802864 0
M  V30 4210 O 403.969 -5.49602 1.48077 0
M  V30 4211 N 405.171 -5.79165 -0.393417 0
M  V30 4212 H 407.936 -2.37827 1.82369 0
M  V30 4213 H 405.497 -1.19101 1.09666 0
M  V30 4214 H 407.489 -4.0462 -0.0802225 0
M  V30 4215 H 406.059 -3.08156 -0.52524 0
M  V30 4216 H 405.279 -3.43423 1.93531 0
M  V30 4217 H 406.567 -4.64335 2.08015 0
M  V30 4218 H 405.965 -5.57466 -0.961658 0
M  V30 4219 H 404.522 -6.47729 -0.727351 0
M  V30 4220 N 407.956 -0.998596 -1.21925 0
M  V30 4221 C 408.889 -0.498517 -2.22688 0
M  V30 4222 C 409.867 0.444301 -1.56412 0
M  V30 4223 O 411.051 0.368518 -1.84863 0
M  V30 4224 C 408.178 0.276639 -3.37568 0
M  V30 4225 C 407.224 -0.61302 -4.22071 0
M  V30 4226 S 408.057 -2.07168 -4.93803 0
M  V30 4227 C 409.213 -1.30617 -6.12119 0
M  V30 4228 H 409.446 -1.35234 -2.64762 0
M  V30 4229 H 406.979 -0.806018 -1.31692 0
M  V30 4230 H 408.937 0.717817 -4.04175 0
M  V30 4231 H 407.598 1.10581 -2.93991 0
M  V30 4232 H 406.791 -0.0162909 -5.03997 0
M  V30 4233 H 406.393 -0.991202 -3.60626 0
M  V30 4234 H 408.685 -0.57675 -6.75041 0
M  V30 4235 H 409.628 -2.10091 -6.76215 0
M  V30 4236 H 410.036 -0.816957 -5.58557 0
M  V30 4237 N 409.434 1.37368 -0.772513 0
M  V30 4238 C 410.711 1.93839 -0.26188 0
M  V30 4239 C 411.091 1.7061 1.24319 0
M  V30 4240 O 410.439 1.05534 2.02669 0
M  V30 4241 C 410.649 3.43154 -0.636102 0
M  V30 4242 C 411.997 4.20249 -0.606324 0
M  V30 4243 O 413.021 3.5152 -0.575538 0
M  V30 4244 O 411.88 5.42809 -0.634086 0
M  V30 4245 H 408.974 0.82478 -0.0605555 0
M  V30 4246 H 411.52 1.4665 -0.853917 0
M  V30 4247 H 410.292 3.53647 -1.6748 0
M  V30 4248 H 409.915 3.97596 -0.0170516 0
M  V30 4249 N 410.912 0.523116 1.48665 0
M  V30 4250 C 412.158 -0.0134963 2.02796 0
M  V30 4251 C 412.491 -1.34582 1.40004 0
M  V30 4252 O 411.766 -1.86756 0.543381 0
M  V30 4253 C 412.049 -0.14276 3.59817 0
M  V30 4254 C 411.902 1.21425 4.331 0
M  V30 4255 C 413.221 -0.872856 4.31357 0
M  V30 4256 H 410.34 -0.00343074 0.736992 0
M  V30 4257 H 412.982 0.678816 1.7746 0
M  V30 4258 H 411.132 -0.732401 3.81534 0
M  V30 4259 H 412.804 1.84447 4.2282 0
M  V30 4260 H 411.047 1.79791 3.94788 0
M  V30 4261 H 411.718 1.07687 5.41394 0
M  V30 4262 H 414.194 -0.372555 4.14429 0
M  V30 4263 H 413.07 -0.932185 5.40927 0
M  V30 4264 H 413.331 -1.92161 3.98154 0
M  V30 4265 N 412.39 -1.55475 0.257931 0
M  V30 4266 C 413.338 -2.23244 -0.653076 0
M  V30 4267 C 414.332 -1.22366 -1.17144 0
M  V30 4268 O 415.538 -1.40347 -1.12706 0
M  V30 4269 H 411.913 -0.716247 -0.229117 0
M  V30 4270 H 413.884 -2.98343 -0.0584788 0
M  V30 4271 C 412.633 -2.95401 -1.83395 0
M  V30 4272 H 411.956 -3.72802 -1.44424 0
M  V30 4273 H 413.396 -3.46165 -2.44838 0
M  V30 4274 C 411.855 -1.99895 -2.71189 0
M  V30 4275 O 412.385 -1.53909 -3.71046 0
M  V30 4276 N 410.591 -1.6676 -2.3799 0
M  V30 4277 H 410.138 -2.04352 -1.56837 0
M  V30 4278 H 410.096 -1.03127 -2.97005 0
M  V30 4279 N 413.868 0.0150385 -1.57593 0
M  V30 4280 C 415.279 0.559832 -1.78109 0
M  V30 4281 C 415.63 1.74814 -0.890756 0
M  V30 4282 O 414.755 2.16216 -0.0892482 0
M  V30 4283 C 415.35 1.02238 -3.23006 0
M  V30 4284 C 413.909 1.51258 -3.44671 0
M  V30 4285 C 413.056 0.456955 -2.73509 0
M  V30 4286 H 416.007 -0.211169 -1.57289 0
M  V30 4287 H 416.028 1.88912 -3.30292 0
M  V30 4288 H 415.54 0.157302 -3.87781 0
M  V30 4289 H 413.641 2.39905 -2.8509 0
M  V30 4290 H 413.754 1.55042 -4.5332 0
M  V30 4291 H 412.118 0.915196 -2.37689 0
M  V30 4292 H 412.901 -0.398896 -3.40975 0
M  V30 4293 N 415.346 1.54954 0.287554 0
M  V30 4294 C 416.256 1.8991 1.37736 0
M  V30 4295 C 417.272 0.794701 1.54792 0
M  V30 4296 O 418.448 1.09243 1.69198 0
M  V30 4297 C 415.513 2.15108 2.71899 0
M  V30 4298 C 414.574 3.38752 2.63715 0
M  V30 4299 C 413.807 3.62739 3.91479 0
M  V30 4300 O 414.03 2.89492 4.91478 0
M  V30 4301 O 412.964 4.56267 3.92561 0
M  V30 4302 H 416.79 2.82652 1.11092 0
M  V30 4303 H 414.375 1.41315 0.484807 0
M  V30 4304 H 416.257 2.32806 3.51254 0
M  V30 4305 H 414.932 1.25551 2.9836 0
M  V30 4306 H 413.839 3.26405 1.82786 0
M  V30 4307 H 415.172 4.28483 2.42205 0
M  V30 4308 N 416.824 -0.551391 1.4764 0
M  V30 4309 C 418.072 -1.30572 1.54258 0
M  V30 4310 C 418.393 -1.93877 0.208963 0
M  V30 4311 O 417.663 -1.80234 -0.767619 0
M  V30 4312 H 416.243 -0.484894 0.568231 0
M  V30 4313 H 418.905 -0.643402 1.83974 0
M  V30 4314 H 418.001 -2.09621 2.31226 0
M  V30 4315 N 418.302 -1.35869 -0.798587 0
M  V30 4316 C 419.249 -1.29446 -1.91082 0
M  V30 4317 C 420.219 -0.16487 -1.6528 0
M  V30 4318 O 421.404 -0.349888 -1.87564 0
M  V30 4319 C 418.544 -1.0804 -3.27752 0
M  V30 4320 C 417.657 -2.29993 -3.65687 0
M  V30 4321 C 416.792 -2.01673 -4.91428 0
M  V30 4322 C 415.831 -3.19636 -5.22015 0
M  V30 4323 N 414.968 -2.91039 -6.38937 0
M  V30 4324 H 419.808 -2.24553 -1.95907 0
M  V30 4325 H 417.345 -1.11615 -0.958148 0
M  V30 4326 H 419.303 -0.936586 -4.06551 0
M  V30 4327 H 417.933 -0.16592 -3.22373 0
M  V30 4328 H 416.985 -2.55211 -2.82085 0
M  V30 4329 H 418.297 -3.18052 -3.84245 0
M  V30 4330 H 417.451 -1.84168 -5.78072 0
M  V30 4331 H 416.19 -1.10911 -4.74921 0
M  V30 4332 H 415.195 -3.37709 -4.33858 0
M  V30 4333 H 416.42 -4.11211 -5.40447 0
M  V30 4334 H 414.366 -2.0288 -6.2384 0
M  V30 4335 H 414.283 -3.72635 -6.57784 0
M  V30 4336 H 415.551 -2.77093 -7.28587 0
M  V30 4337 N 419.78 1.02168 -1.19998 0
M  V30 4338 C 421.01 1.79036 -1.031 0
M  V30 4339 C 421.418 1.84409 0.423078 0
M  V30 4340 O 420.761 1.29228 1.30559 0
M  V30 4341 C 420.823 3.25185 -1.53281 0
M  V30 4342 C 420.487 3.43431 -3.01503 0
M  V30 4343 C 421.484 3.33063 -3.99206 0
M  V30 4344 C 419.169 3.69412 -3.40353 0
M  V30 4345 C 421.163 3.48413 -5.33748 0
M  V30 4346 C 418.85 3.84406 -4.75053 0
M  V30 4347 C 419.848 3.7391 -5.71559 0
M  V30 4348 O 419.536 3.88452 -7.03818 0
M  V30 4349 H 419.268 0.570043 -0.363355 0
M  V30 4350 H 421.822 1.29524 -1.59414 0
M  V30 4351 H 420.052 3.75756 -0.913483 0
M  V30 4352 H 421.741 3.83671 -1.32481 0
M  V30 4353 H 422.507 3.12934 -3.70537 0
M  V30 4354 H 418.386 3.76671 -2.65782 0
M  V30 4355 H 421.93 3.40137 -6.09059 0
M  V30 4356 H 417.827 4.04035 -5.03415 0
M  V30 4357 H 418.595 4.055 -7.10993 0
M  V30 4358 N 421.258 1.00505 1.21394 0
M  V30 4359 C 422.483 0.706367 1.95001 0
M  V30 4360 C 422.908 -0.72463 1.73582 0
M  V30 4361 O 422.266 -1.49702 1.0227 0
M  V30 4362 C 422.314 1.03299 3.45487 0
M  V30 4363 O 421.418 0.138275 4.12168 0
M  V30 4364 H 420.759 0.263175 0.609619 0
M  V30 4365 H 423.289 1.34531 1.54151 0
M  V30 4366 H 423.299 0.979872 3.96059 0
M  V30 4367 H 421.974 2.07567 3.60401 0
M  V30 4368 H 420.551 0.247928 3.72075 0
M  V30 4369 N 422.737 -1.36956 0.779787 0
M  V30 4370 C 423.984 -1.99491 0.347766 0
M  V30 4371 C 424.312 -1.61898 -1.07793 0
M  V30 4372 O 423.567 -0.86071 -1.75756 0
M  V30 4373 C 423.866 -3.54585 0.447686 0
M  V30 4374 C 423.532 -4.1197 1.83279 0
M  V30 4375 C 422.194 -4.27356 2.2118 0
M  V30 4376 C 424.546 -4.43354 2.74019 0
M  V30 4377 C 421.874 -4.71432 3.4924 0
M  V30 4378 C 424.226 -4.88858 4.01497 0
M  V30 4379 C 422.89 -5.0245 4.39432 0
M  V30 4380 H 422.16 -0.729991 0.127257 0
M  V30 4381 H 424.807 -1.63599 0.995376 0
M  V30 4382 H 423.112 -3.90773 -0.283447 0
M  V30 4383 H 424.809 -4.00888 0.0945948 0
M  V30 4384 H 421.399 -4.00428 1.52825 0
M  V30 4385 H 425.583 -4.31045 2.45995 0
M  V30 4386 H 420.839 -4.80141 3.78516 0
M  V30 4387 H 425.013 -5.12108 4.71931 0
M  V30 4388 H 422.64 -5.36362 5.38721 0
M  V30 4389 N 424.215 -0.530993 -1.48385 0
M  V30 4390 C 425.463 0.00273189 -2.021 0
M  V30 4391 C 425.784 1.34672 -1.41027 0
M  V30 4392 O 425.054 1.8724 -0.576012 0
M  V30 4393 H 423.634 0.00399774 -0.746989 0
M  V30 4394 H 426.296 -0.695054 -1.82085 0
M  V30 4395 H 425.392 0.11031 -3.11905 0
M  V30 4396 N 425.693 1.55336 -0.266172 0
M  V30 4397 C 426.656 2.20878 0.612001 0
M  V30 4398 C 427.656 1.18388 1.08816 0
M  V30 4399 O 428.846 1.4335 0.989774 0
M  V30 4400 C 425.978 2.86765 1.84332 0
M  V30 4401 H 427.171 2.99873 0.0398718 0
M  V30 4402 H 424.724 1.56291 -0.0167309 0
M  V30 4403 H 425.459 2.11759 2.45619 0
M  V30 4404 H 425.244 3.61862 1.5099 0
M  V30 4405 H 426.734 3.36867 2.46801 0
M  V30 4406 N 427.171 -0.0066808 1.57599 0
M  V30 4407 C 428.399 -0.704087 1.94551 0
M  V30 4408 C 428.814 -1.67677 0.867746 0
M  V30 4409 O 428.171 -1.8185 -0.153925 0
M  V30 4410 C 428.222 -1.44177 3.31505 0
M  V30 4411 O 427.943 -0.508097 4.35144 0
M  V30 4412 C 429.444 -2.23429 3.82876 0
M  V30 4413 H 426.664 -0.196523 0.641576 0
M  V30 4414 H 429.208 0.042453 2.04456 0
M  V30 4415 H 427.363 -2.13999 3.22929 0
M  V30 4416 H 427.777 -1.02782 5.14331 0
M  V30 4417 H 429.251 -2.70552 4.8115 0
M  V30 4418 H 429.728 -3.05818 3.15233 0
M  V30 4419 H 430.334 -1.58636 3.94607 0
M  V30 4420 N 428.649 -1.55105 -0.279332 0
M  V30 4421 C 429.889 -1.7716 -1.01949 0
M  V30 4422 C 430.253 -0.557511 -1.83728 0
M  V30 4423 O 431.454 -0.656198 -2.60667 0
M  V30 4424 C 429.725 -3.0372 -1.88385 0
M  V30 4425 S 431.284 -3.46868 -2.68752 0
M  V30 4426 H 428.102 -0.62253 -0.343478 0
M  V30 4427 H 430.704 -1.93329 -0.290572 0
M  V30 4428 H 429.408 -3.90184 -1.2722 0
M  V30 4429 H 428.939 -2.902 -2.65608 0
M  V30 4430 H 430.954 -3.05643 -3.90892 0
M  V30 4431 N 430.127 0.543554 -1.4793 0
M  V30 4432 C 431.373 1.30201 -1.55485 0
M  V30 4433 C 431.706 1.92925 -0.222201 0
M  V30 4434 O 430.981 1.78586 0.77053 0
M  V30 4435 C 431.264 2.40174 -2.68307 0
M  V30 4436 C 431.117 1.8223 -4.11233 0
M  V30 4437 C 432.436 3.42024 -2.76961 0
M  V30 4438 H 429.555 0.472036 -0.565996 0
M  V30 4439 H 432.197 0.606914 -1.80046 0
M  V30 4440 H 430.347 2.99463 -2.47495 0
M  V30 4441 H 432.019 1.27096 -4.43446 0
M  V30 4442 H 430.262 1.12832 -4.18869 0
M  V30 4443 H 430.933 2.61793 -4.85972 0
M  V30 4444 H 433.409 2.92672 -2.95774 0
M  V30 4445 H 432.285 4.16383 -3.57654 0
M  V30 4446 H 432.546 4.0173 -1.84568 0
M  V30 4447 N 431.605 1.3629 0.791371 0
M  V30 4448 C 432.552 1.30458 1.90393 0
M  V30 4449 C 433.522 0.173632 1.6519 0
M  V30 4450 O 434.707 0.35983 1.87376 0
M  V30 4451 C 431.847 1.09777 3.27174 0
M  V30 4452 C 430.96 2.31929 3.64462 0
M  V30 4453 C 430.095 2.04276 4.90352 0
M  V30 4454 C 429.134 3.224 5.20312 0
M  V30 4455 N 428.271 2.94424 6.37385 0
M  V30 4456 H 433.111 2.25589 1.94714 0
M  V30 4457 H 430.648 1.12122 0.952216 0
M  V30 4458 H 432.606 0.958133 4.06049 0
M  V30 4459 H 431.236 0.183014 3.22281 0
M  V30 4460 H 430.288 2.56703 2.80727 0
M  V30 4461 H 431.6 3.20085 3.82553 0
M  V30 4462 H 430.754 1.87231 5.77087 0
M  V30 4463 H 429.493 1.13428 4.74326 0
M  V30 4464 H 428.498 3.40005 4.32061 0
M  V30 4465 H 429.723 4.14071 5.38258 0
M  V30 4466 H 427.669 2.06185 6.22755 0
M  V30 4467 H 427.586 3.76118 6.55798 0
M  V30 4468 H 428.854 2.80953 7.27108 0
M  V30 4469 N 433.083 -1.0153 1.20538 0
M  V30 4470 C 434.03 -2.10098 0.955383 0
M  V30 4471 C 435 -1.65702 -0.114878 0
M  V30 4472 O 436.185 -1.90776 0.0301118 0
M  V30 4473 C 433.325 -3.41236 0.514969 0
M  V30 4474 C 432.438 -3.99102 1.65353 0
M  V30 4475 C 431.573 -5.18306 1.16329 0
M  V30 4476 C 430.612 -5.68258 2.27485 0
M  V30 4477 N 429.749 -6.78722 1.7967 0
M  V30 4478 H 434.589 -2.30818 1.88486 0
M  V30 4479 H 432.126 -1.13189 0.939499 0
M  V30 4480 H 434.084 -4.16504 0.240935 0
M  V30 4481 H 432.714 -3.20585 -0.377512 0
M  V30 4482 H 431.766 -3.20918 2.04245 0
M  V30 4483 H 433.078 -4.32177 2.49047 0
M  V30 4484 H 432.232 -6.00782 0.845302 0
M  V30 4485 H 430.971 -4.86799 0.296254 0
M  V30 4486 H 429.976 -4.84385 2.60099 0
M  V30 4487 H 431.201 -6.01798 3.14667 0
M  V30 4488 H 429.147 -6.49042 0.95295 0
M  V30 4489 H 429.064 -7.10996 2.56944 0
M  V30 4490 H 430.332 -7.64759 1.50875 0
M  V30 4491 N 434.561 -1.01147 -1.20859 0
M  V30 4492 C 435.801 -0.706331 -1.91808 0
M  V30 4493 C 436.165 0.749736 -1.76757 0
M  V30 4494 O 437.366 1.16716 -2.42138 0
M  V30 4495 C 435.637 -1.12371 -3.39275 0
M  V30 4496 S 437.196 -0.939764 -4.28619 0
M  V30 4497 H 434.014 -0.257665 -0.662669 0
M  V30 4498 H 436.616 -1.29766 -1.46223 0
M  V30 4499 H 435.32 -2.17943 -3.47749 0
M  V30 4500 H 434.851 -0.524952 -3.89882 0
M  V30 4501 H 436.866 0.159556 -4.95943 0
M  V30 4502 N 436.039 1.36541 -0.78704 0
M  V30 4503 C 437.45 1.81873 -0.421807 0
M  V30 4504 C 437.801 1.65487 1.05397 0
M  V30 4505 O 436.926 1.17448 1.81755 0
M  V30 4506 C 437.521 3.30192 -0.758841 0
M  V30 4507 C 436.08 3.73743 -0.446468 0
M  V30 4508 C 435.227 2.58844 -0.994728 0
M  V30 4509 H 438.178 1.24796 -0.98039 0
M  V30 4510 H 438.199 3.80468 -0.0490648 0
M  V30 4511 H 437.711 3.42087 -1.83299 0
M  V30 4512 H 435.812 3.6741 0.619739 0
M  V30 4513 H 435.925 4.69272 -0.965415 0
M  V30 4514 H 434.289 2.51245 -0.418087 0
M  V30 4515 H 435.072 2.73525 -2.07458 0
M  V30 4516 N 437.518 0.538854 1.48102 0
M  V30 4517 C 438.934 0.19732 1.58376 0
M  V30 4518 C 439.134 -1.29971 1.5398 0
M  V30 4519 O 438.19 -2.07861 1.43352 0
M  V30 4520 C 439.503 0.807716 2.89649 0
M  V30 4521 C 441.051 0.77726 3.03196 0
M  V30 4522 C 441.526 1.36639 4.37143 0
M  V30 4523 N 443.017 1.32875 4.43732 0
M  V30 4524 C 443.752 1.7544 5.45901 0
M  V30 4525 N 443.248 2.25776 6.54979 0
M  V30 4526 N 445.041 1.66623 5.36836 0
M  V30 4527 H 437.192 1.5117 1.49202 0
M  V30 4528 H 439.455 0.629327 0.708979 0
M  V30 4529 H 439.161 1.85909 2.98548 0
M  V30 4530 H 439.035 0.289975 3.76084 0
M  V30 4531 H 441.422 -0.265374 2.93904 0
M  V30 4532 H 441.503 1.33256 2.18349 0
M  V30 4533 H 441.147 2.408 4.47189 0
M  V30 4534 H 441.077 0.786689 5.20691 0
M  V30 4535 H 443.568 0.96037 3.65493 0
M  V30 4536 H 443.881 2.56226 7.29087 0
M  V30 4537 H 442.226 2.29775 6.55918 0
M  V30 4538 H 445.417 1.27089 4.50517 0
M  V30 4539 H 445.59 2.00115 6.16326 0
M  V30 4540 N 438.996 -1.55193 0.274407 0
M  V30 4541 C 439.944 -2.23924 -0.629362 0
M  V30 4542 C 440.938 -1.23602 -1.1584 0
M  V30 4543 O 442.144 -1.41535 -1.11211 0
M  V30 4544 H 438.519 -0.718637 -0.221507 0
M  V30 4545 H 440.49 -2.98388 -0.0268322 0
M  V30 4546 C 439.239 -2.97329 -1.80252 0
M  V30 4547 H 438.562 -3.74313 -1.40462 0
M  V30 4548 H 440.002 -3.48743 -2.41152 0
M  V30 4549 C 438.461 -2.0276 -2.69054 0
M  V30 4550 O 438.991 -1.57836 -3.69392 0
M  V30 4551 N 437.197 -1.69275 -2.36208 0
M  V30 4552 H 436.744 -2.06004 -1.54661 0
M  V30 4553 H 436.702 -1.06271 -2.95895 0
M  V30 4554 N 440.474 -0.00167713 -1.576 0
M  V30 4555 C 441.704 0.692754 -1.94639 0
M  V30 4556 C 442.112 1.67744 -0.87513 0
M  V30 4557 O 441.455 1.8305 0.154382 0
M  V30 4558 C 441.517 1.47881 -3.27676 0
M  V30 4559 C 441.181 0.655518 -4.52274 0
M  V30 4560 C 442.178 -0.0575214 -5.19868 0
M  V30 4561 C 439.863 0.600994 -4.98692 0
M  V30 4562 C 441.857 -0.814052 -6.3218 0
M  V30 4563 C 439.544 -0.15926 -6.10892 0
M  V30 4564 C 440.542 -0.865515 -6.77494 0
M  V30 4565 O 440.23 -1.61336 -7.87544 0
M  V30 4566 H 439.962 0.197792 -0.646417 0
M  V30 4567 H 442.516 -0.049423 -2.05341 0
M  V30 4568 H 440.746 2.2655 -3.13388 0
M  V30 4569 H 442.435 2.05874 -3.49816 0
M  V30 4570 H 443.201 -0.0245611 -4.84994 0
M  V30 4571 H 439.08 1.14025 -4.46676 0
M  V30 4572 H 442.624 -1.36584 -6.84098 0
M  V30 4573 H 438.521 -0.194035 -6.45208 0
M  V30 4574 H 439.289 -1.53025 -8.04068 0
M  V30 4575 N 441.952 1.55251 0.271103 0
M  V30 4576 C 443.198 1.76207 1.00394 0
M  V30 4577 C 443.531 0.562604 1.85872 0
M  V30 4578 O 442.806 -0.439785 1.89463 0
M  V30 4579 C 443.089 3.06828 1.8849 0
M  V30 4580 C 442.942 4.37134 1.05992 0
M  V30 4581 C 444.261 3.33503 2.87165 0
M  V30 4582 H 441.38 0.641086 0.363562 0
M  V30 4583 H 444.022 1.87982 0.276189 0
M  V30 4584 H 442.172 2.96921 2.5054 0
M  V30 4585 H 443.844 4.59001 0.459978 0
M  V30 4586 H 442.087 4.32275 0.363443 0
M  V30 4587 H 442.758 5.2486 1.70955 0
M  V30 4588 H 445.234 3.43215 2.3525 0
M  V30 4589 H 444.11 4.2616 3.45946 0
M  V30 4590 H 444.371 2.53235 3.62387 0
M  V30 4591 N 443.43 -0.535701 1.48216 0
M  V30 4592 C 444.676 -1.29375 1.56173 0
M  V30 4593 C 445.009 -1.92804 0.232429 0
M  V30 4594 O 444.284 -1.78992 -0.761048 0
M  V30 4595 C 444.567 -2.38747 2.69577 0
M  V30 4596 C 444.42 -1.80046 4.12193 0
M  V30 4597 C 445.739 -3.40551 2.78771 0
M  V30 4598 H 442.858 -0.469027 0.568491 0
M  V30 4599 H 445.5 -0.597358 1.80365 0
M  V30 4600 H 443.65 -2.98147 2.4908 0
M  V30 4601 H 445.322 -1.24742 4.44114 0
M  V30 4602 H 443.565 -1.10609 4.19462 0
M  V30 4603 H 444.236 -2.59212 4.87353 0
M  V30 4604 H 446.712 -2.91099 2.97322 0
M  V30 4605 H 445.588 -4.1448 3.59857 0
M  V30 4606 H 445.849 -4.00746 1.86696 0
M  V30 4607 N 444.908 -1.36708 -0.784132 0
M  V30 4608 C 446.136 -1.34398 -1.57305 0
M  V30 4609 C 446.551 0.0735577 -1.88657 0
M  V30 4610 O 445.908 1.03193 -1.50524 0
M  V30 4611 C 445.959 -2.17053 -2.89085 0
M  V30 4612 O 445.68 -3.53281 -2.59083 0
M  V30 4613 C 447.181 -2.22583 -3.83369 0
M  V30 4614 H 444.401 -0.460819 -0.487736 0
M  V30 4615 H 446.945 -1.79879 -0.972819 0
M  V30 4616 H 445.1 -1.75113 -3.45564 0
M  V30 4617 H 445.514 -3.9647 -3.43383 0
M  V30 4618 H 446.988 -2.84763 -4.72878 0
M  V30 4619 H 447.465 -1.23075 -4.21603 0
M  V30 4620 H 448.071 -2.64781 -3.32823 0
M  V30 4621 N 446.386 1.0089 -1.21074 0
M  V30 4622 C 447.663 1.71834 -0.934469 0
M  V30 4623 C 448.043 2.0368 0.554753 0
M  V30 4624 O 447.391 1.70742 1.51854 0
M  V30 4625 C 447.601 2.98061 -1.8155 0
M  V30 4626 C 448.949 3.7117 -2.06199 0
M  V30 4627 O 449.973 3.08034 -1.78867 0
M  V30 4628 O 448.832 4.84721 -2.52404 0
M  V30 4629 H 445.926 0.749253 -0.35007 0
M  V30 4630 H 448.472 1.06668 -1.31985 0
M  V30 4631 H 447.244 2.70908 -2.82355 0
M  V30 4632 H 446.867 3.70968 -1.43068 0
M  V30 4633 N 447.864 1.01787 1.20321 0
M  V30 4634 C 448.814 0.559976 2.21016 0
M  V30 4635 C 449.798 -0.385366 1.56217 0
M  V30 4636 O 450.99 -0.208126 1.75772 0
M  V30 4637 C 448.119 -0.0990553 3.43157 0
M  V30 4638 C 447.205 0.86807 4.15121 0
M  V30 4639 N 447.596 2.0261 4.63447 0
M  V30 4640 C 445.894 0.689162 4.40643 0
M  V30 4641 C 446.595 2.63518 5.18588 0
M  V30 4642 N 445.571 1.91569 5.08726 0
M  V30 4643 H 449.373 1.44281 2.56048 0
M  V30 4644 H 446.887 0.883381 1.36272 0
M  V30 4645 H 448.884 -0.444643 4.14522 0
M  V30 4646 H 447.544 -0.977709 3.0963 0
M  V30 4647 H 448.555 2.40598 4.58621 0
M  V30 4648 H 445.232 -0.14133 4.17261 0
M  V30 4649 H 446.622 3.61527 5.66346 0
M  V30 4650 N 449.342 -1.36122 0.79427 0
M  V30 4651 C 450.59 -1.98718 0.368177 0
M  V30 4652 C 450.911 -1.63345 -1.06506 0
M  V30 4653 O 450.181 -0.909825 -1.73491 0
M  V30 4654 H 448.761 -0.735038 0.133146 0
M  V30 4655 H 451.423 -1.66239 1.01739 0
M  V30 4656 H 450.519 -3.08633 0.463923 0
M  V30 4657 N 450.82 -0.546701 -1.47814 0
M  V30 4658 C 452.045 -0.021268 -2.07389 0
M  V30 4659 C 452.47 1.25822 -1.39822 0
M  V30 4660 O 451.828 1.75111 -0.46968 0
M  V30 4661 C 451.876 0.168502 -3.60206 0
M  V30 4662 O 450.98 1.23347 -3.93522 0
M  V30 4663 H 450.321 -0.0466108 -0.662362 0
M  V30 4664 H 452.851 -0.759387 -1.89985 0
M  V30 4665 H 452.861 0.385982 -4.0617 0
M  V30 4666 H 451.536 -0.766075 -4.08784 0
M  V30 4667 H 450.113 0.997319 -3.59316 0
M  V30 4668 N 452.299 1.55045 -0.282633 0
M  V30 4669 C 453.539 2.01668 0.333088 0
M  V30 4670 C 453.903 1.1667 1.52486 0
M  V30 4671 O 455.104 1.52907 2.21072 0
M  V30 4672 C 453.375 3.50509 0.698442 0
M  V30 4673 S 454.934 4.19112 1.29963 0
M  V30 4674 H 451.752 0.703468 0.103219 0
M  V30 4675 H 454.354 1.91233 -0.406222 0
M  V30 4676 H 453.058 4.10015 -0.177693 0
M  V30 4677 H 452.589 3.64943 1.46902 0
M  V30 4678 H 454.604 4.23362 2.58803 0
M  V30 4679 N 453.777 0.010035 1.57597 0
M  V30 4680 C 455.023 -0.673697 1.91283 0
M  V30 4681 C 455.356 -1.72863 0.884979 0
M  V30 4682 O 454.631 -1.94268 -0.0949487 0
M  V30 4683 C 454.914 -1.30766 3.35518 0
M  V30 4684 C 454.767 -0.263578 4.49027 0
M  V30 4685 C 456.086 -2.23105 3.79358 0
M  V30 4686 H 453.205 -0.243439 0.695634 0
M  V30 4687 H 455.847 0.0633864 1.89894 0
M  V30 4688 H 453.997 -1.93588 3.36832 0
M  V30 4689 H 455.669 0.365738 4.59848 0
M  V30 4690 H 453.912 0.413077 4.31829 0
M  V30 4691 H 454.583 -0.746398 5.4693 0
M  V30 4692 H 457.059 -1.70289 3.79659 0
M  V30 4693 H 455.935 -2.64424 4.81011 0
M  V30 4694 H 456.196 -3.11433 3.13787 0
M  V30 4695 N 455.255 -1.55392 -0.262866 0
M  V30 4696 C 456.671 -1.47459 -0.610582 0
M  V30 4697 C 456.871 -0.697031 -1.8906 0
M  V30 4698 O 455.927 -0.219952 -2.5154 0
M  V30 4699 C 457.24 -2.91751 -0.728131 0
M  V30 4700 C 458.788 -3.02027 -0.821517 0
M  V30 4701 C 459.263 -4.47594 -0.97076 0
M  V30 4702 N 460.754 -4.51465 -1.03603 0
M  V30 4703 C 461.489 -5.61326 -1.17049 0
M  V30 4704 N 460.985 -6.81032 -1.2715 0
M  V30 4705 N 462.778 -5.49089 -1.20239 0
M  V30 4706 H 454.929 -2.04395 0.577632 0
M  V30 4707 H 457.192 -0.927287 0.197086 0
M  V30 4708 H 456.898 -3.51413 0.142132 0
M  V30 4709 H 456.772 -3.4134 -1.6052 0
M  V30 4710 H 459.159 -2.42456 -1.68224 0
M  V30 4711 H 459.24 -2.55674 0.0803688 0
M  V30 4712 H 458.884 -5.07771 -0.114655 0
M  V30 4713 H 458.814 -4.91613 -1.88745 0
M  V30 4714 H 461.305 -3.6524 -0.96996 0
M  V30 4715 H 461.618 -7.60511 -1.37271 0
M  V30 4716 H 459.963 -6.83824 -1.24136 0
M  V30 4717 H 463.154 -4.54507 -1.11985 0
M  V30 4718 H 463.327 -6.34749 -1.30373 0
M  V30 4719 N 456.733 0.527833 -1.48498 0
M  V30 4720 C 457.696 1.61439 -1.62696 0
M  V30 4721 C 458.696 1.52824 -0.500136 0
M  V30 4722 O 459.886 1.56456 -0.765976 0
M  V30 4723 C 457.018 3.01063 -1.59918 0
M  V30 4724 H 458.211 1.50189 -2.59583 0
M  V30 4725 H 455.764 0.750055 -1.37127 0
M  V30 4726 H 456.499 3.17818 -0.645163 0
M  V30 4727 H 456.284 3.08725 -2.41726 0
M  V30 4728 H 457.774 3.80057 -1.73051 0
M  V30 4729 N 458.211 1.37122 0.776871 0
M  V30 4730 C 459.451 1.33441 1.54831 0
M  V30 4731 C 459.815 -0.0818963 1.91825 0
M  V30 4732 O 461.016 -0.24338 2.67696 0
M  V30 4733 C 459.287 2.24267 2.78279 0
M  V30 4734 S 460.846 2.38389 3.68397 0
M  V30 4735 H 457.664 0.473791 0.530135 0
M  V30 4736 H 460.266 1.7282 0.913968 0
M  V30 4737 H 458.97 3.261 2.49173 0
M  V30 4738 H 458.501 1.85953 3.46677 0
M  V30 4739 H 460.516 1.59068 4.70013 0
M  V30 4740 N 459.689 -1.00246 1.21608 0
M  V30 4741 C 460.937 -1.73717 1.0328 0
M  V30 4742 C 461.258 -1.90102 -0.434318 0
M  V30 4743 O 460.528 -1.45376 -1.31311 0
M  V30 4744 H 459.108 -0.643613 0.379172 0
M  V30 4745 H 461.77 -1.20787 1.52959 0
M  V30 4746 H 460.866 -2.73535 1.50283 0
M  V30 4747 N 461.167 -1.02423 -1.1978 0
M  V30 4748 C 462.13 -0.605703 -2.21052 0
M  V30 4749 C 463.13 0.328209 -1.57415 0
M  V30 4750 O 464.32 0.115853 -1.73814 0
M  V30 4751 C 461.452 0.114366 -3.40708 0
M  V30 4752 H 462.645 -1.5017 -2.59594 0
M  V30 4753 H 460.198 -0.814888 -1.33376 0
M  V30 4754 H 460.933 1.02492 -3.07678 0
M  V30 4755 H 460.718 -0.556641 -3.88129 0
M  V30 4756 H 462.208 0.394272 -4.15735 0
M  V30 4757 N 462.645 1.35699 -0.801477 0
M  V30 4758 C 463.922 1.9324 -0.302937 0
M  V30 4759 C 464.302 1.73209 1.20672 0
M  V30 4760 O 463.65 1.09809 2.00385 0
M  V30 4761 C 463.86 3.41728 -0.708747 0
M  V30 4762 C 465.208 4.18868 -0.695328 0
M  V30 4763 O 466.232 3.5022 -0.649971 0
M  V30 4764 O 465.091 5.41342 -0.749081 0
M  V30 4765 H 462.185 0.82331 -0.0780367 0
M  V30 4766 H 464.731 1.44806 -0.884832 0
M  V30 4767 H 463.503 3.50015 -1.74944 0
M  V30 4768 H 463.126 3.97471 -0.101384 0
M  V30 4769 N 464.123 0.554532 1.47522 0
M  V30 4770 C 465.348 0.0322661 2.07375 0
M  V30 4771 C 465.773 -1.25079 1.40488 0
M  V30 4772 O 465.131 -1.74859 0.47896 0
M  V30 4773 C 465.179 -0.149397 3.6029 0
M  V30 4774 O 464.283 -1.21259 3.9417 0
M  V30 4775 H 463.624 0.0501228 0.662106 0
M  V30 4776 H 466.154 0.769452 1.8958 0
M  V30 4777 H 466.164 -0.364437 4.06369 0
M  V30 4778 H 464.839 0.787743 4.08372 0
M  V30 4779 H 463.416 -0.97825 3.5984 0
M  V30 4780 N 465.601 -1.54893 0.290851 0
M  V30 4781 C 466.831 -2.04047 -0.323818 0
M  V30 4782 C 467.239 -1.16809 -1.48837 0
M  V30 4783 O 466.582 -0.184145 -1.82775 0
M  V30 4784 C 466.644 -3.49248 -0.852395 0
M  V30 4785 C 466.308 -4.56623 0.185557 0
M  V30 4786 C 467.305 -5.09985 1.01053 0
M  V30 4787 C 464.99 -5.01252 0.324332 0
M  V30 4788 C 466.984 -6.06507 1.96031 0
M  V30 4789 C 464.671 -5.97596 1.27757 0
M  V30 4790 C 465.669 -6.50107 2.09405 0
M  V30 4791 O 465.357 -7.44565 3.03114 0
M  V30 4792 H 465.089 -0.671735 -0.0758129 0
M  V30 4793 H 467.643 -2.00947 0.425393 0
M  V30 4794 H 465.873 -3.49639 -1.65195 0
M  V30 4795 H 467.562 -3.81654 -1.38185 0
M  V30 4796 H 468.328 -4.76307 0.914129 0
M  V30 4797 H 464.207 -4.60015 -0.301213 0
M  V30 4798 H 467.751 -6.47418 2.598 0
M  V30 4799 H 463.648 -6.30691 1.37473 0
M  V30 4800 H 464.416 -7.62334 2.97976 0
M  V30 4801 N 467.08 -0.0183926 -1.57589 0
M  V30 4802 C 467.99 0.982943 -2.13015 0
M  V30 4803 C 469.006 1.36443 -1.07979 0
M  V30 4804 O 470.182 1.44802 -1.3998 0
M  V30 4805 C 467.247 2.25024 -2.63752 0
M  V30 4806 C 466.308 1.93018 -3.83461 0
M  V30 4807 C 465.541 3.13706 -4.31769 0
M  V30 4808 O 465.764 4.2601 -3.79305 0
M  V30 4809 O 464.698 2.96629 -5.23732 0
M  V30 4810 H 468.524 0.541709 -2.9883 0
M  V30 4811 H 466.109 0.201565 -1.48034 0
M  V30 4812 H 467.991 2.99441 -2.96502 0
M  V30 4813 H 466.666 2.68349 -1.81026 0
M  V30 4814 H 465.573 1.16019 -3.55655 0
M  V30 4815 H 466.906 1.54516 -4.67317 0
M  V30 4816 N 468.558 1.5553 0.254621 0
M  V30 4817 C 469.491 1.84624 1.34124 0
M  V30 4818 C 470.469 0.700693 1.46728 0
M  V30 4819 O 471.653 0.94564 1.63064 0
M  V30 4820 C 468.78 2.02412 2.71564 0
M  V30 4821 C 467.826 3.25028 2.7615 0
M  V30 4822 S 468.659 4.81893 2.33538 0
M  V30 4823 C 469.815 5.02677 3.72917 0
M  V30 4824 H 470.048 2.76501 1.09245 0
M  V30 4825 H 467.581 1.47537 0.455211 0
M  V30 4826 H 469.539 2.13345 3.50705 0
M  V30 4827 H 468.2 1.11391 2.93685 0
M  V30 4828 H 467.393 3.34418 3.77069 0
M  V30 4829 H 466.995 3.12781 2.05046 0
M  V30 4830 H 469.287 4.89546 4.68349 0
M  V30 4831 H 470.23 6.0468 3.68467 0
M  V30 4832 H 470.638 4.30561 3.65072 0
M  V30 4833 N 470.036 -0.519951 1.48776 0
M  V30 4834 C 470.946 -1.65025 1.66745 0
M  V30 4835 C 471.962 -1.6508 0.549954 0
M  V30 4836 O 473.138 -1.83848 0.822295 0
M  V30 4837 C 470.203 -3.0146 1.71238 0
M  V30 4838 C 469.264 -3.12182 2.94688 0
M  V30 4839 C 468.497 -4.42109 2.98958 0
M  V30 4840 O 468.72 -5.29799 2.1135 0
M  V30 4841 O 467.654 -4.57406 3.91233 0
M  V30 4842 H 471.48 -1.52801 2.62461 0
M  V30 4843 H 469.065 -0.694157 1.32294 0
M  V30 4844 H 470.947 -3.82584 1.76657 0
M  V30 4845 H 469.622 -3.13988 0.786975 0
M  V30 4846 H 468.529 -2.30316 2.94797 0
M  V30 4847 H 469.862 -3.04574 3.86646 0
M  V30 4848 N 471.514 -1.37532 -0.769588 0
M  V30 4849 C 472.424 -1.35668 -1.91393 0
M  V30 4850 C 473.44 -0.255954 -1.72107 0
M  V30 4851 O 474.616 -0.491704 -1.95305 0
M  V30 4852 C 471.681 -1.16481 -3.26547 0
M  V30 4853 C 470.742 -2.36212 -3.58472 0
M  V30 4854 C 469.975 -2.17932 -4.87177 0
M  V30 4855 O 470.198 -1.1647 -5.58382 0
M  V30 4856 O 469.132 -3.06167 -5.18214 0
M  V30 4857 H 472.958 -2.32055 -1.95918 0
M  V30 4858 H 470.543 -1.18284 -0.912641 0
M  V30 4859 H 472.425 -1.07778 -4.07384 0
M  V30 4860 H 471.1 -0.231687 -3.2287 0
M  V30 4861 H 470.007 -2.50488 -2.77861 0
M  V30 4862 H 471.34 -3.281 -3.66894 0
M  V30 4863 N 472.992 0.995999 -1.22138 0
M  V30 4864 C 474.269 1.70834 -0.952642 0
M  V30 4865 C 474.649 2.04257 0.533119 0
M  V30 4866 O 473.997 1.72343 1.50034 0
M  V30 4867 C 474.207 2.96119 -1.84701 0
M  V30 4868 C 475.555 3.68962 -2.10124 0
M  V30 4869 O 476.579 3.0612 -1.82124 0
M  V30 4870 O 475.438 4.82017 -2.57531 0
M  V30 4871 H 472.532 0.745498 -0.357997 0
M  V30 4872 H 475.078 1.05262 -1.33109 0
M  V30 4873 H 473.85 2.67898 -2.85213 0
M  V30 4874 H 473.473 3.6943 -1.46995 0
M  V30 4875 N 474.47 1.03057 1.19235 0
M  V30 4876 C 475.718 0.726581 1.88587 0
M  V30 4877 C 476.039 -0.747227 1.80115 0
M  V30 4878 O 475.309 -1.53849 1.21274 0
M  V30 4879 H 473.889 0.265768 0.698124 0
M  V30 4880 H 476.551 1.30516 1.44746 0
M  V30 4881 H 475.647 1.0224 2.94879 0
M  V30 4882 N 475.948 -1.35272 0.808662 0
M  V30 4883 C 477.194 -1.99003 0.390581 0
M  V30 4884 C 477.527 -1.63999 -1.0401 0
M  V30 4885 O 476.802 -0.904368 -1.72196 0
M  V30 4886 C 477.085 -3.55454 0.576566 0
M  V30 4887 C 476.938 -4.00249 2.05233 0
M  V30 4888 C 478.257 -4.401 0.00354277 0
M  V30 4889 H 475.376 -0.722917 0.143388 0
M  V30 4890 H 478.018 -1.6039 1.01858 0
M  V30 4891 H 476.168 -3.88477 0.0419766 0
M  V30 4892 H 477.84 -3.77626 2.64946 0
M  V30 4893 H 476.083 -3.51082 2.54801 0
M  V30 4894 H 476.754 -5.0911 2.13333 0
M  V30 4895 H 479.23 -4.13548 0.460117 0
M  V30 4896 H 478.106 -5.48656 0.163575 0
M  V30 4897 H 478.367 -4.28444 -1.09032 0
M  V30 4898 N 477.426 -0.562348 -1.47226 0
M  V30 4899 C 478.842 -0.222492 -1.58042 0
M  V30 4900 C 479.042 1.27505 -1.56028 0
M  V30 4901 O 478.098 2.05555 -1.46641 0
M  V30 4902 C 479.411 -0.853694 -2.88327 0
M  V30 4903 C 480.959 -0.825397 -3.01921 0
M  V30 4904 C 481.434 -1.43576 -4.34914 0
M  V30 4905 N 482.925 -1.39918 -4.41562 0
M  V30 4906 C 483.66 -1.84103 -5.43041 0
M  V30 4907 N 483.156 -2.36167 -6.51304 0
M  V30 4908 N 484.949 -1.75142 -5.34118 0
M  V30 4909 H 477.1 -1.53525 -1.46778 0
M  V30 4910 H 479.363 -0.640527 -0.698877 0
M  V30 4911 H 479.069 -1.90635 -2.95552 0
M  V30 4912 H 478.943 -0.34977 -3.75575 0
M  V30 4913 H 481.33 0.218583 -2.94289 0
M  V30 4914 H 481.411 -1.36713 -2.16202 0
M  V30 4915 H 481.055 -2.47884 -4.43301 0
M  V30 4916 H 480.985 -0.869427 -5.19373 0
M  V30 4917 H 483.476 -1.0184 -3.63919 0
M  V30 4918 H 483.789 -2.67793 -7.24919 0
M  V30 4919 H 482.134 -2.40181 -6.52179 0
M  V30 4920 H 485.325 -1.34241 -4.48439 0
M  V30 4921 H 485.498 -2.09895 -6.13065 0
M  V30 4922 N 478.904 1.54736 -0.299062 0
M  V30 4923 C 479.851 2.23448 0.577899 0
M  V30 4924 C 480.821 1.21637 1.13109 0
M  V30 4925 O 482.006 1.50252 1.17597 0
M  V30 4926 C 479.146 2.9774 1.74484 0
M  V30 4927 C 478.259 4.1432 1.22323 0
M  V30 4928 C 477.394 4.76199 2.35388 0
M  V30 4929 C 476.433 5.84927 1.80351 0
M  V30 4930 N 475.57 6.4077 2.86982 0
M  V30 4931 H 480.41 2.97996 -0.0146545 0
M  V30 4932 H 477.947 1.47088 -0.0190013 0
M  V30 4933 H 479.905 3.39045 2.43114 0
M  V30 4934 H 478.535 2.25572 2.30905 0
M  V30 4935 H 477.587 3.7797 0.429249 0
M  V30 4936 H 478.899 4.92659 0.780309 0
M  V30 4937 H 478.053 5.20346 3.11969 0
M  V30 4938 H 476.792 3.97188 2.83006 0
M  V30 4939 H 475.797 5.40207 1.02259 0
M  V30 4940 H 477.022 6.65821 1.3364 0
M  V30 4941 H 474.968 5.64643 3.33938 0
M  V30 4942 H 474.885 7.1445 2.4718 0
M  V30 4943 H 476.153 6.89574 3.63466 0
M  V30 4944 N 480.382 0.0267497 1.57577 0
M  V30 4945 C 481.622 -0.65659 1.93567 0
M  V30 4946 C 481.986 -1.69429 0.903213 0
M  V30 4947 O 483.187 -2.42994 1.14923 0
M  V30 4948 C 481.458 -1.25912 3.34486 0
M  V30 4949 S 483.017 -1.96386 3.924 0
M  V30 4950 H 479.835 -0.216237 0.67732 0
M  V30 4951 H 482.437 0.0898475 1.95293 0
M  V30 4952 H 481.141 -0.491405 4.07447 0
M  V30 4953 H 480.672 -2.04291 3.36198 0
M  V30 4954 H 482.687 -3.24202 3.75643 0
M  V30 4955 N 481.861 -1.55662 -0.24637 0
M  V30 4956 C 482.808 -1.90361 -1.30504 0
M  V30 4957 C 483.778 -0.757905 -1.47801 0
M  V30 4958 O 484.963 -1.01161 -1.61775 0
M  V30 4959 C 482.103 -2.2042 -2.65535 0
M  V30 4960 C 481.216 -3.47799 -2.56242 0
M  V30 4961 C 480.351 -3.67426 -3.8363 0
M  V30 4962 C 479.39 -4.88403 -3.68956 0
M  V30 4963 N 478.527 -5.04548 -4.88237 0
M  V30 4964 H 483.367 -2.80645 -1.00213 0
M  V30 4965 H 480.904 -1.38924 -0.483577 0
M  V30 4966 H 482.862 -2.35853 -3.44135 0
M  V30 4967 H 481.492 -1.3334 -2.93973 0
M  V30 4968 H 480.544 -3.40694 -1.69208 0
M  V30 4969 H 481.856 -4.36544 -2.4131 0
M  V30 4970 H 481.01 -3.82821 -4.70673 0
M  V30 4971 H 479.749 -2.76914 -4.01459 0
M  V30 4972 H 478.754 -4.72984 -2.80296 0
M  V30 4973 H 479.979 -5.80375 -3.52621 0
M  V30 4974 H 477.925 -4.16974 -5.06427 0
M  V30 4975 H 477.842 -5.87384 -4.75937 0
M  V30 4976 H 479.11 -5.24355 -5.76777 0
M  V30 4977 N 483.339 0.512053 -1.4905 0
M  V30 4978 C 484.286 1.6148 -1.64902 0
M  V30 4979 C 485.256 1.58687 -0.490673 0
M  V30 4980 O 486.441 1.76842 -0.71636 0
M  V30 4981 C 483.581 2.99676 -1.71139 0
M  V30 4982 C 482.694 3.12568 -2.98203 0
M  V30 4983 C 481.829 4.4143 -2.95487 0
M  V30 4984 C 480.868 4.47916 -4.17179 0
M  V30 4985 N 480.005 5.68191 -4.12437 0
M  V30 4986 H 484.845 1.47271 -2.59066 0
M  V30 4987 H 482.382 0.716713 -1.28459 0
M  V30 4988 H 484.34 3.79761 -1.72736 0
M  V30 4989 H 482.97 3.12614 -0.804508 0
M  V30 4990 H 482.022 2.25618 -3.06269 0
M  V30 4991 H 483.334 3.1322 -3.88194 0
M  V30 4992 H 482.488 5.29825 -2.95585 0
M  V30 4993 H 481.227 4.43326 -2.03256 0
M  V30 4994 H 480.232 3.57925 -4.17337 0
M  V30 4995 H 481.457 4.47744 -5.1059 0
M  V30 4996 H 479.403 5.7095 -3.23036 0
M  V30 4997 H 479.32 5.70413 -4.96151 0
M  V30 4998 H 480.588 6.58823 -4.16621 0
M  V30 4999 N 484.817 1.37938 0.762283 0
M  V30 5000 C 486.057 1.35076 1.53407 0
M  V30 5001 C 486.421 -0.061546 1.91901 0
M  V30 5002 O 487.622 -0.214973 2.67939 0
M  V30 5003 C 485.893 2.27206 2.75884 0
M  V30 5004 S 487.452 2.42283 3.65848 0
M  V30 5005 H 484.27 0.479387 0.52508 0
M  V30 5006 H 486.872 1.7378 0.895586 0
M  V30 5007 H 485.576 3.28724 2.457 0
M  V30 5008 H 485.107 1.8962 3.44685 0
M  V30 5009 H 487.122 1.64044 4.68299 0
M  V30 5010 N 486.295 -0.989507 1.22664 0
M  V30 5011 C 487.205 -2.11449 1.01619 0
M  V30 5012 C 488.221 -1.73962 -0.036545 0
M  V30 5013 O 489.397 -2.00788 0.156924 0
M  V30 5014 C 486.462 -3.41465 0.600204 0
M  V30 5015 C 485.523 -3.93033 1.72695 0
M  V30 5016 C 484.756 -5.16844 1.33071 0
M  V30 5017 O 484.979 -5.7001 0.210975 0
M  V30 5018 O 483.913 -5.6225 2.14845 0
M  V30 5019 H 487.739 -2.32088 1.9588 0
M  V30 5020 H 485.324 -1.09823 1.01289 0
M  V30 5021 H 487.206 -4.19695 0.37873 0
M  V30 5022 H 485.881 -3.22178 -0.313511 0
M  V30 5023 H 484.788 -3.15961 2.00298 0
M  V30 5024 H 486.121 -4.16758 2.61865 0
M  V30 5025 N 487.773 -1.03688 -1.18687 0
M  V30 5026 C 489.021 -0.736572 -1.88199 0
M  V30 5027 C 489.342 0.737665 -1.80509 0
M  V30 5028 O 488.612 1.53204 -1.22088 0
M  V30 5029 H 487.192 -0.269466 -0.696704 0
M  V30 5030 H 489.854 -1.31282 -1.44052 0
M  V30 5031 H 488.95 -1.03802 -2.94332 0
M  V30 5032 N 489.251 1.34841 -0.815825 0
M  V30 5033 C 490.662 1.80937 -0.46029 0
M  V30 5034 C 491.013 1.67685 1.01863 0
M  V30 5035 O 490.138 1.21277 1.79223 0
M  V30 5036 C 490.733 3.28509 -0.828708 0
M  V30 5037 C 489.292 3.72712 -0.525644 0
M  V30 5038 C 488.439 2.56676 -1.04941 0
M  V30 5039 H 491.39 1.22688 -1.00664 0
M  V30 5040 H 491.411 3.80279 -0.129757 0
M  V30 5041 H 490.923 3.38122 -1.90513 0
M  V30 5042 H 489.024 3.68642 0.541666 0
M  V30 5043 H 489.137 4.67119 -1.06474 0
M  V30 5044 H 487.501 2.50302 -0.471286 0
M  V30 5045 H 488.284 2.69063 -2.13214 0
M  V30 5046 N 490.729 0.570148 1.46925 0
M  V30 5047 C 491.969 0.0534743 2.0433 0
M  V30 5048 C 492.333 -1.27729 1.4335 0
M  V30 5049 O 493.534 -1.88244 1.91879 0
M  V30 5050 C 491.805 -0.0244296 3.57392 0
M  V30 5051 S 493.364 -0.485351 4.36108 0
M  V30 5052 H 490.182 0.0313908 0.710307 0
M  V30 5053 H 492.784 0.759808 1.80131 0
M  V30 5054 H 491.488 0.948261 3.99295 0
M  V30 5055 H 491.019 -0.753922 3.86108 0
M  V30 5056 H 493.034 -1.74258 4.64595 0
M  V30 5057 N 492.207 -1.54576 0.307264 0
M  V30 5058 C 493.623 -1.59534 -0.0459251 0
M  V30 5059 C 493.823 -1.32414 -1.51884 0
M  V30 5060 O 492.879 -1.1006 -2.27251 0
M  V30 5061 C 494.192 -2.98566 0.357649 0
M  V30 5062 C 495.74 -3.11491 0.306937 0
M  V30 5063 C 496.215 -4.52842 0.685427 0
M  V30 5064 N 497.706 -4.58782 0.638203 0
M  V30 5065 C 498.441 -5.66238 0.903458 0
M  V30 5066 N 497.937 -6.81703 1.23501 0
M  V30 5067 N 499.73 -5.55937 0.830102 0
M  V30 5068 H 491.881 -1.70464 1.26712 0
M  V30 5069 H 494.144 -0.79647 0.514139 0
M  V30 5070 H 493.85 -3.23356 1.38325 0
M  V30 5071 H 493.724 -3.76117 -0.285565 0
M  V30 5072 H 496.111 -2.86446 -0.709424 0
M  V30 5073 H 496.192 -2.36081 0.984861 0
M  V30 5074 H 495.836 -4.78618 1.69963 0
M  V30 5075 H 495.766 -5.26598 -0.0146346 0
M  V30 5076 H 498.257 -3.75849 0.393138 0
M  V30 5077 H 498.57 -7.59582 1.42322 0
M  V30 5078 H 496.915 -6.8324 1.27311 0
M  V30 5079 H 500.106 -4.64608 0.570693 0
M  V30 5080 H 500.279 -6.39597 1.04019 0
M  V30 5081 N 493.685 -0.035106 -1.57561 0
M  V30 5082 C 494.632 0.94474 -2.10578 0
M  V30 5083 C 495.602 1.3192 -1.00927 0
M  V30 5084 O 496.787 1.41147 -1.28382 0
M  V30 5085 C 493.927 2.21982 -2.64231 0
M  V30 5086 C 493.04 1.90128 -3.87911 0
M  V30 5087 C 492.175 3.11975 -4.29936 0
M  V30 5088 C 491.214 2.75968 -5.46359 0
M  V30 5089 N 490.351 3.90459 -5.83512 0
M  V30 5090 H 495.191 0.485717 -2.94015 0
M  V30 5091 H 492.728 0.228143 -1.4532 0
M  V30 5092 H 494.686 2.96572 -2.9343 0
M  V30 5093 H 493.316 2.6549 -1.83616 0
M  V30 5094 H 492.368 1.05755 -3.65404 0
M  V30 5095 H 493.68 1.59613 -4.72573 0
M  V30 5096 H 492.834 3.9488 -4.60603 0
M  V30 5097 H 491.573 3.45657 -3.44053 0
M  V30 5098 H 490.578 1.91478 -5.1538 0
M  V30 5099 H 491.803 2.43497 -6.33945 0
M  V30 5100 H 489.749 4.23971 -5.00584 0
M  V30 5101 H 489.666 3.63588 -6.62827 0
M  V30 5102 H 490.934 4.7405 -6.18787 0
M  V30 5103 N 495.163 1.55791 0.238111 0
M  V30 5104 C 496.409 1.78297 0.966337 0
M  V30 5105 C 496.742 0.601903 1.84637 0
M  V30 5106 O 496.017 -0.399499 1.90353 0
M  V30 5107 C 496.3 3.10758 1.81939 0
M  V30 5108 C 496.153 4.39283 0.966958 0
M  V30 5109 C 497.472 3.39519 2.80027 0
M  V30 5110 H 494.591 0.648654 0.349882 0
M  V30 5111 H 497.233 1.88525 0.236253 0
M  V30 5112 H 495.383 3.02168 2.44185 0
M  V30 5113 H 497.055 4.59873 0.362514 0
M  V30 5114 H 495.298 4.32948 0.271669 0
M  V30 5115 H 495.969 5.28368 1.59784 0
M  V30 5116 H 498.445 3.48128 2.27917 0
M  V30 5117 H 497.321 4.33402 3.36829 0
M  V30 5118 H 497.582 2.60864 3.56934 0
M  V30 5119 N 496.642 -0.504142 1.49319 0
M  V30 5120 C 497.882 -1.26867 1.60263 0
M  V30 5121 C 498.246 -1.89924 0.281578 0
M  V30 5122 O 499.447 -2.67479 0.266176 0
M  V30 5123 C 497.718 -2.30956 2.72753 0
M  V30 5124 S 499.277 -3.1679 3.03628 0
M  V30 5125 H 496.095 -0.431198 0.565322 0
M  V30 5126 H 498.697 -0.571407 1.86963 0
M  V30 5127 H 497.401 -1.83156 3.67263 0
M  V30 5128 H 496.932 -3.05356 2.48035 0
M  V30 5129 H 498.947 -4.31549 2.44908 0
M  V30 5130 N 498.12 -1.38341 -0.754957 0
M  V30 5131 C 499.068 -1.35573 -1.89005 0
M  V30 5132 C 500.062 -0.241824 -1.67665 0
M  V30 5133 O 501.268 -0.410785 -1.7525 0
M  V30 5134 H 497.643 -0.422898 -0.621821 0
M  V30 5135 H 499.614 -2.31359 -1.88455 0
M  V30 5136 C 498.363 -1.19631 -3.26471 0
M  V30 5137 H 497.686 -2.04605 -3.43477 0
M  V30 5138 H 499.126 -1.21748 -4.06144 0
M  V30 5139 C 497.585 0.0968705 -3.36761 0
M  V30 5140 O 498.115 1.07439 -3.87066 0
M  V30 5141 N 496.321 0.153242 -2.90196 0
M  V30 5142 H 495.868 -0.642908 -2.49448 0
M  V30 5143 H 495.826 1.01807 -2.9746 0
M  V30 5144 N 499.598 0.982988 -1.23187 0
M  V30 5145 C 500.846 1.72052 -1.06031 0
M  V30 5146 C 501.167 1.90769 0.404019 0
M  V30 5147 O 500.437 1.47446 1.28982 0
M  V30 5148 H 499.017 0.637499 -0.389363 0
M  V30 5149 H 501.679 1.18338 -1.54862 0
M  V30 5150 H 500.775 2.7111 -1.54615 0
M  V30 5151 N 501.076 1.04316 1.18135 0
M  V30 5152 C 502.325 0.74319 1.87509 0
M  V30 5153 C 502.638 -0.732136 1.81381 0
M  V30 5154 O 503.844 -1.14572 2.46141 0
M  V30 5155 C 502.3 1.27913 3.36402 0
M  V30 5156 C 501.908 2.78326 3.51053 0
M  V30 5157 C 503.652 1.0558 4.11161 0
M  V30 5158 C 501.559 3.25266 4.93919 0
M  V30 5159 H 500.489 0.274313 0.702331 0
M  V30 5160 H 503.14 1.25931 1.33467 0
M  V30 5161 H 501.522 0.690853 3.89927 0
M  V30 5162 H 502.696 3.42933 3.07788 0
M  V30 5163 H 501.011 2.991 2.89704 0
M  V30 5164 H 503.608 1.38161 5.16542 0
M  V30 5165 H 503.951 -0.00684729 4.16299 0
M  V30 5166 H 504.484 1.60882 3.63816 0
M  V30 5167 H 501.223 4.30922 4.9395 0
M  V30 5168 H 500.743 2.65396 5.3789 0
M  V30 5169 H 502.422 3.19433 5.62647 0
M  V30 5170 N 502.554 -1.34406 0.822964 0
M  V30 5171 C 503.802 -1.97892 0.410245 0
M  V30 5172 C 504.123 -1.65567 -1.03017 0
M  V30 5173 O 503.393 -0.94642 -1.71522 0
M  V30 5174 H 501.973 -0.732049 0.148707 0
M  V30 5175 H 504.635 -1.64043 1.05242 0
M  V30 5176 H 503.731 -3.07579 0.529284 0
M  V30 5177 N 504.032 -0.577932 -1.46621 0
M  V30 5178 C 505.281 -0.0594281 -2.01612 0
M  V30 5179 C 505.594 1.30663 -1.45556 0
M  V30 5180 O 506.8 1.91621 -1.92337 0
M  V30 5181 C 505.256 -0.0556666 -3.59857 0
M  V30 5182 C 504.864 -1.41975 -4.24908 0
M  V30 5183 C 506.608 0.409143 -4.22524 0
M  V30 5184 C 504.515 -1.37397 -5.75218 0
M  V30 5185 H 503.445 -0.0184469 -0.753774 0
M  V30 5186 H 506.096 -0.728869 -1.68404 0
M  V30 5187 H 504.478 0.679843 -3.90121 0
M  V30 5188 H 505.652 -2.17461 -4.0626 0
M  V30 5189 H 503.967 -1.82419 -3.74316 0
M  V30 5190 H 506.564 0.46211 -5.32699 0
M  V30 5191 H 506.907 1.42565 -3.91128 0
M  V30 5192 H 507.44 -0.272152 -3.96868 0
M  V30 5193 H 504.179 -2.36714 -6.11267 0
M  V30 5194 H 503.699 -0.661239 -5.96144 0
M  V30 5195 H 505.378 -1.08484 -6.3784 0
M  V30 5196 N 505.51 1.54411 -0.315457 0
M  V30 5197 C 506.758 2.00023 0.288971 0
M  V30 5198 C 507.079 1.20529 1.5329 0
M  V30 5199 O 506.349 0.304986 1.93511 0
M  V30 5200 H 504.929 0.738891 0.109766 0
M  V30 5201 H 507.591 1.90094 -0.430129 0
M  V30 5202 H 506.687 3.07198 0.550999 0
M  V30 5203 N 506.988 0.0434614 1.5754 0
M  V30 5204 C 507.898 -0.94893 2.14552 0
M  V30 5205 C 508.914 -1.34707 1.10136 0
M  V30 5206 O 510.09 -1.42557 1.42266 0
M  V30 5207 C 507.155 -2.208 2.67298 0
M  V30 5208 C 506.216 -1.86893 3.86484 0
M  V30 5209 C 505.449 -3.06797 4.36705 0
M  V30 5210 O 505.672 -4.19921 3.86034 0
M  V30 5211 O 504.606 -2.8826 5.28384 0
M  V30 5212 H 508.432 -0.494099 2.99654 0
M  V30 5213 H 506.017 -0.177989 1.48336 0
M  V30 5214 H 507.899 -2.94686 3.01228 0
M  V30 5215 H 506.574 -2.65436 1.85272 0
M  V30 5216 H 505.481 -1.10347 3.57455 0
M  V30 5217 H 506.814 -1.47062 4.69716 0
M  V30 5218 N 508.466 -1.55915 -0.229846 0
M  V30 5219 C 509.713 -1.78542 -0.955452 0
M  V30 5220 C 510.041 -0.610785 -1.84661 0
M  V30 5221 O 509.296 0.405213 -1.91459 0
M  V30 5222 C 509.595 -3.06845 -1.8325 0
M  V30 5223 C 509.261 -4.37395 -1.09528 0
M  V30 5224 C 507.923 -4.72868 -0.891598 0
M  V30 5225 C 510.275 -5.18029 -0.574046 0
M  V30 5226 C 507.603 -5.86496 -0.154655 0
M  V30 5227 C 509.955 -6.32423 0.149513 0
M  V30 5228 C 508.619 -6.66504 0.364519 0
M  V30 5229 H 507.889 -0.653333 -0.349625 0
M  V30 5230 H 510.536 -1.90183 -0.224235 0
M  V30 5231 H 508.841 -2.90291 -2.63132 0
M  V30 5232 H 510.538 -3.21553 -2.39592 0
M  V30 5233 H 507.128 -4.09538 -1.26399 0
M  V30 5234 H 511.312 -4.91066 -0.718899 0
M  V30 5235 H 506.568 -6.11396 0.0222356 0
M  V30 5236 H 510.742 -6.94137 0.560947 0
M  V30 5237 H 508.369 -7.54397 0.937495 0
M  V30 5238 N 509.944 0.496216 -1.49584 0
M  V30 5239 C 510.891 1.59722 -1.66606 0
M  V30 5240 C 511.861 1.58158 -0.507477 0
M  V30 5241 O 513.046 1.76072 -0.735076 0
M  V30 5242 C 510.186 2.97844 -1.74308 0
M  V30 5243 C 509.299 3.09388 -3.01502 0
M  V30 5244 C 508.434 4.38271 -3.00153 0
M  V30 5245 C 507.473 4.43466 -4.21906 0
M  V30 5246 N 506.61 5.63784 -4.1844 0
M  V30 5247 H 511.45 1.44515 -2.60613 0
M  V30 5248 H 508.987 0.703048 -1.29212 0
M  V30 5249 H 510.945 3.77907 -1.76754 0
M  V30 5250 H 509.575 3.11743 -0.837619 0
M  V30 5251 H 508.627 2.22357 -3.08645 0
M  V30 5252 H 509.939 3.09085 -3.91494 0
M  V30 5253 H 509.093 5.2666 -3.01188 0
M  V30 5254 H 507.832 4.41146 -2.07947 0
M  V30 5255 H 506.837 3.53478 -4.21109 0
M  V30 5256 H 508.062 4.42303 -5.1531 0
M  V30 5257 H 506.008 5.67491 -3.29074 0
M  V30 5258 H 505.925 5.65118 -5.02173 0
M  V30 5259 H 507.193 6.54367 -4.23585 0
M  V30 5260 N 511.423 1.38739 0.74761 0
M  V30 5261 C 512.7 1.25791 1.49786 0
M  V30 5262 C 513.08 -0.138075 2.10648 0
M  V30 5263 O 512.428 -1.14815 1.9756 0
M  V30 5264 C 512.638 2.37265 2.55942 0
M  V30 5265 C 513.986 2.75978 3.22679 0
M  V30 5266 O 515.01 2.36621 2.6625 0
M  V30 5267 O 513.869 3.43867 4.24756 0
M  V30 5268 H 510.963 0.492251 0.664543 0
M  V30 5269 H 513.509 1.50582 0.782511 0
M  V30 5270 H 512.281 3.30644 2.0926 0
M  V30 5271 H 511.904 2.14071 3.35051 0
M  V30 5272 N 512.901 -0.976442 1.23707 0
M  V30 5273 C 514.126 -1.75875 1.09922 0
M  V30 5274 C 514.551 -1.84911 -0.34489 0
M  V30 5275 O 513.909 -1.31363 -1.24954 0
M  V30 5276 C 513.957 -3.16179 1.73388 0
M  V30 5277 O 513.061 -4.00124 0.99871 0
M  V30 5278 H 512.402 -0.540954 0.385052 0
M  V30 5279 H 514.932 -1.22546 1.6384 0
M  V30 5280 H 514.942 -3.66741 1.78788 0
M  V30 5281 H 513.617 -3.08917 2.78466 0
M  V30 5282 H 512.194 -3.58624 1.02193 0
M  V30 5283 N 514.379 -1.04941 -1.1758 0
M  V30 5284 C 515.309 -0.669172 -2.23706 0
M  V30 5285 C 516.29 0.331835 -1.66832 0
M  V30 5286 O 517.475 0.209988 -1.93061 0
M  V30 5287 C 514.605 -0.0404889 -3.47276 0
M  V30 5288 C 513.559 -0.965983 -4.16957 0
M  V30 5289 C 512.885 -0.201312 -5.34321 0
M  V30 5290 C 514.185 -2.28902 -4.69469 0
M  V30 5291 H 515.879 -1.55639 -2.55767 0
M  V30 5292 H 513.425 -0.749793 -1.22939 0
M  V30 5293 H 515.378 0.237298 -4.20731 0
M  V30 5294 H 514.102 0.881658 -3.14475 0
M  V30 5295 H 512.761 -1.22829 -3.45411 0
M  V30 5296 H 512.409 0.723519 -4.97769 0
M  V30 5297 H 512.109 -0.817968 -5.81879 0
M  V30 5298 H 513.633 0.0692499 -6.10561 0
M  V30 5299 H 515.047 -2.07132 -5.34574 0
M  V30 5300 H 513.444 -2.85942 -5.27596 0
M  V30 5301 H 514.514 -2.92937 -3.86414 0
M  V30 5302 N 515.857 1.33968 -0.830081 0
M  V30 5303 C 517.082 2.02813 -0.433796 0
M  V30 5304 C 517.507 1.62076 0.954614 0
M  V30 5305 O 516.865 0.808955 1.62252 0
M  V30 5306 C 516.913 3.56348 -0.552115 0
M  V30 5307 O 516.017 4.10202 0.425191 0
M  V30 5308 H 515.358 0.639817 -0.177567 0
M  V30 5309 H 517.888 1.7106 -1.12248 0
M  V30 5310 H 517.898 4.05722 -0.430513 0
M  V30 5311 H 516.573 3.85344 -1.56471 0
M  V30 5312 H 515.15 3.71979 0.261878 0
M  V30 5313 N 517.335 0.585699 1.46312 0
M  V30 5314 C 518.584 0.0701192 2.01578 0
M  V30 5315 C 518.897 -1.29889 1.46247 0
M  V30 5316 O 520.103 -1.90598 1.93351 0
M  V30 5317 C 518.559 0.0747499 3.59822 0
M  V30 5318 C 518.167 1.44226 4.24149 0
M  V30 5319 C 519.911 -0.38673 4.22735 0
M  V30 5320 C 517.818 1.40446 5.74481 0
M  V30 5321 H 516.748 0.0224441 0.753666 0
M  V30 5322 H 519.399 0.737789 1.68015 0
M  V30 5323 H 517.781 -0.659144 3.90476 0
M  V30 5324 H 518.955 2.19612 4.05101 0
M  V30 5325 H 517.27 1.84401 3.73343 0
M  V30 5326 H 519.867 -0.433853 5.32937 0
M  V30 5327 H 520.21 -1.40489 3.91878 0
M  V30 5328 H 520.743 0.293195 3.96718 0
M  V30 5329 H 517.482 2.39952 6.10003 0
M  V30 5330 H 517.002 0.692845 5.95785 0
M  V30 5331 H 518.681 1.11865 6.37256 0
M  V30 5332 N 518.813 -1.54241 0.323641 0
M  V30 5333 C 519.761 -2.25813 -0.557804 0
M  V30 5334 C 520.755 -1.27225 -1.11849 0
M  V30 5335 O 521.961 -1.45001 -1.06652 0
M  V30 5336 H 518.336 -0.72532 -0.198532 0
M  V30 5337 H 520.307 -2.98322 0.0681112 0
M  V30 5338 C 519.056 -3.02913 -1.70701 0
M  V30 5339 H 518.379 -3.78593 -1.28482 0
M  V30 5340 H 519.819 -3.56238 -2.29935 0
M  V30 5341 C 518.278 -2.11217 -2.62467 0
M  V30 5342 O 518.808 -1.69508 -3.64184 0
M  V30 5343 N 517.014 -1.76704 -2.30703 0
M  V30 5344 H 516.561 -2.1082 -1.48029 0
M  V30 5345 H 516.519 -1.15631 -2.92364 0
M  V30 5346 N 520.291 -0.0518155 -1.57515 0
M  V30 5347 C 521.254 0.907547 -2.10467 0
M  V30 5348 C 522.254 1.23947 -1.02439 0
M  V30 5349 O 523.444 1.17604 -1.2851 0
M  V30 5350 C 520.576 2.21723 -2.58944 0
M  V30 5351 H 521.769 0.44851 -2.96527 0
M  V30 5352 H 519.322 0.196598 -1.55059 0
M  V30 5353 H 520.057 2.72206 -1.76279 0
M  V30 5354 H 519.842 1.98935 -3.37886 0
M  V30 5355 H 521.332 2.90441 -3.00056 0
M  V30 5356 N 521.769 1.56035 0.221574 0
M  V30 5357 C 522.997 1.8313 0.962864 0
M  V30 5358 C 523.412 0.630934 1.77946 0
M  V30 5359 O 522.769 -0.400519 1.78051 0
M  V30 5360 C 522.82 3.08742 1.88045 0
M  V30 5361 O 522.541 4.24147 1.09686 0
M  V30 5362 C 524.042 3.48824 2.73563 0
M  V30 5363 H 521.262 0.608775 0.282194 0
M  V30 5364 H 523.806 2.03124 0.23681 0
M  V30 5365 H 521.961 2.90723 2.56045 0
M  V30 5366 H 522.375 4.95505 1.71974 0
M  V30 5367 H 523.849 4.39752 3.3365 0
M  V30 5368 H 524.326 2.70575 3.45956 0
M  V30 5369 H 524.932 3.69282 2.10976 0
M  V30 5370 N 523.247 -0.488276 1.49845 0
M  V30 5371 C 524.195 -1.60917 1.67954 0
M  V30 5372 C 525.189 -1.6038 0.54539 0
M  V30 5373 O 526.395 -1.64736 0.7254 0
M  V30 5374 H 522.77 -0.533658 0.529824 0
M  V30 5375 H 524.741 -1.428 2.62013 0
M  V30 5376 C 523.49 -2.98975 1.77509 0
M  V30 5377 H 522.813 -3.00099 2.6416 0
M  V30 5378 H 524.253 -3.76906 1.9421 0
M  V30 5379 C 522.712 -3.3282 0.522745 0
M  V30 5380 O 523.242 -4.00208 -0.345866 0
M  V30 5381 N 521.448 -2.8808 0.381882 0
M  V30 5382 H 520.995 -2.33415 1.08974 0
M  V30 5383 H 520.953 -3.11091 -0.454929 0
M  V30 5384 N 524.725 -1.39134 -0.740242 0
M  V30 5385 C 525.974 -1.35384 -1.49512 0
M  V30 5386 C 526.287 0.04919 -1.95538 0
M  V30 5387 O 527.493 0.209257 -2.70692 0
M  V30 5388 C 525.949 -2.37812 -2.70136 0
M  V30 5389 C 525.557 -3.83804 -2.31081 0
M  V30 5390 C 527.301 -2.4313 -3.47977 0
M  V30 5391 C 525.208 -4.77886 -3.48395 0
M  V30 5392 H 524.138 -0.503297 -0.561434 0
M  V30 5393 H 526.789 -1.64754 -0.807974 0
M  V30 5394 H 525.171 -2.01505 -3.40899 0
M  V30 5395 H 526.345 -4.29123 -1.67898 0
M  V30 5396 H 524.66 -3.81732 -1.66343 0
M  V30 5397 H 527.257 -3.10614 -4.35228 0
M  V30 5398 H 527.6 -1.45423 -3.90074 0
M  V30 5399 H 528.133 -2.78304 -2.84239 0
M  V30 5400 H 524.872 -5.76836 -3.11353 0
M  V30 5401 H 524.392 -4.3725 -4.10576 0
M  V30 5402 H 526.071 -4.96538 -4.148 0
M  V30 5403 N 526.204 0.969867 -1.24223 0
M  V30 5404 C 527.151 2.06407 -1.0327 0
M  V30 5405 C 528.121 1.66014 0.0533 0
M  V30 5406 O 529.306 1.90533 -0.100896 0
M  V30 5407 C 526.446 3.3909 -0.641262 0
M  V30 5408 C 525.559 3.9269 -1.80051 0
M  V30 5409 C 524.694 5.13631 -1.35486 0
M  V30 5410 C 523.733 5.59423 -2.48419 0
M  V30 5411 N 522.87 6.71586 -2.04737 0
M  V30 5412 H 527.71 2.23663 -1.96923 0
M  V30 5413 H 525.247 1.09624 -0.980862 0
M  V30 5414 H 527.205 4.15323 -0.395351 0
M  V30 5415 H 525.835 3.21765 0.258269 0
M  V30 5416 H 524.887 3.13116 -2.16014 0
M  V30 5417 H 526.199 4.22636 -2.64916 0
M  V30 5418 H 525.353 5.97231 -1.0677 0
M  V30 5419 H 524.092 4.85364 -0.476722 0
M  V30 5420 H 523.097 4.74398 -2.77897 0
M  V30 5421 H 524.322 5.89705 -3.36786 0
M  V30 5422 H 522.268 6.45058 -1.19318 0
M  V30 5423 H 522.185 7.0097 -2.83156 0
M  V30 5424 H 523.453 7.58633 -1.79154 0
M  V30 5425 N 527.682 1.05563 1.17022 0
M  V30 5426 C 528.632 0.630007 2.19123 0
M  V30 5427 C 529.616 -0.335472 1.57364 0
M  V30 5428 O 530.808 -0.1521 1.76345 0
M  V30 5429 C 527.937 0.0101676 3.43298 0
M  V30 5430 C 527.023 0.999698 4.12149 0
M  V30 5431 N 527.414 2.17251 4.56766 0
M  V30 5432 C 525.712 0.829 4.38228 0
M  V30 5433 C 526.413 2.79883 5.09942 0
M  V30 5434 N 525.389 2.07656 5.02374 0
M  V30 5435 H 529.191 1.52353 2.51328 0
M  V30 5436 H 526.705 0.926288 1.33393 0
M  V30 5437 H 528.702 -0.312541 4.15727 0
M  V30 5438 H 527.362 -0.878707 3.12584 0
M  V30 5439 H 528.373 2.55067 4.50734 0
M  V30 5440 H 525.05 -0.00850974 4.17499 0
M  V30 5441 H 526.44 3.79362 5.54558 0
M  V30 5442 N 529.16 -1.33526 0.837174 0
M  V30 5443 C 530.407 -1.97837 0.432064 0
M  V30 5444 C 530.735 -1.66324 -1.00829 0
M  V30 5445 O 529.99 -0.93448 -1.71948 0
M  V30 5446 C 530.289 -3.52367 0.597675 0
M  V30 5447 C 529.955 -4.03826 2.00587 0
M  V30 5448 C 528.617 -4.1759 2.39106 0
M  V30 5449 C 530.969 -4.31333 2.92576 0
M  V30 5450 C 528.297 -4.56195 3.68921 0
M  V30 5451 C 530.649 -4.7139 4.2187 0
M  V30 5452 C 529.313 -4.8336 4.60347 0
M  V30 5453 H 528.583 -0.723937 0.158104 0
M  V30 5454 H 531.23 -1.5923 1.06387 0
M  V30 5455 H 529.535 -3.91624 -0.117452 0
M  V30 5456 H 531.232 -4.00126 0.26454 0
M  V30 5457 H 527.822 -3.93586 1.69671 0
M  V30 5458 H 532.006 -4.20224 2.64056 0
M  V30 5459 H 527.262 -4.63655 3.9854 0
M  V30 5460 H 531.436 -4.91631 4.93226 0
M  V30 5461 H 529.063 -5.1303 5.60985 0
M  V30 5462 N 530.638 -0.59345 -1.46 0
M  V30 5463 C 531.585 0.133618 -2.30413 0
M  V30 5464 C 532.555 0.873736 -1.41262 0
M  V30 5465 O 533.74 0.862279 -1.70204 0
M  V30 5466 C 530.88 1.13434 -3.25924 0
M  V30 5467 C 529.993 0.39656 -4.30176 0
M  V30 5468 C 529.128 1.38575 -5.12806 0
M  V30 5469 C 528.167 0.634984 -6.08797 0
M  V30 5470 N 527.304 1.57276 -6.84258 0
M  V30 5471 H 532.144 -0.592252 -2.92055 0
M  V30 5472 H 529.681 -0.303874 -1.43927 0
M  V30 5473 H 531.639 1.72752 -3.79753 0
M  V30 5474 H 530.269 1.82779 -2.66067 0
M  V30 5475 H 529.321 -0.311861 -3.79119 0
M  V30 5476 H 530.633 -0.189869 -4.98438 0
M  V30 5477 H 529.787 2.05141 -5.70966 0
M  V30 5478 H 528.526 2.00611 -4.44529 0
M  V30 5479 H 527.531 -0.0443925 -5.49782 0
M  V30 5480 H 528.756 0.0198678 -6.79097 0
M  V30 5481 H 526.702 2.18103 -6.18682 0
M  V30 5482 H 526.619 1.03941 -7.48821 0
M  V30 5483 H 527.887 2.22844 -7.46968 0
M  V30 5484 N 532.116 1.54067 -0.331816 0
M  V30 5485 C 533.064 2.26105 0.54582 0
M  V30 5486 C 534.058 1.27816 1.11173 0
M  V30 5487 O 535.264 1.45565 1.05882 0
M  V30 5488 H 531.639 0.726363 0.194683 0
M  V30 5489 H 533.61 2.98282 -0.083931 0
M  V30 5490 C 532.359 3.03814 1.69092 0
M  V30 5491 H 531.682 3.79269 1.26473 0
M  V30 5492 H 533.122 3.57453 2.28043 0
M  V30 5493 C 531.581 2.12606 2.61343 0
M  V30 5494 O 532.111 1.71437 3.6328 0
M  V30 5495 N 530.317 1.77925 2.29763 0
M  V30 5496 H 529.864 2.11602 1.46909 0
M  V30 5497 H 529.822 1.1718 2.91747 0
M  V30 5498 N 533.594 0.0601682 1.57485 0
M  V30 5499 C 534.834 -0.615384 1.94916 0
M  V30 5500 C 535.198 -1.67475 0.938948 0
M  V30 5501 O 536.399 -2.40502 1.20051 0
M  V30 5502 C 534.67 -1.18788 3.37082 0
M  V30 5503 S 536.229 -1.88018 3.96478 0
M  V30 5504 H 533.047 -0.201821 0.681754 0
M  V30 5505 H 535.649 0.131252 1.95059 0
M  V30 5506 H 534.353 -0.404869 4.08398 0
M  V30 5507 H 533.884 -1.97114 3.40455 0
M  V30 5508 H 535.899 -3.16161 3.82435 0
M  V30 5509 N 535.072 -1.5615 -0.213296 0
M  V30 5510 C 536.3 -1.83638 -0.953139 0
M  V30 5511 C 536.715 -0.640362 -1.77609 0
M  V30 5512 O 536.072 0.391071 -1.78261 0
M  V30 5513 C 536.123 -3.09735 -1.86405 0
M  V30 5514 O 535.844 -4.24723 -1.07435 0
M  V30 5515 C 537.345 -3.5027 -2.71709 0
M  V30 5516 H 534.565 -0.610263 -0.278962 0
M  V30 5517 H 537.109 -2.03247 -0.226035 0
M  V30 5518 H 535.264 -2.92077 -2.545 0
M  V30 5519 H 535.678 -4.9641 -1.69343 0
M  V30 5520 H 537.152 -4.41515 -3.31313 0
M  V30 5521 H 537.629 -2.72406 -3.44516 0
M  V30 5522 H 538.235 -3.70396 -2.09015 0
M  V30 5523 N 536.55 0.480323 -1.50102 0
M  V30 5524 C 537.775 1.26126 -1.64642 0
M  V30 5525 C 538.2 1.85257 -0.325823 0
M  V30 5526 O 537.558 1.66854 0.709194 0
M  V30 5527 C 537.606 2.35243 -2.73301 0
M  V30 5528 O 536.71 3.39646 -2.33911 0
M  V30 5529 H 536.051 0.371463 -0.550374 0
M  V30 5530 H 538.581 0.572696 -1.96421 0
M  V30 5531 H 538.591 2.80695 -2.96098 0
M  V30 5532 H 537.266 1.91574 -3.6915 0
M  V30 5533 H 535.843 2.99969 -2.21525 0
M  V30 5534 N 538.028 1.39524 0.732853 0
M  V30 5535 C 539.277 1.36175 1.48792 0
M  V30 5536 C 539.59 -0.0388195 1.95561 0
M  V30 5537 O 540.796 -0.194899 2.708 0
M  V30 5538 C 539.252 2.39242 2.68871 0
M  V30 5539 C 538.86 3.85024 2.29042 0
M  V30 5540 C 540.604 2.44972 3.46683 0
M  V30 5541 C 538.511 4.79727 3.45856 0
M  V30 5542 H 537.441 0.506267 0.558757 0
M  V30 5543 H 540.092 1.65181 0.799226 0
M  V30 5544 H 538.474 2.0331 3.39825 0
M  V30 5545 H 539.648 4.30008 1.6562 0
M  V30 5546 H 537.963 3.82609 1.64316 0
M  V30 5547 H 540.56 3.12918 4.33574 0
M  V30 5548 H 540.903 1.4749 3.89297 0
M  V30 5549 H 541.436 2.79808 2.82759 0
M  V30 5550 H 538.175 5.78479 3.08289 0
M  V30 5551 H 537.695 4.39421 4.08251 0
M  V30 5552 H 539.374 4.98731 4.12161 0
M  V30 5553 N 539.506 -0.963266 1.24736 0
M  V30 5554 C 540.731 -1.74699 1.11781 0
M  V30 5555 C 541.156 -1.85267 -0.325258 0
M  V30 5556 O 540.514 -1.32681 -1.23553 0
M  V30 5557 C 540.562 -3.14322 1.76731 0
M  V30 5558 O 539.666 -3.99043 1.04109 0
M  V30 5559 H 539.007 -0.53684 0.390767 0
M  V30 5560 H 541.537 -1.20801 1.65131 0
M  V30 5561 H 541.547 -3.64824 1.82668 0
M  V30 5562 H 540.222 -3.05946 2.81726 0
M  V30 5563 H 538.799 -3.5752 1.05991 0
M  V30 5564 N 540.985 -1.06182 -1.16461 0
M  V30 5565 C 542.233 -0.776326 -1.86595 0
M  V30 5566 C 542.554 0.69921 -1.82033 0
M  V30 5567 O 541.824 1.50579 -1.2531 0
M  V30 5568 H 540.404 -0.284184 -0.690832 0
M  V30 5569 H 543.066 -1.34308 -1.41235 0
M  V30 5570 H 542.162 -1.10022 -2.92064 0
M  V30 5571 N 542.463 1.3308 -0.844243 0
M  V30 5572 C 543.74 1.92178 -0.364261 0
M  V30 5573 C 544.12 1.76961 1.15101 0
M  V30 5574 O 543.468 1.16128 1.9679 0
M  V30 5575 C 543.678 3.393 -0.817106 0
M  V30 5576 C 545.026 4.16444 -0.828236 0
M  V30 5577 O 546.05 3.47975 -0.761062 0
M  V30 5578 O 544.909 5.38685 -0.920926 0
M  V30 5579 H 542.003 0.820411 -0.10419 0
M  V30 5580 H 544.549 1.41918 -0.930453 0
M  V30 5581 H 543.321 3.44272 -1.85991 0
M  V30 5582 H 542.944 3.96947 -0.227785 0
M  V30 5583 N 543.941 0.601185 1.45683 0
M  V30 5584 C 544.871 -0.108824 2.33246 0
M  V30 5585 C 545.852 -0.865223 1.46451 0
M  V30 5586 O 547.037 -0.83704 1.75235 0
M  V30 5587 C 544.167 -1.11101 3.2905 0
M  V30 5588 C 543.121 -0.468244 4.25431 0
M  V30 5589 C 542.447 -1.57822 5.10878 0
M  V30 5590 C 543.747 0.606469 5.18767 0
M  V30 5591 H 545.441 0.622306 2.92861 0
M  V30 5592 H 542.987 0.300714 1.40825 0
M  V30 5593 H 544.94 -1.61622 3.89174 0
M  V30 5594 H 543.664 -1.87265 2.67581 0
M  V30 5595 H 542.323 0.0160484 3.66596 0
M  V30 5596 H 541.971 -2.32998 4.45781 0
M  V30 5597 H 541.671 -1.15369 5.76163 0
M  V30 5598 H 543.195 -2.08583 5.73869 0
M  V30 5599 H 544.609 0.185589 5.73 0
M  V30 5600 H 543.006 0.952381 5.92494 0
M  V30 5601 H 544.076 1.48559 4.61582 0
M  V30 5602 N 545.419 -1.53889 0.339982 0
M  V30 5603 C 546.369 -2.2165 -0.534354 0
M  V30 5604 C 547.353 -1.20266 -1.06887 0
M  V30 5605 O 548.545 -1.45827 -1.00316 0
M  V30 5606 C 545.674 -2.99014 -1.68659 0
M  V30 5607 C 544.76 -4.07751 -1.16618 0
M  V30 5608 N 545.151 -5.04469 -0.366717 0
M  V30 5609 C 543.449 -4.21998 -1.4434 0
M  V30 5610 C 544.15 -5.81638 -0.0847275 0
M  V30 5611 N 543.126 -5.39388 -0.675391 0
M  V30 5612 H 546.928 -2.93781 0.0835562 0
M  V30 5613 H 544.442 -1.61736 0.146665 0
M  V30 5614 H 546.439 -3.46056 -2.32489 0
M  V30 5615 H 545.099 -2.28408 -2.30781 0
M  V30 5616 H 546.11 -5.17899 -0.00811038 0
M  V30 5617 H 542.787 -3.62612 -2.06928 0
M  V30 5618 H 544.177 -6.69563 0.559943 0
M  V30 5619 N 546.897 -0.0685191 -1.57451 0
M  V30 5620 C 548.146 0.600898 -1.92541 0
M  V30 5621 C 548.459 1.70967 -0.950239 0
M  V30 5622 O 549.665 2.43844 -1.19384 0
M  V30 5623 C 548.121 1.12019 -3.42023 0
M  V30 5624 C 547.729 0.0426028 -4.4798 0
M  V30 5625 C 549.473 1.76386 -3.86119 0
M  V30 5626 C 547.38 0.575759 -5.88591 0
M  V30 5627 H 546.31 0.228225 -0.71863 0
M  V30 5628 H 548.961 -0.140223 -1.82963 0
M  V30 5629 H 547.343 1.91418 -3.46663 0
M  V30 5630 H 548.517 -0.73182 -4.54952 0
M  V30 5631 H 546.832 -0.504642 -4.13331 0
M  V30 5632 H 549.429 2.17302 -4.88553 0
M  V30 5633 H 549.772 2.62255 -3.23308 0
M  V30 5634 H 550.305 1.03615 -3.84069 0
M  V30 5635 H 547.044 -0.245691 -6.55039 0
M  V30 5636 H 546.564 1.31778 -5.85145 0
M  V30 5637 H 548.243 1.0532 -6.3837 0
M  V30 5638 N 548.375 1.56261 0.205012 0
M  V30 5639 C 549.305 1.96779 1.257 0
M  V30 5640 C 550.286 0.838309 1.48008 0
M  V30 5641 O 551.471 1.10189 1.59913 0
M  V30 5642 C 548.601 2.29876 2.60335 0
M  V30 5643 C 547.555 3.45469 2.52656 0
M  V30 5644 C 546.881 3.64215 3.91473 0
M  V30 5645 C 548.181 4.79954 2.06014 0
M  V30 5646 H 549.875 2.84904 0.920338 0
M  V30 5647 H 547.421 1.37072 0.441277 0
M  V30 5648 H 549.374 2.56814 3.34102 0
M  V30 5649 H 548.098 1.38622 2.95722 0
M  V30 5650 H 546.757 3.18605 1.81345 0
M  V30 5651 H 546.405 2.70309 4.24196 0
M  V30 5652 H 546.105 4.41973 3.87213 0
M  V30 5653 H 547.629 3.93519 4.66878 0
M  V30 5654 H 549.043 5.05989 2.69533 0
M  V30 5655 H 547.44 5.61111 2.12777 0
M  V30 5656 H 548.51 4.74201 1.01297 0
M  V30 5657 N 549.853 -0.472356 1.50355 0
M  V30 5658 C 551.264 -1.05326 1.54154 0
M  V30 5659 C 551.615 -1.93155 0.344303 0
M  V30 5660 O 550.74 -2.09479 -0.542928 0
M  V30 5661 C 551.335 -1.91691 2.79356 0
M  V30 5662 C 549.894 -2.44892 2.8584 0
M  V30 5663 C 549.041 -1.23205 2.48426 0
M  V30 5664 H 551.992 -0.255027 1.56637 0
M  V30 5665 H 552.013 -2.76742 2.6114 0
M  V30 5666 H 551.525 -1.27741 3.66475 0
M  V30 5667 H 549.626 -3.12399 2.0307 0
M  V30 5668 H 549.739 -2.80086 3.88701 0
M  V30 5669 H 548.103 -1.56643 2.00836 0
M  V30 5670 H 548.886 -0.609194 3.37852 0
M  V30 5671 N 551.331 -1.39911 -0.725443 0
M  V30 5672 C 552.577 -1.37858 -1.48738 0
M  V30 5673 C 552.91 0.0224187 -1.94187 0
M  V30 5674 O 552.185 0.989204 -1.67466 0
M  V30 5675 C 552.468 -2.3594 -2.72038 0
M  V30 5676 C 552.321 -3.85023 -2.32546 0
M  V30 5677 C 553.64 -2.31704 -3.74167 0
M  V30 5678 H 550.759 -0.502074 -0.539528 0
M  V30 5679 H 553.401 -1.70974 -0.828728 0
M  V30 5680 H 551.551 -2.0783 -3.28236 0
M  V30 5681 H 553.223 -4.2392 -1.81905 0
M  V30 5682 H 551.466 -4.01334 -1.64661 0
M  V30 5683 H 552.137 -4.49152 -3.20884 0
M  V30 5684 H 554.613 -2.5658 -3.27576 0
M  V30 5685 H 553.489 -3.02395 -4.58092 0
M  V30 5686 H 553.75 -1.3253 -4.21768 0
M  V30 5687 N 552.809 0.956637 -1.25245 0
M  V30 5688 C 553.772 2.03457 -1.05537 0
M  V30 5689 C 554.772 1.60798 -0.00886317 0
M  V30 5690 O 555.962 1.72384 -0.250865 0
M  V30 5691 C 553.094 3.35543 -0.601965 0
M  V30 5692 H 554.287 2.22372 -2.01223 0
M  V30 5693 H 551.84 1.13344 -1.07623 0
M  V30 5694 H 552.575 3.22323 0.357584 0
M  V30 5695 H 552.36 3.67854 -1.35743 0
M  V30 5696 H 553.85 4.14769 -0.485454 0
M  V30 5697 N 554.287 1.06798 1.15896 0
M  V30 5698 C 555.534 0.787767 1.86549 0
M  V30 5699 C 555.862 -0.685959 1.82002 0
M  V30 5700 O 555.117 -1.5188 1.23414 0
M  V30 5701 C 555.416 1.23414 3.35416 0
M  V30 5702 C 555.082 2.71285 3.6016 0
M  V30 5703 C 553.744 3.11676 3.66622 0
M  V30 5704 C 556.096 3.6676 3.7032 0
M  V30 5705 C 553.424 4.4637 3.8075 0
M  V30 5706 C 555.776 5.01209 3.8597 0
M  V30 5707 C 554.44 5.41229 3.90676 0
M  V30 5708 H 553.71 0.288264 0.682631 0
M  V30 5709 H 556.357 1.338 1.37003 0
M  V30 5710 H 554.662 0.60319 3.87129 0
M  V30 5711 H 556.359 0.994298 3.88477 0
M  V30 5712 H 552.949 2.39015 3.55767 0
M  V30 5713 H 557.133 3.36685 3.64633 0
M  V30 5714 H 552.389 4.76855 3.82648 0
M  V30 5715 H 556.563 5.75067 3.92773 0
M  V30 5716 H 554.19 6.45602 4.01375 0
M  V30 5717 N 555.766 -1.3263 0.851289 0
M  V30 5718 C 557.182 -1.50162 0.5407 0
M  V30 5719 C 557.382 -1.78788 -0.929369 0
M  V30 5720 O 556.438 -1.85545 -1.71258 0
M  V30 5721 C 557.751 -2.64803 1.42478 0
M  V30 5722 C 559.299 -2.78688 1.42485 0
M  V30 5723 C 559.774 -3.96405 2.29407 0
M  V30 5724 N 561.265 -4.0366 2.27184 0
M  V30 5725 C 562 -4.93971 2.9117 0
M  V30 5726 N 561.496 -5.89313 3.64256 0
M  V30 5727 N 563.289 -4.87066 2.80576 0
M  V30 5728 H 555.44 -1.12315 1.80275 0
M  V30 5729 H 557.703 -0.553266 0.769806 0
M  V30 5730 H 557.409 -2.50368 2.46999 0
M  V30 5731 H 557.283 -3.60506 1.10974 0
M  V30 5732 H 559.67 -2.92547 0.387304 0
M  V30 5733 H 559.751 -1.83708 1.78002 0
M  V30 5734 H 559.395 -3.83304 3.33228 0
M  V30 5735 H 559.325 -4.90654 1.91224 0
M  V30 5736 H 561.816 -3.35435 1.74045 0
M  V30 5737 H 562.129 -6.54913 4.10255 0
M  V30 5738 H 560.474 -5.8935 3.68364 0
M  V30 5739 H 563.665 -4.11552 2.23031 0
M  V30 5740 H 563.838 -5.57248 3.30725 0
M  V30 5741 N 557.244 -0.608902 -1.45362 0
M  V30 5742 C 558.492 -0.104401 -2.0183 0
M  V30 5743 C 558.813 1.27007 -1.47967 0
M  V30 5744 O 558.083 1.83924 -0.674455 0
M  V30 5745 H 556.663 -0.0356042 -0.746151 0
M  V30 5746 H 559.325 -0.790596 -1.78145 0
M  V30 5747 H 558.421 -0.0551793 -3.12051 0
M  V30 5748 N 558.722 1.53707 -0.348139 0
M  V30 5749 C 559.999 1.93247 0.302475 0
M  V30 5750 C 560.379 1.28012 1.67857 0
M  V30 5751 O 559.727 0.43274 2.24365 0
M  V30 5752 C 559.937 3.47031 0.370159 0
M  V30 5753 C 561.285 4.20066 0.61882 0
M  V30 5754 O 562.309 3.53319 0.452087 0
M  V30 5755 O 561.168 5.38318 0.94215 0
M  V30 5756 H 558.262 0.807736 0.177458 0
M  V30 5757 H 560.808 1.64927 -0.399651 0
M  V30 5758 H 559.58 3.86745 -0.59534 0
M  V30 5759 H 559.203 3.81532 1.11888 0
M  V30 5760 N 560.2 0.0768682 1.57412 0
M  V30 5761 C 561.425 -0.603404 1.98428 0
M  V30 5762 C 561.85 -1.62047 0.955108 0
M  V30 5763 O 561.208 -1.81129 -0.0786778 0
M  V30 5764 C 561.256 -1.24396 3.38464 0
M  V30 5765 O 560.36 -2.35982 3.3821 0
M  V30 5766 H 559.701 -0.154741 0.645718 0
M  V30 5767 H 562.231 0.152885 2.04028 0
M  V30 5768 H 562.241 -1.5896 3.7576 0
M  V30 5769 H 560.916 -0.498735 4.12899 0
M  V30 5770 H 559.493 -2.03173 3.1269 0
M  V30 5771 N 561.678 -1.56367 -0.196722 0
M  V30 5772 C 562.925 -1.80529 -0.917366 0
M  V30 5773 C 563.253 -0.649817 -1.83324 0
M  V30 5774 O 562.508 0.36451 -1.92275 0
M  V30 5775 C 562.807 -3.10663 -1.767 0
M  V30 5776 C 562.473 -4.3962 -1.00225 0
M  V30 5777 C 561.135 -4.74653 -0.791095 0
M  V30 5778 C 563.487 -5.1913 -0.464035 0
M  V30 5779 C 560.815 -5.86692 -0.0302155 0
M  V30 5780 C 563.167 -6.31964 0.283625 0
M  V30 5781 C 561.831 -6.65581 0.505813 0
M  V30 5782 H 561.101 -0.660602 -0.335688 0
M  V30 5783 H 563.748 -1.90615 -0.183844 0
M  V30 5784 H 562.053 -2.95807 -2.56915 0
M  V30 5785 H 563.75 -3.26563 -2.32718 0
M  V30 5786 H 560.34 -4.12127 -1.17684 0
M  V30 5787 H 564.524 -4.9248 -0.614575 0
M  V30 5788 H 559.78 -6.11211 0.151917 0
M  V30 5789 H 563.954 -6.92791 0.708057 0
M  V30 5790 H 561.581 -7.52239 1.0973 0
M  V30 5791 N 563.156 0.464375 -1.50603 0
M  V30 5792 C 564.384 1.23907 -1.65695 0
M  V30 5793 C 564.799 1.85658 -0.343027 0
M  V30 5794 O 564.156 1.69529 0.675739 0
M  V30 5795 C 564.207 2.3429 -2.75301 0
M  V30 5796 O 563.928 1.7507 -4.01599 0
M  V30 5797 C 565.429 3.25051 -3.01424 0
M  V30 5798 H 562.649 0.374485 -0.556778 0
M  V30 5799 H 565.193 0.55353 -1.96866 0
M  V30 5800 H 563.348 2.98607 -2.46804 0
M  V30 5801 H 563.762 2.47812 -4.62266 0
M  V30 5802 H 565.236 3.98699 -3.81763 0
M  V30 5803 H 565.713 3.84227 -2.12758 0
M  V30 5804 H 566.319 2.66463 -3.31477 0
M  V30 5805 N 564.634 1.40294 0.718013 0
M  V30 5806 C 565.584 1.36847 1.82365 0
M  V30 5807 C 566.568 0.246424 1.59002 0
M  V30 5808 O 567.76 0.485336 1.70216 0
M  V30 5809 C 564.889 1.23105 3.20469 0
M  V30 5810 C 563.975 2.4008 3.49603 0
M  V30 5811 N 564.366 3.65562 3.49568 0
M  V30 5812 C 562.664 2.33407 3.80049 0
M  V30 5813 C 563.365 4.43015 3.76978 0
M  V30 5814 N 562.341 3.72823 3.95606 0
M  V30 5815 H 566.143 2.31811 1.80668 0
M  V30 5816 H 563.657 1.34031 0.91703 0
M  V30 5817 H 565.654 1.18718 3.9964 0
M  V30 5818 H 564.314 0.291056 3.23393 0
M  V30 5819 H 565.325 3.98756 3.30476 0
M  V30 5820 H 562.002 1.47762 3.90478 0
M  V30 5821 H 563.392 5.51859 3.83276 0
M  V30 5822 N 566.112 -0.949982 1.2575 0
M  V30 5823 C 567.34 -1.72972 1.13527 0
M  V30 5824 C 567.755 -1.8623 -0.310453 0
M  V30 5825 O 567.112 -1.36336 -1.2132 0
M  V30 5826 C 567.163 -3.14108 1.78936 0
M  V30 5827 O 566.884 -3.01493 3.17858 0
M  V30 5828 C 568.385 -4.08338 1.72554 0
M  V30 5829 H 565.605 -0.541864 0.395758 0
M  V30 5830 H 568.149 -1.19151 1.66202 0
M  V30 5831 H 566.304 -3.64858 1.30221 0
M  V30 5832 H 566.718 -3.90559 3.50092 0
M  V30 5833 H 568.192 -5.04963 2.22973 0
M  V30 5834 H 568.669 -4.33742 0.690251 0
M  V30 5835 H 569.275 -3.63506 2.2078 0
M  V30 5836 N 567.59 -1.07411 -1.15328 0
M  V30 5837 C 569.001 -0.820261 -1.67716 0
M  V30 5838 C 569.352 0.654539 -1.8496 0
M  V30 5839 O 568.477 1.50664 -1.55337 0
M  V30 5840 C 569.072 -1.48242 -3.04647 0
M  V30 5841 C 567.631 -1.27606 -3.5411 0
M  V30 5842 C 566.778 -1.5517 -2.29821 0
M  V30 5843 H 569.729 -1.23608 -0.995332 0
M  V30 5844 H 569.75 -0.903984 -3.69606 0
M  V30 5845 H 569.262 -2.55578 -2.92064 0
M  V30 5846 H 567.363 -0.222948 -3.71932 0
M  V30 5847 H 567.476 -1.99667 -4.35511 0
M  V30 5848 H 565.84 -0.972747 -2.35393 0
M  V30 5849 H 566.623 -2.63689 -2.19824 0
M  V30 5850 N 569.068 1.32177 -0.85831 0
M  V30 5851 C 570.479 1.79381 -0.517621 0
M  V30 5852 C 570.83 1.70841 0.964769 0
M  V30 5853 O 569.955 1.26917 1.75274 0
M  V30 5854 C 570.55 3.25706 -0.932801 0
M  V30 5855 C 569.109 3.70851 -0.643953 0
M  V30 5856 C 568.256 2.53208 -1.13054 0
M  V30 5857 H 571.207 1.19424 -1.04516 0
M  V30 5858 H 571.228 3.79673 -0.250674 0
M  V30 5859 H 570.74 3.31889 -2.01174 0
M  V30 5860 H 568.841 3.70178 0.424112 0
M  V30 5861 H 568.954 4.63495 -1.21281 0
M  V30 5862 H 567.318 2.48676 -0.550679 0
M  V30 5863 H 568.101 2.62143 -2.21666 0
M  V30 5864 N 570.547 0.616602 1.45037 0
M  V30 5865 C 571.477 -0.0840787 2.33349 0
M  V30 5866 C 572.458 -0.849641 1.4736 0
M  V30 5867 O 573.643 -0.818407 1.76113 0
M  V30 5868 C 570.773 -1.07604 3.3021 0
M  V30 5869 C 569.727 -0.423096 4.25904 0
M  V30 5870 C 569.053 -1.52394 5.12523 0
M  V30 5871 C 570.353 0.661457 5.18095 0
M  V30 5872 H 572.047 0.653333 2.92185 0
M  V30 5873 H 569.593 0.315634 1.40498 0
M  V30 5874 H 571.546 -1.57485 3.90866 0
M  V30 5875 H 570.27 -1.84416 2.69552 0
M  V30 5876 H 568.929 0.05493 3.66559 0
M  V30 5877 H 568.577 -2.28257 4.48227 0
M  V30 5878 H 568.277 -1.09251 5.77354 0
M  V30 5879 H 569.801 -2.02485 5.76049 0
M  V30 5880 H 571.215 0.246353 5.7277 0
M  V30 5881 H 569.612 1.01517 5.91451 0
M  V30 5882 H 570.682 1.53446 4.59981 0
M  V30 5883 N 572.025 -1.5352 0.356285 0
M  V30 5884 C 573.302 -1.93405 -0.292223 0
M  V30 5885 C 573.682 -1.28901 -1.67176 0
M  V30 5886 O 573.03 -0.444632 -2.24132 0
M  V30 5887 C 573.24 -3.47223 -0.35175 0
M  V30 5888 C 574.588 -4.20389 -0.596534 0
M  V30 5889 O 575.612 -3.53554 -0.433344 0
M  V30 5890 O 574.471 -5.3881 -0.913589 0
M  V30 5891 H 571.565 -0.808666 -0.173172 0
M  V30 5892 H 574.111 -1.64713 0.408391 0
M  V30 5893 H 572.883 -3.86423 0.615841 0
M  V30 5894 H 572.506 -3.8212 -1.09864 0
M  V30 5895 N 573.503 -0.0852151 -1.57369 0
M  V30 5896 C 574.914 0.445428 -1.81309 0
M  V30 5897 C 575.265 1.68795 -1.00013 0
M  V30 5898 O 574.39 2.15211 -0.226573 0
M  V30 5899 C 574.985 0.814887 -3.28854 0
M  V30 5900 C 573.544 1.29032 -3.53592 0
M  V30 5901 C 572.691 0.282089 -2.75861 0
M  V30 5902 H 575.642 -0.310771 -1.55627 0
M  V30 5903 H 575.663 1.67524 -3.41637 0
M  V30 5904 H 575.175 -0.0896309 -3.87996 0
M  V30 5905 H 573.276 2.21289 -2.9977 0
M  V30 5906 H 573.389 1.25898 -4.62262 0
M  V30 5907 H 571.753 0.762182 -2.43029 0
M  V30 5908 H 572.536 -0.614936 -3.37748 0
M  V30 5909 N 574.981 1.5647 0.188427 0
M  V30 5910 C 575.913 1.91611 1.25769 0
M  V30 5911 C 576.926 0.807436 1.41366 0
M  V30 5912 O 578.115 1.08586 1.41673 0
M  V30 5913 C 575.215 2.13874 2.6289 0
M  V30 5914 C 574.388 3.45047 2.68815 0
M  V30 5915 C 573.447 3.56342 3.87178 0
M  V30 5916 O 572.473 4.29109 3.73971 0
M  V30 5917 N 573.675 2.89924 5.02916 0
M  V30 5918 H 576.44 2.8393 0.959373 0
M  V30 5919 H 574.001 1.57418 0.378306 0
M  V30 5920 H 575.993 2.18713 3.4051 0
M  V30 5921 H 574.563 1.28022 2.85183 0
M  V30 5922 H 573.783 3.52017 1.77419 0
M  V30 5923 H 575.071 4.31395 2.6977 0
M  V30 5924 H 574.469 2.30644 5.16546 0
M  V30 5925 H 573.026 3.0038 5.78459 0
M  V30 5926 N 576.459 -0.456382 1.50847 0
M  V30 5927 C 577.369 -1.57805 1.73594 0
M  V30 5928 C 578.385 -1.62599 0.619476 0
M  V30 5929 O 579.561 -1.80195 0.899532 0
M  V30 5930 C 576.626 -2.93926 1.8387 0
M  V30 5931 C 575.687 -2.99402 3.07663 0
M  V30 5932 C 574.92 -4.29031 3.1744 0
M  V30 5933 O 575.143 -5.20358 2.33631 0
M  V30 5934 O 574.077 -4.40401 4.10281 0
M  V30 5935 H 577.903 -1.41531 2.68705 0
M  V30 5936 H 575.488 -0.637422 1.3512 0
M  V30 5937 H 577.37 -3.74747 1.92725 0
M  V30 5938 H 576.045 -3.10368 0.91944 0
M  V30 5939 H 574.952 -2.17606 3.043 0
M  V30 5940 H 576.285 -2.87901 3.99216 0
M  V30 5941 N 577.937 -1.40673 -0.710563 0
M  V30 5942 C 578.867 -1.44095 -1.83736 0
M  V30 5943 C 579.848 -0.301286 -1.67411 0
M  V30 5944 O 581.033 -0.510618 -1.87367 0
M  V30 5945 C 578.163 -1.30773 -3.21738 0
M  V30 5946 C 577.117 -2.42395 -3.52745 0
M  V30 5947 C 576.443 -2.14147 -4.89944 0
M  V30 5948 C 577.743 -3.84738 -3.53234 0
M  V30 5949 H 579.437 -2.38396 -1.81129 0
M  V30 5950 H 576.983 -1.14746 -0.870017 0
M  V30 5951 H 578.936 -1.31783 -4.00264 0
M  V30 5952 H 577.66 -0.329507 -3.24934 0
M  V30 5953 H 576.319 -2.40643 -2.76562 0
M  V30 5954 H 575.967 -1.14703 -4.89747 0
M  V30 5955 H 575.667 -2.88934 -5.11655 0
M  V30 5956 H 577.191 -2.16848 -5.70797 0
M  V30 5957 H 578.605 -3.88286 -4.2179 0
M  V30 5958 H 577.002 -4.59085 -3.86473 0
M  V30 5959 H 578.072 -4.13962 -2.52514 0
M  V30 5960 N 579.415 0.9433 -1.26252 0
M  V30 5961 C 580.692 1.66639 -1.02424 0
M  V30 5962 C 581.072 2.06335 0.446006 0
M  V30 5963 O 580.42 1.78551 1.42589 0
M  V30 5964 C 580.63 2.88019 -1.97094 0
M  V30 5965 C 581.978 3.59718 -2.25584 0
M  V30 5966 O 583.002 2.9812 -1.94943 0
M  V30 5967 O 581.861 4.7066 -2.77743 0
M  V30 5968 H 578.955 0.729643 -0.389294 0
M  V30 5969 H 581.501 0.995218 -1.37454 0
M  V30 5970 H 580.273 2.5556 -2.96319 0
M  V30 5971 H 579.896 3.62863 -1.62532 0
M  V30 5972 N 580.893 1.08022 1.14757 0
M  V30 5973 C 582.142 0.802468 1.8505 0
M  V30 5974 C 582.455 -0.674061 1.83619 0
M  V30 5975 O 583.661 -1.06683 2.49662 0
M  V30 5976 C 582.117 1.38551 3.32162 0
M  V30 5977 C 581.725 2.89354 3.42021 0
M  V30 5978 C 583.469 1.18608 4.07594 0
M  V30 5979 C 581.376 3.40815 4.83321 0
M  V30 5980 H 580.306 0.296518 0.693248 0
M  V30 5981 H 582.957 1.30114 1.29393 0
M  V30 5982 H 581.339 0.814556 3.87532 0
M  V30 5983 H 582.513 3.52552 2.96722 0
M  V30 5984 H 580.828 3.08165 2.80041 0
M  V30 5985 H 583.425 1.54525 5.11885 0
M  V30 5986 H 583.768 0.125599 4.1611 0
M  V30 5987 H 584.301 1.72375 3.58513 0
M  V30 5988 H 581.04 4.46418 4.79991 0
M  V30 5989 H 580.56 2.82374 5.29174 0
M  V30 5990 H 582.239 3.37171 5.522 0
M  V30 5991 N 582.371 -1.3172 0.865308 0
M  V30 5992 C 583.301 -2.31109 0.333302 0
M  V30 5993 C 584.282 -1.60148 -0.573301 0
M  V30 5994 O 585.467 -1.87882 -0.491305 0
M  V30 5995 C 582.597 -3.44104 -0.470078 0
M  V30 5996 C 581.551 -4.26623 0.343021 0
M  V30 5997 C 580.877 -5.31482 -0.585756 0
M  V30 5998 C 582.177 -4.98001 1.57456 0
M  V30 5999 H 583.871 -2.75855 1.1638 0
M  V30 6000 H 581.417 -1.3262 0.561069 0
M  V30 6001 H 583.37 -4.12682 -0.852752 0
M  V30 6002 H 582.094 -2.98112 -1.33404 0
M  V30 6003 H 580.753 -3.59707 0.707583 0
M  V30 6004 H 580.401 -4.81741 -1.44686 0
M  V30 6005 H 580.101 -5.87582 -0.0456494 0
M  V30 6006 H 581.625 -6.0292 -0.965375 0
M  V30 6007 H 583.039 -5.59201 1.26359 0
M  V30 6008 H 581.436 -5.63876 2.05339 0
M  V30 6009 H 582.506 -4.25253 2.32997 0
M  V30 6010 N 583.85 -0.624285 -1.44708 0
M  V30 6011 C 584.797 0.0847135 -2.30644 0
M  V30 6012 C 585.767 0.843575 -1.43084 0
M  V30 6013 O 586.952 0.825982 -1.71995 0
M  V30 6014 C 584.091 1.06495 -3.28257 0
M  V30 6015 C 583.205 0.305224 -4.3092 0
M  V30 6016 C 582.34 1.27667 -5.1563 0
M  V30 6017 C 581.379 0.505706 -6.10007 0
M  V30 6018 N 580.516 1.42727 -6.8744 0
M  V30 6019 H 585.356 -0.654068 -2.90733 0
M  V30 6020 H 582.893 -0.334334 -1.4325 0
M  V30 6021 H 584.851 1.64658 -3.83332 0
M  V30 6022 H 583.481 1.77094 -2.69884 0
M  V30 6023 H 582.533 -0.392207 -3.78373 0
M  V30 6024 H 583.845 -0.295553 -4.97924 0
M  V30 6025 H 582.999 1.92984 -5.75189 0
M  V30 6026 H 581.738 1.91137 -4.48685 0
M  V30 6027 H 580.743 -0.160999 -5.49564 0
M  V30 6028 H 581.968 -0.124183 -6.78986 0
M  V30 6029 H 579.913 2.04931 -6.23169 0
M  V30 6030 H 579.831 0.880345 -7.50857 0
M  V30 6031 H 581.099 2.0695 -7.51526 0
M  V30 6032 N 585.328 1.53329 -0.364422 0
M  V30 6033 C 586.556 2.05657 0.226424 0
M  V30 6034 C 586.971 1.23801 1.42544 0
M  V30 6035 O 586.328 0.27839 1.80364 0
M  V30 6036 C 586.379 3.56125 0.621056 0
M  V30 6037 O 586.1 4.34879 -0.530304 0
M  V30 6038 C 587.601 4.24706 1.27041 0
M  V30 6039 H 584.821 0.669806 0.0400056 0
M  V30 6040 H 587.365 1.97714 -0.522456 0
M  V30 6041 H 585.52 3.64223 1.31985 0
M  V30 6042 H 585.934 5.24073 -0.211546 0
M  V30 6043 H 587.408 5.3131 1.49711 0
M  V30 6044 H 587.885 3.78354 2.23036 0
M  V30 6045 H 588.491 4.20858 0.613079 0
M  V30 6046 N 586.806 0.0935595 1.57322 0
M  V30 6047 C 588.052 -0.571355 1.94585 0
M  V30 6048 C 588.385 -1.67929 0.975366 0
M  V30 6049 O 587.66 -1.94498 0.00816206 0
M  V30 6050 C 587.943 -1.12797 3.41978 0
M  V30 6051 C 587.796 -0.0251881 4.49793 0
M  V30 6052 C 589.115 -2.02682 3.90651 0
M  V30 6053 H 586.234 -0.206223 0.70756 0
M  V30 6054 H 588.876 0.163956 1.89291 0
M  V30 6055 H 587.026 -1.75461 3.4662 0
M  V30 6056 H 588.698 0.608979 4.57263 0
M  V30 6057 H 586.941 0.641399 4.29032 0
M  V30 6058 H 587.612 -0.455433 5.50118 0
M  V30 6059 H 590.088 -1.49925 3.88152 0
M  V30 6060 H 588.964 -2.38555 4.94351 0
M  V30 6061 H 589.225 -2.94362 3.29854 0
M  V30 6062 N 588.284 -1.56567 -0.180126 0
M  V30 6063 C 589.231 -1.95725 -1.22313 0
M  V30 6064 C 590.201 -0.819911 -1.44453 0
M  V30 6065 O 591.386 -1.07931 -1.57339 0
M  V30 6066 C 588.526 -2.31484 -2.55947 0
M  V30 6067 C 587.639 -3.58354 -2.4126 0
M  V30 6068 C 586.774 -3.83366 -3.67701 0
M  V30 6069 C 585.813 -5.03612 -3.47909 0
M  V30 6070 N 584.95 -5.24802 -4.66398 0
M  V30 6071 H 589.79 -2.84642 -0.882198 0
M  V30 6072 H 587.327 -1.4085 -0.42422 0
M  V30 6073 H 589.285 -2.50237 -3.33822 0
M  V30 6074 H 587.915 -1.45689 -2.88053 0
M  V30 6075 H 586.967 -3.47565 -1.54606 0
M  V30 6076 H 588.279 -4.46386 -2.22577 0
M  V30 6077 H 587.433 -4.02439 -4.54013 0
M  V30 6078 H 586.172 -2.93692 -3.89353 0
M  V30 6079 H 585.177 -4.84447 -2.59983 0
M  V30 6080 H 586.402 -5.94809 -3.27688 0
M  V30 6081 H 584.348 -4.38079 -4.88286 0
M  V30 6082 H 584.265 -6.07041 -4.50596 0
M  V30 6083 H 585.533 -5.48346 -5.54019 0
M  V30 6084 N 589.762 0.448376 -1.51087 0
M  V30 6085 C 590.672 1.56882 -1.74428 0
M  V30 6086 C 591.688 1.62268 -0.62809 0
M  V30 6087 O 592.864 1.79716 -0.909075 0
M  V30 6088 C 589.929 2.92947 -1.85426 0
M  V30 6089 C 588.99 2.97766 -3.09247 0
M  V30 6090 C 588.223 4.27341 -3.19711 0
M  V30 6091 O 588.446 5.19112 -2.36387 0
M  V30 6092 O 587.38 4.38219 -4.12611 0
M  V30 6093 H 591.206 1.40104 -2.69452 0
M  V30 6094 H 588.791 0.630247 -1.35456 0
M  V30 6095 H 590.673 3.73719 -1.94709 0
M  V30 6096 H 589.348 3.09876 -0.935887 0
M  V30 6097 H 588.255 2.15989 -3.0545 0
M  V30 6098 H 589.588 2.8578 -4.00738 0
M  V30 6099 N 591.24 1.41047 0.703093 0
M  V30 6100 C 592.489 1.39301 1.4587 0
M  V30 6101 C 592.802 0.00267077 1.956 0
M  V30 6102 O 594.008 -0.137414 2.71152 0
M  V30 6103 C 592.464 2.44891 2.63735 0
M  V30 6104 C 592.072 3.89796 2.20824 0
M  V30 6105 C 593.816 2.5227 3.41409 0
M  V30 6106 C 591.723 4.86955 3.35602 0
M  V30 6107 H 590.653 0.518005 0.547893 0
M  V30 6108 H 593.304 1.66839 0.764009 0
M  V30 6109 H 591.686 2.10472 3.35436 0
M  V30 6110 H 592.86 4.33424 1.56461 0
M  V30 6111 H 591.175 3.86008 1.56163 0
M  V30 6112 H 593.772 3.22044 4.26839 0
M  V30 6113 H 594.115 1.55714 3.86081 0
M  V30 6114 H 594.648 2.85742 2.7676 0
M  V30 6115 H 591.387 5.84888 2.9595 0
M  V30 6116 H 590.907 4.47982 3.98839 0
M  V30 6117 H 592.586 5.07361 4.01489 0
M  V30 6118 N 592.718 -0.936591 1.26751 0
M  V30 6119 C 593.946 -1.71758 1.15355 0
M  V30 6120 C 594.361 -1.86549 -0.290683 0
M  V30 6121 O 593.718 -1.37616 -1.19868 0
M  V30 6122 C 593.769 -3.12193 1.82258 0
M  V30 6123 O 593.49 -2.98105 3.21038 0
M  V30 6124 C 594.991 -4.06485 1.76875 0
M  V30 6125 H 592.211 -0.537636 0.401483 0
M  V30 6126 H 594.755 -1.17382 1.67457 0
M  V30 6127 H 592.91 -3.63456 1.34083 0
M  V30 6128 H 593.324 -3.86824 3.54214 0
M  V30 6129 H 594.798 -5.02569 2.28316 0
M  V30 6130 H 595.275 -4.32986 0.736216 0
M  V30 6131 H 595.881 -3.61144 2.24623 0
M  V30 6132 N 594.196 -1.08629 -1.14182 0
M  V30 6133 C 595.444 -0.815731 -1.84906 0
M  V30 6134 C 595.765 0.660441 -1.83475 0
M  V30 6135 O 595.035 1.47888 -1.28476 0
M  V30 6136 H 593.615 -0.298773 -0.684648 0
M  V30 6137 H 596.277 -1.37274 -1.38354 0
M  V30 6138 H 595.373 -1.16193 -2.89665 0
M  V30 6139 N 595.674 1.31259 -0.872281 0
M  V30 6140 C 596.921 1.96622 -0.484365 0
M  V30 6141 C 597.249 1.68939 0.963841 0
M  V30 6142 O 596.504 0.97974 1.6941 0
M  V30 6143 C 596.803 3.50659 -0.690889 0
M  V30 6144 C 596.469 3.98366 -2.11224 0
M  V30 6145 C 595.131 4.11104 -2.50094 0
M  V30 6146 C 597.483 4.23425 -3.0391 0
M  V30 6147 C 594.811 4.46254 -3.80887 0
M  V30 6148 C 597.163 4.60039 -4.3422 0
M  V30 6149 C 595.827 4.70984 -4.73001 0
M  V30 6150 H 595.097 0.71949 -0.177242 0
M  V30 6151 H 597.744 1.56353 -1.10571 0
M  V30 6152 H 596.049 3.91798 0.0135782 0
M  V30 6153 H 597.746 3.99284 -0.370534 0
M  V30 6154 H 594.336 3.88949 -1.80047 0
M  V30 6155 H 598.52 4.13075 -2.75104 0
M  V30 6156 H 593.776 4.52926 -4.10692 0
M  V30 6157 H 597.95 4.78381 -5.06088 0
M  V30 6158 H 595.577 4.97977 -5.7439 0
M  V30 6159 N 597.152 0.631951 1.44375 0
M  V30 6160 C 598.082 -0.0593243 2.33425 0
M  V30 6161 C 599.063 -0.833964 1.48253 0
M  V30 6162 O 600.248 -0.799682 1.76971 0
M  V30 6163 C 597.378 -1.04096 3.31333 0
M  V30 6164 C 596.332 -0.377899 4.26328 0
M  V30 6165 C 595.658 -1.4695 5.14111 0
M  V30 6166 C 596.958 0.716371 5.17364 0
M  V30 6167 H 598.652 0.684287 2.91475 0
M  V30 6168 H 596.198 0.330518 1.40156 0
M  V30 6169 H 598.151 -1.53331 3.92514 0
M  V30 6170 H 596.875 -1.81547 2.71493 0
M  V30 6171 H 595.534 0.0938054 3.6648 0
M  V30 6172 H 595.182 -2.2349 4.50623 0
M  V30 6173 H 594.882 -1.03121 5.78481 0
M  V30 6174 H 596.406 -1.96363 5.78164 0
M  V30 6175 H 597.82 0.307089 5.72477 0
M  V30 6176 H 596.217 1.07784 5.90341 0
M  V30 6177 H 597.287 1.58316 4.58327 0
M  V30 6178 N 598.631 -1.53133 0.372548 0
M  V30 6179 C 599.561 -2.28876 -0.462412 0
M  V30 6180 C 600.542 -1.31583 -1.07796 0
M  V30 6181 O 601.727 -1.60461 -1.09389 0
M  V30 6182 C 598.857 -3.08317 -1.59868 0
M  V30 6183 C 597.811 -4.13355 -1.11003 0
M  V30 6184 C 597.137 -4.8092 -2.33708 0
M  V30 6185 C 598.437 -5.21955 -0.18983 0
M  V30 6186 H 600.131 -2.9892 0.169511 0
M  V30 6187 H 597.677 -1.43761 0.0829658 0
M  V30 6188 H 599.63 -3.60055 -2.18949 0
M  V30 6189 H 598.354 -2.35976 -2.25794 0
M  V30 6190 H 597.013 -3.62573 -0.541869 0
M  V30 6191 H 596.661 -4.05144 -2.98106 0
M  V30 6192 H 596.361 -5.51904 -2.01682 0
M  V30 6193 H 597.885 -5.35455 -2.93462 0
M  V30 6194 H 599.299 -5.69153 -0.688319 0
M  V30 6195 H 597.696 -6.00087 0.0398887 0
M  V30 6196 H 598.766 -4.78811 0.766057 0
M  V30 6197 N 600.109 -0.101901 -1.5727 0
M  V30 6198 C 601.358 0.559922 -1.93772 0
M  V30 6199 C 601.671 1.68913 -0.98629 0
M  V30 6200 O 602.877 2.41256 -1.24529 0
M  V30 6201 C 601.333 1.04739 -3.44322 0
M  V30 6202 C 600.941 -0.05243 -4.47969 0
M  V30 6203 C 602.685 1.68157 -3.89774 0
M  V30 6204 C 600.592 0.450781 -5.8968 0
M  V30 6205 H 599.522 0.212931 -0.723309 0
M  V30 6206 H 602.173 -0.179001 -1.82625 0
M  V30 6207 H 600.555 1.84021 -3.50645 0
M  V30 6208 H 601.729 -0.828157 -4.53297 0
M  V30 6209 H 600.044 -0.592202 -4.12167 0
M  V30 6210 H 602.641 2.0689 -4.93052 0
M  V30 6211 H 602.984 2.55338 -3.28798 0
M  V30 6212 H 603.517 0.954453 -3.8618 0
M  V30 6213 H 600.256 -0.38458 -6.54371 0
M  V30 6214 H 599.776 1.19336 -5.87809 0
M  V30 6215 H 601.455 0.917555 -6.40461 0
M  V30 6216 N 601.587 1.56661 0.17182 0
M  V30 6217 C 602.519 1.92934 1.2373 0
M  V30 6218 C 603.532 0.822385 1.40502 0
M  V30 6219 O 604.721 1.10083 1.40514 0
M  V30 6220 C 601.821 2.16651 2.60607 0
M  V30 6221 C 600.994 3.47878 2.6514 0
M  V30 6222 C 600.053 3.60429 3.83377 0
M  V30 6223 O 599.079 4.33051 3.69398 0
M  V30 6224 N 600.281 2.95241 4.99813 0
M  V30 6225 H 603.046 2.84931 0.929205 0
M  V30 6226 H 600.607 1.5781 0.361588 0
M  V30 6227 H 602.599 2.22312 3.38171 0
M  V30 6228 H 601.169 1.3104 2.83809 0
M  V30 6229 H 600.389 3.53879 1.73675 0
M  V30 6230 H 601.677 4.34232 2.6518 0
M  V30 6231 H 601.075 2.3611 5.14071 0
M  V30 6232 H 599.632 3.06499 5.75241 0
M  V30 6233 N 603.065 -0.440357 1.51323 0
M  V30 6234 C 604.028 -1.51679 1.71832 0
M  V30 6235 C 605.028 -1.49648 0.588386 0
M  V30 6236 O 606.218 -1.51724 0.855891 0
M  V30 6237 C 603.35 -2.91228 1.77199 0
M  V30 6238 H 604.543 -1.34799 2.67898 0
M  V30 6239 H 602.096 -0.66883 1.41267 0
M  V30 6240 H 602.831 -3.13516 0.829363 0
M  V30 6241 H 602.616 -2.94107 2.59314 0
M  V30 6242 H 604.106 -3.69321 1.94915 0
M  V30 6243 N 604.543 -1.41418 -0.695603 0
M  V30 6244 C 605.789 -1.41983 -1.45645 0
M  V30 6245 C 606.144 -0.0282216 -1.92379 0
M  V30 6246 O 605.437 0.945916 -1.66622 0
M  V30 6247 C 605.631 -2.36112 -2.68302 0
M  V30 6248 C 605.46 -3.84288 -2.33566 0
M  V30 6249 C 604.23 -4.52971 -2.23932 0
M  V30 6250 C 606.428 -4.75264 -1.96543 0
M  V30 6251 N 604.41 -5.86276 -1.82081 0
M  V30 6252 C 605.781 -5.97517 -1.6545 0
M  V30 6253 C 607.836 -4.62911 -1.83352 0
M  V30 6254 C 606.539 -7.08793 -1.22492 0
M  V30 6255 C 608.565 -5.74149 -1.41799 0
M  V30 6256 C 607.927 -6.95501 -1.11617 0
M  V30 6257 H 604.026 -0.574771 -0.530247 0
M  V30 6258 H 606.61 -1.77289 -0.804788 0
M  V30 6259 H 604.781 -2.02902 -3.31188 0
M  V30 6260 H 606.513 -2.27397 -3.34773 0
M  V30 6261 H 603.268 -4.06909 -2.42327 0
M  V30 6262 H 603.692 -6.56926 -1.63638 0
M  V30 6263 H 608.334 -3.69588 -2.05341 0
M  V30 6264 H 606.052 -8.01982 -0.992482 0
M  V30 6265 H 609.638 -5.66595 -1.32143 0
M  V30 6266 H 608.518 -7.80114 -0.799493 0
M  V30 6267 N 606.021 0.929856 -1.27246 0
M  V30 6268 C 607.432 1.49223 -1.12203 0
M  V30 6269 C 607.783 1.93989 0.293731 0
M  V30 6270 O 606.908 1.80978 1.18642 0
M  V30 6271 C 607.503 2.71198 -2.0307 0
M  V30 6272 C 606.062 3.23666 -1.92139 0
M  V30 6273 C 605.209 1.96409 -1.95752 0
M  V30 6274 H 608.16 0.744181 -1.4017 0
M  V30 6275 H 608.181 3.45905 -1.58524 0
M  V30 6276 H 607.693 2.38585 -3.06102 0
M  V30 6277 H 605.794 3.61042 -0.920834 0
M  V30 6278 H 605.907 3.90006 -2.78267 0
M  V30 6279 H 604.271 2.12806 -1.39949 0
M  V30 6280 H 605.054 1.66113 -3.00436 0
M  V30 6281 N 607.499 1.09233 1.13605 0
M  V30 6282 C 608.409 0.741939 2.22559 0
M  V30 6283 C 609.425 -0.255236 1.72118 0
M  V30 6284 O 610.601 -0.0970747 2.01166 0
M  V30 6285 C 607.666 0.165595 3.46304 0
M  V30 6286 C 606.727 1.21846 4.11645 0
M  V30 6287 C 605.96 0.669526 5.29484 0
M  V30 6288 O 606.183 -0.508228 5.68131 0
M  V30 6289 O 605.117 1.42361 5.84822 0
M  V30 6290 H 608.943 1.65107 2.54899 0
M  V30 6291 H 606.528 0.866584 1.21699 0
M  V30 6292 H 608.41 -0.152592 4.21124 0
M  V30 6293 H 607.085 -0.716573 3.15669 0
M  V30 6294 H 605.992 1.58931 3.38662 0
M  V30 6295 H 607.325 2.07321 4.46407 0
M  V30 6296 N 608.977 -1.30795 0.87923 0
M  V30 6297 C 609.925 -2.30231 0.331112 0
M  V30 6298 C 610.919 -1.59918 -0.558794 0
M  V30 6299 O 612.125 -1.74441 -0.443866 0
M  V30 6300 H 608.5 -0.746785 0.088409 0
M  V30 6301 H 610.471 -2.73925 1.18353 0
M  V30 6302 C 609.22 -3.44848 -0.444401 0
M  V30 6303 H 608.543 -3.99131 0.231106 0
M  V30 6304 H 609.983 -4.16516 -0.793109 0
M  V30 6305 C 608.442 -2.94329 -1.63926 0
M  V30 6306 O 608.972 -2.93875 -2.73862 0
M  V30 6307 N 607.178 -2.50413 -1.4745 0
M  V30 6308 H 606.725 -2.50982 -0.58015 0
M  V30 6309 H 606.683 -2.16969 -2.27534 0
M  V30 6310 N 610.455 -0.639598 -1.44038 0
M  V30 6311 C 611.871 -0.305953 -1.5664 0
M  V30 6312 C 612.071 1.19055 -1.62567 0
M  V30 6313 O 611.127 1.97492 -1.57331 0
M  V30 6314 C 612.44 -1.00533 -2.83397 0
M  V30 6315 C 613.988 -0.984278 -2.97121 0
M  V30 6316 C 614.463 -1.66428 -4.26691 0
M  V30 6317 N 615.954 -1.63127 -4.33525 0
M  V30 6318 C 616.689 -2.12629 -5.32519 0
M  V30 6319 N 616.185 -2.70359 -6.3787 0
M  V30 6320 N 617.978 -2.03208 -5.24083 0
M  V30 6321 H 610.129 -1.6109 -1.38434 0
M  V30 6322 H 612.392 -0.676672 -0.663942 0
M  V30 6323 H 612.098 -2.06034 -2.85032 0
M  V30 6324 H 611.972 -0.548362 -3.73193 0
M  V30 6325 H 614.359 0.0622792 -2.95034 0
M  V30 6326 H 614.44 -1.47981 -2.08651 0
M  V30 6327 H 614.084 -2.71034 -4.29538 0
M  V30 6328 H 614.014 -1.14351 -5.14034 0
M  V30 6329 H 616.505 -1.20987 -3.58009 0
M  V30 6330 H 616.818 -3.05842 -7.09704 0
M  V30 6331 H 615.163 -2.74414 -6.38531 0
M  V30 6332 H 618.354 -1.57823 -4.40692 0
M  V30 6333 H 618.527 -2.42097 -6.01077 0
M  V30 6334 N 611.933 1.52934 -0.380664 0
M  V30 6335 C 613.161 2.05886 0.204599 0
M  V30 6336 C 613.576 1.25305 1.41223 0
M  V30 6337 O 612.933 0.297504 1.80059 0
M  V30 6338 C 612.984 3.56764 0.583249 0
M  V30 6339 O 612.705 4.34292 -0.576398 0
M  V30 6340 C 614.206 4.2603 1.2253 0
M  V30 6341 H 611.426 0.670193 0.0328991 0
M  V30 6342 H 613.97 1.97148 -0.543397 0
M  V30 6343 H 612.125 3.65603 1.28115 0
M  V30 6344 H 612.539 5.23819 -0.267119 0
M  V30 6345 H 614.013 5.32868 1.44068 0
M  V30 6346 H 614.49 3.80698 2.19011 0
M  V30 6347 H 615.096 4.21485 0.568407 0
M  V30 6348 N 613.412 0.11024 1.57214 0
M  V30 6349 C 614.689 -0.592956 1.86396 0
M  V30 6350 C 615.069 -1.85379 1.00985 0
M  V30 6351 O 614.417 -2.28337 0.0863592 0
M  V30 6352 C 614.627 -0.893816 3.3736 0
M  V30 6353 C 615.975 -1.25069 4.05762 0
M  V30 6354 O 616.999 -0.984356 3.42329 0
M  V30 6355 O 615.858 -1.75017 5.17718 0
M  V30 6356 H 612.952 -0.29828 0.771335 0
M  V30 6357 H 615.498 0.144083 1.69087 0
M  V30 6358 H 614.27 2.6031e-05 3.913 0
M  V30 6359 H 613.893 -1.68631 3.60068 0
M  V30 6360 N 614.89 -1.56749 -0.16351 0
M  V30 6361 C 615.82 -2.00042 -1.20438 0
M  V30 6362 C 616.801 -0.877256 -1.45733 0
M  V30 6363 O 617.986 -1.1439 -1.56935 0
M  V30 6364 C 615.116 -2.36697 -2.54149 0
M  V30 6365 C 614.07 -3.52046 -2.43408 0
M  V30 6366 C 613.396 -3.74466 -3.81679 0
M  V30 6367 C 614.696 -4.85247 -1.93216 0
M  V30 6368 H 616.39 -2.87244 -0.844477 0
M  V30 6369 H 613.936 -1.38194 -0.40478 0
M  V30 6370 H 615.889 -2.65582 -3.27176 0
M  V30 6371 H 614.613 -1.46414 -2.91943 0
M  V30 6372 H 613.272 -3.23301 -1.72834 0
M  V30 6373 H 612.92 -2.81461 -4.1688 0
M  V30 6374 H 612.62 -4.52084 -3.75359 0
M  V30 6375 H 614.144 -4.0576 -4.5628 0
M  V30 6376 H 615.558 -5.12957 -2.56023 0
M  V30 6377 H 613.955 -5.66556 -1.97825 0
M  V30 6378 H 615.025 -4.7672 -0.88689 0
M  V30 6379 N 616.368 0.432326 -1.51554 0
M  V30 6380 C 617.318 1.52366 -1.69614 0
M  V30 6381 C 618.302 1.51205 -0.550083 0
M  V30 6382 O 619.494 1.57573 -0.806206 0
M  V30 6383 C 616.623 2.90513 -1.82913 0
M  V30 6384 C 615.709 2.9641 -3.03318 0
M  V30 6385 N 616.1 2.72043 -4.26411 0
M  V30 6386 C 614.398 3.27572 -3.02675 0
M  V30 6387 C 615.099 2.83912 -5.07709 0
M  V30 6388 N 614.075 3.15798 -4.42462 0
M  V30 6389 H 617.877 1.32285 -2.62446 0
M  V30 6390 H 615.391 0.639708 -1.4927 0
M  V30 6391 H 617.388 3.69032 -1.93962 0
M  V30 6392 H 616.048 3.1161 -0.912655 0
M  V30 6393 H 617.059 2.46876 -4.55272 0
M  V30 6394 H 613.736 3.54411 -2.20678 0
M  V30 6395 H 615.126 2.68984 -6.15709 0
M  V30 6396 N 617.846 1.41785 0.688094 0
M  V30 6397 C 618.809 1.43936 1.78368 0
M  V30 6398 C 619.809 0.328866 1.57401 0
M  V30 6399 O 620.999 0.589093 1.63937 0
M  V30 6400 C 618.131 1.25804 3.16838 0
M  V30 6401 H 619.324 2.41472 1.77852 0
M  V30 6402 H 616.877 1.28037 0.896448 0
M  V30 6403 H 617.612 0.291386 3.22988 0
M  V30 6404 H 617.397 2.06272 3.33458 0
M  V30 6405 H 618.887 1.30162 3.96797 0
M  V30 6406 N 619.324 -0.923095 1.27737 0
M  V30 6407 C 620.571 -1.67127 1.14345 0
M  V30 6408 C 620.899 -1.92017 -0.30982 0
M  V30 6409 O 620.154 -1.51185 -1.24264 0
M  V30 6410 C 620.453 -3.04125 1.8773 0
M  V30 6411 C 620.119 -2.98929 3.37568 0
M  V30 6412 C 618.781 -2.9722 3.78436 0
M  V30 6413 C 621.133 -2.89875 4.33154 0
M  V30 6414 C 618.461 -2.84244 5.13247 0
M  V30 6415 C 620.813 -2.7844 5.68026 0
M  V30 6416 C 619.477 -2.75083 6.08182 0
M  V30 6417 H 618.747 -0.611562 0.418417 0
M  V30 6418 H 621.394 -1.07618 1.584 0
M  V30 6419 H 619.699 -3.67366 1.36196 0
M  V30 6420 H 621.396 -3.609 1.74792 0
M  V30 6421 H 617.986 -3.0105 3.05069 0
M  V30 6422 H 622.17 -2.9029 4.02548 0
M  V30 6423 H 617.426 -2.80034 5.43499 0
M  V30 6424 H 621.6 -2.70401 6.4176 0
M  V30 6425 H 619.227 -2.64786 7.12596 0
M  V30 6426 N 620.802 -1.09834 -1.13024 0
M  V30 6427 C 621.712 -0.753731 -2.22162 0
M  V30 6428 C 622.728 0.246105 -1.72251 0
M  V30 6429 O 623.904 0.0864051 -2.01215 0
M  V30 6430 C 620.969 -0.183958 -3.46212 0
M  V30 6431 C 620.03 -1.24028 -4.10993 0
M  V30 6432 C 619.263 -0.697597 -5.29121 0
M  V30 6433 O 619.486 0.478092 -5.68393 0
M  V30 6434 O 618.42 -1.4546 -5.84059 0
M  V30 6435 H 622.246 -1.66456 -2.5402 0
M  V30 6436 H 619.831 -0.873026 -1.21238 0
M  V30 6437 H 621.713 0.130257 -4.21199 0
M  V30 6438 H 620.388 0.699823 -3.16045 0
M  V30 6439 H 619.295 -1.60725 -3.37814 0
M  V30 6440 H 620.628 -2.09685 -4.45301 0
M  V30 6441 N 622.28 1.30327 -0.886154 0
M  V30 6442 C 623.228 2.30052 -0.343317 0
M  V30 6443 C 624.222 1.60212 0.550305 0
M  V30 6444 O 625.428 1.74674 0.434609 0
M  V30 6445 H 621.803 0.746306 -0.0923681 0
M  V30 6446 H 623.774 2.73294 -1.19804 0
M  V30 6447 C 622.523 3.45079 0.426107 0
M  V30 6448 H 621.846 3.99003 -0.25227 0
M  V30 6449 H 623.286 4.16931 0.771009 0
M  V30 6450 C 621.745 2.95195 1.62363 0
M  V30 6451 O 622.275 2.95323 2.723 0
M  V30 6452 N 620.481 2.51192 1.4612 0
M  V30 6453 H 620.028 2.51286 0.566832 0
M  V30 6454 H 619.986 2.18173 2.2638 0
M  V30 6455 N 623.758 0.647228 1.43697 0
M  V30 6456 C 624.688 -0.0345631 2.33474 0
M  V30 6457 C 625.669 -0.818193 1.4913 0
M  V30 6458 O 626.854 -0.780867 1.77809 0
M  V30 6459 C 623.984 -1.00576 3.32418 0
M  V30 6460 C 622.938 -0.33266 4.26705 0
M  V30 6461 C 622.264 -1.41489 5.1564 0
M  V30 6462 C 623.564 0.771204 5.16575 0
M  V30 6463 H 625.258 0.715163 2.90733 0
M  V30 6464 H 622.804 0.345364 1.39797 0
M  V30 6465 H 624.757 -1.49159 3.94119 0
M  V30 6466 H 623.481 -1.78657 2.73403 0
M  V30 6467 H 622.14 0.13267 3.6636 0
M  V30 6468 H 621.788 -2.18698 4.52968 0
M  V30 6469 H 621.488 -0.969799 5.79542 0
M  V30 6470 H 623.012 -1.9022 5.80214 0
M  V30 6471 H 624.426 0.36779 5.72119 0
M  V30 6472 H 622.823 1.1404 5.89165 0
M  V30 6473 H 623.893 1.63169 4.56622 0
M  V30 6474 N 625.236 -1.5273 0.388769 0
M  V30 6475 C 626.146 -2.30165 -0.453993 0
M  V30 6476 C 627.162 -1.37058 -1.07197 0
M  V30 6477 O 628.338 -1.70127 -1.0779 0
M  V30 6478 C 625.403 -3.09303 -1.56628 0
M  V30 6479 C 624.464 -4.18117 -0.973467 0
M  V30 6480 C 623.697 -4.93472 -2.03275 0
M  V30 6481 O 623.92 -4.68913 -3.24772 0
M  V30 6482 O 622.854 -5.78833 -1.65034 0
M  V30 6483 H 626.68 -3.03185 0.176816 0
M  V30 6484 H 624.265 -1.4862 0.152501 0
M  V30 6485 H 626.147 -3.58648 -2.21246 0
M  V30 6486 H 624.822 -2.39098 -2.18206 0
M  V30 6487 H 623.729 -3.7297 -0.290556 0
M  V30 6488 H 625.062 -4.90556 -0.401908 0
M  V30 6489 N 626.714 -0.118576 -1.57153 0
M  V30 6490 C 627.963 0.539339 -1.94355 0
M  V30 6491 C 628.276 1.67858 -1.00415 0
M  V30 6492 O 629.482 2.39922 -1.27081 0
M  V30 6493 C 627.938 1.01082 -3.45414 0
M  V30 6494 C 627.546 -0.0999402 -4.47889 0
M  V30 6495 C 629.29 1.64013 -3.91535 0
M  V30 6496 C 627.197 0.388212 -5.90124 0
M  V30 6497 H 626.127 0.205247 -0.725527 0
M  V30 6498 H 628.778 -0.19836 -1.82425 0
M  V30 6499 H 627.16 1.80292 -3.52577 0
M  V30 6500 H 628.334 -0.876189 -4.52393 0
M  V30 6501 H 626.649 -0.635885 -4.11516 0
M  V30 6502 H 629.246 2.01649 -4.95219 0
M  V30 6503 H 629.589 2.51836 -3.31488 0
M  V30 6504 H 630.122 0.913439 -3.87171 0
M  V30 6505 H 626.861 -0.453963 -6.53926 0
M  V30 6506 H 626.381 1.13095 -5.89041 0
M  V30 6507 H 628.06 0.849574 -6.41398 0
M  V30 6508 N 628.193 1.56834 0.155195 0
M  V30 6509 C 629.442 1.82088 0.867567 0
M  V30 6510 C 629.755 0.69849 1.82703 0
M  V30 6511 O 630.961 0.836407 2.58295 0
M  V30 6512 C 629.417 3.22707 1.59336 0
M  V30 6513 C 629.025 4.42859 0.676719 0
M  V30 6514 C 630.769 3.57242 2.293 0
M  V30 6515 C 628.676 5.74501 1.40367 0
M  V30 6516 H 627.606 0.679057 0.327715 0
M  V30 6517 H 630.257 1.83105 0.120351 0
M  V30 6518 H 628.639 3.16054 2.38591 0
M  V30 6519 H 629.813 4.60731 -0.0800196 0
M  V30 6520 H 628.128 4.16311 0.0859129 0
M  V30 6521 H 630.725 4.52847 2.84312 0
M  V30 6522 H 631.068 2.82901 3.05406 0
M  V30 6523 H 631.601 3.6552 1.56972 0
M  V30 6524 H 628.34 6.51915 0.684623 0
M  V30 6525 H 627.86 5.60579 2.13332 0
M  V30 6526 H 629.539 6.17016 1.94681 0
M  V30 6527 N 629.671 -0.424282 1.51781 0
M  V30 6528 C 631.087 -0.761768 1.40247 0
M  V30 6529 C 631.287 -1.95324 0.495041 0
M  V30 6530 O 630.343 -2.5246 -0.0448949 0
M  V30 6531 C 631.656 -1.0299 2.82513 0
M  V30 6532 C 633.204 -1.13354 2.91753 0
M  V30 6533 C 633.679 -1.43453 4.34954 0
M  V30 6534 N 635.17 -1.5035 4.3812 0
M  V30 6535 C 635.905 -1.75236 5.45967 0
M  V30 6536 N 635.401 -1.97827 6.63955 0
M  V30 6537 N 637.194 -1.77126 5.33463 0
M  V30 6538 H 629.345 0.360228 2.09323 0
M  V30 6539 H 631.608 0.0988128 0.942836 0
M  V30 6540 H 631.314 -0.226961 3.50967 0
M  V30 6541 H 631.188 -1.95411 3.22637 0
M  V30 6542 H 633.575 -1.92709 2.23489 0
M  V30 6543 H 633.656 -0.188041 2.55108 0
M  V30 6544 H 633.3 -0.646209 5.03772 0
M  V30 6545 H 633.23 -2.3923 4.69123 0
M  V30 6546 H 635.721 -1.34742 3.53062 0
M  V30 6547 H 636.034 -2.16223 7.41935 0
M  V30 6548 H 634.379 -1.95123 6.67047 0
M  V30 6549 H 637.57 -1.59005 4.40267 0
M  V30 6550 H 637.743 -1.96182 6.17589 0
M  V30 6551 N 631.149 -1.42148 -0.680565 0
M  V30 6552 C 632.397 -1.42029 -1.43779 0
M  V30 6553 C 632.718 -0.0356347 -1.94967 0
M  V30 6554 O 631.988 0.924936 -1.7269 0
M  V30 6555 H 630.568 -0.522835 -0.533529 0
M  V30 6556 H 633.23 -1.7752 -0.804538 0
M  V30 6557 H 632.326 -2.11658 -2.29363 0
M  V30 6558 N 632.627 0.916307 -1.28225 0
M  V30 6559 C 634.043 1.19425 -1.05876 0
M  V30 6560 C 634.243 2.005 0.2005 0
M  V30 6561 O 633.299 2.35806 0.902873 0
M  V30 6562 C 634.612 1.93133 -2.30478 0
M  V30 6563 C 636.16 2.06026 -2.35632 0
M  V30 6564 C 636.635 2.83141 -3.59994 0
M  V30 6565 N 638.126 2.90704 -3.60618 0
M  V30 6566 C 638.861 3.50865 -4.53521 0
M  V30 6567 N 638.357 4.12327 -5.56739 0
M  V30 6568 N 640.15 3.48379 -4.41122 0
M  V30 6569 H 632.301 0.37496 -2.09064 0
M  V30 6570 H 634.564 0.228531 -0.920042 0
M  V30 6571 H 634.27 1.40985 -3.22205 0
M  V30 6572 H 634.144 2.93696 -2.36691 0
M  V30 6573 H 636.531 2.57355 -1.44404 0
M  V30 6574 H 636.612 1.04647 -2.33415 0
M  V30 6575 H 636.256 2.32492 -4.51564 0
M  V30 6576 H 636.186 3.84829 -3.59464 0
M  V30 6577 H 638.677 2.47034 -2.85977 0
M  V30 6578 H 638.99 4.56205 -6.23776 0
M  V30 6579 H 637.335 4.10839 -5.60568 0
M  V30 6580 H 640.526 2.99572 -3.59686 0
M  V30 6581 H 640.699 3.94974 -5.13712 0
M  V30 6582 N 634.105 1.10431 1.1244 0
M  V30 6583 C 635.333 0.868872 1.87772 0
M  V30 6584 C 635.748 -0.580645 1.7965 0
M  V30 6585 O 635.105 -1.40031 1.17036 0
M  V30 6586 C 635.156 1.30855 3.36986 0
M  V30 6587 O 634.877 2.70123 3.44914 0
M  V30 6588 C 636.378 1.107 4.29256 0
M  V30 6589 H 633.598 0.311868 0.59412 0
M  V30 6590 H 636.142 1.46897 1.42273 0
M  V30 6591 H 634.297 0.752126 3.80029 0
M  V30 6592 H 634.711 2.88923 4.37748 0
M  V30 6593 H 636.185 1.46378 5.32238 0
M  V30 6594 H 636.662 0.0456228 4.39176 0
M  V30 6595 H 637.268 1.64988 3.91994 0
M  V30 6596 N 635.583 -1.29855 0.893053 0
M  V30 6597 C 636.53 -2.27909 0.364161 0
M  V30 6598 C 637.5 -1.56726 -0.550093 0
M  V30 6599 O 638.685 -1.84747 -0.47677 0
M  V30 6600 C 635.825 -3.42678 -0.408178 0
M  V30 6601 C 634.938 -4.28659 0.536212 0
M  V30 6602 C 634.073 -5.30599 -0.252521 0
M  V30 6603 C 633.112 -6.08234 0.686822 0
M  V30 6604 N 632.249 -7.02068 -0.0670902 0
M  V30 6605 H 637.089 -2.72531 1.20544 0
M  V30 6606 H 634.626 -1.34047 0.605779 0
M  V30 6607 H 636.584 -4.07986 -0.871962 0
M  V30 6608 H 635.214 -2.99103 -1.21397 0
M  V30 6609 H 634.266 -3.63584 1.1185 0
M  V30 6610 H 635.578 -4.8274 1.25552 0
M  V30 6611 H 634.732 -6.01694 -0.777801 0
M  V30 6612 H 633.471 -4.77233 -1.005 0
M  V30 6613 H 632.476 -5.3601 1.22366 0
M  V30 6614 H 633.701 -6.63689 1.43852 0
M  V30 6615 H 631.647 -6.5108 -0.801955 0
M  V30 6616 H 631.564 -7.53675 0.59243 0
M  V30 6617 H 632.832 -7.77392 -0.572851 0
M  V30 6618 N 637.061 -0.65484 -1.43351 0
M  V30 6619 C 637.993 0.0744757 -2.29079 0
M  V30 6620 C 639.006 0.7855 -1.42596 0
M  V30 6621 O 640.195 0.642986 -1.66517 0
M  V30 6622 C 637.295 1.12859 -3.19556 0
M  V30 6623 C 636.468 0.495381 -4.34586 0
M  V30 6624 C 635.527 1.44659 -5.05925 0
M  V30 6625 O 634.553 0.954567 -5.61139 0
M  V30 6626 N 635.755 2.78051 -5.09576 0
M  V30 6627 H 638.52 -0.661346 -2.92312 0
M  V30 6628 H 636.081 -0.497744 -1.54059 0
M  V30 6629 H 638.073 1.76577 -3.64147 0
M  V30 6630 H 636.643 1.76636 -2.57912 0
M  V30 6631 H 635.863 -0.32092 -3.92892 0
M  V30 6632 H 637.151 0.0534203 -5.08772 0
M  V30 6633 H 636.549 3.20584 -4.66093 0
M  V30 6634 H 635.106 3.37068 -5.57878 0
M  V30 6635 N 638.539 1.52521 -0.396863 0
M  V30 6636 C 639.489 2.2348 0.451722 0
M  V30 6637 C 640.473 1.2415 1.0235 0
M  V30 6638 O 641.665 1.4945 0.948348 0
M  V30 6639 C 638.794 3.05067 1.57445 0
M  V30 6640 C 637.88 4.11799 1.01404 0
M  V30 6641 N 638.271 5.05482 0.179234 0
M  V30 6642 C 636.569 4.27064 1.28578 0
M  V30 6643 C 637.27 5.81552 -0.131202 0
M  V30 6644 N 636.246 5.41523 0.474735 0
M  V30 6645 H 640.048 2.93269 -0.192534 0
M  V30 6646 H 637.562 1.61081 -0.206591 0
M  V30 6647 H 639.559 3.54446 2.19485 0
M  V30 6648 H 638.219 2.36816 2.22145 0
M  V30 6649 H 639.23 5.17573 -0.18411 0
M  V30 6650 H 635.907 3.70042 1.93327 0
M  V30 6651 H 637.297 6.67023 -0.808061 0
M  V30 6652 N 640.017 0.126909 1.57088 0
M  V30 6653 C 641.265 -0.528123 1.95078 0
M  V30 6654 C 641.586 -1.66708 1.0116 0
M  V30 6655 O 640.856 -1.95777 0.0693527 0
M  V30 6656 H 639.436 -0.198087 0.720257 0
M  V30 6657 H 642.098 0.197703 1.93895 0
M  V30 6658 H 641.194 -0.917507 2.98309 0
M  V30 6659 N 641.495 -1.56914 -0.146875 0
M  V30 6660 C 642.427 -1.94878 -1.20645 0
M  V30 6661 C 643.44 -0.844633 -1.39175 0
M  V30 6662 O 644.629 -1.12304 -1.38744 0
M  V30 6663 C 641.729 -2.20769 -2.57127 0
M  V30 6664 C 640.902 -3.52053 -2.59572 0
M  V30 6665 C 639.961 -3.66482 -3.77594 0
M  V30 6666 O 638.987 -4.38873 -3.62462 0
M  V30 6667 N 640.189 -3.03156 -4.95052 0
M  V30 6668 H 642.954 -2.86374 -0.883757 0
M  V30 6669 H 640.515 -1.58366 -0.336436 0
M  V30 6670 H 642.507 -2.27664 -3.34591 0
M  V30 6671 H 641.077 -1.35538 -2.81688 0
M  V30 6672 H 640.297 -3.56598 -1.68023 0
M  V30 6673 H 641.585 -4.38396 -2.58238 0
M  V30 6674 H 640.983 -2.44258 -5.10249 0
M  V30 6675 H 639.54 -3.15611 -5.70292 0
M  V30 6676 N 642.974 0.416227 -1.52004 0
M  V30 6677 C 644.221 1.16383 -1.65714 0
M  V30 6678 C 644.549 1.9068 -0.383594 0
M  V30 6679 O 643.804 1.85174 0.633185 0
M  V30 6680 C 644.103 2.18923 -2.82502 0
M  V30 6681 C 643.769 1.61485 -4.20991 0
M  V30 6682 C 642.431 1.45545 -4.58661 0
M  V30 6683 C 644.783 1.19468 -5.07323 0
M  V30 6684 C 642.111 0.860937 -5.80349 0
M  V30 6685 C 644.463 0.614386 -6.29609 0
M  V30 6686 C 643.127 0.442056 -6.66035 0
M  V30 6687 H 642.397 0.425875 -0.606392 0
M  V30 6688 H 645.044 0.45199 -1.8609 0
M  V30 6689 H 643.349 2.96225 -2.56433 0
M  V30 6690 H 645.046 2.76628 -2.90307 0
M  V30 6691 H 641.636 1.74873 -3.91302 0
M  V30 6692 H 645.82 1.30596 -4.78809 0
M  V30 6693 H 641.076 0.715372 -6.072 0
M  V30 6694 H 645.25 0.280393 -6.95835 0
M  V30 6695 H 642.877 -0.0207218 -7.60197 0
M  V30 6696 N 644.452 1.42507 0.673017 0
M  V30 6697 C 645.677 1.4668 1.46627 0
M  V30 6698 C 646.102 0.080066 1.8793 0
M  V30 6699 O 645.46 -0.921879 1.56112 0
M  V30 6700 C 645.508 2.40091 2.69051 0
M  V30 6701 O 644.612 1.8735 3.67387 0
M  V30 6702 H 643.953 0.496908 0.44043 0
M  V30 6703 H 646.483 1.87215 0.825334 0
M  V30 6704 H 646.493 2.56731 3.17101 0
M  V30 6705 H 645.168 3.4084 2.3833 0
M  V30 6706 H 643.745 1.80274 3.26429 0
M  V30 6707 N 645.93 -0.909495 1.28709 0
M  V30 6708 C 646.86 -2.0291 1.15542 0
M  V30 6709 C 647.841 -1.7002 0.0521017 0
M  V30 6710 O 649.026 -1.92835 0.229849 0
M  V30 6711 C 646.156 -3.37458 0.820935 0
M  V30 6712 C 645.11 -3.84524 1.87949 0
M  V30 6713 C 644.436 -5.16086 1.39854 0
M  V30 6714 C 645.736 -4.05918 3.28676 0
M  V30 6715 H 647.43 -2.14183 2.09203 0
M  V30 6716 H 644.976 -1.02913 1.00722 0
M  V30 6717 H 646.929 -4.1528 0.715571 0
M  V30 6718 H 645.653 -3.26249 -0.151374 0
M  V30 6719 H 644.312 -3.08911 1.97408 0
M  V30 6720 H 643.96 -5.01284 0.41518 0
M  V30 6721 H 643.66 -5.48547 2.1064 0
M  V30 6722 H 645.184 -5.96459 1.30649 0
M  V30 6723 H 646.598 -4.74252 3.22115 0
M  V30 6724 H 644.995 -4.49717 3.97334 0
M  V30 6725 H 646.065 -3.10583 3.72379 0
M  V30 6726 N 647.408 -1.11026 -1.11852 0
M  V30 6727 C 648.371 -0.768006 -2.1595 0
M  V30 6728 C 649.371 0.210538 -1.59416 0
M  V30 6729 O 650.561 -0.0133978 -1.74195 0
M  V30 6730 C 647.693 -0.138678 -3.40618 0
M  V30 6731 H 648.886 -1.69012 -2.4774 0
M  V30 6732 H 646.439 -0.911578 -1.26964 0
M  V30 6733 H 647.174 0.793872 -3.14433 0
M  V30 6734 H 646.959 -0.843012 -3.8293 0
M  V30 6735 H 648.449 0.0848039 -4.17514 0
M  V30 6736 N 648.886 1.2938 -0.899927 0
M  V30 6737 C 650.132 1.9584 -0.526742 0
M  V30 6738 C 650.465 1.70774 0.924651 0
M  V30 6739 O 649.74 1.02084 1.65557 0
M  V30 6740 C 650.023 3.50638 -0.820062 0
M  V30 6741 C 649.876 3.85161 -2.32317 0
M  V30 6742 C 651.195 4.3903 -0.30671 0
M  V30 6743 H 648.314 0.711322 -0.192848 0
M  V30 6744 H 650.956 1.52992 -1.12665 0
M  V30 6745 H 649.106 3.87265 -0.309491 0
M  V30 6746 H 650.778 3.58477 -2.9033 0
M  V30 6747 H 649.021 3.32696 -2.78381 0
M  V30 6748 H 649.692 4.93204 -2.47898 0
M  V30 6749 H 652.168 4.09396 -0.743908 0
M  V30 6750 H 651.044 5.46226 -0.541144 0
M  V30 6751 H 651.305 4.34937 0.792588 0
M  V30 6752 N 650.364 0.662433 1.43002 0
M  V30 6753 C 651.61 0.179857 2.02001 0
M  V30 6754 C 651.943 -1.20625 1.52195 0
M  V30 6755 O 651.218 -1.80726 0.718911 0
M  V30 6756 C 651.501 0.200845 3.59539 0
M  V30 6757 C 651.354 1.62153 4.19555 0
M  V30 6758 C 652.673 -0.457738 4.37713 0
M  V30 6759 H 649.792 0.0668305 0.733964 0
M  V30 6760 H 652.434 0.84487 1.70182 0
M  V30 6761 H 650.584 -0.365411 3.86778 0
M  V30 6762 H 652.256 2.23908 4.03315 0
M  V30 6763 H 650.499 2.16601 3.75854 0
M  V30 6764 H 651.17 1.58799 5.28665 0
M  V30 6765 H 653.646 0.0241495 4.16093 0
M  V30 6766 H 652.522 -0.412363 5.47349 0
M  V30 6767 H 652.783 -1.53336 4.14657 0
M  V30 6768 N 651.842 -1.52309 0.404946 0
M  V30 6769 C 653.067 -2.06666 -0.1743 0
M  V30 6770 C 653.492 -1.27341 -1.38441 0
M  V30 6771 O 652.85 -0.302539 -1.78758 0
M  V30 6772 C 652.898 -3.57014 -0.507262 0
M  V30 6773 O 652.002 -3.80144 -1.59889 0
M  V30 6774 H 651.343 -0.663807 -0.0160273 0
M  V30 6775 H 653.873 -1.96297 0.576937 0
M  V30 6776 H 653.883 -4.00724 -0.767098 0
M  V30 6777 H 652.558 -4.14184 0.377368 0
M  V30 6778 H 651.135 -3.48316 -1.33155 0
M  V30 6779 N 653.32 -0.135238 -1.57019 0
M  V30 6780 C 654.25 0.805235 -2.19176 0
M  V30 6781 C 655.231 1.2656 -1.13651 0
M  V30 6782 O 656.416 1.32528 -1.4195 0
M  V30 6783 C 653.546 2.04914 -2.80406 0
M  V30 6784 C 652.5 1.72598 -3.91655 0
M  V30 6785 C 651.826 3.04154 -4.39766 0
M  V30 6786 C 653.126 0.981709 -5.12991 0
M  V30 6787 H 654.82 0.287232 -2.98019 0
M  V30 6788 H 652.366 0.136714 -1.4335 0
M  V30 6789 H 654.319 2.71178 -3.22553 0
M  V30 6790 H 653.043 2.59067 -1.98877 0
M  V30 6791 H 651.702 1.08717 -3.50109 0
M  V30 6792 H 651.35 3.56274 -3.55075 0
M  V30 6793 H 651.05 2.83299 -5.14796 0
M  V30 6794 H 652.574 3.71509 -4.84576 0
M  V30 6795 H 653.988 1.5462 -5.52056 0
M  V30 6796 H 652.385 0.873533 -5.93708 0
M  V30 6797 H 653.455 -0.0286887 -4.84892 0
M  V30 6798 N 654.798 1.5699 0.138552 0
M  V30 6799 C 655.746 1.99858 1.18994 0
M  V30 6800 C 656.74 0.89231 1.43994 0
M  V30 6801 O 657.946 1.0775 1.44187 0
M  V30 6802 H 654.321 0.636325 0.400743 0
M  V30 6803 H 656.292 2.87427 0.801755 0
M  V30 6804 C 655.041 2.40235 2.51361 0
M  V30 6805 H 654.364 3.24917 2.32957 0
M  V30 6806 H 655.804 2.74045 3.23535 0
M  V30 6807 C 654.263 1.25829 3.1252 0
M  V30 6808 O 654.793 0.563604 3.97727 0
M  V30 6809 N 652.999 1.02036 2.72097 0
M  V30 6810 H 652.546 1.58705 2.02905 0
M  V30 6811 H 652.504 0.256796 3.1335 0
M  V30 6812 N 656.276 -0.40816 1.52223 0
M  V30 6813 C 657.525 -1.15212 1.65557 0
M  V30 6814 C 657.838 -1.9163 0.392096 0
M  V30 6815 O 659.044 -2.68458 0.405256 0
M  V30 6816 C 657.5 -2.09691 2.92502 0
M  V30 6817 C 657.108 -1.38785 4.25961 0
M  V30 6818 C 658.852 -2.8434 3.152 0
M  V30 6819 C 656.759 -2.31919 5.44029 0
M  V30 6820 H 655.689 -0.433776 0.616729 0
M  V30 6821 H 658.34 -0.4165 1.78711 0
M  V30 6822 H 656.722 -2.8681 2.7305 0
M  V30 6823 H 657.896 -0.670248 4.55899 0
M  V30 6824 H 656.211 -0.761741 4.09373 0
M  V30 6825 H 658.808 -3.54166 4.00587 0
M  V30 6826 H 659.151 -3.47344 2.29473 0
M  V30 6827 H 659.684 -2.14321 3.35129 0
M  V30 6828 H 656.423 -1.7356 6.32105 0
M  V30 6829 H 655.943 -3.0165 5.18428 0
M  V30 6830 H 657.622 -2.92424 5.77146 0
M  V30 6831 N 657.755 -1.42862 -0.66545 0
M  V30 6832 C 658.983 -1.47246 -1.45349 0
M  V30 6833 C 659.398 -0.0865944 -1.88601 0
M  V30 6834 O 658.755 0.900652 -1.58728 0
M  V30 6835 C 658.806 -2.40772 -2.6965 0
M  V30 6836 O 658.527 -3.73968 -2.2821 0
M  V30 6837 C 660.028 -2.54272 -3.63126 0
M  V30 6838 H 657.248 -0.500497 -0.446927 0
M  V30 6839 H 659.792 -1.87477 -0.816871 0
M  V30 6840 H 657.947 -2.0377 -3.29479 0
M  V30 6841 H 658.361 -4.24146 -3.08546 0
M  V30 6842 H 659.835 -3.23815 -4.47043 0
M  V30 6843 H 660.312 -1.58364 -4.09656 0
M  V30 6844 H 660.918 -2.92036 -3.09185 0
M  V30 6845 N 659.233 0.902656 -1.29189 0
M  V30 6846 C 660.458 1.69167 -1.19989 0
M  V30 6847 C 660.883 1.86607 0.236495 0
M  V30 6848 O 660.241 1.38425 1.17082 0
M  V30 6849 C 660.289 3.05532 -1.91527 0
M  V30 6850 O 659.393 3.93621 -1.2303 0
M  V30 6851 H 658.734 0.517584 -0.415936 0
M  V30 6852 H 661.264 1.12785 -1.70706 0
M  V30 6853 H 661.274 3.55693 -1.99866 0
M  V30 6854 H 659.949 2.92156 -2.96003 0
M  V30 6855 H 658.526 3.52055 -1.22928 0
M  V30 6856 N 660.711 1.11618 1.11262 0
M  V30 6857 C 661.641 0.79846 2.19424 0
M  V30 6858 C 662.622 -0.234003 1.68483 0
M  V30 6859 O 663.807 -0.0970704 1.93957 0
M  V30 6860 C 660.937 0.242892 3.4645 0
M  V30 6861 C 659.891 1.20744 4.10615 0
M  V30 6862 C 659.217 0.512494 5.32238 0
M  V30 6863 C 660.517 2.55884 4.55325 0
M  V30 6864 H 662.211 1.70286 2.46258 0
M  V30 6865 H 659.757 0.820195 1.18359 0
M  V30 6866 H 661.71 0.00840447 4.21399 0
M  V30 6867 H 660.434 -0.696811 3.1908 0
M  V30 6868 H 659.093 1.42759 3.37662 0
M  V30 6869 H 658.741 -0.432075 5.01141 0
M  V30 6870 H 658.441 1.15583 5.7612 0
M  V30 6871 H 659.965 0.286842 6.09926 0
M  V30 6872 H 661.379 2.37946 5.21588 0
M  V30 6873 H 659.776 3.16216 5.10027 0
M  V30 6874 H 660.846 3.14968 3.68678 0
M  V30 6875 N 662.189 -1.289 0.906776 0
M  V30 6876 C 663.437 -1.94883 0.535266 0
M  V30 6877 C 663.758 -1.71784 -0.922791 0
M  V30 6878 O 663.028 -1.05359 -1.65156 0
M  V30 6879 H 661.608 -0.721109 0.194962 0
M  V30 6880 H 664.27 -1.57018 1.15461 0
M  V30 6881 H 663.366 -3.03591 0.723821 0
M  V30 6882 N 663.667 -0.670007 -1.42649 0
M  V30 6883 C 664.597 -0.00258501 -2.335 0
M  V30 6884 C 665.578 0.794364 -1.50412 0
M  V30 6885 O 666.763 0.75248 -1.79029 0
M  V30 6886 C 663.893 0.952748 -3.33976 0
M  V30 6887 C 662.847 0.264733 -4.2718 0
M  V30 6888 C 662.173 1.33267 -5.17826 0
M  V30 6889 C 663.473 -0.853289 -5.15283 0
M  V30 6890 H 665.167 -0.761326 -2.89559 0
M  V30 6891 H 662.713 -0.367561 -1.3923 0
M  V30 6892 H 664.666 1.4287 -3.96442 0
M  V30 6893 H 663.39 1.74285 -2.7621 0
M  V30 6894 H 662.049 -0.190938 -3.66102 0
M  V30 6895 H 661.697 2.11464 -4.5639 0
M  V30 6896 H 661.397 0.877476 -5.81011 0
M  V30 6897 H 662.921 1.80965 -5.83167 0
M  V30 6898 H 664.335 -0.458763 -5.71462 0
M  V30 6899 H 662.732 -1.23398 -5.87276 0
M  V30 6900 H 663.802 -1.70412 -4.53969 0
M  V30 6901 N 665.145 1.52092 -0.413018 0
M  V30 6902 C 666.561 1.59471 -0.0640836 0
M  V30 6903 C 666.761 1.42562 1.42402 0
M  V30 6904 O 665.817 1.25453 2.19129 0
M  V30 6905 C 667.13 2.95392 -0.562474 0
M  V30 6906 C 668.678 3.08637 -0.520788 0
M  V30 6907 C 669.153 4.47044 -0.995752 0
M  V30 6908 N 670.644 4.53296 -0.952732 0
M  V30 6909 C 671.379 5.58669 -1.29138 0
M  V30 6910 N 670.875 6.71576 -1.70168 0
M  V30 6911 N 672.668 5.48898 -1.2111 0
M  V30 6912 H 664.819 1.6133 -1.38153 0
M  V30 6913 H 667.082 0.75916 -0.567785 0
M  V30 6914 H 666.788 3.13059 -1.60271 0
M  V30 6915 H 666.662 3.77191 0.0257875 0
M  V30 6916 H 669.049 2.90652 0.510412 0
M  V30 6917 H 669.13 2.28735 -1.14515 0
M  V30 6918 H 668.774 4.65773 -2.0253 0
M  V30 6919 H 668.704 5.25448 -0.348162 0
M  V30 6920 H 671.195 3.72248 -0.651119 0
M  V30 6921 H 671.508 7.47973 -1.9431 0
M  V30 6922 H 669.853 6.72847 -1.74075 0
M  V30 6923 H 673.044 4.59573 -0.889396 0
M  V30 6924 H 673.217 6.30912 -1.47833 0
M  V30 6925 N 666.623 0.143563 1.56945 0
M  V30 6926 C 667.848 -0.518701 2.00809 0
M  V30 6927 C 668.273 -1.5785 1.02298 0
M  V30 6928 O 667.631 -1.813 -0.0017839 0
M  V30 6929 C 667.679 -1.09929 3.43436 0
M  V30 6930 O 666.783 -2.21425 3.47915 0
M  V30 6931 H 666.124 -0.127215 0.6517 0
M  V30 6932 H 668.654 0.239283 2.03196 0
M  V30 6933 H 668.664 -1.4288 3.82164 0
M  V30 6934 H 667.339 -0.323162 4.14643 0
M  V30 6935 H 665.916 -1.89728 3.21026 0
M  V30 6936 N 668.101 -1.57061 -0.130224 0
M  V30 6937 C 669.031 -2.02552 -1.16168 0
M  V30 6938 C 670.012 -0.907971 -1.4384 0
M  V30 6939 O 671.197 -1.17693 -1.54473 0
M  V30 6940 C 668.327 -2.42035 -2.49071 0
M  V30 6941 C 667.281 -3.5713 -2.35886 0
M  V30 6942 C 666.607 -3.82478 -3.7365 0
M  V30 6943 C 667.907 -4.89236 -1.8288 0
M  V30 6944 H 669.601 -2.8897 -0.783359 0
M  V30 6945 H 667.147 -1.39021 -0.375376 0
M  V30 6946 H 669.1 -2.72462 -3.21469 0
M  V30 6947 H 667.824 -1.52573 -2.88771 0
M  V30 6948 H 666.483 -3.26895 -1.65938 0
M  V30 6949 H 666.131 -2.9024 -4.10816 0
M  V30 6950 H 665.831 -4.59944 -3.65685 0
M  V30 6951 H 667.355 -4.15347 -4.47571 0
M  V30 6952 H 668.769 -5.18272 -2.45085 0
M  V30 6953 H 667.166 -5.70624 -1.85763 0
M  V30 6954 H 668.236 -4.78494 -0.785571 0
M  V30 6955 N 669.579 0.400081 -1.52437 0
M  V30 6956 C 670.526 1.48803 -1.76426 0
M  V30 6957 C 671.496 1.5461 -0.607032 0
M  V30 6958 O 672.681 1.71041 -0.845563 0
M  V30 6959 C 669.821 2.86156 -1.92896 0
M  V30 6960 C 668.934 2.89587 -3.20567 0
M  V30 6961 C 668.069 4.18296 -3.27417 0
M  V30 6962 C 667.108 4.15736 -4.49255 0
M  V30 6963 N 666.245 5.36032 -4.53447 0
M  V30 6964 H 671.085 1.27649 -2.69276 0
M  V30 6965 H 668.622 0.619451 -1.33421 0
M  V30 6966 H 670.58 3.65901 -2.00429 0
M  V30 6967 H 669.21 3.05785 -1.03418 0
M  V30 6968 H 668.262 2.02278 -3.22161 0
M  V30 6969 H 669.574 2.83562 -4.10358 0
M  V30 6970 H 668.728 5.06439 -3.34072 0
M  V30 6971 H 667.467 4.27028 -2.35581 0
M  V30 6972 H 666.472 3.25982 -4.42737 0
M  V30 6973 H 667.697 4.08636 -5.42396 0
M  V30 6974 H 665.643 5.45415 -3.64498 0
M  V30 6975 H 665.56 5.32038 -5.37096 0
M  V30 6976 H 666.828 6.26104 -4.64343 0
M  V30 6977 N 671.057 1.43213 0.657864 0
M  V30 6978 C 671.967 1.50448 1.80007 0
M  V30 6979 C 672.983 0.39191 1.69529 0
M  V30 6980 O 674.159 0.645349 1.90781 0
M  V30 6981 C 671.224 1.42062 3.16258 0
M  V30 6982 C 670.285 2.63951 3.38568 0
M  V30 6983 C 669.518 2.55956 4.68318 0
M  V30 6984 O 669.741 1.60473 5.47361 0
M  V30 6985 O 668.675 3.46378 4.92245 0
M  V30 6986 H 672.501 2.4689 1.76858 0
M  V30 6987 H 670.086 1.25163 0.81576 0
M  V30 6988 H 671.968 1.3981 3.97531 0
M  V30 6989 H 670.643 0.487524 3.20008 0
M  V30 6990 H 669.55 2.71776 2.57077 0
M  V30 6991 H 670.883 3.56217 3.39662 0
M  V30 6992 N 672.536 -0.895792 1.29666 0
M  V30 6993 C 673.785 -1.64131 1.17234 0
M  V30 6994 C 674.098 -1.93665 -0.274416 0
M  V30 6995 O 675.304 -2.66472 -0.520105 0
M  V30 6996 C 673.76 -2.95764 2.05065 0
M  V30 6997 C 673.368 -2.7381 3.54587 0
M  V30 6998 C 675.112 -3.737 2.01367 0
M  V30 6999 C 673.019 -4.01194 4.34508 0
M  V30 7000 H 671.949 -0.615742 0.435175 0
M  V30 7001 H 674.6 -0.992626 1.54335 0
M  V30 7002 H 672.982 -3.61867 1.60837 0
M  V30 7003 H 674.156 -2.16277 4.06892 0
M  V30 7004 H 672.471 -2.09265 3.59996 0
M  V30 7005 H 675.068 -4.68152 2.58337 0
M  V30 7006 H 675.411 -4.04245 0.994575 0
M  V30 7007 H 675.944 -3.14444 2.43659 0
M  V30 7008 H 672.683 -3.75813 5.37071 0
M  V30 7009 H 672.203 -4.58272 3.86971 0
M  V30 7010 H 673.882 -4.69307 4.45376 0
M  V30 7011 N 674.014 -1.12206 -1.10668 0
M  V30 7012 C 675.239 -0.898938 -1.86906 0
M  V30 7013 C 675.664 0.546346 -1.79991 0
M  V30 7014 O 675.022 1.38655 -1.1681 0
M  V30 7015 C 675.07 -1.37529 -3.33344 0
M  V30 7016 O 674.174 -0.55218 -4.08687 0
M  V30 7017 H 673.515 -0.323163 -0.580053 0
M  V30 7018 H 676.045 -1.49355 -1.39837 0
M  V30 7019 H 676.055 -1.3733 -3.84193 0
M  V30 7020 H 674.73 -2.42767 -3.37693 0
M  V30 7021 H 673.307 -0.620947 -3.67694 0
M  V30 7022 N 675.492 1.28418 -0.913599 0
M  V30 7023 C 676.769 1.89977 -0.465619 0
M  V30 7024 C 677.149 1.82813 1.05559 0
M  V30 7025 O 676.497 1.26397 1.90358 0
M  V30 7026 C 676.707 3.34492 -0.995813 0
M  V30 7027 C 678.055 4.11468 -1.04782 0
M  V30 7028 O 679.079 3.43451 -0.944445 0
M  V30 7029 O 677.938 5.33046 -1.20518 0
M  V30 7030 H 675.032 0.813734 -0.147532 0
M  V30 7031 H 677.578 1.36786 -1.00437 0
M  V30 7032 H 676.35 3.33929 -2.03978 0
M  V30 7033 H 675.973 3.95181 -0.437878 0
M  V30 7034 N 676.97 0.677563 1.42291 0
M  V30 7035 C 678.218 0.200578 2.01102 0
M  V30 7036 C 678.539 -1.19803 1.53858 0
M  V30 7037 O 677.809 -1.80496 0.761439 0
M  V30 7038 H 676.389 0.0711634 0.743603 0
M  V30 7039 H 679.051 0.874691 1.7417 0
M  V30 7040 H 678.147 0.204 3.11433 0
M  V30 7041 N 678.448 -1.51871 0.421078 0
M  V30 7042 C 679.725 -1.9447 -0.20993 0
M  V30 7043 C 680.105 -1.35875 -1.61558 0
M  V30 7044 O 679.453 -0.539294 -2.22045 0
M  V30 7045 C 679.663 -3.48402 -0.204165 0
M  V30 7046 C 681.011 -4.2254 -0.417696 0
M  V30 7047 O 682.035 -3.55074 -0.282999 0
M  V30 7048 O 680.894 -5.422 -0.684239 0
M  V30 7049 H 677.988 -0.815283 -0.138718 0
M  V30 7050 H 680.534 -1.62832 0.477884 0
M  V30 7051 H 679.306 -3.83464 0.779183 0
M  V30 7052 H 678.929 -3.86436 -0.935576 0
M  V30 7053 N 679.926 -0.151884 -1.56866 0
M  V30 7054 C 681.172 0.498742 -1.96572 0
M  V30 7055 C 681.505 1.64194 -1.03702 0
M  V30 7056 O 680.78 1.94334 -0.0803432 0
M  V30 7057 C 681.063 1.00027 -3.45929 0
M  V30 7058 C 680.916 -0.141767 -4.49577 0
M  V30 7059 C 682.235 1.88044 -3.97904 0
M  V30 7060 H 679.354 0.17982 -0.714726 0
M  V30 7061 H 681.996 -0.234097 -1.88552 0
M  V30 7062 H 680.146 1.62476 -3.52894 0
M  V30 7063 H 681.818 -0.778269 -4.54687 0
M  V30 7064 H 680.061 -0.80019 -4.26356 0
M  V30 7065 H 680.732 0.250947 -5.51429 0
M  V30 7066 H 683.208 1.35416 -3.93449 0
M  V30 7067 H 682.084 2.20043 -5.02864 0
M  V30 7068 H 682.345 2.81916 -3.40552 0
M  V30 7069 N 681.404 1.57128 0.121893 0
M  V30 7070 C 682.653 1.83888 0.828748 0
M  V30 7071 C 682.966 0.737087 1.81181 0
M  V30 7072 O 684.172 0.891007 2.56463 0
M  V30 7073 C 682.628 3.26014 1.52455 0
M  V30 7074 C 682.236 4.44195 0.58263 0
M  V30 7075 C 683.98 3.62025 2.21671 0
M  V30 7076 C 681.887 5.77349 1.28149 0
M  V30 7077 H 680.817 0.685856 0.313238 0
M  V30 7078 H 683.468 1.83319 0.0814851 0
M  V30 7079 H 681.85 3.21044 2.31834 0
M  V30 7080 H 683.024 4.60457 -0.177729 0
M  V30 7081 H 681.339 4.164 -0.00241228 0
M  V30 7082 H 683.936 4.58776 2.74643 0
M  V30 7083 H 684.279 2.89315 2.99337 0
M  V30 7084 H 684.812 3.68767 1.49184 0
M  V30 7085 H 681.551 6.53221 0.546189 0
M  V30 7086 H 681.071 5.64978 2.01394 0
M  V30 7087 H 682.75 6.21006 1.81549 0
M  V30 7088 N 682.882 -0.391992 1.52647 0
M  V30 7089 C 684.131 -1.13449 1.6677 0
M  V30 7090 C 684.444 -1.91203 0.412399 0
M  V30 7091 O 685.65 -2.68013 0.433707 0
M  V30 7092 C 684.106 -2.06577 2.9471 0
M  V30 7093 C 683.714 -1.3426 4.27409 0
M  V30 7094 C 685.458 -2.80981 3.18198 0
M  V30 7095 C 683.365 -2.26136 5.46458 0
M  V30 7096 H 682.295 -0.427211 0.621295 0
M  V30 7097 H 684.946 -0.397522 1.79142 0
M  V30 7098 H 683.328 -2.83898 2.76076 0
M  V30 7099 H 684.502 -0.621856 4.56585 0
M  V30 7100 H 682.817 -0.718279 4.10158 0
M  V30 7101 H 685.414 -3.49898 4.04321 0
M  V30 7102 H 685.757 -3.44891 2.33144 0
M  V30 7103 H 686.29 -2.10754 3.37383 0
M  V30 7104 H 683.029 -1.66846 6.33911 0
M  V30 7105 H 682.549 -2.96134 5.21598 0
M  V30 7106 H 684.228 -2.86286 5.80215 0
M  V30 7107 N 684.36 -1.4356 -0.65026 0
M  V30 7108 C 685.585 -1.48995 -1.44275 0
M  V30 7109 C 686.01 -0.109954 -1.87778 0
M  V30 7110 O 685.368 0.896926 -1.57559 0
M  V30 7111 C 685.416 -2.44341 -2.65198 0
M  V30 7112 O 684.52 -1.93172 -3.6436 0
M  V30 7113 H 683.861 -0.503852 -0.432469 0
M  V30 7114 H 686.391 -1.88504 -0.795446 0
M  V30 7115 H 686.401 -2.61743 -3.12977 0
M  V30 7116 H 685.076 -3.44588 -2.32877 0
M  V30 7117 H 683.653 -1.85445 -3.23519 0
M  V30 7118 N 685.838 0.888903 -1.30139 0
M  V30 7119 C 687.086 1.63713 -1.18501 0
M  V30 7120 C 687.407 1.9324 0.261399 0
M  V30 7121 O 686.677 1.56608 1.17689 0
M  V30 7122 H 685.257 0.606861 -0.435579 0
M  V30 7123 H 687.919 1.06525 -1.63213 0
M  V30 7124 H 687.015 2.58894 -1.743 0
M  V30 7125 N 687.317 1.12792 1.10072 0
M  V30 7126 C 688.265 0.794523 2.18609 0
M  V30 7127 C 689.259 -0.220271 1.67962 0
M  V30 7128 O 690.465 -0.0780938 1.79831 0
M  V30 7129 H 686.84 0.239123 0.712969 0
M  V30 7130 H 688.811 1.71823 2.43966 0
M  V30 7131 C 687.56 0.269548 3.46654 0
M  V30 7132 H 686.883 1.04171 3.8599 0
M  V30 7133 H 688.323 0.0746242 4.23934 0
M  V30 7134 C 686.782 -1.00333 3.21613 0
M  V30 7135 O 687.312 -2.08042 3.4363 0
M  V30 7136 N 685.518 -0.931763 2.75257 0
M  V30 7137 H 685.065 -0.0551197 2.57541 0
M  V30 7138 H 685.023 -1.78405 2.58881 0
M  V30 7139 N 688.795 -1.27931 0.920396 0
M  V30 7140 C 689.742 -2.27085 0.412422 0
M  V30 7141 C 690.712 -1.57858 -0.516725 0
M  V30 7142 O 691.897 -1.85717 -0.437475 0
M  V30 7143 C 689.037 -3.43466 -0.335399 0
M  V30 7144 C 688.15 -4.27425 0.627017 0
M  V30 7145 C 687.285 -5.31016 -0.139916 0
M  V30 7146 C 686.324 -6.06641 0.815683 0
M  V30 7147 N 685.461 -7.02052 0.0818439 0
M  V30 7148 H 690.301 -2.69913 1.26298 0
M  V30 7149 H 687.838 -1.32732 0.634076 0
M  V30 7150 H 689.796 -4.09744 -0.785226 0
M  V30 7151 H 688.426 -3.01611 -1.15025 0
M  V30 7152 H 687.478 -3.6113 1.19537 0
M  V30 7153 H 688.79 -4.79969 1.35763 0
M  V30 7154 H 687.944 -6.03208 -0.649998 0
M  V30 7155 H 686.683 -4.79257 -0.903543 0
M  V30 7156 H 685.688 -5.33294 1.33708 0
M  V30 7157 H 686.913 -6.60489 1.57897 0
M  V30 7158 H 684.859 -6.52634 -0.663671 0
M  V30 7159 H 684.776 -7.52249 0.752163 0
M  V30 7160 H 686.044 -7.78432 -0.407825 0
M  V30 7161 N 690.273 -0.685099 -1.4193 0
M  V30 7162 C 691.221 -0.00165985 -2.326 0
M  V30 7163 C 692.215 0.779678 -1.50391 0
M  V30 7164 O 693.421 0.68648 -1.66395 0
M  V30 7165 H 689.796 0.0182616 -0.751778 0
M  V30 7166 H 691.767 -0.783592 -2.87928 0
M  V30 7167 C 690.516 0.928385 -3.35077 0
M  V30 7168 H 689.839 0.336578 -3.98381 0
M  V30 7169 H 691.279 1.37509 -4.01083 0
M  V30 7170 C 689.738 2.03964 -2.68142 0
M  V30 7171 O 690.268 3.12727 -2.5212 0
M  V30 7172 N 688.474 1.81433 -2.27003 0
M  V30 7173 H 688.021 0.929807 -2.40234 0
M  V30 7174 H 687.979 2.55973 -1.82552 0
M  V30 7175 N 691.751 1.51645 -0.429126 0
M  V30 7176 C 692.681 2.30434 0.377148 0
M  V30 7177 C 693.662 1.35493 1.02838 0
M  V30 7178 O 694.847 1.6441 1.03359 0
M  V30 7179 C 691.977 3.14038 1.48315 0
M  V30 7180 C 690.931 4.1719 0.955855 0
M  V30 7181 C 690.257 4.89263 2.15698 0
M  V30 7182 C 691.557 5.223 -0.00402136 0
M  V30 7183 H 693.251 2.98085 -0.280336 0
M  V30 7184 H 690.797 1.43354 -0.136265 0
M  V30 7185 H 692.75 3.67933 2.05435 0
M  V30 7186 H 691.474 2.44193 2.16881 0
M  V30 7187 H 690.133 3.64335 0.406929 0
M  V30 7188 H 689.781 4.15929 2.82864 0
M  V30 7189 H 689.481 5.59009 1.81059 0
M  V30 7190 H 691.005 5.45978 2.73387 0
M  V30 7191 H 692.419 5.71315 0.476607 0
M  V30 7192 H 690.816 5.99525 -0.26258 0
M  V30 7193 H 691.886 4.75638 -0.943236 0
M  V30 7194 N 693.229 0.160201 1.56784 0
M  V30 7195 C 694.469 -0.490179 1.98435 0
M  V30 7196 C 694.833 -1.61164 1.04355 0
M  V30 7197 O 696.034 -2.3238 1.35103 0
M  V30 7198 C 694.305 -0.971106 3.43954 0
M  V30 7199 S 695.864 -1.62423 4.07632 0
M  V30 7200 H 692.682 -0.158056 0.693209 0
M  V30 7201 H 695.284 0.255036 1.93829 0
M  V30 7202 H 693.988 -0.144323 4.10146 0
M  V30 7203 H 693.519 -1.75063 3.52302 0
M  V30 7204 H 695.534 -2.91199 4.01768 0
M  V30 7205 N 694.707 -1.5719 -0.113559 0
M  V30 7206 C 695.937 -1.89053 -0.833212 0
M  V30 7207 C 696.345 -0.750139 -1.73694 0
M  V30 7208 O 695.688 0.287808 -1.81431 0
M  V30 7209 C 695.75 -3.15986 -1.71443 0
M  V30 7210 C 695.414 -4.46271 -0.984449 0
M  V30 7211 C 696.411 -5.18897 -0.322741 0
M  V30 7212 C 694.096 -4.92963 -0.964011 0
M  V30 7213 C 696.09 -6.3644 0.349646 0
M  V30 7214 C 693.777 -6.10422 -0.287828 0
M  V30 7215 C 694.775 -6.82009 0.36784 0
M  V30 7216 O 694.463 -7.97233 1.03322 0
M  V30 7217 H 694.195 -0.630225 -0.244526 0
M  V30 7218 H 696.749 -2.05152 -0.100847 0
M  V30 7219 H 694.979 -2.95984 -2.48858 0
M  V30 7220 H 696.668 -3.33826 -2.309 0
M  V30 7221 H 697.434 -4.83875 -0.330114 0
M  V30 7222 H 693.313 -4.37143 -1.46379 0
M  V30 7223 H 696.857 -6.92254 0.861996 0
M  V30 7224 H 692.754 -6.449 -0.278237 0
M  V30 7225 H 693.522 -8.13105 0.938247 0
M  V30 7226 N 696.185 0.383891 -1.52853 0
M  V30 7227 C 697.148 1.45197 -1.77343 0
M  V30 7228 C 698.148 1.47362 -0.643522 0
M  V30 7229 O 699.338 1.48443 -0.911613 0
M  V30 7230 C 696.47 2.8445 -1.87885 0
M  V30 7231 H 697.663 1.24764 -2.72716 0
M  V30 7232 H 695.216 0.615939 -1.43652 0
M  V30 7233 H 695.951 3.10222 -0.94515 0
M  V30 7234 H 695.736 2.8428 -2.70051 0
M  V30 7235 H 697.226 3.61832 -2.08488 0
M  V30 7236 N 697.663 1.43903 0.642637 0
M  V30 7237 C 698.611 1.50164 1.77634 0
M  V30 7238 C 699.605 0.374294 1.65213 0
M  V30 7239 O 700.811 0.548748 1.71431 0
M  V30 7240 H 697.186 0.470974 0.586249 0
M  V30 7241 H 699.157 2.45603 1.69474 0
M  V30 7242 C 697.906 1.45196 3.15933 0
M  V30 7243 H 697.229 2.31253 3.26132 0
M  V30 7244 H 698.669 1.53638 3.95185 0
M  V30 7245 C 697.128 0.171043 3.36466 0
M  V30 7246 O 697.658 -0.763413 3.94379 0
M  V30 7247 N 695.864 0.077847 2.90496 0
M  V30 7248 H 695.411 0.8391 2.43551 0
M  V30 7249 H 695.369 -0.778473 3.0461 0
M  V30 7250 N 699.141 -0.881989 1.30609 0
M  V30 7251 C 700.369 -1.66711 1.22536 0
M  V30 7252 C 700.784 -1.87614 -0.2113 0
M  V30 7253 O 700.141 -1.42576 -1.13923 0
M  V30 7254 C 700.192 -3.04182 1.95335 0
M  V30 7255 O 699.913 -2.8422 3.33393 0
M  V30 7256 C 701.414 -3.98617 1.93956 0
M  V30 7257 H 698.634 -0.520124 0.423925 0
M  V30 7258 H 701.178 -1.10174 1.72285 0
M  V30 7259 H 699.333 -3.57442 1.49378 0
M  V30 7260 H 699.747 -3.71452 3.70302 0
M  V30 7261 H 701.221 -4.92433 2.49426 0
M  V30 7262 H 701.698 -4.29473 0.919198 0
M  V30 7263 H 702.304 -3.51292 2.39738 0
M  V30 7264 N 700.619 -1.13374 -1.09472 0
M  V30 7265 C 701.868 -0.889844 -1.8101 0
M  V30 7266 C 702.181 0.585686 -1.86625 0
M  V30 7267 O 703.387 0.946497 -2.54467 0
M  V30 7268 C 701.843 -1.54241 -3.25174 0
M  V30 7269 C 701.451 -3.05343 -3.27826 0
M  V30 7270 C 703.195 -1.37919 -4.0147 0
M  V30 7271 C 701.102 -3.63486 -4.6651 0
M  V30 7272 H 700.032 -0.329256 -0.678311 0
M  V30 7273 H 702.683 -1.36139 -1.23038 0
M  V30 7274 H 701.065 -0.998525 -3.83204 0
M  V30 7275 H 702.239 -3.66307 -2.79563 0
M  V30 7276 H 700.554 -3.21175 -2.65019 0
M  V30 7277 H 703.151 -1.78771 -5.03929 0
M  V30 7278 H 703.494 -0.323987 -4.15037 0
M  V30 7279 H 704.027 -1.89284 -3.49881 0
M  V30 7280 H 700.766 -4.68811 -4.58145 0
M  V30 7281 H 700.286 -3.073 -5.15099 0
M  V30 7282 H 701.965 -3.63134 -5.35484 0
M  V30 7283 N 702.098 1.27442 -0.927168 0
M  V30 7284 C 703.046 2.28844 -0.416333 0
M  V30 7285 C 704.04 1.61882 0.499057 0
M  V30 7286 O 705.246 1.75969 0.378817 0
M  V30 7287 H 701.621 0.742989 -0.116065 0
M  V30 7288 H 703.592 2.69344 -1.28438 0
M  V30 7289 C 702.341 3.4626 0.316107 0
M  V30 7290 H 701.664 3.97999 -0.379082 0
M  V30 7291 H 703.104 4.19173 0.637975 0
M  V30 7292 C 701.563 3.00211 1.5289 0
M  V30 7293 O 702.093 3.03837 2.62766 0
M  V30 7294 N 700.299 2.55713 1.38054 0
M  V30 7295 H 699.846 2.52962 0.4866 0
M  V30 7296 H 699.804 2.25264 2.19325 0
M  V30 7297 N 703.576 0.692616 1.41565 0
M  V30 7298 C 704.822 0.231408 2.02079 0
M  V30 7299 C 705.177 -1.15514 1.53864 0
M  V30 7300 O 704.47 -1.76786 0.73873 0
M  V30 7301 C 704.664 0.225073 3.56691 0
M  V30 7302 C 704.493 1.60947 4.19912 0
M  V30 7303 C 703.263 2.2116 4.54331 0
M  V30 7304 C 705.461 2.55553 4.46315 0
M  V30 7305 N 703.443 3.52195 5.02824 0
M  V30 7306 C 704.814 3.71263 4.96552 0
M  V30 7307 C 706.869 2.53857 4.28323 0
M  V30 7308 C 705.572 4.85555 5.30687 0
M  V30 7309 C 707.598 3.67259 4.63546 0
M  V30 7310 C 706.96 4.81699 5.13951 0
M  V30 7311 H 703.059 0.130001 0.771119 0
M  V30 7312 H 705.643 0.909459 1.72154 0
M  V30 7313 H 703.814 -0.422453 3.86096 0
M  V30 7314 H 705.546 -0.250685 4.03923 0
M  V30 7315 H 702.301 1.73474 4.40685 0
M  V30 7316 H 702.725 4.19354 5.3148 0
M  V30 7317 H 707.367 1.66598 3.88594 0
M  V30 7318 H 705.085 5.73477 5.69341 0
M  V30 7319 H 708.671 3.67195 4.51286 0
M  V30 7320 H 707.551 5.67995 5.40695 0
M  V30 7321 N 705.054 -1.51416 0.437162 0
M  V30 7322 C 706.001 -2.27743 -0.374374 0
M  V30 7323 C 706.971 -1.31327 -1.01698 0
M  V30 7324 O 708.156 -1.60229 -1.03592 0
M  V30 7325 C 705.296 -3.12241 -1.46969 0
M  V30 7326 C 704.409 -4.23651 -0.845236 0
M  V30 7327 C 703.544 -4.95458 -1.91559 0
M  V30 7328 C 702.583 -5.98789 -1.26956 0
M  V30 7329 N 701.72 -6.64005 -2.28126 0
M  V30 7330 H 706.56 -2.96654 0.282892 0
M  V30 7331 H 704.097 -1.46319 0.151352 0
M  V30 7332 H 706.055 -3.59556 -2.11602 0
M  V30 7333 H 704.685 -2.45445 -2.09659 0
M  V30 7334 H 703.737 -3.803 -0.0872059 0
M  V30 7335 H 705.049 -4.97683 -0.333582 0
M  V30 7336 H 704.203 -5.46321 -2.63854 0
M  V30 7337 H 702.942 -4.21055 -2.46097 0
M  V30 7338 H 701.947 -5.47219 -0.53207 0
M  V30 7339 H 703.172 -6.75149 -0.731509 0
M  V30 7340 H 701.118 -5.92415 -2.81745 0
M  V30 7341 H 701.035 -7.33802 -1.81852 0
M  V30 7342 H 702.303 -7.19498 -2.99905 0
M  V30 7343 N 706.532 -0.168513 -1.56696 0
M  V30 7344 C 707.479 0.762875 -2.17828 0
M  V30 7345 C 708.449 1.22892 -1.11745 0
M  V30 7346 O 709.634 1.29759 -1.39883 0
M  V30 7347 C 706.774 1.9879 -2.82093 0
M  V30 7348 C 705.887 1.56568 -4.02629 0
M  V30 7349 C 705.022 2.74416 -4.54829 0
M  V30 7350 C 704.061 2.28671 -5.67782 0
M  V30 7351 N 703.198 3.39602 -6.14504 0
M  V30 7352 H 708.038 0.23479 -2.97074 0
M  V30 7353 H 705.575 0.104163 -1.46731 0
M  V30 7354 H 707.533 2.70636 -3.17509 0
M  V30 7355 H 706.163 2.48973 -2.05456 0
M  V30 7356 H 705.215 0.744067 -3.73052 0
M  V30 7357 H 706.527 1.18988 -4.844 0
M  V30 7358 H 705.681 3.54423 -4.92412 0
M  V30 7359 H 704.42 3.15254 -3.7211 0
M  V30 7360 H 703.425 1.4711 -5.29753 0
M  V30 7361 H 704.65 1.88894 -6.52301 0
M  V30 7362 H 702.596 3.80021 -5.34715 0
M  V30 7363 H 702.513 3.06105 -6.91257 0
M  V30 7364 H 703.781 4.19902 -6.56737 0
M  V30 7365 N 708.01 1.57248 0.105221 0
M  V30 7366 C 708.94 2.04374 1.12931 0
M  V30 7367 C 709.921 0.93074 1.42377 0
M  V30 7368 O 711.106 1.20136 1.52581 0
M  V30 7369 C 708.236 2.45967 2.45189 0
M  V30 7370 C 707.19 3.60838 2.30174 0
M  V30 7371 C 706.516 3.88374 3.67518 0
M  V30 7372 C 707.816 4.92084 1.75073 0
M  V30 7373 H 709.51 2.9018 0.737287 0
M  V30 7374 H 707.056 1.39601 0.353211 0
M  V30 7375 H 709.009 2.77542 3.17094 0
M  V30 7376 H 707.733 1.57148 2.86308 0
M  V30 7377 H 706.392 3.29493 1.60716 0
M  V30 7378 H 706.04 2.96739 4.06147 0
M  V30 7379 H 705.74 4.65703 3.58321 0
M  V30 7380 H 707.264 4.22415 4.40906 0
M  V30 7381 H 708.678 5.22106 2.36809 0
M  V30 7382 H 707.075 5.73507 1.76662 0
M  V30 7383 H 708.145 4.79684 0.709347 0
M  V30 7384 N 709.488 -0.375779 1.53054 0
M  V30 7385 C 710.735 -1.11948 1.68742 0
M  V30 7386 C 711.063 -1.89596 0.434015 0
M  V30 7387 O 710.318 -1.86787 -0.583867 0
M  V30 7388 C 710.617 -2.11356 2.88207 0
M  V30 7389 C 710.283 -1.50266 4.25124 0
M  V30 7390 C 708.945 -1.33333 4.62359 0
M  V30 7391 C 711.297 -1.05976 5.10312 0
M  V30 7392 C 708.625 -0.706765 5.82427 0
M  V30 7393 C 710.977 -0.447241 6.31017 0
M  V30 7394 C 709.641 -0.265314 6.66973 0
M  V30 7395 H 708.911 -0.409648 0.61747 0
M  V30 7396 H 711.558 -0.402492 1.87222 0
M  V30 7397 H 709.863 -2.89322 2.64197 0
M  V30 7398 H 711.56 -2.68833 2.97539 0
M  V30 7399 H 708.15 -1.64437 3.95801 0
M  V30 7400 H 712.334 -1.17855 4.82104 0
M  V30 7401 H 707.59 -0.554132 6.08884 0
M  V30 7402 H 711.764 -0.0958064 6.96334 0
M  V30 7403 H 709.391 0.222267 7.59875 0
M  V30 7404 N 710.966 -1.44241 -0.634997 0
M  V30 7405 C 712.214 -1.46531 -1.39187 0
M  V30 7406 C 712.535 -0.0976441 -1.94755 0
M  V30 7407 O 711.805 0.869528 -1.75545 0
M  V30 7408 H 710.385 -0.539544 -0.516625 0
M  V30 7409 H 713.047 -1.79989 -0.747655 0
M  V30 7410 H 712.143 -2.18848 -2.22513 0
M  V30 7411 N 712.444 0.87505 -1.31075 0
M  V30 7412 C 713.672 1.66058 -1.23419 0
M  V30 7413 C 714.087 1.87723 0.201347 0
M  V30 7414 O 713.444 1.43178 1.13165 0
M  V30 7415 C 713.495 3.03142 -1.96945 0
M  V30 7416 O 713.216 2.82448 -3.34895 0
M  V30 7417 C 714.717 3.97583 -1.96067 0
M  V30 7418 H 711.937 0.517868 -0.426677 0
M  V30 7419 H 714.481 1.09258 -1.72867 0
M  V30 7420 H 712.636 3.56645 -1.51271 0
M  V30 7421 H 713.05 3.69483 -3.72267 0
M  V30 7422 H 714.524 4.91104 -2.52034 0
M  V30 7423 H 715.001 4.2898 -0.941961 0
M  V30 7424 H 715.607 3.50015 -2.41597 0
M  V30 7425 N 713.922 1.13953 1.08869 0
M  V30 7426 C 715.147 0.928559 1.85452 0
M  V30 7427 C 715.572 -0.517642 1.80837 0
M  V30 7428 O 714.93 -1.36779 1.19001 0
M  V30 7429 C 714.978 1.42814 3.31114 0
M  V30 7430 O 714.082 0.617129 4.07756 0
M  V30 7431 H 713.423 0.33235 0.574839 0
M  V30 7432 H 715.953 1.5156 1.37443 0
M  V30 7433 H 715.963 1.43425 3.8196 0
M  V30 7434 H 714.638 2.48109 3.33788 0
M  V30 7435 H 713.215 0.679365 3.66659 0
M  V30 7436 N 715.4 -1.26948 0.933913 0
M  V30 7437 C 716.648 -1.93704 0.576484 0
M  V30 7438 C 716.969 -1.73702 -0.886145 0
M  V30 7439 O 716.239 -1.08838 -1.62884 0
M  V30 7440 H 714.819 -0.716812 0.210214 0
M  V30 7441 H 717.481 -1.54534 1.18766 0
M  V30 7442 H 716.577 -3.01987 0.788055 0
M  V30 7443 N 716.879 -0.700114 -1.41195 0
M  V30 7444 C 717.811 0.00155823 -2.292 0
M  V30 7445 C 718.824 0.739736 -1.45023 0
M  V30 7446 O 720.013 0.589684 -1.68478 0
M  V30 7447 C 717.113 1.02635 -3.22985 0
M  V30 7448 C 716.286 0.356871 -4.35942 0
M  V30 7449 C 715.345 1.28491 -5.10271 0
M  V30 7450 O 714.371 0.775562 -5.63892 0
M  V30 7451 N 715.573 2.61699 -5.18164 0
M  V30 7452 H 718.338 -0.754008 -2.9006 0
M  V30 7453 H 715.899 -0.546504 -1.52397 0
M  V30 7454 H 717.891 1.64902 -3.6958 0
M  V30 7455 H 716.461 1.68341 -2.63401 0
M  V30 7456 H 715.681 -0.445753 -3.91672 0
M  V30 7457 H 716.969 -0.108469 -5.08684 0
M  V30 7458 H 716.367 3.05594 -4.76056 0
M  V30 7459 H 714.924 3.19149 -5.6832 0
M  V30 7460 N 718.357 1.51182 -0.445186 0
M  V30 7461 C 719.304 2.27939 0.362291 0
M  V30 7462 C 720.274 1.31864 1.01 0
M  V30 7463 O 721.459 1.60776 1.02741 0
M  V30 7464 C 718.599 3.13016 1.45311 0
M  V30 7465 C 717.712 4.24093 0.822757 0
M  V30 7466 C 716.847 4.96467 1.88928 0
M  V30 7467 C 715.886 5.99454 1.23778 0
M  V30 7468 N 715.023 6.65206 2.24602 0
M  V30 7469 H 719.863 2.965 -0.29862 0
M  V30 7470 H 717.4 1.46237 -0.15911 0
M  V30 7471 H 719.358 3.60673 2.09692 0
M  V30 7472 H 717.988 2.46553 2.08354 0
M  V30 7473 H 717.04 3.80341 0.0670364 0
M  V30 7474 H 718.352 4.97853 0.307184 0
M  V30 7475 H 717.506 5.47712 2.60953 0
M  V30 7476 H 716.245 4.22355 2.4386 0
M  V30 7477 H 715.25 5.47494 0.503042 0
M  V30 7478 H 716.475 6.75527 0.695694 0
M  V30 7479 H 714.421 5.93901 2.78599 0
M  V30 7480 H 714.338 7.34756 1.77958 0
M  V30 7481 H 715.606 7.21078 2.96085 0
M  V30 7482 N 719.835 0.176821 1.56605 0
M  V30 7483 C 721.063 -0.472828 2.01425 0
M  V30 7484 C 721.478 -1.56436 1.05703 0
M  V30 7485 O 720.835 -1.82405 0.058808 0
M  V30 7486 C 720.886 -1.04607 3.46034 0
M  V30 7487 O 720.607 0.00189608 4.381 0
M  V30 7488 C 722.108 -1.7734 4.06282 0
M  V30 7489 H 719.328 -0.120503 0.660091 0
M  V30 7490 H 721.872 0.280166 2.02572 0
M  V30 7491 H 720.027 -1.74953 3.45645 0
M  V30 7492 H 720.441 -0.422118 5.22799 0
M  V30 7493 H 721.915 -2.12703 5.09374 0
M  V30 7494 H 722.392 -2.67043 3.4869 0
M  V30 7495 H 722.998 -1.11623 4.10391 0
M  V30 7496 N 721.313 -1.57302 -0.09688 0
M  V30 7497 C 722.26 -2.01933 -1.11766 0
M  V30 7498 C 723.23 -0.895329 -1.39904 0
M  V30 7499 O 724.415 -1.16119 -1.51397 0
M  V30 7500 C 721.555 -2.44726 -2.43317 0
M  V30 7501 C 720.668 -3.70639 -2.21925 0
M  V30 7502 C 719.803 -4.02318 -3.46862 0
M  V30 7503 C 718.842 -5.21346 -3.20725 0
M  V30 7504 N 717.979 -5.48787 -4.37924 0
M  V30 7505 H 722.819 -2.88919 -0.730075 0
M  V30 7506 H 720.356 -1.42901 -0.348962 0
M  V30 7507 H 722.314 -2.6758 -3.20088 0
M  V30 7508 H 720.944 -1.60753 -2.79926 0
M  V30 7509 H 719.996 -3.55271 -1.35965 0
M  V30 7510 H 721.308 -4.57557 -1.98603 0
M  V30 7511 H 720.462 -4.25939 -4.32042 0
M  V30 7512 H 719.201 -3.13918 -3.73238 0
M  V30 7513 H 718.206 -4.97547 -2.33938 0
M  V30 7514 H 719.431 -6.11343 -2.95697 0
M  V30 7515 H 717.377 -4.63346 -4.64378 0
M  V30 7516 H 717.294 -6.30073 -4.17785 0
M  V30 7517 H 718.562 -5.76943 -5.24173 0
M  V30 7518 N 722.791 0.367657 -1.53252 0
M  V30 7519 C 724.04 1.10782 -1.68554 0
M  V30 7520 C 724.353 1.90523 -0.442765 0
M  V30 7521 O 725.559 2.6729 -0.47629 0
M  V30 7522 C 724.015 2.01863 -2.97959 0
M  V30 7523 C 723.623 1.27443 -4.29491 0
M  V30 7524 C 725.367 2.75883 -3.22628 0
M  V30 7525 C 723.274 2.17414 -5.49987 0
M  V30 7526 H 722.204 0.417272 -0.628013 0
M  V30 7527 H 724.855 0.368971 -1.79752 0
M  V30 7528 H 723.237 2.7947 -2.80558 0
M  V30 7529 H 724.411 0.549138 -4.57516 0
M  V30 7530 H 722.726 0.652935 -4.11249 0
M  V30 7531 H 725.323 3.43421 -4.09837 0
M  V30 7532 H 725.666 3.41138 -2.38601 0
M  V30 7533 H 726.199 2.0536 -3.40693 0
M  V30 7534 H 722.938 1.5674 -6.36485 0
M  V30 7535 H 722.458 2.87799 -5.26243 0
M  V30 7536 H 724.137 2.77019 -5.84696 0
M  V30 7537 N 724.269 1.44576 0.627338 0
M  V30 7538 C 725.518 1.46837 1.38281 0
M  V30 7539 C 725.831 0.10635 1.95311 0
M  V30 7540 O 727.037 0.00651084 2.71499 0
M  V30 7541 C 725.493 2.58527 2.50384 0
M  V30 7542 C 725.101 4.00953 1.99851 0
M  V30 7543 C 726.845 2.70013 3.27557 0
M  V30 7544 C 724.752 5.0406 3.09318 0
M  V30 7545 H 723.682 0.546319 0.519664 0
M  V30 7546 H 726.333 1.70654 0.674497 0
M  V30 7547 H 724.715 2.27957 3.23808 0
M  V30 7548 H 725.889 4.41108 1.33267 0
M  V30 7549 H 724.204 3.93743 1.35482 0
M  V30 7550 H 726.801 3.44217 4.09168 0
M  V30 7551 H 727.144 1.75961 3.77284 0
M  V30 7552 H 727.677 3.00011 2.61224 0
M  V30 7553 H 724.416 5.99753 2.6453 0
M  V30 7554 H 723.936 4.68493 3.74532 0
M  V30 7555 H 725.615 5.2793 3.74031 0
M  V30 7556 N 725.747 -0.868086 1.31537 0
M  V30 7557 C 726.972 -1.65926 1.24432 0
M  V30 7558 C 727.397 -1.87169 -0.186936 0
M  V30 7559 O 726.755 -1.4148 -1.13371 0
M  V30 7560 C 726.803 -3.00347 1.9956 0
M  V30 7561 O 725.907 -3.90221 1.33422 0
M  V30 7562 H 725.248 -0.506375 0.429512 0
M  V30 7563 H 727.778 -1.0822 1.73637 0
M  V30 7564 H 727.788 -3.50269 2.09226 0
M  V30 7565 H 726.463 -2.84205 3.03645 0
M  V30 7566 H 725.04 -3.48672 1.32219 0
M  V30 7567 N 727.225 -1.14528 -1.08264 0
M  V30 7568 C 728.173 -0.829201 -2.17318 0
M  V30 7569 C 729.167 0.193521 -1.68291 0
M  V30 7570 O 730.373 0.0494744 -1.79932 0
M  V30 7571 H 726.748 -0.250435 -0.709074 0
M  V30 7572 H 728.719 -1.75683 -2.41201 0
M  V30 7573 C 727.468 -0.324663 -3.46181 0
M  V30 7574 H 726.791 -1.10299 -3.84284 0
M  V30 7575 H 728.231 -0.142059 -4.23762 0
M  V30 7576 C 726.69 0.952033 -3.23169 0
M  V30 7577 O 727.22 2.02549 -3.46896 0
M  V30 7578 N 725.426 0.887854 -2.76705 0
M  V30 7579 H 724.973 0.0141402 -2.57596 0
M  V30 7580 H 724.931 1.74263 -2.61686 0
M  V30 7581 N 728.703 1.26451 -0.940633 0
M  V30 7582 C 730.119 1.4608 -0.642859 0
M  V30 7583 C 730.319 1.84765 0.803998 0
M  V30 7584 O 729.375 1.96902 1.58069 0
M  V30 7585 C 730.688 2.54359 -1.60381 0
M  V30 7586 C 732.236 2.6821 -1.61345 0
M  V30 7587 C 732.711 3.79659 -2.56169 0
M  V30 7588 N 734.202 3.87051 -2.54452 0
M  V30 7589 C 734.937 4.72739 -3.24507 0
M  V30 7590 N 734.433 5.6282 -4.03987 0
M  V30 7591 N 736.226 4.66581 -3.13462 0
M  V30 7592 H 728.377 0.996289 -1.87584 0
M  V30 7593 H 730.64 0.498921 -0.80609 0
M  V30 7594 H 730.346 2.32758 -2.6366 0
M  V30 7595 H 730.22 3.52005 -1.35545 0
M  V30 7596 H 732.607 2.89184 -0.587913 0
M  V30 7597 H 732.688 1.7101 -1.90235 0
M  V30 7598 H 732.332 3.59438 -3.58841 0
M  V30 7599 H 732.262 4.76315 -2.2457 0
M  V30 7600 H 734.753 3.22649 -1.96739 0
M  V30 7601 H 735.066 6.25095 -4.54396 0
M  V30 7602 H 733.411 5.62574 -4.08088 0
M  V30 7603 H 736.602 3.9521 -2.50852 0
M  V30 7604 H 736.775 5.33141 -3.68327 0
M  V30 7605 N 730.181 0.707592 1.40822 0
M  V30 7606 C 731.429 0.243189 2.00632 0
M  V30 7607 C 731.75 -1.16512 1.56365 0
M  V30 7608 O 731.02 -1.78841 0.799553 0
M  V30 7609 H 729.6 0.0869203 0.741926 0
M  V30 7610 H 732.262 0.911438 1.72275 0
M  V30 7611 H 731.358 0.270014 3.1093 0
M  V30 7612 N 731.66 -1.50943 0.453197 0
M  V30 7613 C 732.57 -2.31884 -0.355963 0
M  V30 7614 C 733.586 -1.41481 -1.01287 0
M  V30 7615 O 734.762 -1.74546 -1.00477 0
M  V30 7616 C 731.827 -3.15668 -1.43369 0
M  V30 7617 C 730.888 -4.2187 -0.795253 0
M  V30 7618 C 730.121 -5.0165 -1.82162 0
M  V30 7619 O 730.344 -4.82266 -3.04592 0
M  V30 7620 O 729.278 -5.85311 -1.40336 0
M  V30 7621 H 733.104 -3.02162 0.305248 0
M  V30 7622 H 730.689 -1.47839 0.215398 0
M  V30 7623 H 732.571 -3.67709 -2.05836 0
M  V30 7624 H 731.246 -2.48137 -2.07869 0
M  V30 7625 H 730.153 -3.73867 -0.132106 0
M  V30 7626 H 731.486 -4.9182 -0.193484 0
M  V30 7627 N 733.138 -0.185124 -1.56509 0
M  V30 7628 C 734.086 0.756505 -2.19954 0
M  V30 7629 C 735.08 1.22725 -1.16769 0
M  V30 7630 O 736.286 1.1913 -1.34937 0
M  V30 7631 H 732.661 0.262279 -0.704779 0
M  V30 7632 H 734.632 0.197587 -2.97745 0
M  V30 7633 C 733.381 1.96975 -2.86524 0
M  V30 7634 H 732.704 1.61658 -3.65659 0
M  V30 7635 H 734.144 2.60719 -3.34367 0
M  V30 7636 C 732.603 2.80219 -1.87027 0
M  V30 7637 O 733.133 3.77821 -1.36433 0
M  V30 7638 N 731.339 2.4551 -1.55477 0
M  V30 7639 H 730.886 1.66199 -1.96813 0
M  V30 7640 H 730.844 3.01493 -0.891597 0
M  V30 7641 N 734.616 1.57351 0.0885366 0
M  V30 7642 C 735.841 1.91011 0.80805 0
M  V30 7643 C 736.266 0.780009 1.71165 0
M  V30 7644 O 735.624 -0.268083 1.79307 0
M  V30 7645 C 735.672 3.23562 1.59185 0
M  V30 7646 O 734.776 3.11615 2.7013 0
M  V30 7647 H 734.117 0.625943 0.221565 0
M  V30 7648 H 736.647 2.04507 0.0617954 0
M  V30 7649 H 736.657 3.5703 1.97468 0
M  V30 7650 H 735.332 4.05398 0.928741 0
M  V30 7651 H 733.909 2.89673 2.34827 0
M  V30 7652 N 736.094 -0.359525 1.53444 0
M  V30 7653 C 737.334 -1.11014 1.71625 0
M  V30 7654 C 737.698 -1.86376 0.46132 0
M  V30 7655 O 738.899 -2.63724 0.519908 0
M  V30 7656 C 737.17 -2.03907 2.93524 0
M  V30 7657 S 738.729 -2.86408 3.3244 0
M  V30 7658 H 735.547 -0.375352 0.603847 0
M  V30 7659 H 738.149 -0.390604 1.91558 0
M  V30 7660 H 736.853 -1.47316 3.83048 0
M  V30 7661 H 736.384 -2.80324 2.76011 0
M  V30 7662 H 738.399 -4.06241 2.84926 0
M  V30 7663 N 737.572 -1.44907 -0.619662 0
M  V30 7664 C 738.519 -1.52654 -1.73105 0
M  V30 7665 C 739.489 -0.373334 -1.6185 0
M  V30 7666 O 740.674 -0.585143 -1.81606 0
M  V30 7667 C 737.814 -1.48769 -3.11387 0
M  V30 7668 C 736.927 -2.74551 -3.33535 0
M  V30 7669 C 736.062 -2.62421 -4.61854 0
M  V30 7670 C 735.101 -3.83312 -4.77219 0
M  V30 7671 N 734.238 -3.69789 -5.96826 0
M  V30 7672 H 739.078 -2.47605 -1.65819 0
M  V30 7673 H 736.615 -1.22875 -0.808719 0
M  V30 7674 H 738.573 -1.44507 -3.91374 0
M  V30 7675 H 737.203 -0.573783 -3.1766 0
M  V30 7676 H 736.255 -2.88953 -2.47408 0
M  V30 7677 H 737.567 -3.64253 -3.40765 0
M  V30 7678 H 736.721 -2.56056 -5.50019 0
M  V30 7679 H 735.46 -1.70298 -4.57001 0
M  V30 7680 H 734.465 -3.90049 -3.87481 0
M  V30 7681 H 735.69 -4.76486 -4.83878 0
M  V30 7682 H 733.636 -2.80426 -5.93041 0
M  V30 7683 H 733.553 -4.53116 -6.05163 0
M  V30 7684 H 734.821 -3.67335 -6.87521 0
M  V30 7685 N 739.05 0.861098 -1.31996 0
M  V30 7686 C 740.013 1.95068 -1.20338 0
M  V30 7687 C 741.013 1.60289 -0.128114 0
M  V30 7688 O 742.203 1.70048 -0.378044 0
M  V30 7689 C 739.335 3.30153 -0.849205 0
M  V30 7690 H 740.528 2.06833 -2.17164 0
M  V30 7691 H 738.081 1.05049 -1.15734 0
M  V30 7692 H 738.816 3.24087 0.117508 0
M  V30 7693 H 738.601 3.56771 -1.62655 0
M  V30 7694 H 740.091 4.10025 -0.791782 0
M  V30 7695 N 740.528 1.15101 1.07655 0
M  V30 7696 C 741.756 0.947731 1.83918 0
M  V30 7697 C 742.171 -0.503927 1.81951 0
M  V30 7698 O 741.528 -1.34941 1.2287 0
M  V30 7699 C 741.579 1.4503 3.31132 0
M  V30 7700 O 741.3 2.84508 3.33146 0
M  V30 7701 C 742.801 1.28806 4.24174 0
M  V30 7702 H 740.021 0.336786 0.580358 0
M  V30 7703 H 742.565 1.52799 1.35914 0
M  V30 7704 H 740.72 0.912632 3.76497 0
M  V30 7705 H 741.134 3.0723 4.251 0
M  V30 7706 H 742.608 1.6882 5.25551 0
M  V30 7707 H 743.085 0.231851 4.38588 0
M  V30 7708 H 743.691 1.81465 3.84643 0
M  V30 7709 N 742.006 -1.2595 0.947325 0
M  V30 7710 C 743.254 -1.93081 0.596996 0
M  V30 7711 C 743.575 -1.74632 -0.867672 0
M  V30 7712 O 742.845 -1.1056 -1.6172 0
M  V30 7713 H 741.425 -0.714542 0.217805 0
M  V30 7714 H 744.087 -1.53265 1.20398 0
M  V30 7715 H 743.183 -3.01134 0.82004 0
M  V30 7716 N 743.484 -0.715051 -1.40445 0
M  V30 7717 C 744.416 -0.0227516 -2.29189 0
M  V30 7718 C 745.429 0.724313 -1.458 0
M  V30 7719 O 746.618 0.571781 -1.69094 0
M  V30 7720 C 743.718 0.992038 -3.24055 0
M  V30 7721 C 742.891 0.310613 -4.36296 0
M  V30 7722 C 741.95 1.23071 -5.11605 0
M  V30 7723 O 740.976 0.71571 -5.64682 0
M  V30 7724 N 742.178 2.56188 -5.2091 0
M  V30 7725 H 744.943 -0.78473 -2.89244 0
M  V30 7726 H 742.504 -0.562637 -1.51809 0
M  V30 7727 H 744.496 1.60973 -3.71308 0
M  V30 7728 H 743.066 1.65538 -2.65171 0
M  V30 7729 H 742.286 -0.487269 -3.91177 0
M  V30 7730 H 743.574 -0.162415 -5.08541 0
M  V30 7731 H 742.972 3.00527 -4.7927 0
M  V30 7732 H 741.529 3.13103 -5.71673 0
M  V30 7733 N 744.962 1.50701 -0.461195 0
M  V30 7734 C 746.208 2.02566 0.0973411 0
M  V30 7735 C 746.541 1.3432 1.40257 0
M  V30 7736 O 745.816 0.465692 1.88843 0
M  V30 7737 C 746.099 3.58919 0.291423 0
M  V30 7738 C 745.952 4.37751 -1.03413 0
M  V30 7739 C 747.271 4.27379 1.05048 0
M  V30 7740 H 744.39 0.73622 0.0339026 0
M  V30 7741 H 747.032 1.80115 -0.604855 0
M  V30 7742 H 745.182 3.78179 0.889539 0
M  V30 7743 H 746.854 4.30085 -1.66806 0
M  V30 7744 H 745.097 4.01885 -1.63313 0
M  V30 7745 H 745.768 5.45384 -0.852085 0
M  V30 7746 H 748.244 4.12534 0.543603 0
M  V30 7747 H 747.12 5.36609 1.15506 0
M  V30 7748 H 747.381 3.89868 2.0846 0
M  V30 7749 N 746.441 0.193421 1.56409 0
M  V30 7750 C 747.681 -0.447977 1.9943 0
M  V30 7751 C 748.045 -1.58915 1.07751 0
M  V30 7752 O 749.246 -2.29462 1.40002 0
M  V30 7753 C 747.517 -0.89793 3.45936 0
M  V30 7754 S 749.076 -1.5374 4.10986 0
M  V30 7755 H 745.894 -0.143316 0.696406 0
M  V30 7756 H 748.496 0.296093 1.93245 0
M  V30 7757 H 747.2 -0.0572927 4.1036 0
M  V30 7758 H 746.731 -1.67551 3.55936 0
M  V30 7759 H 748.746 -2.82612 4.07854 0
M  V30 7760 N 747.919 -1.57396 -0.0801906 0
M  V30 7761 C 748.869 -1.9955 -1.10289 0
M  V30 7762 C 749.853 -0.876234 -1.34948 0
M  V30 7763 O 751.045 -1.14012 -1.35389 0
M  V30 7764 C 748.174 -2.43596 -2.419 0
M  V30 7765 C 747.26 -3.6224 -2.20551 0
M  V30 7766 N 747.651 -4.76693 -1.69109 0
M  V30 7767 C 745.949 -3.68627 -2.51059 0
M  V30 7768 C 746.65 -5.58577 -1.62379 0
M  V30 7769 N 745.626 -5.02178 -2.0813 0
M  V30 7770 H 749.428 -2.85483 -0.698335 0
M  V30 7771 H 746.942 -1.59837 -0.287395 0
M  V30 7772 H 748.939 -2.72031 -3.15919 0
M  V30 7773 H 747.599 -1.59047 -2.8308 0
M  V30 7774 H 748.61 -4.9915 -1.38092 0
M  V30 7775 H 745.287 -2.94772 -2.95661 0
M  V30 7776 H 746.677 -6.60447 -1.2353 0
M  V30 7777 N 749.397 0.351382 -1.53633 0
M  V30 7778 C 750.36 1.41403 -1.80383 0
M  V30 7779 C 751.36 1.45963 -0.674635 0
M  V30 7780 O 752.55 1.46476 -0.942895 0
M  V30 7781 C 749.682 2.80401 -1.93876 0
M  V30 7782 H 750.875 1.18951 -2.75301 0
M  V30 7783 H 748.428 0.58533 -1.44926 0
M  V30 7784 H 749.163 3.08147 -1.01074 0
M  V30 7785 H 748.948 2.78488 -2.7602 0
M  V30 7786 H 750.438 3.57329 -2.16116 0
M  V30 7787 N 750.875 1.45233 0.611969 0
M  V30 7788 C 751.805 1.5641 1.73373 0
M  V30 7789 C 752.786 0.415896 1.64937 0
M  V30 7790 O 753.971 0.638478 1.83404 0
M  V30 7791 C 751.101 1.52627 3.11965 0
M  V30 7792 C 750.055 2.66119 3.35208 0
M  V30 7793 C 749.381 2.4739 4.74028 0
M  V30 7794 C 750.681 4.08157 3.25891 0
M  V30 7795 H 752.375 2.50307 1.64277 0
M  V30 7796 H 749.921 1.20467 0.788904 0
M  V30 7797 H 751.874 1.59043 3.90235 0
M  V30 7798 H 750.598 0.552564 3.21892 0
M  V30 7799 H 749.257 2.59123 2.59327 0
M  V30 7800 H 748.905 1.48168 4.80682 0
M  V30 7801 H 748.605 3.23494 4.90536 0
M  V30 7802 H 750.129 2.55653 5.54503 0
M  V30 7803 H 751.543 4.1642 3.9404 0
M  V30 7804 H 749.94 4.84617 3.5393 0
M  V30 7805 H 751.01 4.30374 2.23397 0
M  V30 7806 N 752.353 -0.854086 1.3245 0
M  V30 7807 C 753.593 -1.62216 1.2436 0
M  V30 7808 C 753.957 -1.91042 -0.191564 0
M  V30 7809 O 755.158 -2.65864 -0.396211 0
M  V30 7810 C 753.429 -2.9066 2.0797 0
M  V30 7811 S 754.988 -3.81438 2.16911 0
M  V30 7812 H 751.806 -0.556386 0.442669 0
M  V30 7813 H 754.408 -1.01139 1.67305 0
M  V30 7814 H 753.112 -2.6743 3.11302 0
M  V30 7815 H 752.643 -3.56753 1.65805 0
M  V30 7816 H 754.658 -4.78347 1.31903 0
M  V30 7817 N 753.831 -1.1567 -1.07043 0
M  V30 7818 C 755.056 -0.957946 -1.83952 0
M  V30 7819 C 755.481 0.488807 -1.81638 0
M  V30 7820 O 754.839 1.34869 -1.21162 0
M  V30 7821 C 754.887 -1.48064 -3.288 0
M  V30 7822 O 753.991 -0.681921 -4.06723 0
M  V30 7823 H 753.332 -0.341453 -0.569479 0
M  V30 7824 H 755.862 -1.53728 -1.35015 0
M  V30 7825 H 755.872 -1.49484 -3.7963 0
M  V30 7826 H 754.547 -2.53388 -3.29799 0
M  V30 7827 H 753.124 -0.737612 -3.65532 0
M  V30 7828 N 755.309 1.25446 -0.953992 0
M  V30 7829 C 756.72 1.75047 -0.649255 0
M  V30 7830 C 757.071 1.77527 0.835385 0
M  V30 7831 O 756.196 1.39569 1.65377 0
M  V30 7832 C 756.791 3.17889 -1.17183 0
M  V30 7833 C 755.35 3.65052 -0.917267 0
M  V30 7834 C 754.497 2.44124 -1.31525 0
M  V30 7835 H 757.448 1.11342 -1.13087 0
M  V30 7836 H 757.469 3.76768 -0.531616 0
M  V30 7837 H 756.981 3.16052 -2.25239 0
M  V30 7838 H 755.082 3.72305 0.148354 0
M  V30 7839 H 755.195 4.53222 -1.55328 0
M  V30 7840 H 753.559 2.43906 -0.733624 0
M  V30 7841 H 754.342 2.44979 -2.405 0
M  V30 7842 N 756.787 0.722489 1.40064 0
M  V30 7843 C 757.697 0.0755984 2.34478 0
M  V30 7844 C 758.713 -0.736046 1.57665 0
M  V30 7845 O 759.889 -0.667407 1.9002 0
M  V30 7846 C 756.954 -0.830075 3.36616 0
M  V30 7847 C 756.015 -0.00759884 4.29299 0
M  V30 7848 C 755.248 -0.870139 5.26559 0
M  V30 7849 O 755.471 -2.10921 5.2997 0
M  V30 7850 O 754.405 -0.305454 6.01124 0
M  V30 7851 H 758.231 0.854545 2.9143 0
M  V30 7852 H 755.816 0.483032 1.41376 0
M  V30 7853 H 757.698 -1.34864 3.99236 0
M  V30 7854 H 756.373 -1.58805 2.82069 0
M  V30 7855 H 755.28 0.556199 3.69942 0
M  V30 7856 H 756.613 0.712312 4.87018 0
M  V30 7857 N 758.265 -1.50454 0.469181 0
M  V30 7858 C 759.513 -2.01916 -0.0862982 0
M  V30 7859 C 759.834 -1.35337 -1.40388 0
M  V30 7860 O 759.104 -0.498096 -1.89462 0
M  V30 7861 H 757.684 -0.746185 -0.0348825 0
M  V30 7862 H 760.346 -1.84804 0.619167 0
M  V30 7863 H 759.442 -3.11182 -0.239189 0
M  V30 7864 N 759.743 -0.201713 -1.56304 0
M  V30 7865 C 760.983 0.437395 -1.99665 0
M  V30 7866 C 761.347 1.58341 -1.08592 0
M  V30 7867 O 762.548 2.28716 -1.41217 0
M  V30 7868 C 760.819 0.879572 -3.46408 0
M  V30 7869 S 762.378 1.51558 -4.11795 0
M  V30 7870 H 759.196 0.139621 -0.697156 0
M  V30 7871 H 761.798 -0.306337 -1.93085 0
M  V30 7872 H 760.502 0.0355295 -4.10385 0
M  V30 7873 H 760.033 1.65661 -3.56819 0
M  V30 7874 H 762.048 2.80445 -4.09347 0
M  V30 7875 N 761.222 1.57436 0.0718424 0
M  V30 7876 C 762.468 1.88388 0.766904 0
M  V30 7877 C 762.823 0.7954 1.75189 0
M  V30 7878 O 762.116 -0.200438 1.90549 0
M  V30 7879 C 762.31 3.23723 1.51455 0
M  V30 7880 C 762.139 4.45632 0.603475 0
M  V30 7881 C 760.909 5.04728 0.240437 0
M  V30 7882 C 763.107 5.14203 -0.0997624 0
M  V30 7883 N 761.089 6.10163 -0.676363 0
M  V30 7884 C 762.46 6.13812 -0.873755 0
M  V30 7885 C 764.515 4.97605 -0.171238 0
M  V30 7886 C 763.218 6.98615 -1.71258 0
M  V30 7887 C 765.244 5.82935 -0.997041 0
M  V30 7888 C 764.606 6.82082 -1.75908 0
M  V30 7889 H 760.705 0.738888 0.256064 0
M  V30 7890 H 763.289 1.94679 0.0284273 0
M  V30 7891 H 761.46 3.1844 2.22375 0
M  V30 7892 H 763.192 3.42324 2.15862 0
M  V30 7893 H 759.947 4.69869 0.593284 0
M  V30 7894 H 760.371 6.67537 -1.12801 0
M  V30 7895 H 765.013 4.20869 0.403586 0
M  V30 7896 H 762.731 7.74726 -2.29838 0
M  V30 7897 H 766.317 5.72149 -1.05532 0
M  V30 7898 H 765.197 7.46964 -2.38778 0
M  V30 7899 N 762.7 -0.34323 1.53817 0
M  V30 7900 C 763.948 -1.0813 1.70741 0
M  V30 7901 C 764.269 -1.89165 0.473461 0
M  V30 7902 O 763.539 -1.89075 -0.512605 0
M  V30 7903 H 762.119 -0.40219 0.629486 0
M  V30 7904 H 764.781 -0.384426 1.91071 0
M  V30 7905 H 763.877 -1.7585 2.57843 0
M  V30 7906 N 764.178 -1.45556 -0.604258 0
M  V30 7907 C 765.589 -1.44171 -1.18624 0
M  V30 7908 C 765.94 -0.171081 -1.95453 0
M  V30 7909 O 765.065 0.727156 -2.03817 0
M  V30 7910 C 765.66 -2.61193 -2.15786 0
M  V30 7911 C 764.219 -2.62918 -2.69353 0
M  V30 7912 C 763.366 -2.36479 -1.4482 0
M  V30 7913 H 766.317 -1.53747 -0.393381 0
M  V30 7914 H 766.338 -2.35481 -2.98879 0
M  V30 7915 H 765.85 -3.53656 -1.59841 0
M  V30 7916 H 763.951 -1.7447 -3.29228 0
M  V30 7917 H 764.064 -3.6224 -3.13559 0
M  V30 7918 H 762.428 -1.86103 -1.73891 0
M  V30 7919 H 763.211 -3.31091 -0.907376 0
M  V30 7920 N 765.656 0.84705 -1.32902 0
M  V30 7921 C 766.566 1.98845 -1.2449 0
M  V30 7922 C 767.582 1.7329 -0.15702 0
M  V30 7923 O 768.758 1.978 -0.379104 0
M  V30 7924 C 765.823 3.32679 -0.975985 0
M  V30 7925 C 764.884 3.71405 -2.15306 0
M  V30 7926 C 764.117 4.98853 -1.89688 0
M  V30 7927 O 764.34 5.64134 -0.843168 0
M  V30 7928 O 763.274 5.34889 -2.76002 0
M  V30 7929 H 767.1 2.0888 -2.2046 0
M  V30 7930 H 764.685 0.978852 -1.12867 0
M  V30 7931 H 766.567 4.12885 -0.842826 0
M  V30 7932 H 765.242 3.23667 -0.0464954 0
M  V30 7933 H 764.149 2.91743 -2.34172 0
M  V30 7934 H 765.482 3.85073 -3.06561 0
M  V30 7935 N 767.134 1.16236 1.06428 0
M  V30 7936 C 768.545 0.950942 1.60667 0
M  V30 7937 C 768.896 -0.505491 1.89576 0
M  V30 7938 O 768.021 -1.37843 1.66818 0
M  V30 7939 C 768.616 1.71982 2.91904 0
M  V30 7940 C 767.175 1.55342 3.4285 0
M  V30 7941 C 766.322 1.72942 2.16763 0
M  V30 7942 H 769.273 1.31126 0.893959 0
M  V30 7943 H 769.294 1.19483 3.61253 0
M  V30 7944 H 768.806 2.77978 2.70831 0
M  V30 7945 H 766.907 0.5178 3.68985 0
M  V30 7946 H 767.02 2.33643 4.18267 0
M  V30 7947 H 765.384 1.15673 2.26918 0
M  V30 7948 H 766.167 2.80324 1.98175 0
M  V30 7949 N 768.612 -1.24939 0.960631 0
M  V30 7950 C 770.028 -1.45039 0.666018 0
M  V30 7951 C 770.228 -1.86021 -0.774501 0
M  V30 7952 O 769.284 -1.99392 -1.54916 0
M  V30 7953 C 770.597 -2.51775 1.64408 0
M  V30 7954 C 772.145 -2.6561 1.65592 0
M  V30 7955 C 772.62 -3.75536 2.62177 0
M  V30 7956 N 774.111 -3.82954 2.60577 0
M  V30 7957 C 774.846 -4.67517 3.31987 0
M  V30 7958 N 774.342 -5.56321 4.1289 0
M  V30 7959 N 776.135 -4.61535 3.20845 0
M  V30 7960 H 768.286 -0.96632 1.89145 0
M  V30 7961 H 770.549 -0.486034 0.813926 0
M  V30 7962 H 770.255 -2.28534 2.67329 0
M  V30 7963 H 770.129 -3.49804 1.41128 0
M  V30 7964 H 772.516 -2.88212 0.633846 0
M  V30 7965 H 772.597 -1.67962 1.92931 0
M  V30 7966 H 772.241 -3.53684 3.64514 0
M  V30 7967 H 772.171 -4.72682 2.32119 0
M  V30 7968 H 774.662 -3.19478 2.01847 0
M  V30 7969 H 774.975 -6.17787 4.64283 0
M  V30 7970 H 773.32 -5.5601 4.16987 0
M  V30 7971 H 776.511 -3.91169 2.57108 0
M  V30 7972 H 776.684 -5.27214 3.76762 0
M  V30 7973 N 770.09 -0.729906 -1.39679 0
M  V30 7974 C 771.367 -0.202149 -1.94553 0
M  V30 7975 C 771.747 1.29507 -1.66707 0
M  V30 7976 O 771.095 2.05819 -0.992517 0
M  V30 7977 C 771.305 -0.530279 -3.44948 0
M  V30 7978 C 772.653 -0.476808 -4.21914 0
M  V30 7979 O 773.677 -0.467171 -3.53123 0
M  V30 7980 O 772.536 -0.466869 -5.44502 0
M  V30 7981 H 769.63 -0.0351644 -0.826252 0
M  V30 7982 H 772.176 -0.808417 -1.49207 0
M  V30 7983 H 770.948 -1.56526 -3.5863 0
M  V30 7984 H 770.571 0.10522 -3.97461 0
M  V30 7985 N 771.568 1.50203 -0.477153 0
M  V30 7986 C 772.808 2.04265 0.0744065 0
M  V30 7987 C 773.172 1.35082 1.36443 0
M  V30 7988 O 774.373 1.79732 1.99875 0
M  V30 7989 C 772.644 3.56539 0.247874 0
M  V30 7990 S 774.203 4.32219 0.757117 0
M  V30 7991 H 771.021 0.71088 0.0130891 0
M  V30 7992 H 773.623 1.8453 -0.645678 0
M  V30 7993 H 772.327 4.04443 -0.696709 0
M  V30 7994 H 771.858 3.80638 0.993896 0
M  V30 7995 H 773.873 4.52789 2.0297 0
M  V30 7996 N 773.046 0.209999 1.56195 0
M  V30 7997 C 774.292 -0.425442 1.98287 0
M  V30 7998 C 774.625 -1.60232 1.09724 0
M  V30 7999 O 773.9 -1.93902 0.152414 0
M  V30 8000 C 774.183 -0.871189 3.49403 0
M  V30 8001 C 774.036 0.308527 4.48741 0
M  V30 8002 C 775.355 -1.73146 4.04609 0
M  V30 8003 H 772.474 -0.153169 0.720908 0
M  V30 8004 H 775.116 0.303916 1.87554 0
M  V30 8005 H 773.266 -1.49266 3.58681 0
M  V30 8006 H 774.938 0.946487 4.51486 0
M  V30 8007 H 773.181 0.957878 4.23092 0
M  V30 8008 H 773.852 -0.0461143 5.51981 0
M  V30 8009 H 776.328 -1.2072 3.98203 0
M  V30 8010 H 775.204 -2.01228 5.10684 0
M  V30 8011 H 775.465 -2.69083 3.5078 0
M  V30 8012 N 774.524 -1.57472 -0.0634922 0
M  V30 8013 C 775.749 -1.92273 -0.77756 0
M  V30 8014 C 776.174 -0.807141 -1.69902 0
M  V30 8015 O 775.532 0.239523 -1.79711 0
M  V30 8016 C 775.58 -3.26054 -1.54017 0
M  V30 8017 O 774.684 -3.15873 -2.65138 0
M  V30 8018 H 774.025 -0.629389 -0.211579 0
M  V30 8019 H 776.555 -2.04579 -0.0292523 0
M  V30 8020 H 776.565 -3.60127 -1.91763 0
M  V30 8021 H 775.24 -4.06824 -0.864128 0
M  V30 8022 H 773.817 -2.93373 -2.30189 0
M  V30 8023 N 776.003 0.335068 -1.53997 0
M  V30 8024 C 777.243 1.0827 -1.7337 0
M  V30 8025 C 777.607 1.85618 -0.490913 0
M  V30 8026 O 778.808 2.62864 -0.561799 0
M  V30 8027 C 777.079 1.99212 -2.96731 0
M  V30 8028 S 778.638 2.81083 -3.36954 0
M  V30 8029 H 775.456 0.365698 -0.609743 0
M  V30 8030 H 778.058 0.360079 -1.92155 0
M  V30 8031 H 776.762 1.41204 -3.85344 0
M  V30 8032 H 776.293 2.75898 -2.80436 0
M  V30 8033 H 778.308 4.01657 -2.91352 0
M  V30 8034 N 777.481 1.45874 0.596531 0
M  V30 8035 C 778.897 1.30524 0.918459 0
M  V30 8036 C 779.097 0.266429 1.99731 0
M  V30 8037 O 778.153 -0.335809 2.50257 0
M  V30 8038 C 779.466 2.68747 1.3489 0
M  V30 8039 C 781.014 2.7673 1.46251 0
M  V30 8040 C 781.489 4.15504 1.92667 0
M  V30 8041 N 782.98 4.17853 1.99883 0
M  V30 8042 C 783.715 5.22109 2.37044 0
M  V30 8043 N 783.211 6.36704 2.73094 0
M  V30 8044 N 785.004 5.09471 2.37479 0
M  V30 8045 H 777.155 2.12081 -0.116368 0
M  V30 8046 H 779.418 0.947941 0.0106033 0
M  V30 8047 H 779.124 3.46006 0.630288 0
M  V30 8048 H 778.998 2.97942 2.31323 0
M  V30 8049 H 781.385 1.99768 2.17202 0
M  V30 8050 H 781.466 2.51236 0.481054 0
M  V30 8051 H 781.11 4.92956 1.223 0
M  V30 8052 H 781.04 4.38396 2.91747 0
M  V30 8053 H 783.531 3.35163 1.74568 0
M  V30 8054 H 783.844 7.12041 3.00362 0
M  V30 8055 H 782.189 6.40087 2.70764 0
M  V30 8056 H 785.38 4.18987 2.08728 0
M  V30 8057 H 785.553 5.90837 2.66112 0
M  V30 8058 N 778.959 -0.83999 1.33349 0
M  V30 8059 C 779.907 -1.97113 1.23488 0
M  V30 8060 C 780.901 -1.68849 0.136503 0
M  V30 8061 O 782.107 -1.77476 0.300389 0
M  V30 8062 H 778.482 -0.647049 0.383185 0
M  V30 8063 H 780.453 -2.02554 2.19122 0
M  V30 8064 C 779.202 -3.33314 0.989815 0
M  V30 8065 H 778.525 -3.556 1.82726 0
M  V30 8066 H 779.965 -4.12963 0.961123 0
M  V30 8067 C 778.424 -3.35496 -0.307272 0
M  V30 8068 O 778.954 -3.79589 -1.31434 0
M  V30 8069 N 777.16 -2.88669 -0.334414 0
M  V30 8070 H 776.707 -2.5298 0.485659 0
M  V30 8071 H 776.665 -2.90512 -1.20209 0
M  V30 8072 N 780.437 -1.16799 -1.0581 0
M  V30 8073 C 781.683 -0.953935 -1.78963 0
M  V30 8074 C 782.016 0.516638 -1.87202 0
M  V30 8075 O 781.291 1.38338 -1.36721 0
M  V30 8076 C 781.574 -1.58808 -3.23191 0
M  V30 8077 C 781.427 -3.13032 -3.23003 0
M  V30 8078 C 782.746 -1.2868 -4.20867 0
M  V30 8079 H 779.865 -0.347972 -0.64968 0
M  V30 8080 H 782.507 -1.44204 -1.23715 0
M  V30 8081 H 780.657 -1.17303 -3.70368 0
M  V30 8082 H 782.329 -3.63553 -2.83949 0
M  V30 8083 H 780.572 -3.46108 -2.61518 0
M  V30 8084 H 781.243 -3.52527 -4.24769 0
M  V30 8085 H 783.719 -1.6461 -3.82155 0
M  V30 8086 H 782.595 -1.75645 -5.20038 0
M  V30 8087 H 782.856 -0.206491 -4.41618 0
M  V30 8088 N 781.915 1.24427 -0.967243 0
M  V30 8089 C 783.14 1.9708 -0.646069 0
M  V30 8090 C 783.565 1.71272 0.777665 0
M  V30 8091 O 782.923 0.976179 1.52776 0
M  V30 8092 C 782.971 3.48501 -0.926266 0
M  V30 8093 O 782.075 4.12398 -0.0114653 0
M  V30 8094 H 781.416 0.617423 -0.244304 0
M  V30 8095 H 783.946 1.58215 -1.29727 0
M  V30 8096 H 783.956 3.98885 -0.857619 0
M  V30 8097 H 782.631 3.66613 -1.96386 0
M  V30 8098 H 781.208 3.72661 -0.133396 0
M  V30 8099 N 783.393 0.737304 1.3929 0
M  V30 8100 C 784.809 0.413132 1.5416 0
M  V30 8101 C 785.009 -1.07574 1.70382 0
M  V30 8102 O 784.065 -1.86185 1.70562 0
M  V30 8103 C 785.378 1.19817 2.75798 0
M  V30 8104 C 786.926 1.18662 2.89635 0
M  V30 8105 C 787.401 1.95427 4.14213 0
M  V30 8106 N 788.892 1.92605 4.21257 0
M  V30 8107 C 789.627 2.48808 5.16606 0
M  V30 8108 N 789.123 3.13659 6.1773 0
M  V30 8109 N 790.916 2.38829 5.08839 0
M  V30 8110 H 783.067 1.70243 1.27008 0
M  V30 8111 H 785.33 0.720802 0.61575 0
M  V30 8112 H 785.036 2.25179 2.70161 0
M  V30 8113 H 784.91 0.804144 3.68529 0
M  V30 8114 H 787.297 0.141112 2.94762 0
M  V30 8115 H 787.378 1.62003 1.97961 0
M  V30 8116 H 787.022 2.9998 4.09847 0
M  V30 8117 H 786.952 1.4949 5.04936 0
M  V30 8118 H 789.443 1.45362 3.48824 0
M  V30 8119 H 789.756 3.54006 6.8695 0
M  V30 8120 H 788.101 3.17749 6.1811 0
M  V30 8121 H 791.292 1.87806 4.28773 0
M  V30 8122 H 791.465 2.82929 5.82971 0
M  V30 8123 N 784.871 -1.49948 0.485112 0
M  V30 8124 C 786.119 -2.01996 -0.0648775 0
M  V30 8125 C 786.44 -1.36819 -1.38945 0
M  V30 8126 O 785.71 -0.518163 -1.88923 0
M  V30 8127 H 784.29 -0.746513 -0.0269662 0
M  V30 8128 H 786.952 -1.84136 0.638733 0
M  V30 8129 H 786.048 -3.11418 -0.20617 0
M  V30 8130 N 786.349 -0.21828 -1.56081 0
M  V30 8131 C 787.765 0.137168 -1.59009 0
M  V30 8132 C 787.965 1.59215 -1.23503 0
M  V30 8133 O 787.021 2.33178 -0.968716 0
M  V30 8134 C 788.334 -0.186162 -3.00123 0
M  V30 8135 C 789.882 -0.128135 -3.12738 0
M  V30 8136 C 790.357 -0.425094 -4.56023 0
M  V30 8137 N 791.848 -0.374547 -4.61683 0
M  V30 8138 C 792.583 -0.57786 -5.70481 0
M  V30 8139 N 792.079 -0.842771 -6.87655 0
M  V30 8140 N 793.872 -0.510521 -5.59777 0
M  V30 8141 H 786.023 -1.16746 -1.77437 0
M  V30 8142 H 788.286 -0.467706 -0.824594 0
M  V30 8143 H 787.992 -1.19589 -3.30744 0
M  V30 8144 H 787.866 0.500388 -3.73866 0
M  V30 8145 H 790.253 0.872224 -2.81915 0
M  V30 8146 H 790.334 -0.848112 -2.41331 0
M  V30 8147 H 789.978 -1.42288 -4.87562 0
M  V30 8148 H 789.908 0.316038 -5.25651 0
M  V30 8149 H 792.399 -0.177356 -3.77484 0
M  V30 8150 H 792.712 -0.986095 -7.66483 0
M  V30 8151 H 791.057 -0.879929 -6.89407 0
M  V30 8152 H 794.248 -0.303813 -4.67113 0
M  V30 8153 H 794.421 -0.672378 -6.44502 0
M  V30 8154 N 787.827 1.57504 0.0551401 0
M  V30 8155 C 788.737 2.08198 1.08124 0
M  V30 8156 C 789.753 1.01496 1.41331 0
M  V30 8157 O 790.929 1.33073 1.51174 0
M  V30 8158 C 787.994 2.52968 2.37083 0
M  V30 8159 C 787.055 3.7404 2.10696 0
M  V30 8160 C 786.288 4.16665 3.33505 0
M  V30 8161 O 786.511 3.59019 4.4324 0
M  V30 8162 O 785.445 5.09324 3.20737 0
M  V30 8163 H 789.271 2.95977 0.680518 0
M  V30 8164 H 786.856 1.46933 0.270401 0
M  V30 8165 H 788.738 2.82211 3.12946 0
M  V30 8166 H 787.413 1.6831 2.76502 0
M  V30 8167 H 786.32 3.49855 1.32484 0
M  V30 8168 H 787.653 4.59601 1.76148 0
M  V30 8169 N 789.305 -0.326896 1.54172 0
M  V30 8170 C 790.545 -1.07349 1.73941 0
M  V30 8171 C 790.909 -1.85355 0.50075 0
M  V30 8172 O 792.11 -2.62562 0.575731 0
M  V30 8173 C 790.381 -1.97636 2.97783 0
M  V30 8174 S 791.94 -2.79292 3.3844 0
M  V30 8175 H 788.758 -0.362459 0.611673 0
M  V30 8176 H 791.36 -0.349884 1.92344 0
M  V30 8177 H 790.064 -1.39158 3.86087 0
M  V30 8178 H 789.595 -2.74406 2.81895 0
M  V30 8179 H 791.61 -4.00106 2.93478 0
M  V30 8180 N 790.784 -1.46188 -0.588786 0
M  V30 8181 C 792.03 -1.51407 -1.34921 0
M  V30 8182 C 792.363 -0.162771 -1.93517 0
M  V30 8183 O 791.638 0.825082 -1.76132 0
M  V30 8184 C 791.921 -2.60795 -2.48311 0
M  V30 8185 C 791.774 -4.05435 -1.94789 0
M  V30 8186 C 793.093 -2.66313 -3.50379 0
M  V30 8187 H 790.212 -0.551213 -0.489217 0
M  V30 8188 H 792.854 -1.78095 -0.661993 0
M  V30 8189 H 791.004 -2.3817 -3.06932 0
M  V30 8190 H 792.676 -4.39328 -1.40672 0
M  V30 8191 H 790.919 -4.15202 -1.25659 0
M  V30 8192 H 791.59 -4.77691 -2.76613 0
M  V30 8193 H 794.066 -2.86634 -3.01629 0
M  V30 8194 H 792.942 -3.44681 -4.27184 0
M  V30 8195 H 793.203 -1.72127 -4.07216 0
M  V30 8196 N 792.262 0.832906 -1.33792 0
M  V30 8197 C 793.539 1.57359 -1.16178 0
M  V30 8198 C 793.919 2.09372 0.269532 0
M  V30 8199 O 793.267 1.89993 1.26944 0
M  V30 8200 C 793.477 2.70279 -2.20795 0
M  V30 8201 C 794.825 3.39305 -2.55259 0
M  V30 8202 O 795.849 2.80526 -2.19508 0
M  V30 8203 O 794.708 4.45428 -3.16632 0
M  V30 8204 H 791.802 0.694025 -0.449731 0
M  V30 8205 H 794.348 0.875144 -1.45394 0
M  V30 8206 H 793.12 2.29527 -3.16911 0
M  V30 8207 H 792.743 3.47782 -1.927 0
M  V30 8208 N 793.74 1.17359 1.05189 0
M  V30 8209 C 794.687 0.890325 2.12936 0
M  V30 8210 C 795.657 -0.165779 1.65271 0
M  V30 8211 O 796.842 -0.0285672 1.90779 0
M  V30 8212 C 793.982 0.409793 3.42658 0
M  V30 8213 C 793.095 1.53002 4.03998 0
M  V30 8214 C 792.23 1.00336 5.21638 0
M  V30 8215 C 791.269 2.09903 5.74984 0
M  V30 8216 N 790.406 1.58714 6.83926 0
M  V30 8217 H 795.246 1.81299 2.36505 0
M  V30 8218 H 792.783 0.904249 1.16025 0
M  V30 8219 H 794.741 0.112743 4.17048 0
M  V30 8220 H 793.371 -0.475915 3.19272 0
M  V30 8221 H 792.423 1.9428 3.27047 0
M  V30 8222 H 793.735 2.3564 4.39631 0
M  V30 8223 H 792.889 0.660158 6.03098 0
M  V30 8224 H 791.628 0.14642 4.8748 0
M  V30 8225 H 790.633 2.45081 4.92154 0
M  V30 8226 H 791.858 2.96013 6.1119 0
M  V30 8227 H 789.804 0.752915 6.51665 0
M  V30 8228 H 789.721 2.34959 7.18561 0
M  V30 8229 H 790.989 1.27287 7.69037 0
M  V30 8230 N 795.218 -1.23913 0.973828 0
M  V30 8231 C 796.458 -1.93889 0.647015 0
M  V30 8232 C 796.822 -1.74368 -0.803735 0
M  V30 8233 O 798.023 -2.38435 -1.24106 0
M  V30 8234 C 796.294 -3.4257 1.01885 0
M  V30 8235 S 797.853 -4.31306 0.807517 0
M  V30 8236 H 794.671 -0.670279 0.237165 0
M  V30 8237 H 797.273 -1.50144 1.25208 0
M  V30 8238 H 795.977 -3.54286 2.07146 0
M  V30 8239 H 795.508 -3.91312 0.404812 0
M  V30 8240 H 797.523 -4.95218 -0.311986 0
M  V30 8241 N 796.696 -0.74468 -1.38897 0
M  V30 8242 C 797.644 -0.100312 -2.32384 0
M  V30 8243 C 798.638 0.715191 -1.53562 0
M  V30 8244 O 799.844 0.615288 -1.69157 0
M  V30 8245 H 796.219 -0.0136403 -0.751876 0
M  V30 8246 H 798.19 -0.905007 -2.84345 0
M  V30 8247 C 796.939 0.785432 -3.38713 0
M  V30 8248 H 796.262 0.167308 -3.9945 0
M  V30 8249 H 797.702 1.20374 -4.06554 0
M  V30 8250 C 796.161 1.92408 -2.76552 0
M  V30 8251 O 796.691 3.01752 -2.65157 0
M  V30 8252 N 794.897 1.71642 -2.34494 0
M  V30 8253 H 794.444 0.827079 -2.43961 0
M  V30 8254 H 794.402 2.48 -1.93244 0
M  V30 8255 N 798.174 1.49689 -0.493057 0
M  V30 8256 C 799.104 2.31826 0.279073 0
M  V30 8257 C 800.085 1.39733 0.969987 0
M  V30 8258 O 801.27 1.68646 0.962925 0
M  V30 8259 C 798.4 3.20046 1.34862 0
M  V30 8260 C 797.354 4.20869 0.77805 0
M  V30 8261 C 796.68 4.97971 1.94753 0
M  V30 8262 C 797.98 5.21813 -0.225543 0
M  V30 8263 H 799.674 2.96627 -0.406512 0
M  V30 8264 H 797.22 1.42647 -0.196943 0
M  V30 8265 H 799.173 3.76315 1.89645 0
M  V30 8266 H 797.897 2.53172 2.06328 0
M  V30 8267 H 796.556 3.65733 0.252036 0
M  V30 8268 H 796.204 4.27552 2.64969 0
M  V30 8269 H 795.904 5.66186 1.57187 0
M  V30 8270 H 797.428 5.57082 2.49984 0
M  V30 8271 H 798.842 5.72823 0.233864 0
M  V30 8272 H 797.239 5.97872 -0.516622 0
M  V30 8273 H 798.309 4.71209 -1.14412 0
M  V30 8274 N 799.652 0.226554 1.55963 0
M  V30 8275 C 800.582 -0.676079 2.23498 0
M  V30 8276 C 801.563 -1.19718 1.20837 0
M  V30 8277 O 802.748 -1.24027 1.49436 0
M  V30 8278 C 799.878 -1.88217 2.91876 0
M  V30 8279 C 798.832 -1.4947 4.01052 0
M  V30 8280 C 798.158 -2.77997 4.56751 0
M  V30 8281 C 799.458 -0.680951 5.17842 0
M  V30 8282 H 801.152 -0.112989 2.99187 0
M  V30 8283 H 798.698 -0.0529046 1.43903 0
M  V30 8284 H 800.651 -2.51911 3.37815 0
M  V30 8285 H 799.375 -2.47031 2.13643 0
M  V30 8286 H 798.034 -0.881199 3.55852 0
M  V30 8287 H 797.682 -3.34966 3.75243 0
M  V30 8288 H 797.382 -2.52803 5.30438 0
M  V30 8289 H 798.906 -3.42625 5.05411 0
M  V30 8290 H 800.32 -1.22171 5.60131 0
M  V30 8291 H 798.717 -0.525898 5.97791 0
M  V30 8292 H 799.787 0.311346 4.83899 0
M  V30 8293 N 801.13 -1.57531 -0.0467866 0
M  V30 8294 C 802.04 -2.08768 -1.07018 0
M  V30 8295 C 803.056 -1.02245 -1.40791 0
M  V30 8296 O 804.232 -1.33873 -1.50466 0
M  V30 8297 C 801.297 -2.54221 -2.35738 0
M  V30 8298 C 800.358 -3.75152 -2.08709 0
M  V30 8299 C 799.591 -4.18428 -3.31291 0
M  V30 8300 O 799.814 -3.61365 -4.4133 0
M  V30 8301 O 798.748 -5.11018 -3.18032 0
M  V30 8302 H 802.574 -2.96334 -0.664812 0
M  V30 8303 H 800.159 -1.47074 -0.262605 0
M  V30 8304 H 802.041 -2.83866 -3.11445 0
M  V30 8305 H 800.716 -1.69774 -2.75605 0
M  V30 8306 H 799.623 -3.50553 -1.30627 0
M  V30 8307 H 800.956 -4.60528 -1.73708 0
M  V30 8308 N 802.608 0.318715 -1.54344 0
M  V30 8309 C 803.856 1.054 -1.72439 0
M  V30 8310 C 804.177 1.88388 -0.503495 0
M  V30 8311 O 803.447 1.89866 0.48246 0
M  V30 8312 H 802.027 0.392124 -0.635805 0
M  V30 8313 H 804.689 0.35398 -1.91659 0
M  V30 8314 H 803.785 1.71726 -2.60608 0
M  V30 8315 N 804.086 1.46499 0.581025 0
M  V30 8316 C 804.996 1.59778 1.71779 0
M  V30 8317 C 806.012 0.481223 1.67213 0
M  V30 8318 O 807.188 0.74557 1.87091 0
M  V30 8319 C 804.253 1.58626 3.08283 0
M  V30 8320 C 803.314 2.81527 3.241 0
M  V30 8321 C 802.547 2.80421 4.54092 0
M  V30 8322 O 802.77 1.89262 5.38085 0
M  V30 8323 O 801.704 3.71984 4.73193 0
M  V30 8324 H 805.53 2.55918 1.63523 0
M  V30 8325 H 803.115 1.29311 0.748267 0
M  V30 8326 H 804.997 1.60686 3.89561 0
M  V30 8327 H 803.672 0.656467 3.16973 0
M  V30 8328 H 802.579 2.85021 2.42309 0
M  V30 8329 H 803.912 3.73721 3.20302 0
M  V30 8330 N 805.565 -0.825799 1.34232 0
M  V30 8331 C 806.976 -1.39835 1.23706 0
M  V30 8332 C 807.327 -1.95709 -0.138649 0
M  V30 8333 O 806.452 -1.89833 -1.03886 0
M  V30 8334 C 807.047 -2.54203 2.23978 0
M  V30 8335 C 805.606 -3.07374 2.17251 0
M  V30 8336 C 804.753 -1.80232 2.10741 0
M  V30 8337 H 807.704 -0.630442 1.4564 0
M  V30 8338 H 807.725 -3.32214 1.8551 0
M  V30 8339 H 807.237 -2.13506 3.24094 0
M  V30 8340 H 805.338 -3.52583 1.20483 0
M  V30 8341 H 805.451 -3.6666 3.08379 0
M  V30 8342 H 803.815 -2.01012 1.56417 0
M  V30 8343 H 804.598 -1.41713 3.12686 0
M  V30 8344 N 807.043 -1.17915 -1.04565 0
M  V30 8345 C 808.459 -0.927761 -1.29864 0
M  V30 8346 C 808.659 0.409536 -1.97294 0
M  V30 8347 O 807.715 1.14505 -2.25044 0
M  V30 8348 C 809.028 -2.08967 -2.16225 0
M  V30 8349 C 810.576 -2.12741 -2.29587 0
M  V30 8350 C 811.051 -3.28335 -3.19312 0
M  V30 8351 N 812.542 -3.28164 -3.26898 0
M  V30 8352 C 813.277 -4.14249 -3.96466 0
M  V30 8353 N 812.773 -5.10457 -4.68407 0
M  V30 8354 N 814.566 -4.02179 -3.92694 0
M  V30 8355 H 806.717 -2.03983 -0.592011 0
M  V30 8356 H 808.98 -0.891023 -0.323701 0
M  V30 8357 H 808.686 -3.05654 -1.73979 0
M  V30 8358 H 808.56 -2.04606 -3.16885 0
M  V30 8359 H 810.947 -1.16636 -2.71072 0
M  V30 8360 H 811.028 -2.21162 -1.28535 0
M  V30 8361 H 810.672 -4.2471 -2.78539 0
M  V30 8362 H 810.602 -3.17151 -4.20384 0
M  V30 8363 H 813.093 -2.58511 -2.75646 0
M  V30 8364 H 813.406 -5.72526 -5.1907 0
M  V30 8365 H 811.751 -5.14422 -4.67328 0
M  V30 8366 H 814.942 -3.26308 -3.3562 0
M  V30 8367 H 815.115 -4.69486 -4.4664 0
M  V30 8368 N 808.521 1.23394 -0.980386 0
M  V30 8369 C 809.431 2.28561 -0.528864 0
M  V30 8370 C 810.447 1.68946 0.416329 0
M  V30 8371 O 811.623 1.99355 0.286251 0
M  V30 8372 C 808.688 3.46323 0.16155 0
M  V30 8373 C 807.749 4.21297 -0.825044 0
M  V30 8374 C 806.982 5.33437 -0.167483 0
M  V30 8375 O 807.205 5.60812 1.04146 0
M  V30 8376 O 806.139 5.95637 -0.866047 0
M  V30 8377 H 809.965 2.69326 -1.40346 0
M  V30 8378 H 807.55 1.29325 -0.748019 0
M  V30 8379 H 809.432 4.17811 0.548841 0
M  V30 8380 H 808.107 3.0751 1.01092 0
M  V30 8381 H 807.014 3.52134 -1.26303 0
M  V30 8382 H 808.347 4.6396 -1.64322 0
M  V30 8383 N 809.999 0.752036 1.385 0
M  V30 8384 C 811.246 0.307503 2.00152 0
M  V30 8385 C 811.574 -1.11033 1.59693 0
M  V30 8386 O 810.829 -1.77455 0.825125 0
M  V30 8387 C 811.128 0.376155 3.55415 0
M  V30 8388 C 810.794 1.74942 4.15579 0
M  V30 8389 C 809.456 2.12525 4.31725 0
M  V30 8390 C 811.808 2.65031 4.48785 0
M  V30 8391 C 809.136 3.39671 4.78373 0
M  V30 8392 C 811.488 3.91567 4.96848 0
M  V30 8393 C 810.152 4.2922 5.11201 0
M  V30 8394 H 809.422 0.112523 0.732407 0
M  V30 8395 H 812.069 0.962213 1.65571 0
M  V30 8396 H 810.374 -0.362121 3.90123 0
M  V30 8397 H 812.071 0.0138065 4.00998 0
M  V30 8398 H 808.661 1.44726 4.03426 0
M  V30 8399 H 812.845 2.3726 4.35914 0
M  V30 8400 H 808.101 3.68765 4.8767 0
M  V30 8401 H 812.275 4.61517 5.21512 0
M  V30 8402 H 809.902 5.27805 5.47107 0
M  V30 8403 N 811.477 -1.49425 0.500989 0
M  V30 8404 C 812.723 -2.02753 -0.0436 0
M  V30 8405 C 813.056 -1.37991 -1.36646 0
M  V30 8406 O 812.331 -0.515597 -1.87542 0
M  V30 8407 C 812.614 -3.59565 -0.19616 0
M  V30 8408 C 812.467 -4.34855 1.14982 0
M  V30 8409 C 813.786 -4.30014 -0.936795 0
M  V30 8410 H 810.905 -0.73686 -0.0143711 0
M  V30 8411 H 813.547 -1.78448 0.652397 0
M  V30 8412 H 811.697 -3.80405 -0.788959 0
M  V30 8413 H 813.369 -4.25512 1.7815 0
M  V30 8414 H 811.612 -3.97414 1.73911 0
M  V30 8415 H 812.283 -5.42933 0.996385 0
M  V30 8416 H 814.759 -4.1383 -0.434036 0
M  V30 8417 H 813.635 -5.39483 -1.01238 0
M  V30 8418 H 813.896 -3.95257 -1.9805 0
M  V30 8419 N 812.955 -0.234822 -1.55841 0
M  V30 8420 C 813.865 0.680828 -2.24504 0
M  V30 8421 C 814.881 1.20306 -1.25708 0
M  V30 8422 O 816.057 1.24188 -1.58554 0
M  V30 8423 C 813.122 1.86636 -2.92178 0
M  V30 8424 C 812.183 1.3848 -4.06352 0
M  V30 8425 C 811.416 2.51382 -4.70789 0
M  V30 8426 O 811.639 3.69831 -4.34259 0
M  V30 8427 O 810.573 2.21828 -5.59532 0
M  V30 8428 H 814.399 0.12583 -3.03439 0
M  V30 8429 H 811.984 -0.00381817 -1.494 0
M  V30 8430 H 813.866 2.55845 -3.34845 0
M  V30 8431 H 812.541 2.40921 -2.16192 0
M  V30 8432 H 811.448 0.660341 -3.68226 0
M  V30 8433 H 812.781 0.888177 -4.8412 0
M  V30 8434 N 814.433 1.57553 0.0384317 0
M  V30 8435 C 815.381 2.07021 1.06043 0
M  V30 8436 C 816.375 0.982078 1.38028 0
M  V30 8437 O 817.581 1.16702 1.37042 0
M  V30 8438 H 813.956 0.660522 0.359464 0
M  V30 8439 H 815.927 2.91944 0.617339 0
M  V30 8440 C 814.676 2.55734 2.35574 0
M  V30 8441 H 813.999 3.39074 2.11822 0
M  V30 8442 H 815.439 2.94066 3.05452 0
M  V30 8443 C 813.898 1.45449 3.03885 0
M  V30 8444 O 814.428 0.815402 3.93337 0
M  V30 8445 N 812.634 1.19134 2.65058 0
M  V30 8446 H 812.181 1.71288 1.92401 0
M  V30 8447 H 812.139 0.455554 3.11082 0
M  V30 8448 N 815.911 -0.310526 1.54511 0
M  V30 8449 C 817.136 -1.07046 1.7764 0
M  V30 8450 C 817.561 -1.80488 0.529696 0
M  V30 8451 O 816.919 -1.73702 -0.519361 0
M  V30 8452 C 816.967 -2.03411 2.97752 0
M  V30 8453 O 816.071 -3.11545 2.7021 0
M  V30 8454 H 815.412 -0.307994 0.588248 0
M  V30 8455 H 817.942 -0.350848 2.01569 0
M  V30 8456 H 817.952 -2.46048 3.2546 0
M  V30 8457 H 816.627 -1.49361 3.88155 0
M  V30 8458 H 815.204 -2.7349 2.53491 0
M  V30 8459 N 817.389 -1.46805 -0.573248 0
M  V30 8460 C 818.299 -1.60687 -1.70929 0
M  V30 8461 C 819.315 -0.490084 -1.66956 0
M  V30 8462 O 820.491 -0.755482 -1.86693 0
M  V30 8463 C 817.556 -1.60259 -3.07438 0
M  V30 8464 C 816.617 -2.83242 -3.22603 0
M  V30 8465 C 815.85 -2.82825 -4.52599 0
M  V30 8466 O 816.073 -1.92113 -5.37074 0
M  V30 8467 O 815.007 -3.74489 -4.71213 0
M  V30 8468 H 818.833 -2.56782 -1.62163 0
M  V30 8469 H 816.418 -1.29706 -0.741399 0
M  V30 8470 H 818.3 -1.6275 -3.88704 0
M  V30 8471 H 816.975 -0.673268 -3.16621 0
M  V30 8472 H 815.882 -2.86302 -2.40794 0
M  V30 8473 H 817.215 -3.75415 -3.18315 0
M  V30 8474 N 818.867 0.818669 -1.34668 0
M  V30 8475 C 820.107 1.58862 -1.28617 0
M  V30 8476 C 820.471 1.91483 0.140845 0
M  V30 8477 O 821.672 2.66821 0.325583 0
M  V30 8478 C 819.943 2.85044 -2.15604 0
M  V30 8479 S 821.502 3.75553 -2.26948 0
M  V30 8480 H 818.32 0.544454 -0.457265 0
M  V30 8481 H 820.922 0.966679 -1.69928 0
M  V30 8482 H 819.626 2.59083 -3.18284 0
M  V30 8483 H 819.157 3.52231 -1.75205 0
M  V30 8484 H 821.172 4.74682 -1.44539 0
M  V30 8485 N 820.346 1.18468 1.03938 0
M  V30 8486 C 821.595 0.975193 1.76558 0
M  V30 8487 C 821.908 -0.495978 1.89207 0
M  V30 8488 O 823.114 -0.824009 2.58694 0
M  V30 8489 C 821.57 1.69579 3.17444 0
M  V30 8490 C 821.178 3.20636 3.12884 0
M  V30 8491 C 822.922 1.56917 3.94433 0
M  V30 8492 C 820.829 3.8533 4.48636 0
M  V30 8493 H 819.759 0.361244 0.66183 0
M  V30 8494 H 822.41 1.41854 1.16403 0
M  V30 8495 H 820.792 1.18022 3.78004 0
M  V30 8496 H 821.966 3.79228 2.61768 0
M  V30 8497 H 820.281 3.33454 2.49394 0
M  V30 8498 H 822.878 2.02611 4.94826 0
M  V30 8499 H 823.221 0.521638 4.13019 0
M  V30 8500 H 823.754 2.05762 3.40451 0
M  V30 8501 H 820.493 4.90136 4.35255 0
M  V30 8502 H 820.013 3.31526 4.99851 0
M  V30 8503 H 821.692 3.88269 5.17549 0
M  V30 8504 N 821.824 -1.22873 0.986916 0
M  V30 8505 C 822.756 -2.23889 0.490537 0
M  V30 8506 C 823.769 -1.57523 -0.411144 0
M  V30 8507 O 824.958 -1.7721 -0.214236 0
M  V30 8508 C 822.058 -3.37488 -0.30902 0
M  V30 8509 C 821.231 -4.33438 0.587354 0
M  V30 8510 C 820.29 -5.25958 -0.159467 0
M  V30 8511 O 819.316 -5.67394 0.453115 0
M  V30 8512 N 820.518 -5.62265 -1.44355 0
M  V30 8513 H 823.283 -2.67109 1.35914 0
M  V30 8514 H 820.844 -1.37111 0.860937 0
M  V30 8515 H 822.836 -3.96365 -0.817139 0
M  V30 8516 H 821.406 -2.934 -1.07868 0
M  V30 8517 H 820.626 -3.72969 1.27622 0
M  V30 8518 H 821.914 -4.94495 1.19801 0
M  V30 8519 H 821.312 -5.30562 -1.96266 0
M  V30 8520 H 819.869 -6.23585 -1.89698 0
M  V30 8521 N 823.302 -0.75937 -1.38099 0
M  V30 8522 C 824.542 -0.323116 -2.0183 0
M  V30 8523 C 824.906 1.07658 -1.58977 0
M  V30 8524 O 826.107 1.61227 -2.1508 0
M  V30 8525 C 824.378 -0.448234 -3.54578 0
M  V30 8526 S 825.937 -0.0954152 -4.38696 0
M  V30 8527 H 822.755 -0.125013 -0.699923 0
M  V30 8528 H 825.357 -0.991262 -1.68506 0
M  V30 8529 H 824.061 -1.46778 -3.83255 0
M  V30 8530 H 823.592 0.236895 -3.92686 0
M  V30 8531 H 825.607 1.11312 -4.83554 0
M  V30 8532 N 824.78 1.49157 -0.508906 0
M  V30 8533 C 825.73 2.26215 0.284705 0
M  V30 8534 C 826.714 1.31401 0.928586 0
M  V30 8535 O 827.906 1.56073 0.834877 0
M  V30 8536 C 825.035 3.15906 1.34382 0
M  V30 8537 C 824.121 4.18186 0.705785 0
M  V30 8538 N 824.512 5.05419 -0.196214 0
M  V30 8539 C 822.81 4.35425 0.965457 0
M  V30 8540 C 823.511 5.78977 -0.562222 0
M  V30 8541 N 822.487 5.43553 0.0717389 0
M  V30 8542 H 826.289 2.91033 -0.409543 0
M  V30 8543 H 823.803 1.59104 -0.325508 0
M  V30 8544 H 825.8 3.6975 1.92589 0
M  V30 8545 H 824.46 2.52642 2.03966 0
M  V30 8546 H 825.471 5.14781 -0.567526 0
M  V30 8547 H 822.148 3.83363 1.65346 0
M  V30 8548 H 823.538 6.59192 -1.30062 0
M  V30 8549 N 826.258 0.243083 1.55714 0
M  V30 8550 C 827.669 -0.260788 1.8487 0
M  V30 8551 C 828.02 -1.57879 1.16485 0
M  V30 8552 O 827.145 -2.1184 0.441908 0
M  V30 8553 C 827.74 -0.479954 3.35383 0
M  V30 8554 C 826.299 -0.928096 3.64778 0
M  V30 8555 C 825.446 -0.00316416 2.773 0
M  V30 8556 H 828.397 0.465743 1.51712 0
M  V30 8557 H 828.418 -1.32308 3.56756 0
M  V30 8558 H 827.93 0.479468 3.85127 0
M  V30 8559 H 826.031 -1.90012 3.20509 0
M  V30 8560 H 826.144 -0.7876 4.72582 0
M  V30 8561 H 824.508 -0.513849 2.49463 0
M  V30 8562 H 825.291 0.951562 3.29849 0
M  V30 8563 N 827.736 -1.57571 -0.0300757 0
M  V30 8564 C 828.646 -2.09892 -1.04798 0
M  V30 8565 C 829.662 -1.03732 -1.39698 0
M  V30 8566 O 830.838 -1.35461 -1.49038 0
M  V30 8567 C 827.903 -2.56707 -2.33028 0
M  V30 8568 C 826.964 -3.77345 -2.04718 0
M  V30 8569 C 826.197 -4.21918 -3.26834 0
M  V30 8570 O 826.42 -3.66025 -4.37472 0
M  V30 8571 O 825.354 -5.14362 -3.12594 0
M  V30 8572 H 829.18 -2.97023 -0.633344 0
M  V30 8573 H 826.765 -1.47344 -0.246991 0
M  V30 8574 H 828.647 -2.87154 -3.08417 0
M  V30 8575 H 827.322 -1.72688 -2.73789 0
M  V30 8576 H 826.229 -3.51919 -1.26901 0
M  V30 8577 H 827.562 -4.62345 -1.68813 0
M  V30 8578 N 829.214 0.302327 -1.54673 0
M  V30 8579 C 830.454 1.04568 -1.75627 0
M  V30 8580 C 830.818 1.84535 -0.530175 0
M  V30 8581 O 832.019 2.61613 -0.61743 0
M  V30 8582 C 830.29 1.92873 -3.0089 0
M  V30 8583 S 831.849 2.73872 -3.4284 0
M  V30 8584 H 828.667 0.352682 -0.617362 0
M  V30 8585 H 831.269 0.319239 -1.92876 0
M  V30 8586 H 829.973 1.32998 -3.88252 0
M  V30 8587 H 829.504 2.69887 -2.86225 0
M  V30 8588 H 831.519 3.95386 -2.99807 0
M  V30 8589 N 830.692 1.47107 0.565454 0
M  V30 8590 C 831.622 1.61846 1.68309 0
M  V30 8591 C 832.603 0.468159 1.63531 0
M  V30 8592 O 833.788 0.696504 1.8128 0
M  V30 8593 C 830.918 1.62474 3.06952 0
M  V30 8594 C 829.872 2.76649 3.26572 0
M  V30 8595 C 829.198 2.62345 4.65917 0
M  V30 8596 C 830.498 4.18319 3.12741 0
M  V30 8597 H 832.192 2.55407 1.5623 0
M  V30 8598 H 829.738 1.22916 0.750179 0
M  V30 8599 H 831.691 1.71378 3.84977 0
M  V30 8600 H 830.415 0.654692 3.19971 0
M  V30 8601 H 829.074 2.67242 2.50952 0
M  V30 8602 H 828.722 1.63386 4.75725 0
M  V30 8603 H 828.422 3.38936 4.79996 0
M  V30 8604 H 829.946 2.73165 5.46089 0
M  V30 8605 H 831.36 4.28745 3.80593 0
M  V30 8606 H 829.757 4.95632 3.38333 0
M  V30 8607 H 830.827 4.37263 2.09592 0
M  V30 8608 N 832.17 -0.811516 1.35101 0
M  V30 8609 C 833.581 -1.38515 1.25182 0
M  V30 8610 C 833.932 -1.95846 -0.117883 0
M  V30 8611 O 833.057 -1.90925 -1.01866 0
M  V30 8612 C 833.652 -2.51813 2.26662 0
M  V30 8613 C 832.211 -3.05052 2.20499 0
M  V30 8614 C 831.358 -1.77987 2.12641 0
M  V30 8615 H 834.309 -0.614959 1.46301 0
M  V30 8616 H 834.33 -3.30228 1.89023 0
M  V30 8617 H 833.842 -2.10057 3.2634 0
M  V30 8618 H 831.943 -3.51285 1.24215 0
M  V30 8619 H 832.056 -3.63368 3.1225 0
M  V30 8620 H 830.42 -1.99342 1.5854 0
M  V30 8621 H 831.203 -1.38389 3.14171 0
M  V30 8622 N 833.648 -1.19017 -1.03309 0
M  V30 8623 C 834.58 -0.881847 -2.11556 0
M  V30 8624 C 835.593 0.123711 -1.62329 0
M  V30 8625 O 836.782 -0.105141 -1.7819 0
M  V30 8626 C 833.882 -0.297634 -3.37591 0
M  V30 8627 C 833.055 -1.35072 -4.16022 0
M  V30 8628 C 832.114 -0.780812 -5.20375 0
M  V30 8629 O 831.14 -1.45745 -5.50224 0
M  V30 8630 N 832.342 0.417964 -5.78993 0
M  V30 8631 H 835.107 -1.81359 -2.38598 0
M  V30 8632 H 832.668 -1.0916 -1.19565 0
M  V30 8633 H 834.66 0.097374 -4.04583 0
M  V30 8634 H 833.23 0.538299 -3.0793 0
M  V30 8635 H 832.45 -1.92074 -3.4424 0
M  V30 8636 H 833.738 -2.06044 -4.65213 0
M  V30 8637 H 833.136 0.985281 -5.57054 0
M  V30 8638 H 831.693 0.754802 -6.47415 0
M  V30 8639 N 835.127 1.22348 -0.993418 0
M  V30 8640 C 836.09 2.22522 -0.549251 0
M  V30 8641 C 837.09 1.56529 0.368164 0
M  V30 8642 O 838.28 1.73463 0.16005 0
M  V30 8643 C 835.412 3.40307 0.201037 0
M  V30 8644 H 836.605 2.63332 -1.43515 0
M  V30 8645 H 834.158 1.35407 -0.78068 0
M  V30 8646 H 834.893 3.0497 1.10289 0
M  V30 8647 H 834.678 3.8942 -0.457685 0
M  V30 8648 H 836.168 4.14597 0.499946 0
M  V30 8649 N 836.605 0.766683 1.37694 0
M  V30 8650 C 837.538 0.0959288 2.27998 0
M  V30 8651 C 838.516 -0.714493 1.46061 0
M  V30 8652 O 839.7 -0.690337 1.75404 0
M  V30 8653 C 836.827 -0.87057 3.27321 0
M  V30 8654 C 835.873 -0.144771 4.26254 0
M  V30 8655 S 836.706 1.16365 5.22704 0
M  V30 8656 C 837.862 0.200564 6.25579 0
M  V30 8657 H 838.095 0.861666 2.84539 0
M  V30 8658 H 835.628 0.559845 1.43893 0
M  V30 8659 H 837.586 -1.42282 3.85053 0
M  V30 8660 H 836.247 -1.60938 2.69737 0
M  V30 8661 H 835.44 -0.877259 4.96307 0
M  V30 8662 H 835.042 0.33633 3.72485 0
M  V30 8663 H 837.334 -0.628833 6.74575 0
M  V30 8664 H 838.277 0.869117 7.02746 0
M  V30 8665 H 838.685 -0.185972 5.64194 0
M  V30 8666 N 838.083 -1.48885 0.516809 0
M  V30 8667 C 839.031 -2.31066 -0.266656 0
M  V30 8668 C 840.025 -1.40393 -0.94795 0
M  V30 8669 O 841.231 -1.57366 -0.873836 0
M  V30 8670 H 837.606 -0.744654 -0.104858 0
M  V30 8671 H 839.577 -2.95045 0.446236 0
M  V30 8672 C 838.326 -3.22131 -1.3087 0
M  V30 8673 H 837.649 -3.91839 -0.793865 0
M  V30 8674 H 839.089 -3.82544 -1.82856 0
M  V30 8675 C 837.548 -2.42825 -2.33533 0
M  V30 8676 O 838.078 -2.14364 -3.39722 0
M  V30 8677 N 836.284 -2.04559 -2.06407 0
M  V30 8678 H 835.831 -2.27905 -1.20071 0
M  V30 8679 H 835.789 -1.51807 -2.75322 0
M  V30 8680 N 839.561 -0.251338 -1.55583 0
M  V30 8681 C 840.81 0.372681 -1.98227 0
M  V30 8682 C 841.123 1.58743 -1.1428 0
M  V30 8683 O 842.329 2.28289 -1.46957 0
M  V30 8684 C 840.785 0.714439 -3.52738 0
M  V30 8685 C 840.393 -0.479168 -4.4543 0
M  V30 8686 C 842.137 1.3024 -4.04027 0
M  V30 8687 C 840.044 -0.113318 -5.91291 0
M  V30 8688 H 838.974 0.14302 -0.740312 0
M  V30 8689 H 841.625 -0.352253 -1.80087 0
M  V30 8690 H 840.007 1.49762 -3.66589 0
M  V30 8691 H 841.181 -1.25644 -4.4334 0
M  V30 8692 H 839.496 -0.982359 -4.04646 0
M  V30 8693 H 842.093 1.58953 -5.10527 0
M  V30 8694 H 842.436 2.22837 -3.51638 0
M  V30 8695 H 842.969 0.582024 -3.93519 0
M  V30 8696 H 839.708 -1.00654 -6.47726 0
M  V30 8697 H 839.228 0.627666 -5.96507 0
M  V30 8698 H 840.907 0.30293 -6.4629 0
M  V30 8699 N 841.039 1.57585 0.0217189 0
M  V30 8700 C 842.267 1.93871 0.722619 0
M  V30 8701 C 842.682 0.851706 1.68498 0
M  V30 8702 O 842.039 -0.17127 1.81695 0
M  V30 8703 C 842.09 3.30114 1.47333 0
M  V30 8704 O 841.811 4.34639 0.549597 0
M  V30 8705 C 843.312 3.80727 2.27072 0
M  V30 8706 H 840.532 0.639671 0.202637 0
M  V30 8707 H 843.076 2.04487 -0.0229414 0
M  V30 8708 H 841.231 3.20872 2.17071 0
M  V30 8709 H 841.645 5.13326 1.07686 0
M  V30 8710 H 843.119 4.78547 2.75131 0
M  V30 8711 H 843.596 3.12301 3.08812 0
M  V30 8712 H 844.202 3.93075 1.62395 0
M  V30 8713 N 842.517 -0.29412 1.54831 0
M  V30 8714 C 843.757 -1.03635 1.76179 0
M  V30 8715 C 844.121 -1.84251 0.539953 0
M  V30 8716 O 845.322 -2.61282 0.631295 0
M  V30 8717 C 843.593 -1.91275 3.01909 0
M  V30 8718 S 845.152 -2.7205 3.44288 0
M  V30 8719 H 841.97 -0.349403 0.619224 0
M  V30 8720 H 844.572 -0.309006 1.93042 0
M  V30 8721 H 843.276 -1.30937 3.88952 0
M  V30 8722 H 842.807 -2.68365 2.87652 0
M  V30 8723 H 844.822 -3.93791 3.01899 0
M  V30 8724 N 843.995 -1.47404 -0.557645 0
M  V30 8725 C 845.223 -1.57622 -1.34026 0
M  V30 8726 C 845.638 -0.226256 -1.87439 0
M  V30 8727 O 844.995 0.78043 -1.64971 0
M  V30 8728 C 845.046 -2.60111 -2.51047 0
M  V30 8729 O 844.767 -3.89866 -1.99841 0
M  V30 8730 C 846.268 -2.80508 -3.43264 0
M  V30 8731 H 843.488 -0.532271 -0.40857 0
M  V30 8732 H 846.032 -1.93019 -0.675555 0
M  V30 8733 H 844.187 -2.27648 -3.13457 0
M  V30 8734 H 844.601 -4.45864 -2.76234 0
M  V30 8735 H 846.075 -3.56084 -4.21792 0
M  V30 8736 H 846.552 -1.88314 -3.9678 0
M  V30 8737 H 847.158 -3.14166 -2.86671 0
M  V30 8738 N 845.473 0.80434 -1.35529 0
M  V30 8739 C 846.721 1.55845 -1.28673 0
M  V30 8740 C 847.042 1.94511 0.137976 0
M  V30 8741 O 846.312 1.63775 1.07492 0
M  V30 8742 H 844.892 0.577931 -0.473291 0
M  V30 8743 H 847.554 0.959293 -1.69657 0
M  V30 8744 H 846.65 2.47285 -1.90411 0
M  V30 8745 N 846.951 1.19563 1.02676 0
M  V30 8746 C 848.367 0.948304 1.28372 0
M  V30 8747 C 848.567 -0.378096 1.97921 0
M  V30 8748 O 847.623 -1.1091 2.26838 0
M  V30 8749 C 848.936 2.12381 2.12873 0
M  V30 8750 C 850.484 2.16366 2.26174 0
M  V30 8751 C 850.959 3.33374 3.14048 0
M  V30 8752 N 852.45 3.33323 3.21636 0
M  V30 8753 C 853.185 4.20504 3.89825 0
M  V30 8754 N 852.681 5.17845 4.60227 0
M  V30 8755 N 854.474 4.08375 3.86246 0
M  V30 8756 H 846.625 2.04899 0.559485 0
M  V30 8757 H 848.888 0.89606 0.309484 0
M  V30 8758 H 848.594 3.08383 1.69094 0
M  V30 8759 H 848.468 2.09621 3.1359 0
M  V30 8760 H 850.855 1.20933 2.69182 0
M  V30 8761 H 850.936 2.23179 1.25 0
M  V30 8762 H 850.58 4.29087 2.71747 0
M  V30 8763 H 850.51 3.23798 4.15286 0
M  V30 8764 H 853.001 2.62863 2.71498 0
M  V30 8765 H 853.314 5.80712 5.09896 0
M  V30 8766 H 851.659 5.21791 4.59085 0
M  V30 8767 H 854.85 3.31606 3.30386 0
M  V30 8768 H 855.023 4.76532 4.39114 0
M  V30 8769 N 848.429 -1.21819 0.999893 0
M  V30 8770 C 849.677 -1.90375 0.678351 0
M  V30 8771 C 849.998 -1.78155 -0.792824 0
M  V30 8772 O 849.268 -1.17319 -1.56885 0
M  V30 8773 H 847.848 -0.704661 0.247915 0
M  V30 8774 H 850.51 -1.48021 1.2679 0
M  V30 8775 H 849.606 -2.97385 0.947023 0
M  V30 8776 N 849.908 -0.773975 -1.37286 0
M  V30 8777 C 851.319 -0.404433 -1.82267 0
M  V30 8778 C 851.67 1.06971 -1.64474 0
M  V30 8779 O 850.795 1.82867 -1.15708 0
M  V30 8780 C 851.39 -0.727298 -3.30902 0
M  V30 8781 C 849.949 -0.410784 -3.74152 0
M  V30 8782 C 849.096 -0.969983 -2.59782 0
M  V30 8783 H 852.047 -0.968437 -1.25726 0
M  V30 8784 H 852.068 -0.0127575 -3.80498 0
M  V30 8785 H 851.58 -1.80026 -3.4382 0
M  V30 8786 H 849.681 0.65477 -3.66802 0
M  V30 8787 H 849.794 -0.920592 -4.70172 0
M  V30 8788 H 848.158 -0.394094 -2.51633 0
M  V30 8789 H 848.941 -2.04839 -2.75492 0
M  V30 8790 N 851.386 1.48609 -0.524698 0
M  V30 8791 C 852.663 1.95454 0.075465 0
M  V30 8792 C 853.043 1.46682 1.51814 0
M  V30 8793 O 852.391 0.690975 2.17802 0
M  V30 8794 C 852.601 3.48981 -0.0363273 0
M  V30 8795 C 853.949 4.24414 0.125624 0
M  V30 8796 O 854.973 3.5618 0.0377239 0
M  V30 8797 O 853.832 5.45625 0.309104 0
M  V30 8798 H 850.926 0.822902 0.0822256 0
M  V30 8799 H 853.472 1.59153 -0.588921 0
M  V30 8800 H 852.244 3.77185 -1.04149 0
M  V30 8801 H 851.867 3.91963 0.667146 0
M  V30 8802 N 852.864 0.259585 1.55447 0
M  V30 8803 C 853.812 -0.6507 2.23313 0
M  V30 8804 C 854.806 -1.17014 1.22491 0
M  V30 8805 O 856.012 -1.12557 1.40467 0
M  V30 8806 H 852.387 -0.228354 0.71649 0
M  V30 8807 H 854.358 -0.0553039 2.98349 0
M  V30 8808 C 853.107 -1.83081 2.95596 0
M  V30 8809 H 852.43 -1.44027 3.72956 0
M  V30 8810 H 853.87 -2.44469 3.46426 0
M  V30 8811 C 852.329 -2.70976 2.00184 0
M  V30 8812 O 852.859 -3.70882 1.54304 0
M  V30 8813 N 851.065 -2.37813 1.67014 0
M  V30 8814 H 850.612 -1.5662 2.04519 0
M  V30 8815 H 850.57 -2.96896 1.03443 0
M  V30 8816 N 854.342 -1.57594 -0.0133615 0
M  V30 8817 C 855.582 -1.91834 -0.705639 0
M  V30 8818 C 855.946 -0.859801 -1.71672 0
M  V30 8819 O 857.147 -1.08702 -2.4584 0
M  V30 8820 C 855.418 -3.31174 -1.34383 0
M  V30 8821 S 856.977 -3.87275 -2.06309 0
M  V30 8822 H 853.795 -0.671598 -0.233404 0
M  V30 8823 H 856.397 -1.95459 0.0401173 0
M  V30 8824 H 855.101 -4.06065 -0.594939 0
M  V30 8825 H 854.632 -3.3089 -2.12781 0
M  V30 8826 H 856.647 -3.67271 -3.33657 0
M  V30 8827 N 855.82 0.285905 -1.54985 0
M  V30 8828 C 857.069 1.01691 -1.74189 0
M  V30 8829 C 857.382 1.87908 -0.543135 0
M  V30 8830 O 858.588 2.64389 -0.617305 0
M  V30 8831 C 857.044 1.85785 -3.0824 0
M  V30 8832 C 856.652 1.04497 -4.35642 0
M  V30 8833 C 858.396 2.58393 -3.36798 0
M  V30 8834 C 856.303 1.87955 -5.60738 0
M  V30 8835 H 855.233 0.383396 -0.649248 0
M  V30 8836 H 857.884 0.27317 -1.81455 0
M  V30 8837 H 856.266 2.64205 -2.94978 0
M  V30 8838 H 857.44 0.305847 -4.59784 0
M  V30 8839 H 855.755 0.434023 -4.14132 0
M  V30 8840 H 858.352 3.21214 -4.27464 0
M  V30 8841 H 858.695 3.28011 -2.56349 0
M  V30 8842 H 859.228 1.87012 -3.511 0
M  V30 8843 H 855.967 1.22781 -6.43898 0
M  V30 8844 H 855.487 2.59499 -5.40759 0
M  V30 8845 H 857.166 2.45636 -5.98558 0
M  V30 8846 N 857.298 1.47698 0.54982 0
M  V30 8847 C 858.23 1.56806 1.67166 0
M  V30 8848 C 859.243 0.453709 1.5635 0
M  V30 8849 O 860.432 0.723663 1.63173 0
M  V30 8850 C 857.532 1.4632 3.05686 0
M  V30 8851 C 856.705 2.72452 3.42182 0
M  V30 8852 C 855.764 2.55698 4.59897 0
M  V30 8853 O 854.79 3.29534 4.64108 0
M  V30 8854 N 855.992 1.64009 5.56849 0
M  V30 8855 H 858.757 2.53545 1.59797 0
M  V30 8856 H 856.318 1.44171 0.736635 0
M  V30 8857 H 858.31 1.32835 3.82279 0
M  V30 8858 H 856.88 0.57634 3.07241 0
M  V30 8859 H 856.1 3.00644 2.54964 0
M  V30 8860 H 857.388 3.56172 3.63344 0
M  V30 8861 H 856.786 1.03186 5.5621 0
M  V30 8862 H 855.343 1.56473 6.3274 0
M  V30 8863 N 858.776 -0.797141 1.35954 0
M  V30 8864 C 860.016 -1.56795 1.31128 0
M  V30 8865 C 860.38 -1.91683 -0.110364 0
M  V30 8866 O 861.581 -2.67305 -0.283093 0
M  V30 8867 C 859.852 -2.81577 2.20111 0
M  V30 8868 S 861.411 -3.71895 2.32894 0
M  V30 8869 H 858.229 -0.53711 0.465869 0
M  V30 8870 H 860.831 -0.939522 1.71445 0
M  V30 8871 H 859.535 -2.53986 3.22365 0
M  V30 8872 H 859.066 -3.49399 1.80786 0
M  V30 8873 H 861.081 -4.72322 1.52073 0
M  V30 8874 N 860.254 -1.20106 -1.0204 0
M  V30 8875 C 861.217 -0.948261 -2.08664 0
M  V30 8876 C 862.217 0.0746753 -1.60627 0
M  V30 8877 O 863.407 -0.160981 -1.73455 0
M  V30 8878 C 860.539 -0.426854 -3.38217 0
M  V30 8879 H 861.732 -1.894 -2.32524 0
M  V30 8880 H 859.285 -1.0159 -1.18782 0
M  V30 8881 H 860.02 0.524532 -3.2003 0
M  V30 8882 H 859.805 -1.16451 -3.74408 0
M  V30 8883 H 861.295 -0.269346 -4.1673 0
M  V30 8884 N 861.732 1.21287 -1.00634 0
M  V30 8885 C 862.682 2.21541 -0.53886 0
M  V30 8886 C 863.666 1.55842 0.400256 0
M  V30 8887 O 864.858 1.75566 0.224889 0
M  V30 8888 C 861.987 3.43047 0.131796 0
M  V30 8889 C 861.073 4.1593 -0.828419 0
M  V30 8890 N 861.464 4.65359 -1.98178 0
M  V30 8891 C 859.762 4.41281 -0.647083 0
M  V30 8892 C 860.463 5.21079 -2.58557 0
M  V30 8893 N 859.439 5.10531 -1.86705 0
M  V30 8894 H 863.241 2.57413 -1.41831 0
M  V30 8895 H 860.755 1.37109 -0.870338 0
M  V30 8896 H 862.752 4.14079 0.484178 0
M  V30 8897 H 861.412 3.08683 1.00721 0
M  V30 8898 H 862.423 4.60896 -2.3621 0
M  V30 8899 H 859.1 4.17107 0.181139 0
M  V30 8900 H 860.49 5.6977 -3.56107 0
M  V30 8901 N 863.21 0.781244 1.36873 0
M  V30 8902 C 864.44 0.361042 2.03421 0
M  V30 8903 C 864.848 -1.02471 1.59048 0
M  V30 8904 O 864.191 -1.66712 0.771552 0
M  V30 8905 C 864.253 0.336202 3.57924 0
M  V30 8906 C 863.917 1.66815 4.25467 0
M  V30 8907 C 864.914 2.62224 4.48926 0
M  V30 8908 C 862.599 1.9452 4.63106 0
M  V30 8909 C 864.593 3.83538 5.09095 0
M  V30 8910 C 862.28 3.16103 5.22994 0
M  V30 8911 C 863.278 4.10431 5.45926 0
M  V30 8912 O 862.966 5.29871 6.04559 0
M  V30 8913 H 862.698 0.147956 0.65961 0
M  V30 8914 H 865.252 1.05895 1.75998 0
M  V30 8915 H 863.482 -0.418147 3.84433 0
M  V30 8916 H 865.171 -0.0582199 4.05858 0
M  V30 8917 H 865.937 2.42104 4.20251 0
M  V30 8918 H 861.816 1.21921 4.44585 0
M  V30 8919 H 865.36 4.57178 5.2691 0
M  V30 8920 H 861.257 3.36104 5.51094 0
M  V30 8921 H 862.025 5.30825 6.23031 0
M  V30 8922 N 864.689 -1.48329 0.532571 0
M  V30 8923 C 865.938 -2.017 -0.00259705 0
M  V30 8924 C 866.251 -1.41469 -1.35077 0
M  V30 8925 O 867.457 -1.86354 -1.97445 0
M  V30 8926 C 865.913 -3.59858 -0.0550179 0
M  V30 8927 C 865.521 -4.29073 1.28842 0
M  V30 8928 C 867.265 -4.21066 -0.538878 0
M  V30 8929 C 865.172 -5.79171 1.19644 0
M  V30 8930 H 864.102 -0.753985 -0.00474081 0
M  V30 8931 H 866.753 -1.70565 0.676739 0
M  V30 8932 H 865.135 -3.87846 -0.799486 0
M  V30 8933 H 866.309 -4.12755 2.04865 0
M  V30 8934 H 864.624 -3.79748 1.70822 0
M  V30 8935 H 867.221 -5.31026 -0.6257 0
M  V30 8936 H 867.564 -3.86559 -1.54525 0
M  V30 8937 H 868.097 -3.97517 0.149984 0
M  V30 8938 H 864.836 -6.18257 2.17805 0
M  V30 8939 H 864.356 -5.97895 0.477609 0
M  V30 8940 H 866.035 -6.40875 0.888186 0
M  V30 8941 N 866.167 -0.267825 -1.55308 0
M  V30 8942 C 867.444 0.402449 -1.91415 0
M  V30 8943 C 867.824 1.7428 -1.1912 0
M  V30 8944 O 867.172 2.2631 -0.315609 0
M  V30 8945 C 867.382 0.549926 -3.4464 0
M  V30 8946 C 868.73 0.836188 -4.16285 0
M  V30 8947 O 869.754 0.635009 -3.50494 0
M  V30 8948 O 868.613 1.22051 -5.32697 0
M  V30 8949 H 865.707 0.219177 -0.797427 0
M  V30 8950 H 868.253 -0.313439 -1.6678 0
M  V30 8951 H 867.025 -0.393641 -3.89315 0
M  V30 8952 H 866.648 1.31556 -3.75205 0
M  V30 8953 N 867.645 1.57599 0.00500368 0
M  V30 8954 C 868.893 1.89973 0.68953 0
M  V30 8955 C 869.214 0.868531 1.7459 0
M  V30 8956 O 868.484 -0.0947367 1.95671 0
M  V30 8957 H 867.064 0.701153 0.25767 0
M  V30 8958 H 869.726 1.94869 -0.0347392 0
M  V30 8959 H 868.822 2.89584 1.16394 0
M  V30 8960 N 869.123 -0.277682 1.55134 0
M  V30 8961 C 870.534 -0.849063 1.66276 0
M  V30 8962 C 870.885 -1.87223 0.5867 0
M  V30 8963 O 870.01 -2.14676 -0.272635 0
M  V30 8964 C 870.605 -1.54681 3.01429 0
M  V30 8965 C 869.164 -2.06628 3.14614 0
M  V30 8966 C 868.311 -0.906748 2.62056 0
M  V30 8967 H 871.262 -0.0541357 1.58608 0
M  V30 8968 H 871.283 -2.41356 2.94156 0
M  V30 8969 H 870.795 -0.80189 3.79725 0
M  V30 8970 H 868.896 -2.84095 2.41082 0
M  V30 8971 H 869.009 -2.2848 4.2111 0
M  V30 8972 H 867.373 -1.29882 2.19095 0
M  V30 8973 H 868.156 -0.175414 3.42852 0
M  V30 8974 N 870.601 -1.47988 -0.541979 0
M  V30 8975 C 871.551 -1.58019 -1.64359 0
M  V30 8976 C 872.535 -0.438056 -1.54822 0
M  V30 8977 O 873.727 -0.688837 -1.63046 0
M  V30 8978 C 870.856 -1.61182 -3.03109 0
M  V30 8979 C 869.942 -2.80834 -3.17794 0
M  V30 8980 N 870.333 -4.05379 -3.02492 0
M  V30 8981 C 868.631 -2.77914 -3.48826 0
M  V30 8982 C 869.332 -4.85592 -3.20274 0
M  V30 8983 N 868.308 -4.18188 -3.47304 0
M  V30 8984 H 872.11 -2.52071 -1.5112 0
M  V30 8985 H 869.624 -1.44193 -0.747137 0
M  V30 8986 H 871.621 -1.66461 -3.82226 0
M  V30 8987 H 870.281 -0.682375 -3.17449 0
M  V30 8988 H 871.292 -4.36003 -2.79503 0
M  V30 8989 H 867.969 -1.94174 -3.69598 0
M  V30 8990 H 869.359 -5.94394 -3.13282 0
M  V30 8991 N 872.079 0.78992 -1.36375 0
M  V30 8992 C 873.319 1.56098 -1.31958 0
M  V30 8993 C 873.683 1.91738 0.100197 0
M  V30 8994 O 874.884 2.67451 0.268913 0
M  V30 8995 C 873.155 2.80406 -2.21601 0
M  V30 8996 S 874.714 3.70655 -2.34863 0
M  V30 8997 H 871.532 0.534632 -0.46871 0
M  V30 8998 H 874.134 0.930417 -1.7194 0
M  V30 8999 H 872.838 2.52273 -3.23707 0
M  V30 9000 H 872.369 3.48436 -1.82637 0
M  V30 9001 H 874.384 4.71509 -1.54575 0
M  V30 9002 N 873.557 1.20646 1.01402 0
M  V30 9003 C 874.803 1.0197 1.753 0
M  V30 9004 C 875.136 -0.446803 1.8899 0
M  V30 9005 O 874.411 -1.33169 1.41762 0
M  V30 9006 C 874.694 1.70693 3.17074 0
M  V30 9007 C 874.547 3.24805 3.11162 0
M  V30 9008 C 875.866 1.44212 4.15802 0
M  V30 9009 H 872.985 0.371844 0.636318 0
M  V30 9010 H 875.627 1.48696 1.18277 0
M  V30 9011 H 873.777 1.30968 3.65759 0
M  V30 9012 H 875.449 3.73841 2.70261 0
M  V30 9013 H 873.692 3.55576 2.48492 0
M  V30 9014 H 874.363 3.68049 4.11393 0
M  V30 9015 H 876.839 1.7868 3.75783 0
M  V30 9016 H 875.715 1.94825 5.13161 0
M  V30 9017 H 875.976 0.370252 4.40547 0
M  V30 9018 N 875.035 -1.20752 1.01276 0
M  V30 9019 C 875.982 -2.234 0.579732 0
M  V30 9020 C 876.952 -1.61256 -0.398206 0
M  V30 9021 O 878.137 -1.8845 -0.29851 0
M  V30 9022 C 875.277 -3.45008 -0.0797006 0
M  V30 9023 C 874.39 -4.21597 0.942343 0
M  V30 9024 C 873.525 -5.30591 0.254364 0
M  V30 9025 C 872.564 -5.98919 1.26343 0
M  V30 9026 N 871.701 -6.99511 0.602384 0
M  V30 9027 H 876.541 -2.59801 1.45971 0
M  V30 9028 H 874.078 -1.27663 0.730787 0
M  V30 9029 H 876.036 -4.1444 -0.479125 0
M  V30 9030 H 874.666 -3.09312 -0.923354 0
M  V30 9031 H 873.718 -3.51268 1.45996 0
M  V30 9032 H 875.03 -4.68576 1.70992 0
M  V30 9033 H 874.184 -6.06368 -0.200763 0
M  V30 9034 H 872.923 -4.84639 -0.545553 0
M  V30 9035 H 871.928 -5.21906 1.72898 0
M  V30 9036 H 873.153 -6.46957 2.06456 0
M  V30 9037 H 871.099 -6.55759 -0.177734 0
M  V30 9038 H 871.016 -7.44597 1.30809 0
M  V30 9039 H 872.284 -7.79313 0.17072 0
M  V30 9040 N 876.513 -0.788492 -1.36457 0
M  V30 9041 C 877.741 -0.372365 -2.03522 0
M  V30 9042 C 878.156 1.01093 -1.59454 0
M  V30 9043 O 877.513 1.64824 -0.783535 0
M  V30 9044 C 877.564 -0.425435 -3.58988 0
M  V30 9045 O 877.285 -1.75418 -4.01448 0
M  V30 9046 C 878.786 0.000180167 -4.433 0
M  V30 9047 H 876.006 -0.1536 -0.653183 0
M  V30 9048 H 878.55 -1.06708 -1.74452 0
M  V30 9049 H 876.705 0.220856 -3.8677 0
M  V30 9050 H 877.119 -1.70437 -4.96036 0
M  V30 9051 H 878.593 -0.0880919 -5.5193 0
M  V30 9052 H 879.07 1.05269 -4.26398 0
M  V30 9053 H 879.676 -0.618563 -4.20778 0
M  V30 9054 N 877.991 1.48044 -0.54043 0
M  V30 9055 C 879.231 2.04396 -0.012296 0
M  V30 9056 C 879.595 1.40748 1.30591 0
M  V30 9057 O 880.796 1.88048 1.92072 0
M  V30 9058 C 879.067 3.5727 0.0964302 0
M  V30 9059 S 880.626 4.35041 0.573117 0
M  V30 9060 H 877.444 0.710795 -0.0170735 0
M  V30 9061 H 880.046 1.81625 -0.723362 0
M  V30 9062 H 878.75 4.01124 -0.86762 0
M  V30 9063 H 878.281 3.84511 0.83156 0
M  V30 9064 H 880.296 4.6099 1.83583 0
M  V30 9065 N 879.47 0.276058 1.55163 0
M  V30 9066 C 880.881 -0.221516 1.85381 0
M  V30 9067 C 881.232 -1.55372 1.19808 0
M  V30 9068 O 880.357 -2.10855 0.486742 0
M  V30 9069 C 880.952 -0.408706 3.36326 0
M  V30 9070 C 879.511 -0.850512 3.66665 0
M  V30 9071 C 878.658 0.055656 2.77244 0
M  V30 9072 H 881.609 0.497819 1.5069 0
M  V30 9073 H 881.63 -1.24711 3.59482 0
M  V30 9074 H 881.142 0.561052 3.84023 0
M  V30 9075 H 879.243 -1.83171 3.24468 0
M  V30 9076 H 879.356 -0.687181 4.74146 0
M  V30 9077 H 877.72 -0.460819 2.50497 0
M  V30 9078 H 878.503 1.02131 3.27756 0
M  V30 9079 N 880.948 -1.576 0.00335426 0
M  V30 9080 C 881.911 -2.07576 -0.971838 0
M  V30 9081 C 882.911 -0.985796 -1.27038 0
M  V30 9082 O 884.101 -1.24833 -1.21501 0
M  V30 9083 C 881.233 -2.52003 -2.29581 0
M  V30 9084 H 882.426 -2.95008 -0.539481 0
M  V30 9085 H 879.979 -1.54381 -0.244186 0
M  V30 9086 H 880.714 -1.67825 -2.77498 0
M  V30 9087 H 880.499 -3.31609 -2.09231 0
M  V30 9088 H 881.989 -2.90983 -2.99531 0
M  V30 9089 N 882.426 0.269451 -1.5528 0
M  V30 9090 C 883.674 0.998604 -1.75705 0
M  V30 9091 C 883.995 1.86691 -0.563175 0
M  V30 9092 O 883.265 1.91305 0.421811 0
M  V30 9093 H 881.845 0.371698 -0.647958 0
M  V30 9094 H 884.507 0.292826 -1.92688 0
M  V30 9095 H 883.603 1.63348 -2.6594 0
M  V30 9096 N 883.904 1.48273 0.534124 0
M  V30 9097 C 885.15 1.56311 1.29208 0
M  V30 9098 C 885.483 0.234481 1.92779 0
M  V30 9099 O 884.758 -0.759143 1.79073 0
M  V30 9100 C 885.041 2.69831 2.3846 0
M  V30 9101 C 884.894 4.12385 1.79608 0
M  V30 9102 C 886.213 2.79133 3.40254 0
M  V30 9103 H 883.332 0.56899 0.468422 0
M  V30 9104 H 885.974 1.80429 0.595438 0
M  V30 9105 H 884.124 2.49397 2.97881 0
M  V30 9106 H 885.796 4.44246 1.24269 0
M  V30 9107 H 884.039 4.19579 1.10162 0
M  V30 9108 H 884.71 4.87629 2.58693 0
M  V30 9109 H 887.186 2.97632 2.90783 0
M  V30 9110 H 886.062 3.60298 4.14097 0
M  V30 9111 H 886.323 1.87122 4.00547 0
M  V30 9112 N 885.382 -0.782676 1.36792 0
M  V30 9113 C 886.315 -1.90241 1.2603 0
M  V30 9114 C 887.293 -1.61969 0.143055 0
M  V30 9115 O 888.477 -1.85843 0.315366 0
M  V30 9116 C 885.604 -3.25218 0.946082 0
M  V30 9117 C 884.65 -3.72414 2.0787 0
M  V30 9118 S 885.483 -3.87376 3.69729 0
M  V30 9119 C 886.639 -5.25219 3.40435 0
M  V30 9120 H 886.872 -1.99079 2.20805 0
M  V30 9121 H 884.405 -0.942625 1.22286 0
M  V30 9122 H 886.363 -4.03183 0.771612 0
M  V30 9123 H 885.024 -3.14096 0.0159991 0
M  V30 9124 H 884.217 -4.7024 1.81358 0
M  V30 9125 H 883.819 -3.01519 2.21274 0
M  V30 9126 H 886.111 -6.10025 2.94746 0
M  V30 9127 H 887.054 -5.56738 4.37549 0
M  V30 9128 H 887.462 -4.92638 2.75622 0
M  V30 9129 N 886.86 -1.21182 -1.00761 0
M  V30 9130 C 888.108 -1.02543 -1.74153 0
M  V30 9131 C 888.429 0.442372 -1.89916 0
M  V30 9132 O 887.699 1.31927 -1.44818 0
M  V30 9133 H 886.279 -0.37644 -0.645214 0
M  V30 9134 H 888.941 -1.52446 -1.21434 0
M  V30 9135 H 888.037 -1.49122 -2.7417 0
M  V30 9136 N 888.338 1.20213 -1.01915 0
M  V30 9137 C 889.248 2.26763 -0.601311 0
M  V30 9138 C 890.264 1.70185 0.362369 0
M  V30 9139 O 891.44 2.00165 0.222682 0
M  V30 9140 C 888.505 3.46662 0.0512879 0
M  V30 9141 C 887.566 4.18459 -0.958659 0
M  V30 9142 C 886.799 5.32634 -0.337107 0
M  V30 9143 O 887.022 5.63841 0.86251 0
M  V30 9144 O 885.956 5.9258 -1.05511 0
M  V30 9145 H 889.782 2.64725 -1.48844 0
M  V30 9146 H 887.367 1.2688 -0.788784 0
M  V30 9147 H 889.249 4.19345 0.41564 0
M  V30 9148 H 887.924 3.1057 0.912572 0
M  V30 9149 H 886.831 3.47937 -1.37442 0
M  V30 9150 H 888.164 4.58498 -1.78999 0
M  V30 9151 N 889.816 0.795718 1.36037 0
M  V30 9152 C 890.764 0.18649 2.31851 0
M  V30 9153 C 891.758 -0.657704 1.56111 0
M  V30 9154 O 892.964 -0.552083 1.71324 0
M  V30 9155 H 889.339 0.0415363 0.750852 0
M  V30 9156 H 891.31 1.00992 2.8079 0
M  V30 9157 C 890.059 -0.65918 3.41394 0
M  V30 9158 H 889.382 -0.01894 3.99796 0
M  V30 9159 H 890.822 -1.05202 4.10741 0
M  V30 9160 C 889.281 -1.82011 2.83502 0
M  V30 9161 O 889.811 -2.91703 2.76174 0
M  V30 9162 N 888.017 -1.62821 2.40703 0
M  V30 9163 H 887.564 -0.735965 2.46863 0
M  V30 9164 H 887.522 -2.40657 2.02316 0
M  V30 9165 N 891.294 -1.47756 0.548274 0
M  V30 9166 C 892.242 -2.3158 -0.217584 0
M  V30 9167 C 893.236 -1.42372 -0.917957 0
M  V30 9168 O 894.442 -1.59184 -0.840259 0
M  V30 9169 H 890.817 -0.74671 -0.0890388 0
M  V30 9170 H 892.788 -2.94032 0.508719 0
M  V30 9171 C 891.537 -3.24834 -1.24008 0
M  V30 9172 H 890.86 -3.93435 -0.710572 0
M  V30 9173 H 892.3 -3.86336 -1.74701 0
M  V30 9174 C 890.759 -2.47724 -2.2833 0
M  V30 9175 O 891.289 -2.21522 -3.35098 0
M  V30 9176 N 889.495 -2.08891 -2.02022 0
M  V30 9177 H 889.042 -2.30401 -1.1521 0
M  V30 9178 H 889 -1.57613 -2.7204 0
M  V30 9179 N 892.772 -0.284283 -1.55015 0
M  V30 9180 C 894 0.332948 -2.04203 0
M  V30 9181 C 894.415 1.48783 -1.16229 0
M  V30 9182 O 893.772 1.81567 -0.184323 0
M  V30 9183 C 893.823 0.805207 -3.52418 0
M  V30 9184 O 893.544 -0.303689 -4.37046 0
M  V30 9185 C 895.045 1.48931 -4.17534 0
M  V30 9186 H 892.265 0.0747447 -0.666824 0
M  V30 9187 H 894.809 -0.419048 -2.00161 0
M  V30 9188 H 892.964 1.50727 -3.56876 0
M  V30 9189 H 893.378 0.0609703 -5.24465 0
M  V30 9190 H 894.852 1.77108 -5.22816 0
M  V30 9191 H 895.329 2.42389 -3.66257 0
M  V30 9192 H 895.935 0.830867 -4.17105 0
M  V30 9193 N 894.251 1.57596 -0.0117121 0
M  V30 9194 C 895.181 2.12188 0.9746 0
M  V30 9195 C 896.162 1.03379 1.35081 0
M  V30 9196 O 897.347 1.31123 1.4325 0
M  V30 9197 C 894.477 2.63477 2.26268 0
M  V30 9198 C 893.431 3.76917 2.02774 0
M  V30 9199 C 892.757 4.14566 3.37697 0
M  V30 9200 C 894.057 5.03715 1.38089 0
M  V30 9201 H 895.751 2.9485 0.520007 0
M  V30 9202 H 893.297 1.41836 0.248685 0
M  V30 9203 H 895.25 3.00299 2.95633 0
M  V30 9204 H 893.974 1.77953 2.73862 0
M  V30 9205 H 892.633 3.40507 1.35832 0
M  V30 9206 H 892.281 3.26048 3.83016 0
M  V30 9207 H 891.981 4.91 3.22789 0
M  V30 9208 H 893.505 4.53956 4.08358 0
M  V30 9209 H 894.919 5.38233 1.97428 0
M  V30 9210 H 893.316 5.85032 1.33634 0
M  V30 9211 H 894.386 4.83624 0.351575 0
M  V30 9212 N 895.729 -0.261212 1.5542 0
M  V30 9213 C 896.975 -0.992699 1.76843 0
M  V30 9214 C 897.308 -1.8551 0.574428 0
M  V30 9215 O 896.583 -1.89739 -0.427713 0
M  V30 9216 C 896.866 -1.86532 3.08022 0
M  V30 9217 C 896.719 -1.03206 4.378 0
M  V30 9218 C 898.038 -2.85036 3.35324 0
M  V30 9219 H 895.157 -0.359473 0.643388 0
M  V30 9220 H 897.799 -0.264214 1.88154 0
M  V30 9221 H 895.949 -2.48644 2.9851 0
M  V30 9222 H 897.621 -0.430743 4.59285 0
M  V30 9223 H 895.864 -0.335911 4.32497 0
M  V30 9224 H 896.535 -1.6761 5.25938 0
M  V30 9225 H 899.011 -2.3306 3.44706 0
M  V30 9226 H 897.887 -3.43226 4.28354 0
M  V30 9227 H 898.148 -3.60768 2.55537 0
M  V30 9228 N 897.207 -1.48554 -0.526253 0
M  V30 9229 C 898.453 -1.57972 -1.28127 0
M  V30 9230 C 898.808 -0.251973 -1.90743 0
M  V30 9231 O 898.101 0.745524 -1.76501 0
M  V30 9232 C 898.295 -2.65739 -2.38993 0
M  V30 9233 C 898.124 -4.08864 -1.87244 0
M  V30 9234 C 896.894 -4.75959 -1.6968 0
M  V30 9235 C 899.092 -4.94912 -1.39882 0
M  V30 9236 N 897.074 -6.03486 -1.12596 0
M  V30 9237 C 898.445 -6.12714 -0.947696 0
M  V30 9238 C 900.5 -4.81107 -1.2822 0
M  V30 9239 C 899.203 -7.18234 -0.391507 0
M  V30 9240 C 901.229 -5.86752 -0.740001 0
M  V30 9241 C 900.591 -7.03765 -0.298968 0
M  V30 9242 H 896.69 -0.632588 -0.459735 0
M  V30 9243 H 899.274 -1.85452 -0.59294 0
M  V30 9244 H 897.445 -2.40075 -3.05317 0
M  V30 9245 H 899.177 -2.64821 -3.06026 0
M  V30 9246 H 895.932 -4.32351 -1.93312 0
M  V30 9247 H 896.356 -6.71509 -0.860541 0
M  V30 9248 H 900.998 -3.90978 -1.60922 0
M  V30 9249 H 898.716 -8.08083 -0.0521685 0
M  V30 9250 H 902.302 -5.78125 -0.652889 0
M  V30 9251 H 901.182 -7.84117 0.114052 0
M  V30 9252 N 898.685 0.775411 -1.37205 0
M  V30 9253 C 899.632 1.88857 -1.32671 0
M  V30 9254 C 900.602 1.64976 -0.192899 0
M  V30 9255 O 901.787 1.86944 -0.381673 0
M  V30 9256 C 898.927 3.25871 -1.13588 0
M  V30 9257 C 898.04 3.61731 -2.36167 0
M  V30 9258 C 897.175 4.87934 -2.09985 0
M  V30 9259 C 896.214 5.16514 -3.2845 0
M  V30 9260 N 895.351 6.33905 -3.01842 0
M  V30 9261 H 900.191 1.92068 -2.27846 0
M  V30 9262 H 897.728 0.939066 -1.13225 0
M  V30 9263 H 899.686 4.04903 -1.00546 0
M  V30 9264 H 898.316 3.22045 -0.220613 0
M  V30 9265 H 897.368 2.77712 -2.59962 0
M  V30 9266 H 898.68 3.78792 -3.24528 0
M  V30 9267 H 897.834 5.74863 -1.93953 0
M  V30 9268 H 896.573 4.7297 -1.18956 0
M  V30 9269 H 895.578 4.28063 -3.45025 0
M  V30 9270 H 896.803 5.33389 -4.20325 0
M  V30 9271 H 894.749 6.20306 -2.13439 0
M  V30 9272 H 894.666 6.51364 -3.83746 0
M  V30 9273 H 895.934 7.23779 -2.8942 0
M  V30 9274 N 900.163 1.21714 1.00117 0
M  V30 9275 C 901.393 1.06124 1.77261 0
M  V30 9276 C 901.801 -0.391717 1.85101 0
M  V30 9277 O 901.144 -1.28347 1.31426 0
M  V30 9278 C 901.206 1.58778 3.22536 0
M  V30 9279 C 900.87 3.07289 3.38264 0
M  V30 9280 C 901.867 4.04801 3.26239 0
M  V30 9281 C 899.552 3.46574 3.63582 0
M  V30 9282 C 901.546 5.39585 3.39303 0
M  V30 9283 C 899.233 4.81509 3.76288 0
M  V30 9284 C 900.231 5.77824 3.64155 0
M  V30 9285 O 899.919 7.1031 3.7645 0
M  V30 9286 H 899.651 0.372979 0.563793 0
M  V30 9287 H 902.205 1.61589 1.26799 0
M  V30 9288 H 900.435 0.977129 3.74151 0
M  V30 9289 H 902.124 1.38974 3.81367 0
M  V30 9290 H 902.89 3.75795 3.066 0
M  V30 9291 H 898.769 2.72137 3.72106 0
M  V30 9292 H 902.313 6.14744 3.2975 0
M  V30 9293 H 898.21 5.102 3.95432 0
M  V30 9294 H 898.978 7.17774 3.93374 0
M  V30 9295 N 901.641 -1.19671 1.02551 0
M  V30 9296 C 902.604 -2.20987 0.608055 0
M  V30 9297 C 903.604 -1.5745 -0.326534 0
M  V30 9298 O 904.794 -1.73827 -0.114003 0
M  V30 9299 C 901.926 -3.4072 -0.11074 0
M  V30 9300 H 903.119 -2.59434 1.50446 0
M  V30 9301 H 900.672 -1.3329 0.816307 0
M  V30 9302 H 901.407 -3.07787 -1.02165 0
M  V30 9303 H 901.192 -3.88069 0.560772 0
M  V30 9304 H 902.682 -4.15776 -0.389848 0
M  V30 9305 N 903.119 -0.802921 -1.35613 0
M  V30 9306 C 904.396 -0.304993 -1.93208 0
M  V30 9307 C 904.776 1.20488 -1.73337 0
M  V30 9308 O 904.124 2.00268 -1.10022 0
M  V30 9309 C 904.334 -0.712383 -3.41652 0
M  V30 9310 C 905.682 -0.699785 -4.18794 0
M  V30 9311 O 906.706 -0.653698 -3.5015 0
M  V30 9312 O 905.565 -0.754842 -5.41262 0
M  V30 9313 H 902.659 -0.0789127 -0.823226 0
M  V30 9314 H 905.205 -0.886372 -1.44712 0
M  V30 9315 H 903.977 -1.75316 -3.49829 0
M  V30 9316 H 903.6 -0.105614 -3.9746 0
M  V30 9317 N 904.597 1.47463 -0.556102 0
M  V30 9318 C 905.56 2.28478 0.181743 0
M  V30 9319 C 906.56 1.36886 0.843738 0
M  V30 9320 O 907.75 1.59527 0.69977 0
M  V30 9321 C 904.882 3.16534 1.26566 0
M  V30 9322 H 906.075 2.95182 -0.529892 0
M  V30 9323 H 903.628 1.53134 -0.313005 0
M  V30 9324 H 904.363 2.5452 2.00973 0
M  V30 9325 H 904.148 3.83939 0.795798 0
M  V30 9326 H 905.638 3.77579 1.78393 0
M  V30 9327 N 906.075 0.2925 1.54862 0
M  V30 9328 C 907.323 -0.318633 1.99572 0
M  V30 9329 C 907.644 -1.55062 1.1824 0
M  V30 9330 O 906.914 -1.93943 0.276226 0
M  V30 9331 H 905.494 -0.120722 0.737181 0
M  V30 9332 H 908.156 0.401862 1.90712 0
M  V30 9333 H 907.252 -0.596542 3.06346 0
M  V30 9334 N 907.553 -1.57587 0.0200696 0
M  V30 9335 C 908.503 -2.0616 -0.973751 0
M  V30 9336 C 909.487 -0.960282 -1.29102 0
M  V30 9337 O 910.679 -1.22391 -1.27865 0
M  V30 9338 C 907.808 -2.58487 -2.25919 0
M  V30 9339 C 906.894 -3.75533 -1.97068 0
M  V30 9340 N 907.285 -4.86482 -1.38451 0
M  V30 9341 C 905.583 -3.83847 -2.27107 0
M  V30 9342 C 906.284 -5.67773 -1.26527 0
M  V30 9343 N 905.26 -5.14398 -1.75772 0
M  V30 9344 H 909.062 -2.89346 -0.515365 0
M  V30 9345 H 906.576 -1.61341 -0.185163 0
M  V30 9346 H 908.573 -2.91572 -2.97979 0
M  V30 9347 H 907.233 -1.76728 -2.72392 0
M  V30 9348 H 908.244 -5.06922 -1.06069 0
M  V30 9349 H 904.921 -3.12978 -2.76316 0
M  V30 9350 H 906.311 -6.66966 -0.812785 0
M  V30 9351 N 909.032 0.252966 -1.55557 0
M  V30 9352 C 910.278 0.983306 -1.77367 0
M  V30 9353 C 910.611 1.85203 -0.584258 0
M  V30 9354 O 909.886 1.89963 0.417644 0
M  V30 9355 C 910.169 1.84896 -3.09007 0
M  V30 9356 C 910.022 1.00883 -4.38341 0
M  V30 9357 C 911.341 2.83254 -3.36831 0
M  V30 9358 H 908.46 0.356056 -0.645286 0
M  V30 9359 H 911.102 0.254232 -1.88291 0
M  V30 9360 H 909.252 2.47058 -2.99825 0
M  V30 9361 H 910.924 0.40638 -4.59507 0
M  V30 9362 H 909.167 0.31297 -4.3267 0
M  V30 9363 H 909.838 1.64818 -5.2682 0
M  V30 9364 H 912.314 2.31228 -3.45937 0
M  V30 9365 H 911.19 3.40949 -4.30169 0
M  V30 9366 H 911.451 3.59407 -2.57447 0
M  V30 9367 N 910.51 1.48831 0.518367 0
M  V30 9368 C 911.75 1.59045 1.28391 0
M  V30 9369 C 912.114 0.263443 1.90184 0
M  V30 9370 O 913.315 0.24064 2.67721 0
M  V30 9371 C 911.586 2.70536 2.33548 0
M  V30 9372 S 913.145 3.00591 3.19673 0
M  V30 9373 H 909.963 0.561182 0.436573 0
M  V30 9374 H 912.565 1.86409 0.589222 0
M  V30 9375 H 911.269 3.65499 1.86652 0
M  V30 9376 H 910.8 2.4511 3.07708 0
M  V30 9377 H 912.815 2.40779 4.33866 0
M  V30 9378 N 911.988 -0.768124 1.37614 0
M  V30 9379 C 912.938 -1.8718 1.30184 0
M  V30 9380 C 913.922 -1.59787 0.188943 0
M  V30 9381 O 915.114 -1.71855 0.423656 0
M  V30 9382 C 912.243 -3.24698 1.11471 0
M  V30 9383 C 911.329 -3.58031 2.27321 0
M  V30 9384 N 911.72 -3.6252 3.52722 0
M  V30 9385 C 910.018 -3.88216 2.19554 0
M  V30 9386 C 910.719 -3.92704 4.29137 0
M  V30 9387 N 909.695 -4.08789 3.58319 0
M  V30 9388 H 913.497 -1.88907 2.25147 0
M  V30 9389 H 911.011 -0.964753 1.30638 0
M  V30 9390 H 913.008 -4.0366 1.04233 0
M  V30 9391 H 911.668 -3.24232 0.174281 0
M  V30 9392 H 912.679 -3.44636 3.86583 0
M  V30 9393 H 909.356 -3.95551 1.33588 0
M  V30 9394 H 910.746 -4.02922 5.37683 0
M  V30 9395 N 913.466 -1.22244 -0.994698 0
M  V30 9396 C 914.396 -1.01513 -2.10279 0
M  V30 9397 C 915.377 0.0633365 -1.69982 0
M  V30 9398 O 916.562 -0.0985268 -1.9395 0
M  V30 9399 C 913.692 -0.59016 -3.42249 0
M  V30 9400 C 912.646 -1.61436 -3.96387 0
M  V30 9401 C 911.972 -1.04528 -5.24383 0
M  V30 9402 C 913.272 -3.00388 -4.27276 0
M  V30 9403 H 914.966 -1.94194 -2.2788 0
M  V30 9404 H 912.512 -0.935094 -1.09508 0
M  V30 9405 H 914.465 -0.432254 -4.19177 0
M  V30 9406 H 913.189 0.372308 -3.24471 0
M  V30 9407 H 911.848 -1.76001 -3.21589 0
M  V30 9408 H 911.496 -0.0742225 -5.02945 0
M  V30 9409 H 911.196 -1.72949 -5.61571 0
M  V30 9410 H 912.72 -0.898922 -6.03947 0
M  V30 9411 H 914.134 -2.89207 -4.95007 0
M  V30 9412 H 912.531 -3.65916 -4.75631 0
M  V30 9413 H 913.601 -3.50456 -3.35125 0
M  V30 9414 N 914.944 1.19125 -1.03184 0
M  V30 9415 C 916.184 1.90582 -0.738785 0
M  V30 9416 C 916.548 1.78004 0.719627 0
M  V30 9417 O 917.749 2.44084 1.12589 0
M  V30 9418 C 916.02 3.37319 -1.18114 0
M  V30 9419 S 917.579 4.26962 -1.01238 0
M  V30 9420 H 914.397 0.6582 -0.268875 0
M  V30 9421 H 916.999 1.43999 -1.32229 0
M  V30 9422 H 915.703 3.43999 -2.23814 0
M  V30 9423 H 915.234 3.88935 -0.591051 0
M  V30 9424 H 917.249 4.96143 0.0753558 0
M  V30 9425 N 916.422 0.810101 1.35185 0
M  V30 9426 C 917.372 0.195541 2.2716 0
M  V30 9427 C 918.356 -0.632691 1.47939 0
M  V30 9428 O 919.548 -0.489372 1.701 0
M  V30 9429 C 916.677 -0.652164 3.37049 0
M  V30 9430 C 915.763 0.185989 4.23692 0
M  V30 9431 N 916.154 1.25073 4.90092 0
M  V30 9432 C 914.452 -0.0318033 4.45989 0
M  V30 9433 C 915.153 1.76272 5.54349 0
M  V30 9434 N 914.129 1.06861 5.32993 0
M  V30 9435 H 917.931 1.01018 2.75994 0
M  V30 9436 H 915.445 0.651612 1.48754 0
M  V30 9437 H 917.442 -1.10851 4.01893 0
M  V30 9438 H 916.102 -1.46511 2.89767 0
M  V30 9439 H 917.113 1.63341 4.91467 0
M  V30 9440 H 913.79 -0.813607 4.09496 0
M  V30 9441 H 915.18 2.65278 6.17315 0
M  V30 9442 N 917.9 -1.47166 0.563914 0
M  V30 9443 C 919.311 -1.86231 0.132307 0
M  V30 9444 C 919.662 -1.46976 -1.29971 0
M  V30 9445 O 918.787 -0.875911 -1.97881 0
M  V30 9446 C 919.382 -3.37996 0.233335 0
M  V30 9447 C 917.941 -3.76127 -0.143278 0
M  V30 9448 C 917.088 -2.71212 0.577857 0
M  V30 9449 H 920.039 -1.38588 0.773249 0
M  V30 9450 H 920.06 -3.76558 -0.546309 0
M  V30 9451 H 919.572 -3.66535 1.27568 0
M  V30 9452 H 917.673 -3.53205 -1.18648 0
M  V30 9453 H 917.786 -4.78595 0.219952 0
M  V30 9454 H 916.15 -2.54692 0.020186 0
M  V30 9455 H 916.933 -3.02593 1.62149 0
M  V30 9456 N 919.378 -0.300708 -1.54705 0
M  V30 9457 C 920.326 0.591264 -2.2496 0
M  V30 9458 C 921.32 1.13725 -1.2555 0
M  V30 9459 O 922.526 1.08793 -1.43402 0
M  V30 9460 H 918.901 0.209278 -0.722293 0
M  V30 9461 H 920.872 -0.0238175 -2.9839 0
M  V30 9462 C 919.621 1.75179 -3.00346 0
M  V30 9463 H 918.944 1.34089 -3.76643 0
M  V30 9464 H 920.384 2.35198 -3.52786 0
M  V30 9465 C 918.843 2.65574 -2.07298 0
M  V30 9466 O 919.373 3.6666 -1.64083 0
M  V30 9467 N 917.579 2.33301 -1.7326 0
M  V30 9468 H 917.126 1.51142 -2.08599 0
M  V30 9469 H 917.084 2.94049 -1.11278 0
M  V30 9470 N 920.856 1.57574 -0.0284266 0
M  V30 9471 C 922.096 1.93637 0.65453 0
M  V30 9472 C 922.46 0.905015 1.69332 0
M  V30 9473 O 923.661 1.15181 2.42872 0
M  V30 9474 C 921.932 3.3462 1.25555 0
M  V30 9475 S 923.491 3.92609 1.95968 0
M  V30 9476 H 920.309 0.67755 0.215516 0
M  V30 9477 H 922.911 1.95284 -0.0919257 0
M  V30 9478 H 921.615 4.07499 0.487069 0
M  V30 9479 H 921.146 3.36415 2.03933 0
M  V30 9480 H 923.161 3.75988 3.23802 0
M  V30 9481 N 922.334 -0.244713 1.55689 0
M  V30 9482 C 923.562 -0.989944 1.8168 0
M  V30 9483 C 923.977 -1.78863 0.604449 0
M  V30 9484 O 923.334 -1.77437 -0.426907 0
M  V30 9485 C 923.385 -1.92607 3.05916 0
M  V30 9486 O 923.106 -1.1597 4.22472 0
M  V30 9487 C 924.607 -2.78711 3.44724 0
M  V30 9488 H 921.827 -0.2912 0.604519 0
M  V30 9489 H 924.371 -0.266938 2.0275 0
M  V30 9490 H 922.526 -2.60333 2.8689 0
M  V30 9491 H 922.94 -1.79311 4.92898 0
M  V30 9492 H 924.414 -3.40141 4.34751 0
M  V30 9493 H 924.891 -3.49935 2.6541 0
M  V30 9494 H 925.497 -2.16435 3.66109 0
M  V30 9495 N 923.813 -1.49104 -0.510467 0
M  V30 9496 C 925.043 -1.61571 -1.28757 0
M  V30 9497 C 925.451 -0.282638 -1.87077 0
M  V30 9498 O 924.794 0.740749 -1.68103 0
M  V30 9499 C 924.856 -2.61851 -2.46322 0
M  V30 9500 C 924.52 -4.06438 -2.08942 0
M  V30 9501 C 925.517 -4.93532 -1.63469 0
M  V30 9502 C 923.202 -4.52109 -2.18867 0
M  V30 9503 C 925.196 -6.24331 -1.28411 0
M  V30 9504 C 922.883 -5.82924 -1.83421 0
M  V30 9505 C 923.881 -6.68858 -1.38267 0
M  V30 9506 O 923.569 -7.97236 -1.03296 0
M  V30 9507 H 923.301 -0.547082 -0.397086 0
M  V30 9508 H 925.855 -1.95806 -0.620424 0
M  V30 9509 H 924.085 -2.22777 -3.16081 0
M  V30 9510 H 925.774 -2.63947 -3.08362 0
M  V30 9511 H 926.54 -4.59479 -1.55255 0
M  V30 9512 H 922.419 -3.85395 -2.52966 0
M  V30 9513 H 925.963 -6.9136 -0.930946 0
M  V30 9514 H 921.86 -6.16507 -1.91282 0
M  V30 9515 H 922.628 -8.10163 -1.16525 0
M  V30 9516 N 925.291 0.760815 -1.38019 0
M  V30 9517 C 926.539 1.51673 -1.33566 0
M  V30 9518 C 926.86 1.94852 0.076024 0
M  V30 9519 O 926.13 1.67112 1.02227 0
M  V30 9520 H 924.71 0.562581 -0.491438 0
M  V30 9521 H 927.372 0.904832 -1.72623 0
M  V30 9522 H 926.468 2.41102 -1.98182 0
M  V30 9523 N 926.769 1.22769 0.988202 0
M  V30 9524 C 928.009 1.06673 1.74356 0
M  V30 9525 C 928.373 -0.390737 1.87982 0
M  V30 9526 O 929.574 -0.672677 2.60247 0
M  V30 9527 C 927.845 1.76361 3.10856 0
M  V30 9528 S 929.404 1.75738 4.02071 0
M  V30 9529 H 926.222 0.381917 0.599717 0
M  V30 9530 H 928.824 1.55784 1.18117 0
M  V30 9531 H 927.528 2.81559 2.98584 0
M  V30 9532 H 927.059 1.27501 3.72165 0
M  V30 9533 H 929.074 0.810418 4.89537 0
M  V30 9534 N 928.247 -1.18576 1.03814 0
M  V30 9535 C 929.475 -1.92437 0.759966 0
M  V30 9536 C 929.89 -1.76031 -0.682526 0
M  V30 9537 O 929.247 -1.08829 -1.46501 0
M  V30 9538 C 929.298 -3.43923 1.11351 0
M  V30 9539 O 929.019 -3.5981 2.49937 0
M  V30 9540 C 930.52 -4.34888 0.859472 0
M  V30 9541 H 927.74 -0.610998 0.277349 0
M  V30 9542 H 930.284 -1.50448 1.38512 0
M  V30 9543 H 928.439 -3.83711 0.533362 0
M  V30 9544 H 928.853 -4.53569 2.63393 0
M  V30 9545 H 930.327 -5.39744 1.15672 0
M  V30 9546 H 930.804 -4.38717 -0.205839 0
M  V30 9547 H 931.41 -4.00795 1.42279 0
M  V30 9548 N 929.725 -0.817259 -1.34754 0
M  V30 9549 C 930.973 -0.401852 -1.98065 0
M  V30 9550 C 931.294 1.03718 -1.65129 0
M  V30 9551 O 930.564 1.71921 -0.939141 0
M  V30 9552 H 929.144 -0.145603 -0.732672 0
M  V30 9553 H 931.806 -1.04545 -1.64488 0
M  V30 9554 H 930.902 -0.516241 -3.07801 0
M  V30 9555 N 931.203 1.46865 -0.571711 0
M  V30 9556 C 932.614 1.86158 -0.142181 0
M  V30 9557 C 932.965 1.47663 1.2919 0
M  V30 9558 O 932.09 0.886393 1.97413 0
M  V30 9559 C 932.685 3.37867 -0.251256 0
M  V30 9560 C 931.244 3.76198 0.123329 0
M  V30 9561 C 930.391 2.70902 -0.592232 0
M  V30 9562 H 933.342 1.38176 -0.780587 0
M  V30 9563 H 933.363 3.76842 0.526331 0
M  V30 9564 H 932.875 3.65853 -1.2951 0
M  V30 9565 H 930.976 3.53829 1.16773 0
M  V30 9566 H 931.089 4.78471 -0.24533 0
M  V30 9567 H 929.453 2.54678 -0.0336927 0
M  V30 9568 H 930.236 3.01729 -1.63751 0
M  V30 9569 N 932.681 0.308908 1.54543 0
M  V30 9570 C 933.929 -0.297447 1.99899 0
M  V30 9571 C 934.25 -1.53799 1.19878 0
M  V30 9572 O 933.52 -1.93639 0.29678 0
M  V30 9573 H 932.1 -0.112897 0.738419 0
M  V30 9574 H 934.762 0.422067 1.90275 0
M  V30 9575 H 933.858 -0.564016 3.06961 0
M  V30 9576 N 934.159 -1.57557 0.0367827 0
M  V30 9577 C 935.089 -2.13712 -0.940719 0
M  V30 9578 C 936.07 -1.05515 -1.33419 0
M  V30 9579 O 937.255 -1.33385 -1.41146 0
M  V30 9580 C 934.385 -2.67043 -2.22048 0
M  V30 9581 C 933.339 -3.80096 -1.96752 0
M  V30 9582 C 932.665 -4.19886 -3.31059 0
M  V30 9583 C 933.965 -5.05848 -1.30058 0
M  V30 9584 H 935.659 -2.9564 -0.473033 0
M  V30 9585 H 933.205 -1.42214 -0.226089 0
M  V30 9586 H 935.158 -3.04964 -2.90818 0
M  V30 9587 H 933.882 -1.82287 -2.70996 0
M  V30 9588 H 932.541 -3.42625 -1.30398 0
M  V30 9589 H 932.189 -3.32101 -3.77781 0
M  V30 9590 H 931.889 -4.96073 -3.14937 0
M  V30 9591 H 933.413 -4.60395 -4.01084 0
M  V30 9592 H 934.827 -5.41306 -1.8884 0
M  V30 9593 H 933.224 -5.87084 -1.24309 0
M  V30 9594 H 934.294 -4.84122 -0.274591 0
M  V30 9595 N 935.637 0.236453 -1.55816 0
M  V30 9596 C 936.547 1.31418 -1.94336 0
M  V30 9597 C 937.563 1.52095 -0.845164 0
M  V30 9598 O 938.739 1.65515 -1.14746 0
M  V30 9599 C 935.804 2.6468 -2.23932 0
M  V30 9600 C 934.865 2.52435 -3.47239 0
M  V30 9601 C 934.098 3.79342 -3.75414 0
M  V30 9602 O 934.321 4.81694 -3.05495 0
M  V30 9603 O 933.255 3.77347 -4.68927 0
M  V30 9604 H 937.081 1.01739 -2.86152 0
M  V30 9605 H 934.666 0.438084 -1.42833 0
M  V30 9606 H 936.548 3.4341 -2.44228 0
M  V30 9607 H 935.223 2.94071 -1.35292 0
M  V30 9608 H 934.13 1.71955 -3.32238 0
M  V30 9609 H 935.463 2.27987 -4.36214 0
M  V30 9610 N 937.115 1.49373 0.502552 0
M  V30 9611 C 938.363 1.58467 1.25429 0
M  V30 9612 C 938.684 0.272593 1.93085 0
M  V30 9613 O 937.954 -0.707947 1.82661 0
M  V30 9614 H 936.534 0.583866 0.46595 0
M  V30 9615 H 939.196 1.8599 0.582568 0
M  V30 9616 H 938.292 2.37993 2.01906 0
M  V30 9617 N 938.594 -0.753485 1.38421 0
M  V30 9618 C 939.834 -1.52544 1.3605 0
M  V30 9619 C 940.198 -1.91937 -0.0493257 0
M  V30 9620 O 941.399 -2.6807 -0.197908 0
M  V30 9621 C 939.67 -2.74432 2.28958 0
M  V30 9622 S 941.229 -3.64297 2.44607 0
M  V30 9623 H 938.047 -0.522017 0.48272 0
M  V30 9624 H 940.649 -0.884503 1.74347 0
M  V30 9625 H 939.353 -2.43602 3.30282 0
M  V30 9626 H 938.884 -3.43471 1.91811 0
M  V30 9627 H 940.899 -4.67245 1.67022 0
M  V30 9628 N 940.072 -1.23292 -0.981677 0
M  V30 9629 C 941.483 -1.05936 -1.53735 0
M  V30 9630 C 941.834 0.373695 -1.92608 0
M  V30 9631 O 940.959 1.26024 -1.75917 0
M  V30 9632 C 941.554 -1.91682 -2.79363 0
M  V30 9633 C 940.113 -1.78591 -3.31334 0
M  V30 9634 C 939.26 -1.87463 -2.04335 0
M  V30 9635 H 942.211 -1.36973 -0.801505 0
M  V30 9636 H 942.232 -1.44085 -3.52164 0
M  V30 9637 H 941.744 -2.95975 -2.51039 0
M  V30 9638 H 939.845 -0.770755 -3.64541 0
M  V30 9639 H 939.958 -2.61902 -4.01179 0
M  V30 9640 H 938.322 -1.3103 -2.18411 0
M  V30 9641 H 939.105 -2.9331 -1.78394 0
M  V30 9642 N 941.55 1.18024 -1.04442 0
M  V30 9643 C 942.778 1.92032 -0.770161 0
M  V30 9644 C 943.193 1.76391 0.673181 0
M  V30 9645 O 942.55 1.09604 1.45922 0
M  V30 9646 C 942.601 3.43328 -1.13173 0
M  V30 9647 O 942.322 3.5848 -2.51841 0
M  V30 9648 C 943.823 4.34427 -0.882523 0
M  V30 9649 H 941.043 0.609518 -0.280586 0
M  V30 9650 H 943.587 1.49711 -1.39308 0
M  V30 9651 H 941.742 3.83423 -0.553704 0
M  V30 9652 H 942.156 4.52166 -2.65794 0
M  V30 9653 H 943.63 5.39123 -1.18533 0
M  V30 9654 H 944.107 4.3882 0.18257 0
M  V30 9655 H 944.713 4.00035 -1.44403 0
M  V30 9656 N 943.028 0.824394 1.34319 0
M  V30 9657 C 943.976 0.235628 2.31403 0
M  V30 9658 C 944.97 -0.624443 1.57471 0
M  V30 9659 O 946.176 -0.515618 1.72457 0
M  V30 9660 H 942.551 0.0574537 0.749802 0
M  V30 9661 H 944.522 1.06925 2.78585 0
M  V30 9662 C 943.271 -0.586617 3.42716 0
M  V30 9663 H 942.594 0.0658669 3.99746 0
M  V30 9664 H 944.034 -0.964661 4.1288 0
M  V30 9665 C 942.493 -1.75957 2.87299 0
M  V30 9666 O 943.023 -2.8578 2.82299 0
M  V30 9667 N 941.229 -1.57678 2.44102 0
M  V30 9668 H 940.776 -0.683436 2.48369 0
M  V30 9669 H 940.734 -2.36311 2.07375 0
M  V30 9670 N 944.506 -1.46559 0.579492 0
M  V30 9671 C 945.754 -2.02 0.0637157 0
M  V30 9672 C 946.075 -1.45378 -1.29962 0
M  V30 9673 O 945.345 -0.637262 -1.85245 0
M  V30 9674 H 943.925 -0.746717 0.0205638 0
M  V30 9675 H 946.587 -1.79702 0.754544 0
M  V30 9676 H 945.683 -3.12099 -0.00770254 0
M  V30 9677 N 945.984 -0.3171 -1.54377 0
M  V30 9678 C 947.395 0.172287 -1.85903 0
M  V30 9679 C 947.746 1.52141 -1.23885 0
M  V30 9680 O 946.871 2.0949 -0.542476 0
M  V30 9681 C 947.466 0.319392 -3.37291 0
M  V30 9682 C 946.025 0.752998 -3.68791 0
M  V30 9683 C 945.172 -0.129143 -2.76999 0
M  V30 9684 H 948.123 -0.537597 -1.49317 0
M  V30 9685 H 948.144 1.15137 -3.62662 0
M  V30 9686 H 947.656 -0.662671 -3.82401 0
M  V30 9687 H 945.757 1.74504 -3.2921 0
M  V30 9688 H 945.87 0.561228 -4.75801 0
M  V30 9689 H 944.234 0.394242 -2.5163 0
M  V30 9690 H 945.017 -1.10785 -3.24933 0
M  V30 9691 N 947.462 1.57535 -0.0451378 0
M  V30 9692 C 948.409 2.11176 0.931313 0
M  V30 9693 C 949.379 1.01765 1.31275 0
M  V30 9694 O 950.564 1.29279 1.40327 0
M  V30 9695 C 947.704 2.65639 2.20295 0
M  V30 9696 C 946.817 3.89114 1.87654 0
M  V30 9697 C 945.952 4.31914 3.09232 0
M  V30 9698 C 944.991 5.48105 2.72484 0
M  V30 9699 N 944.128 5.85986 3.86736 0
M  V30 9700 H 948.968 2.94318 0.466986 0
M  V30 9701 H 946.505 1.45462 0.218886 0
M  V30 9702 H 948.463 2.95312 2.94697 0
M  V30 9703 H 947.093 1.85303 2.64316 0
M  V30 9704 H 946.145 3.6607 1.03427 0
M  V30 9705 H 947.457 4.7358 1.56601 0
M  V30 9706 H 946.611 4.63108 3.91939 0
M  V30 9707 H 945.35 3.46247 3.43459 0
M  V30 9708 H 944.355 5.16589 1.88192 0
M  V30 9709 H 945.58 6.35482 2.39455 0
M  V30 9710 H 943.526 5.03273 4.20775 0
M  V30 9711 H 943.443 6.65129 3.5936 0
M  V30 9712 H 944.711 6.21793 4.701 0
M  V30 9713 N 948.94 -0.228186 1.55939 0
M  V30 9714 C 950.189 -0.951563 1.77843 0
M  V30 9715 C 950.502 -1.85763 0.612501 0
M  V30 9716 O 951.708 -2.61916 0.715006 0
M  V30 9717 C 950.164 -1.74216 3.14923 0
M  V30 9718 C 949.772 -0.882569 4.39221 0
M  V30 9719 C 951.516 -2.45715 3.46156 0
M  V30 9720 C 949.423 -1.67014 5.67327 0
M  V30 9721 H 948.353 -0.359035 0.663031 0
M  V30 9722 H 951.004 -0.205636 1.82344 0
M  V30 9723 H 949.386 -2.53075 3.0458 0
M  V30 9724 H 950.56 -0.13499 4.60602 0
M  V30 9725 H 948.875 -0.280022 4.15457 0
M  V30 9726 H 951.472 -3.05127 4.39092 0
M  V30 9727 H 951.815 -3.1827 2.68346 0
M  V30 9728 H 952.348 -1.73852 3.57799 0
M  V30 9729 H 949.087 -0.987985 6.48012 0
M  V30 9730 H 948.607 -2.3925 5.50018 0
M  V30 9731 H 950.286 -2.23252 6.07262 0
M  V30 9732 N 950.418 -1.49637 -0.494624 0
M  V30 9733 C 951.829 -1.52573 -1.07603 0
M  V30 9734 C 952.18 -0.315591 -1.93645 0
M  V30 9735 O 951.305 0.573966 -2.08649 0
M  V30 9736 C 951.9 -2.7648 -1.95817 0
M  V30 9737 C 950.459 -2.82173 -2.49109 0
M  V30 9738 C 949.606 -2.4657 -1.2688 0
M  V30 9739 H 952.557 -1.56242 -0.278251 0
M  V30 9740 H 952.578 -2.57003 -2.80588 0
M  V30 9741 H 952.09 -3.64538 -1.33167 0
M  V30 9742 H 950.191 -1.9841 -3.15379 0
M  V30 9743 H 950.304 -3.84501 -2.85825 0
M  V30 9744 H 948.668 -1.98489 -1.59607 0
M  V30 9745 H 949.451 -3.3691 -0.659281 0
M  V30 9746 N 951.896 0.746133 -1.38819 0
M  V30 9747 C 953.121 1.54049 -1.38866 0
M  V30 9748 C 953.546 1.88092 0.0176624 0
M  V30 9749 O 952.904 1.51113 1.00173 0
M  V30 9750 C 952.952 2.8116 -2.25791 0
M  V30 9751 O 952.056 3.76623 -1.68014 0
M  V30 9752 H 951.397 0.465648 -0.473359 0
M  V30 9753 H 953.927 0.921469 -1.82675 0
M  V30 9754 H 953.937 3.30009 -2.39913 0
M  V30 9755 H 952.612 2.55713 -3.27999 0
M  V30 9756 H 951.189 3.35352 -1.63074 0
M  V30 9757 N 953.375 1.23811 0.975125 0
M  V30 9758 C 954.624 1.06741 1.71141 0
M  V30 9759 C 954.937 -0.394986 1.9157 0
M  V30 9760 O 956.143 -0.685723 2.62698 0
M  V30 9761 C 954.599 1.86168 3.08009 0
M  V30 9762 C 954.207 3.36771 2.95448 0
M  V30 9763 C 955.951 1.77604 3.85561 0
M  V30 9764 C 953.858 4.0857 4.2758 0
M  V30 9765 H 952.788 0.395819 0.64175 0
M  V30 9766 H 955.439 1.47825 1.0872 0
M  V30 9767 H 953.821 1.37893 3.71216 0
M  V30 9768 H 954.995 3.92571 2.41298 0
M  V30 9769 H 953.31 3.46205 2.31368 0
M  V30 9770 H 955.907 2.28556 4.83391 0
M  V30 9771 H 956.25 0.739837 4.09673 0
M  V30 9772 H 956.783 2.23519 3.29065 0
M  V30 9773 H 953.522 5.12518 4.08663 0
M  V30 9774 H 953.042 3.57556 4.81574 0
M  V30 9775 H 954.721 4.15157 4.9624 0
M  V30 9776 N 954.853 -1.17469 1.05066 0
M  V30 9777 C 955.816 -2.19648 0.654793 0
M  V30 9778 C 956.816 -1.58107 -0.293063 0
M  V30 9779 O 958.006 -1.74029 -0.077106 0
M  V30 9780 C 955.138 -3.40878 -0.0384437 0
M  V30 9781 H 956.331 -2.56184 1.55915 0
M  V30 9782 H 953.884 -1.31528 0.844396 0
M  V30 9783 H 954.619 -3.09885 -0.956133 0
M  V30 9784 H 954.404 -3.86792 0.642961 0
M  V30 9785 H 955.894 -4.1651 -0.301568 0
M  V30 9786 N 956.331 -0.831506 -1.3388 0
M  V30 9787 C 957.559 -0.436925 -2.02234 0
M  V30 9788 C 957.974 0.959689 -1.6259 0
M  V30 9789 O 957.331 1.62248 -0.835576 0
M  V30 9790 C 957.382 -0.539429 -3.57453 0
M  V30 9791 O 957.103 -1.88101 -3.95664 0
M  V30 9792 C 958.604 -0.140852 -4.43076 0
M  V30 9793 H 955.824 -0.174302 -0.647966 0
M  V30 9794 H 958.368 -1.12204 -1.70969 0
M  V30 9795 H 956.523 0.0976959 -3.87277 0
M  V30 9796 H 956.937 -1.86131 -4.90363 0
M  V30 9797 H 958.411 -0.26364 -5.5137 0
M  V30 9798 H 958.888 0.916505 -4.29531 0
M  V30 9799 H 959.494 -0.752117 -4.18597 0
M  V30 9800 N 957.809 1.4625 -0.587256 0
M  V30 9801 C 959.057 2.01963 -0.0744273 0
M  V30 9802 C 959.378 1.46065 1.29189 0
M  V30 9803 O 958.648 0.647077 1.84905 0
M  V30 9804 H 957.228 0.746597 -0.0245236 0
M  V30 9805 H 959.89 1.79299 -0.764063 0
M  V30 9806 H 958.986 3.12099 -0.00884894 0
M  V30 9807 N 959.287 0.325282 1.54207 0
M  V30 9808 C 960.22 -0.582485 2.20641 0
M  V30 9809 C 961.198 -1.11441 1.18405 0
M  V30 9810 O 962.382 -1.17809 1.4715 0
M  V30 9811 C 959.509 -1.79944 2.86946 0
M  V30 9812 C 958.555 -1.39861 4.02916 0
M  V30 9813 S 959.388 -0.433859 5.3374 0
M  V30 9814 C 960.544 -1.65806 6.03539 0
M  V30 9815 H 960.777 -0.0181601 2.97294 0
M  V30 9816 H 958.31 0.109365 1.54012 0
M  V30 9817 H 960.268 -2.4977 3.25769 0
M  V30 9818 H 958.929 -2.33495 2.10092 0
M  V30 9819 H 958.122 -2.30547 4.48179 0
M  V30 9820 H 957.724 -0.780036 3.65775 0
M  V30 9821 H 960.016 -2.59524 6.25822 0
M  V30 9822 H 960.959 -1.24756 6.97023 0
M  V30 9823 H 961.367 -1.84581 5.3347 0
M  V30 9824 N 960.765 -1.57509 0.0534917 0
M  V30 9825 C 962.011 -1.93068 -0.62069 0
M  V30 9826 C 962.344 -0.932313 -1.70357 0
M  V30 9827 O 961.619 0.0413393 -1.94456 0
M  V30 9828 C 961.902 -3.38997 -1.21463 0
M  V30 9829 C 961.755 -4.49583 -0.13965 0
M  V30 9830 C 963.074 -3.85366 -2.12558 0
M  V30 9831 H 960.193 -0.702083 -0.224163 0
M  V30 9832 H 962.835 -1.89647 0.115729 0
M  V30 9833 H 960.985 -3.42043 -1.84226 0
M  V30 9834 H 962.657 -4.58664 0.492411 0
M  V30 9835 H 960.9 -4.30525 0.532006 0
M  V30 9836 H 961.571 -5.48781 -0.595287 0
M  V30 9837 H 964.047 -3.8421 -1.59755 0
M  V30 9838 H 962.923 -4.8812 -2.51058 0
M  V30 9839 H 963.184 -3.22256 -3.02661 0
M  V30 9840 N 962.243 0.219913 -1.56058 0
M  V30 9841 C 963.491 0.942199 -1.78793 0
M  V30 9842 C 963.812 1.84804 -0.622284 0
M  V30 9843 O 963.082 1.9255 0.360735 0
M  V30 9844 H 961.662 0.350895 -0.659455 0
M  V30 9845 H 964.324 0.231376 -1.93522 0
M  V30 9846 H 963.42 1.54804 -2.71002 0
M  V30 9847 N 963.721 1.49897 0.486681 0
M  V30 9848 C 964.684 1.67086 1.56891 0
M  V30 9849 C 965.684 0.54209 1.51387 0
M  V30 9850 O 966.874 0.80883 1.54284 0
M  V30 9851 C 964.006 1.68159 2.96539 0
M  V30 9852 H 965.199 2.63626 1.42974 0
M  V30 9853 H 962.752 1.39143 0.711954 0
M  V30 9854 H 963.487 0.732562 3.15918 0
M  V30 9855 H 963.272 2.50147 3.01942 0
M  V30 9856 H 964.762 1.83466 3.7514 0
M  V30 9857 N 965.199 -0.738761 1.39212 0
M  V30 9858 C 966.129 -1.86602 1.40364 0
M  V30 9859 C 967.11 -1.67984 0.267495 0
M  V30 9860 O 968.295 -1.88358 0.472765 0
M  V30 9861 C 965.425 -3.24308 1.24265 0
M  V30 9862 C 964.379 -3.57557 2.35239 0
M  V30 9863 C 963.705 -4.94159 2.04233 0
M  V30 9864 C 965.005 -3.60914 3.77543 0
M  V30 9865 H 966.699 -1.85896 2.34698 0
M  V30 9866 H 964.245 -0.892959 1.1297 0
M  V30 9867 H 966.198 -4.02838 1.23692 0
M  V30 9868 H 964.922 -3.25531 0.263974 0
M  V30 9869 H 963.581 -2.81354 2.35022 0
M  V30 9870 H 963.229 -4.91959 1.04813 0
M  V30 9871 H 962.929 -5.17373 2.78567 0
M  V30 9872 H 964.453 -5.7505 2.05303 0
M  V30 9873 H 965.867 -4.29528 3.79709 0
M  V30 9874 H 964.264 -3.95644 4.51205 0
M  V30 9875 H 965.334 -2.60803 4.08791 0
M  V30 9876 N 966.677 -1.24326 -0.968545 0
M  V30 9877 C 967.607 -1.05951 -2.08079 0
M  V30 9878 C 968.588 0.0272666 -1.70078 0
M  V30 9879 O 969.773 -0.139644 -1.93697 0
M  V30 9880 C 966.903 -0.662623 -3.4092 0
M  V30 9881 C 965.857 -1.69807 -3.92873 0
M  V30 9882 C 965.183 -1.15628 -5.22048 0
M  V30 9883 C 966.483 -3.09383 -4.20808 0
M  V30 9884 H 968.177 -1.98984 -2.23709 0
M  V30 9885 H 965.723 -0.958112 -1.075 0
M  V30 9886 H 967.676 -0.521071 -4.18166 0
M  V30 9887 H 966.4 0.303399 -3.25188 0
M  V30 9888 H 965.059 -1.82783 -3.17783 0
M  V30 9889 H 964.707 -0.180888 -5.02675 0
M  V30 9890 H 964.407 -1.84822 -5.57776 0
M  V30 9891 H 965.931 -1.02683 -6.01904 0
M  V30 9892 H 967.345 -2.99642 -4.88761 0
M  V30 9893 H 965.742 -3.75923 -4.67763 0
M  V30 9894 H 966.812 -3.57486 -3.27616 0
M  V30 9895 N 968.156 1.1691 -1.05688 0
M  V30 9896 C 969.086 2.23275 -0.683402 0
M  V30 9897 C 970.067 1.6704 0.321206 0
M  V30 9898 O 971.252 1.93191 0.197691 0
M  V30 9899 C 968.382 3.47244 -0.0626006 0
M  V30 9900 C 967.336 4.16333 -0.992513 0
M  V30 9901 C 966.662 5.34182 -0.23533 0
M  V30 9902 C 967.962 4.68002 -2.31886 0
M  V30 9903 H 969.656 2.54771 -1.57264 0
M  V30 9904 H 967.202 1.2246 -0.757606 0
M  V30 9905 H 969.155 4.20874 0.210503 0
M  V30 9906 H 967.879 3.1503 0.861616 0
M  V30 9907 H 966.538 3.44622 -1.25026 0
M  V30 9908 H 966.186 4.9822 0.69181 0
M  V30 9909 H 965.886 5.81346 -0.855002 0
M  V30 9910 H 967.41 6.10592 0.0303717 0
M  V30 9911 H 968.824 5.33244 -2.10531 0
M  V30 9912 H 967.221 5.25764 -2.89296 0
M  V30 9913 H 968.291 3.84541 -2.95391 0
M  V30 9914 N 969.634 0.838594 1.33437 0
M  V30 9915 C 970.564 0.286672 2.31734 0
M  V30 9916 C 971.545 -0.605451 1.5896 0
M  V30 9917 O 972.73 -0.529059 1.86854 0
M  V30 9918 C 969.86 -0.539311 3.43087 0
M  V30 9919 C 968.814 0.256997 4.27228 0
M  V30 9920 C 968.14 -0.692718 5.30194 0
M  V30 9921 C 969.44 1.47391 5.01072 0
M  V30 9922 H 971.134 1.10798 2.78144 0
M  V30 9923 H 968.68 0.534235 1.33723 0
M  V30 9924 H 970.633 -0.935724 4.1088 0
M  V30 9925 H 969.357 -1.39383 2.95364 0
M  V30 9926 H 968.016 0.634967 3.61059 0
M  V30 9927 H 967.664 -1.54363 4.78729 0
M  V30 9928 H 967.364 -0.164023 5.87371 0
M  V30 9929 H 968.888 -1.08665 6.00853 0
M  V30 9930 H 970.302 1.15067 5.61634 0
M  V30 9931 H 968.699 1.93937 5.67898 0
M  V30 9932 H 969.769 2.24382 4.29861 0
M  V30 9933 N 971.112 -1.45937 0.595003 0
M  V30 9934 C 972.042 -2.33198 -0.11871 0
M  V30 9935 C 973.023 -1.46083 -0.871423 0
M  V30 9936 O 974.208 -1.74879 -0.844461 0
M  V30 9937 C 971.338 -3.28576 -1.12495 0
M  V30 9938 C 970.292 -4.25229 -0.486275 0
M  V30 9939 C 969.618 -5.10204 -1.59986 0
M  V30 9940 C 970.918 -5.19019 0.584473 0
M  V30 9941 H 972.612 -2.93122 0.609886 0
M  V30 9942 H 970.158 -1.40951 0.294742 0
M  V30 9943 H 972.111 -3.88485 -1.6327 0
M  V30 9944 H 970.835 -2.66784 -1.88398 0
M  V30 9945 H 969.494 -3.666 0.000507962 0
M  V30 9946 H 969.142 -4.44789 -2.34886 0
M  V30 9947 H 968.842 -5.75669 -1.1781 0
M  V30 9948 H 970.366 -5.7298 -2.11014 0
M  V30 9949 H 971.78 -5.73073 0.161297 0
M  V30 9950 H 970.177 -5.92893 0.927256 0
M  V30 9951 H 971.247 -4.62208 1.46601 0
M  V30 9952 N 972.59 -0.333456 -1.54032 0
M  V30 9953 C 973.836 0.266527 -2.01041 0
M  V30 9954 C 974.169 1.51006 -1.2211 0
M  V30 9955 O 973.444 1.92078 -0.306016 0
M  V30 9956 C 973.727 0.59078 -3.55221 0
M  V30 9957 C 973.58 -0.664143 -4.4487 0
M  V30 9958 C 974.899 1.40447 -4.17088 0
M  V30 9959 H 972.018 0.0953979 -0.7308 0
M  V30 9960 H 974.66 -0.451995 -1.84545 0
M  V30 9961 H 972.81 1.20292 -3.69408 0
M  V30 9962 H 974.482 -1.30227 -4.42537 0
M  V30 9963 H 972.725 -1.29106 -4.14143 0
M  V30 9964 H 973.396 -0.392664 -5.50602 0
M  V30 9965 H 975.872 0.886946 -4.06537 0
M  V30 9966 H 974.748 1.6001 -5.2506 0
M  V30 9967 H 975.009 2.40357 -3.71054 0
M  V30 9968 N 974.068 1.57479 -0.061844 0
M  V30 9969 C 975.314 1.93395 0.610443 0
M  V30 9970 C 975.647 0.941334 1.6986 0
M  V30 9971 O 974.922 -0.0310262 1.94475 0
M  V30 9972 C 975.205 3.39636 1.19664 0
M  V30 9973 C 975.058 4.49651 0.115805 0
M  V30 9974 C 976.377 3.86488 2.10512 0
M  V30 9975 H 973.496 0.703262 0.220436 0
M  V30 9976 H 976.138 1.89583 -0.125785 0
M  V30 9977 H 974.288 3.43015 1.82409 0
M  V30 9978 H 975.96 4.58397 -0.516728 0
M  V30 9979 H 974.203 4.30237 -0.55483 0
M  V30 9980 H 974.874 5.49089 0.566176 0
M  V30 9981 H 977.35 3.85052 1.57715 0
M  V30 9982 H 976.226 4.89444 2.48466 0
M  V30 9983 H 976.487 3.23856 3.00948 0
M  V30 9984 N 975.546 -0.211634 1.56173 0
M  V30 9985 C 976.509 -1.24588 1.92381 0
M  V30 9986 C 977.509 -1.39297 0.803311 0
M  V30 9987 O 978.699 -1.37392 1.07094 0
M  V30 9988 C 975.831 -2.61807 2.18335 0
M  V30 9989 H 977.024 -0.936814 2.84893 0
M  V30 9990 H 974.577 -0.452471 1.49607 0
M  V30 9991 H 975.312 -2.97795 1.28407 0
M  V30 9992 H 975.097 -2.52506 2.99972 0
M  V30 9993 H 976.587 -3.3642 2.4741 0
M  V30 9994 N 977.024 -1.50153 -0.478725 0
M  V30 9995 C 977.954 -1.71384 -1.58587 0
M  V30 9996 C 978.935 -0.562705 -1.60523 0
M  V30 9997 O 980.12 -0.80101 -1.76911 0
M  V30 9998 C 977.25 -1.80094 -2.96957 0
M  V30 9999 C 976.204 -2.95218 -3.09888 0
M  V30 10000 C 975.53 -2.89063 -4.49829 0
M  V30 10001 C 976.83 -4.35841 -2.8782 0
M  V30 10002 H 978.524 -2.64081 -1.41073 0
M  V30 10003 H 976.07 -1.27081 -0.677239 0
M  V30 10004 H 978.023 -1.93531 -3.74331 0
M  V30 10005 H 976.747 -0.840131 -3.1561 0
M  V30 10006 H 975.406 -2.81419 -2.34944 0
M  V30 10007 H 975.054 -1.90844 -4.6539 0
M  V30 10008 H 974.754 -3.66345 -4.59418 0
M  V30 10009 H 976.278 -3.04539 -5.29234 0
M  V30 10010 H 977.692 -4.50205 -3.54948 0
M  V30 10011 H 976.089 -5.14515 -3.0886 0
M  V30 10012 H 977.159 -4.48739 -1.83742 0
M  V30 10013 N 978.502 0.731368 -1.39602 0
M  V30 10014 C 979.75 1.48805 -1.36753 0
M  V30 10015 C 980.071 1.94969 0.034676 0
M  V30 10016 O 979.341 1.69243 0.986591 0
M  V30 10017 H 977.921 0.55203 -0.503261 0
M  V30 10018 H 980.583 0.868013 -1.74504 0
M  V30 10019 H 979.679 2.36844 -2.03252 0
M  V30 10020 N 979.98 1.24838 0.961938 0
M  V30 10021 C 981.229 1.0855 1.69999 0
M  V30 10022 C 981.542 -0.374645 1.91979 0
M  V30 10023 O 982.748 -0.657822 2.6341 0
M  V30 10024 C 981.204 1.89424 3.06017 0
M  V30 10025 C 980.812 3.39885 2.9186 0
M  V30 10026 C 982.556 1.81684 3.83655 0
M  V30 10027 C 980.463 4.13082 4.23223 0
M  V30 10028 H 979.393 0.402603 0.637516 0
M  V30 10029 H 982.044 1.4897 1.07146 0
M  V30 10030 H 980.426 1.41823 3.69733 0
M  V30 10031 H 981.6 3.95108 2.37121 0
M  V30 10032 H 979.915 3.4864 2.27683 0
M  V30 10033 H 982.512 2.3367 4.80939 0
M  V30 10034 H 982.855 0.783247 4.08865 0
M  V30 10035 H 983.388 2.26997 3.26676 0
M  V30 10036 H 980.127 5.16824 4.03204 0
M  V30 10037 H 979.647 3.62644 4.77755 0
M  V30 10038 H 981.326 4.20397 4.91808 0
M  V30 10039 N 981.458 -1.16348 1.06306 0
M  V30 10040 C 982.706 -1.86512 0.778311 0
M  V30 10041 C 983.027 -1.82107 -0.697273 0
M  V30 10042 O 982.297 -1.2547 -1.50446 0
M  V30 10043 H 980.877 -0.690529 0.284919 0
M  V30 10044 H 983.539 -1.41092 1.34458 0
M  V30 10045 H 982.635 -2.91947 1.10333 0
M  V30 10046 N 982.937 -0.845659 -1.3299 0
M  V30 10047 C 983.867 -0.298957 -2.31578 0
M  V30 10048 C 984.848 0.597012 -1.59279 0
M  V30 10049 O 986.033 0.519142 -1.87132 0
M  V30 10050 C 983.163 0.521109 -3.43368 0
M  V30 10051 C 982.117 -0.279651 -4.27085 0
M  V30 10052 C 981.443 0.664591 -5.30554 0
M  V30 10053 C 982.743 -1.50046 -5.00283 0
M  V30 10054 H 984.437 -1.12272 -2.77552 0
M  V30 10055 H 981.983 -0.54132 -1.33438 0
M  V30 10056 H 983.936 0.913921 -4.1137 0
M  V30 10057 H 982.66 1.37815 -2.96099 0
M  V30 10058 H 981.319 -0.654106 -3.60717 0
M  V30 10059 H 980.967 1.51822 -4.79541 0
M  V30 10060 H 980.667 0.132871 -5.8745 0
M  V30 10061 H 982.191 1.05477 -6.01421 0
M  V30 10062 H 983.605 -1.18044 -5.61016 0
M  V30 10063 H 982.002 -1.96946 -5.66862 0
M  V30 10064 H 983.072 -2.26659 -4.28665 0
M  V30 10065 N 984.415 1.45619 -0.602734 0
M  V30 10066 C 985.662 2.02272 -0.0960337 0
M  V30 10067 C 985.99 1.47177 1.27159 0
M  V30 10068 O 985.245 0.634593 1.85125 0
M  V30 10069 C 985.544 3.574 -0.00157909 0
M  V30 10070 C 985.21 4.31626 -1.30422 0
M  V30 10071 C 983.872 4.51622 -1.66106 0
M  V30 10072 C 986.224 4.74091 -2.16535 0
M  V30 10073 C 983.552 5.11338 -2.87663 0
M  V30 10074 C 985.904 5.35151 -3.37336 0
M  V30 10075 C 984.568 5.53371 -3.73278 0
M  V30 10076 H 983.838 0.740166 -0.0351412 0
M  V30 10077 H 986.485 1.74744 -0.783382 0
M  V30 10078 H 984.79 3.84179 0.769008 0
M  V30 10079 H 986.487 3.98934 0.406549 0
M  V30 10080 H 983.077 4.16372 -1.01647 0
M  V30 10081 H 987.261 4.5838 -1.90266 0
M  V30 10082 H 982.517 5.23634 -3.15622 0
M  V30 10083 H 986.691 5.67011 -4.04316 0
M  V30 10084 H 984.318 5.99412 -4.67556 0
M  V30 10085 N 985.893 0.34162 1.53853 0
M  V30 10086 C 986.826 -0.559051 2.21246 0
M  V30 10087 C 987.804 -1.10179 1.1958 0
M  V30 10088 O 988.988 -1.16242 1.48392 0
M  V30 10089 C 986.115 -1.7689 2.88838 0
M  V30 10090 C 985.161 -1.3558 4.04377 0
M  V30 10091 S 985.994 -0.377225 5.3417 0
M  V30 10092 C 987.15 -1.59395 6.05264 0
M  V30 10093 H 987.383 0.013373 2.97297 0
M  V30 10094 H 984.916 0.125694 1.53888 0
M  V30 10095 H 986.874 -2.463 3.284 0
M  V30 10096 H 985.535 -2.31254 2.12557 0
M  V30 10097 H 984.728 -2.25781 4.50599 0
M  V30 10098 H 984.33 -0.741197 3.66582 0
M  V30 10099 H 986.622 -2.52872 6.2854 0
M  V30 10100 H 987.565 -1.17356 6.98307 0
M  V30 10101 H 987.973 -1.78913 5.35397 0
M  V30 10102 N 987.371 -1.57444 0.0701946 0
M  V30 10103 C 988.787 -1.57009 -0.286431 0
M  V30 10104 C 988.987 -1.07946 -1.70147 0
M  V30 10105 O 988.043 -0.744622 -2.41271 0
M  V30 10106 C 989.356 -3.00542 -0.0975466 0
M  V30 10107 C 990.904 -3.12553 -0.167205 0
M  V30 10108 C 991.379 -4.58 -0.00662047 0
M  V30 10109 N 992.87 -4.63158 -0.0622778 0
M  V30 10110 C 993.605 -5.73388 0.0375831 0
M  V30 10111 N 993.101 -6.92537 0.190873 0
M  V30 10112 N 994.894 -5.62097 -0.0193672 0
M  V30 10113 H 987.045 -1.87651 0.995023 0
M  V30 10114 H 989.308 -0.865006 0.387902 0
M  V30 10115 H 989.014 -3.40543 0.878822 0
M  V30 10116 H 988.888 -3.67485 -0.850547 0
M  V30 10117 H 991.275 -2.72439 -1.13406 0
M  V30 10118 H 991.356 -2.48251 0.616871 0
M  V30 10119 H 991 -4.98803 0.956992 0
M  V30 10120 H 990.93 -5.20332 -0.810081 0
M  V30 10121 H 993.421 -3.77475 -0.179229 0
M  V30 10122 H 993.734 -7.72365 0.25926 0
M  V30 10123 H 992.079 -6.94632 0.226214 0
M  V30 10124 H 995.27 -4.67897 -0.137815 0
M  V30 10125 H 995.443 -6.4797 0.0619121 0
M  V30 10126 N 988.849 0.203349 -1.56283 0
M  V30 10127 C 990.265 0.55384 -1.49682 0
M  V30 10128 C 990.465 1.86261 -0.768701 0
M  V30 10129 O 989.521 2.50517 -0.315824 0
M  V30 10130 C 990.834 0.616216 -2.94318 0
M  V30 10131 C 992.382 0.705611 -3.04943 0
M  V30 10132 C 992.857 0.79917 -4.50974 0
M  V30 10133 N 994.348 0.862916 -4.55091 0
M  V30 10134 C 995.083 0.955334 -5.65386 0
M  V30 10135 N 994.579 1.01057 -6.8539 0
M  V30 10136 N 996.372 0.991884 -5.53279 0
M  V30 10137 H 988.523 -0.655244 -2.0204 0
M  V30 10138 H 990.786 -0.232344 -0.919087 0
M  V30 10139 H 990.492 -0.27619 -3.50614 0
M  V30 10140 H 990.366 1.47371 -3.4722 0
M  V30 10141 H 992.753 1.58845 -2.48701 0
M  V30 10142 H 992.834 -0.177921 -2.5518 0
M  V30 10143 H 992.478 -0.0792841 -5.07838 0
M  V30 10144 H 992.408 1.69838 -4.9846 0
M  V30 10145 H 994.899 0.829812 -3.68677 0
M  V30 10146 H 995.212 1.08137 -7.65197 0
M  V30 10147 H 993.557 0.979384 -6.88065 0
M  V30 10148 H 996.748 0.945514 -4.58451 0
M  V30 10149 H 996.921 1.06045 -6.39264 0
M  V30 10150 N 990.327 1.50405 0.470755 0
M  V30 10151 C 991.743 1.37838 0.804534 0
M  V30 10152 C 991.943 0.434743 1.96754 0
M  V30 10153 O 990.999 -0.122507 2.52203 0
M  V30 10154 C 992.312 2.79212 1.11629 0
M  V30 10155 C 993.86 2.88129 1.22272 0
M  V30 10156 C 994.335 4.30337 1.5676 0
M  V30 10157 N 995.826 4.3329 1.63751 0
M  V30 10158 C 996.561 5.4032 1.91942 0
M  V30 10159 N 996.057 6.57558 2.18151 0
M  V30 10160 N 997.85 5.27764 1.93446 0
M  V30 10161 H 990.001 2.10332 -0.295689 0
M  V30 10162 H 992.264 0.945429 -0.0697733 0
M  V30 10163 H 991.97 3.50103 0.334778 0
M  V30 10164 H 991.844 3.16475 2.0524 0
M  V30 10165 H 994.231 2.17457 1.9949 0
M  V30 10166 H 994.312 2.54409 0.2664 0
M  V30 10167 H 993.956 5.01547 0.800817 0
M  V30 10168 H 993.886 4.61545 2.53543 0
M  V30 10169 H 996.377 3.48752 1.45535 0
M  V30 10170 H 996.69 7.34935 2.38936 0
M  V30 10171 H 995.035 6.60732 2.15542 0
M  V30 10172 H 998.226 4.35169 1.72468 0
M  V30 10173 H 998.399 6.11264 2.15081 0
M  V30 10174 N 991.805 -0.723954 1.39988 0
M  V30 10175 C 992.755 -1.82943 1.36073 0
M  V30 10176 C 993.739 -1.59105 0.239682 0
M  V30 10177 O 994.931 -1.7042 0.478116 0
M  V30 10178 C 992.06 -3.20988 1.21745 0
M  V30 10179 C 991.146 -3.50618 2.38596 0
M  V30 10180 N 991.537 -3.51115 3.64077 0
M  V30 10181 C 989.835 -3.81035 2.31794 0
M  V30 10182 C 990.536 -3.78852 4.41413 0
M  V30 10183 N 989.512 -3.97182 3.71143 0
M  V30 10184 H 993.314 -1.81649 2.31043 0
M  V30 10185 H 990.828 -0.922703 1.33641 0
M  V30 10186 H 992.825 -4.00139 1.17022 0
M  V30 10187 H 991.485 -3.23513 0.277344 0
M  V30 10188 H 992.496 -3.32163 3.97351 0
M  V30 10189 H 989.173 -3.911 1.46105 0
M  V30 10190 H 990.563 -3.85612 5.5023 0
M  V30 10191 N 993.283 -1.25346 -0.955304 0
M  V30 10192 C 994.532 -1.0945 -1.69421 0
M  V30 10193 C 994.845 0.364459 -1.92175 0
M  V30 10194 O 996.051 0.643843 -2.63755 0
M  V30 10195 C 994.507 -1.91045 -3.05008 0
M  V30 10196 C 994.115 -3.41428 -2.90053 0
M  V30 10197 C 995.859 -1.83716 -3.82686 0
M  V30 10198 C 993.766 -4.1532 -4.21026 0
M  V30 10199 H 992.696 -0.405978 -0.635372 0
M  V30 10200 H 995.347 -1.49536 -1.06354 0
M  V30 10201 H 993.729 -1.43781 -3.68975 0
M  V30 10202 H 994.903 -3.9636 -2.35022 0
M  V30 10203 H 993.218 -3.49842 -2.25831 0
M  V30 10204 H 995.815 -2.36217 -4.79693 0
M  V30 10205 H 996.158 -0.804919 -4.08444 0
M  V30 10206 H 996.691 -2.28726 -3.25468 0
M  V30 10207 H 993.43 -5.18955 -4.00457 0
M  V30 10208 H 992.95 -3.65172 -4.75825 0
M  V30 10209 H 994.629 -4.22999 -4.89572 0
M  V30 10210 N 994.761 1.15782 -1.06922 0
M  V30 10211 C 996.007 1.86741 -0.790922 0
M  V30 10212 C 996.34 1.81863 0.681149 0
M  V30 10213 O 995.615 1.23871 1.49954 0
M  V30 10214 C 995.898 3.36038 -1.29422 0
M  V30 10215 C 995.751 3.49573 -2.83052 0
M  V30 10216 C 997.07 4.30647 -0.907239 0
M  V30 10217 H 994.189 0.678064 -0.288787 0
M  V30 10218 H 996.831 1.36054 -1.32624 0
M  V30 10219 H 994.981 3.79336 -0.838843 0
M  V30 10220 H 996.653 3.1517 -3.36847 0
M  V30 10221 H 994.896 2.91275 -3.21467 0
M  V30 10222 H 995.567 4.5445 -3.13335 0
M  V30 10223 H 998.043 3.95286 -1.29956 0
M  V30 10224 H 996.919 5.33604 -1.28679 0
M  V30 10225 H 997.18 4.41703 0.187251 0
M  V30 10226 N 996.239 0.8527 1.3254 0
M  V30 10227 C 997.655 0.542298 1.50104 0
M  V30 10228 C 997.855 -0.927465 1.78886 0
M  V30 10229 O 996.911 -1.7106 1.85728 0
M  V30 10230 C 998.224 1.4276 2.64651 0
M  V30 10231 C 999.772 1.42782 2.78536 0
M  V30 10232 C 1000.25 2.29828 3.9616 0
M  V30 10233 N 1001.74 2.27613 4.03418 0
M  V30 10234 C 1002.47 2.91696 4.93661 0
M  V30 10235 N 1001.97 3.64883 5.88925 0
M  V30 10236 N 1003.76 2.81094 4.86768 0
M  V30 10237 H 995.913 1.80395 1.12123 0
M  V30 10238 H 998.176 0.770394 0.552446 0
M  V30 10239 H 997.882 2.47266 2.50105 0
M  V30 10240 H 997.756 1.11358 3.60388 0
M  V30 10241 H 1000.14 0.390417 2.92506 0
M  V30 10242 H 1000.22 1.78198 1.83519 0
M  V30 10243 H 999.868 3.33635 3.82949 0
M  V30 10244 H 999.798 1.91746 4.9045 0
M  V30 10245 H 1002.29 1.74402 3.3525 0
M  V30 10246 H 1002.6 4.10952 6.54476 0
M  V30 10247 H 1000.95 3.68991 5.88957 0
M  V30 10248 H 1004.14 2.23469 4.11314 0
M  V30 10249 H 1004.31 3.31318 5.56895 0
M  V30 10250 N 997.718 -1.45297 0.610449 0
M  V30 10251 C 998.665 -2.30553 -0.106718 0
M  V30 10252 C 999.635 -1.42272 -0.85719 0
M  V30 10253 O 1000.82 -1.71199 -0.842357 0
M  V30 10254 C 997.96 -3.27226 -1.09623 0
M  V30 10255 C 997.073 -4.3061 -0.346329 0
M  V30 10256 C 996.208 -5.14389 -1.32581 0
M  V30 10257 C 995.247 -6.09497 -0.563892 0
M  V30 10258 N 994.384 -6.86047 -1.4928 0
M  V30 10259 H 999.224 -2.91344 0.626296 0
M  V30 10260 H 996.761 -1.43563 0.32065 0
M  V30 10261 H 998.719 -3.81744 -1.68308 0
M  V30 10262 H 997.349 -2.68182 -1.79662 0
M  V30 10263 H 996.401 -3.7873 0.356084 0
M  V30 10264 H 997.713 -4.98183 0.248026 0
M  V30 10265 H 996.867 -5.73321 -1.98464 0
M  V30 10266 H 995.606 -4.4684 -1.9541 0
M  V30 10267 H 994.611 -5.49693 0.108551 0
M  V30 10268 H 995.836 -6.79074 0.0593872 0
M  V30 10269 H 993.782 -6.21185 -2.10868 0
M  V30 10270 H 993.699 -7.49983 -0.951953 0
M  V30 10271 H 994.967 -7.49518 -2.14112 0
M  V30 10272 N 999.196 -0.349774 -1.5367 0
M  V30 10273 C 1000.61 0.00191293 -1.596 0
M  V30 10274 C 1000.81 1.48175 -1.36552 0
M  V30 10275 O 999.868 2.24129 -1.16285 0
M  V30 10276 C 1001.18 -0.439848 -2.97466 0
M  V30 10277 C 1002.73 -0.392721 -3.10526 0
M  V30 10278 C 1003.2 -0.810047 -4.5078 0
M  V30 10279 N 1004.69 -0.764478 -4.56848 0
M  V30 10280 C 1005.43 -1.05927 -5.63531 0
M  V30 10281 N 1004.93 -1.42253 -6.78038 0
M  V30 10282 N 1006.72 -0.983098 -5.53436 0
M  V30 10283 H 998.87 -1.31364 -1.66905 0
M  V30 10284 H 1001.13 -0.535908 -0.781989 0
M  V30 10285 H 1000.84 -1.47189 -3.19419 0
M  V30 10286 H 1000.71 0.181735 -3.76762 0
M  V30 10287 H 1003.1 0.630161 -2.88293 0
M  V30 10288 H 1003.18 -1.04959 -2.33275 0
M  V30 10289 H 1002.82 -1.83097 -4.73749 0
M  V30 10290 H 1002.75 -0.130591 -5.26438 0
M  V30 10291 H 1005.25 -0.496637 -3.74622 0
M  V30 10292 H 1005.56 -1.63215 -7.55368 0
M  V30 10293 H 1003.9 -1.46104 -6.79469 0
M  V30 10294 H 1007.09 -0.698601 -4.62858 0
M  V30 10295 H 1007.27 -1.21618 -6.36485 0
M  V30 10296 N 1000.67 1.57404 -0.0785433 0
M  V30 10297 C 1001.9 1.98074 0.597862 0
M  V30 10298 C 1002.32 0.95714 1.6274 0
M  V30 10299 O 1001.67 -0.0553728 1.82416 0
M  V30 10300 C 1001.72 3.38815 1.26041 0
M  V30 10301 O 1001.45 4.37254 0.27207 0
M  V30 10302 C 1002.95 3.94397 2.024 0
M  V30 10303 H 1000.17 0.651263 0.161546 0
M  V30 10304 H 1002.71 2.03927 -0.152941 0
M  V30 10305 H 1000.87 3.34028 1.96225 0
M  V30 10306 H 1001.28 5.19136 0.74822 0
M  V30 10307 H 1002.75 4.95075 2.4414 0
M  V30 10308 H 1003.23 3.31308 2.88326 0
M  V30 10309 H 1003.84 4.02607 1.37068 0
M  V30 10310 N 1002.15 -0.195058 1.56388 0
M  V30 10311 C 1003.08 -1.24444 1.97575 0
M  V30 10312 C 1004.06 -1.47471 0.847717 0
M  V30 10313 O 1005.25 -1.59208 1.11205 0
M  V30 10314 C 1002.38 -2.58866 2.31529 0
M  V30 10315 C 1001.33 -2.50451 3.47071 0
M  V30 10316 C 1000.66 -3.89146 3.667 0
M  V30 10317 C 1001.96 -2.02953 4.81256 0
M  V30 10318 H 1003.65 -0.902178 2.85484 0
M  V30 10319 H 1001.2 -0.43254 1.3735 0
M  V30 10320 H 1003.15 -3.3246 2.58936 0
M  V30 10321 H 1001.87 -2.94833 1.40502 0
M  V30 10322 H 1000.53 -1.79313 3.19754 0
M  V30 10323 H 1000.18 -4.22466 2.73004 0
M  V30 10324 H 999.882 -3.84391 4.44429 0
M  V30 10325 H 1001.41 -4.64363 3.96484 0
M  V30 10326 H 1002.82 -2.66306 5.07695 0
M  V30 10327 H 1001.22 -2.092 5.62455 0
M  V30 10328 H 1002.29 -0.982757 4.74837 0
M  V30 10329 N 1003.63 -1.50653 -0.462772 0
M  V30 10330 C 1005.05 -1.38263 -0.797213 0
M  V30 10331 C 1005.25 -0.445172 -1.96521 0
M  V30 10332 O 1004.3 0.10913 -2.52264 0
M  V30 10333 C 1005.61 -2.798 -1.10146 0
M  V30 10334 C 1007.16 -2.88774 -1.20742 0
M  V30 10335 C 1007.64 -4.31163 -1.54476 0
M  V30 10336 N 1009.13 -4.34152 -1.61451 0
M  V30 10337 C 1009.86 -5.4133 -1.89074 0
M  V30 10338 N 1009.36 -6.58705 -2.1466 0
M  V30 10339 N 1011.15 -5.28783 -1.90645 0
M  V30 10340 H 1003.3 -2.10172 0.30684 0
M  V30 10341 H 1005.57 -0.945046 0.0747862 0
M  V30 10342 H 1005.27 -3.50276 -0.316207 0
M  V30 10343 H 1005.15 -3.17559 -2.03559 0
M  V30 10344 H 1007.53 -2.18512 -1.98334 0
M  V30 10345 H 1007.61 -2.54547 -0.252904 0
M  V30 10346 H 1007.26 -5.01965 -0.774207 0
M  V30 10347 H 1007.19 -4.62883 -2.51092 0
M  V30 10348 H 1009.68 -3.49519 -1.43684 0
M  V30 10349 H 1009.99 -7.36192 -2.35035 0
M  V30 10350 H 1008.34 -6.61866 -2.12035 0
M  V30 10351 H 1011.53 -4.36078 -1.70158 0
M  V30 10352 H 1011.7 -6.12396 -2.11836 0
M  V30 10353 N 1005.11 0.71652 -1.4037 0
M  V30 10354 C 1006.52 1.02447 -1.22379 0
M  V30 10355 C 1006.72 2.0126 -0.0983394 0
M  V30 10356 O 1005.78 2.46569 0.544071 0
M  V30 10357 C 1007.09 1.56909 -2.56515 0
M  V30 10358 C 1008.64 1.68898 -2.6352 0
M  V30 10359 C 1009.12 2.26765 -3.97922 0
M  V30 10360 N 1010.61 2.34152 -3.99658 0
M  V30 10361 C 1011.34 2.79907 -5.00439 0
M  V30 10362 N 1010.84 3.25422 -6.11615 0
M  V30 10363 N 1012.63 2.79283 -4.87809 0
M  V30 10364 H 1004.78 0.0615306 -2.12311 0
M  V30 10365 H 1007.05 0.0898994 -0.943728 0
M  V30 10366 H 1006.75 0.917649 -3.39517 0
M  V30 10367 H 1006.63 2.55446 -2.77538 0
M  V30 10368 H 1009.01 2.33159 -1.8089 0
M  V30 10369 H 1009.09 0.689626 -2.46329 0
M  V30 10370 H 1008.74 1.63126 -4.80991 0
M  V30 10371 H 1008.67 3.27413 -4.12442 0
M  V30 10372 H 1011.16 2.02006 -3.19378 0
M  V30 10373 H 1011.47 3.58899 -6.84406 0
M  V30 10374 H 1009.82 3.23383 -6.15181 0
M  V30 10375 H 1013.01 2.43061 -4.00049 0
M  V30 10376 H 1013.18 3.14626 -5.66493 0
M  V30 10377 N 1006.59 1.25851 0.948643 0
M  V30 10378 C 1007.52 1.09248 2.06367 0
M  V30 10379 C 1008.5 -0.000205168 1.701 0
M  V30 10380 O 1009.68 0.170442 1.93451 0
M  V30 10381 C 1006.81 0.716777 3.39823 0
M  V30 10382 C 1005.77 1.76036 3.90122 0
M  V30 10383 C 1005.09 1.23918 5.20143 0
M  V30 10384 C 1006.39 3.16039 4.15833 0
M  V30 10385 H 1008.09 2.02518 2.20515 0
M  V30 10386 H 1005.63 0.975093 1.05962 0
M  V30 10387 H 1007.59 0.587531 4.17284 0
M  V30 10388 H 1006.31 -0.251626 3.25629 0
M  V30 10389 H 1004.97 1.87815 3.14835 0
M  V30 10390 H 1004.62 0.260836 5.02323 0
M  V30 10391 H 1004.32 1.93673 5.54765 0
M  V30 10392 H 1005.84 1.12245 6.00194 0
M  V30 10393 H 1007.25 3.0738 4.83933 0
M  V30 10394 H 1005.65 3.83317 4.61723 0
M  V30 10395 H 1006.72 3.62652 3.21887 0
M  V30 10396 N 1008.06 -1.15214 1.07534 0
M  V30 10397 C 1008.99 -2.2216 0.718837 0
M  V30 10398 C 1009.98 -1.6753 -0.29459 0
M  V30 10399 O 1011.16 -1.93481 -0.166931 0
M  V30 10400 C 1008.29 -3.471 0.117836 0
M  V30 10401 C 1007.24 -4.14701 1.05862 0
M  V30 10402 C 1006.57 -5.3374 0.320284 0
M  V30 10403 C 1007.87 -4.64254 2.39302 0
M  V30 10404 H 1009.56 -2.52237 1.61297 0
M  V30 10405 H 1007.11 -1.21239 0.776992 0
M  V30 10406 H 1009.06 -4.21156 -0.143519 0
M  V30 10407 H 1007.79 -3.16361 -0.811389 0
M  V30 10408 H 1006.45 -3.42589 1.30493 0
M  V30 10409 H 1006.09 -4.99257 -0.61246 0
M  V30 10410 H 1005.79 -5.79912 0.947381 0
M  V30 10411 H 1007.32 -6.10563 0.0667721 0
M  V30 10412 H 1008.73 -5.29827 2.18988 0
M  V30 10413 H 1007.13 -5.21095 2.97623 0
M  V30 10414 H 1008.2 -3.79793 3.01472 0
M  V30 10415 N 1009.54 -0.859717 -1.32086 0
M  V30 10416 C 1010.47 -0.265258 -2.2766 0
M  V30 10417 C 1011.49 0.565889 -1.52648 0
M  V30 10418 O 1012.68 0.389554 -1.74197 0
M  V30 10419 C 1009.78 0.643397 -3.32737 0
M  V30 10420 C 1008.95 -0.153024 -4.37132 0
M  V30 10421 C 1008.01 0.682176 -5.21759 0
M  V30 10422 O 1007.03 0.113878 -5.69086 0
M  V30 10423 N 1008.24 1.99602 -5.45105 0
M  V30 10424 H 1011 -1.08653 -2.79311 0
M  V30 10425 H 1008.56 -0.720191 -1.45 0
M  V30 10426 H 1010.55 1.20759 -3.86263 0
M  V30 10427 H 1009.12 1.36535 -2.81206 0
M  V30 10428 H 1008.34 -0.898657 -3.8382 0
M  V30 10429 H 1009.63 -0.699877 -5.03963 0
M  V30 10430 H 1009.03 2.481 -5.08393 0
M  V30 10431 H 1007.59 2.50823 -6.01607 0
M  V30 10432 N 1011.02 1.44971 -0.618145 0
M  V30 10433 C 1011.93 2.34403 0.0960457 0
M  V30 10434 C 1012.95 1.51862 0.849355 0
M  V30 10435 O 1014.12 1.84632 0.804557 0
M  V30 10436 C 1011.19 3.29646 1.07397 0
M  V30 10437 C 1010.25 4.28095 0.321466 0
M  V30 10438 C 1009.48 5.18787 1.25281 0
M  V30 10439 O 1009.7 5.1313 2.49106 0
M  V30 10440 O 1008.64 5.97282 0.744156 0
M  V30 10441 H 1012.46 2.96898 -0.639176 0
M  V30 10442 H 1010.05 1.44529 -0.37837 0
M  V30 10443 H 1011.93 3.88307 1.63694 0
M  V30 10444 H 1010.61 2.69702 1.79004 0
M  V30 10445 H 1009.51 3.73019 -0.284223 0
M  V30 10446 H 1010.85 4.90923 -0.354315 0
M  V30 10447 N 1012.5 0.357919 1.53482 0
M  V30 10448 C 1013.91 0.00655107 1.59599 0
M  V30 10449 C 1014.11 -1.47449 1.37336 0
M  V30 10450 O 1013.17 -2.2351 1.17472 0
M  V30 10451 C 1014.48 0.455617 2.97228 0
M  V30 10452 C 1016.03 0.409183 3.10314 0
M  V30 10453 C 1016.51 0.833941 4.50344 0
M  V30 10454 N 1018 0.788695 4.56436 0
M  V30 10455 C 1018.73 1.08914 5.62961 0
M  V30 10456 N 1018.23 1.45847 6.77274 0
M  V30 10457 N 1020.02 1.01243 5.52907 0
M  V30 10458 H 1012.17 1.32248 1.66206 0
M  V30 10459 H 1014.44 0.540047 0.779136 0
M  V30 10460 H 1014.14 1.48881 3.18634 0
M  V30 10461 H 1014.02 -0.161751 3.76853 0
M  V30 10462 H 1016.4 -0.614863 2.88623 0
M  V30 10463 H 1016.48 1.06195 2.32715 0
M  V30 10464 H 1016.13 1.85607 4.72771 0
M  V30 10465 H 1016.06 0.158507 5.26361 0
M  V30 10466 H 1018.55 0.516497 3.74354 0
M  V30 10467 H 1018.86 1.67218 7.54492 0
M  V30 10468 H 1017.21 1.49705 6.78685 0
M  V30 10469 H 1020.4 0.723137 4.62481 0
M  V30 10470 H 1020.57 1.24991 6.35831 0
M  V30 10471 N 1013.98 -1.5736 0.0868897 0
M  V30 10472 C 1014.89 -2.17087 -0.889402 0
M  V30 10473 C 1015.9 -1.13809 -1.31619 0
M  V30 10474 O 1017.08 -1.46143 -1.38579 0
M  V30 10475 C 1014.14 -2.73286 -2.13344 0
M  V30 10476 C 1013.2 -3.91491 -1.76164 0
M  V30 10477 C 1012.44 -4.45 -2.94637 0
M  V30 10478 O 1012.66 -3.97467 -4.09116 0
M  V30 10479 O 1011.59 -5.36133 -2.73579 0
M  V30 10480 H 1015.42 -3.00902 -0.411275 0
M  V30 10481 H 1013.01 -1.4877 -0.137015 0
M  V30 10482 H 1014.89 -3.0924 -2.86266 0
M  V30 10483 H 1013.56 -1.92521 -2.60225 0
M  V30 10484 H 1012.47 -3.60363 -1.00447 0
M  V30 10485 H 1013.8 -4.73593 -1.34053 0
M  V30 10486 N 1015.45 0.186762 -1.56489 0
M  V30 10487 C 1016.38 1.23395 -1.98232 0
M  V30 10488 C 1017.37 1.4702 -0.855526 0
M  V30 10489 O 1018.55 1.58616 -1.12048 0
M  V30 10490 C 1015.68 2.57635 -2.32898 0
M  V30 10491 C 1014.63 2.48607 -3.48394 0
M  V30 10492 C 1013.96 3.87196 -3.68759 0
M  V30 10493 C 1015.26 2.00398 -4.82325 0
M  V30 10494 H 1016.95 0.887026 -2.85958 0
M  V30 10495 H 1014.5 0.42525 -1.37578 0
M  V30 10496 H 1016.45 3.31082 -2.60696 0
M  V30 10497 H 1015.18 2.94084 -1.42064 0
M  V30 10498 H 1013.84 1.77615 -3.207 0
M  V30 10499 H 1013.48 4.21012 -2.75241 0
M  V30 10500 H 1013.18 3.82029 -4.46462 0
M  V30 10501 H 1014.71 4.62253 -3.98941 0
M  V30 10502 H 1016.12 2.6361 -5.091 0
M  V30 10503 H 1014.52 2.06214 -5.63556 0
M  V30 10504 H 1015.59 0.957562 -4.75351 0
M  V30 10505 N 1016.93 1.50896 0.454776 0
M  V30 10506 C 1018.18 1.6294 1.20741 0
M  V30 10507 C 1018.51 0.336339 1.91265 0
M  V30 10508 O 1017.79 -0.663153 1.82846 0
M  V30 10509 C 1018.07 2.82092 2.23822 0
M  V30 10510 C 1017.92 4.21326 1.57495 0
M  V30 10511 C 1019.24 2.96777 3.24979 0
M  V30 10512 H 1016.36 0.59302 0.437603 0
M  V30 10513 H 1019 1.83331 0.498959 0
M  V30 10514 H 1017.15 2.64837 2.84243 0
M  V30 10515 H 1018.82 4.50209 1.00546 0
M  V30 10516 H 1017.07 4.24829 0.877664 0
M  V30 10517 H 1017.74 5.00656 2.32482 0
M  V30 10518 H 1020.21 3.12627 2.74597 0
M  V30 10519 H 1019.09 3.81742 3.94416 0
M  V30 10520 H 1019.35 2.08091 3.90065 0
M  V30 10521 N 1018.41 -0.709066 1.40748 0
M  V30 10522 C 1019.32 -1.85314 1.43861 0
M  V30 10523 C 1020.34 -1.70832 0.330539 0
M  V30 10524 O 1021.51 -1.92983 0.576152 0
M  V30 10525 C 1018.58 -3.21174 1.30568 0
M  V30 10526 C 1017.64 -3.47863 2.51574 0
M  V30 10527 C 1016.87 -4.77241 2.38906 0
M  V30 10528 O 1017.09 -5.52791 1.40636 0
M  V30 10529 O 1016.03 -5.04413 3.28407 0
M  V30 10530 H 1019.85 -1.85644 2.40354 0
M  V30 10531 H 1017.44 -0.860352 1.2214 0
M  V30 10532 H 1019.32 -4.02313 1.25388 0
M  V30 10533 H 1018 -3.21557 0.371841 0
M  V30 10534 H 1016.9 -2.66708 2.62331 0
M  V30 10535 H 1018.24 -3.52283 3.43741 0
M  V30 10536 N 1019.89 -1.26353 -0.941956 0
M  V30 10537 C 1021.3 -1.10774 -1.50287 0
M  V30 10538 C 1021.65 0.312229 -1.937 0
M  V30 10539 O 1020.78 1.20364 -1.79838 0
M  V30 10540 C 1021.37 -2.00473 -2.73123 0
M  V30 10541 C 1019.93 -1.89042 -3.25485 0
M  V30 10542 C 1019.08 -1.93869 -1.98267 0
M  V30 10543 H 1022.03 -1.39454 -0.757523 0
M  V30 10544 H 1022.05 -1.55216 -3.47402 0
M  V30 10545 H 1021.56 -3.03812 -2.41495 0
M  V30 10546 H 1019.66 -0.886341 -3.61904 0
M  V30 10547 H 1019.78 -2.74533 -3.92643 0
M  V30 10548 H 1018.14 -1.37912 -2.14132 0
M  V30 10549 H 1018.92 -2.98837 -1.68972 0
M  V30 10550 N 1021.37 1.14642 -1.08144 0
M  V30 10551 C 1022.3 2.21775 -0.730609 0
M  V30 10552 C 1023.28 1.67683 0.285702 0
M  V30 10553 O 1024.46 1.93567 0.156667 0
M  V30 10554 C 1021.59 3.47033 -0.136242 0
M  V30 10555 C 1020.55 4.14134 -1.0806 0
M  V30 10556 C 1019.87 5.33563 -0.348585 0
M  V30 10557 C 1021.17 4.62978 -2.41761 0
M  V30 10558 H 1022.87 2.51378 -1.62633 0
M  V30 10559 H 1020.41 1.20825 -0.783411 0
M  V30 10560 H 1022.37 4.21226 0.121182 0
M  V30 10561 H 1021.09 3.16786 0.7946 0
M  V30 10562 H 1019.75 3.41892 -1.32308 0
M  V30 10563 H 1019.4 4.99575 0.585974 0
M  V30 10564 H 1019.1 5.79402 -0.978122 0
M  V30 10565 H 1020.62 6.10519 -0.0991508 0
M  V30 10566 H 1022.04 5.28659 -2.21795 0
M  V30 10567 H 1020.43 5.1951 -3.00383 0
M  V30 10568 H 1021.5 3.78189 -3.03482 0
M  V30 10569 N 1022.85 0.866709 1.31628 0
M  V30 10570 C 1024.07 0.49039 2.01004 0
M  V30 10571 C 1024.49 -0.916244 1.65077 0
M  V30 10572 O 1023.85 -1.59975 0.8783 0
M  V30 10573 C 1023.9 0.634011 3.55897 0
M  V30 10574 O 1023.62 1.98525 3.90537 0
M  V30 10575 C 1025.12 0.258277 4.42547 0
M  V30 10576 H 1022.34 0.191421 0.643117 0
M  V30 10577 H 1024.88 1.16698 1.67934 0
M  V30 10578 H 1023.04 0.00501801 3.874 0
M  V30 10579 H 1023.45 1.99067 4.85255 0
M  V30 10580 H 1024.93 0.409733 5.50477 0
M  V30 10581 H 1025.4 -0.802301 4.3181 0
M  V30 10582 H 1026.01 0.862837 4.16456 0
M  V30 10583 N 1024.32 -1.44642 0.625825 0
M  V30 10584 C 1025.73 -1.85502 0.211175 0
M  V30 10585 C 1026.09 -1.52356 -1.2362 0
M  V30 10586 O 1025.21 -0.959051 -1.93988 0
M  V30 10587 C 1025.81 -3.36702 0.37648 0
M  V30 10588 C 1024.36 -3.76396 0.0163795 0
M  V30 10589 C 1023.51 -2.68517 0.692368 0
M  V30 10590 H 1026.46 -1.35183 0.831333 0
M  V30 10591 H 1026.48 -3.78536 -0.386106 0
M  V30 10592 H 1026 -3.60795 1.42999 0
M  V30 10593 H 1024.1 -3.57919 -1.0356 0
M  V30 10594 H 1024.21 -4.77231 0.422742 0
M  V30 10595 H 1022.57 -2.54377 0.128191 0
M  V30 10596 H 1023.36 -2.95444 1.74837 0
M  V30 10597 N 1025.8 -0.366053 -1.5329 0
M  V30 10598 C 1027.03 0.226839 -2.06156 0
M  V30 10599 C 1027.45 1.41637 -1.23776 0
M  V30 10600 O 1026.81 1.7947 -0.256948 0
M  V30 10601 C 1026.86 0.597956 -3.55608 0
M  V30 10602 O 1025.96 1.69512 -3.75951 0
M  V30 10603 H 1025.3 0.0329156 -0.663184 0
M  V30 10604 H 1027.83 -0.526793 -1.97702 0
M  V30 10605 H 1027.84 0.868831 -3.98642 0
M  V30 10606 H 1026.52 -0.271838 -4.15011 0
M  V30 10607 H 1025.09 1.41976 -3.44815 0
M  V30 10608 N 1027.28 1.57312 -0.0952337 0
M  V30 10609 C 1028.53 1.93974 0.567319 0
M  V30 10610 C 1028.85 0.977805 1.68713 0
M  V30 10611 O 1028.12 0.0298944 1.95877 0
M  V30 10612 H 1026.7 0.71612 0.212558 0
M  V30 10613 H 1029.36 1.94254 -0.158598 0
M  V30 10614 H 1028.46 2.964 0.977423 0
M  V30 10615 N 1028.76 -0.17846 1.56586 0
M  V30 10616 C 1029.67 -1.24115 1.9908 0
M  V30 10617 C 1030.68 -1.48854 0.901031 0
M  V30 10618 O 1031.86 -1.61142 1.2081 0
M  V30 10619 C 1028.92 -2.56187 2.33601 0
M  V30 10620 C 1027.99 -2.39373 3.56369 0
M  V30 10621 C 1027.22 -3.65147 3.89234 0
M  V30 10622 O 1027.44 -4.70024 3.23162 0
M  V30 10623 O 1026.38 -3.59683 4.82609 0
M  V30 10624 H 1030.2 -0.910482 2.89731 0
M  V30 10625 H 1027.79 -0.38477 1.4436 0
M  V30 10626 H 1029.67 -3.34109 2.56806 0
M  V30 10627 H 1028.34 -2.88847 1.46113 0
M  V30 10628 H 1027.25 -1.59506 3.38391 0
M  V30 10629 H 1028.58 -2.1164 4.44375 0
M  V30 10630 N 1030.24 -1.51135 -0.446768 0
M  V30 10631 C 1031.2 -1.71187 -1.52406 0
M  V30 10632 C 1032.2 -0.582037 -1.49897 0
M  V30 10633 O 1033.39 -0.849452 -1.52085 0
M  V30 10634 C 1030.52 -1.75962 -2.91976 0
M  V30 10635 H 1031.71 -2.67324 -1.35934 0
M  V30 10636 H 1029.27 -1.40982 -0.674813 0
M  V30 10637 H 1030 -0.816065 -3.13864 0
M  V30 10638 H 1029.79 -2.58065 -2.95203 0
M  V30 10639 H 1031.28 -1.93347 -3.70144 0
M  V30 10640 N 1031.71 0.701592 -1.41122 0
M  V30 10641 C 1033.12 1.28129 -1.35793 0
M  V30 10642 C 1033.48 1.96163 -0.0381185 0
M  V30 10643 O 1032.6 1.98416 0.863723 0
M  V30 10644 C 1033.2 2.33005 -2.45955 0
M  V30 10645 C 1031.75 2.86566 -2.44043 0
M  V30 10646 C 1030.9 1.60526 -2.26112 0
M  V30 10647 H 1033.85 0.496756 -1.50725 0
M  V30 10648 H 1033.87 3.14163 -2.14667 0
M  V30 10649 H 1033.39 1.8346 -3.42 0
M  V30 10650 H 1031.49 3.40304 -1.51737 0
M  V30 10651 H 1031.6 3.37406 -3.40138 0
M  V30 10652 H 1029.96 1.86113 -1.7388 0
M  V30 10653 H 1030.75 1.12985 -3.24175 0
M  V30 10654 N 1033.19 1.2685 0.935242 0
M  V30 10655 C 1034.14 1.08746 2.05614 0
M  V30 10656 C 1035.13 0.012681 1.69395 0
M  V30 10657 O 1036.34 0.169822 1.79197 0
M  V30 10658 H 1032.71 0.33485 0.673335 0
M  V30 10659 H 1034.69 2.03725 2.18033 0
M  V30 10660 C 1033.43 0.74346 3.39659 0
M  V30 10661 H 1032.76 1.56236 3.68008 0
M  V30 10662 H 1034.2 0.656607 4.18885 0
M  V30 10663 C 1032.66 -0.551751 3.32351 0
M  V30 10664 O 1033.19 -1.58836 3.68963 0
M  V30 10665 N 1031.39 -0.544583 2.85452 0
M  V30 10666 H 1030.94 0.29939 2.55854 0
M  V30 10667 H 1030.9 -1.41129 2.80945 0
M  V30 10668 N 1034.67 -1.14067 1.0875 0
M  V30 10669 C 1035.6 -2.18926 0.67852 0
M  V30 10670 C 1036.62 -1.60441 -0.276163 0
M  V30 10671 O 1037.8 -1.78388 -0.0632788 0
M  V30 10672 C 1034.9 -3.38893 -0.0218852 0
M  V30 10673 C 1034.08 -4.26901 0.952582 0
M  V30 10674 C 1033.14 -5.25418 0.286859 0
M  V30 10675 O 1032.16 -5.61512 0.932354 0
M  V30 10676 N 1033.36 -5.72476 -0.961831 0
M  V30 10677 H 1036.13 -2.54629 1.58063 0
M  V30 10678 H 1033.69 -1.29321 0.974042 0
M  V30 10679 H 1035.68 -4.01864 -0.478278 0
M  V30 10680 H 1034.25 -3.01486 -0.826141 0
M  V30 10681 H 1033.47 -3.60812 1.58772 0
M  V30 10682 H 1034.76 -4.82563 1.61279 0
M  V30 10683 H 1034.16 -5.45287 -1.50594 0
M  V30 10684 H 1032.72 -6.37418 -1.36166 0
M  V30 10685 N 1036.15 -0.873678 -1.31166 0
M  V30 10686 C 1037.11 -0.337069 -2.26708 0
M  V30 10687 C 1038.11 0.51406 -1.52362 0
M  V30 10688 O 1039.3 0.322834 -1.71182 0
M  V30 10689 C 1036.43 0.520897 -3.36897 0
M  V30 10690 H 1037.63 -1.18056 -2.75686 0
M  V30 10691 H 1035.18 -0.649577 -1.42163 0
M  V30 10692 H 1035.91 1.38543 -2.93217 0
M  V30 10693 H 1035.7 -0.0886015 -3.92 0
M  V30 10694 H 1037.19 0.888497 -4.08039 0
M  V30 10695 N 1037.63 1.44308 -0.633487 0
M  V30 10696 C 1038.56 2.33431 0.0568402 0
M  V30 10697 C 1039.54 1.48342 0.832386 0
M  V30 10698 O 1040.72 1.77056 0.797798 0
M  V30 10699 C 1037.85 3.31443 1.03743 0
M  V30 10700 C 1036.81 4.26368 0.373362 0
M  V30 10701 C 1036.13 5.14267 1.46403 0
M  V30 10702 C 1037.43 5.17287 -0.721876 0
M  V30 10703 H 1039.13 2.91402 -0.687388 0
M  V30 10704 H 1036.67 1.4012 -0.332009 0
M  V30 10705 H 1038.63 3.92677 1.52913 0
M  V30 10706 H 1037.35 2.71686 1.81258 0
M  V30 10707 H 1036.01 3.6647 -0.0977053 0
M  V30 10708 H 1035.66 4.50861 2.23011 0
M  V30 10709 H 1035.36 5.7859 1.02506 0
M  V30 10710 H 1036.88 5.78373 1.95748 0
M  V30 10711 H 1038.29 5.72444 -0.313181 0
M  V30 10712 H 1036.69 5.90226 -1.08413 0
M  V30 10713 H 1037.76 4.58159 -1.58804 0
M  V30 10714 N 1039.1 0.374177 1.53094 0
M  V30 10715 C 1040.03 -0.459976 2.28925 0
M  V30 10716 C 1041.02 -1.07656 1.31698 0
M  V30 10717 O 1042.2 -1.09219 1.60577 0
M  V30 10718 C 1039.33 -1.5954 3.08487 0
M  V30 10719 C 1038.28 -1.10563 4.13473 0
M  V30 10720 C 1037.61 -2.33196 4.81169 0
M  V30 10721 C 1038.91 -0.184275 5.21975 0
M  V30 10722 H 1040.6 0.172692 2.98902 0
M  V30 10723 H 1038.15 0.0844956 1.43752 0
M  V30 10724 H 1040.1 -2.18565 3.60288 0
M  V30 10725 H 1038.83 -2.25543 2.36216 0
M  V30 10726 H 1037.49 -0.53801 3.62631 0
M  V30 10727 H 1037.13 -2.97675 4.05461 0
M  V30 10728 H 1036.83 -2.01094 5.52119 0
M  V30 10729 H 1038.36 -2.92892 5.35767 0
M  V30 10730 H 1039.77 -0.682262 5.69226 0
M  V30 10731 H 1038.17 0.0462746 6.00082 0
M  V30 10732 H 1039.24 0.771152 4.78729 0
M  V30 10733 N 1040.58 -1.57259 0.103575 0
M  V30 10734 C 1042 -1.57581 -0.253062 0
M  V30 10735 C 1042.2 -1.11531 -1.67819 0
M  V30 10736 O 1041.25 -0.795632 -2.39637 0
M  V30 10737 C 1042.57 -3.00681 -0.0337753 0
M  V30 10738 C 1044.12 -3.12837 -0.10087 0
M  V30 10739 C 1044.59 -4.57911 0.0905295 0
M  V30 10740 N 1046.08 -4.63186 0.0359789 0
M  V30 10741 C 1046.82 -5.73179 0.159199 0
M  V30 10742 N 1046.31 -6.91976 0.337728 0
M  V30 10743 N 1048.11 -5.62011 0.0998662 0
M  V30 10744 H 1040.26 -1.85499 1.0346 0
M  V30 10745 H 1042.52 -0.856584 0.406163 0
M  V30 10746 H 1042.23 -3.38602 0.950858 0
M  V30 10747 H 1042.1 -3.69207 -0.772406 0
M  V30 10748 H 1044.49 -2.74783 -1.07601 0
M  V30 10749 H 1044.57 -2.46886 0.66939 0
M  V30 10750 H 1044.21 -4.9666 1.06258 0
M  V30 10751 H 1044.14 -5.21933 -0.699528 0
M  V30 10752 H 1046.63 -3.7777 -0.099121 0
M  V30 10753 H 1046.95 -7.71641 0.423032 0
M  V30 10754 H 1045.29 -6.93996 0.373504 0
M  V30 10755 H 1048.48 -4.68084 -0.0385356 0
M  V30 10756 H 1048.65 -6.47693 0.199342 0
M  V30 10757 N 1042.06 0.170153 -1.56679 0
M  V30 10758 C 1043.31 0.884902 -1.81252 0
M  V30 10759 C 1043.62 1.83361 -0.681024 0
M  V30 10760 O 1044.83 2.59082 -0.811722 0
M  V30 10761 C 1043.28 1.62408 -3.21172 0
M  V30 10762 C 1042.89 0.718947 -4.42194 0
M  V30 10763 C 1044.64 2.32699 -3.55037 0
M  V30 10764 C 1042.54 1.45843 -5.73135 0
M  V30 10765 H 1041.47 0.33418 -0.675899 0
M  V30 10766 H 1044.12 0.137818 -1.82982 0
M  V30 10767 H 1042.51 2.41596 -3.13763 0
M  V30 10768 H 1043.68 -0.0360521 -4.60786 0
M  V30 10769 H 1042 0.125634 -4.1621 0
M  V30 10770 H 1044.59 2.88621 -4.50114 0
M  V30 10771 H 1044.94 3.08092 -2.79974 0
M  V30 10772 H 1045.47 1.60453 -3.64005 0
M  V30 10773 H 1042.21 0.746799 -6.51232 0
M  V30 10774 H 1041.73 2.18672 -5.58518 0
M  V30 10775 H 1043.41 2.0056 -6.1513 0
M  V30 10776 N 1043.54 1.5137 0.438746 0
M  V30 10777 C 1044.47 1.75528 1.53987 0
M  V30 10778 C 1045.45 0.605067 1.58975 0
M  V30 10779 O 1046.63 0.847634 1.74725 0
M  V30 10780 C 1043.76 1.87904 2.92078 0
M  V30 10781 C 1042.72 3.0333 3.01951 0
M  V30 10782 C 1042.04 3.00888 4.42007 0
M  V30 10783 C 1043.34 4.43319 2.76163 0
M  V30 10784 H 1045.04 2.67728 1.34022 0
M  V30 10785 H 1042.58 1.28831 0.643308 0
M  V30 10786 H 1044.54 2.03388 3.69068 0
M  V30 10787 H 1043.26 0.923514 3.13271 0
M  V30 10788 H 1041.92 2.87549 2.274 0
M  V30 10789 H 1041.57 2.03116 4.60166 0
M  V30 10790 H 1041.27 3.78397 4.49544 0
M  V30 10791 H 1042.79 3.18464 5.20973 0
M  V30 10792 H 1044.21 4.59458 3.42887 0
M  V30 10793 H 1042.6 5.22523 2.9511 0
M  V30 10794 H 1043.67 4.53453 1.71779 0
M  V30 10795 N 1045.02 -0.694098 1.41492 0
M  V30 10796 C 1045.96 -1.80801 1.43456 0
M  V30 10797 C 1046.93 -1.63571 0.288757 0
M  V30 10798 O 1048.12 -1.844 0.490017 0
M  V30 10799 C 1045.26 -3.18694 1.32394 0
M  V30 10800 C 1044.37 -3.47346 2.56855 0
M  V30 10801 C 1043.51 -4.74862 2.38075 0
M  V30 10802 C 1042.55 -4.96486 3.58005 0
M  V30 10803 N 1041.68 -6.15229 3.38287 0
M  V30 10804 H 1046.52 -1.78457 2.38657 0
M  V30 10805 H 1044.06 -0.871455 1.18508 0
M  V30 10806 H 1046.02 -3.98352 1.23982 0
M  V30 10807 H 1044.65 -3.20211 0.407999 0
M  V30 10808 H 1043.7 -2.62083 2.75711 0
M  V30 10809 H 1045.01 -3.59226 3.4606 0
M  V30 10810 H 1044.17 -5.62577 2.27139 0
M  V30 10811 H 1042.9 -4.6523 1.46329 0
M  V30 10812 H 1041.91 -4.07219 3.69395 0
M  V30 10813 H 1043.13 -5.07976 4.50708 0
M  V30 10814 H 1041.08 -6.06807 2.49242 0
M  V30 10815 H 1041 -6.27883 4.21069 0
M  V30 10816 H 1042.27 -7.05674 3.31126 0
M  V30 10817 N 1046.49 -1.27344 -0.928501 0
M  V30 10818 C 1047.4 -1.11812 -2.06241 0
M  V30 10819 C 1048.42 -0.048347 -1.73933 0
M  V30 10820 O 1049.6 -0.25467 -1.99783 0
M  V30 10821 C 1046.66 -0.766036 -3.38131 0
M  V30 10822 C 1045.72 -1.91659 -3.84142 0
M  V30 10823 C 1044.96 -1.58121 -5.09738 0
M  V30 10824 O 1045.18 -0.488742 -5.68302 0
M  V30 10825 O 1044.11 -2.42013 -5.51102 0
M  V30 10826 H 1047.94 -2.06967 -2.22258 0
M  V30 10827 H 1045.52 -1.06524 -1.04752 0
M  V30 10828 H 1047.41 -0.582982 -4.17348 0
M  V30 10829 H 1046.08 0.155998 -3.23324 0
M  V30 10830 H 1044.99 -2.1547 -3.05816 0
M  V30 10831 H 1046.32 -2.8188 -4.0349 0
M  V30 10832 N 1047.97 1.13488 -1.09353 0
M  V30 10833 C 1049.2 1.88592 -0.850915 0
M  V30 10834 C 1049.62 1.79087 0.597761 0
M  V30 10835 O 1048.97 1.15695 1.41142 0
M  V30 10836 C 1049.02 3.38219 -1.27633 0
M  V30 10837 O 1048.74 3.47476 -2.66819 0
M  V30 10838 C 1050.25 4.30293 -1.06598 0
M  V30 10839 H 1047.47 0.597069 -0.306185 0
M  V30 10840 H 1050.01 1.43668 -1.45533 0
M  V30 10841 H 1048.16 3.80729 -0.715828 0
M  V30 10842 H 1048.58 4.40485 -2.84733 0
M  V30 10843 H 1050.05 5.33611 -1.41293 0
M  V30 10844 H 1050.53 4.392 -0.0037135 0
M  V30 10845 H 1051.14 3.9355 -1.6124 0
M  V30 10846 N 1049.45 0.880621 1.30701 0
M  V30 10847 C 1050.36 0.348034 2.32004 0
M  V30 10848 C 1051.38 -0.547508 1.65162 0
M  V30 10849 O 1052.55 -0.441673 1.96497 0
M  V30 10850 C 1049.62 -0.432585 3.43991 0
M  V30 10851 C 1048.68 0.492189 4.26469 0
M  V30 10852 C 1047.91 -0.25127 5.33108 0
M  V30 10853 O 1048.14 -1.47795 5.5092 0
M  V30 10854 O 1047.07 0.396376 6.00593 0
M  V30 10855 H 1050.9 1.18798 2.79501 0
M  V30 10856 H 1048.48 0.64432 1.34792 0
M  V30 10857 H 1050.36 -0.874733 4.12221 0
M  V30 10858 H 1049.04 -1.2489 2.98637 0
M  V30 10859 H 1047.94 0.983058 3.60953 0
M  V30 10860 H 1049.28 1.27439 4.75416 0
M  V30 10861 N 1050.93 -1.4397 0.641131 0
M  V30 10862 C 1052.18 -2.01946 0.149629 0
M  V30 10863 C 1052.5 -1.50496 -1.23212 0
M  V30 10864 O 1051.76 -0.683453 -1.83378 0
M  V30 10865 C 1052.06 -3.5727 0.0963368 0
M  V30 10866 C 1051.72 -4.28016 1.4182 0
M  V30 10867 C 1050.39 -4.47059 1.78021 0
M  V30 10868 C 1052.74 -4.68183 2.29028 0
M  V30 10869 C 1050.07 -5.03532 3.01119 0
M  V30 10870 C 1052.42 -5.26019 3.51406 0
M  V30 10871 C 1051.08 -5.4328 3.87818 0
M  V30 10872 H 1050.35 -0.738974 0.0547531 0
M  V30 10873 H 1053 -1.72605 0.829436 0
M  V30 10874 H 1051.3 -3.86083 -0.666879 0
M  V30 10875 H 1053 -3.99871 -0.300635 0
M  V30 10876 H 1049.59 -4.13531 1.12651 0
M  V30 10877 H 1053.78 -4.53175 2.02353 0
M  V30 10878 H 1049.03 -5.15082 3.29395 0
M  V30 10879 H 1053.21 -5.56092 4.19208 0
M  V30 10880 H 1050.83 -5.86805 4.83284 0
M  V30 10881 N 1052.41 -0.382291 -1.52893 0
M  V30 10882 C 1053.35 0.456234 -2.26246 0
M  V30 10883 C 1054.32 1.06366 -1.27575 0
M  V30 10884 O 1055.51 1.09301 -1.5639 0
M  V30 10885 C 1052.65 1.5813 -3.06739 0
M  V30 10886 C 1051.76 0.997416 -4.20328 0
M  V30 10887 C 1050.9 2.09296 -4.8823 0
M  V30 10888 C 1049.94 1.4846 -5.93823 0
M  V30 10889 N 1049.07 2.51916 -6.55349 0
M  V30 10890 H 1053.91 -0.175761 -2.97481 0
M  V30 10891 H 1051.45 -0.0985046 -1.4677 0
M  V30 10892 H 1053.41 2.24426 -3.51694 0
M  V30 10893 H 1052.04 2.18371 -2.37727 0
M  V30 10894 H 1051.09 0.224251 -3.79738 0
M  V30 10895 H 1052.4 0.512784 -4.96157 0
M  V30 10896 H 1051.56 2.83377 -5.36453 0
M  V30 10897 H 1050.3 2.61116 -4.1191 0
M  V30 10898 H 1049.3 0.729001 -5.44946 0
M  V30 10899 H 1050.53 0.97443 -6.72073 0
M  V30 10900 H 1048.47 3.02919 -5.81873 0
M  V30 10901 H 1048.39 2.08188 -7.26769 0
M  V30 10902 H 1049.66 3.25649 -7.08218 0
M  V30 10903 N 1053.89 1.57202 -0.111913 0
M  V30 10904 C 1054.83 2.14936 0.840908 0
M  V30 10905 C 1055.8 1.07242 1.2684 0
M  V30 10906 O 1056.99 1.35114 1.34718 0
M  V30 10907 C 1054.13 2.74743 2.0883 0
M  V30 10908 C 1053.24 3.96723 1.70982 0
M  V30 10909 C 1052.38 4.4464 2.90634 0
M  V30 10910 C 1051.41 5.59169 2.48992 0
M  V30 10911 N 1050.55 6.01862 3.61534 0
M  V30 10912 H 1055.39 2.96034 0.341735 0
M  V30 10913 H 1052.93 1.4626 0.156993 0
M  V30 10914 H 1054.89 3.07546 2.81907 0
M  V30 10915 H 1053.52 1.96346 2.56218 0
M  V30 10916 H 1052.57 3.70127 0.878072 0
M  V30 10917 H 1053.88 4.79795 1.36373 0
M  V30 10918 H 1053.03 4.79315 3.71944 0
M  V30 10919 H 1051.77 3.60503 3.28464 0
M  V30 10920 H 1050.78 5.24106 1.66113 0
M  V30 10921 H 1052 6.45067 2.12287 0
M  V30 10922 H 1049.95 5.20667 3.99051 0
M  V30 10923 H 1049.87 6.79772 3.30827 0
M  V30 10924 H 1051.13 6.41172 4.43305 0
M  V30 10925 N 1055.36 -0.161842 1.56767 0
M  V30 10926 C 1056.61 -0.875278 1.81719 0
M  V30 10927 C 1056.93 -1.82998 0.690739 0
M  V30 10928 O 1058.13 -2.58648 0.82545 0
M  V30 10929 C 1056.59 -1.60703 3.22029 0
M  V30 10930 C 1056.2 -0.695486 4.42569 0
M  V30 10931 C 1057.94 -2.30813 3.56266 0
M  V30 10932 C 1055.85 -1.42801 5.73901 0
M  V30 10933 H 1054.78 -0.330591 0.677662 0
M  V30 10934 H 1057.43 -0.128112 1.83052 0
M  V30 10935 H 1055.81 -2.39929 3.1504 0
M  V30 10936 H 1056.98 0.0604882 4.6076 0
M  V30 10937 H 1055.3 -0.10356 4.16271 0
M  V30 10938 H 1057.9 -2.86229 4.51638 0
M  V30 10939 H 1058.24 -3.06603 2.81604 0
M  V30 10940 H 1058.77 -1.5852 3.64851 0
M  V30 10941 H 1055.51 -0.712253 6.51619 0
M  V30 10942 H 1055.03 -2.15707 5.5967 0
M  V30 10943 H 1056.71 -1.97295 6.16185 0
M  V30 10944 N 1056.84 -1.516 -0.430713 0
M  V30 10945 C 1057.79 -1.73392 -1.52328 0
M  V30 10946 C 1058.76 -0.575758 -1.55802 0
M  V30 10947 O 1059.94 -0.810931 -1.72709 0
M  V30 10948 C 1057.08 -1.87092 -2.89984 0
M  V30 10949 C 1056.2 -3.14668 -2.95987 0
M  V30 10950 C 1055.33 -3.18923 -4.24807 0
M  V30 10951 C 1054.37 -4.40787 -4.24703 0
M  V30 10952 N 1053.51 -4.42556 -5.45059 0
M  V30 10953 H 1058.35 -2.6665 -1.33048 0
M  V30 10954 H 1055.88 -1.32146 -0.646207 0
M  V30 10955 H 1057.84 -1.93017 -3.69865 0
M  V30 10956 H 1056.47 -0.972363 -3.07807 0
M  V30 10957 H 1055.52 -3.1802 -2.08728 0
M  V30 10958 H 1056.84 -4.04562 -2.91772 0
M  V30 10959 H 1055.99 -3.23801 -5.13067 0
M  V30 10960 H 1054.73 -2.2693 -4.31688 0
M  V30 10961 H 1053.73 -4.36079 -3.34836 0
M  V30 10962 H 1054.96 -5.34053 -4.19481 0
M  V30 10963 H 1052.91 -3.53435 -5.52648 0
M  V30 10964 H 1052.82 -5.26267 -5.42751 0
M  V30 10965 H 1054.09 -4.51634 -6.35332 0
M  V30 10966 N 1058.32 0.686584 -1.41858 0
M  V30 10967 C 1059.57 1.44879 -1.41908 0
M  V30 10968 C 1059.9 1.94175 -0.0311408 0
M  V30 10969 O 1059.17 1.70131 0.942646 0
M  V30 10970 C 1059.46 2.65428 -2.43352 0
M  V30 10971 C 1059.31 2.2184 -3.91289 0
M  V30 10972 C 1060.63 3.67635 -2.41934 0
M  V30 10973 H 1057.75 0.525477 -0.516762 0
M  V30 10974 H 1060.39 0.781263 -1.73194 0
M  V30 10975 H 1058.54 3.2238 -2.16803 0
M  V30 10976 H 1060.21 1.70146 -4.28775 0
M  V30 10977 H 1058.45 1.53531 -4.05722 0
M  V30 10978 H 1059.13 3.08376 -4.5783 0
M  V30 10979 H 1061.6 3.20376 -2.65516 0
M  V30 10980 H 1060.48 4.49579 -3.14913 0
M  V30 10981 H 1060.74 4.17953 -1.44111 0
M  V30 10982 N 1059.8 1.27835 0.921735 0
M  V30 10983 C 1060.73 1.136 2.04003 0
M  V30 10984 C 1061.71 0.0358756 1.70062 0
M  V30 10985 O 1062.89 0.211438 1.93046 0
M  V30 10986 C 1060.02 0.788697 3.38226 0
M  V30 10987 C 1058.98 1.84272 3.863 0
M  V30 10988 C 1058.3 1.34923 5.17397 0
M  V30 10989 C 1059.6 3.24788 4.09035 0
M  V30 10990 H 1061.3 2.07149 2.1617 0
M  V30 10991 H 1058.84 0.997349 1.0387 0
M  V30 10992 H 1060.8 0.675911 4.15944 0
M  V30 10993 H 1059.52 -0.182499 3.2609 0
M  V30 10994 H 1058.18 1.94451 3.1078 0
M  V30 10995 H 1057.83 0.367328 5.01657 0
M  V30 10996 H 1057.53 2.05397 5.50532 0
M  V30 10997 H 1059.05 1.24951 5.97678 0
M  V30 10998 H 1060.47 3.17575 4.77304 0
M  V30 10999 H 1058.86 3.93025 4.53488 0
M  V30 11000 H 1059.93 3.69398 3.14122 0
M  V30 11001 N 1061.28 -1.12907 1.09954 0
M  V30 11002 C 1062.52 -1.83941 0.837255 0
M  V30 11003 C 1062.84 -1.84234 -0.638984 0
M  V30 11004 O 1062.11 -1.30193 -1.46378 0
M  V30 11005 H 1060.69 -0.681115 0.306743 0
M  V30 11006 H 1063.36 -1.36743 1.38879 0
M  V30 11007 H 1062.45 -2.88289 1.19565 0
M  V30 11008 N 1062.75 -0.88754 -1.30232 0
M  V30 11009 C 1063.98 -0.521562 -2.00735 0
M  V30 11010 C 1064.4 0.883247 -1.66073 0
M  V30 11011 O 1063.76 1.58581 -0.878731 0
M  V30 11012 C 1063.81 -0.706521 -3.53611 0
M  V30 11013 O 1062.91 0.246447 -4.11663 0
M  V30 11014 H 1062.25 -0.205216 -0.631492 0
M  V30 11015 H 1064.78 -1.19579 -1.66018 0
M  V30 11016 H 1064.79 -0.606501 -4.03467 0
M  V30 11017 H 1063.47 -1.73076 -3.78177 0
M  V30 11018 H 1062.05 0.0999062 -3.72766 0
M  V30 11019 N 1064.23 1.43628 -0.648757 0
M  V30 11020 C 1065.48 2.01465 -0.16002 0
M  V30 11021 C 1065.8 1.51413 1.22878 0
M  V30 11022 O 1065.07 0.724919 1.81994 0
M  V30 11023 H 1063.65 0.744885 -0.0561672 0
M  V30 11024 H 1066.31 1.75897 -0.839422 0
M  V30 11025 H 1065.41 3.1178 -0.141213 0
M  V30 11026 N 1065.71 0.390394 1.52688 0
M  V30 11027 C 1066.67 -0.432149 2.25089 0
M  V30 11028 C 1067.67 -0.989296 1.26766 0
M  V30 11029 O 1068.86 -0.871126 1.50854 0
M  V30 11030 C 1066 -1.60642 3.00678 0
M  V30 11031 H 1067.19 0.201734 2.99221 0
M  V30 11032 H 1064.74 0.142531 1.55649 0
M  V30 11033 H 1065.48 -2.2777 2.3085 0
M  V30 11034 H 1065.26 -1.21361 3.72846 0
M  V30 11035 H 1066.75 -2.18873 3.55647 0
M  V30 11036 N 1067.19 -1.57141 0.120249 0
M  V30 11037 C 1068.44 -1.95238 -0.537449 0
M  V30 11038 C 1068.76 -1.00361 -1.66607 0
M  V30 11039 O 1068.02 -0.0277306 -1.9568 0
M  V30 11040 C 1068.32 -3.39745 -1.10941 0
M  V30 11041 C 1067.98 -4.50785 -0.102012 0
M  V30 11042 C 1066.65 -4.80882 0.174994 0
M  V30 11043 C 1069 -5.17913 0.584462 0
M  V30 11044 C 1066.33 -5.75424 1.14474 0
M  V30 11045 C 1068.68 -6.13497 1.54284 0
M  V30 11046 C 1067.34 -6.41987 1.82782 0
M  V30 11047 H 1066.61 -0.714425 -0.196666 0
M  V30 11048 H 1069.26 -1.90438 0.201418 0
M  V30 11049 H 1067.56 -3.41246 -1.92506 0
M  V30 11050 H 1069.26 -3.66536 -1.62642 0
M  V30 11051 H 1065.85 -4.27342 -0.328097 0
M  V30 11052 H 1070.03 -4.94815 0.383625 0
M  V30 11053 H 1065.29 -5.95801 1.37226 0
M  V30 11054 H 1069.46 -6.64598 2.08044 0
M  V30 11055 H 1067.09 -7.15052 2.5808 0
M  V30 11056 N 1068.67 0.153526 -1.5685 0
M  V30 11057 C 1069.91 0.865519 -1.82629 0
M  V30 11058 C 1070.24 1.81999 -0.700105 0
M  V30 11059 O 1069.51 1.93907 0.278744 0
M  V30 11060 H 1068.09 0.32261 -0.673745 0
M  V30 11061 H 1070.75 0.149088 -1.94329 0
M  V30 11062 H 1069.84 1.43171 -2.77324 0
M  V30 11063 N 1070.14 1.51827 0.422667 0
M  V30 11064 C 1071.37 1.69049 1.1929 0
M  V30 11065 C 1071.79 0.394095 1.84641 0
M  V30 11066 O 1071.14 -0.628731 1.71328 0
M  V30 11067 C 1071.2 2.81657 2.26609 0
M  V30 11068 O 1070.92 4.06275 1.63929 0
M  V30 11069 C 1072.42 3.10274 3.16615 0
M  V30 11070 H 1069.64 0.566894 0.358988 0
M  V30 11071 H 1072.18 1.98318 0.499029 0
M  V30 11072 H 1070.34 2.54945 2.91688 0
M  V30 11073 H 1070.75 4.68924 2.3497 0
M  V30 11074 H 1072.22 3.92613 3.88019 0
M  V30 11075 H 1072.7 2.23273 3.78214 0
M  V30 11076 H 1073.31 3.387 2.57221 0
M  V30 11077 N 1071.62 -0.679052 1.4222 0
M  V30 11078 C 1072.87 -1.44125 1.42674 0
M  V30 11079 C 1073.2 -1.94156 0.041438 0
M  V30 11080 O 1072.48 -1.70628 -0.93361 0
M  V30 11081 C 1072.76 -2.64133 2.44756 0
M  V30 11082 C 1072.61 -2.19761 3.9246 0
M  V30 11083 C 1073.93 -3.66347 2.43881 0
M  V30 11084 H 1071.05 -0.522729 0.519541 0
M  V30 11085 H 1073.69 -0.772067 1.73606 0
M  V30 11086 H 1071.84 -3.21225 2.1851 0
M  V30 11087 H 1073.51 -1.67869 4.29671 0
M  V30 11088 H 1071.76 -1.51377 4.06531 0
M  V30 11089 H 1072.43 -3.05944 4.59459 0
M  V30 11090 H 1074.9 -3.18963 2.67211 0
M  V30 11091 H 1073.78 -4.47902 3.17293 0
M  V30 11092 H 1074.04 -4.17183 1.46325 0
M  V30 11093 N 1073.1 -1.28322 -0.914942 0
M  V30 11094 C 1074.33 -1.18083 -1.69529 0
M  V30 11095 C 1074.74 0.263274 -1.87359 0
M  V30 11096 O 1074.08 1.18988 -1.39955 0
M  V30 11097 C 1074.14 -1.8062 -3.10832 0
M  V30 11098 C 1073.81 -3.29861 -3.16292 0
M  V30 11099 C 1074.8 -4.26313 -2.97578 0
M  V30 11100 C 1072.49 -3.70797 -3.38843 0
M  V30 11101 C 1074.48 -5.61677 -3.01326 0
M  V30 11102 C 1072.17 -5.06287 -3.42223 0
M  V30 11103 C 1073.17 -6.01537 -3.23485 0
M  V30 11104 O 1072.86 -7.34556 -3.26624 0
M  V30 11105 H 1072.59 -0.410931 -0.53676 0
M  V30 11106 H 1075.14 -1.6994 -1.15367 0
M  V30 11107 H 1073.37 -1.23255 -3.66531 0
M  V30 11108 H 1075.06 -1.64915 -3.70888 0
M  V30 11109 H 1075.83 -3.96023 -2.79984 0
M  V30 11110 H 1071.71 -2.97124 -3.52475 0
M  V30 11111 H 1075.25 -6.36 -2.86618 0
M  V30 11112 H 1071.15 -5.36228 -3.59346 0
M  V30 11113 H 1071.92 -7.43167 -3.42994 0
M  V30 11114 N 1074.58 1.12322 -1.10551 0
M  V30 11115 C 1075.53 2.18087 -0.755424 0
M  V30 11116 C 1076.5 1.6391 0.268805 0
M  V30 11117 O 1077.68 1.90227 0.147813 0
M  V30 11118 C 1074.82 3.4455 -0.194713 0
M  V30 11119 C 1073.93 4.12775 -1.27439 0
M  V30 11120 C 1073.07 5.26891 -0.675194 0
M  V30 11121 C 1072.11 5.86985 -1.73536 0
M  V30 11122 N 1071.24 6.92512 -1.15635 0
M  V30 11123 H 1076.08 2.47379 -1.66155 0
M  V30 11124 H 1073.62 1.21452 -0.829924 0
M  V30 11125 H 1075.58 4.16936 0.148275 0
M  V30 11126 H 1074.21 3.15671 0.674638 0
M  V30 11127 H 1073.26 3.38556 -1.73448 0
M  V30 11128 H 1074.57 4.53506 -2.07687 0
M  V30 11129 H 1073.73 6.06046 -0.281723 0
M  V30 11130 H 1072.47 4.87442 0.158708 0
M  V30 11131 H 1071.47 5.06517 -2.13825 0
M  V30 11132 H 1072.7 6.28505 -2.57213 0
M  V30 11133 H 1070.64 6.55098 -0.343928 0
M  V30 11134 H 1070.56 7.31848 -1.89565 0
M  V30 11135 H 1071.83 7.75492 -0.789463 0
M  V30 11136 N 1076.06 0.894434 1.2976 0
M  V30 11137 C 1077.3 0.516646 1.95385 0
M  V30 11138 C 1077.63 -0.939141 1.70895 0
M  V30 11139 O 1076.9 -1.66153 1.03778 0
M  V30 11140 H 1075.48 0.188072 0.722937 0
M  V30 11141 H 1078.14 1.13958 1.58113 0
M  V30 11142 H 1077.23 0.694819 3.04267 0
M  V30 11143 N 1077.53 -1.43282 0.656365 0
M  V30 11144 C 1078.46 -2.33492 -0.0196962 0
M  V30 11145 C 1079.45 -1.49647 -0.80868 0
M  V30 11146 O 1080.63 -1.78303 -0.769529 0
M  V30 11147 C 1077.76 -3.33052 -0.984574 0
M  V30 11148 C 1076.71 -4.26908 -0.305483 0
M  V30 11149 C 1076.04 -5.16531 -1.38202 0
M  V30 11150 C 1077.34 -5.16073 0.804081 0
M  V30 11151 H 1079.03 -2.90272 0.733661 0
M  V30 11152 H 1076.58 -1.39574 0.354259 0
M  V30 11153 H 1078.53 -3.9506 -1.46647 0
M  V30 11154 H 1077.26 -2.74535 -1.76913 0
M  V30 11155 H 1075.92 -3.66268 0.155995 0
M  V30 11156 H 1075.56 -4.54351 -2.1581 0
M  V30 11157 H 1075.26 -5.80148 -0.932878 0
M  V30 11158 H 1076.79 -5.81414 -1.86522 0
M  V30 11159 H 1078.2 -5.71873 0.404212 0
M  V30 11160 H 1076.6 -5.88427 1.17789 0
M  V30 11161 H 1077.67 -4.55574 1.66073 0
M  V30 11162 N 1079.01 -0.398486 -1.52479 0
M  V30 11163 C 1080.26 0.17345 -2.02659 0
M  V30 11164 C 1080.61 1.43702 -1.27935 0
M  V30 11165 O 1079.91 1.87916 -0.37392 0
M  V30 11166 C 1080.1 0.485909 -3.54081 0
M  V30 11167 C 1079.93 -0.745833 -4.43472 0
M  V30 11168 C 1078.7 -1.26785 -4.89136 0
M  V30 11169 C 1080.9 -1.62085 -4.88091 0
M  V30 11170 N 1078.88 -2.45619 -5.62623 0
M  V30 11171 C 1080.25 -2.65552 -5.60252 0
M  V30 11172 C 1082.31 -1.63986 -4.7012 0
M  V30 11173 C 1081.01 -3.70818 -6.1635 0
M  V30 11174 C 1083.04 -2.68164 -5.27107 0
M  V30 11175 C 1082.4 -3.70353 -5.99181 0
M  V30 11176 H 1078.5 0.0253159 -0.78159 0
M  V30 11177 H 1081.08 -0.550442 -1.86757 0
M  V30 11178 H 1079.25 1.17885 -3.70078 0
M  V30 11179 H 1080.98 1.0458 -3.90954 0
M  V30 11180 H 1077.74 -0.827472 -4.66315 0
M  V30 11181 H 1078.16 -3.05771 -6.04014 0
M  V30 11182 H 1082.8 -0.863253 -4.13893 0
M  V30 11183 H 1080.52 -4.49341 -6.71653 0
M  V30 11184 H 1084.11 -2.7053 -5.15077 0
M  V30 11185 H 1082.99 -4.49642 -6.42489 0
M  V30 11186 N 1080.49 1.57075 -0.12858 0
M  V30 11187 C 1081.74 1.94695 0.526952 0
M  V30 11188 C 1082.05 1.01482 1.67215 0
M  V30 11189 O 1083.26 1.28606 2.39108 0
M  V30 11190 C 1081.72 3.4605 0.988801 0
M  V30 11191 C 1081.32 4.47816 -0.128457 0
M  V30 11192 C 1083.07 3.92572 1.61517 0
M  V30 11193 C 1080.97 5.9036 0.350628 0
M  V30 11194 H 1079.9 0.726819 0.200623 0
M  V30 11195 H 1082.56 1.82295 -0.209972 0
M  V30 11196 H 1080.94 3.53718 1.78043 0
M  V30 11197 H 1082.11 4.51826 -0.904976 0
M  V30 11198 H 1080.43 4.11103 -0.662075 0
M  V30 11199 H 1083.02 4.96493 1.98491 0
M  V30 11200 H 1083.37 3.33085 2.49721 0
M  V30 11201 H 1083.9 3.87744 0.888768 0
M  V30 11202 H 1080.64 6.53624 -0.495592 0
M  V30 11203 H 1080.16 5.89749 1.09342 0
M  V30 11204 H 1081.84 6.41926 0.808717 0
M  V30 11205 N 1081.97 -0.145205 1.5693 0
M  V30 11206 C 1083.38 -0.705089 1.72874 0
M  V30 11207 C 1083.73 -1.81577 0.743261 0
M  V30 11208 O 1082.86 -2.16214 -0.0897153 0
M  V30 11209 C 1083.45 -1.28578 3.13454 0
M  V30 11210 C 1082.01 -1.79221 3.30994 0
M  V30 11211 C 1081.16 -0.681392 2.68798 0
M  V30 11212 H 1084.11 0.0804798 1.58496 0
M  V30 11213 H 1084.13 -2.15558 3.13552 0
M  V30 11214 H 1083.64 -0.477186 3.85155 0
M  V30 11215 H 1081.74 -2.62642 2.64292 0
M  V30 11216 H 1081.86 -1.91969 4.38959 0
M  V30 11217 H 1080.22 -1.10847 2.29314 0
M  V30 11218 H 1081 0.115786 3.43105 0
M  V30 11219 N 1083.45 -1.52049 -0.414609 0
M  V30 11220 C 1084.36 -1.7788 -1.52958 0
M  V30 11221 C 1085.37 -0.66408 -1.60829 0
M  V30 11222 O 1086.55 -0.948882 -1.77646 0
M  V30 11223 C 1083.61 -1.91906 -2.88744 0
M  V30 11224 C 1082.68 -3.15803 -2.90804 0
M  V30 11225 C 1081.91 -3.29151 -4.20114 0
M  V30 11226 O 1082.13 -2.47892 -5.13718 0
M  V30 11227 O 1081.07 -4.2227 -4.28919 0
M  V30 11228 H 1084.89 -2.72506 -1.34067 0
M  V30 11229 H 1082.48 -1.36826 -0.599918 0
M  V30 11230 H 1084.36 -2.02986 -3.6929 0
M  V30 11231 H 1083.03 -1.00468 -3.07714 0
M  V30 11232 H 1081.94 -3.10185 -2.09131 0
M  V30 11233 H 1083.27 -4.07004 -2.76783 0
M  V30 11234 N 1084.93 0.6715 -1.42579 0
M  V30 11235 C 1086.17 1.42871 -1.42941 0
M  V30 11236 C 1086.49 1.94941 -0.0480483 0
M  V30 11237 O 1085.76 1.73275 0.913921 0
M  V30 11238 H 1084.34 0.530189 -0.526221 0
M  V30 11239 H 1087.01 0.793219 -1.78028 0
M  V30 11240 H 1086.1 2.2801 -2.13114 0
M  V30 11241 N 1086.4 1.28806 0.908124 0
M  V30 11242 C 1087.31 1.15079 2.04436 0
M  V30 11243 C 1088.33 0.076012 1.73834 0
M  V30 11244 O 1089.51 0.286421 1.99353 0
M  V30 11245 C 1086.57 0.819733 3.3687 0
M  V30 11246 C 1085.63 1.97746 3.81045 0
M  V30 11247 C 1084.86 1.66211 5.07158 0
M  V30 11248 O 1085.09 0.579092 5.67453 0
M  V30 11249 O 1084.02 2.5075 5.47182 0
M  V30 11250 H 1087.85 2.10477 2.18937 0
M  V30 11251 H 1085.43 1.08177 1.03044 0
M  V30 11252 H 1087.31 0.649304 4.16368 0
M  V30 11253 H 1085.99 -0.10454 3.23531 0
M  V30 11254 H 1084.9 2.20308 3.02349 0
M  V30 11255 H 1086.23 2.88264 3.98955 0
M  V30 11256 N 1087.88 -1.11734 1.11145 0
M  V30 11257 C 1088.83 -2.17683 0.766979 0
M  V30 11258 C 1089.8 -1.64051 -0.260108 0
M  V30 11259 O 1090.98 -1.90302 -0.137723 0
M  V30 11260 C 1088.12 -3.44442 0.212982 0
M  V30 11261 C 1087.24 -4.12094 1.29626 0
M  V30 11262 C 1086.37 -5.26526 0.703127 0
M  V30 11263 C 1085.41 -5.86057 1.76647 0
M  V30 11264 N 1084.55 -6.91889 1.19306 0
M  V30 11265 H 1089.39 -2.46495 1.67465 0
M  V30 11266 H 1086.92 -1.21011 0.836353 0
M  V30 11267 H 1088.88 -4.17009 -0.126162 0
M  V30 11268 H 1087.51 -3.16025 -0.657888 0
M  V30 11269 H 1086.56 -3.37631 1.75241 0
M  V30 11270 H 1087.88 -4.52398 2.10089 0
M  V30 11271 H 1087.03 -6.05888 0.313859 0
M  V30 11272 H 1085.77 -4.87519 -0.132856 0
M  V30 11273 H 1084.77 -5.05375 2.16508 0
M  V30 11274 H 1086 -6.27132 2.60543 0
M  V30 11275 H 1083.95 -6.54906 0.378664 0
M  V30 11276 H 1083.86 -7.30832 1.93443 0
M  V30 11277 H 1085.13 -7.75062 0.830578 0
M  V30 11278 N 1089.36 -0.901303 -1.29284 0
M  V30 11279 C 1090.61 -0.528826 -1.95784 0
M  V30 11280 C 1090.94 0.922833 -1.70873 0
M  V30 11281 O 1090.21 1.65448 -1.0226 0
M  V30 11282 C 1090.5 -0.823793 -3.50551 0
M  V30 11283 C 1090.35 -2.32727 -3.84913 0
M  V30 11284 C 1091.67 -0.311382 -4.38997 0
M  V30 11285 H 1088.79 -0.193604 -0.711116 0
M  V30 11286 H 1091.43 -1.12828 -1.52872 0
M  V30 11287 H 1089.58 -0.313612 -3.87232 0
M  V30 11288 H 1091.25 -2.90712 -3.58168 0
M  V30 11289 H 1089.49 -2.78735 -3.32399 0
M  V30 11290 H 1090.17 -2.48423 -4.9294 0
M  V30 11291 H 1092.64 -0.748265 -4.09317 0
M  V30 11292 H 1091.52 -0.546957 -5.46168 0
M  V30 11293 H 1091.78 0.787959 -4.35021 0
M  V30 11294 N 1090.84 1.42931 -0.663954 0
M  V30 11295 C 1091.78 2.3079 0.0210764 0
M  V30 11296 C 1092.75 1.45356 0.803796 0
M  V30 11297 O 1093.94 1.74207 0.778237 0
M  V30 11298 C 1091.08 3.31069 0.974023 0
M  V30 11299 C 1090.19 4.31598 0.186273 0
M  V30 11300 C 1089.33 5.18955 1.13399 0
M  V30 11301 C 1088.37 6.1117 0.337292 0
M  V30 11302 N 1087.5 6.91114 1.23715 0
M  V30 11303 H 1092.34 2.88819 -0.733995 0
M  V30 11304 H 1089.88 1.42274 -0.373711 0
M  V30 11305 H 1091.84 3.87727 1.54024 0
M  V30 11306 H 1090.47 2.74665 1.69585 0
M  V30 11307 H 1089.52 3.77147 -0.496402 0
M  V30 11308 H 1090.83 4.96919 -0.432753 0
M  V30 11309 H 1089.99 5.80292 1.77049 0
M  V30 11310 H 1088.73 4.53785 1.78691 0
M  V30 11311 H 1087.73 5.48911 -0.312492 0
M  V30 11312 H 1088.96 6.78386 -0.31138 0
M  V30 11313 H 1086.9 6.28583 1.87668 0
M  V30 11314 H 1086.82 7.52999 0.672946 0
M  V30 11315 H 1088.09 7.56948 1.86146 0
M  V30 11316 N 1092.32 0.406567 1.52266 0
M  V30 11317 C 1093.56 -0.171391 2.00971 0
M  V30 11318 C 1093.88 -1.46443 1.29668 0
M  V30 11319 O 1095.08 -2.12348 1.69176 0
M  V30 11320 C 1093.54 -0.35599 3.58135 0
M  V30 11321 C 1093.15 0.924803 4.38351 0
M  V30 11322 C 1094.89 -0.889378 4.15079 0
M  V30 11323 C 1092.8 0.707534 5.87152 0
M  V30 11324 H 1091.73 -0.0678253 0.750943 0
M  V30 11325 H 1094.38 0.531619 1.7563 0
M  V30 11326 H 1092.76 -1.12127 3.79794 0
M  V30 11327 H 1093.94 1.69603 4.28452 0
M  V30 11328 H 1092.25 1.38442 3.92712 0
M  V30 11329 H 1094.85 -1.06792 5.23927 0
M  V30 11330 H 1095.19 -1.86334 3.7227 0
M  V30 11331 H 1095.72 -0.183224 3.97378 0
M  V30 11332 H 1092.46 1.65299 6.34316 0
M  V30 11333 H 1091.98 -0.024446 5.99795 0
M  V30 11334 H 1093.66 0.348721 6.4606 0
M  V30 11335 N 1093.79 -1.57004 0.136909 0
M  V30 11336 C 1095.21 -1.82675 -0.385577 0
M  V30 11337 C 1095.56 -1.05508 -1.65416 0
M  V30 11338 O 1094.68 -0.297207 -2.14349 0
M  V30 11339 C 1095.28 -3.31356 -0.706326 0
M  V30 11340 C 1093.84 -3.57644 -1.17337 0
M  V30 11341 C 1092.98 -2.7664 -0.191239 0
M  V30 11342 H 1095.93 -1.54522 0.36177 0
M  V30 11343 H 1095.95 -3.4696 -1.56201 0
M  V30 11344 H 1095.47 -3.87492 0.217147 0
M  V30 11345 H 1093.57 -3.06883 -2.11313 0
M  V30 11346 H 1093.68 -4.66152 -1.10632 0
M  V30 11347 H 1092.04 -2.45403 -0.681867 0
M  V30 11348 H 1092.83 -3.35543 0.725647 0
M  V30 11349 N 1095.27 0.136881 -1.57004 0
M  V30 11350 C 1096.52 0.849031 -1.84172 0
M  V30 11351 C 1096.85 1.80359 -0.720027 0
M  V30 11352 O 1096.13 1.92538 0.275584 0
M  V30 11353 C 1096.41 1.61465 -3.21871 0
M  V30 11354 C 1096.26 0.680902 -4.44616 0
M  V30 11355 C 1097.58 2.57488 -3.56914 0
M  V30 11356 H 1094.7 0.307209 -0.669919 0
M  V30 11357 H 1097.34 0.113862 -1.89659 0
M  V30 11358 H 1095.49 2.24137 -3.17325 0
M  V30 11359 H 1097.16 0.0644094 -4.61255 0
M  V30 11360 H 1095.41 -0.00883629 -4.33799 0
M  V30 11361 H 1096.08 1.25286 -5.37594 0
M  V30 11362 H 1098.55 2.0493 -3.62136 0
M  V30 11363 H 1097.43 3.08101 -4.54274 0
M  V30 11364 H 1097.69 3.39321 -2.83397 0
M  V30 11365 N 1096.75 1.52266 0.40654 0
M  V30 11366 C 1097.71 1.75168 1.47814 0
M  V30 11367 C 1098.71 0.621575 1.48301 0
M  V30 11368 O 1099.9 0.889476 1.4978 0
M  V30 11369 C 1097.04 1.83642 2.87208 0
M  V30 11370 H 1098.23 2.70834 1.28798 0
M  V30 11371 H 1095.78 1.42722 0.637196 0
M  V30 11372 H 1096.52 0.898994 3.1159 0
M  V30 11373 H 1096.3 2.65801 2.88257 0
M  V30 11374 H 1097.79 2.03093 3.64888 0
M  V30 11375 N 1098.23 -0.663929 1.42933 0
M  V30 11376 C 1099.48 -1.41973 1.43271 0
M  V30 11377 C 1099.79 -1.95518 0.0566103 0
M  V30 11378 O 1101 -2.71428 -0.0625862 0
M  V30 11379 C 1099.45 -2.56882 2.52071 0
M  V30 11380 C 1099.06 -2.0999 3.95737 0
M  V30 11381 C 1100.8 -3.34322 2.61589 0
M  V30 11382 C 1098.71 -3.22046 4.96025 0
M  V30 11383 H 1097.64 -0.5334 0.532917 0
M  V30 11384 H 1100.29 -0.717709 1.68882 0
M  V30 11385 H 1098.67 -3.29504 2.19643 0
M  V30 11386 H 1099.85 -1.44449 4.37574 0
M  V30 11387 H 1098.16 -1.45459 3.90168 0
M  V30 11388 H 1100.76 -4.17796 3.33692 0
M  V30 11389 H 1101.1 -3.8164 1.66302 0
M  V30 11390 H 1101.64 -2.68775 2.93266 0
M  V30 11391 H 1098.38 -2.79708 5.92827 0
M  V30 11392 H 1097.9 -3.86333 4.5881 0
M  V30 11393 H 1099.57 -3.87345 5.1824 0
M  V30 11394 N 1099.71 -1.29285 -0.901281 0
M  V30 11395 C 1100.65 -1.1428 -2.00521 0
M  V30 11396 C 1101.62 -0.0365428 -1.6606 0
M  V30 11397 O 1102.81 -0.203771 -1.89709 0
M  V30 11398 C 1099.95 -0.823671 -3.35126 0
M  V30 11399 C 1099.06 -2.01021 -3.8238 0
M  V30 11400 C 1098.2 -1.6306 -5.05554 0
M  V30 11401 C 1097.24 -2.78304 -5.45173 0
M  V30 11402 N 1096.37 -2.4075 -6.59533 0
M  V30 11403 H 1101.21 -2.08729 -2.12688 0
M  V30 11404 H 1098.75 -1.0387 -1.04161 0
M  V30 11405 H 1100.71 -0.61934 -4.12577 0
M  V30 11406 H 1099.34 0.0839113 -3.22691 0
M  V30 11407 H 1098.39 -2.32629 -3.00978 0
M  V30 11408 H 1099.7 -2.8738 -4.07694 0
M  V30 11409 H 1098.86 -1.38906 -5.90584 0
M  V30 11410 H 1097.59 -0.738464 -4.82077 0
M  V30 11411 H 1096.6 -3.03142 -4.58678 0
M  V30 11412 H 1097.82 -3.68179 -5.70632 0
M  V30 11413 H 1095.77 -1.54022 -6.37662 0
M  V30 11414 H 1095.69 -3.20643 -6.84634 0
M  V30 11415 H 1096.96 -2.19912 -7.47836 0
M  V30 11416 N 1101.18 1.11143 -1.11736 0
M  V30 11417 C 1102.09 2.20851 -0.791331 0
M  V30 11418 C 1103.11 1.72644 0.216833 0
M  V30 11419 O 1104.29 2.01332 0.0522401 0
M  V30 11420 C 1101.35 3.4585 -0.242694 0
M  V30 11421 C 1100.41 4.08829 -1.30986 0
M  V30 11422 C 1099.65 5.27861 -0.787305 0
M  V30 11423 O 1099.87 5.69122 0.381549 0
M  V30 11424 O 1098.8 5.81506 -1.55352 0
M  V30 11425 H 1102.63 2.51158 -1.70744 0
M  V30 11426 H 1100.21 1.19739 -0.893478 0
M  V30 11427 H 1102.1 4.21359 0.0587472 0
M  V30 11428 H 1100.77 3.17187 0.646079 0
M  V30 11429 H 1099.68 3.35037 -1.66436 0
M  V30 11430 H 1101.01 4.41678 -2.17213 0
M  V30 11431 N 1102.66 0.908147 1.28804 0
M  V30 11432 C 1103.59 0.409106 2.29888 0
M  V30 11433 C 1104.57 -0.520338 1.61946 0
M  V30 11434 O 1105.76 -0.429268 1.89396 0
M  V30 11435 C 1102.89 -0.35669 3.45463 0
M  V30 11436 C 1101.84 0.4831 4.25265 0
M  V30 11437 C 1101.17 -0.4107 5.3312 0
M  V30 11438 C 1102.47 1.73744 4.92555 0
M  V30 11439 H 1104.16 1.25386 2.7188 0
M  V30 11440 H 1101.71 0.604368 1.30703 0
M  V30 11441 H 1103.66 -0.71661 4.15262 0
M  V30 11442 H 1102.39 -1.2353 3.02337 0
M  V30 11443 H 1101.04 0.825464 3.57186 0
M  V30 11444 H 1100.69 -1.28769 4.86238 0
M  V30 11445 H 1100.39 0.14756 5.87415 0
M  V30 11446 H 1101.92 -0.766626 6.05768 0
M  V30 11447 H 1103.33 1.44676 5.54745 0
M  V30 11448 H 1101.73 2.23767 5.5682 0
M  V30 11449 H 1102.8 2.46853 4.17363 0
M  V30 11450 N 1104.14 -1.42577 0.671525 0
M  V30 11451 C 1105.56 -1.5592 0.340769 0
M  V30 11452 C 1105.76 -1.65179 -1.15405 0
M  V30 11453 O 1104.81 -1.61691 -1.93939 0
M  V30 11454 C 1106.13 -2.81087 1.06821 0
M  V30 11455 C 1107.67 -2.94855 1.05022 0
M  V30 11456 C 1108.15 -4.22878 1.75892 0
M  V30 11457 N 1109.64 -4.29783 1.72744 0
M  V30 11458 C 1110.37 -5.2765 2.24439 0
M  V30 11459 N 1109.87 -6.31689 2.84501 0
M  V30 11460 N 1111.66 -5.19426 2.14832 0
M  V30 11461 H 1103.81 -1.34811 1.64133 0
M  V30 11462 H 1106.08 -0.648704 0.691294 0
M  V30 11463 H 1105.78 -2.80371 2.12332 0
M  V30 11464 H 1105.66 -3.71879 0.631356 0
M  V30 11465 H 1108.04 -2.951 0.00345633 0
M  V30 11466 H 1108.13 -2.05303 1.52592 0
M  V30 11467 H 1107.77 -4.23394 2.80535 0
M  V30 11468 H 1107.7 -5.1136 1.25773 0
M  V30 11469 H 1110.19 -3.55225 1.28932 0
M  V30 11470 H 1110.5 -7.02715 3.21575 0
M  V30 11471 H 1108.85 -6.3226 2.88569 0
M  V30 11472 H 1112.04 -4.37067 1.676 0
M  V30 11473 H 1112.21 -5.95535 2.55426 0
M  V30 11474 N 1105.62 -0.414636 -1.52048 0
M  V30 11475 C 1106.53 0.414861 -2.30903 0
M  V30 11476 C 1107.54 1.04855 -1.38858 0
M  V30 11477 O 1108.72 1.04886 -1.71933 0
M  V30 11478 C 1105.79 1.51356 -3.11917 0
M  V30 11479 C 1104.85 0.902359 -4.19709 0
M  V30 11480 C 1104.08 1.9487 -4.96852 0
M  V30 11481 O 1104.3 3.16766 -4.74358 0
M  V30 11482 O 1103.24 1.55186 -5.8155 0
M  V30 11483 H 1107.06 -0.228251 -3.02841 0
M  V30 11484 H 1104.65 -0.177704 -1.48339 0
M  V30 11485 H 1106.53 2.15127 -3.62351 0
M  V30 11486 H 1105.2 2.14117 -2.42767 0
M  V30 11487 H 1104.11 0.22721 -3.73409 0
M  V30 11488 H 1105.44 0.318587 -4.91168 0
M  V30 11489 N 1107.1 1.56929 -0.145233 0
M  V30 11490 C 1108.06 2.15483 0.781002 0
M  V30 11491 C 1109.06 1.09617 1.17647 0
M  V30 11492 O 1110.25 1.35265 1.09768 0
M  V30 11493 C 1107.38 2.7165 2.05959 0
M  V30 11494 H 1108.57 2.98667 0.271685 0
M  V30 11495 H 1106.13 1.55952 0.1042 0
M  V30 11496 H 1106.86 1.92127 2.61262 0
M  V30 11497 H 1106.65 3.491 1.78526 0
M  V30 11498 H 1108.14 3.16769 2.72116 0
M  V30 11499 N 1108.58 -0.128553 1.57075 0
M  V30 11500 C 1109.8 -0.85245 1.88523 0
M  V30 11501 C 1110.22 -1.73886 0.735459 0
M  V30 11502 O 1109.58 -1.80114 -0.294113 0
M  V30 11503 C 1109.63 -1.69384 3.19361 0
M  V30 11504 O 1109.35 -0.84313 4.2991 0
M  V30 11505 C 1110.85 -2.52373 3.64449 0
M  V30 11506 H 1108.07 -0.245556 0.624454 0
M  V30 11507 H 1110.61 -0.115807 2.04172 0
M  V30 11508 H 1108.77 -2.38335 3.0541 0
M  V30 11509 H 1109.18 -1.42255 5.0484 0
M  V30 11510 H 1110.66 -3.06955 4.58784 0
M  V30 11511 H 1111.13 -3.29283 2.90636 0
M  V30 11512 H 1111.74 -1.88681 3.81155 0
M  V30 11513 N 1110.05 -1.5248 -0.398459 0
M  V30 11514 C 1111.28 -1.71221 -1.17039 0
M  V30 11515 C 1111.7 -0.425515 -1.83224 0
M  V30 11516 O 1111.06 0.617938 -1.70444 0
M  V30 11517 C 1111.11 -2.8562 -2.20121 0
M  V30 11518 O 1110.21 -2.51934 -3.26501 0
M  V30 11519 H 1109.55 -0.569654 -0.34116 0
M  V30 11520 H 1112.08 -1.99231 -0.465652 0
M  V30 11521 H 1112.09 -3.10842 -2.64275 0
M  V30 11522 H 1110.77 -3.78969 -1.71334 0
M  V30 11523 H 1109.35 -2.3742 -2.87552 0
M  V30 11524 N 1111.53 0.65634 -1.43283 0
M  V30 11525 C 1112.94 1.23744 -1.39801 0
M  V30 11526 C 1113.29 1.95942 -0.100507 0
M  V30 11527 O 1112.42 2.01063 0.800161 0
M  V30 11528 C 1113.01 2.25062 -2.53244 0
M  V30 11529 C 1111.57 2.78657 -2.53036 0
M  V30 11530 C 1110.72 1.53251 -2.31105 0
M  V30 11531 H 1113.67 0.448553 -1.52229 0
M  V30 11532 H 1113.69 3.07174 -2.24553 0
M  V30 11533 H 1113.2 1.72487 -3.47664 0
M  V30 11534 H 1111.3 3.35304 -1.62487 0
M  V30 11535 H 1111.42 3.26414 -3.507 0
M  V30 11536 H 1109.78 1.80487 -1.79713 0
M  V30 11537 H 1110.56 1.02615 -3.27605 0
M  V30 11538 N 1113.01 1.29761 0.894412 0
M  V30 11539 C 1113.96 1.15341 1.99912 0
M  V30 11540 C 1114.93 0.0453488 1.66038 0
M  V30 11541 O 1116.11 0.213829 1.89598 0
M  V30 11542 C 1113.25 0.841432 3.34685 0
M  V30 11543 C 1112.36 2.03046 3.81309 0
M  V30 11544 C 1111.5 1.65739 5.04682 0
M  V30 11545 C 1110.54 2.81191 5.43689 0
M  V30 11546 N 1109.68 2.44244 6.58247 0
M  V30 11547 H 1114.52 2.09854 2.11578 0
M  V30 11548 H 1112.05 1.04421 1.03608 0
M  V30 11549 H 1114.01 0.641211 4.12243 0
M  V30 11550 H 1112.64 -0.066797 3.22731 0
M  V30 11551 H 1111.69 2.34222 2.9974 0
M  V30 11552 H 1113 2.89538 4.06164 0
M  V30 11553 H 1112.16 1.42036 5.8984 0
M  V30 11554 H 1110.9 0.764019 4.81678 0
M  V30 11555 H 1109.9 3.0557 4.57064 0
M  V30 11556 H 1111.13 3.712 5.68672 0
M  V30 11557 H 1109.07 1.57402 6.36837 0
M  V30 11558 H 1108.99 3.24269 6.82924 0
M  V30 11559 H 1110.26 2.23875 7.46659 0
M  V30 11560 N 1114.49 -1.10549 1.12324 0
M  V30 11561 C 1115.45 -2.15039 0.793156 0
M  V30 11562 C 1116.45 -1.59651 -0.19192 0
M  V30 11563 O 1117.64 -1.74167 0.0337262 0
M  V30 11564 C 1114.77 -3.40433 0.17842 0
M  V30 11565 H 1115.97 -2.4575 1.71892 0
M  V30 11566 H 1113.52 -1.25892 0.926333 0
M  V30 11567 H 1114.25 -3.15338 -0.757122 0
M  V30 11568 H 1114.04 -3.81921 0.887645 0
M  V30 11569 H 1115.53 -4.17584 -0.0360724 0
M  V30 11570 N 1115.97 -0.914965 -1.28321 0
M  V30 11571 C 1116.91 -0.394477 -2.29231 0
M  V30 11572 C 1117.91 0.514481 -1.61398 0
M  V30 11573 O 1119.11 0.395591 -1.75599 0
M  V30 11574 H 1115.49 -0.108969 -0.744063 0
M  V30 11575 H 1117.46 -1.25862 -2.70557 0
M  V30 11576 C 1116.21 0.349134 -3.45943 0
M  V30 11577 H 1115.53 -0.341087 -3.98342 0
M  V30 11578 H 1116.97 0.677944 -4.18545 0
M  V30 11579 C 1115.43 1.55747 -2.98738 0
M  V30 11580 O 1115.96 2.65654 -3.01315 0
M  V30 11581 N 1114.17 1.40488 -2.54384 0
M  V30 11582 H 1113.71 0.510716 -2.52487 0
M  V30 11583 H 1113.67 2.21464 -2.23161 0
M  V30 11584 N 1117.44 1.42219 -0.679077 0
M  V30 11585 C 1118.39 2.308 -0.00340316 0
M  V30 11586 C 1119.36 1.462 0.788334 0
M  V30 11587 O 1120.55 1.75023 0.759716 0
M  V30 11588 C 1117.69 3.32084 0.938854 0
M  V30 11589 C 1116.8 4.31772 0.140485 0
M  V30 11590 C 1115.93 5.20128 1.07888 0
M  V30 11591 C 1114.97 6.11493 0.27245 0
M  V30 11592 N 1114.11 6.92388 1.16378 0
M  V30 11593 H 1118.95 2.88024 -0.764587 0
M  V30 11594 H 1116.49 1.41869 -0.38878 0
M  V30 11595 H 1118.44 3.89339 1.49903 0
M  V30 11596 H 1117.07 2.76448 1.66662 0
M  V30 11597 H 1116.13 3.76599 -0.536376 0
M  V30 11598 H 1117.44 4.96432 -0.485433 0
M  V30 11599 H 1116.59 5.82137 1.70884 0
M  V30 11600 H 1115.33 4.55655 1.73868 0
M  V30 11601 H 1114.34 5.48549 -0.370693 0
M  V30 11602 H 1115.56 6.78017 -0.383315 0
M  V30 11603 H 1113.51 6.30538 1.8099 0
M  V30 11604 H 1113.42 7.5367 0.593043 0
M  V30 11605 H 1114.69 7.58879 1.78107 0
M  V30 11606 N 1118.92 0.422693 1.51826 0
M  V30 11607 C 1119.83 -0.40261 2.31119 0
M  V30 11608 C 1120.85 -1.04117 1.39412 0
M  V30 11609 O 1122.02 -1.03973 1.72486 0
M  V30 11610 C 1119.09 -1.49699 3.12716 0
M  V30 11611 C 1118.15 -0.880088 4.20182 0
M  V30 11612 C 1117.38 -1.92232 4.97878 0
M  V30 11613 O 1117.61 -3.14246 4.76031 0
M  V30 11614 O 1116.54 -1.521 5.82365 0
M  V30 11615 H 1120.37 0.244308 3.02716 0
M  V30 11616 H 1117.95 0.185569 1.48243 0
M  V30 11617 H 1119.83 -2.13202 3.63487 0
M  V30 11618 H 1118.51 -2.12826 2.43899 0
M  V30 11619 H 1117.41 -0.207404 3.73525 0
M  V30 11620 H 1118.75 -0.292535 4.9133 0
M  V30 11621 N 1120.4 -1.5685 0.153553 0
M  V30 11622 C 1121.65 -1.95509 -0.495911 0
M  V30 11623 C 1121.96 -1.04129 -1.65579 0
M  V30 11624 O 1123.17 -1.32394 -2.37032 0
M  V30 11625 C 1121.62 -3.47579 -0.933622 0
M  V30 11626 C 1121.23 -4.47555 0.199684 0
M  V30 11627 C 1122.98 -3.95092 -1.55251 0
M  V30 11628 C 1120.88 -5.90843 -0.256663 0
M  V30 11629 H 1119.81 -0.729919 -0.189035 0
M  V30 11630 H 1122.46 -1.81938 0.238947 0
M  V30 11631 H 1120.85 -3.56506 -1.72394 0
M  V30 11632 H 1122.02 -4.50329 0.976744 0
M  V30 11633 H 1120.33 -4.09997 0.727394 0
M  V30 11634 H 1122.93 -4.99588 -1.90567 0
M  V30 11635 H 1123.27 -3.37015 -2.4439 0
M  V30 11636 H 1123.81 -3.89109 -0.826969 0
M  V30 11637 H 1120.55 -6.52753 0.599515 0
M  V30 11638 H 1120.07 -5.91414 -0.999458 0
M  V30 11639 H 1121.75 -6.43131 -0.70649 0
M  V30 11640 N 1121.88 0.120221 -1.57141 0
M  V30 11641 C 1122.81 1.14876 -2.03287 0
M  V30 11642 C 1123.79 1.43259 -0.917112 0
M  V30 11643 O 1124.97 1.53721 -1.18674 0
M  V30 11644 C 1122.1 2.47525 -2.43616 0
M  V30 11645 C 1121.06 2.33607 -3.58625 0
M  V30 11646 C 1120.38 3.71207 -3.84849 0
M  V30 11647 C 1121.68 1.79761 -4.90391 0
M  V30 11648 H 1123.38 0.764943 -2.89463 0
M  V30 11649 H 1120.92 0.366516 -1.39258 0
M  V30 11650 H 1122.88 3.19728 -2.74504 0
M  V30 11651 H 1121.6 2.87794 -1.54409 0
M  V30 11652 H 1120.26 1.63853 -3.27945 0
M  V30 11653 H 1119.91 4.0896 -2.9285 0
M  V30 11654 H 1119.61 3.62749 -4.62263 0
M  V30 11655 H 1121.13 4.44917 -4.18188 0
M  V30 11656 H 1122.55 2.4178 -5.19822 0
M  V30 11657 H 1120.94 1.82126 -5.71795 0
M  V30 11658 H 1122.01 0.755087 -4.78985 0
M  V30 11659 N 1123.36 1.52689 0.390367 0
M  V30 11660 C 1124.63 1.58246 1.14968 0
M  V30 11661 C 1125.01 0.374808 2.07746 0
M  V30 11662 O 1124.36 -0.636969 2.19442 0
M  V30 11663 C 1124.57 2.92059 1.91056 0
M  V30 11664 C 1125.92 3.45745 2.46466 0
M  V30 11665 O 1126.94 2.93924 2.01214 0
M  V30 11666 O 1125.8 4.3628 3.29122 0
M  V30 11667 H 1122.9 0.638189 0.52597 0
M  V30 11668 H 1125.44 1.65024 0.39563 0
M  V30 11669 H 1124.21 3.71399 1.23201 0
M  V30 11670 H 1123.84 2.8866 2.73425 0
M  V30 11671 N 1124.83 -0.648732 1.43629 0
M  V30 11672 C 1125.74 -1.79046 1.51591 0
M  V30 11673 C 1126.76 -1.69276 0.402697 0
M  V30 11674 O 1127.94 -1.90366 0.657484 0
M  V30 11675 C 1125 -3.15347 1.44073 0
M  V30 11676 C 1124.06 -3.3688 2.66102 0
M  V30 11677 C 1123.3 -4.66679 2.58933 0
M  V30 11678 O 1123.52 -5.46328 1.63956 0
M  V30 11679 O 1122.45 -4.9003 3.49506 0
M  V30 11680 H 1126.28 -1.75283 2.48011 0
M  V30 11681 H 1123.86 -0.807774 1.2568 0
M  V30 11682 H 1125.75 -3.96633 1.42339 0
M  V30 11683 H 1124.42 -3.19691 0.50789 0
M  V30 11684 H 1123.33 -2.55341 2.73407 0
M  V30 11685 H 1124.66 -3.37386 3.58373 0
M  V30 11686 N 1126.31 -1.30234 -0.887518 0
M  V30 11687 C 1127.28 -1.16384 -1.97452 0
M  V30 11688 C 1128.28 -0.0957942 -1.60514 0
M  V30 11689 O 1129.47 -0.343706 -1.70776 0
M  V30 11690 C 1126.6 -0.782514 -3.31797 0
M  V30 11691 H 1127.79 -2.12952 -2.11167 0
M  V30 11692 H 1125.34 -1.13594 -1.07359 0
M  V30 11693 H 1126.08 0.18278 -3.23785 0
M  V30 11694 H 1125.86 -1.55434 -3.59976 0
M  V30 11695 H 1127.35 -0.709011 -4.11537 0
M  V30 11696 N 1127.79 1.09952 -1.12909 0
M  V30 11697 C 1129.02 1.8552 -0.909163 0
M  V30 11698 C 1129.43 1.81173 0.545253 0
M  V30 11699 O 1128.77 1.20223 1.38896 0
M  V30 11700 C 1128.83 3.34693 -1.31228 0
M  V30 11701 C 1128.5 3.62794 -2.77902 0
M  V30 11702 C 1129.49 3.58973 -3.76078 0
M  V30 11703 C 1127.18 3.91311 -3.1493 0
M  V30 11704 C 1129.17 3.83271 -5.09296 0
M  V30 11705 C 1126.86 4.15265 -4.48328 0
M  V30 11706 C 1127.86 4.11236 -5.4532 0
M  V30 11707 O 1127.55 4.34576 -6.76313 0
M  V30 11708 H 1127.28 0.59303 -0.324486 0
M  V30 11709 H 1129.83 1.39878 -1.5041 0
M  V30 11710 H 1128.06 3.81016 -0.660573 0
M  V30 11711 H 1129.75 3.9166 -1.06569 0
M  V30 11712 H 1130.52 3.36974 -3.48817 0
M  V30 11713 H 1126.4 3.93575 -2.40041 0
M  V30 11714 H 1129.94 3.80041 -5.84991 0
M  V30 11715 H 1125.84 4.36743 -4.75316 0
M  V30 11716 H 1126.61 4.52065 -6.82334 0
M  V30 11717 N 1129.27 0.921757 1.27833 0
M  V30 11718 C 1130.51 0.559906 1.94918 0
M  V30 11719 C 1130.85 -0.895532 1.72319 0
M  V30 11720 O 1130.12 -1.638 1.04879 0
M  V30 11721 C 1130.41 0.879458 3.49196 0
M  V30 11722 C 1130.26 2.38821 3.81162 0
M  V30 11723 C 1131.58 0.381183 4.38446 0
M  V30 11724 H 1128.7 0.204893 0.707946 0
M  V30 11725 H 1131.34 1.15246 1.51058 0
M  V30 11726 H 1129.49 0.375177 3.86684 0
M  V30 11727 H 1131.16 2.96373 3.53498 0
M  V30 11728 H 1129.4 2.83988 3.27923 0
M  V30 11729 H 1130.07 2.56234 4.88926 0
M  V30 11730 H 1132.55 0.813289 4.08075 0
M  V30 11731 H 1131.43 0.633778 5.45229 0
M  V30 11732 H 1131.69 -0.718651 4.3622 0
M  V30 11733 N 1130.75 -1.41857 0.686609 0
M  V30 11734 C 1131.68 -2.28174 -0.0347358 0
M  V30 11735 C 1132.66 -1.41732 -0.796928 0
M  V30 11736 O 1133.84 -1.71165 -0.789607 0
M  V30 11737 C 1130.97 -3.21801 -1.0565 0
M  V30 11738 C 1130.01 -4.24727 -0.388523 0
M  V30 11739 S 1130.85 -5.28508 0.862546 0
M  V30 11740 C 1132 -6.25701 -0.157849 0
M  V30 11741 H 1132.24 -2.89005 0.697381 0
M  V30 11742 H 1129.77 -1.46861 0.476562 0
M  V30 11743 H 1131.73 -3.76278 -1.64089 0
M  V30 11744 H 1130.39 -2.60082 -1.76114 0
M  V30 11745 H 1129.58 -4.90471 -1.15991 0
M  V30 11746 H 1129.18 -3.73799 0.122567 0
M  V30 11747 H 1131.48 -6.6987 -1.01393 0
M  V30 11748 H 1132.42 -7.06569 0.465437 0
M  V30 11749 H 1132.83 -5.62204 -0.508614 0
M  V30 11750 N 1132.22 -0.430739 -1.51599 0
M  V30 11751 C 1133.19 0.372319 -2.26156 0
M  V30 11752 C 1134.19 0.955338 -1.29344 0
M  V30 11753 O 1135.38 0.830823 -1.53111 0
M  V30 11754 C 1132.51 1.52613 -3.04831 0
M  V30 11755 H 1133.7 -0.280996 -2.98581 0
M  V30 11756 H 1131.26 -0.183749 -1.55216 0
M  V30 11757 H 1131.99 2.21569 -2.36807 0
M  V30 11758 H 1131.78 1.11433 -3.75932 0
M  V30 11759 H 1133.27 2.09366 -3.61325 0
M  V30 11760 N 1133.7 1.56767 -0.161869 0
M  V30 11761 C 1134.93 2.01401 0.49523 0
M  V30 11762 C 1135.35 1.04133 1.56646 0
M  V30 11763 O 1134.71 0.0193747 1.8129 0
M  V30 11764 C 1134.76 3.44695 1.05913 0
M  V30 11765 O 1133.86 3.50475 2.1735 0
M  V30 11766 H 1133.2 0.65314 0.1196 0
M  V30 11767 H 1135.73 2.02903 -0.26298 0
M  V30 11768 H 1135.74 3.83805 1.3841 0
M  V30 11769 H 1134.42 4.14991 0.274749 0
M  V30 11770 H 1133 3.23218 1.85969 0
M  V30 11771 N 1135.18 -0.111886 1.57202 0
M  V30 11772 C 1136.43 -0.819623 1.85499 0
M  V30 11773 C 1136.76 -1.7919 0.748629 0
M  V30 11774 O 1136.03 -1.92952 -0.244918 0
M  V30 11775 C 1136.32 -1.56324 3.24399 0
M  V30 11776 C 1136.17 -0.610081 4.45643 0
M  V30 11777 C 1137.49 -2.51777 3.60966 0
M  V30 11778 H 1134.61 -0.296512 0.674722 0
M  V30 11779 H 1137.25 -0.0836741 1.89816 0
M  V30 11780 H 1135.4 -2.1906 3.2085 0
M  V30 11781 H 1137.07 0.00898038 4.61299 0
M  V30 11782 H 1135.32 0.0778488 4.3373 0
M  V30 11783 H 1135.99 -1.16718 5.39519 0
M  V30 11784 H 1138.46 -1.99143 3.65351 0
M  V30 11785 H 1137.34 -3.00835 4.59118 0
M  V30 11786 H 1137.6 -3.34769 2.8876 0
M  V30 11787 N 1136.66 -1.52894 -0.382264 0
M  V30 11788 C 1137.94 -1.58853 -1.14127 0
M  V30 11789 C 1138.32 -0.38582 -2.07544 0
M  V30 11790 O 1137.66 0.625323 -2.19777 0
M  V30 11791 C 1137.87 -2.93068 -1.89504 0
M  V30 11792 C 1139.22 -3.47048 -2.44629 0
M  V30 11793 O 1140.25 -2.94987 -1.99652 0
M  V30 11794 O 1139.1 -4.3802 -3.26804 0
M  V30 11795 H 1136.2 -0.640969 -0.522578 0
M  V30 11796 H 1138.74 -1.65231 -0.386873 0
M  V30 11797 H 1137.52 -3.72047 -1.2123 0
M  V30 11798 H 1137.14 -2.90106 -2.7189 0
M  V30 11799 N 1138.14 0.641106 -1.43971 0
M  V30 11800 C 1139.09 1.77474 -1.50352 0
M  V30 11801 C 1140.08 1.65173 -0.376052 0
M  V30 11802 O 1141.29 1.71373 -0.550572 0
M  V30 11803 H 1137.66 0.585747 -0.471597 0
M  V30 11804 H 1139.63 1.69213 -2.45784 0
M  V30 11805 C 1138.38 3.15778 -1.45532 0
M  V30 11806 H 1137.7 3.25886 -2.316 0
M  V30 11807 H 1139.14 3.95022 -1.54058 0
M  V30 11808 C 1137.6 3.36447 -0.174624 0
M  V30 11809 O 1138.13 3.9446 0.759215 0
M  V30 11810 N 1136.34 2.90487 -0.0809383 0
M  V30 11811 H 1135.89 2.43461 -0.841691 0
M  V30 11812 H 1135.84 3.04693 0.775231 0
M  V30 11813 N 1139.62 1.30703 0.880598 0
M  V30 11814 C 1141.03 1.17818 1.4483 0
M  V30 11815 C 1141.38 -0.219456 1.94969 0
M  V30 11816 O 1140.5 -1.11646 1.85375 0
M  V30 11817 C 1141.1 2.13275 2.63247 0
M  V30 11818 C 1139.66 2.04356 3.16094 0
M  V30 11819 C 1138.8 2.03108 1.88792 0
M  V30 11820 H 1141.75 1.42909 0.690125 0
M  V30 11821 H 1141.78 1.71615 3.39601 0
M  V30 11822 H 1141.29 3.14988 2.26725 0
M  V30 11823 H 1139.39 1.058 3.57263 0
M  V30 11824 H 1139.5 2.92953 3.79098 0
M  V30 11825 H 1137.87 1.47971 2.07308 0
M  V30 11826 H 1138.65 3.06558 1.54521 0
M  V30 11827 N 1141.09 -1.09351 1.1349 0
M  V30 11828 C 1142.04 -2.14179 0.781739 0
M  V30 11829 C 1143.03 -1.59325 -0.224575 0
M  V30 11830 O 1144.22 -1.76977 -0.0283747 0
M  V30 11831 C 1141.35 -3.42386 0.250278 0
M  V30 11832 C 1140.43 -4.04147 1.28555 0
M  V30 11833 N 1140.83 -4.40451 2.4867 0
M  V30 11834 C 1139.12 -4.31356 1.13351 0
M  V30 11835 C 1139.82 -4.89115 3.14867 0
M  V30 11836 N 1138.8 -4.86618 2.42289 0
M  V30 11837 H 1142.6 -2.40055 1.69561 0
M  V30 11838 H 1140.12 -1.26587 1.01733 0
M  V30 11839 H 1142.11 -4.16895 -0.0209767 0
M  V30 11840 H 1140.77 -3.17965 -0.657904 0
M  V30 11841 H 1141.78 -4.31789 2.8597 0
M  V30 11842 H 1138.46 -4.16536 0.28355 0
M  V30 11843 H 1139.85 -5.26663 4.17224 0
M  V30 11844 N 1142.57 -0.928524 -1.27343 0
M  V30 11845 C 1143.82 -0.570235 -1.94618 0
M  V30 11846 C 1144.15 0.886381 -1.72792 0
M  V30 11847 O 1143.43 1.63242 -1.05747 0
M  V30 11848 C 1143.71 -0.897964 -3.48724 0
M  V30 11849 C 1143.56 -2.40839 -3.7989 0
M  V30 11850 C 1144.88 -0.404429 -4.38238 0
M  V30 11851 H 1142 -0.208645 -0.70685 0
M  V30 11852 H 1144.64 -1.16045 -1.50444 0
M  V30 11853 H 1142.79 -0.395679 -3.8648 0
M  V30 11854 H 1144.46 -2.98243 -3.51921 0
M  V30 11855 H 1142.71 -2.85723 -3.26412 0
M  V30 11856 H 1143.38 -2.58823 -4.8756 0
M  V30 11857 H 1145.85 -0.834918 -4.07637 0
M  V30 11858 H 1144.73 -0.662684 -5.44885 0
M  V30 11859 H 1144.99 0.695507 -4.36595 0
M  V30 11860 N 1144.05 1.41491 -0.694123 0
M  V30 11861 C 1145.29 2.03117 -0.228614 0
M  V30 11862 C 1145.65 1.53782 1.14957 0
M  V30 11863 O 1146.85 2.07325 1.71084 0
M  V30 11864 C 1145.13 3.56283 -0.282341 0
M  V30 11865 S 1146.68 4.38664 0.109333 0
M  V30 11866 H 1143.5 0.704993 -0.092227 0
M  V30 11867 H 1146.1 1.72947 -0.911578 0
M  V30 11868 H 1144.81 3.89685 -1.2874 0
M  V30 11869 H 1144.34 3.91154 0.419818 0
M  V30 11870 H 1146.35 4.77835 1.33747 0
M  V30 11871 N 1145.53 0.438773 1.51369 0
M  V30 11872 C 1146.94 0.0911416 1.5934 0
M  V30 11873 C 1147.14 -1.39962 1.44958 0
M  V30 11874 O 1146.2 -2.16968 1.29155 0
M  V30 11875 C 1147.51 0.612531 2.94395 0
M  V30 11876 C 1149.06 0.573098 3.07709 0
M  V30 11877 C 1149.54 1.07149 4.4529 0
M  V30 11878 N 1151.03 1.02953 4.51614 0
M  V30 11879 C 1151.76 1.38602 5.56397 0
M  V30 11880 N 1151.26 1.81543 6.68591 0
M  V30 11881 N 1153.05 1.30409 5.46763 0
M  V30 11882 H 1145.2 1.40872 1.58962 0
M  V30 11883 H 1147.46 0.580589 0.749414 0
M  V30 11884 H 1147.17 1.65562 3.10294 0
M  V30 11885 H 1147.04 0.0382375 3.77181 0
M  V30 11886 H 1149.43 -0.461006 2.91477 0
M  V30 11887 H 1149.51 1.18381 2.26759 0
M  V30 11888 H 1149.16 2.10406 4.62268 0
M  V30 11889 H 1149.09 0.437297 5.24781 0
M  V30 11890 H 1151.58 0.714208 3.7109 0
M  V30 11891 H 1151.89 2.06977 7.44567 0
M  V30 11892 H 1150.24 1.8547 6.69795 0
M  V30 11893 H 1153.43 0.967272 4.57997 0
M  V30 11894 H 1153.6 1.5852 6.28312 0
M  V30 11895 N 1147.01 -1.56678 0.170181 0
M  V30 11896 C 1147.94 -2.20916 -0.756213 0
M  V30 11897 C 1148.92 -1.16442 -1.23997 0
M  V30 11898 O 1150.1 -1.44867 -1.29333 0
M  V30 11899 C 1147.23 -2.84901 -1.98617 0
M  V30 11900 C 1146.19 -3.95403 -1.63831 0
M  V30 11901 C 1145.51 -4.46432 -2.94282 0
M  V30 11902 C 1146.81 -5.15051 -0.867195 0
M  V30 11903 H 1148.51 -2.98585 -0.220776 0
M  V30 11904 H 1146.05 -1.43619 -0.104748 0
M  V30 11905 H 1148 -3.28514 -2.63926 0
M  V30 11906 H 1146.73 -2.04598 -2.54572 0
M  V30 11907 H 1145.39 -3.52444 -1.00891 0
M  V30 11908 H 1145.04 -3.62923 -3.48276 0
M  V30 11909 H 1144.74 -5.20979 -2.71762 0
M  V30 11910 H 1146.26 -4.92731 -3.60622 0
M  V30 11911 H 1147.67 -5.55363 -1.42285 0
M  V30 11912 H 1146.07 -5.95507 -0.741065 0
M  V30 11913 H 1147.14 -4.84707 0.136693 0
M  V30 11914 N 1148.48 0.103547 -1.57259 0
M  V30 11915 C 1149.41 1.12714 -2.04494 0
M  V30 11916 C 1150.39 1.42278 -0.932255 0
M  V30 11917 O 1151.58 1.52453 -1.20298 0
M  V30 11918 C 1148.71 2.44927 -2.46228 0
M  V30 11919 C 1147.66 2.2979 -3.61082 0
M  V30 11920 C 1146.99 3.67105 -3.88765 0
M  V30 11921 C 1148.29 1.7455 -4.9227 0
M  V30 11922 H 1149.98 0.734198 -2.90258 0
M  V30 11923 H 1147.53 0.351725 -1.39638 0
M  V30 11924 H 1149.48 3.16798 -2.77879 0
M  V30 11925 H 1148.21 2.8614 -1.57453 0
M  V30 11926 H 1146.87 1.60366 -3.29664 0
M  V30 11927 H 1146.51 4.05831 -2.97171 0
M  V30 11928 H 1146.21 3.57825 -4.66084 0
M  V30 11929 H 1147.74 4.40456 -4.22884 0
M  V30 11930 H 1149.15 2.36253 -5.22358 0
M  V30 11931 H 1147.55 1.76051 -5.73695 0
M  V30 11932 H 1148.62 0.704242 -4.79759 0
M  V30 11933 N 1149.96 1.53094 0.37415 0
M  V30 11934 C 1151.21 1.68527 1.11548 0
M  V30 11935 C 1151.53 0.435253 1.9008 0
M  V30 11936 O 1150.8 -0.550594 1.88003 0
M  V30 11937 H 1149.38 0.621255 0.41479 0
M  V30 11938 H 1152.04 1.90258 0.422844 0
M  V30 11939 H 1151.14 2.54248 1.81009 0
M  V30 11940 N 1151.44 -0.633461 1.44309 0
M  V30 11941 C 1152.69 -1.38902 1.4625 0
M  V30 11942 C 1153 -1.95354 0.0980699 0
M  V30 11943 O 1154.21 -2.715 -0.0049983 0
M  V30 11944 C 1152.66 -2.51477 2.57463 0
M  V30 11945 C 1152.27 -2.01549 4.00103 0
M  V30 11946 C 1154.02 -3.28698 2.68622 0
M  V30 11947 C 1151.92 -3.11452 5.02744 0
M  V30 11948 H 1150.85 -0.521976 0.544112 0
M  V30 11949 H 1153.5 -0.681725 1.70367 0
M  V30 11950 H 1151.89 -3.24771 2.26582 0
M  V30 11951 H 1153.06 -1.35135 4.4054 0
M  V30 11952 H 1151.37 -1.3715 3.93165 0
M  V30 11953 H 1153.97 -4.10624 3.42479 0
M  V30 11954 H 1154.31 -3.78027 1.7436 0
M  V30 11955 H 1154.85 -2.62494 2.98901 0
M  V30 11956 H 1151.59 -2.6707 5.98627 0
M  V30 11957 H 1151.11 -3.76514 4.66902 0
M  V30 11958 H 1152.79 -3.76265 5.2634 0
M  V30 11959 N 1152.92 -1.31168 -0.873655 0
M  V30 11960 C 1154.16 -1.21938 -1.64044 0
M  V30 11961 C 1154.52 0.219903 -1.90737 0
M  V30 11962 O 1155.72 0.435635 -2.65246 0
M  V30 11963 C 1153.99 -2.03633 -2.93715 0
M  V30 11964 S 1155.55 -2.11224 -3.84616 0
M  V30 11965 H 1152.37 -0.43436 -0.562896 0
M  V30 11966 H 1154.97 -1.65786 -1.03612 0
M  V30 11967 H 1153.68 -3.07298 -2.72022 0
M  V30 11968 H 1153.21 -1.6049 -3.59175 0
M  V30 11969 H 1155.22 -1.24787 -4.80253 0
M  V30 11970 N 1154.4 1.08748 -1.14068 0
M  V30 11971 C 1155.33 2.17591 -0.84714 0
M  V30 11972 C 1156.31 1.68962 0.196415 0
M  V30 11973 O 1157.49 1.94125 0.0538415 0
M  V30 11974 C 1154.62 3.45823 -0.320005 0
M  V30 11975 C 1153.58 4.07824 -1.2986 0
M  V30 11976 C 1152.9 5.30965 -0.630925 0
M  V30 11977 C 1154.2 4.49512 -2.65963 0
M  V30 11978 H 1155.9 2.42404 -1.75729 0
M  V30 11979 H 1153.44 1.16502 -0.846356 0
M  V30 11980 H 1155.4 4.21276 -0.102271 0
M  V30 11981 H 1154.12 3.20553 0.625561 0
M  V30 11982 H 1152.78 3.34398 -1.50245 0
M  V30 11983 H 1152.43 5.01979 0.320337 0
M  V30 11984 H 1152.13 5.73402 -1.28388 0
M  V30 11985 H 1153.65 6.09136 -0.422635 0
M  V30 11986 H 1155.06 5.16159 -2.49506 0
M  V30 11987 H 1153.46 5.02857 -3.27498 0
M  V30 11988 H 1154.53 3.6157 -3.23102 0
M  V30 11989 N 1155.87 0.935264 1.26849 0
M  V30 11990 C 1157.1 0.596249 1.98122 0
M  V30 11991 C 1157.52 -0.827452 1.69702 0
M  V30 11992 O 1156.87 -1.55095 0.961864 0
M  V30 11993 C 1156.93 0.821773 3.52036 0
M  V30 11994 O 1156.65 2.18947 3.79465 0
M  V30 11995 C 1158.15 0.492498 4.40556 0
M  V30 11996 H 1155.37 0.225242 0.632066 0
M  V30 11997 H 1157.91 1.25435 1.61512 0
M  V30 11998 H 1156.07 0.210363 3.86828 0
M  V30 11999 H 1156.48 2.24509 4.74021 0
M  V30 12000 H 1157.95 0.700953 5.47531 0
M  V30 12001 H 1158.43 -0.57228 4.35456 0
M  V30 12002 H 1159.04 1.08238 4.11296 0
M  V30 12003 N 1157.35 -1.41121 0.701616 0
M  V30 12004 C 1158.58 -2.05973 0.242896 0
M  V30 12005 C 1159 -1.52474 -1.10151 0
M  V30 12006 O 1158.36 -0.654224 -1.69085 0
M  V30 12007 C 1158.41 -3.59943 0.217614 0
M  V30 12008 O 1157.51 -4.04454 -0.805629 0
M  V30 12009 H 1156.85 -0.653581 0.117166 0
M  V30 12010 H 1159.38 -1.80777 0.958175 0
M  V30 12011 H 1159.39 -4.07969 0.0505267 0
M  V30 12012 H 1158.07 -3.98249 1.19877 0
M  V30 12013 H 1156.65 -3.6792 -0.607404 0
M  V30 12014 N 1158.83 -0.446794 -1.51134 0
M  V30 12015 C 1160.06 0.114893 -2.06581 0
M  V30 12016 C 1160.47 1.35642 -1.31327 0
M  V30 12017 O 1159.83 1.78595 -0.375506 0
M  V30 12018 C 1159.88 0.427589 -3.58962 0
M  V30 12019 O 1159.6 -0.764669 -4.31375 0
M  V30 12020 C 1161.1 1.03891 -4.30954 0
M  V30 12021 H 1158.32 0.00373031 -0.67099 0
M  V30 12022 H 1160.87 -0.628596 -1.94599 0
M  V30 12023 H 1159.02 1.12099 -3.70827 0
M  V30 12024 H 1159.44 -0.494605 -5.22163 0
M  V30 12025 H 1160.91 1.20764 -5.38628 0
M  V30 12026 H 1161.39 2.02252 -3.8986 0
M  V30 12027 H 1161.99 0.384623 -4.23557 0
M  V30 12028 N 1160.31 1.56586 -0.178487 0
M  V30 12029 C 1161.55 1.9739 0.465306 0
M  V30 12030 C 1161.89 1.06474 1.6241 0
M  V30 12031 O 1161.16 0.113316 1.9417 0
M  V30 12032 C 1161.45 3.47577 0.941408 0
M  V30 12033 C 1161.3 4.49271 -0.218054 0
M  V30 12034 C 1162.62 4.01038 1.81263 0
M  V30 12035 H 1159.74 0.717676 0.167663 0
M  V30 12036 H 1162.38 1.88128 -0.266067 0
M  V30 12037 H 1160.53 3.556 1.56463 0
M  V30 12038 H 1162.2 4.53301 -0.855332 0
M  V30 12039 H 1160.44 4.24936 -0.872441 0
M  V30 12040 H 1161.11 5.51776 0.157315 0
M  V30 12041 H 1163.59 3.9569 1.28718 0
M  V30 12042 H 1162.47 5.06526 2.11476 0
M  V30 12043 H 1162.73 3.45288 2.76096 0
M  V30 12044 N 1161.79 -0.095206 1.57312 0
M  V30 12045 C 1162.72 -1.14173 1.98739 0
M  V30 12046 C 1163.73 -1.36323 0.889934 0
M  V30 12047 O 1164.92 -1.34977 1.16805 0
M  V30 12048 C 1162.02 -2.49729 2.29104 0
M  V30 12049 C 1161.19 -2.47857 3.60396 0
M  V30 12050 C 1160.25 -3.65341 3.78699 0
M  V30 12051 O 1159.28 -3.47837 4.50553 0
M  V30 12052 N 1160.48 -4.84818 3.19268 0
M  V30 12053 H 1163.25 -0.789126 2.89124 0
M  V30 12054 H 1160.81 -0.284187 1.59386 0
M  V30 12055 H 1162.8 -3.26925 2.38541 0
M  V30 12056 H 1161.37 -2.7708 1.44726 0
M  V30 12057 H 1160.59 -1.56208 3.61929 0
M  V30 12058 H 1161.88 -2.43685 4.46649 0
M  V30 12059 H 1161.27 -5.01943 2.60902 0
M  V30 12060 H 1159.83 -5.59607 3.34191 0
M  V30 12061 N 1163.26 -1.53291 -0.366026 0
M  V30 12062 C 1164.19 -1.82675 -1.45437 0
M  V30 12063 C 1165.18 -0.680227 -1.55907 0
M  V30 12064 O 1166.36 -0.930032 -1.70482 0
M  V30 12065 C 1163.49 -2.01626 -2.8278 0
M  V30 12066 C 1162.44 -3.17391 -2.87135 0
M  V30 12067 C 1161.77 -3.21634 -4.27148 0
M  V30 12068 C 1163.07 -4.5599 -2.54697 0
M  V30 12069 H 1164.76 -2.73818 -1.21096 0
M  V30 12070 H 1162.31 -1.31754 -0.581108 0
M  V30 12071 H 1164.26 -2.20765 -3.58944 0
M  V30 12072 H 1162.99 -1.07193 -3.08508 0
M  V30 12073 H 1161.65 -2.98071 -2.13422 0
M  V30 12074 H 1161.29 -2.2484 -4.49951 0
M  V30 12075 H 1160.99 -3.99414 -4.30978 0
M  V30 12076 H 1162.52 -3.42957 -5.05186 0
M  V30 12077 H 1163.93 -4.75294 -3.20575 0
M  V30 12078 H 1162.33 -5.36008 -2.69844 0
M  V30 12079 H 1163.4 -4.61133 -1.49949 0
M  V30 12080 N 1164.74 0.6258 -1.44643 0
M  V30 12081 C 1165.99 1.38125 -1.46984 0
M  V30 12082 C 1166.3 1.95299 -0.108429 0
M  V30 12083 O 1167.51 2.71498 -0.00940005 0
M  V30 12084 C 1165.97 2.50108 -2.58793 0
M  V30 12085 C 1165.57 1.99424 -4.01166 0
M  V30 12086 C 1167.32 3.27269 -2.70361 0
M  V30 12087 C 1165.23 3.08781 -5.04389 0
M  V30 12088 H 1164.16 0.519083 -0.546872 0
M  V30 12089 H 1166.81 0.67268 -1.70726 0
M  V30 12090 H 1165.19 3.23565 -2.28302 0
M  V30 12091 H 1166.36 1.32797 -4.4125 0
M  V30 12092 H 1164.68 1.35063 -3.93887 0
M  V30 12093 H 1167.27 4.08802 -3.44652 0
M  V30 12094 H 1167.62 3.77097 -1.76362 0
M  V30 12095 H 1168.15 2.60905 -3.00289 0
M  V30 12096 H 1164.89 2.63891 -6.00035 0
M  V30 12097 H 1164.41 3.74033 -4.68892 0
M  V30 12098 H 1166.09 3.73469 -5.28328 0
M  V30 12099 N 1166.22 1.31629 0.866686 0
M  V30 12100 C 1167.45 1.24474 1.65269 0
M  V30 12101 C 1167.86 -0.18939 1.87848 0
M  V30 12102 O 1167.22 -1.12251 1.43895 0
M  V30 12103 C 1167.27 1.98872 3.01881 0
M  V30 12104 O 1166.99 3.36687 2.8031 0
M  V30 12105 C 1168.49 1.98595 3.96327 0
M  V30 12106 H 1165.71 0.429966 0.515141 0
M  V30 12107 H 1168.26 1.73559 1.08156 0
M  V30 12108 H 1166.41 1.53539 3.55675 0
M  V30 12109 H 1166.83 3.74612 3.67105 0
M  V30 12110 H 1168.3 2.55156 4.89489 0
M  V30 12111 H 1168.78 0.969257 4.28371 0
M  V30 12112 H 1169.38 2.43821 3.4847 0
M  V30 12113 N 1167.7 -1.08142 1.14644 0
M  V30 12114 C 1168.63 -2.15022 0.793614 0
M  V30 12115 C 1169.64 -1.61679 -0.190729 0
M  V30 12116 O 1170.83 -1.78472 0.0313696 0
M  V30 12117 C 1167.93 -3.38532 0.157785 0
M  V30 12118 C 1167.11 -4.21252 1.17753 0
M  V30 12119 C 1166.17 -5.23158 0.564968 0
M  V30 12120 O 1165.19 -5.5578 1.22869 0
M  V30 12121 N 1166.39 -5.7677 -0.657022 0
M  V30 12122 H 1169.16 -2.45893 1.71338 0
M  V30 12123 H 1166.72 -1.23976 1.04122 0
M  V30 12124 H 1168.71 -4.03834 -0.264586 0
M  V30 12125 H 1167.28 -3.05441 -0.665168 0
M  V30 12126 H 1166.5 -3.51888 1.77675 0
M  V30 12127 H 1167.79 -4.73335 1.86632 0
M  V30 12128 H 1167.19 -5.52503 -1.21478 0
M  V30 12129 H 1165.74 -6.4374 -1.02186 0
M  V30 12130 N 1169.18 -0.941978 -1.26351 0
M  V30 12131 C 1170.11 -0.469913 -2.28723 0
M  V30 12132 C 1171.09 0.477218 -1.63269 0
M  V30 12133 O 1172.27 0.378902 -1.90468 0
M  V30 12134 C 1169.4 0.264971 -3.46288 0
M  V30 12135 C 1168.36 -0.595682 -4.23834 0
M  V30 12136 C 1167.68 0.269208 -5.34022 0
M  V30 12137 C 1168.98 -1.86743 -4.87775 0
M  V30 12138 H 1170.68 -1.32551 -2.6846 0
M  V30 12139 H 1168.22 -0.638809 -1.29055 0
M  V30 12140 H 1170.18 0.606259 -4.17016 0
M  V30 12141 H 1168.9 1.15471 -3.05506 0
M  V30 12142 H 1167.56 -0.919875 -3.54872 0
M  V30 12143 H 1167.21 1.15832 -4.89481 0
M  V30 12144 H 1166.91 -0.30325 -5.86817 0
M  V30 12145 H 1168.43 0.605748 -6.07588 0
M  V30 12146 H 1169.85 -1.59333 -5.50714 0
M  V30 12147 H 1168.24 -2.38452 -5.50691 0
M  V30 12148 H 1169.31 -2.57831 -4.10671 0
M  V30 12149 N 1170.66 1.40747 -0.709091 0
M  V30 12150 C 1171.59 2.282 -0.00156906 0
M  V30 12151 C 1172.57 1.42981 0.774279 0
M  V30 12152 O 1173.75 1.724 0.762276 0
M  V30 12153 C 1170.88 3.23441 1.00517 0
M  V30 12154 C 1169.92 4.25291 0.320904 0
M  V30 12155 S 1170.76 5.27069 -0.946518 0
M  V30 12156 C 1171.91 6.25873 0.0582856 0
M  V30 12157 H 1172.15 2.87859 -0.743271 0
M  V30 12158 H 1169.68 1.46085 -0.499866 0
M  V30 12159 H 1171.64 3.78841 1.58082 0
M  V30 12160 H 1170.3 2.62851 1.71954 0
M  V30 12161 H 1169.49 4.92255 1.08173 0
M  V30 12162 H 1169.09 3.73557 -0.18202 0
M  V30 12163 H 1171.38 6.71398 0.907233 0
M  V30 12164 H 1172.33 7.05739 -0.577787 0
M  V30 12165 H 1172.74 5.62942 0.419108 0
M  V30 12166 N 1172.13 0.454803 1.50895 0
M  V30 12167 C 1173.54 -0.00421212 1.867 0
M  V30 12168 C 1173.9 -1.4037 1.3708 0
M  V30 12169 O 1173.02 -2.03755 0.728884 0
M  V30 12170 C 1173.62 -0.0144196 3.38797 0
M  V30 12171 C 1172.17 -0.417905 3.74073 0
M  V30 12172 C 1171.32 0.37801 2.74711 0
M  V30 12173 H 1174.27 0.669849 1.4387 0
M  V30 12174 H 1174.29 -0.820172 3.71555 0
M  V30 12175 H 1173.81 1.00427 3.74881 0
M  V30 12176 H 1171.91 -1.44155 3.43584 0
M  V30 12177 H 1172.02 -0.130568 4.78922 0
M  V30 12178 H 1170.38 -0.166089 2.54158 0
M  V30 12179 H 1171.17 1.3959 3.13639 0
M  V30 12180 N 1173.61 -1.56489 0.186789 0
M  V30 12181 C 1174.86 -1.97341 -0.454158 0
M  V30 12182 C 1175.19 -1.07337 -1.622 0
M  V30 12183 O 1174.44 -0.1107 -1.95387 0
M  V30 12184 C 1174.74 -3.44145 -0.964315 0
M  V30 12185 C 1174.41 -4.50812 0.0892734 0
M  V30 12186 C 1173.07 -4.79707 0.378794 0
M  V30 12187 C 1175.42 -5.14968 0.8036 0
M  V30 12188 C 1172.75 -5.70051 1.38776 0
M  V30 12189 C 1175.1 -6.06402 1.80166 0
M  V30 12190 C 1173.76 -6.33657 2.09847 0
M  V30 12191 H 1173.03 -0.722124 -0.166188 0
M  V30 12192 H 1175.68 -1.89412 0.282008 0
M  V30 12193 H 1173.99 -3.49103 -1.7786 0
M  V30 12194 H 1175.68 -3.73104 -1.4695 0
M  V30 12195 H 1172.27 -4.28349 -0.146552 0
M  V30 12196 H 1176.46 -4.92743 0.593147 0
M  V30 12197 H 1171.71 -5.89445 1.62373 0
M  V30 12198 H 1175.89 -6.55176 2.36045 0
M  V30 12199 H 1173.51 -7.03462 2.88175 0
M  V30 12200 N 1175.09 0.086862 -1.5736 0
M  V30 12201 C 1176.34 0.787281 -1.86135 0
M  V30 12202 C 1176.66 1.78866 -0.776667 0
M  V30 12203 O 1175.93 1.94915 0.19625 0
M  V30 12204 H 1174.51 0.293744 -0.686821 0
M  V30 12205 H 1177.17 0.0665326 -1.94786 0
M  V30 12206 H 1176.27 1.3128 -2.83147 0
M  V30 12207 N 1176.57 1.53483 0.357892 0
M  V30 12208 C 1177.81 1.71743 1.10832 0
M  V30 12209 C 1178.17 0.463303 1.86326 0
M  V30 12210 O 1179.37 0.522715 2.63669 0
M  V30 12211 C 1177.64 2.93741 2.03595 0
M  V30 12212 S 1179.2 3.32744 2.86054 0
M  V30 12213 H 1176.02 0.604247 0.374709 0
M  V30 12214 H 1178.62 1.916 0.388565 0
M  V30 12215 H 1177.33 3.83205 1.46909 0
M  V30 12216 H 1176.86 2.76309 2.8003 0
M  V30 12217 H 1178.87 2.85358 4.05938 0
M  V30 12218 N 1178.05 -0.61812 1.44973 0
M  V30 12219 C 1178.98 -1.74035 1.55673 0
M  V30 12220 C 1179.96 -1.65112 0.4089 0
M  V30 12221 O 1181.14 -1.83673 0.630698 0
M  V30 12222 C 1178.27 -3.1261 1.51303 0
M  V30 12223 C 1177.23 -3.36334 2.64696 0
M  V30 12224 C 1176.55 -4.75072 2.45378 0
M  V30 12225 C 1177.85 -3.27618 4.06772 0
M  V30 12226 H 1179.55 -1.65336 2.49608 0
M  V30 12227 H 1177.09 -0.794003 1.20132 0
M  V30 12228 H 1179.04 -3.90906 1.57388 0
M  V30 12229 H 1177.77 -3.22123 0.538914 0
M  V30 12230 H 1176.43 -2.60423 2.58022 0
M  V30 12231 H 1176.08 -4.81306 1.46129 0
M  V30 12232 H 1175.78 -4.91903 3.21412 0
M  V30 12233 H 1177.3 -5.55582 2.53301 0
M  V30 12234 H 1178.71 -3.95802 4.14746 0
M  V30 12235 H 1177.11 -3.55981 4.83113 0
M  V30 12236 H 1178.18 -2.25219 4.29423 0
M  V30 12237 N 1179.52 -1.32087 -0.859693 0
M  V30 12238 C 1180.45 -1.23204 -1.98351 0
M  V30 12239 C 1181.43 -0.116974 -1.69697 0
M  V30 12240 O 1182.62 -0.303301 -1.91817 0
M  V30 12241 C 1179.75 -0.949171 -3.34078 0
M  V30 12242 C 1178.7 -2.02493 -3.77069 0
M  V30 12243 C 1178.03 -1.59455 -5.1037 0
M  V30 12244 C 1179.33 -3.43934 -3.93074 0
M  V30 12245 H 1181.02 -2.17227 -2.0604 0
M  V30 12246 H 1178.57 -1.04577 -0.989931 0
M  V30 12247 H 1180.52 -0.873594 -4.12245 0
M  V30 12248 H 1179.25 0.0267095 -3.26589 0
M  V30 12249 H 1177.91 -2.09057 -3.01149 0
M  V30 12250 H 1177.55 -0.606256 -4.99333 0
M  V30 12251 H 1177.25 -2.31429 -5.40106 0
M  V30 12252 H 1178.78 -1.53325 -5.91036 0
M  V30 12253 H 1180.19 -3.39986 -4.61608 0
M  V30 12254 H 1178.59 -4.14214 -4.3422 0
M  V30 12255 H 1179.66 -3.83965 -2.9614 0
M  V30 12256 N 1181 1.07532 -1.15215 0
M  V30 12257 C 1182.28 1.76813 -0.83646 0
M  V30 12258 C 1182.66 2.00242 0.6683 0
M  V30 12259 O 1182.01 1.61941 1.61206 0
M  V30 12260 C 1182.22 3.0779 -1.64519 0
M  V30 12261 C 1183.56 3.82168 -1.85022 0
M  V30 12262 O 1184.59 3.17596 -1.61279 0
M  V30 12263 O 1183.45 4.98135 -2.24775 0
M  V30 12264 H 1180.54 0.767736 -0.307426 0
M  V30 12265 H 1183.09 1.13914 -1.25784 0
M  V30 12266 H 1181.86 2.86342 -2.6669 0
M  V30 12267 H 1181.48 3.78419 -1.22002 0
M  V30 12268 N 1182.48 0.948665 1.2585 0
M  V30 12269 C 1183.71 0.616334 1.97193 0
M  V30 12270 C 1184.12 -0.814538 1.70769 0
M  V30 12271 O 1183.46 -1.55569 0.976926 0
M  V30 12272 C 1183.52 0.787814 3.50762 0
M  V30 12273 C 1183.19 2.19472 4.0085 0
M  V30 12274 C 1184.18 3.17087 4.12009 0
M  V30 12275 C 1181.87 2.51731 4.34669 0
M  V30 12276 C 1183.86 4.45058 4.56292 0
M  V30 12277 C 1181.55 3.79932 4.78639 0
M  V30 12278 C 1182.55 4.76408 4.89412 0
M  V30 12279 O 1182.24 6.02325 5.32409 0
M  V30 12280 H 1181.97 0.230487 0.635493 0
M  V30 12281 H 1184.52 1.27379 1.61133 0
M  V30 12282 H 1182.75 0.0732154 3.86631 0
M  V30 12283 H 1184.44 0.457427 4.03314 0
M  V30 12284 H 1185.21 2.9349 3.8612 0
M  V30 12285 H 1181.09 1.77369 4.25513 0
M  V30 12286 H 1184.63 5.20363 4.64616 0
M  V30 12287 H 1180.53 4.03338 5.03973 0
M  V30 12288 H 1181.3 6.05615 5.50611 0
M  V30 12289 N 1183.96 -1.40369 0.716545 0
M  V30 12290 C 1185.2 -2.01167 0.256846 0
M  V30 12291 C 1185.54 -1.56689 -1.14727 0
M  V30 12292 O 1184.81 -0.787384 -1.7785 0
M  V30 12293 C 1185.1 -3.58511 0.337963 0
M  V30 12294 C 1184.95 -4.13059 1.78052 0
M  V30 12295 C 1186.27 -4.39142 -0.290295 0
M  V30 12296 H 1183.39 -0.730877 0.0948028 0
M  V30 12297 H 1186.03 -1.66833 0.909225 0
M  V30 12298 H 1184.18 -3.87891 -0.217482 0
M  V30 12299 H 1185.85 -3.94472 2.39143 0
M  V30 12300 H 1184.09 -3.67311 2.30793 0
M  V30 12301 H 1184.76 -5.22217 1.78867 0
M  V30 12302 H 1187.24 -4.15697 0.182987 0
M  V30 12303 H 1186.12 -5.48524 -0.203097 0
M  V30 12304 H 1186.38 -4.20209 -1.37394 0
M  V30 12305 N 1185.44 -0.462799 -1.50652 0
M  V30 12306 C 1186.85 -0.11648 -1.59174 0
M  V30 12307 C 1187.05 1.37638 -1.47167 0
M  V30 12308 O 1186.11 2.14886 -1.3259 0
M  V30 12309 C 1187.42 -0.659289 -2.93383 0
M  V30 12310 C 1188.97 -0.62198 -3.06758 0
M  V30 12311 C 1189.44 -1.14219 -4.43529 0
M  V30 12312 N 1190.94 -1.10125 -4.49919 0
M  V30 12313 C 1191.67 -1.47436 -5.54121 0
M  V30 12314 N 1191.17 -1.92156 -6.65618 0
M  V30 12315 N 1192.96 -1.39091 -5.44619 0
M  V30 12316 H 1185.11 -1.43383 -1.56701 0
M  V30 12317 H 1187.37 -0.592438 -0.740082 0
M  V30 12318 H 1187.08 -1.70477 -3.07621 0
M  V30 12319 H 1186.95 -0.0982388 -3.77072 0
M  V30 12320 H 1189.34 0.414576 -2.92173 0
M  V30 12321 H 1189.42 -1.21974 -2.24847 0
M  V30 12322 H 1189.07 -2.17734 -4.58862 0
M  V30 12323 H 1189 -0.52073 -5.24019 0
M  V30 12324 H 1191.49 -0.773154 -3.69906 0
M  V30 12325 H 1191.8 -2.18796 -7.4118 0
M  V30 12326 H 1190.14 -1.96103 -6.6676 0
M  V30 12327 H 1193.34 -1.04001 -4.564 0
M  V30 12328 H 1193.51 -1.68496 -6.2571 0
M  V30 12329 N 1186.91 1.56388 -0.195085 0
M  V30 12330 C 1187.82 2.22698 0.737743 0
M  V30 12331 C 1188.84 1.22605 1.23466 0
M  V30 12332 O 1190.02 1.55342 1.28183 0
M  V30 12333 C 1187.08 2.87333 1.94011 0
M  V30 12334 C 1186.14 4.02696 1.48776 0
M  V30 12335 C 1185.38 4.64239 2.63282 0
M  V30 12336 O 1185.6 4.24706 3.80763 0
M  V30 12337 O 1184.53 5.53705 2.35996 0
M  V30 12338 H 1188.36 3.03021 0.203013 0
M  V30 12339 H 1185.94 1.49361 0.0342044 0
M  V30 12340 H 1187.83 3.28226 2.64284 0
M  V30 12341 H 1186.5 2.0999 2.46345 0
M  V30 12342 H 1185.41 3.66426 0.753839 0
M  V30 12343 H 1186.74 4.81703 1.01109 0
M  V30 12344 N 1188.39 -0.0785156 1.57404 0
M  V30 12345 C 1189.34 -1.10077 1.99668 0
M  V30 12346 C 1190.33 -1.34855 0.87767 0
M  V30 12347 O 1191.52 -1.35268 1.14156 0
M  V30 12348 C 1188.65 -2.41641 2.43854 0
M  V30 12349 C 1187.73 -2.20166 3.62475 0
M  V30 12350 N 1188.12 -1.68602 4.76872 0
M  V30 12351 C 1186.42 -2.50666 3.68894 0
M  V30 12352 C 1187.12 -1.61785 5.58749 0
M  V30 12353 N 1186.1 -2.07595 5.02399 0
M  V30 12354 H 1189.9 -0.695297 2.85557 0
M  V30 12355 H 1187.42 -0.285694 1.59867 0
M  V30 12356 H 1189.41 -3.15629 2.72367 0
M  V30 12357 H 1188.07 -2.8291 1.59348 0
M  V30 12358 H 1189.08 -1.37561 4.99297 0
M  V30 12359 H 1185.76 -2.95348 2.95087 0
M  V30 12360 H 1187.15 -1.22828 6.60578 0
M  V30 12361 N 1189.87 -1.5367 -0.349747 0
M  V30 12362 C 1190.82 -1.81223 -1.42922 0
M  V30 12363 C 1191.79 -0.657536 -1.52531 0
M  V30 12364 O 1192.97 -0.90134 -1.68168 0
M  V30 12365 C 1190.11 -2.022 -2.79659 0
M  V30 12366 C 1189.23 -3.29915 -2.78891 0
M  V30 12367 C 1188.36 -3.40993 -4.07305 0
M  V30 12368 C 1187.4 -4.6268 -4.00741 0
M  V30 12369 N 1186.54 -4.70826 -5.20833 0
M  V30 12370 H 1191.38 -2.73328 -1.18727 0
M  V30 12371 H 1188.91 -1.35386 -0.57525 0
M  V30 12372 H 1190.87 -2.12351 -3.59114 0
M  V30 12373 H 1189.5 -1.13416 -3.0222 0
M  V30 12374 H 1188.55 -3.28637 -1.91577 0
M  V30 12375 H 1189.87 -4.19459 -2.69917 0
M  V30 12376 H 1189.02 -3.50542 -4.95182 0
M  V30 12377 H 1187.76 -2.49493 -4.19052 0
M  V30 12378 H 1186.76 -4.53215 -3.11249 0
M  V30 12379 H 1187.99 -5.55538 -3.90582 0
M  V30 12380 H 1185.93 -3.82233 -5.33136 0
M  V30 12381 H 1185.85 -5.54297 -5.14092 0
M  V30 12382 H 1187.12 -4.84677 -6.10499 0
M  V30 12383 N 1191.35 0.610423 -1.45298 0
M  V30 12384 C 1192.63 1.36966 -1.39641 0
M  V30 12385 C 1193.01 2.10998 -0.0655757 0
M  V30 12386 O 1192.35 2.07705 0.952407 0
M  V30 12387 C 1192.56 2.31885 -2.60826 0
M  V30 12388 C 1193.91 2.9458 -3.05791 0
M  V30 12389 O 1194.94 2.42207 -2.61179 0
M  V30 12390 O 1193.79 3.89639 -3.83202 0
M  V30 12391 H 1190.89 0.61401 -0.554004 0
M  V30 12392 H 1193.43 0.633748 -1.57422 0
M  V30 12393 H 1192.21 1.76421 -3.49272 0
M  V30 12394 H 1191.83 3.12861 -2.45364 0
M  V30 12395 N 1192.83 1.32541 0.852676 0
M  V30 12396 C 1193.77 1.21602 1.98282 0
M  V30 12397 C 1194.77 0.120384 1.68972 0
M  V30 12398 O 1195.97 0.283441 1.77754 0
M  V30 12399 H 1192.35 0.376994 0.650676 0
M  V30 12400 H 1194.32 2.17179 2.04636 0
M  V30 12401 C 1193.07 0.957965 3.34243 0
M  V30 12402 H 1192.39 1.79324 3.57327 0
M  V30 12403 H 1193.83 0.921673 4.13861 0
M  V30 12404 C 1192.29 -0.339271 3.35187 0
M  V30 12405 O 1192.82 -1.3505 3.78318 0
M  V30 12406 N 1191.03 -0.361944 2.88337 0
M  V30 12407 H 1190.57 0.461497 2.53432 0
M  V30 12408 H 1190.53 -1.22976 2.89352 0
M  V30 12409 N 1194.3 -1.0692 1.15784 0
M  V30 12410 C 1195.55 -1.78983 0.929944 0
M  V30 12411 C 1195.87 -1.87884 -0.543969 0
M  V30 12412 O 1197.07 -2.56513 -0.889578 0
M  V30 12413 C 1195.53 -3.21657 1.61446 0
M  V30 12414 C 1195.14 -3.20943 3.12569 0
M  V30 12415 C 1196.88 -3.98299 1.46828 0
M  V30 12416 C 1194.79 -4.58298 3.73788 0
M  V30 12417 H 1193.72 -0.670809 0.344284 0
M  V30 12418 H 1196.37 -1.19975 1.38846 0
M  V30 12419 H 1194.75 -3.80885 1.08364 0
M  V30 12420 H 1195.92 -2.71334 3.72444 0
M  V30 12421 H 1194.24 -2.57799 3.26999 0
M  V30 12422 H 1196.84 -4.99822 1.89952 0
M  V30 12423 H 1197.18 -4.14213 0.416358 0
M  V30 12424 H 1197.71 -3.45577 1.97031 0
M  V30 12425 H 1194.45 -4.47588 4.789 0
M  V30 12426 H 1193.97 -5.08126 3.18698 0
M  V30 12427 H 1195.65 -5.27262 3.74972 0
M  V30 12428 N 1195.78 -0.955326 -1.25345 0
M  V30 12429 C 1197.03 -0.609278 -1.92697 0
M  V30 12430 C 1197.35 0.856535 -1.75181 0
M  V30 12431 O 1196.62 1.61013 -1.11587 0
M  V30 12432 H 1195.2 -0.22235 -0.713141 0
M  V30 12433 H 1197.86 -1.21372 -1.52496 0
M  V30 12434 H 1196.96 -0.839198 -3.00606 0
M  V30 12435 N 1197.26 1.39987 -0.723979 0
M  V30 12436 C 1198.49 2.0556 -0.275634 0
M  V30 12437 C 1198.91 1.54207 1.07711 0
M  V30 12438 O 1198.27 0.681041 1.68022 0
M  V30 12439 C 1198.32 3.59551 -0.27485 0
M  V30 12440 O 1197.42 4.05685 0.741182 0
M  V30 12441 H 1196.76 0.651634 -0.12755 0
M  V30 12442 H 1199.29 1.79229 -0.986814 0
M  V30 12443 H 1199.3 4.07837 -0.115425 0
M  V30 12444 H 1197.98 3.96291 -1.26198 0
M  V30 12445 H 1196.55 3.6884 0.548795 0
M  V30 12446 N 1198.74 0.470782 1.50404 0
M  V30 12447 C 1199.67 -0.359838 2.26358 0
M  V30 12448 C 1200.68 -0.95735 1.31676 0
M  V30 12449 O 1201.87 -0.84581 1.57189 0
M  V30 12450 C 1198.97 -1.51864 3.02969 0
M  V30 12451 C 1198.15 -1.03397 4.25003 0
M  V30 12452 C 1197.21 -2.06679 4.83911 0
M  V30 12453 O 1196.23 -1.64754 5.44835 0
M  V30 12454 N 1197.43 -3.39484 4.70883 0
M  V30 12455 H 1200.2 0.291299 2.98281 0
M  V30 12456 H 1197.76 0.301549 1.59067 0
M  V30 12457 H 1199.75 -2.2065 3.39258 0
M  V30 12458 H 1198.32 -2.07448 2.33846 0
M  V30 12459 H 1197.54 -0.172012 3.93825 0
M  V30 12460 H 1198.83 -0.68807 5.04126 0
M  V30 12461 H 1198.23 -3.76256 4.22431 0
M  V30 12462 H 1196.78 -4.04068 5.11441 0
M  V30 12463 N 1200.22 -1.56282 0.203376 0
M  V30 12464 C 1201.45 -2.01905 -0.437936 0
M  V30 12465 C 1201.86 -1.08263 -1.55164 0
M  V30 12466 O 1201.2 -0.0811746 -1.83521 0
M  V30 12467 C 1201.26 -3.43908 -1.04725 0
M  V30 12468 C 1200.92 -4.56944 -0.0712582 0
M  V30 12469 C 1201.92 -5.14856 0.72243 0
M  V30 12470 C 1199.61 -5.02282 0.0422267 0
M  V30 12471 C 1201.6 -6.16562 1.61649 0
M  V30 12472 C 1199.29 -6.0383 0.939835 0
M  V30 12473 C 1200.29 -6.60844 1.72552 0
M  V30 12474 O 1199.97 -7.60417 2.60808 0
M  V30 12475 H 1199.71 -0.666416 -0.11343 0
M  V30 12476 H 1202.26 -2.03019 0.311833 0
M  V30 12477 H 1200.49 -3.39806 -1.84577 0
M  V30 12478 H 1202.18 -3.73288 -1.59407 0
M  V30 12479 H 1202.94 -4.80691 0.645105 0
M  V30 12480 H 1198.82 -4.57596 -0.559165 0
M  V30 12481 H 1202.37 -6.6099 2.23019 0
M  V30 12482 H 1198.26 -6.37418 1.01824 0
M  V30 12483 H 1199.03 -7.77869 2.54679 0
M  V30 12484 N 1201.7 0.070167 -1.57444 0
M  V30 12485 C 1202.63 1.08351 -2.06839 0
M  V30 12486 C 1203.61 1.40269 -0.962224 0
M  V30 12487 O 1204.79 1.49867 -1.23505 0
M  V30 12488 C 1201.92 2.39649 -2.51368 0
M  V30 12489 C 1200.88 2.22079 -3.65875 0
M  V30 12490 C 1200.2 3.58776 -3.96464 0
M  V30 12491 C 1201.5 1.64069 -4.95862 0
M  V30 12492 H 1203.2 0.672465 -2.9175 0
M  V30 12493 H 1200.74 0.322027 -1.40353 0
M  V30 12494 H 1202.69 3.10833 -2.84537 0
M  V30 12495 H 1201.42 2.82736 -1.63487 0
M  V30 12496 H 1200.08 1.53337 -3.32992 0
M  V30 12497 H 1199.73 3.99436 -3.05712 0
M  V30 12498 H 1199.43 3.47859 -4.7357 0
M  V30 12499 H 1200.95 4.31387 -4.32131 0
M  V30 12500 H 1202.36 2.2512 -5.27251 0
M  V30 12501 H 1200.76 1.63843 -5.773 0
M  V30 12502 H 1201.83 0.60232 -4.81145 0
M  V30 12503 N 1203.17 1.53854 0.341593 0
M  V30 12504 C 1204.1 1.84966 1.42513 0
M  V30 12505 C 1205.08 0.704944 1.54805 0
M  V30 12506 O 1206.27 0.957036 1.68981 0
M  V30 12507 C 1203.4 2.06099 2.79536 0
M  V30 12508 C 1202.35 3.21919 2.82049 0
M  V30 12509 C 1201.68 3.28389 4.21977 0
M  V30 12510 C 1202.98 4.59984 2.4741 0
M  V30 12511 H 1204.67 2.7571 1.16724 0
M  V30 12512 H 1202.22 1.32662 0.560073 0
M  V30 12513 H 1204.17 2.26448 3.55386 0
M  V30 12514 H 1202.9 1.12087 3.06764 0
M  V30 12515 H 1201.56 3.01429 2.08653 0
M  V30 12516 H 1201.2 2.3197 4.46317 0
M  V30 12517 H 1200.9 4.0622 4.24569 0
M  V30 12518 H 1202.43 3.50951 4.99666 0
M  V30 12519 H 1203.84 4.80334 3.12973 0
M  V30 12520 H 1202.24 5.40233 2.61282 0
M  V30 12521 H 1203.31 4.6346 1.42594 0
M  V30 12522 N 1204.65 -0.602709 1.4562 0
M  V30 12523 C 1205.6 -1.73425 1.55005 0
M  V30 12524 C 1206.59 -1.64118 0.419713 0
M  V30 12525 O 1207.8 -1.69853 0.595815 0
M  V30 12526 H 1204.17 -0.573038 0.486962 0
M  V30 12527 H 1206.15 -1.62637 2.50184 0
M  V30 12528 C 1204.89 -3.11808 1.53853 0
M  V30 12529 H 1204.22 -3.19631 2.40158 0
M  V30 12530 H 1205.66 -3.90798 1.64477 0
M  V30 12531 C 1204.12 -3.35866 0.263765 0
M  V30 12532 O 1204.65 -3.96334 -0.654364 0
M  V30 12533 N 1202.85 -2.90171 0.157927 0
M  V30 12534 H 1202.4 -2.41144 0.905944 0
M  V30 12535 H 1202.36 -3.06641 -0.694175 0
M  V30 12536 N 1206.13 -1.32992 -0.845635 0
M  V30 12537 C 1207.38 -1.25258 -1.60256 0
M  V30 12538 C 1207.73 0.181685 -1.9154 0
M  V30 12539 O 1207.02 1.12193 -1.55316 0
M  V30 12540 C 1207.22 -2.05454 -2.92444 0
M  V30 12541 C 1207.05 -3.56533 -2.7407 0
M  V30 12542 C 1205.82 -4.25857 -2.71981 0
M  V30 12543 C 1208.01 -4.51003 -2.47186 0
M  V30 12544 N 1206 -5.6293 -2.44913 0
M  V30 12545 C 1207.37 -5.75917 -2.29607 0
M  V30 12546 C 1209.42 -4.40162 -2.32727 0
M  V30 12547 C 1208.13 -6.91214 -1.99037 0
M  V30 12548 C 1210.15 -5.55267 -2.0355 0
M  V30 12549 C 1209.51 -6.79186 -1.86777 0
M  V30 12550 H 1205.61 -0.513536 -0.58975 0
M  V30 12551 H 1208.2 -1.67458 -0.993277 0
M  V30 12552 H 1206.37 -1.65585 -3.51335 0
M  V30 12553 H 1208.1 -1.89543 -3.57569 0
M  V30 12554 H 1204.85 -3.78064 -2.85245 0
M  V30 12555 H 1205.28 -6.3517 -2.34282 0
M  V30 12556 H 1209.92 -3.44998 -2.4441 0
M  V30 12557 H 1207.64 -7.86381 -1.86091 0
M  V30 12558 H 1211.22 -5.48811 -1.93127 0
M  V30 12559 H 1210.1 -7.66748 -1.64523 0
M  V30 12560 N 1207.61 1.06304 -1.1635 0
M  V30 12561 C 1208.85 1.80686 -0.955614 0
M  V30 12562 C 1209.21 1.85171 0.507525 0
M  V30 12563 O 1210.41 2.55531 0.834103 0
M  V30 12564 C 1208.68 3.21276 -1.56577 0
M  V30 12565 S 1210.24 4.12274 -1.50251 0
M  V30 12566 H 1207.06 0.622426 -0.343666 0
M  V30 12567 H 1209.66 1.27628 -1.48092 0
M  V30 12568 H 1208.37 3.15607 -2.62336 0
M  V30 12569 H 1207.9 3.7941 -1.03978 0
M  V30 12570 H 1209.91 4.93647 -0.502703 0
M  V30 12571 N 1209.09 0.96196 1.24836 0
M  V30 12572 C 1210.33 0.621634 1.93038 0
M  V30 12573 C 1210.66 -0.840257 1.75081 0
M  V30 12574 O 1209.94 -1.60381 1.10038 0
M  V30 12575 C 1210.22 0.990107 3.46221 0
M  V30 12576 C 1210.08 2.50827 3.73371 0
M  V30 12577 C 1211.39 0.520478 4.37011 0
M  V30 12578 H 1208.51 0.227312 0.701069 0
M  V30 12579 H 1211.16 1.19993 1.47315 0
M  V30 12580 H 1209.31 0.498008 3.85295 0
M  V30 12581 H 1210.98 3.07469 3.4389 0
M  V30 12582 H 1209.22 2.94277 3.18722 0
M  V30 12583 H 1209.89 2.71659 4.80526 0
M  V30 12584 H 1212.37 0.942703 4.05281 0
M  V30 12585 H 1211.24 0.806918 5.42937 0
M  V30 12586 H 1211.5 -0.579507 4.38285 0
M  V30 12587 N 1210.56 -1.39601 0.731392 0
M  V30 12588 C 1211.5 -2.29147 0.0494974 0
M  V30 12589 C 1212.51 -1.46635 -0.707248 0
M  V30 12590 O 1213.7 -1.6975 -0.552008 0
M  V30 12591 C 1210.8 -3.25191 -0.954152 0
M  V30 12592 C 1209.97 -4.36629 -0.259674 0
M  V30 12593 C 1209.03 -5.13007 -1.17092 0
M  V30 12594 O 1208.06 -5.65479 -0.64976 0
M  V30 12595 N 1209.26 -5.23865 -2.50092 0
M  V30 12596 H 1212.02 -2.88308 0.818433 0
M  V30 12597 H 1209.58 -1.51142 0.580316 0
M  V30 12598 H 1211.58 -3.73161 -1.56629 0
M  V30 12599 H 1210.15 -2.67085 -1.62432 0
M  V30 12600 H 1209.37 -3.90582 0.532888 0
M  V30 12601 H 1210.65 -5.08317 0.221753 0
M  V30 12602 H 1210.05 -4.82745 -2.94913 0
M  V30 12603 H 1208.61 -5.75288 -3.0641 0
M  V30 12604 N 1212.04 -0.478751 -1.50152 0
M  V30 12605 C 1213.29 0.07531 -2.01559 0
M  V30 12606 C 1213.6 1.40089 -1.36508 0
M  V30 12607 O 1214.81 2.04035 -1.79115 0
M  V30 12608 C 1213.27 0.184714 -3.59426 0
M  V30 12609 C 1212.87 -1.13289 -4.33439 0
M  V30 12610 C 1214.62 0.690326 -4.18849 0
M  V30 12611 C 1212.53 -0.986866 -5.83108 0
M  V30 12612 H 1211.46 0.0319196 -0.753324 0
M  V30 12613 H 1214.11 -0.614809 -1.72894 0
M  V30 12614 H 1212.49 0.938788 -3.84711 0
M  V30 12615 H 1213.66 -1.89852 -4.19872 0
M  V30 12616 H 1211.98 -1.57021 -3.8566 0
M  V30 12617 H 1214.57 0.816733 -5.28426 0
M  V30 12618 H 1214.92 1.68361 -3.80737 0
M  V30 12619 H 1215.45 -0.00657846 -3.97799 0
M  V30 12620 H 1212.19 -1.95375 -6.25707 0
M  V30 12621 H 1211.71 -0.261752 -5.99229 0
M  V30 12622 H 1213.39 -0.656567 -6.4366 0
M  V30 12623 N 1213.52 1.56172 -0.211661 0
M  V30 12624 C 1214.48 2.18602 0.688906 0
M  V30 12625 C 1215.48 1.14508 1.12892 0
M  V30 12626 O 1216.67 1.39799 1.03932 0
M  V30 12627 C 1213.81 2.80141 1.94253 0
M  V30 12628 H 1215 2.9955 0.144765 0
M  V30 12629 H 1212.55 1.56254 0.0379615 0
M  V30 12630 H 1213.29 2.03035 2.52878 0
M  V30 12631 H 1213.07 3.56358 1.63558 0
M  V30 12632 H 1214.56 3.28026 2.58436 0
M  V30 12633 N 1215 -0.0618163 1.57479 0
M  V30 12634 C 1215.95 -1.0724 2.04373 0
M  V30 12635 C 1216.92 -1.37875 0.926271 0
M  V30 12636 O 1218.1 -1.48772 1.19463 0
M  V30 12637 C 1215.24 -2.37805 2.50085 0
M  V30 12638 C 1214.35 -2.13614 3.7549 0
M  V30 12639 C 1213.49 -3.37814 4.09945 0
M  V30 12640 C 1212.53 -3.09032 5.28361 0
M  V30 12641 N 1211.66 -4.25591 5.58406 0
M  V30 12642 H 1216.5 -0.665536 2.90473 0
M  V30 12643 H 1214.04 -0.317043 1.43643 0
M  V30 12644 H 1216 -3.14048 2.74644 0
M  V30 12645 H 1214.63 -2.76275 1.66948 0
M  V30 12646 H 1213.68 -1.28017 3.58212 0
M  V30 12647 H 1214.99 -1.88361 4.61867 0
M  V30 12648 H 1214.15 -4.22447 4.35458 0
M  V30 12649 H 1212.89 -3.66153 3.22154 0
M  V30 12650 H 1211.89 -2.22797 5.02635 0
M  V30 12651 H 1213.12 -2.82006 6.17778 0
M  V30 12652 H 1211.06 -4.53941 4.73575 0
M  V30 12653 H 1210.98 -4.03646 6.39223 0
M  V30 12654 H 1212.25 -5.11191 5.88476 0
M  V30 12655 N 1216.48 -1.54033 -0.333429 0
M  V30 12656 C 1217.72 -1.71426 -1.0704 0
M  V30 12657 C 1218.05 -0.485496 -1.8886 0
M  V30 12658 O 1217.32 0.500555 -1.89397 0
M  V30 12659 H 1215.9 -0.632034 -0.398173 0
M  V30 12660 H 1218.56 -1.91312 -0.372252 0
M  V30 12661 H 1217.65 -2.58958 -1.74205 0
M  V30 12662 N 1217.95 0.594978 -1.45938 0
M  V30 12663 C 1218.89 1.71911 -1.50072 0
M  V30 12664 C 1219.87 1.58657 -0.355913 0
M  V30 12665 O 1221.05 1.80043 -0.558272 0
M  V30 12666 C 1218.18 3.09858 -1.3677 0
M  V30 12667 C 1217.22 3.41667 -2.55277 0
M  V30 12668 S 1218.06 3.35101 -4.17693 0
M  V30 12669 C 1219.21 4.75606 -4.06878 0
M  V30 12670 H 1219.44 1.68143 -2.45184 0
M  V30 12671 H 1216.98 0.772698 -1.33674 0
M  V30 12672 H 1218.94 3.89444 -1.29782 0
M  V30 12673 H 1217.6 3.11128 -0.431073 0
M  V30 12674 H 1216.79 4.42138 -2.41929 0
M  V30 12675 H 1216.39 2.69622 -2.59191 0
M  V30 12676 H 1218.68 5.65708 -3.72801 0
M  V30 12677 H 1219.63 4.9401 -5.07306 0
M  V30 12678 H 1220.03 4.5188 -3.38327 0
M  V30 12679 N 1219.43 1.33438 0.838571 0
M  V30 12680 C 1220.38 1.23698 1.96981 0
M  V30 12681 C 1221.37 0.138299 1.68835 0
M  V30 12682 O 1222.58 0.302278 1.77444 0
M  V30 12683 H 1218.96 0.383874 0.646641 0
M  V30 12684 H 1220.93 2.19337 2.02321 0
M  V30 12685 C 1219.68 0.993362 3.33208 0
M  V30 12686 H 1219 1.83104 3.55405 0
M  V30 12687 H 1220.44 0.965517 4.1286 0
M  V30 12688 C 1218.9 -0.303701 3.35528 0
M  V30 12689 O 1219.43 -1.3103 3.79729 0
M  V30 12690 N 1217.63 -0.331342 2.88705 0
M  V30 12691 H 1217.18 0.488351 2.52929 0
M  V30 12692 H 1217.14 -1.199 2.9064 0
M  V30 12693 N 1220.91 -1.05686 1.16912 0
M  V30 12694 C 1222.14 -1.82018 0.977392 0
M  V30 12695 C 1222.55 -1.83072 -0.477636 0
M  V30 12696 O 1221.89 -1.25296 -1.34338 0
M  V30 12697 C 1221.95 -3.29592 1.4356 0
M  V30 12698 C 1221.62 -3.5223 2.91175 0
M  V30 12699 C 1222.61 -3.44767 3.89142 0
M  V30 12700 C 1220.3 -3.79353 3.29236 0
M  V30 12701 C 1222.29 -3.64104 5.2317 0
M  V30 12702 C 1219.98 -3.98339 4.63432 0
M  V30 12703 C 1220.98 -3.90713 5.60207 0
M  V30 12704 O 1220.67 -4.09175 6.91976 0
M  V30 12705 H 1220.4 -0.580578 0.346273 0
M  V30 12706 H 1222.95 -1.34199 1.55498 0
M  V30 12707 H 1221.18 -3.78302 0.80153 0
M  V30 12708 H 1222.87 -3.87435 1.21032 0
M  V30 12709 H 1223.64 -3.23796 3.61083 0
M  V30 12710 H 1219.52 -3.84395 2.54482 0
M  V30 12711 H 1223.06 -3.58068 5.98693 0
M  V30 12712 H 1218.96 -4.18801 4.91198 0
M  V30 12713 H 1219.73 -4.26429 6.98642 0
M  V30 12714 N 1222.39 -0.968567 -1.24324 0
M  V30 12715 C 1223.32 -0.518323 -2.27674 0
M  V30 12716 C 1224.3 0.442479 -1.64244 0
M  V30 12717 O 1225.48 0.338416 -1.91229 0
M  V30 12718 C 1222.61 0.191459 -3.46772 0
M  V30 12719 C 1221.57 -0.685449 -4.22476 0
M  V30 12720 C 1220.89 0.155873 -5.34473 0
M  V30 12721 C 1222.19 -1.97047 -4.83704 0
M  V30 12722 H 1223.89 -1.38215 -2.65588 0
M  V30 12723 H 1221.43 -0.66604 -1.27671 0
M  V30 12724 H 1223.39 0.517667 -4.18208 0
M  V30 12725 H 1222.11 1.08965 -3.07887 0
M  V30 12726 H 1220.77 -0.994942 -3.52841 0
M  V30 12727 H 1220.42 1.05424 -4.91828 0
M  V30 12728 H 1220.12 -0.427655 -5.86042 0
M  V30 12729 H 1221.64 0.476733 -6.08736 0
M  V30 12730 H 1223.06 -1.70979 -5.4721 0
M  V30 12731 H 1221.45 -2.50079 -5.45509 0
M  V30 12732 H 1222.52 -2.66484 -4.0511 0
M  V30 12733 N 1223.87 1.39211 -0.738786 0
M  V30 12734 C 1224.78 2.34374 -0.102958 0
M  V30 12735 C 1225.79 1.58514 0.717596 0
M  V30 12736 O 1226.97 1.90786 0.645186 0
M  V30 12737 C 1224.03 3.37562 0.790733 0
M  V30 12738 C 1223.09 4.29279 -0.0425028 0
M  V30 12739 C 1222.33 5.27539 0.808628 0
M  V30 12740 O 1222.55 5.32396 2.04722 0
M  V30 12741 O 1221.48 6.0144 0.235279 0
M  V30 12742 H 1225.31 2.90412 -0.888498 0
M  V30 12743 H 1222.9 1.40803 -0.499498 0
M  V30 12744 H 1224.78 4.00783 1.30196 0
M  V30 12745 H 1223.45 2.83903 1.55502 0
M  V30 12746 H 1222.36 3.69268 -0.599335 0
M  V30 12747 H 1223.69 4.86154 -0.7691 0
M  V30 12748 N 1225.34 0.486708 1.49896 0
M  V30 12749 C 1226.62 -0.125183 1.95199 0
M  V30 12750 C 1227 -1.55498 1.42771 0
M  V30 12751 O 1226.35 -2.1949 0.635322 0
M  V30 12752 C 1226.56 -0.0524982 3.48961 0
M  V30 12753 C 1227.91 -0.233595 4.23957 0
M  V30 12754 O 1228.93 -0.128357 3.55969 0
M  V30 12755 O 1227.79 -0.447862 5.44662 0
M  V30 12756 H 1224.88 -0.103141 0.820543 0
M  V30 12757 H 1227.43 0.548226 1.60601 0
M  V30 12758 H 1226.2 0.945163 3.79714 0
M  V30 12759 H 1225.83 -0.766683 3.90138 0
M  V30 12760 N 1226.82 -1.56058 0.219941 0
M  V30 12761 C 1228.24 -1.59024 -0.135476 0
M  V30 12762 C 1228.44 -1.23672 -1.59083 0
M  V30 12763 O 1227.5 -0.971197 -2.33075 0
M  V30 12764 C 1228.81 -3.00103 0.189356 0
M  V30 12765 C 1230.36 -3.12724 0.131463 0
M  V30 12766 C 1230.83 -4.55977 0.429947 0
M  V30 12767 N 1232.32 -4.61643 0.37946 0
M  V30 12768 C 1233.06 -5.70419 0.58393 0
M  V30 12769 N 1232.55 -6.87565 0.850088 0
M  V30 12770 N 1234.35 -5.59722 0.516477 0
M  V30 12771 H 1226.5 -1.77313 1.16935 0
M  V30 12772 H 1228.76 -0.824096 0.468583 0
M  V30 12773 H 1228.47 -3.30616 1.19941 0
M  V30 12774 H 1228.34 -3.73919 -0.49641 0
M  V30 12775 H 1230.73 -2.82008 -0.869223 0
M  V30 12776 H 1230.81 -2.41241 0.85068 0
M  V30 12777 H 1230.45 -4.8741 1.42806 0
M  V30 12778 H 1230.38 -5.25684 -0.310444 0
M  V30 12779 H 1232.87 -3.77465 0.181373 0
M  V30 12780 H 1233.19 -7.66378 0.994251 0
M  V30 12781 H 1231.53 -6.89313 0.887265 0
M  V30 12782 H 1234.72 -4.6708 0.308784 0
M  V30 12783 H 1234.9 -6.4443 0.679236 0
M  V30 12784 N 1228.3 0.053464 -1.57509 0
M  V30 12785 C 1229.72 0.408651 -1.5428 0
M  V30 12786 C 1229.92 1.78086 -0.942735 0
M  V30 12787 O 1228.97 2.46366 -0.553163 0
M  V30 12788 C 1230.29 0.332884 -2.98852 0
M  V30 12789 C 1231.83 0.411745 -3.1028 0
M  V30 12790 C 1232.31 0.365691 -4.56538 0
M  V30 12791 N 1233.8 0.425222 -4.61244 0
M  V30 12792 C 1234.54 0.412093 -5.71917 0
M  V30 12793 N 1234.03 0.352693 -6.91902 0
M  V30 12794 N 1235.82 0.460016 -5.60214 0
M  V30 12795 H 1227.98 -0.844834 -1.94875 0
M  V30 12796 H 1230.24 -0.318888 -0.892757 0
M  V30 12797 H 1229.94 -0.609116 -3.46385 0
M  V30 12798 H 1229.82 1.13605 -3.59686 0
M  V30 12799 H 1232.21 1.34417 -2.62709 0
M  V30 12800 H 1232.29 -0.420333 -2.52323 0
M  V30 12801 H 1231.93 -0.562963 -5.0477 0
M  V30 12802 H 1231.86 1.21555 -5.12379 0
M  V30 12803 H 1234.35 0.474634 -3.74908 0
M  V30 12804 H 1234.66 0.347105 -7.7202 0
M  V30 12805 H 1233.01 0.319104 -6.94267 0
M  V30 12806 H 1236.2 0.504242 -4.65376 0
M  V30 12807 H 1236.37 0.446315 -6.46461 0
M  V30 12808 N 1229.78 1.54207 0.325255 0
M  V30 12809 C 1230.71 1.86467 1.40543 0
M  V30 12810 C 1231.69 0.721324 1.54048 0
M  V30 12811 O 1232.88 0.974905 1.67956 0
M  V30 12812 C 1230.01 2.09052 2.77335 0
M  V30 12813 C 1228.96 3.24893 2.78619 0
M  V30 12814 C 1228.29 3.32846 4.1847 0
M  V30 12815 C 1229.59 4.62582 2.42518 0
M  V30 12816 H 1231.28 2.76932 1.13794 0
M  V30 12817 H 1228.83 1.33248 0.545971 0
M  V30 12818 H 1230.78 2.30204 3.52964 0
M  V30 12819 H 1229.5 1.15335 3.05558 0
M  V30 12820 H 1228.16 3.03625 2.05444 0
M  V30 12821 H 1227.81 2.3669 4.43832 0
M  V30 12822 H 1227.51 4.10701 4.20237 0
M  V30 12823 H 1229.03 3.56231 4.95915 0
M  V30 12824 H 1230.45 4.83627 3.07861 0
M  V30 12825 H 1228.84 5.42974 2.55538 0
M  V30 12826 H 1229.91 4.64946 1.3767 0
M  V30 12827 N 1231.26 -0.58723 1.46251 0
M  V30 12828 C 1232.5 -1.3476 1.51551 0
M  V30 12829 C 1232.84 -1.93499 0.16483 0
M  V30 12830 O 1232.11 -1.7622 -0.823207 0
M  V30 12831 C 1232.39 -2.48033 2.61059 0
M  V30 12832 C 1232.25 -1.94358 4.05642 0
M  V30 12833 C 1233.57 -3.50096 2.66685 0
M  V30 12834 H 1230.69 -0.48863 0.551733 0
M  V30 12835 H 1233.33 -0.660097 1.78165 0
M  V30 12836 H 1231.48 -3.06679 2.38496 0
M  V30 12837 H 1233.15 -1.40204 4.39478 0
M  V30 12838 H 1231.39 -1.25217 4.15335 0
M  V30 12839 H 1232.06 -2.76105 4.77986 0
M  V30 12840 H 1234.54 -3.01324 2.86955 0
M  V30 12841 H 1233.42 -4.26817 3.45135 0
M  V30 12842 H 1233.68 -4.07032 1.7256 0
M  V30 12843 N 1232.74 -1.33881 -0.831482 0
M  V30 12844 C 1233.69 -1.2131 -1.93049 0
M  V30 12845 C 1234.67 -0.114199 -1.60494 0
M  V30 12846 O 1235.86 -0.343027 -1.73644 0
M  V30 12847 C 1232.99 -0.962034 -3.29545 0
M  V30 12848 C 1232.08 -2.10372 -3.68245 0
M  V30 12849 N 1232.47 -3.35427 -3.78579 0
M  V30 12850 C 1230.77 -2.01206 -3.98036 0
M  V30 12851 C 1231.47 -4.10351 -4.12295 0
M  V30 12852 N 1230.44 -3.3886 -4.25059 0
M  V30 12853 H 1234.24 -2.1609 -1.99204 0
M  V30 12854 H 1231.76 -1.25995 -1.02464 0
M  V30 12855 H 1233.76 -0.852895 -4.08082 0
M  V30 12856 H 1232.42 -0.0228423 -3.24692 0
M  V30 12857 H 1233.43 -3.70085 -3.62295 0
M  V30 12858 H 1230.1 -1.14991 -4.01352 0
M  V30 12859 H 1231.49 -5.18302 -4.27566 0
M  V30 12860 N 1234.21 1.05064 -1.1747 0
M  V30 12861 C 1235.63 1.30256 -0.922248 0
M  V30 12862 C 1235.83 1.97119 0.417896 0
M  V30 12863 O 1234.89 2.24557 1.15457 0
M  V30 12864 C 1236.2 2.17109 -2.08049 0
M  V30 12865 C 1237.75 2.30487 -2.11766 0
M  V30 12866 C 1238.22 3.20701 -3.26979 0
M  V30 12867 N 1239.71 3.28287 -3.26775 0
M  V30 12868 C 1240.45 3.98218 -4.12565 0
M  V30 12869 N 1239.94 4.70567 -5.08467 0
M  V30 12870 N 1241.74 3.94395 -4.00511 0
M  V30 12871 H 1233.89 0.600653 -2.0373 0
M  V30 12872 H 1236.15 0.327475 -0.889643 0
M  V30 12873 H 1235.86 1.75273 -3.04914 0
M  V30 12874 H 1235.73 3.1775 -2.03261 0
M  V30 12875 H 1238.12 2.71564 -1.15486 0
M  V30 12876 H 1238.2 1.29471 -2.20615 0
M  V30 12877 H 1237.84 2.80337 -4.23525 0
M  V30 12878 H 1237.77 4.21725 -3.15366 0
M  V30 12879 H 1240.26 2.76739 -2.5734 0
M  V30 12880 H 1240.58 5.21492 -5.70321 0
M  V30 12881 H 1238.92 4.69505 -5.12436 0
M  V30 12882 H 1242.11 3.37 -3.24882 0
M  V30 12883 H 1242.29 4.48626 -4.67588 0
M  V30 12884 N 1235.69 0.975146 1.23809 0
M  V30 12885 C 1236.97 0.557725 1.8748 0
M  V30 12886 C 1237.35 -0.965164 1.87744 0
M  V30 12887 O 1236.7 -1.83966 1.35531 0
M  V30 12888 C 1236.91 1.15777 3.29236 0
M  V30 12889 C 1238.25 1.24726 4.05868 0
M  V30 12890 O 1239.28 1.11084 3.38436 0
M  V30 12891 O 1238.14 1.46373 5.26533 0
M  V30 12892 H 1235.23 0.187045 0.80557 0
M  V30 12893 H 1237.78 1.06989 1.31725 0
M  V30 12894 H 1236.55 2.20023 3.23583 0
M  V30 12895 H 1236.17 0.630103 3.92575 0
M  V30 12896 N 1237.17 -1.38817 0.746158 0
M  V30 12897 C 1238.1 -2.33144 0.128836 0
M  V30 12898 C 1239.08 -1.54487 -0.711873 0
M  V30 12899 O 1240.27 -1.82836 -0.654577 0
M  V30 12900 C 1237.4 -3.38639 -0.770772 0
M  V30 12901 C 1236.35 -4.27987 -0.0333669 0
M  V30 12902 C 1235.68 -5.24274 -1.05073 0
M  V30 12903 C 1236.98 -5.09915 1.13066 0
M  V30 12904 H 1238.67 -2.85019 0.916778 0
M  V30 12905 H 1236.22 -1.37039 0.442306 0
M  V30 12906 H 1238.17 -4.03587 -1.21225 0
M  V30 12907 H 1236.89 -2.8523 -1.59095 0
M  V30 12908 H 1235.55 -3.64534 0.388612 0
M  V30 12909 H 1235.2 -4.67156 -1.86478 0
M  V30 12910 H 1234.9 -5.84906 -0.562037 0
M  V30 12911 H 1236.42 -5.92099 -1.49169 0
M  V30 12912 H 1237.84 -5.68145 0.767084 0
M  V30 12913 H 1236.23 -5.79744 1.54972 0
M  V30 12914 H 1237.3 -4.4409 1.94709 0
M  V30 12915 N 1238.65 -0.49465 -1.49636 0
M  V30 12916 C 1239.61 0.276064 -2.27531 0
M  V30 12917 C 1240.61 0.899619 -1.3328 0
M  V30 12918 O 1241.8 0.765136 -1.56497 0
M  V30 12919 C 1238.93 1.39547 -3.1103 0
M  V30 12920 H 1240.13 -0.407381 -2.9712 0
M  V30 12921 H 1237.68 -0.249416 -1.54297 0
M  V30 12922 H 1238.41 2.11326 -2.45992 0
M  V30 12923 H 1238.2 0.953877 -3.8032 0
M  V30 12924 H 1239.69 1.93853 -3.69879 0
M  V30 12925 N 1240.13 1.55939 -0.228214 0
M  V30 12926 C 1241.09 2.1932 0.665681 0
M  V30 12927 C 1242.09 1.15699 1.11671 0
M  V30 12928 O 1243.28 1.40893 1.02444 0
M  V30 12929 C 1240.41 2.82185 1.9127 0
M  V30 12930 H 1241.6 2.99687 0.112986 0
M  V30 12931 H 1239.16 1.56285 0.0213865 0
M  V30 12932 H 1239.89 2.05706 2.5071 0
M  V30 12933 H 1239.68 3.58073 1.5977 0
M  V30 12934 H 1241.17 3.30748 2.54942 0
M  V30 12935 N 1241.6 -0.0451101 1.57535 0
M  V30 12936 C 1243.02 -0.400463 1.54494 0
M  V30 12937 C 1243.22 -1.77584 0.952166 0
M  V30 12938 O 1242.28 -2.46069 0.566221 0
M  V30 12939 C 1243.59 -0.31703 2.99024 0
M  V30 12940 C 1245.14 -0.395284 3.10494 0
M  V30 12941 C 1245.61 -0.341475 4.56725 0
M  V30 12942 N 1247.1 -0.400755 4.61463 0
M  V30 12943 C 1247.84 -0.381757 5.72128 0
M  V30 12944 N 1247.33 -0.315995 6.92079 0
M  V30 12945 N 1249.13 -0.4303 5.60451 0
M  V30 12946 H 1241.28 0.855156 1.94424 0
M  V30 12947 H 1243.54 0.323618 0.891053 0
M  V30 12948 H 1243.25 0.627477 3.46057 0
M  V30 12949 H 1243.12 -1.11696 3.60283 0
M  V30 12950 H 1245.51 -1.33022 2.63418 0
M  V30 12951 H 1245.59 0.433709 2.52096 0
M  V30 12952 H 1245.23 0.589725 5.04465 0
M  V30 12953 H 1245.16 -1.18836 5.13016 0
M  V30 12954 H 1247.65 -0.454745 3.75154 0
M  V30 12955 H 1247.97 -0.306158 7.72193 0
M  V30 12956 H 1246.31 -0.282281 6.94427 0
M  V30 12957 H 1249.5 -0.479555 4.65637 0
M  V30 12958 H 1249.68 -0.412025 6.46689 0
M  V30 12959 N 1243.08 -1.54377 -0.317073 0
M  V30 12960 C 1244.03 -1.84948 -1.41057 0
M  V30 12961 C 1245.02 -0.721887 -1.53249 0
M  V30 12962 O 1246.23 -0.905648 -1.55557 0
M  V30 12963 H 1242.61 -0.586353 -0.470844 0
M  V30 12964 H 1244.58 -2.7638 -1.12501 0
M  V30 12965 C 1243.33 -2.09932 -2.77171 0
M  V30 12966 H 1242.65 -2.96162 -2.68566 0
M  V30 12967 H 1244.09 -2.35272 -3.52737 0
M  V30 12968 C 1242.55 -0.892855 -3.24853 0
M  V30 12969 O 1243.08 -0.105336 -4.01562 0
M  V30 12970 N 1241.28 -0.702685 -2.81976 0
M  V30 12971 H 1240.83 -1.34474 -2.19715 0
M  V30 12972 H 1240.79 0.103024 -3.14231 0
M  V30 12973 N 1244.56 0.579466 -1.4656 0
M  V30 12974 C 1245.81 1.33954 -1.52264 0
M  V30 12975 C 1246.14 1.93409 -0.175089 0
M  V30 12976 O 1245.41 1.76654 0.81385 0
M  V30 12977 C 1245.7 2.46645 -2.6237 0
M  V30 12978 C 1245.55 1.92204 -4.06667 0
M  V30 12979 C 1246.87 3.48676 -2.68538 0
M  V30 12980 H 1243.99 0.485697 -0.554317 0
M  V30 12981 H 1246.63 0.650639 -1.78512 0
M  V30 12982 H 1244.78 3.0541 -2.40119 0
M  V30 12983 H 1246.45 1.37871 -4.40215 0
M  V30 12984 H 1244.7 1.23012 -4.15993 0
M  V30 12985 H 1245.37 2.73566 -4.79443 0
M  V30 12986 H 1247.84 2.99798 -2.88549 0
M  V30 12987 H 1246.72 4.24981 -3.47394 0
M  V30 12988 H 1246.98 4.06112 -1.74716 0
M  V30 12989 N 1246.04 1.3432 0.824371 0
M  V30 12990 C 1246.97 1.2842 1.95014 0
M  V30 12991 C 1247.95 0.161925 1.69328 0
M  V30 12992 O 1249.13 0.354052 1.90945 0
M  V30 12993 C 1246.26 1.03741 3.31444 0
M  V30 12994 C 1245.22 2.12419 3.71567 0
M  V30 12995 C 1244.54 1.72931 5.05963 0
M  V30 12996 C 1245.84 3.54235 3.83817 0
M  V30 12997 H 1247.54 2.22614 2.00209 0
M  V30 12998 H 1245.08 1.07165 0.961856 0
M  V30 12999 H 1247.04 0.982586 4.09784 0
M  V30 13000 H 1245.76 0.0598892 3.26545 0
M  V30 13001 H 1244.42 2.16968 2.955 0
M  V30 13002 H 1244.07 0.738433 4.9755 0
M  V30 13003 H 1243.77 2.45668 5.3378 0
M  V30 13004 H 1245.29 1.68941 5.86763 0
M  V30 13005 H 1246.71 3.52106 4.52432 0
M  V30 13006 H 1245.1 4.25581 4.23085 0
M  V30 13007 H 1246.17 3.91682 2.85856 0
M  V30 13008 N 1247.52 -1.0444 1.18026 0
M  V30 13009 C 1248.76 -1.77838 0.974756 0
M  V30 13010 C 1249.1 -1.87792 -0.494755 0
M  V30 13011 O 1248.37 -1.38327 -1.36733 0
M  V30 13012 C 1248.65 -3.21315 1.62569 0
M  V30 13013 C 1248.51 -3.19327 3.16781 0
M  V30 13014 C 1249.83 -4.19337 1.33583 0
M  V30 13015 H 1246.94 -0.645575 0.35553 0
M  V30 13016 H 1249.59 -1.22023 1.45638 0
M  V30 13017 H 1247.74 -3.68974 1.21617 0
M  V30 13018 H 1249.41 -2.79687 3.66842 0
M  V30 13019 H 1247.65 -2.57461 3.49137 0
M  V30 13020 H 1248.32 -4.20626 3.5746 0
M  V30 13021 H 1250.8 -3.80208 1.69059 0
M  V30 13022 H 1249.67 -5.17953 1.81702 0
M  V30 13023 H 1249.94 -4.41346 0.258016 0
M  V30 13024 N 1248.99 -0.981699 -1.2329 0
M  V30 13025 C 1249.94 -0.52269 -2.24803 0
M  V30 13026 C 1250.91 0.439116 -1.6019 0
M  V30 13027 O 1252.1 0.346372 -1.8763 0
M  V30 13028 C 1249.24 0.167477 -3.44693 0
M  V30 13029 C 1248.35 -0.834744 -4.23858 0
M  V30 13030 C 1247.48 -0.119249 -5.31066 0
M  V30 13031 C 1246.52 -1.1106 -6.0194 0
M  V30 13032 N 1245.66 -0.424167 -7.00818 0
M  V30 13033 H 1250.5 -1.39312 -2.63431 0
M  V30 13034 H 1248.04 -0.698061 -1.29482 0
M  V30 13035 H 1250 0.584442 -4.13086 0
M  V30 13036 H 1248.63 1.00177 -3.06862 0
M  V30 13037 H 1247.68 -1.37009 -3.5487 0
M  V30 13038 H 1248.99 -1.59012 -4.72776 0
M  V30 13039 H 1248.14 0.355015 -6.0566 0
M  V30 13040 H 1246.88 0.668714 -4.83094 0
M  V30 13041 H 1245.89 -1.5956 -5.26138 0
M  V30 13042 H 1247.11 -1.89924 -6.52001 0
M  V30 13043 H 1245.06 0.344564 -6.55094 0
M  V30 13044 H 1244.98 -1.11817 -7.47685 0
M  V30 13045 H 1246.24 0.0276655 -7.79495 0
M  V30 13046 N 1250.47 1.3842 -0.753509 0
M  V30 13047 C 1251.7 2.04403 -0.320449 0
M  V30 13048 C 1252.12 1.5683 1.05118 0
M  V30 13049 O 1251.47 0.741335 1.66765 0
M  V30 13050 C 1251.52 3.59954 -0.333937 0
M  V30 13051 O 1251.24 4.05782 -1.65144 0
M  V30 13052 C 1252.75 4.43156 0.112997 0
M  V30 13053 H 1249.97 0.656881 -0.136927 0
M  V30 13054 H 1252.51 1.77112 -1.02234 0
M  V30 13055 H 1250.66 3.86083 0.319215 0
M  V30 13056 H 1251.08 5.00213 -1.57757 0
M  V30 13057 H 1252.55 5.51975 0.0523995 0
M  V30 13058 H 1253.03 4.23581 1.16087 0
M  V30 13059 H 1253.64 4.22216 -0.511278 0
M  V30 13060 N 1251.95 0.502579 1.49372 0
M  V30 13061 C 1253.36 0.055187 1.86618 0
M  V30 13062 C 1253.71 -1.35938 1.41476 0
M  V30 13063 O 1252.84 -2.01333 0.793338 0
M  V30 13064 C 1253.43 0.0933734 3.38671 0
M  V30 13065 C 1251.99 -0.298685 3.75213 0
M  V30 13066 C 1251.14 0.465216 2.7337 0
M  V30 13067 H 1254.09 0.715281 1.41667 0
M  V30 13068 H 1254.11 -0.701549 3.73977 0
M  V30 13069 H 1253.62 1.12303 3.71497 0
M  V30 13070 H 1251.72 -1.33151 3.47996 0
M  V30 13071 H 1251.84 0.0218637 4.79095 0
M  V30 13072 H 1250.2 -0.0851469 2.54558 0
M  V30 13073 H 1250.98 1.49498 3.09039 0
M  V30 13074 N 1253.43 -1.55816 0.23648 0
M  V30 13075 C 1254.36 -2.18248 -0.700024 0
M  V30 13076 C 1255.37 -1.15579 -1.14654 0
M  V30 13077 O 1256.56 -1.42491 -1.07511 0
M  V30 13078 C 1253.66 -2.76338 -1.9619 0
M  V30 13079 C 1252.84 -4.04325 -1.66853 0
M  V30 13080 C 1251.89 -4.46834 -2.77895 0
M  V30 13081 O 1250.92 -5.13427 -2.45725 0
M  V30 13082 N 1252.12 -4.13753 -4.07171 0
M  V30 13083 H 1254.89 -2.99241 -0.16589 0
M  V30 13084 H 1252.45 -1.61803 0.0560383 0
M  V30 13085 H 1254.44 -3.01739 -2.69695 0
M  V30 13086 H 1253.01 -1.99563 -2.4061 0
M  V30 13087 H 1252.23 -3.86623 -0.769164 0
M  V30 13088 H 1253.52 -4.8779 -1.44703 0
M  V30 13089 H 1252.92 -3.60271 -4.36144 0
M  V30 13090 H 1251.47 -4.44014 -4.77174 0
M  V30 13091 N 1254.91 0.036755 -1.57557 0
M  V30 13092 C 1255.86 1.04744 -2.02516 0
M  V30 13093 C 1256.84 1.3248 -0.913116 0
M  V30 13094 O 1258.03 1.32194 -1.17702 0
M  V30 13095 C 1255.16 2.3509 -2.50175 0
M  V30 13096 C 1254.25 2.10478 -3.68185 0
M  V30 13097 N 1254.64 1.55899 -4.81175 0
M  V30 13098 C 1252.94 2.40797 -3.7541 0
M  V30 13099 C 1253.64 1.46913 -5.62842 0
M  V30 13100 N 1252.61 1.94202 -5.07727 0
M  V30 13101 H 1256.42 0.619342 -2.873 0
M  V30 13102 H 1253.93 0.243208 -1.60569 0
M  V30 13103 H 1255.93 3.08297 -2.8064 0
M  V30 13104 H 1254.59 2.78586 -1.66793 0
M  V30 13105 H 1255.6 1.24275 -5.02769 0
M  V30 13106 H 1252.27 2.8742 -3.02813 0
M  V30 13107 H 1253.66 1.0527 -6.63602 0
M  V30 13108 N 1256.39 1.54543 0.308881 0
M  V30 13109 C 1257.63 1.73706 1.04661 0
M  V30 13110 C 1257.96 0.517111 1.87189 0
M  V30 13111 O 1257.24 -0.485856 1.88334 0
M  V30 13112 C 1257.52 3.02141 1.95916 0
M  V30 13113 C 1257.38 4.34419 1.1662 0
M  V30 13114 C 1258.69 3.26401 2.95213 0
M  V30 13115 H 1255.81 0.63203 0.379087 0
M  V30 13116 H 1258.46 1.87253 0.321947 0
M  V30 13117 H 1256.61 2.90723 2.57706 0
M  V30 13118 H 1258.28 4.57743 0.571772 0
M  V30 13119 H 1256.52 4.3126 0.468747 0
M  V30 13120 H 1257.19 5.20535 1.83704 0
M  V30 13121 H 1259.67 3.37377 2.43549 0
M  V30 13122 H 1258.54 4.17597 3.56235 0
M  V30 13123 H 1258.8 2.44322 3.68455 0
M  V30 13124 N 1257.86 -0.571685 1.46866 0
M  V30 13125 C 1258.81 -1.67992 1.58263 0
M  V30 13126 C 1259.78 -1.60535 0.426345 0
M  V30 13127 O 1260.97 -1.79584 0.644534 0
M  V30 13128 C 1258.11 -3.06327 1.58927 0
M  V30 13129 C 1257.22 -3.24328 2.85369 0
M  V30 13130 C 1256.35 -4.52976 2.77464 0
M  V30 13131 C 1255.39 -4.64359 3.98795 0
M  V30 13132 N 1254.53 -5.84345 3.89211 0
M  V30 13133 H 1259.37 -1.57589 2.52922 0
M  V30 13134 H 1256.91 -0.767883 1.25467 0
M  V30 13135 H 1258.86 -3.86411 1.57296 0
M  V30 13136 H 1257.49 -3.15601 0.677912 0
M  V30 13137 H 1256.55 -2.37774 2.96931 0
M  V30 13138 H 1257.86 -3.28605 3.7526 0
M  V30 13139 H 1257.01 -5.41303 2.74001 0
M  V30 13140 H 1255.75 -4.51155 1.85231 0
M  V30 13141 H 1254.76 -3.74448 4.02578 0
M  V30 13142 H 1255.98 -4.6795 4.92137 0
M  V30 13143 H 1253.93 -5.835 2.99772 0
M  V30 13144 H 1253.84 -5.89938 4.72768 0
M  V30 13145 H 1255.11 -6.75072 3.89741 0
M  V30 13146 N 1259.34 -1.34755 -0.817236 0
M  V30 13147 C 1260.59 -1.26771 -1.56882 0
M  V30 13148 C 1260.9 0.158962 -1.94953 0
M  V30 13149 O 1262.11 0.360996 -2.69089 0
M  V30 13150 C 1260.57 -2.22261 -2.83069 0
M  V30 13151 C 1260.17 -3.70216 -2.52277 0
M  V30 13152 C 1261.92 -2.23197 -3.61086 0
M  V30 13153 C 1259.82 -4.57559 -3.74691 0
M  V30 13154 H 1258.75 -0.470961 -0.588822 0
M  V30 13155 H 1261.41 -1.59955 -0.899254 0
M  V30 13156 H 1259.79 -1.82036 -3.5168 0
M  V30 13157 H 1260.96 -4.19014 -1.9174 0
M  V30 13158 H 1259.28 -3.71784 -1.87525 0
M  V30 13159 H 1261.87 -2.85673 -4.5199 0
M  V30 13160 H 1262.22 -1.2328 -3.97628 0
M  V30 13161 H 1262.75 -2.61897 -2.99424 0
M  V30 13162 H 1259.49 -5.58434 -3.43267 0
M  V30 13163 H 1259.01 -4.13494 -4.34491 0
M  V30 13164 H 1260.69 -4.72451 -4.42039 0
M  V30 13165 N 1260.82 1.03812 -1.18578 0
M  V30 13166 C 1262.05 1.80702 -1.00769 0
M  V30 13167 C 1262.46 1.83509 0.443833 0
M  V30 13168 O 1261.82 1.2724 1.30829 0
M  V30 13169 C 1261.87 3.26185 -1.55838 0
M  V30 13170 O 1261.59 3.23612 -2.95308 0
M  V30 13171 C 1263.09 4.1971 -1.42682 0
M  V30 13172 H 1260.31 0.568972 -0.355685 0
M  V30 13173 H 1262.86 1.30817 -1.57185 0
M  V30 13174 H 1261.01 3.73293 -1.03592 0
M  V30 13175 H 1261.43 4.14769 -3.2104 0
M  V30 13176 H 1262.9 5.19716 -1.86008 0
M  V30 13177 H 1263.38 4.37588 -0.375924 0
M  V30 13178 H 1263.98 3.78469 -1.94013 0
M  V30 13179 N 1262.3 0.988223 1.22768 0
M  V30 13180 C 1263.57 0.577578 1.86878 0
M  V30 13181 C 1263.95 -0.945197 1.88757 0
M  V30 13182 O 1263.3 -1.82519 1.37474 0
M  V30 13183 C 1263.51 1.19263 3.2799 0
M  V30 13184 C 1264.86 1.29024 4.04522 0
M  V30 13185 O 1265.88 1.14667 3.37239 0
M  V30 13186 O 1264.74 1.51949 5.24951 0
M  V30 13187 H 1261.84 0.195579 0.803541 0
M  V30 13188 H 1264.38 1.0838 1.30582 0
M  V30 13189 H 1263.16 2.23442 3.21231 0
M  V30 13190 H 1262.78 0.671706 3.91885 0
M  V30 13191 N 1263.78 -1.38018 0.760839 0
M  V30 13192 C 1265.02 -1.99952 0.320241 0
M  V30 13193 C 1265.35 -1.60397 -1.10014 0
M  V30 13194 O 1264.61 -0.836407 -1.76926 0
M  V30 13195 C 1264.9 -3.55168 0.398778 0
M  V30 13196 C 1264.57 -4.14457 1.77585 0
M  V30 13197 C 1263.23 -4.30363 2.15269 0
M  V30 13198 C 1265.58 -4.47089 2.67883 0
M  V30 13199 C 1262.91 -4.762 3.4271 0
M  V30 13200 C 1265.26 -4.94345 3.94722 0
M  V30 13201 C 1263.93 -5.08458 4.32466 0
M  V30 13202 H 1263.2 -0.731675 0.117185 0
M  V30 13203 H 1265.85 -1.64955 0.972736 0
M  V30 13204 H 1264.15 -3.90346 -0.337273 0
M  V30 13205 H 1265.85 -4.00981 0.0393393 0
M  V30 13206 H 1262.44 -4.02496 1.47292 0
M  V30 13207 H 1266.62 -4.34395 2.40031 0
M  V30 13208 H 1261.88 -4.85312 3.71863 0
M  V30 13209 H 1266.05 -5.18563 4.64828 0
M  V30 13210 H 1263.68 -5.43735 5.31278 0
M  V30 13211 N 1265.25 -0.510493 -1.49103 0
M  V30 13212 C 1266.5 0.0305831 -2.02077 0
M  V30 13213 C 1266.82 1.36602 -1.39157 0
M  V30 13214 O 1266.09 1.88016 -0.550154 0
M  V30 13215 H 1264.67 0.0142916 -0.746863 0
M  V30 13216 H 1267.33 -0.669895 -1.83026 0
M  V30 13217 H 1266.43 0.153283 -3.11723 0
M  V30 13218 N 1266.73 1.55688 -0.24474 0
M  V30 13219 C 1267.66 2.24272 0.64995 0
M  V30 13220 C 1268.64 1.22226 1.183 0
M  V30 13221 O 1269.83 1.50873 1.22274 0
M  V30 13222 C 1266.96 2.94053 1.84798 0
M  V30 13223 C 1265.91 4.02769 1.44779 0
M  V30 13224 C 1265.24 4.59965 2.72647 0
M  V30 13225 C 1266.54 5.18601 0.62047 0
M  V30 13226 H 1268.23 2.99298 0.0780654 0
M  V30 13227 H 1265.78 1.43955 0.0361069 0
M  V30 13228 H 1267.73 3.40732 2.47951 0
M  V30 13229 H 1266.45 2.16511 2.44521 0
M  V30 13230 H 1265.11 3.56856 0.839609 0
M  V30 13231 H 1264.76 3.79126 3.30564 0
M  V30 13232 H 1264.46 5.33352 2.46596 0
M  V30 13233 H 1265.99 5.09376 3.36703 0
M  V30 13234 H 1267.4 5.61519 1.15625 0
M  V30 13235 H 1265.8 5.98364 0.456097 0
M  V30 13236 H 1266.87 4.83503 -0.367798 0
M  V30 13237 N 1268.21 -0.0283989 1.57574 0
M  V30 13238 C 1269.17 -1.01346 2.05576 0
M  V30 13239 C 1270.17 -1.28999 0.960001 0
M  V30 13240 O 1271.36 -1.23991 1.2236 0
M  V30 13241 C 1268.49 -2.34611 2.47327 0
M  V30 13242 H 1269.69 -0.598809 2.93861 0
M  V30 13243 H 1267.24 -0.27524 1.53857 0
M  V30 13244 H 1267.98 -2.80823 1.622 0
M  V30 13245 H 1267.76 -2.1587 3.27326 0
M  V30 13246 H 1269.25 -3.05332 2.84889 0
M  V30 13247 N 1269.69 -1.54705 -0.300681 0
M  V30 13248 C 1270.63 -1.85678 -1.37084 0
M  V30 13249 C 1271.6 -0.70573 -1.50362 0
M  V30 13250 O 1272.79 -0.954385 -1.65215 0
M  V30 13251 C 1269.93 -2.10995 -2.73084 0
M  V30 13252 C 1269.04 -3.38621 -2.68254 0
M  V30 13253 C 1268.18 -3.53779 -3.9625 0
M  V30 13254 C 1267.22 -4.75195 -3.85818 0
M  V30 13255 N 1266.35 -4.87157 -5.05591 0
M  V30 13256 H 1271.19 -2.76967 -1.09971 0
M  V30 13257 H 1268.73 -1.37147 -0.531887 0
M  V30 13258 H 1270.69 -2.23669 -3.52176 0
M  V30 13259 H 1269.32 -1.22973 -2.98458 0
M  V30 13260 H 1268.37 -3.34566 -1.81025 0
M  V30 13261 H 1269.68 -4.27834 -2.56436 0
M  V30 13262 H 1268.84 -3.66119 -4.83779 0
M  V30 13263 H 1267.58 -2.62699 -4.10902 0
M  V30 13264 H 1266.58 -4.62888 -2.96673 0
M  V30 13265 H 1267.81 -5.67683 -3.72711 0
M  V30 13266 H 1265.75 -3.99001 -5.20706 0
M  V30 13267 H 1265.67 -5.70372 -4.96197 0
M  V30 13268 H 1266.94 -5.03854 -5.9477 0
M  V30 13269 N 1271.17 0.563888 -1.47167 0
M  V30 13270 C 1272.1 1.68137 -1.62025 0
M  V30 13271 C 1273.08 1.63481 -0.469899 0
M  V30 13272 O 1274.26 1.81206 -0.698432 0
M  V30 13273 C 1271.39 3.06779 -1.62801 0
M  V30 13274 C 1270.35 3.26278 -2.76996 0
M  V30 13275 C 1269.67 4.65638 -2.62841 0
M  V30 13276 C 1270.97 3.12295 -4.18651 0
M  V30 13277 H 1272.67 1.55958 -2.55573 0
M  V30 13278 H 1270.21 0.74887 -1.22996 0
M  V30 13279 H 1272.17 3.84795 -1.71787 0
M  V30 13280 H 1270.89 3.19901 -0.658097 0
M  V30 13281 H 1269.55 2.50668 -2.67509 0
M  V30 13282 H 1269.2 4.75551 -1.63892 0
M  V30 13283 H 1268.9 4.79635 -3.39447 0
M  V30 13284 H 1270.42 5.45798 -2.73746 0
M  V30 13285 H 1271.83 3.80136 -4.2915 0
M  V30 13286 H 1270.23 3.37805 -4.95992 0
M  V30 13287 H 1271.3 2.09126 -4.37486 0
M  V30 13288 N 1272.64 1.35187 0.810078 0
M  V30 13289 C 1273.57 1.30481 1.93641 0
M  V30 13290 C 1274.56 0.179875 1.69146 0
M  V30 13291 O 1275.74 0.374284 1.90559 0
M  V30 13292 C 1272.87 1.07251 3.30325 0
M  V30 13293 C 1271.82 2.16348 3.69293 0
M  V30 13294 C 1271.15 1.78288 5.04101 0
M  V30 13295 C 1272.45 3.58285 3.80038 0
M  V30 13296 H 1274.14 2.24725 1.97836 0
M  V30 13297 H 1271.69 1.08179 0.950436 0
M  V30 13298 H 1273.64 1.02599 4.08719 0
M  V30 13299 H 1272.37 0.0945203 3.26463 0
M  V30 13300 H 1271.03 2.2009 2.93182 0
M  V30 13301 H 1270.67 0.791163 4.96739 0
M  V30 13302 H 1270.37 2.51315 5.31144 0
M  V30 13303 H 1271.9 1.75155 5.84938 0
M  V30 13304 H 1273.31 3.56884 4.48672 0
M  V30 13305 H 1271.71 4.30044 4.18548 0
M  V30 13306 H 1272.78 3.94691 2.81685 0
M  V30 13307 N 1274.12 -1.03182 1.19127 0
M  V30 13308 C 1275.37 -1.76184 0.990134 0
M  V30 13309 C 1275.69 -1.88986 -0.480546 0
M  V30 13310 O 1274.96 -1.4213 -1.34817 0
M  V30 13311 H 1273.54 -0.652668 0.363364 0
M  V30 13312 H 1276.2 -1.24481 1.49968 0
M  V30 13313 H 1275.3 -2.77119 1.43568 0
M  V30 13314 N 1275.6 -0.99472 -1.22242 0
M  V30 13315 C 1276.56 -0.551619 -2.22463 0
M  V30 13316 C 1277.56 0.366498 -1.56568 0
M  V30 13317 O 1278.75 0.158204 -1.7348 0
M  V30 13318 C 1275.89 0.197416 -3.40328 0
M  V30 13319 H 1277.08 -1.43795 -2.63179 0
M  V30 13320 H 1274.63 -0.782121 -1.35324 0
M  V30 13321 H 1275.37 1.09965 -3.05087 0
M  V30 13322 H 1275.15 -0.461829 -3.89371 0
M  V30 13323 H 1276.64 0.495534 -4.1465 0
M  V30 13324 N 1277.08 1.37613 -0.768148 0
M  V30 13325 C 1277.99 2.34103 -0.152649 0
M  V30 13326 C 1279 1.6 0.683811 0
M  V30 13327 O 1280.18 1.92112 0.604572 0
M  V30 13328 C 1277.25 3.39164 0.718954 0
M  V30 13329 C 1276.31 4.29092 -0.13355 0
M  V30 13330 C 1275.54 5.29135 0.696547 0
M  V30 13331 O 1275.76 5.36618 1.93383 0
M  V30 13332 O 1274.7 6.01804 0.107652 0
M  V30 13333 H 1278.52 2.88462 -0.949899 0
M  V30 13334 H 1276.11 1.39711 -0.529252 0
M  V30 13335 H 1277.99 4.03454 1.21665 0
M  V30 13336 H 1276.66 2.87137 1.49445 0
M  V30 13337 H 1275.57 3.67914 -0.677528 0
M  V30 13338 H 1276.9 4.84413 -0.872048 0
M  V30 13339 N 1278.56 0.518393 1.4883 0
M  V30 13340 C 1279.47 -0.254811 2.33212 0
M  V30 13341 C 1280.48 -0.950401 1.45751 0
M  V30 13342 O 1281.66 -0.927932 1.78749 0
M  V30 13343 C 1278.72 -1.29509 3.21603 0
M  V30 13344 C 1277.78 -0.611086 4.24928 0
M  V30 13345 C 1277.02 -1.6018 5.09095 0
M  V30 13346 O 1277.24 -2.83336 4.95052 0
M  V30 13347 O 1276.17 -1.14756 5.90859 0
M  V30 13348 H 1280 0.436329 3.00549 0
M  V30 13349 H 1277.59 0.27947 1.46763 0
M  V30 13350 H 1279.47 -1.89654 3.7631 0
M  V30 13351 H 1278.14 -1.96884 2.5694 0
M  V30 13352 H 1277.05 0.0305638 3.74088 0
M  V30 13353 H 1278.38 0.0205249 4.92196 0
M  V30 13354 N 1280.03 -1.55556 0.252993 0
M  V30 13355 C 1280.98 -2.21634 -0.643979 0
M  V30 13356 C 1281.95 -1.18226 -1.1667 0
M  V30 13357 O 1283.14 -1.46694 -1.22006 0
M  V30 13358 C 1280.28 -2.92429 -1.83246 0
M  V30 13359 C 1279.39 -4.10506 -1.34569 0
M  V30 13360 C 1278.52 -4.69001 -2.49421 0
M  V30 13361 C 1277.56 -5.79315 -1.97636 0
M  V30 13362 N 1276.7 -6.31967 -3.05878 0
M  V30 13363 H 1281.54 -2.97909 -0.0738178 0
M  V30 13364 H 1279.08 -1.47079 -0.0246728 0
M  V30 13365 H 1281.04 -3.31678 -2.53072 0
M  V30 13366 H 1279.67 -2.18617 -2.375 0
M  V30 13367 H 1278.72 -3.76529 -0.541268 0
M  V30 13368 H 1280.03 -4.90125 -0.92622 0
M  V30 13369 H 1279.18 -5.10855 -3.27279 0
M  V30 13370 H 1277.92 -3.88612 -2.94673 0
M  V30 13371 H 1276.93 -5.36933 -1.18251 0
M  V30 13372 H 1278.15 -6.6156 -1.53347 0
M  V30 13373 H 1276.1 -5.5448 -3.50553 0
M  V30 13374 H 1276.02 -7.06797 -2.68281 0
M  V30 13375 H 1277.28 -6.7848 -3.83777 0
M  V30 13376 N 1281.51 0.0200419 -1.57587 0
M  V30 13377 C 1282.42 1.0346 -2.10555 0
M  V30 13378 C 1283.44 1.39035 -1.0462 0
M  V30 13379 O 1284.61 1.48172 -1.36407 0
M  V30 13380 C 1281.68 2.31389 -2.58186 0
M  V30 13381 C 1280.74 2.02311 -3.7864 0
M  V30 13382 C 1279.97 3.24141 -4.23991 0
M  V30 13383 O 1280.2 4.35132 -3.68803 0
M  V30 13384 O 1279.13 3.09312 -5.16342 0
M  V30 13385 H 1282.96 0.614419 -2.9742 0
M  V30 13386 H 1280.54 0.237604 -1.47498 0
M  V30 13387 H 1282.42 3.06582 -2.89112 0
M  V30 13388 H 1281.1 2.72684 -1.74428 0
M  V30 13389 H 1280.01 1.24658 -3.5272 0
M  V30 13390 H 1281.34 1.65866 -4.6341 0
M  V30 13391 N 1282.99 1.54862 0.292472 0
M  V30 13392 C 1284.22 1.78291 1.04383 0
M  V30 13393 C 1284.63 0.546703 1.81129 0
M  V30 13394 O 1283.97 -0.493286 1.76953 0
M  V30 13395 C 1284.03 2.94321 2.06435 0
M  V30 13396 C 1283.7 4.32095 1.48806 0
M  V30 13397 C 1284.69 5.11808 0.91369 0
M  V30 13398 C 1282.38 4.78714 1.52112 0
M  V30 13399 C 1284.37 6.36266 0.380053 0
M  V30 13400 C 1282.06 6.03132 0.983613 0
M  V30 13401 C 1283.06 6.81744 0.41406 0
M  V30 13402 O 1282.75 8.03817 -0.115268 0
M  V30 13403 H 1282.48 0.598147 0.314954 0
M  V30 13404 H 1285.03 2.02655 0.334661 0
M  V30 13405 H 1283.26 2.65602 2.81056 0
M  V30 13406 H 1284.95 3.05249 2.67541 0
M  V30 13407 H 1285.72 4.76931 0.880988 0
M  V30 13408 H 1281.6 4.17549 1.95382 0
M  V30 13409 H 1285.14 6.9757 -0.0651481 0
M  V30 13410 H 1281.04 6.37494 1.01349 0
M  V30 13411 H 1281.81 8.185 -0.00277496 0
M  V30 13412 N 1284.47 -0.556076 1.47464 0
M  V30 13413 C 1285.42 -1.6586 1.56444 0
M  V30 13414 C 1286.4 -1.55233 0.423262 0
M  V30 13415 O 1287.59 -1.63696 0.673247 0
M  V30 13416 C 1284.72 -3.04633 1.58283 0
M  V30 13417 C 1283.81 -3.2046 2.77788 0
M  V30 13418 N 1284.2 -3.06347 4.02474 0
M  V30 13419 C 1282.5 -3.51462 2.74573 0
M  V30 13420 C 1283.2 -3.24893 4.82514 0
M  V30 13421 N 1282.18 -3.51278 4.14855 0
M  V30 13422 H 1285.98 -1.53519 2.50618 0
M  V30 13423 H 1283.49 -0.760862 1.43474 0
M  V30 13424 H 1285.49 -3.83797 1.62806 0
M  V30 13425 H 1284.15 -3.18085 0.652052 0
M  V30 13426 H 1285.16 -2.8365 4.33316 0
M  V30 13427 H 1281.84 -3.71434 1.90639 0
M  V30 13428 H 1283.23 -3.1894 5.91377 0
M  V30 13429 N 1285.95 -1.35615 -0.802897 0
M  V30 13430 C 1286.91 -1.28705 -1.89651 0
M  V30 13431 C 1287.91 -0.197681 -1.5958 0
M  V30 13432 O 1289.1 -0.451618 -1.68244 0
M  V30 13433 C 1286.23 -0.991941 -3.26149 0
M  V30 13434 H 1287.43 -2.25951 -1.97196 0
M  V30 13435 H 1284.98 -1.20192 -0.999179 0
M  V30 13436 H 1285.71 -0.0235051 -3.24291 0
M  V30 13437 H 1285.5 -1.78013 -3.49362 0
M  V30 13438 H 1286.99 -0.969298 -4.06195 0
M  V30 13439 N 1287.43 1.02549 -1.19673 0
M  V30 13440 C 1288.34 2.14373 -0.952972 0
M  V30 13441 C 1289.35 1.73776 0.0881727 0
M  V30 13442 O 1290.53 2.01165 -0.0972471 0
M  V30 13443 C 1287.59 3.43096 -0.498569 0
M  V30 13444 C 1286.65 3.97987 -1.60951 0
M  V30 13445 C 1285.89 5.20567 -1.17669 0
M  V30 13446 O 1286.11 5.70385 -0.0416636 0
M  V30 13447 O 1285.04 5.6838 -1.98059 0
M  V30 13448 H 1288.87 2.378 -1.88904 0
M  V30 13449 H 1286.45 1.12781 -0.979836 0
M  V30 13450 H 1288.34 4.20634 -0.253968 0
M  V30 13451 H 1287.01 3.21105 0.409018 0
M  V30 13452 H 1285.92 3.21768 -1.90829 0
M  V30 13453 H 1287.25 4.24349 -2.49377 0
M  V30 13454 N 1288.9 1.00119 1.21713 0
M  V30 13455 C 1290.15 0.680377 1.90303 0
M  V30 13456 C 1290.47 -0.790927 1.7824 0
M  V30 13457 O 1289.74 -1.5676 1.17486 0
M  V30 13458 H 1288.32 0.248665 0.704397 0
M  V30 13459 H 1290.98 1.26948 1.47886 0
M  V30 13460 H 1290.08 0.950188 2.97284 0
M  V30 13461 N 1290.38 -1.37203 0.775435 0
M  V30 13462 C 1291.63 -1.99207 0.340756 0
M  V30 13463 C 1291.95 -1.61861 -1.08747 0
M  V30 13464 O 1291.22 -0.88583 -1.74728 0
M  V30 13465 H 1289.8 -0.736803 0.123004 0
M  V30 13466 H 1292.46 -1.67625 0.994379 0
M  V30 13467 H 1291.56 -3.09243 0.421346 0
M  V30 13468 N 1291.86 -0.526279 -1.48553 0
M  V30 13469 C 1292.81 0.238513 -2.29564 0
M  V30 13470 C 1293.78 0.937222 -1.37133 0
M  V30 13471 O 1294.96 0.93897 -1.66096 0
M  V30 13472 C 1292.1 1.28173 -3.20415 0
M  V30 13473 C 1291.21 0.592244 -4.27921 0
M  V30 13474 C 1290.35 1.61808 -5.05956 0
M  V30 13475 C 1289.39 0.911846 -6.0527 0
M  V30 13476 N 1288.53 1.88305 -6.76377 0
M  V30 13477 H 1293.37 -0.458502 -2.94452 0
M  V30 13478 H 1290.9 -0.237948 -1.45163 0
M  V30 13479 H 1292.86 1.89883 -3.71484 0
M  V30 13480 H 1291.49 1.94718 -2.57458 0
M  V30 13481 H 1290.54 -0.138714 -3.80147 0
M  V30 13482 H 1291.85 0.0375427 -4.98786 0
M  V30 13483 H 1291.01 2.30956 -5.61021 0
M  V30 13484 H 1289.75 2.20667 -4.34922 0
M  V30 13485 H 1288.75 0.206273 -5.49413 0
M  V30 13486 H 1289.98 0.329415 -6.78301 0
M  V30 13487 H 1287.92 2.46079 -6.08096 0
M  V30 13488 H 1287.84 1.37969 -7.43304 0
M  V30 13489 H 1289.11 2.56663 -7.36033 0
M  V30 13490 N 1293.34 1.5542 -0.261239 0
M  V30 13491 C 1294.58 1.99579 0.36002 0
M  V30 13492 C 1294.92 1.14933 1.56538 0
M  V30 13493 O 1294.19 0.216082 1.93296 0
M  V30 13494 C 1294.47 3.52078 0.755842 0
M  V30 13495 C 1294.33 4.47484 -0.455896 0
M  V30 13496 C 1295.65 4.10083 1.5975 0
M  V30 13497 H 1292.77 0.725554 0.129385 0
M  V30 13498 H 1295.41 1.86453 -0.365415 0
M  V30 13499 H 1293.56 3.63394 1.37393 0
M  V30 13500 H 1295.23 4.4813 -1.09441 0
M  V30 13501 H 1293.47 4.19714 -1.09646 0
M  V30 13502 H 1294.14 5.51834 -0.13539 0
M  V30 13503 H 1296.62 4.01957 1.07562 0
M  V30 13504 H 1295.5 5.17024 1.84329 0
M  V30 13505 H 1295.76 3.59438 2.57404 0
M  V30 13506 N 1294.82 -0.0116844 1.57596 0
M  V30 13507 C 1296.23 -0.55604 1.78228 0
M  V30 13508 C 1296.58 -1.74624 0.894474 0
M  V30 13509 O 1295.7 -2.16196 0.0938498 0
M  V30 13510 C 1296.3 -1.0155 3.23223 0
M  V30 13511 C 1294.86 -1.50525 3.44992 0
M  V30 13512 C 1294 -0.451133 2.73606 0
M  V30 13513 H 1296.95 0.214516 1.57243 0
M  V30 13514 H 1296.98 -1.88208 3.30693 0
M  V30 13515 H 1296.49 -0.149048 3.87814 0
M  V30 13516 H 1294.59 -2.39298 2.856 0
M  V30 13517 H 1294.7 -1.54076 4.53649 0
M  V30 13518 H 1293.07 -0.910135 2.37884 0
M  V30 13519 H 1293.85 0.406152 3.40889 0
M  V30 13520 N 1296.29 -1.55015 -0.284256 0
M  V30 13521 C 1297.54 -1.74297 -1.01506 0
M  V30 13522 C 1297.86 -0.545134 -1.8785 0
M  V30 13523 O 1299.06 -0.620118 -2.64323 0
M  V30 13524 C 1297.52 -3.08438 -1.85456 0
M  V30 13525 C 1297.13 -4.35753 -1.04034 0
M  V30 13526 C 1298.87 -3.37073 -2.58035 0
M  V30 13527 C 1296.78 -5.60938 -1.87358 0
M  V30 13528 H 1295.71 -0.649656 -0.382705 0
M  V30 13529 H 1298.36 -1.81484 -0.271239 0
M  V30 13530 H 1296.74 -2.95259 -2.63891 0
M  V30 13531 H 1297.91 -4.59816 -0.300954 0
M  V30 13532 H 1296.23 -4.14178 -0.429616 0
M  V30 13533 H 1298.83 -4.27806 -3.20759 0
M  V30 13534 H 1299.17 -2.56698 -3.27738 0
M  V30 13535 H 1299.7 -3.51299 -1.86638 0
M  V30 13536 H 1296.44 -6.44029 -1.22096 0
M  V30 13537 H 1295.96 -5.41035 -2.58923 0
M  V30 13538 H 1297.64 -5.98819 -2.44999 0
M  V30 13539 N 1297.77 0.548248 -1.47757 0
M  V30 13540 C 1298.72 1.65453 -1.60916 0
M  V30 13541 C 1299.69 1.59836 -0.451831 0
M  V30 13542 O 1300.87 1.78536 -0.673023 0
M  V30 13543 C 1298.01 3.0376 -1.6378 0
M  V30 13544 C 1297.13 3.19747 -2.90492 0
M  V30 13545 C 1296.26 4.48505 -2.84635 0
M  V30 13546 C 1295.3 4.57956 -4.06132 0
M  V30 13547 N 1294.44 5.78079 -3.98458 0
M  V30 13548 H 1299.28 1.53545 -2.55398 0
M  V30 13549 H 1296.81 0.747826 -1.26673 0
M  V30 13550 H 1298.77 3.8386 -1.63424 0
M  V30 13551 H 1297.4 3.14483 -0.728036 0
M  V30 13552 H 1296.45 2.3302 -3.00676 0
M  V30 13553 H 1297.77 3.22594 -3.8044 0
M  V30 13554 H 1296.92 5.36875 -2.82577 0
M  V30 13555 H 1295.66 4.48151 -1.92385 0
M  V30 13556 H 1294.66 3.67995 -4.08484 0
M  V30 13557 H 1295.89 4.60062 -4.9952 0
M  V30 13558 H 1293.84 5.78657 -3.09017 0
M  V30 13559 H 1293.75 5.82342 -4.82093 0
M  V30 13560 H 1295.02 6.68786 -4.00431 0
M  V30 13561 N 1299.25 1.36039 0.795694 0
M  V30 13562 C 1300.5 1.3112 1.55497 0
M  V30 13563 C 1300.85 -0.110471 1.92083 0
M  V30 13564 O 1300.14 -1.06352 1.59373 0
M  V30 13565 C 1300.34 2.16166 2.84617 0
M  V30 13566 C 1300.17 3.66459 2.60649 0
M  V30 13567 C 1298.94 4.35658 2.55989 0
M  V30 13568 C 1301.13 4.59866 2.30277 0
M  V30 13569 N 1299.12 5.71632 2.23852 0
M  V30 13570 C 1300.49 5.84042 2.08074 0
M  V30 13571 C 1302.54 4.48496 2.16231 0
M  V30 13572 C 1301.25 6.98125 1.73246 0
M  V30 13573 C 1303.27 5.62439 1.82801 0
M  V30 13574 C 1302.63 6.8565 1.61441 0
M  V30 13575 H 1298.73 0.53507 0.570284 0
M  V30 13576 H 1301.32 1.71029 0.930441 0
M  V30 13577 H 1299.49 1.78511 3.44947 0
M  V30 13578 H 1301.22 2.02684 3.50288 0
M  V30 13579 H 1297.97 3.8839 2.71017 0
M  V30 13580 H 1298.4 6.43428 2.10547 0
M  V30 13581 H 1303.04 3.53831 2.31437 0
M  V30 13582 H 1300.76 7.92746 1.56777 0
M  V30 13583 H 1304.34 5.556 1.72626 0
M  V30 13584 H 1303.22 7.72325 1.35953 0
M  V30 13585 N 1300.73 -1.01913 1.20215 0
M  V30 13586 C 1301.66 -2.10043 0.89203 0
M  V30 13587 C 1302.64 -1.61861 -0.154873 0
M  V30 13588 O 1303.82 -1.88478 -0.0290135 0
M  V30 13589 C 1300.95 -3.37021 0.336813 0
M  V30 13590 C 1300 -4.0409 1.36431 0
M  V30 13591 S 1300.83 -4.48334 2.92843 0
M  V30 13592 C 1301.99 -5.78517 2.3889 0
M  V30 13593 H 1302.22 -2.36025 1.80775 0
M  V30 13594 H 1299.75 -1.14992 1.03035 0
M  V30 13595 H 1301.71 -4.10494 0.0230191 0
M  V30 13596 H 1300.37 -3.09115 -0.557363 0
M  V30 13597 H 1299.56 -4.95436 0.925147 0
M  V30 13598 H 1299.17 -3.36831 1.62545 0
M  V30 13599 H 1301.46 -6.53564 1.78494 0
M  V30 13600 H 1302.4 -6.27226 3.28623 0
M  V30 13601 H 1302.81 -5.34658 1.8111 0
M  V30 13602 N 1302.21 -1.00763 -1.2118 0
M  V30 13603 C 1303.17 -0.575183 -2.21865 0
M  V30 13604 C 1304.17 0.349871 -1.56948 0
M  V30 13605 O 1305.36 0.139795 -1.73638 0
M  V30 13606 C 1302.49 0.161308 -3.40518 0
M  V30 13607 H 1303.68 -1.46578 -2.61639 0
M  V30 13608 H 1301.24 -0.79643 -1.34487 0
M  V30 13609 H 1301.97 1.06723 -3.06236 0
M  V30 13610 H 1301.76 -0.503101 -3.88859 0
M  V30 13611 H 1303.25 0.451527 -4.15152 0
M  V30 13612 N 1303.68 1.3679 -0.7827 0
M  V30 13613 C 1304.61 2.32721 -0.190604 0
M  V30 13614 C 1305.6 1.56321 0.670663 0
M  V30 13615 O 1306.78 1.84507 0.605871 0
M  V30 13616 C 1303.91 3.40564 0.680717 0
M  V30 13617 C 1302.86 4.27925 -0.080118 0
M  V30 13618 C 1302.19 5.26876 0.911361 0
M  V30 13619 C 1303.49 5.06738 -1.26545 0
M  V30 13620 H 1305.18 2.82488 -0.992023 0
M  V30 13621 H 1302.73 1.35818 -0.478484 0
M  V30 13622 H 1304.68 4.06659 1.10482 0
M  V30 13623 H 1303.41 2.89348 1.51477 0
M  V30 13624 H 1302.07 3.63376 -0.485125 0
M  V30 13625 H 1301.71 4.71936 1.74026 0
M  V30 13626 H 1301.41 5.8619 0.406762 0
M  V30 13627 H 1302.94 5.95846 1.33418 0
M  V30 13628 H 1304.35 5.65911 -0.917448 0
M  V30 13629 H 1302.75 5.75432 -1.70289 0
M  V30 13630 H 1303.82 4.38772 -2.06415 0
M  V30 13631 N 1305.16 0.53415 1.48272 0
M  V30 13632 C 1306.07 -0.230062 2.33469 0
M  V30 13633 C 1307.09 -0.934889 1.46751 0
M  V30 13634 O 1308.26 -0.908921 1.79724 0
M  V30 13635 C 1305.33 -1.2609 3.22958 0
M  V30 13636 C 1304.39 -0.565983 4.25553 0
M  V30 13637 C 1303.62 -1.54771 5.10766 0
M  V30 13638 O 1303.85 -2.7807 4.9803 0
M  V30 13639 O 1302.78 -1.08482 5.92043 0
M  V30 13640 H 1306.61 0.468182 3.0007 0
M  V30 13641 H 1304.19 0.29502 1.46458 0
M  V30 13642 H 1306.07 -1.85652 3.783 0
M  V30 13643 H 1304.75 -1.94148 2.59014 0
M  V30 13644 H 1303.66 0.0702391 3.74034 0
M  V30 13645 H 1304.99 0.0727277 4.92146 0
M  V30 13646 N 1306.64 -1.55279 0.269478 0
M  V30 13647 C 1307.87 -2.04334 -0.355313 0
M  V30 13648 C 1308.29 -1.14677 -1.491 0
M  V30 13649 O 1307.65 -0.144215 -1.80726 0
M  V30 13650 C 1307.7 -3.51172 -0.819162 0
M  V30 13651 O 1306.8 -3.64615 -1.9269 0
M  V30 13652 H 1306.14 -0.659827 -0.0743229 0
M  V30 13653 H 1308.67 -2.00609 0.402131 0
M  V30 13654 H 1308.68 -3.92428 -1.11642 0
M  V30 13655 H 1307.36 -4.15898 0.0117821 0
M  V30 13656 H 1305.93 -3.35261 -1.63261 0
M  V30 13657 N 1308.12 0.00332656 -1.576 0
M  V30 13658 C 1309.37 0.688044 -1.89602 0
M  V30 13659 C 1309.68 1.75121 -0.871316 0
M  V30 13660 O 1310.89 2.49032 -1.08144 0
M  V30 13661 C 1309.34 1.27494 -3.36561 0
M  V30 13662 C 1308.95 0.246771 -4.4732 0
M  V30 13663 C 1310.69 1.93804 -3.77677 0
M  V30 13664 C 1308.6 0.843471 -5.85354 0
M  V30 13665 H 1307.53 0.260747 -0.707479 0
M  V30 13666 H 1310.18 -0.0566727 -1.83412 0
M  V30 13667 H 1308.56 2.07022 -3.37577 0
M  V30 13668 H 1309.74 -0.523668 -4.57815 0
M  V30 13669 H 1308.05 -0.3157 -4.15202 0
M  V30 13670 H 1310.65 2.39347 -4.78139 0
M  V30 13671 H 1310.99 2.7672 -3.11017 0
M  V30 13672 H 1311.53 1.21015 -3.78946 0
M  V30 13673 H 1308.27 0.0531655 -6.55478 0
M  V30 13674 H 1307.79 1.58315 -5.7853 0
M  V30 13675 H 1309.46 1.34311 -6.32906 0
M  V30 13676 N 1309.6 1.55164 0.276031 0
M  V30 13677 C 1310.53 1.90844 1.34539 0
M  V30 13678 C 1311.51 0.769968 1.51676 0
M  V30 13679 O 1312.69 1.02785 1.64769 0
M  V30 13680 C 1309.82 2.17769 2.70543 0
M  V30 13681 C 1308.78 3.33592 2.68142 0
M  V30 13682 C 1308.1 3.45991 4.07669 0
M  V30 13683 C 1309.4 4.70064 2.27678 0
M  V30 13684 H 1311.1 2.80412 1.04926 0
M  V30 13685 H 1308.64 1.34918 0.503303 0
M  V30 13686 H 1310.6 2.41317 3.45462 0
M  V30 13687 H 1309.32 1.24997 3.01734 0
M  V30 13688 H 1307.98 3.10007 1.95681 0
M  V30 13689 H 1307.63 2.50691 4.36077 0
M  V30 13690 H 1307.33 4.23862 4.06958 0
M  V30 13691 H 1308.85 3.71828 4.84331 0
M  V30 13692 H 1310.26 4.93176 2.92319 0
M  V30 13693 H 1308.66 5.50829 2.38134 0
M  V30 13694 H 1309.73 4.69091 1.22808 0
M  V30 13695 N 1311.07 -0.540404 1.48045 0
M  V30 13696 C 1312.02 -1.64191 1.58194 0
M  V30 13697 C 1313.01 -1.54775 0.439703 0
M  V30 13698 O 1314.2 -1.62973 0.690572 0
M  V30 13699 C 1311.33 -3.02937 1.61505 0
M  V30 13700 C 1310.42 -3.17495 2.81172 0
M  V30 13701 N 1310.81 -3.02061 4.05701 0
M  V30 13702 C 1309.1 -3.4853 2.78286 0
M  V30 13703 C 1309.81 -3.19757 4.85932 0
M  V30 13704 N 1308.78 -3.46859 4.18557 0
M  V30 13705 H 1312.58 -1.50852 2.52232 0
M  V30 13706 H 1310.1 -0.745602 1.44272 0
M  V30 13707 H 1312.09 -3.82048 1.66868 0
M  V30 13708 H 1310.75 -3.17376 0.685753 0
M  V30 13709 H 1311.77 -2.79038 4.363 0
M  V30 13710 H 1308.44 -3.69391 1.94567 0
M  V30 13711 H 1309.83 -3.1265 5.94727 0
M  V30 13712 N 1312.55 -1.36459 -0.788468 0
M  V30 13713 C 1313.97 -1.16893 -1.08666 0
M  V30 13714 C 1314.17 0.00633808 -2.01499 0
M  V30 13715 O 1313.22 0.671417 -2.4341 0
M  V30 13716 C 1314.54 -2.48018 -1.70022 0
M  V30 13717 C 1316.09 -2.5439 -1.82358 0
M  V30 13718 C 1316.56 -3.85605 -2.47129 0
M  V30 13719 N 1318.05 -3.86956 -2.54597 0
M  V30 13720 C 1318.79 -4.85224 -3.05525 0
M  V30 13721 N 1318.28 -5.93885 -3.56753 0
M  V30 13722 N 1320.08 -4.72643 -3.04246 0
M  V30 13723 H 1312.23 -2.11705 -0.171733 0
M  V30 13724 H 1314.49 -0.937784 -0.1388 0
M  V30 13725 H 1314.2 -3.34292 -1.09277 0
M  V30 13726 H 1314.07 -2.63894 -2.69518 0
M  V30 13727 H 1316.46 -1.68534 -2.4224 0
M  V30 13728 H 1316.54 -2.42414 -0.816651 0
M  V30 13729 H 1316.18 -4.71868 -1.87891 0
M  V30 13730 H 1316.11 -3.94878 -3.48395 0
M  V30 13731 H 1318.6 -3.08453 -2.18323 0
M  V30 13732 H 1318.92 -6.64839 -3.93966 0
M  V30 13733 H 1317.26 -5.97553 -3.54902 0
M  V30 13734 H 1320.45 -3.86883 -2.63513 0
M  V30 13735 H 1320.62 -5.49385 -3.43627 0
M  V30 13736 N 1314.03 1.01274 -1.20754 0
M  V30 13737 C 1315.28 1.74342 -1.01428 0
M  V30 13738 C 1315.59 1.90265 0.453708 0
M  V30 13739 O 1316.8 2.60465 0.76618 0
M  V30 13740 C 1315.25 3.13588 -1.76609 0
M  V30 13741 C 1314.86 3.05664 -3.27526 0
M  V30 13742 C 1316.61 3.9084 -1.65664 0
M  V30 13743 C 1314.51 4.39942 -3.95228 0
M  V30 13744 H 1313.44 0.653619 -0.375897 0
M  V30 13745 H 1316.09 1.13214 -1.44412 0
M  V30 13746 H 1314.48 3.75281 -1.26413 0
M  V30 13747 H 1315.65 2.53256 -3.84965 0
M  V30 13748 H 1313.97 2.41904 -3.38927 0
M  V30 13749 H 1316.56 4.9019 -2.13583 0
M  V30 13750 H 1316.91 4.11754 -0.61351 0
M  V30 13751 H 1317.44 3.35783 -2.13294 0
M  V30 13752 H 1314.18 4.24229 -4.9971 0
M  V30 13753 H 1313.7 4.92342 -3.42578 0
M  V30 13754 H 1315.38 5.08771 -3.99701 0
M  V30 13755 N 1315.51 1.01404 1.20644 0
M  V30 13756 C 1316.74 0.719995 1.93648 0
M  V30 13757 C 1317.15 -0.722872 1.74846 0
M  V30 13758 O 1316.49 -1.50172 1.05802 0
M  V30 13759 C 1316.55 0.972637 3.46092 0
M  V30 13760 C 1316.22 2.40412 3.88653 0
M  V30 13761 C 1317.21 3.38481 3.94622 0
M  V30 13762 C 1314.9 2.74418 4.20714 0
M  V30 13763 C 1316.89 4.68619 4.32059 0
M  V30 13764 C 1314.58 4.04769 4.57826 0
M  V30 13765 C 1315.58 5.01681 4.63471 0
M  V30 13766 O 1315.27 6.297 4.99733 0
M  V30 13767 H 1315 0.263849 0.622382 0
M  V30 13768 H 1317.55 1.35741 1.54154 0
M  V30 13769 H 1315.78 0.278057 3.85699 0
M  V30 13770 H 1317.47 0.670572 4.00323 0
M  V30 13771 H 1318.24 3.13545 3.7002 0
M  V30 13772 H 1314.12 1.99675 4.15513 0
M  V30 13773 H 1317.66 5.4426 4.3638 0
M  V30 13774 H 1313.56 4.29486 4.81884 0
M  V30 13775 H 1314.32 6.3395 5.17735 0
M  V30 13776 N 1316.99 -1.36373 0.789944 0
M  V30 13777 C 1318.22 -2.03482 0.37453 0
M  V30 13778 C 1318.63 -1.59562 -1.00923 0
M  V30 13779 O 1317.99 -0.785289 -1.64741 0
M  V30 13780 C 1318.04 -3.58942 0.429255 0
M  V30 13781 O 1317.76 -4.01261 1.75845 0
M  V30 13782 C 1319.26 -4.433 0.00453729 0
M  V30 13783 H 1316.48 -0.653019 0.154295 0
M  V30 13784 H 1319.02 -1.74339 1.06894 0
M  V30 13785 H 1317.18 -3.86793 -0.21674 0
M  V30 13786 H 1317.59 -4.95854 1.70964 0
M  V30 13787 H 1319.07 -5.5192 0.0939653 0
M  V30 13788 H 1319.54 -4.26509 -1.04816 0
M  V30 13789 H 1320.15 -4.20712 0.623041 0
M  V30 13790 N 1318.47 -0.542005 -1.47987 0
M  V30 13791 C 1319.42 0.234244 -2.26794 0
M  V30 13792 C 1320.4 0.899085 -1.33436 0
M  V30 13793 O 1321.59 0.799904 -1.57894 0
M  V30 13794 C 1318.72 1.27312 -3.18821 0
M  V30 13795 C 1317.81 0.612457 -4.19654 0
M  V30 13796 N 1318.2 -0.30875 -5.04857 0
M  V30 13797 C 1316.5 0.868224 -4.37468 0
M  V30 13798 C 1317.2 -0.691052 -5.77581 0
M  V30 13799 N 1316.17 -0.0493574 -5.43578 0
M  V30 13800 H 1319.97 -0.47427 -2.90048 0
M  V30 13801 H 1317.49 -0.360868 -1.5834 0
M  V30 13802 H 1319.49 1.84305 -3.73948 0
M  V30 13803 H 1318.15 1.98288 -2.57122 0
M  V30 13804 H 1319.16 -0.682054 -5.13389 0
M  V30 13805 H 1315.83 1.56765 -3.86951 0
M  V30 13806 H 1317.22 -1.44713 -6.56131 0
M  V30 13807 N 1319.94 1.55134 -0.277709 0
M  V30 13808 C 1320.88 2.20028 0.641913 0
M  V30 13809 C 1321.89 1.18578 1.11549 0
M  V30 13810 O 1323.08 1.45291 1.03695 0
M  V30 13811 C 1320.18 2.81443 1.88794 0
M  V30 13812 C 1319.35 4.08607 1.56074 0
M  V30 13813 C 1318.41 4.54045 2.6595 0
M  V30 13814 O 1317.44 5.19762 2.32026 0
M  V30 13815 N 1318.64 4.24403 3.96058 0
M  V30 13816 H 1321.4 2.99575 0.0864929 0
M  V30 13817 H 1318.96 1.61598 -0.0989178 0
M  V30 13818 H 1320.96 3.08784 2.616 0
M  V30 13819 H 1319.53 2.05873 2.35234 0
M  V30 13820 H 1318.75 3.88527 0.666388 0
M  V30 13821 H 1320.03 4.91455 1.31719 0
M  V30 13822 H 1319.43 3.71708 4.26439 0
M  V30 13823 H 1317.99 4.56509 4.65234 0
M  V30 13824 N 1321.42 0.00503138 1.57599 0
M  V30 13825 C 1322.65 -0.693231 1.95471 0
M  V30 13826 C 1323.07 -1.66233 0.880246 0
M  V30 13827 O 1322.43 -1.80582 -0.161164 0
M  V30 13828 C 1322.48 -1.39696 3.32442 0
M  V30 13829 O 1321.58 -2.51154 3.27101 0
M  V30 13830 H 1320.92 -0.184015 0.637992 0
M  V30 13831 H 1323.45 0.0597194 2.04513 0
M  V30 13832 H 1323.46 -1.75924 3.68123 0
M  V30 13833 H 1322.14 -0.686438 4.10196 0
M  V30 13834 H 1320.71 -2.17216 3.03103 0
M  V30 13835 N 1322.9 -1.55308 -0.267798 0
M  V30 13836 C 1324.18 -1.66881 -1.02029 0
M  V30 13837 C 1324.56 -0.538708 -2.04111 0
M  V30 13838 O 1323.9 0.460575 -2.2381 0
M  V30 13839 C 1324.11 -3.06318 -1.67243 0
M  V30 13840 C 1325.46 -3.64237 -2.18212 0
M  V30 13841 O 1326.49 -3.08984 -1.77221 0
M  V30 13842 O 1325.35 -4.61055 -2.93413 0
M  V30 13843 H 1322.44 -0.677967 -0.473593 0
M  V30 13844 H 1324.99 -1.67646 -0.263242 0
M  V30 13845 H 1323.76 -3.80015 -0.932985 0
M  V30 13846 H 1323.38 -3.09475 -2.49622 0
M  V30 13847 N 1324.38 0.532545 -1.4833 0
M  V30 13848 C 1325.62 1.29042 -1.56448 0
M  V30 13849 C 1325.96 1.92754 -0.236532 0
M  V30 13850 O 1325.23 1.79154 0.757237 0
M  V30 13851 C 1325.51 2.38173 -2.70084 0
M  V30 13852 C 1325.37 1.79169 -4.12576 0
M  V30 13853 C 1326.69 3.39957 -2.79495 0
M  V30 13854 H 1323.81 0.467816 -0.569488 0
M  V30 13855 H 1326.45 0.593517 -1.80492 0
M  V30 13856 H 1324.6 2.97616 -2.49714 0
M  V30 13857 H 1326.27 1.23797 -4.44378 0
M  V30 13858 H 1324.51 1.09716 -4.19696 0
M  V30 13859 H 1325.18 2.58174 -4.87904 0
M  V30 13860 H 1327.66 2.90466 -2.97941 0
M  V30 13861 H 1326.54 4.13714 -3.60739 0
M  V30 13862 H 1326.8 4.00347 -1.87548 0
M  V30 13863 N 1325.86 1.36875 0.78122 0
M  V30 13864 C 1327.1 1.32761 1.54097 0
M  V30 13865 C 1327.46 -0.0900914 1.92189 0
M  V30 13866 O 1326.75 -1.04655 1.60492 0
M  V30 13867 C 1326.94 2.19173 2.82309 0
M  V30 13868 C 1326.77 3.69203 2.56747 0
M  V30 13869 C 1325.54 4.38349 2.51353 0
M  V30 13870 C 1327.74 4.62283 2.25386 0
M  V30 13871 N 1325.72 5.73974 2.17776 0
M  V30 13872 C 1327.09 5.86216 2.01867 0
M  V30 13873 C 1329.15 4.50764 2.11462 0
M  V30 13874 C 1327.85 6.99923 1.65832 0
M  V30 13875 C 1329.88 5.64346 1.76825 0
M  V30 13876 C 1329.24 6.87324 1.5416 0
M  V30 13877 H 1325.34 0.541089 0.564577 0
M  V30 13878 H 1327.92 1.72006 0.912249 0
M  V30 13879 H 1326.09 1.82159 3.43034 0
M  V30 13880 H 1327.83 2.06388 3.48118 0
M  V30 13881 H 1324.58 3.91243 2.66882 0
M  V30 13882 H 1325 6.45624 2.03711 0
M  V30 13883 H 1329.65 3.56266 2.27672 0
M  V30 13884 H 1327.36 7.94364 1.4836 0
M  V30 13885 H 1330.95 5.574 1.66723 0
M  V30 13886 H 1329.83 7.73724 1.27753 0
M  V30 13887 N 1327.33 -1.00632 1.21289 0
M  V30 13888 C 1328.56 -1.78503 1.05601 0
M  V30 13889 C 1328.98 -1.84015 -0.389879 0
M  V30 13890 O 1328.34 -1.28277 -1.2812 0
M  V30 13891 C 1328.39 -3.20313 1.65626 0
M  V30 13892 O 1327.49 -4.02441 0.900841 0
M  V30 13893 H 1326.83 -0.550183 0.371746 0
M  V30 13894 H 1329.36 -1.26505 1.60803 0
M  V30 13895 H 1329.37 -3.70992 1.69792 0
M  V30 13896 H 1328.05 -3.15616 2.7085 0
M  V30 13897 H 1326.63 -3.61009 0.934178 0
M  V30 13898 N 1328.81 -1.02043 -1.20104 0
M  V30 13899 C 1330.04 -0.730255 -1.93264 0
M  V30 13900 C 1330.45 0.71359 -1.75227 0
M  V30 13901 O 1329.79 1.49609 -1.06597 0
M  V30 13902 C 1329.85 -0.990978 -3.45572 0
M  V30 13903 C 1329.52 -2.4247 -3.87373 0
M  V30 13904 C 1330.52 -3.40569 -3.92822 0
M  V30 13905 C 1328.2 -2.76645 -4.19253 0
M  V30 13906 C 1330.19 -4.70904 -4.29568 0
M  V30 13907 C 1327.88 -4.07192 -4.55673 0
M  V30 13908 C 1328.88 -5.04132 -4.60804 0
M  V30 13909 O 1328.57 -6.32341 -4.96386 0
M  V30 13910 H 1328.3 -0.267146 -0.620974 0
M  V30 13911 H 1330.85 -1.36557 -1.53432 0
M  V30 13912 H 1329.08 -0.298508 -3.85546 0
M  V30 13913 H 1330.77 -0.691793 -3.99961 0
M  V30 13914 H 1331.54 -3.15503 -3.68352 0
M  V30 13915 H 1327.42 -2.01876 -4.14448 0
M  V30 13916 H 1330.96 -5.46566 -4.33487 0
M  V30 13917 H 1326.86 -4.32035 -4.796 0
M  V30 13918 H 1327.63 -6.36687 -5.14365 0
M  V30 13919 N 1330.29 1.35952 -0.797165 0
M  V30 13920 C 1331.54 1.98639 -0.372405 0
M  V30 13921 C 1331.86 1.63571 1.06158 0
M  V30 13922 O 1331.13 0.913516 1.73297 0
M  V30 13923 H 1329.71 0.734753 -0.13471 0
M  V30 13924 H 1332.37 1.66022 -1.02092 0
M  V30 13925 H 1331.47 3.08533 -0.47049 0
M  V30 13926 N 1331.77 0.549846 1.47697 0
M  V30 13927 C 1333.01 0.0230845 2.02787 0
M  V30 13928 C 1333.35 -1.32035 1.42409 0
M  V30 13929 O 1332.62 -1.85745 0.576978 0
M  V30 13930 C 1332.91 -0.0778363 3.60016 0
M  V30 13931 C 1332.76 1.29217 4.3084 0
M  V30 13932 C 1334.08 -0.794909 4.32862 0
M  V30 13933 H 1331.2 0.00986307 0.736934 0
M  V30 13934 H 1333.84 0.710714 1.76207 0
M  V30 13935 H 1331.99 -0.663464 3.82793 0
M  V30 13936 H 1333.66 1.92044 4.19424 0
M  V30 13937 H 1331.9 1.86883 3.91481 0
M  V30 13938 H 1332.57 1.17435 5.39364 0
M  V30 13939 H 1335.05 -0.297743 4.15033 0
M  V30 13940 H 1333.93 -0.834466 5.4252 0
M  V30 13941 H 1334.19 -1.84948 4.01555 0
M  V30 13942 N 1333.25 -1.54984 0.285932 0
M  V30 13943 C 1334.47 -2.04239 -0.330774 0
M  V30 13944 C 1334.89 -1.16387 -1.48659 0
M  V30 13945 O 1334.25 -0.186255 -1.81547 0
M  V30 13946 C 1334.3 -3.52504 -0.801456 0
M  V30 13947 O 1334.02 -4.37014 0.30834 0
M  V30 13948 C 1335.52 -4.17692 -1.48487 0
M  V30 13949 H 1332.74 -0.666903 -0.0740351 0
M  V30 13950 H 1335.28 -2.00116 0.421178 0
M  V30 13951 H 1333.44 -3.57036 -1.50347 0
M  V30 13952 H 1333.85 -5.24471 -0.0553891 0
M  V30 13953 H 1335.33 -5.23004 -1.76552 0
M  V30 13954 H 1335.8 -3.66515 -2.41999 0
M  V30 13955 H 1336.41 -4.17193 -0.826428 0
M  V30 13956 N 1334.72 -0.0133892 -1.57594 0
M  V30 13957 C 1335.97 0.669624 -1.91426 0
M  V30 13958 C 1336.3 1.72675 -0.888656 0
M  V30 13959 O 1335.58 1.94288 0.0908138 0
M  V30 13960 C 1335.86 1.30051 -3.35796 0
M  V30 13961 C 1335.71 0.254021 -4.49082 0
M  V30 13962 C 1337.03 2.22297 -3.79832 0
M  V30 13963 H 1334.15 0.241958 -0.69615 0
M  V30 13964 H 1336.79 -0.0674278 -1.8988 0
M  V30 13965 H 1334.94 1.92871 -3.37243 0
M  V30 13966 H 1336.62 -0.375524 -4.59769 0
M  V30 13967 H 1334.86 -0.422267 -4.3174 0
M  V30 13968 H 1335.53 0.734756 -5.47088 0
M  V30 13969 H 1338.01 1.69481 -3.8002 0
M  V30 13970 H 1336.88 2.634 -4.81572 0
M  V30 13971 H 1337.14 3.10764 -3.14449 0
M  V30 13972 N 1336.2 1.55448 0.259558 0
M  V30 13973 C 1337.45 1.77868 0.986641 0
M  V30 13974 C 1337.8 0.580238 1.83442 0
M  V30 13975 O 1337.1 -0.426821 1.86785 0
M  V30 13976 C 1337.29 3.03292 1.89073 0
M  V30 13977 C 1337.12 4.35221 1.13194 0
M  V30 13978 C 1335.89 4.98233 0.842166 0
M  V30 13979 C 1338.09 5.11708 0.515735 0
M  V30 13980 N 1336.07 6.13873 0.0579998 0
M  V30 13981 C 1337.44 6.19856 -0.133613 0
M  V30 13982 C 1339.5 4.96083 0.424928 0
M  V30 13983 C 1338.2 7.1408 -0.865032 0
M  V30 13984 C 1340.22 5.90674 -0.292931 0
M  V30 13985 C 1339.59 6.98221 -0.930965 0
M  V30 13986 H 1335.69 0.702973 0.342569 0
M  V30 13987 H 1338.27 1.92943 0.260982 0
M  V30 13988 H 1336.44 2.89569 2.58852 0
M  V30 13989 H 1338.17 3.1406 2.55242 0
M  V30 13990 H 1334.93 4.59406 1.1508 0
M  V30 13991 H 1335.35 6.76235 -0.321806 0
M  V30 13992 H 1339.99 4.13025 0.903883 0
M  V30 13993 H 1337.71 7.96648 -1.35563 0
M  V30 13994 H 1341.3 5.80662 -0.363691 0
M  V30 13995 H 1340.18 7.70154 -1.47758 0
M  V30 13996 N 1337.68 -0.524672 1.4861 0
M  V30 13997 C 1338.59 -1.65554 1.6622 0
M  V30 13998 C 1339.61 -1.65254 0.54471 0
M  V30 13999 O 1340.78 -1.84109 0.816454 0
M  V30 14000 C 1337.85 -3.02003 1.7028 0
M  V30 14001 C 1336.91 -3.13116 2.93695 0
M  V30 14002 C 1336.14 -4.43055 2.97553 0
M  V30 14003 O 1336.36 -5.30468 2.09667 0
M  V30 14004 O 1335.3 -4.58646 3.89779 0
M  V30 14005 H 1339.12 -1.53633 2.61974 0
M  V30 14006 H 1336.71 -0.698354 1.32073 0
M  V30 14007 H 1338.59 -3.83143 1.75441 0
M  V30 14008 H 1337.27 -3.14236 0.777002 0
M  V30 14009 H 1336.17 -2.31251 2.94064 0
M  V30 14010 H 1337.51 -3.058 3.85677 0
M  V30 14011 N 1339.16 -1.37287 -0.77395 0
M  V30 14012 C 1340.09 -1.35569 -1.90114 0
M  V30 14013 C 1341.07 -0.224658 -1.6861 0
M  V30 14014 O 1342.25 -0.424676 -1.895 0
M  V30 14015 C 1339.38 -1.15971 -3.27365 0
M  V30 14016 C 1338.34 -2.26063 -3.63427 0
M  V30 14017 C 1337.66 -1.9159 -4.99197 0
M  V30 14018 C 1338.96 -3.68236 -3.70405 0
M  V30 14019 H 1340.66 -2.29891 -1.91808 0
M  V30 14020 H 1338.2 -1.10661 -0.92142 0
M  V30 14021 H 1340.16 -1.134 -4.05855 0
M  V30 14022 H 1338.88 -0.181043 -3.26098 0
M  V30 14023 H 1337.54 -2.27786 -2.87244 0
M  V30 14024 H 1337.19 -0.922586 -4.94467 0
M  V30 14025 H 1336.89 -2.65309 -5.24294 0
M  V30 14026 H 1338.41 -1.90602 -5.80089 0
M  V30 14027 H 1339.83 -3.68655 -4.39052 0
M  V30 14028 H 1338.22 -4.4099 -4.06999 0
M  V30 14029 H 1339.29 -4.02021 -2.71122 0
M  V30 14030 N 1340.64 0.999871 -1.21821 0
M  V30 14031 C 1341.57 2.08597 -0.925334 0
M  V30 14032 C 1342.55 1.62087 0.129103 0
M  V30 14033 O 1343.73 1.885 -0.000975316 0
M  V30 14034 C 1340.86 3.36443 -0.390388 0
M  V30 14035 C 1339.9 4.01869 -1.42842 0
M  V30 14036 S 1340.74 4.43618 -2.99938 0
M  V30 14037 C 1341.89 5.74644 -2.48064 0
M  V30 14038 H 1342.13 2.33119 -1.84507 0
M  V30 14039 H 1339.66 1.13339 -1.04851 0
M  V30 14040 H 1341.62 4.10405 -0.0883221 0
M  V30 14041 H 1340.28 3.09963 0.508115 0
M  V30 14042 H 1339.47 4.93902 -1.00385 0
M  V30 14043 H 1339.07 3.34202 -1.67883 0
M  V30 14044 H 1341.37 6.50642 -1.88869 0
M  V30 14045 H 1342.31 6.21919 -3.3856 0
M  V30 14046 H 1342.72 5.31709 -1.89593 0
M  V30 14047 N 1342.11 1.02678 1.19562 0
M  V30 14048 C 1343.34 0.741569 1.93154 0
M  V30 14049 C 1343.76 -0.699292 1.75372 0
M  V30 14050 O 1343.11 -1.47533 1.07426 0
M  V30 14051 C 1343.17 1.08064 3.4497 0
M  V30 14052 O 1342.89 2.46492 3.62179 0
M  V30 14053 C 1344.39 0.817935 4.35689 0
M  V30 14054 H 1341.61 0.271506 0.613617 0
M  V30 14055 H 1344.15 1.3707 1.51763 0
M  V30 14056 H 1342.31 0.496723 3.84202 0
M  V30 14057 H 1342.72 2.59053 4.56061 0
M  V30 14058 H 1344.19 1.10517 5.40823 0
M  V30 14059 H 1344.67 -0.247693 4.38501 0
M  V30 14060 H 1345.28 1.38449 4.02134 0
M  V30 14061 N 1343.59 -1.35528 0.804364 0
M  V30 14062 C 1344.84 -1.98832 0.383692 0
M  V30 14063 C 1345.17 -1.63816 -1.04855 0
M  V30 14064 O 1344.42 -0.892272 -1.74175 0
M  V30 14065 C 1344.72 -3.5372 0.511571 0
M  V30 14066 C 1344.39 -4.08597 1.9068 0
M  V30 14067 C 1343.05 -4.23297 2.28852 0
M  V30 14068 C 1345.4 -4.3834 2.81971 0
M  V30 14069 C 1342.73 -4.65056 3.57687 0
M  V30 14070 C 1345.08 -4.81537 4.1025 0
M  V30 14071 C 1343.75 -4.94442 4.48423 0
M  V30 14072 H 1343.02 -0.727577 0.140403 0
M  V30 14073 H 1345.66 -1.61777 1.02472 0
M  V30 14074 H 1343.97 -3.91221 -0.212916 0
M  V30 14075 H 1345.66 -4.00653 0.166888 0
M  V30 14076 H 1342.25 -3.97606 1.60023 0
M  V30 14077 H 1346.44 -4.26538 2.5373 0
M  V30 14078 H 1341.69 -4.73236 3.87115 0
M  V30 14079 H 1345.87 -5.03512 4.81091 0
M  V30 14080 H 1343.5 -5.26558 5.48307 0
M  V30 14081 N 1345.07 -0.557671 -1.47404 0
M  V30 14082 C 1346.32 -0.0337216 -2.02072 0
M  V30 14083 C 1346.64 1.32106 -1.43433 0
M  V30 14084 O 1345.91 1.86171 -0.609692 0
M  V30 14085 H 1344.49 -0.00947648 -0.74694 0
M  V30 14086 H 1347.15 -0.727784 -1.80802 0
M  V30 14087 H 1346.25 0.0540331 -3.12053 0
M  V30 14088 N 1346.55 1.54831 -0.294147 0
M  V30 14089 C 1347.77 2.04873 0.32276 0
M  V30 14090 C 1348.2 1.17034 1.47257 0
M  V30 14091 O 1347.56 0.172949 1.80473 0
M  V30 14092 C 1347.61 3.52431 0.76319 0
M  V30 14093 O 1346.71 3.67635 1.86865 0
M  V30 14094 H 1346.05 0.660926 0.0638162 0
M  V30 14095 H 1348.58 1.99944 -0.433995 0
M  V30 14096 H 1348.59 3.94155 1.05385 0
M  V30 14097 H 1347.27 4.15827 -0.0779464 0
M  V30 14098 H 1345.84 3.37816 1.57907 0
M  V30 14099 N 1348.03 0.0217466 1.57585 0
M  V30 14100 C 1348.97 -0.962559 2.0977 0
M  V30 14101 C 1349.94 -1.32771 0.998053 0
M  V30 14102 O 1351.13 -1.42231 1.27181 0
M  V30 14103 C 1348.27 -2.24214 2.62339 0
M  V30 14104 C 1347.38 -1.9341 3.86286 0
M  V30 14105 C 1346.52 -3.15609 4.27275 0
M  V30 14106 C 1345.56 -2.8059 5.43999 0
M  V30 14107 N 1344.69 -3.95392 5.8018 0
M  V30 14108 H 1349.53 -0.510626 2.93593 0
M  V30 14109 H 1347.07 -0.240456 1.45121 0
M  V30 14110 H 1349.03 -2.99049 2.90905 0
M  V30 14111 H 1347.66 -2.67037 1.81358 0
M  V30 14112 H 1346.71 -1.08849 3.64494 0
M  V30 14113 H 1348.02 -1.63614 4.71203 0
M  V30 14114 H 1347.18 -3.9877 4.57239 0
M  V30 14115 H 1345.92 -3.48561 3.41111 0
M  V30 14116 H 1344.92 -1.9584 5.13738 0
M  V30 14117 H 1346.15 -2.48863 6.31858 0
M  V30 14118 H 1344.09 -4.282 4.96971 0
M  V30 14119 H 1344.01 -3.69195 6.59721 0
M  V30 14120 H 1345.28 -4.79279 6.14746 0
M  V30 14121 N 1349.51 -1.55583 -0.251311 0
M  V30 14122 C 1350.92 -1.67693 -0.820719 0
M  V30 14123 C 1351.27 -0.618393 -1.862 0
M  V30 14124 O 1350.39 0.236158 -2.15108 0
M  V30 14125 C 1350.99 -3.04011 -1.49542 0
M  V30 14126 C 1349.55 -3.18075 -2.01259 0
M  V30 14127 C 1348.69 -2.63557 -0.862138 0
M  V30 14128 H 1351.64 -1.58677 -0.0272072 0
M  V30 14129 H 1351.67 -2.9821 -2.36328 0
M  V30 14130 H 1351.18 -3.81032 -0.737323 0
M  V30 14131 H 1349.28 -2.45869 -2.79963 0
M  V30 14132 H 1349.39 -4.24927 -2.213 0
M  V30 14133 H 1347.76 -2.21268 -1.26145 0
M  V30 14134 H 1348.54 -3.431 -0.117196 0
M  V30 14135 N 1350.98 0.516783 -1.48886 0
M  V30 14136 C 1352.21 1.2944 -1.61024 0
M  V30 14137 C 1352.62 1.87195 -0.274705 0
M  V30 14138 O 1351.96 1.67787 0.747868 0
M  V30 14139 C 1352.03 2.4743 -2.60804 0
M  V30 14140 C 1351.69 2.10663 -4.05549 0
M  V30 14141 C 1352.69 1.65559 -4.92835 0
M  V30 14142 C 1350.37 2.20782 -4.51177 0
M  V30 14143 C 1352.37 1.31057 -6.23781 0
M  V30 14144 C 1350.05 1.85891 -5.82141 0
M  V30 14145 C 1351.05 1.41101 -6.68266 0
M  V30 14146 O 1350.74 1.06674 -7.96791 0
M  V30 14147 H 1350.47 0.399402 -0.545394 0
M  V30 14148 H 1353.03 0.628719 -1.95541 0
M  V30 14149 H 1351.26 3.17023 -2.21435 0
M  V30 14150 H 1352.94 3.09478 -2.62637 0
M  V30 14151 H 1353.71 1.57201 -4.58817 0
M  V30 14152 H 1349.59 2.54598 -3.84319 0
M  V30 14153 H 1353.13 0.960245 -6.9096 0
M  V30 14154 H 1349.03 1.93894 -6.15691 0
M  V30 14155 H 1349.8 1.19958 -8.09662 0
M  V30 14156 N 1352.46 1.37696 0.766659 0
M  V30 14157 C 1353.74 1.23715 1.51506 0
M  V30 14158 C 1354.12 -0.167091 2.10438 0
M  V30 14159 O 1353.47 -1.17526 1.95959 0
M  V30 14160 C 1353.68 2.33715 2.59188 0
M  V30 14161 C 1355.02 2.71504 3.26451 0
M  V30 14162 O 1356.05 2.32929 2.69486 0
M  V30 14163 O 1354.91 3.37981 4.29454 0
M  V30 14164 H 1352 0.483046 0.671264 0
M  V30 14165 H 1354.55 1.49489 0.803188 0
M  V30 14166 H 1353.32 3.27729 2.13797 0
M  V30 14167 H 1352.94 2.09433 3.3797 0
M  V30 14168 N 1353.94 -0.993397 1.22349 0
M  V30 14169 C 1355.19 -1.72945 1.04568 0
M  V30 14170 C 1355.51 -1.90419 -0.420178 0
M  V30 14171 O 1354.78 -1.46348 -1.30227 0
M  V30 14172 H 1353.36 -0.640777 0.383945 0
M  V30 14173 H 1356.02 -1.19647 1.53853 0
M  V30 14174 H 1355.12 -2.72411 1.52311 0
M  V30 14175 N 1355.42 -1.03311 -1.19015 0
M  V30 14176 C 1356.67 -0.727266 -1.88132 0
M  V30 14177 C 1356.98 0.747488 -1.80754 0
M  V30 14178 O 1358.19 1.16654 -2.45161 0
M  V30 14179 C 1356.64 -1.25056 -3.37474 0
M  V30 14180 C 1356.25 -2.7534 -3.534 0
M  V30 14181 C 1357.99 -1.02091 -4.12041 0
M  V30 14182 C 1355.9 -3.21066 -4.96659 0
M  V30 14183 H 1354.83 -0.268349 -0.704631 0
M  V30 14184 H 1357.48 -1.24795 -1.3453 0
M  V30 14185 H 1355.86 -0.65777 -3.90499 0
M  V30 14186 H 1357.04 -3.40311 -3.10684 0
M  V30 14187 H 1355.35 -2.96633 -2.92229 0
M  V30 14188 H 1357.95 -1.33777 -5.17695 0
M  V30 14189 H 1358.29 0.0421413 -4.16279 0
M  V30 14190 H 1358.83 -1.57792 -3.65166 0
M  V30 14191 H 1355.56 -4.26719 -4.97586 0
M  V30 14192 H 1355.08 -2.60826 -5.4012 0
M  V30 14193 H 1356.76 -3.14651 -5.65335 0
M  V30 14194 N 1356.9 1.35099 -0.81154 0
M  V30 14195 C 1358.31 1.81082 -0.454543 0
M  V30 14196 C 1358.66 1.67361 1.02395 0
M  V30 14197 O 1357.78 1.20707 1.79607 0
M  V30 14198 C 1358.38 3.2877 -0.818274 0
M  V30 14199 C 1356.94 3.72877 -0.513808 0
M  V30 14200 C 1356.08 2.57008 -1.04125 0
M  V30 14201 H 1359.03 1.23007 -1.00274 0
M  V30 14202 H 1359.06 3.80318 -0.117683 0
M  V30 14203 H 1358.57 3.38725 -1.89439 0
M  V30 14204 H 1356.67 3.68468 0.553368 0
M  V30 14205 H 1356.78 4.67455 -1.0499 0
M  V30 14206 H 1355.15 2.5045 -0.463337 0
M  V30 14207 H 1355.93 2.69738 -2.12358 0
M  V30 14208 N 1358.37 0.56548 1.47106 0
M  V30 14209 C 1359.34 -0.167191 2.28589 0
M  V30 14210 C 1360.34 -0.835005 1.3742 0
M  V30 14211 O 1361.53 -0.689598 1.59969 0
M  V30 14212 C 1358.66 -1.24548 3.17333 0
M  V30 14213 H 1359.85 0.548677 2.94838 0
M  V30 14214 H 1357.4 0.322749 1.52931 0
M  V30 14215 H 1358.14 -1.99348 2.55794 0
M  V30 14216 H 1357.92 -0.771335 3.84438 0
M  V30 14217 H 1359.41 -1.75985 3.78707 0
M  V30 14218 N 1359.85 -1.54672 0.302354 0
M  V30 14219 C 1361.08 -2.05041 -0.311891 0
M  V30 14220 C 1361.5 -1.17814 -1.46634 0
M  V30 14221 O 1360.86 -0.182517 -1.80379 0
M  V30 14222 C 1360.91 -3.52831 -0.744489 0
M  V30 14223 O 1360.01 -3.68621 -1.84913 0
M  V30 14224 H 1359.35 -0.661255 -0.0603102 0
M  V30 14225 H 1361.88 -1.99711 0.444593 0
M  V30 14226 H 1361.89 -3.94708 -1.03293 0
M  V30 14227 H 1360.57 -4.1578 0.0999976 0
M  V30 14228 H 1359.15 -3.38649 -1.56113 0
M  V30 14229 N 1361.33 -0.0301034 -1.57571 0
M  V30 14230 C 1362.24 0.967086 -2.1374 0
M  V30 14231 C 1363.26 1.35636 -1.0899 0
M  V30 14232 O 1364.43 1.43758 -1.41052 0
M  V30 14233 C 1361.5 2.23058 -2.65417 0
M  V30 14234 C 1360.56 1.90163 -3.84885 0
M  V30 14235 C 1359.79 3.10488 -4.34088 0
M  V30 14236 O 1360.01 4.23179 -3.8246 0
M  V30 14237 O 1358.95 2.92729 -5.25921 0
M  V30 14238 H 1362.77 0.519486 -2.99224 0
M  V30 14239 H 1360.36 0.190559 -1.4818 0
M  V30 14240 H 1362.24 2.97229 -2.98719 0
M  V30 14241 H 1360.92 2.66997 -1.83015 0
M  V30 14242 H 1359.82 1.13373 -3.56507 0
M  V30 14243 H 1361.16 1.51039 -4.68453 0
M  V30 14244 N 1362.81 1.55714 0.243056 0
M  V30 14245 C 1364.06 1.76927 0.96849 0
M  V30 14246 C 1364.37 0.594748 1.86339 0
M  V30 14247 O 1365.58 0.689981 2.62586 0
M  V30 14248 C 1364.03 3.13246 1.77214 0
M  V30 14249 C 1363.64 4.38358 0.92444 0
M  V30 14250 C 1365.38 3.43796 2.49007 0
M  V30 14251 C 1363.29 5.65708 1.7242 0
M  V30 14252 H 1362.22 0.659574 0.365346 0
M  V30 14253 H 1364.87 1.8214 0.223026 0
M  V30 14254 H 1363.25 3.02151 2.5597 0
M  V30 14255 H 1364.43 4.60452 0.178936 0
M  V30 14256 H 1362.74 4.15171 0.319653 0
M  V30 14257 H 1365.34 4.3616 3.09303 0
M  V30 14258 H 1365.68 2.65297 3.20817 0
M  V30 14259 H 1366.22 3.56124 1.77259 0
M  V30 14260 H 1362.96 6.47039 1.04978 0
M  V30 14261 H 1362.48 5.4771 2.44488 0
M  V30 14262 H 1364.15 6.05105 2.29036 0
M  V30 14263 N 1364.29 -0.50888 1.49158 0
M  V30 14264 C 1365.51 -1.29245 1.62205 0
M  V30 14265 C 1365.94 -1.85845 0.29041 0
M  V30 14266 O 1365.29 -1.6547 -0.740906 0
M  V30 14267 C 1365.34 -2.40415 2.68762 0
M  V30 14268 O 1364.45 -3.44048 2.27387 0
M  V30 14269 H 1363.79 -0.381898 0.543185 0
M  V30 14270 H 1366.32 -0.610076 1.95293 0
M  V30 14271 H 1366.33 -2.86295 2.90688 0
M  V30 14272 H 1365 -1.98584 3.65427 0
M  V30 14273 H 1363.58 -3.04141 2.1576 0
M  V30 14274 N 1365.76 -1.381 -0.759346 0
M  V30 14275 C 1366.99 -1.37389 -1.55367 0
M  V30 14276 C 1367.41 0.0356097 -1.88066 0
M  V30 14277 O 1366.77 1.0161 -1.5015 0
M  V30 14278 C 1366.82 -2.23098 -2.83302 0
M  V30 14279 O 1365.92 -1.64412 -3.7821 0
M  V30 14280 H 1365.27 -0.468894 -0.470143 0
M  V30 14281 H 1367.8 -1.81787 -0.938858 0
M  V30 14282 H 1367.81 -2.36753 -3.32283 0
M  V30 14283 H 1366.48 -3.25544 -2.58831 0
M  V30 14284 H 1365.06 -1.59867 -3.36893 0
M  V30 14285 N 1367.24 0.986894 -1.22875 0
M  V30 14286 C 1368.49 1.72152 -1.05103 0
M  V30 14287 C 1368.8 1.91185 0.413248 0
M  V30 14288 O 1370.01 2.62031 0.710759 0
M  V30 14289 C 1368.47 3.09771 -1.8322 0
M  V30 14290 C 1368.07 2.98648 -3.33936 0
M  V30 14291 C 1369.82 3.87238 -1.73917 0
M  V30 14292 C 1367.73 4.31459 -4.04471 0
M  V30 14293 H 1366.66 0.645498 -0.389677 0
M  V30 14294 H 1369.31 1.10125 -1.46781 0
M  V30 14295 H 1367.69 3.72515 -1.34345 0
M  V30 14296 H 1368.86 2.45033 -3.9025 0
M  V30 14297 H 1367.18 2.34661 -3.43982 0
M  V30 14298 H 1369.77 4.85549 -2.23933 0
M  V30 14299 H 1370.12 4.1036 -0.700711 0
M  V30 14300 H 1370.65 3.31183 -2.20369 0
M  V30 14301 H 1367.39 4.13534 -5.08596 0
M  V30 14302 H 1366.91 4.84964 -3.52944 0
M  V30 14303 H 1368.59 5.00179 -4.10403 0
M  V30 14304 N 1368.72 1.0394 1.18466 0
M  V30 14305 C 1369.65 0.650182 2.24265 0
M  V30 14306 C 1370.63 -0.345968 1.66545 0
M  V30 14307 O 1371.82 -0.226348 1.92876 0
M  V30 14308 C 1368.95 0.0110451 3.47298 0
M  V30 14309 C 1367.9 0.930599 4.17761 0
M  V30 14310 C 1367.23 0.156005 5.34472 0
M  V30 14311 C 1368.53 2.24913 4.71393 0
M  V30 14312 H 1370.22 1.53465 2.57078 0
M  V30 14313 H 1367.77 0.739343 1.23571 0
M  V30 14314 H 1369.72 -0.272959 4.20515 0
M  V30 14315 H 1368.44 -0.908288 3.13716 0
M  V30 14316 H 1367.1 1.19897 3.4644 0
M  V30 14317 H 1366.75 -0.765695 4.97138 0
M  V30 14318 H 1366.45 0.768606 5.82551 0
M  V30 14319 H 1367.97 -0.121011 6.1048 0
M  V30 14320 H 1369.39 2.02592 5.36311 0
M  V30 14321 H 1367.79 2.81459 5.30001 0
M  V30 14322 H 1368.86 2.8965 3.88884 0
M  V30 14323 N 1370.2 -1.34667 0.818693 0
M  V30 14324 C 1371.11 -2.33375 0.239429 0
M  V30 14325 C 1372.12 -1.62428 -0.623957 0
M  V30 14326 O 1373.3 -1.94223 -0.532854 0
M  V30 14327 C 1370.37 -3.41598 -0.59258 0
M  V30 14328 C 1369.43 -4.28301 0.292712 0
M  V30 14329 C 1368.66 -5.31356 -0.499682 0
M  V30 14330 O 1368.88 -5.43426 -1.73334 0
M  V30 14331 O 1367.82 -6.01789 0.115778 0
M  V30 14332 H 1371.64 -2.84738 1.05631 0
M  V30 14333 H 1369.23 -1.37651 0.58074 0
M  V30 14334 H 1371.11 -4.07692 -1.06607 0
M  V30 14335 H 1369.78 -2.92486 -1.38685 0
M  V30 14336 H 1368.69 -3.65145 0.81361 0
M  V30 14337 H 1370.02 -4.80843 1.05123 0
M  V30 14338 N 1371.68 -0.573274 -1.46804 0
M  V30 14339 C 1372.62 0.165358 -2.30207 0
M  V30 14340 C 1373.59 0.89312 -1.40045 0
M  V30 14341 O 1374.78 0.885653 -1.68999 0
M  V30 14342 C 1371.92 1.17915 -3.2433 0
M  V30 14343 C 1371.03 0.455805 -4.29589 0
M  V30 14344 C 1370.17 1.45629 -5.10848 0
M  V30 14345 C 1369.21 0.718822 -6.07865 0
M  V30 14346 N 1368.34 1.66691 -6.82025 0
M  V30 14347 H 1373.18 -0.551947 -2.92844 0
M  V30 14348 H 1370.72 -0.28401 -1.44332 0
M  V30 14349 H 1372.68 1.77969 -3.77337 0
M  V30 14350 H 1371.31 1.86429 -2.63523 0
M  V30 14351 H 1370.36 -0.259584 -3.79513 0
M  V30 14352 H 1371.67 -0.121161 -4.98653 0
M  V30 14353 H 1370.83 2.1299 -5.68084 0
M  V30 14354 H 1369.56 2.06718 -4.41723 0
M  V30 14355 H 1368.57 0.0313773 -5.49791 0
M  V30 14356 H 1369.79 0.113452 -6.79005 0
M  V30 14357 H 1367.74 2.26608 -6.15617 0
M  V30 14358 H 1367.66 1.14251 -7.47317 0
M  V30 14359 H 1368.93 2.33117 -7.43826 0
M  V30 14360 N 1373.15 1.5451 -0.310553 0
M  V30 14361 C 1374.4 1.99931 0.29532 0
M  V30 14362 C 1374.72 1.20042 1.53672 0
M  V30 14363 O 1373.99 0.298841 1.93607 0
M  V30 14364 H 1372.57 0.738539 0.112111 0
M  V30 14365 H 1375.24 1.9023 -0.424092 0
M  V30 14366 H 1374.33 3.07021 0.560749 0
M  V30 14367 N 1374.63 0.0384594 1.57553 0
M  V30 14368 C 1375.54 -0.955737 2.14249 0
M  V30 14369 C 1376.56 -1.35056 1.09708 0
M  V30 14370 O 1377.74 -1.43008 1.41812 0
M  V30 14371 C 1374.8 -2.21647 2.66596 0
M  V30 14372 C 1373.86 -1.88119 3.85888 0
M  V30 14373 C 1373.09 -3.08182 4.35729 0
M  V30 14374 O 1373.32 -4.21145 3.84699 0
M  V30 14375 O 1372.25 -2.89936 5.27467 0
M  V30 14376 H 1376.08 -0.50361 2.99495 0
M  V30 14377 H 1373.66 -0.182698 1.48279 0
M  V30 14378 H 1375.54 -2.9564 3.00291 0
M  V30 14379 H 1374.22 -2.66022 1.84428 0
M  V30 14380 H 1373.13 -1.11481 3.57103 0
M  V30 14381 H 1374.46 -1.48553 4.69247 0
M  V30 14382 N 1376.11 -1.55841 -0.234795 0
M  V30 14383 C 1377.53 -1.48536 -0.583885 0
M  V30 14384 C 1377.73 -0.731018 -1.87772 0
M  V30 14385 O 1376.78 -0.265287 -2.51103 0
M  V30 14386 C 1378.1 -2.93017 -0.675389 0
M  V30 14387 C 1379.64 -3.03459 -0.766906 0
M  V30 14388 C 1380.12 -4.49272 -0.889868 0
M  V30 14389 N 1381.61 -4.5326 -0.95443 0
M  V30 14390 C 1382.35 -5.63346 -1.06905 0
M  V30 14391 N 1381.84 -6.83215 -1.14845 0
M  V30 14392 N 1383.63 -5.51169 -1.10315 0
M  V30 14393 H 1375.79 -2.0332 0.614405 0
M  V30 14394 H 1378.05 -0.923581 0.213779 0
M  V30 14395 H 1377.75 -3.51099 0.205493 0
M  V30 14396 H 1377.63 -3.4418 -1.54337 0
M  V30 14397 H 1380.02 -2.4545 -1.63823 0
M  V30 14398 H 1380.1 -2.55487 0.126472 0
M  V30 14399 H 1379.74 -5.07895 -0.0230489 0
M  V30 14400 H 1379.67 -4.94937 -1.79847 0
M  V30 14401 H 1382.16 -3.6693 -0.903923 0
M  V30 14402 H 1382.47 -7.62863 -1.23532 0
M  V30 14403 H 1380.82 -6.85952 -1.11781 0
M  V30 14404 H 1384.01 -4.56453 -1.03769 0
M  V30 14405 H 1384.18 -6.36998 -1.18903 0
M  V30 14406 N 1377.59 0.500963 -1.49426 0
M  V30 14407 C 1378.52 1.61114 -1.69011 0
M  V30 14408 C 1379.5 1.61341 -0.538813 0
M  V30 14409 O 1380.69 1.78081 -0.77466 0
M  V30 14410 C 1377.82 2.99598 -1.75666 0
M  V30 14411 C 1376.77 3.14236 -2.90585 0
M  V30 14412 C 1376.1 4.54071 -2.82354 0
M  V30 14413 C 1377.4 2.94258 -4.3152 0
M  V30 14414 H 1379.09 1.44978 -2.61957 0
M  V30 14415 H 1376.64 0.69603 -1.26061 0
M  V30 14416 H 1378.59 3.77163 -1.87953 0
M  V30 14417 H 1377.31 3.16822 -0.793186 0
M  V30 14418 H 1375.97 2.39096 -2.779 0
M  V30 14419 H 1375.62 4.68172 -1.83914 0
M  V30 14420 H 1375.32 4.64806 -3.59485 0
M  V30 14421 H 1376.84 5.33696 -2.96649 0
M  V30 14422 H 1378.26 3.61592 -4.44886 0
M  V30 14423 H 1376.65 3.16464 -5.09873 0
M  V30 14424 H 1377.72 1.90383 -4.45962 0
M  V30 14425 N 1379.07 1.38501 0.752011 0
M  V30 14426 C 1380.48 1.31086 1.32941 0
M  V30 14427 C 1380.83 -0.0326248 1.96173 0
M  V30 14428 O 1379.95 -0.934692 1.95173 0
M  V30 14429 C 1380.55 2.37395 2.41721 0
M  V30 14430 C 1379.11 2.33553 2.95177 0
M  V30 14431 C 1378.26 2.20178 1.68573 0
M  V30 14432 H 1381.21 1.48836 0.550771 0
M  V30 14433 H 1381.23 2.03202 3.21697 0
M  V30 14434 H 1380.74 3.35164 1.9567 0
M  V30 14435 H 1378.84 1.39371 3.45553 0
M  V30 14436 H 1378.95 3.27753 3.49449 0
M  V30 14437 H 1377.32 1.67057 1.9226 0
M  V30 14438 H 1378.1 3.19891 1.24599 0
M  V30 14439 N 1380.55 -0.980364 1.23396 0
M  V30 14440 C 1381.48 -2.07522 0.972991 0
M  V30 14441 C 1382.49 -1.62714 -0.0530191 0
M  V30 14442 O 1383.68 -1.77564 0.182513 0
M  V30 14443 C 1380.78 -3.35977 0.444126 0
M  V30 14444 C 1379.95 -4.09756 1.53031 0
M  V30 14445 C 1379.01 -5.16488 1.00631 0
M  V30 14446 O 1378.04 -5.43368 1.69529 0
M  V30 14447 N 1379.24 -5.80263 -0.165842 0
M  V30 14448 H 1382 -2.30487 1.91561 0
M  V30 14449 H 1379.57 -1.14706 1.14255 0
M  V30 14450 H 1381.56 -4.04624 0.078617 0
M  V30 14451 H 1380.13 -3.0998 -0.403912 0
M  V30 14452 H 1379.35 -3.35564 2.06858 0
M  V30 14453 H 1380.64 -4.55815 2.26076 0
M  V30 14454 H 1380.03 -5.60811 -0.742162 0
M  V30 14455 H 1378.59 -6.50084 -0.472614 0
M  V30 14456 N 1382.02 -1.04567 -1.17913 0
M  V30 14457 C 1383.43 -0.779118 -1.69666 0
M  V30 14458 C 1383.79 0.699448 -1.83309 0
M  V30 14459 O 1382.91 1.54407 -1.51616 0
M  V30 14460 C 1383.51 -1.40769 -3.08171 0
M  V30 14461 C 1382.06 -1.18933 -3.57116 0
M  V30 14462 C 1381.21 -1.49519 -2.33536 0
M  V30 14463 H 1384.16 -1.21144 -1.02518 0
M  V30 14464 H 1384.18 -0.813584 -3.717 0
M  V30 14465 H 1383.7 -2.4838 -2.9821 0
M  V30 14466 H 1381.8 -0.132184 -3.72365 0
M  V30 14467 H 1381.91 -1.88987 -4.40251 0
M  V30 14468 H 1380.27 -0.915056 -2.37695 0
M  V30 14469 H 1381.06 -2.5825 -2.26189 0
M  V30 14470 N 1383.5 1.34231 -0.825823 0
M  V30 14471 C 1384.91 1.8059 -0.473724 0
M  V30 14472 C 1385.26 1.68438 1.00614 0
M  V30 14473 O 1384.39 1.22606 1.78317 0
M  V30 14474 C 1384.98 3.27884 -0.853099 0
M  V30 14475 C 1383.54 3.72311 -0.553327 0
M  V30 14476 C 1382.69 2.55889 -1.06845 0
M  V30 14477 H 1385.64 1.21937 -1.01573 0
M  V30 14478 H 1385.66 3.80172 -0.158014 0
M  V30 14479 H 1385.17 3.36696 -1.93021 0
M  V30 14480 H 1383.27 3.69034 0.514256 0
M  V30 14481 H 1383.39 4.66315 -1.09942 0
M  V30 14482 H 1381.75 2.49945 -0.489874 0
M  V30 14483 H 1382.53 2.67471 -2.15207 0
M  V30 14484 N 1384.98 0.581051 1.46498 0
M  V30 14485 C 1386.23 0.0637189 2.01599 0
M  V30 14486 C 1386.54 -1.30353 1.45834 0
M  V30 14487 O 1387.75 -1.91211 1.92745 0
M  V30 14488 C 1386.2 0.0633254 3.59844 0
M  V30 14489 C 1385.81 1.42879 4.24605 0
M  V30 14490 C 1387.56 -0.400149 4.2261 0
M  V30 14491 C 1385.46 1.38621 5.74924 0
M  V30 14492 H 1384.39 0.0200512 0.753733 0
M  V30 14493 H 1387.04 0.732451 1.68248 0
M  V30 14494 H 1385.43 -0.671538 3.90264 0
M  V30 14495 H 1386.6 2.18325 4.05796 0
M  V30 14496 H 1384.91 1.83215 3.73927 0
M  V30 14497 H 1387.51 -0.450771 5.32797 0
M  V30 14498 H 1387.85 -1.41733 3.9143 0
M  V30 14499 H 1388.39 0.280598 3.96809 0
M  V30 14500 H 1385.13 2.38014 6.10761 0
M  V30 14501 H 1384.65 0.673926 5.96002 0
M  V30 14502 H 1386.33 1.09841 6.37608 0
M  V30 14503 N 1386.46 -1.54343 0.318742 0
M  V30 14504 C 1387.7 -2.0239 -0.285929 0
M  V30 14505 C 1388.06 -1.20197 -1.49722 0
M  V30 14506 O 1389.26 -1.58025 -2.17443 0
M  V30 14507 C 1387.53 -3.52044 -0.616446 0
M  V30 14508 S 1389.09 -4.22031 -1.20146 0
M  V30 14509 H 1385.91 -0.705685 -0.0867722 0
M  V30 14510 H 1388.51 -1.90233 0.450744 0
M  V30 14511 H 1387.22 -4.09489 0.273339 0
M  V30 14512 H 1386.75 -3.68272 -1.38344 0
M  V30 14513 H 1388.76 -4.29287 -2.48851 0
M  V30 14514 N 1387.94 -0.0468143 -1.5753 0
M  V30 14515 C 1389.16 0.637648 -1.96829 0
M  V30 14516 C 1389.58 1.64635 -0.924158 0
M  V30 14517 O 1388.94 1.82267 0.0921139 0
M  V30 14518 C 1388.99 1.32842 -3.36207 0
M  V30 14519 O 1388.71 0.360111 -4.36617 0
M  V30 14520 C 1390.21 2.10305 -3.90239 0
M  V30 14521 H 1387.43 0.174634 -0.647876 0
M  V30 14522 H 1389.97 -0.111824 -2.04194 0
M  V30 14523 H 1388.13 2.02915 -3.30006 0
M  V30 14524 H 1388.54 0.852661 -5.17523 0
M  V30 14525 H 1390.02 2.54065 -4.90056 0
M  V30 14526 H 1390.49 2.94942 -3.25432 0
M  V30 14527 H 1391.1 1.45152 -3.99764 0
M  V30 14528 N 1389.41 1.55964 0.226527 0
M  V30 14529 C 1390.66 1.77944 0.94967 0
M  V30 14530 C 1390.98 0.614478 1.85697 0
M  V30 14531 O 1392.18 0.717793 2.6184 0
M  V30 14532 C 1390.64 3.15108 1.73881 0
M  V30 14533 C 1390.25 4.39314 0.877894 0
M  V30 14534 C 1391.99 3.46418 2.45347 0
M  V30 14535 C 1389.9 5.67505 1.6641 0
M  V30 14536 H 1388.83 0.663412 0.35833 0
M  V30 14537 H 1391.48 1.82366 0.203695 0
M  V30 14538 H 1389.86 3.04849 2.52751 0
M  V30 14539 H 1391.03 4.60616 0.130089 0
M  V30 14540 H 1389.35 4.15487 0.2756 0
M  V30 14541 H 1391.95 4.39416 3.0466 0
M  V30 14542 H 1392.29 2.68685 3.17985 0
M  V30 14543 H 1392.82 3.57984 1.73471 0
M  V30 14544 H 1389.56 6.48116 0.981089 0
M  V30 14545 H 1389.08 5.50272 2.38665 0
M  V30 14546 H 1390.76 6.075 2.22605 0
M  V30 14547 N 1390.89 -0.493031 1.4969 0
M  V30 14548 C 1392.17 -1.25436 1.50084 0
M  V30 14549 C 1392.55 -2.0981 0.233038 0
M  V30 14550 O 1391.9 -2.14617 -0.784342 0
M  V30 14551 C 1392.11 -2.10425 2.78428 0
M  V30 14552 C 1393.46 -2.69349 3.28232 0
M  V30 14553 O 1394.48 -2.20686 2.796 0
M  V30 14554 O 1393.34 -3.57956 4.12953 0
M  V30 14555 H 1390.43 -0.568044 0.601045 0
M  V30 14556 H 1392.98 -0.506648 1.6196 0
M  V30 14557 H 1391.75 -1.48108 3.62187 0
M  V30 14558 H 1391.37 -2.92374 2.6945 0
M  V30 14559 N 1392.37 -1.38898 -0.744656 0
M  V30 14560 C 1393.62 -1.35795 -1.50623 0
M  V30 14561 C 1393.95 0.0491775 -1.94138 0
M  V30 14562 O 1393.22 1.01219 -1.66087 0
M  V30 14563 C 1393.51 -2.32168 -2.75263 0
M  V30 14564 C 1393.36 -3.81781 -2.3783 0
M  V30 14565 C 1394.68 -2.26526 -3.77325 0
M  V30 14566 H 1391.8 -0.494591 -0.546396 0
M  V30 14567 H 1394.44 -1.69816 -0.852211 0
M  V30 14568 H 1392.59 -2.03287 -3.31069 0
M  V30 14569 H 1394.26 -4.21373 -1.8773 0
M  V30 14570 H 1392.51 -3.99027 -1.70176 0
M  V30 14571 H 1393.18 -4.44687 -3.27044 0
M  V30 14572 H 1395.65 -2.52041 -3.31081 0
M  V30 14573 H 1394.53 -2.96053 -4.62216 0
M  V30 14574 H 1394.79 -1.26705 -4.23554 0
M  V30 14575 N 1393.85 0.973806 -1.23914 0
M  V30 14576 C 1395.08 1.74853 -1.10046 0
M  V30 14577 C 1395.49 1.85927 0.350388 0
M  V30 14578 O 1394.83 1.34252 1.25388 0
M  V30 14579 C 1394.89 3.18919 -1.65924 0
M  V30 14580 C 1394.56 3.31335 -3.14748 0
M  V30 14581 C 1395.55 3.17141 -4.11968 0
M  V30 14582 C 1393.24 3.55772 -3.54587 0
M  V30 14583 C 1395.23 3.27199 -5.47009 0
M  V30 14584 C 1392.92 3.65468 -4.89771 0
M  V30 14585 C 1393.92 3.51193 -5.85792 0
M  V30 14586 O 1393.6 3.60534 -7.18519 0
M  V30 14587 H 1393.34 0.555345 -0.385445 0
M  V30 14588 H 1395.89 1.23168 -1.64374 0
M  V30 14589 H 1394.12 3.71882 -1.06023 0
M  V30 14590 H 1395.81 3.78177 -1.47434 0
M  V30 14591 H 1396.58 2.98153 -3.82531 0
M  V30 14592 H 1392.45 3.65951 -2.80358 0
M  V30 14593 H 1396 3.15974 -6.21937 0
M  V30 14594 H 1391.9 3.83969 -5.18882 0
M  V30 14595 H 1392.66 3.77288 -7.26358 0
M  V30 14596 N 1395.33 1.05191 1.17357 0
M  V30 14597 C 1396.26 0.597207 2.20247 0
M  V30 14598 C 1397.24 -0.374194 1.58236 0
M  V30 14599 O 1398.42 -0.285815 1.86321 0
M  V30 14600 C 1395.55 -0.126012 3.38466 0
M  V30 14601 C 1394.59 0.800401 4.18922 0
M  V30 14602 S 1395.43 2.28956 4.84086 0
M  V30 14603 C 1396.58 1.57751 6.05694 0
M  V30 14604 H 1396.82 1.46893 2.58476 0
M  V30 14605 H 1394.35 0.863874 1.27971 0
M  V30 14606 H 1396.31 -0.537086 4.06971 0
M  V30 14607 H 1394.97 -0.97377 2.98624 0
M  V30 14608 H 1394.16 0.240754 5.03425 0
M  V30 14609 H 1393.76 1.15084 3.55853 0
M  V30 14610 H 1396.06 0.876839 6.71802 0
M  V30 14611 H 1397 2.40001 6.66187 0
M  V30 14612 H 1397.41 1.06493 5.54364 0
M  V30 14613 N 1396.8 -1.33791 0.83293 0
M  V30 14614 C 1398.05 -1.97233 0.422127 0
M  V30 14615 C 1398.37 -1.66738 -1.02264 0
M  V30 14616 O 1399.57 -2.23747 -1.53783 0
M  V30 14617 C 1398.03 -3.5295 0.703872 0
M  V30 14618 C 1397.64 -3.92329 2.16292 0
M  V30 14619 C 1399.38 -4.22973 0.359727 0
M  V30 14620 C 1397.29 -5.40999 2.38903 0
M  V30 14621 H 1396.22 -0.738082 0.154112 0
M  V30 14622 H 1398.87 -1.52494 1.02068 0
M  V30 14623 H 1397.25 -3.95985 0.0350184 0
M  V30 14624 H 1398.42 -3.6037 2.87176 0
M  V30 14625 H 1396.74 -3.35271 2.46947 0
M  V30 14626 H 1399.34 -5.32297 0.506366 0
M  V30 14627 H 1399.68 -4.10428 -0.696743 0
M  V30 14628 H 1400.21 -3.85449 0.983568 0
M  V30 14629 H 1396.95 -5.58541 3.43093 0
M  V30 14630 H 1396.47 -5.74438 1.72573 0
M  V30 14631 H 1398.15 -6.07809 2.2176 0
M  V30 14632 N 1398.28 -0.588812 -1.46187 0
M  V30 14633 C 1399.22 0.189417 -2.27413 0
M  V30 14634 C 1400.19 0.891224 -1.36 0
M  V30 14635 O 1401.38 0.903883 -1.65415 0
M  V30 14636 C 1398.5 1.27233 -3.13894 0
M  V30 14637 C 1397.55 0.675705 -4.21113 0
M  V30 14638 S 1398.38 -0.502093 -5.33141 0
M  V30 14639 C 1399.54 0.581875 -6.23189 0
M  V30 14640 H 1399.77 -0.499754 -2.9307 0
M  V30 14641 H 1397.31 -0.375854 -1.49755 0
M  V30 14642 H 1399.26 1.89233 -3.64282 0
M  V30 14643 H 1397.92 1.93348 -2.47538 0
M  V30 14644 H 1397.12 1.48991 -4.81475 0
M  V30 14645 H 1396.72 0.131249 -3.7377 0
M  V30 14646 H 1399.01 1.46594 -6.6145 0
M  V30 14647 H 1399.95 0.0148739 -7.08098 0
M  V30 14648 H 1400.36 0.888764 -5.5746 0
M  V30 14649 N 1399.76 1.54172 -0.326923 0
M  V30 14650 C 1401.01 2.00926 0.275047 0
M  V30 14651 C 1401.34 1.21469 1.51522 0
M  V30 14652 O 1400.61 0.297871 1.92206 0
M  V30 14653 C 1400.9 3.54967 0.605833 0
M  V30 14654 C 1400.75 4.45147 -0.645279 0
M  V30 14655 C 1402.07 4.16489 1.42213 0
M  V30 14656 H 1399.19 0.730389 0.098495 0
M  V30 14657 H 1401.83 1.84735 -0.444168 0
M  V30 14658 H 1399.98 3.68895 1.21857 0
M  V30 14659 H 1401.65 4.43085 -1.2835 0
M  V30 14660 H 1399.9 4.14686 -1.27349 0
M  V30 14661 H 1400.57 5.50763 -0.36932 0
M  V30 14662 H 1403.04 4.06158 0.904172 0
M  V30 14663 H 1401.92 5.24377 1.62234 0
M  V30 14664 H 1402.18 3.70032 2.41928 0
M  V30 14665 N 1401.24 0.0551678 1.57503 0
M  V30 14666 C 1402.19 -0.917847 2.11764 0
M  V30 14667 C 1403.16 -1.30624 1.02599 0
M  V30 14668 O 1404.34 -1.39501 1.30169 0
M  V30 14669 C 1401.48 -2.18599 2.67036 0
M  V30 14670 C 1400.59 -1.85173 3.90301 0
M  V30 14671 C 1399.73 -3.06475 4.33874 0
M  V30 14672 C 1398.77 -2.68988 5.49829 0
M  V30 14673 N 1397.9 -3.82997 5.88437 0
M  V30 14674 H 1402.74 -0.448236 2.9461 0
M  V30 14675 H 1400.28 -0.209619 1.45599 0
M  V30 14676 H 1402.24 -2.92811 2.97183 0
M  V30 14677 H 1400.87 -2.6313 1.86982 0
M  V30 14678 H 1399.92 -1.01094 3.66721 0
M  V30 14679 H 1401.23 -1.53582 4.74567 0
M  V30 14680 H 1400.39 -3.88982 4.65594 0
M  V30 14681 H 1399.13 -3.41247 3.48427 0
M  V30 14682 H 1398.13 -1.84899 5.17776 0
M  V30 14683 H 1399.36 -2.35404 6.36994 0
M  V30 14684 H 1397.3 -4.17562 5.05942 0
M  V30 14685 H 1397.22 -3.55118 6.67403 0
M  V30 14686 H 1398.49 -4.66131 6.24773 0
M  V30 14687 N 1402.72 -1.56081 -0.218252 0
M  V30 14688 C 1403.96 -1.81024 -0.949188 0
M  V30 14689 C 1404.32 -0.629178 -1.81398 0
M  V30 14690 O 1405.52 -0.757982 -2.57892 0
M  V30 14691 C 1403.79 -3.10878 -1.76322 0
M  V30 14692 S 1405.35 -3.57147 -2.54934 0
M  V30 14693 H 1402.17 -0.635529 -0.318785 0
M  V30 14694 H 1404.77 -1.9432 -0.214484 0
M  V30 14695 H 1403.48 -3.94875 -1.11811 0
M  V30 14696 H 1403.01 -3.00399 -2.54016 0
M  V30 14697 H 1405.02 -3.20747 -3.78597 0
M  V30 14698 N 1404.2 0.485086 -1.49949 0
M  V30 14699 C 1405.44 1.23721 -1.61445 0
M  V30 14700 C 1405.8 1.89975 -0.304479 0
M  V30 14701 O 1405.09 1.78489 0.696567 0
M  V30 14702 C 1405.28 2.31573 -2.72229 0
M  V30 14703 C 1405.11 1.75898 -4.13872 0
M  V30 14704 C 1403.88 1.5649 -4.80457 0
M  V30 14705 C 1406.08 1.26181 -4.98581 0
M  V30 14706 N 1404.06 0.959112 -6.06361 0
M  V30 14707 C 1405.43 0.778367 -6.15095 0
M  V30 14708 C 1407.49 1.14903 -4.8446 0
M  V30 14709 C 1406.19 0.19329 -7.1904 0
M  V30 14710 C 1408.22 0.57791 -5.8857 0
M  V30 14711 C 1407.58 0.104777 -7.04322 0
M  V30 14712 H 1403.68 0.442115 -0.645026 0
M  V30 14713 H 1406.26 0.541572 -1.87016 0
M  V30 14714 H 1404.43 2.9858 -2.48404 0
M  V30 14715 H 1406.17 2.98607 -2.73159 0
M  V30 14716 H 1402.92 1.81316 -4.37517 0
M  V30 14717 H 1403.34 0.675032 -6.73626 0
M  V30 14718 H 1407.99 1.50079 -3.95267 0
M  V30 14719 H 1405.7 -0.170697 -8.0792 0
M  V30 14720 H 1409.29 0.493211 -5.79706 0
M  V30 14721 H 1408.17 -0.330245 -7.83504 0
M  V30 14722 N 1405.67 1.39291 0.737279 0
M  V30 14723 C 1406.61 1.32216 1.85995 0
M  V30 14724 C 1407.58 0.19623 1.61412 0
M  V30 14725 O 1408.77 0.376297 1.84706 0
M  V30 14726 C 1405.9 1.0525 3.21932 0
M  V30 14727 C 1404.94 2.20002 3.65378 0
M  V30 14728 S 1405.77 3.82265 3.75011 0
M  V30 14729 C 1406.93 3.57519 5.13742 0
M  V30 14730 H 1407.16 2.27231 1.91712 0
M  V30 14731 H 1404.7 1.25319 0.901911 0
M  V30 14732 H 1406.65 0.903753 4.00428 0
M  V30 14733 H 1405.32 0.119258 3.13874 0
M  V30 14734 H 1404.51 1.9672 4.64023 0
M  V30 14735 H 1404.11 2.31068 2.94081 0
M  V30 14736 H 1406.4 3.14643 6.00005 0
M  V30 14737 H 1407.35 4.55616 5.42051 0
M  V30 14738 H 1407.75 2.9167 4.8331 0
M  V30 14739 N 1407.15 -0.967221 1.24429 0
M  V30 14740 C 1408.4 -1.70458 1.07829 0
M  V30 14741 C 1408.71 -1.91818 -0.38278 0
M  V30 14742 O 1409.92 -2.63129 -0.668982 0
M  V30 14743 C 1408.38 -3.06817 1.88125 0
M  V30 14744 C 1407.98 -2.93298 3.38645 0
M  V30 14745 C 1409.73 -3.84422 1.80056 0
M  V30 14746 C 1407.63 -4.2497 4.11284 0
M  V30 14747 H 1406.56 -0.639217 0.399897 0
M  V30 14748 H 1409.22 -1.07776 1.48515 0
M  V30 14749 H 1407.6 -3.70331 1.40254 0
M  V30 14750 H 1408.77 -2.38793 3.94099 0
M  V30 14751 H 1407.09 -2.29159 3.47671 0
M  V30 14752 H 1409.68 -4.81925 2.31629 0
M  V30 14753 H 1410.03 -4.09194 0.765908 0
M  V30 14754 H 1410.56 -3.27636 2.2561 0
M  V30 14755 H 1407.3 -4.05391 5.1511 0
M  V30 14756 H 1406.82 -4.79288 3.60615 0
M  V30 14757 H 1408.5 -4.93586 4.18308 0
M  V30 14758 N 1408.63 -1.05812 -1.16797 0
M  V30 14759 C 1409.91 -0.685551 -1.83193 0
M  V30 14760 C 1410.29 0.833539 -1.93947 0
M  V30 14761 O 1409.63 1.74193 -1.47882 0
M  V30 14762 C 1409.84 -1.38183 -3.20479 0
M  V30 14763 C 1411.19 -1.52389 -3.96311 0
M  V30 14764 O 1412.22 -1.34134 -3.2998 0
M  V30 14765 O 1411.08 -1.82297 -5.15199 0
M  V30 14766 H 1408.17 -0.242095 -0.790771 0
M  V30 14767 H 1410.72 -1.15809 -1.24041 0
M  V30 14768 H 1409.49 -2.41791 -3.07657 0
M  V30 14769 H 1409.11 -0.899043 -3.87302 0
M  V30 14770 N 1410.11 1.33347 -0.840014 0
M  V30 14771 C 1411.07 2.27492 -0.279264 0
M  V30 14772 C 1412.07 1.51004 0.552669 0
M  V30 14773 O 1413.26 1.70305 0.366295 0
M  V30 14774 C 1410.39 3.35462 0.606466 0
M  V30 14775 H 1411.59 2.78601 -1.11001 0
M  V30 14776 H 1409.14 1.4377 -0.613187 0
M  V30 14777 H 1409.87 2.89596 1.45961 0
M  V30 14778 H 1409.66 3.92098 0.0111889 0
M  V30 14779 H 1411.15 4.05645 0.992052 0
M  V30 14780 N 1411.59 0.596556 1.45873 0
M  V30 14781 C 1412.86 0.0199562 1.9559 0
M  V30 14782 C 1413.24 -1.44479 1.53912 0
M  V30 14783 O 1412.59 -2.14173 0.796384 0
M  V30 14784 C 1412.8 0.206497 3.48389 0
M  V30 14785 C 1414.15 0.0815298 4.24522 0
M  V30 14786 O 1415.17 0.136045 3.5594 0
M  V30 14787 O 1414.03 -0.0426117 5.46483 0
M  V30 14788 H 1411.13 -0.0419913 0.825933 0
M  V30 14789 H 1413.67 0.665846 1.56092 0
M  V30 14790 H 1412.44 1.22422 3.71656 0
M  V30 14791 H 1412.07 -0.475175 3.9475 0
M  V30 14792 N 1413.06 -1.53996 0.335095 0
M  V30 14793 C 1414.29 -2.05657 -0.268328 0
M  V30 14794 C 1414.71 -1.20897 -1.44102 0
M  V30 14795 O 1414.07 -0.220737 -1.79951 0
M  V30 14796 C 1414.12 -3.54331 -0.669481 0
M  V30 14797 O 1413.22 -3.7246 -1.77052 0
M  V30 14798 H 1412.56 -0.662386 -0.0462705 0
M  V30 14799 H 1415.09 -1.98723 0.486854 0
M  V30 14800 H 1415.1 -3.9681 -0.948971 0
M  V30 14801 H 1413.78 -4.15474 0.188168 0
M  V30 14802 H 1412.36 -3.41884 -1.48895 0
M  V30 14803 N 1414.54 -0.0635198 -1.57472 0
M  V30 14804 C 1415.96 0.293084 -1.56886 0
M  V30 14805 C 1416.16 1.70603 -1.07224 0
M  V30 14806 O 1415.21 2.41584 -0.734388 0
M  V30 14807 C 1416.53 0.110286 -3.00498 0
M  V30 14808 C 1418.07 0.180453 -3.12479 0
M  V30 14809 C 1418.55 0.0260354 -4.57993 0
M  V30 14810 N 1420.04 0.0819109 -4.63128 0
M  V30 14811 C 1420.78 -0.0132764 -5.73398 0
M  V30 14812 N 1420.27 -0.161514 -6.92612 0
M  V30 14813 N 1422.06 0.0431948 -5.62083 0
M  V30 14814 H 1414.22 -0.98706 -1.88072 0
M  V30 14815 H 1416.48 -0.384232 -0.866643 0
M  V30 14816 H 1416.18 -0.864378 -3.40913 0
M  V30 14817 H 1416.06 0.866117 -3.67122 0
M  V30 14818 H 1418.45 1.1456 -2.71956 0
M  V30 14819 H 1418.53 -0.606342 -2.4851 0
M  V30 14820 H 1418.17 -0.935839 -4.99204 0
M  V30 14821 H 1418.1 0.832131 -5.19984 0
M  V30 14822 H 1420.59 0.195229 -3.77395 0
M  V30 14823 H 1420.9 -0.226517 -7.72468 0
M  V30 14824 H 1419.25 -0.196766 -6.94721 0
M  V30 14825 H 1422.44 0.157648 -4.67834 0
M  V30 14826 H 1422.61 -0.0344435 -6.47991 0
M  V30 14827 N 1416.02 1.56195 0.209972 0
M  V30 14828 C 1417.43 1.69811 0.775969 0
M  V30 14829 C 1417.78 0.667543 1.84495 0
M  V30 14830 O 1416.91 -0.179043 2.15658 0
M  V30 14831 C 1417.5 3.07869 1.41429 0
M  V30 14832 C 1416.06 3.233 1.92755 0
M  V30 14833 C 1415.21 2.6575 0.791958 0
M  V30 14834 H 1418.16 1.58693 -0.0148727 0
M  V30 14835 H 1418.18 3.04371 2.28339 0
M  V30 14836 H 1417.69 3.82853 0.63604 0
M  V30 14837 H 1415.79 2.53206 2.73345 0
M  V30 14838 H 1415.91 4.30645 2.09956 0
M  V30 14839 H 1414.27 2.24535 1.20234 0
M  V30 14840 H 1415.05 3.4329 0.0261877 0
M  V30 14841 N 1417.5 -0.477127 1.50204 0
M  V30 14842 C 1418.44 -1.57587 1.68626 0
M  V30 14843 C 1419.41 -1.57499 0.527576 0
M  V30 14844 O 1420.6 -1.75121 0.757438 0
M  V30 14845 C 1417.74 -2.956 1.78086 0
M  V30 14846 C 1416.85 -3.05523 3.05417 0
M  V30 14847 C 1415.99 -4.34414 3.05709 0
M  V30 14848 C 1415.03 -4.38057 4.27519 0
M  V30 14849 N 1414.16 -5.5841 4.25585 0
M  V30 14850 H 1419 -1.41185 2.62433 0
M  V30 14851 H 1416.54 -0.686537 1.30096 0
M  V30 14852 H 1418.5 -3.75626 1.81552 0
M  V30 14853 H 1417.13 -3.10651 0.877251 0
M  V30 14854 H 1416.18 -2.18409 3.11451 0
M  V30 14855 H 1417.49 -3.04075 3.95398 0
M  V30 14856 H 1416.65 -5.22782 3.07871 0
M  V30 14857 H 1415.39 -4.38462 2.13548 0
M  V30 14858 H 1414.39 -3.48087 4.25577 0
M  V30 14859 H 1415.62 -4.35705 5.20901 0
M  V30 14860 H 1413.56 -5.63255 3.36274 0
M  V30 14861 H 1413.48 -5.58677 5.09328 0
M  V30 14862 H 1414.75 -6.4892 4.31884 0
M  V30 14863 N 1418.98 -1.3968 -0.729882 0
M  V30 14864 C 1420.22 -1.37182 -1.48954 0
M  V30 14865 C 1420.55 0.0305728 -1.94476 0
M  V30 14866 O 1419.81 1.0124 -1.67478 0
M  V30 14867 C 1420.11 -2.29499 -2.7398 0
M  V30 14868 C 1419.77 -3.77034 -2.47298 0
M  V30 14869 C 1418.43 -4.17232 -2.39731 0
M  V30 14870 C 1420.79 -4.70325 -2.24597 0
M  V30 14871 C 1418.11 -5.48777 -2.07511 0
M  V30 14872 C 1420.47 -6.02153 -1.93893 0
M  V30 14873 C 1419.13 -6.41409 -1.84798 0
M  V30 14874 H 1418.4 -0.501985 -0.545061 0
M  V30 14875 H 1421.05 -1.72226 -0.837294 0
M  V30 14876 H 1419.35 -1.87592 -3.43972 0
M  V30 14877 H 1421.05 -2.24857 -3.32024 0
M  V30 14878 H 1417.64 -3.45177 -2.54069 0
M  V30 14879 H 1421.82 -4.40097 -2.29408 0
M  V30 14880 H 1417.08 -5.78109 -1.98996 0
M  V30 14881 H 1421.25 -6.73966 -1.75337 0
M  V30 14882 H 1418.88 -7.43258 -1.59598 0
M  V30 14883 N 1420.45 0.960609 -1.2494 0
M  V30 14884 C 1421.87 1.23057 -1.01633 0
M  V30 14885 C 1422.07 1.99676 0.270527 0
M  V30 14886 O 1421.13 2.32503 0.984823 0
M  V30 14887 C 1422.44 2.01078 -2.2358 0
M  V30 14888 C 1423.99 2.14144 -2.28279 0
M  V30 14889 C 1424.46 2.95563 -3.49867 0
M  V30 14890 N 1425.95 3.03143 -3.50227 0
M  V30 14891 C 1426.69 3.66518 -4.40967 0
M  V30 14892 N 1426.18 4.31553 -5.41972 0
M  V30 14893 N 1427.98 3.636 -4.28663 0
M  V30 14894 H 1420.13 0.447876 -2.07624 0
M  V30 14895 H 1422.39 0.260581 -0.911483 0
M  V30 14896 H 1422.1 1.52172 -3.17075 0
M  V30 14897 H 1421.97 3.01797 -2.2627 0
M  V30 14898 H 1424.36 2.6225 -1.35311 0
M  V30 14899 H 1424.44 1.1275 -2.29611 0
M  V30 14900 H 1424.08 2.48149 -4.43153 0
M  V30 14901 H 1424.01 3.9717 -3.45779 0
M  V30 14902 H 1426.5 2.56888 -2.77159 0
M  V30 14903 H 1426.82 4.7775 -6.07433 0
M  V30 14904 H 1425.16 4.302 -5.45851 0
M  V30 14905 H 1428.35 3.11973 -3.48985 0
M  V30 14906 H 1428.53 4.12706 -4.99578 0
M  V30 14907 N 1421.93 1.0643 1.16234 0
M  V30 14908 C 1422.84 0.687446 2.24302 0
M  V30 14909 C 1423.86 -0.297132 1.71444 0
M  V30 14910 O 1425.03 -0.146101 2.00869 0
M  V30 14911 C 1422.1 0.0810973 3.46605 0
M  V30 14912 C 1421.16 1.11772 4.14494 0
M  V30 14913 C 1420.39 0.54021 5.30959 0
M  V30 14914 O 1420.62 -0.646619 5.66723 0
M  V30 14915 O 1419.55 1.28057 5.8812 0
M  V30 14916 H 1423.38 1.58842 2.58849 0
M  V30 14917 H 1420.96 0.836649 1.23776 0
M  V30 14918 H 1422.84 -0.25524 4.20626 0
M  V30 14919 H 1421.52 -0.793338 3.13828 0
M  V30 14920 H 1420.43 1.50626 3.42436 0
M  V30 14921 H 1421.76 1.96373 4.5133 0
M  V30 14922 N 1423.41 -1.329 0.847073 0
M  V30 14923 C 1424.34 -2.31546 0.301422 0
M  V30 14924 C 1425.32 -1.59342 -0.595317 0
M  V30 14925 O 1426.51 -1.87188 -0.517151 0
M  V30 14926 C 1423.64 -3.43423 -0.517454 0
M  V30 14927 C 1422.59 -4.27055 0.284195 0
M  V30 14928 C 1421.92 -5.30624 -0.658944 0
M  V30 14929 C 1423.22 -5.00123 1.50578 0
M  V30 14930 H 1424.91 -2.77433 1.12567 0
M  V30 14931 H 1422.46 -1.3338 0.542739 0
M  V30 14932 H 1424.41 -4.11467 -0.909543 0
M  V30 14933 H 1423.13 -2.96246 -1.37499 0
M  V30 14934 H 1421.79 -3.60648 0.657944 0
M  V30 14935 H 1421.44 -4.79702 -1.51311 0
M  V30 14936 H 1421.14 -5.87464 -0.12662 0
M  V30 14937 H 1422.66 -6.01533 -1.04837 0
M  V30 14938 H 1424.08 -5.6089 1.18641 0
M  V30 14939 H 1422.48 -5.66652 1.97549 0
M  V30 14940 H 1423.55 -4.28424 2.27115 0
M  V30 14941 N 1424.89 -0.604284 -1.45555 0
M  V30 14942 C 1426.14 -0.0957836 -2.01472 0
M  V30 14943 C 1426.45 1.28016 -1.47889 0
M  V30 14944 O 1427.66 1.88121 -1.95762 0
M  V30 14945 C 1426.11 -0.120566 -3.59698 0
M  V30 14946 C 1425.72 -1.49616 -4.22278 0
M  V30 14947 C 1427.46 0.332865 -4.23193 0
M  V30 14948 C 1425.37 -1.4775 -5.72646 0
M  V30 14949 H 1424.3 -0.0320399 -0.753319 0
M  V30 14950 H 1426.95 -0.759125 -1.67061 0
M  V30 14951 H 1425.33 0.609365 -3.91283 0
M  V30 14952 H 1426.51 -2.24753 -4.02272 0
M  V30 14953 H 1424.82 -1.89141 -3.70965 0
M  V30 14954 H 1427.42 0.365951 -5.33446 0
M  V30 14955 H 1427.76 1.35487 -3.93635 0
M  V30 14956 H 1428.3 -0.343692 -3.96313 0
M  V30 14957 H 1425.04 -2.47701 -6.06898 0
M  V30 14958 H 1424.56 -0.768659 -5.94854 0
M  V30 14959 H 1426.23 -1.19971 -6.3578 0
M  V30 14960 N 1426.37 1.53816 -0.343257 0
M  V30 14961 C 1427.62 2.0009 0.254346 0
M  V30 14962 C 1427.93 1.23502 1.51679 0
M  V30 14963 O 1429.13 1.60251 2.19162 0
M  V30 14964 C 1427.59 3.56357 0.503775 0
M  V30 14965 C 1427.2 4.418 -0.742754 0
M  V30 14966 C 1428.94 4.11046 1.06025 0
M  V30 14967 C 1426.85 5.89576 -0.46414 0
M  V30 14968 H 1425.78 0.747496 0.0988189 0
M  V30 14969 H 1428.43 1.77679 -0.45854 0
M  V30 14970 H 1426.81 3.74833 1.27736 0
M  V30 14971 H 1427.99 4.35099 -1.51742 0
M  V30 14972 H 1426.3 3.98101 -1.22085 0
M  V30 14973 H 1428.9 5.19063 1.28365 0
M  V30 14974 H 1429.24 3.64247 2.01568 0
M  V30 14975 H 1429.77 3.9628 0.347384 0
M  V30 14976 H 1426.51 6.40608 -1.38928 0
M  V30 14977 H 1426.03 5.99181 0.272441 0
M  V30 14978 H 1427.71 6.46949 -0.0812761 0
M  V30 14979 N 1427.84 0.0718701 1.57436 0
M  V30 14980 C 1428.75 -0.910077 2.16229 0
M  V30 14981 C 1429.77 -1.32699 1.12548 0
M  V30 14982 O 1430.95 -1.39967 1.44814 0
M  V30 14983 C 1428.01 -2.15942 2.71238 0
M  V30 14984 C 1427.07 -1.79891 3.89792 0
M  V30 14985 C 1426.31 -2.9887 4.42168 0
M  V30 14986 O 1426.53 -4.1289 3.93545 0
M  V30 14987 O 1425.46 -2.78682 5.33498 0
M  V30 14988 H 1429.29 -0.439969 3.00496 0
M  V30 14989 H 1426.87 -0.151204 1.48633 0
M  V30 14990 H 1428.76 -2.89204 3.06494 0
M  V30 14991 H 1427.43 -2.62051 1.90029 0
M  V30 14992 H 1426.34 -1.03881 3.59388 0
M  V30 14993 H 1427.67 -1.38566 4.72293 0
M  V30 14994 N 1429.32 -1.56304 -0.201686 0
M  V30 14995 C 1430.57 -1.80237 -0.923093 0
M  V30 14996 C 1430.9 -0.643994 -1.83529 0
M  V30 14997 O 1430.15 0.370613 -1.92159 0
M  V30 14998 C 1430.45 -3.10101 -1.77686 0
M  V30 14999 C 1430.12 -4.393 -1.0162 0
M  V30 15000 C 1428.78 -4.74399 -0.806161 0
M  V30 15001 C 1431.13 -5.1898 -0.480515 0
M  V30 15002 C 1428.46 -5.8668 -0.0488423 0
M  V30 15003 C 1430.81 -6.32051 0.26356 0
M  V30 15004 C 1429.48 -6.65738 0.484679 0
M  V30 15005 H 1428.75 -0.659533 -0.337784 0
M  V30 15006 H 1431.39 -1.90556 -0.189895 0
M  V30 15007 H 1429.7 -2.9499 -2.57853 0
M  V30 15008 H 1431.39 -3.25823 -2.33753 0
M  V30 15009 H 1427.98 -4.11751 -1.18992 0
M  V30 15010 H 1432.17 -4.92283 -0.630208 0
M  V30 15011 H 1427.42 -6.11256 0.13251 0
M  V30 15012 H 1431.6 -6.93012 0.686058 0
M  V30 15013 H 1429.23 -7.52583 1.07341 0
M  V30 15014 N 1430.8 0.469154 -1.50455 0
M  V30 15015 C 1432.03 1.24899 -1.65575 0
M  V30 15016 C 1432.45 1.85009 -0.339581 0
M  V30 15017 O 1431.81 1.67376 0.696774 0
M  V30 15018 C 1431.86 2.33205 -2.75041 0
M  V30 15019 O 1430.96 3.37898 -2.36429 0
M  V30 15020 H 1430.3 0.367362 -0.553119 0
M  V30 15021 H 1432.83 0.558083 -1.96842 0
M  V30 15022 H 1432.84 2.78487 -2.98176 0
M  V30 15023 H 1431.52 1.88826 -3.70564 0
M  V30 15024 H 1430.09 2.98314 -2.23748 0
M  V30 15025 N 1432.28 1.40065 0.722464 0
M  V30 15026 C 1433.23 1.39784 1.83655 0
M  V30 15027 C 1434.2 0.255743 1.64119 0
M  V30 15028 O 1435.38 0.452766 1.8535 0
M  V30 15029 C 1432.52 1.25946 3.21297 0
M  V30 15030 C 1431.63 2.49805 3.52451 0
M  V30 15031 C 1430.77 2.2846 4.79562 0
M  V30 15032 C 1429.81 3.4793 5.03598 0
M  V30 15033 N 1428.94 3.25823 6.21919 0
M  V30 15034 H 1433.78 2.35013 1.83229 0
M  V30 15035 H 1431.32 1.16728 0.895154 0
M  V30 15036 H 1433.28 1.15931 4.00769 0
M  V30 15037 H 1431.91 0.343402 3.20968 0
M  V30 15038 H 1430.96 2.70375 2.67585 0
M  V30 15039 H 1432.27 3.38753 3.66126 0
M  V30 15040 H 1431.43 2.15758 5.67039 0
M  V30 15041 H 1430.17 1.36926 4.68084 0
M  V30 15042 H 1429.17 3.61116 4.14579 0
M  V30 15043 H 1430.4 4.40382 5.16953 0
M  V30 15044 H 1428.34 2.36965 6.11705 0
M  V30 15045 H 1428.26 4.08333 6.36239 0
M  V30 15046 H 1429.53 3.16841 7.12202 0
M  V30 15047 N 1433.76 -0.95397 1.25448 0
M  V30 15048 C 1434.69 -2.05019 1.00212 0
M  V30 15049 C 1435.67 -1.62454 -0.0688563 0
M  V30 15050 O 1436.85 -1.88366 0.0709352 0
M  V30 15051 C 1433.98 -3.34762 0.514987 0
M  V30 15052 C 1433.03 -3.9629 1.57659 0
M  V30 15053 S 1433.86 -4.32181 3.16196 0
M  V30 15054 C 1435.01 -5.65041 2.6922 0
M  V30 15055 H 1435.25 -2.26111 1.93032 0
M  V30 15056 H 1432.78 -1.09369 1.08985 0
M  V30 15057 H 1434.74 -4.09794 0.24058 0
M  V30 15058 H 1433.4 -3.11635 -0.392724 0
M  V30 15059 H 1432.59 -4.89836 1.18647 0
M  V30 15060 H 1432.19 -3.27741 1.80171 0
M  V30 15061 H 1434.49 -6.43184 2.12887 0
M  V30 15062 H 1435.43 -6.08925 3.61408 0
M  V30 15063 H 1435.84 -5.24306 2.09196 0
M  V30 15064 N 1435.24 -1.07045 -1.15668 0
M  V30 15065 C 1436.2 -0.69198 -2.18505 0
M  V30 15066 C 1437.2 0.266185 -1.58582 0
M  V30 15067 O 1438.39 0.0475566 -1.74135 0
M  V30 15068 C 1435.52 -0.0194196 -3.40894 0
M  V30 15069 H 1436.71 -1.60241 -2.53501 0
M  V30 15070 H 1434.27 -0.866598 -1.30076 0
M  V30 15071 H 1435 0.903398 -3.11463 0
M  V30 15072 H 1434.79 -0.708519 -3.85645 0
M  V30 15073 H 1436.28 0.230829 -4.16962 0
M  V30 15074 N 1436.71 1.32449 -0.85411 0
M  V30 15075 C 1438.13 1.50046 -0.543895 0
M  V30 15076 C 1438.33 1.78985 0.925561 0
M  V30 15077 O 1437.39 1.85909 1.70862 0
M  V30 15078 C 1438.7 2.64499 -1.43041 0
M  V30 15079 C 1440.25 2.78384 -1.43078 0
M  V30 15080 C 1440.72 3.95915 -2.3025 0
M  V30 15081 N 1442.21 4.03176 -2.28043 0
M  V30 15082 C 1442.95 4.9335 -2.92221 0
M  V30 15083 N 1442.44 5.88536 -3.6551 0
M  V30 15084 N 1444.24 4.86468 -2.81612 0
M  V30 15085 H 1436.39 1.11931 -1.80514 0
M  V30 15086 H 1438.65 0.551626 -0.770982 0
M  V30 15087 H 1438.36 2.49842 -2.47532 0
M  V30 15088 H 1438.23 3.60269 -1.11742 0
M  V30 15089 H 1440.62 2.92464 -0.393529 0
M  V30 15090 H 1440.7 1.83329 -1.78393 0
M  V30 15091 H 1440.34 3.82594 -3.34043 0
M  V30 15092 H 1440.27 4.90245 -1.92268 0
M  V30 15093 H 1442.76 3.35064 -1.74759 0
M  V30 15094 H 1443.08 6.54038 -4.11648 0
M  V30 15095 H 1441.42 5.88564 -3.69618 0
M  V30 15096 H 1444.61 4.11076 -2.23907 0
M  V30 15097 H 1444.79 5.56542 -3.3191 0
M  V30 15098 N 1438.19 0.611994 1.45232 0
M  V30 15099 C 1439.47 0.0407 1.95558 0
M  V30 15100 C 1439.85 -1.42839 1.55436 0
M  V30 15101 O 1439.2 -2.13316 0.819055 0
M  V30 15102 C 1439.41 0.243436 3.4815 0
M  V30 15103 C 1440.75 0.126551 4.24411 0
M  V30 15104 O 1441.78 0.17379 3.55776 0
M  V30 15105 O 1440.64 0.0153526 5.46498 0
M  V30 15106 H 1437.73 -0.0332288 0.826332 0
M  V30 15107 H 1440.28 0.682364 1.55377 0
M  V30 15108 H 1439.05 1.26357 3.70337 0
M  V30 15109 H 1438.67 -0.43328 3.95232 0
M  V30 15110 N 1439.67 -1.53632 0.351409 0
M  V30 15111 C 1441.08 -1.86241 -0.130834 0
M  V30 15112 C 1441.43 -1.27243 -1.49344 0
M  V30 15113 O 1440.56 -0.589006 -2.0823 0
M  V30 15114 C 1441.15 -3.37919 -0.244179 0
M  V30 15115 C 1439.71 -3.70377 -0.670662 0
M  V30 15116 C 1438.86 -2.76643 0.190813 0
M  V30 15117 H 1441.81 -1.48083 0.570724 0
M  V30 15118 H 1441.83 -3.65137 -1.07029 0
M  V30 15119 H 1441.34 -3.8083 0.747688 0
M  V30 15120 H 1439.44 -3.33015 -1.67127 0
M  V30 15121 H 1439.56 -4.76934 -0.455102 0
M  V30 15122 H 1437.92 -2.52446 -0.338092 0
M  V30 15123 H 1438.7 -3.22385 1.17996 0
M  V30 15124 N 1441.15 -0.0802183 -1.57396 0
M  V30 15125 C 1442.08 0.913777 -2.10197 0
M  V30 15126 C 1443.09 1.25588 -1.03593 0
M  V30 15127 O 1444.28 1.21159 -1.31083 0
M  V30 15128 C 1441.38 2.2272 -2.55439 0
M  V30 15129 C 1440.55 2.06268 -3.8571 0
M  V30 15130 C 1439.61 3.20989 -4.16956 0
M  V30 15131 O 1438.64 2.95608 -4.8642 0
M  V30 15132 N 1439.84 4.46331 -3.71172 0
M  V30 15133 H 1442.61 0.462908 -2.96103 0
M  V30 15134 H 1440.17 0.105287 -1.61557 0
M  V30 15135 H 1442.16 2.98389 -2.73397 0
M  V30 15136 H 1440.73 2.59278 -1.74624 0
M  V30 15137 H 1439.95 1.15016 -3.77048 0
M  V30 15138 H 1441.24 1.92535 -4.70965 0
M  V30 15139 H 1440.64 4.69837 -3.15071 0
M  V30 15140 H 1439.19 5.18999 -3.94314 0
M  V30 15141 N 1442.63 1.56409 0.193394 0
M  V30 15142 C 1444.04 1.50032 0.544298 0
M  V30 15143 C 1444.24 0.780546 1.85768 0
M  V30 15144 O 1443.3 0.331769 2.50311 0
M  V30 15145 C 1444.61 2.94705 0.597463 0
M  V30 15146 C 1446.16 3.05386 0.686179 0
M  V30 15147 C 1446.63 4.51473 0.770439 0
M  V30 15148 N 1448.12 4.55631 0.833921 0
M  V30 15149 C 1448.86 5.65982 0.919314 0
M  V30 15150 N 1448.36 6.8602 0.966904 0
M  V30 15151 N 1450.15 5.539 0.956634 0
M  V30 15152 H 1442.3 2.01619 -0.668096 0
M  V30 15153 H 1444.56 0.917589 -0.238191 0
M  V30 15154 H 1444.27 3.50431 -0.298509 0
M  V30 15155 H 1444.14 3.48151 1.45157 0
M  V30 15156 H 1446.53 2.49708 1.57258 0
M  V30 15157 H 1446.61 2.55062 -0.194165 0
M  V30 15158 H 1446.25 5.07777 -0.111619 0
M  V30 15159 H 1446.18 4.99531 1.66661 0
M  V30 15160 H 1448.68 3.69198 0.80632 0
M  V30 15161 H 1448.99 7.6587 1.03262 0
M  V30 15162 H 1447.33 6.88674 0.935552 0
M  V30 15163 H 1450.52 4.59044 0.916304 0
M  V30 15164 H 1450.7 6.39926 1.01972 0
M  V30 15165 N 1444.1 -0.461169 1.50702 0
M  V30 15166 C 1445.33 -1.23375 1.65717 0
M  V30 15167 C 1445.74 -1.86047 0.343992 0
M  V30 15168 O 1445.08 -1.70447 -0.68508 0
M  V30 15169 C 1445.15 -2.3758 2.69808 0
M  V30 15170 C 1444.81 -1.95467 4.13088 0
M  V30 15171 C 1445.81 -1.47154 4.9864 0
M  V30 15172 C 1443.49 -2.03885 4.5906 0
M  V30 15173 C 1445.49 -1.07815 6.28215 0
M  V30 15174 C 1443.17 -1.64157 5.88639 0
M  V30 15175 C 1444.17 -1.16201 6.73043 0
M  V30 15176 O 1443.86 -0.770282 8.00201 0
M  V30 15177 H 1443.59 -0.378885 0.559841 0
M  V30 15178 H 1446.15 -0.555712 1.9774 0
M  V30 15179 H 1444.38 -3.08586 2.33049 0
M  V30 15180 H 1446.06 -2.99517 2.73942 0
M  V30 15181 H 1446.83 -1.40064 4.64335 0
M  V30 15182 H 1442.71 -2.40159 3.93503 0
M  V30 15183 H 1446.25 -0.703139 6.94047 0
M  V30 15184 H 1442.15 -1.70909 6.22463 0
M  V30 15185 H 1442.92 -0.898254 8.13556 0
M  V30 15186 N 1445.58 -1.40446 -0.715026 0
M  V30 15187 C 1446.51 -1.43511 -1.84193 0
M  V30 15188 C 1447.49 -0.295969 -1.67505 0
M  V30 15189 O 1448.68 -0.504667 -1.87528 0
M  V30 15190 C 1445.81 -1.29751 -3.22152 0
M  V30 15191 C 1444.76 -2.41274 -3.53512 0
M  V30 15192 C 1444.09 -2.12591 -4.90621 0
M  V30 15193 C 1445.39 -3.83614 -3.54454 0
M  V30 15194 H 1447.08 -2.37819 -1.81885 0
M  V30 15195 H 1444.63 -1.14469 -0.873655 0
M  V30 15196 H 1446.58 -1.30511 -4.0068 0
M  V30 15197 H 1445.3 -0.319189 -3.25037 0
M  V30 15198 H 1443.96 -2.39764 -2.77324 0
M  V30 15199 H 1443.61 -1.13148 -4.90109 0
M  V30 15200 H 1443.31 -2.87308 -5.1257 0
M  V30 15201 H 1444.84 -2.15034 -5.71483 0
M  V30 15202 H 1446.25 -3.86945 -4.23021 0
M  V30 15203 H 1444.65 -4.57855 -3.87929 0
M  V30 15204 H 1445.72 -4.13159 -2.53827 0
M  V30 15205 N 1447.06 0.947303 -1.25952 0
M  V30 15206 C 1448.31 1.6953 -1.11299 0
M  V30 15207 C 1448.64 1.9113 0.343961 0
M  V30 15208 O 1447.91 1.48755 1.25309 0
M  V30 15209 C 1448.2 3.0738 -1.87588 0
M  V30 15210 C 1448.05 2.93145 -3.41154 0
M  V30 15211 C 1449.37 4.07396 -1.66483 0
M  V30 15212 H 1446.49 0.615281 -0.405707 0
M  V30 15213 H 1449.13 1.10064 -1.54874 0
M  V30 15214 H 1447.28 3.58143 -1.50553 0
M  V30 15215 H 1448.95 2.49651 -3.87907 0
M  V30 15216 H 1447.19 2.28902 -3.68492 0
M  V30 15217 H 1447.87 3.9089 -3.89755 0
M  V30 15218 H 1450.34 3.65572 -1.98738 0
M  V30 15219 H 1449.22 5.01876 -2.22287 0
M  V30 15220 H 1449.48 4.379 -0.607916 0
M  V30 15221 N 1448.54 1.07657 1.15099 0
M  V30 15222 C 1449.79 0.796589 1.85303 0
M  V30 15223 C 1450.1 -0.679887 1.83404 0
M  V30 15224 O 1451.31 -1.07475 2.49322 0
M  V30 15225 C 1449.76 1.37495 3.326 0
M  V30 15226 C 1449.37 2.88267 3.42938 0
M  V30 15227 C 1451.11 1.17313 4.07968 0
M  V30 15228 C 1449.02 3.39278 4.84401 0
M  V30 15229 H 1447.95 0.294316 0.694186 0
M  V30 15230 H 1450.6 1.29702 1.29806 0
M  V30 15231 H 1448.98 0.802248 3.87789 0
M  V30 15232 H 1450.16 3.51608 2.9784 0
M  V30 15233 H 1448.47 3.07275 2.81018 0
M  V30 15234 H 1451.07 1.52899 5.12373 0
M  V30 15235 H 1451.41 0.112387 4.16148 0
M  V30 15236 H 1451.95 1.71236 3.59059 0
M  V30 15237 H 1448.69 4.44892 4.81406 0
M  V30 15238 H 1448.21 2.80692 5.30068 0
M  V30 15239 H 1449.88 3.35416 5.53267 0
M  V30 15240 N 1450.02 -1.31994 0.861122 0
M  V30 15241 C 1450.95 -2.27632 0.267681 0
M  V30 15242 C 1451.96 -1.52709 -0.564265 0
M  V30 15243 O 1453.15 -1.74239 -0.3877 0
M  V30 15244 C 1450.25 -3.32805 -0.639856 0
M  V30 15245 C 1449.42 -4.37116 0.157676 0
M  V30 15246 C 1448.48 -5.21832 -0.676624 0
M  V30 15247 O 1447.51 -5.69098 -0.107822 0
M  V30 15248 N 1448.71 -5.45317 -1.99022 0
M  V30 15249 H 1451.48 -2.79195 1.0895 0
M  V30 15250 H 1449.04 -1.44923 0.721733 0
M  V30 15251 H 1451.03 -3.86391 -1.20348 0
M  V30 15252 H 1449.6 -2.81351 -1.36236 0
M  V30 15253 H 1448.82 -3.83724 0.902741 0
M  V30 15254 H 1450.11 -5.03889 0.70524 0
M  V30 15255 H 1449.5 -5.08656 -2.47558 0
M  V30 15256 H 1448.06 -6.01874 -2.50182 0
M  V30 15257 N 1451.49 -0.619688 -1.44906 0
M  V30 15258 C 1452.74 -0.119397 -2.01747 0
M  V30 15259 C 1453.06 1.25904 -1.48907 0
M  V30 15260 O 1452.33 1.83417 -0.688104 0
M  V30 15261 H 1450.91 -0.0411482 -0.745866 0
M  V30 15262 H 1453.58 -0.803813 -1.77552 0
M  V30 15263 H 1452.67 -0.078368 -3.12002 0
M  V30 15264 N 1452.97 1.53444 -0.359552 0
M  V30 15265 C 1454.25 1.93467 0.288106 0
M  V30 15266 C 1454.63 1.29256 1.66901 0
M  V30 15267 O 1453.98 0.449402 2.24037 0
M  V30 15268 C 1454.19 3.47297 0.344359 0
M  V30 15269 C 1455.54 4.20515 0.587585 0
M  V30 15270 O 1456.56 3.53646 0.425818 0
M  V30 15271 O 1455.42 5.39003 0.902119 0
M  V30 15272 H 1452.51 0.809033 0.171451 0
M  V30 15273 H 1455.06 1.64625 -0.411896 0
M  V30 15274 H 1453.83 3.86292 -0.624064 0
M  V30 15275 H 1453.45 3.82353 1.0905 0
M  V30 15276 N 1454.45 0.0885642 1.57351 0
M  V30 15277 C 1455.36 -0.887092 2.17182 0
M  V30 15278 C 1456.38 -1.31498 1.13949 0
M  V30 15279 O 1457.55 -1.38424 1.4629 0
M  V30 15280 C 1454.62 -2.13053 2.73513 0
M  V30 15281 C 1453.68 -1.75747 3.91678 0
M  V30 15282 C 1452.91 -2.94163 4.45313 0
M  V30 15283 O 1453.13 -4.08693 3.97903 0
M  V30 15284 O 1452.07 -2.73008 5.36424 0
M  V30 15285 H 1455.89 -0.408073 3.00946 0
M  V30 15286 H 1453.48 -0.135431 1.48785 0
M  V30 15287 H 1455.36 -2.85937 3.09545 0
M  V30 15288 H 1454.04 -2.6002 1.92798 0
M  V30 15289 H 1452.94 -1.00064 3.60469 0
M  V30 15290 H 1454.28 -1.33549 4.73736 0
M  V30 15291 N 1455.93 -1.56509 -0.185096 0
M  V30 15292 C 1457.34 -1.50318 -0.536334 0
M  V30 15293 C 1457.54 -0.790387 -1.85351 0
M  V30 15294 O 1456.6 -0.345039 -2.50131 0
M  V30 15295 C 1457.91 -2.95017 -0.581825 0
M  V30 15296 C 1459.46 -3.05746 -0.669974 0
M  V30 15297 C 1459.94 -4.51876 -0.746485 0
M  V30 15298 N 1461.43 -4.56067 -0.809746 0
M  V30 15299 C 1462.16 -5.66462 -0.889286 0
M  V30 15300 N 1461.66 -6.86523 -0.930509 0
M  V30 15301 N 1463.45 -5.54399 -0.927246 0
M  V30 15302 H 1455.6 -2.01262 0.678778 0
M  V30 15303 H 1457.87 -0.916313 0.243054 0
M  V30 15304 H 1457.57 -3.50268 0.317089 0
M  V30 15305 H 1457.45 -3.48916 -1.43309 0
M  V30 15306 H 1459.83 -2.50538 -1.55932 0
M  V30 15307 H 1459.91 -2.54955 0.207689 0
M  V30 15308 H 1459.56 -5.07711 0.138546 0
M  V30 15309 H 1459.49 -5.00408 -1.6401 0
M  V30 15310 H 1461.98 -3.6962 -0.786729 0
M  V30 15311 H 1462.29 -7.66407 -0.991992 0
M  V30 15312 H 1460.64 -6.89161 -0.899017 0
M  V30 15313 H 1463.83 -4.59524 -0.891947 0
M  V30 15314 H 1464 -6.40458 -0.985773 0
M  V30 15315 N 1457.41 0.45317 -1.50944 0
M  V30 15316 C 1458.34 1.56825 -1.65775 0
M  V30 15317 C 1459.32 1.54542 -0.505515 0
M  V30 15318 O 1460.5 1.73902 -0.727336 0
M  V30 15319 C 1457.63 2.95411 -1.65681 0
M  V30 15320 C 1456.67 3.1578 -2.8668 0
M  V30 15321 S 1457.51 2.93763 -4.47731 0
M  V30 15322 C 1458.66 4.34659 -4.50358 0
M  V30 15323 H 1458.9 1.44008 -2.60094 0
M  V30 15324 H 1456.43 0.64177 -1.4043 0
M  V30 15325 H 1458.39 3.75301 -1.66311 0
M  V30 15326 H 1457.05 3.05603 -0.725659 0
M  V30 15327 H 1456.24 4.17066 -2.8297 0
M  V30 15328 H 1455.84 2.4369 -2.8371 0
M  V30 15329 H 1458.14 5.27599 -4.25024 0
M  V30 15330 H 1459.08 4.43408 -5.52082 0
M  V30 15331 H 1459.49 4.17575 -3.79857 0
M  V30 15332 N 1458.88 1.40823 0.707568 0
M  V30 15333 C 1459.83 1.38198 1.81343 0
M  V30 15334 C 1460.82 0.258234 1.58814 0
M  V30 15335 O 1462.01 0.497972 1.69851 0
M  V30 15336 C 1459.14 1.25483 3.19545 0
M  V30 15337 C 1458.23 2.42672 3.47809 0
M  V30 15338 N 1458.62 3.6815 3.46842 0
M  V30 15339 C 1456.91 2.36225 3.78304 0
M  V30 15340 C 1457.62 4.45805 3.73675 0
M  V30 15341 N 1456.59 3.75753 3.92824 0
M  V30 15342 H 1460.39 2.33147 1.7894 0
M  V30 15343 H 1457.91 1.34709 0.907044 0
M  V30 15344 H 1459.9 1.21684 3.98746 0
M  V30 15345 H 1458.56 0.315081 3.23168 0
M  V30 15346 H 1459.58 4.01201 3.27503 0
M  V30 15347 H 1456.25 1.50659 3.89369 0
M  V30 15348 H 1457.64 5.54692 3.79165 0
M  V30 15349 N 1460.36 -0.94061 1.26453 0
M  V30 15350 C 1461.29 -2.05667 1.10559 0
M  V30 15351 C 1462.27 -1.70097 0.0106258 0
M  V30 15352 O 1463.46 -1.93338 0.182756 0
M  V30 15353 C 1460.59 -3.3936 0.7384 0
M  V30 15354 C 1459.54 -3.88993 1.78517 0
M  V30 15355 C 1458.87 -5.19343 1.27228 0
M  V30 15356 C 1460.17 -4.13812 3.1868 0
M  V30 15357 H 1461.86 -2.19221 2.03918 0
M  V30 15358 H 1459.41 -1.05339 0.98182 0
M  V30 15359 H 1461.36 -4.16902 0.61409 0
M  V30 15360 H 1460.09 -3.25783 -0.230887 0
M  V30 15361 H 1458.74 -3.13633 1.89816 0
M  V30 15362 H 1458.39 -5.02147 0.292816 0
M  V30 15363 H 1458.09 -5.53521 1.97201 0
M  V30 15364 H 1459.62 -5.99468 1.16065 0
M  V30 15365 H 1461.03 -4.81966 3.10455 0
M  V30 15366 H 1459.43 -4.59273 3.86249 0
M  V30 15367 H 1460.5 -3.19571 3.64695 0
M  V30 15368 N 1461.84 -1.08266 -1.14527 0
M  V30 15369 C 1463.25 -0.832702 -1.67102 0
M  V30 15370 C 1463.6 0.640776 -1.85441 0
M  V30 15371 O 1462.73 1.49505 -1.56452 0
M  V30 15372 C 1463.32 -1.50502 -3.03537 0
M  V30 15373 C 1461.88 -1.30234 -3.53152 0
M  V30 15374 C 1461.03 -1.56873 -2.28661 0
M  V30 15375 H 1463.98 -1.24344 -0.986118 0
M  V30 15376 H 1464 -0.931426 -3.68924 0
M  V30 15377 H 1463.51 -2.57741 -2.90157 0
M  V30 15378 H 1461.61 -0.250582 -3.71756 0
M  V30 15379 H 1461.73 -2.02898 -4.34015 0
M  V30 15380 H 1460.09 -0.990214 -2.34663 0
M  V30 15381 H 1460.87 -2.65316 -2.17859 0
M  V30 15382 N 1463.32 1.31536 -0.86811 0
M  V30 15383 C 1464.54 2.01487 -0.491705 0
M  V30 15384 C 1464.97 1.64744 0.907803 0
M  V30 15385 O 1464.33 0.855093 1.59868 0
M  V30 15386 C 1464.38 3.54621 -0.65395 0
M  V30 15387 O 1463.48 4.11252 0.307532 0
M  V30 15388 H 1462.82 0.634469 -0.195819 0
M  V30 15389 H 1465.35 1.67775 -1.17101 0
M  V30 15390 H 1465.36 4.04323 -0.546539 0
M  V30 15391 H 1464.04 3.80704 -1.67443 0
M  V30 15392 H 1462.61 3.72577 0.155233 0
M  V30 15393 N 1464.8 0.627364 1.44575 0
M  V30 15394 C 1466.21 0.213149 1.85479 0
M  V30 15395 C 1466.56 -1.23458 1.52488 0
M  V30 15396 O 1465.68 -1.93885 0.961115 0
M  V30 15397 C 1466.28 0.380063 3.36661 0
M  V30 15398 C 1464.84 0.020385 3.76394 0
M  V30 15399 C 1463.99 0.695225 2.68444 0
M  V30 15400 H 1466.94 0.832771 1.35095 0
M  V30 15401 H 1466.96 -0.382078 3.78577 0
M  V30 15402 H 1466.47 1.43383 3.60642 0
M  V30 15403 H 1464.57 -1.03179 3.58029 0
M  V30 15404 H 1464.68 0.42782 4.77186 0
M  V30 15405 H 1463.05 0.130898 2.54363 0
M  V30 15406 H 1463.83 1.75151 2.95257 0
M  V30 15407 N 1466.28 -1.53251 0.367684 0
M  V30 15408 C 1467.5 -2.05705 -0.222047 0
M  V30 15409 C 1467.92 -1.24104 -1.4228 0
M  V30 15410 O 1467.28 -0.282228 -1.80305 0
M  V30 15411 C 1467.33 -3.56257 -0.613475 0
M  V30 15412 O 1467.05 -4.34765 0.539558 0
M  V30 15413 C 1468.55 -4.24976 -1.26137 0
M  V30 15414 H 1465.77 -0.66989 -0.0385799 0
M  V30 15415 H 1468.31 -1.97602 0.526663 0
M  V30 15416 H 1466.47 -3.64503 -1.3121 0
M  V30 15417 H 1466.88 -5.24027 0.222699 0
M  V30 15418 H 1468.36 -5.31628 -1.4858 0
M  V30 15419 H 1468.83 -3.78828 -2.2223 0
M  V30 15420 H 1469.44 -4.20987 -0.604121 0
M  V30 15421 N 1467.75 -0.0969077 -1.57302 0
M  V30 15422 C 1469.03 0.608737 -1.85886 0
M  V30 15423 C 1469.41 1.86228 -0.994096 0
M  V30 15424 O 1468.76 2.28402 -0.0669975 0
M  V30 15425 C 1468.97 0.922385 -3.3659 0
M  V30 15426 C 1470.32 1.28505 -4.04687 0
M  V30 15427 O 1471.34 1.01334 -3.41482 0
M  V30 15428 O 1470.2 1.794 -5.16215 0
M  V30 15429 H 1467.29 0.304808 -0.768779 0
M  V30 15430 H 1469.84 -0.129742 -1.69203 0
M  V30 15431 H 1468.61 0.0331488 -3.91286 0
M  V30 15432 H 1468.23 1.71678 -3.58626 0
M  V30 15433 N 1469.23 1.56605 0.176793 0
M  V30 15434 C 1470.46 1.8617 0.91408 0
M  V30 15435 C 1470.88 0.68262 1.75277 0
M  V30 15436 O 1470.24 -0.368391 1.77518 0
M  V30 15437 C 1470.29 3.14109 1.7711 0
M  V30 15438 O 1469.39 2.95947 2.87209 0
M  V30 15439 H 1468.73 0.612507 0.25638 0
M  V30 15440 H 1471.26 2.03837 0.176586 0
M  V30 15441 H 1471.27 3.45373 2.17213 0
M  V30 15442 H 1469.95 3.9954 1.15502 0
M  V30 15443 H 1468.52 2.76024 2.50729 0
M  V30 15444 N 1470.71 -0.445159 1.51182 0
M  V30 15445 C 1471.66 -1.5604 1.72494 0
M  V30 15446 C 1472.65 -1.58753 0.591101 0
M  V30 15447 O 1473.86 -1.62591 0.772285 0
M  V30 15448 H 1470.23 -0.518265 0.544891 0
M  V30 15449 H 1472.2 -1.35237 2.65995 0
M  V30 15450 C 1470.95 -2.93768 1.85999 0
M  V30 15451 H 1470.28 -2.9241 2.72647 0
M  V30 15452 H 1471.72 -3.71189 2.04926 0
M  V30 15453 C 1470.17 -3.31186 0.617853 0
M  V30 15454 O 1470.7 -4.01035 -0.231101 0
M  V30 15455 N 1468.91 -2.86868 0.464234 0
M  V30 15456 H 1468.46 -2.30198 1.15614 0
M  V30 15457 H 1468.42 -3.12267 -0.365643 0
M  V30 15458 N 1472.19 -1.41197 -0.700089 0
M  V30 15459 C 1473.43 -1.40311 -1.46011 0
M  V30 15460 C 1473.76 -0.0106853 -1.94497 0
M  V30 15461 O 1473.02 0.976648 -1.69588 0
M  V30 15462 C 1473.32 -2.35259 -2.6905 0
M  V30 15463 C 1472.98 -3.82194 -2.39245 0
M  V30 15464 C 1471.64 -4.22223 -2.30827 0
M  V30 15465 C 1474 -4.74983 -2.1457 0
M  V30 15466 C 1471.32 -5.53055 -1.95824 0
M  V30 15467 C 1473.68 -6.0613 -1.81077 0
M  V30 15468 C 1472.34 -6.45185 -1.71151 0
M  V30 15469 H 1471.61 -0.513434 -0.534291 0
M  V30 15470 H 1474.26 -1.73963 -0.800574 0
M  V30 15471 H 1472.56 -1.94845 -3.39915 0
M  V30 15472 H 1474.26 -2.31849 -3.2718 0
M  V30 15473 H 1470.85 -3.50488 -2.4669 0
M  V30 15474 H 1475.03 -4.44864 -2.20021 0
M  V30 15475 H 1470.29 -5.822 -1.86689 0
M  V30 15476 H 1474.46 -6.77533 -1.61002 0
M  V30 15477 H 1472.09 -7.46476 -1.43796 0
M  V30 15478 N 1473.67 0.933891 -1.2695 0
M  V30 15479 C 1474.9 1.71263 -1.15553 0
M  V30 15480 C 1475.3 1.86948 0.291059 0
M  V30 15481 O 1474.65 1.38173 1.21053 0
M  V30 15482 C 1474.71 3.13479 -1.75986 0
M  V30 15483 C 1474.37 3.21154 -3.2513 0
M  V30 15484 C 1475.37 3.03874 -4.21849 0
M  V30 15485 C 1473.05 3.44311 -3.65726 0
M  V30 15486 C 1475.05 3.09631 -5.57142 0
M  V30 15487 C 1472.74 3.49702 -5.01151 0
M  V30 15488 C 1473.73 3.32379 -5.96668 0
M  V30 15489 O 1473.42 3.37493 -7.29626 0
M  V30 15490 H 1473.15 0.542801 -0.402918 0
M  V30 15491 H 1475.71 1.17877 -1.68209 0
M  V30 15492 H 1473.94 3.6832 -1.178 0
M  V30 15493 H 1475.63 3.73295 -1.59391 0
M  V30 15494 H 1476.39 2.85832 -3.91823 0
M  V30 15495 H 1472.27 3.56847 -2.91859 0
M  V30 15496 H 1475.82 2.96028 -6.31675 0
M  V30 15497 H 1471.71 3.67267 -5.30835 0
M  V30 15498 H 1472.48 3.53988 -7.37994 0
M  V30 15499 N 1475.14 1.08871 1.13951 0
M  V30 15500 C 1476.56 0.817282 1.37086 0
M  V30 15501 C 1476.76 -0.571159 1.93236 0
M  V30 15502 O 1475.82 -1.32708 2.14813 0
M  V30 15503 C 1477.13 1.90386 2.32752 0
M  V30 15504 C 1478.68 1.93043 2.46381 0
M  V30 15505 C 1479.15 3.00828 3.4535 0
M  V30 15506 N 1480.64 3.0003 3.52897 0
M  V30 15507 C 1481.38 3.80073 4.29339 0
M  V30 15508 N 1480.87 4.70008 5.08984 0
M  V30 15509 N 1482.67 3.68355 4.24583 0
M  V30 15510 H 1474.82 1.98393 0.758537 0
M  V30 15511 H 1477.08 0.861229 0.396219 0
M  V30 15512 H 1476.79 2.90233 1.9864 0
M  V30 15513 H 1476.66 1.77722 3.32708 0
M  V30 15514 H 1479.05 0.938382 2.79783 0
M  V30 15515 H 1479.13 2.09785 1.4637 0
M  V30 15516 H 1478.77 4.00242 3.1268 0
M  V30 15517 H 1478.7 2.8133 4.45153 0
M  V30 15518 H 1481.19 2.3485 2.96064 0
M  V30 15519 H 1481.51 5.27678 5.64602 0
M  V30 15520 H 1479.85 4.74047 5.08236 0
M  V30 15521 H 1483.04 2.9746 3.61435 0
M  V30 15522 H 1483.22 4.30974 4.83906 0
M  V30 15523 N 1476.62 -1.31073 0.875073 0
M  V30 15524 C 1477.58 -2.26672 0.339481 0
M  V30 15525 C 1478.58 -1.52416 -0.512439 0
M  V30 15526 O 1479.77 -1.71217 -0.321012 0
M  V30 15527 C 1476.91 -3.36952 -0.517311 0
M  V30 15528 H 1478.1 -2.7556 1.18349 0
M  V30 15529 H 1475.65 -1.42093 0.65109 0
M  V30 15530 H 1476.39 -2.93364 -1.38231 0
M  V30 15531 H 1476.17 -3.9199 0.092773 0
M  V30 15532 H 1477.66 -4.08133 -0.884154 0
M  V30 15533 N 1478.1 -0.635022 -1.4424 0
M  V30 15534 C 1479.03 0.0543561 -2.33437 0
M  V30 15535 C 1480.01 0.830807 -1.48431 0
M  V30 15536 O 1481.2 0.795913 -1.77141 0
M  V30 15537 C 1478.33 1.03391 -3.31553 0
M  V30 15538 C 1477.28 0.368824 -4.26408 0
M  V30 15539 C 1476.61 1.45855 -5.14422 0
M  V30 15540 C 1477.91 -0.727381 -5.1721 0
M  V30 15541 H 1479.6 -0.690489 -2.91329 0
M  V30 15542 H 1477.15 -0.3335 -1.40085 0
M  V30 15543 H 1479.1 1.52495 -3.9284 0
M  V30 15544 H 1477.82 1.80969 -2.71878 0
M  V30 15545 H 1476.48 -0.101605 -3.66459 0
M  V30 15546 H 1476.13 2.22531 -4.51098 0
M  V30 15547 H 1475.83 1.0189 -5.78699 0
M  V30 15548 H 1477.35 1.95132 -5.78581 0
M  V30 15549 H 1478.77 -0.319272 -5.7241 0
M  V30 15550 H 1477.17 -1.09041 -5.9011 0
M  V30 15551 H 1478.24 -1.59292 -4.57989 0
M  V30 15552 N 1479.58 1.53054 -0.375806 0
M  V30 15553 C 1480.51 2.22437 0.509628 0
M  V30 15554 C 1481.49 1.22005 1.07488 0
M  V30 15555 O 1482.67 1.50944 1.12907 0
M  V30 15556 C 1479.8 2.92707 1.70412 0
M  V30 15557 C 1478.85 4.07296 1.26538 0
M  V30 15558 S 1479.68 5.34877 0.258143 0
M  V30 15559 C 1480.84 6.08664 1.45873 0
M  V30 15560 H 1481.07 2.97193 -0.0795937 0
M  V30 15561 H 1478.6 1.53569 -0.159942 0
M  V30 15562 H 1480.56 3.33805 2.38924 0
M  V30 15563 H 1479.22 2.17655 2.26462 0
M  V30 15564 H 1478.41 4.55516 2.15687 0
M  V30 15565 H 1478.02 3.68142 0.659356 0
M  V30 15566 H 1480.31 6.34016 2.38808 0
M  V30 15567 H 1481.25 7.00748 1.01772 0
M  V30 15568 H 1481.66 5.3925 1.66942 0
M  V30 15569 N 1481.06 0.105248 1.57248 0
M  V30 15570 C 1482.33 -0.598871 1.86207 0
M  V30 15571 C 1482.71 -1.85698 1.00396 0
M  V30 15572 O 1482.06 -2.28363 0.0791093 0
M  V30 15573 C 1482.27 -0.904522 3.37075 0
M  V30 15574 C 1483.62 -1.26357 4.05363 0
M  V30 15575 O 1484.64 -0.99522 3.42014 0
M  V30 15576 O 1483.5 -1.76659 5.17159 0
M  V30 15577 H 1480.6 -0.300727 0.770384 0
M  V30 15578 H 1483.14 0.138713 1.69132 0
M  V30 15579 H 1481.91 -0.0123974 3.91298 0
M  V30 15580 H 1481.54 -1.69774 3.59531 0
M  V30 15581 N 1482.53 -1.56697 -0.168486 0
M  V30 15582 C 1483.44 -1.99866 -1.22845 0
M  V30 15583 C 1484.46 -0.910491 -1.48277 0
M  V30 15584 O 1485.64 -1.21834 -1.6037 0
M  V30 15585 C 1482.7 -2.35227 -2.54694 0
M  V30 15586 C 1481.76 -3.57886 -2.37099 0
M  V30 15587 C 1481 -3.91551 -3.62661 0
M  V30 15588 O 1481.22 -3.26148 -4.67957 0
M  V30 15589 O 1480.15 -4.8489 -3.56603 0
M  V30 15590 H 1483.98 -2.90305 -0.892015 0
M  V30 15591 H 1481.56 -1.44602 -0.375571 0
M  V30 15592 H 1483.45 -2.58928 -3.32467 0
M  V30 15593 H 1482.12 -1.4795 -2.87911 0
M  V30 15594 H 1481.03 -3.394 -1.57348 0
M  V30 15595 H 1482.36 -4.45714 -2.08806 0
M  V30 15596 N 1484.01 0.437135 -1.51416 0
M  V30 15597 C 1484.92 1.55581 -1.75589 0
M  V30 15598 C 1485.94 1.61797 -0.640132 0
M  V30 15599 O 1487.11 1.79035 -0.922406 0
M  V30 15600 C 1484.18 2.91561 -1.87598 0
M  V30 15601 C 1483.24 2.9546 -3.11451 0
M  V30 15602 C 1482.47 4.24954 -3.22878 0
M  V30 15603 O 1482.7 5.17341 -2.40238 0
M  V30 15604 O 1481.63 4.35141 -4.15856 0
M  V30 15605 H 1485.46 1.38098 -2.70486 0
M  V30 15606 H 1483.04 0.620163 -1.3592 0
M  V30 15607 H 1484.92 3.72262 -1.97481 0
M  V30 15608 H 1483.6 3.09171 -0.958889 0
M  V30 15609 H 1482.51 2.13713 -3.07046 0
M  V30 15610 H 1483.84 2.82794 -4.0285 0
M  V30 15611 N 1485.49 1.41566 0.692592 0
M  V30 15612 C 1486.77 1.31572 1.44735 0
M  V30 15613 C 1487.15 -0.0553081 2.11028 0
M  V30 15614 O 1486.5 -1.06974 2.01913 0
M  V30 15615 C 1486.71 2.47125 2.46435 0
M  V30 15616 C 1488.05 2.88427 3.11601 0
M  V30 15617 O 1489.08 2.46886 2.5676 0
M  V30 15618 O 1487.94 3.6027 4.10935 0
M  V30 15619 H 1485.03 0.517949 0.644715 0
M  V30 15620 H 1487.58 1.53536 0.722818 0
M  V30 15621 H 1486.35 3.38601 1.96124 0
M  V30 15622 H 1485.97 2.27054 3.26393 0
M  V30 15623 N 1486.97 -0.927146 1.27443 0
M  V30 15624 C 1487.9 -2.02847 1.04538 0
M  V30 15625 C 1488.88 -1.62564 -0.0343819 0
M  V30 15626 O 1490.06 -1.88174 0.110875 0
M  V30 15627 C 1487.19 -3.33594 0.58588 0
M  V30 15628 C 1486.24 -3.92857 1.66029 0
M  V30 15629 S 1487.07 -4.25376 3.25292 0
M  V30 15630 C 1488.23 -5.59203 2.81145 0
M  V30 15631 H 1488.46 -2.21965 1.97784 0
M  V30 15632 H 1485.99 -1.07033 1.11281 0
M  V30 15633 H 1487.95 -4.09192 0.32745 0
M  V30 15634 H 1486.61 -3.12398 -0.326534 0
M  V30 15635 H 1485.8 -4.87209 1.2901 0
M  V30 15636 H 1485.41 -3.23846 1.87082 0
M  V30 15637 H 1487.7 -6.38523 2.26482 0
M  V30 15638 H 1488.64 -6.01122 3.74243 0
M  V30 15639 H 1489.05 -5.19751 2.2027 0
M  V30 15640 N 1488.45 -1.09474 -1.13372 0
M  V30 15641 C 1489.72 -0.743485 -1.80919 0
M  V30 15642 C 1490.1 0.771414 -1.965 0
M  V30 15643 O 1489.45 1.694 -1.53349 0
M  V30 15644 C 1489.66 -1.48309 -3.1592 0
M  V30 15645 C 1491.01 -1.64921 -3.91263 0
M  V30 15646 O 1492.03 -1.44564 -3.25545 0
M  V30 15647 O 1490.89 -1.98595 -5.09139 0
M  V30 15648 H 1487.99 -0.26713 -0.782669 0
M  V30 15649 H 1490.53 -1.19697 -1.20294 0
M  V30 15650 H 1489.3 -2.51456 -2.99809 0
M  V30 15651 H 1488.93 -1.02181 -3.84246 0
M  V30 15652 N 1489.92 1.30607 -0.882012 0
M  V30 15653 C 1491.2 1.91056 -0.419153 0
M  V30 15654 C 1491.58 1.80185 1.09985 0
M  V30 15655 O 1490.93 1.21717 1.93384 0
M  V30 15656 C 1491.14 3.3682 -0.913949 0
M  V30 15657 C 1492.49 4.13901 -0.947169 0
M  V30 15658 O 1493.51 3.45652 -0.860412 0
M  V30 15659 O 1492.37 5.35826 -1.07483 0
M  V30 15660 H 1489.46 0.81709 -0.127645 0
M  V30 15661 H 1492.01 1.39195 -0.970717 0
M  V30 15662 H 1490.78 3.38804 -1.95774 0
M  V30 15663 H 1490.41 3.96132 -0.34138 0
M  V30 15664 N 1491.4 0.642663 1.43901 0
M  V30 15665 C 1492.65 0.152003 2.0223 0
M  V30 15666 C 1492.98 -1.22711 1.50518 0
M  V30 15667 O 1492.26 -1.817 0.693937 0
M  V30 15668 C 1492.54 0.151278 3.59782 0
M  V30 15669 C 1492.39 1.56356 4.2175 0
M  V30 15670 C 1493.71 -0.518016 4.37041 0
M  V30 15671 H 1490.83 0.0567094 0.734815 0
M  V30 15672 H 1493.47 0.821337 1.7133 0
M  V30 15673 H 1491.62 -0.418679 3.86237 0
M  V30 15674 H 1493.29 2.18329 4.06362 0
M  V30 15675 H 1491.54 2.11401 3.78803 0
M  V30 15676 H 1492.21 1.51499 5.30803 0
M  V30 15677 H 1494.68 -0.0331947 4.16087 0
M  V30 15678 H 1493.56 -0.487754 5.46729 0
M  V30 15679 H 1493.82 -1.59036 4.12504 0
M  V30 15680 N 1492.88 -1.52852 0.383918 0
M  V30 15681 C 1494.13 -2.01809 -0.200285 0
M  V30 15682 C 1494.46 -1.27009 -1.46909 0
M  V30 15683 O 1493.74 -0.369002 -1.90968 0
M  V30 15684 C 1494.02 -3.56971 -0.473672 0
M  V30 15685 C 1493.87 -4.42446 0.810048 0
M  V30 15686 C 1495.19 -4.21481 -1.26658 0
M  V30 15687 H 1492.31 -0.733541 -0.0713192 0
M  V30 15688 H 1494.95 -1.8296 0.512425 0
M  V30 15689 H 1493.1 -3.73163 -1.08081 0
M  V30 15690 H 1494.77 -4.38016 1.44706 0
M  V30 15691 H 1493.02 -4.09674 1.42652 0
M  V30 15692 H 1493.69 -5.49013 0.573478 0
M  V30 15693 H 1496.16 -4.09233 -0.752806 0
M  V30 15694 H 1495.04 -5.30037 -1.42661 0
M  V30 15695 H 1495.3 -3.78756 -2.28028 0
M  V30 15696 N 1494.36 -0.113586 -1.5719 0
M  V30 15697 C 1495.64 0.588987 -1.86522 0
M  V30 15698 C 1496.02 1.85163 -1.01379 0
M  V30 15699 O 1495.36 2.28318 -0.0912188 0
M  V30 15700 C 1495.57 0.886633 -3.3755 0
M  V30 15701 C 1496.92 1.24206 -4.06027 0
M  V30 15702 O 1497.95 0.977068 -3.42537 0
M  V30 15703 O 1496.81 1.73914 -5.18089 0
M  V30 15704 H 1493.9 0.296637 -0.771968 0
M  V30 15705 H 1496.45 -0.147681 -1.69056 0
M  V30 15706 H 1495.22 -0.00835421 -3.91299 0
M  V30 15707 H 1494.84 1.67865 -3.60426 0
M  V30 15708 N 1495.84 1.56784 0.160173 0
M  V30 15709 C 1496.8 1.96373 1.18195 0
M  V30 15710 C 1497.8 0.848674 1.3658 0
M  V30 15711 O 1498.99 1.11553 1.33796 0
M  V30 15712 C 1496.12 2.26824 2.54487 0
M  V30 15713 H 1497.32 2.87819 0.842641 0
M  V30 15714 H 1494.87 1.51014 0.403038 0
M  V30 15715 H 1495.6 1.38129 2.93413 0
M  V30 15716 H 1495.39 3.08112 2.42507 0
M  V30 15717 H 1496.88 2.58337 3.28104 0
M  V30 15718 N 1497.32 -0.429099 1.51646 0
M  V30 15719 C 1498.59 -1.18958 1.55269 0
M  V30 15720 C 1498.97 -2.08633 0.321816 0
M  V30 15721 O 1498.32 -2.1775 -0.69261 0
M  V30 15722 C 1498.53 -1.98427 2.87102 0
M  V30 15723 C 1499.88 -2.55185 3.39361 0
M  V30 15724 O 1500.9 -2.08629 2.88708 0
M  V30 15725 O 1499.76 -3.40119 4.27763 0
M  V30 15726 H 1496.86 -0.542041 0.624596 0
M  V30 15727 H 1499.4 -0.437499 1.63964 0
M  V30 15728 H 1498.17 -1.32613 3.68143 0
M  V30 15729 H 1497.8 -2.80683 2.81608 0
M  V30 15730 N 1498.79 -1.41931 -0.685074 0
M  V30 15731 C 1499.7 -1.46985 -1.82846 0
M  V30 15732 C 1500.72 -0.359487 -1.70246 0
M  V30 15733 O 1501.9 -0.608824 -1.91977 0
M  V30 15734 C 1498.96 -1.36001 -3.18912 0
M  V30 15735 C 1498.02 -2.57442 -3.43543 0
M  V30 15736 C 1497.25 -2.46972 -4.73118 0
M  V30 15737 O 1497.48 -1.49999 -5.50324 0
M  V30 15738 O 1496.41 -3.36922 -4.98766 0
M  V30 15739 H 1500.24 -2.4347 -1.81538 0
M  V30 15740 H 1497.82 -1.23583 -0.839497 0
M  V30 15741 H 1499.7 -1.32198 -4.00127 0
M  V30 15742 H 1498.38 -0.426366 -3.2088 0
M  V30 15743 H 1497.29 -2.66821 -2.62217 0
M  V30 15744 H 1498.62 -3.49671 -3.46398 0
M  V30 15745 N 1500.27 0.920374 -1.27933 0
M  V30 15746 C 1501.5 1.70028 -1.17363 0
M  V30 15747 C 1501.91 1.87246 0.271214 0
M  V30 15748 O 1501.25 1.39449 1.19581 0
M  V30 15749 C 1501.31 3.11595 -1.79301 0
M  V30 15750 C 1500.98 3.17687 -3.28518 0
M  V30 15751 C 1501.98 2.99383 -4.25048 0
M  V30 15752 C 1499.66 3.40412 -3.69357 0
M  V30 15753 C 1501.65 3.03704 -5.60395 0
M  V30 15754 C 1499.34 3.44367 -5.04832 0
M  V30 15755 C 1500.34 3.26032 -6.0016 0
M  V30 15756 O 1500.03 3.29735 -7.33164 0
M  V30 15757 H 1499.76 0.538497 -0.408652 0
M  V30 15758 H 1502.31 1.16086 -1.6945 0
M  V30 15759 H 1500.54 3.6705 -1.217 0
M  V30 15760 H 1502.23 3.71584 -1.63341 0
M  V30 15761 H 1503 2.8166 -3.94833 0
M  V30 15762 H 1498.88 3.53731 -2.95627 0
M  V30 15763 H 1502.42 2.89312 -6.34779 0
M  V30 15764 H 1498.32 3.61616 -5.347 0
M  V30 15765 H 1499.09 3.46141 -7.41707 0
M  V30 15766 N 1501.75 1.10074 1.1279 0
M  V30 15767 C 1502.68 0.768146 2.20503 0
M  V30 15768 C 1503.66 -0.257199 1.68144 0
M  V30 15769 O 1504.85 -0.12379 1.93805 0
M  V30 15770 C 1501.98 0.195125 3.46751 0
M  V30 15771 C 1500.93 1.15074 4.1224 0
M  V30 15772 C 1500.26 0.439098 5.32894 0
M  V30 15773 C 1501.56 2.49584 4.58808 0
M  V30 15774 H 1503.25 1.66876 2.48581 0
M  V30 15775 H 1500.8 0.803806 1.19478 0
M  V30 15776 H 1502.75 -0.0496695 4.21371 0
M  V30 15777 H 1501.47 -0.740717 3.1809 0
M  V30 15778 H 1500.13 1.38092 3.39597 0
M  V30 15779 H 1499.78 -0.501096 5.00498 0
M  V30 15780 H 1499.48 1.07632 5.77658 0
M  V30 15781 H 1501 0.202761 6.10263 0
M  V30 15782 H 1502.42 2.30736 5.24818 0
M  V30 15783 H 1500.81 3.09157 5.14336 0
M  V30 15784 H 1501.88 3.09857 3.72984 0
M  V30 15785 N 1503.23 -1.30138 0.888926 0
M  V30 15786 C 1504.48 -1.95265 0.5054 0
M  V30 15787 C 1504.79 -1.70925 -0.950998 0
M  V30 15788 O 1506 -2.30069 -1.44155 0
M  V30 15789 C 1504.45 -3.49647 0.852937 0
M  V30 15790 C 1504.06 -3.82802 2.32737 0
M  V30 15791 C 1505.8 -4.21067 0.538801 0
M  V30 15792 C 1503.71 -5.30379 2.61633 0
M  V30 15793 H 1502.64 -0.730882 0.185278 0
M  V30 15794 H 1505.29 -1.48027 1.08444 0
M  V30 15795 H 1503.67 -3.9548 0.202937 0
M  V30 15796 H 1504.85 -3.47866 3.02202 0
M  V30 15797 H 1503.16 -3.24495 2.60944 0
M  V30 15798 H 1505.76 -5.2967 0.731676 0
M  V30 15799 H 1506.1 -4.13014 -0.522039 0
M  V30 15800 H 1506.64 -3.8093 1.14617 0
M  V30 15801 H 1503.37 -5.43486 3.66473 0
M  V30 15802 H 1502.89 -5.66601 1.96782 0
M  V30 15803 H 1504.57 -5.97856 2.47339 0
M  V30 15804 N 1504.71 -0.650285 -1.43559 0
M  V30 15805 C 1506.12 -0.24263 -1.85117 0
M  V30 15806 C 1506.47 1.21017 -1.54432 0
M  V30 15807 O 1505.59 1.92332 -0.991839 0
M  V30 15808 C 1506.19 -0.433575 -3.36014 0
M  V30 15809 C 1504.75 -0.0802635 -3.76314 0
M  V30 15810 C 1503.89 -0.737844 -2.67303 0
M  V30 15811 H 1506.84 -0.854158 -1.33753 0
M  V30 15812 H 1506.87 0.321801 -3.79137 0
M  V30 15813 H 1506.38 -1.49102 -3.58316 0
M  V30 15814 H 1504.48 0.974703 -3.59625 0
M  V30 15815 H 1504.59 -0.503683 -4.76445 0
M  V30 15816 H 1502.96 -0.171349 -2.54123 0
M  V30 15817 H 1503.74 -1.79826 -2.92434 0
M  V30 15818 N 1506.18 1.52647 -0.392018 0
M  V30 15819 C 1507.12 2.24183 0.476934 0
M  V30 15820 C 1508.13 1.26526 1.02446 0
M  V30 15821 O 1509.32 1.52583 0.92632 0
M  V30 15822 C 1506.42 2.94672 1.67397 0
M  V30 15823 C 1505.59 4.19058 1.25335 0
M  V30 15824 C 1504.65 4.72522 2.31537 0
M  V30 15825 O 1503.68 5.35541 1.92833 0
M  V30 15826 N 1504.88 4.52613 3.63486 0
M  V30 15827 H 1507.64 2.99391 -0.135963 0
M  V30 15828 H 1505.2 1.60419 -0.218514 0
M  V30 15829 H 1507.2 3.27338 2.37975 0
M  V30 15830 H 1505.77 2.22755 2.19315 0
M  V30 15831 H 1504.99 3.92399 0.376352 0
M  V30 15832 H 1506.27 4.99871 0.94901 0
M  V30 15833 H 1505.67 4.02316 3.97692 0
M  V30 15834 H 1504.23 4.89761 4.3009 0
M  V30 15835 N 1507.66 0.121921 1.57128 0
M  V30 15836 C 1508.59 -0.857725 2.12546 0
M  V30 15837 C 1509.61 -1.22797 1.06886 0
M  V30 15838 O 1510.8 -1.17641 1.34249 0
M  V30 15839 C 1507.9 -2.15869 2.61254 0
M  V30 15840 C 1507.07 -1.95969 3.91043 0
M  V30 15841 C 1506.13 -3.09822 4.2532 0
M  V30 15842 O 1505.15 -2.82608 4.94087 0
M  V30 15843 N 1506.36 -4.36333 3.82875 0
M  V30 15844 H 1509.12 -0.384239 2.97227 0
M  V30 15845 H 1506.68 -0.062416 1.6178 0
M  V30 15846 H 1508.67 -2.91035 2.81213 0
M  V30 15847 H 1507.24 -2.54557 1.81437 0
M  V30 15848 H 1506.46 -1.04979 3.79965 0
M  V30 15849 H 1507.75 -1.79981 4.75904 0
M  V30 15850 H 1507.15 -4.61318 3.27417 0
M  V30 15851 H 1505.71 -5.08362 4.07936 0
M  V30 15852 N 1509.14 -1.56867 -0.151857 0
M  V30 15853 C 1510.39 -1.82721 -0.863575 0
M  V30 15854 C 1510.71 -0.702042 -1.81924 0
M  V30 15855 O 1509.98 0.27668 -1.93936 0
M  V30 15856 H 1508.56 -0.674088 -0.321893 0
M  V30 15857 H 1511.22 -1.94345 -0.14702 0
M  V30 15858 H 1510.32 -2.77476 -1.42876 0
M  V30 15859 N 1510.62 0.421051 -1.51871 0
M  V30 15860 C 1511.87 1.16908 -1.65344 0
M  V30 15861 C 1512.19 1.90801 -0.377538 0
M  V30 15862 O 1511.45 1.84972 0.639061 0
M  V30 15863 C 1511.75 2.19819 -2.81806 0
M  V30 15864 C 1511.41 1.62821 -4.20476 0
M  V30 15865 C 1510.08 1.47 -4.58197 0
M  V30 15866 C 1512.43 1.21079 -5.06941 0
M  V30 15867 C 1509.76 0.879359 -5.80073 0
M  V30 15868 C 1512.11 0.634373 -6.29411 0
M  V30 15869 C 1510.77 0.4632 -6.65891 0
M  V30 15870 H 1510.04 0.427798 -0.605037 0
M  V30 15871 H 1512.69 0.457896 -1.85945 0
M  V30 15872 H 1510.99 2.97037 -2.55492 0
M  V30 15873 H 1512.69 2.77548 -2.89427 0
M  V30 15874 H 1509.28 1.76115 -3.90745 0
M  V30 15875 H 1513.46 1.32115 -4.78392 0
M  V30 15876 H 1508.72 0.734646 -6.0697 0
M  V30 15877 H 1512.89 0.302484 -6.95743 0
M  V30 15878 H 1510.52 0.00341397 -7.602 0
M  V30 15879 N 1512.1 1.42293 0.677538 0
M  V30 15880 C 1513.34 1.42616 1.4376 0
M  V30 15881 C 1513.67 0.0416268 1.94455 0
M  V30 15882 O 1512.93 -0.949544 1.7112 0
M  V30 15883 C 1513.23 2.3951 2.65273 0
M  V30 15884 C 1512.89 3.85952 2.33135 0
M  V30 15885 C 1511.55 4.25842 2.24081 0
M  V30 15886 C 1513.91 4.78337 2.06987 0
M  V30 15887 C 1511.23 5.561 1.87001 0
M  V30 15888 C 1513.59 6.08934 1.71411 0
M  V30 15889 C 1512.25 6.47826 1.60865 0
M  V30 15890 H 1511.52 0.521869 0.526055 0
M  V30 15891 H 1514.17 1.75214 0.772797 0
M  V30 15892 H 1512.47 2.00229 3.36773 0
M  V30 15893 H 1514.17 2.37025 3.2345 0
M  V30 15894 H 1510.76 3.54369 2.41083 0
M  V30 15895 H 1514.94 4.48308 2.12916 0
M  V30 15896 H 1510.2 5.85097 1.77403 0
M  V30 15897 H 1514.37 6.80009 1.50203 0
M  V30 15898 H 1512 7.48669 1.31902 0
M  V30 15899 N 1513.57 -0.913576 1.28419 0
M  V30 15900 C 1514.8 -1.70178 1.18551 0
M  V30 15901 C 1515.22 -1.864 -0.252307 0
M  V30 15902 O 1514.58 -1.37427 -1.18252 0
M  V30 15903 C 1514.63 -3.07145 1.8893 0
M  V30 15904 O 1513.73 -3.9465 1.19688 0
M  V30 15905 H 1513.08 -0.521092 0.411533 0
M  V30 15906 H 1515.61 -1.14228 1.69744 0
M  V30 15907 H 1515.62 -3.57375 1.96843 0
M  V30 15908 H 1514.29 -2.94655 2.93515 0
M  V30 15909 H 1512.87 -3.53085 1.19939 0
M  V30 15910 N 1515.05 -1.1067 -1.12204 0
M  V30 15911 C 1516.28 -0.873095 -1.88127 0
M  V30 15912 C 1516.7 0.571099 -1.79221 0
M  V30 15913 O 1516.06 1.40251 -1.14888 0
M  V30 15914 C 1516.11 -1.32922 -3.35208 0
M  V30 15915 O 1515.21 -0.495807 -4.09409 0
M  V30 15916 H 1514.55 -0.315138 -0.584452 0
M  V30 15917 H 1517.08 -1.47413 -1.41882 0
M  V30 15918 H 1517.09 -1.32023 -3.86049 0
M  V30 15919 H 1515.77 -2.38091 -3.41007 0
M  V30 15920 H 1514.35 -0.570216 -3.68515 0
M  V30 15921 N 1516.53 1.29665 -0.895815 0
M  V30 15922 C 1517.94 1.77825 -0.568784 0
M  V30 15923 C 1518.29 1.73534 0.915443 0
M  V30 15924 O 1517.42 1.31885 1.71567 0
M  V30 15925 C 1518.01 3.22901 -1.0257 0
M  V30 15926 C 1516.57 3.68854 -0.749903 0
M  V30 15927 C 1515.72 2.49866 -1.20259 0
M  V30 15928 H 1518.67 1.16381 -1.07894 0
M  V30 15929 H 1518.69 3.788 -0.359312 0
M  V30 15930 H 1518.2 3.25991 -2.10597 0
M  V30 15931 H 1516.3 3.71241 0.317916 0
M  V30 15932 H 1516.42 4.59831 -1.34506 0
M  V30 15933 H 1514.78 2.46997 -0.621676 0
M  V30 15934 H 1515.56 2.55687 -2.29083 0
M  V30 15935 N 1518.01 0.657889 1.43212 0
M  V30 15936 C 1519.23 0.179444 2.06622 0
M  V30 15937 C 1519.66 -1.14787 1.49015 0
M  V30 15938 O 1519.02 -1.71016 0.60192 0
M  V30 15939 C 1519.06 0.106826 3.60442 0
M  V30 15940 O 1518.17 -0.92962 4.01786 0
M  V30 15941 H 1517.51 0.0970131 0.656875 0
M  V30 15942 H 1520.04 0.902132 1.83638 0
M  V30 15943 H 1520.05 -0.07495 4.07931 0
M  V30 15944 H 1518.72 1.07574 4.01747 0
M  V30 15945 H 1517.3 -0.720255 3.65878 0
M  V30 15946 N 1519.49 -1.52437 0.400108 0
M  V30 15947 C 1520.71 -2.0613 -0.178364 0
M  V30 15948 C 1521.13 -1.27094 -1.39616 0
M  V30 15949 O 1520.49 -0.320409 -1.79665 0
M  V30 15950 C 1520.54 -3.57478 -0.53777 0
M  V30 15951 O 1520.26 -4.33522 0.631657 0
M  V30 15952 C 1521.76 -4.27556 -1.17094 0
M  V30 15953 H 1518.98 -0.670558 -0.0243619 0
M  V30 15954 H 1521.52 -1.9644 0.568459 0
M  V30 15955 H 1519.68 -3.67205 -1.23449 0
M  V30 15956 H 1520.09 -5.23437 0.333803 0
M  V30 15957 H 1521.57 -5.3466 -1.3727 0
M  V30 15958 H 1522.04 -3.83456 -2.14145 0
M  V30 15959 H 1522.65 -4.22174 -0.514687 0
M  V30 15960 N 1520.96 -0.130252 -1.57061 0
M  V30 15961 C 1522.19 0.535707 -2.00362 0
M  V30 15962 C 1522.61 1.58712 -1.00956 0
M  V30 15963 O 1521.97 1.81292 0.0171546 0
M  V30 15964 C 1522.02 1.12836 -3.42491 0
M  V30 15965 O 1521.12 2.24367 -3.46025 0
M  V30 15966 H 1520.47 0.132735 -0.650598 0
M  V30 15967 H 1523 -0.222047 -2.03392 0
M  V30 15968 H 1523.01 1.46115 -3.80939 0
M  V30 15969 H 1521.68 0.358304 -4.14354 0
M  V30 15970 H 1520.26 1.92443 -3.19406 0
M  V30 15971 N 1522.44 1.56945 0.143535 0
M  V30 15972 C 1523.86 1.51688 0.496291 0
M  V30 15973 C 1524.06 0.839251 1.83191 0
M  V30 15974 O 1523.12 0.411235 2.49129 0
M  V30 15975 C 1524.43 2.96456 0.503402 0
M  V30 15976 C 1525.98 3.07414 0.588676 0
M  V30 15977 C 1526.45 4.53696 0.626416 0
M  V30 15978 N 1527.94 4.58054 0.688543 0
M  V30 15979 C 1528.68 5.68621 0.738786 0
M  V30 15980 N 1528.17 6.88748 0.748163 0
M  V30 15981 N 1529.97 5.56663 0.779931 0
M  V30 15982 H 1522.12 1.99392 -0.731901 0
M  V30 15983 H 1524.38 0.909546 -0.267263 0
M  V30 15984 H 1524.09 3.49304 -0.409845 0
M  V30 15985 H 1523.96 3.52593 1.34008 0
M  V30 15986 H 1526.35 2.54584 1.49234 0
M  V30 15987 H 1526.43 2.54315 -0.275213 0
M  V30 15988 H 1526.07 5.07165 -0.273108 0
M  V30 15989 H 1526 5.04581 1.50684 0
M  V30 15990 H 1528.49 3.71576 0.688455 0
M  V30 15991 H 1528.81 7.68767 0.788444 0
M  V30 15992 H 1527.15 6.91302 0.715982 0
M  V30 15993 H 1530.34 4.61727 0.769799 0
M  V30 15994 H 1530.52 6.42847 0.815621 0
M  V30 15995 N 1523.92 -0.412991 1.52093 0
M  V30 15996 C 1525.15 -1.18212 1.69805 0
M  V30 15997 C 1525.56 -1.84386 0.405844 0
M  V30 15998 O 1524.92 -1.71725 -0.617809 0
M  V30 15999 C 1524.97 -2.24811 2.83094 0
M  V30 16000 O 1524.69 -1.61338 4.0731 0
M  V30 16001 C 1526.19 -3.14633 3.12283 0
M  V30 16002 H 1523.41 -0.355371 0.569168 0
M  V30 16003 H 1525.96 -0.486392 1.98632 0
M  V30 16004 H 1524.11 -2.90058 2.56797 0
M  V30 16005 H 1524.53 -2.31979 4.7041 0
M  V30 16006 H 1526 -3.85511 3.95076 0
M  V30 16007 H 1526.48 -3.76785 2.25677 0
M  V30 16008 H 1527.08 -2.55059 3.40331 0
M  V30 16009 N 1525.4 -1.4265 -0.669982 0
M  V30 16010 C 1526.81 -1.38614 -1.25072 0
M  V30 16011 C 1527.16 -0.0818051 -1.96029 0
M  V30 16012 O 1526.29 0.81931 -2.0029 0
M  V30 16013 C 1526.88 -2.51085 -2.27469 0
M  V30 16014 C 1525.44 -2.50366 -2.81059 0
M  V30 16015 C 1524.59 -2.29632 -1.5545 0
M  V30 16016 H 1527.54 -1.51794 -0.463058 0
M  V30 16017 H 1527.56 -2.21612 -3.09303 0
M  V30 16018 H 1527.07 -3.46002 -1.75796 0
M  V30 16019 H 1525.17 -1.5928 -3.36839 0
M  V30 16020 H 1525.29 -3.47569 -3.29746 0
M  V30 16021 H 1523.65 -1.77982 -1.82193 0
M  V30 16022 H 1524.43 -3.26611 -1.05736 0
M  V30 16023 N 1526.88 0.906753 -1.28902 0
M  V30 16024 C 1527.81 2.02663 -1.15974 0
M  V30 16025 C 1528.79 1.70009 -0.0557202 0
M  V30 16026 O 1529.97 1.92786 -0.233952 0
M  V30 16027 C 1527.1 3.37283 -0.828115 0
M  V30 16028 C 1526.06 3.84123 -1.88767 0
M  V30 16029 C 1525.38 5.15787 -1.40953 0
M  V30 16030 C 1526.68 4.05217 -3.2954 0
M  V30 16031 H 1528.38 2.13738 -2.09658 0
M  V30 16032 H 1525.92 1.02699 -1.0094 0
M  V30 16033 H 1527.88 4.15127 -0.724408 0
M  V30 16034 H 1526.6 3.2628 0.14443 0
M  V30 16035 H 1525.26 3.0849 -1.98065 0
M  V30 16036 H 1524.91 5.01194 -0.425848 0
M  V30 16037 H 1524.61 5.48098 -2.11807 0
M  V30 16038 H 1526.13 5.9618 -1.31918 0
M  V30 16039 H 1527.55 4.73565 -3.23124 0
M  V30 16040 H 1525.94 4.48871 -3.9829 0
M  V30 16041 H 1527.01 3.0979 -3.73039 0
M  V30 16042 N 1528.36 1.11264 1.11616 0
M  V30 16043 C 1529.29 0.79149 2.19676 0
M  V30 16044 C 1530.27 -0.239351 1.68408 0
M  V30 16045 O 1531.45 -0.103228 1.93925 0
M  V30 16046 C 1528.58 0.231891 3.46525 0
M  V30 16047 C 1527.54 1.19439 4.10997 0
M  V30 16048 C 1526.86 0.495593 5.32398 0
M  V30 16049 C 1528.16 2.54437 4.56135 0
M  V30 16050 H 1529.86 1.69503 2.46797 0
M  V30 16051 H 1527.4 0.816433 1.18619 0
M  V30 16052 H 1529.35 -0.00497468 4.214 0
M  V30 16053 H 1528.08 -0.706938 3.18857 0
M  V30 16054 H 1526.74 1.41686 3.38113 0
M  V30 16055 H 1526.39 -0.447984 5.01001 0
M  V30 16056 H 1526.09 1.13753 5.76484 0
M  V30 16057 H 1527.61 0.267476 6.10014 0
M  V30 16058 H 1529.02 2.36289 5.22341 0
M  V30 16059 H 1527.42 3.14595 5.11028 0
M  V30 16060 H 1528.49 3.13795 3.69676 0
M  V30 16061 N 1529.83 -1.29188 0.902679 0
M  V30 16062 C 1531.06 -2.00113 0.544953 0
M  V30 16063 C 1531.48 -1.67093 -0.863805 0
M  V30 16064 O 1530.84 -0.897179 -1.57545 0
M  V30 16065 C 1530.89 -3.52762 0.747741 0
M  V30 16066 O 1529.99 -4.11923 -0.198388 0
M  V30 16067 H 1529.33 -0.629054 0.212572 0
M  V30 16068 H 1531.86 -1.64611 1.21508 0
M  V30 16069 H 1531.87 -4.02732 0.653546 0
M  V30 16070 H 1530.55 -3.76131 1.77478 0
M  V30 16071 H 1529.13 -3.72857 -0.0563959 0
M  V30 16072 N 1531.31 -0.665475 -1.42861 0
M  V30 16073 C 1532.54 -0.190399 -2.06524 0
M  V30 16074 C 1532.96 1.13995 -1.49622 0
M  V30 16075 O 1532.32 1.70695 -0.610981 0
M  V30 16076 C 1532.37 -0.12594 -3.6038 0
M  V30 16077 O 1531.47 0.908299 -4.02273 0
M  V30 16078 H 1530.81 -0.100495 -0.656351 0
M  V30 16079 H 1533.34 -0.911858 -1.83156 0
M  V30 16080 H 1533.35 0.0533153 -4.07965 0
M  V30 16081 H 1532.03 -1.09703 -4.01171 0
M  V30 16082 H 1530.6 0.700841 -3.66255 0
M  V30 16083 N 1532.79 1.52222 -0.408187 0
M  V30 16084 C 1533.72 2.29892 0.408868 0
M  V30 16085 C 1534.7 1.34063 1.04695 0
M  V30 16086 O 1535.89 1.6297 1.05615 0
M  V30 16087 C 1533.02 3.11964 1.52629 0
M  V30 16088 C 1531.97 4.15833 1.01326 0
M  V30 16089 C 1531.3 4.86244 2.2242 0
M  V30 16090 C 1532.6 5.22256 0.0679573 0
M  V30 16091 H 1534.29 2.98443 -0.23923 0
M  V30 16092 H 1531.84 1.43528 -0.116496 0
M  V30 16093 H 1533.79 3.65067 2.10486 0
M  V30 16094 H 1532.51 2.41181 2.20225 0
M  V30 16095 H 1531.17 3.63739 0.4571 0
M  V30 16096 H 1530.82 4.11991 2.88569 0
M  V30 16097 H 1530.52 5.56461 1.88746 0
M  V30 16098 H 1532.04 5.42159 2.80885 0
M  V30 16099 H 1533.46 5.70604 0.555295 0
M  V30 16100 H 1531.85 5.9983 -0.179934 0
M  V30 16101 H 1532.92 4.76892 -0.877599 0
M  V30 16102 N 1534.27 0.138579 1.5699 0
M  V30 16103 C 1535.49 -0.525074 2.00643 0
M  V30 16104 C 1535.92 -1.58174 1.01796 0
M  V30 16105 O 1535.28 -1.81298 -0.00754003 0
M  V30 16106 C 1535.32 -1.11019 3.43085 0
M  V30 16107 O 1534.43 -2.22529 3.4721 0
M  V30 16108 H 1533.77 -0.129283 0.651292 0
M  V30 16109 H 1536.3 0.23283 2.03271 0
M  V30 16110 H 1536.31 -1.44093 3.81708 0
M  V30 16111 H 1534.98 -0.336325 4.14538 0
M  V30 16112 H 1533.56 -1.90747 3.20422 0
M  V30 16113 N 1535.75 -1.57019 -0.13521 0
M  V30 16114 C 1536.71 -1.98229 -1.15056 0
M  V30 16115 C 1537.71 -0.870295 -1.35213 0
M  V30 16116 O 1538.9 -1.13668 -1.32005 0
M  V30 16117 C 1536.03 -2.30844 -2.50846 0
M  V30 16118 H 1537.22 -2.89123 -0.796744 0
M  V30 16119 H 1534.78 -1.51636 -0.378962 0
M  V30 16120 H 1535.51 -1.42779 -2.91178 0
M  V30 16121 H 1535.3 -3.11931 -2.37574 0
M  V30 16122 H 1536.79 -2.63524 -3.23952 0
M  V30 16123 N 1537.22 0.404919 -1.52309 0
M  V30 16124 C 1538.45 1.17309 -1.70429 0
M  V30 16125 C 1538.87 1.84169 -0.415617 0
M  V30 16126 O 1538.22 1.7205 0.608693 0
M  V30 16127 C 1538.28 2.23306 -2.84282 0
M  V30 16128 O 1538 1.59176 -4.0816 0
M  V30 16129 C 1539.5 3.12972 -3.13948 0
M  V30 16130 H 1536.72 0.352348 -0.571045 0
M  V30 16131 H 1539.26 0.475851 -1.98887 0
M  V30 16132 H 1537.42 2.88693 -2.58332 0
M  V30 16133 H 1537.83 2.29481 -4.71634 0
M  V30 16134 H 1539.3 3.83411 -3.97115 0
M  V30 16135 H 1539.78 3.75582 -2.27672 0
M  V30 16136 H 1540.39 2.53251 -3.41678 0
M  V30 16137 N 1538.7 1.43003 0.662408 0
M  V30 16138 C 1539.93 1.47766 1.45533 0
M  V30 16139 C 1540.35 0.0940298 1.87865 0
M  V30 16140 O 1539.71 -0.910252 1.56793 0
M  V30 16141 C 1539.76 2.42084 2.6726 0
M  V30 16142 O 1538.86 1.90076 3.65985 0
M  V30 16143 H 1538.2 0.500167 0.436725 0
M  V30 16144 H 1540.73 1.87823 0.811399 0
M  V30 16145 H 1540.74 2.5908 3.15185 0
M  V30 16146 H 1539.42 3.42601 2.3579 0
M  V30 16147 H 1538 1.82695 3.2508 0
M  V30 16148 N 1540.18 -0.899904 1.29381 0
M  V30 16149 C 1541.13 -2.02537 1.14375 0
M  V30 16150 C 1542.12 -1.69296 0.0593904 0
M  V30 16151 O 1543.33 -1.78661 0.219174 0
M  V30 16152 H 1539.7 -0.663844 0.353291 0
M  V30 16153 H 1541.67 -2.12332 2.0966 0
M  V30 16154 C 1540.42 -3.37479 0.836845 0
M  V30 16155 H 1539.75 -3.6356 1.66326 0
M  V30 16156 H 1541.19 -4.16915 0.771873 0
M  V30 16157 C 1539.65 -3.33746 -0.459889 0
M  V30 16158 O 1540.18 -3.73203 -1.48601 0
M  V30 16159 N 1538.38 -2.86845 -0.465657 0
M  V30 16160 H 1537.93 -2.54931 0.369833 0
M  V30 16161 H 1537.89 -2.8473 -1.33327 0
M  V30 16162 N 1541.66 -1.11854 -1.11024 0
M  V30 16163 C 1542.61 -0.77596 -2.19275 0
M  V30 16164 C 1543.6 0.234503 -1.67769 0
M  V30 16165 O 1544.81 0.0933372 -1.79758 0
M  V30 16166 H 1541.18 -0.23307 -0.71497 0
M  V30 16167 H 1543.15 -1.69749 -2.45414 0
M  V30 16168 C 1541.9 -0.240148 -3.4687 0
M  V30 16169 H 1541.22 -1.00895 -3.86859 0
M  V30 16170 H 1542.66 -0.0386799 -4.23982 0
M  V30 16171 C 1541.12 1.03056 -3.20751 0
M  V30 16172 O 1541.65 2.10948 -3.41854 0
M  V30 16173 N 1539.86 0.955066 -2.74457 0
M  V30 16174 H 1539.41 0.0769523 -2.57485 0
M  V30 16175 H 1539.36 1.80593 -2.57359 0
M  V30 16176 N 1543.14 1.28707 -0.909517 0
M  V30 16177 C 1544.36 1.99821 -0.555557 0
M  V30 16178 C 1544.79 1.67549 0.854931 0
M  V30 16179 O 1544.14 0.905521 1.57067 0
M  V30 16180 C 1544.19 3.52361 -0.766438 0
M  V30 16181 O 1543.3 4.12022 0.17654 0
M  V30 16182 H 1542.64 0.627918 -0.215905 0
M  V30 16183 H 1545.17 1.63965 -1.2238 0
M  V30 16184 H 1545.18 4.02379 -0.674894 0
M  V30 16185 H 1543.85 3.75184 -1.7947 0
M  V30 16186 H 1542.43 3.72882 0.0366216 0
M  V30 16187 N 1544.61 0.673042 1.42506 0
M  V30 16188 C 1545.84 0.202922 2.05902 0
M  V30 16189 C 1546.26 -1.13923 1.50556 0
M  V30 16190 O 1545.61 -1.70735 0.644662 0
M  V30 16191 C 1545.67 0.12735 3.61276 0
M  V30 16192 O 1545.39 1.41646 4.1457 0
M  V30 16193 C 1546.89 -0.366477 4.41783 0
M  V30 16194 H 1544.11 0.0991021 0.663641 0
M  V30 16195 H 1546.65 0.919282 1.82673 0
M  V30 16196 H 1544.81 -0.539687 3.83622 0
M  V30 16197 H 1545.22 1.28866 5.08423 0
M  V30 16198 H 1546.69 -0.368267 5.5077 0
M  V30 16199 H 1547.17 -1.40142 4.16241 0
M  V30 16200 H 1547.78 0.268761 4.2445 0
M  V30 16201 N 1546.09 -1.52004 0.416254 0
M  V30 16202 C 1547.34 -2.02188 -0.157434 0
M  V30 16203 C 1547.67 -1.30097 -1.44182 0
M  V30 16204 O 1546.95 -0.409426 -1.90142 0
M  V30 16205 C 1547.23 -3.57896 -0.397847 0
M  V30 16206 C 1547.08 -4.40628 0.903715 0
M  V30 16207 C 1548.4 -4.24072 -1.17689 0
M  V30 16208 H 1545.52 -0.734889 -0.0557437 0
M  V30 16209 H 1548.16 -1.81831 0.551118 0
M  V30 16210 H 1546.31 -3.75372 -1.00142 0
M  V30 16211 H 1547.98 -4.34848 1.53964 0
M  V30 16212 H 1546.23 -4.06556 1.5131 0
M  V30 16213 H 1546.9 -5.47673 0.689802 0
M  V30 16214 H 1549.37 -4.10738 -0.665832 0
M  V30 16215 H 1548.25 -5.32944 -1.31386 0
M  V30 16216 H 1548.51 -3.83507 -2.19942 0
M  V30 16217 N 1547.57 -0.146903 -1.56914 0
M  V30 16218 C 1548.53 0.778709 -2.15566 0
M  V30 16219 C 1549.53 1.1753 -1.09742 0
M  V30 16220 O 1550.72 1.09624 -1.35382 0
M  V30 16221 C 1547.86 2.0567 -2.71869 0
M  V30 16222 H 1549.05 0.268506 -2.98696 0
M  V30 16223 H 1546.6 0.10254 -1.55963 0
M  V30 16224 H 1547.34 2.61057 -1.92405 0
M  V30 16225 H 1547.12 1.78154 -3.4929 0
M  V30 16226 H 1548.61 2.71779 -3.17059 0
M  V30 16227 N 1549.05 1.57088 0.126881 0
M  V30 16228 C 1550.29 1.8625 0.842031 0
M  V30 16229 C 1550.65 0.733868 1.77421 0
M  V30 16230 O 1551.85 0.907051 2.53034 0
M  V30 16231 C 1550.12 3.2063 1.57897 0
M  V30 16232 S 1551.68 3.71403 2.33677 0
M  V30 16233 H 1548.5 0.653034 0.28119 0
M  V30 16234 H 1551.1 1.9524 0.100825 0
M  V30 16235 H 1549.81 4.00722 0.885982 0
M  V30 16236 H 1549.34 3.14698 2.3607 0
M  V30 16237 H 1551.35 3.42274 3.59253 0
M  V30 16238 N 1550.53 -0.396836 1.52522 0
M  V30 16239 C 1551.78 -1.13978 1.66409 0
M  V30 16240 C 1552.09 -1.91333 0.406326 0
M  V30 16241 O 1553.29 -2.6815 0.425195 0
M  V30 16242 C 1551.75 -2.07512 2.94052 0
M  V30 16243 C 1551.36 -1.35616 4.2698 0
M  V30 16244 C 1553.1 -2.8199 3.17304 0
M  V30 16245 C 1551.01 -2.2787 5.45737 0
M  V30 16246 H 1549.94 -0.429181 0.619935 0
M  V30 16247 H 1552.59 -0.403207 1.79015 0
M  V30 16248 H 1550.97 -2.84773 2.75174 0
M  V30 16249 H 1552.15 -0.636349 4.56385 0
M  V30 16250 H 1550.46 -0.731297 4.09928 0
M  V30 16251 H 1553.06 -3.5118 4.03208 0
M  V30 16252 H 1553.4 -3.45629 2.32048 0
M  V30 16253 H 1553.93 -2.11824 3.36712 0
M  V30 16254 H 1550.67 -1.68858 6.33378 0
M  V30 16255 H 1550.19 -2.97789 5.20655 0
M  V30 16256 H 1551.87 -2.88126 5.79303 0
M  V30 16257 N 1552.01 -1.43353 -0.654814 0
M  V30 16258 C 1553.28 -1.35363 -1.41195 0
M  V30 16259 C 1553.66 -0.000661523 -2.111 0
M  V30 16260 O 1553.01 1.01583 -2.04678 0
M  V30 16261 C 1553.22 -2.53572 -2.39796 0
M  V30 16262 C 1554.57 -2.96587 -3.03844 0
M  V30 16263 O 1555.59 -2.53607 -2.50124 0
M  V30 16264 O 1554.45 -3.71039 -4.01239 0
M  V30 16265 H 1551.55 -0.534861 -0.630756 0
M  V30 16266 H 1554.09 -1.55399 -0.681857 0
M  V30 16267 H 1552.86 -3.43682 -1.87078 0
M  V30 16268 H 1552.49 -2.35628 -3.20258 0
M  V30 16269 N 1553.48 0.89303 -1.29857 0
M  V30 16270 C 1554.9 1.17496 -1.08013 0
M  V30 16271 C 1555.1 2.00829 0.164302 0
M  V30 16272 O 1554.16 2.37396 0.860194 0
M  V30 16273 C 1555.47 1.88944 -2.33924 0
M  V30 16274 C 1557.02 2.01742 -2.3931 0
M  V30 16275 C 1557.49 2.76601 -3.65042 0
M  V30 16276 N 1558.98 2.84152 -3.65803 0
M  V30 16277 C 1559.72 3.42628 -4.59776 0
M  V30 16278 N 1559.21 4.02218 -5.64086 0
M  V30 16279 N 1561.01 3.40366 -4.47334 0
M  V30 16280 H 1553.16 0.33719 -2.09706 0
M  V30 16281 H 1555.42 0.211899 -0.924014 0
M  V30 16282 H 1555.13 1.35151 -3.24695 0
M  V30 16283 H 1555 2.89379 -2.4195 0
M  V30 16284 H 1557.39 2.54708 -1.49022 0
M  V30 16285 H 1557.47 1.0042 -2.35265 0
M  V30 16286 H 1557.11 2.24309 -4.55684 0
M  V30 16287 H 1557.04 3.78283 -3.66346 0
M  V30 16288 H 1559.53 2.41835 -2.90386 0
M  V30 16289 H 1559.85 4.4488 -6.31903 0
M  V30 16290 H 1558.19 4.00661 -5.67887 0
M  V30 16291 H 1561.38 2.93035 -3.65031 0
M  V30 16292 H 1561.56 3.85644 -5.20752 0
M  V30 16293 N 1554.96 1.12442 1.10429 0
M  V30 16294 C 1555.91 0.787578 2.18861 0
M  V30 16295 C 1556.9 -0.225602 1.67891 0
M  V30 16296 O 1558.11 -0.0838029 1.79805 0
M  V30 16297 H 1554.48 0.236858 0.713724 0
M  V30 16298 H 1556.46 1.71048 2.4451 0
M  V30 16299 C 1555.2 0.25854 3.46737 0
M  V30 16300 H 1554.53 1.02945 3.86319 0
M  V30 16301 H 1555.97 0.0611642 4.23956 0
M  V30 16302 C 1554.43 -1.01353 3.21293 0
M  V30 16303 O 1554.96 -2.09132 3.42967 0
M  V30 16304 N 1553.16 -0.940498 2.7496 0
M  V30 16305 H 1552.71 -0.0632962 2.57522 0
M  V30 16306 H 1552.67 -1.79226 2.58313 0
M  V30 16307 N 1556.44 -1.28223 0.91633 0
M  V30 16308 C 1557.69 -1.9448 0.549734 0
M  V30 16309 C 1558.01 -1.72465 -0.909999 0
M  V30 16310 O 1557.28 -1.06583 -1.64368 0
M  V30 16311 H 1555.86 -0.719641 0.200315 0
M  V30 16312 H 1558.52 -1.56156 1.16625 0
M  V30 16313 H 1557.62 -3.03044 0.746363 0
M  V30 16314 N 1557.92 -0.68059 -1.42147 0
M  V30 16315 C 1558.85 -0.0199376 -2.33491 0
M  V30 16316 C 1559.83 0.783164 -1.50999 0
M  V30 16317 O 1561.01 0.739154 -1.79583 0
M  V30 16318 C 1558.14 0.927902 -3.34675 0
M  V30 16319 C 1557.1 0.232979 -4.27365 0
M  V30 16320 C 1556.42 1.29415 -5.18802 0
M  V30 16321 C 1557.72 -0.891559 -5.14634 0
M  V30 16322 H 1559.42 -0.782823 -2.88985 0
M  V30 16323 H 1556.96 -0.377898 -1.38953 0
M  V30 16324 H 1558.92 1.3992 -3.97493 0
M  V30 16325 H 1557.64 1.72228 -2.77498 0
M  V30 16326 H 1556.3 -0.21814 -3.6595 0
M  V30 16327 H 1555.95 2.08067 -4.57949 0
M  V30 16328 H 1555.65 0.834274 -5.81647 0
M  V30 16329 H 1557.17 1.76627 -5.84496 0
M  V30 16330 H 1558.59 -0.501219 -5.71105 0
M  V30 16331 H 1556.98 -1.27759 -5.86343 0
M  V30 16332 H 1558.05 -1.73781 -4.5269 0
M  V30 16333 N 1559.4 1.51781 -0.424309 0
M  V30 16334 C 1560.33 2.25144 0.429274 0
M  V30 16335 C 1561.34 1.2867 0.997389 0
M  V30 16336 O 1562.53 1.54514 0.893746 0
M  V30 16337 C 1559.63 2.98156 1.61109 0
M  V30 16338 C 1558.8 4.21623 1.16417 0
M  V30 16339 C 1557.86 4.77327 2.21462 0
M  V30 16340 O 1556.89 5.39511 1.8143 0
M  V30 16341 N 1558.09 4.60221 3.53803 0
M  V30 16342 H 1560.85 2.99036 -0.199438 0
M  V30 16343 H 1558.42 1.59919 -0.252492 0
M  V30 16344 H 1560.41 3.32312 2.30978 0
M  V30 16345 H 1558.98 2.27356 2.14541 0
M  V30 16346 H 1558.2 3.93109 0.293034 0
M  V30 16347 H 1559.49 5.01772 0.842767 0
M  V30 16348 H 1558.88 4.10661 3.89068 0
M  V30 16349 H 1557.44 4.98774 4.19604 0
M  V30 16350 N 1560.87 0.155222 1.56834 0
M  V30 16351 C 1562.1 -0.503763 2.01189 0
M  V30 16352 C 1562.52 -1.57086 1.03468 0
M  V30 16353 O 1561.88 -1.81296 0.0116895 0
M  V30 16354 C 1561.93 -1.07373 3.44243 0
M  V30 16355 O 1561.03 -2.18834 3.49551 0
M  V30 16356 H 1560.37 -0.122368 0.652627 0
M  V30 16357 H 1562.9 0.254377 2.03013 0
M  V30 16358 H 1562.91 -1.40036 3.83215 0
M  V30 16359 H 1561.59 -0.292339 4.14871 0
M  V30 16360 H 1560.17 -1.87337 3.22427 0
M  V30 16361 N 1562.35 -1.57153 -0.118549 0
M  V30 16362 C 1563.59 -1.86694 -0.832141 0
M  V30 16363 C 1563.96 -0.743267 -1.7703 0
M  V30 16364 O 1565.16 -0.920457 -2.52549 0
M  V30 16365 C 1563.43 -3.21463 -1.56194 0
M  V30 16366 S 1564.99 -3.72637 -2.31704 0
M  V30 16367 H 1561.8 -0.654516 -0.277723 0
M  V30 16368 H 1564.41 -1.95291 -0.0904692 0
M  V30 16369 H 1563.11 -4.01187 -0.864718 0
M  V30 16370 H 1562.64 -3.15945 -2.34398 0
M  V30 16371 H 1564.66 -3.44175 -3.57433 0
M  V30 16372 N 1563.83 0.388742 -1.5273 0
M  V30 16373 C 1565.24 0.966667 -1.59726 0
M  V30 16374 C 1565.59 1.90963 -0.450272 0
M  V30 16375 O 1564.72 2.12153 0.426611 0
M  V30 16376 C 1565.31 1.75998 -2.895 0
M  V30 16377 C 1563.87 2.28761 -2.98907 0
M  V30 16378 C 1563.02 1.09322 -2.54841 0
M  V30 16379 H 1565.97 0.16828 -1.57805 0
M  V30 16380 H 1565.99 2.61924 -2.76 0
M  V30 16381 H 1565.5 1.07342 -3.7296 0
M  V30 16382 H 1563.6 3.00728 -2.19985 0
M  V30 16383 H 1563.72 2.58229 -4.03552 0
M  V30 16384 H 1562.08 1.45332 -2.09167 0
M  V30 16385 H 1562.86 0.421999 -3.40696 0
M  V30 16386 N 1565.31 1.43698 0.647203 0
M  V30 16387 C 1566.56 1.44918 1.40292 0
M  V30 16388 C 1566.87 0.0794243 1.95439 0
M  V30 16389 O 1568.08 -0.0309052 2.71482 0
M  V30 16390 C 1566.53 2.55052 2.53923 0
M  V30 16391 C 1566.14 3.98161 2.05357 0
M  V30 16392 C 1567.88 2.65473 3.31246 0
M  V30 16393 C 1565.79 4.99749 3.16235 0
M  V30 16394 H 1564.72 0.539106 0.527144 0
M  V30 16395 H 1567.37 1.69708 0.697951 0
M  V30 16396 H 1565.75 2.23473 3.26919 0
M  V30 16397 H 1566.93 4.3923 1.39333 0
M  V30 16398 H 1565.24 3.91839 1.40896 0
M  V30 16399 H 1567.84 3.38546 4.13873 0
M  V30 16400 H 1568.18 1.70745 3.79673 0
M  V30 16401 H 1568.72 2.96383 2.65334 0
M  V30 16402 H 1565.45 5.96051 2.7277 0
M  V30 16403 H 1564.97 4.63288 3.80952 0
M  V30 16404 H 1566.65 5.22725 3.81271 0
M  V30 16405 N 1566.79 -0.886131 1.30328 0
M  V30 16406 C 1567.73 -1.99174 1.16612 0
M  V30 16407 C 1568.7 -1.66006 0.0559202 0
M  V30 16408 O 1569.89 -1.89458 0.225897 0
M  V30 16409 C 1567.03 -3.34142 0.862726 0
M  V30 16410 C 1566.14 -3.80008 2.05469 0
M  V30 16411 C 1565.28 -5.03617 1.68949 0
M  V30 16412 C 1564.32 -5.41888 2.84647 0
M  V30 16413 N 1563.45 -6.56678 2.48431 0
M  V30 16414 H 1568.29 -2.10238 2.11197 0
M  V30 16415 H 1565.83 -1.02941 1.05079 0
M  V30 16416 H 1567.79 -4.11826 0.667447 0
M  V30 16417 H 1566.42 -3.22767 -0.0462461 0
M  V30 16418 H 1565.47 -2.98243 2.36126 0
M  V30 16419 H 1566.78 -4.04312 2.92119 0
M  V30 16420 H 1565.94 -5.88923 1.45789 0
M  V30 16421 H 1564.67 -4.81182 0.794674 0
M  V30 16422 H 1563.68 -4.55109 3.08474 0
M  V30 16423 H 1564.9 -5.66296 3.74813 0
M  V30 16424 H 1562.85 -6.35821 1.61453 0
M  V30 16425 H 1562.77 -6.80846 3.28611 0
M  V30 16426 H 1564.04 -7.45219 2.28624 0
M  V30 16427 N 1568.26 -1.13026 -1.09832 0
M  V30 16428 C 1569.17 -0.817051 -2.19912 0
M  V30 16429 C 1570.19 0.19667 -1.72885 0
M  V30 16430 O 1571.37 0.0287402 -2.01379 0
M  V30 16431 C 1568.43 -0.28304 -3.45543 0
M  V30 16432 C 1567.49 -1.35748 -4.07273 0
M  V30 16433 C 1566.73 -0.848855 -5.26906 0
M  V30 16434 O 1566.95 0.315104 -5.69529 0
M  V30 16435 O 1565.88 -1.62128 -5.79653 0
M  V30 16436 H 1569.71 -1.73663 -2.49148 0
M  V30 16437 H 1567.29 -0.907391 -1.18688 0
M  V30 16438 H 1569.18 0.00956876 -4.21399 0
M  V30 16439 H 1567.85 0.609018 -3.17919 0
M  V30 16440 H 1566.76 -1.70334 -3.33072 0
M  V30 16441 H 1568.09 -2.22353 -4.39113 0
M  V30 16442 N 1569.74 1.27735 -0.923117 0
M  V30 16443 C 1571.02 1.89626 -0.479724 0
M  V30 16444 C 1571.4 1.83592 1.04197 0
M  V30 16445 O 1570.75 1.27808 1.89413 0
M  V30 16446 C 1570.96 3.33742 -1.02064 0
M  V30 16447 C 1572.31 4.10678 -1.07837 0
M  V30 16448 O 1573.33 3.4274 -0.969943 0
M  V30 16449 O 1572.19 5.32135 -1.24476 0
M  V30 16450 H 1569.28 0.812615 -0.153575 0
M  V30 16451 H 1571.83 1.36036 -1.01451 0
M  V30 16452 H 1570.6 3.32404 -2.06454 0
M  V30 16453 H 1570.22 3.94845 -0.467234 0
M  V30 16454 N 1571.22 0.688118 1.41784 0
M  V30 16455 C 1572.45 0.223231 2.06195 0
M  V30 16456 C 1572.87 -1.11601 1.51416 0
M  V30 16457 O 1572.23 -1.69701 0.638059 0
M  V30 16458 C 1572.28 0.183257 3.60134 0
M  V30 16459 O 1571.38 -0.844186 4.03667 0
M  V30 16460 H 1570.72 0.110925 0.654669 0
M  V30 16461 H 1573.25 0.940882 1.81683 0
M  V30 16462 H 1573.26 0.0115951 4.07998 0
M  V30 16463 H 1571.94 1.16072 3.99375 0
M  V30 16464 H 1570.51 -0.642484 3.67323 0
M  V30 16465 N 1572.7 -1.51554 0.432352 0
M  V30 16466 C 1573.95 -2.02044 -0.135779 0
M  V30 16467 C 1574.27 -1.31679 -1.43147 0
M  V30 16468 O 1573.53 -0.418849 -1.91165 0
M  V30 16469 C 1573.83 -3.55076 -0.406915 0
M  V30 16470 C 1573.49 -4.43704 0.802356 0
M  V30 16471 C 1572.16 -4.67647 1.134 0
M  V30 16472 C 1574.51 -4.95733 1.6093 0
M  V30 16473 C 1571.84 -5.40865 2.27335 0
M  V30 16474 C 1574.19 -5.702 2.73961 0
M  V30 16475 C 1572.85 -5.92408 3.07585 0
M  V30 16476 H 1572.12 -0.739332 -0.0496851 0
M  V30 16477 H 1574.77 -1.82552 0.578528 0
M  V30 16478 H 1573.07 -3.72872 -1.20306 0
M  V30 16479 H 1574.77 -3.91673 -0.859839 0
M  V30 16480 H 1571.36 -4.25261 0.533923 0
M  V30 16481 H 1575.54 -4.77123 1.3663 0
M  V30 16482 H 1570.8 -5.56276 2.53706 0
M  V30 16483 H 1574.97 -6.09506 3.36861 0
M  V30 16484 H 1572.6 -6.48923 3.95984 0
M  V30 16485 N 1574.18 -0.163538 -1.56749 0
M  V30 16486 C 1575.11 0.765571 -2.20593 0
M  V30 16487 C 1576.09 1.24489 -1.15916 0
M  V30 16488 O 1577.27 1.29946 -1.44318 0
M  V30 16489 C 1574.4 1.99823 -2.84057 0
M  V30 16490 C 1573.36 1.65506 -3.94705 0
M  V30 16491 C 1572.68 2.96172 -4.45181 0
M  V30 16492 C 1573.98 0.88902 -5.14678 0
M  V30 16493 H 1575.68 0.233431 -2.98489 0
M  V30 16494 H 1573.22 0.110836 -1.43573 0
M  V30 16495 H 1575.18 2.65316 -3.27392 0
M  V30 16496 H 1573.9 2.55437 -2.03517 0
M  V30 16497 H 1572.56 1.02384 -3.52013 0
M  V30 16498 H 1572.21 3.49811 -3.61443 0
M  V30 16499 H 1571.91 2.73968 -5.19823 0
M  V30 16500 H 1573.43 3.62708 -4.91198 0
M  V30 16501 H 1574.84 1.44637 -5.54755 0
M  V30 16502 H 1573.24 0.766302 -5.95187 0
M  V30 16503 H 1574.31 -0.116145 -4.84761 0
M  V30 16504 N 1575.65 1.57214 0.110213 0
M  V30 16505 C 1576.59 1.97641 1.16064 0
M  V30 16506 C 1577.6 0.876886 1.37166 0
M  V30 16507 O 1578.79 1.15512 1.36086 0
M  V30 16508 C 1575.89 2.2671 2.51904 0
M  V30 16509 C 1575.06 3.58015 2.51285 0
M  V30 16510 C 1574.12 3.75195 3.68938 0
M  V30 16511 O 1573.15 4.47214 3.5212 0
M  V30 16512 N 1574.35 3.14627 4.87842 0
M  V30 16513 H 1577.11 2.88358 0.816679 0
M  V30 16514 H 1574.67 1.59108 0.299383 0
M  V30 16515 H 1576.67 2.35411 3.29187 0
M  V30 16516 H 1575.24 1.42076 2.78448 0
M  V30 16517 H 1574.46 3.60422 1.59655 0
M  V30 16518 H 1575.74 4.44303 2.47936 0
M  V30 16519 H 1575.14 2.56101 5.0441 0
M  V30 16520 H 1573.7 3.28836 5.6277 0
M  V30 16521 N 1577.13 -0.380637 1.52934 0
M  V30 16522 C 1578.55 -0.721287 1.42371 0
M  V30 16523 C 1578.75 -1.93826 0.55078 0
M  V30 16524 O 1577.8 -2.52485 0.02743 0
M  V30 16525 C 1579.12 -0.948564 2.85347 0
M  V30 16526 C 1580.67 -1.04952 2.9488 0
M  V30 16527 C 1581.14 -1.30937 4.38885 0
M  V30 16528 N 1582.63 -1.3774 4.42246 0
M  V30 16529 C 1583.37 -1.59527 5.50762 0
M  V30 16530 N 1582.86 -1.7873 6.69349 0
M  V30 16531 N 1584.66 -1.61774 5.38317 0
M  V30 16532 H 1576.81 0.420032 2.08205 0
M  V30 16533 H 1579.07 0.125776 0.939619 0
M  V30 16534 H 1578.78 -0.126348 3.51473 0
M  V30 16535 H 1578.65 -1.8609 3.28101 0
M  V30 16536 H 1581.04 -1.86229 2.28917 0
M  V30 16537 H 1581.12 -0.114899 2.55542 0
M  V30 16538 H 1580.76 -0.50166 5.05416 0
M  V30 16539 H 1580.69 -2.25696 4.75782 0
M  V30 16540 H 1583.18 -1.24575 3.56777 0
M  V30 16541 H 1583.5 -1.94885 7.47823 0
M  V30 16542 H 1581.84 -1.75938 6.72362 0
M  V30 16543 H 1585.03 -1.4633 4.44641 0
M  V30 16544 H 1585.2 -1.78414 6.22955 0
M  V30 16545 N 1578.61 -1.44039 -0.639573 0
M  V30 16546 C 1579.84 -1.49626 -1.42462 0
M  V30 16547 C 1580.25 -0.117078 -1.88837 0
M  V30 16548 O 1579.59 0.885666 -1.6094 0
M  V30 16549 C 1579.65 -2.39182 -2.68388 0
M  V30 16550 C 1579.32 -3.86496 -2.43865 0
M  V30 16551 C 1580.31 -4.7725 -2.06224 0
M  V30 16552 C 1578 -4.31117 -2.57766 0
M  V30 16553 C 1579.99 -6.10625 -1.82801 0
M  V30 16554 C 1577.68 -5.64541 -2.33958 0
M  V30 16555 C 1578.68 -6.54113 -1.96533 0
M  V30 16556 O 1578.37 -7.85068 -1.72983 0
M  V30 16557 H 1578.1 -0.510054 -0.443645 0
M  V30 16558 H 1580.65 -1.89593 -0.790162 0
M  V30 16559 H 1578.88 -1.94127 -3.34442 0
M  V30 16560 H 1580.57 -2.35816 -3.30372 0
M  V30 16561 H 1581.34 -4.44051 -1.95048 0
M  V30 16562 H 1577.22 -3.61663 -2.85868 0
M  V30 16563 H 1580.76 -6.80499 -1.53514 0
M  V30 16564 H 1576.66 -5.97304 -2.44741 0
M  V30 16565 H 1577.43 -7.96782 -1.87298 0
M  V30 16566 N 1580.09 0.879207 -1.30796 0
M  V30 16567 C 1581.31 1.66975 -1.23021 0
M  V30 16568 C 1581.74 1.87004 0.202798 0
M  V30 16569 O 1581.1 1.40514 1.14566 0
M  V30 16570 C 1581.14 3.02028 -1.97007 0
M  V30 16571 O 1580.25 3.91338 -1.30109 0
M  V30 16572 H 1579.59 0.509998 -0.425204 0
M  V30 16573 H 1582.12 1.09688 -1.72713 0
M  V30 16574 H 1582.13 3.5203 -2.06249 0
M  V30 16575 H 1580.8 2.8677 -3.01224 0
M  V30 16576 H 1579.38 3.49781 -1.29258 0
M  V30 16577 N 1581.57 1.13606 1.09231 0
M  V30 16578 C 1582.79 0.922667 1.85746 0
M  V30 16579 C 1583.22 -0.523381 1.80672 0
M  V30 16580 O 1582.58 -1.37156 1.18566 0
M  V30 16581 C 1582.62 1.41762 3.31566 0
M  V30 16582 O 1581.73 0.60418 4.0795 0
M  V30 16583 H 1581.07 0.330523 0.575891 0
M  V30 16584 H 1583.6 1.51123 1.37924 0
M  V30 16585 H 1583.61 1.42212 3.82413 0
M  V30 16586 H 1582.28 2.47048 3.34574 0
M  V30 16587 H 1580.86 0.667721 3.66873 0
M  V30 16588 N 1583.05 -1.27244 0.929878 0
M  V30 16589 C 1584.32 -1.89369 0.489774 0
M  V30 16590 C 1584.7 -1.84142 -1.03222 0
M  V30 16591 O 1584.05 -1.2881 -1.88733 0
M  V30 16592 C 1584.26 -3.33196 1.03833 0
M  V30 16593 C 1585.61 -4.101 1.10013 0
M  V30 16594 O 1586.63 -3.42221 0.988106 0
M  V30 16595 O 1585.49 -5.31468 1.27296 0
M  V30 16596 H 1582.59 -0.811789 0.157882 0
M  V30 16597 H 1585.13 -1.35496 1.02171 0
M  V30 16598 H 1583.9 -3.31304 2.08214 0
M  V30 16599 H 1583.53 -3.94592 0.488167 0
M  V30 16600 N 1584.52 -0.695628 -1.41417 0
M  V30 16601 C 1585.93 -0.3014 -1.84251 0
M  V30 16602 C 1586.29 1.16042 -1.58204 0
M  V30 16603 O 1585.41 1.89079 -1.05253 0
M  V30 16604 C 1586.01 -0.540256 -3.34465 0
M  V30 16605 C 1584.56 -0.199944 -3.75869 0
M  V30 16606 C 1583.71 -0.822511 -2.64821 0
M  V30 16607 H 1586.66 -0.896278 -1.30968 0
M  V30 16608 H 1586.68 0.201019 -3.79969 0
M  V30 16609 H 1586.2 -1.60427 -3.53391 0
M  V30 16610 H 1584.3 0.859798 -3.62544 0
M  V30 16611 H 1584.41 -0.655005 -4.74601 0
M  V30 16612 H 1582.77 -0.252109 -2.53449 0
M  V30 16613 H 1583.56 -1.89039 -2.86564 0
M  V30 16614 N 1586 1.51322 -0.440383 0
M  V30 16615 C 1587.23 2.0653 0.123649 0
M  V30 16616 C 1587.64 1.30751 1.36197 0
M  V30 16617 O 1587 0.367932 1.78753 0
M  V30 16618 C 1587.05 3.58778 0.442802 0
M  V30 16619 O 1586.77 4.31695 -0.746375 0
M  V30 16620 C 1588.27 4.3051 1.05717 0
M  V30 16621 H 1585.49 0.670968 0.00657466 0
M  V30 16622 H 1588.04 1.94864 -0.620341 0
M  V30 16623 H 1586.19 3.70349 1.13669 0
M  V30 16624 H 1586.61 5.22368 -0.472466 0
M  V30 16625 H 1588.08 5.38111 1.23046 0
M  V30 16626 H 1588.56 3.88999 2.03903 0
M  V30 16627 H 1589.16 4.2339 0.402574 0
M  V30 16628 N 1587.48 0.171848 1.5666 0
M  V30 16629 C 1588.73 -0.472034 1.9651 0
M  V30 16630 C 1589.05 -1.63743 1.05893 0
M  V30 16631 O 1588.32 -1.95498 0.125396 0
M  V30 16632 H 1586.9 -0.177377 0.725635 0
M  V30 16633 H 1589.56 0.253155 1.93249 0
M  V30 16634 H 1588.66 -0.831693 3.00814 0
M  V30 16635 N 1588.96 -1.5727 -0.101874 0
M  V30 16636 C 1589.92 -2.00625 -1.10826 0
M  V30 16637 C 1590.92 -0.89878 -1.33336 0
M  V30 16638 O 1592.11 -1.16442 -1.29564 0
M  V30 16639 C 1589.24 -2.36113 -2.45893 0
M  V30 16640 H 1590.44 -2.90748 -0.735238 0
M  V30 16641 H 1587.99 -1.52406 -0.346713 0
M  V30 16642 H 1588.72 -1.48923 -2.88084 0
M  V30 16643 H 1588.51 -3.169 -2.30904 0
M  V30 16644 H 1590 -2.70336 -3.1829 0
M  V30 16645 N 1590.44 0.372521 -1.53134 0
M  V30 16646 C 1591.37 1.4621 -1.82057 0
M  V30 16647 C 1592.35 1.56194 -0.673612 0
M  V30 16648 O 1593.53 1.70875 -0.922797 0
M  V30 16649 C 1590.66 2.83632 -2.00425 0
M  V30 16650 C 1589.62 2.88478 -3.16171 0
M  V30 16651 C 1588.94 4.28508 -3.19821 0
M  V30 16652 C 1590.24 2.56628 -4.54906 0
M  V30 16653 H 1591.94 1.22256 -2.73302 0
M  V30 16654 H 1589.48 0.586688 -1.31507 0
M  V30 16655 H 1591.43 3.59876 -2.19242 0
M  V30 16656 H 1590.16 3.0896 -1.05884 0
M  V30 16657 H 1588.82 2.14684 -2.97164 0
M  V30 16658 H 1588.47 4.509 -2.2293 0
M  V30 16659 H 1588.17 4.32667 -3.97584 0
M  V30 16660 H 1589.69 5.06635 -3.40813 0
M  V30 16661 H 1591.1 3.22587 -4.73931 0
M  V30 16662 H 1589.5 2.72114 -5.34859 0
M  V30 16663 H 1590.57 1.51902 -4.60493 0
M  V30 16664 N 1591.91 1.44376 0.631925 0
M  V30 16665 C 1593.14 1.50598 1.41873 0
M  V30 16666 C 1593.56 0.130589 1.88348 0
M  V30 16667 O 1592.91 -0.86336 1.60787 0
M  V30 16668 C 1592.96 2.47 2.63957 0
M  V30 16669 O 1592.69 3.79192 2.1942 0
M  V30 16670 C 1594.19 2.62678 3.57092 0
M  V30 16671 H 1591.41 0.510792 0.435124 0
M  V30 16672 H 1593.95 1.89332 0.772893 0
M  V30 16673 H 1592.11 2.11404 3.24634 0
M  V30 16674 H 1592.52 4.31231 2.98563 0
M  V30 16675 H 1593.99 3.34161 4.39364 0
M  V30 16676 H 1594.47 1.67881 4.05848 0
M  V30 16677 H 1595.08 2.99172 3.02285 0
M  V30 16678 N 1593.39 -0.872258 1.31261 0
M  V30 16679 C 1594.3 -2.01185 1.20673 0
M  V30 16680 C 1595.32 -1.73558 0.123921 0
M  V30 16681 O 1596.49 -1.98487 0.341288 0
M  V30 16682 C 1593.56 -3.34481 0.91232 0
M  V30 16683 C 1592.62 -3.75446 2.08179 0
M  V30 16684 C 1591.85 -5.02382 1.80134 0
M  V30 16685 O 1592.08 -5.6564 0.735358 0
M  V30 16686 O 1591.01 -5.40059 2.65744 0
M  V30 16687 H 1594.84 -2.13049 2.16434 0
M  V30 16688 H 1592.42 -1.00021 1.10978 0
M  V30 16689 H 1594.3 -4.14419 0.763879 0
M  V30 16690 H 1592.98 -3.23696 -0.0152802 0
M  V30 16691 H 1591.88 -2.96159 2.28562 0
M  V30 16692 H 1593.22 -3.90853 2.99156 0
M  V30 16693 N 1594.87 -1.14184 -1.08627 0
M  V30 16694 C 1596.15 -0.81955 -1.77603 0
M  V30 16695 C 1596.53 0.687377 -1.99595 0
M  V30 16696 O 1595.87 1.62744 -1.60396 0
M  V30 16697 C 1596.08 -1.61574 -3.09346 0
M  V30 16698 C 1597.43 -1.81367 -3.83916 0
M  V30 16699 O 1598.46 -1.58241 -3.19121 0
M  V30 16700 O 1597.32 -2.20011 -5.00257 0
M  V30 16701 H 1594.41 -0.300086 -0.770635 0
M  V30 16702 H 1596.96 -1.24691 -1.15109 0
M  V30 16703 H 1595.73 -2.63946 -2.88874 0
M  V30 16704 H 1595.35 -1.18386 -3.79566 0
M  V30 16705 N 1596.35 1.26749 -0.936613 0
M  V30 16706 C 1597.57 1.98597 -0.597817 0
M  V30 16707 C 1598 1.69324 0.8192 0
M  V30 16708 O 1597.36 0.938634 1.55111 0
M  V30 16709 C 1597.4 3.50656 -0.841007 0
M  V30 16710 O 1596.51 4.12304 0.0891038 0
M  V30 16711 H 1595.85 0.623197 -0.229176 0
M  V30 16712 H 1598.38 1.61332 -1.2583 0
M  V30 16713 H 1598.39 4.00857 -0.760093 0
M  V30 16714 H 1597.06 3.71293 -1.87388 0
M  V30 16715 H 1595.64 3.72876 -0.0424804 0
M  V30 16716 N 1597.83 0.703118 1.41046 0
M  V30 16717 C 1599.08 0.234346 2.00334 0
M  V30 16718 C 1599.39 -1.17524 1.56357 0
M  V30 16719 O 1600.59 -1.74188 2.08257 0
M  V30 16720 C 1599.05 0.368067 3.58013 0
M  V30 16721 C 1598.66 1.7835 4.10969 0
M  V30 16722 C 1600.4 -0.0405456 4.24481 0
M  V30 16723 C 1598.31 1.86848 5.61108 0
M  V30 16724 H 1597.24 0.0838583 0.749322 0
M  V30 16725 H 1599.89 0.872407 1.61435 0
M  V30 16726 H 1598.27 -0.338371 3.94552 0
M  V30 16727 H 1599.45 2.51931 3.85833 0
M  V30 16728 H 1597.76 2.14246 3.57054 0
M  V30 16729 H 1600.36 0.00239803 5.347 0
M  V30 16730 H 1600.7 -1.08049 4.02034 0
M  V30 16731 H 1601.23 0.615887 3.93003 0
M  V30 16732 H 1597.97 2.8892 5.88392 0
M  V30 16733 H 1597.49 1.17662 5.88146 0
M  V30 16734 H 1599.17 1.63484 6.26005 0
M  V30 16735 N 1599.3 -1.51086 0.448402 0
M  V30 16736 C 1600.58 -1.94817 -0.174819 0
M  V30 16737 C 1600.96 -1.38767 -1.59081 0
M  V30 16738 O 1600.31 -0.579257 -2.21036 0
M  V30 16739 C 1600.52 -3.48714 -0.14129 0
M  V30 16740 C 1601.87 -4.23225 -0.341414 0
M  V30 16741 O 1602.89 -3.55527 -0.218908 0
M  V30 16742 O 1601.75 -5.43346 -0.586331 0
M  V30 16743 H 1598.84 -0.817652 -0.12399 0
M  V30 16744 H 1601.39 -1.61944 0.507177 0
M  V30 16745 H 1600.16 -3.81996 0.848222 0
M  V30 16746 H 1599.79 -3.88061 -0.865722 0
M  V30 16747 N 1600.78 -0.180154 -1.56567 0
M  V30 16748 C 1602.06 0.509347 -1.88852 0
M  V30 16749 C 1602.44 1.80697 -1.09141 0
M  V30 16750 O 1601.79 2.27726 -0.187974 0
M  V30 16751 C 1602 0.742669 -3.41006 0
M  V30 16752 C 1603.35 1.06873 -4.1093 0
M  V30 16753 O 1604.37 0.830907 -3.46373 0
M  V30 16754 O 1603.23 1.51784 -5.24999 0
M  V30 16755 H 1600.32 0.263629 -0.783855 0
M  V30 16756 H 1602.87 -0.219251 -1.68278 0
M  V30 16757 H 1601.64 -0.17431 -3.90912 0
M  V30 16758 H 1601.26 1.52427 -3.67222 0
M  V30 16759 N 1602.26 1.57322 0.0935319 0
M  V30 16760 C 1603.49 1.90375 0.810245 0
M  V30 16761 C 1603.9 0.774011 1.72205 0
M  V30 16762 O 1603.26 -0.253918 1.80725 0
M  V30 16763 C 1603.31 3.23054 1.62228 0
M  V30 16764 O 1603.03 4.31682 0.747157 0
M  V30 16765 C 1604.53 3.6998 2.44192 0
M  V30 16766 H 1601.75 0.629769 0.231586 0
M  V30 16767 H 1604.3 2.04379 0.0702984 0
M  V30 16768 H 1602.45 3.10643 2.31472 0
M  V30 16769 H 1602.87 5.07884 1.30974 0
M  V30 16770 H 1604.34 4.65507 2.96659 0
M  V30 16771 H 1604.82 2.97899 3.22727 0
M  V30 16772 H 1605.42 3.85264 1.80144 0
M  V30 16773 N 1603.74 -0.364395 1.53329 0
M  V30 16774 C 1604.99 -1.10691 1.69569 0
M  V30 16775 C 1605.31 -1.89268 0.448093 0
M  V30 16776 O 1604.57 -1.87216 -0.56997 0
M  V30 16777 C 1604.87 -2.09208 2.8977 0
M  V30 16778 C 1604.53 -1.47103 4.26229 0
M  V30 16779 C 1603.2 -1.29893 4.63337 0
M  V30 16780 C 1605.55 -1.0218 5.11086 0
M  V30 16781 C 1602.88 -0.663463 5.82937 0
M  V30 16782 C 1605.23 -0.400334 6.31332 0
M  V30 16783 C 1603.89 -0.21574 6.67151 0
M  V30 16784 H 1603.16 -0.405048 0.620498 0
M  V30 16785 H 1605.81 -0.388568 1.87516 0
M  V30 16786 H 1604.11 -2.8735 2.6634 0
M  V30 16787 H 1605.81 -2.66615 2.99529 0
M  V30 16788 H 1602.4 -1.61491 3.97012 0
M  V30 16789 H 1606.58 -1.14269 4.82966 0
M  V30 16790 H 1601.84 -0.508867 6.09279 0
M  V30 16791 H 1606.01 -0.0440554 6.96386 0
M  V30 16792 H 1603.64 0.278732 7.59689 0
M  V30 16793 N 1605.22 -1.44709 -0.62426 0
M  V30 16794 C 1606.15 -1.54934 -1.74693 0
M  V30 16795 C 1607.13 -0.401897 -1.65284 0
M  V30 16796 O 1608.31 -0.622906 -1.83939 0
M  V30 16797 C 1605.44 -1.49976 -3.13248 0
M  V30 16798 C 1604.4 -2.63267 -3.37453 0
M  V30 16799 C 1603.72 -2.43362 -4.76108 0
M  V30 16800 C 1605.02 -4.0538 -3.2934 0
M  V30 16801 H 1606.72 -2.48905 -1.66393 0
M  V30 16802 H 1604.26 -1.19794 -0.799088 0
M  V30 16803 H 1606.22 -1.55729 -3.91569 0
M  V30 16804 H 1604.94 -0.525254 -3.22349 0
M  V30 16805 H 1603.6 -2.56915 -2.61515 0
M  V30 16806 H 1603.25 -1.44088 -4.81921 0
M  V30 16807 H 1602.95 -3.19324 -4.93261 0
M  V30 16808 H 1604.47 -2.50943 -5.56651 0
M  V30 16809 H 1605.88 -4.13064 -3.97556 0
M  V30 16810 H 1604.28 -4.81599 -3.58025 0
M  V30 16811 H 1605.35 -4.28465 -2.27038 0
M  V30 16812 N 1606.69 0.865285 -1.31722 0
M  V30 16813 C 1608.11 1.43445 -1.195 0
M  V30 16814 C 1608.46 1.95212 0.196688 0
M  V30 16815 O 1607.58 1.86666 1.09475 0
M  V30 16816 C 1608.18 2.6074 -2.16333 0
M  V30 16817 C 1606.74 3.13688 -2.08031 0
M  V30 16818 C 1605.88 1.86409 -2.05298 0
M  V30 16819 H 1608.83 0.6734 -1.43705 0
M  V30 16820 H 1608.85 3.37575 -1.75566 0
M  V30 16821 H 1608.37 2.23033 -3.17612 0
M  V30 16822 H 1606.47 3.56004 -1.09962 0
M  V30 16823 H 1606.58 3.75653 -2.97358 0
M  V30 16824 H 1604.94 2.05567 -1.50381 0
M  V30 16825 H 1605.73 1.50933 -3.08341 0
M  V30 16826 N 1608.17 1.14759 1.0802 0
M  V30 16827 C 1609.42 0.919609 1.80751 0
M  V30 16828 C 1609.75 -0.552268 1.86182 0
M  V30 16829 O 1609.03 -1.40922 1.34057 0
M  V30 16830 C 1609.31 1.52611 3.26162 0
M  V30 16831 C 1609.16 3.06811 3.28918 0
M  V30 16832 C 1610.48 1.20625 4.23246 0
M  V30 16833 H 1607.6 0.33551 0.656203 0
M  V30 16834 H 1610.24 1.41816 1.26444 0
M  V30 16835 H 1608.39 1.10213 3.72539 0
M  V30 16836 H 1610.06 3.58068 2.90835 0
M  V30 16837 H 1608.31 3.41055 2.68075 0
M  V30 16838 H 1608.98 3.44357 4.31419 0
M  V30 16839 H 1611.45 1.57287 3.85227 0
M  V30 16840 H 1610.33 1.65689 5.23296 0
M  V30 16841 H 1610.59 0.122177 4.41931 0
M  V30 16842 N 1609.65 -1.26251 0.943322 0
M  V30 16843 C 1611.06 -1.75591 0.634391 0
M  V30 16844 C 1611.41 -1.76812 -0.850406 0
M  V30 16845 O 1610.54 -1.38162 -1.66554 0
M  V30 16846 C 1611.13 -3.18871 1.14484 0
M  V30 16847 C 1609.69 -3.65817 0.886285 0
M  V30 16848 C 1608.84 -2.4523 1.2945 0
M  V30 16849 H 1611.79 -1.12297 1.12139 0
M  V30 16850 H 1611.81 -3.77205 0.499654 0
M  V30 16851 H 1611.32 -3.17951 2.22551 0
M  V30 16852 H 1609.42 -3.72165 -0.179913 0
M  V30 16853 H 1609.54 -4.54523 1.5148 0
M  V30 16854 H 1607.9 -2.44519 0.712919 0
M  V30 16855 H 1608.68 -2.47009 2.38415 0
M  V30 16856 N 1611.13 -0.710588 -1.40671 0
M  V30 16857 C 1612.04 -0.0557164 -2.34534 0
M  V30 16858 C 1613.06 0.749387 -1.57036 0
M  V30 16859 O 1614.23 0.683493 -1.89447 0
M  V30 16860 C 1611.3 0.858583 -3.35901 0
M  V30 16861 C 1610.36 0.043995 -4.29277 0
M  V30 16862 C 1609.59 0.91475 -5.25802 0
M  V30 16863 O 1609.81 2.15407 -5.28163 0
M  V30 16864 O 1608.75 0.356407 -6.00844 0
M  V30 16865 H 1612.57 -0.829807 -2.92144 0
M  V30 16866 H 1610.16 -0.471028 -1.4178 0
M  V30 16867 H 1612.04 1.38244 -3.98079 0
M  V30 16868 H 1610.72 1.61191 -2.80712 0
M  V30 16869 H 1609.62 -0.524815 -3.704 0
M  V30 16870 H 1610.96 -0.670996 -4.87605 0
M  V30 16871 N 1612.61 1.50847 -0.456408 0
M  V30 16872 C 1613.84 2.0635 0.10159 0
M  V30 16873 C 1614.25 1.32198 1.35353 0
M  V30 16874 O 1613.59 0.380433 1.79718 0
M  V30 16875 C 1613.65 3.56411 0.470283 0
M  V30 16876 C 1613.31 4.51949 -0.677546 0
M  V30 16877 C 1614.31 4.96091 -1.55531 0
M  V30 16878 C 1612 4.94819 -0.863701 0
M  V30 16879 C 1613.99 5.81793 -2.60377 0
M  V30 16880 C 1611.68 5.80306 -1.9154 0
M  V30 16881 C 1612.68 6.23693 -2.78381 0
M  V30 16882 O 1612.36 7.0748 -3.81742 0
M  V30 16883 H 1612.1 0.675994 0.00283373 0
M  V30 16884 H 1614.65 1.95178 -0.639893 0
M  V30 16885 H 1612.88 3.65433 1.26475 0
M  V30 16886 H 1614.57 3.94344 0.961649 0
M  V30 16887 H 1615.33 4.63651 -1.42311 0
M  V30 16888 H 1611.21 4.60578 -0.197285 0
M  V30 16889 H 1614.76 6.15578 -3.2819 0
M  V30 16890 H 1610.65 6.12159 -2.04773 0
M  V30 16891 H 1611.42 7.257 -3.78553 0
M  V30 16892 N 1614.09 0.188454 1.56469 0
M  V30 16893 C 1615.33 -0.452238 1.96565 0
M  V30 16894 C 1615.65 -1.63219 1.07792 0
M  V30 16895 O 1616.85 -2.34024 1.37641 0
M  V30 16896 C 1615.31 -0.855966 3.49573 0
M  V30 16897 C 1614.92 0.299329 4.46999 0
M  V30 16898 C 1616.66 -1.46411 3.98452 0
M  V30 16899 C 1614.57 -0.124987 5.91268 0
M  V30 16900 H 1613.5 -0.172729 0.733949 0
M  V30 16901 H 1616.15 0.279415 1.8136 0
M  V30 16902 H 1614.53 -1.64409 3.60258 0
M  V30 16903 H 1615.71 1.07681 4.48042 0
M  V30 16904 H 1614.02 0.818542 4.08275 0
M  V30 16905 H 1616.62 -1.79392 5.03709 0
M  V30 16906 H 1616.96 -2.36822 3.42376 0
M  V30 16907 H 1617.49 -0.740088 3.90855 0
M  V30 16908 H 1614.23 0.744769 6.51255 0
M  V30 16909 H 1613.75 -0.86747 5.93494 0
M  V30 16910 H 1615.43 -0.563054 6.44545 0
M  V30 16911 N 1615.56 -1.5737 -0.0851874 0
M  V30 16912 C 1616.51 -2.03781 -1.12142 0
M  V30 16913 C 1617.51 -0.940669 -1.40882 0
M  V30 16914 O 1618.71 -1.12582 -1.40447 0
M  V30 16915 H 1615.09 -0.64956 -0.378914 0
M  V30 16916 H 1617.06 -2.89983 -0.703736 0
M  V30 16917 C 1615.81 -2.48628 -2.43062 0
M  V30 16918 H 1615.13 -3.32637 -2.21795 0
M  V30 16919 H 1616.57 -2.84869 -3.14048 0
M  V30 16920 C 1615.03 -1.36364 -3.08069 0
M  V30 16921 O 1615.56 -0.698273 -3.95584 0
M  V30 16922 N 1613.76 -1.11213 -2.68477 0
M  V30 16923 H 1613.31 -1.655 -1.97402 0
M  V30 16924 H 1613.27 -0.363003 -3.12297 0
M  V30 16925 N 1617.04 0.356258 -1.53521 0
M  V30 16926 C 1617.97 1.45722 -1.76912 0
M  V30 16927 C 1618.99 1.49257 -0.650091 0
M  V30 16928 O 1620.18 1.52569 -0.926557 0
M  V30 16929 C 1617.28 2.84444 -1.84241 0
M  V30 16930 C 1616.45 3.04497 -3.14007 0
M  V30 16931 C 1615.51 4.23387 -3.12458 0
M  V30 16932 O 1614.53 4.18113 -3.86225 0
M  V30 16933 N 1615.74 5.31278 -2.33931 0
M  V30 16934 H 1618.5 1.26031 -2.71912 0
M  V30 16935 H 1616.06 0.546052 -1.52414 0
M  V30 16936 H 1618.05 3.62133 -1.80671 0
M  V30 16937 H 1616.62 2.97338 -0.96484 0
M  V30 16938 H 1615.84 2.14387 -3.30805 0
M  V30 16939 H 1617.13 3.14769 -3.99747 0
M  V30 16940 H 1616.53 5.38428 -1.73527 0
M  V30 16941 H 1615.09 6.07508 -2.36171 0
M  V30 16942 N 1618.52 1.45038 0.616577 0
M  V30 16943 C 1619.74 1.52321 1.40759 0
M  V30 16944 C 1620.17 0.15375 1.87471 0
M  V30 16945 O 1619.53 -0.859908 1.5961 0
M  V30 16946 C 1619.58 2.50464 2.59423 0
M  V30 16947 O 1618.68 2.01623 3.59753 0
M  V30 16948 H 1618.02 0.513808 0.420592 0
M  V30 16949 H 1620.55 1.90309 0.751234 0
M  V30 16950 H 1620.56 2.68977 3.06783 0
M  V30 16951 H 1619.24 3.4993 2.24771 0
M  V30 16952 H 1617.81 1.92945 3.19103 0
M  V30 16953 N 1620 -0.858287 1.32179 0
M  V30 16954 C 1621.24 -1.6146 1.22713 0
M  V30 16955 C 1621.58 -1.93045 -0.211479 0
M  V30 16956 O 1620.85 -1.57034 -1.14764 0
M  V30 16957 C 1621.13 -2.93728 2.08317 0
M  V30 16958 C 1620.99 -2.68947 3.60538 0
M  V30 16959 C 1622.31 -3.94959 1.94153 0
M  V30 16960 H 1619.43 -0.585872 0.447128 0
M  V30 16961 H 1622.07 -0.99134 1.62088 0
M  V30 16962 H 1620.22 -3.4692 1.74867 0
M  V30 16963 H 1621.89 -2.22336 4.04183 0
M  V30 16964 H 1620.13 -2.02974 3.83385 0
M  V30 16965 H 1620.8 -3.63112 4.15756 0
M  V30 16966 H 1623.28 -3.51013 2.23449 0
M  V30 16967 H 1622.16 -4.85371 2.56332 0
M  V30 16968 H 1622.42 -4.32672 0.908132 0
M  V30 16969 N 1621.48 -1.1533 -1.07409 0
M  V30 16970 C 1622.89 -0.937287 -1.61468 0
M  V30 16971 C 1623.24 0.521545 -1.89141 0
M  V30 16972 O 1622.36 1.39253 -1.65643 0
M  V30 16973 C 1622.96 -1.69501 -2.93351 0
M  V30 16974 C 1621.52 -1.52429 -3.44154 0
M  V30 16975 C 1620.66 -1.71098 -2.18222 0
M  V30 16976 H 1623.61 -1.30364 -0.905044 0
M  V30 16977 H 1623.64 -1.16416 -3.62253 0
M  V30 16978 H 1623.15 -2.75672 -2.73178 0
M  V30 16979 H 1621.25 -0.486498 -3.6941 0
M  V30 16980 H 1621.36 -2.30089 -4.20233 0
M  V30 16981 H 1619.73 -1.13745 -2.27891 0
M  V30 16982 H 1620.51 -2.78634 -2.00545 0
M  V30 16983 N 1622.95 1.25748 -0.950004 0
M  V30 16984 C 1623.9 2.26061 -0.46531 0
M  V30 16985 C 1624.87 1.59021 0.479742 0
M  V30 16986 O 1626.06 1.86687 0.394011 0
M  V30 16987 C 1623.2 3.44156 0.255146 0
M  V30 16988 C 1622.31 4.25846 -0.726604 0
M  V30 16989 C 1621.44 5.31198 0.0159429 0
M  V30 16990 C 1620.48 6.04572 -0.957046 0
M  V30 16991 N 1619.62 7.0167 -0.245676 0
M  V30 16992 H 1624.46 2.66891 -1.32563 0
M  V30 16993 H 1622 1.31216 -0.664882 0
M  V30 16994 H 1623.95 4.11465 0.689381 0
M  V30 16995 H 1622.58 3.04213 1.07954 0
M  V30 16996 H 1621.64 3.58242 -1.27933 0
M  V30 16997 H 1622.95 4.76669 -1.46928 0
M  V30 16998 H 1622.1 6.04561 0.509037 0
M  V30 16999 H 1620.84 4.81235 0.791442 0
M  V30 17000 H 1619.85 5.30028 -1.46118 0
M  V30 17001 H 1621.07 6.56624 -1.7327 0
M  V30 17002 H 1619.02 6.54005 0.51117 0
M  V30 17003 H 1618.93 7.50289 -0.927527 0
M  V30 17004 H 1620.2 7.79172 0.226034 0
M  V30 17005 N 1624.43 0.718038 1.40292 0
M  V30 17006 C 1625.85 0.391848 1.54715 0
M  V30 17007 C 1626.05 -1.09911 1.68884 0
M  V30 17008 O 1625.1 -1.88518 1.6798 0
M  V30 17009 C 1626.42 1.16005 2.77423 0
M  V30 17010 C 1627.96 1.14659 2.91243 0
M  V30 17011 C 1628.44 1.897 4.16867 0
M  V30 17012 N 1629.93 1.86781 4.23872 0
M  V30 17013 C 1630.67 2.41665 5.19986 0
M  V30 17014 N 1630.16 3.05116 6.21994 0
M  V30 17015 N 1631.95 2.31794 5.12082 0
M  V30 17016 H 1624.11 1.68477 1.29342 0
M  V30 17017 H 1626.37 0.712248 0.625625 0
M  V30 17018 H 1626.07 2.21435 2.73239 0
M  V30 17019 H 1625.95 0.75328 3.69602 0
M  V30 17020 H 1628.34 0.100477 2.94929 0
M  V30 17021 H 1628.42 1.5926 2.00175 0
M  V30 17022 H 1628.06 2.94303 4.13942 0
M  V30 17023 H 1627.99 1.42518 5.06948 0
M  V30 17024 H 1630.48 1.40541 3.50794 0
M  V30 17025 H 1630.79 3.44505 6.91763 0
M  V30 17026 H 1629.14 3.09201 6.22431 0
M  V30 17027 H 1632.33 1.81879 4.31321 0
M  V30 17028 H 1632.5 2.74868 5.86815 0
M  V30 17029 N 1625.91 -1.50602 0.464402 0
M  V30 17030 C 1627.32 -1.86698 0.00767586 0
M  V30 17031 C 1627.67 -1.37971 -1.39494 0
M  V30 17032 O 1626.8 -0.741843 -2.03287 0
M  V30 17033 C 1627.39 -3.38799 0.00715323 0
M  V30 17034 C 1625.95 -3.74331 -0.394077 0
M  V30 17035 C 1625.1 -2.74465 0.395495 0
M  V30 17036 H 1628.05 -1.43441 0.678996 0
M  V30 17037 H 1628.07 -3.7207 -0.796497 0
M  V30 17038 H 1627.58 -3.74234 1.02812 0
M  V30 17039 H 1625.68 -3.44495 -1.41964 0
M  V30 17040 H 1625.8 -4.78995 -0.10007 0
M  V30 17041 H 1624.16 -2.54258 -0.149903 0
M  V30 17042 H 1624.94 -3.12744 1.41585 0
M  V30 17043 N 1627.39 -0.19675 -1.56367 0
M  V30 17044 C 1628.35 0.709734 -2.17934 0
M  V30 17045 C 1629.35 1.13979 -1.13426 0
M  V30 17046 O 1630.54 1.05261 -1.38801 0
M  V30 17047 C 1627.67 1.96917 -2.78274 0
M  V30 17048 H 1628.87 0.173342 -2.99399 0
M  V30 17049 H 1626.42 0.0528698 -1.56211 0
M  V30 17050 H 1627.15 2.54804 -2.00613 0
M  V30 17051 H 1626.94 1.66951 -3.54781 0
M  V30 17052 H 1628.43 2.61554 -3.25545 0
M  V30 17053 N 1628.87 1.57413 0.0768405 0
M  V30 17054 C 1630.11 1.86633 0.775414 0
M  V30 17055 C 1630.44 0.788041 1.78367 0
M  V30 17056 O 1629.71 -0.183835 1.95036 0
M  V30 17057 H 1628.29 0.688678 0.289365 0
M  V30 17058 H 1630.95 1.94825 0.0541285 0
M  V30 17059 H 1630.04 2.83977 1.29474 0
M  V30 17060 N 1630.34 -0.348112 1.53707 0
M  V30 17061 C 1631.57 -1.11346 1.74976 0
M  V30 17062 C 1631.99 -1.81726 0.485525 0
M  V30 17063 O 1631.35 -1.72384 -0.561565 0
M  V30 17064 C 1631.4 -2.10611 2.92703 0
M  V30 17065 O 1630.5 -3.18042 2.62532 0
M  V30 17066 H 1629.85 -0.322247 0.580563 0
M  V30 17067 H 1632.38 -0.399898 2.00654 0
M  V30 17068 H 1632.39 -2.53912 3.19363 0
M  V30 17069 H 1631.06 -1.58782 3.84397 0
M  V30 17070 H 1629.64 -2.79591 2.46746 0
M  V30 17071 N 1631.82 -1.45363 -0.608876 0
M  V30 17072 C 1633.07 -1.49534 -1.36995 0
M  V30 17073 C 1633.4 -0.136087 -1.93723 0
M  V30 17074 O 1632.68 0.849276 -1.74979 0
M  V30 17075 C 1632.96 -2.57348 -2.51881 0
M  V30 17076 C 1632.81 -4.02712 -2.00358 0
M  V30 17077 C 1634.13 -2.61459 -3.54016 0
M  V30 17078 H 1631.25 -0.544419 -0.496767 0
M  V30 17079 H 1633.89 -1.77165 -0.686473 0
M  V30 17080 H 1632.04 -2.33917 -3.10185 0
M  V30 17081 H 1633.71 -4.37348 -1.46713 0
M  V30 17082 H 1631.96 -4.1343 -1.31369 0
M  V30 17083 H 1632.63 -4.73834 -2.8317 0
M  V30 17084 H 1635.1 -2.8245 -3.0555 0
M  V30 17085 H 1633.98 -3.38761 -4.31894 0
M  V30 17086 H 1634.24 -1.66499 -4.09549 0
M  V30 17087 N 1633.3 0.851265 -1.32632 0
M  V30 17088 C 1634.23 1.96682 -1.17681 0
M  V30 17089 C 1635.25 1.62422 -0.110926 0
M  V30 17090 O 1636.43 1.74828 -0.360202 0
M  V30 17091 C 1633.53 3.29806 -0.779838 0
M  V30 17092 C 1632.71 3.92284 -1.93473 0
M  V30 17093 C 1631.77 5.03745 -1.52075 0
M  V30 17094 O 1630.79 5.23558 -2.23328 0
M  V30 17095 N 1631.99 5.78988 -0.418695 0
M  V30 17096 H 1634.76 2.10049 -2.13775 0
M  V30 17097 H 1632.32 1.02631 -1.25214 0
M  V30 17098 H 1634.31 4.0178 -0.485236 0
M  V30 17099 H 1632.88 3.1247 0.0900498 0
M  V30 17100 H 1632.1 3.13054 -2.39564 0
M  V30 17101 H 1633.39 4.30762 -2.7078 0
M  V30 17102 H 1632.79 5.65432 0.174269 0
M  V30 17103 H 1631.35 6.51541 -0.183714 0
M  V30 17104 N 1634.78 1.15898 1.06796 0
M  V30 17105 C 1635.73 0.856808 2.16244 0
M  V30 17106 C 1636.72 -0.172075 1.68524 0
M  V30 17107 O 1637.93 -0.0265569 1.7998 0
M  V30 17108 H 1634.3 0.259445 0.705827 0
M  V30 17109 H 1636.27 1.7874 2.38945 0
M  V30 17110 C 1635.02 0.368721 3.45739 0
M  V30 17111 H 1634.34 1.15184 3.82848 0
M  V30 17112 H 1635.78 0.196012 4.23547 0
M  V30 17113 C 1634.24 -0.910802 3.24355 0
M  V30 17114 O 1634.77 -1.98115 3.49447 0
M  V30 17115 N 1632.98 -0.852545 2.77813 0
M  V30 17116 H 1632.53 0.0186646 2.57593 0
M  V30 17117 H 1632.48 -1.70917 2.63884 0
M  V30 17118 N 1636.26 -1.25243 0.956659 0
M  V30 17119 C 1637.67 -1.74909 0.652979 0
M  V30 17120 C 1638.02 -1.77704 -0.831605 0
M  V30 17121 O 1637.14 -1.39921 -1.65079 0
M  V30 17122 C 1637.74 -3.17639 1.1786 0
M  V30 17123 C 1636.3 -3.64856 0.925034 0
M  V30 17124 C 1635.44 -2.43844 1.32044 0
M  V30 17125 H 1638.4 -1.11101 1.13324 0
M  V30 17126 H 1638.42 -3.76654 0.539633 0
M  V30 17127 H 1637.93 -3.15572 2.25911 0
M  V30 17128 H 1636.03 -3.72335 -0.14043 0
M  V30 17129 H 1636.14 -4.5289 1.56292 0
M  V30 17130 H 1634.51 -2.43749 0.738813 0
M  V30 17131 H 1635.29 -2.44466 2.41021 0
M  V30 17132 N 1637.73 -0.725468 -1.3991 0
M  V30 17133 C 1638.98 -0.26965 -2.00999 0
M  V30 17134 C 1639.31 1.13727 -1.57416 0
M  V30 17135 O 1638.59 1.77345 -0.798693 0
M  V30 17136 C 1638.87 -0.360784 -3.58288 0
M  V30 17137 C 1638.72 -1.80679 -4.11916 0
M  V30 17138 C 1640.04 0.262328 -4.39317 0
M  V30 17139 H 1637.16 -0.0994547 -0.730259 0
M  V30 17140 H 1639.8 -0.91983 -1.6625 0
M  V30 17141 H 1637.95 0.192779 -3.88021 0
M  V30 17142 H 1639.63 -2.4165 -3.92942 0
M  V30 17143 H 1637.87 -2.33127 -3.65834 0
M  V30 17144 H 1638.54 -1.82189 -5.21068 0
M  V30 17145 H 1641.02 -0.209452 -4.15573 0
M  V30 17146 H 1639.89 0.168166 -5.48642 0
M  V30 17147 H 1640.15 1.34716 -4.21075 0
M  V30 17148 N 1639.21 1.50354 -0.472382 0
M  V30 17149 C 1640.44 2.06446 0.0796976 0
M  V30 17150 C 1640.85 1.33626 1.33943 0
M  V30 17151 O 1640.19 0.399473 1.79304 0
M  V30 17152 C 1640.26 3.56889 0.432455 0
M  V30 17153 C 1639.92 4.51205 -0.725443 0
M  V30 17154 C 1640.92 4.94413 -1.60784 0
M  V30 17155 C 1638.6 4.93875 -0.916135 0
M  V30 17156 C 1640.6 5.78998 -2.66533 0
M  V30 17157 C 1638.28 5.78242 -1.97684 0
M  V30 17158 C 1639.28 6.20706 -2.8498 0
M  V30 17159 O 1638.97 7.03391 -3.89224 0
M  V30 17160 H 1638.7 0.675986 -0.00433625 0
M  V30 17161 H 1641.25 1.94489 -0.660558 0
M  V30 17162 H 1639.48 3.66754 1.22591 0
M  V30 17163 H 1641.17 3.95342 0.919769 0
M  V30 17164 H 1641.94 4.62116 -1.47221 0
M  V30 17165 H 1637.82 4.60343 -0.246124 0
M  V30 17166 H 1641.36 6.12063 -3.34701 0
M  V30 17167 H 1637.26 6.09953 -2.11254 0
M  V30 17168 H 1638.03 7.21644 -3.86229 0
M  V30 17169 N 1640.69 0.205039 1.56261 0
M  V30 17170 C 1641.64 -0.724845 2.16171 0
M  V30 17171 C 1642.63 -1.16929 1.10528 0
M  V30 17172 O 1643.82 -1.12603 1.36564 0
M  V30 17173 C 1640.95 -1.93992 2.83235 0
M  V30 17174 C 1640.03 -1.51592 3.96082 0
M  V30 17175 N 1640.42 -0.80348 4.99377 0
M  V30 17176 C 1638.72 -1.80447 4.07866 0
M  V30 17177 C 1639.42 -0.58958 5.78704 0
M  V30 17178 N 1638.4 -1.14132 5.31484 0
M  V30 17179 H 1642.2 -0.171919 2.93397 0
M  V30 17180 H 1639.71 0.00563679 1.62399 0
M  V30 17181 H 1641.71 -2.61667 3.24555 0
M  V30 17182 H 1640.37 -2.49747 2.07501 0
M  V30 17183 H 1641.38 -0.457893 5.15872 0
M  V30 17184 H 1638.06 -2.3764 3.43269 0
M  V30 17185 H 1639.45 -0.0237117 6.71896 0
M  V30 17186 N 1642.17 -1.57451 -0.0684915 0
M  V30 17187 C 1643.12 -2.04959 -1.09975 0
M  V30 17188 C 1644.11 -0.955558 -1.39877 0
M  V30 17189 O 1645.32 -1.14066 -1.39245 0
M  V30 17190 H 1641.69 -0.653542 -0.372003 0
M  V30 17191 H 1643.66 -2.90713 -0.67294 0
M  V30 17192 C 1642.41 -2.51192 -2.40412 0
M  V30 17193 H 1641.74 -3.3497 -2.18254 0
M  V30 17194 H 1643.18 -2.88183 -3.11008 0
M  V30 17195 C 1641.63 -1.39624 -3.06605 0
M  V30 17196 O 1642.16 -0.740191 -3.94822 0
M  V30 17197 N 1640.37 -1.14054 -2.67283 0
M  V30 17198 H 1639.92 -1.67585 -1.95635 0
M  V30 17199 H 1639.88 -0.396106 -3.11895 0
M  V30 17200 N 1643.65 0.339955 -1.5389 0
M  V30 17201 C 1644.58 1.43837 -1.78448 0
M  V30 17202 C 1645.59 1.48559 -0.665885 0
M  V30 17203 O 1646.78 1.51577 -0.942686 0
M  V30 17204 C 1643.88 2.82474 -1.87248 0
M  V30 17205 C 1643.05 3.01149 -3.17219 0
M  V30 17206 C 1642.11 4.20049 -3.16931 0
M  V30 17207 O 1641.14 4.13994 -3.90638 0
M  V30 17208 N 1642.34 5.28767 -2.39553 0
M  V30 17209 H 1645.11 1.2314 -2.73234 0
M  V30 17210 H 1642.67 0.529855 -1.52984 0
M  V30 17211 H 1644.66 3.60196 -1.84502 0
M  V30 17212 H 1643.23 2.96297 -0.996322 0
M  V30 17213 H 1642.45 2.10867 -3.3306 0
M  V30 17214 H 1643.74 3.10511 -4.03063 0
M  V30 17215 H 1643.14 5.36557 -1.79228 0
M  V30 17216 H 1641.69 6.04969 -2.42601 0
M  V30 17217 N 1645.13 1.45684 0.601159 0
M  V30 17218 C 1646.54 1.44423 1.18317 0
M  V30 17219 C 1646.89 0.17524 1.95416 0
M  V30 17220 O 1646.01 -0.722816 2.03971 0
M  V30 17221 C 1646.61 2.61651 2.1523 0
M  V30 17222 C 1645.17 2.6349 2.68793 0
M  V30 17223 C 1644.31 2.36787 1.44317 0
M  V30 17224 H 1647.26 1.53831 0.390108 0
M  V30 17225 H 1647.29 2.36117 2.98377 0
M  V30 17226 H 1646.8 3.53995 1.59088 0
M  V30 17227 H 1644.9 1.7517 3.28856 0
M  V30 17228 H 1645.01 3.62906 3.12787 0
M  V30 17229 H 1643.38 1.86472 1.73494 0
M  V30 17230 H 1644.16 3.31284 0.900327 0
M  V30 17231 N 1646.6 -0.84422 1.33082 0
M  V30 17232 C 1647.53 -1.96899 1.25511 0
M  V30 17233 C 1648.51 -1.69549 0.13677 0
M  V30 17234 O 1649.7 -1.9145 0.325667 0
M  V30 17235 C 1646.83 -3.32947 0.988094 0
M  V30 17236 C 1645.78 -3.7468 2.06879 0
M  V30 17237 C 1645.11 -5.08475 1.65401 0
M  V30 17238 C 1646.41 -3.89033 3.48498 0
M  V30 17239 H 1648.1 -2.03491 2.19617 0
M  V30 17240 H 1645.65 -0.977659 1.05725 0
M  V30 17241 H 1647.6 -4.11198 0.921645 0
M  V30 17242 H 1646.33 -3.26598 0.0114067 0
M  V30 17243 H 1644.99 -2.98689 2.12557 0
M  V30 17244 H 1644.63 -4.98592 0.66449 0
M  V30 17245 H 1644.33 -5.37368 2.37717 0
M  V30 17246 H 1645.86 -5.89207 1.60212 0
M  V30 17247 H 1647.27 -4.57609 3.4535 0
M  V30 17248 H 1645.67 -4.29357 4.19253 0
M  V30 17249 H 1646.74 -2.91639 3.87395 0
M  V30 17250 N 1648.08 -1.16463 -1.0618 0
M  V30 17251 C 1649.03 -0.868264 -2.15787 0
M  V30 17252 C 1650.02 0.163135 -1.68613 0
M  V30 17253 O 1651.23 0.0170117 -1.79992 0
M  V30 17254 H 1647.6 -0.263184 -0.704442 0
M  V30 17255 H 1649.58 -1.80005 -2.37993 0
M  V30 17256 C 1648.32 -0.387052 -3.45539 0
M  V30 17257 H 1647.65 -1.17212 -3.82232 0
M  V30 17258 H 1649.09 -0.218471 -4.23437 0
M  V30 17259 C 1647.55 0.893588 -3.24833 0
M  V30 17260 O 1648.08 1.96259 -3.50493 0
M  V30 17261 N 1646.28 0.8378 -2.78261 0
M  V30 17262 H 1645.83 -0.0323251 -2.5758 0
M  V30 17263 H 1645.79 1.69515 -2.64787 0
M  V30 17264 N 1649.56 1.24734 -0.963288 0
M  V30 17265 C 1650.97 1.7456 -0.662246 0
M  V30 17266 C 1651.32 1.78143 0.822169 0
M  V30 17267 O 1650.45 1.40794 1.64335 0
M  V30 17268 C 1651.04 3.1701 -1.19542 0
M  V30 17269 C 1649.6 3.64361 -0.944371 0
M  V30 17270 C 1648.75 2.4314 -1.33335 0
M  V30 17271 H 1651.7 1.10498 -1.13911 0
M  V30 17272 H 1651.72 3.76362 -0.559601 0
M  V30 17273 H 1651.23 3.1437 -2.27581 0
M  V30 17274 H 1649.33 3.72405 0.120682 0
M  V30 17275 H 1649.45 4.52055 -1.58692 0
M  V30 17276 H 1647.81 2.43354 -0.751729 0
M  V30 17277 H 1648.59 2.43185 -2.42314 0
M  V30 17278 N 1651.04 0.732878 1.39523 0
M  V30 17279 C 1652 0.10004 2.28982 0
M  V30 17280 C 1653 -0.669361 1.46206 0
M  V30 17281 O 1654.19 -0.498694 1.66909 0
M  V30 17282 C 1651.32 -0.867616 3.29674 0
M  V30 17283 H 1652.52 0.88816 2.86447 0
M  V30 17284 H 1650.07 0.498578 1.48135 0
M  V30 17285 H 1650.8 -1.68217 2.77261 0
M  V30 17286 H 1650.59 -0.318577 3.90804 0
M  V30 17287 H 1652.08 -1.30704 3.96618 0
M  V30 17288 N 1652.52 -1.50101 0.480349 0
M  V30 17289 C 1653.93 -1.8668 0.0274773 0
M  V30 17290 C 1654.28 -1.39442 -1.38023 0
M  V30 17291 O 1653.4 -0.763363 -2.02489 0
M  V30 17292 C 1654 -3.38773 0.043087 0
M  V30 17293 C 1652.56 -3.74728 -0.354352 0
M  V30 17294 C 1651.7 -2.7403 0.424583 0
M  V30 17295 H 1654.65 -1.42713 0.694172 0
M  V30 17296 H 1654.68 -3.72894 -0.756989 0
M  V30 17297 H 1654.19 -3.73123 1.06775 0
M  V30 17298 H 1652.29 -3.45981 -1.38303 0
M  V30 17299 H 1652.4 -4.79075 -0.0492608 0
M  V30 17300 H 1650.77 -2.54403 -0.122927 0
M  V30 17301 H 1651.55 -3.11225 1.44894 0
M  V30 17302 N 1653.99 -0.213323 -1.5615 0
M  V30 17303 C 1655.22 0.428746 -2.0292 0
M  V30 17304 C 1655.64 1.53137 -1.09227 0
M  V30 17305 O 1655 1.81128 -0.0789684 0
M  V30 17306 C 1655.05 0.945231 -3.47991 0
M  V30 17307 O 1654.15 2.05709 -3.57432 0
M  V30 17308 H 1653.49 0.0980619 -0.656719 0
M  V30 17309 H 1656.02 -0.329548 -2.01929 0
M  V30 17310 H 1656.03 1.25717 -3.88149 0
M  V30 17311 H 1654.71 0.138161 -4.1567 0
M  V30 17312 H 1653.29 1.75242 -3.29158 0
M  V30 17313 N 1655.47 1.57485 0.0601405 0
M  V30 17314 C 1656.89 1.54105 0.415187 0
M  V30 17315 C 1657.09 0.935177 1.78484 0
M  V30 17316 O 1656.14 0.542715 2.46599 0
M  V30 17317 C 1657.46 2.98708 0.34555 0
M  V30 17318 C 1659.01 3.10103 0.424895 0
M  V30 17319 C 1659.48 4.56379 0.385041 0
M  V30 17320 N 1660.97 4.6106 0.444771 0
M  V30 17321 C 1661.71 5.71737 0.436334 0
M  V30 17322 N 1661.2 6.91746 0.38202 0
M  V30 17323 N 1663 5.60014 0.483759 0
M  V30 17324 H 1655.15 1.95232 -0.836565 0
M  V30 17325 H 1657.41 0.894101 -0.3151 0
M  V30 17326 H 1657.12 3.4664 -0.594427 0
M  V30 17327 H 1656.99 3.59201 1.15129 0
M  V30 17328 H 1659.38 2.62137 1.3553 0
M  V30 17329 H 1659.46 2.52499 -0.409633 0
M  V30 17330 H 1659.1 5.05004 -0.541561 0
M  V30 17331 H 1659.03 5.11859 1.23726 0
M  V30 17332 H 1661.52 3.74703 0.490522 0
M  V30 17333 H 1661.84 7.71866 0.379829 0
M  V30 17334 H 1660.18 6.94126 0.348532 0
M  V30 17335 H 1663.37 4.65158 0.523965 0
M  V30 17336 H 1663.54 6.46266 0.473715 0
M  V30 17337 N 1656.95 -0.331789 1.54068 0
M  V30 17338 C 1658.23 -1.08843 1.6252 0
M  V30 17339 C 1658.61 -2.06164 0.453847 0
M  V30 17340 O 1657.96 -2.21714 -0.552727 0
M  V30 17341 C 1658.17 -1.79767 2.9914 0
M  V30 17342 C 1659.51 -2.33086 3.54903 0
M  V30 17343 O 1660.54 -1.89846 3.01392 0
M  V30 17344 O 1659.4 -3.12226 4.48528 0
M  V30 17345 H 1656.49 -0.501222 0.657804 0
M  V30 17346 H 1659.04 -0.332339 1.66414 0
M  V30 17347 H 1657.81 -1.08932 3.75832 0
M  V30 17348 H 1657.43 -2.62205 2.98888 0
M  V30 17349 N 1658.43 -1.46001 -0.593424 0
M  V30 17350 C 1659.84 -1.45049 -1.17549 0
M  V30 17351 C 1660.19 -0.185601 -1.9532 0
M  V30 17352 O 1659.32 0.711989 -2.04352 0
M  V30 17353 C 1659.91 -2.62789 -2.13839 0
M  V30 17354 C 1658.47 -2.64912 -2.67392 0
M  V30 17355 C 1657.62 -2.37549 -1.43059 0
M  V30 17356 H 1660.57 -1.54035 -0.381944 0
M  V30 17357 H 1660.59 -2.37696 -2.97121 0
M  V30 17358 H 1660.1 -3.54834 -1.57208 0
M  V30 17359 H 1658.2 -1.76911 -3.27922 0
M  V30 17360 H 1658.31 -3.6456 -3.10858 0
M  V30 17361 H 1656.68 -1.8739 -1.72503 0
M  V30 17362 H 1657.46 -3.31757 -0.882746 0
M  V30 17363 N 1659.91 0.83715 -1.33527 0
M  V30 17364 C 1660.86 1.93561 -1.20491 0
M  V30 17365 C 1661.84 1.60541 -0.107395 0
M  V30 17366 O 1663.03 1.73788 -0.335663 0
M  V30 17367 C 1660.16 3.2995 -0.948055 0
M  V30 17368 C 1659.25 3.69134 -2.08809 0
M  V30 17369 N 1659.64 3.79998 -3.33819 0
M  V30 17370 C 1657.94 3.98885 -1.99516 0
M  V30 17371 C 1658.64 4.14031 -4.08599 0
M  V30 17372 N 1657.61 4.26492 -3.37055 0
M  V30 17373 H 1661.42 2.00119 -2.15243 0
M  V30 17374 H 1658.93 1.02997 -1.2556 0
M  V30 17375 H 1660.93 4.0844 -0.835589 0
M  V30 17376 H 1659.59 3.24699 -0.00907808 0
M  V30 17377 H 1660.6 3.6386 -3.68546 0
M  V30 17378 H 1657.27 4.01836 -1.13289 0
M  V30 17379 H 1658.66 4.29759 -5.16485 0
M  V30 17380 N 1661.38 1.17024 1.05561 0
M  V30 17381 C 1662.61 0.979328 1.81914 0
M  V30 17382 C 1663.02 -0.475688 1.83122 0
M  V30 17383 O 1662.37 -1.34205 1.25438 0
M  V30 17384 C 1662.43 1.4391 3.29439 0
M  V30 17385 C 1662.09 2.9155 3.5192 0
M  V30 17386 C 1663.09 3.89509 3.44353 0
M  V30 17387 C 1660.77 3.2964 3.79003 0
M  V30 17388 C 1662.77 5.23557 3.63548 0
M  V30 17389 C 1660.45 4.63855 3.97846 0
M  V30 17390 C 1661.45 5.60623 3.90117 0
M  V30 17391 O 1661.14 6.92411 4.08439 0
M  V30 17392 H 1660.87 0.34689 0.58021 0
M  V30 17393 H 1663.43 1.55641 1.34034 0
M  V30 17394 H 1661.66 0.805555 3.78216 0
M  V30 17395 H 1663.35 1.21445 3.87306 0
M  V30 17396 H 1664.11 3.61428 3.23412 0
M  V30 17397 H 1659.99 2.54891 3.84124 0
M  V30 17398 H 1663.53 5.99074 3.5743 0
M  V30 17399 H 1659.43 4.91644 4.18278 0
M  V30 17400 H 1660.2 6.99095 4.25685 0
M  V30 17401 N 1662.86 -1.24221 0.969889 0
M  V30 17402 C 1663.79 -2.24544 0.459636 0
M  V30 17403 C 1664.81 -1.56941 -0.432813 0
M  V30 17404 O 1666 -1.76898 -0.238637 0
M  V30 17405 C 1663.1 -3.3703 -0.3555 0
M  V30 17406 C 1662.27 -4.34207 0.527566 0
M  V30 17407 C 1661.33 -5.25689 -0.231934 0
M  V30 17408 O 1660.35 -5.67964 0.37488 0
M  V30 17409 N 1661.56 -5.60222 -1.5209 0
M  V30 17410 H 1664.32 -2.68957 1.3222 0
M  V30 17411 H 1661.88 -1.38285 0.84196 0
M  V30 17412 H 1663.87 -3.95201 -0.871685 0
M  V30 17413 H 1662.44 -2.91885 -1.11901 0
M  V30 17414 H 1661.66 -3.74693 1.2247 0
M  V30 17415 H 1662.95 -4.96099 1.12975 0
M  V30 17416 H 1662.35 -5.27807 -2.03559 0
M  V30 17417 H 1660.91 -6.20911 -1.98273 0
M  V30 17418 N 1664.34 -0.740267 -1.39132 0
M  V30 17419 C 1665.62 -0.216602 -1.94397 0
M  V30 17420 C 1666 1.28264 -1.67665 0
M  V30 17421 O 1665.35 2.05075 -1.00778 0
M  V30 17422 C 1665.56 -0.555899 -3.44544 0
M  V30 17423 C 1666.9 -0.50815 -4.21548 0
M  V30 17424 O 1667.93 -0.493401 -3.52766 0
M  V30 17425 O 1666.79 -0.507321 -5.4414 0
M  V30 17426 H 1663.88 -0.0413037 -0.825968 0
M  V30 17427 H 1666.43 -0.819483 -1.48602 0
M  V30 17428 H 1665.2 -1.59187 -3.57457 0
M  V30 17429 H 1664.82 0.0756793 -3.97528 0
M  V30 17430 N 1665.82 1.49844 -0.488302 0
M  V30 17431 C 1667.23 1.86663 -0.037377 0
M  V30 17432 C 1667.58 1.40172 1.37281 0
M  V30 17433 O 1666.71 0.77409 2.02081 0
M  V30 17434 C 1667.3 3.38745 -0.0610523 0
M  V30 17435 C 1665.86 3.74911 0.334475 0
M  V30 17436 C 1665.01 2.73801 -0.439109 0
M  V30 17437 H 1667.96 1.42343 -0.70173 0
M  V30 17438 H 1667.98 3.7329 0.737203 0
M  V30 17439 H 1667.49 3.72551 -1.08753 0
M  V30 17440 H 1665.59 3.4671 1.36466 0
M  V30 17441 H 1665.7 4.79094 0.0238536 0
M  V30 17442 H 1664.07 2.54465 0.109433 0
M  V30 17443 H 1664.85 3.10452 -1.46542 0
M  V30 17444 N 1667.3 0.221601 1.56034 0
M  V30 17445 C 1668.25 -0.701876 2.16928 0
M  V30 17446 C 1669.23 -1.1575 1.11762 0
M  V30 17447 O 1670.42 -1.11148 1.3775 0
M  V30 17448 C 1667.55 -1.90977 2.85277 0
M  V30 17449 C 1666.64 -1.47382 3.97667 0
M  V30 17450 N 1667.03 -0.750469 5.00202 0
M  V30 17451 C 1665.33 -1.7611 4.09757 0
M  V30 17452 C 1666.03 -0.528168 5.79297 0
M  V30 17453 N 1665 -1.08488 5.32664 0
M  V30 17454 H 1668.81 -0.14079 2.93563 0
M  V30 17455 H 1666.32 0.0228611 1.62384 0
M  V30 17456 H 1668.32 -2.5821 3.27312 0
M  V30 17457 H 1666.98 -2.47532 2.10138 0
M  V30 17458 H 1667.99 -0.403152 5.16328 0
M  V30 17459 H 1664.66 -2.33986 3.4577 0
M  V30 17460 H 1666.05 0.0475532 6.71883 0
M  V30 17461 N 1668.77 -1.57515 -0.0517878 0
M  V30 17462 C 1670 -1.92845 -0.763249 0
M  V30 17463 C 1670.42 -0.819745 -1.69298 0
M  V30 17464 O 1669.78 0.226161 -1.79884 0
M  V30 17465 C 1669.83 -3.27189 -1.5159 0
M  V30 17466 O 1668.93 -3.17834 -2.62783 0
M  V30 17467 H 1668.28 -0.630944 -0.206896 0
M  V30 17468 H 1670.81 -2.04595 -0.0140481 0
M  V30 17469 H 1670.82 -3.61542 -1.89081 0
M  V30 17470 H 1669.49 -4.07455 -0.833871 0
M  V30 17471 H 1668.07 -2.95075 -2.28002 0
M  V30 17472 N 1670.25 0.323614 -1.54242 0
M  V30 17473 C 1671.48 1.0811 -1.76408 0
M  V30 17474 C 1671.9 1.81707 -0.512656 0
M  V30 17475 O 1671.25 1.75035 0.516638 0
M  V30 17476 C 1671.3 2.07923 -2.9572 0
M  V30 17477 O 1671.03 1.37317 -4.16024 0
M  V30 17478 C 1672.53 2.95891 -3.30096 0
M  V30 17479 H 1669.75 0.321583 -0.588919 0
M  V30 17480 H 1672.29 0.369756 -2.01129 0
M  V30 17481 H 1670.45 2.74593 -2.73272 0
M  V30 17482 H 1670.86 2.04158 -4.83135 0
M  V30 17483 H 1672.33 3.61822 -4.1688 0
M  V30 17484 H 1672.81 3.62986 -2.47261 0
M  V30 17485 H 1673.42 2.34783 -3.54622 0
M  V30 17486 N 1671.73 1.46313 0.585673 0
M  V30 17487 C 1672.69 1.56239 1.67696 0
M  V30 17488 C 1673.69 0.439808 1.54668 0
M  V30 17489 O 1674.88 0.704019 1.5934 0
M  V30 17490 C 1672.02 1.47986 3.07104 0
M  V30 17491 H 1673.21 2.53492 1.60255 0
M  V30 17492 H 1670.76 1.3408 0.803264 0
M  V30 17493 H 1671.5 0.520007 3.20104 0
M  V30 17494 H 1671.28 2.2943 3.17969 0
M  V30 17495 H 1672.77 1.5801 3.86552 0
M  V30 17496 N 1673.21 -0.830057 1.33969 0
M  V30 17497 C 1674.46 -1.58821 1.26111 0
M  V30 17498 C 1674.79 -1.9345 -0.170484 0
M  V30 17499 O 1674.06 -1.59433 -1.11407 0
M  V30 17500 C 1674.35 -2.89243 2.14501 0
M  V30 17501 C 1674.2 -2.61239 3.66162 0
M  V30 17502 C 1675.52 -3.90752 2.02487 0
M  V30 17503 H 1672.64 -0.576255 0.459455 0
M  V30 17504 H 1675.28 -0.956736 1.64154 0
M  V30 17505 H 1673.43 -3.43133 1.82186 0
M  V30 17506 H 1675.1 -2.13713 4.08809 0
M  V30 17507 H 1673.34 -1.94796 3.87604 0
M  V30 17508 H 1674.02 -3.54212 4.23365 0
M  V30 17509 H 1676.49 -3.46194 2.30844 0
M  V30 17510 H 1675.37 -4.79825 2.6657 0
M  V30 17511 H 1675.63 -4.30649 0.999704 0
M  V30 17512 N 1674.69 -1.17582 -1.04939 0
M  V30 17513 C 1675.94 -0.96387 -1.77634 0
M  V30 17514 C 1676.26 0.508548 -1.88252 0
M  V30 17515 O 1675.53 1.36913 -1.40113 0
M  V30 17516 H 1674.11 -0.353636 -0.65799 0
M  V30 17517 H 1676.77 -1.48104 -1.26693 0
M  V30 17518 H 1675.86 -1.39438 -2.79219 0
M  V30 17519 N 1676.17 1.23705 -0.976463 0
M  V30 17520 C 1677.11 2.27034 -0.505813 0
M  V30 17521 C 1678.11 1.63716 0.435148 0
M  V30 17522 O 1679.31 1.7732 0.309474 0
M  V30 17523 H 1675.69 0.737862 -0.145131 0
M  V30 17524 H 1677.66 2.64097 -1.38908 0
M  V30 17525 C 1676.41 3.47234 0.179987 0
M  V30 17526 H 1675.73 3.96205 -0.534969 0
M  V30 17527 H 1677.17 4.21353 0.472996 0
M  V30 17528 C 1675.63 3.05979 1.40991 0
M  V30 17529 O 1676.16 3.13914 2.50641 0
M  V30 17530 N 1674.37 2.60934 1.27913 0
M  V30 17531 H 1673.91 2.54677 0.38696 0
M  V30 17532 H 1673.87 2.33697 2.10316 0
M  V30 17533 N 1677.64 0.747635 1.38738 0
M  V30 17534 C 1679.05 0.369576 1.83006 0
M  V30 17535 C 1679.41 -1.10091 1.62402 0
M  V30 17536 O 1678.53 -1.85042 1.12198 0
M  V30 17537 C 1679.13 0.664018 3.32229 0
M  V30 17538 C 1677.68 0.339308 3.74868 0
M  V30 17539 C 1676.83 0.920231 2.61586 0
M  V30 17540 H 1679.78 0.944268 1.27551 0
M  V30 17541 H 1679.8 -0.0598575 3.80453 0
M  V30 17542 H 1679.32 1.73432 3.47193 0
M  V30 17543 H 1677.42 -0.724649 3.65485 0
M  V30 17544 H 1677.53 0.830699 4.71843 0
M  V30 17545 H 1675.89 0.346002 2.52339 0
M  V30 17546 H 1676.68 1.99544 2.79351 0
M  V30 17547 N 1679.12 -1.49583 0.496242 0
M  V30 17548 C 1680.03 -2.32808 -0.289404 0
M  V30 17549 C 1681.05 -1.44324 -0.971933 0
M  V30 17550 O 1682.22 -1.77352 -0.954366 0
M  V30 17551 C 1679.29 -3.19645 -1.34269 0
M  V30 17552 C 1678.35 -4.23975 -0.6741 0
M  V30 17553 C 1677.58 -5.06661 -1.6772 0
M  V30 17554 O 1677.81 -4.90792 -2.90654 0
M  V30 17555 O 1676.74 -5.89091 -1.23514 0
M  V30 17556 H 1680.57 -3.01164 0.391664 0
M  V30 17557 H 1678.15 -1.47162 0.257652 0
M  V30 17558 H 1680.03 -3.73453 -1.9522 0
M  V30 17559 H 1678.71 -2.53989 -2.00677 0
M  V30 17560 H 1677.61 -3.74092 -0.0249732 0
M  V30 17561 H 1678.95 -4.92172 -0.0525442 0
M  V30 17562 N 1680.6 -0.229873 -1.55915 0
M  V30 17563 C 1681.83 0.403603 -2.02619 0
M  V30 17564 C 1682.24 1.53304 -1.10881 0
M  V30 17565 O 1681.58 1.83356 -0.112312 0
M  V30 17566 C 1681.64 0.988727 -3.45636 0
M  V30 17567 C 1681.31 -0.00630999 -4.57 0
M  V30 17568 C 1682.3 -0.809714 -5.13556 0
M  V30 17569 C 1679.99 -0.127474 -5.02138 0
M  V30 17570 C 1681.98 -1.7209 -6.13729 0
M  V30 17571 C 1679.67 -1.04219 -6.02148 0
M  V30 17572 C 1680.67 -1.83744 -6.5782 0
M  V30 17573 O 1680.36 -2.73677 -7.55881 0
M  V30 17574 H 1680.09 0.102102 -0.668245 0
M  V30 17575 H 1682.64 -0.346247 -2.02461 0
M  V30 17576 H 1680.87 1.78782 -3.4289 0
M  V30 17577 H 1682.56 1.53048 -3.7594 0
M  V30 17578 H 1683.33 -0.726601 -4.79526 0
M  V30 17579 H 1679.21 0.481415 -4.58479 0
M  V30 17580 H 1682.75 -2.34206 -6.5711 0
M  V30 17581 H 1678.65 -1.12629 -6.35598 0
M  V30 17582 H 1679.41 -2.67846 -7.73435 0
M  V30 17583 N 1682.08 1.5754 0.0434337 0
M  V30 17584 C 1683.01 2.08648 1.04824 0
M  V30 17585 C 1683.99 0.985894 1.38615 0
M  V30 17586 O 1685.17 1.2603 1.4775 0
M  V30 17587 C 1682.3 2.55399 2.35348 0
M  V30 17588 C 1681.26 3.69592 2.15837 0
M  V30 17589 C 1680.58 4.02497 3.51995 0
M  V30 17590 C 1681.88 4.98575 1.55629 0
M  V30 17591 H 1683.58 2.9285 0.622849 0
M  V30 17592 H 1681.12 1.40879 0.298158 0
M  V30 17593 H 1683.08 2.89771 3.05958 0
M  V30 17594 H 1681.8 1.68262 2.7992 0
M  V30 17595 H 1680.46 3.35546 1.47663 0
M  V30 17596 H 1680.11 3.12448 3.94189 0
M  V30 17597 H 1679.81 4.79406 3.39771 0
M  V30 17598 H 1681.33 4.39391 4.23991 0
M  V30 17599 H 1682.75 5.30996 2.16138 0
M  V30 17600 H 1681.14 5.79998 1.54021 0
M  V30 17601 H 1682.21 4.82098 0.520567 0
M  V30 17602 N 1683.56 -0.31543 1.54411 0
M  V30 17603 C 1684.5 -1.4086 1.85098 0
M  V30 17604 C 1685.5 -1.53172 0.723518 0
M  V30 17605 O 1686.7 -1.55461 0.907303 0
M  V30 17606 H 1683.08 -0.47022 0.586853 0
M  V30 17607 H 1685.05 -1.12207 2.765 0
M  V30 17608 C 1683.8 -2.76948 2.10227 0
M  V30 17609 H 1683.12 -2.68251 2.96448 0
M  V30 17610 H 1684.56 -3.52486 2.35647 0
M  V30 17611 C 1683.02 -3.24758 0.896312 0
M  V30 17612 O 1683.55 -4.0155 0.109609 0
M  V30 17613 N 1681.76 -2.81901 0.705685 0
M  V30 17614 H 1681.3 -2.19571 1.34708 0
M  V30 17615 H 1681.26 -3.14242 -0.0996804 0
M  V30 17616 N 1685.03 -1.46622 -0.577906 0
M  V30 17617 C 1686.26 -1.5576 -1.36185 0
M  V30 17618 C 1686.68 -0.200403 -1.87733 0
M  V30 17619 O 1686.03 0.803091 -1.6388 0
M  V30 17620 C 1686.09 -2.56626 -2.54608 0
M  V30 17621 O 1685.81 -3.87074 -2.05195 0
M  V30 17622 C 1687.31 -2.75751 -3.47097 0
M  V30 17623 H 1684.53 -0.526589 -0.415866 0
M  V30 17624 H 1687.07 -1.9207 -0.702091 0
M  V30 17625 H 1685.23 -2.23307 -3.16564 0
M  V30 17626 H 1685.64 -4.42015 -2.82352 0
M  V30 17627 H 1687.11 -3.50237 -4.26659 0
M  V30 17628 H 1687.59 -1.82829 -3.99337 0
M  V30 17629 H 1688.2 -3.10185 -2.90973 0
M  V30 17630 N 1686.51 0.822941 -1.34408 0
M  V30 17631 C 1687.76 1.58149 -1.26951 0
M  V30 17632 C 1688.09 1.93538 0.160222 0
M  V30 17633 O 1687.37 1.60021 1.1056 0
M  V30 17634 C 1687.65 2.88101 -2.16032 0
M  V30 17635 C 1687.5 2.59293 -3.67542 0
M  V30 17636 C 1688.82 3.89673 -2.04556 0
M  V30 17637 H 1685.94 0.573811 -0.462504 0
M  V30 17638 H 1688.58 0.948017 -1.64659 0
M  V30 17639 H 1686.73 3.42162 -1.84003 0
M  V30 17640 H 1688.4 2.11542 -4.09936 0
M  V30 17641 H 1686.65 1.92738 -3.88632 0
M  V30 17642 H 1687.32 3.51962 -4.25238 0
M  V30 17643 H 1689.79 3.44965 -2.32677 0
M  V30 17644 H 1688.67 4.78404 -2.69111 0
M  V30 17645 H 1688.93 4.30113 -1.02253 0
M  V30 17646 N 1687.99 1.18137 1.04314 0
M  V30 17647 C 1688.92 0.863879 2.12296 0
M  V30 17648 C 1689.94 -0.137469 1.62219 0
M  V30 17649 O 1691.12 0.0900306 1.78273 0
M  V30 17650 C 1688.22 0.269002 3.37831 0
M  V30 17651 C 1687.4 1.3154 4.17152 0
M  V30 17652 C 1686.46 0.736666 5.21018 0
M  V30 17653 O 1685.48 1.41075 5.5144 0
M  V30 17654 N 1686.68 -0.467037 5.78618 0
M  V30 17655 H 1689.45 1.7933 2.40127 0
M  V30 17656 H 1687.01 1.08142 1.20486 0
M  V30 17657 H 1689 -0.131671 4.04486 0
M  V30 17658 H 1687.57 -0.564386 3.07463 0
M  V30 17659 H 1686.79 1.89148 3.45856 0
M  V30 17660 H 1688.08 2.02093 4.66943 0
M  V30 17661 H 1687.48 -1.03247 5.56198 0
M  V30 17662 H 1686.04 -0.809663 6.46752 0
M  V30 17663 N 1689.47 -1.23186 0.98301 0
M  V30 17664 C 1690.88 -1.73484 0.689933 0
M  V30 17665 C 1691.23 -1.79428 -0.793724 0
M  V30 17666 O 1690.36 -1.43391 -1.62074 0
M  V30 17667 C 1690.95 -3.15068 1.24571 0
M  V30 17668 C 1689.51 -3.62812 1.00222 0
M  V30 17669 C 1688.66 -2.40988 1.37186 0
M  V30 17670 H 1691.61 -1.08672 1.15655 0
M  V30 17671 H 1691.63 -3.75425 0.619406 0
M  V30 17672 H 1691.14 -3.10709 2.32554 0
M  V30 17673 H 1689.24 -3.72549 -0.0614202 0
M  V30 17674 H 1689.35 -4.49473 1.65863 0
M  V30 17675 H 1687.72 -2.42127 0.79035 0
M  V30 17676 H 1688.5 -2.39299 2.46152 0
M  V30 17677 N 1690.95 -0.754982 -1.38339 0
M  V30 17678 C 1692.17 -0.322624 -2.04369 0
M  V30 17679 C 1692.59 1.04951 -1.56942 0
M  V30 17680 O 1691.95 1.66686 -0.743109 0
M  V30 17681 C 1692 -0.337767 -3.59919 0
M  V30 17682 O 1691.72 -1.65576 -4.05606 0
M  V30 17683 C 1693.22 0.108281 -4.43168 0
M  V30 17684 H 1690.44 -0.137626 -0.656734 0
M  V30 17685 H 1692.98 -1.02422 -1.77003 0
M  V30 17686 H 1691.14 0.315106 -3.86116 0
M  V30 17687 H 1691.55 -1.5829 -5.00045 0
M  V30 17688 H 1693.03 0.0465256 -5.5198 0
M  V30 17689 H 1693.5 1.15636 -4.23704 0
M  V30 17690 H 1694.11 -0.51577 -4.22161 0
M  V30 17691 N 1692.42 1.49318 -0.504168 0
M  V30 17692 C 1693.66 2.04366 0.0375509 0
M  V30 17693 C 1694.03 1.37521 1.33985 0
M  V30 17694 O 1695.23 1.83308 1.966 0
M  V30 17695 C 1693.5 3.56928 0.183524 0
M  V30 17696 S 1695.06 4.33514 0.679034 0
M  V30 17697 H 1691.88 0.711 0.000264717 0
M  V30 17698 H 1694.48 1.83335 -0.678857 0
M  V30 17699 H 1693.18 4.03121 -0.769546 0
M  V30 17700 H 1692.71 3.82369 0.925078 0
M  V30 17701 H 1694.73 4.56376 1.9477 0
M  V30 17702 N 1693.9 0.238138 1.5579 0
M  V30 17703 C 1695.15 -0.389608 1.99022 0
M  V30 17704 C 1695.48 -1.58226 1.12597 0
M  V30 17705 O 1694.76 -1.93595 0.187363 0
M  V30 17706 C 1695.04 -0.808025 3.50917 0
M  V30 17707 C 1694.89 0.389417 4.48111 0
M  V30 17708 C 1696.21 -1.6582 4.07666 0
M  V30 17709 H 1693.33 -0.140141 0.723553 0
M  V30 17710 H 1695.97 0.337696 1.86975 0
M  V30 17711 H 1694.12 -1.42772 3.61315 0
M  V30 17712 H 1695.79 1.02777 4.49705 0
M  V30 17713 H 1694.04 1.03404 4.21296 0
M  V30 17714 H 1694.71 0.0534549 5.51974 0
M  V30 17715 H 1697.18 -1.13518 4.00316 0
M  V30 17716 H 1696.06 -1.91984 5.14231 0
M  V30 17717 H 1696.32 -2.62712 3.55577 0
M  V30 17718 N 1695.38 -1.57561 -0.0350783 0
M  V30 17719 C 1696.33 -2.07246 -1.05602 0
M  V30 17720 C 1697.32 -0.985013 -1.37818 0
M  V30 17721 O 1698.53 -1.16993 -1.36794 0
M  V30 17722 H 1694.9 -0.661286 -0.358057 0
M  V30 17723 H 1696.87 -2.92075 -0.611124 0
M  V30 17724 C 1695.62 -2.56235 -2.3503 0
M  V30 17725 H 1694.95 -3.39525 -2.111 0
M  V30 17726 H 1696.39 -2.94716 -3.04826 0
M  V30 17727 C 1694.85 -1.46096 -3.03575 0
M  V30 17728 O 1695.38 -0.823772 -3.93163 0
M  V30 17729 N 1693.58 -1.19698 -2.64803 0
M  V30 17730 H 1693.13 -1.71697 -1.92036 0
M  V30 17731 H 1693.09 -0.462174 -3.10984 0
M  V30 17732 N 1696.86 0.307236 -1.54576 0
M  V30 17733 C 1698.08 1.06668 -1.77867 0
M  V30 17734 C 1698.51 1.80375 -0.533536 0
M  V30 17735 O 1697.87 1.73812 0.515663 0
M  V30 17736 C 1697.91 2.02777 -2.98184 0
M  V30 17737 O 1697.02 3.10969 -2.70872 0
M  V30 17738 H 1696.36 0.306741 -0.588902 0
M  V30 17739 H 1698.89 0.346557 -2.01644 0
M  V30 17740 H 1698.9 2.45355 -3.25983 0
M  V30 17741 H 1697.57 1.48534 -3.88472 0
M  V30 17742 H 1696.15 2.7295 -2.54072 0
M  V30 17743 N 1698.34 1.46926 0.570122 0
M  V30 17744 C 1699.56 1.5648 1.35358 0
M  V30 17745 C 1699.98 0.210356 1.87624 0
M  V30 17746 O 1699.34 -0.794388 1.64304 0
M  V30 17747 C 1699.39 2.57973 2.53243 0
M  V30 17748 O 1699.11 3.88157 2.03139 0
M  V30 17749 C 1700.61 2.77587 3.4563 0
M  V30 17750 H 1697.83 0.528787 0.413068 0
M  V30 17751 H 1700.37 1.9244 0.691895 0
M  V30 17752 H 1698.53 2.24982 3.15375 0
M  V30 17753 H 1698.94 4.43506 2.80004 0
M  V30 17754 H 1700.42 3.52495 4.24795 0
M  V30 17755 H 1700.89 1.84944 3.98362 0
M  V30 17756 H 1701.5 3.11724 2.89324 0
M  V30 17757 N 1699.82 -0.815801 1.34842 0
M  V30 17758 C 1701.06 -1.57241 1.27599 0
M  V30 17759 C 1701.39 -1.93904 -0.152127 0
M  V30 17760 O 1700.65 -1.60819 -1.11515 0
M  V30 17761 C 1700.94 -2.87795 2.11917 0
M  V30 17762 C 1700.61 -2.70392 3.60831 0
M  V30 17763 C 1699.27 -2.65353 4.01424 0
M  V30 17764 C 1701.62 -2.53569 4.55359 0
M  V30 17765 C 1698.95 -2.41422 5.34726 0
M  V30 17766 C 1701.3 -2.31169 5.8885 0
M  V30 17767 C 1699.97 -2.24546 6.28598 0
M  V30 17768 H 1699.24 -0.575386 0.466918 0
M  V30 17769 H 1701.89 -0.943355 1.66653 0
M  V30 17770 H 1700.19 -3.5503 1.65714 0
M  V30 17771 H 1701.89 -3.45436 2.03654 0
M  V30 17772 H 1698.48 -2.75157 3.28613 0
M  V30 17773 H 1702.66 -2.5648 4.2489 0
M  V30 17774 H 1697.92 -2.34758 5.64534 0
M  V30 17775 H 1702.09 -2.1714 6.61682 0
M  V30 17776 H 1699.72 -2.05765 7.31823 0
M  V30 17777 N 1701.29 -1.18689 -1.03686 0
M  V30 17778 C 1702.57 -0.89414 -1.73967 0
M  V30 17779 C 1702.95 0.602104 -2.02331 0
M  V30 17780 O 1702.3 1.55794 -1.67154 0
M  V30 17781 C 1702.51 -1.74549 -3.02214 0
M  V30 17782 C 1703.86 -1.97487 -3.75878 0
M  V30 17783 O 1704.88 -1.71634 -3.12122 0
M  V30 17784 O 1703.74 -2.41031 -4.90476 0
M  V30 17785 H 1700.83 -0.332501 -0.757213 0
M  V30 17786 H 1703.38 -1.29461 -1.09717 0
M  V30 17787 H 1702.15 -2.75961 -2.77419 0
M  V30 17788 H 1701.77 -1.34378 -3.74204 0
M  V30 17789 N 1702.77 1.22662 -0.989529 0
M  V30 17790 C 1704 1.95883 -0.681511 0
M  V30 17791 C 1704.42 1.72646 0.746646 0
M  V30 17792 O 1703.78 1.00358 1.5099 0
M  V30 17793 C 1703.83 3.46773 -0.988975 0
M  V30 17794 O 1702.93 4.12311 -0.0858485 0
M  V30 17795 H 1702.27 0.612916 -0.255401 0
M  V30 17796 H 1704.8 1.5585 -1.32559 0
M  V30 17797 H 1704.81 3.97273 -0.929426 0
M  V30 17798 H 1703.49 3.63011 -2.02967 0
M  V30 17799 H 1702.06 3.7236 -0.200592 0
M  V30 17800 N 1704.25 0.762308 1.37937 0
M  V30 17801 C 1705.66 0.388966 1.82603 0
M  V30 17802 C 1706.01 -1.08362 1.63561 0
M  V30 17803 O 1705.14 -1.83842 1.14154 0
M  V30 17804 C 1705.73 0.699218 3.31506 0
M  V30 17805 C 1704.29 0.379048 3.74487 0
M  V30 17806 C 1703.44 0.947924 2.60595 0
M  V30 17807 H 1706.39 0.957743 1.26542 0
M  V30 17808 H 1706.41 -0.019502 3.80495 0
M  V30 17809 H 1705.92 1.77105 3.45334 0
M  V30 17810 H 1704.02 -0.685844 3.66233 0
M  V30 17811 H 1704.14 0.880697 4.70936 0
M  V30 17812 H 1702.5 0.372746 2.51958 0
M  V30 17813 H 1703.28 2.02496 2.77219 0
M  V30 17814 N 1705.73 -1.49049 0.51208 0
M  V30 17815 C 1706.69 -2.27838 -0.249491 0
M  V30 17816 C 1707.69 -1.34321 -0.884004 0
M  V30 17817 O 1708.88 -1.57379 -0.74682 0
M  V30 17818 C 1706.01 -3.12637 -1.35908 0
M  V30 17819 H 1707.21 -2.96625 0.442029 0
M  V30 17820 H 1704.76 -1.53996 0.267406 0
M  V30 17821 H 1705.49 -2.48441 -2.0844 0
M  V30 17822 H 1705.28 -3.81408 -0.909427 0
M  V30 17823 H 1706.77 -3.72117 -1.89523 0
M  V30 17824 N 1707.21 -0.246397 -1.55662 0
M  V30 17825 C 1708.16 0.667276 -2.18017 0
M  V30 17826 C 1709.14 1.13957 -1.1359 0
M  V30 17827 O 1710.33 1.08942 -1.39501 0
M  V30 17828 C 1707.46 1.86414 -2.88279 0
M  V30 17829 C 1706.55 1.41037 -3.99962 0
M  V30 17830 N 1706.94 0.670796 -5.01332 0
M  V30 17831 C 1705.24 1.69569 -4.12507 0
M  V30 17832 C 1705.94 0.43594 -5.80064 0
M  V30 17833 N 1704.91 1 -5.34323 0
M  V30 17834 H 1708.71 0.0940693 -2.93749 0
M  V30 17835 H 1706.23 -0.048692 -1.62327 0
M  V30 17836 H 1708.23 2.5297 -3.31379 0
M  V30 17837 H 1706.89 2.44158 -2.14049 0
M  V30 17838 H 1707.9 0.320958 -5.16905 0
M  V30 17839 H 1704.57 2.28455 -3.49449 0
M  V30 17840 H 1705.96 -0.154438 -6.71722 0
M  V30 17841 N 1708.68 1.57577 0.026722 0
M  V30 17842 C 1709.93 1.90507 0.712634 0
M  V30 17843 C 1710.28 0.845249 1.72839 0
M  V30 17844 O 1709.58 -0.145782 1.91045 0
M  V30 17845 C 1709.77 3.27927 1.42121 0
M  V30 17846 C 1709.6 4.47178 0.475595 0
M  V30 17847 C 1708.37 5.05209 0.0957809 0
M  V30 17848 C 1710.57 5.13707 -0.246993 0
M  V30 17849 N 1708.55 6.07975 -0.850841 0
M  V30 17850 C 1709.92 6.11058 -1.0492 0
M  V30 17851 C 1711.98 4.96911 -0.313686 0
M  V30 17852 C 1710.68 6.93424 -1.91197 0
M  V30 17853 C 1712.71 5.7984 -1.16359 0
M  V30 17854 C 1712.07 6.76764 -1.95371 0
M  V30 17855 H 1708.17 0.745919 0.234797 0
M  V30 17856 H 1710.75 1.94681 -0.027342 0
M  V30 17857 H 1708.92 3.24678 2.13163 0
M  V30 17858 H 1710.65 3.48366 2.05969 0
M  V30 17859 H 1707.41 4.71376 0.458466 0
M  V30 17860 H 1707.83 6.64032 -1.31873 0
M  V30 17861 H 1712.47 4.21853 0.28288 0
M  V30 17862 H 1710.19 7.67825 -2.51932 0
M  V30 17863 H 1713.78 5.68892 -1.21876 0
M  V30 17864 H 1712.66 7.39818 -2.60074 0
M  V30 17865 N 1710.16 -0.299034 1.54737 0
M  V30 17866 C 1711.12 -1.35199 1.85078 0
M  V30 17867 C 1712.12 -1.4359 0.723788 0
M  V30 17868 O 1713.31 -1.43191 0.992067 0
M  V30 17869 C 1710.45 -2.73659 2.03282 0
M  V30 17870 H 1711.64 -1.09538 2.7918 0
M  V30 17871 H 1709.19 -0.535803 1.46829 0
M  V30 17872 H 1709.93 -3.04539 1.11475 0
M  V30 17873 H 1709.71 -2.68959 2.85313 0
M  V30 17874 H 1711.2 -3.49787 2.28119 0
M  V30 17875 N 1711.64 -1.47227 -0.562322 0
M  V30 17876 C 1712.57 -1.55383 -1.6849 0
M  V30 17877 C 1713.58 -0.440437 -1.56729 0
M  V30 17878 O 1714.77 -0.709803 -1.63781 0
M  V30 17879 C 1711.87 -1.43723 -3.06915 0
M  V30 17880 C 1711.05 -2.69541 -3.4448 0
M  V30 17881 C 1710.11 -2.5179 -4.62048 0
M  V30 17882 O 1709.13 -3.25587 -4.66885 0
M  V30 17883 N 1710.33 -1.59282 -5.5822 0
M  V30 17884 H 1713.1 -2.52181 -1.61941 0
M  V30 17885 H 1710.66 -1.43541 -0.748832 0
M  V30 17886 H 1712.65 -1.2959 -3.83391 0
M  V30 17887 H 1711.22 -0.550272 -3.07719 0
M  V30 17888 H 1710.44 -2.98472 -2.57504 0
M  V30 17889 H 1711.73 -3.53079 -3.66351 0
M  V30 17890 H 1711.13 -0.984666 -5.57064 0
M  V30 17891 H 1709.68 -1.51103 -6.34043 0
M  V30 17892 N 1713.12 0.808639 -1.35273 0
M  V30 17893 C 1714.06 1.92036 -1.28026 0
M  V30 17894 C 1715.03 1.65397 -0.152611 0
M  V30 17895 O 1716.22 1.87819 -0.335972 0
M  V30 17896 C 1713.36 3.28544 -1.05607 0
M  V30 17897 C 1712.47 3.67382 -2.27276 0
M  V30 17898 C 1711.61 4.9291 -1.98024 0
M  V30 17899 C 1710.65 5.2437 -3.15757 0
M  V30 17900 N 1709.78 6.41077 -2.86294 0
M  V30 17901 H 1714.62 1.97567 -2.23095 0
M  V30 17902 H 1712.16 0.966397 -1.10902 0
M  V30 17903 H 1714.12 4.07234 -0.906418 0
M  V30 17904 H 1712.75 3.22487 -0.142015 0
M  V30 17905 H 1711.8 2.83969 -2.53112 0
M  V30 17906 H 1713.11 3.86593 -3.15194 0
M  V30 17907 H 1712.27 5.79421 -1.79877 0
M  V30 17908 H 1711.01 4.7573 -1.07387 0
M  V30 17909 H 1710.01 4.36349 -3.34483 0
M  V30 17910 H 1711.24 5.4348 -4.07193 0
M  V30 17911 H 1709.18 6.25327 -1.98249 0
M  V30 17912 H 1709.1 6.60528 -3.67748 0
M  V30 17913 H 1710.37 7.30622 -2.71684 0
M  V30 17914 N 1714.6 1.19237 1.03055 0
M  V30 17915 C 1715.84 0.992008 1.76078 0
M  V30 17916 C 1716.17 -0.478535 1.89037 0
M  V30 17917 O 1715.44 -1.34666 1.42274 0
M  V30 17918 H 1714.02 0.364059 0.652281 0
M  V30 17919 H 1716.68 1.50101 1.24321 0
M  V30 17920 H 1715.77 1.43862 2.76966 0
M  V30 17921 N 1716.07 -1.22136 0.99602 0
M  V30 17922 C 1717.3 -1.95519 0.69189 0
M  V30 17923 C 1717.72 -1.7304 -0.73748 0
M  V30 17924 O 1717.08 -1.01157 -1.50456 0
M  V30 17925 C 1717.13 -3.46244 1.00735 0
M  V30 17926 O 1716.23 -4.12259 0.107713 0
M  V30 17927 H 1715.58 -0.611553 0.258648 0
M  V30 17928 H 1718.11 -1.55145 1.33384 0
M  V30 17929 H 1718.12 -3.96774 0.950482 0
M  V30 17930 H 1716.79 -3.6193 2.04889 0
M  V30 17931 H 1715.37 -3.72248 0.220336 0
M  V30 17932 N 1717.55 -0.769612 -1.37531 0
M  V30 17933 C 1718.5 -0.128018 -2.2764 0
M  V30 17934 C 1719.49 0.67633 -1.45995 0
M  V30 17935 O 1720.68 0.539654 -1.68573 0
M  V30 17936 C 1717.81 0.751936 -3.34964 0
M  V30 17937 C 1716.89 -0.0601264 -4.24057 0
M  V30 17938 N 1717.28 -1.10468 -4.93589 0
M  V30 17939 C 1715.58 0.164189 -4.45698 0
M  V30 17940 C 1716.28 -1.59737 -5.59338 0
M  V30 17941 N 1715.26 -0.909912 -5.35931 0
M  V30 17942 H 1719.06 -0.927797 -2.78871 0
M  V30 17943 H 1716.58 -0.607165 -1.50623 0
M  V30 17944 H 1718.57 1.22733 -3.98425 0
M  V30 17945 H 1717.23 1.55049 -2.85289 0
M  V30 17946 H 1718.24 -1.48679 -4.961 0
M  V30 17947 H 1714.92 0.934815 -4.069 0
M  V30 17948 H 1716.31 -2.46835 -6.24918 0
M  V30 17949 N 1719.03 1.48775 -0.519977 0
M  V30 17950 C 1719.96 2.27418 0.285222 0
M  V30 17951 C 1720.98 1.34753 0.91354 0
M  V30 17952 O 1722.16 1.59885 0.793672 0
M  V30 17953 C 1719.26 3.07799 1.41821 0
M  V30 17954 C 1718.44 4.28173 0.893682 0
M  V30 17955 C 1717.5 4.90445 1.90658 0
M  V30 17956 O 1716.52 5.49957 1.46751 0
M  V30 17957 N 1717.72 4.8179 3.23819 0
M  V30 17958 H 1720.49 2.97162 -0.38921 0
M  V30 17959 H 1718.05 1.5799 -0.353684 0
M  V30 17960 H 1720.04 3.46329 2.09377 0
M  V30 17961 H 1718.61 2.4054 1.99648 0
M  V30 17962 H 1717.83 3.94177 0.0424379 0
M  V30 17963 H 1719.12 5.06116 0.521952 0
M  V30 17964 H 1718.52 4.34573 3.62164 0
M  V30 17965 H 1717.08 5.2445 3.87035 0
M  V30 17966 N 1720.51 0.254649 1.55529 0
M  V30 17967 C 1721.76 -0.368461 1.98306 0
M  V30 17968 C 1722.07 -1.585 1.14617 0
M  V30 17969 O 1723.28 -2.27975 1.47443 0
M  V30 17970 C 1721.73 -0.70693 3.52889 0
M  V30 17971 C 1721.34 0.488648 4.45327 0
M  V30 17972 C 1723.08 -1.2938 4.04303 0
M  V30 17973 C 1720.99 0.125903 5.91266 0
M  V30 17974 H 1719.92 -0.141444 0.740614 0
M  V30 17975 H 1722.57 0.356085 1.80012 0
M  V30 17976 H 1720.95 -1.48982 3.66907 0
M  V30 17977 H 1722.13 1.26587 4.43071 0
M  V30 17978 H 1720.44 0.990969 4.04436 0
M  V30 17979 H 1723.04 -1.57866 5.10864 0
M  V30 17980 H 1723.38 -2.22088 3.52112 0
M  V30 17981 H 1723.92 -0.573647 3.93642 0
M  V30 17982 H 1720.66 1.02032 6.4751 0
M  V30 17983 H 1720.18 -0.614969 5.96639 0
M  V30 17984 H 1721.85 -0.289174 6.46353 0
M  V30 17985 N 1721.99 -1.57589 -0.0183649 0
M  V30 17986 C 1723.21 -1.94421 -0.722172 0
M  V30 17987 C 1723.64 -0.855471 -1.67521 0
M  V30 17988 O 1722.99 0.187954 -1.80323 0
M  V30 17989 C 1723.04 -3.30331 -1.44615 0
M  V30 17990 O 1722.15 -3.23337 -2.55982 0
M  V30 17991 H 1721.49 -0.63519 -0.193466 0
M  V30 17992 H 1724.02 -2.04579 0.0293527 0
M  V30 17993 H 1724.03 -3.65471 -1.8137 0
M  V30 17994 H 1722.7 -4.09132 -0.747256 0
M  V30 17995 H 1721.28 -2.99845 -2.21692 0
M  V30 17996 N 1723.46 0.290824 -1.54893 0
M  V30 17997 C 1724.39 1.36354 -1.89551 0
M  V30 17998 C 1725.38 1.52403 -0.75546 0
M  V30 17999 O 1726.56 1.65743 -1.01208 0
M  V30 18000 C 1723.69 2.72609 -2.15178 0
M  V30 18001 C 1722.64 2.71313 -3.31019 0
M  V30 18002 C 1721.97 4.10952 -3.42085 0
M  V30 18003 C 1723.27 2.32153 -4.6787 0
M  V30 18004 H 1724.96 1.07597 -2.79398 0
M  V30 18005 H 1722.51 0.516154 -1.34432 0
M  V30 18006 H 1724.46 3.47749 -2.3801 0
M  V30 18007 H 1723.19 3.02913 -1.22112 0
M  V30 18008 H 1721.85 1.9863 -3.08126 0
M  V30 18009 H 1721.49 4.38449 -2.46518 0
M  V30 18010 H 1721.19 4.10984 -4.1996 0
M  V30 18011 H 1722.72 4.87857 -3.67189 0
M  V30 18012 H 1724.13 2.97011 -4.90364 0
M  V30 18013 H 1722.53 2.4338 -5.48531 0
M  V30 18014 H 1723.6 1.27279 -4.67897 0
M  V30 18015 N 1724.94 1.47523 0.554506 0
M  V30 18016 C 1726.22 1.44768 1.31535 0
M  V30 18017 C 1726.6 0.146082 2.10594 0
M  V30 18018 O 1725.95 -0.872415 2.1119 0
M  V30 18019 C 1726.16 2.69489 2.21758 0
M  V30 18020 C 1727.51 3.16814 2.82691 0
M  V30 18021 O 1728.53 2.70235 2.32059 0
M  V30 18022 O 1727.39 3.97798 3.74725 0
M  V30 18023 H 1724.48 0.577042 0.592412 0
M  V30 18024 H 1727.03 1.59727 0.573186 0
M  V30 18025 H 1725.8 3.55753 1.62958 0
M  V30 18026 H 1725.42 2.5713 3.03266 0
M  V30 18027 N 1726.42 -0.801453 1.357 0
M  V30 18028 C 1727.37 -1.93495 1.29083 0
M  V30 18029 C 1728.36 -1.68389 0.184806 0
M  V30 18030 O 1729.57 -1.76543 0.351097 0
M  V30 18031 H 1725.94 -0.635809 0.40156 0
M  V30 18032 H 1727.91 -1.96195 2.24833 0
M  V30 18033 C 1726.66 -3.30342 1.08487 0
M  V30 18034 H 1725.99 -3.50221 1.92835 0
M  V30 18035 H 1727.43 -4.10041 1.079 0
M  V30 18036 C 1725.89 -3.36238 -0.211057 0
M  V30 18037 O 1726.42 -3.83198 -1.20508 0
M  V30 18038 N 1724.62 -2.89509 -0.251599 0
M  V30 18039 H 1724.17 -2.51486 0.557916 0
M  V30 18040 H 1724.13 -2.93836 -1.11839 0
M  V30 18041 N 1727.9 -1.19782 -1.02421 0
M  V30 18042 C 1729.31 -1.00493 -1.57347 0
M  V30 18043 C 1729.66 0.440854 -1.91183 0
M  V30 18044 O 1728.79 1.32102 -1.714 0
M  V30 18045 C 1729.38 -1.8179 -2.85898 0
M  V30 18046 C 1727.94 -1.66889 -3.3738 0
M  V30 18047 C 1727.09 -1.80199 -2.10769 0
M  V30 18048 H 1730.04 -1.34085 -0.848938 0
M  V30 18049 H 1730.06 -1.31676 -3.5699 0
M  V30 18050 H 1729.57 -2.87011 -2.6124 0
M  V30 18051 H 1727.67 -0.64274 -3.67014 0
M  V30 18052 H 1727.78 -2.47705 -4.10096 0
M  V30 18053 H 1726.15 -1.23308 -2.22862 0
M  V30 18054 H 1726.93 -2.86889 -1.88546 0
M  V30 18055 N 1729.38 1.21606 -1.00248 0
M  V30 18056 C 1730.65 1.86191 -0.599348 0
M  V30 18057 C 1731.03 1.89847 0.923104 0
M  V30 18058 O 1730.38 1.39595 1.80902 0
M  V30 18059 C 1730.59 3.26576 -1.23082 0
M  V30 18060 C 1731.94 4.02989 -1.33736 0
M  V30 18061 O 1732.96 3.35877 -1.18595 0
M  V30 18062 O 1731.82 5.23142 -1.58065 0
M  V30 18063 H 1728.92 0.801204 -0.204943 0
M  V30 18064 H 1731.46 1.29309 -1.09897 0
M  V30 18065 H 1730.24 3.18601 -2.27176 0
M  V30 18066 H 1729.86 3.91074 -0.717394 0
M  V30 18067 N 1730.86 0.776895 1.37121 0
M  V30 18068 C 1732.09 0.354582 2.03534 0
M  V30 18069 C 1732.49 -1.02976 1.58722 0
M  V30 18070 O 1731.84 -1.66956 0.766255 0
M  V30 18071 C 1731.9 0.324836 3.58029 0
M  V30 18072 C 1731.56 1.65463 4.25994 0
M  V30 18073 C 1732.56 2.60797 4.49756 0
M  V30 18074 C 1730.24 1.93049 4.63721 0
M  V30 18075 C 1732.24 3.8192 5.1031 0
M  V30 18076 C 1729.93 3.14441 5.23995 0
M  V30 18077 C 1730.92 4.08695 5.47227 0
M  V30 18078 O 1730.61 5.27949 6.06238 0
M  V30 18079 H 1730.34 0.145861 0.660076 0
M  V30 18080 H 1732.9 1.05336 1.76334 0
M  V30 18081 H 1731.13 -0.43035 3.84298 0
M  V30 18082 H 1732.82 -0.0711053 4.05838 0
M  V30 18083 H 1733.58 2.40768 4.21017 0
M  V30 18084 H 1729.46 1.20509 4.4497 0
M  V30 18085 H 1733.01 4.55502 5.28359 0
M  V30 18086 H 1728.9 3.34352 5.52158 0
M  V30 18087 H 1729.67 5.28844 6.24713 0
M  V30 18088 N 1732.33 -1.48497 0.527859 0
M  V30 18089 C 1733.27 -2.27566 -0.273157 0
M  V30 18090 C 1734.28 -1.35235 -0.906381 0
M  V30 18091 O 1735.47 -1.60303 -0.785182 0
M  V30 18092 C 1732.57 -3.08546 -1.40187 0
M  V30 18093 C 1731.74 -4.28641 -0.870962 0
M  V30 18094 C 1730.8 -4.91449 -1.88054 0
M  V30 18095 O 1729.83 -5.50727 -1.43833 0
M  V30 18096 N 1731.03 -4.83501 -3.21259 0
M  V30 18097 H 1733.79 -2.96951 0.404963 0
M  V30 18098 H 1731.35 -1.578 0.362057 0
M  V30 18099 H 1733.35 -3.47434 -2.07537 0
M  V30 18100 H 1731.92 -2.41596 -1.98369 0
M  V30 18101 H 1731.14 -3.94194 -0.0215331 0
M  V30 18102 H 1732.42 -5.06385 -0.495105 0
M  V30 18103 H 1731.82 -4.36487 -3.59855 0
M  V30 18104 H 1730.38 -5.26495 -3.84248 0
M  V30 18105 N 1733.81 -0.262893 -1.55392 0
M  V30 18106 C 1734.74 0.66288 -2.19405 0
M  V30 18107 C 1735.76 1.12675 -1.17508 0
M  V30 18108 O 1736.95 1.05077 -1.44295 0
M  V30 18109 C 1734.05 1.91471 -2.79628 0
M  V30 18110 C 1733.22 1.59966 -4.07099 0
M  V30 18111 C 1732.28 2.7027 -4.51487 0
M  V30 18112 O 1731.3 2.36976 -5.17524 0
M  V30 18113 N 1732.51 4.0009 -4.20605 0
M  V30 18114 H 1735.27 0.115075 -2.99479 0
M  V30 18115 H 1732.83 -0.0834933 -1.61685 0
M  V30 18116 H 1734.82 2.64535 -3.06273 0
M  V30 18117 H 1733.39 2.37188 -2.03619 0
M  V30 18118 H 1732.61 0.703431 -3.87873 0
M  V30 18119 H 1733.9 1.36402 -4.90175 0
M  V30 18120 H 1733.3 4.29966 -3.67621 0
M  V30 18121 H 1731.86 4.69569 -4.52049 0
M  V30 18122 N 1735.29 1.57597 0.0100073 0
M  V30 18123 C 1736.57 1.81329 0.733415 0
M  V30 18124 C 1736.95 0.865495 1.92542 0
M  V30 18125 O 1736.29 -0.088073 2.2833 0
M  V30 18126 C 1736.5 3.29559 1.14856 0
M  V30 18127 C 1737.85 3.95039 1.55658 0
M  V30 18128 O 1738.88 3.33822 1.24262 0
M  V30 18129 O 1737.74 5.02858 2.13999 0
M  V30 18130 H 1734.83 0.746334 0.35625 0
M  V30 18131 H 1737.38 1.69694 -0.0146791 0
M  V30 18132 H 1736.15 3.9016 0.298467 0
M  V30 18133 H 1735.77 3.46156 1.95607 0
M  V30 18134 N 1736.77 -0.282606 1.55045 0
M  V30 18135 C 1738.01 -1.01547 1.75198 0
M  V30 18136 C 1738.34 -1.86627 0.54779 0
M  V30 18137 O 1737.6 -1.89974 -0.46993 0
M  V30 18138 C 1737.9 -1.93554 3.00452 0
M  V30 18139 C 1737.56 -1.24303 4.33428 0
M  V30 18140 C 1736.22 -1.0515 4.69571 0
M  V30 18141 C 1738.58 -0.749451 5.15784 0
M  V30 18142 C 1735.9 -0.353528 5.85634 0
M  V30 18143 C 1738.26 -0.0651157 6.32566 0
M  V30 18144 C 1736.92 0.138206 6.67357 0
M  V30 18145 H 1736.19 -0.371587 0.641096 0
M  V30 18146 H 1738.84 -0.288623 1.89312 0
M  V30 18147 H 1737.14 -2.72828 2.81197 0
M  V30 18148 H 1738.84 -2.50363 3.1324 0
M  V30 18149 H 1735.43 -1.4022 4.05014 0
M  V30 18150 H 1739.61 -0.885074 4.88344 0
M  V30 18151 H 1734.87 -0.185186 6.11119 0
M  V30 18152 H 1739.04 0.325146 6.95641 0
M  V30 18153 H 1736.67 0.681034 7.57143 0
M  V30 18154 N 1738.25 -1.47815 -0.546675 0
M  V30 18155 C 1739.49 -1.5498 -1.30336 0
M  V30 18156 C 1739.82 -0.216533 -1.93291 0
M  V30 18157 O 1739.08 0.791622 -1.78974 0
M  V30 18158 C 1739.37 -2.6242 -2.42632 0
M  V30 18159 C 1739.04 -4.05375 -1.97439 0
M  V30 18160 C 1737.7 -4.44287 -1.84831 0
M  V30 18161 C 1740.05 -4.9503 -1.6308 0
M  V30 18162 C 1737.38 -5.70678 -1.36174 0
M  V30 18163 C 1739.73 -6.21894 -1.1589 0
M  V30 18164 C 1738.4 -6.59678 -1.01886 0
M  V30 18165 H 1737.67 -0.567112 -0.476933 0
M  V30 18166 H 1740.32 -1.81461 -0.611907 0
M  V30 18167 H 1738.62 -2.29736 -3.17378 0
M  V30 18168 H 1740.32 -2.65184 -3.00796 0
M  V30 18169 H 1736.91 -3.74635 -2.08199 0
M  V30 18170 H 1741.09 -4.65657 -1.71689 0
M  V30 18171 H 1736.35 -5.98693 -1.24004 0
M  V30 18172 H 1740.52 -6.9077 -0.883691 0
M  V30 18173 H 1738.15 -7.57504 -0.639614 0
M  V30 18174 N 1739.72 0.794246 -1.36123 0
M  V30 18175 C 1741.13 1.36909 -1.26936 0
M  V30 18176 C 1741.49 1.9598 0.0929337 0
M  V30 18177 O 1740.61 1.92206 0.994266 0
M  V30 18178 C 1741.21 2.48906 -2.2985 0
M  V30 18179 C 1739.76 3.0222 -2.24366 0
M  V30 18180 C 1738.91 1.75264 -2.1489 0
M  V30 18181 H 1741.86 0.596278 -1.47072 0
M  V30 18182 H 1741.88 3.27794 -1.93213 0
M  V30 18183 H 1741.4 2.05884 -3.28988 0
M  V30 18184 H 1739.5 3.49675 -1.28679 0
M  V30 18185 H 1739.61 3.59363 -3.16852 0
M  V30 18186 H 1737.97 1.97306 -1.61066 0
M  V30 18187 H 1738.76 1.34377 -3.15908 0
M  V30 18188 N 1741.2 1.20323 1.01785 0
M  V30 18189 C 1742.15 0.950946 2.10299 0
M  V30 18190 C 1743.12 -0.118376 1.65678 0
M  V30 18191 O 1744.3 0.0260849 1.90782 0
M  V30 18192 C 1741.44 0.507765 3.41344 0
M  V30 18193 C 1740.56 1.6451 3.9945 0
M  V30 18194 C 1739.69 1.15235 5.1855 0
M  V30 18195 C 1738.73 2.26285 5.68737 0
M  V30 18196 N 1737.87 1.78237 6.79099 0
M  V30 18197 H 1742.71 1.87999 2.31215 0
M  V30 18198 H 1740.24 0.937108 1.13387 0
M  V30 18199 H 1742.2 0.232143 4.16554 0
M  V30 18200 H 1740.83 -0.384278 3.20505 0
M  V30 18201 H 1739.88 2.03567 3.21348 0
M  V30 18202 H 1741.2 2.48135 4.32702 0
M  V30 18203 H 1740.35 0.832619 6.0096 0
M  V30 18204 H 1739.09 0.285978 4.86861 0
M  V30 18205 H 1738.09 2.59076 4.84933 0
M  V30 18206 H 1739.32 3.13397 6.02461 0
M  V30 18207 H 1737.27 0.939248 6.49241 0
M  V30 18208 H 1737.18 2.55443 7.11537 0
M  V30 18209 H 1738.45 1.4926 7.65076 0
M  V30 18210 N 1742.68 -1.21073 1.00892 0
M  V30 18211 C 1743.59 -2.27265 0.582065 0
M  V30 18212 C 1744.61 -1.69872 -0.376785 0
M  V30 18213 O 1745.78 -1.99969 -0.239644 0
M  V30 18214 C 1742.85 -3.46606 -0.0806764 0
M  V30 18215 C 1741.91 -4.19257 0.923147 0
M  V30 18216 C 1741.14 -5.32901 0.291938 0
M  V30 18217 O 1741.36 -5.6309 -0.910282 0
M  V30 18218 O 1740.3 -5.93453 1.00483 0
M  V30 18219 H 1744.12 -2.65977 1.46594 0
M  V30 18220 H 1741.71 -1.27544 0.777999 0
M  V30 18221 H 1743.59 -4.18978 -0.451177 0
M  V30 18222 H 1742.27 -3.09785 -0.93887 0
M  V30 18223 H 1741.17 -3.4909 1.34488 0
M  V30 18224 H 1742.51 -4.59999 1.75106 0
M  V30 18225 N 1744.16 -0.784156 -1.36707 0
M  V30 18226 C 1745.12 -0.184957 -2.28453 0
M  V30 18227 C 1746.12 0.614637 -1.4859 0
M  V30 18228 O 1747.31 0.436403 -1.68645 0
M  V30 18229 C 1744.44 0.744662 -3.32667 0
M  V30 18230 H 1745.64 -0.993861 -2.82953 0
M  V30 18231 H 1743.19 -0.553214 -1.46182 0
M  V30 18232 H 1743.92 1.57811 -2.83313 0
M  V30 18233 H 1743.71 0.173313 -3.91717 0
M  V30 18234 H 1745.2 1.15894 -4.01196 0
M  V30 18235 N 1745.64 1.48215 -0.535727 0
M  V30 18236 C 1746.58 2.29711 0.223891 0
M  V30 18237 C 1747.55 1.37727 0.928471 0
M  V30 18238 O 1748.74 1.66691 0.928375 0
M  V30 18239 C 1745.88 3.21224 1.26131 0
M  V30 18240 C 1744.99 4.2829 0.564985 0
M  V30 18241 C 1744.13 5.06976 1.58583 0
M  V30 18242 C 1743.17 6.05838 0.873288 0
M  V30 18243 N 1742.3 6.77562 1.83994 0
M  V30 18244 H 1747.14 2.94154 -0.477242 0
M  V30 18245 H 1744.68 1.45008 -0.247186 0
M  V30 18246 H 1746.64 3.72685 1.87514 0
M  V30 18247 H 1745.27 2.58693 1.93075 0
M  V30 18248 H 1744.32 3.80051 -0.162916 0
M  V30 18249 H 1745.63 4.988 0.00578231 0
M  V30 18250 H 1744.79 5.6248 2.27379 0
M  V30 18251 H 1743.52 4.36319 2.17893 0
M  V30 18252 H 1742.53 5.49533 0.171286 0
M  V30 18253 H 1743.75 6.78497 0.286219 0
M  V30 18254 H 1741.7 6.09651 2.42202 0
M  V30 18255 H 1741.62 7.44167 1.33233 0
M  V30 18256 H 1742.89 7.37652 2.51971 0
M  V30 18257 N 1747.11 0.27113 1.5525 0
M  V30 18258 C 1748.53 -0.2274 1.8531 0
M  V30 18259 C 1748.88 -1.55752 1.19314 0
M  V30 18260 O 1748 -2.11008 0.480046 0
M  V30 18261 C 1748.6 -0.419382 3.36194 0
M  V30 18262 C 1747.16 -0.862149 3.66393 0
M  V30 18263 C 1746.3 0.0468534 2.7726 0
M  V30 18264 H 1749.25 0.493032 1.50847 0
M  V30 18265 H 1749.27 -1.25852 3.59084 0
M  V30 18266 H 1748.79 0.548856 3.84199 0
M  V30 18267 H 1746.89 -1.842 3.23884 0
M  V30 18268 H 1747 -0.702231 4.73926 0
M  V30 18269 H 1745.36 -0.468769 2.50349 0
M  V30 18270 H 1746.15 1.0109 3.28079 0
M  V30 18271 N 1748.59 -1.576 -0.00164943 0
M  V30 18272 C 1749.54 -2.09439 -1.01183 0
M  V30 18273 C 1750.53 -1.01402 -1.35698 0
M  V30 18274 O 1751.74 -1.19869 -1.34281 0
M  V30 18275 H 1748.12 -0.668732 -0.34395 0
M  V30 18276 H 1750.09 -2.93306 -0.549033 0
M  V30 18277 C 1748.84 -2.61163 -2.29542 0
M  V30 18278 H 1748.16 -3.43926 -2.0385 0
M  V30 18279 H 1749.6 -3.01115 -2.98506 0
M  V30 18280 C 1748.06 -1.52502 -3.00408 0
M  V30 18281 O 1748.59 -0.906982 -3.91327 0
M  V30 18282 N 1746.79 -1.25288 -2.62205 0
M  V30 18283 H 1746.34 -1.75731 -1.88351 0
M  V30 18284 H 1746.3 -0.528035 -3.09934 0
M  V30 18285 N 1750.07 0.274379 -1.55193 0
M  V30 18286 C 1751.32 1.00418 -1.75387 0
M  V30 18287 C 1751.64 1.86868 -0.557244 0
M  V30 18288 O 1750.91 1.9117 0.427883 0
M  V30 18289 H 1749.49 0.373753 -0.646775 0
M  V30 18290 H 1752.15 0.298942 -1.92594 0
M  V30 18291 H 1751.25 1.64191 -2.6542 0
M  V30 18292 N 1751.55 1.48103 0.538828 0
M  V30 18293 C 1752.8 1.54925 1.29156 0
M  V30 18294 C 1753.11 0.224177 1.94311 0
M  V30 18295 O 1754.32 0.170559 2.70964 0
M  V30 18296 C 1752.77 2.73184 2.34304 0
M  V30 18297 C 1752.38 4.12297 1.75257 0
M  V30 18298 C 1754.12 2.89313 3.10642 0
M  V30 18299 C 1752.03 5.2183 2.78294 0
M  V30 18300 H 1750.96 0.576723 0.485702 0
M  V30 18301 H 1753.61 1.74418 0.570142 0
M  V30 18302 H 1751.99 2.47107 3.09441 0
M  V30 18303 H 1753.17 4.48355 1.06368 0
M  V30 18304 H 1751.48 4.0121 1.11442 0
M  V30 18305 H 1754.08 3.68313 3.87621 0
M  V30 18306 H 1754.42 1.98438 3.65962 0
M  V30 18307 H 1754.96 3.15248 2.42618 0
M  V30 18308 H 1751.7 6.14642 2.27805 0
M  V30 18309 H 1751.22 4.90269 3.45537 0
M  V30 18310 H 1752.89 5.49567 3.41446 0
M  V30 18311 N 1753.03 -0.787016 1.36542 0
M  V30 18312 C 1754.27 -1.54499 1.30906 0
M  V30 18313 C 1754.6 -1.94183 -0.110963 0
M  V30 18314 O 1753.86 -1.63149 -1.08079 0
M  V30 18315 C 1754.16 -2.83235 2.17974 0
M  V30 18316 C 1753.82 -2.62677 3.66485 0
M  V30 18317 C 1752.48 -2.56779 4.06962 0
M  V30 18318 C 1754.84 -2.43853 4.60636 0
M  V30 18319 C 1752.16 -2.30026 5.39727 0
M  V30 18320 C 1754.52 -2.18626 5.93621 0
M  V30 18321 C 1753.18 -2.11162 6.33219 0
M  V30 18322 H 1752.45 -0.565352 0.479017 0
M  V30 18323 H 1755.1 -0.907794 1.68616 0
M  V30 18324 H 1753.4 -3.51435 1.73208 0
M  V30 18325 H 1755.1 -3.41038 2.10936 0
M  V30 18326 H 1751.69 -2.68125 3.34376 0
M  V30 18327 H 1755.87 -2.4741 4.30235 0
M  V30 18328 H 1751.13 -2.22731 5.69386 0
M  V30 18329 H 1755.3 -2.03056 6.66139 0
M  V30 18330 H 1752.93 -1.90195 7.36023 0
M  V30 18331 N 1754.5 -1.20861 -1.01145 0
M  V30 18332 C 1755.45 -0.962085 -2.09792 0
M  V30 18333 C 1756.42 0.109588 -1.65738 0
M  V30 18334 O 1757.61 -0.0362022 -1.90766 0
M  V30 18335 C 1754.75 -0.52586 -3.4107 0
M  V30 18336 C 1753.86 -1.66626 -3.98572 0
M  V30 18337 C 1752.99 -1.17983 -5.17932 0
M  V30 18338 C 1752.03 -2.29298 -5.67529 0
M  V30 18339 N 1751.17 -1.81836 -6.78145 0
M  V30 18340 H 1756.01 -1.89222 -2.30215 0
M  V30 18341 H 1753.55 -0.943108 -1.12889 0
M  V30 18342 H 1755.51 -0.25423 -4.16425 0
M  V30 18343 H 1754.14 0.367275 -3.20704 0
M  V30 18344 H 1753.19 -2.05268 -3.20264 0
M  V30 18345 H 1754.5 -2.50426 -4.3138 0
M  V30 18346 H 1753.65 -0.864477 -6.0051 0
M  V30 18347 H 1752.39 -0.311793 -4.86702 0
M  V30 18348 H 1751.4 -2.61644 -4.83552 0
M  V30 18349 H 1752.62 -3.16587 -6.00791 0
M  V30 18350 H 1750.57 -0.973665 -6.48734 0
M  V30 18351 H 1750.49 -2.59213 -7.10172 0
M  V30 18352 H 1751.75 -1.53315 -7.64274 0
M  V30 18353 N 1755.98 1.20536 -1.01532 0
M  V30 18354 C 1757.23 1.89496 -0.70254 0
M  V30 18355 C 1757.55 1.7915 0.770072 0
M  V30 18356 O 1756.82 1.19308 1.55379 0
M  V30 18357 H 1755.4 0.701447 -0.256868 0
M  V30 18358 H 1758.06 1.46394 -1.28665 0
M  V30 18359 H 1757.16 2.96155 -0.984817 0
M  V30 18360 N 1757.46 0.791395 1.36289 0
M  V30 18361 C 1758.69 0.375566 2.03971 0
M  V30 18362 C 1759.11 -1.00061 1.59277 0
M  V30 18363 O 1758.47 -1.64501 0.762182 0
M  V30 18364 C 1758.52 0.449891 3.57783 0
M  V30 18365 O 1757.62 -0.54243 4.08817 0
M  V30 18366 H 1756.96 0.159181 0.644637 0
M  V30 18367 H 1759.49 1.07306 1.74203 0
M  V30 18368 H 1759.5 0.314206 4.06788 0
M  V30 18369 H 1758.18 1.45377 3.89665 0
M  V30 18370 H 1756.75 -0.368243 3.71077 0
M  V30 18371 N 1758.94 -1.47929 0.54358 0
M  V30 18372 C 1760.17 -2.06891 0.0189187 0
M  V30 18373 C 1760.58 -1.39822 -1.26867 0
M  V30 18374 O 1759.94 -0.490197 -1.75793 0
M  V30 18375 C 1759.99 -3.60976 -0.194595 0
M  V30 18376 O 1759.71 -4.25528 1.04199 0
M  V30 18377 C 1761.21 -4.3677 -0.758093 0
M  V30 18378 H 1758.43 -0.669827 0.0396625 0
M  V30 18379 H 1760.98 -1.90128 0.753105 0
M  V30 18380 H 1759.13 -3.77299 -0.878869 0
M  V30 18381 H 1759.55 -5.17872 0.831191 0
M  V30 18382 H 1761.02 -5.45309 -0.856846 0
M  V30 18383 H 1761.5 -4.02121 -1.76621 0
M  V30 18384 H 1762.1 -4.25158 -0.109953 0
M  V30 18385 N 1760.42 -0.27936 -1.55104 0
M  V30 18386 C 1761.38 0.593214 -2.2139 0
M  V30 18387 C 1762.38 1.07807 -1.19308 0
M  V30 18388 O 1763.57 0.97756 -1.44185 0
M  V30 18389 C 1760.7 1.81889 -2.88321 0
M  V30 18390 H 1761.9 0.0143941 -2.99897 0
M  V30 18391 H 1759.45 -0.0300083 -1.56271 0
M  V30 18392 H 1760.18 2.43811 -2.13838 0
M  V30 18393 H 1759.97 1.4791 -3.63132 0
M  V30 18394 H 1761.46 2.4393 -3.38951 0
M  V30 18395 N 1761.9 1.57599 -0.0067085 0
M  V30 18396 C 1762.81 2.1228 0.998709 0
M  V30 18397 C 1763.82 1.06964 1.37239 0
M  V30 18398 O 1765 1.38902 1.45836 0
M  V30 18399 C 1762.06 2.62076 2.26973 0
M  V30 18400 C 1761.12 3.8202 1.95855 0
M  V30 18401 C 1760.36 4.29431 3.16898 0
M  V30 18402 O 1760.58 3.76136 4.2881 0
M  V30 18403 O 1759.51 5.21518 3.00504 0
M  V30 18404 H 1763.34 2.9842 0.563849 0
M  V30 18405 H 1760.92 1.47881 0.212535 0
M  V30 18406 H 1762.81 2.94274 3.01631 0
M  V30 18407 H 1761.48 1.79031 2.69684 0
M  V30 18408 H 1760.39 3.54785 1.18653 0
M  V30 18409 H 1761.72 4.66159 1.57977 0
M  V30 18410 N 1763.37 -0.266145 1.55336 0
M  V30 18411 C 1764.32 -1.349 1.89485 0
M  V30 18412 C 1765.32 -1.50792 0.771882 0
M  V30 18413 O 1766.52 -1.52495 0.956302 0
M  V30 18414 H 1762.9 -0.451312 0.601516 0
M  V30 18415 H 1764.87 -1.03354 2.7993 0
M  V30 18416 C 1763.62 -2.70119 2.18931 0
M  V30 18417 H 1762.94 -2.58684 3.04832 0
M  V30 18418 H 1764.38 -3.44811 2.46742 0
M  V30 18419 C 1762.84 -3.21742 0.999177 0
M  V30 18420 O 1763.37 -4.00998 0.237304 0
M  V30 18421 N 1761.57 -2.79514 0.795013 0
M  V30 18422 H 1761.12 -2.15175 1.41625 0
M  V30 18423 H 1761.08 -3.144 0.000343733 0
M  V30 18424 N 1764.85 -1.48386 -0.530967 0
M  V30 18425 C 1765.81 -1.62355 -1.61782 0
M  V30 18426 C 1766.81 -0.496909 -1.5293 0
M  V30 18427 O 1768 -0.762672 -1.56617 0
M  V30 18428 C 1765.14 -1.59282 -3.014 0
M  V30 18429 H 1766.33 -2.59265 -1.50737 0
M  V30 18430 H 1763.88 -1.36969 -0.752948 0
M  V30 18431 H 1764.62 -0.638453 -3.17953 0
M  V30 18432 H 1764.4 -2.41073 -3.09235 0
M  V30 18433 H 1765.89 -1.72248 -3.80421 0
M  V30 18434 N 1766.33 0.779763 -1.36958 0
M  V30 18435 C 1767.24 1.92394 -1.34245 0
M  V30 18436 C 1768.26 1.72292 -0.243187 0
M  V30 18437 O 1769.43 1.95665 -0.477211 0
M  V30 18438 C 1766.5 3.27402 -1.14057 0
M  V30 18439 C 1765.56 3.60213 -2.33548 0
M  V30 18440 C 1764.79 4.88779 -2.14314 0
M  V30 18441 O 1765.01 5.59231 -1.12327 0
M  V30 18442 O 1763.95 5.20469 -3.02316 0
M  V30 18443 H 1767.77 1.97633 -2.30596 0
M  V30 18444 H 1765.36 0.921386 -1.17605 0
M  V30 18445 H 1767.24 4.08172 -1.04755 0
M  V30 18446 H 1765.92 3.23033 -0.207744 0
M  V30 18447 H 1764.82 2.7971 -2.48421 0
M  V30 18448 H 1766.16 3.69317 -3.25371 0
M  V30 18449 N 1767.81 1.21396 1.00503 0
M  V30 18450 C 1769.04 1.0556 1.77597 0
M  V30 18451 C 1769.45 -0.397591 1.84975 0
M  V30 18452 O 1768.79 -1.28764 1.31018 0
M  V30 18453 C 1768.85 1.57754 3.23039 0
M  V30 18454 C 1768.51 3.06214 3.39238 0
M  V30 18455 C 1769.51 4.03763 3.27523 0
M  V30 18456 C 1767.2 3.45418 3.6468 0
M  V30 18457 C 1769.19 5.38505 3.41015 0
M  V30 18458 C 1766.88 4.80312 3.77814 0
M  V30 18459 C 1767.88 5.76665 3.65988 0
M  V30 18460 O 1767.56 7.09111 3.78704 0
M  V30 18461 H 1767.3 0.371187 0.564975 0
M  V30 18462 H 1769.85 1.61186 1.27312 0
M  V30 18463 H 1768.08 0.965245 3.74459 0
M  V30 18464 H 1769.77 1.37762 3.81807 0
M  V30 18465 H 1770.53 3.74819 3.07791 0
M  V30 18466 H 1766.41 2.70954 3.72968 0
M  V30 18467 H 1769.96 6.13694 3.317 0
M  V30 18468 H 1765.85 5.08942 3.9705 0
M  V30 18469 H 1766.62 7.16521 3.95651 0
M  V30 18470 N 1769.29 -1.19996 1.0217 0
M  V30 18471 C 1770.22 -2.25206 0.616818 0
M  V30 18472 C 1771.2 -1.66013 -0.370653 0
M  V30 18473 O 1772.38 -1.92519 -0.254956 0
M  V30 18474 C 1769.51 -3.47276 -0.0405129 0
M  V30 18475 C 1768.47 -4.19096 0.868479 0
M  V30 18476 C 1767.79 -5.34645 0.0766447 0
M  V30 18477 C 1769.09 -4.7468 2.1789 0
M  V30 18478 H 1770.79 -2.59328 1.49632 0
M  V30 18479 H 1768.33 -1.24655 0.720917 0
M  V30 18480 H 1770.28 -4.20063 -0.335355 0
M  V30 18481 H 1769.01 -3.12333 -0.954759 0
M  V30 18482 H 1767.67 -3.48181 1.1474 0
M  V30 18483 H 1767.32 -4.95946 -0.839411 0
M  V30 18484 H 1767.02 -5.83628 0.682041 0
M  V30 18485 H 1768.54 -6.10233 -0.211624 0
M  V30 18486 H 1769.95 -5.39259 1.94608 0
M  V30 18487 H 1768.35 -5.34121 2.7356 0
M  V30 18488 H 1769.42 -3.93141 2.83845 0
M  V30 18489 N 1770.76 -0.798611 -1.35867 0
M  V30 18490 C 1772.18 -0.481385 -1.52167 0
M  V30 18491 C 1772.38 0.99878 -1.75005 0
M  V30 18492 O 1771.44 1.78404 -1.78685 0
M  V30 18493 C 1772.75 -1.31982 -2.70188 0
M  V30 18494 C 1774.3 -1.31445 -2.84062 0
M  V30 18495 C 1774.77 -2.13682 -4.05098 0
M  V30 18496 N 1776.26 -2.11176 -4.12261 0
M  V30 18497 C 1777 -2.71571 -5.05012 0
M  V30 18498 N 1776.49 -3.40861 -6.03147 0
M  V30 18499 N 1778.29 -2.61255 -4.97697 0
M  V30 18500 H 1770.44 -1.75731 -1.19299 0
M  V30 18501 H 1772.7 -0.747512 -0.583034 0
M  V30 18502 H 1772.41 -2.36989 -2.59864 0
M  V30 18503 H 1772.28 -0.967488 -3.64581 0
M  V30 18504 H 1774.67 -0.272258 -2.93841 0
M  V30 18505 H 1774.75 -1.7066 -1.90549 0
M  V30 18506 H 1774.39 -3.17937 -3.96079 0
M  V30 18507 H 1774.32 -1.71832 -4.97776 0
M  V30 18508 H 1776.81 -1.60754 -3.42004 0
M  V30 18509 H 1777.13 -3.84251 -6.705 0
M  V30 18510 H 1775.47 -3.44964 -6.03345 0
M  V30 18511 H 1778.66 -2.06717 -4.19983 0
M  V30 18512 H 1778.84 -3.08613 -5.69791 0
M  V30 18513 N 1772.24 1.47639 -0.551417 0
M  V30 18514 C 1773.49 2.02784 -0.0252425 0
M  V30 18515 C 1773.82 1.42549 1.31884 0
M  V30 18516 O 1773.1 0.578954 1.85684 0
M  V30 18517 C 1773.38 3.60024 0.0740051 0
M  V30 18518 C 1773.23 4.30702 -1.29676 0
M  V30 18519 C 1774.55 4.32946 0.790302 0
M  V30 18520 H 1771.67 0.736923 -0.0106473 0
M  V30 18521 H 1774.31 1.76131 -0.712589 0
M  V30 18522 H 1772.46 3.82863 0.65939 0
M  V30 18523 H 1774.13 4.1922 -1.9249 0
M  V30 18524 H 1772.38 3.91282 -1.87299 0
M  V30 18525 H 1773.05 5.39238 -1.18009 0
M  V30 18526 H 1775.52 4.15065 0.293326 0
M  V30 18527 H 1774.4 5.42608 0.828692 0
M  V30 18528 H 1774.66 4.01752 1.84521 0
M  V30 18529 N 1773.72 0.287581 1.54954 0
M  V30 18530 C 1774.68 -0.581465 2.21702 0
M  V30 18531 C 1775.68 -1.07172 1.19878 0
M  V30 18532 O 1776.87 -0.969899 1.44702 0
M  V30 18533 C 1774.01 -1.80358 2.89282 0
M  V30 18534 H 1775.2 0.00151035 2.999 0
M  V30 18535 H 1772.75 0.0382953 1.56253 0
M  V30 18536 H 1773.49 -2.42674 2.15128 0
M  V30 18537 H 1773.27 -1.45983 3.63911 0
M  V30 18538 H 1774.76 -2.42129 3.4024 0
M  V30 18539 N 1775.2 -1.57593 0.0150662 0
M  V30 18540 C 1776.61 -1.79146 -0.525709 0
M  V30 18541 C 1776.96 -0.923985 -1.73081 0
M  V30 18542 O 1776.09 -0.130532 -2.16006 0
M  V30 18543 C 1776.68 -3.249 -0.960492 0
M  V30 18544 C 1775.24 -3.47497 -1.44647 0
M  V30 18545 C 1774.39 -2.74332 -0.404628 0
M  V30 18546 H 1777.34 -1.56857 0.241175 0
M  V30 18547 H 1777.36 -3.3384 -1.82568 0
M  V30 18548 H 1776.87 -3.88011 -0.0832025 0
M  V30 18549 H 1774.97 -2.8962 -2.34416 0
M  V30 18550 H 1775.08 -4.56199 -1.46354 0
M  V30 18551 H 1773.45 -2.39394 -0.869627 0
M  V30 18552 H 1774.23 -3.40151 0.463953 0
M  V30 18553 N 1776.68 0.257904 -1.55475 0
M  V30 18554 C 1777.61 1.34176 -1.85821 0
M  V30 18555 C 1778.62 1.44821 -0.743696 0
M  V30 18556 O 1779.81 1.46367 -1.02171 0
M  V30 18557 C 1776.91 2.72151 -2.01958 0
M  V30 18558 C 1776.08 2.83911 -3.32736 0
M  V30 18559 C 1775.14 4.02659 -3.38751 0
M  V30 18560 O 1774.17 3.92705 -4.12034 0
M  V30 18561 N 1775.37 5.15325 -2.67245 0
M  V30 18562 H 1778.14 1.08483 -2.79377 0
M  V30 18563 H 1775.7 0.448017 -1.55578 0
M  V30 18564 H 1777.69 3.4991 -2.03335 0
M  V30 18565 H 1776.26 2.906 -1.15198 0
M  V30 18566 H 1775.48 1.92915 -3.43769 0
M  V30 18567 H 1776.77 2.88709 -4.18956 0
M  V30 18568 H 1776.16 5.26303 -2.07418 0
M  V30 18569 H 1774.72 5.91259 -2.74328 0
M  V30 18570 N 1778.15 1.48666 0.52309 0
M  V30 18571 C 1779.38 1.60965 1.30787 0
M  V30 18572 C 1779.8 0.272663 1.86113 0
M  V30 18573 O 1779.16 -0.756662 1.64755 0
M  V30 18574 C 1779.21 2.66455 2.42969 0
M  V30 18575 O 1778.31 2.24094 3.46202 0
M  V30 18576 H 1777.66 0.539516 0.387064 0
M  V30 18577 H 1780.19 1.94702 0.628683 0
M  V30 18578 H 1780.2 2.87942 2.89056 0
M  V30 18579 H 1778.87 3.63516 2.02062 0
M  V30 18580 H 1777.45 2.12848 3.06186 0
M  V30 18581 N 1779.63 -0.772489 1.37369 0
M  V30 18582 C 1780.86 -1.56671 1.35901 0
M  V30 18583 C 1781.28 -1.88024 -0.0535538 0
M  V30 18584 O 1780.64 -1.49174 -1.03038 0
M  V30 18585 C 1780.69 -2.85417 2.20384 0
M  V30 18586 O 1779.79 -3.79761 1.60796 0
M  V30 18587 H 1779.13 -0.474596 0.464386 0
M  V30 18588 H 1781.66 -0.956162 1.80883 0
M  V30 18589 H 1781.67 -3.34527 2.33571 0
M  V30 18590 H 1780.35 -2.61926 3.2306 0
M  V30 18591 H 1778.93 -3.38403 1.56645 0
M  V30 18592 N 1781.11 -1.21927 -0.998575 0
M  V30 18593 C 1782.02 -1.00049 -2.12197 0
M  V30 18594 C 1783.04 0.0494414 -1.7393 0
M  V30 18595 O 1784.21 -0.142033 -2.00899 0
M  V30 18596 C 1781.28 -0.574871 -3.41901 0
M  V30 18597 C 1780.34 -1.69776 -3.94303 0
M  V30 18598 C 1779.57 -1.29236 -5.17816 0
M  V30 18599 O 1779.79 -0.168709 -5.7015 0
M  V30 18600 O 1778.73 -2.10671 -5.63827 0
M  V30 18601 H 1782.55 -1.94154 -2.33534 0
M  V30 18602 H 1780.14 -1.00472 -1.10571 0
M  V30 18603 H 1782.02 -0.347603 -4.19964 0
M  V30 18604 H 1780.7 0.337389 -3.21937 0
M  V30 18605 H 1779.6 -1.9795 -3.17438 0
M  V30 18606 H 1780.94 -2.58768 -4.18688 0
M  V30 18607 N 1782.59 1.19452 -1.02805 0
M  V30 18608 C 1783.84 1.89114 -0.724029 0
M  V30 18609 C 1784.16 1.79571 0.747307 0
M  V30 18610 O 1783.42 1.18191 1.55979 0
M  V30 18611 C 1783.72 3.3941 -1.11964 0
M  V30 18612 C 1783.38 3.69156 -2.58911 0
M  V30 18613 C 1782.05 3.76984 -2.99059 0
M  V30 18614 C 1784.4 3.82549 -3.53986 0
M  V30 18615 C 1781.73 3.95673 -4.33197 0
M  V30 18616 C 1784.08 4.02751 -4.87826 0
M  V30 18617 C 1782.74 4.08812 -5.27664 0
M  V30 18618 H 1782.01 0.692017 -0.264941 0
M  V30 18619 H 1784.66 1.41463 -1.29075 0
M  V30 18620 H 1782.96 3.88952 -0.471514 0
M  V30 18621 H 1784.66 3.91627 -0.861939 0
M  V30 18622 H 1781.25 3.6367 -2.26808 0
M  V30 18623 H 1785.43 3.75845 -3.24121 0
M  V30 18624 H 1780.69 3.98605 -4.63599 0
M  V30 18625 H 1784.86 4.12056 -5.61412 0
M  V30 18626 H 1782.49 4.23046 -6.31614 0
M  V30 18627 N 1784.07 0.805805 1.35442 0
M  V30 18628 C 1785.32 0.382303 1.98044 0
M  V30 18629 C 1785.63 -1.05602 1.64644 0
M  V30 18630 O 1786.83 -1.5826 2.20604 0
M  V30 18631 C 1785.29 0.632619 3.54296 0
M  V30 18632 C 1784.9 2.08344 3.96607 0
M  V30 18633 C 1786.64 0.274435 4.23612 0
M  V30 18634 C 1784.55 2.27954 5.45702 0
M  V30 18635 H 1783.48 0.13921 0.741037 0
M  V30 18636 H 1786.13 0.989752 1.54519 0
M  V30 18637 H 1784.51 -0.0447699 3.95975 0
M  V30 18638 H 1785.69 2.79857 3.66083 0
M  V30 18639 H 1784 2.40142 3.40178 0
M  V30 18640 H 1786.6 0.399019 5.33209 0
M  V30 18641 H 1786.94 -0.779292 4.08941 0
M  V30 18642 H 1787.47 0.90571 3.87352 0
M  V30 18643 H 1784.21 3.3177 5.6534 0
M  V30 18644 H 1783.73 1.60965 5.77798 0
M  V30 18645 H 1785.41 2.09469 6.12153 0
M  V30 18646 N 1785.54 -1.47344 0.559239 0
M  V30 18647 C 1786.79 -2.02068 0.035872 0
M  V30 18648 C 1787.11 -1.43573 -1.31953 0
M  V30 18649 O 1786.38 -0.611672 -1.86106 0
M  V30 18650 H 1784.96 -0.746929 0.0102713 0
M  V30 18651 H 1787.63 -1.80724 0.729707 0
M  V30 18652 H 1786.72 -3.12059 -0.0507123 0
M  V30 18653 N 1787.02 -0.295795 -1.54799 0
M  V30 18654 C 1787.99 0.569699 -2.22007 0
M  V30 18655 C 1788.99 1.06535 -1.20445 0
M  V30 18656 O 1790.18 0.962212 -1.45214 0
M  V30 18657 C 1787.31 1.78821 -2.90234 0
M  V30 18658 H 1788.5 -0.0174148 -2.99895 0
M  V30 18659 H 1786.05 -0.0465813 -1.56231 0
M  V30 18660 H 1786.79 2.4153 -2.16412 0
M  V30 18661 H 1786.57 1.44051 -3.6468 0
M  V30 18662 H 1788.06 2.40321 -3.41519 0
M  V30 18663 O 1788.54 1.60683 -0.1622 0
M  V30 18664 H 1789.23 1.88887 0.429129 0
M  V30 END ATOM
M  V30 BEGIN BOND
M  V30 END BOND
M  V30 END CTAB
M  END
$$$$
