drugbank_target|P83792 Cytochrome b6-f complex subunit 4 (DB04646; DB08453)
 OpenBabel12092120223D

  0  0  0     0  0            999 V3000
M  V30 BEGIN CTAB
M  V30 COUNTS 2558 2597 0 0 0
M  V30 BEGIN ATOM
M  V30 1 H -0.908 1.98254 -0.117106 0
M  V30 2 N 0 1.576 0 0
M  V30 3 C 0.933 2.03868 1.02534 0
M  V30 4 C 1.911 0.928543 1.3348 0
M  V30 5 O 3.095 1.19667 1.45644 0
M  V30 6 C 0.222 2.43627 2.35294 0
M  V30 7 C -0.732 3.65373 2.2001 0
M  V30 8 S 0.101 5.13292 1.52614 0
M  V30 9 C 1.257 5.56322 2.86805 0
M  V30 10 H 1.49 2.90518 0.631377 0
M  V30 11 H -0.977 1.52953 0.210867 0
M  V30 12 H 0.981 2.67203 3.11629 0
M  V30 13 H -0.358 1.57376 2.7183 0
M  V30 14 H -1.165 3.90944 3.18086 0
M  V30 15 H -1.563 3.418 1.51819 0
M  V30 16 H 0.729 5.58782 3.83104 0
M  V30 17 H 1.672 6.56266 2.65933 0
M  V30 18 H 2.08 4.83886 2.90714 0
M  V30 19 N 1.4781 -0.272755 1.55222 0
M  V30 20 C 2.4411 -1.32041 1.87344 0
M  V30 21 C 3.4411 -1.42342 0.74803 0
M  V30 22 O 4.6311 -1.41488 1.0162 0
M  V30 23 C 1.7631 -2.70173 2.07893 0
M  V30 24 H 2.9561 -1.04789 2.80997 0
M  V30 25 H 0.5091 -0.51083 1.47717 0
M  V30 26 H 1.2441 -3.02605 1.16622 0
M  V30 27 H 1.0291 -2.64082 2.89833 0
M  V30 28 H 2.5191 -3.45869 2.34017 0
M  V30 29 N 2.9562 -1.48159 -0.537278 0
M  V30 30 C 4.1842 -1.59454 -1.31841 0
M  V30 31 C 4.5992 -0.252065 -1.8711 0
M  V30 32 O 3.9562 0.757621 -1.66031 0
M  V30 33 C 4.0072 -2.63546 -2.47439 0
M  V30 34 O 3.7282 -3.92583 -1.94449 0
M  V30 35 C 5.2292 -2.85212 -3.39366 0
M  V30 36 H 2.4492 -0.53785 -0.401196 0
M  V30 37 H 4.9932 -1.93932 -0.648891 0
M  V30 38 H 3.1482 -2.31946 -3.1029 0
M  V30 39 H 3.5622 -4.49629 -2.70063 0
M  V30 40 H 5.0362 -3.61863 -4.16844 0
M  V30 41 H 5.5132 -1.93765 -3.94147 0
M  V30 42 H 6.1192 -3.18086 -2.82314 0
M  V30 43 N 4.4343 0.785586 -1.36625 0
M  V30 44 C 5.3643 1.91259 -1.33949 0
M  V30 45 C 6.3453 1.68795 -0.210325 0
M  V30 46 O 7.5303 1.89854 -0.408561 0
M  V30 47 C 4.6603 3.28339 -1.13186 0
M  V30 48 C 3.6143 3.65335 -2.22967 0
M  V30 49 C 2.9403 5.00806 -1.87342 0
M  V30 50 C 4.2403 3.7352 -3.65075 0
M  V30 51 H 5.9343 1.93755 -2.28253 0
M  V30 52 H 3.4803 0.930788 -1.09874 0
M  V30 53 H 5.4333 4.06804 -1.09948 0
M  V30 54 H 4.1573 3.2624 -0.153332 0
M  V30 55 H 2.8163 2.89169 -2.25337 0
M  V30 56 H 2.4643 4.95233 -0.880545 0
M  V30 57 H 2.1643 5.26529 -2.60846 0
M  V30 58 H 3.6883 5.81687 -1.85667 0
M  V30 59 H 5.1023 4.42168 -3.64911 0
M  V30 60 H 3.4993 4.10731 -4.37516 0
M  V30 61 H 4.5693 2.74527 -3.99703 0
M  V30 62 N 5.9124 1.20967 1.01018 0
M  V30 63 C 6.8594 0.964281 2.09691 0
M  V30 64 C 7.8294 -0.107853 1.65749 0
M  V30 65 O 9.0144 0.0381987 1.90762 0
M  V30 66 C 6.1544 0.52943 3.41015 0
M  V30 67 C 5.2674 1.67043 3.98398 0
M  V30 68 C 4.4024 1.18525 5.17808 0
M  V30 69 C 3.4414 2.29892 5.67288 0
M  V30 70 N 2.5784 1.82546 6.77954 0
M  V30 71 H 7.4184 1.89463 2.30017 0
M  V30 72 H 4.9554 0.944289 1.1279 0
M  V30 73 H 6.9134 0.258588 4.16398 0
M  V30 74 H 5.5434 -0.363919 3.20742 0
M  V30 75 H 4.5954 2.05603 3.20049 0
M  V30 76 H 5.9074 2.50877 4.31117 0
M  V30 77 H 5.0614 0.870762 6.00419 0
M  V30 78 H 3.8004 0.316887 4.86669 0
M  V30 79 H 2.8054 2.6215 4.83278 0
M  V30 80 H 4.0304 3.17216 6.00459 0
M  V30 81 H 1.9764 0.980454 6.48632 0
M  V30 82 H 1.8934 2.59956 7.09901 0
M  V30 83 H 3.1614 1.54115 7.64113 0
M  V30 84 N 7.3905 -1.2043 1.01659 0
M  V30 85 C 8.3375 -2.23215 0.586822 0
M  V30 86 C 9.3075 -1.61382 -0.393085 0
M  V30 87 O 10.4925 -1.88544 -0.292525 0
M  V30 88 C 7.6325 -3.45032 -0.0687464 0
M  V30 89 C 6.7455 -4.21296 0.955724 0
M  V30 90 C 5.8805 -5.30507 0.271208 0
M  V30 91 C 4.9195 -5.98515 1.28244 0
M  V30 92 N 4.0565 -6.99316 0.62459 0
M  V30 93 H 8.8965 -2.59336 1.46796 0
M  V30 94 H 6.4335 -1.27431 0.734836 0
M  V30 95 H 8.3915 -4.1459 -0.465965 0
M  V30 96 H 7.0215 -3.09604 -0.913529 0
M  V30 97 H 6.0735 -3.50803 1.4711 0
M  V30 98 H 7.3855 -4.6803 1.72479 0
M  V30 99 H 6.5395 -6.06428 -0.18151 0
M  V30 100 H 5.2785 -4.8481 -0.530163 0
M  V30 101 H 4.2835 -5.21355 1.74554 0
M  V30 102 H 5.5085 -6.46298 2.08509 0
M  V30 103 H 3.4545 -6.55812 -0.156914 0
M  V30 104 H 3.3715 -7.44178 1.33172 0
M  V30 105 H 4.6395 -7.79255 0.195462 0
M  V30 106 N 8.8686 -0.792821 -1.36206 0
M  V30 107 C 10.2796 -0.429513 -1.81692 0
M  V30 108 C 10.6306 1.04695 -1.65932 0
M  V30 109 O 9.7556 1.81256 -1.18218 0
M  V30 110 C 10.3506 -0.772831 -3.29868 0
M  V30 111 C 8.9096 -0.462307 -3.7355 0
M  V30 112 C 8.0566 -1.00569 -2.5842 0
M  V30 113 H 11.0076 -0.985672 -1.24379 0
M  V30 114 H 11.0286 -0.0651928 -3.80444 0
M  V30 115 H 10.5406 -1.84747 -3.41307 0
M  V30 116 H 8.6416 0.604158 -3.67669 0
M  V30 117 H 8.7546 -0.985299 -4.68859 0
M  V30 118 H 7.1186 -0.428734 -2.51066 0
M  V30 119 H 7.9016 -2.08616 -2.72643 0
M  V30 120 N 10.3467 1.47872 -0.545128 0
M  V30 121 C 11.6237 1.9554 0.0485222 0
M  V30 122 C 12.0037 1.4876 1.49779 0
M  V30 123 O 11.3517 0.720925 2.16829 0
M  V30 124 C 11.5617 3.48898 -0.084417 0
M  V30 125 C 12.9097 4.24547 0.0671239 0
M  V30 126 O 13.9337 3.56198 -0.0113649 0
M  V30 127 O 12.7927 5.45999 0.233882 0
M  V30 128 H 9.8867 0.823957 0.0708773 0
M  V30 129 H 12.4327 1.58327 -0.610798 0
M  V30 130 H 11.2047 3.75714 -1.09337 0
M  V30 131 H 10.8277 3.92845 0.613066 0
M  V30 132 N 11.8248 0.280983 1.55075 0
M  V30 133 C 12.7548 -0.597469 2.25727 0
M  V30 134 C 13.7358 -1.15417 1.24952 0
M  V30 135 O 14.9208 -1.18722 1.53684 0
M  V30 136 C 12.0508 -1.7789 2.98283 0
M  V30 137 C 11.0048 -1.35347 4.06036 0
M  V30 138 C 10.3308 -2.61846 4.66198 0
M  V30 139 C 11.6308 -0.499354 5.19907 0
M  V30 140 H 13.3248 -0.00824265 2.99399 0
M  V30 141 H 10.8708 -0.0025244 1.44 0
M  V30 142 H 12.8238 -2.39937 3.46422 0
M  V30 143 H 11.5478 -2.39405 2.22155 0
M  V30 144 H 10.2068 -0.756156 3.58717 0
M  V30 145 H 9.8548 -3.21632 3.86732 0
M  V30 146 H 9.5548 -2.3409 5.38958 0
M  V30 147 H 11.0788 -3.24732 5.1709 0
M  V30 148 H 12.4928 -1.02498 5.64063 0
M  V30 149 H 10.8898 -0.316424 5.99265 0
M  V30 150 H 11.9598 0.480459 4.82514 0
M  V30 151 N 13.3029 -1.57598 0.00835791 0
M  V30 152 C 14.5279 -1.95617 -0.689103 0
M  V30 153 C 14.9529 -0.883753 -1.66046 0
M  V30 154 O 14.3109 0.157352 -1.80616 0
M  V30 155 C 14.3589 -3.32736 -1.38994 0
M  V30 156 O 13.4629 -3.27631 -2.50463 0
M  V30 157 H 12.8039 -0.638379 -0.182668 0
M  V30 158 H 15.3339 -2.045 0.064036 0
M  V30 159 H 15.3439 -3.68494 -1.75147 0
M  V30 160 H 14.0189 -4.1034 -0.677778 0
M  V30 161 H 12.5959 -3.03561 -2.16576 0
M  V30 162 N 14.781 0.264519 -1.55364 0
M  V30 163 C 16.058 1.01677 -1.67096 0
M  V30 164 C 16.438 2.03996 -0.543015 0
M  V30 165 O 15.786 2.23907 0.45585 0
M  V30 166 C 15.996 1.66596 -3.0667 0
M  V30 167 C 17.344 2.17442 -3.64697 0
M  V30 168 O 18.368 1.76568 -3.09358 0
M  V30 169 O 17.227 2.92439 -4.61673 0
M  V30 170 H 14.321 0.472161 -0.678965 0
M  V30 171 H 16.867 0.259703 -1.67701 0
M  V30 172 H 15.639 0.924962 -3.80211 0
M  V30 173 H 15.262 2.48968 -3.10001 0
M  V30 174 N 16.2591 1.48442 0.529413 0
M  V30 175 C 17.6701 1.5002 1.11134 0
M  V30 176 C 18.0211 0.27031 1.94329 0
M  V30 177 O 17.1461 -0.622507 2.07253 0
M  V30 178 C 17.7411 2.71834 2.02217 0
M  V30 179 C 16.3001 2.76283 2.55627 0
M  V30 180 C 15.4471 2.43542 1.326 0
M  V30 181 H 18.3981 1.5555 0.314641 0
M  V30 182 H 18.4191 2.50384 2.8651 0
M  V30 183 H 17.9311 3.61331 1.41639 0
M  V30 184 H 16.0321 1.90995 3.19924 0
M  V30 185 H 16.1451 3.77725 2.94721 0
M  V30 186 H 14.5091 1.94709 1.64196 0
M  V30 187 H 15.2921 3.3528 0.737734 0
M  V30 188 N 17.7372 -0.778329 1.37039 0
M  V30 189 C 18.6842 -1.89139 1.32269 0
M  V30 190 C 19.6542 -1.65017 0.189387 0
M  V30 191 O 20.8392 -1.87024 0.377693 0
M  V30 192 C 17.9792 -3.26112 1.12894 0
M  V30 193 C 17.0922 -3.62233 2.35396 0
M  V30 194 C 16.2272 -4.8838 2.08946 0
M  V30 195 C 15.2662 -5.17212 3.2735 0
M  V30 196 N 14.4032 -6.34546 3.00492 0
M  V30 197 H 19.2432 -1.92552 2.27437 0
M  V30 198 H 16.7802 -0.941473 1.13025 0
M  V30 199 H 18.7382 -4.05116 0.996835 0
M  V30 200 H 17.3682 -3.22091 0.213758 0
M  V30 201 H 16.4202 -2.78265 2.5937 0
M  V30 202 H 17.7322 -3.79481 3.23721 0
M  V30 203 H 16.8862 -5.75274 1.92729 0
M  V30 204 H 15.6252 -4.73222 1.17949 0
M  V30 205 H 14.6302 -4.28796 3.44113 0
M  V30 206 H 15.8552 -5.34283 4.19188 0
M  V30 207 H 13.8012 -6.20759 2.12118 0
M  V30 208 H 13.7182 -6.52179 3.82358 0
M  V30 209 H 14.9862 -7.24394 2.87879 0
M  V30 210 N 19.2153 -1.21501 -1.00376 0
M  V30 211 C 20.1453 -0.999478 -2.11028 0
M  V30 212 C 21.1263 0.0759671 -1.6993 0
M  V30 213 O 22.3113 -0.0841106 -1.94018 0
M  V30 214 C 19.4413 -0.564709 -3.42678 0
M  V30 215 C 18.3953 -1.58486 -3.97576 0
M  V30 216 C 17.7213 -1.00628 -5.25146 0
M  V30 217 C 19.0213 -2.97204 -4.29496 0
M  V30 218 H 20.7153 -1.92495 -2.29317 0
M  V30 219 H 18.2613 -0.92693 -1.102 0
M  V30 220 H 20.2143 -0.401091 -4.19487 0
M  V30 221 H 18.9383 0.396411 -3.24185 0
M  V30 222 H 17.5973 -1.73606 -3.22888 0
M  V30 223 H 17.2453 -0.0368439 -5.02987 0
M  V30 224 H 16.9453 -1.68771 -5.62841 0
M  V30 225 H 18.4693 -0.854015 -6.04598 0
M  V30 226 H 19.8833 -2.8552 -4.97143 0
M  V30 227 H 18.2803 -3.62372 -4.78338 0
M  V30 228 H 19.3503 -3.47956 -3.3772 0
M  V30 229 N 20.6934 1.19889 -1.02296 0
M  V30 230 C 22.1094 1.41462 -0.738954 0
M  V30 231 C 22.3094 1.89721 0.678846 0
M  V30 232 O 21.3654 2.07016 1.4457 0
M  V30 233 C 22.6784 2.43083 -1.77005 0
M  V30 234 C 24.2264 2.5684 -1.78892 0
M  V30 235 C 24.7014 3.61709 -2.80945 0
M  V30 236 N 26.1924 3.69199 -2.79725 0
M  V30 237 C 26.9274 4.50019 -3.55345 0
M  V30 238 N 26.4234 5.34592 -4.40662 0
M  V30 239 N 28.2164 4.44612 -3.43914 0
M  V30 240 H 20.3674 0.868827 -1.93817 0
M  V30 241 H 22.6304 0.44399 -0.837602 0
M  V30 242 H 22.3364 2.14636 -2.78612 0
M  V30 243 H 22.2104 3.4217 -1.58744 0
M  V30 244 H 24.5974 2.84614 -0.779674 0
M  V30 245 H 24.6784 1.57927 -2.01228 0
M  V30 246 H 24.3224 3.34678 -3.82038 0
M  V30 247 H 24.2524 4.60259 -2.5587 0
M  V30 248 H 26.7434 3.08794 -2.17842 0
M  V30 249 H 27.0564 5.93363 -4.95116 0
M  V30 250 H 25.4014 5.34073 -4.44737 0
M  V30 251 H 28.5924 3.7758 -2.76679 0
M  V30 252 H 28.7654 5.0736 -4.031 0
M  V30 253 N 22.1715 0.800033 1.35784 0
M  V30 254 C 23.1345 0.211565 2.28221 0
M  V30 255 C 24.1345 -0.59728 1.49296 0
M  V30 256 O 25.3245 -0.416721 1.69142 0
M  V30 257 C 22.4565 -0.705846 3.33513 0
M  V30 258 H 23.6495 1.02677 2.81776 0
M  V30 259 H 21.2025 0.570211 1.45528 0
M  V30 260 H 21.9375 -1.54498 2.85133 0
M  V30 261 H 21.7225 -0.127655 3.91892 0
M  V30 262 H 23.2125 -1.11211 4.02519 0
M  V30 263 N 23.6496 -1.47581 0.552962 0
M  V30 264 C 24.5966 -2.29957 -0.197108 0
M  V30 265 C 25.5666 -1.38799 -0.912359 0
M  V30 266 O 26.7516 -1.67761 -0.908888 0
M  V30 267 C 23.8916 -3.22672 -1.22379 0
M  V30 268 C 23.0046 -4.28919 -0.515038 0
M  V30 269 C 22.1396 -5.0879 -1.52664 0
M  V30 270 C 21.1786 -6.06815 -0.802631 0
M  V30 271 N 20.3156 -6.7966 -1.76086 0
M  V30 272 H 25.1556 -2.93578 0.511486 0
M  V30 273 H 22.6926 -1.4471 0.264067 0
M  V30 274 H 24.6506 -3.74845 -1.83159 0
M  V30 275 H 23.2806 -2.60925 -1.90047 0
M  V30 276 H 22.3326 -3.79835 0.207192 0
M  V30 277 H 23.6446 -4.98773 0.0523425 0
M  V30 278 H 22.7986 -5.65091 -2.20809 0
M  V30 279 H 21.5376 -4.38828 -2.12794 0
M  V30 280 H 20.5426 -5.49695 -0.107238 0
M  V30 281 H 21.7676 -6.78784 -0.207135 0
M  V30 282 H 19.7136 -6.12432 -2.35081 0
M  V30 283 H 19.6306 -7.45669 -1.24552 0
M  V30 284 H 20.8986 -7.40538 -2.43359 0
M  V30 285 N 25.1277 -0.289203 -1.54924 0
M  V30 286 C 26.0577 0.58549 -2.2604 0
M  V30 287 C 27.0387 1.14753 -1.25562 0
M  V30 288 O 28.2237 1.17906 -1.54311 0
M  V30 289 C 25.3537 1.76305 -2.99222 0
M  V30 290 C 24.3077 1.33191 -4.06748 0
M  V30 291 C 23.6337 2.5937 -4.6758 0
M  V30 292 C 24.9337 0.471775 -5.20165 0
M  V30 293 H 26.6277 -0.00763532 -2.99399 0
M  V30 294 H 24.1737 -0.00511229 -1.43999 0
M  V30 295 H 26.1267 2.38097 -3.47689 0
M  V30 296 H 24.8507 2.38223 -2.23422 0
M  V30 297 H 23.5097 0.737121 -3.59113 0
M  V30 298 H 23.1577 3.19576 -3.88433 0
M  V30 299 H 22.8577 2.31228 -5.40192 0
M  V30 300 H 24.3817 3.21985 -5.18804 0
M  V30 301 H 25.7957 0.995056 -5.64599 0
M  V30 302 H 24.1927 0.284639 -5.99425 0
M  V30 303 H 25.2627 -0.506041 -4.82252 0
M  V30 304 N 26.6058 1.57591 -0.0167156 0
M  V30 305 C 27.5688 2.08393 0.954204 0
M  V30 306 C 28.5688 0.996531 1.26198 0
M  V30 307 O 29.7588 1.25858 1.20438 0
M  V30 308 C 26.8908 2.5394 2.27436 0
M  V30 309 H 28.0838 2.95455 0.514451 0
M  V30 310 H 25.6368 1.54582 0.231089 0
M  V30 311 H 26.3718 1.70171 2.76066 0
M  V30 312 H 26.1568 3.33371 2.06412 0
M  V30 313 H 27.6468 2.93512 2.97053 0
M  V30 314 N 28.0839 -0.256276 1.55502 0
M  V30 315 C 29.0309 -1.31714 1.89526 0
M  V30 316 C 30.0009 -1.4828 0.748479 0
M  V30 317 O 31.1859 -1.62416 1.00128 0
M  V30 318 C 28.3259 -2.66933 2.18725 0
M  V30 319 C 27.4389 -2.58452 3.4616 0
M  V30 320 C 26.5739 -3.85961 3.64976 0
M  V30 321 C 25.6129 -3.72059 4.86044 0
M  V30 322 N 24.7499 -4.9144 5.01429 0
M  V30 323 H 29.5899 -1.01998 2.80001 0
M  V30 324 H 27.1269 -0.492413 1.38613 0
M  V30 325 H 29.0849 -3.4563 2.33657 0
M  V30 326 H 27.7149 -2.94816 1.31466 0
M  V30 327 H 26.7669 -1.71374 3.3961 0
M  V30 328 H 28.0789 -2.44085 4.34999 0
M  V30 329 H 27.2329 -4.73101 3.79816 0
M  V30 330 H 25.9719 -4.03215 2.74353 0
M  V30 331 H 24.9769 -2.83302 4.7119 0
M  V30 332 H 26.2019 -3.56309 5.78118 0
M  V30 333 H 24.1479 -5.09072 4.13741 0
M  V30 334 H 24.0649 -4.79668 5.84341 0
M  V30 335 H 25.3329 -5.80104 5.20672 0
M  V30 336 N 29.562 -1.4872 -0.521534 0
M  V30 337 C 30.81 -1.56857 -1.27437 0
M  V30 338 C 31.131 -0.247982 -1.93417 0
M  V30 339 O 30.401 0.731151 -1.81744 0
M  V30 340 H 28.981 -0.577885 -0.473347 0
M  V30 341 H 31.643 -1.85233 -0.606205 0
M  V30 342 H 30.739 -2.35402 -2.0492 0
M  V30 343 N 31.0401 0.771051 -1.3745 0
M  V30 344 C 31.9731 1.89166 -1.27638 0
M  V30 345 C 32.9511 1.61842 -0.156782 0
M  V30 346 O 34.1351 1.85569 -0.331111 0
M  V30 347 C 31.2621 3.24405 -0.973621 0
M  V30 348 C 30.3081 3.70638 -2.1102 0
M  V30 349 S 31.1411 3.84228 -3.73 0
M  V30 350 C 32.2971 5.22313 -3.44876 0
M  V30 351 H 32.5301 1.972 -2.22485 0
M  V30 352 H 30.0631 0.932224 -1.23081 0
M  V30 353 H 32.0211 4.02514 -0.805766 0
M  V30 354 H 30.6821 3.14071 -0.0426279 0
M  V30 355 H 29.8751 4.68685 -1.85338 0
M  V30 356 H 29.4771 2.99632 -2.23822 0
M  V30 357 H 31.7691 6.07505 -2.99908 0
M  V30 358 H 32.7121 5.53008 -4.42253 0
M  V30 359 H 33.1201 4.90284 -2.79789 0
M  V30 360 N 32.5182 1.22032 0.997298 0
M  V30 361 C 33.7662 1.04016 1.73278 0
M  V30 362 C 34.0872 -0.426255 1.90284 0
M  V30 363 O 33.3572 -1.30694 1.45931 0
M  V30 364 H 31.9372 0.381897 0.642 0
M  V30 365 H 34.5992 1.5347 1.20137 0
M  V30 366 H 33.6952 1.51441 2.72896 0
M  V30 367 N 33.9963 -1.19345 1.0293 0
M  V30 368 C 34.9463 -2.20472 0.58104 0
M  V30 369 C 35.9303 -1.56578 -0.370442 0
M  V30 370 O 37.1223 -1.75963 -0.191344 0
M  V30 371 C 34.2513 -3.43236 -0.066306 0
M  V30 372 C 33.3373 -4.14274 0.907642 0
M  V30 373 N 33.7283 -4.61492 2.07023 0
M  V30 374 C 32.0263 -4.39966 0.731177 0
M  V30 375 C 32.7273 -5.1605 2.68454 0
M  V30 376 N 31.7033 -5.06875 1.96414 0
M  V30 377 H 35.5053 -2.54659 1.46717 0
M  V30 378 H 33.0193 -1.35423 0.896345 0
M  V30 379 H 35.0163 -4.14927 -0.405068 0
M  V30 380 H 33.6763 -3.10549 -0.948118 0
M  V30 381 H 34.6873 -4.56304 2.44963 0
M  V30 382 H 31.3643 -4.17377 -0.101507 0
M  V30 383 H 32.7543 -5.6287 3.66915 0
M  V30 384 N 35.4744 -0.807222 -1.35358 0
M  V30 385 C 36.4224 -0.20614 -2.31685 0
M  V30 386 C 37.4164 0.644445 -1.56663 0
M  V30 387 O 38.6224 0.537538 -1.71786 0
M  V30 388 H 34.9974 -0.0479006 -0.750473 0
M  V30 389 H 36.9684 -1.03369 -2.79924 0
M  V30 390 C 35.7174 0.630212 -3.41941 0
M  V30 391 H 35.0404 -0.0149558 -3.99797 0
M  V30 392 H 36.4804 1.01716 -4.11619 0
M  V30 393 C 34.9394 1.79601 -2.85035 0
M  V30 394 O 35.4694 2.89351 -2.78637 0
M  V30 395 N 33.6754 1.60774 -2.42074 0
M  V30 396 H 33.2224 0.715009 -2.47478 0
M  V30 397 H 33.1804 2.38933 -2.04349 0
M  V30 398 N 36.9525 1.47285 -0.560781 0
M  V30 399 C 38.1825 2.06555 -0.0429638 0
M  V30 400 C 38.5905 1.41339 1.25777 0
M  V30 401 O 37.9335 0.505182 1.76617 0
M  V30 402 C 37.9955 3.58827 0.219887 0
M  V30 403 C 37.6595 4.46105 -0.991944 0
M  V30 404 C 38.6565 4.84 -1.89843 0
M  V30 405 C 36.3415 4.87567 -1.20762 0
M  V30 406 C 38.3355 5.6216 -3.00425 0
M  V30 407 C 36.0225 5.65491 -2.31653 0
M  V30 408 C 37.0205 6.02699 -3.21315 0
M  V30 409 O 36.7085 6.79052 -4.30283 0
M  V30 410 H 36.4405 0.674537 -0.0444468 0
M  V30 411 H 38.9945 1.90225 -0.774818 0
M  V30 412 H 37.2245 3.73383 1.00609 0
M  V30 413 H 38.9135 4.00103 0.683522 0
M  V30 414 H 39.6795 4.52564 -1.74387 0
M  V30 415 H 35.5585 4.5807 -0.518893 0
M  V30 416 H 39.1025 5.9112 -3.70436 0
M  V30 417 H 34.9995 5.9634 -2.47081 0
M  V30 418 H 35.7675 6.9745 -4.28376 0
M  V30 419 N 38.4306 0.297415 1.54768 0
M  V30 420 C 39.6606 -0.315165 2.04182 0
M  V30 421 C 40.0686 -1.4834 1.17439 0
M  V30 422 O 39.4116 -1.82695 0.191891 0
M  V30 423 C 39.4736 -0.837583 3.49607 0
M  V30 424 C 39.1376 0.204912 4.5654 0
M  V30 425 C 40.1346 1.03214 5.09552 0
M  V30 426 C 37.8196 0.345578 5.0111 0
M  V30 427 C 39.8136 1.986 6.05671 0
M  V30 428 C 37.5006 1.30289 5.97049 0
M  V30 429 C 38.4986 2.12159 6.49213 0
M  V30 430 O 38.1866 3.06268 7.43273 0
M  V30 431 H 37.9186 -0.0729646 0.672051 0
M  V30 432 H 40.4726 0.433907 2.00765 0
M  V30 433 H 38.7026 -1.63712 3.50336 0
M  V30 434 H 40.3916 -1.36566 3.82236 0
M  V30 435 H 41.1576 0.934312 4.75916 0
M  V30 436 H 37.0366 -0.28171 4.60138 0
M  V30 437 H 40.5806 2.62542 6.46311 0
M  V30 438 H 36.4776 1.40145 6.30103 0
M  V30 439 H 37.2456 3.01205 7.61064 0
M  V30 440 N 39.9087 -1.5758 0.0250728 0
M  V30 441 C 41.1567 -1.91255 -0.653151 0
M  V30 442 C 41.4777 -0.901691 -1.729 0
M  V30 443 O 40.7477 0.0573785 -1.95816 0
M  V30 444 H 39.3277 -0.705942 -0.244243 0
M  V30 445 H 41.9897 -1.94767 0.0719209 0
M  V30 446 H 41.0857 -2.91752 -1.10847 0
M  V30 447 N 41.3868 0.248026 -1.55636 0
M  V30 448 C 42.2968 1.32859 -1.93354 0
M  V30 449 C 43.3128 1.52719 -0.833838 0
M  V30 450 O 44.4888 1.66363 -1.13513 0
M  V30 451 C 41.5538 2.66337 -2.21958 0
M  V30 452 C 40.6148 2.55008 -3.45354 0
M  V30 453 C 39.8478 3.82121 -3.72584 0
M  V30 454 O 40.0708 4.83951 -3.01907 0
M  V30 455 O 39.0048 3.80822 -4.6611 0
M  V30 456 H 42.8308 1.03862 -2.85388 0
M  V30 457 H 40.4158 0.448686 -1.42503 0
M  V30 458 H 42.2978 3.45216 -2.4167 0
M  V30 459 H 40.9728 2.95068 -1.33103 0
M  V30 460 H 39.8798 1.7442 -3.30951 0
M  V30 461 H 41.2128 2.31222 -4.34508 0
M  V30 462 N 42.8649 1.48995 0.513639 0
M  V30 463 C 44.2759 1.5119 1.09537 0
M  V30 464 C 44.6269 0.290906 1.94031 0
M  V30 465 O 43.7519 -0.60049 2.07902 0
M  V30 466 C 44.3469 2.73964 1.99322 0
M  V30 467 C 42.9059 2.78978 2.52682 0
M  V30 468 C 42.0529 2.44934 1.30009 0
M  V30 469 H 45.0039 1.55875 0.298125 0
M  V30 470 H 45.0249 2.53409 2.83838 0
M  V30 471 H 44.5369 3.62813 1.37799 0
M  V30 472 H 42.6379 1.94378 3.1788 0
M  V30 473 H 42.7509 3.8083 2.90698 0
M  V30 474 H 41.1149 1.9644 1.62122 0
M  V30 475 H 41.8979 3.36043 0.702131 0
M  V30 476 N 44.343 -0.763751 1.37857 0
M  V30 477 C 45.306 -1.85889 1.34081 0
M  V30 478 C 46.306 -1.58949 0.243277 0
M  V30 479 O 47.496 -1.66882 0.499589 0
M  V30 480 C 44.628 -3.23176 1.08489 0
M  V30 481 H 45.821 -1.90648 2.31502 0
M  V30 482 H 43.374 -0.964367 1.23003 0
M  V30 483 H 44.109 -3.24091 0.116318 0
M  V30 484 H 43.894 -3.44124 1.8794 0
M  V30 485 H 45.384 -4.03254 1.08517 0
M  V30 486 N 45.8211 -1.22559 -0.990812 0
M  V30 487 C 47.0671 -1.06303 -1.73411 0
M  V30 488 C 47.4221 0.397442 -1.8825 0
M  V30 489 O 46.7151 1.29062 -1.41611 0
M  V30 490 C 46.9091 -1.71011 -3.13831 0
M  V30 491 C 46.7381 -3.232 -3.12685 0
M  V30 492 C 45.5081 -3.92314 -3.18461 0
M  V30 493 C 47.7061 -4.20107 -2.96673 0
M  V30 494 N 45.6881 -5.31571 -3.07091 0
M  V30 495 C 47.0591 -5.46208 -2.93354 0
M  V30 496 C 49.1141 -4.10973 -2.8108 0
M  V30 497 C 47.8171 -6.64225 -2.76039 0
M  V30 498 C 49.8431 -5.28642 -2.65126 0
M  V30 499 C 49.2051 -6.53663 -2.62496 0
M  V30 500 H 45.3041 -0.443441 -0.644115 0
M  V30 501 H 47.8881 -1.55131 -1.17654 0
M  V30 502 H 46.0591 -1.2473 -3.67827 0
M  V30 503 H 47.7911 -1.47828 -3.76735 0
M  V30 504 H 44.5461 -3.43326 -3.26227 0
M  V30 505 H 44.9701 -6.0455 -3.0471 0
M  V30 506 H 49.6121 -3.15098 -2.8191 0
M  V30 507 H 47.3301 -7.60246 -2.73954 0
M  V30 508 H 50.9161 -5.23407 -2.54039 0
M  V30 509 H 49.7961 -7.43182 -2.50302 0
M  V30 510 N 47.2992 1.18797 -1.03562 0
M  V30 511 C 48.7102 1.70322 -0.764676 0
M  V30 512 C 49.0612 1.82708 0.714996 0
M  V30 513 O 48.1862 1.50299 1.55689 0
M  V30 514 C 48.7812 3.09356 -1.38145 0
M  V30 515 C 47.3402 3.58114 -1.15895 0
M  V30 516 C 46.4872 2.34798 -1.4753 0
M  V30 517 H 49.4382 1.03543 -1.20268 0
M  V30 518 H 49.4592 3.72378 -0.781977 0
M  V30 519 H 48.9712 3.00309 -2.45837 0
M  V30 520 H 47.0722 3.72464 -0.100544 0
M  V30 521 H 47.1852 4.4184 -1.8524 0
M  V30 522 H 45.5492 2.38464 -0.894829 0
M  V30 523 H 46.3322 2.28375 -2.56319 0
M  V30 524 N 48.7773 0.814389 1.34928 0
M  V30 525 C 49.7253 0.218424 2.31572 0
M  V30 526 C 50.7193 -0.636128 1.57002 0
M  V30 527 O 51.9253 -0.52842 1.72069 0
M  V30 528 H 48.3003 0.0518799 0.750208 0
M  V30 529 H 50.2713 1.04852 2.79372 0
M  V30 530 C 49.0203 -0.61207 3.4227 0
M  V30 531 H 48.3433 0.0361578 3.99784 0
M  V30 532 H 49.7833 -0.995317 4.12152 0
M  V30 533 C 48.2423 -1.78087 2.85984 0
M  V30 534 O 48.7723 -2.8787 2.80168 0
M  V30 535 N 46.9783 -1.59488 2.42924 0
M  V30 536 H 46.5253 -0.701874 2.47854 0
M  V30 537 H 46.4833 -2.37846 2.05613 0
M  V30 538 N 50.2554 -1.46986 0.568584 0
M  V30 539 C 51.5324 -1.95592 -0.0174074 0
M  V30 540 C 51.9124 -1.51124 -1.47393 0
M  V30 541 O 51.2604 -0.755329 -2.15655 0
M  V30 542 C 51.4704 -3.48719 0.139913 0
M  V30 543 C 52.8184 -4.246 0.000426376 0
M  V30 544 O 53.8424 -3.56135 0.0680316 0
M  V30 545 O 52.7014 -5.46302 -0.146988 0
M  V30 546 H 49.7954 -0.82498 -0.0577599 0
M  V30 547 H 52.3414 -1.57335 0.635909 0
M  V30 548 H 51.1134 -3.73927 1.15301 0
M  V30 549 H 50.7364 -3.93771 -0.550491 0
M  V30 550 N 51.7335 -0.305618 -1.54608 0
M  V30 551 C 52.6635 0.561482 -2.26649 0
M  V30 552 C 53.6445 1.13415 -1.26772 0
M  V30 553 O 54.8295 1.16262 -1.55553 0
M  V30 554 C 51.9595 1.73122 -3.01075 0
M  V30 555 C 50.9135 1.2887 -4.08138 0
M  V30 556 C 50.2395 2.54396 -4.70305 0
M  V30 557 C 51.5395 0.416578 -5.20636 0
M  V30 558 H 53.2335 -0.0393902 -2.99374 0
M  V30 559 H 50.7795 -0.020385 -1.43986 0
M  V30 560 H 52.7325 2.34396 -3.50195 0
M  V30 561 H 51.4565 2.3584 -2.25936 0
M  V30 562 H 50.1155 0.698991 -3.59875 0
M  V30 563 H 49.7635 3.15439 -3.918 0
M  V30 564 H 49.4635 2.25486 -5.42614 0
M  V30 565 H 50.9875 3.16464 -5.2219 0
M  V30 566 H 52.4015 0.935116 -5.65622 0
M  V30 567 H 50.7985 0.221046 -5.99693 0
M  V30 568 H 51.8685 -0.557162 -4.81688 0
M  V30 569 N 53.2116 1.57565 -0.0334293 0
M  V30 570 C 54.1416 2.13511 0.945265 0
M  V30 571 C 55.1226 1.05231 1.33643 0
M  V30 572 O 56.3076 1.33084 1.41429 0
M  V30 573 C 53.4376 2.6657 2.22616 0
M  V30 574 C 52.3916 3.79676 1.97561 0
M  V30 575 C 51.7176 4.1918 3.31952 0
M  V30 576 C 53.0176 5.0557 1.31135 0
M  V30 577 H 54.7116 2.95538 0.479325 0
M  V30 578 H 52.2576 1.42166 0.229115 0
M  V30 579 H 54.2106 3.04344 2.91466 0
M  V30 580 H 52.9346 1.8171 2.71384 0
M  V30 581 H 51.5936 3.42347 1.31127 0
M  V30 582 H 51.2416 3.31296 3.78487 0
M  V30 583 H 50.9416 4.95402 3.15992 0
M  V30 584 H 52.4656 4.59541 4.02063 0
M  V30 585 H 53.8796 5.40903 1.89992 0
M  V30 586 H 52.2766 5.86818 1.25559 0
M  V30 587 H 53.3466 4.84062 0.284894 0
M  V30 588 N 54.6897 -0.239769 1.55765 0
M  V30 589 C 55.9197 -0.982743 1.8173 0
M  V30 590 C 56.3277 -1.7917 0.607835 0
M  V30 591 O 55.6707 -1.78525 -0.432973 0
M  V30 592 C 55.7327 -1.96332 3.01155 0
M  V30 593 C 55.3967 -1.34062 4.36894 0
M  V30 594 C 56.3937 -0.739539 5.14613 0
M  V30 595 C 54.0787 -1.35784 4.83599 0
M  V30 596 C 56.0727 -0.163989 6.37189 0
M  V30 597 C 53.7597 -0.778441 6.06122 0
M  V30 598 C 54.7577 -0.182548 6.82756 0
M  V30 599 O 54.4457 0.387887 8.02964 0
M  V30 600 H 54.1777 -0.294481 0.608487 0
M  V30 601 H 56.7317 -0.26572 2.03674 0
M  V30 602 H 54.9617 -2.71884 2.74984 0
M  V30 603 H 56.6507 -2.57032 3.14149 0
M  V30 604 H 57.4167 -0.718687 4.79646 0
M  V30 605 H 53.2957 -1.81105 4.23936 0
M  V30 606 H 56.8397 0.301753 6.96947 0
M  V30 607 H 52.7367 -0.796645 6.40565 0
M  V30 608 H 53.5047 0.28044 8.18019 0
M  V30 609 N 56.1678 -1.49265 -0.50573 0
M  V30 610 C 57.4138 -1.58748 -1.26202 0
M  V30 611 C 57.7468 -0.271227 -1.92297 0
M  V30 612 O 57.0218 0.724831 -1.80489 0
M  V30 613 C 57.3048 -2.74332 -2.33268 0
M  V30 614 C 57.1578 -4.15737 -1.71705 0
M  V30 615 C 58.4768 -2.85576 -3.34865 0
M  V30 616 H 55.5958 -0.577826 -0.457478 0
M  V30 617 H 58.2378 -1.81532 -0.560897 0
M  V30 618 H 56.3878 -2.55036 -2.93068 0
M  V30 619 H 58.0598 -4.46537 -1.15769 0
M  V30 620 H 56.3028 -4.21605 -1.02135 0
M  V30 621 H 56.9738 -4.92477 -2.49341 0
M  V30 622 H 59.4498 -3.03127 -2.8505 0
M  V30 623 H 58.3258 -3.68135 -4.07146 0
M  V30 624 H 58.5868 -1.94732 -3.96903 0
M  V30 625 N 57.6459 0.756429 -1.3826 0
M  V30 626 C 58.8929 1.51547 -1.34312 0
M  V30 627 C 59.2209 1.94382 0.0677144 0
M  V30 628 O 58.4759 1.65514 1.04421 0
M  V30 629 C 58.7749 2.78313 -2.24224 0
M  V30 630 C 58.4409 2.54455 -3.72241 0
M  V30 631 C 57.1029 2.47657 -4.12576 0
M  V30 632 C 59.4549 2.3354 -4.65949 0
M  V30 633 C 56.7829 2.17956 -5.44713 0
M  V30 634 C 59.1349 2.05359 -5.9834 0
M  V30 635 C 57.7989 1.97016 -6.37762 0
M  V30 636 H 57.0689 0.55455 -0.491482 0
M  V30 637 H 59.7159 0.870039 -1.70595 0
M  V30 638 H 58.0209 3.47492 -1.80987 0
M  V30 639 H 59.7179 3.36259 -2.18474 0
M  V30 640 H 56.3079 2.60616 -3.40261 0
M  V30 641 H 60.4919 2.37772 -4.35635 0
M  V30 642 H 55.7479 2.10003 -5.74203 0
M  V30 643 H 59.9219 1.88179 -6.70494 0
M  V30 644 H 57.5489 1.73766 -7.40074 0
M  V30 645 N 59.124 1.23083 0.984299 0
M  V30 646 C 60.535 1.05609 1.5396 0
M  V30 647 C 60.886 -0.377793 1.92528 0
M  V30 648 O 60.011 -1.26398 1.75649 0
M  V30 649 C 60.606 1.91087 2.7977 0
M  V30 650 C 59.165 1.77885 3.31713 0
M  V30 651 C 58.312 1.87028 2.04733 0
M  V30 652 H 61.263 1.36802 0.804419 0
M  V30 653 H 61.284 1.43336 3.5247 0
M  V30 654 H 60.796 2.9544 2.51668 0
M  V30 655 H 58.897 0.762995 3.64704 0
M  V30 656 H 59.01 2.61047 4.01735 0
M  V30 657 H 57.374 1.30565 2.18689 0
M  V30 658 H 58.157 2.92929 1.79017 0
M  V30 659 N 60.6021 -1.18246 1.0419 0
M  V30 660 C 61.8481 -1.88536 0.747122 0
M  V30 661 C 62.1811 -1.80223 -0.723409 0
M  V30 662 O 61.4561 -1.20337 -1.52804 0
M  V30 663 C 61.7391 -3.38968 1.21544 0
M  V30 664 C 61.5921 -3.56084 2.74816 0
M  V30 665 C 62.9111 -4.32648 0.806482 0
M  V30 666 H 60.0301 -0.684619 0.272883 0
M  V30 667 H 62.6721 -1.39113 1.29413 0
M  V30 668 H 60.8221 -3.8119 0.750081 0
M  V30 669 H 62.4941 -3.22946 3.29399 0
M  V30 670 H 60.7371 -2.98699 3.14582 0
M  V30 671 H 61.4081 -4.61639 3.02644 0
M  V30 672 H 63.8841 -3.98211 1.20695 0
M  V30 673 H 62.7601 -5.36462 1.1619 0
M  V30 674 H 63.0211 -4.41146 -0.29029 0
M  V30 675 N 62.0802 -0.821533 -1.34494 0
M  V30 676 C 63.3262 -0.409552 -1.98622 0
M  V30 677 C 63.6592 1.0244 -1.64984 0
M  V30 678 O 62.9342 1.71325 -0.920758 0
M  V30 679 C 63.2172 -0.610458 -3.54888 0
M  V30 680 C 63.0702 -2.09043 -3.98273 0
M  V30 681 C 64.3892 -0.0455379 -4.40076 0
M  V30 682 H 61.5082 -0.15028 -0.721516 0
M  V30 683 H 64.1502 -1.03384 -1.59411 0
M  V30 684 H 62.3002 -0.079044 -3.8842 0
M  V30 685 H 63.9722 -2.68537 -3.75081 0
M  V30 686 H 62.2152 -2.58139 -3.48635 0
M  V30 687 H 62.8862 -2.18182 -5.07051 0
M  V30 688 H 65.3622 -0.499557 -4.1309 0
M  V30 689 H 64.2382 -0.215922 -5.48475 0
M  V30 690 H 64.4992 1.04939 -4.29465 0
M  V30 691 N 63.5583 1.46682 -0.576371 0
M  V30 692 C 64.8073 2.01619 -0.0572825 0
M  V30 693 C 65.1203 1.45417 1.30818 0
M  V30 694 O 66.3263 1.92133 1.91825 0
M  V30 695 C 64.7823 3.59863 -0.0518371 0
M  V30 696 C 64.3903 4.25059 -1.41523 0
M  V30 697 C 66.1343 4.2248 0.413639 0
M  V30 698 C 64.0413 5.75364 -1.36785 0
M  V30 699 H 62.9713 0.753794 -0.0176448 0
M  V30 700 H 65.6223 1.68481 -0.727076 0
M  V30 701 H 64.0043 3.90048 0.683994 0
M  V30 702 H 65.1783 4.06491 -2.17029 0
M  V30 703 H 63.4933 3.7451 -1.8202 0
M  V30 704 H 66.0903 5.3265 0.467779 0
M  V30 705 H 66.4333 3.90976 1.42982 0
M  V30 706 H 66.9663 3.96897 -0.267929 0
M  V30 707 H 63.7053 6.11518 -2.36063 0
M  V30 708 H 63.2253 5.96214 -0.654895 0
M  V30 709 H 64.9043 6.37955 -1.07805 0
M  V30 710 N 65.0364 0.313813 1.54444 0
M  V30 711 C 65.9694 -0.598866 2.20202 0
M  V30 712 C 66.9474 -1.12318 1.17573 0
M  V30 713 O 68.1314 -1.18899 1.46271 0
M  V30 714 C 65.2584 -1.82071 2.85601 0
M  V30 715 C 64.3044 -1.42851 4.01865 0
M  V30 716 S 65.1374 -0.473512 5.33402 0
M  V30 717 C 66.2934 -1.70286 6.0229 0
M  V30 718 H 66.5264 -0.0402532 2.97273 0
M  V30 719 H 64.0594 0.0979165 1.54089 0
M  V30 720 H 66.0174 -2.52184 3.23904 0
M  V30 721 H 64.6784 -2.3505 2.08351 0
M  V30 722 H 63.8714 -2.33871 4.46453 0
M  V30 723 H 63.4734 -0.807198 3.65185 0
M  V30 724 H 65.7654 -2.64168 6.23876 0
M  V30 725 H 66.7084 -1.29932 6.96077 0
M  V30 726 H 67.1164 -1.88541 5.32083 0
M  V30 727 N 66.5145 -1.57545 0.0417849 0
M  V30 728 C 67.7625 -1.91937 -0.632829 0
M  V30 729 C 68.0835 -0.919978 -1.71934 0
M  V30 730 O 67.3535 0.0366064 -1.95866 0
M  V30 731 H 65.9335 -0.708493 -0.236742 0
M  V30 732 H 68.5955 -1.9468 0.0925745 0
M  V30 733 H 67.6915 -2.92912 -1.07746 0
M  V30 734 N 67.9926 0.231505 -1.5589 0
M  V30 735 C 69.2206 0.974505 -1.82513 0
M  V30 736 C 69.6356 1.78344 -0.619591 0
M  V30 737 O 68.9926 1.77792 0.411848 0
M  V30 738 C 69.0436 1.90007 -3.07538 0
M  V30 739 O 68.7646 1.12385 -4.2344 0
M  V30 740 C 70.2656 2.75779 -3.47075 0
M  V30 741 H 67.4856 0.286065 -0.606966 0
M  V30 742 H 70.0296 0.249739 -2.02969 0
M  V30 743 H 68.1846 2.57891 -2.89086 0
M  V30 744 H 68.5986 1.75125 -4.944 0
M  V30 745 H 70.0726 3.36443 -4.37619 0
M  V30 746 H 70.5496 3.47672 -2.68367 0
M  V30 747 H 71.1556 2.13323 -3.67931 0
M  V30 748 N 69.4707 1.49531 0.497807 0
M  V30 749 C 70.7177 1.59179 1.25173 0
M  V30 750 C 71.0457 0.279932 1.92475 0
M  V30 751 O 70.3007 -0.732383 1.81479 0
M  V30 752 C 70.5997 2.70252 2.33878 0
M  V30 753 C 70.2657 4.11644 1.84012 0
M  V30 754 C 68.9277 4.50121 1.70132 0
M  V30 755 C 71.2797 5.00121 1.46725 0
M  V30 756 C 68.6077 5.74845 1.17348 0
M  V30 757 C 70.9597 6.25366 0.95392 0
M  V30 758 C 69.6237 6.6267 0.801538 0
M  V30 759 H 68.8937 0.582478 0.45804 0
M  V30 760 H 71.5407 1.83373 0.551948 0
M  V30 761 H 69.8457 2.40041 3.09657 0
M  V30 762 H 71.5427 2.74925 2.9192 0
M  V30 763 H 68.1327 3.81274 1.95775 0
M  V30 764 H 72.3167 4.71048 1.56294 0
M  V30 765 H 67.5727 6.02444 1.04264 0
M  V30 766 H 71.7467 6.93301 0.656225 0
M  V30 767 H 69.3737 7.59197 0.390351 0
M  V30 768 N 70.9488 -0.749086 1.3866 0
M  V30 769 C 71.9118 -1.84457 1.36045 0
M  V30 770 C 72.9118 -1.58682 0.260122 0
M  V30 771 O 74.1018 -1.66343 0.517261 0
M  V30 772 C 71.2338 -3.22008 1.11911 0
M  V30 773 H 72.4268 -1.88182 2.33512 0
M  V30 774 H 69.9798 -0.951266 1.24019 0
M  V30 775 H 70.7148 -3.2395 0.150686 0
M  V30 776 H 70.4998 -3.42111 1.91579 0
M  V30 777 H 71.9898 -4.0208 1.12788 0
M  V30 778 N 72.4269 -1.23603 -0.977757 0
M  V30 779 C 73.6669 -1.08148 -1.73446 0
M  V30 780 C 74.0309 0.374785 -1.88307 0
M  V30 781 O 75.2319 0.650588 -2.60808 0
M  V30 782 C 73.5029 -1.78991 -3.0935 0
M  V30 783 S 75.0619 -1.79141 -4.00567 0
M  V30 784 H 71.8799 -0.386987 -0.596458 0
M  V30 785 H 74.4819 -1.5678 -1.16792 0
M  V30 786 H 73.1859 -2.8408 -2.96187 0
M  V30 787 H 72.7169 -1.30651 -3.71071 0
M  V30 788 H 74.7319 -0.851892 -4.88833 0
M  V30 789 N 73.905 1.17692 -1.04816 0
M  V30 790 C 75.154 1.87192 -0.751132 0
M  V30 791 C 75.467 1.8169 0.724441 0
M  V30 792 O 76.673 2.46625 1.13527 0
M  V30 793 C 75.129 3.35857 -1.29338 0
M  V30 794 C 74.737 3.4987 -2.79812 0
M  V30 795 C 76.481 4.10709 -1.07322 0
M  V30 796 C 74.388 4.92536 -3.27356 0
M  V30 797 H 73.318 0.701162 -0.277288 0
M  V30 798 H 75.969 1.32932 -1.26496 0
M  V30 799 H 74.351 3.89631 -0.707376 0
M  V30 800 H 75.525 3.06332 -3.44235 0
M  V30 801 H 73.84 2.88433 -3.00325 0
M  V30 802 H 76.437 5.15952 -1.4035 0
M  V30 803 H 76.78 4.16299 -0.0108001 0
M  V30 804 H 77.313 3.6313 -1.62423 0
M  V30 805 H 74.052 4.92119 -4.33012 0
M  V30 806 H 73.572 5.3676 -2.67673 0
M  V30 807 H 75.251 5.61288 -3.21815 0
M  V30 808 N 75.3831 0.828654 1.34056 0
M  V30 809 C 76.6291 0.42008 1.98402 0
M  V30 810 C 76.9621 -1.01564 1.65525 0
M  V30 811 O 76.2371 -1.70834 0.929831 0
M  V30 812 C 76.5201 0.62927 3.54559 0
M  V30 813 C 76.3731 2.11152 3.97159 0
M  V30 814 C 77.6921 0.0688756 4.40046 0
M  V30 815 H 74.8111 0.154104 0.720709 0
M  V30 816 H 77.4531 1.04228 1.5886 0
M  V30 817 H 75.6031 0.0996418 3.88372 0
M  V30 818 H 77.2751 2.70522 3.73651 0
M  V30 819 H 75.5181 2.59985 3.47261 0
M  V30 820 H 76.1891 2.20868 5.05887 0
M  V30 821 H 78.6651 0.521458 4.1282 0
M  V30 822 H 77.5411 0.245006 5.48353 0
M  V30 823 H 77.8021 -1.0266 4.30015 0
M  V30 824 N 76.8612 -1.46375 0.584142 0
M  V30 825 C 77.8242 -2.28784 -0.138108 0
M  V30 826 C 78.8242 -1.38471 -0.817462 0
M  V30 827 O 80.0142 -1.60833 -0.669199 0
M  V30 828 C 77.1462 -3.18892 -1.20503 0
M  V30 829 H 78.3392 -2.94117 0.586127 0
M  V30 830 H 75.8922 -1.52509 0.342171 0
M  V30 831 H 76.6272 -2.58309 -1.96079 0
M  V30 832 H 76.4122 -3.85388 -0.722384 0
M  V30 833 H 77.9022 -3.80914 -1.71155 0
M  V30 834 N 78.3393 -0.321999 -1.54275 0
M  V30 835 C 79.2693 0.537411 -2.27231 0
M  V30 836 C 80.2503 1.12064 -1.27968 0
M  V30 837 O 81.4353 1.14606 -1.56777 0
M  V30 838 C 78.5653 1.69919 -3.02894 0
M  V30 839 C 77.5193 1.24534 -4.09482 0
M  V30 840 C 76.8453 2.49394 -4.72977 0
M  V30 841 C 78.1453 0.361335 -5.21049 0
M  V30 842 H 79.8393 -0.0711406 -2.99315 0
M  V30 843 H 77.3853 -0.0356555 -1.43956 0
M  V30 844 H 79.3383 2.30668 -3.52662 0
M  V30 845 H 78.0623 2.33431 -2.28424 0
M  V30 846 H 76.7213 0.660782 -3.60596 0
M  V30 847 H 76.3693 3.11265 -3.95124 0
M  V30 848 H 76.0693 2.19718 -5.44975 0
M  V30 849 H 77.5933 3.10908 -5.25517 0
M  V30 850 H 79.0073 0.875072 -5.66582 0
M  V30 851 H 77.4043 0.157428 -5.99893 0
M  V30 852 H 78.4743 -0.60822 -4.8107 0
M  V30 853 N 79.8174 1.5752 -0.0501392 0
M  V30 854 C 81.0424 1.97376 0.636997 0
M  V30 855 C 81.4674 0.927466 1.63645 0
M  V30 856 O 80.8254 -0.10941 1.8097 0
M  V30 857 C 80.8734 3.36304 1.30123 0
M  V30 858 O 79.9774 3.34156 2.41689 0
M  V30 859 H 79.3184 0.642998 0.165679 0
M  V30 860 H 81.8484 2.04258 -0.118233 0
M  V30 861 H 81.8584 3.73008 1.65315 0
M  V30 862 H 80.5334 4.11993 0.568746 0
M  V30 863 H 79.1104 3.09196 2.08451 0
M  V30 864 N 81.2955 -0.223234 1.56011 0
M  V30 865 C 82.5415 -0.949279 1.79211 0
M  V30 866 C 82.8745 -1.84054 0.619494 0
M  V30 867 O 82.1495 -1.90726 -0.381317 0
M  V30 868 C 82.4325 -1.78965 3.12479 0
M  V30 869 C 82.2855 -0.924997 4.40186 0
M  V30 870 C 83.6045 -2.76774 3.42175 0
M  V30 871 H 80.7235 -0.343676 0.651963 0
M  V30 872 H 83.3655 -0.218253 1.88742 0
M  V30 873 H 81.5155 -2.41291 3.04485 0
M  V30 874 H 83.1875 -0.318615 4.60198 0
M  V30 875 H 81.4305 -0.230344 4.33188 0
M  V30 876 H 82.1015 -1.54735 5.29869 0
M  V30 877 H 84.5775 -2.24584 3.50287 0
M  V30 878 H 83.4535 -3.32678 4.36597 0
M  V30 879 H 83.7145 -3.54429 2.64258 0
M  V30 880 N 82.7736 -1.49793 -0.48987 0
M  V30 881 C 83.7036 -1.70201 -1.59856 0
M  V30 882 C 84.6846 -0.55076 -1.60937 0
M  V30 883 O 85.8696 -0.787841 -1.77501 0
M  V30 884 C 82.9996 -1.77882 -2.98287 0
M  V30 885 C 81.9536 -2.92907 -3.12073 0
M  V30 886 C 81.2796 -2.85712 -4.51965 0
M  V30 887 C 82.5796 -4.3369 -2.91051 0
M  V30 888 H 84.2736 -2.63025 -1.43032 0
M  V30 889 H 81.8196 -1.26574 -0.686664 0
M  V30 890 H 83.7726 -1.90744 -3.75759 0
M  V30 891 H 82.4966 -0.816653 -3.16225 0
M  V30 892 H 81.1556 -2.79665 -2.37029 0
M  V30 893 H 80.8036 -1.8738 -4.66795 0
M  V30 894 H 80.5036 -3.62921 -4.62128 0
M  V30 895 H 82.0276 -3.00598 -5.31482 0
M  V30 896 H 83.4416 -4.47555 -3.58284 0
M  V30 897 H 81.8386 -5.12205 -3.12675 0
M  V30 898 H 82.9086 -4.47362 -1.87071 0
M  V30 899 N 84.2517 0.741722 -1.39055 0
M  V30 900 C 85.5287 1.49252 -1.26425 0
M  V30 901 C 85.9087 2.10705 0.129144 0
M  V30 902 O 85.2567 1.98045 1.13976 0
M  V30 903 C 85.4667 2.54934 -2.38347 0
M  V30 904 C 86.8147 3.21506 -2.77343 0
M  V30 905 O 87.8387 2.65245 -2.37747 0
M  V30 906 O 86.6977 4.23294 -3.45665 0
M  V30 907 H 83.7917 0.662451 -0.495064 0
M  V30 908 H 86.3377 0.776121 -1.50912 0
M  V30 909 H 85.1097 2.07857 -3.31529 0
M  V30 910 H 84.7327 3.34141 -2.15489 0
M  V30 911 N 85.7298 1.2412 0.971189 0
M  V30 912 C 87.1408 1.07236 1.52831 0
M  V30 913 C 87.4918 -0.357352 1.92918 0
M  V30 914 O 86.6168 -1.24528 1.76979 0
M  V30 915 C 87.2118 1.94043 2.77728 0
M  V30 916 C 85.7708 1.81394 3.29808 0
M  V30 917 C 84.9178 1.89189 2.02738 0
M  V30 918 H 87.8688 1.37648 0.789864 0
M  V30 919 H 87.8898 1.47066 3.5093 0
M  V30 920 H 87.4018 2.98093 2.4852 0
M  V30 921 H 85.5028 0.801634 3.63874 0
M  V30 922 H 85.6158 2.65294 3.98944 0
M  V30 923 H 83.9798 1.32877 2.17292 0
M  V30 924 H 84.7628 2.94812 1.759 0
M  V30 925 N 87.2079 -1.17134 1.05439 0
M  V30 926 C 88.1709 -2.19439 0.661764 0
M  V30 927 C 89.1709 -1.58199 -0.288042 0
M  V30 928 O 90.3609 -1.74053 -0.0715803 0
M  V30 929 C 87.4929 -3.40889 -0.0276209 0
M  V30 930 H 88.6859 -2.55688 1.56728 0
M  V30 931 H 86.2389 -1.31259 0.848567 0
M  V30 932 H 86.9739 -3.10187 -0.94629 0
M  V30 933 H 86.7589 -3.86586 0.655238 0
M  V30 934 H 88.2489 -4.16603 -0.288342 0
M  V30 935 N 88.686 -0.835752 -1.33615 0
M  V30 936 C 89.619 -0.211815 -2.27215 0
M  V30 937 C 90.597 0.639249 -1.49507 0
M  V30 938 O 91.781 0.600193 -1.78689 0
M  V30 939 C 88.908 0.702893 -3.31326 0
M  V30 940 C 87.954 -0.0723049 -4.26439 0
M  V30 941 S 88.787 -1.42811 -5.16106 0
M  V30 942 C 89.943 -0.518613 -6.23748 0
M  V30 943 H 90.176 -1.00533 -2.79786 0
M  V30 944 H 87.709 -0.632336 -1.40858 0
M  V30 945 H 89.667 1.22505 -3.91794 0
M  V30 946 H 88.328 1.47004 -2.77576 0
M  V30 947 H 87.521 0.62359 -5.00127 0
M  V30 948 H 87.123 -0.525424 -3.70291 0
M  V30 949 H 89.415 0.284778 -6.76901 0
M  V30 950 H 90.358 -1.22556 -6.97413 0
M  V30 951 H 90.766 -0.101344 -5.64409 0
M  V30 952 N 90.1641 1.46063 -0.591896 0
M  V30 953 C 91.4101 2.02638 -0.0811191 0
M  V30 954 C 91.7431 1.4613 1.27905 0
M  V30 955 O 91.0181 0.629908 1.84017 0
M  V30 956 C 91.3011 3.60091 -0.0252436 0
M  V30 957 C 91.1541 4.26965 -1.41496 0
M  V30 958 C 92.4731 4.3496 0.670685 0
M  V30 959 H 89.5921 0.73635 -0.0309524 0
M  V30 960 H 92.2341 1.741 -0.760859 0
M  V30 961 H 90.3841 3.84535 0.553624 0
M  V30 962 H 92.0561 4.13756 -2.0397 0
M  V30 963 H 90.2991 3.85971 -1.98011 0
M  V30 964 H 90.9701 5.35781 -1.32825 0
M  V30 965 H 93.4461 4.15716 0.178825 0
M  V30 966 H 92.3221 5.44686 0.678837 0
M  V30 967 H 92.5831 4.06685 1.73379 0
M  V30 968 N 91.6422 0.330177 1.54103 0
M  V30 969 C 92.8902 -0.269871 2.0029 0
M  V30 970 C 93.2112 -1.52133 1.21986 0
M  V30 971 O 92.4812 -1.93212 0.323438 0
M  V30 972 H 91.0612 -0.10271 0.739905 0
M  V30 973 H 93.7232 0.448249 1.89675 0
M  V30 974 H 92.8192 -0.52166 3.07709 0
M  V30 975 N 93.1203 -1.57491 0.0584922 0
M  V30 976 C 94.0303 -2.15448 -0.928414 0
M  V30 977 C 95.0463 -1.11416 -1.3365 0
M  V30 978 O 96.2223 -1.4362 -1.41193 0
M  V30 979 C 93.2873 -2.69393 -2.18239 0
M  V30 980 C 92.3483 -3.88249 -1.83196 0
M  V30 981 C 91.5813 -4.39613 -3.02616 0
M  V30 982 O 91.8043 -3.90023 -4.16219 0
M  V30 983 O 90.7383 -5.31111 -2.83204 0
M  V30 984 H 94.5643 -3.00112 -0.465483 0
M  V30 985 H 92.1493 -1.48499 -0.163826 0
M  V30 986 H 94.0313 -3.04026 -2.91798 0
M  V30 987 H 92.7063 -1.87796 -2.63656 0
M  V30 988 H 91.6133 -3.58492 -1.06931 0
M  V30 989 H 92.9463 -4.71098 -1.42573 0
M  V30 990 N 94.5984 0.214957 -1.56127 0
M  V30 991 C 96.0094 0.781386 -1.69562 0
M  V30 992 C 96.3604 1.84707 -0.66165 0
M  V30 993 O 95.4854 2.156 0.185927 0
M  V30 994 C 96.0804 1.42411 -3.07416 0
M  V30 995 C 94.6394 1.93786 -3.22683 0
M  V30 996 C 93.7864 0.800438 -2.65496 0
M  V30 997 H 96.7374 -0.00980633 -1.58697 0
M  V30 998 H 96.7584 2.29309 -3.0364 0
M  V30 999 H 96.2704 0.64826 -3.82648 0
M  V30 1000 H 94.3714 2.74152 -2.52332 0
M  V30 1001 H 94.4844 2.1133 -4.29973 0
M  V30 1002 H 92.8484 1.2095 -2.2415 0
M  V30 1003 H 93.6314 0.0371471 -3.4328 0
M  V30 1004 N 96.0765 1.50051 0.48192 0
M  V30 1005 C 97.0395 1.67584 1.5636 0
M  V30 1006 C 98.0395 0.546894 1.51214 0
M  V30 1007 O 99.2295 0.813725 1.54026 0
M  V30 1008 C 96.3615 1.691 2.96003 0
M  V30 1009 H 97.5545 2.64078 1.42136 0
M  V30 1010 H 95.1075 1.39369 0.707533 0
M  V30 1011 H 95.8425 0.742589 3.15684 0
M  V30 1012 H 95.6275 2.51105 3.01146 0
M  V30 1013 H 97.1175 1.84656 3.74556 0
M  V30 1014 N 97.5546 -0.734337 1.39446 0
M  V30 1015 C 98.8316 -1.48579 1.27215 0
M  V30 1016 C 99.2116 -2.1077 -0.117968 0
M  V30 1017 O 98.5596 -1.98646 -1.12924 0
M  V30 1018 C 98.7696 -2.53667 2.39696 0
M  V30 1019 C 100.118 -3.20031 2.79044 0
M  V30 1020 O 101.142 -2.6398 2.39151 0
M  V30 1021 O 100.001 -4.21455 3.47905 0
M  V30 1022 H 97.0946 -0.659816 0.49857 0
M  V30 1023 H 99.6406 -0.768106 1.51322 0
M  V30 1024 H 98.4126 -2.06096 3.32626 0
M  V30 1025 H 98.0356 -3.32994 2.17258 0
M  V30 1026 N 99.0327 -1.24633 -0.964593 0
M  V30 1027 C 100.444 -1.08045 -1.5226 0
M  V30 1028 C 100.795 0.347116 -1.93105 0
M  V30 1029 O 99.9197 1.23588 -1.77637 0
M  V30 1030 C 100.515 -1.95514 -2.76695 0
M  V30 1031 C 99.0737 -1.8314 -3.28841 0
M  V30 1032 C 98.2207 -1.90262 -2.01732 0
M  V30 1033 H 101.172 -1.38064 -0.782553 0
M  V30 1034 H 101.193 -1.48925 -3.50145 0
M  V30 1035 H 100.705 -2.99407 -2.46936 0
M  V30 1036 H 98.8057 -0.82092 -3.63444 0
M  V30 1037 H 98.9187 -2.67406 -3.97531 0
M  V30 1038 H 97.2827 -1.34027 -2.16584 0
M  V30 1039 H 98.0657 -2.9574 -1.74334 0
M  V30 1040 N 100.511 1.16574 -1.06058 0
M  V30 1041 C 101.758 1.87047 -0.775873 0
M  V30 1042 C 102.086 1.81562 0.697534 0
M  V30 1043 O 101.341 1.22445 1.52662 0
M  V30 1044 C 101.64 3.36195 -1.21275 0
M  V30 1045 C 101.306 3.6188 -2.68986 0
M  V30 1046 C 99.9678 3.68599 -3.09335 0
M  V30 1047 C 102.32 3.72648 -3.64394 0
M  V30 1048 C 99.6478 3.83584 -4.43937 0
M  V30 1049 C 102 3.89154 -4.98741 0
M  V30 1050 C 100.664 3.94114 -5.3873 0
M  V30 1051 H 99.9338 0.684452 -0.283912 0
M  V30 1052 H 102.581 1.37853 -1.32925 0
M  V30 1053 H 100.886 3.87505 -0.578528 0
M  V30 1054 H 102.583 3.89103 -0.969542 0
M  V30 1055 H 99.1728 3.57281 -2.36744 0
M  V30 1056 H 103.357 3.66769 -3.34356 0
M  V30 1057 H 98.6128 3.85677 -4.74409 0
M  V30 1058 H 102.787 3.96427 -5.72554 0
M  V30 1059 H 100.414 4.05478 -6.43033 0
M  V30 1060 N 101.989 0.842826 1.3317 0
M  V30 1061 C 102.952 0.284065 2.27433 0
M  V30 1062 C 103.952 -0.54948 1.5112 0
M  V30 1063 O 105.142 -0.362699 1.70382 0
M  V30 1064 C 102.274 -0.599384 3.35589 0
M  V30 1065 H 103.467 1.11589 2.78366 0
M  V30 1066 H 101.02 0.616221 1.4364 0
M  V30 1067 H 101.755 -1.45349 2.89904 0
M  V30 1068 H 101.54 -0.00291266 3.921 0
M  V30 1069 H 103.03 -0.983488 4.05854 0
M  V30 1070 N 103.467 -1.45747 0.599634 0
M  V30 1071 C 104.695 -2.06668 0.0978551 0
M  V30 1072 C 105.11 -1.44562 -1.21439 0
M  V30 1073 O 104.467 -0.556923 -1.73795 0
M  V30 1074 C 104.518 -3.61456 -0.0567044 0
M  V30 1075 O 104.239 -4.21242 1.20361 0
M  V30 1076 C 105.74 -4.39345 -0.590869 0
M  V30 1077 H 102.96 -0.667825 0.0651943 0
M  V30 1078 H 105.504 -1.87115 0.82511 0
M  V30 1079 H 103.659 -3.80378 -0.734251 0
M  V30 1080 H 104.073 -5.14323 1.02821 0
M  V30 1081 H 105.547 -5.48182 -0.648131 0
M  V30 1082 H 106.024 -4.08568 -1.61147 0
M  V30 1083 H 106.63 -4.25268 0.0523679 0
M  V30 1084 N 104.945 -0.338344 -1.53925 0
M  V30 1085 C 106.356 0.146651 -1.86123 0
M  V30 1086 C 106.707 1.5042 -1.2597 0
M  V30 1087 O 105.832 2.08723 -0.571294 0
M  V30 1088 C 106.427 0.272879 -3.37699 0
M  V30 1089 C 104.986 0.702103 -3.69794 0
M  V30 1090 C 104.133 -0.167304 -2.76795 0
M  V30 1091 H 107.084 -0.558123 -1.48562 0
M  V30 1092 H 107.105 1.10128 -3.64214 0
M  V30 1093 H 106.617 -0.715307 -3.81451 0
M  V30 1094 H 104.718 1.6995 -3.31584 0
M  V30 1095 H 104.831 0.495604 -4.7653 0
M  V30 1096 H 103.195 0.359527 -2.5215 0
M  V30 1097 H 103.978 -1.15253 -3.23375 0
M  V30 1098 N 106.423 1.57458 -0.0668435 0
M  V30 1099 C 107.353 2.15468 0.899764 0
M  V30 1100 C 108.334 1.08042 1.31381 0
M  V30 1101 O 109.519 1.36054 1.38574 0
M  V30 1102 C 106.649 2.71232 2.16911 0
M  V30 1103 C 105.603 3.83781 1.89463 0
M  V30 1104 C 104.929 4.26127 3.22986 0
M  V30 1105 C 106.229 5.08238 1.20381 0
M  V30 1106 H 107.923 2.96488 0.416529 0
M  V30 1107 H 105.469 1.4262 0.198908 0
M  V30 1108 H 107.422 3.10458 2.84945 0
M  V30 1109 H 106.146 1.87426 2.67468 0
M  V30 1110 H 104.805 3.45051 1.23836 0
M  V30 1111 H 104.453 3.39249 3.71374 0
M  V30 1112 H 104.153 5.01993 3.05413 0
M  V30 1113 H 105.677 4.67966 3.92225 0
M  V30 1114 H 107.091 5.44811 1.78475 0
M  V30 1115 H 105.488 5.89349 1.13083 0
M  V30 1116 H 106.558 4.84558 0.182153 0
M  V30 1117 N 107.901 -0.206675 1.56239 0
M  V30 1118 C 108.811 -1.27686 1.96808 0
M  V30 1119 C 109.827 -1.50455 0.874035 0
M  V30 1120 O 111.003 -1.63295 1.17884 0
M  V30 1121 C 108.068 -2.60358 2.28942 0
M  V30 1122 C 107.129 -2.45762 3.51994 0
M  V30 1123 C 106.362 -3.72108 3.82585 0
M  V30 1124 O 106.585 -4.75776 3.14631 0
M  V30 1125 O 105.519 -3.6833 4.76043 0
M  V30 1126 H 109.345 -0.962593 2.88041 0
M  V30 1127 H 106.93 -0.410746 1.43643 0
M  V30 1128 H 108.812 -3.38687 2.50737 0
M  V30 1129 H 107.487 -2.91435 1.4088 0
M  V30 1130 H 106.394 -1.65584 3.35459 0
M  V30 1131 H 107.727 -2.19621 4.40486 0
M  V30 1132 N 109.379 -1.50304 -0.473955 0
M  V30 1133 C 110.628 -1.60392 -1.22301 0
M  V30 1134 C 110.941 -0.308411 -1.93153 0
M  V30 1135 O 112.147 -0.288156 -2.69966 0
M  V30 1136 C 110.603 -2.83109 -2.2221 0
M  V30 1137 C 110.211 -4.19524 -1.57173 0
M  V30 1138 C 111.955 -3.0254 -2.97775 0
M  V30 1139 C 109.862 -5.33431 -2.55353 0
M  V30 1140 H 108.792 -0.597286 -0.460179 0
M  V30 1141 H 111.443 -1.76731 -0.493803 0
M  V30 1142 H 109.825 -2.60322 -2.9841 0
M  V30 1143 H 110.999 -4.52554 -0.867824 0
M  V30 1144 H 109.314 -4.05674 -0.939002 0
M  V30 1145 H 111.911 -3.84811 -3.71248 0
M  V30 1146 H 112.254 -2.14154 -3.56992 0
M  V30 1147 H 112.787 -3.25494 -2.28688 0
M  V30 1148 H 109.526 -6.23962 -2.00878 0
M  V30 1149 H 109.046 -5.04823 -3.23904 0
M  V30 1150 H 110.725 -5.63887 -3.17239 0
M  V30 1151 N 110.857 0.726932 -1.39834 0
M  V30 1152 C 111.787 1.85405 -1.41941 0
M  V30 1153 C 112.768 1.67751 -0.281728 0
M  V30 1154 O 113.953 1.8795 -0.488717 0
M  V30 1155 C 111.083 3.23243 -1.2701 0
M  V30 1156 C 110.037 3.55549 -2.38262 0
M  V30 1157 C 109.363 4.9241 -2.08415 0
M  V30 1158 C 110.663 3.577 -3.80589 0
M  V30 1159 H 112.357 1.83899 -2.36266 0
M  V30 1160 H 109.903 0.883349 -1.13723 0
M  V30 1161 H 111.856 4.01775 -1.27103 0
M  V30 1162 H 110.58 3.25296 -0.291564 0
M  V30 1163 H 109.239 2.79351 -2.37399 0
M  V30 1164 H 108.887 4.91052 -1.0898 0
M  V30 1165 H 108.587 5.14992 -2.82943 0
M  V30 1166 H 110.111 5.73289 -2.10171 0
M  V30 1167 H 111.525 4.26293 -3.83337 0
M  V30 1168 H 109.922 3.91804 -4.54543 0
M  V30 1169 H 110.992 2.57328 -4.10987 0
M  V30 1170 N 112.336 1.25143 0.95797 0
M  V30 1171 C 113.747 1.08851 1.51685 0
M  V30 1172 C 114.098 -0.33687 1.93286 0
M  V30 1173 O 113.223 -1.22644 1.7829 0
M  V30 1174 C 113.818 1.96978 2.75654 0
M  V30 1175 C 112.377 1.84881 3.27866 0
M  V30 1176 C 111.524 1.91329 2.0072 0
M  V30 1177 H 114.475 1.38478 0.77522 0
M  V30 1178 H 114.496 1.5078 3.4935 0
M  V30 1179 H 114.008 3.00712 2.45345 0
M  V30 1180 H 112.109 0.840182 3.63004 0
M  V30 1181 H 112.222 2.6951 3.96107 0
M  V30 1182 H 110.586 1.35174 2.15871 0
M  V30 1183 H 111.369 2.96661 1.72764 0
M  V30 1184 N 113.814 -1.1601 1.06675 0
M  V30 1185 C 114.724 -2.24156 0.692179 0
M  V30 1186 C 115.74 -1.71507 -0.293513 0
M  V30 1187 O 116.916 -2.009 -0.141861 0
M  V30 1188 C 113.981 -3.46587 0.0884131 0
M  V30 1189 C 113.042 -4.14257 1.12646 0
M  V30 1190 C 112.275 -5.30844 0.551416 0
M  V30 1191 O 112.498 -5.66858 -0.634656 0
M  V30 1192 O 111.432 -5.87848 1.29298 0
M  V30 1193 H 115.258 -2.58513 1.59388 0
M  V30 1194 H 112.843 -1.23599 0.83926 0
M  V30 1195 H 114.725 -4.20679 -0.246361 0
M  V30 1196 H 113.4 -3.13994 -0.786712 0
M  V30 1197 H 112.307 -3.42118 1.51348 0
M  V30 1198 H 113.64 -4.50914 1.97325 0
M  V30 1199 N 115.292 -0.849877 -1.32721 0
M  V30 1200 C 116.538 -0.460855 -1.9811 0
M  V30 1201 C 116.893 0.971716 -1.66059 0
M  V30 1202 O 116.186 1.67184 -0.935944 0
M  V30 1203 C 116.38 -0.631272 -3.51781 0
M  V30 1204 C 116.209 -2.07886 -3.98765 0
M  V30 1205 C 114.979 -2.71637 -4.26077 0
M  V30 1206 C 117.177 -3.04889 -4.14182 0
M  V30 1207 N 115.159 -4.07356 -4.59276 0
M  V30 1208 C 116.53 -4.25583 -4.50865 0
M  V30 1209 C 118.585 -3.01148 -3.96503 0
M  V30 1210 C 117.288 -5.43027 -4.71714 0
M  V30 1211 C 119.314 -4.17832 -4.18533 0
M  V30 1212 C 118.676 -5.37284 -4.55528 0
M  V30 1213 H 114.775 -0.217283 -0.751207 0
M  V30 1214 H 117.359 -1.10026 -1.60631 0
M  V30 1215 H 115.53 -0.0215966 -3.88394 0
M  V30 1216 H 117.262 -0.212614 -4.04141 0
M  V30 1217 H 114.017 -2.22705 -4.17971 0
M  V30 1218 H 114.441 -4.77351 -4.80068 0
M  V30 1219 H 119.083 -2.0992 -3.67006 0
M  V30 1220 H 116.801 -6.34791 -5.00066 0
M  V30 1221 H 120.387 -4.16368 -4.06361 0
M  V30 1222 H 119.267 -6.26071 -4.72234 0
M  V30 1223 N 116.77 1.45427 -0.607355 0
M  V30 1224 C 118 2.06314 -0.108656 0
M  V30 1225 C 118.408 1.45269 1.21217 0
M  V30 1226 O 117.751 0.561115 1.74921 0
M  V30 1227 C 117.813 3.59345 0.105618 0
M  V30 1228 C 117.477 4.42723 -1.13337 0
M  V30 1229 C 118.474 4.77715 -2.05145 0
M  V30 1230 C 116.159 4.83478 -1.36213 0
M  V30 1231 C 118.153 5.52317 -3.18158 0
M  V30 1232 C 115.84 5.57835 -2.49527 0
M  V30 1233 C 116.838 5.92171 -3.40327 0
M  V30 1234 O 116.526 6.65019 -4.51669 0
M  V30 1235 H 116.258 0.672782 -0.0658842 0
M  V30 1236 H 118.812 1.87664 -0.834945 0
M  V30 1237 H 117.042 3.76394 0.886796 0
M  V30 1238 H 118.731 4.02076 0.555886 0
M  V30 1239 H 119.497 4.46787 -1.88697 0
M  V30 1240 H 115.376 4.56188 -0.664362 0
M  V30 1241 H 118.92 5.79036 -3.89054 0
M  V30 1242 H 114.817 5.88177 -2.65928 0
M  V30 1243 H 115.585 6.83469 -4.50348 0
M  V30 1244 N 118.248 0.346503 1.53744 0
M  V30 1245 C 119.178 -0.501193 2.28058 0
M  V30 1246 C 120.159 -1.10014 1.29734 0
M  V30 1247 O 121.344 -1.12097 1.58581 0
M  V30 1248 C 118.474 -1.65078 3.05559 0
M  V30 1249 C 117.428 -1.18003 4.11411 0
M  V30 1250 C 116.754 -2.41837 4.76884 0
M  V30 1251 C 118.054 -0.278394 5.21558 0
M  V30 1252 H 119.748 0.11875 2.99164 0
M  V30 1253 H 117.294 0.0585531 1.43881 0
M  V30 1254 H 119.247 -2.25028 3.56287 0
M  V30 1255 H 117.971 -2.29767 2.32109 0
M  V30 1256 H 116.63 -0.603331 3.61601 0
M  V30 1257 H 116.278 -3.0494 4.00026 0
M  V30 1258 H 115.978 -2.1102 5.48402 0
M  V30 1259 H 117.502 -3.02508 5.30397 0
M  V30 1260 H 118.916 -0.784823 5.67903 0
M  V30 1261 H 117.313 -0.0619707 6.00068 0
M  V30 1262 H 118.383 0.684677 4.80042 0
M  V30 1263 N 119.726 -1.57421 0.075193 0
M  V30 1264 C 120.956 -1.97659 -0.601203 0
M  V30 1265 C 121.364 -0.952427 -1.63479 0
M  V30 1266 O 120.707 0.0688241 -1.83571 0
M  V30 1267 C 120.769 -3.34218 -1.32434 0
M  V30 1268 C 120.433 -4.5484 -0.443826 0
M  V30 1269 C 121.43 -5.19034 0.299969 0
M  V30 1270 C 119.115 -5.00952 -0.367709 0
M  V30 1271 C 121.109 -6.27695 1.10807 0
M  V30 1272 C 118.796 -6.09484 0.444058 0
M  V30 1273 C 119.794 -6.72719 1.18061 0
M  V30 1274 O 119.482 -7.79161 1.97898 0
M  V30 1275 H 119.214 -0.65494 -0.167422 0
M  V30 1276 H 121.768 -2.04886 0.145157 0
M  V30 1277 H 119.998 -3.23615 -2.11685 0
M  V30 1278 H 121.687 -3.59038 -1.89331 0
M  V30 1279 H 122.453 -4.84351 0.250776 0
M  V30 1280 H 118.332 -4.51509 -0.930638 0
M  V30 1281 H 121.876 -6.76982 1.68347 0
M  V30 1282 H 117.773 -6.43601 0.494803 0
M  V30 1283 H 118.541 -7.96055 1.90367 0
M  V30 1284 N 121.204 0.198386 -1.56346 0
M  V30 1285 C 122.615 0.763358 -1.70381 0
M  V30 1286 C 122.966 1.83995 -0.681203 0
M  V30 1287 O 122.091 2.15785 0.16305 0
M  V30 1288 C 122.686 1.39143 -3.08909 0
M  V30 1289 C 121.245 1.90352 -3.2472 0
M  V30 1290 C 120.392 0.772233 -2.6633 0
M  V30 1291 H 123.343 -0.0266377 -1.58678 0
M  V30 1292 H 123.364 2.26076 -3.06055 0
M  V30 1293 H 122.876 0.607638 -3.83314 0
M  V30 1294 H 120.977 2.71461 -2.55225 0
M  V30 1295 H 121.09 2.06757 -4.3219 0
M  V30 1296 H 119.454 1.18566 -2.2542 0
M  V30 1297 H 120.237 0.00073556 -3.433 0
M  V30 1298 N 122.682 1.50554 0.465978 0
M  V30 1299 C 123.928 1.62038 1.21949 0
M  V30 1300 C 124.261 0.322116 1.9151 0
M  V30 1301 O 123.536 -0.676723 1.82348 0
M  V30 1302 C 123.819 2.80421 2.25912 0
M  V30 1303 C 123.672 4.20144 1.60622 0
M  V30 1304 C 124.991 2.94354 3.27176 0
M  V30 1305 H 122.11 0.589752 0.441998 0
M  V30 1306 H 124.752 1.82956 0.51257 0
M  V30 1307 H 122.902 2.62717 2.86203 0
M  V30 1308 H 124.574 4.49449 1.03889 0
M  V30 1309 H 122.817 4.24165 0.909211 0
M  V30 1310 H 123.488 4.98914 2.36196 0
M  V30 1311 H 125.964 3.10578 2.76913 0
M  V30 1312 H 124.84 3.788 3.97242 0
M  V30 1313 H 125.101 2.05186 3.916 0
M  V30 1314 N 124.16 -0.719506 1.40217 0
M  V30 1315 C 125.407 -1.47933 1.38283 0
M  V30 1316 C 125.735 -1.94493 -0.0161536 0
M  V30 1317 O 124.99 -1.68224 -0.999956 0
M  V30 1318 C 125.289 -2.72271 2.31524 0
M  V30 1319 C 124.955 -2.44496 3.78857 0
M  V30 1320 C 123.617 -2.36631 4.18998 0
M  V30 1321 C 125.969 -2.21104 4.71977 0
M  V30 1322 C 123.297 -2.03437 5.503 0
M  V30 1323 C 125.649 -1.89423 6.03574 0
M  V30 1324 C 124.313 -1.80038 6.42762 0
M  V30 1325 H 123.583 -0.541325 0.506012 0
M  V30 1326 H 126.23 -0.824502 1.72842 0
M  V30 1327 H 124.535 -3.42572 1.90137 0
M  V30 1328 H 126.232 -3.30348 2.27313 0
M  V30 1329 H 122.822 -2.51503 3.47051 0
M  V30 1330 H 127.006 -2.26139 4.41786 0
M  V30 1331 H 122.262 -1.94705 5.79569 0
M  V30 1332 H 126.436 -1.70336 6.75247 0
M  V30 1333 H 124.063 -1.54083 7.44421 0
M  V30 1334 N 125.638 -1.25649 -0.95132 0
M  V30 1335 C 126.57 -1.02112 -2.05197 0
M  V30 1336 C 127.583 0.0150571 -1.62793 0
M  V30 1337 O 128.772 -0.223874 -1.77091 0
M  V30 1338 C 125.872 -0.522361 -3.3485 0
M  V30 1339 C 125.045 -1.62546 -4.06076 0
M  V30 1340 C 124.104 -1.12649 -5.14001 0
M  V30 1341 O 123.13 -1.82156 -5.39266 0
M  V30 1342 N 124.332 0.03047 -5.80492 0
M  V30 1343 H 127.097 -1.96885 -2.25957 0
M  V30 1344 H 124.658 -1.16899 -1.1201 0
M  V30 1345 H 126.65 -0.172961 -4.0433 0
M  V30 1346 H 125.22 0.33151 -3.10837 0
M  V30 1347 H 124.44 -2.14628 -3.30649 0
M  V30 1348 H 125.728 -2.36644 -4.50419 0
M  V30 1349 H 125.126 0.611169 -5.62389 0
M  V30 1350 H 123.683 0.320875 -6.5101 0
M  V30 1351 N 127.117 1.15442 -1.07289 0
M  V30 1352 C 128.366 1.85557 -0.790669 0
M  V30 1353 C 128.679 1.83186 0.685739 0
M  V30 1354 O 129.885 2.48977 1.0827 0
M  V30 1355 C 128.341 3.33038 -1.36433 0
M  V30 1356 C 127.949 3.43856 -2.8717 0
M  V30 1357 C 129.693 4.0834 -1.1601 0
M  V30 1358 C 127.6 4.85482 -3.3773 0
M  V30 1359 H 126.53 0.695122 -0.292098 0
M  V30 1360 H 129.181 1.30219 -1.29287 0
M  V30 1361 H 127.563 3.88043 -0.789864 0
M  V30 1362 H 128.737 2.98961 -3.50655 0
M  V30 1363 H 127.052 2.81998 -3.06376 0
M  V30 1364 H 129.649 5.12859 -1.51262 0
M  V30 1365 H 129.992 4.16182 -0.0991007 0
M  V30 1366 H 130.525 3.59603 -1.70089 0
M  V30 1367 H 127.264 4.82823 -4.43353 0
M  V30 1368 H 126.784 5.30961 -2.78999 0
M  V30 1369 H 128.463 5.54335 -3.33648 0
M  V30 1370 N 128.595 0.856903 1.32268 0
M  V30 1371 C 129.525 0.31858 2.31316 0
M  V30 1372 C 130.506 -0.583487 1.59779 0
M  V30 1373 O 131.691 -0.503259 1.87566 0
M  V30 1374 C 128.821 -0.491979 3.43798 0
M  V30 1375 C 127.775 0.315849 4.26833 0
M  V30 1376 C 127.101 -0.619586 5.31098 0
M  V30 1377 C 128.401 1.54282 4.98993 0
M  V30 1378 H 130.095 1.14621 2.76591 0
M  V30 1379 H 127.641 0.552613 1.32974 0
M  V30 1380 H 129.594 -0.879012 4.1213 0
M  V30 1381 H 128.318 -1.35299 2.97257 0
M  V30 1382 H 126.977 0.684664 3.6015 0
M  V30 1383 H 126.625 -1.47751 4.8081 0
M  V30 1384 H 126.325 -0.0830621 5.87541 0
M  V30 1385 H 127.849 -1.00375 6.02293 0
M  V30 1386 H 129.263 1.22796 5.59995 0
M  V30 1387 H 127.66 2.01745 5.65172 0
M  V30 1388 H 128.73 2.30285 4.26728 0
M  V30 1389 N 130.073 -1.45103 0.615059 0
M  V30 1390 C 131.489 -1.57137 0.279322 0
M  V30 1391 C 131.689 -1.60523 -1.21797 0
M  V30 1392 O 130.745 -1.53956 -2.00134 0
M  V30 1393 C 132.058 -2.85062 0.957083 0
M  V30 1394 C 133.606 -2.98749 0.933706 0
M  V30 1395 C 134.081 -4.29455 1.59162 0
M  V30 1396 N 135.572 -4.36231 1.55746 0
M  V30 1397 C 136.307 -5.36051 2.0356 0
M  V30 1398 N 135.803 -6.42367 2.59494 0
M  V30 1399 N 137.596 -5.27456 1.94284 0
M  V30 1400 H 129.747 -1.41148 1.58717 0
M  V30 1401 H 132.01 -0.675331 0.665306 0
M  V30 1402 H 131.716 -2.88488 2.01166 0
M  V30 1403 H 131.59 -3.7407 0.48494 0
M  V30 1404 H 133.977 -2.94886 -0.112347 0
M  V30 1405 H 134.058 -2.11132 1.44419 0
M  V30 1406 H 133.702 -4.34077 2.63704 0
M  V30 1407 H 133.632 -5.15901 1.0561 0
M  V30 1408 H 136.123 -3.60011 1.14893 0
M  V30 1409 H 136.436 -7.14793 2.93752 0
M  V30 1410 H 134.781 -6.43097 2.63537 0
M  V30 1411 H 137.972 -4.43308 1.5032 0
M  V30 1412 H 138.145 -6.05099 2.3186 0
M  V30 1413 N 131.551 -0.354651 -1.53558 0
M  V30 1414 C 132.776 0.242153 -2.05981 0
M  V30 1415 C 133.201 1.42553 -1.2272 0
M  V30 1416 O 132.559 1.79656 -0.243604 0
M  V30 1417 C 132.607 0.624367 -3.55154 0
M  V30 1418 O 131.711 1.72301 -3.74681 0
M  V30 1419 H 131.052 0.0378432 -0.662921 0
M  V30 1420 H 133.582 -0.512087 -1.98088 0
M  V30 1421 H 133.592 0.898433 -3.97985 0
M  V30 1422 H 132.267 -0.240989 -4.15201 0
M  V30 1423 H 130.844 1.44535 -3.4375 0
M  V30 1424 N 133.029 1.57378 -0.0835403 0
M  V30 1425 C 134.275 1.94217 0.583733 0
M  V30 1426 C 134.608 0.964653 1.68547 0
M  V30 1427 O 133.883 -0.00422258 1.945 0
M  V30 1428 C 134.166 3.41253 1.14972 0
M  V30 1429 C 134.019 4.49768 0.0538277 0
M  V30 1430 C 135.338 3.89352 2.05166 0
M  V30 1431 H 132.457 0.706233 0.210724 0
M  V30 1432 H 135.099 1.89392 -0.1519 0
M  V30 1433 H 133.249 3.45496 1.77665 0
M  V30 1434 H 134.921 4.57641 -0.579851 0
M  V30 1435 H 133.164 4.29432 -0.614068 0
M  V30 1436 H 133.835 5.49817 0.490452 0
M  V30 1437 H 136.311 3.87189 1.52393 0
M  V30 1438 H 135.187 4.92822 2.41698 0
M  V30 1439 H 135.448 3.27973 2.96456 0
M  V30 1440 N 134.507 -0.190092 1.56449 0
M  V30 1441 C 135.918 -0.754312 1.70784 0
M  V30 1442 C 136.269 -1.83631 0.690951 0
M  V30 1443 O 135.394 -2.15868 -0.151604 0
M  V30 1444 C 135.989 -1.37503 3.09642 0
M  V30 1445 C 134.548 -1.88628 3.25725 0
M  V30 1446 C 133.695 -0.758098 2.66736 0
M  V30 1447 H 136.646 0.0350524 1.58661 0
M  V30 1448 H 136.667 -2.2445 3.0725 0
M  V30 1449 H 136.179 -0.587302 3.83631 0
M  V30 1450 H 134.28 -2.70103 2.56661 0
M  V30 1451 H 134.393 -2.04462 4.3328 0
M  V30 1452 H 132.757 -1.17369 2.26046 0
M  V30 1453 H 133.54 0.0174705 3.43296 0
M  V30 1454 N 135.985 -1.50799 -0.457987 0
M  V30 1455 C 136.933 -1.71162 -1.575 0
M  V30 1456 C 137.927 -0.577592 -1.59249 0
M  V30 1457 O 139.133 -0.758443 -1.63241 0
M  V30 1458 H 135.508 -0.540468 -0.522875 0
M  V30 1459 H 137.479 -2.64837 -1.37492 0
M  V30 1460 C 136.228 -1.83496 -2.95338 0
M  V30 1461 H 135.551 -2.70153 -2.94716 0
M  V30 1462 H 136.991 -2.01765 -3.72917 0
M  V30 1463 C 135.45 -0.589694 -3.31699 0
M  V30 1464 O 135.98 0.265163 -4.00824 0
M  V30 1465 N 134.186 -0.439845 -2.87252 0
M  V30 1466 H 133.733 -1.13655 -2.31172 0
M  V30 1467 H 133.691 0.392159 -3.11945 0
M  V30 1468 N 137.463 0.71206 -1.40597 0
M  V30 1469 C 138.41 1.82613 -1.41142 0
M  V30 1470 C 139.38 1.63925 -0.267903 0
M  V30 1471 O 140.565 1.85009 -0.466495 0
M  V30 1472 C 137.705 3.20354 -1.28324 0
M  V30 1473 C 136.818 3.50589 -2.52411 0
M  V30 1474 C 135.953 4.77855 -2.32009 0
M  V30 1475 C 134.992 5.01005 -3.51654 0
M  V30 1476 N 134.129 6.19487 -3.30425 0
M  V30 1477 H 138.969 1.81482 -2.36365 0
M  V30 1478 H 136.506 0.886475 -1.17388 0
M  V30 1479 H 138.464 3.99899 -1.18899 0
M  V30 1480 H 137.094 3.20705 -0.367189 0
M  V30 1481 H 136.146 2.65573 -2.72351 0
M  V30 1482 H 137.458 3.63604 -3.41458 0
M  V30 1483 H 136.612 5.65424 -2.19956 0
M  V30 1484 H 135.351 4.67056 -1.40392 0
M  V30 1485 H 134.356 4.1189 -3.64179 0
M  V30 1486 H 135.581 5.13674 -4.44202 0
M  V30 1487 H 133.527 6.09932 -2.41494 0
M  V30 1488 H 133.444 6.33194 -4.13039 0
M  V30 1489 H 134.712 7.09834 -3.22113 0
M  V30 1490 N 138.941 1.26152 0.944643 0
M  V30 1491 C 139.871 1.09902 2.06019 0
M  V30 1492 C 140.852 0.00519538 1.70099 0
M  V30 1493 O 142.037 0.176583 1.93396 0
M  V30 1494 C 139.167 0.727562 3.39594 0
M  V30 1495 C 138.121 1.77274 3.89561 0
M  V30 1496 C 137.447 1.25569 5.19747 0
M  V30 1497 C 138.747 3.17357 4.14827 0
M  V30 1498 H 140.441 2.03217 2.19871 0
M  V30 1499 H 137.987 0.978452 1.05652 0
M  V30 1500 H 139.94 0.600777 4.17095 0
M  V30 1501 H 138.664 -0.241287 3.25707 0
M  V30 1502 H 137.323 1.88814 3.14237 0
M  V30 1503 H 136.971 0.276783 5.02238 0
M  V30 1504 H 136.671 1.95433 5.54148 0
M  V30 1505 H 138.195 1.1415 5.99835 0
M  V30 1506 H 139.609 3.08914 4.82954 0
M  V30 1507 H 138.006 3.84781 4.60504 0
M  V30 1508 H 139.076 3.63673 3.20734 0
M  V30 1509 N 140.419 -1.14872 1.07899 0
M  V30 1510 C 141.349 -2.2193 0.725887 0
M  V30 1511 C 142.33 -1.67622 -0.28927 0
M  V30 1512 O 143.515 -1.93533 -0.160787 0
M  V30 1513 C 140.645 -3.47061 0.128856 0
M  V30 1514 C 139.599 -4.14363 1.07178 0
M  V30 1515 C 138.925 -5.33636 0.337229 0
M  V30 1516 C 140.225 -4.63492 2.40775 0
M  V30 1517 H 141.919 -2.51724 1.62097 0
M  V30 1518 H 139.465 -1.20991 0.780838 0
M  V30 1519 H 141.418 -4.21199 -0.130147 0
M  V30 1520 H 140.142 -3.16617 -0.80134 0
M  V30 1521 H 138.801 -3.42173 1.3158 0
M  V30 1522 H 138.449 -4.99449 -0.596606 0
M  V30 1523 H 138.149 -5.79609 0.965788 0
M  V30 1524 H 139.673 -6.10539 0.0861567 0
M  V30 1525 H 141.087 -5.2913 2.20669 0
M  V30 1526 H 139.484 -5.20148 2.99276 0
M  V30 1527 H 140.554 -3.78834 3.02676 0
M  V30 1528 N 141.898 -0.863906 -1.31812 0
M  V30 1529 C 143.146 -0.470904 -1.96537 0
M  V30 1530 C 143.467 0.978771 -1.68657 0
M  V30 1531 O 142.737 1.6853 -0.998717 0
M  V30 1532 H 141.317 -0.171148 -0.72713 0
M  V30 1533 H 143.979 -1.10236 -1.60729 0
M  V30 1534 H 143.075 -0.623616 -3.05806 0
M  V30 1535 N 143.376 1.44774 -0.622745 0
M  V30 1536 C 144.622 2.0242 -0.124083 0
M  V30 1537 C 144.955 1.4881 1.24777 0
M  V30 1538 O 144.23 0.668799 1.8264 0
M  V30 1539 C 144.513 3.59957 -0.101619 0
M  V30 1540 C 144.366 4.23867 -1.50521 0
M  V30 1541 C 145.685 4.36284 0.578272 0
M  V30 1542 H 142.804 0.735528 -0.0465645 0
M  V30 1543 H 145.446 1.72447 -0.797617 0
M  V30 1544 H 143.596 3.85623 0.471934 0
M  V30 1545 H 145.268 4.09336 -2.12701 0
M  V30 1546 H 143.511 3.81684 -2.06154 0
M  V30 1547 H 144.182 5.32843 -1.4416 0
M  V30 1548 H 146.658 4.16001 0.0906057 0
M  V30 1549 H 145.534 5.46004 0.563149 0
M  V30 1550 H 145.795 4.10271 1.64713 0
M  V30 1551 N 144.854 0.36279 1.53368 0
M  V30 1552 C 145.784 -0.476976 2.28576 0
M  V30 1553 C 146.765 -1.08631 1.30894 0
M  V30 1554 O 147.95 -1.10409 1.59761 0
M  V30 1555 C 145.08 -1.61828 3.07293 0
M  V30 1556 C 144.034 -1.13633 4.1264 0
M  V30 1557 C 143.36 -2.36766 4.79423 0
M  V30 1558 C 144.66 -0.223061 5.21823 0
M  V30 1559 H 146.354 0.150474 2.99022 0
M  V30 1560 H 143.9 0.0738103 1.43811 0
M  V30 1561 H 145.853 -2.21237 3.58653 0
M  V30 1562 H 144.577 -2.27292 2.34533 0
M  V30 1563 H 143.236 -0.564945 3.62221 0
M  V30 1564 H 142.884 -3.0068 4.03238 0
M  V30 1565 H 142.584 -2.05192 5.50609 0
M  V30 1566 H 144.108 -2.96865 5.33576 0
M  V30 1567 H 145.522 -0.724545 5.68703 0
M  V30 1568 H 143.919 0.001678 6.001 0
M  V30 1569 H 144.989 0.735553 4.79289 0
M  V30 1570 N 146.332 -1.57332 0.0918853 0
M  V30 1571 C 147.262 -2.16872 -0.865371 0
M  V30 1572 C 148.243 -1.10118 -1.29646 0
M  V30 1573 O 149.428 -1.38242 -1.36392 0
M  V30 1574 C 146.558 -2.74649 -2.12569 0
M  V30 1575 C 145.512 -3.86747 -1.83333 0
M  V30 1576 C 144.838 -4.31212 -3.16166 0
M  V30 1577 C 146.138 -5.10089 -1.1228 0
M  V30 1578 H 147.832 -2.97114 -0.369307 0
M  V30 1579 H 145.378 -1.42918 -0.176194 0
M  V30 1580 H 147.331 -3.14952 -2.7997 0
M  V30 1581 H 146.055 -1.91657 -2.64452 0
M  V30 1582 H 144.714 -3.46978 -1.18331 0
M  V30 1583 H 144.362 -3.45115 -3.6593 0
M  V30 1584 H 144.062 -5.06788 -2.97388 0
M  V30 1585 H 145.586 -4.74146 -3.84731 0
M  V30 1586 H 147 -5.47582 -1.69785 0
M  V30 1587 H 145.397 -5.91073 -1.03693 0
M  V30 1588 H 146.467 -4.84786 -0.105041 0
M  V30 1589 N 147.81 0.181792 -1.56548 0
M  V30 1590 C 148.743 1.25366 -1.90679 0
M  V30 1591 C 149.721 1.43299 -0.768376 0
M  V30 1592 O 150.905 1.58475 -1.02068 0
M  V30 1593 C 148.032 2.61826 -2.1486 0
M  V30 1594 C 147.078 2.60688 -3.37556 0
M  V30 1595 S 147.911 2.10804 -4.92262 0
M  V30 1596 C 149.067 3.49062 -5.19525 0
M  V30 1597 H 149.3 0.962277 -2.81296 0
M  V30 1598 H 146.833 0.385892 -1.495 0
M  V30 1599 H 148.791 3.40371 -2.29473 0
M  V30 1600 H 147.452 2.88169 -1.24969 0
M  V30 1601 H 146.645 3.61058 -3.51643 0
M  V30 1602 H 146.247 1.90232 -3.22006 0
M  V30 1603 H 148.539 4.45003 -5.10861 0
M  V30 1604 H 149.482 3.39859 -6.2121 0
M  V30 1605 H 149.89 3.4459 -4.47122 0
M  V30 1606 N 149.288 1.51039 0.449983 0
M  V30 1607 C 150.251 1.70863 1.5277 0
M  V30 1608 C 151.251 0.578846 1.5002 0
M  V30 1609 O 152.441 0.846213 1.52266 0
M  V30 1610 C 149.573 1.75341 2.9235 0
M  V30 1611 H 150.766 2.67034 1.36502 0
M  V30 1612 H 148.319 1.40838 0.677812 0
M  V30 1613 H 149.054 0.809383 3.14037 0
M  V30 1614 H 148.839 2.57436 2.95752 0
M  V30 1615 H 150.329 1.92559 3.70555 0
M  V30 1616 N 150.766 -0.704594 1.40972 0
M  V30 1617 C 151.991 -1.49858 1.43378 0
M  V30 1618 C 152.416 -1.88061 0.038184 0
M  V30 1619 O 151.774 -1.5402 -0.956425 0
M  V30 1620 C 151.822 -2.74333 2.34038 0
M  V30 1621 O 150.926 -3.7147 1.7912 0
M  V30 1622 H 150.267 -0.45139 0.486974 0
M  V30 1623 H 152.797 -0.866832 1.8533 0
M  V30 1624 H 152.807 -3.22741 2.49604 0
M  V30 1625 H 151.482 -2.45863 3.35446 0
M  V30 1626 H 150.059 -3.30363 1.72958 0
M  V30 1627 N 152.244 -1.26651 -0.937939 0
M  V30 1628 C 153.49 -1.12553 -1.687 0
M  V30 1629 C 153.823 0.329782 -1.91379 0
M  V30 1630 O 153.098 1.24202 -1.4968 0
M  V30 1631 C 153.381 -1.89862 -3.05981 0
M  V30 1632 C 153.234 -3.43318 -2.90607 0
M  V30 1633 C 154.553 -1.69499 -4.0615 0
M  V30 1634 H 151.672 -0.410257 -0.612257 0
M  V30 1635 H 154.314 -1.55685 -1.08913 0
M  V30 1636 H 152.464 -1.53204 -3.57017 0
M  V30 1637 H 154.136 -3.89747 -2.46769 0
M  V30 1638 H 152.379 -3.70179 -2.26164 0
M  V30 1639 H 153.05 -3.92642 -3.8799 0
M  V30 1640 H 155.526 -2.01442 -3.64088 0
M  V30 1641 H 154.402 -2.26002 -5.00214 0
M  V30 1642 H 154.663 -0.640365 -4.37438 0
M  V30 1643 N 153.722 1.14298 -1.08507 0
M  V30 1644 C 155.133 1.66926 -0.836227 0
M  V30 1645 C 155.484 1.85576 0.63686 0
M  V30 1646 O 154.609 1.56767 1.49175 0
M  V30 1647 C 155.204 3.03219 -1.51142 0
M  V30 1648 C 153.763 3.52876 -1.30979 0
M  V30 1649 C 152.91 2.2833 -1.57356 0
M  V30 1650 H 155.861 0.983491 -1.24552 0
M  V30 1651 H 155.882 3.68726 -0.939211 0
M  V30 1652 H 155.394 2.89612 -2.58353 0
M  V30 1653 H 153.495 3.71703 -0.258429 0
M  V30 1654 H 153.608 4.33586 -2.03814 0
M  V30 1655 H 151.972 2.34454 -0.995164 0
M  V30 1656 H 152.755 2.17298 -2.65775 0
M  V30 1657 N 155.201 0.870884 1.31352 0
M  V30 1658 C 156.131 0.343096 2.30966 0
M  V30 1659 C 157.112 -0.566507 1.60389 0
M  V30 1660 O 158.297 -0.483336 1.88089 0
M  V30 1661 C 155.427 -0.455487 3.443 0
M  V30 1662 C 154.381 0.361103 4.26474 0
M  V30 1663 C 153.707 -0.563221 5.31725 0
M  V30 1664 C 155.007 1.59566 4.97329 0
M  V30 1665 H 156.701 1.17548 2.75359 0
M  V30 1666 H 154.247 0.566686 1.32381 0
M  V30 1667 H 156.2 -0.83525 4.13039 0
M  V30 1668 H 154.924 -1.32139 2.98675 0
M  V30 1669 H 153.583 0.722825 3.59403 0
M  V30 1670 H 153.231 -1.42643 4.82351 0
M  V30 1671 H 152.931 -0.0207409 5.87596 0
M  V30 1672 H 154.455 -0.939808 6.03324 0
M  V30 1673 H 155.869 1.28728 5.58661 0
M  V30 1674 H 154.266 2.07728 5.63 0
M  V30 1675 H 155.336 2.34798 4.24262 0
M  V30 1676 N 156.679 -1.44442 0.630414 0
M  V30 1677 C 157.927 -2.01653 0.134351 0
M  V30 1678 C 158.248 -1.49836 -1.24796 0
M  V30 1679 O 157.518 -0.701684 -1.82902 0
M  V30 1680 H 156.098 -0.74554 0.0466769 0
M  V30 1681 H 158.76 -1.76952 0.816955 0
M  V30 1682 H 157.856 -3.11935 0.101498 0
M  V30 1683 N 158.157 -0.370918 -1.53173 0
M  V30 1684 C 159.087 0.464847 -2.28826 0
M  V30 1685 C 160.068 1.07936 -1.31468 0
M  V30 1686 O 161.253 1.0956 -1.60344 0
M  V30 1687 C 158.383 1.60196 -3.08147 0
M  V30 1688 C 157.337 1.11443 -4.13237 0
M  V30 1689 C 156.663 2.3422 -4.80672 0
M  V30 1690 C 157.963 0.195384 -5.21934 0
M  V30 1691 H 159.657 -0.166329 -2.98938 0
M  V30 1692 H 157.203 -0.0814359 -1.4377 0
M  V30 1693 H 159.156 2.19332 -3.59822 0
M  V30 1694 H 157.88 2.26045 -2.35735 0
M  V30 1695 H 156.539 0.545727 -3.62515 0
M  V30 1696 H 156.187 2.98537 -4.04827 0
M  V30 1697 H 155.887 2.02269 -5.51689 0
M  V30 1698 H 157.411 2.94032 -5.35143 0
M  V30 1699 H 158.825 0.694375 -5.69079 0
M  V30 1700 H 157.222 -0.0335027 -6.00091 0
M  V30 1701 H 158.292 -0.760961 -4.78892 0
M  V30 1702 N 159.635 1.57281 -0.100228 0
M  V30 1703 C 160.884 1.93713 0.561984 0
M  V30 1704 C 161.197 0.984492 1.69018 0
M  V30 1705 O 162.403 1.24273 2.41389 0
M  V30 1706 C 160.859 3.4421 1.05106 0
M  V30 1707 C 160.467 4.47975 -0.0476628 0
M  V30 1708 C 162.211 3.89595 1.68571 0
M  V30 1709 C 160.118 5.89631 0.457055 0
M  V30 1710 H 159.048 0.723082 0.2137 0
M  V30 1711 H 161.699 1.82644 -0.177057 0
M  V30 1712 H 160.081 3.50449 1.84395 0
M  V30 1713 H 161.255 4.53385 -0.823333 0
M  V30 1714 H 159.57 4.1223 -0.587816 0
M  V30 1715 H 162.167 4.92832 2.07414 0
M  V30 1716 H 162.51 3.28526 2.55688 0
M  V30 1717 H 163.043 3.86078 0.958562 0
M  V30 1718 H 159.782 6.54411 -0.377616 0
M  V30 1719 H 159.302 5.87681 1.19962 0
M  V30 1720 H 160.981 6.40363 0.92437 0
M  V30 1721 N 161.113 -0.173488 1.56642 0
M  V30 1722 C 162.043 -1.2171 1.99271 0
M  V30 1723 C 163.024 -1.46289 0.867959 0
M  V30 1724 O 164.209 -1.5766 1.13388 0
M  V30 1725 C 161.339 -2.55651 2.35074 0
M  V30 1726 C 160.293 -2.45645 3.50489 0
M  V30 1727 C 159.619 -3.84056 3.72028 0
M  V30 1728 C 160.919 -1.96302 4.84007 0
M  V30 1729 H 162.613 -0.86275 2.867 0
M  V30 1730 H 160.159 -0.413571 1.37933 0
M  V30 1731 H 162.112 -3.2886 2.63494 0
M  V30 1732 H 160.836 -2.92869 1.44552 0
M  V30 1733 H 159.495 -1.7489 3.22194 0
M  V30 1734 H 159.143 -4.18664 2.788 0
M  V30 1735 H 158.843 -3.7823 4.49684 0
M  V30 1736 H 160.367 -4.58854 4.02846 0
M  V30 1737 H 161.781 -2.59284 5.11317 0
M  V30 1738 H 160.178 -2.01429 5.65284 0
M  V30 1739 H 161.248 -0.917226 4.76146 0
M  V30 1740 N 162.591 -1.51276 -0.441967 0
M  V30 1741 C 163.837 -1.63958 -1.19355 0
M  V30 1742 C 164.17 -0.352543 -1.90973 0
M  V30 1743 O 163.445 0.647627 -1.83401 0
M  V30 1744 C 163.728 -2.83979 -2.21422 0
M  V30 1745 C 163.581 -4.22646 -1.53918 0
M  V30 1746 C 164.9 -2.99521 -3.22451 0
M  V30 1747 H 162.019 -0.596709 -0.432559 0
M  V30 1748 H 164.661 -1.83748 -0.483398 0
M  V30 1749 H 162.811 -2.67237 -2.81987 0
M  V30 1750 H 164.483 -4.51045 -0.967256 0
M  V30 1751 H 162.726 -4.25558 -0.841615 0
M  V30 1752 H 163.397 -5.02609 -2.28229 0
M  V30 1753 H 165.873 -3.14944 -2.71937 0
M  V30 1754 H 164.749 -3.85072 -3.91166 0
M  V30 1755 H 165.01 -2.11391 -3.88287 0
M  V30 1756 N 164.069 0.697108 -1.41344 0
M  V30 1757 C 165.48 1.27697 -1.36199 0
M  V30 1758 C 165.831 1.9615 -0.0443463 0
M  V30 1759 O 164.956 1.98689 0.857419 0
M  V30 1760 C 165.551 2.32223 -2.46694 0
M  V30 1761 C 164.11 2.8579 -2.44952 0
M  V30 1762 C 163.257 1.59807 -2.26621 0
M  V30 1763 H 166.208 0.491968 -1.50882 0
M  V30 1764 H 166.229 3.1348 -2.15664 0
M  V30 1765 H 165.741 1.82373 -3.42581 0
M  V30 1766 H 163.842 3.3982 -1.52817 0
M  V30 1767 H 163.955 3.36325 -3.41207 0
M  V30 1768 H 162.319 1.8556 -1.7447 0
M  V30 1769 H 163.102 1.11956 -3.24532 0
M  V30 1770 N 165.547 1.27147 0.931209 0
M  V30 1771 C 166.794 1.13278 1.67852 0
M  V30 1772 C 167.122 -0.32204 1.91815 0
M  V30 1773 O 166.377 -1.25224 1.50391 0
M  V30 1774 C 166.676 1.8579 3.05314 0
M  V30 1775 C 166.342 3.35657 3.01073 0
M  V30 1776 C 165.004 3.76536 2.99623 0
M  V30 1777 C 167.356 4.31299 2.92627 0
M  V30 1778 C 164.684 5.11426 2.87506 0
M  V30 1779 C 167.036 5.66242 2.82051 0
M  V30 1780 C 165.7 6.06418 2.7895 0
M  V30 1781 H 164.97 0.414515 0.614214 0
M  V30 1782 H 167.617 1.57712 1.08624 0
M  V30 1783 H 165.922 1.33854 3.68226 0
M  V30 1784 H 167.619 1.72491 3.62005 0
M  V30 1785 H 164.209 3.03146 3.02986 0
M  V30 1786 H 168.393 4.00692 2.92848 0
M  V30 1787 H 163.649 5.41705 2.83489 0
M  V30 1788 H 167.823 6.40026 2.74481 0
M  V30 1789 H 165.45 7.10895 2.69318 0
M  V30 1790 N 167.025 -1.13721 1.09112 0
M  V30 1791 C 168.274 -1.84275 0.82009 0
M  V30 1792 C 168.587 -1.84253 -0.656509 0
M  V30 1793 O 169.793 -2.50668 -1.04296 0
M  V30 1794 C 168.249 -3.30825 1.41714 0
M  V30 1795 C 167.857 -3.39244 2.92605 0
M  V30 1796 C 169.601 -4.06443 1.22492 0
M  V30 1797 C 167.508 -4.80047 3.45411 0
M  V30 1798 H 166.438 -0.690387 0.30312 0
M  V30 1799 H 169.089 -1.28146 1.31343 0
M  V30 1800 H 167.471 -3.86737 0.851498 0
M  V30 1801 H 168.645 -2.93344 3.55367 0
M  V30 1802 H 166.96 -2.77088 3.10823 0
M  V30 1803 H 169.557 -5.10387 1.59402 0
M  V30 1804 H 169.9 -4.15972 0.165299 0
M  V30 1805 H 170.433 -3.56852 1.75788 0
M  V30 1806 H 167.172 -4.75709 4.50978 0
M  V30 1807 H 166.692 -5.26455 2.87411 0
M  V30 1808 H 168.371 -5.48957 3.42425 0
M  V30 1809 N 168.503 -0.877838 -1.30888 0
M  V30 1810 C 169.413 -0.343096 -2.32078 0
M  V30 1811 C 170.429 0.551022 -1.65045 0
M  V30 1812 O 171.605 0.445854 -1.96403 0
M  V30 1813 C 168.67 0.439905 -3.43898 0
M  V30 1814 C 167.731 -0.483111 -4.26573 0
M  V30 1815 C 166.964 0.262616 -5.33053 0
M  V30 1816 O 167.187 1.48967 -5.50604 0
M  V30 1817 O 166.121 -0.383593 -6.00676 0
M  V30 1818 H 169.947 -1.18203 -2.79753 0
M  V30 1819 H 167.532 -0.64145 -1.34929 0
M  V30 1820 H 169.414 0.883504 -4.12034 0
M  V30 1821 H 168.089 1.25526 -2.98371 0
M  V30 1822 H 166.996 -0.975374 -3.61161 0
M  V30 1823 H 168.329 -1.26427 -4.75686 0
M  V30 1824 N 169.982 1.44106 -0.638065 0
M  V30 1825 C 170.93 2.3248 0.0748149 0
M  V30 1826 C 171.924 1.47746 0.828702 0
M  V30 1827 O 173.13 1.64049 0.740816 0
M  V30 1828 H 169.505 0.750771 0.0429686 0
M  V30 1829 H 171.476 2.90348 -0.688504 0
M  V30 1830 C 170.225 3.31843 1.03805 0
M  V30 1831 H 169.548 3.97059 0.467375 0
M  V30 1832 H 170.988 3.96345 1.50622 0
M  V30 1833 C 169.447 2.61291 2.1267 0
M  V30 1834 O 169.977 2.41702 3.20847 0
M  V30 1835 N 168.183 2.20915 1.88798 0
M  V30 1836 H 167.73 2.37047 1.00829 0
M  V30 1837 H 167.688 1.74038 2.61836 0
M  V30 1838 N 171.46 0.379036 1.52974 0
M  V30 1839 C 172.706 -0.206727 2.01744 0
M  V30 1840 C 173.039 -1.47314 1.26539 0
M  V30 1841 O 172.314 -1.91084 0.362903 0
M  V30 1842 C 172.597 -0.485066 3.56818 0
M  V30 1843 C 172.45 0.795919 4.42702 0
M  V30 1844 C 173.769 -1.28003 4.21074 0
M  V30 1845 H 170.888 -0.0736607 0.73331 0
M  V30 1846 H 173.53 0.506581 1.83122 0
M  V30 1847 H 171.68 -1.09272 3.72816 0
M  V30 1848 H 173.352 1.43307 4.38476 0
M  V30 1849 H 171.595 1.41344 4.10127 0
M  V30 1850 H 172.266 0.555947 5.49193 0
M  V30 1851 H 174.742 -0.765867 4.08991 0
M  V30 1852 H 173.618 -1.44352 5.29579 0
M  V30 1853 H 173.879 -2.29236 3.78026 0
M  V30 1854 N 172.938 -1.57226 0.108567 0
M  V30 1855 C 173.886 -2.16002 -0.862885 0
M  V30 1856 C 174.88 -1.10644 -1.28274 0
M  V30 1857 O 176.086 -1.28966 -1.2557 0
M  V30 1858 H 172.461 -0.691148 -0.296342 0
M  V30 1859 H 174.432 -2.96427 -0.342575 0
M  V30 1860 C 173.181 -2.76576 -2.10716 0
M  V30 1861 H 172.504 -3.5734 -1.793 0
M  V30 1862 H 173.944 -3.21253 -2.76717 0
M  V30 1863 C 172.403 -1.73137 -2.89007 0
M  V30 1864 O 172.933 -1.17842 -3.84026 0
M  V30 1865 N 171.139 -1.43317 -2.52801 0
M  V30 1866 H 170.686 -1.88473 -1.75601 0
M  V30 1867 H 170.644 -0.743485 -3.05483 0
M  V30 1868 N 174.416 0.165178 -1.56732 0
M  V30 1869 C 175.363 1.2044 -1.96883 0
M  V30 1870 C 176.333 1.43664 -0.833657 0
M  V30 1871 O 177.518 1.56302 -1.09427 0
M  V30 1872 C 174.658 2.53727 -2.33916 0
M  V30 1873 C 173.771 2.3783 -3.6064 0
M  V30 1874 C 172.906 3.64026 -3.86857 0
M  V30 1875 C 171.945 3.43088 -5.06909 0
M  V30 1876 N 171.082 4.61369 -5.29229 0
M  V30 1877 H 175.922 0.854996 -2.85471 0
M  V30 1878 H 173.459 0.41076 -1.41249 0
M  V30 1879 H 175.417 3.31419 -2.53411 0
M  V30 1880 H 174.047 2.8665 -1.48431 0
M  V30 1881 H 173.099 1.51282 -3.49024 0
M  V30 1882 H 174.411 2.18308 -4.4849 0
M  V30 1883 H 173.565 4.50152 -4.06753 0
M  V30 1884 H 172.304 3.86533 -2.97394 0
M  V30 1885 H 171.309 2.55349 -4.86906 0
M  V30 1886 H 172.534 3.21997 -5.97909 0
M  V30 1887 H 170.48 4.84084 -4.42718 0
M  V30 1888 H 170.397 4.44783 -6.11313 0
M  V30 1889 H 171.665 5.48761 -5.53608 0
M  V30 1890 N 175.894 1.51508 0.433938 0
M  V30 1891 C 177.141 1.64345 1.18309 0
M  V30 1892 C 177.469 0.361315 1.91115 0
M  V30 1893 O 176.724 -0.654753 1.84422 0
M  V30 1894 C 177.023 2.79928 2.22205 0
M  V30 1895 C 176.689 4.19078 1.66387 0
M  V30 1896 C 175.351 4.56932 1.50887 0
M  V30 1897 C 177.703 5.05894 1.25381 0
M  V30 1898 C 175.031 5.79305 0.928608 0
M  V30 1899 C 177.383 6.2885 0.687823 0
M  V30 1900 C 176.047 6.65473 0.519755 0
M  V30 1901 H 175.317 0.601381 0.432923 0
M  V30 1902 H 177.964 1.85549 0.473676 0
M  V30 1903 H 176.269 2.52959 2.99197 0
M  V30 1904 H 177.966 2.87059 2.79997 0
M  V30 1905 H 174.556 3.89234 1.79428 0
M  V30 1906 H 178.74 4.77253 1.36175 0
M  V30 1907 H 173.996 6.06324 0.786186 0
M  V30 1908 H 178.17 6.95461 0.361581 0
M  V30 1909 H 175.797 7.6017 0.0679979 0
M  V30 1910 N 177.372 -0.689602 1.41712 0
M  V30 1911 C 178.304 -1.815 1.39966 0
M  V30 1912 C 179.317 -1.59995 0.300917 0
M  V30 1913 O 180.506 -1.69387 0.563039 0
M  V30 1914 C 177.606 -3.18364 1.16179 0
M  V30 1915 C 176.779 -3.66847 2.38206 0
M  V30 1916 C 175.838 -4.82398 2.10186 0
M  V30 1917 O 174.864 -4.93706 2.83272 0
M  V30 1918 N 176.066 -5.70064 1.0958 0
M  V30 1919 H 178.831 -1.83488 2.36965 0
M  V30 1920 H 176.392 -0.872149 1.36401 0
M  V30 1921 H 178.384 -3.93301 0.953756 0
M  V30 1922 H 176.954 -3.11365 0.27756 0
M  V30 1923 H 176.174 -2.82751 2.74673 0
M  V30 1924 H 177.462 -3.95978 3.19498 0
M  V30 1925 H 176.86 -5.63565 0.491019 0
M  V30 1926 H 175.417 -6.44874 0.947656 0
M  V30 1927 N 178.85 -1.27639 -0.924453 0
M  V30 1928 C 179.798 -1.10485 -2.04685 0
M  V30 1929 C 180.792 -0.0270421 -1.69378 0
M  V30 1930 O 181.998 -0.185008 -1.79047 0
M  V30 1931 H 178.373 -0.340546 -0.670472 0
M  V30 1932 H 180.344 -2.05566 -2.16298 0
M  V30 1933 C 179.093 -0.772229 -3.39016 0
M  V30 1934 H 178.416 -1.59351 -3.66671 0
M  V30 1935 H 179.856 -0.692097 -4.18313 0
M  V30 1936 C 178.315 0.523554 -3.32807 0
M  V30 1937 O 178.845 1.55702 -3.70297 0
M  V30 1938 N 177.051 0.520363 -2.85903 0
M  V30 1939 H 176.598 -0.32107 -2.55591 0
M  V30 1940 H 176.556 1.38742 -2.82131 0
M  V30 1941 N 180.328 1.1314 -1.09713 0
M  V30 1942 C 181.739 1.66029 -0.853885 0
M  V30 1943 C 182.09 1.86241 0.617142 0
M  V30 1944 O 181.215 1.5834 1.47503 0
M  V30 1945 C 181.81 3.01599 -1.5435 0
M  V30 1946 C 180.369 3.51467 -1.34714 0
M  V30 1947 C 179.516 2.26648 -1.59769 0
M  V30 1948 H 182.467 0.970226 -1.25588 0
M  V30 1949 H 182.488 3.67709 -0.978267 0
M  V30 1950 H 182 2.86856 -2.6141 0
M  V30 1951 H 180.101 3.71408 -0.297838 0
M  V30 1952 H 180.214 4.314 -2.08401 0
M  V30 1953 H 178.578 2.33385 -1.01998 0
M  V30 1954 H 179.361 2.14467 -2.68065 0
M  V30 1955 N 181.806 0.884767 1.30421 0
M  V30 1956 C 183.053 0.503105 1.96151 0
M  V30 1957 C 183.381 -0.947676 1.69851 0
M  V30 1958 O 182.636 -1.68467 0.995861 0
M  V30 1959 C 182.935 0.724318 3.49983 0
M  V30 1960 C 182.601 2.15015 3.96332 0
M  V30 1961 C 181.263 2.54005 4.08699 0
M  V30 1962 C 183.615 3.07936 4.20505 0
M  V30 1963 C 180.943 3.85128 4.42599 0
M  V30 1964 C 183.295 4.3859 4.55874 0
M  V30 1965 C 181.959 4.77474 4.66449 0
M  V30 1966 H 181.229 0.184099 0.717766 0
M  V30 1967 H 183.876 1.12058 1.55291 0
M  V30 1968 H 182.181 0.0238086 3.91793 0
M  V30 1969 H 183.878 0.408617 3.98913 0
M  V30 1970 H 180.468 1.8375 3.87213 0
M  V30 1971 H 184.652 2.79033 4.10431 0
M  V30 1972 H 179.908 4.14996 4.48986 0
M  V30 1973 H 184.082 5.10629 4.7353 0
M  V30 1974 H 181.709 5.79115 4.92473 0
M  V30 1975 N 183.284 -1.43765 0.645699 0
M  V30 1976 C 184.7 -1.56509 0.312591 0
M  V30 1977 C 184.9 -1.6307 -1.18365 0
M  V30 1978 O 183.956 -1.58167 -1.96824 0
M  V30 1979 C 185.269 -2.82968 1.01733 0
M  V30 1980 C 186.817 -2.96701 0.996865 0
M  V30 1981 C 187.292 -4.25982 1.68236 0
M  V30 1982 N 188.783 -4.32829 1.64964 0
M  V30 1983 C 189.518 -5.31613 2.14885 0
M  V30 1984 N 189.014 -6.36718 2.73061 0
M  V30 1985 N 190.807 -5.23217 2.05428 0
M  V30 1986 H 182.958 -1.3775 1.61675 0
M  V30 1987 H 185.221 -0.661067 0.679481 0
M  V30 1988 H 184.927 -2.84156 2.0724 0
M  V30 1989 H 184.801 -3.72957 0.564177 0
M  V30 1990 H 187.188 -2.95058 -0.0497719 0
M  V30 1991 H 187.269 -2.08022 1.48865 0
M  V30 1992 H 186.913 -4.28386 2.72852 0
M  V30 1993 H 186.843 -5.13545 1.16529 0
M  V30 1994 H 189.334 -3.57493 1.22503 0
M  V30 1995 H 189.647 -7.08401 3.08848 0
M  V30 1996 H 187.992 -6.37362 2.77118 0
M  V30 1997 H 191.183 -4.40019 1.59689 0
M  V30 1998 H 191.356 -6.00045 2.44643 0
M  V30 1999 N 184.763 -0.387143 -1.52771 0
M  V30 2000 C 186.179 -0.037007 -1.59557 0
M  V30 2001 C 186.379 1.44801 -1.40124 0
M  V30 2002 O 185.435 2.21227 -1.21716 0
M  V30 2003 C 186.748 -0.512256 -2.96305 0
M  V30 2004 C 188.296 -0.468328 -3.09476 0
M  V30 2005 C 188.771 -0.919731 -4.4867 0
M  V30 2006 N 190.262 -0.875656 -4.54848 0
M  V30 2007 C 190.997 -1.19637 -5.6078 0
M  V30 2008 N 190.493 -1.58745 -6.74368 0
M  V30 2009 N 192.286 -1.11776 -5.50874 0
M  V30 2010 H 184.437 -1.35395 -1.63652 0
M  V30 2011 H 186.7 -0.554818 -0.768688 0
M  V30 2012 H 186.406 -1.54935 -3.15734 0
M  V30 2013 H 186.28 0.089805 -3.77093 0
M  V30 2014 H 188.667 0.559671 -2.89744 0
M  V30 2015 H 188.748 -1.10616 -2.30646 0
M  V30 2016 H 188.392 -1.94595 -4.69143 0
M  V30 2017 H 188.322 -0.258927 -5.25963 0
M  V30 2018 H 190.813 -0.587843 -3.733 0
M  V30 2019 H 191.126 -1.81586 -7.51163 0
M  V30 2020 H 189.471 -1.6263 -6.75705 0
M  V30 2021 H 192.662 -0.811264 -4.61016 0
M  V30 2022 H 192.835 -1.37103 -6.3333 0
M  V30 2023 N 186.241 1.57166 -0.116904 0
M  V30 2024 C 187.652 1.82169 0.408809 0
M  V30 2025 C 188.003 1.03393 1.66746 0
M  V30 2026 O 187.128 0.269886 2.1471 0
M  V30 2027 C 187.723 3.30429 0.748466 0
M  V30 2028 C 186.282 3.5612 1.21882 0
M  V30 2029 C 185.429 2.76374 0.226452 0
M  V30 2030 H 188.38 1.5497 -0.342063 0
M  V30 2031 H 188.401 3.44943 1.60607 0
M  V30 2032 H 187.913 3.87737 -0.167784 0
M  V30 2033 H 186.014 3.04168 2.15204 0
M  V30 2034 H 186.127 4.64705 1.16559 0
M  V30 2035 H 184.491 2.44515 0.713063 0
M  V30 2036 H 185.274 3.3644 -0.682859 0
M  V30 2037 N 187.719 -0.156864 1.56817 0
M  V30 2038 C 188.965 -0.872416 1.83076 0
M  V30 2039 C 189.298 -1.81261 0.697001 0
M  V30 2040 O 188.573 -1.92171 -0.30008 0
M  V30 2041 C 188.856 -1.65551 3.19789 0
M  V30 2042 C 188.709 -0.737467 4.43713 0
M  V30 2043 C 190.028 -2.62012 3.53606 0
M  V30 2044 H 187.147 -0.315715 0.665953 0
M  V30 2045 H 189.789 -0.138004 1.89498 0
M  V30 2046 H 187.939 -2.28159 3.14445 0
M  V30 2047 H 189.611 -0.123143 4.61136 0
M  V30 2048 H 187.854 -0.0464067 4.33775 0
M  V30 2049 H 188.525 -1.32122 5.35955 0
M  V30 2050 H 191.001 -2.09525 3.59497 0
M  V30 2051 H 189.877 -3.13861 4.50314 0
M  V30 2052 H 190.138 -3.42902 2.79053 0
M  V30 2053 N 189.197 -1.51736 -0.425897 0
M  V30 2054 C 190.16 -1.73271 -1.50032 0
M  V30 2055 C 191.16 -0.602639 -1.4908 0
M  V30 2056 O 192.35 -0.87033 -1.509 0
M  V30 2057 C 189.482 -1.79969 -2.89523 0
M  V30 2058 H 190.675 -2.69172 -1.32237 0
M  V30 2059 H 188.228 -1.41899 -0.65532 0
M  V30 2060 H 188.963 -0.859241 -3.1271 0
M  V30 2061 H 188.748 -2.62109 -2.91619 0
M  V30 2062 H 190.238 -1.9843 -3.67444 0
M  V30 2063 N 190.675 0.682077 -1.42076 0
M  V30 2064 C 191.903 1.47057 -1.4554 0
M  V30 2065 C 192.318 1.8869 -0.0645779 0
M  V30 2066 O 191.675 1.57666 0.919115 0
M  V30 2067 C 191.726 2.72442 -2.37609 0
M  V30 2068 O 191.447 2.32559 -3.71279 0
M  V30 2069 C 192.948 3.66069 -2.50017 0
M  V30 2070 H 190.168 0.452737 -0.495248 0
M  V30 2071 H 192.712 0.838695 -1.8651 0
M  V30 2072 H 190.867 3.31835 -1.9991 0
M  V30 2073 H 191.281 3.13475 -4.20516 0
M  V30 2074 H 192.755 4.50792 -3.18576 0
M  V30 2075 H 193.232 4.11476 -1.53572 0
M  V30 2076 H 193.838 3.12572 -2.88407 0
M  V30 2077 N 192.153 1.28127 0.917671 0
M  V30 2078 C 193.381 1.17892 1.70026 0
M  V30 2079 C 193.796 -0.262958 1.8696 0
M  V30 2080 O 193.153 -1.17811 1.3938 0
M  V30 2081 C 193.204 1.86872 3.09453 0
M  V30 2082 O 192.925 3.25428 2.93306 0
M  V30 2083 C 194.426 1.8289 4.03815 0
M  V30 2084 H 191.646 0.40942 0.531617 0
M  V30 2085 H 194.19 1.69181 1.14883 0
M  V30 2086 H 192.345 1.39464 3.61426 0
M  V30 2087 H 192.759 3.59918 3.81523 0
M  V30 2088 H 194.233 2.35751 4.99125 0
M  V30 2089 H 194.71 0.800412 4.31845 0
M  V30 2090 H 195.316 2.29959 3.57769 0
M  V30 2091 N 193.631 -1.12557 1.10312 0
M  V30 2092 C 194.88 -1.83395 0.839588 0
M  V30 2093 C 195.193 -1.84939 -0.636929 0
M  V30 2094 O 196.399 -2.51761 -1.01631 0
M  V30 2095 C 194.855 -3.29303 1.45215 0
M  V30 2096 C 194.463 -3.36122 2.96186 0
M  V30 2097 C 196.207 -4.05121 1.26796 0
M  V30 2098 C 194.114 -4.76357 3.50483 0
M  V30 2099 H 193.044 -0.687133 0.310425 0
M  V30 2100 H 195.695 -1.26746 1.32694 0
M  V30 2101 H 194.077 -3.85812 0.892469 0
M  V30 2102 H 195.251 -2.89559 3.58458 0
M  V30 2103 H 193.566 -2.73776 3.13745 0
M  V30 2104 H 196.163 -5.08668 1.64806 0
M  V30 2105 H 196.506 -4.15773 0.209409 0
M  V30 2106 H 197.039 -3.54967 1.79563 0
M  V30 2107 H 193.778 -4.70899 4.55998 0
M  V30 2108 H 193.298 -5.23377 2.92978 0
M  V30 2109 H 194.977 -5.45294 3.48228 0
M  V30 2110 N 195.109 -0.891671 -1.2995 0
M  V30 2111 C 196.356 -0.513501 -1.95881 0
M  V30 2112 C 196.684 0.938655 -1.70351 0
M  V30 2113 O 195.939 1.67936 -1.00478 0
M  V30 2114 C 196.238 -0.742868 -3.49594 0
M  V30 2115 C 195.904 -2.17114 -3.95186 0
M  V30 2116 C 194.566 -2.56169 -4.07346 0
M  V30 2117 C 196.918 -3.10162 -4.18866 0
M  V30 2118 C 194.246 -3.87469 -4.4055 0
M  V30 2119 C 196.598 -4.41001 -4.53542 0
M  V30 2120 C 195.262 -4.79941 -4.63911 0
M  V30 2121 H 194.532 -0.187903 -0.71678 0
M  V30 2122 H 197.179 -1.1288 -1.54694 0
M  V30 2123 H 195.484 -0.044586 -3.91775 0
M  V30 2124 H 197.181 -0.429767 -3.9869 0
M  V30 2125 H 193.771 -1.85801 -3.86233 0
M  V30 2126 H 197.955 -2.81206 -4.08946 0
M  V30 2127 H 193.211 -4.17371 -4.46779 0
M  V30 2128 H 197.385 -5.13133 -4.70815 0
M  V30 2129 H 195.012 -5.81719 -4.89395 0
M  V30 2130 N 196.587 1.43421 -0.653314 0
M  V30 2131 C 197.517 2.33487 0.0246656 0
M  V30 2132 C 198.498 1.49475 0.811863 0
M  V30 2133 O 199.683 1.78139 0.773322 0
M  V30 2134 C 196.813 3.32841 0.99166 0
M  V30 2135 C 195.767 4.26842 0.314568 0
M  V30 2136 C 195.093 5.16236 1.39302 0
M  V30 2137 C 196.393 5.16243 -0.793095 0
M  V30 2138 H 198.087 2.90427 -0.727481 0
M  V30 2139 H 195.633 1.39649 -0.351287 0
M  V30 2140 H 197.586 3.94747 1.47487 0
M  V30 2141 H 196.31 2.74158 1.77497 0
M  V30 2142 H 194.969 3.663 -0.148199 0
M  V30 2143 H 194.617 4.53891 2.16776 0
M  V30 2144 H 194.317 5.79948 0.945223 0
M  V30 2145 H 195.841 5.81015 1.87759 0
M  V30 2146 H 197.255 5.71958 -0.392039 0
M  V30 2147 H 195.652 5.88676 -1.16536 0
M  V30 2148 H 196.722 4.55927 -1.65103 0
M  V30 2149 N 198.065 0.39524 1.52563 0
M  V30 2150 C 199.312 -0.185044 2.01653 0
M  V30 2151 C 199.64 -1.46317 1.28146 0
M  V30 2152 O 198.895 -1.9213 0.372074 0
M  V30 2153 C 199.194 -0.493444 3.53977 0
M  V30 2154 C 198.86 0.69384 4.4553 0
M  V30 2155 C 197.522 1.01954 4.70275 0
M  V30 2156 C 199.874 1.48785 4.99512 0
M  V30 2157 C 197.202 2.14069 5.46252 0
M  V30 2158 C 199.554 2.59965 5.76716 0
M  V30 2159 C 198.218 2.93037 5.99738 0
M  V30 2160 H 197.488 -0.0677123 0.7379 0
M  V30 2161 H 200.135 0.533807 1.8391 0
M  V30 2162 H 198.44 -1.29369 3.69825 0
M  V30 2163 H 200.137 -0.955163 3.89458 0
M  V30 2164 H 196.727 0.429987 4.26438 0
M  V30 2165 H 200.911 1.24946 4.80315 0
M  V30 2166 H 196.167 2.40056 5.62302 0
M  V30 2167 H 200.341 3.21887 6.17545 0
M  V30 2168 H 197.968 3.8003 6.58393 0
M  V30 2169 N 199.544 -1.57102 0.125237 0
M  V30 2170 C 200.792 -1.95021 -0.530198 0
M  V30 2171 C 201.113 -1.00982 -1.66816 0
M  V30 2172 O 200.383 -0.0672693 -1.95784 0
M  V30 2173 H 198.963 -0.720046 -0.198853 0
M  V30 2174 H 201.625 -1.93916 0.19564 0
M  V30 2175 H 200.721 -2.98211 -0.920681 0
M  V30 2176 N 201.022 0.148545 -1.56898 0
M  V30 2177 C 202.25 0.876389 -1.87422 0
M  V30 2178 C 202.665 1.74809 -0.713256 0
M  V30 2179 O 202.022 1.79725 0.317025 0
M  V30 2180 C 202.073 1.73438 -3.17178 0
M  V30 2181 O 201.794 0.897809 -4.28802 0
M  V30 2182 C 203.295 2.56993 -3.61205 0
M  V30 2183 H 200.515 0.253489 -0.621277 0
M  V30 2184 H 203.059 0.141798 -2.04008 0
M  V30 2185 H 201.214 2.42205 -3.0235 0
M  V30 2186 H 201.628 1.48672 -5.02988 0
M  V30 2187 H 203.102 3.12773 -4.54838 0
M  V30 2188 H 203.579 3.32958 -2.86419 0
M  V30 2189 H 204.185 1.9352 -3.78722 0
M  V30 2190 N 202.5 1.5196 0.417844 0
M  V30 2191 C 203.43 1.77634 1.51554 0
M  V30 2192 C 204.411 0.626918 1.58126 0
M  V30 2193 O 205.596 0.871632 1.7354 0
M  V30 2194 C 202.726 1.91911 2.8946 0
M  V30 2195 C 201.68 3.07463 2.97743 0
M  V30 2196 C 201.006 3.06951 4.37819 0
M  V30 2197 C 202.306 4.47082 2.70027 0
M  V30 2198 H 204 2.6955 1.3032 0
M  V30 2199 H 201.546 1.29706 0.625492 0
M  V30 2200 H 203.499 2.08455 3.6623 0
M  V30 2201 H 202.223 0.966598 3.11969 0
M  V30 2202 H 200.882 2.90656 2.23416 0
M  V30 2203 H 200.53 2.09438 4.57323 0
M  V30 2204 H 200.23 3.84556 4.44286 0
M  V30 2205 H 201.754 3.25613 5.16535 0
M  V30 2206 H 203.168 4.6414 3.36522 0
M  V30 2207 H 201.565 5.2654 2.87881 0
M  V30 2208 H 202.635 4.55777 1.65514 0
M  V30 2209 N 203.978 -0.674533 1.42435 0
M  V30 2210 C 205.224 -1.43671 1.43131 0
M  V30 2211 C 205.557 -1.94142 0.0476021 0
M  V30 2212 O 204.832 -1.70924 -0.928188 0
M  V30 2213 C 205.115 -2.63355 2.45594 0
M  V30 2214 C 204.968 -2.18514 3.93156 0
M  V30 2215 C 206.287 -3.65571 2.45043 0
M  V30 2216 H 203.406 -0.521077 0.521198 0
M  V30 2217 H 206.048 -0.766551 1.7385 0
M  V30 2218 H 204.198 -3.2053 2.19528 0
M  V30 2219 H 205.87 -1.66504 4.30202 0
M  V30 2220 H 204.113 -1.50086 4.07009 0
M  V30 2221 H 204.784 -3.04484 4.60428 0
M  V30 2222 H 207.26 -3.18113 2.68223 0
M  V30 2223 H 206.136 -4.46893 3.18713 0
M  V30 2224 H 206.397 -4.16716 1.47649 0
M  V30 2225 N 205.456 -1.28612 -0.910864 0
M  V30 2226 C 206.684 -1.18792 -1.69399 0
M  V30 2227 C 207.099 0.253039 -1.87097 0
M  V30 2228 O 206.456 1.17071 -1.40003 0
M  V30 2229 C 206.507 -1.88511 -3.08457 0
M  V30 2230 O 206.228 -3.26979 -2.91576 0
M  V30 2231 C 207.729 -1.85029 -4.02839 0
M  V30 2232 H 204.949 -0.412233 -0.529438 0
M  V30 2233 H 207.493 -1.69788 -1.13984 0
M  V30 2234 H 205.648 -1.41379 -3.60681 0
M  V30 2235 H 206.062 -3.61936 -3.79608 0
M  V30 2236 H 207.536 -2.38395 -4.97867 0
M  V30 2237 H 208.013 -0.823303 -4.31414 0
M  V30 2238 H 208.619 -2.31853 -3.56545 0
M  V30 2239 N 206.934 1.1197 -1.10907 0
M  V30 2240 C 208.183 1.82947 -0.849302 0
M  V30 2241 C 208.496 1.85275 0.627112 0
M  V30 2242 O 209.702 2.52296 1.00295 0
M  V30 2243 C 208.158 3.28529 -1.46959 0
M  V30 2244 C 207.766 3.34546 -2.97965 0
M  V30 2245 C 209.51 4.04443 -1.28942 0
M  V30 2246 C 207.417 4.74491 -3.53004 0
M  V30 2247 H 206.347 0.685477 -0.314065 0
M  V30 2248 H 208.998 1.2604 -1.33365 0
M  V30 2249 H 207.38 3.85333 -0.912917 0
M  V30 2250 H 208.554 2.87654 -3.59989 0
M  V30 2251 H 206.869 2.72108 -3.15192 0
M  V30 2252 H 209.466 5.07787 -1.67502 0
M  V30 2253 H 209.809 4.15656 -0.231456 0
M  V30 2254 H 210.342 3.5401 -1.81443 0
M  V30 2255 H 207.081 4.68474 -4.58489 0
M  V30 2256 H 206.601 5.21816 -2.9575 0
M  V30 2257 H 208.28 5.4344 -3.51115 0
M  V30 2258 N 208.412 0.89855 1.29475 0
M  V30 2259 C 209.658 0.534065 1.96263 0
M  V30 2260 C 210.013 -0.909415 1.69551 0
M  V30 2261 O 209.306 -1.63596 0.997349 0
M  V30 2262 C 209.5 0.761398 3.49195 0
M  V30 2263 C 209.329 2.22542 3.90775 0
M  V30 2264 C 208.099 2.87264 4.15701 0
M  V30 2265 C 210.297 3.20051 4.02581 0
M  V30 2266 N 208.279 4.24121 4.4384 0
M  V30 2267 C 209.65 4.42023 4.34759 0
M  V30 2268 C 211.705 3.15657 3.85052 0
M  V30 2269 C 210.408 5.60161 4.51235 0
M  V30 2270 C 212.434 4.33078 4.02737 0
M  V30 2271 C 211.796 5.5382 4.35273 0
M  V30 2272 H 207.895 0.245013 0.742625 0
M  V30 2273 H 210.479 1.15912 1.56437 0
M  V30 2274 H 208.65 0.165732 3.88046 0
M  V30 2275 H 210.382 0.362462 4.03074 0
M  V30 2276 H 207.137 2.38064 4.09417 0
M  V30 2277 H 207.561 4.94839 4.6202 0
M  V30 2278 H 212.203 2.23396 3.58962 0
M  V30 2279 H 209.921 6.52913 4.76162 0
M  V30 2280 H 213.507 4.31163 3.90628 0
M  V30 2281 H 212.387 6.43166 4.48672 0
M  V30 2282 N 209.89 -1.43072 0.660911 0
M  V30 2283 C 210.82 -2.33497 -0.0122829 0
M  V30 2284 C 211.801 -1.49903 -0.803925 0
M  V30 2285 O 212.986 -1.78546 -0.763864 0
M  V30 2286 C 210.116 -3.33363 -0.973994 0
M  V30 2287 C 209.07 -4.27003 -0.291928 0
M  V30 2288 C 208.396 -5.16967 -1.36562 0
M  V30 2289 C 209.696 -5.15816 0.820462 0
M  V30 2290 H 211.39 -2.90038 0.742873 0
M  V30 2291 H 208.936 -1.39461 0.358688 0
M  V30 2292 H 210.889 -3.95524 -1.45392 0
M  V30 2293 H 209.613 -2.75095 -1.7604 0
M  V30 2294 H 208.272 -3.66217 0.167623 0
M  V30 2295 H 207.92 -4.55034 -2.14366 0
M  V30 2296 H 207.62 -5.80441 -0.914454 0
M  V30 2297 H 209.144 -5.82003 -1.84675 0
M  V30 2298 H 210.558 -5.71742 0.422366 0
M  V30 2299 H 208.955 -5.8805 1.19656 0
M  V30 2300 H 210.025 -4.55045 1.67518 0
M  V30 2301 N 211.368 -0.403325 -1.52352 0
M  V30 2302 C 212.616 0.174003 -2.0135 0
M  V30 2303 C 212.937 1.46139 -1.29106 0
M  V30 2304 O 212.207 1.91448 -0.415253 0
M  V30 2305 H 210.787 0.0672911 -0.743963 0
M  V30 2306 H 213.449 -0.538235 -1.87321 0
M  V30 2307 H 212.545 0.374254 -3.09848 0
M  V30 2308 N 212.846 1.57033 -0.133567 0
M  V30 2309 C 214.095 1.94861 0.520768 0
M  V30 2310 C 214.408 1.02012 1.66892 0
M  V30 2311 O 215.614 1.29365 2.38699 0
M  V30 2312 C 214.07 3.46362 0.977809 0
M  V30 2313 C 213.678 4.47773 -0.142674 0
M  V30 2314 C 215.422 3.93083 1.60269 0
M  V30 2315 C 213.329 5.90468 0.331883 0
M  V30 2316 H 212.259 0.727453 0.198315 0
M  V30 2317 H 214.91 1.82227 -0.215759 0
M  V30 2318 H 213.292 3.54282 1.7692 0
M  V30 2319 H 214.466 4.51536 -0.919317 0
M  V30 2320 H 212.781 4.10891 -0.675124 0
M  V30 2321 H 215.378 4.97121 1.96914 0
M  V30 2322 H 215.721 3.33876 2.48662 0
M  V30 2323 H 216.254 3.88025 0.876453 0
M  V30 2324 H 212.993 6.53463 -0.516341 0
M  V30 2325 H 212.513 5.90094 1.07469 0
M  V30 2326 H 214.192 6.42179 0.788332 0
M  V30 2327 N 214.325 -0.140222 1.56975 0
M  V30 2328 C 215.573 -0.850005 1.83356 0
M  V30 2329 C 215.894 -1.81399 0.71551 0
M  V30 2330 O 215.164 -1.94136 -0.262294 0
M  V30 2331 H 213.744 -0.316886 0.676456 0
M  V30 2332 H 216.406 -0.132608 1.94448 0
M  V30 2333 H 215.502 -1.40814 2.78528 0
M  V30 2334 N 215.803 -1.52179 -0.40978 0
M  V30 2335 C 216.766 -1.74853 -1.48186 0
M  V30 2336 C 217.766 -0.618417 -1.48433 0
M  V30 2337 O 218.956 -0.886286 -1.49969 0
M  V30 2338 C 216.088 -1.8303 -2.87598 0
M  V30 2339 H 217.281 -2.70559 -1.29374 0
M  V30 2340 H 214.834 -1.42586 -0.640233 0
M  V30 2341 H 215.569 -0.89236 -3.11781 0
M  V30 2342 H 215.354 -2.65187 -2.88822 0
M  V30 2343 H 216.844 -2.02316 -3.65319 0
M  V30 2344 N 217.281 0.66697 -1.42791 0
M  V30 2345 C 218.509 1.45505 -1.47091 0
M  V30 2346 C 218.924 1.8861 -0.0845873 0
M  V30 2347 O 218.281 1.58632 0.90234 0
M  V30 2348 C 218.332 2.69906 -2.40485 0
M  V30 2349 O 218.053 2.28608 -3.73725 0
M  V30 2350 C 219.554 3.63396 -2.53886 0
M  V30 2351 H 216.774 0.447459 -0.500022 0
M  V30 2352 H 219.318 0.818866 -1.8739 0
M  V30 2353 H 217.473 3.29696 -2.03419 0
M  V30 2354 H 217.887 3.08997 -4.23817 0
M  V30 2355 H 219.361 4.47387 -3.2334 0
M  V30 2356 H 219.838 4.09824 -1.57927 0
M  V30 2357 H 220.444 3.09495 -2.91706 0
M  V30 2358 N 218.759 1.29093 0.90403 0
M  V30 2359 C 220.006 1.16813 1.65411 0
M  V30 2360 C 220.334 -0.28128 1.92455 0
M  V30 2361 O 219.589 -1.22006 1.53013 0
M  V30 2362 C 219.888 1.92224 3.01305 0
M  V30 2363 C 219.554 3.41968 2.93885 0
M  V30 2364 C 218.216 3.82807 2.91569 0
M  V30 2365 C 220.568 4.37409 2.83413 0
M  V30 2366 C 217.896 5.1741 2.76594 0
M  V30 2367 C 220.248 5.72097 2.69977 0
M  V30 2368 C 218.912 6.12199 2.66024 0
M  V30 2369 H 218.182 0.42745 0.605283 0
M  V30 2370 H 220.829 1.59981 1.05254 0
M  V30 2371 H 219.134 1.41635 3.65304 0
M  V30 2372 H 220.831 1.80131 3.58265 0
M  V30 2373 H 217.421 3.09504 2.96488 0
M  V30 2374 H 221.605 4.06813 2.84283 0
M  V30 2375 H 216.861 5.47596 2.71935 0
M  V30 2376 H 221.035 6.45704 2.60844 0
M  V30 2377 H 218.662 7.16448 2.54178 0
M  V30 2378 N 220.237 -1.11381 1.11499 0
M  V30 2379 C 221.648 -1.6465 0.880191 0
M  V30 2380 C 221.999 -1.87199 -0.587434 0
M  V30 2381 O 221.124 -1.60667 -1.44966 0
M  V30 2382 C 221.719 -2.99105 1.59128 0
M  V30 2383 C 220.278 -3.49279 1.40289 0
M  V30 2384 C 219.425 -2.24077 1.63354 0
M  V30 2385 H 222.376 -0.950123 1.27116 0
M  V30 2386 H 222.397 -3.66107 1.03664 0
M  V30 2387 H 221.909 -2.82661 2.65941 0
M  V30 2388 H 220.01 -3.70887 0.356888 0
M  V30 2389 H 220.123 -4.2803 2.15238 0
M  V30 2390 H 218.487 -2.31733 1.05698 0
M  V30 2391 H 219.27 -2.10175 2.71443 0
M  V30 2392 N 221.715 -0.905404 -1.28997 0
M  V30 2393 C 222.645 -0.404212 -2.29975 0
M  V30 2394 C 223.626 0.523784 -1.61835 0
M  V30 2395 O 224.811 0.433298 -1.89304 0
M  V30 2396 C 221.941 0.364042 -3.45387 0
M  V30 2397 C 220.895 -0.474048 -4.25367 0
M  V30 2398 C 220.221 0.422045 -5.33032 0
M  V30 2399 C 221.521 -1.72696 -4.92923 0
M  V30 2400 H 223.215 -1.24807 -2.72146 0
M  V30 2401 H 220.761 -0.601585 -1.30832 0
M  V30 2402 H 222.714 0.725447 -4.15109 0
M  V30 2403 H 221.438 1.24174 -3.02074 0
M  V30 2404 H 220.097 -0.81786 -3.57361 0
M  V30 2405 H 219.745 1.29804 -4.85963 0
M  V30 2406 H 219.445 -0.135057 -5.87445 0
M  V30 2407 H 220.969 0.779517 -6.05604 0
M  V30 2408 H 222.383 -1.43495 -5.55051 0
M  V30 2409 H 220.78 -2.22582 -5.57295 0
M  V30 2410 H 221.85 -2.45964 -4.17887 0
M  V30 2411 N 223.193 1.4272 -0.668489 0
M  V30 2412 C 224.47 1.95248 -0.117373 0
M  V30 2413 C 224.85 1.60919 1.36632 0
M  V30 2414 O 224.198 0.902095 2.09939 0
M  V30 2415 C 224.408 3.46927 -0.379806 0
M  V30 2416 C 225.756 4.23588 -0.292923 0
M  V30 2417 O 226.78 3.5482 -0.313204 0
M  V30 2418 O 225.639 5.46017 -0.229697 0
M  V30 2419 H 222.733 0.827 0.00079152 0
M  V30 2420 H 225.279 1.52581 -0.742783 0
M  V30 2421 H 224.051 3.65096 -1.40786 0
M  V30 2422 H 223.674 3.96627 0.277923 0
M  V30 2423 N 224.671 0.411399 1.52136 0
M  V30 2424 C 225.618 -0.412975 2.27075 0
M  V30 2425 C 226.588 -1.03912 1.29582 0
M  V30 2426 O 227.773 -1.06296 1.58448 0
M  V30 2427 C 224.913 -1.52247 3.09701 0
M  V30 2428 C 224.026 -0.917021 4.22155 0
M  V30 2429 C 223.161 -1.9994 4.92135 0
M  V30 2430 C 222.2 -1.37101 5.96548 0
M  V30 2431 N 221.337 -2.39364 6.60038 0
M  V30 2432 H 226.177 0.232499 2.97092 0
M  V30 2433 H 223.714 0.126496 1.46555 0
M  V30 2434 H 225.672 -2.17674 3.55913 0
M  V30 2435 H 224.302 -2.13794 2.41851 0
M  V30 2436 H 223.354 -0.151742 3.80097 0
M  V30 2437 H 224.666 -0.418006 4.97045 0
M  V30 2438 H 223.82 -2.73088 5.41763 0
M  V30 2439 H 222.559 -2.53208 4.16818 0
M  V30 2440 H 221.564 -0.624873 5.46237 0
M  V30 2441 H 222.789 -0.845998 6.7381 0
M  V30 2442 H 220.735 -2.91759 5.87548 0
M  V30 2443 H 220.652 -1.9428 7.3061 0
M  V30 2444 H 221.92 -3.12074 7.14304 0
M  V30 2445 N 226.149 -1.5696 0.141893 0
M  V30 2446 C 227.377 -2.00322 -0.517579 0
M  V30 2447 C 227.792 -1.02193 -1.58752 0
M  V30 2448 O 227.149 -0.0181619 -1.82491 0
M  V30 2449 C 227.2 -3.43618 -1.12289 0
M  V30 2450 O 226.921 -4.37995 -0.0956929 0
M  V30 2451 C 228.422 -4.02231 -1.86347 0
M  V30 2452 H 225.642 -0.657243 -0.135177 0
M  V30 2453 H 228.186 -2.03146 0.234973 0
M  V30 2454 H 226.341 -3.41662 -1.82609 0
M  V30 2455 H 226.755 -5.21729 -0.538469 0
M  V30 2456 H 228.229 -5.04509 -2.23997 0
M  V30 2457 H 228.706 -3.42655 -2.74744 0
M  V30 2458 H 229.312 -4.07802 -1.20737 0
M  V30 2459 N 227.627 0.131896 -1.57047 0
M  V30 2460 C 228.557 1.16384 -2.02428 0
M  V30 2461 C 229.538 1.43936 -0.90644 0
M  V30 2462 O 230.723 1.54599 -1.17528 0
M  V30 2463 C 227.853 2.49328 -2.4177 0
M  V30 2464 C 226.807 2.36266 -3.56879 0
M  V30 2465 C 226.133 3.74057 -3.8208 0
M  V30 2466 C 227.433 1.834 -4.89042 0
M  V30 2467 H 229.127 0.786433 -2.88887 0
M  V30 2468 H 226.673 0.376855 -1.38981 0
M  V30 2469 H 228.626 3.21759 -2.7212 0
M  V30 2470 H 227.35 2.88934 -1.52266 0
M  V30 2471 H 226.009 1.66286 -3.26718 0
M  V30 2472 H 225.657 4.11125 -2.89803 0
M  V30 2473 H 225.357 3.66174 -4.59554 0
M  V30 2474 H 226.881 4.48012 -4.1487 0
M  V30 2475 H 228.295 2.45636 -5.18011 0
M  V30 2476 H 226.692 1.8637 -5.70426 0
M  V30 2477 H 227.762 0.790662 -4.7841 0
M  V30 2478 N 229.106 1.52395 0.401703 0
M  V30 2479 C 230.334 1.70676 1.16949 0
M  V30 2480 C 230.749 0.419503 1.8408 0
M  V30 2481 O 230.106 -0.605061 1.72178 0
M  V30 2482 C 230.157 2.84753 2.22706 0
M  V30 2483 O 229.878 4.08495 1.58314 0
M  V30 2484 C 231.379 3.14608 3.12309 0
M  V30 2485 H 228.599 0.571787 0.351142 0
M  V30 2486 H 231.143 1.98987 0.471652 0
M  V30 2487 H 229.298 2.58941 2.88147 0
M  V30 2488 H 229.712 4.72117 2.28485 0
M  V30 2489 H 231.186 3.97923 3.82572 0
M  V30 2490 H 231.663 2.28464 3.75101 0
M  V30 2491 H 232.269 3.42212 2.52529 0
M  V30 2492 N 230.584 -0.659388 1.43143 0
M  V30 2493 C 231.514 -1.78422 1.50625 0
M  V30 2494 C 232.495 -1.66216 0.361443 0
M  V30 2495 O 233.68 -1.85404 0.577834 0
M  V30 2496 C 230.81 -3.16815 1.42287 0
M  V30 2497 C 229.764 -3.43777 2.54954 0
M  V30 2498 C 229.09 -4.81905 2.31671 0
M  V30 2499 C 230.39 -3.39134 3.97222 0
M  V30 2500 H 232.084 -1.72417 2.44771 0
M  V30 2501 H 229.63 -0.828084 1.17808 0
M  V30 2502 H 231.583 -3.95253 1.46127 0
M  V30 2503 H 230.307 -3.23534 0.446435 0
M  V30 2504 H 228.966 -2.67707 2.50457 0
M  V30 2505 H 228.614 -4.85294 1.32284 0
M  V30 2506 H 228.314 -5.00906 3.07192 0
M  V30 2507 H 229.838 -5.62609 2.37284 0
M  V30 2508 H 231.252 -4.07518 4.03239 0
M  V30 2509 H 229.649 -3.69671 4.72719 0
M  V30 2510 H 230.719 -2.37426 4.22797 0
M  V30 2511 N 232.062 -1.29571 -0.897171 0
M  V30 2512 C 233.31 -1.17456 -1.64464 0
M  V30 2513 C 233.631 0.273698 -1.9307 0
M  V30 2514 O 232.901 1.18684 -1.55855 0
M  V30 2515 H 231.481 -0.431706 -0.609622 0
M  V30 2516 H 234.143 -1.62531 -1.07562 0
M  V30 2517 H 233.239 -1.72648 -2.59998 0
M  V30 2518 N 233.54 1.10788 -1.12088 0
M  V30 2519 C 234.47 2.19083 -0.807755 0
M  V30 2520 C 235.451 1.6858 0.226859 0
M  V30 2521 O 236.636 1.93997 0.0888475 0
M  V30 2522 C 233.766 3.46344 -0.257576 0
M  V30 2523 C 232.72 4.101 -1.22483 0
M  V30 2524 C 232.046 5.32016 -0.535052 0
M  V30 2525 C 233.346 4.54236 -2.57811 0
M  V30 2526 H 235.04 2.45534 -1.71328 0
M  V30 2527 H 232.586 1.1801 -0.825205 0
M  V30 2528 H 234.539 4.21392 -0.0262679 0
M  V30 2529 H 233.263 3.19373 0.683278 0
M  V30 2530 H 231.922 3.37054 -1.44189 0
M  V30 2531 H 231.57 5.01319 0.410827 0
M  V30 2532 H 231.27 5.75625 -1.18024 0
M  V30 2533 H 232.794 6.09799 -0.312695 0
M  V30 2534 H 234.208 5.20575 -2.40155 0
M  V30 2535 H 232.605 5.08682 -3.18375 0
M  V30 2536 H 233.675 3.6734 -3.16528 0
M  V30 2537 N 235.018 0.912232 1.28515 0
M  V30 2538 C 236.265 0.544599 1.95039 0
M  V30 2539 C 236.593 -0.911435 1.71823 0
M  V30 2540 O 235.848 -1.66317 1.03137 0
M  V30 2541 C 236.147 0.798392 3.48368 0
M  V30 2542 C 235.813 2.23374 3.91682 0
M  V30 2543 C 234.475 2.62617 4.03219 0
M  V30 2544 C 236.827 3.16786 4.13879 0
M  V30 2545 C 234.155 3.94429 4.3433 0
M  V30 2546 C 236.507 4.48161 4.46469 0
M  V30 2547 C 235.171 4.8726 4.56217 0
M  V30 2548 H 234.441 0.199283 0.7137 0
M  V30 2549 H 237.088 1.15327 1.52879 0
M  V30 2550 H 235.393 0.106908 3.91654 0
M  V30 2551 H 237.09 0.493141 3.97956 0
M  V30 2552 H 233.68 1.91922 3.83228 0
M  V30 2553 H 237.864 2.87677 4.0442 0
M  V30 2554 H 233.12 4.24426 4.40082 0
M  V30 2555 H 237.294 5.20559 4.62592 0
M  V30 2556 H 234.921 5.89431 4.80078 0
M  V30 2557 O 236.535 -1.39418 0.815163 0
M  V30 2558 H 237.226 -1.89641 0.394473 0
M  V30 END ATOM
M  V30 BEGIN BOND
M  V30 END BOND
M  V30 END CTAB
M  END
$$$$
