drugbank_target|P40871 2,3-dihydroxybenzoate-AMP ligase (DB01672)
 OpenBabel12092119503D

  0  0  0     0  0            999 V3000
M  V30 BEGIN CTAB
M  V30 COUNTS 8421 8520 0 0 0
M  V30 BEGIN ATOM
M  V30 1 H -0.908 1.98254 -0.117106 0
M  V30 2 N 0 1.576 0 0
M  V30 3 C 0.933 2.03868 1.02534 0
M  V30 4 C 1.911 0.928543 1.3348 0
M  V30 5 O 3.095 1.19667 1.45644 0
M  V30 6 C 0.222 2.43627 2.35294 0
M  V30 7 C -0.732 3.65373 2.2001 0
M  V30 8 S 0.101 5.13292 1.52614 0
M  V30 9 C 1.257 5.56322 2.86805 0
M  V30 10 H 1.49 2.90518 0.631377 0
M  V30 11 H -0.977 1.52953 0.210867 0
M  V30 12 H 0.981 2.67203 3.11629 0
M  V30 13 H -0.358 1.57376 2.7183 0
M  V30 14 H -1.165 3.90944 3.18086 0
M  V30 15 H -1.563 3.418 1.51819 0
M  V30 16 H 0.729 5.58782 3.83104 0
M  V30 17 H 1.672 6.56266 2.65933 0
M  V30 18 H 2.08 4.83886 2.90714 0
M  V30 19 N 1.4781 -0.272755 1.55222 0
M  V30 20 C 2.4081 -1.34136 1.91127 0
M  V30 21 C 3.3891 -1.51513 0.773168 0
M  V30 22 O 4.5741 -1.64552 1.03132 0
M  V30 23 C 1.7041 -2.70083 2.1834 0
M  V30 24 C 0.6581 -2.67437 3.34158 0
M  V30 25 C -0.0159 -4.06938 3.46851 0
M  V30 26 C 1.2841 -2.26686 4.70543 0
M  V30 27 H 2.9781 -1.04333 2.80633 0
M  V30 28 H 0.5241 -0.500454 1.35024 0
M  V30 29 H 2.4771 -3.44952 2.42046 0
M  V30 30 H 1.2011 -3.01469 1.25634 0
M  V30 31 H -0.1399 -1.95026 3.1042 0
M  V30 32 H -0.4919 -4.35547 2.51611 0
M  V30 33 H -0.7919 -4.06062 4.2472 0
M  V30 34 H 0.7321 -4.83545 3.72849 0
M  V30 35 H 2.1461 -2.91277 4.93792 0
M  V30 36 H 0.5431 -2.36971 5.5133 0
M  V30 37 H 1.6131 -1.21818 4.69349 0
M  V30 38 N 2.9562 -1.48159 -0.537278 0
M  V30 39 C 3.9032 -1.62138 -1.64256 0
M  V30 40 C 4.8732 -0.463668 -1.59497 0
M  V30 41 O 6.0582 -0.686241 -1.78032 0
M  V30 42 C 3.1982 -1.66028 -3.02537 0
M  V30 43 C 2.3112 -2.92855 -3.17585 0
M  V30 44 C 1.4462 -2.87952 -4.46382 0
M  V30 45 C 0.4852 -4.09516 -4.54932 0
M  V30 46 N -0.3778 -4.02733 -5.75109 0
M  V30 47 H 4.4622 -2.56529 -1.51647 0
M  V30 48 H 1.9992 -1.27224 -0.738414 0
M  V30 49 H 3.9572 -1.66265 -3.82638 0
M  V30 50 H 2.5872 -0.751331 -3.13934 0
M  V30 51 H 1.6392 -3.02395 -2.30784 0
M  V30 52 H 2.9512 -3.82822 -3.19764 0
M  V30 53 H 2.1052 -2.8655 -5.34765 0
M  V30 54 H 0.8442 -1.95702 -4.46712 0
M  V30 55 H -0.1508 -4.11201 -3.64957 0
M  V30 56 H 1.0742 -5.02917 -4.56346 0
M  V30 57 H -0.9798 -3.13299 -5.76351 0
M  V30 58 H -1.0628 -4.86397 -5.78752 0
M  V30 59 H 0.2052 -4.05379 -6.65799 0
M  V30 60 N 4.4343 0.785586 -1.36625 0
M  V30 61 C 5.6823 1.54057 -1.30808 0
M  V30 62 C 6.0033 1.94683 0.111157 0
M  V30 63 O 5.2733 1.65241 1.05224 0
M  V30 64 H 3.8533 0.571354 -0.481211 0
M  V30 65 H 6.5153 0.935821 -1.70963 0
M  V30 66 H 5.6113 2.44637 -1.93801 0
M  V30 67 N 5.9124 1.20967 1.01018 0
M  V30 68 C 7.1594 1.02374 1.74716 0
M  V30 69 C 7.4874 -0.443375 1.89379 0
M  V30 70 O 6.7424 -1.34535 1.42123 0
M  V30 71 C 7.0414 1.65997 3.16512 0
M  V30 72 C 6.7074 3.15831 3.2181 0
M  V30 73 C 5.3694 3.56719 3.22963 0
M  V30 74 C 7.7214 4.11816 3.19464 0
M  V30 75 C 5.0494 4.92107 3.19449 0
M  V30 76 C 7.4014 5.47158 3.17491 0
M  V30 77 C 6.0654 5.87451 3.16951 0
M  V30 78 H 5.3354 0.374614 0.639332 0
M  V30 79 H 7.9824 1.50485 1.18434 0
M  V30 80 H 6.2874 1.10166 3.75993 0
M  V30 81 H 7.9844 1.49119 3.72242 0
M  V30 82 H 4.5744 2.83263 3.21652 0
M  V30 83 H 8.7584 3.81257 3.17737 0
M  V30 84 H 4.0144 5.22579 3.17366 0
M  V30 85 H 8.1884 6.21274 3.14629 0
M  V30 86 H 5.8154 6.92329 3.13983 0
M  V30 87 N 7.3905 -1.2043 1.01659 0
M  V30 88 C 8.6185 -1.93777 0.725132 0
M  V30 89 C 9.0335 -1.74772 -0.714166 0
M  V30 90 O 8.3905 -1.06169 -1.4844 0
M  V30 91 C 8.4415 -3.45876 1.05129 0
M  V30 92 O 8.1625 -3.6426 2.43406 0
M  V30 93 C 9.6635 -4.36368 0.780891 0
M  V30 94 H 6.8835 -0.615901 0.266284 0
M  V30 95 H 9.4275 -1.52922 1.35776 0
M  V30 96 H 7.5825 -3.8461 0.464065 0
M  V30 97 H 7.9965 -4.58246 2.55169 0
M  V30 98 H 9.4705 -5.41743 1.05918 0
M  V30 99 H 9.9475 -4.38275 -0.284937 0
M  V30 100 H 10.5535 -4.03296 1.35027 0
M  V30 101 N 8.8686 -0.792821 -1.36206 0
M  V30 102 C 10.2796 -0.429513 -1.81692 0
M  V30 103 C 10.6306 1.04695 -1.65932 0
M  V30 104 O 9.7556 1.81256 -1.18218 0
M  V30 105 C 10.3506 -0.772831 -3.29868 0
M  V30 106 C 8.9096 -0.462307 -3.7355 0
M  V30 107 C 8.0566 -1.00569 -2.5842 0
M  V30 108 H 11.0076 -0.985672 -1.24379 0
M  V30 109 H 11.0286 -0.0651928 -3.80444 0
M  V30 110 H 10.5406 -1.84747 -3.41307 0
M  V30 111 H 8.6416 0.604158 -3.67669 0
M  V30 112 H 8.7546 -0.985299 -4.68859 0
M  V30 113 H 7.1186 -0.428734 -2.51066 0
M  V30 114 H 7.9016 -2.08616 -2.72643 0
M  V30 115 N 10.3467 1.47872 -0.545128 0
M  V30 116 C 11.5927 2.03385 -0.0247951 0
M  V30 117 C 11.9477 1.41325 1.30556 0
M  V30 118 O 11.2407 0.5552 1.8338 0
M  V30 119 C 11.4347 3.57131 0.13867 0
M  V30 120 C 11.2637 4.34097 -1.17429 0
M  V30 121 C 10.0337 4.74458 -1.73831 0
M  V30 122 C 12.2317 4.6998 -2.08861 0
M  V30 123 N 10.2137 5.3602 -2.99258 0
M  V30 124 C 11.5847 5.31719 -3.18866 0
M  V30 125 C 13.6397 4.5191 -2.09003 0
M  V30 126 C 12.3427 5.77295 -4.29096 0
M  V30 127 C 14.3687 4.98477 -3.18237 0
M  V30 128 C 13.7307 5.60253 -4.26961 0
M  V30 129 H 9.8297 0.780339 -0.050943 0
M  V30 130 H 12.4137 1.80507 -0.729753 0
M  V30 131 H 10.5847 3.79802 0.812733 0
M  V30 132 H 12.3167 3.99282 0.659976 0
M  V30 133 H 9.0717 4.56037 -1.2778 0
M  V30 134 H 9.4957 5.71355 -3.63157 0
M  V30 135 H 14.1377 4.03516 -1.26234 0
M  V30 136 H 11.8557 6.24687 -5.12633 0
M  V30 137 H 15.4417 4.86274 -3.1942 0
M  V30 138 H 14.3217 5.95631 -5.10091 0
M  V30 139 N 11.8248 0.280983 1.55075 0
M  V30 140 C 13.2358 -0.215629 1.85451 0
M  V30 141 C 13.5868 -1.54991 1.203 0
M  V30 142 O 12.7118 -2.10699 0.493435 0
M  V30 143 C 13.3068 -0.398026 3.36454 0
M  V30 144 C 11.8658 -0.838866 3.66933 0
M  V30 145 C 11.0128 0.064458 2.77225 0
M  V30 146 H 13.9638 0.502601 1.50531 0
M  V30 147 H 13.9848 -1.23569 3.59876 0
M  V30 148 H 13.4968 0.573241 3.83843 0
M  V30 149 H 11.5978 -1.8214 3.25048 0
M  V30 150 H 11.7108 -0.672123 4.74362 0
M  V30 151 H 10.0748 -0.452863 2.50642 0
M  V30 152 H 10.8578 1.03172 3.2743 0
M  V30 153 N 13.3029 -1.57598 0.00835791 0
M  V30 154 C 14.5799 -1.82172 -0.712235 0
M  V30 155 C 14.9599 -0.887873 -1.9152 0
M  V30 156 O 14.3079 0.06146 -2.28417 0
M  V30 157 C 14.5179 -3.30875 -1.11008 0
M  V30 158 C 15.8659 -3.96826 -1.51044 0
M  V30 159 O 16.8899 -3.35248 -1.20364 0
M  V30 160 O 15.7489 -5.05318 -2.08125 0
M  V30 161 H 12.8429 -0.750435 -0.347529 0
M  V30 162 H 15.3889 -1.69665 0.0344523 0
M  V30 163 H 14.1609 -3.90481 -0.252982 0
M  V30 164 H 13.7839 -3.48412 -1.9156 0
M  V30 165 N 14.781 0.264519 -1.55364 0
M  V30 166 C 15.691 1.34902 -1.91934 0
M  V30 167 C 16.707 1.53595 -0.817593 0
M  V30 168 O 17.883 1.67558 -1.11742 0
M  V30 169 C 14.948 2.68676 -2.19121 0
M  V30 170 C 14.009 2.58657 -3.4263 0
M  V30 171 C 13.242 3.86051 -3.68511 0
M  V30 172 O 13.465 4.87126 -2.96757 0
M  V30 173 O 12.399 3.85744 -4.62045 0
M  V30 174 H 16.225 1.06883 -2.8427 0
M  V30 175 H 13.81 0.463775 -1.42019 0
M  V30 176 H 15.692 3.47759 -2.37995 0
M  V30 177 H 14.367 2.96463 -1.29966 0
M  V30 178 H 13.274 1.7792 -3.29082 0
M  V30 179 H 14.607 2.35818 -4.32031 0
M  V30 180 N 16.2591 1.48442 0.529413 0
M  V30 181 C 17.1891 1.65902 1.64313 0
M  V30 182 C 18.1701 0.507897 1.6234 0
M  V30 183 O 19.3551 0.740503 1.79528 0
M  V30 184 C 16.4851 1.69911 3.02898 0
M  V30 185 C 15.4391 2.8453 3.19729 0
M  V30 186 C 14.7651 2.73629 4.59381 0
M  V30 187 C 16.0651 4.25821 3.02447 0
M  V30 188 H 17.7591 2.5914 1.49955 0
M  V30 189 H 15.3051 1.24709 0.719982 0
M  V30 190 H 17.2581 1.80715 3.80684 0
M  V30 191 H 15.9821 0.732524 3.18279 0
M  V30 192 H 14.6411 2.73283 2.44361 0
M  V30 193 H 14.2891 1.74938 4.71599 0
M  V30 194 H 13.9891 3.50541 4.71588 0
M  V30 195 H 15.5131 2.86401 5.39265 0
M  V30 196 H 16.9271 4.37898 3.70024 0
M  V30 197 H 15.3241 5.03735 3.26146 0
M  V30 198 H 16.3941 4.42244 1.98867 0
M  V30 199 N 17.7372 -0.778329 1.37039 0
M  V30 200 C 18.7002 -1.87301 1.32102 0
M  V30 201 C 19.7002 -1.59198 0.226405 0
M  V30 202 O 20.8902 -1.67403 0.481861 0
M  V30 203 C 18.0222 -3.24309 1.05055 0
M  V30 204 H 19.2152 -1.93093 2.29467 0
M  V30 205 H 16.7682 -0.977358 1.21973 0
M  V30 206 H 17.5032 -3.24196 0.0819373 0
M  V30 207 H 17.2882 -3.46098 1.84279 0
M  V30 208 H 18.7782 -4.04382 1.04234 0
M  V30 209 N 19.2153 -1.21501 -1.00376 0
M  V30 210 C 20.1253 -0.991447 -2.12621 0
M  V30 211 C 21.1413 0.0568446 -1.73907 0
M  V30 212 O 22.3173 -0.13348 -2.00957 0
M  V30 213 C 19.3823 -0.560312 -3.42142 0
M  V30 214 C 18.4433 -1.68096 -3.95022 0
M  V30 215 C 17.6763 -1.2703 -5.18362 0
M  V30 216 O 17.8993 -0.144438 -5.70217 0
M  V30 217 O 16.8333 -2.08269 -5.64719 0
M  V30 218 H 20.6593 -1.93158 -2.34358 0
M  V30 219 H 18.2443 -0.999999 -1.10997 0
M  V30 220 H 20.1263 -0.329724 -4.20108 0
M  V30 221 H 18.8013 0.351089 -3.2179 0
M  V30 222 H 17.7083 -1.96597 -3.18278 0
M  V30 223 H 19.0413 -2.56983 -4.19786 0
M  V30 224 N 20.6934 1.19889 -1.02296 0
M  V30 225 C 21.9214 1.9339 -0.735399 0
M  V30 226 C 22.3364 1.75148 0.704887 0
M  V30 227 O 21.6934 1.06954 1.47875 0
M  V30 228 C 21.7444 3.45313 -1.06962 0
M  V30 229 O 21.4654 3.62964 -2.45334 0
M  V30 230 C 22.9664 4.35948 -0.804021 0
M  V30 231 H 20.1864 0.61448 -0.269546 0
M  V30 232 H 22.7304 1.522 -1.36585 0
M  V30 233 H 20.8854 3.84359 -0.484455 0
M  V30 234 H 21.2994 4.56886 -2.57595 0
M  V30 235 H 22.7734 5.41174 -1.0879 0
M  V30 236 H 23.2504 4.3842 0.261691 0
M  V30 237 H 23.8564 4.02574 -1.37164 0
M  V30 238 N 22.1715 0.800033 1.35784 0
M  V30 239 C 23.4015 0.389041 2.02904 0
M  V30 240 C 23.8095 -1.0027 1.60445 0
M  V30 241 O 23.1525 -1.65633 0.794453 0
M  V30 242 C 23.2145 0.385495 3.57427 0
M  V30 243 C 22.8785 1.72662 4.23127 0
M  V30 244 C 23.8755 2.68385 4.4527 0
M  V30 245 C 21.5605 2.00883 4.60381 0
M  V30 246 C 23.5545 3.90517 5.03761 0
M  V30 247 C 21.2415 3.2328 5.18588 0
M  V30 248 C 22.2395 4.17915 5.40218 0
M  V30 249 O 21.9275 5.38153 5.97199 0
M  V30 250 H 21.6595 0.157032 0.657508 0
M  V30 251 H 24.2135 1.08311 1.74522 0
M  V30 252 H 22.4435 -0.365128 3.84972 0
M  V30 253 H 24.1325 -0.00228296 4.059 0
M  V30 254 H 24.8985 2.47872 4.16874 0
M  V30 255 H 20.7775 1.28037 4.42863 0
M  V30 256 H 24.3215 4.64395 5.2056 0
M  V30 257 H 20.2185 3.43667 5.4641 0
M  V30 258 H 20.9865 5.3936 6.15656 0
M  V30 259 N 23.6496 -1.47581 0.552962 0
M  V30 260 C 25.0656 -1.5818 0.212424 0
M  V30 261 C 25.2656 -1.55213 -1.28496 0
M  V30 262 O 24.3216 -1.45329 -2.06484 0
M  V30 263 C 25.6346 -2.88865 0.835318 0
M  V30 264 C 27.1826 -3.0244 0.806156 0
M  V30 265 C 27.6576 -4.35819 1.40804 0
M  V30 266 N 29.1486 -4.42444 1.37103 0
M  V30 267 C 29.8836 -5.44202 1.80641 0
M  V30 268 N 29.3796 -6.52795 2.32015 0
M  V30 269 N 31.1726 -5.35222 1.71738 0
M  V30 270 H 23.3236 -1.47753 1.52587 0
M  V30 271 H 25.5866 -0.702941 0.636064 0
M  V30 272 H 25.2926 -2.9676 1.88749 0
M  V30 273 H 25.1666 -3.7579 0.325848 0
M  V30 274 H 27.5536 -2.94144 -0.237317 0
M  V30 275 H 27.6346 -2.17068 1.35334 0
M  V30 276 H 27.2786 -4.44871 2.45056 0
M  V30 277 H 27.2086 -5.19916 0.836338 0
M  V30 278 H 29.6996 -3.6456 0.995202 0
M  V30 279 H 30.0126 -7.26609 2.63171 0
M  V30 280 H 28.3576 -6.53696 2.36023 0
M  V30 281 H 31.5486 -4.49284 1.31382 0
M  V30 282 H 31.7216 -6.14389 2.05987 0
M  V30 283 N 25.1277 -0.289203 -1.54924 0
M  V30 284 C 26.0747 0.592115 -2.23075 0
M  V30 285 C 27.0447 1.13881 -1.20915 0
M  V30 286 O 28.2297 1.18551 -1.495 0
M  V30 287 C 25.3697 1.76376 -2.96623 0
M  V30 288 C 24.4827 1.24959 -4.13533 0
M  V30 289 C 23.6177 2.38416 -4.74691 0
M  V30 290 C 22.6567 1.84072 -5.83767 0
M  V30 291 N 21.7937 2.91057 -6.38929 0
M  V30 292 H 26.6337 0.00432038 -2.98 0
M  V30 293 H 24.1707 -0.00963529 -1.47097 0
M  V30 294 H 26.1287 2.45268 -3.3749 0
M  V30 295 H 24.7587 2.32337 -2.24097 0
M  V30 296 H 23.8107 0.453307 -3.77689 0
M  V30 297 H 25.1227 0.811662 -4.92152 0
M  V30 298 H 24.2767 3.15276 -5.18349 0
M  V30 299 H 23.0157 2.8553 -3.95378 0
M  V30 300 H 22.0207 1.05697 -5.39545 0
M  V30 301 H 23.2457 1.37877 -6.64956 0
M  V30 302 H 21.1917 3.37526 -5.62505 0
M  V30 303 H 21.1087 2.51724 -7.12861 0
M  V30 304 H 22.3767 3.6785 -6.87246 0
M  V30 305 N 26.6058 1.57591 -0.0167156 0
M  V30 306 C 27.5538 2.10604 0.987353 0
M  V30 307 C 28.5478 1.02977 1.34507 0
M  V30 308 O 29.7538 1.21425 1.32875 0
M  V30 309 H 26.1288 0.672695 0.336134 0
M  V30 310 H 28.0998 2.93925 0.514817 0
M  V30 311 C 26.8488 2.6382 2.26483 0
M  V30 312 H 26.1718 3.46278 1.99829 0
M  V30 313 H 27.6118 3.04573 2.94977 0
M  V30 314 C 26.0708 1.55992 2.9861 0
M  V30 315 O 26.6008 0.952521 3.90243 0
M  V30 316 N 24.8068 1.28335 2.60727 0
M  V30 317 H 24.3538 1.77914 1.86291 0
M  V30 318 H 24.3118 0.564115 3.09298 0
M  V30 319 N 28.0839 -0.256276 1.55502 0
M  V30 320 C 29.3319 -0.983672 1.76545 0
M  V30 321 C 29.6529 -1.86206 0.578982 0
M  V30 322 O 28.9229 -1.91656 -0.405577 0
M  V30 323 H 27.5029 -0.366191 0.651086 0
M  V30 324 H 30.1649 -0.276479 1.92929 0
M  V30 325 H 29.2609 -1.61087 2.67315 0
M  V30 326 N 29.562 -1.4872 -0.521534 0
M  V30 327 C 30.802 -1.58771 -1.28729 0
M  V30 328 C 31.166 -0.259394 -1.9024 0
M  V30 329 O 32.367 -0.234942 -2.67771 0
M  V30 330 C 30.638 -2.70039 -2.34124 0
M  V30 331 S 32.197 -2.9991 -3.20312 0
M  V30 332 H 29.015 -0.560251 -0.437767 0
M  V30 333 H 31.617 -1.86283 -0.593188 0
M  V30 334 H 30.321 -3.65101 -1.87429 0
M  V30 335 H 29.852 -2.44455 -3.08229 0
M  V30 336 H 31.867 -2.39855 -4.34378 0
M  V30 337 N 31.0401 0.771051 -1.3745 0
M  V30 338 C 32.2861 1.53109 -1.339 0
M  V30 339 C 32.6411 1.9225 0.0758401 0
M  V30 340 O 31.9341 1.61264 1.03463 0
M  V30 341 C 32.1281 2.80676 -2.2126 0
M  V30 342 C 31.9571 2.54003 -3.71096 0
M  V30 343 C 30.7271 2.48097 -4.402 0
M  V30 344 C 32.9251 2.21953 -4.63941 0
M  V30 345 N 30.9071 2.13515 -5.75573 0
M  V30 346 C 32.2781 1.97516 -5.87697 0
M  V30 347 C 34.3331 2.08114 -4.5232 0
M  V30 348 C 33.0361 1.60638 -7.01133 0
M  V30 349 C 35.0621 1.72636 -5.65642 0
M  V30 350 C 34.4241 1.4906 -6.88448 0
M  V30 351 H 30.5231 0.56055 -0.54526 0
M  V30 352 H 33.1071 0.899472 -1.72678 0
M  V30 353 H 31.2781 3.41674 -1.84698 0
M  V30 354 H 33.0101 3.46578 -2.08963 0
M  V30 355 H 29.7651 2.63974 -3.93211 0
M  V30 356 H 30.1891 1.98919 -6.47117 0
M  V30 357 H 34.8311 2.25024 -3.57944 0
M  V30 358 H 32.5491 1.42467 -7.95443 0
M  V30 359 H 36.1351 1.62586 -5.58621 0
M  V30 360 H 35.0151 1.22014 -7.7465 0
M  V30 361 N 32.5182 1.22032 0.997298 0
M  V30 362 C 33.4812 0.987909 2.06816 0
M  V30 363 C 34.4812 -0.0440084 1.6074 0
M  V30 364 O 35.6712 0.194053 1.73116 0
M  V30 365 C 32.8032 0.49132 3.37341 0
M  V30 366 H 33.9962 1.93803 2.28868 0
M  V30 367 H 31.5492 1.03838 1.16822 0
M  V30 368 H 32.2842 -0.463364 3.20973 0
M  V30 369 H 32.0692 1.23575 3.72118 0
M  V30 370 H 33.5592 0.348824 4.16141 0
M  V30 371 N 33.9963 -1.19345 1.0293 0
M  V30 372 C 35.2443 -1.88665 0.724574 0
M  V30 373 C 35.5653 -1.80036 -0.749144 0
M  V30 374 O 34.8353 -1.2111 -1.53978 0
M  V30 375 H 33.4153 -0.698406 0.265025 0
M  V30 376 H 36.0773 -1.44885 1.30362 0
M  V30 377 H 35.1733 -2.94987 1.01926 0
M  V30 378 N 35.4744 -0.807222 -1.35358 0
M  V30 379 C 36.3844 -0.219594 -2.3357 0
M  V30 380 C 37.4004 0.637734 -1.61892 0
M  V30 381 O 38.5764 0.549336 -1.93763 0
M  V30 382 C 35.6414 0.62158 -3.41083 0
M  V30 383 C 34.7024 -0.256315 -4.28534 0
M  V30 384 C 33.9354 0.544807 -5.30912 0
M  V30 385 O 34.1584 1.77944 -5.41934 0
M  V30 386 O 33.0924 -0.0646478 -6.01865 0
M  V30 387 H 36.9184 -1.03208 -2.85625 0
M  V30 388 H 34.5034 -0.569025 -1.38139 0
M  V30 389 H 36.3854 1.10067 -4.06772 0
M  V30 390 H 35.0604 1.41165 -2.91297 0
M  V30 391 H 33.9674 -0.782559 -3.65823 0
M  V30 392 H 35.3004 -1.01034 -4.81719 0
M  V30 393 N 36.9525 1.47285 -0.560781 0
M  V30 394 C 38.1805 2.06855 -0.0430262 0
M  V30 395 C 38.5955 1.41291 1.25229 0
M  V30 396 O 37.9525 0.510648 1.7521 0
M  V30 397 C 38.0035 3.61178 0.152518 0
M  V30 398 O 37.7245 4.24285 -1.0915 0
M  V30 399 C 39.2255 4.37624 0.707145 0
M  V30 400 H 36.4455 0.669319 -0.0474652 0
M  V30 401 H 38.9895 1.89237 -0.77521 0
M  V30 402 H 37.1445 3.78298 0.834843 0
M  V30 403 H 37.5585 5.16868 -0.891482 0
M  V30 404 H 39.0325 5.46271 0.793244 0
M  V30 405 H 39.5095 4.04152 1.71923 0
M  V30 406 H 40.1155 4.25257 0.0604027 0
M  V30 407 N 38.4306 0.297415 1.54768 0
M  V30 408 C 39.6776 -0.312913 2.00068 0
M  V30 409 C 40.0056 -1.54171 1.18582 0
M  V30 410 O 39.2606 -1.94108 0.249133 0
M  V30 411 C 39.5596 -0.717561 3.50123 0
M  V30 412 C 39.2256 0.409095 4.4904 0
M  V30 413 C 37.8876 0.718399 4.75807 0
M  V30 414 C 40.2396 1.16717 5.07963 0
M  V30 415 C 37.5676 1.78896 5.5876 0
M  V30 416 C 39.9196 2.22762 5.92081 0
M  V30 417 C 38.5836 2.54303 6.1716 0
M  V30 418 H 37.8536 -0.114503 0.7321 0
M  V30 419 H 40.5006 0.415767 1.86932 0
M  V30 420 H 38.8056 -1.52627 3.60849 0
M  V30 421 H 40.5026 -1.20091 3.82595 0
M  V30 422 H 37.0926 0.157918 4.28309 0
M  V30 423 H 41.2766 0.941466 4.87289 0
M  V30 424 H 36.5326 2.0381 5.7643 0
M  V30 425 H 40.7066 2.81962 6.36765 0
M  V30 426 H 38.3336 3.3739 6.81229 0
M  V30 427 N 39.9087 -1.5758 0.0250728 0
M  V30 428 C 41.1567 -1.91255 -0.653151 0
M  V30 429 C 41.4777 -0.901691 -1.729 0
M  V30 430 O 40.7477 0.0573785 -1.95816 0
M  V30 431 H 39.3277 -0.705942 -0.244243 0
M  V30 432 H 41.9897 -1.94767 0.0719209 0
M  V30 433 H 41.0857 -2.91752 -1.10847 0
M  V30 434 N 41.3868 0.248026 -1.55636 0
M  V30 435 C 42.6638 0.998988 -1.68165 0
M  V30 436 C 43.0438 2.03409 -0.564621 0
M  V30 437 O 42.3918 2.24378 0.432076 0
M  V30 438 C 42.6018 1.63334 -3.0842 0
M  V30 439 C 43.9498 2.13562 -3.66983 0
M  V30 440 O 44.9738 1.73277 -3.11213 0
M  V30 441 O 43.8328 2.87526 -4.64749 0
M  V30 442 H 40.9268 0.464933 -0.683935 0
M  V30 443 H 43.4728 0.241902 -1.67967 0
M  V30 444 H 42.2448 0.884583 -3.8117 0
M  V30 445 H 41.8678 2.45666 -3.12624 0
M  V30 446 N 42.8649 1.48995 0.513639 0
M  V30 447 C 43.7949 1.67636 1.62544 0
M  V30 448 C 44.7759 0.525087 1.61793 0
M  V30 449 O 45.9609 0.759502 1.78732 0
M  V30 450 C 43.0909 1.73114 3.01079 0
M  V30 451 C 42.0449 2.87905 3.16693 0
M  V30 452 C 41.3709 2.78486 4.56453 0
M  V30 453 C 42.6709 4.29005 2.97913 0
M  V30 454 H 44.3649 2.60716 1.47198 0
M  V30 455 H 41.9109 1.25465 0.706714 0
M  V30 456 H 43.8639 1.84742 3.78746 0
M  V30 457 H 42.5879 0.766241 3.17484 0
M  V30 458 H 41.2469 2.75859 2.41448 0
M  V30 459 H 40.8949 1.7993 4.69717 0
M  V30 460 H 40.5949 3.55523 4.67843 0
M  V30 461 H 42.1189 2.92104 5.36197 0
M  V30 462 H 43.5329 4.41798 3.65359 0
M  V30 463 H 41.9299 5.07166 3.20785 0
M  V30 464 H 42.9999 4.44329 1.94165 0
M  V30 465 N 44.343 -0.763751 1.37857 0
M  V30 466 C 45.273 -1.89103 1.36975 0
M  V30 467 C 46.254 -1.68439 0.237152 0
M  V30 468 O 47.439 -1.8918 0.438713 0
M  V30 469 C 44.569 -3.26496 1.18395 0
M  V30 470 C 43.523 -3.61741 2.28751 0
M  V30 471 C 42.849 -4.97762 1.95286 0
M  V30 472 C 44.149 -3.67665 3.70972 0
M  V30 473 H 45.843 -1.90099 2.31307 0
M  V30 474 H 43.389 -0.91319 1.11341 0
M  V30 475 H 45.342 -4.05003 1.16406 0
M  V30 476 H 44.066 -3.25955 0.205215 0
M  V30 477 H 42.725 -2.85547 2.29909 0
M  V30 478 H 42.373 -4.93769 0.959221 0
M  V30 479 H 42.073 -5.22313 2.69189 0
M  V30 480 H 43.597 -5.7866 1.94898 0
M  V30 481 H 45.011 -4.36307 3.719 0
M  V30 482 H 43.408 -4.03718 4.43995 0
M  V30 483 H 44.478 -2.68134 4.0402 0
M  V30 484 N 45.8211 -1.22559 -0.990812 0
M  V30 485 C 47.2371 -0.985996 -1.255 0
M  V30 486 C 47.4371 0.319173 -1.98956 0
M  V30 487 O 46.4931 1.04127 -2.3003 0
M  V30 488 C 47.8061 -2.18607 -2.06474 0
M  V30 489 C 49.3541 -2.22985 -2.19651 0
M  V30 490 C 49.8291 -3.4255 -3.04012 0
M  V30 491 N 51.3201 -3.42725 -3.11599 0
M  V30 492 C 52.0551 -4.31892 -3.7717 0
M  V30 493 N 51.5511 -5.31279 -4.44651 0
M  V30 494 N 53.3441 -4.19662 -3.73952 0
M  V30 495 H 45.4951 -2.06469 -0.49841 0
M  V30 496 H 47.7581 -0.904853 -0.282747 0
M  V30 497 H 47.4641 -3.13267 -1.59865 0
M  V30 498 H 47.3381 -2.18838 -3.07229 0
M  V30 499 H 49.7251 -1.28871 -2.65474 0
M  V30 500 H 49.8061 -2.26791 -1.18319 0
M  V30 501 H 49.4501 -4.36965 -2.58889 0
M  V30 502 H 49.3801 -3.35984 -4.0549 0
M  V30 503 H 51.8711 -2.70807 -2.63575 0
M  V30 504 H 52.1841 -5.95593 -4.92431 0
M  V30 505 H 50.5291 -5.3519 -4.43392 0
M  V30 506 H 53.7201 -3.41268 -3.20396 0
M  V30 507 H 53.8931 -4.89358 -4.24774 0
M  V30 508 N 47.2992 1.18797 -1.03562 0
M  V30 509 C 48.5762 1.84469 -0.650434 0
M  V30 510 C 48.9562 1.92319 0.870433 0
M  V30 511 O 48.3042 1.44528 1.76986 0
M  V30 512 C 48.5142 3.2306 -1.32036 0
M  V30 513 C 49.8622 3.9915 -1.44792 0
M  V30 514 O 50.8862 3.32481 -1.27806 0
M  V30 515 O 49.7452 5.18587 -1.72423 0
M  V30 516 H 46.8392 0.795251 -0.226946 0
M  V30 517 H 49.3852 1.26231 -1.13419 0
M  V30 518 H 48.1572 3.1222 -2.3587 0
M  V30 519 H 47.7802 3.88949 -0.8249 0
M  V30 520 N 48.7773 0.814389 1.34928 0
M  V30 521 C 50.1933 0.499084 1.51596 0
M  V30 522 C 50.3933 -0.978319 1.76157 0
M  V30 523 O 49.4493 -1.76309 1.80752 0
M  V30 524 C 50.7623 1.35121 2.68631 0
M  V30 525 C 52.3103 1.34746 2.82511 0
M  V30 526 C 52.7853 2.18388 4.0258 0
M  V30 527 N 54.2763 2.15966 4.09772 0
M  V30 528 C 55.0113 2.77437 5.01813 0
M  V30 529 N 54.5073 3.47866 5.99134 0
M  V30 530 N 56.3003 2.67037 4.94619 0
M  V30 531 H 48.4513 1.7711 1.17243 0
M  V30 532 H 50.7143 0.754256 0.574284 0
M  V30 533 H 50.4203 2.40001 2.57085 0
M  V30 534 H 50.2943 1.00991 3.63429 0
M  V30 535 H 52.6813 0.30648 2.93504 0
M  V30 536 H 52.7623 1.72869 1.88547 0
M  V30 537 H 52.4063 3.2253 3.92347 0
M  V30 538 H 52.3363 1.77621 4.9574 0
M  V30 539 H 54.8273 1.64729 3.40107 0
M  V30 540 H 55.1403 3.92038 6.65977 0
M  V30 541 H 53.4853 3.51972 5.99284 0
M  V30 542 H 56.6763 2.11597 4.17546 0
M  V30 543 H 56.8493 3.15232 5.66156 0
M  V30 544 N 50.2554 -1.46986 0.568584 0
M  V30 545 C 51.2184 -2.28624 -0.162366 0
M  V30 546 C 52.2184 -1.37596 -0.832103 0
M  V30 547 O 53.4084 -1.60115 -0.68622 0
M  V30 548 C 50.5404 -3.17596 -1.23878 0
M  V30 549 H 51.7334 -2.94722 0.554899 0
M  V30 550 H 49.2864 -1.52863 0.325976 0
M  V30 551 H 50.0214 -2.56214 -1.98808 0
M  V30 552 H 49.8064 -3.846 -0.763219 0
M  V30 553 H 51.2964 -3.79078 -1.75185 0
M  V30 554 N 51.7335 -0.305618 -1.54608 0
M  V30 555 C 52.6965 0.555591 -2.22364 0
M  V30 556 C 53.6965 1.05768 -1.21119 0
M  V30 557 O 54.8865 0.952972 -1.45822 0
M  V30 558 C 52.0185 1.76974 -2.91364 0
M  V30 559 H 53.2115 -0.0364572 -2.99878 0
M  V30 560 H 50.7645 -0.0565007 -1.56198 0
M  V30 561 H 51.4995 2.40151 -2.17941 0
M  V30 562 H 51.2845 1.41732 -3.65588 0
M  V30 563 H 52.7745 2.38148 -3.43038 0
M  V30 564 N 53.2116 1.57565 -0.0334293 0
M  V30 565 C 54.1586 2.10478 0.946981 0
M  V30 566 C 55.1286 1.00787 1.32027 0
M  V30 567 O 56.3136 1.28232 1.41284 0
M  V30 568 C 53.4536 2.63994 2.22263 0
M  V30 569 C 52.5666 3.87709 1.90541 0
M  V30 570 C 51.7016 4.29604 3.12433 0
M  V30 571 C 50.7406 5.46065 2.76549 0
M  V30 572 N 49.8776 5.83096 3.9108 0
M  V30 573 H 54.7176 2.93963 0.488846 0
M  V30 574 H 52.2546 1.45296 0.22969 0
M  V30 575 H 54.2126 2.93114 2.96884 0
M  V30 576 H 52.8426 1.83333 2.65685 0
M  V30 577 H 51.8946 3.65291 1.06144 0
M  V30 578 H 53.2066 4.72403 1.60116 0
M  V30 579 H 52.3606 4.60182 3.9537 0
M  V30 580 H 51.0996 3.43685 3.46023 0
M  V30 581 H 50.1046 5.15176 1.92026 0
M  V30 582 H 51.3296 6.33685 2.44171 0
M  V30 583 H 49.2756 5.00132 4.24504 0
M  V30 584 H 49.1926 6.6244 3.64293 0
M  V30 585 H 50.4606 6.18282 4.74708 0
M  V30 586 N 54.6897 -0.239769 1.55765 0
M  V30 587 C 55.9197 -0.982743 1.8173 0
M  V30 588 C 56.3277 -1.7917 0.607835 0
M  V30 589 O 55.6707 -1.78525 -0.432973 0
M  V30 590 C 55.7327 -1.96332 3.01155 0
M  V30 591 C 55.3967 -1.34062 4.36894 0
M  V30 592 C 56.3937 -0.739539 5.14613 0
M  V30 593 C 54.0787 -1.35784 4.83599 0
M  V30 594 C 56.0727 -0.163989 6.37189 0
M  V30 595 C 53.7597 -0.778441 6.06122 0
M  V30 596 C 54.7577 -0.182548 6.82756 0
M  V30 597 O 54.4457 0.387887 8.02964 0
M  V30 598 H 54.1777 -0.294481 0.608487 0
M  V30 599 H 56.7317 -0.26572 2.03674 0
M  V30 600 H 54.9617 -2.71884 2.74984 0
M  V30 601 H 56.6507 -2.57032 3.14149 0
M  V30 602 H 57.4167 -0.718687 4.79646 0
M  V30 603 H 53.2957 -1.81105 4.23936 0
M  V30 604 H 56.8397 0.301753 6.96947 0
M  V30 605 H 52.7367 -0.796645 6.40565 0
M  V30 606 H 53.5047 0.28044 8.18019 0
M  V30 607 N 56.1678 -1.49265 -0.50573 0
M  V30 608 C 57.4158 -1.582 -1.25766 0
M  V30 609 C 57.7368 -0.268482 -1.93143 0
M  V30 610 O 57.0068 0.711833 -1.8251 0
M  V30 611 H 55.5868 -0.582873 -0.467191 0
M  V30 612 H 58.2488 -1.85865 -0.586525 0
M  V30 613 H 57.3448 -2.37563 -2.02412 0
M  V30 614 N 57.6459 0.756429 -1.3826 0
M  V30 615 C 58.9229 1.50584 -1.24835 0
M  V30 616 C 59.3029 2.10556 0.151485 0
M  V30 617 O 58.6509 1.96825 1.1607 0
M  V30 618 C 58.8609 2.57448 -2.3563 0
M  V30 619 C 60.2089 3.24429 -2.73917 0
M  V30 620 O 61.2329 2.67751 -2.34921 0
M  V30 621 O 60.0919 4.26937 -3.41156 0
M  V30 622 H 57.1859 0.667664 -0.48801 0
M  V30 623 H 59.7319 0.792083 -1.5008 0
M  V30 624 H 58.5039 2.11362 -3.29305 0
M  V30 625 H 58.1269 3.36408 -2.11933 0
M  V30 626 N 59.124 1.23083 0.984299 0
M  V30 627 C 60.54 0.992637 1.24975 0
M  V30 628 C 60.74 -0.308618 1.99123 0
M  V30 629 O 59.796 -1.02905 2.30579 0
M  V30 630 C 61.109 2.19698 2.05312 0
M  V30 631 C 62.657 2.24147 2.18465 0
M  V30 632 C 63.132 3.44157 3.02192 0
M  V30 633 N 64.623 3.44372 3.09777 0
M  V30 634 C 65.358 4.33886 3.74874 0
M  V30 635 N 64.854 5.3363 4.41827 0
M  V30 636 N 66.647 4.21639 3.71721 0
M  V30 637 H 58.798 2.06731 0.487453 0
M  V30 638 H 61.061 0.906339 0.277944 0
M  V30 639 H 60.767 3.1411 1.58201 0
M  V30 640 H 60.641 2.20465 3.06064 0
M  V30 641 H 63.028 1.30277 2.64786 0
M  V30 642 H 63.109 2.27415 1.17115 0
M  V30 643 H 62.753 4.38332 2.56568 0
M  V30 644 H 62.683 3.3813 4.03702 0
M  V30 645 H 65.174 2.72201 2.62135 0
M  V30 646 H 65.487 5.98196 4.89266 0
M  V30 647 H 63.832 5.37534 4.40548 0
M  V30 648 H 67.023 3.42962 3.18582 0
M  V30 649 H 67.196 4.91604 4.22173 0
M  V30 650 N 60.6021 -1.18246 1.0419 0
M  V30 651 C 61.8511 -1.87588 0.741194 0
M  V30 652 C 62.1641 -1.81303 -0.734066 0
M  V30 653 O 63.3701 -2.46019 -1.14834 0
M  V30 654 C 61.8261 -3.36538 1.27555 0
M  V30 655 C 61.4341 -3.51349 2.77953 0
M  V30 656 C 63.1781 -4.11273 1.05143 0
M  V30 657 C 61.0851 -4.94265 3.2474 0
M  V30 658 H 60.0151 -0.702622 0.273565 0
M  V30 659 H 62.6661 -1.33601 1.25789 0
M  V30 660 H 61.0481 -3.9 0.686703 0
M  V30 661 H 62.2221 -3.08153 3.42605 0
M  V30 662 H 60.5371 -2.90022 2.98791 0
M  V30 663 H 63.1341 -5.16689 1.37611 0
M  V30 664 H 63.4771 -4.16298 -0.0112774 0
M  V30 665 H 64.0101 -3.63987 1.60495 0
M  V30 666 H 60.7491 -4.94408 4.30396 0
M  V30 667 H 60.2691 -5.38172 2.64823 0
M  V30 668 H 61.9481 -5.62987 3.18834 0
M  V30 669 N 62.0802 -0.821533 -1.34494 0
M  V30 670 C 63.0432 -0.247847 -2.27856 0
M  V30 671 C 64.0432 0.573453 -1.50227 0
M  V30 672 O 65.2332 0.389759 -1.69784 0
M  V30 673 C 62.3652 0.652698 -3.34593 0
M  V30 674 H 63.5582 -1.07146 -2.80107 0
M  V30 675 H 61.1112 -0.593291 -1.44602 0
M  V30 676 H 61.8462 1.49943 -2.87555 0
M  V30 677 H 61.6312 0.065292 -3.92046 0
M  V30 678 H 63.1212 1.04793 -4.04238 0
M  V30 679 N 63.5583 1.46682 -0.576371 0
M  V30 680 C 64.8073 2.01619 -0.0572825 0
M  V30 681 C 65.1203 1.45417 1.30818 0
M  V30 682 O 66.3263 1.92133 1.91825 0
M  V30 683 C 64.7823 3.59863 -0.0518371 0
M  V30 684 C 64.3903 4.25059 -1.41523 0
M  V30 685 C 66.1343 4.2248 0.413639 0
M  V30 686 C 64.0413 5.75364 -1.36785 0
M  V30 687 H 62.9713 0.753794 -0.0176448 0
M  V30 688 H 65.6223 1.68481 -0.727076 0
M  V30 689 H 64.0043 3.90048 0.683994 0
M  V30 690 H 65.1783 4.06491 -2.17029 0
M  V30 691 H 63.4933 3.7451 -1.8202 0
M  V30 692 H 66.0903 5.3265 0.467779 0
M  V30 693 H 66.4333 3.90976 1.42982 0
M  V30 694 H 66.9663 3.96897 -0.267929 0
M  V30 695 H 63.7053 6.11518 -2.36063 0
M  V30 696 H 63.2253 5.96214 -0.654895 0
M  V30 697 H 64.9043 6.37955 -1.07805 0
M  V30 698 N 65.0364 0.313813 1.54444 0
M  V30 699 C 66.2644 -0.293918 2.04802 0
M  V30 700 C 66.6794 -1.46537 1.19047 0
M  V30 701 O 66.0364 -1.81182 0.218939 0
M  V30 702 C 66.0874 -0.737806 3.53891 0
M  V30 703 O 65.8084 0.387038 4.36387 0
M  V30 704 C 67.3094 -1.40936 4.203 0
M  V30 705 H 64.5294 -0.0620057 0.668129 0
M  V30 706 H 67.0734 0.457169 1.99324 0
M  V30 707 H 65.2284 -1.43889 3.59687 0
M  V30 708 H 65.6424 0.0391274 5.24485 0
M  V30 709 H 67.1164 -1.67099 5.26101 0
M  V30 710 H 67.5934 -2.35355 3.70816 0
M  V30 711 H 68.1994 -0.751117 4.18615 0
M  V30 712 N 66.5145 -1.57545 0.0417849 0
M  V30 713 C 67.7545 -1.94185 -0.63809 0
M  V30 714 C 68.1185 -0.919339 -1.68559 0
M  V30 715 O 69.3195 -1.17236 -2.41886 0
M  V30 716 C 67.5905 -3.35672 -1.22714 0
M  V30 717 S 69.1495 -3.94256 -1.92633 0
M  V30 718 H 65.9675 -0.679353 -0.209764 0
M  V30 719 H 68.5695 -1.95199 0.108479 0
M  V30 720 H 67.2735 -4.07898 -0.452503 0
M  V30 721 H 66.8045 -3.38132 -2.01073 0
M  V30 722 H 68.8195 -3.7872 -3.20602 0
M  V30 723 N 67.9926 0.231505 -1.5589 0
M  V30 724 C 69.2406 0.955461 -1.78088 0
M  V30 725 C 69.5616 1.85262 -0.608533 0
M  V30 726 O 68.8316 1.92277 0.375035 0
M  V30 727 H 67.4116 0.355787 -0.656829 0
M  V30 728 H 70.0736 0.245751 -1.93344 0
M  V30 729 H 69.1696 1.56814 -2.69844 0
M  V30 730 N 69.4707 1.49531 0.497807 0
M  V30 731 C 70.4187 1.66926 1.61983 0
M  V30 732 C 71.4127 0.535167 1.60724 0
M  V30 733 O 72.6187 0.714896 1.65195 0
M  V30 734 H 68.9937 0.526415 0.537021 0
M  V30 735 H 70.9647 2.61098 1.44465 0
M  V30 736 C 69.7137 1.75602 3.00099 0
M  V30 737 H 69.0367 2.62244 3.01775 0
M  V30 738 H 70.4767 1.91807 3.78135 0
M  V30 739 C 68.9357 0.501543 3.33146 0
M  V30 740 O 69.4657 -0.371342 3.9998 0
M  V30 741 N 67.6717 0.363531 2.88317 0
M  V30 742 H 67.2187 1.07485 2.34104 0
M  V30 743 H 67.1767 -0.474728 3.10795 0
M  V30 744 N 70.9488 -0.749086 1.3866 0
M  V30 745 C 72.1768 -1.53834 1.38358 0
M  V30 746 C 72.5918 -1.88783 -0.0255219 0
M  V30 747 O 71.9488 -1.53101 -0.993292 0
M  V30 748 C 71.9998 -2.83468 2.2434 0
M  V30 749 O 71.7208 -2.50008 3.5976 0
M  V30 750 C 73.2218 -3.7758 2.32267 0
M  V30 751 H 70.4418 -0.47585 0.473083 0
M  V30 752 H 72.9858 -0.926726 1.82297 0
M  V30 753 H 71.1408 -3.40995 1.83851 0
M  V30 754 H 71.5548 -3.33182 4.05081 0
M  V30 755 H 73.0288 -4.65478 2.96706 0
M  V30 756 H 73.5058 -4.18334 1.33765 0
M  V30 757 H 74.1118 -3.25976 2.73166 0
M  V30 758 N 72.4269 -1.23603 -0.977757 0
M  V30 759 C 73.3769 -0.986664 -2.05545 0
M  V30 760 C 74.3609 0.0683009 -1.60755 0
M  V30 761 O 75.5529 -0.144162 -1.76412 0
M  V30 762 C 72.6819 -0.582623 -3.3832 0
M  V30 763 C 71.7679 -1.67313 -3.89701 0
M  V30 764 N 72.1589 -2.90394 -4.14132 0
M  V30 765 C 70.4569 -1.54832 -4.18262 0
M  V30 766 C 71.1579 -3.61017 -4.56116 0
M  V30 767 N 70.1339 -2.8854 -4.60701 0
M  V30 768 H 73.9359 -1.92139 -2.22396 0
M  V30 769 H 71.4499 -1.1358 -1.16074 0
M  V30 770 H 73.4469 -0.38524 -4.15116 0
M  V30 771 H 72.1069 0.34503 -3.22862 0
M  V30 772 H 73.1179 -3.26673 -4.01877 0
M  V30 773 H 69.7949 -0.687969 -4.11793 0
M  V30 774 H 71.1849 -4.66544 -4.83514 0
M  V30 775 N 73.905 1.17692 -1.04816 0
M  V30 776 C 75.151 1.88389 -0.766892 0
M  V30 777 C 75.506 1.79282 0.698269 0
M  V30 778 O 74.799 1.18739 1.50372 0
M  V30 779 C 74.993 3.37462 -1.17703 0
M  V30 780 C 74.822 3.6108 -2.68051 0
M  V30 781 C 73.592 3.78018 -3.35307 0
M  V30 782 C 75.79 3.61039 -3.66273 0
M  V30 783 N 73.772 3.89444 -4.74559 0
M  V30 784 C 75.143 3.78269 -4.91235 0
M  V30 785 C 77.198 3.44168 -3.59796 0
M  V30 786 C 75.901 3.80376 -6.10497 0
M  V30 787 C 77.927 3.4756 -4.78493 0
M  V30 788 C 77.289 3.65295 -6.02278 0
M  V30 789 H 73.388 0.707651 -0.332798 0
M  V30 790 H 75.972 1.41314 -1.33934 0
M  V30 791 H 74.143 3.83214 -0.63257 0
M  V30 792 H 75.875 3.95759 -0.845989 0
M  V30 793 H 72.63 3.77714 -2.85708 0
M  V30 794 H 73.054 3.98962 -5.46954 0
M  V30 795 H 77.696 3.29396 -2.65062 0
M  V30 796 H 75.414 3.93933 -7.05579 0
M  V30 797 H 79 3.3577 -4.75131 0
M  V30 798 H 77.88 3.6782 -6.92588 0
M  V30 799 N 75.3831 0.828654 1.34056 0
M  V30 800 C 76.6081 0.431637 2.02859 0
M  V30 801 C 77.0331 -0.956339 1.61975 0
M  V30 802 O 76.3911 -1.62338 0.807228 0
M  V30 803 C 76.4391 0.548323 3.56407 0
M  V30 804 O 75.5431 -0.429556 4.10157 0
M  V30 805 H 74.8841 0.176886 0.640006 0
M  V30 806 H 77.4141 1.12066 1.71179 0
M  V30 807 H 77.4241 0.426196 4.05768 0
M  V30 808 H 76.0991 1.5606 3.8551 0
M  V30 809 H 74.6761 -0.265836 3.71951 0
M  V30 810 N 76.8612 -1.46375 0.584142 0
M  V30 811 C 78.0912 -2.06461 0.0758195 0
M  V30 812 C 78.4992 -1.43322 -1.23512 0
M  V30 813 O 77.8422 -0.533216 -1.75791 0
M  V30 814 C 77.9042 -3.59131 -0.162773 0
M  V30 815 C 77.5682 -4.4447 1.06279 0
M  V30 816 C 78.5652 -4.80918 1.97519 0
M  V30 817 C 76.2502 -4.85584 1.28504 0
M  V30 818 C 78.2442 -5.57309 3.09331 0
M  V30 819 C 75.9312 -5.61734 2.4062 0
M  V30 820 C 76.9292 -5.9751 3.30863 0
M  V30 821 O 76.6172 -6.72121 4.41032 0
M  V30 822 H 76.3492 -0.673745 0.0551725 0
M  V30 823 H 78.9032 -1.88969 0.804984 0
M  V30 824 H 77.1332 -3.74936 -0.946565 0
M  V30 825 H 78.8222 -4.0114 -0.619782 0
M  V30 826 H 79.5882 -4.49732 1.81565 0
M  V30 827 H 75.4672 -4.57187 0.591702 0
M  V30 828 H 79.0112 -5.85152 3.79793 0
M  V30 829 H 74.9082 -5.92334 2.56537 0
M  V30 830 H 75.6762 -6.90547 4.39417 0
M  V30 831 N 78.3393 -0.321999 -1.54275 0
M  V30 832 C 79.7553 0.0306999 -1.5957 0
M  V30 833 C 79.9553 1.50614 -1.33857 0
M  V30 834 O 79.0113 2.2619 -1.12223 0
M  V30 835 C 80.3243 -0.386122 -2.98211 0
M  V30 836 C 81.8723 -0.336647 -3.11184 0
M  V30 837 C 82.3473 -0.728607 -4.52167 0
M  V30 838 N 83.8383 -0.681952 -4.58152 0
M  V30 839 C 84.5733 -0.957449 -5.6535 0
M  V30 840 N 84.0693 -1.3 -6.80494 0
M  V30 841 N 85.8623 -0.883113 -5.55119 0
M  V30 842 H 78.0133 -1.28332 -1.69247 0
M  V30 843 H 80.2763 -0.521716 -0.791528 0
M  V30 844 H 79.9823 -1.41404 -3.22022 0
M  V30 845 H 79.8563 0.249662 -3.76373 0
M  V30 846 H 82.2433 0.682058 -2.8711 0
M  V30 847 H 82.3243 -1.00734 -2.3513 0
M  V30 848 H 81.9683 -1.74522 -4.76974 0
M  V30 849 H 81.8983 -0.0356152 -5.26588 0
M  V30 850 H 84.3893 -0.428985 -3.75457 0
M  V30 851 H 84.7023 -1.49563 -7.58189 0
M  V30 852 H 83.0473 -1.33824 -6.81994 0
M  V30 853 H 86.2383 -0.615001 -4.64042 0
M  V30 854 H 86.4113 -1.10118 -6.38575 0
M  V30 855 N 79.8174 1.5752 -0.0501392 0
M  V30 856 C 80.7274 2.14952 0.939827 0
M  V30 857 C 81.7434 1.10706 1.34239 0
M  V30 858 O 82.9194 1.42869 1.41952 0
M  V30 859 C 79.9844 2.68232 2.19665 0
M  V30 860 C 79.0454 3.87272 1.85253 0
M  V30 861 C 78.2784 4.38002 3.04943 0
M  V30 862 O 78.5014 3.87811 4.18281 0
M  V30 863 O 77.4354 5.29602 2.86017 0
M  V30 864 H 81.2614 2.9986 0.481392 0
M  V30 865 H 78.8464 1.4841 0.171699 0
M  V30 866 H 80.7284 3.02475 2.93406 0
M  V30 867 H 79.4034 1.86395 2.64648 0
M  V30 868 H 78.3104 3.5792 1.0883 0
M  V30 869 H 79.6434 4.70336 1.4507 0
M  V30 870 N 81.2955 -0.223234 1.56011 0
M  V30 871 C 82.2255 -1.27988 1.95298 0
M  V30 872 C 83.2065 -1.48976 0.820979 0
M  V30 873 O 84.3915 -1.61188 1.08315 0
M  V30 874 C 81.5215 -2.63 2.26822 0
M  V30 875 C 80.4755 -2.56671 3.42497 0
M  V30 876 C 79.8015 -3.95697 3.59622 0
M  V30 877 C 81.1015 -2.11601 4.77517 0
M  V30 878 H 82.7955 -0.953525 2.8381 0
M  V30 879 H 80.3415 -0.457244 1.36548 0
M  V30 880 H 82.2945 -3.37077 2.52898 0
M  V30 881 H 81.0185 -2.9732 1.35161 0
M  V30 882 H 79.6775 -1.85051 3.16467 0
M  V30 883 H 79.3255 -4.27322 2.6534 0
M  V30 884 H 79.0255 -3.92345 4.37424 0
M  V30 885 H 80.5495 -4.71438 3.88044 0
M  V30 886 H 81.9635 -2.7542 5.02809 0
M  V30 887 H 80.3605 -2.19311 5.5859 0
M  V30 888 H 81.4305 -1.06824 4.72987 0
M  V30 889 N 82.7736 -1.49793 -0.48987 0
M  V30 890 C 84.0506 -1.50348 -1.25119 0
M  V30 891 C 84.4306 -0.237466 -2.0976 0
M  V30 892 O 83.7786 0.77981 -2.14782 0
M  V30 893 C 83.9886 -2.78872 -2.09837 0
M  V30 894 C 85.3366 -3.288 -2.68655 0
M  V30 895 O 86.3606 -2.80065 -2.20096 0
M  V30 896 O 85.2196 -4.13707 -3.57083 0
M  V30 897 H 82.3136 -0.602242 -0.566775 0
M  V30 898 H 84.8596 -1.62067 -0.503229 0
M  V30 899 H 83.6316 -3.62499 -1.47343 0
M  V30 900 H 83.2546 -2.70066 -2.91805 0
M  V30 901 N 84.2517 0.741722 -1.39055 0
M  V30 902 C 85.4797 1.53098 -1.39171 0
M  V30 903 C 85.8947 1.88794 0.0155099 0
M  V30 904 O 85.2517 1.53626 0.985159 0
M  V30 905 C 85.3027 2.82274 -2.2584 0
M  V30 906 O 85.0237 2.48097 -3.61081 0
M  V30 907 C 86.5247 3.76343 -2.34266 0
M  V30 908 H 83.7447 0.473335 -0.4756 0
M  V30 909 H 86.2887 0.917045 -1.82785 0
M  V30 910 H 84.4437 3.40015 -1.85656 0
M  V30 911 H 84.8577 3.31029 -4.06842 0
M  V30 912 H 86.3317 4.63898 -2.9917 0
M  V30 913 H 86.8087 4.17619 -1.35982 0
M  V30 914 H 87.4147 3.24523 -2.74891 0
M  V30 915 N 85.7298 1.2412 0.971189 0
M  V30 916 C 87.1458 1.00584 1.23916 0
M  V30 917 C 87.3458 -0.287481 1.99439 0
M  V30 918 O 86.4018 -1.00454 2.31658 0
M  V30 919 C 87.7148 2.21864 2.0297 0
M  V30 920 C 89.2628 2.26452 2.16076 0
M  V30 921 C 89.7378 3.47343 2.98524 0
M  V30 922 N 91.2288 3.47639 3.06107 0
M  V30 923 C 91.9638 4.37837 3.70251 0
M  V30 924 N 91.4598 5.38286 4.36142 0
M  V30 925 N 93.2528 4.25558 3.67228 0
M  V30 926 H 85.4038 2.07236 0.465499 0
M  V30 927 H 87.6668 0.909236 0.268315 0
M  V30 928 H 87.3728 3.15771 1.54861 0
M  V30 929 H 87.2468 2.23698 3.03709 0
M  V30 930 H 89.6338 1.33078 2.6339 0
M  V30 931 H 89.7148 2.28645 1.14696 0
M  V30 932 H 89.3588 4.41029 2.51905 0
M  V30 933 H 89.2888 3.42393 4.00093 0
M  V30 934 H 91.7798 2.74966 2.59233 0
M  V30 935 H 92.0928 6.03352 4.82894 0
M  V30 936 H 90.4378 5.42176 4.34822 0
M  V30 937 H 93.6288 3.46322 3.14927 0
M  V30 938 H 93.8018 4.96054 4.16935 0
M  V30 939 N 87.2079 -1.17134 1.05439 0
M  V30 940 C 88.1709 -2.19439 0.661764 0
M  V30 941 C 89.1709 -1.58199 -0.288042 0
M  V30 942 O 90.3609 -1.74053 -0.0715803 0
M  V30 943 C 87.4929 -3.40889 -0.0276209 0
M  V30 944 H 88.6859 -2.55688 1.56728 0
M  V30 945 H 86.2389 -1.31259 0.848567 0
M  V30 946 H 86.9739 -3.10187 -0.94629 0
M  V30 947 H 86.7589 -3.86586 0.655238 0
M  V30 948 H 88.2489 -4.16603 -0.288342 0
M  V30 949 N 88.686 -0.835752 -1.33615 0
M  V30 950 C 89.963 -0.352017 -1.92406 0
M  V30 951 C 90.343 1.16225 -1.76224 0
M  V30 952 O 89.691 1.97526 -1.14873 0
M  V30 953 C 89.901 -0.795485 -3.39813 0
M  V30 954 C 91.249 -0.801703 -4.16963 0
M  V30 955 O 92.273 -0.738889 -3.48452 0
M  V30 956 O 91.132 -0.886607 -5.3926 0
M  V30 957 H 88.226 -0.0989641 -0.821057 0
M  V30 958 H 90.772 -0.921397 -1.42507 0
M  V30 959 H 89.544 -1.83795 -3.45449 0
M  V30 960 H 89.167 -0.202505 -3.97084 0
M  V30 961 N 90.1641 1.46063 -0.591896 0
M  V30 962 C 91.5801 1.57561 -0.254288 0
M  V30 963 C 91.7801 1.58565 1.24336 0
M  V30 964 O 90.8361 1.50753 2.02558 0
M  V30 965 C 92.1491 2.86549 -0.911611 0
M  V30 966 C 93.6971 3.00197 -0.886059 0
M  V30 967 C 94.1721 4.31933 -1.5231 0
M  V30 968 N 95.6631 4.38654 -1.48786 0
M  V30 969 C 96.3981 5.39222 -1.95006 0
M  V30 970 N 95.8941 6.46414 -2.49241 0
M  V30 971 N 97.6871 5.3048 -1.85868 0
M  V30 972 H 89.8381 1.43655 -1.56451 0
M  V30 973 H 92.1011 0.68583 -0.654478 0
M  V30 974 H 91.8071 2.91651 -1.96551 0
M  V30 975 H 91.6811 3.74794 -0.425368 0
M  V30 976 H 94.0681 2.9467 0.159246 0
M  V30 977 H 94.1491 2.13403 -1.41041 0
M  V30 978 H 93.7931 4.38217 -2.56765 0
M  V30 979 H 93.7231 5.17516 -0.973891 0
M  V30 980 H 96.2141 3.61793 -1.09151 0
M  V30 981 H 96.5271 7.19376 -2.82344 0
M  V30 982 H 94.8721 6.47208 -2.53272 0
M  V30 983 H 98.0631 4.45643 -1.43248 0
M  V30 984 H 98.2361 6.08711 -2.22204 0
M  V30 985 N 91.6422 0.330177 1.54103 0
M  V30 986 C 92.5722 -0.525353 2.27513 0
M  V30 987 C 93.5532 -1.11383 1.2856 0
M  V30 988 O 94.7382 -1.13773 1.57383 0
M  V30 989 C 91.8682 -1.6831 3.03791 0
M  V30 990 C 90.8222 -1.2236 4.10137 0
M  V30 991 C 90.1482 -2.46882 4.74293 0
M  V30 992 C 91.4482 -0.333697 5.21233 0
M  V30 993 H 93.1422 0.087013 2.99274 0
M  V30 994 H 90.6882 0.0432893 1.43935 0
M  V30 995 H 92.6412 -2.28795 3.5388 0
M  V30 996 H 91.3652 -2.32216 2.29659 0
M  V30 997 H 90.0242 -0.64165 3.60941 0
M  V30 998 H 89.6722 -3.09165 3.96769 0
M  V30 999 H 89.3722 -2.16825 5.46133 0
M  V30 1000 H 90.8962 -3.08117 5.27159 0
M  V30 1001 H 92.3102 -0.845013 5.67038 0
M  V30 1002 H 90.7072 -0.125612 5.99969 0
M  V30 1003 H 91.7772 0.633724 4.80741 0
M  V30 1004 N 93.1203 -1.57491 0.0584922 0
M  V30 1005 C 94.0833 -2.1085 -0.898617 0
M  V30 1006 C 95.0833 -1.02964 -1.23511 0
M  V30 1007 O 96.2733 -1.29007 -1.17059 0
M  V30 1008 C 93.4053 -2.59881 -2.20623 0
M  V30 1009 H 94.5983 -2.96715 -0.435936 0
M  V30 1010 H 92.1513 -1.55141 -0.190023 0
M  V30 1011 H 92.8863 -1.77431 -2.71457 0
M  V30 1012 H 92.6713 -3.38727 -1.97501 0
M  V30 1013 H 94.1613 -3.01285 -2.89166 0
M  V30 1014 N 94.5984 0.214957 -1.56127 0
M  V30 1015 C 95.5614 1.24997 -1.92116 0
M  V30 1016 C 96.5614 1.39467 -0.800344 0
M  V30 1017 O 97.7514 1.37619 -1.06802 0
M  V30 1018 C 94.8834 2.62271 -2.17777 0
M  V30 1019 H 96.0764 0.942875 -2.84693 0
M  V30 1020 H 93.6294 0.455654 -1.49511 0
M  V30 1021 H 94.3644 2.98068 -1.27773 0
M  V30 1022 H 94.1494 2.53143 -2.99434 0
M  V30 1023 H 95.6394 3.36946 -2.46693 0
M  V30 1024 N 96.0765 1.50051 0.48192 0
M  V30 1025 C 97.3245 1.60181 1.23234 0
M  V30 1026 C 97.6455 0.299176 1.92691 0
M  V30 1027 O 96.9155 -0.682708 1.83619 0
M  V30 1028 H 95.4955 0.590232 0.457859 0
M  V30 1029 H 98.1575 1.86775 0.556881 0
M  V30 1030 H 97.2535 2.40753 1.98607 0
M  V30 1031 N 97.5546 -0.734337 1.39446 0
M  V30 1032 C 98.8016 -1.49391 1.36706 0
M  V30 1033 C 99.1296 -1.94465 -0.0367813 0
M  V30 1034 O 98.3846 -1.67154 -1.01774 0
M  V30 1035 C 98.6836 -2.74711 2.28623 0
M  V30 1036 C 98.3496 -2.48501 3.76242 0
M  V30 1037 C 97.0116 -2.41062 4.16464 0
M  V30 1038 C 99.3636 -2.26098 4.69606 0
M  V30 1039 C 96.6916 -2.09262 5.48112 0
M  V30 1040 C 99.0436 -1.95814 6.01531 0
M  V30 1041 C 97.7076 -1.86845 6.40816 0
M  V30 1042 H 96.9776 -0.546661 0.500243 0
M  V30 1043 H 99.6246 -0.842788 1.71957 0
M  V30 1044 H 97.9296 -3.44569 1.86492 0
M  V30 1045 H 99.6266 -3.32741 2.23796 0
M  V30 1046 H 96.2166 -2.55169 3.44364 0
M  V30 1047 H 100.401 -2.30812 4.39363 0
M  V30 1048 H 95.6566 -2.00841 5.77471 0
M  V30 1049 H 99.8306 -1.77488 6.73403 0
M  V30 1050 H 97.4576 -1.6197 7.42745 0
M  V30 1051 N 99.0327 -1.24633 -0.964593 0
M  V30 1052 C 99.9647 -0.999302 -2.06268 0
M  V30 1053 C 100.978 0.0323226 -1.62768 0
M  V30 1054 O 102.167 -0.205079 -1.77318 0
M  V30 1055 C 99.2667 -0.486816 -3.35385 0
M  V30 1056 C 98.4397 -1.5823 -4.07777 0
M  V30 1057 C 97.4987 -1.07191 -5.15166 0
M  V30 1058 O 96.5247 -1.76426 -5.41168 0
M  V30 1059 N 97.7267 0.0920373 -5.80427 0
M  V30 1060 H 100.492 -1.94477 -2.28033 0
M  V30 1061 H 98.0527 -1.15704 -1.13244 0
M  V30 1062 H 100.045 -0.130066 -4.04491 0
M  V30 1063 H 98.6147 0.364459 -3.10468 0
M  V30 1064 H 97.8347 -2.11109 -3.32906 0
M  V30 1065 H 99.1227 -2.31854 -4.52903 0
M  V30 1066 H 98.5207 0.670784 -5.61709 0
M  V30 1067 H 97.0777 0.389905 -6.50633 0
M  V30 1068 N 100.511 1.16574 -1.06058 0
M  V30 1069 C 101.458 2.20883 -0.669263 0
M  V30 1070 C 102.428 1.62729 0.332918 0
M  V30 1071 O 103.613 1.895 0.222346 0
M  V30 1072 C 100.753 3.45049 -0.0593572 0
M  V30 1073 C 99.8658 4.17458 -1.11143 0
M  V30 1074 C 99.0008 5.29135 -0.467916 0
M  V30 1075 C 98.0398 5.93343 -1.50369 0
M  V30 1076 N 97.1768 6.96516 -0.883706 0
M  V30 1077 H 102.017 2.53709 -1.5632 0
M  V30 1078 H 99.5538 1.24616 -0.781625 0
M  V30 1079 H 101.512 4.16033 0.311771 0
M  V30 1080 H 100.142 3.12781 0.797992 0
M  V30 1081 H 99.1938 3.45101 -1.60029 0
M  V30 1082 H 100.506 4.61307 -1.89731 0
M  V30 1083 H 99.6598 6.06684 -0.0436871 0
M  V30 1084 H 98.3988 4.86443 0.349864 0
M  V30 1085 H 97.4038 5.14517 -1.93784 0
M  V30 1086 H 98.6288 6.38114 -2.32352 0
M  V30 1087 H 96.5748 6.55943 -0.086595 0
M  V30 1088 H 96.4918 7.38723 -1.607 0
M  V30 1089 H 97.7598 7.77993 -0.484543 0
M  V30 1090 N 101.989 0.842826 1.3317 0
M  V30 1091 C 102.919 0.294028 2.31641 0
M  V30 1092 C 103.9 -0.600401 1.59151 0
M  V30 1093 O 105.085 -0.523124 1.87022 0
M  V30 1094 C 102.215 -0.528416 3.43257 0
M  V30 1095 C 101.169 0.27056 4.27144 0
M  V30 1096 C 100.495 -0.675881 5.30411 0
M  V30 1097 C 101.795 1.48981 5.00602 0
M  V30 1098 H 103.489 1.11681 2.77791 0
M  V30 1099 H 101.035 0.538478 1.33553 0
M  V30 1100 H 102.988 -0.922674 4.11175 0
M  V30 1101 H 101.712 -1.38445 2.95805 0
M  V30 1102 H 100.371 0.646427 3.60856 0
M  V30 1103 H 100.019 -1.52842 4.79216 0
M  V30 1104 H 99.7189 -0.145374 5.8742 0
M  V30 1105 H 101.243 -1.06757 6.01195 0
M  V30 1106 H 102.657 1.16849 5.61266 0
M  V30 1107 H 101.054 1.95739 5.6728 0
M  V30 1108 H 102.124 2.25746 4.29147 0
M  V30 1109 N 103.467 -1.45747 0.599634 0
M  V30 1110 C 104.715 -2.01893 0.0915472 0
M  V30 1111 C 105.036 -1.47155 -1.27946 0
M  V30 1112 O 104.306 -0.66273 -1.84349 0
M  V30 1113 H 102.886 -0.746363 0.0308524 0
M  V30 1114 H 105.548 -1.78645 0.779237 0
M  V30 1115 H 104.644 -3.1208 0.0353086 0
M  V30 1116 N 104.945 -0.338344 -1.53925 0
M  V30 1117 C 106.194 0.260732 -2.00008 0
M  V30 1118 C 106.507 1.52073 -1.23017 0
M  V30 1119 O 107.713 2.19672 -1.5955 0
M  V30 1120 C 106.169 0.51515 -3.56194 0
M  V30 1121 C 105.777 -0.728645 -4.42035 0
M  V30 1122 C 107.521 1.07337 -4.10706 0
M  V30 1123 C 105.428 -0.445315 -5.89721 0
M  V30 1124 H 104.358 0.101205 -0.747177 0
M  V30 1125 H 107.009 -0.452866 -1.77824 0
M  V30 1126 H 105.391 1.28932 -3.74423 0
M  V30 1127 H 106.565 -1.50352 -4.35581 0
M  V30 1128 H 104.88 -1.20813 -3.98489 0
M  V30 1129 H 107.477 1.30022 -5.18651 0
M  V30 1130 H 107.82 2.0273 -3.63602 0
M  V30 1131 H 108.353 0.360034 -3.96167 0
M  V30 1132 H 105.092 -1.36883 -6.41049 0
M  V30 1133 H 104.612 0.291569 -5.99091 0
M  V30 1134 H 106.291 -0.0606218 -6.46972 0
M  V30 1135 N 106.423 1.57458 -0.0668435 0
M  V30 1136 C 107.355 2.09413 0.931601 0
M  V30 1137 C 108.368 1.02522 1.26464 0
M  V30 1138 O 109.557 1.30049 1.22269 0
M  V30 1139 C 106.657 2.53537 2.24882 0
M  V30 1140 C 105.83 3.83944 2.09537 0
M  V30 1141 C 104.889 4.14214 3.2452 0
M  V30 1142 O 103.915 4.83891 2.9973 0
M  V30 1143 N 105.117 3.67367 4.49469 0
M  V30 1144 H 107.882 2.95699 0.488048 0
M  V30 1145 H 105.443 1.61462 0.119009 0
M  V30 1146 H 107.435 2.70853 3.00701 0
M  V30 1147 H 106.005 1.72415 2.60753 0
M  V30 1148 H 105.225 3.76057 1.18215 0
M  V30 1149 H 106.513 4.69312 1.96529 0
M  V30 1150 H 105.911 3.11068 4.72497 0
M  V30 1151 H 104.468 3.89891 5.2233 0
M  V30 1152 N 107.901 -0.206675 1.56239 0
M  V30 1153 C 108.833 -1.27997 1.9013 0
M  V30 1154 C 109.846 -1.42299 0.790883 0
M  V30 1155 O 111.035 -1.42931 1.06925 0
M  V30 1156 C 108.135 -2.65368 2.10792 0
M  V30 1157 C 107.308 -2.72824 3.41886 0
M  V30 1158 C 106.367 -3.9131 3.51799 0
M  V30 1159 O 105.393 -3.78953 4.24716 0
M  V30 1160 N 106.595 -5.06265 2.84035 0
M  V30 1161 H 109.36 -0.992444 2.82791 0
M  V30 1162 H 106.921 -0.396652 1.56966 0
M  V30 1163 H 108.913 -3.43039 2.14724 0
M  V30 1164 H 107.483 -2.86657 1.24685 0
M  V30 1165 H 106.703 -1.81515 3.49923 0
M  V30 1166 H 107.991 -2.74786 4.28217 0
M  V30 1167 H 107.389 -5.19203 2.246 0
M  V30 1168 H 105.946 -5.81925 2.93609 0
M  V30 1169 N 109.379 -1.50304 -0.473955 0
M  V30 1170 C 110.312 -1.63595 -1.59097 0
M  V30 1171 C 111.29 -0.484142 -1.55225 0
M  V30 1172 O 112.474 -0.703271 -1.7489 0
M  V30 1173 C 109.601 -1.61589 -2.97669 0
M  V30 1174 C 108.647 -2.82295 -3.19705 0
M  V30 1175 S 109.48 -4.43635 -2.99913 0
M  V30 1176 C 110.636 -4.44317 -4.40832 0
M  V30 1177 H 110.869 -2.58082 -1.47583 0
M  V30 1178 H 108.402 -1.39531 -0.661087 0
M  V30 1179 H 110.36 -1.61116 -3.7756 0
M  V30 1180 H 109.021 -0.683421 -3.06575 0
M  V30 1181 H 108.214 -2.77188 -4.20931 0
M  V30 1182 H 107.816 -2.8032 -2.47582 0
M  V30 1183 H 110.108 -4.17703 -5.33414 0
M  V30 1184 H 111.051 -5.45911 -4.50984 0
M  V30 1185 H 111.459 -3.74059 -4.22777 0
M  V30 1186 N 110.857 0.726932 -1.39834 0
M  V30 1187 C 112.134 1.47902 -1.28001 0
M  V30 1188 C 112.514 2.1083 0.106789 0
M  V30 1189 O 111.862 1.99242 1.11869 0
M  V30 1190 C 112.072 2.52392 -2.41038 0
M  V30 1191 C 113.42 3.18546 -2.80737 0
M  V30 1192 O 114.444 2.62708 -2.40547 0
M  V30 1193 O 113.303 4.19604 -3.50135 0
M  V30 1194 H 110.397 0.657163 -0.502062 0
M  V30 1195 H 112.943 0.760071 -1.51727 0
M  V30 1196 H 111.715 2.04329 -3.33715 0
M  V30 1197 H 111.338 3.31837 -2.19021 0
M  V30 1198 N 112.336 1.25143 0.95797 0
M  V30 1199 C 113.752 1.01892 1.22842 0
M  V30 1200 C 113.952 -0.266311 1.99732 0
M  V30 1201 O 113.008 -0.979913 2.3271 0
M  V30 1202 C 114.321 2.24004 2.00606 0
M  V30 1203 C 115.869 2.28731 2.13662 0
M  V30 1204 C 116.344 3.5049 2.94823 0
M  V30 1205 N 117.835 3.50866 3.02403 0
M  V30 1206 C 118.57 4.4174 3.65586 0
M  V30 1207 N 118.066 5.42882 4.30408 0
M  V30 1208 N 119.859 4.29429 3.62694 0
M  V30 1209 H 112.01 2.07718 0.443493 0
M  V30 1210 H 114.273 0.912031 0.258657 0
M  V30 1211 H 113.979 3.17395 1.51503 0
M  V30 1212 H 113.853 2.26907 3.01319 0
M  V30 1213 H 116.24 1.35865 2.61963 0
M  V30 1214 H 116.321 2.29848 1.12265 0
M  V30 1215 H 115.965 4.43676 2.47213 0
M  V30 1216 H 115.895 3.46617 3.96439 0
M  V30 1217 H 118.386 2.777 2.56302 0
M  V30 1218 H 118.699 6.0844 4.76467 0
M  V30 1219 H 117.044 5.46758 4.29047 0
M  V30 1220 H 120.235 3.49643 3.11236 0
M  V30 1221 H 120.408 5.00448 4.1165 0
M  V30 1222 N 113.814 -1.1601 1.06675 0
M  V30 1223 C 115.06 -1.86909 0.786945 0
M  V30 1224 C 115.393 -1.81717 -0.685018 0
M  V30 1225 O 114.668 -1.23551 -1.50218 0
M  V30 1226 C 114.951 -3.36313 1.28707 0
M  V30 1227 C 114.804 -3.50175 2.82308 0
M  V30 1228 C 116.123 -4.3084 0.898071 0
M  V30 1229 H 113.242 -0.678677 0.287343 0
M  V30 1230 H 115.884 -1.36336 1.32334 0
M  V30 1231 H 114.034 -3.79513 0.830768 0
M  V30 1232 H 115.706 -3.15886 3.36175 0
M  V30 1233 H 113.949 -2.91959 3.20847 0
M  V30 1234 H 114.62 -4.55116 3.12368 0
M  V30 1235 H 117.096 -3.95561 1.29114 0
M  V30 1236 H 115.972 -5.33876 1.27543 0
M  V30 1237 H 116.233 -4.41662 -0.196651 0
M  V30 1238 N 115.292 -0.849877 -1.32721 0
M  V30 1239 C 116.538 -0.451591 -1.97708 0
M  V30 1240 C 116.871 0.989175 -1.6712 0
M  V30 1241 O 116.146 1.69334 -0.956891 0
M  V30 1242 C 116.429 -0.685598 -3.53513 0
M  V30 1243 C 116.282 -2.17444 -3.93749 0
M  V30 1244 C 117.601 -0.138874 -4.39881 0
M  V30 1245 H 114.72 -0.16555 -0.718166 0
M  V30 1246 H 117.362 -1.06742 -1.57182 0
M  V30 1247 H 115.512 -0.161416 -3.88165 0
M  V30 1248 H 117.184 -2.76433 -3.693 0
M  V30 1249 H 115.427 -2.65476 -3.43081 0
M  V30 1250 H 116.098 -2.28888 -5.02309 0
M  V30 1251 H 118.574 -0.587068 -4.11938 0
M  V30 1252 H 117.45 -0.332213 -5.47894 0
M  V30 1253 H 117.711 0.95806 -4.31594 0
M  V30 1254 N 116.77 1.45427 -0.607355 0
M  V30 1255 C 118.016 2.0254 -0.102607 0
M  V30 1256 C 118.349 1.47478 1.26348 0
M  V30 1257 O 117.624 0.64939 1.83339 0
M  V30 1258 C 117.907 3.60044 -0.0634347 0
M  V30 1259 C 117.76 4.2544 -1.46017 0
M  V30 1260 C 119.079 4.35646 0.624514 0
M  V30 1261 H 116.198 0.73598 -0.0387607 0
M  V30 1262 H 118.84 1.73284 -0.779282 0
M  V30 1263 H 116.99 3.85101 0.512808 0
M  V30 1264 H 118.662 4.11569 -2.08347 0
M  V30 1265 H 116.905 3.83849 -2.02094 0
M  V30 1266 H 117.576 5.34342 -1.385 0
M  V30 1267 H 120.052 4.15882 0.134723 0
M  V30 1268 H 118.928 5.45376 0.621028 0
M  V30 1269 H 119.189 4.08501 1.69055 0
M  V30 1270 N 118.248 0.346503 1.53744 0
M  V30 1271 C 119.18 -0.543316 2.22667 0
M  V30 1272 C 120.193 -1.06159 1.23427 0
M  V30 1273 O 121.382 -0.971235 1.49764 0
M  V30 1274 C 118.482 -1.76076 2.89569 0
M  V30 1275 C 117.655 -1.37727 4.15151 0
M  V30 1276 C 116.714 -2.45471 4.65436 0
M  V30 1277 O 115.74 -2.08655 5.29577 0
M  V30 1278 N 116.942 -3.7677 4.41616 0
M  V30 1279 H 119.707 0.0469703 2.99663 0
M  V30 1280 H 117.268 0.170766 1.60997 0
M  V30 1281 H 119.26 -2.47593 3.20125 0
M  V30 1282 H 117.83 -2.25835 2.16142 0
M  V30 1283 H 117.05 -0.492746 3.91108 0
M  V30 1284 H 118.338 -1.09708 4.96832 0
M  V30 1285 H 117.736 -4.09467 3.90325 0
M  V30 1286 H 116.293 -4.44448 4.7677 0
M  V30 1287 N 119.726 -1.57421 0.075193 0
M  V30 1288 C 120.656 -2.15942 -0.888324 0
M  V30 1289 C 121.637 -1.08737 -1.30806 0
M  V30 1290 O 122.822 -1.36787 -1.37851 0
M  V30 1291 C 119.952 -2.72379 -2.1547 0
M  V30 1292 C 118.906 -3.8478 -1.87425 0
M  V30 1293 C 118.232 -4.27834 -3.20721 0
M  V30 1294 C 119.532 -5.08869 -1.17684 0
M  V30 1295 H 121.226 -2.96705 -0.400799 0
M  V30 1296 H 118.772 -1.42723 -0.191342 0
M  V30 1297 H 120.725 -3.11965 -2.83295 0
M  V30 1298 H 119.449 -1.88841 -2.6647 0
M  V30 1299 H 118.108 -3.45703 -1.22004 0
M  V30 1300 H 117.756 -3.41214 -3.6957 0
M  V30 1301 H 117.456 -5.03605 -3.02746 0
M  V30 1302 H 118.98 -4.70039 -3.89738 0
M  V30 1303 H 120.394 -5.4575 -1.75584 0
M  V30 1304 H 118.791 -5.8994 -1.09956 0
M  V30 1305 H 119.861 -4.84648 -0.156453 0
M  V30 1306 N 121.204 0.198386 -1.56346 0
M  V30 1307 C 122.615 0.763358 -1.70381 0
M  V30 1308 C 122.966 1.83995 -0.681203 0
M  V30 1309 O 122.091 2.15785 0.16305 0
M  V30 1310 C 122.686 1.39143 -3.08909 0
M  V30 1311 C 121.245 1.90352 -3.2472 0
M  V30 1312 C 120.392 0.772233 -2.6633 0
M  V30 1313 H 123.343 -0.0266377 -1.58678 0
M  V30 1314 H 123.364 2.26076 -3.06055 0
M  V30 1315 H 122.876 0.607638 -3.83314 0
M  V30 1316 H 120.977 2.71461 -2.55225 0
M  V30 1317 H 121.09 2.06757 -4.3219 0
M  V30 1318 H 119.454 1.18566 -2.2542 0
M  V30 1319 H 120.237 0.00073556 -3.433 0
M  V30 1320 N 122.682 1.50554 0.465978 0
M  V30 1321 C 123.63 1.70324 1.58406 0
M  V30 1322 C 124.624 0.569139 1.59553 0
M  V30 1323 O 125.83 0.749776 1.63641 0
M  V30 1324 H 122.205 0.537688 0.525734 0
M  V30 1325 H 124.176 2.64104 1.38894 0
M  V30 1326 C 122.925 1.81928 2.96307 0
M  V30 1327 H 122.248 2.68586 2.96144 0
M  V30 1328 H 123.688 1.99784 3.73982 0
M  V30 1329 C 122.147 0.572095 3.32007 0
M  V30 1330 O 122.677 -0.286416 4.00678 0
M  V30 1331 N 120.883 0.424606 2.87481 0
M  V30 1332 H 120.43 1.12427 2.31771 0
M  V30 1333 H 120.388 -0.408697 3.11732 0
M  V30 1334 N 124.16 -0.719506 1.40217 0
M  V30 1335 C 125.409 -1.47486 1.37589 0
M  V30 1336 C 125.722 -1.9559 -0.0201568 0
M  V30 1337 O 126.928 -2.70973 -0.169049 0
M  V30 1338 C 125.384 -2.66575 2.41796 0
M  V30 1339 C 124.992 -2.25358 3.87192 0
M  V30 1340 C 126.736 -3.4433 2.48269 0
M  V30 1341 C 124.643 -3.41262 4.83005 0
M  V30 1342 H 123.573 -0.553901 0.511576 0
M  V30 1343 H 126.224 -0.783427 1.65936 0
M  V30 1344 H 124.606 -3.3787 2.06543 0
M  V30 1345 H 125.78 -1.61509 4.31569 0
M  V30 1346 H 124.095 -1.60657 3.84159 0
M  V30 1347 H 126.692 -4.30569 3.17041 0
M  V30 1348 H 127.035 -3.87872 1.51198 0
M  V30 1349 H 127.568 -2.80076 2.82493 0
M  V30 1350 H 124.307 -3.02755 5.81394 0
M  V30 1351 H 123.827 -4.0404 4.43297 0
M  V30 1352 H 125.506 -4.07383 5.02641 0
M  V30 1353 N 125.638 -1.25649 -0.95132 0
M  V30 1354 C 126.585 -1.06323 -2.04851 0
M  V30 1355 C 127.555 0.0286491 -1.66075 0
M  V30 1356 O 128.74 -0.12917 -1.90362 0
M  V30 1357 C 125.88 -0.691529 -3.381 0
M  V30 1358 C 124.993 -1.85861 -3.89974 0
M  V30 1359 C 124.128 -1.43096 -5.11563 0
M  V30 1360 C 123.167 -2.56696 -5.55674 0
M  V30 1361 N 122.304 -2.14684 -6.68472 0
M  V30 1362 H 127.144 -2.00222 -2.20715 0
M  V30 1363 H 124.681 -0.997027 -1.08156 0
M  V30 1364 H 126.639 -0.456963 -4.1469 0
M  V30 1365 H 125.269 0.210474 -3.22113 0
M  V30 1366 H 124.321 -2.20639 -3.09875 0
M  V30 1367 H 125.633 -2.71161 -4.18657 0
M  V30 1368 H 124.787 -1.15624 -5.9558 0
M  V30 1369 H 123.526 -0.548722 -4.84603 0
M  V30 1370 H 122.531 -2.84909 -4.7022 0
M  V30 1371 H 123.756 -3.45503 -5.8464 0
M  V30 1372 H 121.702 -1.28881 -6.43215 0
M  V30 1373 H 121.619 -2.9353 -6.96689 0
M  V30 1374 H 122.887 -1.90397 -7.5589 0
M  V30 1375 N 127.117 1.15442 -1.07289 0
M  V30 1376 C 128.027 2.23786 -0.704057 0
M  V30 1377 C 129.043 1.7166 0.284413 0
M  V30 1378 O 130.219 2.00972 0.131205 0
M  V30 1379 C 127.284 3.46535 -0.106792 0
M  V30 1380 C 126.345 4.13654 -1.14842 0
M  V30 1381 C 125.578 5.30544 -0.57956 0
M  V30 1382 O 125.801 5.67187 0.604585 0
M  V30 1383 O 124.735 5.87154 -1.32414 0
M  V30 1384 H 128.561 2.57664 -1.60757 0
M  V30 1385 H 126.146 1.23152 -0.845803 0
M  V30 1386 H 128.028 4.20804 0.224048 0
M  V30 1387 H 126.703 3.14407 0.770049 0
M  V30 1388 H 125.61 3.4131 -1.5316 0
M  V30 1389 H 126.943 4.49861 -1.99714 0
M  V30 1390 N 128.595 0.856903 1.32268 0
M  V30 1391 C 129.842 0.461386 1.97174 0
M  V30 1392 C 130.17 -0.983491 1.67803 0
M  V30 1393 O 129.425 -1.70541 0.959903 0
M  V30 1394 C 129.724 0.649919 3.51441 0
M  V30 1395 C 129.39 2.0656 4.00804 0
M  V30 1396 C 128.052 2.45279 4.13995 0
M  V30 1397 C 130.404 2.98947 4.26943 0
M  V30 1398 C 127.732 3.75653 4.50668 0
M  V30 1399 C 130.084 4.28822 4.65075 0
M  V30 1400 C 128.748 4.67472 4.76472 0
M  V30 1401 H 128.018 0.168833 0.72151 0
M  V30 1402 H 130.665 1.08739 1.57633 0
M  V30 1403 H 128.97 -0.0593018 3.91755 0
M  V30 1404 H 130.667 0.32391 3.9969 0
M  V30 1405 H 127.257 1.75495 3.91024 0
M  V30 1406 H 131.441 2.70265 4.16258 0
M  V30 1407 H 126.697 4.05379 4.57688 0
M  V30 1408 H 130.871 5.0047 4.84255 0
M  V30 1409 H 128.498 5.68539 5.04646 0
M  V30 1410 N 130.073 -1.45103 0.615059 0
M  V30 1411 C 131.32 -2.02183 0.113179 0
M  V30 1412 C 131.648 -1.48249 -1.25906 0
M  V30 1413 O 130.903 -0.650265 -1.84581 0
M  V30 1414 C 131.202 -3.57386 0.0318797 0
M  V30 1415 C 130.868 -4.30505 1.34077 0
M  V30 1416 C 129.53 -4.50197 1.69929 0
M  V30 1417 C 131.882 -4.72238 2.20546 0
M  V30 1418 C 129.21 -5.08881 2.91988 0
M  V30 1419 C 131.562 -5.32272 3.41861 0
M  V30 1420 C 130.226 -5.50187 3.77956 0
M  V30 1421 H 129.496 -0.739842 0.0414151 0
M  V30 1422 H 132.143 -1.74073 0.798168 0
M  V30 1423 H 130.448 -3.84817 -0.736409 0
M  V30 1424 H 132.145 -3.99264 -0.372712 0
M  V30 1425 H 128.735 -4.15496 1.05173 0
M  V30 1426 H 132.919 -4.56751 1.94146 0
M  V30 1427 H 128.175 -5.20939 3.2005 0
M  V30 1428 H 132.349 -5.63563 4.09109 0
M  V30 1429 H 129.976 -5.95427 4.72622 0
M  V30 1430 N 131.551 -0.354651 -1.53558 0
M  V30 1431 C 132.461 0.50515 -2.29097 0
M  V30 1432 C 133.477 1.10223 -1.34636 0
M  V30 1433 O 134.653 1.11553 -1.67684 0
M  V30 1434 C 131.718 1.63479 -3.05738 0
M  V30 1435 C 130.779 1.06636 -4.15845 0
M  V30 1436 C 130.012 2.14217 -4.88822 0
M  V30 1437 O 130.235 3.35137 -4.61562 0
M  V30 1438 O 129.169 1.77887 -5.75013 0
M  V30 1439 H 132.995 -0.109237 -3.03503 0
M  V30 1440 H 130.58 -0.119357 -1.48922 0
M  V30 1441 H 132.462 2.2918 -3.5363 0
M  V30 1442 H 131.137 2.23478 -2.34178 0
M  V30 1443 H 130.044 0.373565 -3.7223 0
M  V30 1444 H 131.377 0.511081 -4.89539 0
M  V30 1445 N 133.029 1.57378 -0.0835403 0
M  V30 1446 C 134.275 1.94217 0.583733 0
M  V30 1447 C 134.608 0.964653 1.68547 0
M  V30 1448 O 133.883 -0.00422258 1.945 0
M  V30 1449 C 134.166 3.41253 1.14972 0
M  V30 1450 C 134.019 4.49768 0.0538277 0
M  V30 1451 C 135.338 3.89352 2.05166 0
M  V30 1452 H 132.457 0.706233 0.210724 0
M  V30 1453 H 135.099 1.89392 -0.1519 0
M  V30 1454 H 133.249 3.45496 1.77665 0
M  V30 1455 H 134.921 4.57641 -0.579851 0
M  V30 1456 H 133.164 4.29432 -0.614068 0
M  V30 1457 H 133.835 5.49817 0.490452 0
M  V30 1458 H 136.311 3.87189 1.52393 0
M  V30 1459 H 135.187 4.92822 2.41698 0
M  V30 1460 H 135.448 3.27973 2.96456 0
M  V30 1461 N 134.507 -0.190092 1.56449 0
M  V30 1462 C 135.756 -0.907912 1.80111 0
M  V30 1463 C 136.069 -1.84214 0.657619 0
M  V30 1464 O 137.275 -2.60094 0.778663 0
M  V30 1465 C 135.731 -1.66485 3.19078 0
M  V30 1466 C 135.339 -0.7752 4.41242 0
M  V30 1467 C 137.083 -2.37201 3.52045 0
M  V30 1468 C 134.99 -1.53129 5.71231 0
M  V30 1469 H 133.92 -0.34276 0.671589 0
M  V30 1470 H 136.571 -0.161109 1.82791 0
M  V30 1471 H 134.953 -2.45572 3.10661 0
M  V30 1472 H 136.127 -0.0226298 4.60794 0
M  V30 1473 H 134.442 -0.178627 4.16017 0
M  V30 1474 H 137.039 -2.94329 4.46402 0
M  V30 1475 H 137.382 -3.11632 2.76028 0
M  V30 1476 H 137.915 -1.65075 3.61932 0
M  V30 1477 H 134.654 -0.82967 6.50228 0
M  V30 1478 H 134.174 -2.25767 5.55688 0
M  V30 1479 H 135.853 -2.08377 6.12526 0
M  V30 1480 N 135.985 -1.50799 -0.457987 0
M  V30 1481 C 137.232 -1.62442 -1.20908 0
M  V30 1482 C 137.56 -0.330865 -1.91665 0
M  V30 1483 O 136.815 0.68401 -1.83357 0
M  V30 1484 C 137.114 -2.76358 -2.2663 0
M  V30 1485 C 136.78 -4.16378 -1.73033 0
M  V30 1486 C 135.442 -4.54473 -1.58138 0
M  V30 1487 C 137.794 -5.03836 -1.33413 0
M  V30 1488 C 135.122 -5.77754 -1.02065 0
M  V30 1489 C 137.474 -6.27676 -0.78778 0
M  V30 1490 C 136.138 -6.64562 -0.625561 0
M  V30 1491 H 135.408 -0.594417 -0.442435 0
M  V30 1492 H 138.055 -1.84772 -0.503136 0
M  V30 1493 H 136.36 -2.48167 -3.03184 0
M  V30 1494 H 138.057 -2.82568 -2.84528 0
M  V30 1495 H 134.647 -3.86331 -1.85598 0
M  V30 1496 H 138.831 -4.75026 -1.4375 0
M  V30 1497 H 134.087 -6.04997 -0.882547 0
M  V30 1498 H 138.261 -6.94797 -0.472177 0
M  V30 1499 H 135.888 -7.59965 -0.188926 0
M  V30 1500 N 137.463 0.71206 -1.40597 0
M  V30 1501 C 138.426 1.80785 -1.40888 0
M  V30 1502 C 139.426 1.57937 -0.302103 0
M  V30 1503 O 140.616 1.64913 -0.561182 0
M  V30 1504 C 137.748 3.18927 -1.20409 0
M  V30 1505 H 138.941 1.81924 -2.38419 0
M  V30 1506 H 136.494 0.91805 -1.26497 0
M  V30 1507 H 137.229 3.23436 -0.236522 0
M  V30 1508 H 137.014 3.36911 -2.00582 0
M  V30 1509 H 138.504 3.98949 -1.23408 0
M  V30 1510 N 138.941 1.26152 0.944643 0
M  V30 1511 C 139.871 1.09902 2.06019 0
M  V30 1512 C 140.852 0.00519538 1.70099 0
M  V30 1513 O 142.037 0.176583 1.93396 0
M  V30 1514 C 139.167 0.727562 3.39594 0
M  V30 1515 C 138.121 1.77274 3.89561 0
M  V30 1516 C 137.447 1.25569 5.19747 0
M  V30 1517 C 138.747 3.17357 4.14827 0
M  V30 1518 H 140.441 2.03217 2.19871 0
M  V30 1519 H 137.987 0.978452 1.05652 0
M  V30 1520 H 139.94 0.600777 4.17095 0
M  V30 1521 H 138.664 -0.241287 3.25707 0
M  V30 1522 H 137.323 1.88814 3.14237 0
M  V30 1523 H 136.971 0.276783 5.02238 0
M  V30 1524 H 136.671 1.95433 5.54148 0
M  V30 1525 H 138.195 1.1415 5.99835 0
M  V30 1526 H 139.609 3.08914 4.82954 0
M  V30 1527 H 138.006 3.84781 4.60504 0
M  V30 1528 H 139.076 3.63673 3.20734 0
M  V30 1529 N 140.419 -1.14872 1.07899 0
M  V30 1530 C 141.666 -1.85789 0.805532 0
M  V30 1531 C 141.994 -1.82649 -0.668561 0
M  V30 1532 O 141.249 -1.24858 -1.50695 0
M  V30 1533 C 141.548 -3.34223 1.26609 0
M  V30 1534 C 141.214 -3.57555 2.74709 0
M  V30 1535 C 139.876 -3.63631 3.1516 0
M  V30 1536 C 142.228 -3.66803 3.70277 0
M  V30 1537 C 139.556 -3.76473 4.49983 0
M  V30 1538 C 141.908 -3.8117 5.04869 0
M  V30 1539 C 140.572 -3.85494 5.44932 0
M  V30 1540 H 139.842 -0.679849 0.294765 0
M  V30 1541 H 142.489 -1.3572 1.35101 0
M  V30 1542 H 140.794 -3.86536 0.640103 0
M  V30 1543 H 142.491 -3.87511 1.03132 0
M  V30 1544 H 139.081 -3.5347 2.42398 0
M  V30 1545 H 143.265 -3.61404 3.40149 0
M  V30 1546 H 138.521 -3.7808 4.80484 0
M  V30 1547 H 142.695 -3.87268 5.78789 0
M  V30 1548 H 140.322 -3.95197 6.49403 0
M  V30 1549 N 141.898 -0.863906 -1.31812 0
M  V30 1550 C 143.314 -0.555004 -1.49639 0
M  V30 1551 C 143.514 0.912266 -1.79666 0
M  V30 1552 O 142.57 1.69479 -1.87171 0
M  V30 1553 C 143.883 -1.44998 -2.63431 0
M  V30 1554 C 145.431 -1.45138 -2.77316 0
M  V30 1555 C 145.906 -2.33179 -3.94197 0
M  V30 1556 N 147.397 -2.31025 -4.01474 0
M  V30 1557 C 148.132 -2.95871 -4.9117 0
M  V30 1558 N 147.628 -3.69863 -5.8581 0
M  V30 1559 N 149.421 -2.85211 -4.84367 0
M  V30 1560 H 141.572 -1.81339 -1.10589 0
M  V30 1561 H 143.835 -0.77505 -0.545895 0
M  V30 1562 H 143.541 -2.49377 -2.48 0
M  V30 1563 H 143.415 -1.14409 -3.59431 0
M  V30 1564 H 145.802 -0.415201 -2.92164 0
M  V30 1565 H 145.883 -1.79747 -1.82001 0
M  V30 1566 H 145.527 -3.3687 -3.80107 0
M  V30 1567 H 145.457 -1.95897 -4.88807 0
M  V30 1568 H 147.948 -1.77238 -3.33759 0
M  V30 1569 H 148.261 -4.16486 -6.50968 0
M  V30 1570 H 146.606 -3.73971 -5.85808 0
M  V30 1571 H 149.797 -2.26948 -4.09405 0
M  V30 1572 H 149.97 -3.36027 -5.54066 0
M  V30 1573 N 143.376 1.44774 -0.622745 0
M  V30 1574 C 144.306 2.33382 0.0741861 0
M  V30 1575 C 145.287 1.47719 0.843387 0
M  V30 1576 O 146.472 1.76458 0.810934 0
M  V30 1577 C 143.602 3.30663 1.06204 0
M  V30 1578 C 142.556 4.26079 0.405037 0
M  V30 1579 C 141.882 5.13165 1.5022 0
M  V30 1580 C 143.182 5.1781 -0.683414 0
M  V30 1581 H 144.876 2.91905 -0.665713 0
M  V30 1582 H 142.422 1.40363 -0.321587 0
M  V30 1583 H 144.375 3.9153 1.55827 0
M  V30 1584 H 143.099 2.70331 1.83272 0
M  V30 1585 H 141.758 3.66532 -0.0704683 0
M  V30 1586 H 141.406 4.49191 2.26355 0
M  V30 1587 H 141.106 5.77812 1.06803 0
M  V30 1588 H 142.63 5.76902 2.00041 0
M  V30 1589 H 144.044 5.72661 -0.270631 0
M  V30 1590 H 142.441 5.91015 -1.04023 0
M  V30 1591 H 143.511 4.59326 -1.55395 0
M  V30 1592 N 144.854 0.36279 1.53368 0
M  V30 1593 C 146.102 -0.227326 2.00817 0
M  V30 1594 C 146.423 -1.49511 1.25186 0
M  V30 1595 O 145.693 -1.92482 0.364348 0
M  V30 1596 H 144.273 -0.0869923 0.741917 0
M  V30 1597 H 146.935 0.488381 1.88682 0
M  V30 1598 H 146.031 -0.456273 3.08747 0
M  V30 1599 N 146.332 -1.57332 0.0918853 0
M  V30 1600 C 147.295 -2.12708 -0.85369 0
M  V30 1601 C 148.295 -1.05561 -1.213 0
M  V30 1602 O 149.485 -1.31461 -1.14296 0
M  V30 1603 C 146.617 -2.64503 -2.15061 0
M  V30 1604 H 147.81 -2.97573 -0.3729 0
M  V30 1605 H 145.363 -1.55509 -0.157072 0
M  V30 1606 H 146.098 -1.83149 -2.67632 0
M  V30 1607 H 145.883 -3.4284 -1.90272 0
M  V30 1608 H 147.373 -3.07351 -2.82711 0
M  V30 1609 N 147.81 0.181792 -1.56548 0
M  V30 1610 C 148.74 1.22765 -1.98623 0
M  V30 1611 C 149.721 1.46747 -0.860189 0
M  V30 1612 O 150.906 1.58259 -1.12551 0
M  V30 1613 C 148.036 2.56894 -2.33715 0
M  V30 1614 C 146.99 2.475 -3.49182 0
M  V30 1615 C 146.316 3.86023 -3.69986 0
M  V30 1616 C 147.616 1.98866 -4.82959 0
M  V30 1617 H 149.31 0.877942 -2.86239 0
M  V30 1618 H 146.856 0.42088 -1.37712 0
M  V30 1619 H 148.809 3.30253 -2.61746 0
M  V30 1620 H 147.533 2.93632 -1.42997 0
M  V30 1621 H 146.192 1.76596 -3.21262 0
M  V30 1622 H 145.84 4.20136 -2.76576 0
M  V30 1623 H 145.54 3.80609 -4.47672 0
M  V30 1624 H 147.064 4.60984 -4.00407 0
M  V30 1625 H 148.478 2.61992 -5.09934 0
M  V30 1626 H 146.875 2.04424 -5.64208 0
M  V30 1627 H 147.945 0.942465 -4.75653 0
M  V30 1628 N 149.288 1.51039 0.449983 0
M  V30 1629 C 150.699 1.557 1.03026 0
M  V30 1630 C 151.05 0.372939 1.92623 0
M  V30 1631 O 150.175 -0.511771 2.10261 0
M  V30 1632 C 150.77 2.82171 1.87523 0
M  V30 1633 C 149.329 2.89444 2.40622 0
M  V30 1634 C 148.476 2.50228 1.19504 0
M  V30 1635 H 151.427 1.56999 0.231745 0
M  V30 1636 H 151.448 2.65219 2.72835 0
M  V30 1637 H 150.96 3.68331 1.22286 0
M  V30 1638 H 149.061 2.07685 3.0935 0
M  V30 1639 H 149.174 3.92816 2.74285 0
M  V30 1640 H 147.538 2.03139 1.53644 0
M  V30 1641 H 148.321 3.38719 0.558972 0
M  V30 1642 N 150.766 -0.704594 1.40972 0
M  V30 1643 C 152.012 -1.46675 1.40051 0
M  V30 1644 C 152.345 -1.94199 0.00641102 0
M  V30 1645 O 151.62 -1.68916 -0.964235 0
M  V30 1646 C 151.903 -2.68505 2.39952 0
M  V30 1647 C 151.756 -2.26805 3.88432 0
M  V30 1648 C 153.075 -3.70686 2.37233 0
M  V30 1649 H 150.194 -0.532015 0.510028 0
M  V30 1650 H 152.836 -0.803255 1.72185 0
M  V30 1651 H 150.986 -3.25114 2.1268 0
M  V30 1652 H 152.658 -1.75592 4.26574 0
M  V30 1653 H 150.901 -1.58685 4.03734 0
M  V30 1654 H 151.572 -3.14181 4.53866 0
M  V30 1655 H 154.048 -3.23731 2.61415 0
M  V30 1656 H 152.924 -4.53553 3.09162 0
M  V30 1657 H 153.185 -4.19754 1.38777 0
M  V30 1658 N 152.244 -1.26651 -0.937939 0
M  V30 1659 C 153.491 -1.12387 -1.6845 0
M  V30 1660 C 153.819 0.332208 -1.91642 0
M  V30 1661 O 153.074 1.2602 -1.49725 0
M  V30 1662 C 153.373 -1.84168 -3.06295 0
M  V30 1663 C 153.039 -3.34056 -3.02849 0
M  V30 1664 C 151.701 -3.74942 -3.01616 0
M  V30 1665 C 154.053 -4.29741 -2.9491 0
M  V30 1666 C 151.381 -5.09894 -2.90215 0
M  V30 1667 C 153.733 -5.64738 -2.8505 0
M  V30 1668 C 152.397 -6.0493 -2.82162 0
M  V30 1669 H 151.667 -0.411252 -0.616403 0
M  V30 1670 H 154.314 -1.57134 -1.09459 0
M  V30 1671 H 152.619 -1.319 -3.6893 0
M  V30 1672 H 154.316 -1.70569 -3.62915 0
M  V30 1673 H 150.906 -3.01534 -3.0459 0
M  V30 1674 H 155.09 -3.99133 -2.94969 0
M  V30 1675 H 150.346 -5.40194 -2.86358 0
M  V30 1676 H 154.52 -6.38561 -2.77872 0
M  V30 1677 H 152.147 -7.09457 -2.73084 0
M  V30 1678 N 153.722 1.14298 -1.08507 0
M  V30 1679 C 154.685 2.17607 -0.719711 0
M  V30 1680 C 155.685 1.58907 0.245997 0
M  V30 1681 O 156.875 1.74181 0.0254081 0
M  V30 1682 C 154.007 3.40842 -0.0627695 0
M  V30 1683 H 155.2 2.51443 -1.63452 0
M  V30 1684 H 152.753 1.28963 -0.88307 0
M  V30 1685 H 153.488 3.12587 0.863716 0
M  V30 1686 H 153.273 3.84713 -0.757504 0
M  V30 1687 H 154.763 4.17221 0.177786 0
M  V30 1688 N 155.201 0.870884 1.31352 0
M  V30 1689 C 156.131 0.343096 2.30966 0
M  V30 1690 C 157.112 -0.566507 1.60389 0
M  V30 1691 O 158.297 -0.483336 1.88089 0
M  V30 1692 C 155.427 -0.455487 3.443 0
M  V30 1693 C 154.381 0.361103 4.26474 0
M  V30 1694 C 153.707 -0.563221 5.31725 0
M  V30 1695 C 155.007 1.59566 4.97329 0
M  V30 1696 H 156.701 1.17548 2.75359 0
M  V30 1697 H 154.247 0.566686 1.32381 0
M  V30 1698 H 156.2 -0.83525 4.13039 0
M  V30 1699 H 154.924 -1.32139 2.98675 0
M  V30 1700 H 153.583 0.722825 3.59403 0
M  V30 1701 H 153.231 -1.42643 4.82351 0
M  V30 1702 H 152.931 -0.0207409 5.87596 0
M  V30 1703 H 154.455 -0.939808 6.03324 0
M  V30 1704 H 155.869 1.28728 5.58661 0
M  V30 1705 H 154.266 2.07728 5.63 0
M  V30 1706 H 155.336 2.34798 4.24262 0
M  V30 1707 N 156.679 -1.44442 0.630414 0
M  V30 1708 C 158.09 -1.85434 0.217063 0
M  V30 1709 C 158.441 -1.52748 -1.23136 0
M  V30 1710 O 157.566 -0.965205 -1.93682 0
M  V30 1711 C 158.161 -3.36581 0.387168 0
M  V30 1712 C 156.72 -3.76389 0.0283297 0
M  V30 1713 C 155.867 -2.68296 0.700889 0
M  V30 1714 H 158.818 -1.34919 0.83562 0
M  V30 1715 H 158.839 -3.78657 -0.374086 0
M  V30 1716 H 158.351 -3.60339 1.44144 0
M  V30 1717 H 156.452 -3.58246 -1.02423 0
M  V30 1718 H 156.565 -4.77095 0.437892 0
M  V30 1719 H 154.929 -2.54335 0.136267 0
M  V30 1720 H 155.712 -2.94887 1.75774 0
M  V30 1721 N 158.157 -0.370918 -1.53173 0
M  V30 1722 C 159.382 0.220293 -2.06227 0
M  V30 1723 C 159.807 1.41243 -1.24225 0
M  V30 1724 O 159.165 1.79387 -0.262645 0
M  V30 1725 C 159.213 0.586663 -3.55796 0
M  V30 1726 O 158.317 1.68317 -3.76488 0
M  V30 1727 H 157.658 0.0308099 -0.663285 0
M  V30 1728 H 160.188 -0.533068 -1.97534 0
M  V30 1729 H 160.198 0.85617 -3.98916 0
M  V30 1730 H 158.873 -0.285013 -4.14922 0
M  V30 1731 H 157.45 1.40881 -3.45264 0
M  V30 1732 N 159.635 1.57281 -0.100228 0
M  V30 1733 C 160.585 2.10848 0.86759 0
M  V30 1734 C 161.569 1.02473 1.24049 0
M  V30 1735 O 162.761 1.28739 1.21471 0
M  V30 1736 C 159.89 2.69648 2.12474 0
M  V30 1737 C 158.976 3.85074 1.77704 0
M  V30 1738 N 159.367 4.92897 1.13518 0
M  V30 1739 C 157.665 3.94905 2.07282 0
M  V30 1740 C 158.366 5.73475 0.974735 0
M  V30 1741 N 157.342 5.22675 1.4937 0
M  V30 1742 H 161.144 2.91594 0.367471 0
M  V30 1743 H 158.658 1.62074 0.102829 0
M  V30 1744 H 160.655 3.06356 2.82757 0
M  V30 1745 H 159.315 1.90359 2.63047 0
M  V30 1746 H 160.326 5.11662 0.801381 0
M  V30 1747 H 157.003 3.26633 2.60033 0
M  V30 1748 H 158.393 6.70238 0.472364 0
M  V30 1749 N 161.113 -0.173488 1.56642 0
M  V30 1750 C 162.529 -0.525174 1.50712 0
M  V30 1751 C 162.729 -1.8476 0.804107 0
M  V30 1752 O 161.785 -2.49869 0.363574 0
M  V30 1753 C 163.098 -0.559937 2.95441 0
M  V30 1754 C 164.646 -0.647288 3.06234 0
M  V30 1755 C 165.121 -0.712963 4.52417 0
M  V30 1756 N 166.612 -0.775911 4.56655 0
M  V30 1757 C 167.347 -0.847264 5.67106 0
M  V30 1758 N 166.843 -0.879585 6.87194 0
M  V30 1759 N 168.636 -0.886117 5.55071 0
M  V30 1760 H 160.787 0.693681 2.00753 0
M  V30 1761 H 163.05 0.249841 0.914485 0
M  V30 1762 H 162.756 0.343049 3.50023 0
M  V30 1763 H 162.63 -1.40718 3.49969 0
M  V30 1764 H 165.017 -1.5407 2.51687 0
M  V30 1765 H 165.098 0.226586 2.54794 0
M  V30 1766 H 164.742 0.176183 5.07594 0
M  V30 1767 H 164.672 -1.60295 5.0161 0
M  V30 1768 H 167.163 -0.759304 3.70193 0
M  V30 1769 H 167.476 -0.935144 7.67121 0
M  V30 1770 H 165.821 -0.847898 6.89808 0
M  V30 1771 H 169.012 -0.857853 4.60172 0
M  V30 1772 H 169.185 -0.938263 6.41171 0
M  V30 1773 N 162.591 -1.51276 -0.441967 0
M  V30 1774 C 163.816 -1.67799 -1.21895 0
M  V30 1775 C 164.241 -0.372864 -1.84367 0
M  V30 1776 O 163.599 0.666501 -1.68604 0
M  V30 1777 C 163.647 -2.79199 -2.28211 0
M  V30 1778 O 162.751 -2.42479 -3.33583 0
M  V30 1779 H 162.092 -0.559649 -0.357336 0
M  V30 1780 H 164.622 -1.97815 -0.522522 0
M  V30 1781 H 164.632 -3.03146 -2.73069 0
M  V30 1782 H 163.307 -3.73906 -1.82118 0
M  V30 1783 H 161.884 -2.29087 -2.94234 0
M  V30 1784 N 164.069 0.697108 -1.41344 0
M  V30 1785 C 165.294 1.49096 -1.44171 0
M  V30 1786 C 165.719 1.88038 -0.0481568 0
M  V30 1787 O 165.077 1.54525 0.948243 0
M  V30 1788 C 165.125 2.73088 -2.3549 0
M  V30 1789 O 164.229 3.70514 -1.81088 0
M  V30 1790 H 163.57 0.448801 -0.489361 0
M  V30 1791 H 166.1 0.856992 -1.85787 0
M  V30 1792 H 166.11 3.21413 -2.51312 0
M  V30 1793 H 164.785 2.44081 -3.36745 0
M  V30 1794 H 163.362 3.29441 -1.74708 0
M  V30 1795 N 165.547 1.27147 0.931209 0
M  V30 1796 C 166.457 1.11372 2.06478 0
M  V30 1797 C 167.473 0.044645 1.73943 0
M  V30 1798 O 168.649 0.250417 1.99837 0
M  V30 1799 C 165.714 0.758838 3.38294 0
M  V30 1800 C 164.775 1.90841 3.84549 0
M  V30 1801 C 164.008 1.57036 5.10074 0
M  V30 1802 O 164.231 0.476645 5.68405 0
M  V30 1803 O 163.165 2.40839 5.51616 0
M  V30 1804 H 166.991 2.06493 2.22698 0
M  V30 1805 H 164.576 1.06301 1.04978 0
M  V30 1806 H 166.458 0.574098 4.17471 0
M  V30 1807 H 165.133 -0.162879 3.2329 0
M  V30 1808 H 164.04 2.14819 3.06274 0
M  V30 1809 H 165.373 2.81021 4.04089 0
M  V30 1810 N 167.025 -1.13721 1.09112 0
M  V30 1811 C 168.274 -1.84275 0.82009 0
M  V30 1812 C 168.587 -1.84253 -0.656509 0
M  V30 1813 O 169.793 -2.50668 -1.04296 0
M  V30 1814 C 168.249 -3.30825 1.41714 0
M  V30 1815 C 167.857 -3.39244 2.92605 0
M  V30 1816 C 169.601 -4.06443 1.22492 0
M  V30 1817 C 167.508 -4.80047 3.45411 0
M  V30 1818 H 166.438 -0.690387 0.30312 0
M  V30 1819 H 169.089 -1.28146 1.31343 0
M  V30 1820 H 167.471 -3.86737 0.851498 0
M  V30 1821 H 168.645 -2.93344 3.55367 0
M  V30 1822 H 166.96 -2.77088 3.10823 0
M  V30 1823 H 169.557 -5.10387 1.59402 0
M  V30 1824 H 169.9 -4.15972 0.165299 0
M  V30 1825 H 170.433 -3.56852 1.75788 0
M  V30 1826 H 167.172 -4.75709 4.50978 0
M  V30 1827 H 166.692 -5.26455 2.87411 0
M  V30 1828 H 168.371 -5.48957 3.42425 0
M  V30 1829 N 168.503 -0.877838 -1.30888 0
M  V30 1830 C 169.731 -0.507414 -2.00581 0
M  V30 1831 C 170.146 0.902216 -1.65848 0
M  V30 1832 O 169.503 1.59225 -0.891831 0
M  V30 1833 C 169.554 -0.664162 -3.55347 0
M  V30 1834 O 169.275 -2.01829 -3.8884 0
M  V30 1835 C 170.776 -0.295787 -4.42312 0
M  V30 1836 H 167.996 -0.196866 -0.641471 0
M  V30 1837 H 170.54 -1.18117 -1.66939 0
M  V30 1838 H 168.695 -0.0378619 -3.87381 0
M  V30 1839 H 169.109 -2.03174 -4.8355 0
M  V30 1840 H 170.583 -0.456388 -5.5011 0
M  V30 1841 H 171.06 0.765663 -4.32475 0
M  V30 1842 H 171.666 -0.898113 -4.15709 0
M  V30 1843 N 169.982 1.44106 -0.638065 0
M  V30 1844 C 171.212 2.06037 -0.152394 0
M  V30 1845 C 171.62 1.47808 1.18108 0
M  V30 1846 O 170.963 0.598092 1.73691 0
M  V30 1847 C 171.025 3.59488 0.0293714 0
M  V30 1848 C 170.689 4.4022 -1.22702 0
M  V30 1849 C 171.686 4.73256 -2.15232 0
M  V30 1850 C 169.371 4.8048 -1.46437 0
M  V30 1851 C 171.365 5.45444 -3.29802 0
M  V30 1852 C 169.052 5.52417 -2.61303 0
M  V30 1853 C 170.05 5.84819 -3.52811 0
M  V30 1854 O 169.738 6.55289 -4.65673 0
M  V30 1855 H 169.47 0.671233 -0.0801401 0
M  V30 1856 H 172.024 1.85851 -0.874563 0
M  V30 1857 H 170.254 3.78191 0.806758 0
M  V30 1858 H 171.943 4.03164 0.470475 0
M  V30 1859 H 172.709 4.42684 -1.98131 0
M  V30 1860 H 168.588 4.54676 -0.760977 0
M  V30 1861 H 172.132 5.70653 -4.01249 0
M  V30 1862 H 168.029 5.82404 -2.78344 0
M  V30 1863 H 168.797 6.73762 -4.64744 0
M  V30 1864 N 171.46 0.379036 1.52974 0
M  V30 1865 C 172.707 -0.206421 2.01445 0
M  V30 1866 C 173.035 -1.47668 1.26587 0
M  V30 1867 O 172.29 -1.92514 0.351675 0
M  V30 1868 C 172.589 -0.53096 3.53434 0
M  V30 1869 C 172.255 0.646546 4.46241 0
M  V30 1870 C 170.917 0.969604 4.7133 0
M  V30 1871 C 173.269 1.43479 5.01062 0
M  V30 1872 C 170.597 2.08263 5.48492 0
M  V30 1873 C 172.949 2.53834 5.7944 0
M  V30 1874 C 171.613 2.86659 6.02812 0
M  V30 1875 H 170.883 -0.0755349 0.73714 0
M  V30 1876 H 173.53 0.514271 1.84465 0
M  V30 1877 H 171.835 -1.33285 3.68432 0
M  V30 1878 H 173.532 -0.996417 3.88423 0
M  V30 1879 H 170.122 0.384734 4.2687 0
M  V30 1880 H 174.306 1.19844 4.81613 0
M  V30 1881 H 169.562 2.34078 5.64816 0
M  V30 1882 H 173.736 3.15319 6.20924 0
M  V30 1883 H 171.363 3.73026 6.62387 0
M  V30 1884 N 172.938 -1.57226 0.108567 0
M  V30 1885 C 174.178 -1.96717 -0.555155 0
M  V30 1886 C 174.542 -0.990003 -1.64508 0
M  V30 1887 O 175.743 -1.2739 -2.36696 0
M  V30 1888 C 174.014 -3.40575 -1.08367 0
M  V30 1889 S 175.573 -4.02072 -1.75737 0
M  V30 1890 H 172.391 -0.687638 -0.180762 0
M  V30 1891 H 174.993 -1.94563 0.191172 0
M  V30 1892 H 173.697 -4.0945 -0.279092 0
M  V30 1893 H 173.228 -3.46356 -1.86551 0
M  V30 1894 H 175.243 -3.91977 -3.04251 0
M  V30 1895 N 174.416 0.165178 -1.56732 0
M  V30 1896 C 175.326 1.22423 -2.00125 0
M  V30 1897 C 176.342 1.48084 -0.913619 0
M  V30 1898 O 177.518 1.60112 -1.22172 0
M  V30 1899 C 174.583 2.54197 -2.35764 0
M  V30 1900 C 173.644 2.36343 -3.58386 0
M  V30 1901 C 172.877 3.61834 -3.92316 0
M  V30 1902 O 173.1 4.67267 -3.27135 0
M  V30 1903 O 172.034 3.55579 -4.85641 0
M  V30 1904 H 175.86 0.885886 -2.90492 0
M  V30 1905 H 173.445 0.372518 -1.44681 0
M  V30 1906 H 175.327 3.3192 -2.59629 0
M  V30 1907 H 174.002 2.87598 -1.48557 0
M  V30 1908 H 172.909 1.56632 -3.39731 0
M  V30 1909 H 174.242 2.07865 -4.46154 0
M  V30 1910 N 175.894 1.51508 0.433938 0
M  V30 1911 C 177.141 1.64345 1.18309 0
M  V30 1912 C 177.469 0.361315 1.91115 0
M  V30 1913 O 176.724 -0.654753 1.84422 0
M  V30 1914 C 177.023 2.79928 2.22205 0
M  V30 1915 C 176.689 4.19078 1.66387 0
M  V30 1916 C 175.351 4.56932 1.50887 0
M  V30 1917 C 177.703 5.05894 1.25381 0
M  V30 1918 C 175.031 5.79305 0.928608 0
M  V30 1919 C 177.383 6.2885 0.687823 0
M  V30 1920 C 176.047 6.65473 0.519755 0
M  V30 1921 H 175.317 0.601381 0.432923 0
M  V30 1922 H 177.964 1.85549 0.473676 0
M  V30 1923 H 176.269 2.52959 2.99197 0
M  V30 1924 H 177.966 2.87059 2.79997 0
M  V30 1925 H 174.556 3.89234 1.79428 0
M  V30 1926 H 178.74 4.77253 1.36175 0
M  V30 1927 H 173.996 6.06324 0.786186 0
M  V30 1928 H 178.17 6.95461 0.361581 0
M  V30 1929 H 175.797 7.6017 0.0679979 0
M  V30 1930 N 177.372 -0.689602 1.41712 0
M  V30 1931 C 178.335 -1.78521 1.43746 0
M  V30 1932 C 179.335 -1.57436 0.327191 0
M  V30 1933 O 180.525 -1.64 0.587348 0
M  V30 1934 C 177.657 -3.16971 1.25467 0
M  V30 1935 H 178.85 -1.78108 2.41283 0
M  V30 1936 H 176.403 -0.89781 1.27942 0
M  V30 1937 H 177.138 -3.23019 0.287948 0
M  V30 1938 H 176.923 -3.33678 2.05917 0
M  V30 1939 H 178.413 -3.96935 1.2974 0
M  V30 1940 N 178.85 -1.27639 -0.924453 0
M  V30 1941 C 179.76 -1.12466 -2.05885 0
M  V30 1942 C 180.776 -0.053869 -1.73917 0
M  V30 1943 O 181.952 -0.261012 -1.99702 0
M  V30 1944 C 179.017 -0.776768 -3.37886 0
M  V30 1945 C 178.078 -1.92878 -3.83532 0
M  V30 1946 C 177.311 -1.59739 -5.09234 0
M  V30 1947 O 177.534 -0.506782 -5.68144 0
M  V30 1948 O 176.468 -2.43761 -5.50331 0
M  V30 1949 H 180.294 -2.07671 -2.21599 0
M  V30 1950 H 177.879 -1.06857 -1.04413 0
M  V30 1951 H 179.761 -0.596229 -4.17161 0
M  V30 1952 H 178.436 0.145732 -3.23372 0
M  V30 1953 H 177.343 -2.1644 -3.0513 0
M  V30 1954 H 178.676 -2.8316 -4.02593 0
M  V30 1955 N 180.328 1.1314 -1.09713 0
M  V30 1956 C 181.291 2.16831 -0.742751 0
M  V30 1957 C 182.291 1.59159 0.229129 0
M  V30 1958 O 183.481 1.74199 0.00693237 0
M  V30 1959 C 180.613 3.40756 -0.0989168 0
M  V30 1960 H 181.806 2.49695 -1.66109 0
M  V30 1961 H 179.359 1.2802 -0.896699 0
M  V30 1962 H 180.094 3.13485 0.830514 0
M  V30 1963 H 179.879 3.83888 -0.798265 0
M  V30 1964 H 181.369 4.17386 0.133524 0
M  V30 1965 N 181.806 0.884767 1.30421 0
M  V30 1966 C 182.769 0.356277 2.26414 0
M  V30 1967 C 183.769 -0.501124 1.52792 0
M  V30 1968 O 184.959 -0.30831 1.7145 0
M  V30 1969 C 182.091 -0.492316 3.37326 0
M  V30 1970 H 183.284 1.20389 2.74675 0
M  V30 1971 H 180.837 0.661607 1.41607 0
M  V30 1972 H 181.572 -1.36052 2.94381 0
M  V30 1973 H 181.357 0.121832 3.91911 0
M  V30 1974 H 182.847 -0.853871 4.08777 0
M  V30 1975 N 183.284 -1.43765 0.645699 0
M  V30 1976 C 184.247 -2.29163 -0.0409488 0
M  V30 1977 C 185.247 -1.41813 -0.757996 0
M  V30 1978 O 186.437 -1.63527 -0.600382 0
M  V30 1979 C 183.569 -3.23716 -1.06869 0
M  V30 1980 H 184.762 -2.91366 0.710345 0
M  V30 1981 H 182.315 -1.5092 0.406547 0
M  V30 1982 H 183.05 -2.66393 -1.84947 0
M  V30 1983 H 182.835 -3.88105 -0.558277 0
M  V30 1984 H 184.325 -3.87831 -1.54845 0
M  V30 1985 N 184.763 -0.387143 -1.52771 0
M  V30 1986 C 185.993 0.195585 -2.05672 0
M  V30 1987 C 186.401 1.41241 -1.25887 0
M  V30 1988 O 185.744 1.81265 -0.298081 0
M  V30 1989 C 185.806 0.632327 -3.53895 0
M  V30 1990 C 185.47 -0.470739 -4.54569 0
M  V30 1991 C 186.467 -1.32746 -5.02667 0
M  V30 1992 C 184.152 -0.637151 -4.98243 0
M  V30 1993 C 186.146 -2.33574 -5.93061 0
M  V30 1994 C 183.833 -1.64877 -5.88438 0
M  V30 1995 C 184.831 -2.49649 -6.35739 0
M  V30 1996 O 184.519 -3.49082 -7.24153 0
M  V30 1997 H 184.251 0.033658 -0.675162 0
M  V30 1998 H 186.805 -0.550221 -1.97893 0
M  V30 1999 H 185.035 1.43008 -3.59285 0
M  V30 2000 H 186.724 1.14048 -3.89548 0
M  V30 2001 H 187.49 -1.21019 -4.69659 0
M  V30 2002 H 183.369 0.0129567 -4.60998 0
M  V30 2003 H 186.913 -2.99777 -6.29904 0
M  V30 2004 H 182.81 -1.76643 -6.2086 0
M  V30 2005 H 183.578 -3.45065 -7.42208 0
M  V30 2006 N 186.241 1.57166 -0.116904 0
M  V30 2007 C 187.49 1.94298 0.541407 0
M  V30 2008 C 187.803 1.00236 1.67964 0
M  V30 2009 O 189.009 1.26826 2.40057 0
M  V30 2010 C 187.465 3.45306 1.01449 0
M  V30 2011 C 187.073 4.47899 -0.0951738 0
M  V30 2012 C 188.817 3.91361 1.6443 0
M  V30 2013 C 186.724 5.90083 0.394491 0
M  V30 2014 H 185.654 0.725308 0.206019 0
M  V30 2015 H 188.305 1.82446 -0.196419 0
M  V30 2016 H 186.687 3.52385 1.80667 0
M  V30 2017 H 187.861 4.52486 -0.871374 0
M  V30 2018 H 186.176 4.11583 -0.631505 0
M  V30 2019 H 188.773 4.95004 2.02176 0
M  V30 2020 H 189.116 3.3122 2.52189 0
M  V30 2021 H 189.649 3.87073 0.917559 0
M  V30 2022 H 186.388 6.53974 -0.447004 0
M  V30 2023 H 185.908 5.88921 1.13722 0
M  V30 2024 H 187.587 6.41307 0.856399 0
M  V30 2025 N 187.719 -0.156864 1.56817 0
M  V30 2026 C 188.968 -0.869504 1.81996 0
M  V30 2027 C 189.281 -1.82777 0.696545 0
M  V30 2028 O 190.487 -2.58384 0.833658 0
M  V30 2029 C 188.943 -1.59679 3.22538 0
M  V30 2030 C 188.551 -0.681431 4.42787 0
M  V30 2031 C 190.295 -2.2968 3.56997 0
M  V30 2032 C 188.202 -1.40978 5.74351 0
M  V30 2033 H 187.132 -0.328438 0.678708 0
M  V30 2034 H 189.783 -0.1223 1.83092 0
M  V30 2035 H 188.165 -2.38927 3.158 0
M  V30 2036 H 189.339 0.0751166 4.60739 0
M  V30 2037 H 187.654 -0.0903431 4.16302 0
M  V30 2038 H 190.251 -2.84794 4.52544 0
M  V30 2039 H 190.594 -3.05707 2.82576 0
M  V30 2040 H 191.127 -1.57361 3.65352 0
M  V30 2041 H 187.866 -0.691561 6.51842 0
M  V30 2042 H 187.386 -2.13929 5.60352 0
M  V30 2043 H 189.065 -1.95337 6.16808 0
M  V30 2044 N 189.197 -1.51736 -0.425897 0
M  V30 2045 C 190.608 -1.5732 -1.00536 0
M  V30 2046 C 190.959 -0.403537 -1.92005 0
M  V30 2047 O 190.084 0.478256 -2.11049 0
M  V30 2048 C 190.679 -2.85119 -1.8301 0
M  V30 2049 C 189.238 -2.93236 -2.35987 0
M  V30 2050 C 188.385 -2.52098 -1.15508 0
M  V30 2051 H 191.336 -1.57348 -0.206739 0
M  V30 2052 H 191.357 -2.69526 -2.68581 0
M  V30 2053 H 190.869 -3.7023 -1.16411 0
M  V30 2054 H 188.97 -2.12581 -3.06007 0
M  V30 2055 H 189.083 -3.9713 -2.68001 0
M  V30 2056 H 187.447 -2.05558 -1.50393 0
M  V30 2057 H 188.23 -3.39565 -0.505014 0
M  V30 2058 N 190.675 0.682077 -1.42076 0
M  V30 2059 C 191.952 1.43755 -1.32642 0
M  V30 2060 C 192.332 2.11063 0.0396611 0
M  V30 2061 O 191.68 2.02701 1.05474 0
M  V30 2062 C 191.89 2.44596 -2.48946 0
M  V30 2063 C 193.238 3.09454 -2.9073 0
M  V30 2064 O 194.262 2.54922 -2.48783 0
M  V30 2065 O 193.121 4.08253 -3.63307 0
M  V30 2066 H 190.215 0.640857 -0.522715 0
M  V30 2067 H 192.761 0.711415 -1.54068 0
M  V30 2068 H 191.533 1.93609 -3.40046 0
M  V30 2069 H 191.156 3.24701 -2.29467 0
M  V30 2070 N 192.153 1.28127 0.917671 0
M  V30 2071 C 193.116 1.11744 2.00115 0
M  V30 2072 C 194.116 0.0583052 1.60694 0
M  V30 2073 O 195.306 0.303755 1.71531 0
M  V30 2074 C 192.438 0.704862 3.33533 0
M  V30 2075 H 193.631 2.07966 2.16079 0
M  V30 2076 H 191.184 1.11058 1.09981 0
M  V30 2077 H 191.919 -0.258299 3.2327 0
M  V30 2078 H 191.704 1.4699 3.63505 0
M  V30 2079 H 193.194 0.612768 4.1308 0
M  V30 2080 N 193.631 -1.12557 1.10312 0
M  V30 2081 C 194.861 -1.87592 0.865617 0
M  V30 2082 C 195.269 -1.79851 -0.587389 0
M  V30 2083 O 194.612 -1.16949 -1.41664 0
M  V30 2084 C 194.674 -3.37665 1.23381 0
M  V30 2085 C 194.338 -3.69181 2.69359 0
M  V30 2086 C 195.335 -3.67652 3.67597 0
M  V30 2087 C 193.02 -3.98555 3.05711 0
M  V30 2088 C 195.014 -3.95053 5.00212 0
M  V30 2089 C 192.701 -4.25616 4.38514 0
M  V30 2090 C 193.699 -4.23851 5.35574 0
M  V30 2091 O 193.387 -4.50242 6.65986 0
M  V30 2092 H 193.119 -0.600442 0.310557 0
M  V30 2093 H 195.673 -1.4335 1.47105 0
M  V30 2094 H 193.903 -3.82454 0.571467 0
M  V30 2095 H 195.592 -3.94041 0.973994 0
M  V30 2096 H 196.358 -3.45024 3.40857 0
M  V30 2097 H 192.237 -3.99071 2.30789 0
M  V30 2098 H 195.781 -3.93591 5.75962 0
M  V30 2099 H 191.678 -4.47718 4.64994 0
M  V30 2100 H 192.446 -4.67867 6.71597 0
M  V30 2101 N 195.109 -0.891671 -1.2995 0
M  V30 2102 C 196.334 -0.527932 -2.00568 0
M  V30 2103 C 196.759 0.877969 -1.66353 0
M  V30 2104 O 196.117 1.58301 -0.883762 0
M  V30 2105 C 196.165 -0.717745 -3.53385 0
M  V30 2106 O 195.269 0.233376 -4.11739 0
M  V30 2107 H 194.61 -0.20722 -0.630837 0
M  V30 2108 H 197.14 -1.20105 -1.65638 0
M  V30 2109 H 197.15 -0.619307 -4.03272 0
M  V30 2110 H 195.825 -1.74276 -3.77625 0
M  V30 2111 H 194.402 0.0880706 -3.72796 0
M  V30 2112 N 196.587 1.43421 -0.653314 0
M  V30 2113 C 197.835 2.01414 -0.166415 0
M  V30 2114 C 198.156 1.51803 1.22397 0
M  V30 2115 O 197.426 0.730693 1.81763 0
M  V30 2116 H 196.006 0.744703 -0.0585319 0
M  V30 2117 H 198.668 1.75629 -0.845003 0
M  V30 2118 H 197.764 3.11734 -0.151111 0
M  V30 2119 N 198.065 0.39524 1.52563 0
M  V30 2120 C 199.312 -0.185044 2.01653 0
M  V30 2121 C 199.64 -1.46317 1.28146 0
M  V30 2122 O 198.895 -1.9213 0.372074 0
M  V30 2123 C 199.194 -0.493444 3.53977 0
M  V30 2124 C 198.86 0.69384 4.4553 0
M  V30 2125 C 197.522 1.01954 4.70275 0
M  V30 2126 C 199.874 1.48785 4.99512 0
M  V30 2127 C 197.202 2.14069 5.46252 0
M  V30 2128 C 199.554 2.59965 5.76716 0
M  V30 2129 C 198.218 2.93037 5.99738 0
M  V30 2130 H 197.488 -0.0677123 0.7379 0
M  V30 2131 H 200.135 0.533807 1.8391 0
M  V30 2132 H 198.44 -1.29369 3.69825 0
M  V30 2133 H 200.137 -0.955163 3.89458 0
M  V30 2134 H 196.727 0.429987 4.26438 0
M  V30 2135 H 200.911 1.24946 4.80315 0
M  V30 2136 H 196.167 2.40056 5.62302 0
M  V30 2137 H 200.341 3.21887 6.17545 0
M  V30 2138 H 197.968 3.8003 6.58393 0
M  V30 2139 N 199.544 -1.57102 0.125237 0
M  V30 2140 C 200.821 -1.86953 -0.575142 0
M  V30 2141 C 201.201 -1.02749 -1.84407 0
M  V30 2142 O 200.549 -0.108144 -2.28244 0
M  V30 2143 C 200.759 -3.38198 -0.861583 0
M  V30 2144 C 202.107 -4.06937 -1.21192 0
M  V30 2145 O 203.131 -3.43252 -0.951645 0
M  V30 2146 O 201.99 -5.19364 -1.70068 0
M  V30 2147 H 199.084 -0.774147 -0.290906 0
M  V30 2148 H 201.63 -1.68942 0.160211 0
M  V30 2149 H 200.402 -3.91282 0.0373647 0
M  V30 2150 H 200.025 -3.61661 -1.65188 0
M  V30 2151 N 201.022 0.148545 -1.56898 0
M  V30 2152 C 202.252 0.875118 -1.8715 0
M  V30 2153 C 202.66 1.75322 -0.711262 0
M  V30 2154 O 202.003 1.80745 0.328151 0
M  V30 2155 C 202.065 1.7844 -3.12089 0
M  V30 2156 C 201.729 1.08361 -4.43967 0
M  V30 2157 C 202.726 0.438247 -5.1805 0
M  V30 2158 C 200.411 1.07358 -4.90693 0
M  V30 2159 C 202.405 -0.20779 -6.37061 0
M  V30 2160 C 200.092 0.42373 -6.09629 0
M  V30 2161 C 201.09 -0.215829 -6.82659 0
M  V30 2162 O 200.778 -0.855378 -7.99336 0
M  V30 2163 H 200.51 0.258504 -0.624621 0
M  V30 2164 H 203.064 0.14652 -2.04877 0
M  V30 2165 H 201.294 2.55389 -2.90367 0
M  V30 2166 H 202.983 2.38279 -3.286 0
M  V30 2167 H 203.749 0.437817 -4.8302 0
M  V30 2168 H 199.628 1.5608 -4.33774 0
M  V30 2169 H 203.172 -0.70758 -6.94002 0
M  V30 2170 H 199.069 0.421822 -6.4412 0
M  V30 2171 H 199.837 -0.756892 -8.14993 0
M  V30 2172 N 202.5 1.5196 0.417844 0
M  V30 2173 C 203.916 1.40569 0.755816 0
M  V30 2174 C 204.116 0.503316 1.95113 0
M  V30 2175 O 203.172 -0.0341925 2.52477 0
M  V30 2176 C 204.485 2.82947 1.01791 0
M  V30 2177 C 206.033 2.92231 1.12116 0
M  V30 2178 C 206.508 4.35559 1.41608 0
M  V30 2179 N 207.999 4.38753 1.48491 0
M  V30 2180 C 208.734 5.46705 1.7292 0
M  V30 2181 N 208.23 6.64788 1.95011 0
M  V30 2182 N 210.023 5.34209 1.74863 0
M  V30 2183 H 202.174 2.09168 -0.369098 0
M  V30 2184 H 204.437 0.942409 -0.102809 0
M  V30 2185 H 204.143 3.5106 0.212081 0
M  V30 2186 H 204.017 3.23462 1.94042 0
M  V30 2187 H 206.404 2.24304 1.9176 0
M  V30 2188 H 206.485 2.55185 0.177225 0
M  V30 2189 H 206.129 5.04042 0.624848 0
M  V30 2190 H 206.059 4.70133 2.37239 0
M  V30 2191 H 208.55 3.5363 1.33244 0
M  V30 2192 H 208.863 7.42845 2.13076 0
M  V30 2193 H 207.208 6.67869 1.92293 0
M  V30 2194 H 210.399 4.40937 1.57137 0
M  V30 2195 H 210.572 6.18415 1.93563 0
M  V30 2196 N 203.978 -0.674533 1.42435 0
M  V30 2197 C 205.203 -1.46784 1.46524 0
M  V30 2198 C 205.628 -1.87938 0.078066 0
M  V30 2199 O 204.986 -1.56014 -0.92354 0
M  V30 2200 C 205.034 -2.69307 2.39805 0
M  V30 2201 O 204.138 -3.67587 1.86959 0
M  V30 2202 H 203.479 -0.440959 0.496439 0
M  V30 2203 H 206.009 -0.827326 1.87127 0
M  V30 2204 H 206.019 -3.17374 2.56393 0
M  V30 2205 H 204.694 -2.38692 3.40586 0
M  V30 2206 H 203.271 -3.2662 1.79927 0
M  V30 2207 N 205.456 -1.28612 -0.910864 0
M  V30 2208 C 206.386 -1.15326 -2.03032 0
M  V30 2209 C 207.367 -0.0502924 -1.70026 0
M  V30 2210 O 208.552 -0.227797 -1.92859 0
M  V30 2211 C 205.682 -0.817343 -3.37545 0
M  V30 2212 C 204.636 -1.8754 -3.84724 0
M  V30 2213 C 203.962 -1.39305 -5.16235 0
M  V30 2214 C 205.262 -3.28244 -4.06267 0
M  V30 2215 H 206.956 -2.08975 -2.14406 0
M  V30 2216 H 204.502 -1.00612 -1.03021 0
M  V30 2217 H 206.455 -0.711151 -4.15356 0
M  V30 2218 H 205.179 0.154846 -3.26233 0
M  V30 2219 H 203.838 -1.97079 -3.09121 0
M  V30 2220 H 203.486 -0.409846 -5.01328 0
M  V30 2221 H 203.186 -2.10057 -5.48771 0
M  V30 2222 H 204.71 -1.30014 -5.96598 0
M  V30 2223 H 206.124 -3.21611 -4.74594 0
M  V30 2224 H 204.521 -3.96855 -4.5014 0
M  V30 2225 H 205.591 -3.72048 -3.10979 0
M  V30 2226 N 206.934 1.1197 -1.10907 0
M  V30 2227 C 207.897 2.16031 -0.765707 0
M  V30 2228 C 208.897 1.59393 0.212235 0
M  V30 2229 O 210.087 1.74196 -0.0115441 0
M  V30 2230 C 207.219 3.40632 -0.135053 0
M  V30 2231 H 208.412 2.47919 -1.68748 0
M  V30 2232 H 205.965 1.27061 -0.910226 0
M  V30 2233 H 206.7 3.14348 0.797218 0
M  V30 2234 H 206.485 3.8302 -0.838937 0
M  V30 2235 H 207.975 4.17505 0.0892469 0
M  V30 2236 N 208.412 0.89855 1.29475 0
M  V30 2237 C 209.828 0.594483 1.48115 0
M  V30 2238 C 210.028 -0.86431 1.82022 0
M  V30 2239 O 209.084 -1.64457 1.91599 0
M  V30 2240 C 210.397 1.51932 2.59494 0
M  V30 2241 C 211.945 1.5244 2.7337 0
M  V30 2242 C 212.42 2.43548 3.87877 0
M  V30 2243 N 213.911 2.41589 3.95208 0
M  V30 2244 C 214.646 3.08789 4.83153 0
M  V30 2245 N 214.142 3.85265 5.75798 0
M  V30 2246 N 215.935 2.97952 4.76635 0
M  V30 2247 H 208.086 1.84207 1.05742 0
M  V30 2248 H 210.349 0.789251 0.525154 0
M  V30 2249 H 210.055 2.55865 2.41301 0
M  V30 2250 H 209.929 1.23899 3.56271 0
M  V30 2251 H 212.316 0.492518 2.90961 0
M  V30 2252 H 212.397 1.8451 1.77172 0
M  V30 2253 H 212.041 3.46829 3.71041 0
M  V30 2254 H 211.971 2.08788 4.83441 0
M  V30 2255 H 214.462 1.86025 3.28943 0
M  V30 2256 H 214.775 4.33598 6.39697 0
M  V30 2257 H 213.12 3.89371 5.75687 0
M  V30 2258 H 216.311 2.37723 4.03244 0
M  V30 2259 H 216.484 3.50599 5.44962 0
M  V30 2260 N 209.89 -1.43072 0.660911 0
M  V30 2261 C 210.822 -2.29108 -0.0647641 0
M  V30 2262 C 211.835 -1.42928 -0.779448 0
M  V30 2263 O 213.024 -1.66788 -0.635921 0
M  V30 2264 C 210.124 -3.20032 -1.11503 0
M  V30 2265 C 209.297 -4.34792 -0.476955 0
M  V30 2266 C 208.356 -5.06534 -1.42513 0
M  V30 2267 O 207.382 -5.61538 -0.930771 0
M  V30 2268 N 208.584 -5.1075 -2.75889 0
M  V30 2269 H 211.349 -2.92029 0.673731 0
M  V30 2270 H 208.91 -1.53846 0.50427 0
M  V30 2271 H 210.902 -3.64892 -1.75032 0
M  V30 2272 H 209.472 -2.58658 -1.75541 0
M  V30 2273 H 208.692 -3.92752 0.337572 0
M  V30 2274 H 209.98 -5.0879 -0.0318525 0
M  V30 2275 H 209.378 -4.67447 -3.18606 0
M  V30 2276 H 207.935 -5.59302 -3.347 0
M  V30 2277 N 211.368 -0.403325 -1.52352 0
M  V30 2278 C 212.614 0.174605 -2.02047 0
M  V30 2279 C 212.947 1.45282 -1.28867 0
M  V30 2280 O 212.222 1.90483 -0.393257 0
M  V30 2281 C 212.505 0.428238 -3.57545 0
M  V30 2282 C 212.358 -0.866248 -4.4138 0
M  V30 2283 C 213.677 1.21287 -4.23057 0
M  V30 2284 H 210.796 0.0619851 -0.734389 0
M  V30 2285 H 213.438 -0.53565 -1.82293 0
M  V30 2286 H 211.588 1.03327 -3.74507 0
M  V30 2287 H 213.26 -1.50265 -4.3614 0
M  V30 2288 H 211.503 -1.47851 -4.07827 0
M  V30 2289 H 212.174 -0.643249 -5.48239 0
M  V30 2290 H 214.65 0.700703 -4.10158 0
M  V30 2291 H 213.526 1.35909 -5.31808 0
M  V30 2292 H 213.787 2.23193 -3.81625 0
M  V30 2293 N 212.846 1.57033 -0.133567 0
M  V30 2294 C 213.778 2.13176 0.841944 0
M  V30 2295 C 214.791 1.07794 1.22001 0
M  V30 2296 O 215.98 1.35117 1.16643 0
M  V30 2297 C 213.08 2.62847 2.13926 0
M  V30 2298 C 212.253 3.92486 1.93064 0
M  V30 2299 C 211.312 4.27605 3.0666 0
M  V30 2300 O 210.338 4.96168 2.78937 0
M  V30 2301 N 211.54 3.861 4.33483 0
M  V30 2302 H 214.305 2.97503 0.362192 0
M  V30 2303 H 211.866 1.61821 0.05042 0
M  V30 2304 H 213.858 2.83363 2.88942 0
M  V30 2305 H 212.428 1.83319 2.53205 0
M  V30 2306 H 211.648 3.80732 1.02159 0
M  V30 2307 H 212.936 4.77225 1.76447 0
M  V30 2308 H 212.334 3.30828 4.58878 0
M  V30 2309 H 210.891 4.11694 5.05323 0
M  V30 2310 N 214.325 -0.140222 1.56975 0
M  V30 2311 C 215.55 -0.870414 1.88251 0
M  V30 2312 C 215.975 -1.73637 0.723312 0
M  V30 2313 O 215.333 -1.78329 -0.32689 0
M  V30 2314 C 215.381 -1.69737 3.18154 0
M  V30 2315 O 214.485 -2.80229 3.02565 0
M  V30 2316 H 213.826 -0.242025 0.61832 0
M  V30 2317 H 216.356 -0.128999 2.04193 0
M  V30 2318 H 216.366 -2.09099 3.50345 0
M  V30 2319 H 215.041 -1.06152 4.02125 0
M  V30 2320 H 213.618 -2.44224 2.81796 0
M  V30 2321 N 215.803 -1.52179 -0.40978 0
M  V30 2322 C 216.75 -1.75475 -1.49924 0
M  V30 2323 C 217.72 -0.597175 -1.54994 0
M  V30 2324 O 218.905 -0.834655 -1.71575 0
M  V30 2325 C 216.045 -1.9107 -2.87378 0
M  V30 2326 C 215.158 -3.18717 -2.91622 0
M  V30 2327 C 214.293 -3.24747 -4.20372 0
M  V30 2328 C 213.332 -4.46598 -4.18588 0
M  V30 2329 N 212.469 -4.50025 -5.38908 0
M  V30 2330 H 217.309 -2.68458 -1.29361 0
M  V30 2331 H 214.846 -1.33024 -0.627934 0
M  V30 2332 H 216.804 -1.98096 -3.6717 0
M  V30 2333 H 215.434 -1.01469 -3.06437 0
M  V30 2334 H 214.486 -3.20866 -2.04326 0
M  V30 2335 H 215.798 -4.08544 -2.86169 0
M  V30 2336 H 214.952 -3.30841 -5.08556 0
M  V30 2337 H 213.691 -2.32857 -4.28519 0
M  V30 2338 H 212.696 -4.40652 -3.28794 0
M  V30 2339 H 213.921 -5.39783 -4.12081 0
M  V30 2340 H 211.867 -3.61017 -5.47725 0
M  V30 2341 H 211.784 -5.33697 -5.35447 0
M  V30 2342 H 213.052 -4.60347 -6.29048 0
M  V30 2343 N 217.281 0.66697 -1.42791 0
M  V30 2344 C 218.211 1.79218 -1.49677 0
M  V30 2345 C 219.192 1.66405 -0.352623 0
M  V30 2346 O 220.377 1.85708 -0.567993 0
M  V30 2347 C 217.507 3.17565 -1.40605 0
M  V30 2348 C 216.461 3.45124 -2.53127 0
M  V30 2349 C 215.787 4.83127 -2.29112 0
M  V30 2350 C 217.087 3.41236 -3.95418 0
M  V30 2351 H 218.781 1.73713 -2.43853 0
M  V30 2352 H 216.327 0.83432 -1.17367 0
M  V30 2353 H 218.28 3.96022 -1.44029 0
M  V30 2354 H 217.004 3.23767 -0.429271 0
M  V30 2355 H 215.663 2.69031 -2.49034 0
M  V30 2356 H 215.311 4.85988 -1.29709 0
M  V30 2357 H 215.011 5.02528 -3.04531 0
M  V30 2358 H 216.535 5.63859 -2.34297 0
M  V30 2359 H 217.949 4.09651 -4.01073 0
M  V30 2360 H 216.346 3.72173 -4.70752 0
M  V30 2361 H 217.416 2.39665 -4.21532 0
M  V30 2362 N 218.759 1.29093 0.90403 0
M  V30 2363 C 220.17 1.15186 1.46932 0
M  V30 2364 C 220.521 -0.254587 1.94541 0
M  V30 2365 O 219.646 -1.14972 1.83332 0
M  V30 2366 C 220.241 2.08492 2.67051 0
M  V30 2367 C 218.8 1.98621 3.19729 0
M  V30 2368 C 217.947 1.9967 1.92425 0
M  V30 2369 H 220.898 1.41641 0.715789 0
M  V30 2370 H 220.919 1.65461 3.42641 0
M  V30 2371 H 220.431 3.10847 2.3237 0
M  V30 2372 H 218.532 0.993389 3.59114 0
M  V30 2373 H 218.645 2.86068 3.8432 0
M  V30 2374 H 217.009 1.44208 2.09943 0
M  V30 2375 H 217.792 3.03721 1.60026 0
M  V30 2376 N 220.237 -1.11381 1.11499 0
M  V30 2377 C 221.465 -1.86934 0.88675 0
M  V30 2378 C 221.88 -1.80195 -0.563476 0
M  V30 2379 O 221.237 -1.18367 -1.38908 0
M  V30 2380 C 221.288 -3.35722 1.34064 0
M  V30 2381 O 221.009 -3.4232 2.73401 0
M  V30 2382 C 222.51 -4.2818 1.14791 0
M  V30 2383 H 219.73 -0.591117 0.317523 0
M  V30 2384 H 222.274 -1.40865 1.48248 0
M  V30 2385 H 220.429 -3.79294 0.788355 0
M  V30 2386 H 220.843 -4.34971 2.93087 0
M  V30 2387 H 222.317 -5.30817 1.5145 0
M  V30 2388 H 222.794 -4.39113 0.0875279 0
M  V30 2389 H 223.4 -3.90402 1.68721 0
M  V30 2390 N 221.715 -0.905404 -1.28997 0
M  V30 2391 C 222.645 -0.404212 -2.29975 0
M  V30 2392 C 223.626 0.523784 -1.61835 0
M  V30 2393 O 224.811 0.433298 -1.89304 0
M  V30 2394 C 221.941 0.364042 -3.45387 0
M  V30 2395 C 220.895 -0.474048 -4.25367 0
M  V30 2396 C 220.221 0.422045 -5.33032 0
M  V30 2397 C 221.521 -1.72696 -4.92923 0
M  V30 2398 H 223.215 -1.24807 -2.72146 0
M  V30 2399 H 220.761 -0.601585 -1.30832 0
M  V30 2400 H 222.714 0.725447 -4.15109 0
M  V30 2401 H 221.438 1.24174 -3.02074 0
M  V30 2402 H 220.097 -0.81786 -3.57361 0
M  V30 2403 H 219.745 1.29804 -4.85963 0
M  V30 2404 H 219.445 -0.135057 -5.87445 0
M  V30 2405 H 220.969 0.779517 -6.05604 0
M  V30 2406 H 222.383 -1.43495 -5.55051 0
M  V30 2407 H 220.78 -2.22582 -5.57295 0
M  V30 2408 H 221.85 -2.45964 -4.17887 0
M  V30 2409 N 223.193 1.4272 -0.668489 0
M  V30 2410 C 224.14 2.30796 0.0137489 0
M  V30 2411 C 225.11 1.4561 0.799177 0
M  V30 2412 O 226.295 1.74453 0.772702 0
M  V30 2413 C 223.435 3.31377 0.963507 0
M  V30 2414 C 222.548 4.31655 0.172569 0
M  V30 2415 C 221.683 5.19312 1.1175 0
M  V30 2416 C 220.722 6.11274 0.317886 0
M  V30 2417 N 219.859 6.91504 1.2152 0
M  V30 2418 H 224.699 2.88585 -0.743161 0
M  V30 2419 H 222.236 1.42154 -0.378226 0
M  V30 2420 H 224.194 3.88214 1.52792 0
M  V30 2421 H 222.824 2.75202 1.68712 0
M  V30 2422 H 221.876 3.76988 -0.508374 0
M  V30 2423 H 223.188 4.96779 -0.448527 0
M  V30 2424 H 222.342 5.80851 1.75206 0
M  V30 2425 H 221.081 4.5435 1.77249 0
M  V30 2426 H 220.086 5.48809 -0.329918 0
M  V30 2427 H 221.311 6.78283 -0.332917 0
M  V30 2428 H 219.257 6.29176 1.85671 0
M  V30 2429 H 219.174 7.53209 0.649036 0
M  V30 2430 H 220.442 7.57535 1.83742 0
M  V30 2431 N 224.671 0.411399 1.52136 0
M  V30 2432 C 225.619 -0.427633 2.28635 0
M  V30 2433 C 226.613 -1.04383 1.33419 0
M  V30 2434 O 227.819 -0.981772 1.50868 0
M  V30 2435 H 224.194 -0.156689 0.735495 0
M  V30 2436 H 226.165 0.238761 2.97443 0
M  V30 2437 C 224.914 -1.53082 3.12188 0
M  V30 2438 H 224.237 -1.06601 3.85326 0
M  V30 2439 H 225.677 -2.09167 3.68816 0
M  V30 2440 C 224.136 -2.49946 2.25895 0
M  V30 2441 O 224.666 -3.53884 1.90076 0
M  V30 2442 N 222.872 -2.2021 1.8962 0
M  V30 2443 H 222.419 -1.35719 2.18948 0
M  V30 2444 H 222.377 -2.85266 1.32176 0
M  V30 2445 N 226.149 -1.5696 0.141893 0
M  V30 2446 C 227.398 -1.95135 -0.510427 0
M  V30 2447 C 227.711 -1.02896 -1.66348 0
M  V30 2448 O 228.917 -1.30629 -2.38009 0
M  V30 2449 C 227.373 -3.46876 -0.959427 0
M  V30 2450 C 226.981 -4.47691 0.166419 0
M  V30 2451 C 228.725 -3.93927 -1.58183 0
M  V30 2452 C 226.632 -5.90636 -0.300565 0
M  V30 2453 H 225.562 -0.728494 -0.194454 0
M  V30 2454 H 228.213 -1.8211 0.22542 0
M  V30 2455 H 226.595 -3.55215 -1.75038 0
M  V30 2456 H 227.769 -4.51043 0.94325 0
M  V30 2457 H 226.084 -4.10527 0.696905 0
M  V30 2458 H 228.681 -4.98158 -1.94275 0
M  V30 2459 H 229.024 -3.3519 -2.46888 0
M  V30 2460 H 229.557 -3.88484 -0.855863 0
M  V30 2461 H 226.296 -6.5318 0.550989 0
M  V30 2462 H 225.816 -5.90655 -1.04338 0
M  V30 2463 H 227.495 -6.42588 -0.754265 0
M  V30 2464 N 227.627 0.131896 -1.57047 0
M  V30 2465 C 228.876 0.84044 -1.83356 0
M  V30 2466 C 229.189 1.81646 -0.725535 0
M  V30 2467 O 230.395 2.57025 -0.874659 0
M  V30 2468 C 228.851 1.54528 -3.25037 0
M  V30 2469 C 228.459 0.610902 -4.43815 0
M  V30 2470 C 230.203 2.23972 -3.60606 0
M  V30 2471 C 228.11 1.31823 -5.76521 0
M  V30 2472 H 227.04 0.317599 -0.683847 0
M  V30 2473 H 229.691 0.0931561 -1.83263 0
M  V30 2474 H 228.073 2.33873 -3.19561 0
M  V30 2475 H 229.247 -0.148407 -4.60561 0
M  V30 2476 H 227.562 0.0241016 -4.16393 0
M  V30 2477 H 230.159 2.77558 -4.57018 0
M  V30 2478 H 230.502 3.01173 -2.87403 0
M  V30 2479 H 231.035 1.51529 -3.6781 0
M  V30 2480 H 227.774 0.587771 -6.52859 0
M  V30 2481 H 227.294 2.04987 -5.63685 0
M  V30 2482 H 228.973 1.855 -6.19838 0
M  V30 2483 N 229.106 1.52395 0.401703 0
M  V30 2484 C 230.352 1.67065 1.14966 0
M  V30 2485 C 230.685 0.403052 1.89971 0
M  V30 2486 O 229.96 -0.598774 1.85054 0
M  V30 2487 C 230.243 2.8975 2.13815 0
M  V30 2488 C 230.096 4.26578 1.42658 0
M  V30 2489 C 231.415 3.07965 3.14397 0
M  V30 2490 H 228.534 0.607968 0.416587 0
M  V30 2491 H 231.176 1.84965 0.434511 0
M  V30 2492 H 229.326 2.74619 2.74803 0
M  V30 2493 H 230.998 4.53451 0.847329 0
M  V30 2494 H 229.241 4.27639 0.72849 0
M  V30 2495 H 229.912 5.08483 2.14823 0
M  V30 2496 H 232.388 3.22043 2.63491 0
M  V30 2497 H 231.264 3.95308 3.80819 0
M  V30 2498 H 231.525 2.21611 3.82545 0
M  V30 2499 N 230.584 -0.659388 1.43143 0
M  V30 2500 C 231.547 -1.75432 1.47501 0
M  V30 2501 C 232.547 -1.56707 0.360512 0
M  V30 2502 O 233.737 -1.62717 0.622002 0
M  V30 2503 C 230.869 -3.14239 1.32162 0
M  V30 2504 H 232.062 -1.7295 2.45006 0
M  V30 2505 H 229.615 -0.870469 1.29817 0
M  V30 2506 H 230.35 -3.22336 0.356401 0
M  V30 2507 H 230.135 -3.29235 2.12948 0
M  V30 2508 H 231.625 -3.94094 1.3813 0
M  V30 2509 N 232.062 -1.29571 -0.897171 0
M  V30 2510 C 233.31 -1.17456 -1.64464 0
M  V30 2511 C 233.631 0.273698 -1.9307 0
M  V30 2512 O 232.901 1.18684 -1.55855 0
M  V30 2513 H 231.481 -0.431706 -0.609622 0
M  V30 2514 H 234.143 -1.62531 -1.07562 0
M  V30 2515 H 233.239 -1.72648 -2.59998 0
M  V30 2516 N 233.54 1.10788 -1.12088 0
M  V30 2517 C 234.45 2.20599 -0.798338 0
M  V30 2518 C 235.466 1.72712 0.21135 0
M  V30 2519 O 236.642 2.01348 0.0458477 0
M  V30 2520 C 233.707 3.45771 -0.253674 0
M  V30 2521 C 232.768 4.08411 -1.32283 0
M  V30 2522 C 232.001 5.27608 -0.80406 0
M  V30 2523 O 232.224 5.69241 0.363478 0
M  V30 2524 O 231.158 5.8101 -1.57198 0
M  V30 2525 H 234.984 2.50614 -1.7154 0
M  V30 2526 H 232.569 1.19454 -0.897275 0
M  V30 2527 H 234.451 4.21376 0.0453691 0
M  V30 2528 H 233.126 3.1739 0.636005 0
M  V30 2529 H 232.033 3.34507 -1.67499 0
M  V30 2530 H 233.366 4.40986 -2.18614 0
M  V30 2531 N 235.018 0.912232 1.28515 0
M  V30 2532 C 235.981 0.404223 2.25607 0
M  V30 2533 C 236.981 -0.468602 1.53821 0
M  V30 2534 O 238.171 -0.271873 1.72065 0
M  V30 2535 C 235.303 -0.420653 3.38295 0
M  V30 2536 H 236.496 1.26188 2.7206 0
M  V30 2537 H 234.049 0.691495 1.40171 0
M  V30 2538 H 234.784 -1.29777 2.97201 0
M  V30 2539 H 234.569 0.204935 3.91564 0
M  V30 2540 H 236.059 -0.766971 4.10496 0
M  V30 2541 N 236.496 -1.42363 0.676048 0
M  V30 2542 C 237.406 -2.346 -0.00153389 0
M  V30 2543 C 238.422 -1.5516 -0.787485 0
M  V30 2544 O 239.598 -1.87723 -0.729521 0
M  V30 2545 C 236.663 -3.33705 -0.940298 0
M  V30 2546 C 235.724 -4.29042 -0.148739 0
M  V30 2547 C 234.957 -5.23413 -1.04279 0
M  V30 2548 O 235.18 -5.22749 -2.28232 0
M  V30 2549 O 234.114 -5.99795 -0.502925 0
M  V30 2550 H 237.94 -2.94082 0.758268 0
M  V30 2551 H 235.525 -1.42888 0.436289 0
M  V30 2552 H 237.407 -3.94586 -1.47917 0
M  V30 2553 H 236.082 -2.76695 -1.67993 0
M  V30 2554 H 234.989 -3.71571 0.43427 0
M  V30 2555 H 236.322 -4.89097 0.551805 0
M  V30 2556 N 237.974 -0.419461 -1.51915 0
M  V30 2557 C 238.884 0.407528 -2.31033 0
M  V30 2558 C 239.9 1.04413 -1.3919 0
M  V30 2559 O 241.076 1.0434 -1.72265 0
M  V30 2560 C 238.141 1.50365 -3.12396 0
M  V30 2561 C 237.202 0.889029 -4.19994 0
M  V30 2562 C 236.435 1.93291 -4.97468 0
M  V30 2563 O 236.658 3.15259 -4.75361 0
M  V30 2564 O 235.592 1.53339 -5.8204 0
M  V30 2565 H 239.418 -0.237865 -3.02767 0
M  V30 2566 H 237.003 -0.182413 -1.48282 0
M  V30 2567 H 238.885 2.13975 -3.63032 0
M  V30 2568 H 237.56 2.13345 -2.43445 0
M  V30 2569 H 236.467 0.215353 -3.7348 0
M  V30 2570 H 237.8 0.302991 -4.91267 0
M  V30 2571 N 239.452 1.56882 -0.150215 0
M  V30 2572 C 240.699 1.96228 0.500093 0
M  V30 2573 C 241.027 1.03522 1.64661 0
M  V30 2574 O 240.282 0.0650683 1.95592 0
M  V30 2575 C 240.581 3.41801 1.04437 0
M  V30 2576 C 240.247 4.50897 0.0159671 0
M  V30 2577 C 238.909 4.8046 -0.266731 0
M  V30 2578 C 241.261 5.16703 -0.683192 0
M  V30 2579 C 238.589 5.73135 -1.25434 0
M  V30 2580 C 240.941 6.10441 -1.65964 0
M  V30 2581 C 239.605 6.38382 -1.95 0
M  V30 2582 H 238.875 0.718048 0.182997 0
M  V30 2583 H 241.522 1.90019 -0.237724 0
M  V30 2584 H 239.827 3.44857 1.85959 0
M  V30 2585 H 241.524 3.69573 1.55618 0
M  V30 2586 H 238.114 4.27891 0.246485 0
M  V30 2587 H 242.298 4.93993 -0.477983 0
M  V30 2588 H 237.554 5.93074 -1.48571 0
M  V30 2589 H 241.728 6.60507 -2.20689 0
M  V30 2590 H 239.355 7.09996 -2.71679 0
M  V30 2591 N 240.93 -0.123565 1.57115 0
M  V30 2592 C 241.86 -1.15309 2.03042 0
M  V30 2593 C 242.841 -1.43454 0.914061 0
M  V30 2594 O 244.026 -1.53973 1.18347 0
M  V30 2595 C 241.156 -2.48043 2.43089 0
M  V30 2596 C 240.11 -2.3437 3.58127 0
M  V30 2597 C 239.436 -3.72026 3.84059 0
M  V30 2598 C 240.736 -1.80804 4.90007 0
M  V30 2599 H 242.43 -0.771102 2.893 0
M  V30 2600 H 239.976 -0.369479 1.39179 0
M  V30 2601 H 241.929 -3.20311 2.73823 0
M  V30 2602 H 240.653 -2.88122 1.53796 0
M  V30 2603 H 239.312 -1.64551 3.27595 0
M  V30 2604 H 238.96 -4.09582 2.91979 0
M  V30 2605 H 238.66 -3.63732 4.6149 0
M  V30 2606 H 240.184 -4.45806 4.1724 0
M  V30 2607 H 241.598 -2.42886 5.19307 0
M  V30 2608 H 239.995 -1.83343 5.71407 0
M  V30 2609 H 241.065 -0.76528 4.78823 0
M  V30 2610 N 242.408 -1.52605 -0.393616 0
M  V30 2611 C 243.819 -1.59417 -0.971761 0
M  V30 2612 C 244.17 -0.444173 -1.91106 0
M  V30 2613 O 243.295 0.433382 -2.12016 0
M  V30 2614 C 243.89 -2.88936 -1.76921 0
M  V30 2615 C 242.449 -2.98175 -2.29714 0
M  V30 2616 C 241.596 -2.54491 -1.10135 0
M  V30 2617 H 244.547 -1.57751 -0.173317 0
M  V30 2618 H 244.568 -2.75163 -2.62804 0
M  V30 2619 H 244.08 -3.72616 -1.08532 0
M  V30 2620 H 242.181 -2.19024 -3.01429 0
M  V30 2621 H 242.294 -4.02726 -2.59517 0
M  V30 2622 H 240.658 -2.08702 -1.45999 0
M  V30 2623 H 241.441 -3.4056 -0.432874 0
M  V30 2624 N 243.887 0.651787 -1.4349 0
M  V30 2625 C 244.817 1.77621 -1.51569 0
M  V30 2626 C 245.798 1.66022 -0.370253 0
M  V30 2627 O 246.983 1.85095 -0.587658 0
M  V30 2628 C 244.113 3.16056 -1.43966 0
M  V30 2629 C 243.067 3.4242 -2.56774 0
M  V30 2630 C 242.393 4.8067 -2.34223 0
M  V30 2631 C 243.693 3.37023 -3.99015 0
M  V30 2632 H 245.387 1.71117 -2.45681 0
M  V30 2633 H 242.933 0.821825 -1.18246 0
M  V30 2634 H 244.886 3.94472 -1.48221 0
M  V30 2635 H 243.61 3.23293 -0.463586 0
M  V30 2636 H 242.269 2.66375 -2.51873 0
M  V30 2637 H 241.917 4.84585 -1.34856 0
M  V30 2638 H 241.617 4.9927 -3.09844 0
M  V30 2639 H 243.141 5.61342 -2.40265 0
M  V30 2640 H 244.555 4.05374 -4.05395 0
M  V30 2641 H 242.952 3.67159 -4.74673 0
M  V30 2642 H 244.022 2.3518 -4.2405 0
M  V30 2643 N 245.365 1.30045 0.890287 0
M  V30 2644 C 246.275 1.17885 2.02831 0
M  V30 2645 C 247.291 0.0999609 1.73713 0
M  V30 2646 O 248.467 0.313867 1.98939 0
M  V30 2647 C 245.532 0.866079 3.35708 0
M  V30 2648 C 244.593 2.02979 3.78283 0
M  V30 2649 C 243.826 1.73184 5.0482 0
M  V30 2650 O 244.049 0.657237 5.66601 0
M  V30 2651 O 242.983 2.58267 5.43674 0
M  V30 2652 H 246.809 2.13474 2.16015 0
M  V30 2653 H 244.394 1.09587 1.01543 0
M  V30 2654 H 246.276 0.706623 4.15433 0
M  V30 2655 H 244.951 -0.0599443 3.23644 0
M  V30 2656 H 243.858 2.24454 2.99285 0
M  V30 2657 H 245.191 2.93734 3.94944 0
M  V30 2658 N 246.843 -1.10192 1.12674 0
M  V30 2659 C 248.12 -1.78717 0.794965 0
M  V30 2660 C 248.5 -1.98628 -0.714853 0
M  V30 2661 O 247.848 -1.58135 -1.64941 0
M  V30 2662 C 248.058 -3.11546 1.5729 0
M  V30 2663 C 249.406 -3.86382 1.76052 0
M  V30 2664 O 250.43 -3.21274 1.53823 0
M  V30 2665 O 249.289 -5.03246 2.13087 0
M  V30 2666 H 246.383 -0.774702 0.289423 0
M  V30 2667 H 248.929 -1.16819 1.23091 0
M  V30 2668 H 247.701 -2.92489 2.59935 0
M  V30 2669 H 247.324 -3.81164 1.13137 0
M  V30 2670 N 248.321 -0.919034 -1.28029 0
M  V30 2671 C 249.251 -0.428581 -2.29533 0
M  V30 2672 C 250.232 0.50659 -1.62381 0
M  V30 2673 O 251.417 0.413195 -1.89753 0
M  V30 2674 C 248.547 0.327388 -3.45753 0
M  V30 2675 C 247.501 -0.519137 -4.2484 0
M  V30 2676 C 246.827 0.365486 -5.33449 0
M  V30 2677 C 248.127 -1.77914 -4.91064 0
M  V30 2678 H 249.821 -1.27687 -2.70807 0
M  V30 2679 H 247.367 -0.615428 -1.30186 0
M  V30 2680 H 249.32 0.681378 -4.15855 0
M  V30 2681 H 248.044 1.20963 -3.03374 0
M  V30 2682 H 246.703 -0.855717 -3.56473 0
M  V30 2683 H 246.351 1.24642 -4.87312 0
M  V30 2684 H 246.051 -0.197356 -5.87268 0
M  V30 2685 H 247.575 0.715241 -6.06396 0
M  V30 2686 H 248.989 -1.49374 -5.53498 0
M  V30 2687 H 247.386 -2.2848 -5.54903 0
M  V30 2688 H 248.456 -2.50382 -4.15255 0
M  V30 2689 N 249.799 1.42003 -0.683588 0
M  V30 2690 C 250.749 2.27997 0.0121992 0
M  V30 2691 C 251.733 1.4156 0.764822 0
M  V30 2692 O 252.925 1.64935 0.642287 0
M  V30 2693 C 250.054 3.29706 0.956482 0
M  V30 2694 C 249.14 4.23625 0.200739 0
M  V30 2695 N 249.531 4.99448 -0.799087 0
M  V30 2696 C 247.829 4.43845 0.437937 0
M  V30 2697 C 248.53 5.68102 -1.25041 0
M  V30 2698 N 247.506 5.40511 -0.578648 0
M  V30 2699 H 251.308 2.84048 -0.754564 0
M  V30 2700 H 248.822 1.54071 -0.513398 0
M  V30 2701 H 250.819 3.90124 1.47 0
M  V30 2702 H 249.479 2.75216 1.72297 0
M  V30 2703 H 250.49 5.04303 -1.17893 0
M  V30 2704 H 247.167 4.00382 1.18325 0
M  V30 2705 H 248.557 6.38913 -2.07942 0
M  V30 2706 N 251.277 0.427512 1.51691 0
M  V30 2707 C 252.24 -0.377132 2.26076 0
M  V30 2708 C 253.24 -0.958089 1.29141 0
M  V30 2709 O 254.43 -0.83408 1.52934 0
M  V30 2710 C 251.562 -1.53262 3.04506 0
M  V30 2711 H 252.755 0.27464 2.9864 0
M  V30 2712 H 250.308 0.180445 1.55255 0
M  V30 2713 H 251.043 -2.22072 2.36335 0
M  V30 2714 H 250.828 -1.12232 3.75694 0
M  V30 2715 H 252.318 -2.10135 3.60878 0
M  V30 2716 N 252.755 -1.56801 0.158532 0
M  V30 2717 C 253.665 -2.20916 -0.789518 0
M  V30 2718 C 254.681 -1.1969 -1.26294 0
M  V30 2719 O 255.857 -1.52308 -1.31773 0
M  V30 2720 C 252.922 -2.82727 -2.00665 0
M  V30 2721 C 251.983 -3.99114 -1.58134 0
M  V30 2722 C 251.216 -4.57968 -2.74045 0
M  V30 2723 O 251.439 -4.15704 -3.90572 0
M  V30 2724 O 250.373 -5.48047 -2.48855 0
M  V30 2725 H 254.199 -3.02464 -0.273681 0
M  V30 2726 H 251.784 -1.4924 -0.0690548 0
M  V30 2727 H 253.666 -3.21968 -2.71872 0
M  V30 2728 H 252.341 -2.04184 -2.51179 0
M  V30 2729 H 251.248 -3.64567 -0.839155 0
M  V30 2730 H 252.581 -4.79212 -1.12325 0
M  V30 2731 N 254.233 0.115231 -1.57178 0
M  V30 2732 C 255.644 0.67197 -1.74188 0
M  V30 2733 C 255.995 1.80125 -0.777777 0
M  V30 2734 O 255.12 2.16346 0.0484376 0
M  V30 2735 C 255.715 1.22573 -3.1585 0
M  V30 2736 C 254.274 1.72872 -3.34353 0
M  V30 2737 C 253.421 0.629972 -2.70049 0
M  V30 2738 H 256.372 -0.110712 -1.58313 0
M  V30 2739 H 256.393 2.09535 -3.17609 0
M  V30 2740 H 255.905 0.403598 -3.85996 0
M  V30 2741 H 254.006 2.5755 -2.69256 0
M  V30 2742 H 254.119 1.83557 -4.42542 0
M  V30 2743 H 252.483 1.0645 -2.31388 0
M  V30 2744 H 253.266 -0.181241 -3.42821 0
M  V30 2745 N 255.711 1.52812 0.385517 0
M  V30 2746 C 256.957 1.68275 1.13188 0
M  V30 2747 C 257.29 0.423179 1.89533 0
M  V30 2748 O 256.565 -0.579113 1.85679 0
M  V30 2749 C 256.848 2.92001 2.1073 0
M  V30 2750 C 256.701 4.28067 1.38125 0
M  V30 2751 C 258.02 3.11283 3.11113 0
M  V30 2752 H 255.139 0.612352 0.410115 0
M  V30 2753 H 257.781 1.85415 0.414869 0
M  V30 2754 H 255.931 2.77519 2.71874 0
M  V30 2755 H 257.603 4.54324 0.799187 0
M  V30 2756 H 255.846 4.28388 0.683092 0
M  V30 2757 H 256.517 5.10733 2.09417 0
M  V30 2758 H 258.993 3.2482 2.6006 0
M  V30 2759 H 257.869 3.99325 3.76605 0
M  V30 2760 H 258.13 2.25656 3.80173 0
M  V30 2761 N 257.189 -0.644168 1.43834 0
M  V30 2762 C 258.136 -1.75671 1.49694 0
M  V30 2763 C 259.106 -1.6246 0.345809 0
M  V30 2764 O 260.291 -1.82573 0.554234 0
M  V30 2765 C 257.431 -3.13867 1.43463 0
M  V30 2766 C 256.544 -3.38147 2.6885 0
M  V30 2767 C 255.679 -4.66241 2.54544 0
M  V30 2768 C 254.718 -4.83657 3.75157 0
M  V30 2769 N 253.855 -6.03016 3.59605 0
M  V30 2770 H 258.695 -1.69998 2.44754 0
M  V30 2771 H 256.232 -0.829458 1.21484 0
M  V30 2772 H 258.19 -3.9377 1.37843 0
M  V30 2773 H 256.82 -3.18588 0.519783 0
M  V30 2774 H 255.872 -2.52276 2.84712 0
M  V30 2775 H 257.184 -3.46899 3.58417 0
M  V30 2776 H 256.338 -5.54285 2.46683 0
M  V30 2777 H 255.077 -4.59826 1.62516 0
M  V30 2778 H 254.082 -3.94046 3.83416 0
M  V30 2779 H 255.307 -4.91896 4.68204 0
M  V30 2780 H 253.253 -5.97715 2.7032 0
M  V30 2781 H 253.17 -6.12766 4.42779 0
M  V30 2782 H 254.438 -6.93657 3.55613 0
M  V30 2783 N 258.668 -1.30515 -0.883378 0
M  V30 2784 C 259.598 -1.19607 -2.00541 0
M  V30 2785 C 260.579 -0.086346 -1.69881 0
M  V30 2786 O 261.764 -0.268654 -1.92333 0
M  V30 2787 C 258.894 -0.888758 -3.35736 0
M  V30 2788 C 257.848 -1.95659 -3.8066 0
M  V30 2789 C 257.174 -1.50224 -5.13164 0
M  V30 2790 C 258.474 -3.36788 -3.99213 0
M  V30 2791 H 260.168 -2.13476 -2.09925 0
M  V30 2792 H 257.714 -1.02775 -1.00863 0
M  V30 2793 H 259.667 -0.799094 -4.13754 0
M  V30 2794 H 258.391 0.0856125 -3.26488 0
M  V30 2795 H 257.05 -2.03591 -3.04871 0
M  V30 2796 H 256.698 -0.516092 -5.00345 0
M  V30 2797 H 256.398 -2.2165 -5.44192 0
M  V30 2798 H 257.922 -1.42639 -5.93706 0
M  V30 2799 H 259.336 -3.31605 -4.67665 0
M  V30 2800 H 257.733 -4.06314 -4.41621 0
M  V30 2801 H 258.803 -3.78561 -3.03017 0
M  V30 2802 N 260.146 1.09593 -1.13257 0
M  V30 2803 C 261.557 1.63229 -0.906274 0
M  V30 2804 C 261.908 1.8811 0.557578 0
M  V30 2805 O 261.033 1.62953 1.42391 0
M  V30 2806 C 261.628 2.96535 -1.63867 0
M  V30 2807 C 260.187 3.47003 -1.45828 0
M  V30 2808 C 259.334 2.2145 -1.66898 0
M  V30 2809 H 262.285 0.92978 -1.28611 0
M  V30 2810 H 262.306 3.64411 -1.09476 0
M  V30 2811 H 261.818 2.78394 -2.70404 0
M  V30 2812 H 259.919 3.70272 -0.415848 0
M  V30 2813 H 260.032 4.24551 -2.2202 0
M  V30 2814 H 258.396 2.30022 -1.09371 0
M  V30 2815 H 259.179 2.0583 -2.74752 0
M  V30 2816 N 261.624 0.925811 1.2754 0
M  V30 2817 C 262.534 0.428993 2.30644 0
M  V30 2818 C 263.55 -0.489387 1.66976 0
M  V30 2819 O 264.726 -0.372653 1.97922 0
M  V30 2820 C 261.791 -0.311967 3.45294 0
M  V30 2821 C 260.852 0.641098 4.24486 0
M  V30 2822 C 260.085 -0.0645955 5.33661 0
M  V30 2823 O 260.308 -1.28429 5.55754 0
M  V30 2824 O 259.242 0.606265 5.98839 0
M  V30 2825 H 263.068 1.28504 2.75173 0
M  V30 2826 H 260.653 0.691086 1.32455 0
M  V30 2827 H 262.535 -0.729972 4.15029 0
M  V30 2828 H 261.21 -1.14365 3.02824 0
M  V30 2829 H 260.117 1.10874 3.57292 0
M  V30 2830 H 261.45 1.43995 4.70666 0
M  V30 2831 N 263.102 -1.41638 0.69111 0
M  V30 2832 C 264.348 -2.01598 0.220519 0
M  V30 2833 C 264.681 -1.54594 -1.17535 0
M  V30 2834 O 263.956 -0.755177 -1.79241 0
M  V30 2835 C 264.239 -3.59062 0.273243 0
M  V30 2836 C 264.092 -4.16203 1.70573 0
M  V30 2837 C 265.411 -4.38546 -0.369457 0
M  V30 2838 H 262.53 -0.732468 0.0816045 0
M  V30 2839 H 265.172 -1.68445 0.878986 0
M  V30 2840 H 263.322 -3.87435 -0.287411 0
M  V30 2841 H 264.994 -3.98722 2.31989 0
M  V30 2842 H 263.237 -3.71414 2.2413 0
M  V30 2843 H 263.908 -5.25358 1.69419 0
M  V30 2844 H 266.384 -4.1596 0.107977 0
M  V30 2845 H 265.26 -5.48069 -0.302002 0
M  V30 2846 H 265.521 -4.17662 -1.44951 0
M  V30 2847 N 264.58 -0.43555 -1.51462 0
M  V30 2848 C 265.527 0.376797 -2.27703 0
M  V30 2849 C 266.497 1.01838 -1.31219 0
M  V30 2850 O 267.682 1.03762 -1.60119 0
M  V30 2851 C 264.822 1.47301 -3.12084 0
M  V30 2852 C 263.935 0.849744 -4.2356 0
M  V30 2853 C 263.07 1.92086 -4.95254 0
M  V30 2854 C 262.109 1.27593 -5.98654 0
M  V30 2855 N 261.246 2.28833 -6.63762 0
M  V30 2856 H 266.086 -0.279734 -2.96684 0
M  V30 2857 H 263.623 -0.149795 -1.46335 0
M  V30 2858 H 265.581 2.11984 -3.59331 0
M  V30 2859 H 264.211 2.0992 -2.45221 0
M  V30 2860 H 263.263 0.0912529 -3.80291 0
M  V30 2861 H 264.575 0.338878 -4.97648 0
M  V30 2862 H 263.729 2.64435 -5.46039 0
M  V30 2863 H 262.468 2.46545 -4.20793 0
M  V30 2864 H 261.473 0.537893 -5.47162 0
M  V30 2865 H 262.698 0.738693 -6.7507 0
M  V30 2866 H 260.644 2.82375 -5.92115 0
M  V30 2867 H 260.561 1.82632 -7.33608 0
M  V30 2868 H 261.829 3.00671 -7.19178 0
M  V30 2869 N 266.058 1.56714 -0.166846 0
M  V30 2870 C 267.283 2.01557 0.488833 0
M  V30 2871 C 267.708 1.0463 1.56314 0
M  V30 2872 O 267.066 0.0251304 1.81283 0
M  V30 2873 C 267.114 3.4503 1.04818 0
M  V30 2874 O 266.218 3.51163 2.16236 0
M  V30 2875 H 265.559 0.653516 0.117526 0
M  V30 2876 H 268.089 2.02818 -0.269421 0
M  V30 2877 H 268.099 3.84243 1.37191 0
M  V30 2878 H 266.774 4.15077 0.261572 0
M  V30 2879 H 265.351 3.23807 1.84942 0
M  V30 2880 N 267.536 -0.106894 1.57237 0
M  V30 2881 C 268.761 -0.830287 1.90055 0
M  V30 2882 C 269.186 -1.72064 0.75998 0
M  V30 2883 O 268.544 -1.78982 -0.288991 0
M  V30 2884 C 268.592 -1.6295 3.21683 0
M  V30 2885 O 267.696 -2.73748 3.08441 0
M  V30 2886 H 267.037 -0.228855 0.623315 0
M  V30 2887 H 269.567 -0.085658 2.04421 0
M  V30 2888 H 269.577 -2.01621 3.54701 0
M  V30 2889 H 268.252 -0.975989 4.04286 0
M  V30 2890 H 266.829 -2.38192 2.86913 0
M  V30 2891 N 269.014 -1.53014 -0.377408 0
M  V30 2892 C 270.291 -1.59215 -1.13622 0
M  V30 2893 C 270.671 -0.392407 -2.07421 0
M  V30 2894 O 270.019 0.618342 -2.19975 0
M  V30 2895 C 270.229 -2.93669 -1.88573 0
M  V30 2896 C 271.577 -3.47822 -2.43526 0
M  V30 2897 O 272.601 -2.9562 -1.98715 0
M  V30 2898 O 271.46 -4.39055 -3.25412 0
M  V30 2899 H 268.554 -0.642625 -0.52054 0
M  V30 2900 H 271.1 -1.65353 -0.381625 0
M  V30 2901 H 269.872 -3.7243 -1.20048 0
M  V30 2902 H 269.495 -2.90968 -2.70968 0
M  V30 2903 N 270.492 0.636531 -1.44174 0
M  V30 2904 C 271.738 1.39826 -1.4689 0
M  V30 2905 C 272.071 1.93947 -0.0990585 0
M  V30 2906 O 271.346 1.73325 0.882544 0
M  V30 2907 C 271.629 2.56751 -2.5249 0
M  V30 2908 C 271.482 2.08014 -3.98811 0
M  V30 2909 C 272.801 3.58946 -2.54649 0
M  V30 2910 H 269.92 0.507075 -0.53483 0
M  V30 2911 H 272.562 0.720188 -1.75822 0
M  V30 2912 H 270.712 3.14597 -2.2795 0
M  V30 2913 H 272.384 1.5504 -4.34466 0
M  V30 2914 H 270.627 1.39242 -4.10846 0
M  V30 2915 H 271.298 2.92169 -4.68339 0
M  V30 2916 H 273.774 3.1089 -2.76563 0
M  V30 2917 H 272.65 4.38286 -3.3045 0
M  V30 2918 H 272.911 4.12655 -1.58646 0
M  V30 2919 N 271.97 1.30982 0.876444 0
M  V30 2920 C 272.933 1.18054 1.96459 0
M  V30 2921 C 273.933 0.109399 1.60427 0
M  V30 2922 O 275.123 0.358173 1.70478 0
M  V30 2923 C 272.255 0.810616 3.31122 0
M  V30 2924 H 273.448 2.14735 2.09354 0
M  V30 2925 H 271.001 1.145 1.06392 0
M  V30 2926 H 271.736 -0.155322 3.23928 0
M  V30 2927 H 271.521 1.58481 3.58645 0
M  V30 2928 H 273.011 0.743876 4.10921 0
M  V30 2929 N 273.449 -1.08991 1.13837 0
M  V30 2930 C 274.696 -1.81258 0.902882 0
M  V30 2931 C 275.024 -1.85936 -0.570803 0
M  V30 2932 O 274.279 -1.3267 -1.43865 0
M  V30 2933 C 274.578 -3.27042 1.44147 0
M  V30 2934 C 274.244 -3.4249 2.93276 0
M  V30 2935 C 272.906 -3.46414 3.33992 0
M  V30 2936 C 275.258 -3.4666 3.892 0
M  V30 2937 C 272.586 -3.52091 4.69307 0
M  V30 2938 C 274.938 -3.53872 5.24364 0
M  V30 2939 C 273.602 -3.56066 5.646 0
M  V30 2940 H 272.872 -0.663268 0.330388 0
M  V30 2941 H 275.519 -1.28368 1.42105 0
M  V30 2942 H 273.824 -3.82599 0.844097 0
M  V30 2943 H 275.521 -3.81499 1.23528 0
M  V30 2944 H 272.111 -3.40124 2.60794 0
M  V30 2945 H 276.295 -3.42865 3.58828 0
M  V30 2946 H 271.551 -3.52079 4.9985 0
M  V30 2947 H 275.725 -3.56043 5.98503 0
M  V30 2948 H 273.352 -3.60218 6.69438 0
M  V30 2949 N 274.927 -0.932562 -1.27047 0
M  V30 2950 C 275.857 -0.452902 -2.29066 0
M  V30 2951 C 276.838 0.489338 -1.62909 0
M  V30 2952 O 278.023 0.393046 -1.90181 0
M  V30 2953 C 275.153 0.290698 -3.46081 0
M  V30 2954 C 274.107 -0.564168 -4.24265 0
M  V30 2955 C 273.433 0.308886 -5.33807 0
M  V30 2956 C 274.733 -1.83112 -4.89149 0
M  V30 2957 H 276.427 -1.30552 -2.69437 0
M  V30 2958 H 273.973 -0.629201 -1.29526 0
M  V30 2959 H 275.926 0.637233 -4.16554 0
M  V30 2960 H 274.65 1.17738 -3.0464 0
M  V30 2961 H 273.309 -0.893477 -3.55545 0
M  V30 2962 H 272.957 1.19467 -4.88607 0
M  V30 2963 H 272.657 -0.259633 -5.87026 0
M  V30 2964 H 274.181 0.650884 -6.07121 0
M  V30 2965 H 275.595 -1.55236 -5.51883 0
M  V30 2966 H 273.992 -2.34353 -5.52448 0
M  V30 2967 H 275.062 -2.54772 -4.12576 0
M  V30 2968 N 276.405 1.4127 -0.698611 0
M  V30 2969 C 277.337 2.292 0.00399731 0
M  V30 2970 C 278.35 1.44944 0.741279 0
M  V30 2971 O 279.539 1.68416 0.591477 0
M  V30 2972 C 276.639 3.22875 1.02979 0
M  V30 2973 C 275.812 4.35904 0.36151 0
M  V30 2974 C 274.871 5.10134 1.29033 0
M  V30 2975 O 273.897 5.63809 0.781562 0
M  V30 2976 N 275.099 5.17885 2.6225 0
M  V30 2977 H 277.864 2.9014 -0.750921 0
M  V30 2978 H 275.425 1.52455 -0.544882 0
M  V30 2979 H 277.417 3.69404 1.65296 0
M  V30 2980 H 275.987 2.63221 1.68622 0
M  V30 2981 H 275.207 3.91719 -0.441584 0
M  V30 2982 H 276.495 5.08696 -0.103055 0
M  V30 2983 H 275.893 4.7573 3.061 0
M  V30 2984 H 274.45 5.6798 3.19754 0
M  V30 2985 N 277.883 0.443576 1.51229 0
M  V30 2986 C 278.813 -0.355142 2.30783 0
M  V30 2987 C 279.794 -1.0154 1.36468 0
M  V30 2988 O 280.979 -1.01785 1.65389 0
M  V30 2989 C 278.109 -1.45312 3.15439 0
M  V30 2990 C 277.063 -0.916002 4.18083 0
M  V30 2991 C 276.389 -2.1102 4.91299 0
M  V30 2992 C 277.689 0.0538602 5.22272 0
M  V30 2993 H 279.383 0.308767 2.97804 0
M  V30 2994 H 276.929 0.149937 1.43217 0
M  V30 2995 H 278.882 -2.01914 3.69876 0
M  V30 2996 H 277.606 -2.14541 2.46252 0
M  V30 2997 H 276.265 -0.372145 3.64706 0
M  V30 2998 H 275.913 -2.78882 4.18609 0
M  V30 2999 H 275.613 -1.75717 5.60712 0
M  V30 3000 H 277.137 -2.68164 5.48562 0
M  V30 3001 H 278.551 -0.422069 5.71744 0
M  V30 3002 H 276.948 0.319776 5.99247 0
M  V30 3003 H 278.018 0.98858 4.74716 0
M  V30 3004 N 279.361 -1.56624 0.175154 0
M  V30 3005 C 280.586 -2.01813 -0.478137 0
M  V30 3006 C 281.011 -1.05457 -1.55757 0
M  V30 3007 O 280.369 -0.0347439 -1.81267 0
M  V30 3008 C 280.417 -3.45581 -1.02987 0
M  V30 3009 O 279.521 -3.52305 -2.14371 0
M  V30 3010 H 278.862 -0.65413 -0.114059 0
M  V30 3011 H 281.392 -2.02673 0.280173 0
M  V30 3012 H 281.402 -3.84965 -1.35151 0
M  V30 3013 H 280.077 -4.1521 -0.239556 0
M  V30 3014 H 278.654 -3.24783 -1.83222 0
M  V30 3015 N 280.839 0.0985539 -1.57292 0
M  V30 3016 C 282.087 0.801092 -1.85545 0
M  V30 3017 C 282.408 1.79438 -0.763353 0
M  V30 3018 O 281.678 1.94763 0.21073 0
M  V30 3019 H 280.258 0.29884 -0.684619 0
M  V30 3020 H 282.92 0.0810064 -1.94732 0
M  V30 3021 H 282.016 1.3338 -2.82163 0
M  V30 3022 N 282.317 1.53212 0.369288 0
M  V30 3023 C 283.565 1.68881 1.11012 0
M  V30 3024 C 283.886 0.441285 1.89941 0
M  V30 3025 O 283.156 -0.544623 1.88177 0
M  V30 3026 H 281.736 0.622569 0.412816 0
M  V30 3027 H 284.398 1.90391 0.416802 0
M  V30 3028 H 283.494 2.54822 1.80201 0
M  V30 3029 N 283.795 -0.628877 1.44509 0
M  V30 3030 C 285.02 -1.42048 1.5112 0
M  V30 3031 C 285.445 -1.87594 0.137818 0
M  V30 3032 O 284.803 -1.58873 -0.873437 0
M  V30 3033 C 284.851 -2.61541 2.48251 0
M  V30 3034 O 283.955 -3.61453 1.98559 0
M  V30 3035 H 283.296 -0.424942 0.510216 0
M  V30 3036 H 285.826 -0.767374 1.89664 0
M  V30 3037 H 285.836 -3.09057 2.66361 0
M  V30 3038 H 284.511 -2.27736 3.48007 0
M  V30 3039 H 283.088 -3.20731 1.90227 0
M  V30 3040 N 285.273 -1.31445 -0.869486 0
M  V30 3041 C 286.501 -1.24122 -1.65534 0
M  V30 3042 C 286.916 0.193387 -1.87807 0
M  V30 3043 O 286.273 1.12557 -1.43656 0
M  V30 3044 C 286.324 -1.98229 -3.02304 0
M  V30 3045 O 286.045 -3.3609 -2.81026 0
M  V30 3046 C 287.546 -1.97751 -3.96749 0
M  V30 3047 H 284.766 -0.428868 -0.516055 0
M  V30 3048 H 287.31 -1.73328 -1.08525 0
M  V30 3049 H 285.465 -1.52782 -3.56001 0
M  V30 3050 H 285.879 -3.7383 -3.67902 0
M  V30 3051 H 287.353 -2.54114 -4.90031 0
M  V30 3052 H 287.83 -0.960137 -4.28577 0
M  V30 3053 H 288.436 -2.43079 -3.48988 0
M  V30 3054 N 286.751 1.08385 -1.14413 0
M  V30 3055 C 287.999 1.80419 -0.910679 0
M  V30 3056 C 288.32 1.86658 0.564243 0
M  V30 3057 O 287.59 1.35985 1.41014 0
M  V30 3058 H 286.17 0.668204 -0.333934 0
M  V30 3059 H 288.832 1.31037 -1.44275 0
M  V30 3060 H 287.928 2.83238 -1.31082 0
M  V30 3061 N 288.23 0.939286 1.26551 0
M  V30 3062 C 289.16 0.465044 2.28822 0
M  V30 3063 C 290.141 -0.480692 1.63167 0
M  V30 3064 O 291.326 -0.382955 1.90387 0
M  V30 3065 C 288.456 -0.27234 3.46231 0
M  V30 3066 C 287.41 0.58666 4.2396 0
M  V30 3067 C 286.736 -0.280573 5.33963 0
M  V30 3068 C 288.036 1.85704 4.88171 0
M  V30 3069 H 289.73 1.31979 2.68741 0
M  V30 3070 H 287.276 0.636061 1.29191 0
M  V30 3071 H 289.229 -0.615133 4.16886 0
M  V30 3072 H 287.953 -1.16121 3.0526 0
M  V30 3073 H 286.612 0.91232 3.55067 0
M  V30 3074 H 286.26 -1.16874 4.89234 0
M  V30 3075 H 285.96 0.29076 5.8688 0
M  V30 3076 H 287.484 -0.618678 6.07458 0
M  V30 3077 H 288.898 1.58161 5.51052 0
M  V30 3078 H 287.295 2.37279 5.51197 0
M  V30 3079 H 288.365 2.56957 4.11219 0
M  V30 3080 N 289.708 -1.40897 0.706093 0
M  V30 3081 C 290.933 -2.05895 0.249435 0
M  V30 3082 C 291.358 -1.52823 -1.09666 0
M  V30 3083 O 290.716 -0.659589 -1.68876 0
M  V30 3084 C 290.764 -3.59872 0.22904 0
M  V30 3085 O 289.868 -4.04708 -0.792784 0
M  V30 3086 H 289.209 -0.653206 0.119241 0
M  V30 3087 H 291.739 -1.80471 0.96391 0
M  V30 3088 H 291.749 -4.07951 0.0634791 0
M  V30 3089 H 290.424 -3.97866 1.21141 0
M  V30 3090 H 289.001 -3.68111 -0.59572 0
M  V30 3091 N 291.186 -0.45159 -1.50991 0
M  V30 3092 C 292.133 0.352625 -2.2809 0
M  V30 3093 C 293.103 1.0044 -1.32291 0
M  V30 3094 O 294.288 1.02058 -1.6121 0
M  V30 3095 C 291.428 1.43983 -3.13629 0
M  V30 3096 C 290.541 0.804772 -4.24438 0
M  V30 3097 C 289.676 1.86822 -4.97263 0
M  V30 3098 C 288.715 1.21236 -5.99973 0
M  V30 3099 N 287.852 2.2178 -6.66152 0
M  V30 3100 H 292.692 -0.311186 -2.96371 0
M  V30 3101 H 290.229 -0.165308 -1.46168 0
M  V30 3102 H 292.187 2.08161 -3.61559 0
M  V30 3103 H 290.817 2.07307 -2.47434 0
M  V30 3104 H 289.869 0.0509129 -3.80366 0
M  V30 3105 H 291.181 0.286076 -4.97979 0
M  V30 3106 H 290.335 2.58628 -5.48813 0
M  V30 3107 H 289.074 2.42068 -4.23385 0
M  V30 3108 H 288.079 0.479828 -5.47702 0
M  V30 3109 H 289.304 0.667051 -6.75816 0
M  V30 3110 H 287.25 2.76079 -5.95077 0
M  V30 3111 H 287.167 1.74841 -7.35504 0
M  V30 3112 H 288.435 2.93026 -7.22327 0
M  V30 3113 N 292.664 1.56529 -0.183458 0
M  V30 3114 C 293.594 2.21549 0.737456 0
M  V30 3115 C 294.575 1.17489 1.23005 0
M  V30 3116 O 295.76 1.45959 1.281 0
M  V30 3117 C 292.89 2.86575 1.96194 0
M  V30 3118 C 291.844 3.96778 1.60473 0
M  V30 3119 C 291.17 4.48911 2.90487 0
M  V30 3120 C 292.47 5.15767 0.823497 0
M  V30 3121 H 294.164 2.98761 0.195453 0
M  V30 3122 H 291.71 1.43702 0.0925686 0
M  V30 3123 H 293.663 3.30739 2.61131 0
M  V30 3124 H 292.387 2.06749 2.52828 0
M  V30 3125 H 291.046 3.53286 0.978997 0
M  V30 3126 H 290.694 3.65862 3.45186 0
M  V30 3127 H 290.394 5.23265 2.67335 0
M  V30 3128 H 291.918 4.95771 3.56432 0
M  V30 3129 H 293.332 5.56549 1.37571 0
M  V30 3130 H 291.729 5.96114 0.690551 0
M  V30 3131 H 292.799 4.84574 -0.177782 0
M  V30 3132 N 294.142 -0.090211 1.57342 0
M  V30 3133 C 295.391 -0.791531 1.8552 0
M  V30 3134 C 295.704 -1.79659 0.773441 0
M  V30 3135 O 296.91 -2.54616 0.942497 0
M  V30 3136 C 295.366 -1.45856 3.2902 0
M  V30 3137 C 294.974 -0.493017 4.45279 0
M  V30 3138 C 296.718 -2.14332 3.66418 0
M  V30 3139 C 294.625 -1.16491 5.79814 0
M  V30 3140 H 293.555 -0.299356 0.692027 0
M  V30 3141 H 296.206 -0.0445343 1.83446 0
M  V30 3142 H 294.588 -2.25318 3.2565 0
M  V30 3143 H 295.762 0.270464 4.60006 0
M  V30 3144 H 294.077 0.0863061 4.16311 0
M  V30 3145 H 296.674 -2.65344 4.64216 0
M  V30 3146 H 297.017 -2.93447 2.95287 0
M  V30 3147 H 297.55 -1.41724 3.71698 0
M  V30 3148 H 294.289 -0.41447 6.54188 0
M  V30 3149 H 293.809 -1.8997 5.68921 0
M  V30 3150 H 295.488 -1.69001 6.24538 0
M  V30 3151 N 295.62 -1.53406 -0.361157 0
M  V30 3152 C 297.031 -1.61442 -0.937728 0
M  V30 3153 C 297.382 -0.48461 -1.90121 0
M  V30 3154 O 296.507 0.388312 -2.12888 0
M  V30 3155 C 297.102 -2.92624 -1.70753 0
M  V30 3156 C 295.661 -3.02981 -2.23337 0
M  V30 3157 C 294.808 -2.5677 -1.04712 0
M  V30 3158 H 297.759 -1.58083 -0.139816 0
M  V30 3159 H 297.78 -2.80675 -2.56908 0
M  V30 3160 H 297.292 -3.74834 -1.00604 0
M  V30 3161 H 295.393 -2.25368 -2.96715 0
M  V30 3162 H 295.506 -4.0814 -2.50916 0
M  V30 3163 H 293.87 -2.11752 -1.41539 0
M  V30 3164 H 294.653 -3.41402 -0.360539 0
M  V30 3165 N 297.098 0.621204 -1.44841 0
M  V30 3166 C 298.514 0.94048 -1.28946 0
M  V30 3167 C 298.714 2.00154 -0.23249 0
M  V30 3168 O 297.77 2.49651 0.378237 0
M  V30 3169 C 299.083 1.39433 -2.66419 0
M  V30 3170 C 300.631 1.50927 -2.74208 0
M  V30 3171 C 301.106 1.99692 -4.12174 0
M  V30 3172 N 302.597 2.06947 -4.144 0
M  V30 3173 C 303.332 2.45871 -5.1801 0
M  V30 3174 N 302.828 2.83862 -6.31977 0
M  V30 3175 N 304.621 2.46092 -5.05366 0
M  V30 3176 H 296.772 -0.0803548 -2.12248 0
M  V30 3177 H 299.035 0.0266913 -0.947624 0
M  V30 3178 H 298.741 0.688925 -3.44887 0
M  V30 3179 H 298.615 2.36347 -2.93973 0
M  V30 3180 H 301.002 2.20561 -1.96053 0
M  V30 3181 H 301.083 0.523627 -2.50383 0
M  V30 3182 H 300.727 1.30649 -4.90809 0
M  V30 3183 H 300.657 2.99146 -4.33381 0
M  V30 3184 H 303.148 1.80232 -3.32152 0
M  V30 3185 H 303.461 3.12405 -7.0684 0
M  V30 3186 H 301.806 2.8159 -6.35399 0
M  V30 3187 H 304.997 2.1581 -4.15384 0
M  V30 3188 H 305.17 2.76102 -5.86235 0
M  V30 3189 N 298.576 1.31904 0.862503 0
M  V30 3190 C 299.804 1.24998 1.64873 0
M  V30 3191 C 300.219 -0.183425 1.87907 0
M  V30 3192 O 299.576 -1.11794 1.44251 0
M  V30 3193 C 299.627 1.99829 3.01248 0
M  V30 3194 O 299.348 3.37575 2.79239 0
M  V30 3195 C 300.849 1.99852 3.95694 0
M  V30 3196 H 298.069 0.431599 0.513773 0
M  V30 3197 H 300.613 1.73901 1.07604 0
M  V30 3198 H 298.768 1.54668 3.55185 0
M  V30 3199 H 299.182 3.75776 3.65914 0
M  V30 3200 H 300.656 2.56709 4.88676 0
M  V30 3201 H 301.133 0.982852 4.28062 0
M  V30 3202 H 301.739 2.44926 3.47694 0
M  V30 3203 N 300.054 -1.07777 1.14986 0
M  V30 3204 C 301.004 -2.13082 0.811181 0
M  V30 3205 C 301.988 -1.59619 -0.202597 0
M  V30 3206 O 303.18 -1.77 -0.00398275 0
M  V30 3207 C 300.309 -3.42009 0.297439 0
M  V30 3208 C 299.395 -4.02337 1.34112 0
M  V30 3209 N 299.786 -4.36982 2.54716 0
M  V30 3210 C 298.084 -4.29752 1.19285 0
M  V30 3211 C 298.785 -4.84729 3.21578 0
M  V30 3212 N 297.761 -4.83233 2.48972 0
M  V30 3213 H 301.563 -2.37696 1.72853 0
M  V30 3214 H 299.077 -1.25173 1.03468 0
M  V30 3215 H 301.074 -4.16884 0.0364777 0
M  V30 3216 H 299.734 -3.18841 -0.614022 0
M  V30 3217 H 300.745 -4.27807 2.91894 0
M  V30 3218 H 297.422 -4.16106 0.340926 0
M  V30 3219 H 298.812 -5.20863 4.24442 0
M  V30 3220 N 301.532 -0.945985 -1.26051 0
M  V30 3221 C 302.809 -0.513816 -1.88731 0
M  V30 3222 C 303.189 1.00872 -1.8544 0
M  V30 3223 O 302.537 1.8708 -1.312 0
M  V30 3224 C 302.747 -1.08062 -3.31849 0
M  V30 3225 C 304.095 -1.1522 -4.08668 0
M  V30 3226 O 305.119 -1.03155 -3.40936 0
M  V30 3227 O 303.978 -1.34044 -5.29806 0
M  V30 3228 H 301.072 -0.168193 -0.809716 0
M  V30 3229 H 303.618 -1.03886 -1.34186 0
M  V30 3230 H 302.39 -2.1241 -3.2863 0
M  V30 3231 H 302.013 -0.538307 -3.93939 0
M  V30 3232 N 303.011 1.40521 -0.713556 0
M  V30 3233 C 304.288 1.94775 -0.17943 0
M  V30 3234 C 304.668 1.65184 1.31444 0
M  V30 3235 O 304.016 0.968429 2.06963 0
M  V30 3236 C 304.226 3.45543 -0.489986 0
M  V30 3237 C 305.574 4.22442 -0.427536 0
M  V30 3238 O 306.598 3.53644 -0.425929 0
M  V30 3239 O 305.457 5.4501 -0.403292 0
M  V30 3240 H 302.551 0.826606 -0.0255192 0
M  V30 3241 H 305.097 1.5014 -0.790949 0
M  V30 3242 H 303.869 3.60432 -1.5233 0
M  V30 3243 H 303.492 3.97311 0.151598 0
M  V30 3244 N 304.489 0.459591 1.5075 0
M  V30 3245 C 305.719 -0.0972338 2.06371 0
M  V30 3246 C 306.127 -1.35074 1.32483 0
M  V30 3247 O 305.47 -1.79637 0.384226 0
M  V30 3248 C 305.532 -0.462759 3.56509 0
M  V30 3249 C 305.196 0.687084 4.51805 0
M  V30 3250 C 306.193 1.56578 4.95761 0
M  V30 3251 C 303.878 0.874144 4.94635 0
M  V30 3252 C 305.872 2.61604 5.81242 0
M  V30 3253 C 303.559 1.92765 5.79901 0
M  V30 3254 C 304.557 2.79697 6.23104 0
M  V30 3255 O 304.245 3.83235 7.06673 0
M  V30 3256 H 303.977 -0.00140687 0.675999 0
M  V30 3257 H 306.531 0.644011 1.95043 0
M  V30 3258 H 304.761 -1.25703 3.65699 0
M  V30 3259 H 306.45 -0.953323 3.94546 0
M  V30 3260 H 307.216 1.4329 4.6335 0
M  V30 3261 H 303.095 0.207006 4.60535 0
M  V30 3262 H 306.639 3.29489 6.14884 0
M  V30 3263 H 302.536 2.06064 6.11725 0
M  V30 3264 H 303.304 3.80084 7.24899 0
M  V30 3265 N 305.967 -1.56429 0.191757 0
M  V30 3266 C 307.216 -1.9666 -0.448088 0
M  V30 3267 C 307.529 -1.08136 -1.62991 0
M  V30 3268 O 308.735 -1.38135 -2.33733 0
M  V30 3269 C 307.191 -3.49753 -0.848585 0
M  V30 3270 C 306.799 -4.46935 0.308764 0
M  V30 3271 C 308.543 -3.9876 -1.4557 0
M  V30 3272 C 306.45 -5.91293 -0.112506 0
M  V30 3273 H 305.38 -0.734312 -0.171179 0
M  V30 3274 H 308.031 -1.81301 0.283242 0
M  V30 3275 H 306.413 -3.60604 -1.63649 0
M  V30 3276 H 307.587 -4.47813 1.08627 0
M  V30 3277 H 305.902 -4.08102 0.827158 0
M  V30 3278 H 308.499 -5.04086 -1.78328 0
M  V30 3279 H 308.842 -3.42875 -2.36099 0
M  V30 3280 H 309.375 -3.9101 -0.731836 0
M  V30 3281 H 306.114 -6.51097 0.758514 0
M  V30 3282 H 305.634 -5.93676 -0.854941 0
M  V30 3283 H 307.313 -6.44663 -0.549448 0
M  V30 3284 N 307.445 0.0818655 -1.57387 0
M  V30 3285 C 308.675 0.794954 -1.90694 0
M  V30 3286 C 309.083 1.72147 -0.784982 0
M  V30 3287 O 308.426 1.81974 0.251196 0
M  V30 3288 C 308.488 1.65042 -3.19376 0
M  V30 3289 C 308.152 0.894337 -4.48164 0
M  V30 3290 C 309.149 0.21813 -5.19442 0
M  V30 3291 C 306.834 0.864495 -4.94805 0
M  V30 3292 C 308.828 -0.477802 -6.35607 0
M  V30 3293 C 306.515 0.164785 -6.10878 0
M  V30 3294 C 307.513 -0.505173 -6.81129 0
M  V30 3295 O 307.201 -1.19363 -7.94989 0
M  V30 3296 H 306.933 0.231779 -0.635023 0
M  V30 3297 H 309.487 0.059493 -2.05314 0
M  V30 3298 H 307.717 2.42844 -3.00938 0
M  V30 3299 H 309.406 2.24127 -3.38411 0
M  V30 3300 H 310.172 0.232558 -4.84442 0
M  V30 3301 H 306.051 1.37542 -4.40004 0
M  V30 3302 H 309.595 -1.00129 -6.90377 0
M  V30 3303 H 305.492 0.148249 -6.4533 0
M  V30 3304 H 306.26 -1.10188 -8.11049 0
M  V30 3305 N 308.923 1.53595 0.353017 0
M  V30 3306 C 310.148 1.7462 1.11904 0
M  V30 3307 C 310.573 0.479721 1.8188 0
M  V30 3308 O 309.931 -0.567066 1.72204 0
M  V30 3309 C 309.979 2.92029 2.11545 0
M  V30 3310 O 309.083 2.61516 3.18878 0
M  V30 3311 H 308.424 0.579531 0.324099 0
M  V30 3312 H 310.954 2.00525 0.406301 0
M  V30 3313 H 310.964 3.18551 2.5493 0
M  V30 3314 H 309.639 3.83888 1.60008 0
M  V30 3315 H 308.216 2.45852 2.80377 0
M  V30 3316 N 310.401 -0.613514 1.45168 0
M  V30 3317 C 311.331 -1.7354 1.56225 0
M  V30 3318 C 312.312 -1.64981 0.41414 0
M  V30 3319 O 313.497 -1.83472 0.636526 0
M  V30 3320 C 310.627 -3.12128 1.52295 0
M  V30 3321 C 309.581 -3.35491 2.65762 0
M  V30 3322 C 308.907 -4.74291 2.46885 0
M  V30 3323 C 310.207 -3.26325 4.0781 0
M  V30 3324 H 311.901 -1.64543 2.50132 0
M  V30 3325 H 309.447 -0.790185 1.20383 0
M  V30 3326 H 311.4 -3.90404 1.58628 0
M  V30 3327 H 310.124 -3.2195 0.549139 0
M  V30 3328 H 308.783 -2.59603 2.58847 0
M  V30 3329 H 308.431 -4.80839 1.47657 0
M  V30 3330 H 308.131 -4.9088 3.22972 0
M  V30 3331 H 309.655 -5.54775 2.55063 0
M  V30 3332 H 311.069 -3.94483 4.16 0
M  V30 3333 H 309.466 -3.54445 4.8424 0
M  V30 3334 H 310.536 -2.23855 4.30136 0
M  V30 3335 N 311.879 -1.3236 -0.855495 0
M  V30 3336 C 312.826 -1.21225 -1.964 0
M  V30 3337 C 313.796 -0.0946204 -1.6583 0
M  V30 3338 O 314.981 -0.27002 -1.8888 0
M  V30 3339 C 312.121 -0.940419 -3.32039 0
M  V30 3340 C 311.234 -2.14276 -3.75113 0
M  V30 3341 C 310.369 -1.80648 -4.9954 0
M  V30 3342 C 309.408 -2.97208 -5.35102 0
M  V30 3343 N 308.545 -2.63678 -6.50706 0
M  V30 3344 H 313.385 -2.16042 -2.05255 0
M  V30 3345 H 310.922 -1.07451 -1.00463 0
M  V30 3346 H 312.88 -0.763311 -4.10158 0
M  V30 3347 H 311.51 -0.0290413 -3.22787 0
M  V30 3348 H 310.562 -2.43017 -2.92655 0
M  V30 3349 H 311.874 -3.01468 -3.97389 0
M  V30 3350 H 311.028 -1.59484 -5.85363 0
M  V30 3351 H 309.767 -0.906678 -4.79198 0
M  V30 3352 H 308.772 -3.19004 -4.47791 0
M  V30 3353 H 309.997 -3.87918 -5.57401 0
M  V30 3354 H 307.943 -1.76238 -6.31883 0
M  V30 3355 H 307.86 -3.444 -6.72997 0
M  V30 3356 H 309.128 -2.45942 -7.39684 0
M  V30 3357 N 313.357 1.07166 -1.15556 0
M  V30 3358 C 314.773 1.31899 -0.898603 0
M  V30 3359 C 314.973 1.96333 0.453383 0
M  V30 3360 O 314.029 2.22438 1.19489 0
M  V30 3361 C 315.342 2.20826 -2.04099 0
M  V30 3362 C 316.89 2.34269 -2.07574 0
M  V30 3363 C 317.365 3.26546 -3.21141 0
M  V30 3364 N 318.856 3.34127 -3.20801 0
M  V30 3365 C 319.591 4.05595 -4.05315 0
M  V30 3366 N 319.087 4.79661 -4.99897 0
M  V30 3367 N 320.88 4.01555 -3.93332 0
M  V30 3368 H 313.031 0.637302 -2.02613 0
M  V30 3369 H 315.294 0.343468 -0.883591 0
M  V30 3370 H 315 1.80744 -3.01703 0
M  V30 3371 H 314.874 3.21364 -1.97496 0
M  V30 3372 H 317.261 2.73603 -1.10568 0
M  V30 3373 H 317.342 1.33429 -2.18244 0
M  V30 3374 H 316.986 2.87931 -4.184 0
M  V30 3375 H 316.916 4.27345 -3.07708 0
M  V30 3376 H 319.407 2.81336 -2.52306 0
M  V30 3377 H 319.72 5.31694 -5.60822 0
M  V30 3378 H 318.065 4.78671 -5.03884 0
M  V30 3379 H 321.256 3.42806 -3.18751 0
M  V30 3380 H 321.429 4.56987 -4.5942 0
M  V30 3381 N 314.835 0.952656 1.25548 0
M  V30 3382 C 316.06 0.623025 1.97821 0
M  V30 3383 C 316.485 -0.7976 1.70352 0
M  V30 3384 O 315.843 -1.53905 0.958283 0
M  V30 3385 C 315.891 0.885532 3.49558 0
M  V30 3386 O 314.995 -0.0366641 4.12384 0
M  V30 3387 H 314.336 0.237082 0.620232 0
M  V30 3388 H 316.866 1.27871 1.59719 0
M  V30 3389 H 316.876 0.811009 3.99858 0
M  V30 3390 H 315.551 1.92094 3.6888 0
M  V30 3391 H 314.128 0.0898954 3.72792 0
M  V30 3392 N 316.313 -1.40141 0.720998 0
M  V30 3393 C 317.559 -2.01084 0.263231 0
M  V30 3394 C 317.892 -1.57052 -1.14229 0
M  V30 3395 O 317.167 -0.793027 -1.77599 0
M  V30 3396 C 317.45 -3.58401 0.349344 0
M  V30 3397 C 317.303 -4.12491 1.79363 0
M  V30 3398 C 318.622 -4.39231 -0.276351 0
M  V30 3399 H 315.741 -0.730572 0.0971228 0
M  V30 3400 H 318.383 -1.66543 0.914518 0
M  V30 3401 H 316.533 -3.87958 -0.205165 0
M  V30 3402 H 318.205 -3.93711 2.40394 0
M  V30 3403 H 316.448 -3.66576 2.31958 0
M  V30 3404 H 317.119 -5.21646 1.80524 0
M  V30 3405 H 319.595 -4.15637 0.196184 0
M  V30 3406 H 318.471 -5.48586 -0.185681 0
M  V30 3407 H 318.732 -4.20643 -1.36059 0
M  V30 3408 N 317.792 -0.46758 -1.50504 0
M  V30 3409 C 318.702 0.33382 -2.32213 0
M  V30 3410 C 319.718 0.999323 -1.42441 0
M  V30 3411 O 320.894 0.988068 -1.75497 0
M  V30 3412 C 317.959 1.4035 -3.17022 0
M  V30 3413 C 317.02 0.754961 -4.2261 0
M  V30 3414 C 316.253 1.77367 -5.03365 0
M  V30 3415 O 316.476 2.99976 -4.8515 0
M  V30 3416 O 315.41 1.34744 -5.86624 0
M  V30 3417 H 319.236 -0.334067 -3.01857 0
M  V30 3418 H 316.821 -0.229496 -1.47627 0
M  V30 3419 H 318.703 2.02318 -3.69656 0
M  V30 3420 H 317.378 2.05492 -2.5011 0
M  V30 3421 H 316.285 0.0964244 -3.73976 0
M  V30 3422 H 317.618 0.146545 -4.91982 0
M  V30 3423 N 319.27 1.56325 -0.20005 0
M  V30 3424 C 320.516 1.98012 0.438059 0
M  V30 3425 C 320.849 1.08702 1.60927 0
M  V30 3426 O 320.124 0.140064 1.93995 0
M  V30 3427 C 320.407 3.48841 0.893419 0
M  V30 3428 C 320.26 4.48928 -0.279947 0
M  V30 3429 C 321.579 4.03498 1.75719 0
M  V30 3430 H 318.698 0.719918 0.157757 0
M  V30 3431 H 321.34 1.87743 -0.291968 0
M  V30 3432 H 319.49 3.57723 1.51547 0
M  V30 3433 H 321.162 4.52079 -0.91772 0
M  V30 3434 H 319.405 4.23694 -0.930919 0
M  V30 3435 H 320.076 5.5194 0.0812601 0
M  V30 3436 H 322.552 3.97427 1.23253 0
M  V30 3437 H 321.428 5.09393 2.04476 0
M  V30 3438 H 321.689 3.4906 2.71311 0
M  V30 3439 N 320.748 -0.0735177 1.57428 0
M  V30 3440 C 321.988 -0.778363 1.89 0
M  V30 3441 C 322.352 -1.7483 0.793634 0
M  V30 3442 O 323.553 -2.49811 0.992367 0
M  V30 3443 C 321.824 -1.46929 3.25802 0
M  V30 3444 S 323.383 -2.20943 3.79117 0
M  V30 3445 H 320.201 -0.258874 0.662197 0
M  V30 3446 H 322.803 -0.0345338 1.95469 0
M  V30 3447 H 321.507 -0.749532 4.03497 0
M  V30 3448 H 321.038 -2.25258 3.22525 0
M  V30 3449 H 323.053 -3.47435 3.54265 0
M  V30 3450 N 322.226 -1.5378 -0.344866 0
M  V30 3451 C 323.472 -1.72158 -1.0832 0
M  V30 3452 C 323.827 -0.478218 -1.86362 0
M  V30 3453 O 323.12 0.529152 -1.84148 0
M  V30 3454 C 323.314 -2.92407 -2.05506 0
M  V30 3455 C 323.143 -4.28318 -1.37017 0
M  V30 3456 C 321.913 -4.92832 -1.11558 0
M  V30 3457 C 324.111 -5.08086 -0.797071 0
M  V30 3458 N 322.093 -6.12619 -0.396358 0
M  V30 3459 C 323.464 -6.1965 -0.208336 0
M  V30 3460 C 325.519 -4.92986 -0.697787 0
M  V30 3461 C 324.222 -7.17763 0.470023 0
M  V30 3462 C 326.248 -5.91391 -0.033171 0
M  V30 3463 C 325.61 -7.02292 0.544599 0
M  V30 3464 H 321.709 -0.683017 -0.380805 0
M  V30 3465 H 324.293 -1.91211 -0.366961 0
M  V30 3466 H 322.464 -2.74857 -2.74423 0
M  V30 3467 H 324.196 -2.9951 -2.72169 0
M  V30 3468 H 320.951 -4.52362 -1.40234 0
M  V30 3469 H 321.375 -6.7698 -0.0515119 0
M  V30 3470 H 326.017 -4.07414 -1.13022 0
M  V30 3471 H 323.735 -8.0291 0.914351 0
M  V30 3472 H 327.321 -5.81784 0.0430009 0
M  V30 3473 H 326.201 -7.77129 1.05073 0
M  V30 3474 N 323.704 0.605807 -1.45491 0
M  V30 3475 C 324.634 1.72709 -1.57143 0
M  V30 3476 C 325.615 1.6476 -0.422884 0
M  V30 3477 O 326.8 1.83132 -0.646247 0
M  V30 3478 C 323.93 3.11316 -1.53948 0
M  V30 3479 C 322.884 3.34077 -2.67537 0
M  V30 3480 C 322.21 4.72975 -2.49397 0
M  V30 3481 C 323.51 3.24158 -4.09535 0
M  V30 3482 H 325.204 1.63214 -2.51001 0
M  V30 3483 H 322.75 0.78379 -1.208 0
M  V30 3484 H 324.703 3.89557 -1.60696 0
M  V30 3485 H 323.427 3.21655 -0.566205 0
M  V30 3486 H 322.086 2.58227 -2.6022 0
M  V30 3487 H 321.734 4.8005 -1.50205 0
M  V30 3488 H 321.434 4.8916 -3.25571 0
M  V30 3489 H 322.958 5.53414 -2.58002 0
M  V30 3490 H 324.372 3.92271 -4.18086 0
M  V30 3491 H 322.769 3.51872 -4.86113 0
M  V30 3492 H 323.839 2.2157 -4.31317 0
M  V30 3493 N 325.182 1.32811 0.848464 0
M  V30 3494 C 326.459 1.14334 1.58704 0
M  V30 3495 C 326.839 -0.293948 2.09043 0
M  V30 3496 O 326.187 -1.29153 1.88499 0
M  V30 3497 C 326.397 2.17626 2.72837 0
M  V30 3498 C 327.745 2.51282 3.42261 0
M  V30 3499 O 328.769 2.16219 2.83068 0
M  V30 3500 O 327.628 3.11413 4.49093 0
M  V30 3501 H 324.722 0.441601 0.699226 0
M  V30 3502 H 327.268 1.44362 0.892053 0
M  V30 3503 H 326.04 3.14211 2.3321 0
M  V30 3504 H 325.663 1.88628 3.50008 0
M  V30 3505 N 326.66 -1.06551 1.16123 0
M  V30 3506 C 327.61 -2.12209 0.833736 0
M  V30 3507 C 328.594 -1.59825 -0.185656 0
M  V30 3508 O 329.786 -1.76994 0.0147906 0
M  V30 3509 C 326.915 -3.41674 0.333697 0
M  V30 3510 C 326.001 -4.00892 1.38372 0
M  V30 3511 N 326.392 -4.34256 2.59337 0
M  V30 3512 C 324.69 -4.28463 1.23836 0
M  V30 3513 C 325.391 -4.81291 3.26701 0
M  V30 3514 N 324.367 -4.80565 2.54083 0
M  V30 3515 H 328.169 -2.35849 1.75364 0
M  V30 3516 H 325.683 -1.24068 1.04789 0
M  V30 3517 H 327.68 -4.16822 0.0806918 0
M  V30 3518 H 326.34 -3.19475 -0.58017 0
M  V30 3519 H 327.351 -4.24687 2.96415 0
M  V30 3520 H 324.028 -4.15721 0.38504 0
M  V30 3521 H 325.418 -5.16332 4.29943 0
M  V30 3522 N 328.138 -0.959301 -1.25041 0
M  V30 3523 C 329.363 -0.633507 -1.97488 0
M  V30 3524 C 329.788 0.788555 -1.70773 0
M  V30 3525 O 329.146 1.53394 -0.966431 0
M  V30 3526 C 329.194 -0.904057 -3.49083 0
M  V30 3527 O 328.298 0.0147939 -4.12397 0
M  V30 3528 H 327.639 -0.240368 -0.618966 0
M  V30 3529 H 330.169 -1.28717 -1.59038 0
M  V30 3530 H 330.179 -0.832203 -3.99423 0
M  V30 3531 H 328.854 -1.94048 -3.67856 0
M  V30 3532 H 327.431 -0.109664 -3.72739 0
M  V30 3533 N 329.616 1.39756 -0.72842 0
M  V30 3534 C 330.844 2.04948 -0.283528 0
M  V30 3535 C 331.259 1.54908 1.0793 0
M  V30 3536 O 330.616 0.711135 1.68075 0
M  V30 3537 C 330.667 3.60498 -0.268957 0
M  V30 3538 O 330.388 4.08695 -1.57798 0
M  V30 3539 C 331.889 4.4288 0.192912 0
M  V30 3540 H 329.109 0.659243 -0.125056 0
M  V30 3541 H 331.653 1.78927 -0.990226 0
M  V30 3542 H 329.808 3.85444 0.388801 0
M  V30 3543 H 330.222 5.02977 -1.48709 0
M  V30 3544 H 331.696 5.51791 0.151952 0
M  V30 3545 H 332.173 4.21418 1.23708 0
M  V30 3546 H 332.779 4.23069 -0.435039 0
M  V30 3547 N 331.094 0.475555 1.50254 0
M  V30 3548 C 332.34 -0.0780073 2.0265 0
M  V30 3549 C 332.673 -1.38968 1.35652 0
M  V30 3550 O 331.948 -1.8839 0.483691 0
M  V30 3551 C 332.231 -0.257161 3.59181 0
M  V30 3552 C 332.084 1.07585 4.36744 0
M  V30 3553 C 333.403 -1.00965 4.28362 0
M  V30 3554 H 330.522 -0.0268758 0.73651 0
M  V30 3555 H 333.164 0.622015 1.7953 0
M  V30 3556 H 331.314 -0.853412 3.79011 0
M  V30 3557 H 332.986 1.70902 4.28474 0
M  V30 3558 H 331.229 1.6714 4.00308 0
M  V30 3559 H 331.9 0.904088 5.44546 0
M  V30 3560 H 334.376 -0.504214 4.13034 0
M  V30 3561 H 333.252 -1.10381 5.37687 0
M  V30 3562 H 333.513 -2.04731 3.91839 0
M  V30 3563 N 332.573 -1.56217 0.208337 0
M  V30 3564 C 333.803 -2.02043 -0.431523 0
M  V30 3565 C 334.211 -1.08755 -1.54819 0
M  V30 3566 O 333.554 -0.0870009 -1.83494 0
M  V30 3567 C 333.616 -3.44239 -1.03633 0
M  V30 3568 C 333.28 -4.56965 -0.0567502 0
M  V30 3569 C 334.277 -5.14624 0.738773 0
M  V30 3570 C 331.962 -5.02266 0.0581736 0
M  V30 3571 C 333.956 -6.16045 1.63605 0
M  V30 3572 C 331.643 -6.03528 0.959001 0
M  V30 3573 C 332.641 -6.60293 1.7465 0
M  V30 3574 O 332.329 -7.59586 2.6322 0
M  V30 3575 H 332.061 -0.666772 -0.111313 0
M  V30 3576 H 334.615 -2.02919 0.318277 0
M  V30 3577 H 332.845 -3.40391 -1.83497 0
M  V30 3578 H 334.534 -3.73793 -1.58221 0
M  V30 3579 H 335.3 -4.80483 0.660364 0
M  V30 3580 H 331.179 -4.57771 -0.544633 0
M  V30 3581 H 334.723 -6.60279 2.25116 0
M  V30 3582 H 330.62 -6.37092 1.03848 0
M  V30 3583 H 331.388 -7.77057 2.57148 0
M  V30 3584 N 334.051 0.0651679 -1.57465 0
M  V30 3585 C 334.981 1.07693 -2.07182 0
M  V30 3586 C 335.962 1.39962 -0.966673 0
M  V30 3587 O 337.147 1.49475 -1.2398 0
M  V30 3588 C 334.277 2.3885 -2.52127 0
M  V30 3589 C 333.231 2.20917 -3.66579 0
M  V30 3590 C 332.557 3.57515 -3.97601 0
M  V30 3591 C 333.857 1.62493 -4.9638 0
M  V30 3592 H 335.551 0.663199 -2.91962 0
M  V30 3593 H 333.097 0.317569 -1.40455 0
M  V30 3594 H 335.05 3.09928 -2.85522 0
M  V30 3595 H 333.774 2.82215 -1.64384 0
M  V30 3596 H 332.433 1.52279 -3.33477 0
M  V30 3597 H 332.081 3.98463 -3.06979 0
M  V30 3598 H 331.781 3.46353 -4.74672 0
M  V30 3599 H 333.305 4.30013 -4.33499 0
M  V30 3600 H 334.719 2.23445 -5.27963 0
M  V30 3601 H 333.116 1.62009 -5.77818 0
M  V30 3602 H 334.186 0.587041 -4.81333 0
M  V30 3603 N 335.529 1.53961 0.336706 0
M  V30 3604 C 336.492 1.81724 1.39675 0
M  V30 3605 C 337.492 0.688532 1.45313 0
M  V30 3606 O 338.682 0.956829 1.45569 0
M  V30 3607 C 335.814 1.96543 2.78538 0
M  V30 3608 H 337.007 2.76424 1.16318 0
M  V30 3609 H 334.56 1.45478 0.571474 0
M  V30 3610 H 335.295 1.0401 3.07168 0
M  V30 3611 H 335.08 2.78665 2.75841 0
M  V30 3612 H 336.57 2.19516 3.5525 0
M  V30 3613 N 337.007 -0.598083 1.45811 0
M  V30 3614 C 337.97 -1.69018 1.54808 0
M  V30 3615 C 338.97 -1.55037 0.426652 0
M  V30 3616 O 340.16 -1.59932 0.690456 0
M  V30 3617 C 337.292 -3.0835 1.45371 0
M  V30 3618 H 338.485 -1.62403 2.52121 0
M  V30 3619 H 336.038 -0.814626 1.33392 0
M  V30 3620 H 336.773 -3.20534 0.492793 0
M  V30 3621 H 336.558 -3.19907 2.26721 0
M  V30 3622 H 338.048 -3.8788 1.54721 0
M  V30 3623 N 338.485 -1.33259 -0.841409 0
M  V30 3624 C 339.415 -1.25926 -1.96634 0
M  V30 3625 C 340.396 -0.140349 -1.6952 0
M  V30 3626 O 341.581 -0.329707 -1.91381 0
M  V30 3627 C 338.711 -0.99512 -3.32738 0
M  V30 3628 C 337.665 -2.0767 -3.74242 0
M  V30 3629 C 336.991 -1.66474 -5.08125 0
M  V30 3630 C 338.291 -3.49318 -3.88297 0
M  V30 3631 H 339.985 -2.20046 -2.03027 0
M  V30 3632 H 337.531 -1.05931 -0.975425 0
M  V30 3633 H 339.484 -0.930323 -4.11002 0
M  V30 3634 H 338.208 -0.0183004 -3.26595 0
M  V30 3635 H 336.867 -2.13187 -2.98239 0
M  V30 3636 H 336.515 -0.675012 -4.9845 0
M  V30 3637 H 336.215 -2.3885 -5.36865 0
M  V30 3638 H 337.739 -1.61455 -5.88867 0
M  V30 3639 H 339.153 -3.46316 -4.56879 0
M  V30 3640 H 337.55 -4.20158 -4.28471 0
M  V30 3641 H 338.62 -3.8801 -2.9082 0
M  V30 3642 N 339.963 1.05934 -1.16686 0
M  V30 3643 C 341.374 1.60263 -0.957745 0
M  V30 3644 C 341.725 1.89789 0.49745 0
M  V30 3645 O 340.85 1.67401 1.37135 0
M  V30 3646 C 341.445 2.91172 -1.73218 0
M  V30 3647 C 340.004 3.42188 -1.56794 0
M  V30 3648 C 339.151 2.16028 -1.73859 0
M  V30 3649 H 342.102 0.888392 -1.31504 0
M  V30 3650 H 342.123 3.60744 -1.21014 0
M  V30 3651 H 341.635 2.6965 -2.79124 0
M  V30 3652 H 339.736 3.68762 -0.533437 0
M  V30 3653 H 339.849 4.17273 -2.35414 0
M  V30 3654 H 338.213 2.26426 -1.16633 0
M  V30 3655 H 338.996 1.96985 -2.81161 0
M  V30 3656 N 341.441 0.965919 1.2453 0
M  V30 3657 C 342.374 0.4393 2.23932 0
M  V30 3658 C 343.352 -0.485615 1.55179 0
M  V30 3659 O 344.536 -0.417402 1.83821 0
M  V30 3660 C 341.663 -0.366042 3.36716 0
M  V30 3661 C 340.709 0.5009 4.23548 0
M  V30 3662 S 341.542 1.94002 4.99123 0
M  V30 3663 C 342.698 1.14342 6.15367 0
M  V30 3664 H 342.931 1.28167 2.68254 0
M  V30 3665 H 340.464 0.770819 1.33782 0
M  V30 3666 H 342.422 -0.824724 4.0213 0
M  V30 3667 H 341.083 -1.18337 2.90956 0
M  V30 3668 H 340.276 -0.117341 5.03863 0
M  V30 3669 H 339.878 0.89524 3.63127 0
M  V30 3670 H 342.17 0.397572 6.76332 0
M  V30 3671 H 343.113 1.92089 6.81548 0
M  V30 3672 H 343.521 0.668579 5.60527 0
M  V30 3673 N 342.919 -1.39368 0.735821 0
M  V30 3674 C 343.882 -2.2896 0.104874 0
M  V30 3675 C 344.882 -1.46347 -0.666274 0
M  V30 3676 O 346.072 -1.67014 -0.49517 0
M  V30 3677 C 343.204 -3.29857 -0.860656 0
M  V30 3678 H 344.397 -2.86259 0.894205 0
M  V30 3679 H 341.95 -1.48029 0.501704 0
M  V30 3680 H 342.685 -2.77615 -1.67631 0
M  V30 3681 H 342.47 -3.9087 -0.310327 0
M  V30 3682 H 343.96 -3.96893 -1.29867 0
M  V30 3683 N 344.397 -0.483516 -1.5 0
M  V30 3684 C 345.347 0.32306 -2.257 0
M  V30 3685 C 346.331 0.950755 -1.29805 0
M  V30 3686 O 347.523 0.861247 -1.54634 0
M  V30 3687 C 344.652 1.39724 -3.13579 0
M  V30 3688 C 343.738 0.776663 -4.16928 0
M  V30 3689 N 344.129 -0.1104 -5.0568 0
M  V30 3690 C 342.427 1.03922 -4.33724 0
M  V30 3691 C 343.128 -0.46387 -5.79848 0
M  V30 3692 N 342.104 0.163987 -5.43353 0
M  V30 3693 H 345.906 -0.360086 -2.91686 0
M  V30 3694 H 343.42 -0.298456 -1.59634 0
M  V30 3695 H 345.417 1.98837 -3.66428 0
M  V30 3696 H 344.077 2.08225 -2.49143 0
M  V30 3697 H 345.088 -0.480069 -5.1567 0
M  V30 3698 H 341.765 1.71829 -3.80501 0
M  V30 3699 H 343.155 -1.18854 -6.61304 0
M  V30 3700 N 345.875 1.56104 -0.216619 0
M  V30 3701 C 346.823 2.21434 0.712036 0
M  V30 3702 C 347.817 1.19218 1.20348 0
M  V30 3703 O 349.023 1.3731 1.16387 0
M  V30 3704 H 345.398 0.70992 0.248026 0
M  V30 3705 H 347.369 2.98083 0.137558 0
M  V30 3706 C 346.118 2.90434 1.91163 0
M  V30 3707 H 345.441 3.68842 1.54258 0
M  V30 3708 H 346.881 3.39552 2.5393 0
M  V30 3709 C 345.34 1.92635 2.76394 0
M  V30 3710 O 345.87 1.44017 3.74996 0
M  V30 3711 N 344.076 1.60392 2.42328 0
M  V30 3712 H 343.623 2.00122 1.622 0
M  V30 3713 H 343.581 0.952159 2.99635 0
M  V30 3714 N 347.353 -0.0568162 1.57498 0
M  V30 3715 C 348.583 -0.764515 1.91934 0
M  V30 3716 C 348.991 -1.70877 0.81227 0
M  V30 3717 O 348.334 -1.82351 -0.222213 0
M  V30 3718 C 348.396 -1.5994 3.21962 0
M  V30 3719 C 348.06 -0.822925 4.4953 0
M  V30 3720 C 349.057 -0.135464 5.19723 0
M  V30 3721 C 346.742 -0.785666 4.96117 0
M  V30 3722 C 348.736 0.578861 6.34766 0
M  V30 3723 C 346.423 -0.0675784 6.11063 0
M  V30 3724 C 347.421 0.613471 6.80239 0
M  V30 3725 O 347.109 1.31996 7.92989 0
M  V30 3726 H 346.841 -0.221647 0.63863 0
M  V30 3727 H 349.395 -0.0268218 2.05382 0
M  V30 3728 H 347.625 -2.38026 3.04763 0
M  V30 3729 H 349.314 -2.18715 3.41934 0
M  V30 3730 H 350.08 -0.155458 4.84751 0
M  V30 3731 H 345.959 -1.30524 4.42136 0
M  V30 3732 H 349.503 1.111 6.88696 0
M  V30 3733 H 345.4 -0.0455636 6.45484 0
M  V30 3734 H 346.168 1.23077 8.09194 0
M  V30 3735 N 348.832 -1.54138 -0.328536 0
M  V30 3736 C 350.243 -1.63395 -0.903272 0
M  V30 3737 C 350.594 -0.524828 -1.8905 0
M  V30 3738 O 349.719 0.343068 -2.13663 0
M  V30 3739 C 350.314 -2.9618 -1.64507 0
M  V30 3740 C 348.873 -3.0765 -2.1686 0
M  V30 3741 C 348.02 -2.58933 -0.992416 0
M  V30 3742 H 350.971 -1.58344 -0.106253 0
M  V30 3743 H 350.992 -2.86061 -2.50897 0
M  V30 3744 H 350.504 -3.76884 -0.926302 0
M  V30 3745 H 348.605 -2.31611 -2.91868 0
M  V30 3746 H 348.718 -4.1337 -2.42202 0
M  V30 3747 H 347.082 -2.14706 -1.37016 0
M  V30 3748 H 347.865 -3.42089 -0.288041 0
M  V30 3749 N 350.31 0.590341 -1.46126 0
M  V30 3750 C 351.24 1.71032 -1.58966 0
M  V30 3751 C 352.221 1.64302 -0.440335 0
M  V30 3752 O 353.406 1.82436 -0.665634 0
M  V30 3753 C 350.536 3.09665 -1.57241 0
M  V30 3754 C 349.49 3.31221 -2.71066 0
M  V30 3755 C 348.816 4.70303 -2.54399 0
M  V30 3756 C 350.116 3.19796 -4.1295 0
M  V30 3757 H 351.81 1.60543 -2.52718 0
M  V30 3758 H 349.356 0.770933 -1.21625 0
M  V30 3759 H 351.309 3.87831 -1.64819 0
M  V30 3760 H 350.033 3.21036 -0.600289 0
M  V30 3761 H 348.692 2.55452 -2.62944 0
M  V30 3762 H 348.34 4.78429 -1.55288 0
M  V30 3763 H 348.04 4.85679 -3.30741 0
M  V30 3764 H 349.564 5.50647 -2.63857 0
M  V30 3765 H 350.978 3.87815 -4.22223 0
M  V30 3766 H 349.375 3.46696 -4.89818 0
M  V30 3767 H 350.445 2.16983 -4.33643 0
M  V30 3768 N 351.788 1.33704 0.83433 0
M  V30 3769 C 353.013 1.28615 1.62705 0
M  V30 3770 C 353.438 -0.139242 1.87584 0
M  V30 3771 O 352.796 -1.09734 1.4432 0
M  V30 3772 C 352.844 2.07139 2.95171 0
M  V30 3773 O 351.948 1.4331 3.86699 0
M  V30 3774 H 351.289 0.44226 0.49528 0
M  V30 3775 H 353.819 1.76335 1.03766 0
M  V30 3776 H 353.829 2.18073 3.44831 0
M  V30 3777 H 352.504 3.10779 2.76386 0
M  V30 3778 H 351.081 1.4105 3.45195 0
M  V30 3779 N 353.266 -1.05314 1.17247 0
M  V30 3780 C 354.491 -1.82509 0.985148 0
M  V30 3781 C 354.916 -1.82343 -0.461788 0
M  V30 3782 O 354.274 -1.23151 -1.33055 0
M  V30 3783 C 354.322 -3.26566 1.52929 0
M  V30 3784 O 353.426 -4.05666 0.742225 0
M  V30 3785 H 352.767 -0.564347 0.349869 0
M  V30 3786 H 355.297 -1.32718 1.55715 0
M  V30 3787 H 355.307 -3.77369 1.55103 0
M  V30 3788 H 353.982 -3.26001 2.58256 0
M  V30 3789 H 352.559 -3.64397 0.791794 0
M  V30 3790 N 354.744 -0.972509 -1.24016 0
M  V30 3791 C 356.155 -0.67517 -1.74064 0
M  V30 3792 C 356.506 0.808939 -1.78747 0
M  V30 3793 O 355.631 1.63286 -1.42009 0
M  V30 3794 C 356.226 -1.21889 -3.16115 0
M  V30 3795 C 354.785 -0.971358 -3.6365 0
M  V30 3796 C 353.932 -1.35134 -2.42145 0
M  V30 3797 H 356.883 -1.14727 -1.09651 0
M  V30 3798 H 356.904 -0.587489 -3.75937 0
M  V30 3799 H 356.416 -2.29906 -3.12674 0
M  V30 3800 H 354.517 0.0930686 -3.72484 0
M  V30 3801 H 354.63 -1.62039 -4.50866 0
M  V30 3802 H 352.994 -0.769751 -2.4279 0
M  V30 3803 H 353.777 -2.4411 -2.41381 0
M  V30 3804 N 356.222 1.38976 -0.743202 0
M  V30 3805 C 357.47 1.99948 -0.29417 0
M  V30 3806 C 357.791 1.59279 1.12495 0
M  V30 3807 O 357.061 0.844808 1.76748 0
M  V30 3808 H 355.641 0.739473 -0.105774 0
M  V30 3809 H 358.303 1.699 -0.954986 0
M  V30 3810 H 357.399 3.10142 -0.349056 0
M  V30 3811 N 357.7 0.491464 1.49741 0
M  V30 3812 C 358.946 -0.0565092 2.02721 0
M  V30 3813 C 359.279 -1.37522 1.37118 0
M  V30 3814 O 358.554 -1.87866 0.503645 0
M  V30 3815 C 358.837 -0.219051 3.59433 0
M  V30 3816 C 358.69 1.12211 4.35579 0
M  V30 3817 C 360.009 -0.964157 4.29409 0
M  V30 3818 H 357.128 -0.0190627 0.736753 0
M  V30 3819 H 359.77 0.641021 1.7886 0
M  V30 3820 H 357.92 -0.813165 3.79895 0
M  V30 3821 H 359.592 1.75437 4.26637 0
M  V30 3822 H 357.835 1.71377 3.98513 0
M  V30 3823 H 358.506 0.961794 5.43556 0
M  V30 3824 H 360.982 -0.460378 4.13545 0
M  V30 3825 H 359.858 -1.04671 5.38828 0
M  V30 3826 H 360.119 -2.00563 3.93988 0
M  V30 3827 N 359.178 -1.55987 0.224894 0
M  V30 3828 C 360.108 -2.23426 -0.678457 0
M  V30 3829 C 361.089 -1.20709 -1.19847 0
M  V30 3830 O 362.274 -1.49304 -1.24186 0
M  V30 3831 C 359.404 -2.91676 -1.88527 0
M  V30 3832 C 358.358 -4.00893 -1.49896 0
M  V30 3833 C 357.684 -4.56455 -2.78483 0
M  V30 3834 C 358.984 -5.17769 -0.686461 0
M  V30 3835 H 360.678 -2.99175 -0.116173 0
M  V30 3836 H 358.224 -1.43897 -0.054436 0
M  V30 3837 H 360.177 -3.37547 -2.5227 0
M  V30 3838 H 358.901 -2.1338 -2.47258 0
M  V30 3839 H 357.56 -3.55758 -0.884985 0
M  V30 3840 H 357.208 -3.74886 -3.35365 0
M  V30 3841 H 356.908 -5.30169 -2.53368 0
M  V30 3842 H 358.432 -5.05047 -3.43162 0
M  V30 3843 H 359.846 -5.60001 -1.22767 0
M  V30 3844 H 358.243 -5.97735 -0.532259 0
M  V30 3845 H 359.313 -4.83932 0.306196 0
M  V30 3846 N 360.656 0.0484629 -1.57525 0
M  V30 3847 C 361.904 0.741657 -1.88 0
M  V30 3848 C 362.225 1.76918 -0.820054 0
M  V30 3849 O 361.495 1.95335 0.148661 0
M  V30 3850 H 360.075 0.276908 -0.69378 0
M  V30 3851 H 362.737 0.019013 -1.94891 0
M  V30 3852 H 361.833 1.24336 -2.86264 0
M  V30 3853 N 362.134 1.5431 0.320358 0
M  V30 3854 C 363.38 1.72924 1.05949 0
M  V30 3855 C 363.713 0.503185 1.87568 0
M  V30 3856 O 362.988 -0.499839 1.87968 0
M  V30 3857 C 363.271 3.00676 1.98156 0
M  V30 3858 C 363.124 4.3354 1.19845 0
M  V30 3859 C 364.443 3.24198 2.9763 0
M  V30 3860 H 361.562 0.629195 0.383774 0
M  V30 3861 H 364.204 1.87008 0.335854 0
M  V30 3862 H 362.354 2.888 2.59859 0
M  V30 3863 H 364.026 4.57305 0.605773 0
M  V30 3864 H 362.269 4.309 0.500784 0
M  V30 3865 H 362.94 5.19156 1.87567 0
M  V30 3866 H 365.416 3.35557 2.4605 0
M  V30 3867 H 364.292 4.14938 3.59329 0
M  V30 3868 H 364.553 2.41577 3.7026 0
M  V30 3869 N 363.613 -0.582584 1.46437 0
M  V30 3870 C 364.543 -1.70187 1.59871 0
M  V30 3871 C 365.524 -1.64066 0.449042 0
M  V30 3872 O 366.709 -1.82081 0.6753 0
M  V30 3873 C 363.839 -3.08827 1.58881 0
M  V30 3874 C 362.793 -3.29779 2.72819 0
M  V30 3875 C 362.119 -4.68947 2.5689 0
M  V30 3876 C 363.419 -3.17601 4.1464 0
M  V30 3877 H 365.113 -1.592 2.53566 0
M  V30 3878 H 362.659 -0.764472 1.22032 0
M  V30 3879 H 364.612 -3.86951 1.66873 0
M  V30 3880 H 363.336 -3.20713 0.617306 0
M  V30 3881 H 361.995 -2.54054 2.64296 0
M  V30 3882 H 361.643 -4.77599 1.57823 0
M  V30 3883 H 361.343 -4.83919 3.33312 0
M  V30 3884 H 362.867 -5.4924 2.66773 0
M  V30 3885 H 364.281 -3.8557 4.24274 0
M  V30 3886 H 362.678 -3.44094 4.9165 0
M  V30 3887 H 363.748 -2.14681 4.34788 0
M  V30 3888 N 365.091 -1.34144 -0.827227 0
M  V30 3889 C 366.321 -1.29138 -1.61267 0
M  V30 3890 C 366.729 0.137597 -1.88699 0
M  V30 3891 O 366.072 1.09379 -1.47587 0
M  V30 3892 C 366.134 -2.0097 -2.9808 0
M  V30 3893 C 365.798 -3.50242 -2.93563 0
M  V30 3894 C 366.795 -4.4523 -2.68452 0
M  V30 3895 C 364.48 -3.92592 -3.13331 0
M  V30 3896 C 366.474 -5.80542 -2.63154 0
M  V30 3897 C 364.161 -5.28005 -3.07658 0
M  V30 3898 C 365.159 -6.21792 -2.82602 0
M  V30 3899 O 364.847 -7.54723 -2.76853 0
M  V30 3900 H 364.579 -0.445851 -0.508127 0
M  V30 3901 H 367.133 -1.77263 -1.03763 0
M  V30 3902 H 365.363 -1.47451 -3.57484 0
M  V30 3903 H 367.052 -1.89309 -3.5905 0
M  V30 3904 H 367.818 -4.13832 -2.52919 0
M  V30 3905 H 363.697 -3.19994 -3.31851 0
M  V30 3906 H 367.241 -6.53717 -2.43516 0
M  V30 3907 H 363.138 -5.59023 -3.22743 0
M  V30 3908 H 363.906 -7.64409 -2.92611 0
M  V30 3909 N 366.569 1.04691 -1.17803 0
M  V30 3910 C 367.532 2.10724 -0.901545 0
M  V30 3911 C 368.532 1.6042 0.110437 0
M  V30 3912 O 369.722 1.7377 -0.122303 0
M  V30 3913 C 366.854 3.39084 -0.351409 0
M  V30 3914 H 368.047 2.36686 -1.84174 0
M  V30 3915 H 365.6 1.21015 -0.98919 0
M  V30 3916 H 366.335 3.18782 0.59569 0
M  V30 3917 H 366.12 3.76909 -1.08083 0
M  V30 3918 H 367.61 4.17227 -0.176451 0
M  V30 3919 N 368.047 0.979072 1.23499 0
M  V30 3920 C 369.295 0.645941 1.91499 0
M  V30 3921 C 369.616 -0.822948 1.76784 0
M  V30 3922 O 368.886 -1.58854 1.14639 0
M  V30 3923 H 367.466 0.235919 0.708767 0
M  V30 3924 H 370.128 1.2426 1.50152 0
M  V30 3925 H 369.224 0.896411 2.9895 0
M  V30 3926 N 369.525 -1.3858 0.750561 0
M  V30 3927 C 370.773 -1.99789 0.30477 0
M  V30 3928 C 371.094 -1.59874 -1.11649 0
M  V30 3929 O 370.364 -0.85417 -1.76297 0
M  V30 3930 H 368.944 -0.738902 0.109694 0
M  V30 3931 H 371.606 -1.69391 0.963983 0
M  V30 3932 H 370.702 -3.09952 0.365499 0
M  V30 3933 N 371.003 -0.499398 -1.49478 0
M  V30 3934 C 372.419 -0.155261 -1.58843 0
M  V30 3935 C 372.619 1.34008 -1.50479 0
M  V30 3936 O 371.675 2.11589 -1.37791 0
M  V30 3937 C 372.988 -0.730636 -2.91689 0
M  V30 3938 C 374.536 -0.696599 -3.0515 0
M  V30 3939 C 375.011 -1.25001 -4.40612 0
M  V30 3940 N 376.502 -1.21064 -4.47099 0
M  V30 3941 C 377.237 -1.60905 -5.50361 0
M  V30 3942 N 376.733 -2.08331 -6.60735 0
M  V30 3943 N 378.526 -1.52331 -5.41065 0
M  V30 3944 H 370.677 -1.47162 -1.53158 0
M  V30 3945 H 372.94 -0.610309 -0.725415 0
M  V30 3946 H 372.646 -1.77928 -3.03372 0
M  V30 3947 H 372.52 -0.190161 -3.7672 0
M  V30 3948 H 374.907 0.343204 -2.93097 0
M  V30 3949 H 374.988 -1.2742 -2.21806 0
M  V30 3950 H 374.632 -2.28859 -4.53416 0
M  V30 3951 H 374.562 -0.64836 -5.22593 0
M  V30 3952 H 377.053 -0.863128 -3.67911 0
M  V30 3953 H 377.366 -2.36805 -7.35624 0
M  V30 3954 H 375.711 -2.12304 -6.6178 0
M  V30 3955 H 378.902 -1.151 -4.53729 0
M  V30 3956 H 379.075 -1.83704 -6.21415 0
M  V30 3957 N 372.481 1.55866 -0.233164 0
M  V30 3958 C 373.727 1.98897 0.395959 0
M  V30 3959 C 374.06 1.12091 1.58585 0
M  V30 3960 O 373.335 0.181182 1.93654 0
M  V30 3961 C 373.618 3.50658 0.819224 0
M  V30 3962 C 373.471 4.48233 -0.375109 0
M  V30 3963 C 374.79 4.07135 1.67121 0
M  V30 3964 H 371.909 0.723102 0.142451 0
M  V30 3965 H 374.551 1.87082 -0.331725 0
M  V30 3966 H 372.701 3.60857 1.43925 0
M  V30 3967 H 374.373 4.50031 -1.01341 0
M  V30 3968 H 372.616 4.21624 -1.02058 0
M  V30 3969 H 373.287 5.51988 -0.0358328 0
M  V30 3970 H 375.763 3.99952 1.14795 0
M  V30 3971 H 374.639 5.13615 1.93625 0
M  V30 3972 H 374.9 3.54736 2.63846 0
M  V30 3973 N 373.959 -0.0401083 1.57549 0
M  V30 3974 C 375.205 -0.734211 1.89043 0
M  V30 3975 C 375.538 -1.75591 0.829535 0
M  V30 3976 O 374.813 -1.93868 -0.156706 0
M  V30 3977 C 375.096 -1.41374 3.31188 0
M  V30 3978 C 374.949 -0.406299 4.47961 0
M  V30 3979 C 376.268 -2.35061 3.72068 0
M  V30 3980 H 373.387 -0.265447 0.687537 0
M  V30 3981 H 376.029 0.00294087 1.9 0
M  V30 3982 H 374.179 -2.04206 3.30503 0
M  V30 3983 H 375.851 0.219255 4.60779 0
M  V30 3984 H 374.094 0.275485 4.32924 0
M  V30 3985 H 374.765 -0.920022 5.44279 0
M  V30 3986 H 377.241 -1.82282 3.74049 0
M  V30 3987 H 376.117 -2.79593 4.72355 0
M  V30 3988 H 376.378 -3.21258 3.0372 0
M  V30 3989 N 375.437 -1.54477 -0.31217 0
M  V30 3990 C 376.367 -1.87652 -1.38957 0
M  V30 3991 C 377.348 -0.734358 -1.53431 0
M  V30 3992 O 378.533 -0.98911 -1.67123 0
M  V30 3993 C 375.663 -2.11396 -2.75552 0
M  V30 3994 C 374.617 -3.27243 -2.75855 0
M  V30 3995 C 373.943 -3.36382 -4.15633 0
M  V30 3996 C 375.243 -4.64622 -2.38587 0
M  V30 3997 H 376.937 -2.77887 -1.11442 0
M  V30 3998 H 374.483 -1.33707 -0.534655 0
M  V30 3999 H 376.436 -2.33189 -3.51 0
M  V30 4000 H 375.16 -1.17921 -3.04569 0
M  V30 4001 H 373.819 -3.05356 -2.02863 0
M  V30 4002 H 373.467 -2.40445 -4.41809 0
M  V30 4003 H 373.167 -4.14249 -4.1674 0
M  V30 4004 H 374.691 -3.60422 -4.92877 0
M  V30 4005 H 376.105 -4.86219 -3.03749 0
M  V30 4006 H 374.502 -5.45121 -2.50925 0
M  V30 4007 H 375.572 -4.66097 -1.33723 0
M  V30 4008 N 376.915 0.57481 -1.46744 0
M  V30 4009 C 378.14 1.36341 -1.56288 0
M  V30 4010 C 378.565 1.86954 -0.207347 0
M  V30 4011 O 377.923 1.62006 0.813871 0
M  V30 4012 C 377.971 2.52147 -2.57787 0
M  V30 4013 O 377.075 3.53834 -2.11838 0
M  V30 4014 H 376.416 0.405713 -0.525636 0
M  V30 4015 H 378.946 0.696453 -1.92382 0
M  V30 4016 H 378.956 2.98958 -2.77648 0
M  V30 4017 H 377.631 2.14663 -3.5622 0
M  V30 4018 H 376.208 3.1345 -2.01999 0
M  V30 4019 N 378.394 1.34581 0.820102 0
M  V30 4020 C 379.805 1.24298 1.39309 0
M  V30 4021 C 380.156 -0.130351 1.95767 0
M  V30 4022 O 379.281 -1.0308 1.90272 0
M  V30 4023 C 379.876 2.25054 2.53251 0
M  V30 4024 C 378.435 2.18552 3.0645 0
M  V30 4025 C 377.582 2.11503 1.79337 0
M  V30 4026 H 380.533 1.45906 0.624262 0
M  V30 4027 H 380.554 1.86917 3.31425 0
M  V30 4028 H 380.066 3.24996 2.1213 0
M  V30 4029 H 378.167 1.21976 3.52069 0
M  V30 4030 H 378.28 3.0993 3.65349 0
M  V30 4031 H 376.644 1.57268 2.00347 0
M  V30 4032 H 377.427 3.13284 1.40386 0
M  V30 4033 N 379.872 -1.04064 1.18357 0
M  V30 4034 C 381.097 -1.81454 1.00445 0
M  V30 4035 C 381.522 -1.82823 -0.442423 0
M  V30 4036 O 380.88 -1.24555 -1.31741 0
M  V30 4037 C 380.928 -3.24925 1.56384 0
M  V30 4038 O 380.032 -4.04856 0.785209 0
M  V30 4039 H 379.373 -0.560604 0.355835 0
M  V30 4040 H 381.903 -1.31059 1.57114 0
M  V30 4041 H 381.913 -3.75702 1.59097 0
M  V30 4042 H 380.588 -3.23244 2.61699 0
M  V30 4043 H 379.165 -3.63537 0.830399 0
M  V30 4044 N 381.35 -0.985608 -1.22978 0
M  V30 4045 C 382.761 -0.693593 -1.73338 0
M  V30 4046 C 383.112 0.789935 -1.79595 0
M  V30 4047 O 382.237 1.61771 -1.43733 0
M  V30 4048 C 382.832 -1.25235 -3.14804 0
M  V30 4049 C 381.391 -1.00987 -3.626 0
M  V30 4050 C 380.538 -1.37695 -2.40698 0
M  V30 4051 H 383.489 -1.15884 -1.08428 0
M  V30 4052 H 383.51 -0.627329 -3.75293 0
M  V30 4053 H 383.022 -2.33209 -3.10218 0
M  V30 4054 H 381.123 0.0535565 -3.72562 0
M  V30 4055 H 381.236 -1.66812 -4.49122 0
M  V30 4056 H 379.6 -0.795459 -2.4196 0
M  V30 4057 H 380.383 -2.46657 -2.38779 0
M  V30 4058 N 382.828 1.3818 -0.7579 0
M  V30 4059 C 384.053 2.04827 -0.325679 0
M  V30 4060 C 384.478 1.56788 1.03919 0
M  V30 4061 O 383.836 0.721811 1.66312 0
M  V30 4062 C 383.884 3.58774 -0.362447 0
M  V30 4063 O 382.988 4.07372 0.642033 0
M  V30 4064 H 382.329 0.64833 -0.143402 0
M  V30 4065 H 384.859 1.7677 -1.03023 0
M  V30 4066 H 384.869 4.07434 -0.214844 0
M  V30 4067 H 383.544 3.93096 -1.35824 0
M  V30 4068 H 382.121 3.70068 0.458688 0
M  V30 4069 N 384.306 0.507319 1.49211 0
M  V30 4070 C 385.717 0.0611118 1.866 0
M  V30 4071 C 386.068 -1.35488 1.41907 0
M  V30 4072 O 385.193 -2.0108 0.799726 0
M  V30 4073 C 385.788 0.104125 3.3864 0
M  V30 4074 C 384.347 -0.28677 3.75306 0
M  V30 4075 C 383.494 0.473893 2.73221 0
M  V30 4076 H 386.445 0.719775 1.41439 0
M  V30 4077 H 386.466 -0.689672 3.74198 0
M  V30 4078 H 385.978 1.13482 3.71138 0
M  V30 4079 H 384.079 -1.32046 3.48417 0
M  V30 4080 H 384.192 0.0370745 4.79086 0
M  V30 4081 H 382.556 -0.0770644 2.54583 0
M  V30 4082 H 383.339 1.50478 3.08563 0
M  V30 4083 N 385.784 -1.5574 0.241426 0
M  V30 4084 C 387.061 -1.90704 -0.434881 0
M  V30 4085 C 387.441 -1.16145 -1.76277 0
M  V30 4086 O 386.789 -0.277152 -2.26813 0
M  V30 4087 C 386.999 -3.43657 -0.608343 0
M  V30 4088 C 388.347 -4.14806 -0.906725 0
M  V30 4089 O 389.371 -3.49366 -0.694408 0
M  V30 4090 O 388.23 -5.30548 -1.31075 0
M  V30 4091 H 385.324 -0.793592 -0.23268 0
M  V30 4092 H 387.87 -1.67288 0.285086 0
M  V30 4093 H 386.642 -3.89927 0.327505 0
M  V30 4094 H 386.265 -3.72918 -1.37906 0
M  V30 4095 N 387.262 0.0317525 -1.57568 0
M  V30 4096 C 388.539 0.758366 -1.803 0
M  V30 4097 C 388.919 1.93718 -0.838845 0
M  V30 4098 O 388.267 2.28187 0.119571 0
M  V30 4099 C 388.477 1.19392 -3.27943 0
M  V30 4100 C 389.825 1.61094 -3.92854 0
M  V30 4101 O 390.849 1.28857 -3.32076 0
M  V30 4102 O 389.708 2.20918 -4.99858 0
M  V30 4103 H 386.802 0.366514 -0.741348 0
M  V30 4104 H 389.348 0.00873765 -1.69698 0
M  V30 4105 H 388.12 0.352275 -3.89711 0
M  V30 4106 H 387.743 2.00365 -3.43424 0
M  V30 4107 N 388.74 1.54641 0.303973 0
M  V30 4108 C 389.703 1.84646 1.35789 0
M  V30 4109 C 390.703 0.7192 1.4382 0
M  V30 4110 O 391.893 0.987491 1.43507 0
M  V30 4111 C 389.025 2.02407 2.74307 0
M  V30 4112 H 390.218 2.78829 1.10429 0
M  V30 4113 H 387.771 1.46658 0.540487 0
M  V30 4114 H 388.506 1.10502 3.04893 0
M  V30 4115 H 388.291 2.84453 2.69868 0
M  V30 4116 H 389.781 2.27002 3.50514 0
M  V30 4117 N 390.218 -0.567019 1.47046 0
M  V30 4118 C 391.465 -1.32462 1.53167 0
M  V30 4119 C 391.793 -1.93571 0.189841 0
M  V30 4120 O 391.048 -1.77865 -0.816243 0
M  V30 4121 C 391.347 -2.4623 2.59047 0
M  V30 4122 C 391.013 -2.03014 4.02612 0
M  V30 4123 C 389.675 -1.90944 4.41694 0
M  V30 4124 C 392.027 -1.69895 4.92732 0
M  V30 4125 C 389.355 -1.44035 5.68745 0
M  V30 4126 C 391.707 -1.2446 6.20236 0
M  V30 4127 C 390.371 -1.10979 6.5821 0
M  V30 4128 H 389.641 -0.484713 0.560477 0
M  V30 4129 H 392.288 -0.636888 1.80599 0
M  V30 4130 H 390.593 -3.20517 2.25335 0
M  V30 4131 H 392.29 -3.04427 2.61008 0
M  V30 4132 H 388.88 -2.13348 3.71726 0
M  V30 4133 H 393.064 -1.78098 4.63244 0
M  V30 4134 H 388.32 -1.32254 5.96925 0
M  V30 4135 H 392.494 -0.978924 6.89485 0
M  V30 4136 H 390.121 -0.744078 7.5655 0
M  V30 4137 N 391.696 -1.35014 -0.812953 0
M  V30 4138 C 393.107 -1.25035 -1.38648 0
M  V30 4139 C 393.458 0.119967 -1.95833 0
M  V30 4140 O 392.583 1.02069 -1.90816 0
M  V30 4141 C 393.178 -2.26394 -2.52054 0
M  V30 4142 C 391.737 -2.20175 -3.05287 0
M  V30 4143 C 390.884 -2.12451 -1.78213 0
M  V30 4144 H 393.835 -1.46235 -0.616516 0
M  V30 4145 H 393.856 -1.88672 -3.30429 0
M  V30 4146 H 393.368 -3.26116 -2.10404 0
M  V30 4147 H 391.469 -1.23841 -3.51417 0
M  V30 4148 H 391.582 -3.11863 -3.63701 0
M  V30 4149 H 389.946 -1.58328 -1.9951 0
M  V30 4150 H 390.729 -3.14024 -1.38723 0
M  V30 4151 N 393.175 1.03435 -1.18907 0
M  V30 4152 C 394.105 2.13503 -0.945448 0
M  V30 4153 C 395.086 1.69682 0.119189 0
M  V30 4154 O 396.271 1.94169 -0.034707 0
M  V30 4155 C 393.401 3.44004 -0.477316 0
M  V30 4156 C 392.355 4.0148 -1.48316 0
M  V30 4157 C 391.681 5.27537 -0.872311 0
M  V30 4158 C 392.981 4.36921 -2.86177 0
M  V30 4159 H 394.675 2.34141 -1.86597 0
M  V30 4160 H 392.221 1.12523 -0.898584 0
M  V30 4161 H 394.174 4.20372 -0.294204 0
M  V30 4162 H 392.898 3.23072 0.478786 0
M  V30 4163 H 391.557 3.27201 -1.65332 0
M  V30 4164 H 391.205 5.02917 0.0911752 0
M  V30 4165 H 390.905 5.66954 -1.54393 0
M  V30 4166 H 392.429 6.06576 -0.699871 0
M  V30 4167 H 393.843 5.04248 -2.72776 0
M  V30 4168 H 392.24 4.87405 -3.50081 0
M  V30 4169 H 393.31 3.46466 -3.39248 0
M  V30 4170 N 394.653 0.992116 1.22453 0
M  V30 4171 C 395.902 0.662992 1.90492 0
M  V30 4172 C 396.215 -0.808407 1.78113 0
M  V30 4173 O 397.421 -1.24908 2.41061 0
M  V30 4174 C 395.877 1.1353 3.41524 0
M  V30 4175 C 395.485 2.63187 3.62542 0
M  V30 4176 C 397.229 0.880465 4.15269 0
M  V30 4177 C 395.136 3.04024 5.0727 0
M  V30 4178 H 394.066 0.244278 0.713333 0
M  V30 4179 H 396.717 1.20157 1.38688 0
M  V30 4180 H 395.099 0.52485 3.92506 0
M  V30 4181 H 396.273 3.2957 3.22056 0
M  V30 4182 H 394.588 2.86543 3.02129 0
M  V30 4183 H 397.185 1.16128 5.21937 0
M  V30 4184 H 397.528 -0.183408 4.15896 0
M  V30 4185 H 398.061 1.45307 3.70312 0
M  V30 4186 H 394.8 4.09584 5.11782 0
M  V30 4187 H 394.32 2.42343 5.48662 0
M  V30 4188 H 395.999 2.95282 5.75689 0
M  V30 4189 N 396.131 -1.37776 0.765217 0
M  V30 4190 C 397.041 -2.34135 0.147666 0
M  V30 4191 C 398.057 -1.59854 -0.687215 0
M  V30 4192 O 399.233 -1.91983 -0.608659 0
M  V30 4193 C 396.298 -3.3901 -0.72617 0
M  V30 4194 C 395.359 -4.2912 0.124417 0
M  V30 4195 C 394.592 -5.28986 -0.707807 0
M  V30 4196 O 394.815 -5.36205 -1.94525 0
M  V30 4197 O 393.749 -6.01779 -0.12046 0
M  V30 4198 H 397.575 -2.88664 0.943758 0
M  V30 4199 H 395.16 -1.39824 0.526277 0
M  V30 4200 H 397.042 -4.03195 -1.22524 0
M  V30 4201 H 395.717 -2.86819 -1.50056 0
M  V30 4202 H 394.624 -3.68057 0.669696 0
M  V30 4203 H 395.957 -4.84598 0.861736 0
M  V30 4204 N 397.609 -0.515225 -1.4894 0
M  V30 4205 C 399.025 -0.172099 -1.58669 0
M  V30 4206 C 399.225 1.32405 -1.51892 0
M  V30 4207 O 398.281 2.10116 -1.40027 0
M  V30 4208 C 399.594 -0.761533 -2.90897 0
M  V30 4209 C 401.142 -0.728926 -3.04394 0
M  V30 4210 C 401.617 -1.29667 -4.39261 0
M  V30 4211 N 403.108 -1.25799 -4.4579 0
M  V30 4212 C 403.843 -1.66733 -5.48623 0
M  V30 4213 N 403.339 -2.15327 -6.58488 0
M  V30 4214 N 405.132 -1.58061 -5.39419 0
M  V30 4215 H 397.283 -1.48778 -1.51588 0
M  V30 4216 H 399.546 -0.617968 -0.718901 0
M  V30 4217 H 399.252 -1.81136 -3.01468 0
M  V30 4218 H 399.126 -0.230106 -3.76497 0
M  V30 4219 H 401.513 0.312098 -2.93445 0
M  V30 4220 H 401.594 -1.29766 -2.20442 0
M  V30 4221 H 401.238 -2.33655 -4.50963 0
M  V30 4222 H 401.168 -0.703752 -5.21876 0
M  V30 4223 H 403.659 -0.902102 -3.66975 0
M  V30 4224 H 403.972 -2.44594 -7.33071 0
M  V30 4225 H 402.317 -2.19311 -6.59491 0
M  V30 4226 H 405.508 -1.19906 -4.52482 0
M  V30 4227 H 405.681 -1.90284 -6.19432 0
M  V30 4228 N 399.087 1.5561 -0.249682 0
M  V30 4229 C 399.997 2.25143 0.659375 0
M  V30 4230 C 401.013 1.2685 1.19101 0
M  V30 4231 O 402.189 1.59732 1.22669 0
M  V30 4232 C 399.254 2.93945 1.8384 0
M  V30 4233 C 398.315 4.07655 1.34596 0
M  V30 4234 C 397.548 4.73167 2.46878 0
M  V30 4235 O 397.771 4.37768 3.65671 0
M  V30 4236 O 396.705 5.61623 2.16478 0
M  V30 4237 H 400.531 3.03545 0.0968698 0
M  V30 4238 H 398.116 1.49389 -0.018074 0
M  V30 4239 H 399.998 3.37271 2.52638 0
M  V30 4240 H 398.673 2.18481 2.38847 0
M  V30 4241 H 397.58 3.68839 0.625174 0
M  V30 4242 H 398.913 4.84946 0.841941 0
M  V30 4243 N 400.565 -0.0233959 1.57583 0
M  V30 4244 C 401.512 -1.02224 2.06927 0
M  V30 4245 C 402.482 -1.35575 0.959617 0
M  V30 4246 O 403.667 -1.45815 1.23055 0
M  V30 4247 C 400.807 -2.31636 2.5581 0
M  V30 4248 C 399.92 -2.04394 3.80588 0
M  V30 4249 C 399.055 -3.27717 4.18061 0
M  V30 4250 C 398.094 -2.96056 5.3574 0
M  V30 4251 N 397.231 -4.11847 5.68618 0
M  V30 4252 H 402.071 -0.594504 2.9201 0
M  V30 4253 H 399.608 -0.281921 1.44373 0
M  V30 4254 H 401.566 -3.07258 2.82221 0
M  V30 4255 H 400.196 -2.72122 1.73636 0
M  V30 4256 H 399.248 -1.19244 3.61227 0
M  V30 4257 H 400.56 -1.77042 4.66323 0
M  V30 4258 H 399.714 -4.11702 4.4563 0
M  V30 4259 H 398.453 -3.58188 3.30988 0
M  V30 4260 H 397.458 -2.10474 5.07918 0
M  V30 4261 H 398.683 -2.66857 6.24471 0
M  V30 4262 H 396.629 -4.42258 4.84504 0
M  V30 4263 H 396.546 -3.87938 6.48876 0
M  V30 4264 H 397.814 -4.96689 6.00766 0
M  V30 4265 N 402.043 -1.548 -0.295768 0
M  V30 4266 C 403.289 -1.74588 -1.03184 0
M  V30 4267 C 403.622 -0.532962 -1.86744 0
M  V30 4268 O 402.897 0.469872 -1.88739 0
M  V30 4269 C 403.18 -3.03791 -1.93347 0
M  V30 4270 C 403.033 -4.35392 -1.12933 0
M  V30 4271 C 404.352 -3.28892 -2.92435 0
M  V30 4272 H 401.471 -0.635221 -0.373715 0
M  V30 4273 H 404.113 -1.87519 -0.30606 0
M  V30 4274 H 402.263 -2.92898 -2.55232 0
M  V30 4275 H 403.935 -4.58211 -0.532943 0
M  V30 4276 H 402.178 -4.31642 -0.432168 0
M  V30 4277 H 402.849 -5.22074 -1.79284 0
M  V30 4278 H 405.325 -3.39429 -2.4068 0
M  V30 4279 H 404.201 -4.20603 -3.52682 0
M  V30 4280 H 404.462 -2.47437 -3.6637 0
M  V30 4281 N 403.521 0.559213 -1.47345 0
M  V30 4282 C 404.749 1.34194 -1.57479 0
M  V30 4283 C 405.164 1.87463 -0.224261 0
M  V30 4284 O 404.521 1.64888 0.782185 0
M  V30 4285 C 404.572 2.51324 -2.59843 0
M  V30 4286 O 404.293 2.00256 -3.89653 0
M  V30 4287 C 405.794 3.43563 -2.80142 0
M  V30 4288 H 403.014 0.409136 -0.531835 0
M  V30 4289 H 405.558 0.677609 -1.92947 0
M  V30 4290 H 403.713 3.13699 -2.27314 0
M  V30 4291 H 404.127 2.76708 -4.4557 0
M  V30 4292 H 405.601 4.2217 -3.55635 0
M  V30 4293 H 406.078 3.9698 -1.87892 0
M  V30 4294 H 406.684 2.87005 -3.1386 0
M  V30 4295 N 404.999 1.35443 0.805782 0
M  V30 4296 C 406.248 1.28097 1.55801 0
M  V30 4297 C 406.561 -0.142428 1.95081 0
M  V30 4298 O 407.767 -0.33817 2.69386 0
M  V30 4299 C 406.223 2.24653 2.81174 0
M  V30 4300 C 405.831 3.72342 2.49129 0
M  V30 4301 C 407.575 2.2625 3.59181 0
M  V30 4302 C 405.482 4.60719 3.70799 0
M  V30 4303 H 404.412 0.475937 0.584808 0
M  V30 4304 H 407.063 1.60712 0.885661 0
M  V30 4305 H 405.445 1.85011 3.50124 0
M  V30 4306 H 406.619 4.20624 1.88181 0
M  V30 4307 H 404.934 3.73361 1.84366 0
M  V30 4308 H 407.531 2.89495 4.49552 0
M  V30 4309 H 407.874 1.26647 3.96568 0
M  V30 4310 H 408.407 2.64426 2.97193 0
M  V30 4311 H 405.146 5.61324 3.3852 0
M  V30 4312 H 404.666 4.17163 4.3097 0
M  V30 4313 H 406.345 4.76182 4.38018 0
M  V30 4314 N 406.477 -1.02803 1.19454 0
M  V30 4315 C 407.705 -1.79841 1.02297 0
M  V30 4316 C 408.12 -1.83879 -0.428259 0
M  V30 4317 O 407.477 -1.28345 -1.29745 0
M  V30 4318 C 407.528 -3.24852 1.58598 0
M  V30 4319 O 407.249 -3.21097 2.98041 0
M  V30 4320 C 408.75 -4.18485 1.46236 0
M  V30 4321 H 405.97 -0.565936 0.360496 0
M  V30 4322 H 408.514 -1.2948 1.58288 0
M  V30 4323 H 406.669 -3.72401 1.06753 0
M  V30 4324 H 407.083 -4.12033 3.24545 0
M  V30 4325 H 408.557 -5.18121 1.90407 0
M  V30 4326 H 409.034 -4.37254 0.41301 0
M  V30 4327 H 409.64 -3.76811 1.97215 0
M  V30 4328 N 407.956 -0.998596 -1.21925 0
M  V30 4329 C 408.919 -0.558679 -2.22287 0
M  V30 4330 C 409.919 0.361525 -1.56683 0
M  V30 4331 O 411.109 0.152695 -1.73529 0
M  V30 4332 C 408.241 0.18661 -3.40389 0
M  V30 4333 H 409.434 -1.4463 -2.62721 0
M  V30 4334 H 406.987 -0.786413 -1.35075 0
M  V30 4335 H 407.722 1.08996 -3.05435 0
M  V30 4336 H 407.507 -0.474188 -3.89222 0
M  V30 4337 H 408.997 0.482367 -4.14805 0
M  V30 4338 N 409.434 1.37368 -0.772513 0
M  V30 4339 C 410.364 2.32856 -0.173304 0
M  V30 4340 C 411.345 1.55818 0.682262 0
M  V30 4341 O 412.53 1.84052 0.619566 0
M  V30 4342 C 409.66 3.40048 0.706007 0
M  V30 4343 C 408.614 4.27973 -0.0483144 0
M  V30 4344 C 407.94 5.26184 0.950491 0
M  V30 4345 C 409.24 5.07665 -1.22776 0
M  V30 4346 H 410.934 2.83217 -0.971002 0
M  V30 4347 H 408.48 1.3617 -0.468377 0
M  V30 4348 H 410.433 4.05827 1.13501 0
M  V30 4349 H 409.157 2.88214 1.53623 0
M  V30 4350 H 407.816 3.63726 -0.458107 0
M  V30 4351 H 407.464 4.7063 1.77529 0
M  V30 4352 H 407.164 5.85872 0.450314 0
M  V30 4353 H 408.688 5.94838 1.37842 0
M  V30 4354 H 410.102 5.66578 -0.875366 0
M  V30 4355 H 408.499 5.76681 -1.66007 0
M  V30 4356 H 409.569 4.40294 -2.03149 0
M  V30 4357 N 410.912 0.523116 1.48665 0
M  V30 4358 C 412.158 -0.0134963 2.02796 0
M  V30 4359 C 412.491 -1.34582 1.40004 0
M  V30 4360 O 411.766 -1.86756 0.543381 0
M  V30 4361 C 412.049 -0.14276 3.59817 0
M  V30 4362 C 411.902 1.21425 4.331 0
M  V30 4363 C 413.221 -0.872856 4.31357 0
M  V30 4364 H 410.34 -0.00343074 0.736992 0
M  V30 4365 H 412.982 0.678816 1.7746 0
M  V30 4366 H 411.132 -0.732401 3.81534 0
M  V30 4367 H 412.804 1.84447 4.2282 0
M  V30 4368 H 411.047 1.79791 3.94788 0
M  V30 4369 H 411.718 1.07687 5.41394 0
M  V30 4370 H 414.194 -0.372555 4.14429 0
M  V30 4371 H 413.07 -0.932185 5.40927 0
M  V30 4372 H 413.331 -1.92161 3.98154 0
M  V30 4373 N 412.39 -1.55475 0.257931 0
M  V30 4374 C 413.801 -1.8511 -0.243135 0
M  V30 4375 C 414.152 -1.17986 -1.5676 0
M  V30 4376 O 413.277 -0.462102 -2.11409 0
M  V30 4377 C 413.872 -3.35826 -0.447929 0
M  V30 4378 C 412.431 -3.65647 -0.893245 0
M  V30 4379 C 411.578 -2.7729 0.0232965 0
M  V30 4380 H 414.529 -1.51261 0.480199 0
M  V30 4381 H 414.55 -3.58002 -1.28898 0
M  V30 4382 H 414.062 -3.84652 0.516196 0
M  V30 4383 H 412.163 -3.22308 -1.86945 0
M  V30 4384 H 412.276 -4.73312 -0.742469 0
M  V30 4385 H 410.64 -2.49942 -0.490021 0
M  V30 4386 H 411.423 -3.28926 0.982994 0
M  V30 4387 N 413.868 0.0150385 -1.57593 0
M  V30 4388 C 415.279 0.559832 -1.78109 0
M  V30 4389 C 415.63 1.74814 -0.890756 0
M  V30 4390 O 414.755 2.16216 -0.0892482 0
M  V30 4391 C 415.35 1.02238 -3.23006 0
M  V30 4392 C 413.909 1.51258 -3.44671 0
M  V30 4393 C 413.056 0.456955 -2.73509 0
M  V30 4394 H 416.007 -0.211169 -1.57289 0
M  V30 4395 H 416.028 1.88912 -3.30292 0
M  V30 4396 H 415.54 0.157302 -3.87781 0
M  V30 4397 H 413.641 2.39905 -2.8509 0
M  V30 4398 H 413.754 1.55042 -4.5332 0
M  V30 4399 H 412.118 0.915196 -2.37689 0
M  V30 4400 H 412.901 -0.398896 -3.40975 0
M  V30 4401 N 415.346 1.54954 0.287554 0
M  V30 4402 C 416.276 1.89839 1.35954 0
M  V30 4403 C 417.257 0.758675 1.52244 0
M  V30 4404 O 418.442 1.01557 1.65529 0
M  V30 4405 C 415.572 2.15753 2.72154 0
M  V30 4406 C 414.526 3.3159 2.70614 0
M  V30 4407 C 413.852 3.42952 4.10229 0
M  V30 4408 C 415.152 4.68359 2.31165 0
M  V30 4409 H 416.846 2.79625 1.07007 0
M  V30 4410 H 414.392 1.3454 0.513316 0
M  V30 4411 H 416.345 2.38743 3.47246 0
M  V30 4412 H 415.069 1.22752 3.02654 0
M  V30 4413 H 413.728 3.08545 1.97979 0
M  V30 4414 H 413.376 2.47443 4.37928 0
M  V30 4415 H 413.076 4.20826 4.10097 0
M  V30 4416 H 414.6 3.68218 4.87081 0
M  V30 4417 H 416.014 4.9099 2.95976 0
M  V30 4418 H 414.411 5.49044 2.42221 0
M  V30 4419 H 415.481 4.68165 1.26291 0
M  V30 4420 N 416.824 -0.551391 1.4764 0
M  V30 4421 C 417.787 -1.64007 1.60107 0
M  V30 4422 C 418.787 -1.53601 0.47576 0
M  V30 4423 O 419.977 -1.57655 0.740988 0
M  V30 4424 C 417.109 -3.03569 1.55108 0
M  V30 4425 H 418.302 -1.543 2.57161 0
M  V30 4426 H 415.855 -0.771776 1.35917 0
M  V30 4427 H 416.59 -3.18804 0.594519 0
M  V30 4428 H 416.375 -3.12532 2.36783 0
M  V30 4429 H 417.865 -3.82762 1.66982 0
M  V30 4430 N 418.302 -1.35869 -0.798587 0
M  V30 4431 C 419.235 -1.23801 -1.91699 0
M  V30 4432 C 420.213 -0.124143 -1.62125 0
M  V30 4433 O 421.397 -0.293656 -1.86199 0
M  V30 4434 C 418.524 -0.908063 -3.263 0
M  V30 4435 C 417.57 -2.0351 -3.74815 0
M  V30 4436 S 418.403 -3.65183 -3.91665 0
M  V30 4437 C 419.559 -3.34283 -5.29156 0
M  V30 4438 H 419.792 -2.18466 -2.01643 0
M  V30 4439 H 417.325 -1.21178 -0.956833 0
M  V30 4440 H 419.283 -0.724506 -4.04056 0
M  V30 4441 H 417.944 0.0206584 -3.14093 0
M  V30 4442 H 417.137 -1.75858 -4.72324 0
M  V30 4443 H 416.739 -2.1774 -3.04081 0
M  V30 4444 H 419.031 -2.87607 -6.13424 0
M  V30 4445 H 419.974 -4.31022 -5.61806 0
M  V30 4446 H 420.382 -2.69854 -4.95822 0
M  V30 4447 N 419.78 1.02168 -1.19998 0
M  V30 4448 C 421.026 1.75945 -1.00852 0
M  V30 4449 C 421.359 1.88702 0.458828 0
M  V30 4450 O 420.634 1.40911 1.34069 0
M  V30 4451 C 420.917 3.18154 -1.68671 0
M  V30 4452 C 420.77 3.13224 -3.22817 0
M  V30 4453 C 422.089 4.16711 -1.41561 0
M  V30 4454 H 419.208 0.638673 -0.367785 0
M  V30 4455 H 421.85 1.19222 -1.4794 0
M  V30 4456 H 420 3.66586 -1.28636 0
M  V30 4457 H 421.672 2.72635 -3.72112 0
M  V30 4458 H 419.915 2.50751 -3.53986 0
M  V30 4459 H 420.586 4.13728 -3.65422 0
M  V30 4460 H 423.062 3.76913 -1.76284 0
M  V30 4461 H 421.938 5.14391 -1.91553 0
M  V30 4462 H 422.199 4.40774 -0.342193 0
M  V30 4463 N 421.258 1.00505 1.21394 0
M  V30 4464 C 422.504 0.698477 1.91031 0
M  V30 4465 C 422.859 -0.762448 1.76648 0
M  V30 4466 O 422.152 -1.54554 1.13241 0
M  V30 4467 C 422.346 1.0546 3.41486 0
M  V30 4468 C 422.175 2.5486 3.70508 0
M  V30 4469 C 420.945 3.21461 3.8986 0
M  V30 4470 C 423.143 3.53019 3.74008 0
M  V30 4471 N 421.125 4.60211 4.06299 0
M  V30 4472 C 422.496 4.77279 3.95733 0
M  V30 4473 C 424.551 3.47154 3.56915 0
M  V30 4474 C 423.254 5.96388 4.02137 0
M  V30 4475 C 425.28 4.65652 3.64585 0
M  V30 4476 C 424.642 5.88717 3.86771 0
M  V30 4477 H 420.741 0.30707 0.719189 0
M  V30 4478 H 423.325 1.28753 1.46051 0
M  V30 4479 H 421.496 0.494007 3.85246 0
M  V30 4480 H 423.228 0.702765 3.98552 0
M  V30 4481 H 419.983 2.71906 3.87768 0
M  V30 4482 H 420.407 5.32216 4.1842 0
M  V30 4483 H 425.049 2.53015 3.38738 0
M  V30 4484 H 422.767 6.90919 4.19114 0
M  V30 4485 H 426.353 4.62717 3.52681 0
M  V30 4486 H 425.233 6.78877 3.92549 0
M  V30 4487 N 422.737 -1.36956 0.779787 0
M  V30 4488 C 423.67 -2.27896 0.117681 0
M  V30 4489 C 424.648 -1.46736 -0.700523 0
M  V30 4490 O 425.832 -1.76055 -0.673568 0
M  V30 4491 C 422.959 -3.28136 -0.839296 0
M  V30 4492 C 422.005 -4.26373 -0.10409 0
M  V30 4493 S 422.838 -5.2157 1.21348 0
M  V30 4494 C 423.994 -6.25359 0.260249 0
M  V30 4495 H 424.227 -2.83704 0.888778 0
M  V30 4496 H 421.76 -1.43352 0.57355 0
M  V30 4497 H 423.718 -3.86394 -1.38601 0
M  V30 4498 H 422.379 -2.7126 -1.58356 0
M  V30 4499 H 421.572 -4.97121 -0.82986 0
M  V30 4500 H 421.174 -3.72147 0.371858 0
M  V30 4501 H 423.466 -6.75145 -0.564435 0
M  V30 4502 H 424.409 -7.01885 0.936135 0
M  V30 4503 H 424.817 -5.64345 -0.132127 0
M  V30 4504 N 424.215 -0.530993 -1.48385 0
M  V30 4505 C 425.492 0.0671788 -1.95485 0
M  V30 4506 C 425.872 1.51191 -1.47324 0
M  V30 4507 O 425.22 2.17507 -0.700202 0
M  V30 4508 C 425.43 -0.0511206 -3.48963 0
M  V30 4509 C 426.778 0.107632 -4.24464 0
M  V30 4510 O 427.802 0.0226248 -3.56193 0
M  V30 4511 O 426.661 0.285972 -5.45751 0
M  V30 4512 H 423.755 0.0787365 -0.823243 0
M  V30 4513 H 426.301 -0.595662 -1.58902 0
M  V30 4514 H 425.073 -1.05747 -3.7674 0
M  V30 4515 H 424.696 0.650525 -3.92242 0
M  V30 4516 N 425.693 1.55336 -0.266172 0
M  V30 4517 C 426.656 2.20878 0.612001 0
M  V30 4518 C 427.656 1.18388 1.08816 0
M  V30 4519 O 428.846 1.4335 0.989774 0
M  V30 4520 C 425.978 2.86765 1.84332 0
M  V30 4521 H 427.171 2.99873 0.0398718 0
M  V30 4522 H 424.724 1.56291 -0.0167309 0
M  V30 4523 H 425.459 2.11759 2.45619 0
M  V30 4524 H 425.244 3.61862 1.5099 0
M  V30 4525 H 426.734 3.36867 2.46801 0
M  V30 4526 N 427.171 -0.0066808 1.57599 0
M  V30 4527 C 428.134 -0.985035 2.06953 0
M  V30 4528 C 429.134 -1.27663 0.977687 0
M  V30 4529 O 430.324 -1.22293 1.24057 0
M  V30 4530 C 427.456 -2.3118 2.50536 0
M  V30 4531 H 428.649 -0.558255 2.94658 0
M  V30 4532 H 426.202 -0.254011 1.54222 0
M  V30 4533 H 426.937 -2.78561 1.66054 0
M  V30 4534 H 426.722 -2.11338 3.3027 0
M  V30 4535 H 428.212 -3.01377 2.8907 0
M  V30 4536 N 428.649 -1.55105 -0.279332 0
M  V30 4537 C 429.874 -1.7976 -1.03446 0
M  V30 4538 C 430.299 -0.565952 -1.79384 0
M  V30 4539 O 429.657 0.484259 -1.74713 0
M  V30 4540 C 429.705 -3.0179 -1.97371 0
M  V30 4541 O 428.809 -2.76432 -3.06038 0
M  V30 4542 H 428.15 -0.594334 -0.29608 0
M  V30 4543 H 430.68 -2.02235 -0.310165 0
M  V30 4544 H 430.69 -3.30351 -2.39441 0
M  V30 4545 H 429.365 -3.91085 -1.4151 0
M  V30 4546 H 427.942 -2.58949 -2.68328 0
M  V30 4547 N 430.127 0.543554 -1.4793 0
M  V30 4548 C 431.352 1.32995 -1.59145 0
M  V30 4549 C 431.777 1.86472 -0.246956 0
M  V30 4550 O 431.135 1.63696 0.779324 0
M  V30 4551 C 431.183 2.46623 -2.63077 0
M  V30 4552 O 430.287 3.49261 -2.19295 0
M  V30 4553 H 429.628 0.394472 -0.534124 0
M  V30 4554 H 432.158 0.655489 -1.93816 0
M  V30 4555 H 432.168 2.93001 -2.83926 0
M  V30 4556 H 430.843 2.07059 -3.60693 0
M  V30 4557 H 429.42 3.09094 -2.08603 0
M  V30 4558 N 431.605 1.3629 0.791371 0
M  V30 4559 C 433.021 1.16661 1.08914 0
M  V30 4560 C 433.221 -0.0106266 2.01497 0
M  V30 4561 O 432.277 -0.676596 2.43266 0
M  V30 4562 C 433.59 2.47656 1.70549 0
M  V30 4563 C 435.138 2.54002 1.82899 0
M  V30 4564 C 435.613 3.85078 2.47949 0
M  V30 4565 N 437.104 3.86413 2.5542 0
M  V30 4566 C 437.839 4.84572 3.06557 0
M  V30 4567 N 437.335 5.93124 3.58016 0
M  V30 4568 N 439.128 4.71994 3.05251 0
M  V30 4569 H 431.279 2.11668 0.176238 0
M  V30 4570 H 433.542 0.937486 0.140796 0
M  V30 4571 H 433.248 3.34059 1.09989 0
M  V30 4572 H 433.122 2.63319 2.70079 0
M  V30 4573 H 435.509 1.68018 2.42598 0
M  V30 4574 H 435.59 2.42239 0.821808 0
M  V30 4575 H 435.234 4.71467 1.88895 0
M  V30 4576 H 435.164 3.94135 3.49235 0
M  V30 4577 H 437.655 3.07988 2.18979 0
M  V30 4578 H 437.968 6.63999 3.95381 0
M  V30 4579 H 436.313 5.96796 3.56173 0
M  V30 4580 H 439.504 3.86321 2.64336 0
M  V30 4581 H 439.677 5.48653 3.44796 0
M  V30 4582 N 433.083 -1.0153 1.20538 0
M  V30 4583 C 434.499 -1.27461 0.96051 0
M  V30 4584 C 434.699 -1.98273 -0.359193 0
M  V30 4585 O 433.755 -2.27886 -1.0874 0
M  V30 4586 C 435.068 -2.10837 2.14402 0
M  V30 4587 C 436.616 -2.24099 2.18515 0
M  V30 4588 C 437.091 -3.10852 3.36355 0
M  V30 4589 N 438.582 -3.18441 3.36377 0
M  V30 4590 C 439.317 -3.85795 4.24205 0
M  V30 4591 N 438.813 -4.55264 5.22213 0
M  V30 4592 N 440.606 -3.82331 4.12043 0
M  V30 4593 H 432.757 -0.539907 2.05423 0
M  V30 4594 H 435.02 -0.30092 0.898972 0
M  V30 4595 H 434.726 -1.66144 3.09983 0
M  V30 4596 H 434.6 -3.11576 2.12604 0
M  V30 4597 H 436.987 -2.68016 1.23497 0
M  V30 4598 H 437.068 -1.22865 2.24361 0
M  V30 4599 H 436.712 -2.6764 4.31661 0
M  V30 4600 H 436.642 -4.12177 3.27746 0
M  V30 4601 H 439.133 -2.68978 2.65442 0
M  V30 4602 H 439.446 -5.04331 5.85551 0
M  V30 4603 H 437.791 -4.54085 5.26148 0
M  V30 4604 H 440.982 -3.27207 3.34743 0
M  V30 4605 H 441.155 -4.34547 4.807 0
M  V30 4606 N 434.561 -1.01147 -1.20859 0
M  V30 4607 C 435.838 -0.613136 -1.85742 0
M  V30 4608 C 436.218 0.909004 -1.90526 0
M  V30 4609 O 435.566 1.79862 -1.40932 0
M  V30 4610 C 435.776 -1.255 -3.25654 0
M  V30 4611 C 437.124 -1.3672 -4.01986 0
M  V30 4612 O 438.148 -1.21082 -3.34989 0
M  V30 4613 O 437.007 -1.6194 -5.21956 0
M  V30 4614 H 434.101 -0.210878 -0.799662 0
M  V30 4615 H 436.647 -1.10853 -1.2849 0
M  V30 4616 H 435.419 -2.29532 -3.16908 0
M  V30 4617 H 435.042 -0.746369 -3.90532 0
M  V30 4618 N 436.039 1.36541 -0.78704 0
M  V30 4619 C 437.316 1.9355 -0.282424 0
M  V30 4620 C 437.696 1.71919 1.22503 0
M  V30 4621 O 437.044 1.07677 2.01539 0
M  V30 4622 C 437.254 3.4246 -0.672462 0
M  V30 4623 C 438.602 4.19582 -0.650863 0
M  V30 4624 O 439.626 3.50889 -0.612789 0
M  V30 4625 O 438.485 5.42106 -0.691623 0
M  V30 4626 H 435.579 0.824091 -0.0693 0
M  V30 4627 H 438.125 1.45736 -0.869423 0
M  V30 4628 H 436.897 3.51851 -1.71221 0
M  V30 4629 H 436.52 3.97556 -0.0592211 0
M  V30 4630 N 437.518 0.538854 1.48102 0
M  V30 4631 C 438.448 -0.207654 2.32575 0
M  V30 4632 C 439.429 -0.926559 1.4265 0
M  V30 4633 O 440.614 -0.91061 1.71527 0
M  V30 4634 C 437.744 -1.24957 3.24042 0
M  V30 4635 C 436.698 -0.648263 4.23062 0
M  V30 4636 C 436.024 -1.79348 5.03725 0
M  V30 4637 C 437.324 0.385897 5.20872 0
M  V30 4638 H 439.018 0.497534 2.95237 0
M  V30 4639 H 436.564 0.240715 1.41974 0
M  V30 4640 H 438.517 -1.77983 3.81969 0
M  V30 4641 H 437.241 -1.98446 2.59397 0
M  V30 4642 H 435.9 -0.139452 3.66335 0
M  V30 4643 H 435.548 -2.51696 4.35498 0
M  V30 4644 H 435.248 -1.39702 5.70751 0
M  V30 4645 H 436.772 -2.32735 5.64506 0
M  V30 4646 H 438.186 -0.057607 5.73271 0
M  V30 4647 H 436.583 0.700227 5.96001 0
M  V30 4648 H 437.653 1.28848 4.67468 0
M  V30 4649 N 438.996 -1.55193 0.274407 0
M  V30 4650 C 440.221 -2.04446 -0.348824 0
M  V30 4651 C 440.646 -1.15149 -1.48735 0
M  V30 4652 O 440.004 -0.149952 -1.80679 0
M  V30 4653 C 440.052 -3.51431 -0.808009 0
M  V30 4654 O 439.156 -3.65225 -1.91531 0
M  V30 4655 H 438.497 -0.66006 -0.0722276 0
M  V30 4656 H 441.027 -2.00481 0.408498 0
M  V30 4657 H 441.037 -3.92781 -1.10395 0
M  V30 4658 H 439.712 -4.15892 0.0249865 0
M  V30 4659 H 438.289 -3.35778 -1.62196 0
M  V30 4660 N 440.474 -0.00167713 -1.576 0
M  V30 4661 C 441.699 0.69739 -1.95323 0
M  V30 4662 C 442.124 1.6642 -0.876706 0
M  V30 4663 O 441.482 1.80548 0.165007 0
M  V30 4664 C 441.53 1.40403 -3.32144 0
M  V30 4665 O 440.634 2.5185 -3.26566 0
M  V30 4666 H 439.975 0.185373 -0.637599 0
M  V30 4667 H 442.505 -0.0553665 -2.04525 0
M  V30 4668 H 442.515 1.76707 -3.67748 0
M  V30 4669 H 441.19 0.695167 -4.10049 0
M  V30 4670 H 439.767 2.17861 -3.0264 0
M  V30 4671 N 441.952 1.55251 0.271103 0
M  V30 4672 C 442.882 1.9127 1.33933 0
M  V30 4673 C 443.863 0.77478 1.5143 0
M  V30 4674 O 445.048 1.03307 1.64442 0
M  V30 4675 C 442.178 2.18627 2.69851 0
M  V30 4676 C 441.132 3.34442 2.67081 0
M  V30 4677 C 440.458 3.47284 4.06569 0
M  V30 4678 C 441.758 4.70784 2.26185 0
M  V30 4679 H 443.452 2.80744 1.04035 0
M  V30 4680 H 440.998 1.35077 0.499017 0
M  V30 4681 H 442.951 2.42413 3.44694 0
M  V30 4682 H 441.675 1.25955 3.01335 0
M  V30 4683 H 440.334 3.10627 1.94695 0
M  V30 4684 H 439.982 2.52074 4.35279 0
M  V30 4685 H 439.682 4.25152 4.0561 0
M  V30 4686 H 441.206 3.73363 4.83148 0
M  V30 4687 H 442.62 4.94102 2.90751 0
M  V30 4688 H 441.017 5.51582 2.36384 0
M  V30 4689 H 442.087 4.69478 1.21319 0
M  V30 4690 N 443.43 -0.535701 1.48216 0
M  V30 4691 C 444.362 -1.65662 1.58394 0
M  V30 4692 C 445.375 -1.5591 0.468607 0
M  V30 4693 O 446.564 -1.62475 0.7392 0
M  V30 4694 C 443.664 -3.04276 1.4923 0
M  V30 4695 C 442.837 -3.39567 2.75705 0
M  V30 4696 C 441.896 -4.57436 2.60075 0
M  V30 4697 O 440.922 -4.60942 3.33948 0
M  V30 4698 N 442.124 -5.55259 1.69315 0
M  V30 4699 H 444.889 -1.5737 2.55058 0
M  V30 4700 H 442.45 -0.722845 1.44867 0
M  V30 4701 H 444.442 -3.80994 1.36477 0
M  V30 4702 H 443.012 -3.06677 0.605632 0
M  V30 4703 H 442.232 -2.52083 3.03064 0
M  V30 4704 H 443.52 -3.59929 3.59623 0
M  V30 4705 H 442.918 -5.552 1.08489 0
M  V30 4706 H 441.475 -6.31218 1.62504 0
M  V30 4707 N 444.908 -1.36708 -0.784132 0
M  V30 4708 C 446.154 -1.31426 -1.54451 0
M  V30 4709 C 446.487 0.10476 -1.93917 0
M  V30 4710 O 445.762 1.05934 -1.6312 0
M  V30 4711 C 446.045 -2.24189 -2.818 0
M  V30 4712 C 445.898 -3.74813 -2.48667 0
M  V30 4713 C 447.217 -2.15626 -3.83658 0
M  V30 4714 H 444.336 -0.478739 -0.560337 0
M  V30 4715 H 446.978 -1.67305 -0.900498 0
M  V30 4716 H 445.128 -1.93722 -3.36755 0
M  V30 4717 H 446.8 -4.15823 -1.99722 0
M  V30 4718 H 445.043 -3.93989 -1.81535 0
M  V30 4719 H 445.714 -4.35138 -3.39646 0
M  V30 4720 H 448.19 -2.42456 -3.38163 0
M  V30 4721 H 447.066 -2.82694 -4.70506 0
M  V30 4722 H 447.327 -1.14522 -4.27009 0
M  V30 4723 N 446.386 1.0089 -1.21074 0
M  V30 4724 C 447.316 2.1145 -0.990523 0
M  V30 4725 C 448.297 1.69897 0.0831699 0
M  V30 4726 O 449.482 1.94052 -0.0758853 0
M  V30 4727 C 446.612 3.42914 -0.550177 0
M  V30 4728 C 445.566 3.98244 -1.56799 0
M  V30 4729 C 444.892 5.25568 -0.984013 0
M  V30 4730 C 446.192 4.30752 -2.95381 0
M  V30 4731 H 447.886 2.3013 -1.91521 0
M  V30 4732 H 445.432 1.10592 -0.92225 0
M  V30 4733 H 447.385 4.19653 -0.383305 0
M  V30 4734 H 446.109 3.24014 0.41015 0
M  V30 4735 H 444.768 3.23621 -1.72236 0
M  V30 4736 H 444.416 5.02998 -0.0155216 0
M  V30 4737 H 444.116 5.63551 -1.66384 0
M  V30 4738 H 445.64 6.04955 -0.828378 0
M  V30 4739 H 447.054 4.98349 -2.8341 0
M  V30 4740 H 445.451 4.79869 -3.60341 0
M  V30 4741 H 446.521 3.39192 -3.46521 0
M  V30 4742 N 447.864 1.01787 1.20321 0
M  V30 4743 C 448.796 0.547357 2.22568 0
M  V30 4744 C 449.809 -0.370922 1.58518 0
M  V30 4745 O 450.998 -0.169067 1.77698 0
M  V30 4746 C 448.098 -0.223031 3.38165 0
M  V30 4747 C 447.271 0.697472 4.31803 0
M  V30 4748 C 446.33 -0.025562 5.26194 0
M  V30 4749 O 445.356 0.597367 5.66057 0
M  V30 4750 N 446.558 -1.29999 5.65757 0
M  V30 4751 H 449.323 1.42668 2.63564 0
M  V30 4752 H 446.884 0.895552 1.34876 0
M  V30 4753 H 448.876 -0.716002 3.98316 0
M  V30 4754 H 447.446 -1.00366 2.9605 0
M  V30 4755 H 446.666 1.37073 3.69601 0
M  V30 4756 H 447.954 1.32347 4.91286 0
M  V30 4757 H 447.352 -1.827 5.35385 0
M  V30 4758 H 445.909 -1.73766 6.28211 0
M  V30 4759 N 449.342 -1.36122 0.79427 0
M  V30 4760 C 450.588 -1.99406 0.369452 0
M  V30 4761 C 450.921 -1.62886 -1.05743 0
M  V30 4762 O 450.196 -0.886053 -1.73145 0
M  V30 4763 C 450.479 -3.56046 0.538833 0
M  V30 4764 C 450.332 -4.02404 2.00976 0
M  V30 4765 C 451.651 -4.40079 -0.0431359 0
M  V30 4766 H 448.77 -0.724397 0.135712 0
M  V30 4767 H 451.412 -1.61461 1.00151 0
M  V30 4768 H 449.562 -3.885 0.000771004 0
M  V30 4769 H 451.234 -3.80415 2.60926 0
M  V30 4770 H 449.477 -3.53765 2.51063 0
M  V30 4771 H 450.148 -5.11344 2.07922 0
M  V30 4772 H 452.624 -4.14013 0.416228 0
M  V30 4773 H 451.5 -5.48799 0.105374 0
M  V30 4774 H 451.761 -4.27264 -1.13571 0
M  V30 4775 N 450.82 -0.546701 -1.47814 0
M  V30 4776 C 452.068 -0.0187037 -2.02091 0
M  V30 4777 C 452.389 1.33168 -1.42447 0
M  V30 4778 O 451.659 1.86619 -0.595839 0
M  V30 4779 H 450.239 -0.00392531 -0.74699 0
M  V30 4780 H 452.901 -0.714327 -1.81338 0
M  V30 4781 H 451.997 0.0772219 -3.12004 0
M  V30 4782 N 452.299 1.55045 -0.282633 0
M  V30 4783 C 453.547 1.99365 0.331334 0
M  V30 4784 C 453.868 1.1725 1.55812 0
M  V30 4785 O 453.138 0.263871 1.94115 0
M  V30 4786 H 451.718 0.736397 0.125414 0
M  V30 4787 H 454.38 1.90964 -0.389711 0
M  V30 4788 H 453.476 3.0596 0.616036 0
M  V30 4789 N 453.777 0.010035 1.57597 0
M  V30 4790 C 454.74 -0.963029 2.07986 0
M  V30 4791 C 455.74 -1.26619 0.991173 0
M  V30 4792 O 456.93 -1.2097 1.25347 0
M  V30 4793 C 454.062 -2.2851 2.52974 0
M  V30 4794 H 455.255 -0.526971 2.95234 0
M  V30 4795 H 452.808 -0.237639 1.54483 0
M  V30 4796 H 453.543 -2.76784 1.69 0
M  V30 4797 H 453.328 -2.07824 3.32493 0
M  V30 4798 H 454.818 -2.98294 2.9225 0
M  V30 4799 N 455.255 -1.55392 -0.262866 0
M  V30 4800 C 456.202 -1.88966 -1.32516 0
M  V30 4801 C 457.172 -0.742187 -1.48596 0
M  V30 4802 O 458.357 -0.99439 -1.62839 0
M  V30 4803 C 455.497 -2.17592 -2.67858 0
M  V30 4804 C 454.61 -3.45061 -2.59917 0
M  V30 4805 C 453.745 -3.63336 -3.87505 0
M  V30 4806 C 452.784 -4.84462 -3.74116 0
M  V30 4807 N 451.921 -4.99342 -4.93561 0
M  V30 4808 H 456.761 -2.79566 -1.03184 0
M  V30 4809 H 454.298 -1.38404 -0.498285 0
M  V30 4810 H 456.256 -2.3219 -3.46617 0
M  V30 4811 H 454.886 -1.30215 -2.95371 0
M  V30 4812 H 453.938 -3.38881 -1.72812 0
M  V30 4813 H 455.25 -4.3396 -2.45926 0
M  V30 4814 H 454.404 -3.77807 -4.74707 0
M  V30 4815 H 453.143 -2.72641 -4.04374 0
M  V30 4816 H 452.148 -4.69985 -2.85297 0
M  V30 4817 H 453.373 -5.76603 -3.58757 0
M  V30 4818 H 451.319 -4.1158 -5.10821 0
M  V30 4819 H 451.236 -5.82303 -4.82141 0
M  V30 4820 H 452.504 -5.18208 -5.82306 0
M  V30 4821 N 456.733 0.527833 -1.48498 0
M  V30 4822 C 457.98 1.28354 -1.56625 0
M  V30 4823 C 458.308 1.93 -0.241096 0
M  V30 4824 O 457.563 1.79967 0.768798 0
M  V30 4825 C 457.862 2.39275 -2.65485 0
M  V30 4826 C 457.528 1.92268 -4.07853 0
M  V30 4827 C 456.19 1.79166 -4.46602 0
M  V30 4828 C 458.542 1.56771 -4.97064 0
M  V30 4829 C 455.87 1.28905 -5.72364 0
M  V30 4830 C 458.222 1.07972 -6.23318 0
M  V30 4831 C 456.886 0.934887 -6.60921 0
M  V30 4832 H 456.156 0.469682 -0.573131 0
M  V30 4833 H 458.803 0.588781 -1.82224 0
M  V30 4834 H 457.108 3.1443 -2.33754 0
M  V30 4835 H 458.805 2.974 -2.68988 0
M  V30 4836 H 455.395 2.03417 -3.77252 0
M  V30 4837 H 459.579 1.65753 -4.67803 0
M  V30 4838 H 454.835 1.16381 -6.00221 0
M  V30 4839 H 459.009 0.795775 -6.91838 0
M  V30 4840 H 456.636 0.543231 -7.58257 0
M  V30 4841 N 458.211 1.37122 0.776871 0
M  V30 4842 C 459.436 1.354 1.57104 0
M  V30 4843 C 459.861 -0.0595562 1.88006 0
M  V30 4844 O 459.219 -1.03514 1.48844 0
M  V30 4845 C 459.267 2.19472 2.8612 0
M  V30 4846 O 458.371 1.59582 3.80273 0
M  V30 4847 H 457.712 0.462869 0.476076 0
M  V30 4848 H 460.242 1.80577 0.961932 0
M  V30 4849 H 460.252 2.32502 3.35271 0
M  V30 4850 H 458.927 3.22222 2.62956 0
M  V30 4851 H 457.504 1.55564 3.38902 0
M  V30 4852 N 459.689 -1.00246 1.21608 0
M  V30 4853 C 460.652 -2.07233 0.979133 0
M  V30 4854 C 461.652 -1.6072 -0.0508219 0
M  V30 4855 O 462.842 -1.73196 0.186712 0
M  V30 4856 C 459.974 -3.37546 0.477016 0
M  V30 4857 H 461.167 -2.29687 1.92831 0
M  V30 4858 H 458.72 -1.17261 1.03342 0
M  V30 4859 H 459.455 -3.20773 -0.476966 0
M  V30 4860 H 459.24 -3.72638 1.21997 0
M  V30 4861 H 460.73 -4.16285 0.331181 0
M  V30 4862 N 461.167 -1.02423 -1.1978 0
M  V30 4863 C 462.077 -0.610919 -2.26506 0
M  V30 4864 C 463.093 0.355152 -1.70337 0
M  V30 4865 O 464.269 0.214195 -2.00258 0
M  V30 4866 C 461.334 0.0365921 -3.46681 0
M  V30 4867 C 460.395 -0.976389 -4.18049 0
M  V30 4868 C 459.628 -0.359683 -5.32487 0
M  V30 4869 O 459.851 0.838601 -5.64202 0
M  V30 4870 O 458.785 -1.08022 -5.92127 0
M  V30 4871 H 462.611 -1.49965 -2.64091 0
M  V30 4872 H 460.196 -0.794156 -1.26545 0
M  V30 4873 H 462.078 0.39786 -4.19518 0
M  V30 4874 H 460.753 0.899398 -3.10954 0
M  V30 4875 H 459.66 -1.38916 -3.47352 0
M  V30 4876 H 460.993 -1.80941 -4.57735 0
M  V30 4877 N 462.645 1.35699 -0.801477 0
M  V30 4878 C 463.608 2.28199 -0.213994 0
M  V30 4879 C 464.608 1.49359 0.595691 0
M  V30 4880 O 465.798 1.69186 0.414921 0
M  V30 4881 C 462.93 3.33587 0.702297 0
M  V30 4882 H 464.123 2.81666 -1.02976 0
M  V30 4883 H 461.676 1.45467 -0.571759 0
M  V30 4884 H 462.411 2.85297 1.54195 0
M  V30 4885 H 462.196 3.91906 0.123484 0
M  V30 4886 H 463.686 4.02638 1.10783 0
M  V30 4887 N 464.123 0.554532 1.47522 0
M  V30 4888 C 465.086 -0.184174 2.28459 0
M  V30 4889 C 466.086 -0.845195 1.36796 0
M  V30 4890 O 467.276 -0.701467 1.59452 0
M  V30 4891 C 464.408 -1.26903 3.16399 0
M  V30 4892 H 465.601 0.526751 2.95238 0
M  V30 4893 H 463.154 0.311375 1.53167 0
M  V30 4894 H 463.889 -2.01244 2.54306 0
M  V30 4895 H 463.674 -0.799883 3.83854 0
M  V30 4896 H 465.164 -1.78794 3.77389 0
M  V30 4897 N 465.601 -1.54893 0.290851 0
M  V30 4898 C 467.017 -1.59476 -0.0628432 0
M  V30 4899 C 467.217 -1.30795 -1.5328 0
M  V30 4900 O 466.273 -1.07644 -2.28406 0
M  V30 4901 C 467.586 -2.98928 0.325962 0
M  V30 4902 C 469.134 -3.11799 0.273882 0
M  V30 4903 C 469.609 -4.53544 0.637359 0
M  V30 4904 N 471.1 -4.59433 0.589507 0
M  V30 4905 C 471.835 -5.67164 0.84335 0
M  V30 4906 N 471.331 -6.82975 1.16263 0
M  V30 4907 N 473.124 -5.56786 0.771091 0
M  V30 4908 H 465.275 -1.71798 1.24896 0
M  V30 4909 H 467.538 -0.801879 0.505663 0
M  V30 4910 H 467.244 -3.24805 1.34887 0
M  V30 4911 H 467.118 -3.75793 -0.325441 0
M  V30 4912 H 469.505 -2.85677 -0.739765 0
M  V30 4913 H 469.586 -2.37112 0.959766 0
M  V30 4914 H 469.23 -4.80394 1.64877 0
M  V30 4915 H 469.16 -5.26553 -0.0704866 0
M  V30 4916 H 471.651 -3.76245 0.353252 0
M  V30 4917 H 471.964 -7.61048 1.34257 0
M  V30 4918 H 470.309 -6.84552 1.20057 0
M  V30 4919 H 473.5 -4.65187 0.521383 0
M  V30 4920 H 473.673 -6.40664 0.972295 0
M  V30 4921 N 467.08 -0.0183926 -1.57589 0
M  V30 4922 C 468.496 0.337897 -1.55982 0
M  V30 4923 C 468.696 1.73604 -1.02294 0
M  V30 4924 O 467.752 2.43589 -0.664895 0
M  V30 4925 C 469.065 0.196305 -3.00059 0
M  V30 4926 C 470.613 0.269875 -3.11834 0
M  V30 4927 C 471.088 0.157197 -4.5773 0
M  V30 4928 N 472.579 0.214521 -4.62703 0
M  V30 4929 C 473.314 0.150955 -5.73201 0
M  V30 4930 N 472.81 0.0369212 -6.9279 0
M  V30 4931 N 474.603 0.204162 -5.61729 0
M  V30 4932 H 466.754 -0.93279 -1.90821 0
M  V30 4933 H 469.017 -0.359253 -0.877292 0
M  V30 4934 H 468.723 -0.766383 -3.43248 0
M  V30 4935 H 468.597 0.970908 -3.6449 0
M  V30 4936 H 470.984 1.22302 -2.68563 0
M  V30 4937 H 471.065 -0.534918 -2.50144 0
M  V30 4938 H 470.709 -0.792479 -5.01679 0
M  V30 4939 H 470.639 0.980717 -5.17387 0
M  V30 4940 H 473.13 0.303238 -3.76681 0
M  V30 4941 H 473.443 -0.00518321 -7.728 0
M  V30 4942 H 471.788 0.0022886 -6.95 0
M  V30 4943 H 474.979 0.291575 -4.67191 0
M  V30 4944 H 475.152 0.15116 -6.47824 0
M  V30 4945 N 468.558 1.5553 0.254621 0
M  V30 4946 C 469.804 1.77262 0.985193 0
M  V30 4947 C 470.137 0.582286 1.85265 0
M  V30 4948 O 469.412 -0.419666 1.89919 0
M  V30 4949 C 469.695 3.0881 1.85225 0
M  V30 4950 C 469.548 4.38233 1.0135 0
M  V30 4951 C 470.867 3.3653 2.83612 0
M  V30 4952 H 467.986 0.644906 0.356742 0
M  V30 4953 H 470.628 1.88264 0.256236 0
M  V30 4954 H 468.778 2.99562 2.47376 0
M  V30 4955 H 470.45 4.59463 0.411269 0
M  V30 4956 H 468.693 4.32636 0.317574 0
M  V30 4957 H 469.364 5.26644 1.65379 0
M  V30 4958 H 471.84 3.45691 2.31596 0
M  V30 4959 H 470.716 4.29805 3.41407 0
M  V30 4960 H 470.977 2.57064 3.59681 0
M  V30 4961 N 470.036 -0.519951 1.48776 0
M  V30 4962 C 470.983 -1.62352 1.64044 0
M  V30 4963 C 471.953 -1.58945 0.482251 0
M  V30 4964 O 473.138 -1.77219 0.706971 0
M  V30 4965 C 470.278 -3.00579 1.69547 0
M  V30 4966 C 469.391 -3.14145 2.96541 0
M  V30 4967 C 468.526 -4.42991 2.93142 0
M  V30 4968 C 467.565 -4.50122 4.14797 0
M  V30 4969 N 466.702 -5.7037 4.09418 0
M  V30 4970 H 471.542 -1.48643 2.58281 0
M  V30 4971 H 469.079 -0.723516 1.28077 0
M  V30 4972 H 471.037 -3.80671 1.70719 0
M  V30 4973 H 469.667 -3.13036 0.787918 0
M  V30 4974 H 468.719 -2.27239 3.05068 0
M  V30 4975 H 470.031 -3.15275 3.86527 0
M  V30 4976 H 469.185 -5.31385 2.92772 0
M  V30 4977 H 467.924 -4.44398 2.00902 0
M  V30 4978 H 466.929 -3.60133 4.15433 0
M  V30 4979 H 468.154 -4.50445 5.08208 0
M  V30 4980 H 466.1 -5.72655 3.20004 0
M  V30 4981 H 466.017 -5.73036 4.93119 0
M  V30 4982 H 467.285 -6.61023 4.13121 0
M  V30 4983 N 471.514 -1.37532 -0.769588 0
M  V30 4984 C 472.477 -1.33292 -1.86456 0
M  V30 4985 C 473.477 -0.236537 -1.59051 0
M  V30 4986 O 474.667 -0.492511 -1.67093 0
M  V30 4987 C 471.799 -1.07118 -3.23633 0
M  V30 4988 H 472.992 -2.30692 -1.91628 0
M  V30 4989 H 470.545 -1.22593 -0.969572 0
M  V30 4990 H 471.28 -0.102578 -3.24138 0
M  V30 4991 H 471.065 -1.86479 -3.44917 0
M  V30 4992 H 472.555 -1.06806 -4.03711 0
M  V30 4993 N 472.992 0.995999 -1.22138 0
M  V30 4994 C 474.238 1.73767 -1.04561 0
M  V30 4995 C 474.571 1.89633 0.418698 0
M  V30 4996 O 473.846 1.43723 1.3105 0
M  V30 4997 C 474.129 3.14505 -1.75382 0
M  V30 4998 C 473.982 3.06306 -3.29388 0
M  V30 4999 C 475.301 4.13615 -1.50369 0
M  V30 5000 H 472.42 0.630728 -0.38125 0
M  V30 5001 H 475.062 1.16057 -1.50435 0
M  V30 5002 H 473.212 3.63775 -1.36383 0
M  V30 5003 H 474.884 2.64681 -3.77812 0
M  V30 5004 H 473.127 2.43186 -3.59226 0
M  V30 5005 H 473.798 4.05884 -3.74116 0
M  V30 5006 H 476.274 3.73089 -1.84239 0
M  V30 5007 H 475.15 5.10212 -2.02421 0
M  V30 5008 H 475.411 4.39949 -0.435611 0
M  V30 5009 N 474.47 1.03057 1.19235 0
M  V30 5010 C 475.717 0.728019 1.88961 0
M  V30 5011 C 476.045 -0.743515 1.79728 0
M  V30 5012 O 475.3 -1.55729 1.1852 0
M  V30 5013 C 475.599 1.1268 3.39172 0
M  V30 5014 C 475.265 2.5969 3.68608 0
M  V30 5015 C 473.927 2.99854 3.76352 0
M  V30 5016 C 476.279 3.54793 3.81801 0
M  V30 5017 C 473.607 4.34031 3.94758 0
M  V30 5018 C 475.959 4.88675 4.0172 0
M  V30 5019 C 474.623 5.28526 4.07697 0
M  V30 5020 H 473.893 0.266401 0.691456 0
M  V30 5021 H 476.54 1.29373 1.41191 0
M  V30 5022 H 474.845 0.479722 3.88852 0
M  V30 5023 H 476.542 0.870203 3.91444 0
M  V30 5024 H 473.132 2.27575 3.63191 0
M  V30 5025 H 477.316 3.24914 3.7516 0
M  V30 5026 H 472.572 4.6444 3.97625 0
M  V30 5027 H 476.746 5.6228 4.1087 0
M  V30 5028 H 474.373 6.32506 4.21712 0
M  V30 5029 N 475.948 -1.35272 0.808662 0
M  V30 5030 C 477.196 -1.98316 0.389233 0
M  V30 5031 C 477.517 -1.64465 -1.04767 0
M  V30 5032 O 476.787 -0.928175 -1.72516 0
M  V30 5033 H 475.367 -0.733585 0.140935 0
M  V30 5034 H 478.029 -1.6515 1.03496 0
M  V30 5035 H 477.125 -3.08123 0.496631 0
M  V30 5036 N 477.426 -0.562348 -1.47226 0
M  V30 5037 C 478.666 -0.0426374 -2.04356 0
M  V30 5038 C 479.03 1.28487 -1.42671 0
M  V30 5039 O 480.231 1.89259 -1.90878 0
M  V30 5040 C 478.502 0.0433826 -3.57374 0
M  V30 5041 S 480.061 0.508472 -4.35844 0
M  V30 5042 H 476.879 -0.0276234 -0.710463 0
M  V30 5043 H 479.481 -0.750245 -1.80531 0
M  V30 5044 H 478.185 -0.927072 -3.99792 0
M  V30 5045 H 477.716 0.774387 -3.85703 0
M  V30 5046 H 479.731 1.76719 -4.63665 0
M  V30 5047 N 478.904 1.54736 -0.299062 0
M  V30 5048 C 480.132 2.04512 0.313447 0
M  V30 5049 C 480.547 1.17643 1.47667 0
M  V30 5050 O 479.904 0.20164 1.81383 0
M  V30 5051 C 479.955 3.53171 0.771542 0
M  V30 5052 O 479.676 4.36736 -0.345379 0
M  V30 5053 C 481.177 4.18936 1.4494 0
M  V30 5054 H 478.397 0.667507 0.0683784 0
M  V30 5055 H 480.941 1.99752 -0.438129 0
M  V30 5056 H 479.096 3.58298 1.47314 0
M  V30 5057 H 479.51 5.24499 0.0109219 0
M  V30 5058 H 480.984 5.24482 1.72111 0
M  V30 5059 H 481.461 3.68554 2.38883 0
M  V30 5060 H 482.067 4.17879 0.791028 0
M  V30 5061 N 480.382 0.0267497 1.57577 0
M  V30 5062 C 481.312 -0.954308 2.13108 0
M  V30 5063 C 482.293 -1.34088 1.04663 0
M  V30 5064 O 483.478 -1.41992 1.32484 0
M  V30 5065 C 480.608 -2.23744 2.65624 0
M  V30 5066 C 479.562 -1.99168 3.78835 0
M  V30 5067 C 478.888 -3.33726 4.17769 0
M  V30 5068 C 480.188 -1.33277 5.0501 0
M  V30 5069 H 481.882 -0.491848 2.95332 0
M  V30 5070 H 479.428 -0.23514 1.42067 0
M  V30 5071 H 481.381 -2.92754 3.03106 0
M  V30 5072 H 480.105 -2.72151 1.80558 0
M  V30 5073 H 478.764 -1.32577 3.41788 0
M  V30 5074 H 478.412 -3.79888 3.29688 0
M  V30 5075 H 478.112 -3.18089 4.94058 0
M  V30 5076 H 479.636 -4.04008 4.57832 0
M  V30 5077 H 481.05 -1.92283 5.40093 0
M  V30 5078 H 479.447 -1.28045 5.8628 0
M  V30 5079 H 480.517 -0.305411 4.83937 0
M  V30 5080 N 481.861 -1.55662 -0.24637 0
M  V30 5081 C 482.793 -1.86811 -1.32794 0
M  V30 5082 C 483.806 -0.754413 -1.44265 0
M  V30 5083 O 484.995 -1.03253 -1.45606 0
M  V30 5084 C 482.095 -2.0397 -2.70646 0
M  V30 5085 C 481.268 -3.34832 -2.81436 0
M  V30 5086 C 480.327 -3.41727 -4.00136 0
M  V30 5087 O 479.353 -4.14934 -3.89639 0
M  V30 5088 N 480.555 -2.71058 -5.1333 0
M  V30 5089 H 483.32 -2.80174 -1.06409 0
M  V30 5090 H 480.881 -1.55906 -0.43647 0
M  V30 5091 H 482.873 -2.05924 -3.48393 0
M  V30 5092 H 481.443 -1.1735 -2.89738 0
M  V30 5093 H 480.663 -3.4519 -1.90361 0
M  V30 5094 H 481.951 -4.21085 -2.85595 0
M  V30 5095 H 481.349 -2.11314 -5.2475 0
M  V30 5096 H 479.906 -2.78704 -5.89209 0
M  V30 5097 N 483.339 0.512053 -1.4905 0
M  V30 5098 C 484.271 1.63121 -1.6101 0
M  V30 5099 C 485.284 1.55145 -0.493352 0
M  V30 5100 O 486.473 1.61278 -0.764955 0
M  V30 5101 C 483.573 3.01863 -1.54052 0
M  V30 5102 C 482.746 3.35138 -2.81072 0
M  V30 5103 C 481.805 4.5324 -2.67319 0
M  V30 5104 O 480.831 4.55571 -3.41238 0
M  V30 5105 N 482.033 5.52495 -1.78127 0
M  V30 5106 H 484.798 1.53292 -2.5753 0
M  V30 5107 H 482.359 0.699706 -1.45999 0
M  V30 5108 H 484.351 3.78774 -1.42521 0
M  V30 5109 H 482.921 3.05675 -0.654345 0
M  V30 5110 H 482.141 2.4723 -3.07036 0
M  V30 5111 H 483.429 3.54162 -3.65304 0
M  V30 5112 H 482.827 5.53403 -1.17308 0
M  V30 5113 H 481.384 6.28553 -1.72525 0
M  V30 5114 N 484.817 1.37938 0.762283 0
M  V30 5115 C 486.063 1.33866 1.52341 0
M  V30 5116 C 486.396 -0.0738961 1.94059 0
M  V30 5117 O 485.671 -1.03326 1.64785 0
M  V30 5118 C 485.954 2.28644 2.78197 0
M  V30 5119 C 485.807 3.78722 2.42672 0
M  V30 5120 C 487.126 2.21702 3.80179 0
M  V30 5121 H 484.245 0.487593 0.55265 0
M  V30 5122 H 486.887 1.68717 0.873767 0
M  V30 5123 H 485.037 1.99055 3.33631 0
M  V30 5124 H 486.709 4.18948 1.93081 0
M  V30 5125 H 484.952 3.96827 1.75244 0
M  V30 5126 H 485.623 4.40486 3.3268 0
M  V30 5127 H 488.099 2.47805 3.34263 0
M  V30 5128 H 486.975 2.90143 4.65949 0
M  V30 5129 H 487.236 1.21301 4.25133 0
M  V30 5130 N 486.295 -0.989507 1.22664 0
M  V30 5131 C 487.542 -1.72953 1.05325 0
M  V30 5132 C 487.87 -1.90104 -0.411168 0
M  V30 5133 O 487.125 -1.44386 -1.32103 0
M  V30 5134 C 487.424 -3.13649 1.71345 0
M  V30 5135 C 487.09 -3.16403 3.21248 0
M  V30 5136 C 485.752 -3.16862 3.62149 0
M  V30 5137 C 488.104 -3.12428 4.17179 0
M  V30 5138 C 485.432 -3.11051 4.97458 0
M  V30 5139 C 487.784 -3.08159 5.52468 0
M  V30 5140 C 486.448 -3.06935 5.92746 0
M  V30 5141 H 485.718 -0.632881 0.385412 0
M  V30 5142 H 488.365 -1.15863 1.52473 0
M  V30 5143 H 486.67 -3.74069 1.16532 0
M  V30 5144 H 488.367 -3.69658 1.55416 0
M  V30 5145 H 484.957 -3.16798 2.88682 0
M  V30 5146 H 489.141 -3.11221 3.86595 0
M  V30 5147 H 484.397 -3.0845 5.27891 0
M  V30 5148 H 488.571 -3.04039 6.26525 0
M  V30 5149 H 486.198 -3.02186 6.97558 0
M  V30 5150 N 487.773 -1.03688 -1.18687 0
M  V30 5151 C 489.021 -0.736572 -1.88199 0
M  V30 5152 C 489.342 0.737665 -1.80509 0
M  V30 5153 O 488.612 1.53204 -1.22088 0
M  V30 5154 H 487.192 -0.269466 -0.696704 0
M  V30 5155 H 489.854 -1.31282 -1.44052 0
M  V30 5156 H 488.95 -1.03802 -2.94332 0
M  V30 5157 N 489.251 1.34841 -0.815825 0
M  V30 5158 C 490.184 2.27504 -0.178062 0
M  V30 5159 C 491.162 1.48542 0.661373 0
M  V30 5160 O 492.346 1.77779 0.626653 0
M  V30 5161 C 489.473 3.30246 0.752002 0
M  V30 5162 C 488.519 4.26499 -0.00899172 0
M  V30 5163 S 489.352 5.18169 -1.35134 0
M  V30 5164 C 490.508 6.24449 -0.42596 0
M  V30 5165 H 490.741 2.81248 -0.963684 0
M  V30 5166 H 488.274 1.41781 -0.611355 0
M  V30 5167 H 490.232 3.89933 1.28308 0
M  V30 5168 H 488.893 2.75363 1.51109 0
M  V30 5169 H 488.086 4.99146 0.697766 0
M  V30 5170 H 487.688 3.7103 -0.470396 0
M  V30 5171 H 489.98 6.76404 0.385234 0
M  V30 5172 H 490.923 6.99156 -1.1219 0
M  V30 5173 H 491.331 5.64497 -0.0175461 0
M  V30 5174 N 490.729 0.570148 1.46925 0
M  V30 5175 C 491.692 -0.159933 2.28641 0
M  V30 5176 C 492.692 -0.830638 1.37685 0
M  V30 5177 O 493.882 -0.684516 1.60187 0
M  V30 5178 C 491.014 -1.2354 3.17727 0
M  V30 5179 H 492.207 0.558035 2.94662 0
M  V30 5180 H 489.76 0.327603 1.52828 0
M  V30 5181 H 490.495 -1.98535 2.56426 0
M  V30 5182 H 490.28 -0.759125 3.84681 0
M  V30 5183 H 491.77 -1.74782 3.79264 0
M  V30 5184 N 492.207 -1.54576 0.307264 0
M  V30 5185 C 493.117 -2.27435 -0.57536 0
M  V30 5186 C 494.133 -1.31183 -1.14311 0
M  V30 5187 O 495.309 -1.64175 -1.16656 0
M  V30 5188 C 492.374 -3.00566 -1.72803 0
M  V30 5189 C 491.435 -4.12369 -1.19373 0
M  V30 5190 C 490.668 -4.82003 -2.29147 0
M  V30 5191 O 490.891 -4.51038 -3.49171 0
M  V30 5192 O 489.825 -5.69271 -1.95485 0
M  V30 5193 H 493.651 -3.03696 0.0158558 0
M  V30 5194 H 491.236 -1.49219 0.0735064 0
M  V30 5195 H 493.118 -3.46416 -2.39946 0
M  V30 5196 H 491.793 -2.27195 -2.30574 0
M  V30 5197 H 490.7 -3.70905 -0.487851 0
M  V30 5198 H 492.033 -4.87736 -0.661376 0
M  V30 5199 N 493.685 -0.035106 -1.57561 0
M  V30 5200 C 494.933 0.64096 -1.91667 0
M  V30 5201 C 495.254 1.72323 -0.912681 0
M  V30 5202 O 494.524 1.95849 0.0449089 0
M  V30 5203 H 493.104 0.239743 -0.707483 0
M  V30 5204 H 495.766 -0.084321 -1.94718 0
M  V30 5205 H 494.862 1.08987 -2.92452 0
M  V30 5206 N 495.163 1.55791 0.238111 0
M  V30 5207 C 496.093 1.94068 1.29846 0
M  V30 5208 C 497.074 0.806726 1.49753 0
M  V30 5209 O 498.259 1.06772 1.62214 0
M  V30 5210 C 495.389 2.24302 2.65153 0
M  V30 5211 C 494.343 3.40032 2.59927 0
M  V30 5212 C 493.669 3.55829 3.99111 0
M  V30 5213 C 494.969 4.75476 2.16148 0
M  V30 5214 H 496.663 2.82887 0.980563 0
M  V30 5215 H 494.209 1.36105 0.470253 0
M  V30 5216 H 496.162 2.4967 3.39475 0
M  V30 5217 H 494.886 1.32318 2.98596 0
M  V30 5218 H 493.545 3.14687 1.88063 0
M  V30 5219 H 493.193 2.6125 4.29834 0
M  V30 5220 H 492.893 4.3366 3.96501 0
M  V30 5221 H 494.417 3.83528 4.7512 0
M  V30 5222 H 495.831 5.00158 2.80205 0
M  V30 5223 H 494.228 5.56472 2.24631 0
M  V30 5224 H 495.298 4.71946 1.11333 0
M  V30 5225 N 496.642 -0.504142 1.49319 0
M  V30 5226 C 497.888 -1.26033 1.58882 0
M  V30 5227 C 498.221 -1.92268 0.273274 0
M  V30 5228 O 497.496 -1.80567 -0.72291 0
M  V30 5229 C 497.779 -2.32976 2.7458 0
M  V30 5230 C 497.632 -1.71263 4.1592 0
M  V30 5231 C 498.951 -3.34561 2.85932 0
M  V30 5232 H 496.07 -0.456863 0.578312 0
M  V30 5233 H 498.712 -0.558965 1.81592 0
M  V30 5234 H 496.862 -2.92796 2.55348 0
M  V30 5235 H 498.534 -1.15294 4.4666 0
M  V30 5236 H 496.777 -1.01686 4.21714 0
M  V30 5237 H 497.448 -2.48816 4.92742 0
M  V30 5238 H 499.924 -2.84727 3.0343 0
M  V30 5239 H 498.8 -4.06754 3.68568 0
M  V30 5240 H 499.061 -3.96695 1.95154 0
M  V30 5241 N 498.12 -1.38341 -0.754957 0
M  V30 5242 C 499.068 -1.35573 -1.89005 0
M  V30 5243 C 500.062 -0.241824 -1.67665 0
M  V30 5244 O 501.268 -0.410785 -1.7525 0
M  V30 5245 H 497.643 -0.422898 -0.621821 0
M  V30 5246 H 499.614 -2.31359 -1.88455 0
M  V30 5247 C 498.363 -1.19631 -3.26471 0
M  V30 5248 H 497.686 -2.04605 -3.43477 0
M  V30 5249 H 499.126 -1.21748 -4.06144 0
M  V30 5250 C 497.585 0.0968705 -3.36761 0
M  V30 5251 O 498.115 1.07439 -3.87066 0
M  V30 5252 N 496.321 0.153242 -2.90196 0
M  V30 5253 H 495.868 -0.642908 -2.49448 0
M  V30 5254 H 495.826 1.01807 -2.9746 0
M  V30 5255 N 499.598 0.982988 -1.23187 0
M  V30 5256 C 500.828 1.75666 -1.08743 0
M  V30 5257 C 501.236 1.85662 0.364195 0
M  V30 5258 O 500.579 1.33317 1.26382 0
M  V30 5259 C 500.641 3.20144 -1.63549 0
M  V30 5260 C 500.305 3.33665 -3.12277 0
M  V30 5261 C 501.302 3.20194 -4.096 0
M  V30 5262 C 498.987 3.58397 -3.51933 0
M  V30 5263 C 500.981 3.31256 -5.44563 0
M  V30 5264 C 498.668 3.69098 -4.87042 0
M  V30 5265 C 499.666 3.55537 -5.83166 0
M  V30 5266 O 499.354 3.65864 -7.1582 0
M  V30 5267 H 499.086 0.558194 -0.381307 0
M  V30 5268 H 501.64 1.24387 -1.63454 0
M  V30 5269 H 499.87 3.72659 -1.03256 0
M  V30 5270 H 501.559 3.79262 -1.4462 0
M  V30 5271 H 502.325 3.00987 -3.80305 0
M  V30 5272 H 498.204 3.68025 -2.77631 0
M  V30 5273 H 501.748 3.20588 -6.19572 0
M  V30 5274 H 497.645 3.87814 -5.16014 0
M  V30 5275 H 498.413 3.82675 -7.23534 0
M  V30 5276 N 501.076 1.04316 1.18135 0
M  V30 5277 C 502.304 0.768117 1.92113 0
M  V30 5278 C 502.719 -0.675057 1.76319 0
M  V30 5279 O 502.076 -1.46038 1.09449 0
M  V30 5280 C 502.127 1.12808 3.43448 0
M  V30 5281 O 501.848 2.5146 3.58747 0
M  V30 5282 C 503.349 0.8779 4.3452 0
M  V30 5283 H 500.569 0.279937 0.609817 0
M  V30 5284 H 503.113 1.39149 1.49859 0
M  V30 5285 H 501.268 0.549623 3.83481 0
M  V30 5286 H 501.682 2.65313 4.52448 0
M  V30 5287 H 503.156 1.17959 5.39249 0
M  V30 5288 H 503.633 -0.187239 4.38801 0
M  V30 5289 H 504.239 1.43977 4.00188 0
M  V30 5290 N 502.554 -1.34406 0.822964 0
M  V30 5291 C 503.97 -1.51275 0.508727 0
M  V30 5292 C 504.17 -1.76776 -0.967083 0
M  V30 5293 O 503.226 -1.81871 -1.75155 0
M  V30 5294 C 504.539 -2.67765 1.36829 0
M  V30 5295 C 506.087 -2.81647 1.36542 0
M  V30 5296 C 506.562 -4.01181 2.20947 0
M  V30 5297 N 508.053 -4.08388 2.18571 0
M  V30 5298 C 508.788 -5.00036 2.80627 0
M  V30 5299 N 508.284 -5.96906 3.51674 0
M  V30 5300 N 510.077 -4.92908 2.70181 0
M  V30 5301 H 502.228 -1.16113 1.77852 0
M  V30 5302 H 504.491 -0.56947 0.757897 0
M  V30 5303 H 504.197 -2.55551 2.41633 0
M  V30 5304 H 504.071 -3.62779 1.03303 0
M  V30 5305 H 506.458 -2.93303 0.325163 0
M  V30 5306 H 506.539 -1.87443 1.74066 0
M  V30 5307 H 506.183 -3.90286 3.25022 0
M  V30 5308 H 506.113 -4.94599 1.80774 0
M  V30 5309 H 508.604 -3.39051 1.66891 0
M  V30 5310 H 508.917 -6.63468 3.96271 0
M  V30 5311 H 507.262 -5.9703 3.5578 0
M  V30 5312 H 510.453 -4.1619 2.14251 0
M  V30 5313 H 510.626 -5.64137 3.18831 0
M  V30 5314 N 504.032 -0.577932 -1.46621 0
M  V30 5315 C 504.962 0.145917 -2.33044 0
M  V30 5316 C 505.943 0.888412 -1.45056 0
M  V30 5317 O 507.128 0.864812 -1.73881 0
M  V30 5318 C 504.258 1.16322 -3.27241 0
M  V30 5319 C 503.212 0.535868 -4.24632 0
M  V30 5320 C 502.538 1.65929 -5.08303 0
M  V30 5321 C 503.838 -0.523861 -5.19666 0
M  V30 5322 H 505.532 -0.575636 -2.93814 0
M  V30 5323 H 503.078 -0.278272 -1.41286 0
M  V30 5324 H 505.031 1.67793 -3.86553 0
M  V30 5325 H 503.755 1.91498 -2.64567 0
M  V30 5326 H 502.414 0.0422759 -3.66576 0
M  V30 5327 H 502.062 2.40061 -4.42018 0
M  V30 5328 H 501.762 1.2452 -5.74255 0
M  V30 5329 H 503.286 2.17686 -5.70478 0
M  V30 5330 H 504.7 -0.0944059 -5.73222 0
M  V30 5331 H 503.097 -0.858 -5.93935 0
M  V30 5332 H 504.167 -1.41197 -4.63887 0
M  V30 5333 N 505.51 1.54411 -0.315457 0
M  V30 5334 C 506.787 1.92562 0.343398 0
M  V30 5335 C 507.167 1.24423 1.70535 0
M  V30 5336 O 506.515 0.385051 2.25232 0
M  V30 5337 C 506.725 3.46168 0.443687 0
M  V30 5338 C 508.073 4.18659 0.707783 0
M  V30 5339 O 509.097 3.52281 0.52693 0
M  V30 5340 O 507.956 5.36198 1.05612 0
M  V30 5341 H 505.05 0.80379 0.194552 0
M  V30 5342 H 507.596 1.65738 -0.364577 0
M  V30 5343 H 506.368 3.8792 -0.513172 0
M  V30 5344 H 505.991 3.79073 1.19956 0
M  V30 5345 N 506.988 0.0434614 1.5754 0
M  V30 5346 C 508.265 -0.671479 1.83713 0
M  V30 5347 C 508.645 -1.89495 0.930315 0
M  V30 5348 O 507.993 -2.28498 -0.0105639 0
M  V30 5349 C 508.203 -1.0361 3.33266 0
M  V30 5350 C 509.551 -1.42167 4.00092 0
M  V30 5351 O 510.575 -1.12866 3.37846 0
M  V30 5352 O 509.434 -1.96817 5.09829 0
M  V30 5353 H 506.528 -0.330726 0.75799 0
M  V30 5354 H 509.074 0.0722373 1.69546 0
M  V30 5355 H 507.846 -0.165938 3.90948 0
M  V30 5356 H 507.469 -1.83751 3.52592 0
M  V30 5357 N 508.466 -1.55915 -0.229846 0
M  V30 5358 C 509.877 -1.68809 -0.797531 0
M  V30 5359 C 510.228 -0.643995 -1.8533 0
M  V30 5360 O 509.353 0.206492 -2.15413 0
M  V30 5361 C 509.948 -3.06043 -1.45338 0
M  V30 5362 C 508.507 -3.20819 -1.96856 0
M  V30 5363 C 507.654 -2.6472 -0.825736 0
M  V30 5364 H 510.605 -1.58699 -0.00533733 0
M  V30 5365 H 510.626 -3.01438 -2.32196 0
M  V30 5366 H 510.138 -3.82012 -0.684743 0
M  V30 5367 H 508.239 -2.49704 -2.76548 0
M  V30 5368 H 508.352 -4.27937 -2.15423 0
M  V30 5369 H 506.716 -2.22985 -1.23084 0
M  V30 5370 H 507.499 -3.43229 -0.0699019 0
M  V30 5371 N 509.944 0.496216 -1.49584 0
M  V30 5372 C 510.854 1.62352 -1.69349 0
M  V30 5373 C 511.87 1.64184 -0.576147 0
M  V30 5374 O 513.046 1.82517 -0.85144 0
M  V30 5375 C 510.111 2.98698 -1.76013 0
M  V30 5376 C 509.172 3.07454 -2.99617 0
M  V30 5377 C 508.405 4.37296 -3.05953 0
M  V30 5378 O 508.628 5.2637 -2.19752 0
M  V30 5379 O 507.562 4.51124 -3.9846 0
M  V30 5380 H 511.388 1.48606 -2.64859 0
M  V30 5381 H 508.973 0.673022 -1.33382 0
M  V30 5382 H 510.855 3.79725 -1.82721 0
M  V30 5383 H 509.53 3.12696 -0.836828 0
M  V30 5384 H 508.437 2.25597 -2.98424 0
M  V30 5385 H 509.77 2.98385 -3.91443 0
M  V30 5386 N 511.423 1.38739 0.74761 0
M  V30 5387 C 512.333 1.38696 1.89211 0
M  V30 5388 C 513.349 0.283303 1.71678 0
M  V30 5389 O 514.525 0.522713 1.94498 0
M  V30 5390 C 511.59 1.21662 3.24653 0
M  V30 5391 C 510.651 2.41886 3.54669 0
M  V30 5392 C 509.884 2.25655 4.83648 0
M  V30 5393 O 510.107 1.25339 5.56459 0
M  V30 5394 O 509.041 3.14372 5.13277 0
M  V30 5395 H 512.867 2.35143 1.92202 0
M  V30 5396 H 510.452 1.19721 0.893708 0
M  V30 5397 H 512.334 1.14246 4.05618 0
M  V30 5398 H 511.009 0.283024 3.2246 0
M  V30 5399 H 509.916 2.54877 2.73841 0
M  V30 5400 H 511.249 3.33895 3.61628 0
M  V30 5401 N 512.901 -0.976442 1.23707 0
M  V30 5402 C 514.15 -1.71254 1.06559 0
M  V30 5403 C 514.463 -1.91528 -0.397024 0
M  V30 5404 O 515.669 -2.62625 -0.688518 0
M  V30 5405 C 514.125 -3.08207 1.8584 0
M  V30 5406 C 513.733 -2.95806 3.36456 0
M  V30 5407 C 515.477 -3.85749 1.77194 0
M  V30 5408 C 513.384 -4.28015 4.08114 0
M  V30 5409 H 512.314 -0.642171 0.395136 0
M  V30 5410 H 514.965 -1.08877 1.4771 0
M  V30 5411 H 513.347 -3.71363 1.37498 0
M  V30 5412 H 514.521 -2.41716 3.92314 0
M  V30 5413 H 512.836 -2.31736 3.45959 0
M  V30 5414 H 515.433 -4.83633 2.28041 0
M  V30 5415 H 515.776 -4.09752 0.735477 0
M  V30 5416 H 516.309 -3.29303 2.23169 0
M  V30 5417 H 513.048 -4.09208 5.12083 0
M  V30 5418 H 512.568 -4.81955 3.57043 0
M  V30 5419 H 514.247 -4.96681 4.14629 0
M  V30 5420 N 514.379 -1.04941 -1.1758 0
M  V30 5421 C 515.628 -0.753124 -1.87112 0
M  V30 5422 C 515.941 0.722507 -1.81767 0
M  V30 5423 O 517.147 1.13265 -2.46746 0
M  V30 5424 C 515.603 -1.29695 -3.35719 0
M  V30 5425 C 515.211 -2.80184 -3.49572 0
M  V30 5426 C 516.955 -1.07759 -4.10595 0
M  V30 5427 C 514.862 -3.2788 -4.92187 0
M  V30 5428 H 513.792 -0.278034 -0.700866 0
M  V30 5429 H 516.443 -1.26637 -1.32798 0
M  V30 5430 H 514.825 -0.711522 -3.89555 0
M  V30 5431 H 515.999 -3.44561 -3.05965 0
M  V30 5432 H 514.314 -3.00632 -2.88113 0
M  V30 5433 H 516.911 -1.40899 -5.15802 0
M  V30 5434 H 517.254 -0.0152302 -4.16297 0
M  V30 5435 H 517.787 -1.62809 -3.62957 0
M  V30 5436 H 514.526 -4.33535 -4.91658 0
M  V30 5437 H 514.046 -2.68245 -5.36475 0
M  V30 5438 H 515.725 -3.22412 -5.60945 0
M  V30 5439 N 515.857 1.33968 -0.830081 0
M  V30 5440 C 517.103 1.98357 -0.422191 0
M  V30 5441 C 517.436 1.65633 1.01387 0
M  V30 5442 O 516.711 0.931648 1.70735 0
M  V30 5443 C 516.994 3.54492 -0.633043 0
M  V30 5444 C 516.847 3.96934 -2.11574 0
M  V30 5445 C 518.166 4.40039 -0.0735584 0
M  V30 5446 H 515.285 0.720544 -0.154871 0
M  V30 5447 H 517.927 1.58749 -1.04397 0
M  V30 5448 H 516.077 3.88361 -0.103775 0
M  V30 5449 H 517.749 3.73363 -2.7092 0
M  V30 5450 H 515.992 3.46984 -2.60354 0
M  V30 5451 H 516.663 5.05651 -2.21406 0
M  V30 5452 H 519.139 4.12764 -0.52585 0
M  V30 5453 H 518.015 5.48327 -0.250841 0
M  V30 5454 H 518.276 4.30124 1.02202 0
M  V30 5455 N 517.335 0.585699 1.46312 0
M  V30 5456 C 518.283 -0.158577 2.32059 0
M  V30 5457 C 519.277 -0.881427 1.44662 0
M  V30 5458 O 520.483 -0.799476 1.61271 0
M  V30 5459 H 516.858 -0.0700066 0.748734 0
M  V30 5460 H 518.829 0.583383 2.92642 0
M  V30 5461 C 517.578 -1.15701 3.27885 0
M  V30 5462 H 516.901 -0.610215 3.95116 0
M  V30 5463 H 518.341 -1.64812 3.90657 0
M  V30 5464 C 516.8 -2.21951 2.53455 0
M  V30 5465 O 517.33 -3.29352 2.29978 0
M  V30 5466 N 515.536 -1.9664 2.13965 0
M  V30 5467 H 515.083 -1.09309 2.33258 0
M  V30 5468 H 515.041 -2.6794 1.64485 0
M  V30 5469 N 518.813 -1.54241 0.323641 0
M  V30 5470 C 520.041 -2.04985 -0.280871 0
M  V30 5471 C 520.456 -1.19978 -1.45777 0
M  V30 5472 O 519.813 -0.230471 -1.81039 0
M  V30 5473 C 519.864 -3.54353 -0.715258 0
M  V30 5474 O 519.585 -4.36132 0.414817 0
M  V30 5475 C 521.086 -4.21189 -1.38257 0
M  V30 5476 H 518.306 -0.66851 -0.0577502 0
M  V30 5477 H 520.85 -1.99029 0.469852 0
M  V30 5478 H 519.005 -3.60596 -1.41596 0
M  V30 5479 H 519.419 -5.2445 0.0725227 0
M  V30 5480 H 520.893 -5.27154 -1.63745 0
M  V30 5481 H 521.37 -3.72307 -2.32989 0
M  V30 5482 H 521.976 -4.19085 -0.724447 0
M  V30 5483 N 520.291 -0.0518155 -1.57515 0
M  V30 5484 C 521.223 0.951542 -2.08515 0
M  V30 5485 C 522.236 1.27436 -1.01311 0
M  V30 5486 O 523.425 1.23504 -1.28876 0
M  V30 5487 C 520.525 2.27291 -2.5138 0
M  V30 5488 C 519.698 2.13191 -3.81927 0
M  V30 5489 C 518.757 3.28458 -4.11098 0
M  V30 5490 O 517.783 3.04334 -4.81009 0
M  V30 5491 N 518.985 4.52954 -3.63061 0
M  V30 5492 H 521.75 0.516242 -2.9522 0
M  V30 5493 H 519.311 0.13441 -1.61341 0
M  V30 5494 H 521.303 3.03272 -2.67971 0
M  V30 5495 H 519.873 2.62386 -1.69919 0
M  V30 5496 H 519.093 1.21798 -3.74912 0
M  V30 5497 H 520.381 2.00999 -4.67415 0
M  V30 5498 H 519.779 4.75444 -3.06545 0
M  V30 5499 H 518.336 5.26026 -3.84889 0
M  V30 5500 N 521.769 1.56035 0.221574 0
M  V30 5501 C 523.017 1.78693 0.944102 0
M  V30 5502 C 523.338 0.620317 1.8487 0
M  V30 5503 O 522.608 -0.362784 1.92512 0
M  V30 5504 H 521.188 0.659082 0.351597 0
M  V30 5505 H 523.85 1.93497 0.233435 0
M  V30 5506 H 522.946 2.70837 1.55093 0
M  V30 5507 N 523.247 -0.488276 1.49845 0
M  V30 5508 C 524.194 -1.58836 1.67451 0
M  V30 5509 C 525.164 -1.57886 0.515857 0
M  V30 5510 O 526.349 -1.75679 0.744403 0
M  V30 5511 C 523.489 -2.96915 1.75885 0
M  V30 5512 C 522.602 -3.07784 3.03138 0
M  V30 5513 C 521.737 -4.36673 3.02473 0
M  V30 5514 C 520.776 -4.41222 4.24252 0
M  V30 5515 N 519.913 -5.61557 4.21424 0
M  V30 5516 H 524.753 -1.43131 2.61376 0
M  V30 5517 H 522.29 -0.696186 1.29583 0
M  V30 5518 H 524.248 -3.76965 1.78755 0
M  V30 5519 H 522.878 -3.11295 0.85414 0
M  V30 5520 H 521.93 -2.20717 3.09819 0
M  V30 5521 H 523.242 -3.07005 3.93128 0
M  V30 5522 H 522.396 -5.25055 3.03977 0
M  V30 5523 H 521.135 -4.40037 2.10283 0
M  V30 5524 H 520.14 -3.5124 4.22978 0
M  V30 5525 H 521.365 -4.39564 5.17649 0
M  V30 5526 H 519.311 -5.65738 3.32078 0
M  V30 5527 H 519.228 -5.62447 5.05163 0
M  V30 5528 H 520.496 -6.52111 4.2705 0
M  V30 5529 N 524.725 -1.39134 -0.740242 0
M  V30 5530 C 526.136 -1.32208 -1.31825 0
M  V30 5531 C 526.487 0.0159919 -1.96193 0
M  V30 5532 O 525.612 0.918111 -1.95958 0
M  V30 5533 C 526.207 -2.39436 -2.39699 0
M  V30 5534 C 524.766 -2.36048 -2.93187 0
M  V30 5535 C 523.913 -2.21599 -1.66701 0
M  V30 5536 H 526.864 -1.49298 -0.538133 0
M  V30 5537 H 526.885 -2.05922 -3.19963 0
M  V30 5538 H 526.397 -3.36811 -1.92821 0
M  V30 5539 H 524.498 -1.42295 -3.44359 0
M  V30 5540 H 524.611 -3.30704 -3.46658 0
M  V30 5541 H 522.975 -1.68681 -1.90837 0
M  V30 5542 H 523.758 -3.20936 -1.21882 0
M  V30 5543 N 526.204 0.969867 -1.24223 0
M  V30 5544 C 527.137 2.06279 -0.975926 0
M  V30 5545 C 528.115 1.62353 0.0895385 0
M  V30 5546 O 529.299 1.88442 -0.0469418 0
M  V30 5547 C 526.426 3.35391 -0.472315 0
M  V30 5548 C 525.472 3.98266 -1.526 0
M  V30 5549 S 526.305 4.36172 -3.10667 0
M  V30 5550 C 527.461 5.68423 -2.62003 0
M  V30 5551 H 527.694 2.28551 -1.90137 0
M  V30 5552 H 525.227 1.10748 -1.07584 0
M  V30 5553 H 527.185 4.10068 -0.188376 0
M  V30 5554 H 525.846 3.1111 0.432378 0
M  V30 5555 H 525.039 4.91307 -1.12399 0
M  V30 5556 H 524.641 3.30009 -1.75983 0
M  V30 5557 H 526.933 6.45842 -2.0468 0
M  V30 5558 H 527.876 6.13478 -3.53625 0
M  V30 5559 H 528.284 5.26928 -2.02502 0
M  V30 5560 N 527.682 1.05563 1.17022 0
M  V30 5561 C 528.907 0.788437 1.91829 0
M  V30 5562 C 529.332 -0.650356 1.76499 0
M  V30 5563 O 528.69 -1.45229 1.08527 0
M  V30 5564 C 528.738 1.1786 3.40795 0
M  V30 5565 O 527.842 0.312965 4.11211 0
M  V30 5566 H 527.183 0.288794 0.597908 0
M  V30 5567 H 529.713 1.40948 1.48307 0
M  V30 5568 H 529.723 1.14697 3.91546 0
M  V30 5569 H 528.398 2.22666 3.51273 0
M  V30 5570 H 526.975 0.405515 3.70689 0
M  V30 5571 N 529.16 -1.33526 0.837174 0
M  V30 5572 C 530.571 -1.80182 0.489017 0
M  V30 5573 C 530.922 -1.69285 -0.991826 0
M  V30 5574 O 530.047 -1.24113 -1.77271 0
M  V30 5575 C 530.642 -3.27149 0.880866 0
M  V30 5576 C 529.201 -3.71828 0.584872 0
M  V30 5577 C 528.348 -2.54974 1.09011 0
M  V30 5578 H 531.299 -1.21071 1.02603 0
M  V30 5579 H 531.32 -3.80024 0.190239 0
M  V30 5580 H 530.832 -3.35048 1.95869 0
M  V30 5581 H 528.933 -3.69457 -0.48295 0
M  V30 5582 H 529.046 -4.65366 1.13892 0
M  V30 5583 H 527.41 -2.4952 0.511047 0
M  V30 5584 H 528.193 -2.65637 2.17467 0
M  V30 5585 N 530.638 -0.59345 -1.46 0
M  V30 5586 C 531.868 -0.0889642 -2.06408 0
M  V30 5587 C 532.276 1.22597 -1.44106 0
M  V30 5588 O 531.619 1.75448 -0.544398 0
M  V30 5589 C 531.681 0.139902 -3.59228 0
M  V30 5590 C 531.345 -1.09107 -4.43784 0
M  V30 5591 C 532.342 -2.00577 -4.79651 0
M  V30 5592 C 530.027 -1.31593 -4.84756 0
M  V30 5593 C 532.021 -3.12873 -5.55328 0
M  V30 5594 C 529.708 -2.44192 -5.60191 0
M  V30 5595 C 530.706 -3.34661 -5.95392 0
M  V30 5596 O 530.394 -4.45302 -6.69299 0
M  V30 5597 H 530.126 -0.0594613 -0.67338 0
M  V30 5598 H 532.68 -0.817 -1.88452 0
M  V30 5599 H 530.91 0.922672 -3.75531 0
M  V30 5600 H 532.599 0.594228 -4.01527 0
M  V30 5601 H 533.365 -1.84425 -4.48567 0
M  V30 5602 H 529.244 -0.620801 -4.56801 0
M  V30 5603 H 532.788 -3.83511 -5.82722 0
M  V30 5604 H 528.685 -2.60303 -5.90688 0
M  V30 5605 H 529.453 -4.43805 -6.87735 0
M  V30 5606 N 532.116 1.54067 -0.331816 0
M  V30 5607 C 533.393 1.92915 0.322955 0
M  V30 5608 C 533.773 1.26225 1.69205 0
M  V30 5609 O 533.121 0.408919 2.24811 0
M  V30 5610 C 533.331 3.46619 0.406946 0
M  V30 5611 C 534.679 4.19386 0.663339 0
M  V30 5612 O 535.703 3.5282 0.489536 0
M  V30 5613 O 534.562 5.37288 0.999193 0
M  V30 5614 H 531.656 0.805808 0.186016 0
M  V30 5615 H 534.202 1.65342 -0.382135 0
M  V30 5616 H 532.974 3.87354 -0.554287 0
M  V30 5617 H 532.597 3.80324 1.15929 0
M  V30 5618 N 533.594 0.0601682 1.57485 0
M  V30 5619 C 534.504 -0.926121 2.15546 0
M  V30 5620 C 535.52 -1.33532 1.11558 0
M  V30 5621 O 536.696 -1.4104 1.4377 0
M  V30 5622 C 533.761 -2.17952 2.69625 0
M  V30 5623 C 532.822 -1.82783 3.88444 0
M  V30 5624 C 532.055 -3.02148 4.39935 0
M  V30 5625 O 532.278 -4.15803 3.90466 0
M  V30 5626 O 531.212 -2.82639 5.31412 0
M  V30 5627 H 535.038 -0.462289 3.00161 0
M  V30 5628 H 532.623 -0.162246 1.48516 0
M  V30 5629 H 534.505 -2.91474 3.04337 0
M  V30 5630 H 533.18 -2.63456 1.88077 0
M  V30 5631 H 532.087 -1.06549 3.58606 0
M  V30 5632 H 533.42 -1.42072 4.7125 0
M  V30 5633 N 535.072 -1.5615 -0.213296 0
M  V30 5634 C 536.005 -1.88115 -1.29182 0
M  V30 5635 C 536.983 -0.739348 -1.44819 0
M  V30 5636 O 538.167 -0.988541 -1.605 0
M  V30 5637 C 535.294 -2.09541 -2.66102 0
M  V30 5638 C 534.34 -3.32236 -2.67436 0
M  V30 5639 S 535.173 -4.87915 -2.20679 0
M  V30 5640 C 536.329 -5.12387 -3.59458 0
M  V30 5641 H 536.562 -2.793 -1.01876 0
M  V30 5642 H 534.095 -1.48692 -0.415934 0
M  V30 5643 H 536.053 -2.22568 -3.44925 0
M  V30 5644 H 534.714 -1.19138 -2.90628 0
M  V30 5645 H 533.907 -3.44297 -3.6807 0
M  V30 5646 H 533.509 -3.18108 -1.96681 0
M  V30 5647 H 535.801 -5.01791 -4.55205 0
M  V30 5648 H 536.744 -6.14236 -3.52306 0
M  V30 5649 H 537.152 -4.40089 -3.53528 0
M  V30 5650 N 536.55 0.480323 -1.50102 0
M  V30 5651 C 537.966 0.813295 -1.37323 0
M  V30 5652 C 538.166 1.97027 -0.422206 0
M  V30 5653 O 537.222 2.5212 0.138563 0
M  V30 5654 C 538.535 1.13404 -2.78496 0
M  V30 5655 C 540.083 1.24104 -2.87345 0
M  V30 5656 C 540.558 1.59497 -4.29331 0
M  V30 5657 N 542.049 1.66507 -4.32238 0
M  V30 5658 C 542.784 1.95378 -5.39087 0
M  V30 5659 N 542.28 2.22333 -6.56155 0
M  V30 5660 N 544.073 1.96803 -5.26522 0
M  V30 5661 H 536.224 -0.282291 -2.10516 0
M  V30 5662 H 538.487 -0.063752 -0.945854 0
M  V30 5663 H 538.193 0.357064 -3.49883 0
M  V30 5664 H 538.067 2.07251 -3.15162 0
M  V30 5665 H 540.454 2.00871 -2.16183 0
M  V30 5666 H 540.535 0.282593 -2.54234 0
M  V30 5667 H 540.179 0.832736 -5.01027 0
M  V30 5668 H 540.109 2.56477 -4.59921 0
M  V30 5669 H 542.6 1.47753 -3.47818 0
M  V30 5670 H 542.913 2.43611 -7.33399 0
M  V30 5671 H 541.258 2.19745 -6.59346 0
M  V30 5672 H 544.449 1.75235 -4.34062 0
M  V30 5673 H 544.622 2.18969 -6.09883 0
M  V30 5674 N 538.028 1.39524 0.732853 0
M  V30 5675 C 539.274 1.37068 1.49467 0
M  V30 5676 C 539.607 -0.0327166 1.94172 0
M  V30 5677 O 538.882 -0.998071 1.66939 0
M  V30 5678 C 539.165 2.34494 2.73285 0
M  V30 5679 C 539.018 3.83784 2.34585 0
M  V30 5680 C 540.337 2.29717 3.75391 0
M  V30 5681 H 537.456 0.499206 0.542183 0
M  V30 5682 H 540.098 1.70532 0.837783 0
M  V30 5683 H 538.248 2.06087 3.29333 0
M  V30 5684 H 539.92 4.22949 1.84151 0
M  V30 5685 H 538.163 4.00455 1.66787 0
M  V30 5686 H 538.834 4.47444 3.23262 0
M  V30 5687 H 541.31 2.54839 3.28932 0
M  V30 5688 H 540.186 2.99962 4.59689 0
M  V30 5689 H 540.447 1.30291 4.22465 0
M  V30 5690 N 539.506 -0.963266 1.24736 0
M  V30 5691 C 540.752 -1.71 1.10139 0
M  V30 5692 C 541.107 -1.89089 -0.35541 0
M  V30 5693 O 540.4 -1.44451 -1.25875 0
M  V30 5694 C 540.594 -3.09944 1.7796 0
M  V30 5695 C 540.423 -3.05408 3.30085 0
M  V30 5696 C 539.193 -3.09643 3.99311 0
M  V30 5697 C 541.391 -2.87241 4.26611 0
M  V30 5698 N 539.373 -2.95174 5.3828 0
M  V30 5699 C 540.744 -2.81114 5.52607 0
M  V30 5700 C 542.799 -2.71856 4.17132 0
M  V30 5701 C 541.502 -2.61174 6.70209 0
M  V30 5702 C 543.528 -2.53284 5.34417 0
M  V30 5703 C 542.89 -2.4787 6.59348 0
M  V30 5704 H 538.989 -0.634078 0.457678 0
M  V30 5705 H 541.573 -1.14169 1.57713 0
M  V30 5706 H 539.744 -3.64958 1.32893 0
M  V30 5707 H 541.476 -3.73348 1.56183 0
M  V30 5708 H 538.231 -3.18498 3.50508 0
M  V30 5709 H 538.655 -2.91168 6.11188 0
M  V30 5710 H 543.297 -2.74821 3.21299 0
M  V30 5711 H 541.015 -2.56952 7.6616 0
M  V30 5712 H 544.601 -2.42317 5.28936 0
M  V30 5713 H 543.481 -2.33685 7.48573 0
M  V30 5714 N 540.985 -1.06182 -1.16461 0
M  V30 5715 C 542.262 -0.691364 -1.82974 0
M  V30 5716 C 542.642 0.827377 -1.9421 0
M  V30 5717 O 541.99 1.73723 -1.48434 0
M  V30 5718 C 542.2 -1.39199 -3.20038 0
M  V30 5719 C 543.548 -1.53647 -3.95825 0
M  V30 5720 O 544.572 -1.35181 -3.29552 0
M  V30 5721 O 543.431 -1.83932 -5.14618 0
M  V30 5722 H 540.525 -0.244605 -0.789998 0
M  V30 5723 H 543.071 -1.16203 -1.23673 0
M  V30 5724 H 541.843 -2.42766 -3.06888 0
M  V30 5725 H 541.466 -0.911335 -3.87015 0
M  V30 5726 N 542.463 1.3308 -0.844243 0
M  V30 5727 C 543.74 1.92178 -0.364261 0
M  V30 5728 C 544.12 1.76961 1.15101 0
M  V30 5729 O 543.468 1.16128 1.9679 0
M  V30 5730 C 543.678 3.393 -0.817106 0
M  V30 5731 C 545.026 4.16444 -0.828236 0
M  V30 5732 O 546.05 3.47975 -0.761062 0
M  V30 5733 O 544.909 5.38685 -0.920926 0
M  V30 5734 H 542.003 0.820411 -0.10419 0
M  V30 5735 H 544.549 1.41918 -0.930453 0
M  V30 5736 H 543.321 3.44272 -1.85991 0
M  V30 5737 H 542.944 3.96947 -0.227785 0
M  V30 5738 N 543.941 0.601185 1.45683 0
M  V30 5739 C 544.891 -0.142686 2.27553 0
M  V30 5740 C 545.875 -0.844598 1.3695 0
M  V30 5741 O 547.067 -0.735644 1.60988 0
M  V30 5742 C 544.196 -1.14364 3.23691 0
M  V30 5743 C 543.282 -0.442894 4.21781 0
M  V30 5744 N 543.673 0.51189 5.03203 0
M  V30 5745 C 541.971 -0.691277 4.4061 0
M  V30 5746 C 542.672 0.92318 5.74328 0
M  V30 5747 N 541.648 0.268308 5.42937 0
M  V30 5748 H 545.45 0.590736 2.87902 0
M  V30 5749 H 542.964 0.424365 1.56757 0
M  V30 5750 H 544.961 -1.6909 3.8107 0
M  V30 5751 H 543.621 -1.87768 2.64902 0
M  V30 5752 H 544.632 0.888329 5.10225 0
M  V30 5753 H 541.309 -1.41049 3.92952 0
M  V30 5754 H 542.699 1.71029 6.49768 0
M  V30 5755 N 545.419 -1.53889 0.339982 0
M  V30 5756 C 546.696 -1.93084 -0.312719 0
M  V30 5757 C 547.076 -1.2712 -1.68534 0
M  V30 5758 O 546.424 -0.420835 -2.24591 0
M  V30 5759 C 546.634 -3.4683 -0.388558 0
M  V30 5760 C 547.982 -4.19732 -0.641088 0
M  V30 5761 O 549.006 -3.53075 -0.470818 0
M  V30 5762 O 547.865 -5.3781 -0.970685 0
M  V30 5763 H 544.959 -0.806784 -0.18174 0
M  V30 5764 H 547.505 -1.65137 0.390898 0
M  V30 5765 H 546.277 -3.87055 0.574821 0
M  V30 5766 H 545.9 -3.80933 -1.1391 0
M  V30 5767 N 546.897 -0.0685191 -1.57451 0
M  V30 5768 C 548.313 0.288101 -1.56978 0
M  V30 5769 C 548.513 1.70262 -1.07765 0
M  V30 5770 O 547.569 2.4135 -0.742054 0
M  V30 5771 C 548.882 0.100745 -3.00531 0
M  V30 5772 C 550.43 0.170531 -3.12535 0
M  V30 5773 C 550.905 0.0114944 -4.57999 0
M  V30 5774 N 552.396 0.0672065 -4.63151 0
M  V30 5775 C 553.131 -0.0314813 -5.73391 0
M  V30 5776 N 552.627 -0.183503 -6.92557 0
M  V30 5777 N 554.42 0.0253489 -5.62094 0
M  V30 5778 H 546.571 -0.993026 -1.87757 0
M  V30 5779 H 548.834 -0.386981 -0.865419 0
M  V30 5780 H 548.54 -0.875197 -3.40636 0
M  V30 5781 H 548.414 0.854457 -3.67395 0
M  V30 5782 H 550.801 1.13696 -2.72318 0
M  V30 5783 H 550.882 -0.614229 -2.48316 0
M  V30 5784 H 550.526 -0.951684 -4.98904 0
M  V30 5785 H 550.456 0.815617 -5.20245 0
M  V30 5786 H 552.947 0.183246 -3.77455 0
M  V30 5787 H 553.26 -0.251041 -7.72392 0
M  V30 5788 H 551.605 -0.218822 -6.94655 0
M  V30 5789 H 554.796 0.142794 -4.67882 0
M  V30 5790 H 554.969 -0.0550166 -6.47977 0
M  V30 5791 N 548.375 1.56261 0.205012 0
M  V30 5792 C 549.652 1.70856 0.952233 0
M  V30 5793 C 550.032 0.620501 2.01775 0
M  V30 5794 O 549.38 -0.370035 2.25484 0
M  V30 5795 C 549.59 3.12807 1.54767 0
M  V30 5796 C 550.938 3.72733 2.0336 0
M  V30 5797 O 551.962 3.15873 1.64629 0
M  V30 5798 O 550.821 4.72501 2.746 0
M  V30 5799 H 547.915 0.696496 0.445895 0
M  V30 5800 H 550.461 1.6857 0.195489 0
M  V30 5801 H 549.233 3.83465 0.779132 0
M  V30 5802 H 548.856 3.1928 2.36951 0
M  V30 5803 N 549.853 -0.472356 1.50355 0
M  V30 5804 C 551.099 -1.22634 1.6152 0
M  V30 5805 C 551.432 -1.91645 0.313995 0
M  V30 5806 O 550.707 -1.82059 -0.684446 0
M  V30 5807 C 550.99 -2.27099 2.7946 0
M  V30 5808 C 550.843 -1.62402 4.19459 0
M  V30 5809 C 552.162 -3.28421 2.92964 0
M  V30 5810 H 549.281 -0.444494 0.587873 0
M  V30 5811 H 551.923 -0.520321 1.82737 0
M  V30 5812 H 550.073 -2.87314 2.61501 0
M  V30 5813 H 551.745 -1.05793 4.49005 0
M  V30 5814 H 549.988 -0.927184 4.23776 0
M  V30 5815 H 550.659 -2.38309 4.97909 0
M  V30 5816 H 553.135 -2.78227 3.09401 0
M  V30 5817 H 552.011 -3.98845 3.77113 0
M  V30 5818 H 552.272 -3.92467 2.03525 0
M  V30 5819 N 551.331 -1.39911 -0.725443 0
M  V30 5820 C 552.278 -1.39393 -1.83952 0
M  V30 5821 C 553.248 -0.252249 -1.64173 0
M  V30 5822 O 554.433 -0.44882 -1.85446 0
M  V30 5823 C 551.573 -1.25262 -3.21564 0
M  V30 5824 C 550.686 -2.49054 -3.52982 0
M  V30 5825 C 549.821 -2.27439 -4.80047 0
M  V30 5826 C 548.86 -3.46857 -5.04338 0
M  V30 5827 N 547.997 -3.24499 -6.22611 0
M  V30 5828 H 552.837 -2.34622 -1.83729 0
M  V30 5829 H 550.374 -1.16537 -0.897636 0
M  V30 5830 H 552.332 -1.15077 -4.01015 0
M  V30 5831 H 550.962 -0.33657 -3.21041 0
M  V30 5832 H 550.014 -2.69805 -2.6816 0
M  V30 5833 H 551.326 -3.37973 -3.66846 0
M  V30 5834 H 550.48 -2.14551 -5.67497 0
M  V30 5835 H 549.219 -1.35929 -4.68374 0
M  V30 5836 H 548.224 -3.60232 -4.15346 0
M  V30 5837 H 549.449 -4.3928 -5.17889 0
M  V30 5838 H 547.395 -2.35663 -6.12208 0
M  V30 5839 H 547.312 -4.06978 -6.37106 0
M  V30 5840 H 548.58 -3.15325 -7.12875 0
M  V30 5841 N 552.809 0.956637 -1.25245 0
M  V30 5842 C 554.22 1.51569 -1.09012 0
M  V30 5843 C 554.571 1.93322 0.334813 0
M  V30 5844 O 553.696 1.78421 1.22454 0
M  V30 5845 C 554.291 2.75444 -1.97271 0
M  V30 5846 C 552.85 3.27669 -1.8523 0
M  V30 5847 C 551.997 2.00517 -1.91542 0
M  V30 5848 H 554.948 0.773746 -1.3856 0
M  V30 5849 H 554.969 3.4919 -1.51151 0
M  V30 5850 H 554.481 2.45024 -3.00973 0
M  V30 5851 H 552.582 3.62914 -0.844045 0
M  V30 5852 H 552.695 3.9582 -2.69932 0
M  V30 5853 H 551.059 2.15727 -1.35404 0
M  V30 5854 H 551.842 1.72448 -2.96844 0
M  V30 5855 N 554.287 1.06798 1.15896 0
M  V30 5856 C 555.535 0.786211 1.8618 0
M  V30 5857 C 555.856 -0.689547 1.82401 0
M  V30 5858 O 555.126 -1.49913 1.26107 0
M  V30 5859 H 553.706 0.287843 0.689315 0
M  V30 5860 H 556.368 1.35055 1.40521 0
M  V30 5861 H 555.464 1.1157 2.91477 0
M  V30 5862 N 555.766 -1.3263 0.851289 0
M  V30 5863 C 556.676 -2.32722 0.296268 0
M  V30 5864 C 557.692 -1.63901 -0.584162 0
M  V30 5865 O 558.868 -1.95465 -0.485334 0
M  V30 5866 C 555.933 -3.42942 -0.509103 0
M  V30 5867 C 554.994 -4.2746 0.397069 0
M  V30 5868 C 554.227 -5.32416 -0.36996 0
M  V30 5869 O 554.45 -5.47491 -1.6003 0
M  V30 5870 O 553.384 -6.01327 0.262493 0
M  V30 5871 H 557.21 -2.82078 1.12543 0
M  V30 5872 H 554.795 -1.36194 0.614135 0
M  V30 5873 H 556.677 -4.1017 -0.96634 0
M  V30 5874 H 555.352 -2.95781 -1.31512 0
M  V30 5875 H 554.259 -3.63053 0.902411 0
M  V30 5876 H 555.592 -4.78136 1.16818 0
M  V30 5877 N 557.244 -0.608902 -1.45362 0
M  V30 5878 C 558.472 -0.111013 -2.06602 0
M  V30 5879 C 558.887 1.20516 -1.45332 0
M  V30 5880 O 558.244 1.73437 -0.567978 0
M  V30 5881 C 558.295 0.033688 -3.61484 0
M  V30 5882 O 558.016 -1.23041 -4.20467 0
M  V30 5883 C 559.517 0.562882 -4.39712 0
M  V30 5884 H 556.737 -0.0694453 -0.667397 0
M  V30 5885 H 559.281 -0.837008 -1.86586 0
M  V30 5886 H 557.436 0.710016 -3.80838 0
M  V30 5887 H 557.85 -1.06094 -5.13658 0
M  V30 5888 H 559.324 0.613213 -5.48583 0
M  V30 5889 H 559.801 1.58543 -4.09586 0
M  V30 5890 H 560.407 -0.0794454 -4.25226 0
M  V30 5891 N 558.722 1.53707 -0.348139 0
M  V30 5892 C 559.97 2.00591 0.246478 0
M  V30 5893 C 560.291 1.23753 1.50699 0
M  V30 5894 O 559.561 0.345964 1.92821 0
M  V30 5895 H 558.141 0.741053 0.0940679 0
M  V30 5896 H 560.803 1.89139 -0.470354 0
M  V30 5897 H 559.899 3.08297 0.485714 0
M  V30 5898 N 560.2 0.0768682 1.57412 0
M  V30 5899 C 561.15 -0.898795 2.09537 0
M  V30 5900 C 562.134 -1.25556 1.0062 0
M  V30 5901 O 563.326 -1.23369 1.26921 0
M  V30 5902 C 560.455 -2.16453 2.66464 0
M  V30 5903 C 559.541 -1.83401 3.82393 0
M  V30 5904 N 559.932 -1.20823 4.91157 0
M  V30 5905 C 558.23 -2.13121 3.91785 0
M  V30 5906 C 558.931 -1.05976 5.71965 0
M  V30 5907 N 557.907 -1.57113 5.204 0
M  V30 5908 H 561.709 -0.410718 2.91016 0
M  V30 5909 H 559.223 -0.126878 1.61904 0
M  V30 5910 H 561.22 -2.87274 3.02125 0
M  V30 5911 H 559.88 -2.65844 1.86433 0
M  V30 5912 H 560.891 -0.877249 5.10416 0
M  V30 5913 H 557.568 -2.64854 3.22736 0
M  V30 5914 H 558.958 -0.571809 6.69462 0
M  V30 5915 N 561.678 -1.56367 -0.196722 0
M  V30 5916 C 562.608 -1.97442 -1.24655 0
M  V30 5917 C 563.589 -0.846147 -1.47561 0
M  V30 5918 O 564.774 -1.11035 -1.59326 0
M  V30 5919 C 561.904 -2.31253 -2.59112 0
M  V30 5920 C 560.858 -3.46804 -2.50821 0
M  V30 5921 C 560.184 -3.66286 -3.89536 0
M  V30 5922 C 561.484 -4.8104 -2.03465 0
M  V30 5923 H 563.178 -2.85388 -0.905216 0
M  V30 5924 H 560.724 -1.37304 -0.434002 0
M  V30 5925 H 562.677 -2.58583 -3.32736 0
M  V30 5926 H 561.401 -1.40188 -2.94983 0
M  V30 5927 H 560.06 -3.19563 -1.79653 0
M  V30 5928 H 559.708 -2.72555 -4.22756 0
M  V30 5929 H 559.408 -4.4402 -3.84864 0
M  V30 5930 H 560.932 -3.9599 -4.64784 0
M  V30 5931 H 562.346 -5.07411 -2.66846 0
M  V30 5932 H 560.743 -5.62232 -2.09798 0
M  V30 5933 H 561.813 -4.74732 -0.98781 0
M  V30 5934 N 563.156 0.464375 -1.50603 0
M  V30 5935 C 564.086 1.56944 -1.72889 0
M  V30 5936 C 565.067 1.59979 -0.577997 0
M  V30 5937 O 566.252 1.76138 -0.817855 0
M  V30 5938 C 563.382 2.95225 -1.8292 0
M  V30 5939 C 562.336 3.07056 -2.98162 0
M  V30 5940 C 561.662 4.47051 -2.93343 0
M  V30 5941 C 562.962 2.83648 -4.38567 0
M  V30 5942 H 564.656 1.38547 -2.65415 0
M  V30 5943 H 562.202 0.665082 -1.27721 0
M  V30 5944 H 564.155 3.72467 -1.97095 0
M  V30 5945 H 562.879 3.14793 -0.870209 0
M  V30 5946 H 561.538 2.32248 -2.83648 0
M  V30 5947 H 561.186 4.63547 -1.95276 0
M  V30 5948 H 560.886 4.55902 -3.70712 0
M  V30 5949 H 562.41 5.26304 -3.09575 0
M  V30 5950 H 563.824 3.50636 -4.53572 0
M  V30 5951 H 562.221 3.03937 -5.17438 0
M  V30 5952 H 563.291 1.79451 -4.50472 0
M  V30 5953 N 564.634 1.40294 0.718013 0
M  V30 5954 C 565.862 1.4175 1.50714 0
M  V30 5955 C 566.277 0.0165366 1.88793 0
M  V30 5956 O 565.634 -0.958942 1.55276 0
M  V30 5957 C 565.685 2.30598 2.784 0
M  V30 5958 O 565.406 3.6524 2.41932 0
M  V30 5959 C 566.907 2.4062 3.72313 0
M  V30 5960 H 564.127 0.483565 0.465194 0
M  V30 5961 H 566.671 1.84316 0.885889 0
M  V30 5962 H 564.826 1.91401 3.36815 0
M  V30 5963 H 565.24 4.12402 3.24076 0
M  V30 5964 H 566.714 3.07001 4.58753 0
M  V30 5965 H 567.191 1.4305 4.15251 0
M  V30 5966 H 567.797 2.80359 3.19811 0
M  V30 5967 N 566.112 -0.949982 1.2575 0
M  V30 5968 C 567.528 -1.22191 1.02672 0
M  V30 5969 C 567.728 -1.99898 -0.253588 0
M  V30 5970 O 566.784 -2.33329 -0.965076 0
M  V30 5971 C 568.097 -1.99175 2.25277 0
M  V30 5972 C 569.645 -2.12201 2.30087 0
M  V30 5973 C 570.12 -2.92586 3.5236 0
M  V30 5974 N 571.611 -3.00163 3.52784 0
M  V30 5975 C 572.346 -3.62766 4.44059 0
M  V30 5976 N 571.842 -4.26943 5.45611 0
M  V30 5977 N 573.635 -3.59953 4.3173 0
M  V30 5978 H 565.786 -0.430258 2.07996 0
M  V30 5979 H 568.049 -0.252844 0.91366 0
M  V30 5980 H 567.755 -1.49479 3.18354 0
M  V30 5981 H 567.629 -2.99868 2.28821 0
M  V30 5982 H 570.016 -2.61093 1.3753 0
M  V30 5983 H 570.097 -1.10799 2.30559 0
M  V30 5984 H 569.741 -2.44383 4.45241 0
M  V30 5985 H 569.671 -3.94224 3.49134 0
M  V30 5986 H 572.162 -2.54529 2.79327 0
M  V30 5987 H 572.475 -4.72583 6.11461 0
M  V30 5988 H 570.82 -4.25557 5.49478 0
M  V30 5989 H 574.011 -3.09003 3.51617 0
M  V30 5990 H 574.184 -4.08455 5.03059 0
M  V30 5991 N 567.59 -1.07411 -1.15328 0
M  V30 5992 C 568.838 -0.796073 -1.85761 0
M  V30 5993 C 569.159 0.679864 -1.82764 0
M  V30 5994 O 568.429 1.49242 -1.269 0
M  V30 5995 H 567.009 -0.291495 -0.687779 0
M  V30 5996 H 569.671 -1.35799 -1.39802 0
M  V30 5997 H 568.767 -1.13114 -2.90881 0
M  V30 5998 N 569.068 1.32177 -0.85831 0
M  V30 5999 C 570.479 1.79381 -0.517621 0
M  V30 6000 C 570.83 1.70841 0.964769 0
M  V30 6001 O 569.955 1.26917 1.75274 0
M  V30 6002 C 570.55 3.25706 -0.932801 0
M  V30 6003 C 569.109 3.70851 -0.643953 0
M  V30 6004 C 568.256 2.53208 -1.13054 0
M  V30 6005 H 571.207 1.19424 -1.04516 0
M  V30 6006 H 571.228 3.79673 -0.250674 0
M  V30 6007 H 570.74 3.31889 -2.01174 0
M  V30 6008 H 568.841 3.70178 0.424112 0
M  V30 6009 H 568.954 4.63495 -1.21281 0
M  V30 6010 H 567.318 2.48676 -0.550679 0
M  V30 6011 H 568.101 2.62143 -2.21666 0
M  V30 6012 N 570.547 0.616602 1.45037 0
M  V30 6013 C 571.777 0.121791 2.06241 0
M  V30 6014 C 572.185 -1.20289 1.46038 0
M  V30 6015 O 571.528 -1.7456 0.572242 0
M  V30 6016 C 571.59 -0.0827345 3.59405 0
M  V30 6017 C 571.254 1.16153 4.41993 0
M  V30 6018 C 572.251 2.08183 4.76399 0
M  V30 6019 C 569.936 1.39288 4.82601 0
M  V30 6020 C 571.93 3.21668 5.5028 0
M  V30 6021 C 569.617 2.53073 5.56235 0
M  V30 6022 C 570.615 3.44091 5.89992 0
M  V30 6023 O 570.303 4.55894 6.6213 0
M  V30 6024 H 570.035 0.0701667 0.672349 0
M  V30 6025 H 572.589 0.846877 1.87129 0
M  V30 6026 H 570.819 -0.862812 3.76952 0
M  V30 6027 H 572.508 -0.530273 4.02421 0
M  V30 6028 H 573.274 1.91538 4.45576 0
M  V30 6029 H 569.153 0.693396 4.55755 0
M  V30 6030 H 572.697 3.92733 5.76547 0
M  V30 6031 H 568.594 2.69667 5.86472 0
M  V30 6032 H 569.362 4.5469 6.80587 0
M  V30 6033 N 572.025 -1.5352 0.356285 0
M  V30 6034 C 573.253 -2.05534 -0.237328 0
M  V30 6035 C 573.668 -1.23043 -1.43199 0
M  V30 6036 O 573.025 -0.268821 -1.80509 0
M  V30 6037 C 573.076 -3.55791 -0.639933 0
M  V30 6038 O 572.797 -4.35154 0.507233 0
M  V30 6039 C 574.298 -4.24027 -1.29292 0
M  V30 6040 H 571.518 -0.669585 -0.0435572 0
M  V30 6041 H 574.062 -1.97988 0.511963 0
M  V30 6042 H 572.217 -3.63518 -1.33915 0
M  V30 6043 H 572.631 -5.24178 0.18375 0
M  V30 6044 H 574.105 -5.30509 -1.52527 0
M  V30 6045 H 574.582 -3.77166 -2.25039 0
M  V30 6046 H 575.188 -4.20527 -0.63539 0
M  V30 6047 N 573.503 -0.0852151 -1.57369 0
M  V30 6048 C 574.752 0.580443 -1.93168 0
M  V30 6049 C 575.065 1.6995 -0.968319 0
M  V30 6050 O 576.271 2.42564 -1.21963 0
M  V30 6051 C 574.727 1.08386 -3.43192 0
M  V30 6052 C 574.335 -0.00491388 -4.48 0
M  V30 6053 C 576.079 1.72281 -3.87968 0
M  V30 6054 C 573.986 0.513299 -5.89168 0
M  V30 6055 H 572.916 0.22059 -0.72101 0
M  V30 6056 H 575.567 -0.159621 -1.82804 0
M  V30 6057 H 573.949 1.8773 -3.48674 0
M  V30 6058 H 575.123 -0.780032 -4.5415 0
M  V30 6059 H 573.438 -0.548453 -4.12772 0
M  V30 6060 H 576.035 2.12108 -4.9083 0
M  V30 6061 H 576.378 2.58811 -3.26071 0
M  V30 6062 H 576.911 0.995359 -3.85146 0
M  V30 6063 H 573.65 -0.315153 -6.54742 0
M  V30 6064 H 573.17 1.25564 -5.8651 0
M  V30 6065 H 574.849 0.985433 -6.39451 0
M  V30 6066 N 574.981 1.5647 0.188427 0
M  V30 6067 C 576.397 1.50204 0.539532 0
M  V30 6068 C 576.597 0.78644 1.85519 0
M  V30 6069 O 575.653 0.339714 2.50204 0
M  V30 6070 C 576.966 2.94893 0.588103 0
M  V30 6071 C 578.514 3.05602 0.67648 0
M  V30 6072 C 578.989 4.51716 0.756101 0
M  V30 6073 N 580.48 4.55894 0.819451 0
M  V30 6074 C 581.215 5.66272 0.90134 0
M  V30 6075 N 580.711 6.86323 0.945118 0
M  V30 6076 N 582.504 5.54201 0.939043 0
M  V30 6077 H 574.655 2.01406 -0.674493 0
M  V30 6078 H 576.918 0.916828 -0.241103 0
M  V30 6079 H 576.624 3.50334 -0.309633 0
M  V30 6080 H 576.498 3.4861 1.44051 0
M  V30 6081 H 578.885 2.50206 1.56465 0
M  V30 6082 H 578.966 2.54999 -0.202262 0
M  V30 6083 H 578.61 5.07739 -0.12774 0
M  V30 6084 H 578.54 5.00058 1.65074 0
M  V30 6085 H 581.031 3.69452 0.794594 0
M  V30 6086 H 581.344 7.66194 1.0083 0
M  V30 6087 H 579.689 6.88968 0.913683 0
M  V30 6088 H 582.88 4.59333 0.901725 0
M  V30 6089 H 583.053 6.40247 0.999402 0
M  V30 6090 N 576.459 -0.456382 1.50847 0
M  V30 6091 C 577.707 -1.20497 1.62249 0
M  V30 6092 C 578.028 -1.92156 0.331839 0
M  V30 6093 O 577.298 -1.84751 -0.651443 0
M  V30 6094 H 575.878 -0.447775 0.597918 0
M  V30 6095 H 578.54 -0.525099 1.87693 0
M  V30 6096 H 577.636 -1.94492 2.44089 0
M  V30 6097 N 577.937 -1.40673 -0.710563 0
M  V30 6098 C 579.167 -1.4234 -1.49742 0
M  V30 6099 C 579.575 -0.022821 -1.89186 0
M  V30 6100 O 578.918 0.964773 -1.56326 0
M  V30 6101 C 578.98 -2.25509 -2.79975 0
M  V30 6102 C 578.644 -3.73862 -2.62824 0
M  V30 6103 C 579.641 -4.66379 -2.29752 0
M  V30 6104 C 577.326 -4.17735 -2.78932 0
M  V30 6105 C 579.32 -6.00756 -2.13006 0
M  V30 6106 C 577.007 -5.5218 -2.61802 0
M  V30 6107 C 578.005 -6.43505 -2.28888 0
M  V30 6108 O 577.693 -7.75472 -2.11894 0
M  V30 6109 H 577.425 -0.487311 -0.468513 0
M  V30 6110 H 579.979 -1.8542 -0.883668 0
M  V30 6111 H 578.209 -1.77218 -3.43701 0
M  V30 6112 H 579.898 -2.19058 -3.41714 0
M  V30 6113 H 580.664 -4.33778 -2.16936 0
M  V30 6114 H 576.543 -3.46967 -3.03537 0
M  V30 6115 H 580.087 -6.72003 -1.87237 0
M  V30 6116 H 575.984 -5.84365 -2.74204 0
M  V30 6117 H 576.752 -7.86458 -2.26775 0
M  V30 6118 N 579.415 0.9433 -1.26252 0
M  V30 6119 C 580.645 1.72117 -1.14277 0
M  V30 6120 C 581.053 1.86726 0.304944 0
M  V30 6121 O 580.396 1.3727 1.22076 0
M  V30 6122 C 580.458 3.14778 -1.73651 0
M  V30 6123 C 580.122 3.23561 -3.22734 0
M  V30 6124 C 581.119 3.07001 -4.19579 0
M  V30 6125 C 578.804 3.47019 -3.63157 0
M  V30 6126 C 580.798 3.13763 -5.54826 0
M  V30 6127 C 578.485 3.53416 -4.98538 0
M  V30 6128 C 579.483 3.36804 -5.94182 0
M  V30 6129 O 579.171 3.42906 -7.27098 0
M  V30 6130 H 578.903 0.545781 -0.398873 0
M  V30 6131 H 581.457 1.19123 -1.67328 0
M  V30 6132 H 579.687 3.69186 -1.1506 0
M  V30 6133 H 581.376 3.74469 -1.56613 0
M  V30 6134 H 582.142 2.88736 -3.89688 0
M  V30 6135 H 578.021 3.59006 -2.89199 0
M  V30 6136 H 581.565 3.00714 -6.29458 0
M  V30 6137 H 577.462 3.71201 -5.28091 0
M  V30 6138 H 578.23 3.59463 -7.35342 0
M  V30 6139 N 580.893 1.08022 1.14757 0
M  V30 6140 C 581.84 0.706657 2.19716 0
M  V30 6141 C 582.81 -0.30525 1.63271 0
M  V30 6142 O 583.995 -0.19015 1.8985 0
M  V30 6143 C 581.135 0.117914 3.44898 0
M  V30 6144 C 580.248 1.18212 4.15512 0
M  V30 6145 C 579.383 0.557659 5.28265 0
M  V30 6146 C 578.422 1.60418 5.90705 0
M  V30 6147 N 577.559 1.0018 6.94916 0
M  V30 6148 H 582.399 1.60603 2.51019 0
M  V30 6149 H 579.936 0.802664 1.23271 0
M  V30 6150 H 581.894 -0.241112 4.16503 0
M  V30 6151 H 580.524 -0.744788 3.1409 0
M  V30 6152 H 579.576 1.65863 3.42335 0
M  V30 6153 H 580.888 1.97533 4.5802 0
M  V30 6154 H 580.042 0.146654 6.06523 0
M  V30 6155 H 578.781 -0.267249 4.86967 0
M  V30 6156 H 577.786 2.02489 5.11154 0
M  V30 6157 H 579.011 2.43149 6.34078 0
M  V30 6158 H 576.957 0.197917 6.55701 0
M  V30 6159 H 576.874 1.73216 7.35889 0
M  V30 6160 H 578.142 0.616523 7.77058 0
M  V30 6161 N 582.371 -1.3172 0.865308 0
M  V30 6162 C 583.334 -2.26918 0.322627 0
M  V30 6163 C 584.334 -1.52031 -0.523751 0
M  V30 6164 O 585.524 -1.70973 -0.333727 0
M  V30 6165 C 582.656 -3.36558 -0.542338 0
M  V30 6166 H 583.849 -2.76432 1.16298 0
M  V30 6167 H 581.402 -1.42573 0.640512 0
M  V30 6168 H 582.137 -2.92329 -1.40407 0
M  V30 6169 H 581.922 -3.92048 0.0636395 0
M  V30 6170 H 583.412 -4.07465 -0.91446 0
M  V30 6171 N 583.85 -0.624285 -1.44708 0
M  V30 6172 C 584.76 0.0861083 -2.34442 0
M  V30 6173 C 585.776 0.84291 -1.5222 0
M  V30 6174 O 586.952 0.796723 -1.84971 0
M  V30 6175 C 584.017 1.05999 -3.30099 0
M  V30 6176 C 583.077 0.303316 -4.28227 0
M  V30 6177 C 582.311 1.23081 -5.19314 0
M  V30 6178 O 582.534 2.46929 -5.14181 0
M  V30 6179 O 581.468 0.71883 -5.97592 0
M  V30 6180 H 585.293 -0.651756 -2.96624 0
M  V30 6181 H 582.879 -0.384493 -1.44368 0
M  V30 6182 H 584.76 1.62046 -3.88997 0
M  V30 6183 H 583.436 1.77859 -2.70459 0
M  V30 6184 H 582.343 -0.300033 -3.72895 0
M  V30 6185 H 583.676 -0.375123 -4.90768 0
M  V30 6186 N 585.328 1.53329 -0.364422 0
M  V30 6187 C 586.238 2.29414 0.490552 0
M  V30 6188 C 587.254 1.35335 1.09363 0
M  V30 6189 O 588.43 1.68391 1.10483 0
M  V30 6190 C 585.495 3.06772 1.61529 0
M  V30 6191 C 584.556 4.16516 1.03986 0
M  V30 6192 C 583.789 4.90176 2.111 0
M  V30 6193 O 584.012 4.63687 3.32191 0
M  V30 6194 O 582.946 5.76134 1.74222 0
M  V30 6195 H 586.772 3.03428 -0.12856 0
M  V30 6196 H 584.357 1.48843 -0.128837 0
M  V30 6197 H 586.239 3.55082 2.26924 0
M  V30 6198 H 584.914 2.35596 2.21983 0
M  V30 6199 H 583.821 3.7246 0.349856 0
M  V30 6200 H 585.154 4.89855 0.4799 0
M  V30 6201 N 586.806 0.0935595 1.57322 0
M  V30 6202 C 587.756 -0.876521 2.10478 0
M  V30 6203 C 588.74 -1.24482 1.01946 0
M  V30 6204 O 589.932 -1.22016 1.28223 0
M  V30 6205 C 587.061 -2.13615 2.68745 0
M  V30 6206 C 586.147 -1.79335 3.84317 0
M  V30 6207 N 586.538 -1.15606 4.92411 0
M  V30 6208 C 584.836 -2.08954 3.94023 0
M  V30 6209 C 585.537 -0.999036 5.73057 0
M  V30 6210 N 584.513 -1.51585 5.22037 0
M  V30 6211 H 588.315 -0.379829 2.91435 0
M  V30 6212 H 585.829 -0.109699 1.62029 0
M  V30 6213 H 587.826 -2.84053 3.05155 0
M  V30 6214 H 586.486 -2.63851 1.89242 0
M  V30 6215 H 587.497 -0.823063 5.11318 0
M  V30 6216 H 584.174 -2.61416 3.25527 0
M  V30 6217 H 585.564 -0.500772 6.70031 0
M  V30 6218 N 588.284 -1.56567 -0.180126 0
M  V30 6219 C 589.232 -1.96632 -1.24251 0
M  V30 6220 C 590.226 -0.853818 -1.46309 0
M  V30 6221 O 591.432 -1.0389 -1.46993 0
M  V30 6222 H 587.807 -0.625476 -0.417473 0
M  V30 6223 H 589.778 -2.85201 -0.877679 0
M  V30 6224 C 588.527 -2.33486 -2.57642 0
M  V30 6225 H 587.85 -3.18626 -2.4149 0
M  V30 6226 H 589.29 -2.65371 -3.30688 0
M  V30 6227 C 587.749 -1.17499 -3.15746 0
M  V30 6228 O 588.279 -0.457956 -3.99081 0
M  V30 6229 N 586.485 -0.94786 -2.74707 0
M  V30 6230 H 586.032 -1.53269 -2.07042 0
M  V30 6231 H 585.99 -0.173626 -3.1392 0
M  V30 6232 N 589.762 0.448376 -1.51087 0
M  V30 6233 C 590.725 1.52588 -1.71025 0
M  V30 6234 C 591.725 1.49958 -0.580442 0
M  V30 6235 O 592.915 1.52176 -0.847833 0
M  V30 6236 C 590.047 2.92163 -1.75652 0
M  V30 6237 H 591.24 1.36218 -2.67179 0
M  V30 6238 H 588.793 0.676313 -1.4091 0
M  V30 6239 H 589.528 3.13951 -0.812724 0
M  V30 6240 H 589.313 2.95478 -2.57751 0
M  V30 6241 H 590.803 3.70349 -1.92953 0
M  V30 6242 N 591.24 1.41047 0.703093 0
M  V30 6243 C 592.203 1.42036 1.79884 0
M  V30 6244 C 593.203 0.312153 1.57741 0
M  V30 6245 O 594.393 0.571672 1.64553 0
M  V30 6246 C 591.525 1.22437 3.18154 0
M  V30 6247 H 592.718 2.39572 1.80403 0
M  V30 6248 H 590.271 1.27079 0.909977 0
M  V30 6249 H 591.006 0.257112 3.23279 0
M  V30 6250 H 590.791 2.02723 3.35627 0
M  V30 6251 H 592.281 1.25946 3.98155 0
M  V30 6252 N 592.718 -0.936591 1.26751 0
M  V30 6253 C 593.943 -1.72288 1.15462 0
M  V30 6254 C 594.368 -1.85915 -0.285887 0
M  V30 6255 O 593.726 -1.35272 -1.20711 0
M  V30 6256 C 593.774 -3.10503 1.83359 0
M  V30 6257 O 592.878 -3.96745 1.1255 0
M  V30 6258 H 592.219 -0.52843 0.402067 0
M  V30 6259 H 594.749 -1.17271 1.67656 0
M  V30 6260 H 594.759 -3.60867 1.90365 0
M  V30 6261 H 593.434 -2.99901 2.88153 0
M  V30 6262 H 592.011 -3.55191 1.13551 0
M  V30 6263 N 594.196 -1.08629 -1.14182 0
M  V30 6264 C 595.443 -0.817345 -1.85272 0
M  V30 6265 C 595.771 0.656917 -1.83071 0
M  V30 6266 O 595.026 1.49897 -1.25815 0
M  V30 6267 C 595.325 -1.28734 -3.3341 0
M  V30 6268 C 594.991 -2.76981 -3.55798 0
M  V30 6269 C 593.653 -3.17469 -3.61617 0
M  V30 6270 C 596.005 -3.72605 -3.64438 0
M  V30 6271 C 593.333 -4.52371 -3.736 0
M  V30 6272 C 595.685 -5.07286 -3.77947 0
M  V30 6273 C 594.349 -5.47376 -3.82016 0
M  V30 6274 H 593.619 -0.299088 -0.677958 0
M  V30 6275 H 596.266 -1.35962 -1.34857 0
M  V30 6276 H 594.571 -0.664702 -3.8612 0
M  V30 6277 H 596.268 -1.05598 -3.86846 0
M  V30 6278 H 592.858 -2.44644 -3.51919 0
M  V30 6279 H 597.042 -3.42443 -3.5923 0
M  V30 6280 H 592.298 -4.82882 -3.75013 0
M  V30 6281 H 596.472 -5.81243 -3.83575 0
M  V30 6282 H 594.099 -6.51906 -3.91054 0
M  V30 6283 N 595.674 1.31259 -0.872281 0
M  V30 6284 C 596.902 2.00795 -0.498907 0
M  V30 6285 C 597.317 1.65464 0.909238 0
M  V30 6286 O 596.674 0.885073 1.59602 0
M  V30 6287 C 596.725 3.55625 -0.649092 0
M  V30 6288 O 596.446 3.89692 -2.00179 0
M  V30 6289 C 597.947 4.42434 -0.277034 0
M  V30 6290 H 595.167 0.642299 -0.194145 0
M  V30 6291 H 597.711 1.67438 -1.17408 0
M  V30 6292 H 595.866 3.87394 -0.0214402 0
M  V30 6293 H 596.28 4.84407 -2.01122 0
M  V30 6294 H 597.754 5.50299 -0.433064 0
M  V30 6295 H 598.231 4.32146 0.783989 0
M  V30 6296 H 598.837 4.16086 -0.880483 0
M  V30 6297 N 597.152 0.631951 1.44375 0
M  V30 6298 C 598.062 -0.073674 2.34484 0
M  V30 6299 C 599.078 -0.834825 1.52665 0
M  V30 6300 O 600.254 -0.786902 1.85391 0
M  V30 6301 C 597.319 -1.04247 3.30656 0
M  V30 6302 C 596.38 -0.280602 4.28382 0
M  V30 6303 C 595.613 -1.20325 5.19959 0
M  V30 6304 O 595.836 -2.44199 5.15484 0
M  V30 6305 O 594.77 -0.687128 5.97965 0
M  V30 6306 H 598.596 0.667477 2.96274 0
M  V30 6307 H 596.181 0.392144 1.44162 0
M  V30 6308 H 598.063 -1.59981 3.89851 0
M  V30 6309 H 596.738 -1.76422 2.71398 0
M  V30 6310 H 595.645 0.319804 3.72731 0
M  V30 6311 H 596.978 0.401144 4.90563 0
M  V30 6312 N 598.631 -1.53133 0.372548 0
M  V30 6313 C 599.908 -1.93704 -0.271693 0
M  V30 6314 C 600.288 -1.30667 -1.65799 0
M  V30 6315 O 599.636 -0.46838 -2.23648 0
M  V30 6316 C 599.846 -3.47576 -0.314903 0
M  V30 6317 C 601.194 -4.20998 -0.551912 0
M  V30 6318 O 602.218 -3.53994 -0.39582 0
M  V30 6319 O 601.077 -5.39748 -0.85639 0
M  V30 6320 H 598.171 -0.810457 -0.164586 0
M  V30 6321 H 600.717 -1.6427 0.425838 0
M  V30 6322 H 599.489 -3.85749 0.656792 0
M  V30 6323 H 599.112 -3.83264 -1.05804 0
M  V30 6324 N 600.109 -0.101901 -1.5727 0
M  V30 6325 C 601.357 0.559091 -1.94213 0
M  V30 6326 C 601.678 1.68297 -0.984948 0
M  V30 6327 O 600.948 1.95863 -0.0381975 0
M  V30 6328 H 599.528 0.20952 -0.717015 0
M  V30 6329 H 602.19 -0.166831 -1.94185 0
M  V30 6330 H 601.286 0.96485 -2.96811 0
M  V30 6331 N 601.587 1.56661 0.17182 0
M  V30 6332 C 602.834 1.81965 0.888529 0
M  V30 6333 C 603.162 0.6789 1.82267 0
M  V30 6334 O 602.417 -0.333875 1.92831 0
M  V30 6335 C 602.716 3.13435 1.71736 0
M  V30 6336 C 602.382 4.41159 0.932184 0
M  V30 6337 C 601.044 4.75851 0.715481 0
M  V30 6338 C 603.396 5.19803 0.381387 0
M  V30 6339 C 600.724 5.86666 -0.063126 0
M  V30 6340 C 603.076 6.31433 -0.384129 0
M  V30 6341 C 601.74 6.64692 -0.611637 0
M  V30 6342 H 601.01 0.665859 0.325136 0
M  V30 6343 H 603.657 1.90884 0.153495 0
M  V30 6344 H 601.962 2.99857 2.52177 0
M  V30 6345 H 603.659 3.30224 2.27493 0
M  V30 6346 H 600.249 4.13947 1.11112 0
M  V30 6347 H 604.433 4.93396 0.536148 0
M  V30 6348 H 599.689 6.10892 -0.249136 0
M  V30 6349 H 603.863 6.91577 -0.818185 0
M  V30 6350 H 601.49 7.50398 -1.21684 0
M  V30 6351 N 603.065 -0.440357 1.51323 0
M  V30 6352 C 604.295 -1.21079 1.67402 0
M  V30 6353 C 604.703 -1.85555 0.369599 0
M  V30 6354 O 604.046 -1.71375 -0.661525 0
M  V30 6355 C 604.108 -2.33839 2.73056 0
M  V30 6356 C 603.772 -1.89755 4.15743 0
M  V30 6357 C 604.769 -1.40268 5.0062 0
M  V30 6358 C 602.454 -1.97539 4.61826 0
M  V30 6359 C 604.448 -0.991474 6.29642 0
M  V30 6360 C 602.135 -1.56029 5.90845 0
M  V30 6361 C 603.133 -1.06915 6.7458 0
M  V30 6362 O 602.821 -0.659933 8.01187 0
M  V30 6363 H 602.553 -0.371133 0.56501 0
M  V30 6364 H 605.107 -0.528409 1.98487 0
M  V30 6365 H 603.337 -3.05345 2.37279 0
M  V30 6366 H 605.026 -2.95713 2.78044 0
M  V30 6367 H 605.792 -1.33652 4.66221 0
M  V30 6368 H 601.671 -2.34713 3.96776 0
M  V30 6369 H 605.215 -0.607425 6.9495 0
M  V30 6370 H 601.112 -1.62315 6.24759 0
M  V30 6371 H 601.88 -0.786052 8.14717 0
M  V30 6372 N 604.543 -1.41418 -0.695603 0
M  V30 6373 C 605.959 -1.23887 -1.00619 0
M  V30 6374 C 606.159 -0.128206 -2.01092 0
M  V30 6375 O 605.215 0.507408 -2.47349 0
M  V30 6376 C 606.528 -2.58816 -1.53083 0
M  V30 6377 C 608.076 -2.65998 -1.64967 0
M  V30 6378 C 608.551 -4.01244 -2.20833 0
M  V30 6379 N 610.042 -4.0309 -2.28194 0
M  V30 6380 C 610.777 -5.04539 -2.72448 0
M  V30 6381 N 610.273 -6.16378 -3.16306 0
M  V30 6382 N 612.066 -4.91901 -2.72011 0
M  V30 6383 H 604.217 -2.12379 -0.0300061 0
M  V30 6384 H 606.48 -0.944958 -0.0758797 0
M  V30 6385 H 606.186 -3.40842 -0.867147 0
M  V30 6386 H 606.06 -2.81299 -2.51298 0
M  V30 6387 H 608.447 -1.84331 -2.30448 0
M  V30 6388 H 608.528 -2.47325 -0.652982 0
M  V30 6389 H 608.172 -4.83359 -1.55968 0
M  V30 6390 H 608.102 -4.17257 -3.21254 0
M  V30 6391 H 610.593 -3.22341 -1.97242 0
M  V30 6392 H 610.906 -6.89658 -3.487 0
M  V30 6393 H 609.251 -6.19914 -3.14215 0
M  V30 6394 H 612.442 -4.03613 -2.37095 0
M  V30 6395 H 612.615 -5.71102 -3.06181 0
M  V30 6396 N 606.021 0.929856 -1.27246 0
M  V30 6397 C 607.249 1.71144 -1.16265 0
M  V30 6398 C 607.664 1.867 0.280786 0
M  V30 6399 O 607.021 1.38249 1.19136 0
M  V30 6400 C 607.072 3.11222 -1.83911 0
M  V30 6401 O 606.793 2.96398 -3.22614 0
M  V30 6402 C 608.294 4.05541 -1.79028 0
M  V30 6403 H 605.514 0.535499 -0.404328 0
M  V30 6404 H 608.058 1.16492 -1.68077 0
M  V30 6405 H 606.213 3.6274 -1.36009 0
M  V30 6406 H 606.627 3.8494 -3.56261 0
M  V30 6407 H 608.101 5.01351 -2.30978 0
M  V30 6408 H 608.578 4.32589 -0.759168 0
M  V30 6409 H 609.184 3.59947 -2.26535 0
M  V30 6410 N 607.499 1.09233 1.13605 0
M  V30 6411 C 608.747 0.825525 1.84471 0
M  V30 6412 C 609.068 -0.650702 1.83823 0
M  V30 6413 O 608.338 -1.47204 1.29259 0
M  V30 6414 H 606.918 0.3024 0.683054 0
M  V30 6415 H 609.58 1.38006 1.37624 0
M  V30 6416 H 608.676 1.17727 2.89045 0
M  V30 6417 N 608.977 -1.30795 0.87923 0
M  V30 6418 C 610.254 -1.91145 0.415086 0
M  V30 6419 C 610.634 -1.7995 -1.10368 0
M  V30 6420 O 609.982 -1.21305 -1.93642 0
M  V30 6421 C 610.192 -3.37014 0.906778 0
M  V30 6422 C 611.54 -4.14101 0.938358 0
M  V30 6423 O 612.564 -3.45834 0.853053 0
M  V30 6424 O 611.423 -5.36054 1.06342 0
M  V30 6425 H 608.517 -0.81736 0.125905 0
M  V30 6426 H 611.063 -1.39401 0.967753 0
M  V30 6427 H 609.835 -3.3922 1.95053 0
M  V30 6428 H 609.458 -3.96204 0.332948 0
M  V30 6429 N 610.455 -0.639598 -1.44038 0
M  V30 6430 C 611.704 -0.144885 -2.01179 0
M  V30 6431 C 612.017 1.24372 -1.50967 0
M  V30 6432 O 613.223 1.83291 -2.00292 0
M  V30 6433 C 611.679 -0.208244 -3.59297 0
M  V30 6434 C 611.287 -1.59869 -4.18504 0
M  V30 6435 C 613.031 0.229568 -4.23879 0
M  V30 6436 C 610.938 -1.61671 -5.68873 0
M  V30 6437 H 609.868 -0.0504005 -0.752314 0
M  V30 6438 H 612.519 -0.799639 -1.65161 0
M  V30 6439 H 610.901 0.513767 -3.92653 0
M  V30 6440 H 612.075 -2.34496 -3.96671 0
M  V30 6441 H 610.39 -1.98131 -3.66242 0
M  V30 6442 H 612.987 0.235758 -5.3418 0
M  V30 6443 H 613.33 1.25848 -3.96822 0
M  V30 6444 H 613.863 -0.440233 -3.95357 0
M  V30 6445 H 610.602 -2.62427 -6.00677 0
M  V30 6446 H 610.122 -0.913489 -5.92803 0
M  V30 6447 H 611.801 -1.35439 -6.32665 0
M  V30 6448 N 611.933 1.52934 -0.380664 0
M  V30 6449 C 613.179 2.01765 0.20458 0
M  V30 6450 C 613.512 1.26696 1.47179 0
M  V30 6451 O 612.787 0.364936 1.91046 0
M  V30 6452 C 613.07 3.56869 0.481269 0
M  V30 6453 C 612.923 4.42617 -0.800629 0
M  V30 6454 C 614.242 4.2121 1.27554 0
M  V30 6455 H 611.361 0.733388 0.0728803 0
M  V30 6456 H 614.003 1.83068 -0.50853 0
M  V30 6457 H 612.153 3.72932 1.08875 0
M  V30 6458 H 613.825 4.38323 -1.43773 0
M  V30 6459 H 612.068 4.09977 -1.4178 0
M  V30 6460 H 612.739 5.49134 -0.561791 0
M  V30 6461 H 615.215 4.09072 0.761514 0
M  V30 6462 H 614.091 5.29732 1.43788 0
M  V30 6463 H 614.352 3.78269 2.28833 0
M  V30 6464 N 613.412 0.11024 1.57214 0
M  V30 6465 C 614.828 -0.24638 1.57687 0
M  V30 6466 C 615.028 -1.67344 1.12241 0
M  V30 6467 O 614.084 -2.39298 0.805783 0
M  V30 6468 C 615.397 -0.0210288 3.00693 0
M  V30 6469 C 616.945 -0.0876077 3.12877 0
M  V30 6470 C 617.42 0.10994 4.57868 0
M  V30 6471 N 618.911 0.0556135 4.63167 0
M  V30 6472 C 619.646 0.183495 5.73106 0
M  V30 6473 N 619.142 0.367058 6.91827 0
M  V30 6474 N 620.935 0.123689 5.61964 0
M  V30 6475 H 613.086 1.04246 1.85058 0
M  V30 6476 H 615.349 0.40979 0.854854 0
M  V30 6477 H 615.055 0.965203 3.38196 0
M  V30 6478 H 614.929 -0.756748 3.69531 0
M  V30 6479 H 617.316 -1.06436 2.75237 0
M  V30 6480 H 617.397 0.67985 2.466 0
M  V30 6481 H 617.041 1.08362 4.96206 0
M  V30 6482 H 616.971 -0.677397 5.22225 0
M  V30 6483 H 619.462 -0.0831062 3.77809 0
M  V30 6484 H 619.775 0.455739 7.71455 0
M  V30 6485 H 618.12 0.40292 6.93831 0
M  V30 6486 H 621.311 -0.0186928 4.68096 0
M  V30 6487 H 621.484 0.226797 6.47603 0
M  V30 6488 N 614.89 -1.56749 -0.16351 0
M  V30 6489 C 615.82 -2.00042 -1.20438 0
M  V30 6490 C 616.801 -0.877256 -1.45733 0
M  V30 6491 O 617.986 -1.1439 -1.56935 0
M  V30 6492 C 615.116 -2.36697 -2.54149 0
M  V30 6493 C 614.07 -3.52046 -2.43408 0
M  V30 6494 C 613.396 -3.74466 -3.81679 0
M  V30 6495 C 614.696 -4.85247 -1.93216 0
M  V30 6496 H 616.39 -2.87244 -0.844477 0
M  V30 6497 H 613.936 -1.38194 -0.40478 0
M  V30 6498 H 615.889 -2.65582 -3.27176 0
M  V30 6499 H 614.613 -1.46414 -2.91943 0
M  V30 6500 H 613.272 -3.23301 -1.72834 0
M  V30 6501 H 612.92 -2.81461 -4.1688 0
M  V30 6502 H 612.62 -4.52084 -3.75359 0
M  V30 6503 H 614.144 -4.0576 -4.5628 0
M  V30 6504 H 615.558 -5.12957 -2.56023 0
M  V30 6505 H 613.955 -5.66556 -1.97825 0
M  V30 6506 H 615.025 -4.7672 -0.88689 0
M  V30 6507 N 616.368 0.432326 -1.51554 0
M  V30 6508 C 617.596 1.20364 -1.68286 0
M  V30 6509 C 618.011 1.84888 -0.38233 0
M  V30 6510 O 617.368 1.70924 0.639627 0
M  V30 6511 C 617.419 2.28398 -2.80208 0
M  V30 6512 O 617.14 1.66512 -4.05223 0
M  V30 6513 C 618.641 3.18584 -3.08251 0
M  V30 6514 H 615.861 0.36259 -0.564596 0
M  V30 6515 H 618.405 0.511647 -1.97996 0
M  V30 6516 H 616.56 2.93305 -2.53083 0
M  V30 6517 H 616.974 2.37951 -4.67418 0
M  V30 6518 H 618.448 3.90511 -3.90135 0
M  V30 6519 H 618.925 3.79628 -2.2086 0
M  V30 6520 H 619.531 2.59372 -3.37055 0
M  V30 6521 N 617.846 1.41785 0.688094 0
M  V30 6522 C 619.262 1.24419 0.999608 0
M  V30 6523 C 619.462 0.138868 2.01021 0
M  V30 6524 O 618.518 -0.494283 2.47615 0
M  V30 6525 C 619.831 2.59625 1.51709 0
M  V30 6526 C 621.379 2.66869 1.63554 0
M  V30 6527 C 621.854 4.0241 2.18702 0
M  V30 6528 N 623.345 4.04295 2.26053 0
M  V30 6529 C 624.08 5.05977 2.69768 0
M  V30 6530 N 623.576 6.18047 3.13033 0
M  V30 6531 N 625.369 4.93336 2.69398 0
M  V30 6532 H 617.52 2.12392 0.0187427 0
M  V30 6533 H 619.783 0.945347 0.0708673 0
M  V30 6534 H 619.489 3.41297 0.849059 0
M  V30 6535 H 619.363 2.82628 2.49803 0
M  V30 6536 H 621.75 1.8555 2.29467 0
M  V30 6537 H 621.831 2.47668 0.639857 0
M  V30 6538 H 621.475 4.8418 1.53402 0
M  V30 6539 H 621.405 4.18955 3.19037 0
M  V30 6540 H 623.896 3.23383 1.9553 0
M  V30 6541 H 624.209 6.91498 3.45038 0
M  V30 6542 H 622.554 6.21572 3.10923 0
M  V30 6543 H 625.745 4.04865 2.34952 0
M  V30 6544 H 625.918 5.72717 3.03148 0
M  V30 6545 N 619.324 -0.923095 1.27737 0
M  V30 6546 C 620.601 -1.64989 1.05062 0
M  V30 6547 C 620.981 -2.07018 -0.413124 0
M  V30 6548 O 620.329 -1.80797 -1.39731 0
M  V30 6549 C 620.539 -2.84847 2.01652 0
M  V30 6550 C 621.887 -3.56083 2.31279 0
M  V30 6551 O 622.911 -2.94981 1.99662 0
M  V30 6552 O 621.77 -4.66182 2.85196 0
M  V30 6553 H 618.864 -0.723357 0.400853 0
M  V30 6554 H 621.41 -0.973224 1.3902 0
M  V30 6555 H 620.182 -2.50814 3.00347 0
M  V30 6556 H 619.805 -3.60231 1.68284 0
M  V30 6557 N 620.802 -1.09834 -1.13024 0
M  V30 6558 C 622.05 -0.835297 -1.8403 0
M  V30 6559 C 622.371 0.640944 -1.84165 0
M  V30 6560 O 621.641 1.46517 -1.30037 0
M  V30 6561 H 620.221 -0.306018 -0.681441 0
M  V30 6562 H 622.883 -1.38734 -1.36891 0
M  V30 6563 H 621.979 -1.19258 -2.88416 0
M  V30 6564 N 622.28 1.30327 -0.886154 0
M  V30 6565 C 623.51 1.99964 -0.519421 0
M  V30 6566 C 623.918 1.66593 0.89686 0
M  V30 6567 O 623.261 0.899886 1.60149 0
M  V30 6568 C 623.323 3.54187 -0.615795 0
M  V30 6569 C 622.987 4.11078 -1.9966 0
M  V30 6570 C 623.984 4.26985 -2.96614 0
M  V30 6571 C 621.669 4.46429 -2.30231 0
M  V30 6572 C 623.663 4.77456 -4.22273 0
M  V30 6573 C 621.35 4.966 -3.56135 0
M  V30 6574 C 622.348 5.12066 -4.5197 0
M  V30 6575 O 622.036 5.61154 -5.7564 0
M  V30 6576 H 621.768 0.645979 -0.199217 0
M  V30 6577 H 624.322 1.67154 -1.19368 0
M  V30 6578 H 622.552 3.86528 0.115448 0
M  V30 6579 H 624.241 4.05065 -0.26017 0
M  V30 6580 H 625.007 3.99975 -2.74308 0
M  V30 6581 H 620.886 4.33658 -1.56404 0
M  V30 6582 H 624.43 4.89444 -4.97082 0
M  V30 6583 H 620.327 5.23045 -3.78277 0
M  V30 6584 H 621.095 5.79494 -5.78039 0
M  V30 6585 N 623.758 0.647228 1.43697 0
M  V30 6586 C 625.007 0.155552 2.01099 0
M  V30 6587 C 625.32 -1.23569 1.51624 0
M  V30 6588 O 626.526 -1.82226 2.01261 0
M  V30 6589 C 624.982 0.227296 3.59182 0
M  V30 6590 C 624.59 1.62086 4.17651 0
M  V30 6591 C 626.334 -0.207085 4.23995 0
M  V30 6592 C 624.241 1.64685 5.68008 0
M  V30 6593 H 623.171 0.0543895 0.752036 0
M  V30 6594 H 625.822 0.808386 1.64734 0
M  V30 6595 H 624.204 -0.492937 3.9292 0
M  V30 6596 H 625.378 2.36597 3.95422 0
M  V30 6597 H 623.693 2.0007 3.65186 0
M  V30 6598 H 626.29 -0.207426 5.34298 0
M  V30 6599 H 626.633 -1.23742 3.97484 0
M  V30 6600 H 627.166 0.461193 3.95118 0
M  V30 6601 H 623.905 2.65608 5.99277 0
M  V30 6602 H 623.425 0.944914 5.9231 0
M  V30 6603 H 625.104 1.38792 6.31938 0
M  V30 6604 N 625.236 -1.5273 0.388769 0
M  V30 6605 C 626.482 -2.01871 -0.193877 0
M  V30 6606 C 626.815 -1.27475 -1.46505 0
M  V30 6607 O 626.09 -0.375063 -1.90849 0
M  V30 6608 C 626.373 -3.5712 -0.462336 0
M  V30 6609 C 626.226 -4.42186 0.824091 0
M  V30 6610 C 627.545 -4.21881 -1.25319 0
M  V30 6611 H 624.664 -0.733764 -0.0689899 0
M  V30 6612 H 627.306 -1.82796 0.518231 0
M  V30 6613 H 625.456 -3.73504 -1.06896 0
M  V30 6614 H 627.128 -4.37554 1.46096 0
M  V30 6615 H 625.371 -4.09219 1.43952 0
M  V30 6616 H 626.042 -5.48828 0.590905 0
M  V30 6617 H 628.518 -4.0947 -0.73981 0
M  V30 6618 H 627.394 -5.30487 -1.40977 0
M  V30 6619 H 627.655 -3.79478 -2.26824 0
M  V30 6620 N 626.714 -0.118576 -1.57153 0
M  V30 6621 C 627.96 0.540326 -1.95469 0
M  V30 6622 C 628.293 1.66356 -1.00196 0
M  V30 6623 O 627.568 1.94461 -0.039104 0
M  V30 6624 C 627.851 1.07342 -3.43729 0
M  V30 6625 C 627.704 -0.0463732 -4.49776 0
M  V30 6626 C 629.023 1.96442 -3.93826 0
M  V30 6627 H 626.142 0.19494 -0.710751 0
M  V30 6628 H 628.784 -0.19405 -1.89006 0
M  V30 6629 H 626.934 1.69925 -3.49368 0
M  V30 6630 H 628.606 -0.681648 -4.56236 0
M  V30 6631 H 626.849 -0.709574 -4.27957 0
M  V30 6632 H 627.52 0.367856 -5.50773 0
M  V30 6633 H 629.996 1.43731 -3.90488 0
M  V30 6634 H 628.872 2.3066 -4.98084 0
M  V30 6635 H 629.133 2.89077 -3.34495 0
M  V30 6636 N 628.193 1.56834 0.155195 0
M  V30 6637 C 629.103 2.009 1.21146 0
M  V30 6638 C 630.119 0.923029 1.475 0
M  V30 6639 O 631.295 1.23189 1.59331 0
M  V30 6640 C 628.36 2.37378 2.52691 0
M  V30 6641 C 627.421 3.59883 2.34057 0
M  V30 6642 C 626.654 3.94612 3.59329 0
M  V30 6643 O 626.877 3.30104 4.65175 0
M  V30 6644 O 625.811 4.87895 3.52479 0
M  V30 6645 H 629.637 2.9105 0.867371 0
M  V30 6646 H 627.222 1.44916 0.363298 0
M  V30 6647 H 629.104 2.61737 3.3026 0
M  V30 6648 H 627.779 1.50385 2.86646 0
M  V30 6649 H 626.686 3.40722 1.54465 0
M  V30 6650 H 628.019 4.47468 2.0502 0
M  V30 6651 N 629.671 -0.424282 1.51781 0
M  V30 6652 C 630.919 -1.17028 1.64769 0
M  V30 6653 C 631.24 -1.91409 0.372523 0
M  V30 6654 O 630.51 -1.86091 -0.612108 0
M  V30 6655 H 629.09 -0.434992 0.607282 0
M  V30 6656 H 631.752 -0.485169 1.88765 0
M  V30 6657 H 630.848 -1.8927 2.4816 0
M  V30 6658 N 631.149 -1.42148 -0.680565 0
M  V30 6659 C 632.565 -1.24947 -0.992995 0
M  V30 6660 C 632.765 -0.149527 -2.00944 0
M  V30 6661 O 631.821 0.481145 -2.47873 0
M  V30 6662 C 633.134 -2.60426 -1.5033 0
M  V30 6663 C 634.682 -2.67733 -1.62137 0
M  V30 6664 C 635.157 -4.03564 -2.16565 0
M  V30 6665 N 636.648 -4.05488 -2.23905 0
M  V30 6666 C 637.383 -5.07401 -2.67081 0
M  V30 6667 N 636.879 -6.19698 -3.09751 0
M  V30 6668 N 638.672 -4.94758 -2.66778 0
M  V30 6669 H 630.823 -2.12399 -0.0074788 0
M  V30 6670 H 633.086 -0.94571 -0.0658529 0
M  V30 6671 H 632.792 -3.41743 -0.830947 0
M  V30 6672 H 632.666 -2.83949 -2.483 0
M  V30 6673 H 635.053 -1.86765 -2.2848 0
M  V30 6674 H 635.134 -2.48004 -0.626713 0
M  V30 6675 H 634.778 -4.84987 -1.50833 0
M  V30 6676 H 634.708 -4.20641 -3.1681 0
M  V30 6677 H 637.199 -3.24415 -1.93812 0
M  V30 6678 H 637.512 -6.93318 -3.41365 0
M  V30 6679 H 635.857 -6.23212 -3.07623 0
M  V30 6680 H 639.048 -4.06105 -2.32801 0
M  V30 6681 H 639.221 -5.74317 -3.00107 0
M  V30 6682 N 632.627 0.916307 -1.28225 0
M  V30 6683 C 633.59 1.99996 -1.11957 0
M  V30 6684 C 634.59 1.60688 -0.0600152 0
M  V30 6685 O 635.78 1.71499 -0.30558 0
M  V30 6686 C 632.912 3.33458 -0.708411 0
M  V30 6687 H 634.105 2.15858 -2.08196 0
M  V30 6688 H 631.658 1.09863 -1.11175 0
M  V30 6689 H 632.393 3.23297 0.254859 0
M  V30 6690 H 632.178 3.63349 -1.47377 0
M  V30 6691 H 633.668 4.13014 -0.617164 0
M  V30 6692 N 634.105 1.10431 1.1244 0
M  V30 6693 C 635.052 0.753103 2.18167 0
M  V30 6694 C 636.022 -0.270549 1.63882 0
M  V30 6695 O 637.207 -0.149837 1.90211 0
M  V30 6696 C 634.347 0.191046 3.44571 0
M  V30 6697 C 633.46 1.26999 4.12911 0
M  V30 6698 C 632.595 0.669586 5.26963 0
M  V30 6699 C 631.634 1.72912 5.87169 0
M  V30 6700 N 630.771 1.14898 6.92635 0
M  V30 6701 H 635.611 1.65892 2.47556 0
M  V30 6702 H 633.148 0.828631 1.21541 0
M  V30 6703 H 635.106 -0.152712 4.1692 0
M  V30 6704 H 633.736 -0.677997 3.15599 0
M  V30 6705 H 632.788 1.73087 3.3874 0
M  V30 6706 H 634.1 2.07204 4.53727 0
M  V30 6707 H 633.254 0.275274 6.06075 0
M  V30 6708 H 631.993 -0.163895 4.87425 0
M  V30 6709 H 630.998 2.13286 5.06744 0
M  V30 6710 H 632.223 2.56544 6.28778 0
M  V30 6711 H 630.169 0.336956 6.55134 0
M  V30 6712 H 630.086 1.88786 7.32049 0
M  V30 6713 H 631.354 0.78121 7.75576 0
M  V30 6714 N 635.583 -1.29855 0.893053 0
M  V30 6715 C 636.86 -1.90694 0.435336 0
M  V30 6716 C 637.24 -1.8111 -1.08454 0
M  V30 6717 O 636.588 -1.23352 -1.92345 0
M  V30 6718 C 636.798 -3.36033 0.942472 0
M  V30 6719 C 638.146 -4.13083 0.982226 0
M  V30 6720 O 639.17 -3.4491 0.889686 0
M  V30 6721 O 638.029 -5.34896 1.12022 0
M  V30 6722 H 635.123 -0.815978 0.134567 0
M  V30 6723 H 637.669 -1.38367 0.982484 0
M  V30 6724 H 636.441 -3.37132 1.9864 0
M  V30 6725 H 636.064 -3.95828 0.374952 0
M  V30 6726 N 637.061 -0.65484 -1.43351 0
M  V30 6727 C 637.993 0.0744757 -2.29079 0
M  V30 6728 C 639.006 0.7855 -1.42596 0
M  V30 6729 O 640.195 0.642986 -1.66517 0
M  V30 6730 C 637.295 1.12859 -3.19556 0
M  V30 6731 C 636.468 0.495381 -4.34586 0
M  V30 6732 C 635.527 1.44659 -5.05925 0
M  V30 6733 O 634.553 0.954567 -5.61139 0
M  V30 6734 N 635.755 2.78051 -5.09576 0
M  V30 6735 H 638.52 -0.661346 -2.92312 0
M  V30 6736 H 636.081 -0.497744 -1.54059 0
M  V30 6737 H 638.073 1.76577 -3.64147 0
M  V30 6738 H 636.643 1.76636 -2.57912 0
M  V30 6739 H 635.863 -0.32092 -3.92892 0
M  V30 6740 H 637.151 0.0534203 -5.08772 0
M  V30 6741 H 636.549 3.20584 -4.66093 0
M  V30 6742 H 635.106 3.37068 -5.57878 0
M  V30 6743 N 638.539 1.52521 -0.396863 0
M  V30 6744 C 639.788 2.00857 0.184184 0
M  V30 6745 C 640.101 1.28733 1.47265 0
M  V30 6746 O 641.307 1.67821 2.13421 0
M  V30 6747 C 639.763 3.57901 0.378787 0
M  V30 6748 C 639.371 4.38931 -0.896873 0
M  V30 6749 C 641.115 4.14504 0.915789 0
M  V30 6750 C 639.022 5.87591 -0.670133 0
M  V30 6751 H 637.952 0.750496 0.0726055 0
M  V30 6752 H 640.603 1.75965 -0.520425 0
M  V30 6753 H 638.985 3.79072 1.14543 0
M  V30 6754 H 640.159 4.29524 -1.66872 0
M  V30 6755 H 638.474 3.93586 -1.35938 0
M  V30 6756 H 641.071 5.23236 1.10126 0
M  V30 6757 H 641.414 3.71076 1.88701 0
M  V30 6758 H 641.947 3.97253 0.208523 0
M  V30 6759 H 638.686 6.35355 -1.61257 0
M  V30 6760 H 638.206 5.99767 0.0626368 0
M  V30 6761 H 639.885 6.46268 -0.307577 0
M  V30 6762 N 640.017 0.126909 1.57088 0
M  V30 6763 C 640.965 -0.837618 2.16995 0
M  V30 6764 C 641.959 -1.26974 1.12133 0
M  V30 6765 O 643.165 -1.24056 1.30423 0
M  V30 6766 H 639.54 -0.288256 0.694559 0
M  V30 6767 H 641.511 -0.307957 2.96807 0
M  V30 6768 C 640.26 -2.07474 2.79016 0
M  V30 6769 H 639.583 -1.75117 3.59408 0
M  V30 6770 H 641.023 -2.72949 3.24461 0
M  V30 6771 C 639.482 -2.86967 1.76498 0
M  V30 6772 O 640.012 -3.82625 1.22316 0
M  V30 6773 N 638.218 -2.51111 1.46258 0
M  V30 6774 H 637.765 -1.73389 1.90509 0
M  V30 6775 H 637.723 -3.04594 0.779085 0
M  V30 6776 N 641.495 -1.56914 -0.146875 0
M  V30 6777 C 642.911 -1.51582 -0.499518 0
M  V30 6778 C 643.111 -0.83535 -1.83369 0
M  V30 6779 O 642.167 -0.405932 -2.49216 0
M  V30 6780 C 643.48 -2.96349 -0.509711 0
M  V30 6781 C 645.028 -3.07288 -0.595217 0
M  V30 6782 C 645.503 -4.53562 -0.636071 0
M  V30 6783 N 646.994 -4.57906 -0.69829 0
M  V30 6784 C 647.729 -5.68462 -0.750886 0
M  V30 6785 N 647.225 -6.88588 -0.76282 0
M  V30 6786 N 649.018 -5.56496 -0.791777 0
M  V30 6787 H 641.169 -1.99547 0.727656 0
M  V30 6788 H 643.432 -0.910113 0.265327 0
M  V30 6789 H 643.138 -3.4939 0.402409 0
M  V30 6790 H 643.012 -3.52307 -1.34758 0
M  V30 6791 H 645.399 -2.54266 -1.49776 0
M  V30 6792 H 645.48 -2.54373 0.2698 0
M  V30 6793 H 645.124 -5.07222 0.262313 0
M  V30 6794 H 645.054 -5.04259 -1.51758 0
M  V30 6795 H 647.545 -3.71429 -0.696362 0
M  V30 6796 H 647.858 -7.68598 -0.804804 0
M  V30 6797 H 646.203 -6.91148 -0.730694 0
M  V30 6798 H 649.394 -4.61562 -0.779624 0
M  V30 6799 H 649.567 -6.42671 -0.829301 0
M  V30 6800 N 642.974 0.416227 -1.52004 0
M  V30 6801 C 644.222 1.16153 -1.65387 0
M  V30 6802 C 644.543 1.91208 -0.382669 0
M  V30 6803 O 643.813 1.86413 0.602231 0
M  V30 6804 H 642.393 0.431765 -0.60958 0
M  V30 6805 H 645.055 0.475151 -1.89019 0
M  V30 6806 H 644.151 1.87952 -2.4916 0
M  V30 6807 N 644.452 1.42507 0.673017 0
M  V30 6808 C 645.7 1.42789 1.43023 0
M  V30 6809 C 646.021 0.0459738 1.94946 0
M  V30 6810 O 645.291 -0.915765 1.73178 0
M  V30 6811 H 643.871 0.525657 0.530748 0
M  V30 6812 H 646.533 1.77944 0.795113 0
M  V30 6813 H 645.629 2.12872 2.28237 0
M  V30 6814 N 645.93 -0.909495 1.28709 0
M  V30 6815 C 646.84 -2.04558 1.14861 0
M  V30 6816 C 647.856 -1.73842 0.0741621 0
M  V30 6817 O 649.032 -1.99383 0.2843 0
M  V30 6818 C 646.097 -3.36957 0.816148 0
M  V30 6819 C 645.158 -3.81255 1.97341 0
M  V30 6820 C 644.391 -5.07335 1.65671 0
M  V30 6821 O 644.614 -5.67514 0.573053 0
M  V30 6822 O 643.548 -5.47449 2.50167 0
M  V30 6823 H 647.374 -2.19161 2.10243 0
M  V30 6824 H 644.959 -1.03159 1.08068 0
M  V30 6825 H 646.841 -4.16436 0.644873 0
M  V30 6826 H 645.516 -3.2352 -0.107983 0
M  V30 6827 H 644.423 -3.02584 2.19986 0
M  V30 6828 H 645.756 -3.99261 2.87839 0
M  V30 6829 N 647.408 -1.11026 -1.11852 0
M  V30 6830 C 648.355 -0.764662 -2.17765 0
M  V30 6831 C 649.325 0.261854 -1.64023 0
M  V30 6832 O 650.51 0.139748 -1.90288 0
M  V30 6833 C 647.65 -0.209317 -3.44465 0
M  V30 6834 C 646.763 -1.29187 -4.12231 0
M  V30 6835 C 645.898 -0.697523 -5.266 0
M  V30 6836 C 644.937 -1.76023 -5.86244 0
M  V30 6837 N 644.074 -1.18569 -6.92016 0
M  V30 6838 H 648.914 -1.67202 -2.46673 0
M  V30 6839 H 646.451 -0.835065 -1.21099 0
M  V30 6840 H 648.409 0.130599 -4.16996 0
M  V30 6841 H 647.039 0.661251 -3.15955 0
M  V30 6842 H 646.091 -1.74881 -3.37818 0
M  V30 6843 H 647.403 -2.09607 -4.52622 0
M  V30 6844 H 646.557 -0.307412 -6.05921 0
M  V30 6845 H 645.296 0.138044 -4.87505 0
M  V30 6846 H 644.301 -2.1597 -5.05606 0
M  V30 6847 H 645.526 -2.59875 -6.27409 0
M  V30 6848 H 643.472 -0.371695 -6.54946 0
M  V30 6849 H 643.389 -1.92666 -7.31038 0
M  V30 6850 H 644.657 -0.82233 -7.7515 0
M  V30 6851 N 648.886 1.2938 -0.899927 0
M  V30 6852 C 650.132 1.9584 -0.526742 0
M  V30 6853 C 650.465 1.70774 0.924651 0
M  V30 6854 O 649.74 1.02084 1.65557 0
M  V30 6855 C 650.023 3.50638 -0.820062 0
M  V30 6856 C 649.876 3.85161 -2.32317 0
M  V30 6857 C 651.195 4.3903 -0.30671 0
M  V30 6858 H 648.314 0.711322 -0.192848 0
M  V30 6859 H 650.956 1.52992 -1.12665 0
M  V30 6860 H 649.106 3.87265 -0.309491 0
M  V30 6861 H 650.778 3.58477 -2.9033 0
M  V30 6862 H 649.021 3.32696 -2.78381 0
M  V30 6863 H 649.692 4.93204 -2.47898 0
M  V30 6864 H 652.168 4.09396 -0.743908 0
M  V30 6865 H 651.044 5.46226 -0.541144 0
M  V30 6866 H 651.305 4.34937 0.792588 0
M  V30 6867 N 650.364 0.662433 1.43002 0
M  V30 6868 C 651.327 -0.0142016 2.29196 0
M  V30 6869 C 652.327 -0.741394 1.42688 0
M  V30 6870 O 653.517 -0.581257 1.64216 0
M  V30 6871 C 650.649 -1.03084 3.24941 0
M  V30 6872 H 651.842 0.7443 2.90517 0
M  V30 6873 H 649.395 0.424133 1.50435 0
M  V30 6874 H 650.13 -1.81826 2.68533 0
M  V30 6875 H 649.915 -0.512946 3.8873 0
M  V30 6876 H 651.405 -1.50308 3.89612 0
M  V30 6877 N 651.842 -1.52309 0.404946 0
M  V30 6878 C 652.805 -2.25491 -0.410651 0
M  V30 6879 C 653.805 -1.27704 -0.977154 0
M  V30 6880 O 654.995 -1.51679 -0.856691 0
M  V30 6881 C 652.127 -3.02197 -1.57765 0
M  V30 6882 H 653.32 -2.99015 0.230277 0
M  V30 6883 H 650.873 -1.55506 0.157377 0
M  V30 6884 H 651.608 -2.33013 -2.25556 0
M  V30 6885 H 651.393 -3.73987 -1.17797 0
M  V30 6886 H 652.883 -3.57719 -2.15469 0
M  V30 6887 N 653.32 -0.135238 -1.57019 0
M  V30 6888 C 654.23 0.822226 -2.19719 0
M  V30 6889 C 655.246 1.28057 -1.17802 0
M  V30 6890 O 656.422 1.3402 -1.50335 0
M  V30 6891 C 653.487 2.0484 -2.79717 0
M  V30 6892 C 652.548 1.64042 -3.96723 0
M  V30 6893 C 651.781 2.80814 -4.53849 0
M  V30 6894 O 652.004 3.967 -4.0986 0
M  V30 6895 O 650.938 2.56963 -5.44292 0
M  V30 6896 H 654.764 0.318552 -3.02025 0
M  V30 6897 H 652.349 0.0912021 -1.49121 0
M  V30 6898 H 654.231 2.76622 -3.17897 0
M  V30 6899 H 652.906 2.54182 -2.00432 0
M  V30 6900 H 651.813 0.893182 -3.63281 0
M  V30 6901 H 653.146 1.19426 -4.77492 0
M  V30 6902 N 654.798 1.5699 0.138552 0
M  V30 6903 C 655.708 2.02174 1.19008 0
M  V30 6904 C 656.724 0.938622 1.46512 0
M  V30 6905 O 657.9 1.24872 1.58016 0
M  V30 6906 C 654.965 2.40045 2.50159 0
M  V30 6907 C 654.026 3.62346 2.30226 0
M  V30 6908 C 653.259 3.98401 3.55123 0
M  V30 6909 O 653.482 3.35019 4.61647 0
M  V30 6910 O 652.416 4.91606 3.47285 0
M  V30 6911 H 656.242 2.91954 0.836452 0
M  V30 6912 H 653.827 1.45293 0.347907 0
M  V30 6913 H 655.709 2.65225 3.27465 0
M  V30 6914 H 654.384 1.53417 2.85035 0
M  V30 6915 H 653.291 3.42341 1.50843 0
M  V30 6916 H 654.624 4.49617 2.00262 0
M  V30 6917 N 656.276 -0.40816 1.52223 0
M  V30 6918 C 657.522 -1.15673 1.66576 0
M  V30 6919 C 657.855 -1.90141 0.394996 0
M  V30 6920 O 657.13 -1.84798 -0.606613 0
M  V30 6921 C 657.413 -2.15042 2.88841 0
M  V30 6922 C 657.266 -1.44465 4.25969 0
M  V30 6923 C 658.585 -3.15699 3.0663 0
M  V30 6924 H 655.704 -0.41916 0.606196 0
M  V30 6925 H 658.346 -0.442348 1.84779 0
M  V30 6926 H 656.496 -2.75964 2.73452 0
M  V30 6927 H 658.168 -0.866544 4.53088 0
M  V30 6928 H 656.411 -0.746612 4.27327 0
M  V30 6929 H 657.082 -2.16976 5.07568 0
M  V30 6930 H 659.558 -2.64854 3.20923 0
M  V30 6931 H 658.434 -3.82491 3.9369 0
M  V30 6932 H 658.695 -3.83481 2.19987 0
M  V30 6933 N 657.755 -1.42862 -0.66545 0
M  V30 6934 C 658.665 -1.49491 -1.80803 0
M  V30 6935 C 659.681 -0.382914 -1.69734 0
M  V30 6936 O 660.857 -0.635223 -1.9112 0
M  V30 6937 C 657.922 -1.40383 -3.17007 0
M  V30 6938 C 656.983 -2.62152 -3.39963 0
M  V30 6939 C 656.216 -2.53469 -4.69669 0
M  V30 6940 O 656.439 -1.57568 -5.48205 0
M  V30 6941 O 655.373 -3.43763 -4.94075 0
M  V30 6942 H 659.199 -2.45949 -1.78165 0
M  V30 6943 H 656.784 -1.24728 -0.822387 0
M  V30 6944 H 658.666 -1.377 -3.98267 0
M  V30 6945 H 657.341 -0.470546 -3.20262 0
M  V30 6946 H 656.248 -2.70409 -2.58515 0
M  V30 6947 H 657.581 -3.54411 -3.41546 0
M  V30 6948 N 659.233 0.902656 -1.29189 0
M  V30 6949 C 660.181 2.0278 -1.13943 0
M  V30 6950 C 661.175 1.69308 -0.055787 0
M  V30 6951 O 662.381 1.78707 -0.215371 0
M  V30 6952 H 658.756 0.664595 -0.351877 0
M  V30 6953 H 660.727 2.12778 -2.09208 0
M  V30 6954 C 659.476 3.37657 -0.82966 0
M  V30 6955 H 658.799 3.63913 -1.65551 0
M  V30 6956 H 660.239 4.17078 -0.762998 0
M  V30 6957 C 658.698 3.33648 0.466991 0
M  V30 6958 O 659.228 3.72886 1.49395 0
M  V30 6959 N 657.434 2.86745 0.471761 0
M  V30 6960 H 656.981 2.55009 -0.364406 0
M  V30 6961 H 656.939 2.84446 1.33933 0
M  V30 6962 N 660.711 1.11618 1.11262 0
M  V30 6963 C 661.661 0.745274 2.15475 0
M  V30 6964 C 662.645 -0.251585 1.58921 0
M  V30 6965 O 663.837 -0.0584093 1.76904 0
M  V30 6966 C 660.966 0.192128 3.42762 0
M  V30 6967 C 660.052 1.21676 4.0627 0
M  V30 6968 N 660.443 2.41158 4.44608 0
M  V30 6969 C 658.741 1.06013 4.33217 0
M  V30 6970 C 659.442 3.0652 4.94389 0
M  V30 6971 N 658.418 2.33994 4.9066 0
M  V30 6972 H 662.22 1.65462 2.42898 0
M  V30 6973 H 659.734 0.995695 1.28295 0
M  V30 6974 H 661.731 -0.0917339 4.16799 0
M  V30 6975 H 660.391 -0.711778 3.16802 0
M  V30 6976 H 661.402 2.786 4.3658 0
M  V30 6977 H 658.079 0.212809 4.16957 0
M  V30 6978 H 659.469 4.08225 5.33669 0
M  V30 6979 N 662.189 -1.289 0.906776 0
M  V30 6980 C 663.119 -2.29932 0.406659 0
M  V30 6981 C 664.1 -1.6189 -0.522061 0
M  V30 6982 O 665.285 -1.8935 -0.431283 0
M  V30 6983 C 662.415 -3.45425 -0.360366 0
M  V30 6984 C 661.369 -4.25316 0.478574 0
M  V30 6985 C 660.695 -5.33076 -0.416373 0
M  V30 6986 C 661.995 -4.92739 1.7322 0
M  V30 6987 H 663.689 -2.72013 1.25097 0
M  V30 6988 H 661.235 -1.30768 0.602977 0
M  V30 6989 H 663.188 -4.15186 -0.721029 0
M  V30 6990 H 661.912 -3.02206 -1.23852 0
M  V30 6991 H 660.571 -3.57273 0.821662 0
M  V30 6992 H 660.219 -4.86101 -1.29287 0
M  V30 6993 H 659.919 -5.8743 0.141309 0
M  V30 6994 H 661.443 -6.05686 -0.773072 0
M  V30 6995 H 662.857 -5.54898 1.44086 0
M  V30 6996 H 661.254 -5.57057 2.23175 0
M  V30 6997 H 662.324 -4.17625 2.46408 0
M  V30 6998 N 663.667 -0.670007 -1.42649 0
M  V30 6999 C 664.597 -0.00258501 -2.335 0
M  V30 7000 C 665.578 0.794364 -1.50412 0
M  V30 7001 O 666.763 0.75248 -1.79029 0
M  V30 7002 C 663.893 0.952748 -3.33976 0
M  V30 7003 C 662.847 0.264733 -4.2718 0
M  V30 7004 C 662.173 1.33267 -5.17826 0
M  V30 7005 C 663.473 -0.853289 -5.15283 0
M  V30 7006 H 665.167 -0.761326 -2.89559 0
M  V30 7007 H 662.713 -0.367561 -1.3923 0
M  V30 7008 H 664.666 1.4287 -3.96442 0
M  V30 7009 H 663.39 1.74285 -2.7621 0
M  V30 7010 H 662.049 -0.190938 -3.66102 0
M  V30 7011 H 661.697 2.11464 -4.5639 0
M  V30 7012 H 661.397 0.877476 -5.81011 0
M  V30 7013 H 662.921 1.80965 -5.83167 0
M  V30 7014 H 664.335 -0.458763 -5.71462 0
M  V30 7015 H 662.732 -1.23398 -5.87276 0
M  V30 7016 H 663.802 -1.70412 -4.53969 0
M  V30 7017 N 665.145 1.52092 -0.413018 0
M  V30 7018 C 666.108 2.25706 0.398687 0
M  V30 7019 C 667.108 1.28221 0.970368 0
M  V30 7020 O 668.298 1.52131 0.848635 0
M  V30 7021 C 665.43 3.03029 1.5616 0
M  V30 7022 H 666.623 2.98888 -0.246131 0
M  V30 7023 H 664.176 1.5542 -0.165622 0
M  V30 7024 H 664.911 2.34205 2.24317 0
M  V30 7025 H 664.696 3.74606 1.15812 0
M  V30 7026 H 666.186 3.58857 2.13569 0
M  V30 7027 N 666.623 0.143563 1.56945 0
M  V30 7028 C 667.573 -0.809115 2.1316 0
M  V30 7029 C 668.557 -1.21176 1.05855 0
M  V30 7030 O 669.749 -1.17875 1.3204 0
M  V30 7031 C 666.878 -2.04957 2.75405 0
M  V30 7032 C 665.964 -1.67018 3.89828 0
M  V30 7033 N 666.355 -0.998822 4.9584 0
M  V30 7034 C 664.653 -1.96313 4.00471 0
M  V30 7035 C 665.354 -0.816217 5.75945 0
M  V30 7036 N 664.33 -1.349 5.26596 0
M  V30 7037 H 668.132 -0.286919 2.92496 0
M  V30 7038 H 665.646 -0.0580948 1.62296 0
M  V30 7039 H 667.643 -2.74201 3.14037 0
M  V30 7040 H 666.303 -2.57697 1.97541 0
M  V30 7041 H 667.314 -0.659975 5.13678 0
M  V30 7042 H 663.991 -2.50927 3.33679 0
M  V30 7043 H 665.381 -0.287353 6.71285 0
M  V30 7044 N 668.101 -1.57061 -0.130224 0
M  V30 7045 C 669.512 -1.73539 -0.68856 0
M  V30 7046 C 669.863 -0.760554 -1.80859 0
M  V30 7047 O 668.988 0.0690796 -2.1629 0
M  V30 7048 C 669.583 -3.14666 -1.25581 0
M  V30 7049 C 668.142 -3.32689 -1.76055 0
M  V30 7050 C 667.289 -2.69436 -0.655712 0
M  V30 7051 H 670.24 -1.58412 0.0956002 0
M  V30 7052 H 670.261 -3.15595 -2.12556 0
M  V30 7053 H 669.773 -3.85593 -0.440412 0
M  V30 7054 H 667.874 -2.66786 -2.60108 0
M  V30 7055 H 667.987 -4.4077 -1.87772 0
M  V30 7056 H 666.351 -2.30362 -1.08654 0
M  V30 7057 H 667.134 -3.42979 0.14852 0
M  V30 7058 N 669.579 0.400081 -1.52437 0
M  V30 7059 C 670.542 1.4707 -1.75793 0
M  V30 7060 C 671.542 1.48036 -0.627856 0
M  V30 7061 O 672.732 1.49401 -0.895817 0
M  V30 7062 C 669.864 2.86427 -1.84858 0
M  V30 7063 H 671.057 1.27649 -2.71377 0
M  V30 7064 H 668.61 0.631141 -1.42991 0
M  V30 7065 H 669.345 3.11207 -0.912194 0
M  V30 7066 H 669.13 2.87128 -2.6702 0
M  V30 7067 H 670.62 3.64023 -2.04638 0
M  V30 7068 N 671.057 1.43213 0.657864 0
M  V30 7069 C 672.303 1.44798 1.41991 0
M  V30 7070 C 672.636 0.070256 1.94073 0
M  V30 7071 O 671.911 -0.908177 1.71995 0
M  V30 7072 C 672.194 2.4865 2.60471 0
M  V30 7073 C 672.047 3.95679 2.13911 0
M  V30 7074 C 673.366 2.49292 3.62686 0
M  V30 7075 H 670.485 0.527244 0.514959 0
M  V30 7076 H 673.127 1.74733 0.74621 0
M  V30 7077 H 671.277 2.23254 3.17946 0
M  V30 7078 H 672.949 4.32116 1.61472 0
M  V30 7079 H 671.192 4.08733 1.45325 0
M  V30 7080 H 671.863 4.6395 2.99089 0
M  V30 7081 H 674.339 2.71917 3.14961 0
M  V30 7082 H 673.215 3.23907 4.43143 0
M  V30 7083 H 673.476 1.52502 4.14964 0
M  V30 7084 N 672.536 -0.895792 1.29666 0
M  V30 7085 C 673.486 -1.98736 1.1175 0
M  V30 7086 C 674.47 -1.6086 0.0357834 0
M  V30 7087 O 675.662 -1.75111 0.257926 0
M  V30 7088 C 672.791 -3.33845 0.800156 0
M  V30 7089 C 671.877 -3.78068 1.9216 0
M  V30 7090 N 672.268 -3.94489 3.16563 0
M  V30 7091 C 670.566 -4.07376 1.81552 0
M  V30 7092 C 671.267 -4.31819 3.89753 0
M  V30 7093 N 670.243 -4.41081 3.17724 0
M  V30 7094 H 674.045 -2.09507 2.06117 0
M  V30 7095 H 671.559 -1.08488 1.20848 0
M  V30 7096 H 673.556 -4.11757 0.652841 0
M  V30 7097 H 672.216 -3.24417 -0.135551 0
M  V30 7098 H 673.227 -3.79914 3.51974 0
M  V30 7099 H 669.904 -4.06483 0.952787 0
M  V30 7100 H 671.294 -4.52337 4.96831 0
M  V30 7101 N 674.014 -1.12206 -1.10668 0
M  V30 7102 C 675.291 -0.787382 -1.79052 0
M  V30 7103 C 675.671 0.723267 -1.98323 0
M  V30 7104 O 675.019 1.6561 -1.57434 0
M  V30 7105 C 675.229 -1.55968 -3.1221 0
M  V30 7106 C 676.577 -1.74413 -3.87125 0
M  V30 7107 O 677.601 -1.5246 -3.21923 0
M  V30 7108 O 676.46 -2.10952 -5.04144 0
M  V30 7109 H 673.554 -0.286137 -0.775922 0
M  V30 7110 H 676.1 -1.22595 -1.1734 0
M  V30 7111 H 674.872 -2.58692 -2.93588 0
M  V30 7112 H 674.495 -1.1152 -3.8164 0
M  V30 7113 N 675.492 1.28418 -0.913599 0
M  V30 7114 C 676.455 2.25564 -0.406624 0
M  V30 7115 C 677.455 1.5387 0.466965 0
M  V30 7116 O 678.645 1.72094 0.270042 0
M  V30 7117 C 675.777 3.38339 0.417053 0
M  V30 7118 H 676.97 2.71926 -1.26477 0
M  V30 7119 H 674.523 1.40098 -0.692986 0
M  V30 7120 H 675.258 2.97339 1.29461 0
M  V30 7121 H 675.043 3.91542 -0.209102 0
M  V30 7122 H 676.533 4.10578 0.762602 0
M  V30 7123 N 676.97 0.677563 1.42291 0
M  V30 7124 C 677.933 0.0101085 2.29198 0
M  V30 7125 C 678.933 -0.726219 1.43467 0
M  V30 7126 O 680.123 -0.563807 1.64824 0
M  V30 7127 C 677.255 -0.996316 3.26016 0
M  V30 7128 H 678.448 0.775071 2.89711 0
M  V30 7129 H 676.001 0.440065 1.49977 0
M  V30 7130 H 676.736 -1.78967 2.70446 0
M  V30 7131 H 676.521 -0.471687 3.89253 0
M  V30 7132 H 678.011 -1.46167 3.91184 0
M  V30 7133 N 678.448 -1.51871 0.421078 0
M  V30 7134 C 679.381 -2.23851 -0.443369 0
M  V30 7135 C 680.359 -1.25142 -1.03818 0
M  V30 7136 O 681.543 -1.5423 -1.08377 0
M  V30 7137 C 678.67 -2.97637 -1.61648 0
M  V30 7138 C 677.716 -4.10873 -1.14391 0
M  V30 7139 S 678.549 -5.35408 -0.0992403 0
M  V30 7140 C 679.705 -6.12726 -1.27739 0
M  V30 7141 H 679.938 -2.96826 0.167786 0
M  V30 7142 H 677.471 -1.53027 0.205461 0
M  V30 7143 H 679.429 -3.40751 -2.28909 0
M  V30 7144 H 678.09 -2.24282 -2.199 0
M  V30 7145 H 677.283 -4.61718 -2.02069 0
M  V30 7146 H 676.885 -3.69937 -0.549775 0
M  V30 7147 H 679.177 -6.40827 -2.19881 0
M  V30 7148 H 680.12 -7.03461 -0.809239 0
M  V30 7149 H 680.528 -5.43968 -1.5086 0
M  V30 7150 N 679.926 -0.151884 -1.56866 0
M  V30 7151 C 681.172 0.498742 -1.96572 0
M  V30 7152 C 681.505 1.64194 -1.03702 0
M  V30 7153 O 680.78 1.94334 -0.0803432 0
M  V30 7154 C 681.063 1.00027 -3.45929 0
M  V30 7155 C 680.916 -0.141767 -4.49577 0
M  V30 7156 C 682.235 1.88044 -3.97904 0
M  V30 7157 H 679.354 0.17982 -0.714726 0
M  V30 7158 H 681.996 -0.234097 -1.88552 0
M  V30 7159 H 680.146 1.62476 -3.52894 0
M  V30 7160 H 681.818 -0.778269 -4.54687 0
M  V30 7161 H 680.061 -0.80019 -4.26356 0
M  V30 7162 H 680.732 0.250947 -5.51429 0
M  V30 7163 H 683.208 1.35416 -3.93449 0
M  V30 7164 H 682.084 2.20043 -5.02864 0
M  V30 7165 H 682.345 2.81916 -3.40552 0
M  V30 7166 N 681.404 1.57128 0.121893 0
M  V30 7167 C 682.629 1.89254 0.848385 0
M  V30 7168 C 683.054 0.743527 1.72781 0
M  V30 7169 O 682.412 -0.306056 1.78698 0
M  V30 7170 C 682.46 3.20113 1.66012 0
M  V30 7171 O 681.564 3.05815 2.76679 0
M  V30 7172 H 680.905 0.621103 0.234793 0
M  V30 7173 H 683.435 2.0433 0.10516 0
M  V30 7174 H 683.445 3.52761 2.04996 0
M  V30 7175 H 682.12 4.03336 1.01452 0
M  V30 7176 H 680.697 2.84627 2.40918 0
M  V30 7177 N 682.882 -0.391992 1.52647 0
M  V30 7178 C 683.815 -1.50019 1.71958 0
M  V30 7179 C 684.793 -1.5238 0.567365 0
M  V30 7180 O 685.977 -1.70831 0.796806 0
M  V30 7181 C 683.104 -2.88496 1.77447 0
M  V30 7182 C 682.15 -3.03974 2.99169 0
M  V30 7183 S 682.983 -2.75487 4.59203 0
M  V30 7184 C 684.139 -4.16163 4.67503 0
M  V30 7185 H 684.372 -1.33413 2.65685 0
M  V30 7186 H 681.905 -0.584674 1.42902 0
M  V30 7187 H 683.863 -3.68296 1.81296 0
M  V30 7188 H 682.524 -3.02431 0.848188 0
M  V30 7189 H 681.717 -4.05328 2.99542 0
M  V30 7190 H 681.319 -2.32062 2.93297 0
M  V30 7191 H 683.611 -5.10048 4.45934 0
M  V30 7192 H 684.554 -4.20806 5.69498 0
M  V30 7193 H 684.962 -4.01933 3.96371 0
M  V30 7194 N 684.36 -1.4356 -0.65026 0
M  V30 7195 C 685.771 -1.40324 -1.2315 0
M  V30 7196 C 686.122 -0.108812 -1.95898 0
M  V30 7197 O 685.247 0.79163 -2.01401 0
M  V30 7198 C 685.842 -2.54195 -2.23987 0
M  V30 7199 C 684.401 -2.54215 -2.77582 0
M  V30 7200 C 683.548 -2.31752 -1.5227 0
M  V30 7201 H 686.499 -1.52418 -0.442095 0
M  V30 7202 H 686.52 -2.25854 -3.0622 0
M  V30 7203 H 686.032 -3.48392 -1.71011 0
M  V30 7204 H 684.133 -1.63907 -3.34612 0
M  V30 7205 H 684.246 -3.52081 -3.24925 0
M  V30 7206 H 682.61 -1.80476 -1.79723 0
M  V30 7207 H 683.393 -3.28037 -1.01225 0
M  V30 7208 N 685.838 0.888903 -1.30139 0
M  V30 7209 C 687.115 1.62145 -1.094 0
M  V30 7210 C 687.495 2.08041 0.358091 0
M  V30 7211 O 686.843 1.84438 1.34888 0
M  V30 7212 C 687.053 2.794 -2.09133 0
M  V30 7213 C 688.401 3.49826 -2.40638 0
M  V30 7214 O 689.425 2.89583 -2.07412 0
M  V30 7215 O 688.284 4.58457 -2.97455 0
M  V30 7216 H 685.378 0.712475 -0.41989 0
M  V30 7217 H 687.924 0.936023 -1.41551 0
M  V30 7218 H 686.696 2.42762 -3.06891 0
M  V30 7219 H 686.319 3.55643 -1.77776 0
M  V30 7220 N 687.317 1.12792 1.10072 0
M  V30 7221 C 688.249 0.757003 2.16338 0
M  V30 7222 C 689.262 -0.218144 1.61332 0
M  V30 7223 O 690.451 0.0010727 1.785 0
M  V30 7224 C 687.551 0.100303 3.38752 0
M  V30 7225 C 686.724 1.10586 4.2319 0
M  V30 7226 C 685.783 0.47609 5.24042 0
M  V30 7227 O 684.809 1.13418 5.57786 0
M  V30 7228 N 686.011 -0.754823 5.75572 0
M  V30 7229 H 688.776 1.6714 2.48766 0
M  V30 7230 H 686.337 1.02003 1.25726 0
M  V30 7231 H 688.329 -0.333092 4.03327 0
M  V30 7232 H 686.899 -0.716915 3.04268 0
M  V30 7233 H 686.119 1.71677 3.54853 0
M  V30 7234 H 687.407 1.78571 4.76435 0
M  V30 7235 H 686.805 -1.30838 5.50362 0
M  V30 7236 H 685.362 -1.13098 6.41913 0
M  V30 7237 N 688.795 -1.27931 0.920396 0
M  V30 7238 C 690.042 -1.94689 0.557007 0
M  V30 7239 C 690.37 -1.724 -0.900476 0
M  V30 7240 O 689.625 -1.04194 -1.65657 0
M  V30 7241 C 689.924 -3.47853 0.820558 0
M  V30 7242 C 689.59 -3.90252 2.25863 0
M  V30 7243 C 688.252 -4.01539 2.65179 0
M  V30 7244 C 690.604 -4.11853 3.19415 0
M  V30 7245 C 687.932 -4.3181 3.97187 0
M  V30 7246 C 690.284 -4.43606 4.50995 0
M  V30 7247 C 688.948 -4.53105 4.90155 0
M  V30 7248 H 688.218 -0.712416 0.203823 0
M  V30 7249 H 690.865 -1.52142 1.16298 0
M  V30 7250 H 689.17 -3.91578 0.131844 0
M  V30 7251 H 690.867 -3.97634 0.51847 0
M  V30 7252 H 687.457 -3.81999 1.94358 0
M  V30 7253 H 691.641 -4.0258 2.90246 0
M  V30 7254 H 686.897 -4.37371 4.2722 0
M  V30 7255 H 691.071 -4.59268 5.23494 0
M  V30 7256 H 688.698 -4.76315 5.92476 0
M  V30 7257 N 690.273 -0.685099 -1.4193 0
M  V30 7258 C 691.203 -0.0273506 -2.33484 0
M  V30 7259 C 692.184 0.778366 -1.51246 0
M  V30 7260 O 693.369 0.733449 -1.79817 0
M  V30 7261 C 690.499 0.917272 -3.34968 0
M  V30 7262 C 689.453 0.21941 -4.27437 0
M  V30 7263 C 688.779 1.27768 -5.1921 0
M  V30 7264 C 690.079 -0.907894 -5.14349 0
M  V30 7265 H 691.773 -0.791994 -2.88735 0
M  V30 7266 H 689.319 -0.382308 -1.38832 0
M  V30 7267 H 691.272 1.38657 -3.97935 0
M  V30 7268 H 689.996 1.71346 -2.78043 0
M  V30 7269 H 688.655 -0.229757 -3.65879 0
M  V30 7270 H 688.303 2.06612 -4.58607 0
M  V30 7271 H 688.003 0.815803 -5.81909 0
M  V30 7272 H 689.527 1.7477 -5.85054 0
M  V30 7273 H 690.941 -0.519348 -5.70943 0
M  V30 7274 H 689.338 -1.2962 -5.85934 0
M  V30 7275 H 690.408 -1.75218 -4.52136 0
M  V30 7276 N 691.751 1.51645 -0.429126 0
M  V30 7277 C 692.999 2.01616 0.139802 0
M  V30 7278 C 693.32 1.31568 1.43927 0
M  V30 7279 O 692.59 0.447688 1.90716 0
M  V30 7280 H 691.17 0.744998 0.054654 0
M  V30 7281 H 693.832 1.8638 -0.569952 0
M  V30 7282 H 692.928 3.10439 0.321609 0
M  V30 7283 N 693.229 0.160201 1.56784 0
M  V30 7284 C 694.139 -0.787167 2.21 0
M  V30 7285 C 695.155 -1.26167 1.19825 0
M  V30 7286 O 696.331 -1.31611 1.52448 0
M  V30 7287 C 693.396 -2.00364 2.8294 0
M  V30 7288 C 692.457 -1.5771 3.99282 0
M  V30 7289 C 691.69 -2.73558 4.58259 0
M  V30 7290 O 691.913 -3.90129 4.16119 0
M  V30 7291 O 690.847 -2.48271 5.48311 0
M  V30 7292 H 694.673 -0.270462 3.02493 0
M  V30 7293 H 692.258 -0.0674666 1.49248 0
M  V30 7294 H 694.14 -2.71529 3.22257 0
M  V30 7295 H 692.815 -2.50961 2.04451 0
M  V30 7296 H 691.722 -0.835274 3.64656 0
M  V30 7297 H 693.055 -1.11815 4.79331 0
M  V30 7298 N 694.707 -1.5719 -0.113559 0
M  V30 7299 C 696.123 -1.52607 -0.467253 0
M  V30 7300 C 696.323 -0.874058 -1.81556 0
M  V30 7301 O 695.379 -0.458703 -2.48299 0
M  V30 7302 C 696.692 -2.97363 -0.446736 0
M  V30 7303 C 698.24 -3.08482 -0.529903 0
M  V30 7304 C 698.715 -4.54809 -0.539721 0
M  V30 7305 N 700.206 -4.59284 -0.601005 0
M  V30 7306 C 700.941 -5.69927 -0.630138 0
M  V30 7307 N 700.437 -6.90051 -0.616589 0
M  V30 7308 N 702.23 -5.5805 -0.673558 0
M  V30 7309 H 694.381 -1.97958 0.769819 0
M  V30 7310 H 696.644 -0.90428 0.284572 0
M  V30 7311 H 696.35 -3.48458 0.47643 0
M  V30 7312 H 696.224 -3.55086 -1.27254 0
M  V30 7313 H 698.611 -2.57386 -1.44349 0
M  V30 7314 H 698.692 -2.53744 0.323695 0
M  V30 7315 H 698.336 -5.06552 0.369843 0
M  V30 7316 H 698.266 -5.07364 -1.41028 0
M  V30 7317 H 700.757 -3.72822 -0.617419 0
M  V30 7318 H 701.07 -7.70132 -0.641592 0
M  V30 7319 H 699.415 -6.92543 -0.583927 0
M  V30 7320 H 702.606 -4.63112 -0.681544 0
M  V30 7321 H 702.779 -6.44286 -0.692794 0
M  V30 7322 N 696.185 0.383891 -1.52853 0
M  V30 7323 C 697.41 1.154 -1.7233 0
M  V30 7324 C 697.835 1.82809 -0.44298 0
M  V30 7325 O 697.193 1.71026 0.601645 0
M  V30 7326 C 697.241 2.17386 -2.87708 0
M  V30 7327 O 696.345 3.24082 -2.55038 0
M  V30 7328 H 695.686 0.335709 -0.572883 0
M  V30 7329 H 698.216 0.44662 -1.99666 0
M  V30 7330 H 698.226 2.61296 -3.1335 0
M  V30 7331 H 696.901 1.6771 -3.80587 0
M  V30 7332 H 695.478 2.85273 -2.40153 0
M  V30 7333 N 697.663 1.43903 0.642637 0
M  V30 7334 C 698.903 1.47591 1.41408 0
M  V30 7335 C 699.267 0.101313 1.91733 0
M  V30 7336 O 700.468 0.0128797 2.68797 0
M  V30 7337 C 698.739 2.4977 2.55636 0
M  V30 7338 S 700.298 2.72417 3.43998 0
M  V30 7339 H 697.116 0.522163 0.482563 0
M  V30 7340 H 699.718 1.80745 0.745085 0
M  V30 7341 H 698.422 3.48365 2.16956 0
M  V30 7342 H 697.953 2.1815 3.27375 0
M  V30 7343 H 699.968 2.03142 4.52712 0
M  V30 7344 N 699.141 -0.881989 1.30609 0
M  V30 7345 C 700.387 -1.63647 1.19781 0
M  V30 7346 C 700.72 -1.92632 -0.246265 0
M  V30 7347 O 699.995 -1.54938 -1.17577 0
M  V30 7348 C 700.278 -2.97437 2.02985 0
M  V30 7349 C 700.131 -2.75406 3.55628 0
M  V30 7350 C 701.45 -3.98397 1.86997 0
M  V30 7351 H 698.569 -0.593841 0.436488 0
M  V30 7352 H 701.211 -1.02041 1.60273 0
M  V30 7353 H 699.361 -3.50018 1.68581 0
M  V30 7354 H 701.033 -2.2959 4.00107 0
M  V30 7355 H 699.276 -2.09856 3.79662 0
M  V30 7356 H 699.947 -3.70552 4.09139 0
M  V30 7357 H 702.423 -3.54986 2.17081 0
M  V30 7358 H 701.299 -4.89916 2.47536 0
M  V30 7359 H 701.56 -4.3424 0.829943 0
M  V30 7360 N 700.619 -1.13374 -1.09472 0
M  V30 7361 C 701.866 -0.89519 -1.81639 0
M  V30 7362 C 702.194 0.57868 -1.85692 0
M  V30 7363 O 701.449 1.44426 -1.32059 0
M  V30 7364 C 701.748 -1.42759 -3.2765 0
M  V30 7365 C 701.414 -2.91822 -3.43731 0
M  V30 7366 C 700.076 -3.32521 -3.47827 0
M  V30 7367 C 702.428 -3.87727 -3.48307 0
M  V30 7368 C 699.756 -4.6781 -3.54078 0
M  V30 7369 C 702.108 -5.22859 -3.56091 0
M  V30 7370 C 700.772 -5.63086 -3.58456 0
M  V30 7371 H 700.042 -0.327573 -0.664663 0
M  V30 7372 H 702.689 -1.4156 -1.28969 0
M  V30 7373 H 700.994 -0.827871 -3.82954 0
M  V30 7374 H 702.691 -1.2191 -3.8202 0
M  V30 7375 H 699.281 -2.5935 -3.41226 0
M  V30 7376 H 703.465 -3.57371 -3.44383 0
M  V30 7377 H 698.721 -4.98353 -3.54195 0
M  V30 7378 H 702.895 -5.96989 -3.58577 0
M  V30 7379 H 700.522 -6.67905 -3.63052 0
M  V30 7380 N 702.098 1.27442 -0.927168 0
M  V30 7381 C 703.347 1.93679 -0.563146 0
M  V30 7382 C 703.66 1.73673 0.899837 0
M  V30 7383 O 704.866 2.34247 1.37262 0
M  V30 7384 C 703.322 3.46961 -0.95636 0
M  V30 7385 C 702.93 3.75724 -2.43999 0
M  V30 7386 C 704.674 4.19282 -0.663565 0
M  V30 7387 C 702.581 5.22378 -2.77263 0
M  V30 7388 H 701.511 0.725059 -0.206894 0
M  V30 7389 H 704.162 1.44743 -1.12791 0
M  V30 7390 H 702.544 3.94703 -0.320254 0
M  V30 7391 H 703.718 3.38741 -3.12396 0
M  V30 7392 H 702.033 3.16605 -2.70463 0
M  V30 7393 H 704.63 5.27265 -0.888596 0
M  V30 7394 H 704.973 4.14382 0.399198 0
M  V30 7395 H 705.506 3.7736 -1.25875 0
M  V30 7396 H 702.245 5.32367 -3.82446 0
M  V30 7397 H 701.765 5.6051 -2.13516 0
M  V30 7398 H 703.444 5.9025 -2.64979 0
M  V30 7399 N 703.576 0.692616 1.41565 0
M  V30 7400 C 704.825 0.219452 2.00503 0
M  V30 7401 C 705.138 -1.18683 1.55479 0
M  V30 7402 O 706.344 -1.75731 2.06956 0
M  V30 7403 C 704.8 0.341451 3.58277 0
M  V30 7404 C 704.408 1.75291 4.12283 0
M  V30 7405 C 706.152 -0.0720899 4.24439 0
M  V30 7406 C 704.059 1.82673 5.62481 0
M  V30 7407 H 702.989 0.0782874 0.749925 0
M  V30 7408 H 705.64 0.860386 1.62079 0
M  V30 7409 H 704.022 -0.367683 3.94289 0
M  V30 7410 H 705.196 2.49057 3.87695 0
M  V30 7411 H 703.511 2.11587 3.58636 0
M  V30 7412 H 706.108 -0.0373385 5.34687 0
M  V30 7413 H 706.451 -1.11034 4.0122 0
M  V30 7414 H 706.984 0.586663 3.9345 0
M  V30 7415 H 703.723 2.84539 5.90523 0
M  V30 7416 H 703.243 1.13288 5.89004 0
M  V30 7417 H 704.922 1.58827 6.27203 0
M  V30 7418 N 705.054 -1.51416 0.437162 0
M  V30 7419 C 706.465 -1.86682 -0.0260005 0
M  V30 7420 C 706.816 -1.35432 -1.4196 0
M  V30 7421 O 705.941 -0.705055 -2.04592 0
M  V30 7422 C 706.536 -3.38757 -0.0539577 0
M  V30 7423 C 705.095 -3.7356 -0.461532 0
M  V30 7424 C 704.242 -2.75134 0.345924 0
M  V30 7425 H 707.193 -1.44642 0.653013 0
M  V30 7426 H 707.214 -3.70573 -0.863478 0
M  V30 7427 H 706.726 -3.76028 0.96045 0
M  V30 7428 H 704.827 -3.41878 -1.48155 0
M  V30 7429 H 704.94 -4.78737 -0.186451 0
M  V30 7430 H 703.304 -2.53947 -0.195739 0
M  V30 7431 H 704.087 -3.15247 1.35921 0
M  V30 7432 N 706.532 -0.168513 -1.56696 0
M  V30 7433 C 707.948 0.187686 -1.58493 0
M  V30 7434 C 708.148 1.63063 -1.18375 0
M  V30 7435 O 707.204 2.36142 -0.894042 0
M  V30 7436 C 708.517 -0.0905858 -3.00564 0
M  V30 7437 C 710.065 -0.028575 -3.12987 0
M  V30 7438 C 710.54 -0.279799 -4.57145 0
M  V30 7439 N 712.031 -0.227476 -4.62641 0
M  V30 7440 C 712.766 -0.396073 -5.7203 0
M  V30 7441 N 712.262 -0.623572 -6.89988 0
M  V30 7442 N 714.055 -0.332173 -5.61118 0
M  V30 7443 H 706.206 -1.11042 -1.81062 0
M  V30 7444 H 708.469 -0.441235 -0.839056 0
M  V30 7445 H 708.175 -1.09006 -3.34381 0
M  V30 7446 H 708.049 0.619078 -3.72085 0
M  V30 7447 H 710.436 0.961471 -2.78998 0
M  V30 7448 H 710.517 -0.770905 -2.43907 0
M  V30 7449 H 710.161 -1.26704 -4.91842 0
M  V30 7450 H 710.091 0.48311 -5.24379 0
M  V30 7451 H 712.582 -0.0571723 -3.77857 0
M  V30 7452 H 712.895 -0.741745 -7.69232 0
M  V30 7453 H 711.24 -0.660153 -6.91858 0
M  V30 7454 H 714.431 -0.155051 -4.67843 0
M  V30 7455 H 714.604 -0.466994 -6.46315 0
M  V30 7456 N 708.01 1.57248 0.105221 0
M  V30 7457 C 709.287 1.76566 0.841647 0
M  V30 7458 C 709.667 0.747566 1.9742 0
M  V30 7459 O 709.015 -0.225886 2.27381 0
M  V30 7460 C 709.225 3.22016 1.3456 0
M  V30 7461 C 710.573 3.84911 1.79244 0
M  V30 7462 O 711.597 3.25703 1.44207 0
M  V30 7463 O 710.456 4.89008 2.43995 0
M  V30 7464 H 707.55 0.723443 0.400698 0
M  V30 7465 H 710.096 1.69472 0.0878893 0
M  V30 7466 H 708.868 3.87644 0.533685 0
M  V30 7467 H 708.491 3.33703 2.16167 0
M  V30 7468 N 709.488 -0.375779 1.53054 0
M  V30 7469 C 710.398 -1.48381 1.81715 0
M  V30 7470 C 711.414 -1.59087 0.704795 0
M  V30 7471 O 712.59 -1.75174 0.993785 0
M  V30 7472 C 709.655 -2.83767 1.99192 0
M  V30 7473 C 708.716 -2.82673 3.23102 0
M  V30 7474 C 707.949 -4.11601 3.39736 0
M  V30 7475 O 708.172 -5.07243 2.60885 0
M  V30 7476 O 707.106 -4.18034 4.33049 0
M  V30 7477 H 710.932 -1.27089 2.7583 0
M  V30 7478 H 708.517 -0.564902 1.38308 0
M  V30 7479 H 710.399 -3.64004 2.12318 0
M  V30 7480 H 709.074 -3.05057 1.08267 0
M  V30 7481 H 707.981 -2.0117 3.15407 0
M  V30 7482 H 709.314 -2.66335 4.13916 0
M  V30 7483 N 710.966 -1.44241 -0.634997 0
M  V30 7484 C 711.929 -1.50457 -1.72903 0
M  V30 7485 C 712.929 -0.387058 -1.56072 0
M  V30 7486 O 714.119 -0.649531 -1.61638 0
M  V30 7487 C 711.251 -1.37477 -3.1195 0
M  V30 7488 H 712.444 -2.47907 -1.68767 0
M  V30 7489 H 709.997 -1.31276 -0.84831 0
M  V30 7490 H 710.732 -0.41106 -3.21684 0
M  V30 7491 H 710.517 -2.18506 -3.25573 0
M  V30 7492 H 712.007 -1.44799 -3.91692 0
M  V30 7493 N 712.444 0.87505 -1.31075 0
M  V30 7494 C 713.855 1.4433 -1.18431 0
M  V30 7495 C 714.206 1.9506 0.211189 0
M  V30 7496 O 713.331 1.85847 1.10859 0
M  V30 7497 C 713.926 2.62341 -2.14389 0
M  V30 7498 C 712.485 3.15225 -2.05694 0
M  V30 7499 C 711.632 1.87929 -2.03907 0
M  V30 7500 H 714.583 0.684061 -1.432 0
M  V30 7501 H 714.604 3.3887 -1.73053 0
M  V30 7502 H 714.116 2.25388 -3.15946 0
M  V30 7503 H 712.217 3.56812 -1.07314 0
M  V30 7504 H 712.33 3.77853 -2.94558 0
M  V30 7505 H 710.694 2.06679 -1.48849 0
M  V30 7506 H 711.477 1.53221 -3.07211 0
M  V30 7507 N 713.922 1.13953 1.08869 0
M  V30 7508 C 714.869 0.82213 2.15661 0
M  V30 7509 C 715.839 -0.218274 1.6466 0
M  V30 7510 O 717.024 -0.0892475 1.90591 0
M  V30 7511 C 714.164 0.300572 3.43789 0
M  V30 7512 C 713.277 1.40071 4.08661 0
M  V30 7513 C 712.412 0.836897 5.24566 0
M  V30 7514 C 711.451 1.91504 5.81371 0
M  V30 7515 N 710.588 1.36875 6.88629 0
M  V30 7516 H 715.428 1.73683 2.42153 0
M  V30 7517 H 712.965 0.866879 1.18843 0
M  V30 7518 H 714.923 -0.0199943 4.17195 0
M  V30 7519 H 713.553 -0.577248 3.17597 0
M  V30 7520 H 712.605 1.83776 3.33062 0
M  V30 7521 H 713.917 2.21534 4.46905 0
M  V30 7522 H 713.071 0.467953 6.04893 0
M  V30 7523 H 711.81 -0.00874207 4.87699 0
M  V30 7524 H 710.815 2.29299 4.99702 0
M  V30 7525 H 712.04 2.76419 6.20298 0
M  V30 7526 H 709.986 0.545211 6.5373 0
M  V30 7527 H 709.903 2.1198 7.25672 0
M  V30 7528 H 711.171 1.02756 7.72698 0
M  V30 7529 N 715.4 -1.26948 0.933913 0
M  V30 7530 C 716.363 -2.24889 0.442457 0
M  V30 7531 C 717.363 -1.54594 -0.442426 0
M  V30 7532 O 718.553 -1.72502 -0.242629 0
M  V30 7533 C 715.685 -3.3896 -0.363173 0
M  V30 7534 H 716.878 -2.69879 1.30787 0
M  V30 7535 H 714.431 -1.38978 0.715187 0
M  V30 7536 H 715.166 -2.99361 -1.24714 0
M  V30 7537 H 714.951 -3.9116 0.271366 0
M  V30 7538 H 716.441 -4.11739 -0.697186 0
M  V30 7539 N 716.879 -0.700114 -1.41195 0
M  V30 7540 C 717.842 -0.0465706 -2.29153 0
M  V30 7541 C 718.842 0.703302 -1.44604 0
M  V30 7542 O 720.032 0.537513 -1.657 0
M  V30 7543 C 717.164 0.944324 -3.2756 0
M  V30 7544 H 718.357 -0.821064 -2.88442 0
M  V30 7545 H 715.91 -0.463869 -1.49258 0
M  V30 7546 H 716.645 1.74642 -2.73259 0
M  V30 7547 H 716.43 0.409701 -3.89954 0
M  V30 7548 H 717.92 1.39925 -3.9346 0
M  V30 7549 N 718.357 1.51182 -0.445186 0
M  V30 7550 C 719.267 2.31692 0.368255 0
M  V30 7551 C 720.283 1.40942 1.02036 0
M  V30 7552 O 721.459 1.74011 1.01401 0
M  V30 7553 C 718.524 3.14903 1.45041 0
M  V30 7554 C 717.585 4.21442 0.817615 0
M  V30 7555 C 716.818 5.00677 1.8482 0
M  V30 7556 O 717.041 4.80644 3.07145 0
M  V30 7557 O 715.975 5.84559 1.43438 0
M  V30 7558 H 719.801 3.0232 -0.289219 0
M  V30 7559 H 717.386 1.47951 -0.207555 0
M  V30 7560 H 719.268 3.66612 2.07783 0
M  V30 7561 H 717.943 2.47031 2.09182 0
M  V30 7562 H 716.85 3.73791 0.151931 0
M  V30 7563 H 718.183 4.9171 0.219564 0
M  V30 7564 N 719.835 0.176821 1.56605 0
M  V30 7565 C 720.765 -0.746841 2.21234 0
M  V30 7566 C 721.746 -1.23502 1.16967 0
M  V30 7567 O 722.931 -1.28718 1.45414 0
M  V30 7568 C 720.061 -1.97407 2.8574 0
M  V30 7569 C 719.015 -1.62153 3.96094 0
M  V30 7570 C 718.341 -2.92387 4.47676 0
M  V30 7571 C 719.641 -0.845353 5.15413 0
M  V30 7572 H 721.335 -0.208116 2.98676 0
M  V30 7573 H 718.881 -0.0986594 1.43662 0
M  V30 7574 H 720.834 -2.62531 3.2963 0
M  V30 7575 H 719.558 -2.53703 2.05676 0
M  V30 7576 H 718.217 -0.993964 3.52868 0
M  V30 7577 H 717.865 -3.46734 3.64396 0
M  V30 7578 H 717.565 -2.69551 5.22127 0
M  V30 7579 H 719.089 -3.5853 4.94255 0
M  V30 7580 H 720.503 -1.39929 5.55961 0
M  V30 7581 H 718.9 -0.715814 5.95815 0
M  V30 7582 H 719.97 0.157239 4.84645 0
M  V30 7583 N 721.313 -1.57302 -0.09688 0
M  V30 7584 C 722.26 -2.01933 -1.11766 0
M  V30 7585 C 723.23 -0.895329 -1.39904 0
M  V30 7586 O 724.415 -1.16119 -1.51397 0
M  V30 7587 C 721.555 -2.44726 -2.43317 0
M  V30 7588 C 720.668 -3.70639 -2.21925 0
M  V30 7589 C 719.803 -4.02318 -3.46862 0
M  V30 7590 C 718.842 -5.21346 -3.20725 0
M  V30 7591 N 717.979 -5.48787 -4.37924 0
M  V30 7592 H 722.819 -2.88919 -0.730075 0
M  V30 7593 H 720.356 -1.42901 -0.348962 0
M  V30 7594 H 722.314 -2.6758 -3.20088 0
M  V30 7595 H 720.944 -1.60753 -2.79926 0
M  V30 7596 H 719.996 -3.55271 -1.35965 0
M  V30 7597 H 721.308 -4.57557 -1.98603 0
M  V30 7598 H 720.462 -4.25939 -4.32042 0
M  V30 7599 H 719.201 -3.13918 -3.73238 0
M  V30 7600 H 718.206 -4.97547 -2.33938 0
M  V30 7601 H 719.431 -6.11343 -2.95697 0
M  V30 7602 H 717.377 -4.63346 -4.64378 0
M  V30 7603 H 717.294 -6.30073 -4.17785 0
M  V30 7604 H 718.562 -5.76943 -5.24173 0
M  V30 7605 N 722.791 0.367657 -1.53252 0
M  V30 7606 C 723.754 1.43308 -1.78873 0
M  V30 7607 C 724.754 1.46671 -0.659115 0
M  V30 7608 O 725.944 1.47468 -0.927306 0
M  V30 7609 C 723.076 2.82442 -1.90892 0
M  V30 7610 H 724.269 1.21864 -2.74024 0
M  V30 7611 H 721.822 0.600668 -1.44297 0
M  V30 7612 H 722.557 3.09202 -0.978 0
M  V30 7613 H 722.342 2.81399 -2.73051 0
M  V30 7614 H 723.832 3.59601 -2.12314 0
M  V30 7615 N 724.269 1.44576 0.627338 0
M  V30 7616 C 725.516 1.47558 1.38682 0
M  V30 7617 C 725.844 0.109636 1.94191 0
M  V30 7618 O 725.099 -0.889092 1.74338 0
M  V30 7619 C 725.398 2.48644 2.56731 0
M  V30 7620 C 725.064 3.93873 2.19489 0
M  V30 7621 C 723.726 4.33421 2.09045 0
M  V30 7622 C 726.078 4.85286 1.90124 0
M  V30 7623 C 723.406 5.62303 1.6743 0
M  V30 7624 C 725.758 6.14559 1.50001 0
M  V30 7625 C 724.422 6.53058 1.38101 0
M  V30 7626 H 723.692 0.539955 0.507474 0
M  V30 7627 H 726.339 1.77811 0.711021 0
M  V30 7628 H 724.644 2.11889 3.29561 0
M  V30 7629 H 726.341 2.48197 3.14959 0
M  V30 7630 H 722.931 3.62587 2.28537 0
M  V30 7631 H 727.115 4.55483 1.971 0
M  V30 7632 H 722.371 5.90945 1.56823 0
M  V30 7633 H 726.545 6.84848 1.26319 0
M  V30 7634 H 724.172 7.52826 1.05628 0
M  V30 7635 N 725.747 -0.868086 1.31537 0
M  V30 7636 C 726.677 -1.99131 1.21939 0
M  V30 7637 C 727.658 -1.69768 0.106166 0
M  V30 7638 O 728.843 -1.92006 0.291081 0
M  V30 7639 C 725.973 -3.34676 0.927879 0
M  V30 7640 C 724.927 -3.7835 2.00088 0
M  V30 7641 C 724.253 -5.11375 1.56203 0
M  V30 7642 C 725.553 -3.95256 3.41424 0
M  V30 7643 H 727.247 -2.07419 2.15911 0
M  V30 7644 H 724.793 -0.996569 1.03945 0
M  V30 7645 H 726.746 -4.12793 0.847327 0
M  V30 7646 H 725.47 -3.26565 -0.0475042 0
M  V30 7647 H 724.129 -3.02474 2.07135 0
M  V30 7648 H 723.777 -4.99709 0.57445 0
M  V30 7649 H 723.477 -5.41568 2.27985 0
M  V30 7650 H 725.001 -5.92001 1.49558 0
M  V30 7651 H 726.415 -4.63764 3.3704 0
M  V30 7652 H 724.812 -4.36849 4.1144 0
M  V30 7653 H 725.882 -2.98579 3.82072 0
M  V30 7654 N 727.225 -1.14528 -1.08264 0
M  V30 7655 C 728.641 -0.885976 -1.3275 0
M  V30 7656 C 728.841 0.472096 -1.95892 0
M  V30 7657 O 727.897 1.21606 -2.21288 0
M  V30 7658 C 729.21 -2.01982 -2.22764 0
M  V30 7659 C 730.758 -2.05329 -2.36239 0
M  V30 7660 C 731.233 -3.1801 -3.29596 0
M  V30 7661 N 732.724 -3.17598 -3.37173 0
M  V30 7662 C 733.459 -4.01426 -4.09444 0
M  V30 7663 N 732.955 -4.95297 -4.8441 0
M  V30 7664 N 734.748 -3.89482 -4.0529 0
M  V30 7665 H 726.899 -2.01996 -0.656607 0
M  V30 7666 H 729.162 -0.880274 -0.351884 0
M  V30 7667 H 728.868 -2.99964 -1.83615 0
M  V30 7668 H 728.742 -1.94421 -3.23234 0
M  V30 7669 H 731.129 -1.07953 -2.74646 0
M  V30 7670 H 731.21 -2.1696 -1.35506 0
M  V30 7671 H 730.854 -4.15633 -2.9191 0
M  V30 7672 H 730.784 -3.03616 -4.30261 0
M  V30 7673 H 733.275 -2.4961 -2.83731 0
M  V30 7674 H 733.588 -5.55723 -5.37021 0
M  V30 7675 H 731.933 -4.99293 -4.83457 0
M  V30 7676 H 735.124 -3.15465 -3.45832 0
M  V30 7677 H 735.297 -4.55039 -4.6135 0
M  V30 7678 N 728.703 1.26451 -0.940633 0
M  V30 7679 C 729.613 2.30128 -0.455881 0
M  V30 7680 C 730.629 1.67536 0.469867 0
M  V30 7681 O 731.805 1.98344 0.349529 0
M  V30 7682 C 728.87 3.45634 0.271648 0
M  V30 7683 C 727.931 4.23709 -0.690594 0
M  V30 7684 C 727.164 5.337 0.00231047 0
M  V30 7685 O 727.387 5.57215 1.21935 0
M  V30 7686 O 726.321 5.98091 -0.676111 0
M  V30 7687 H 730.147 2.73655 -1.31707 0
M  V30 7688 H 727.732 1.3164 -0.706497 0
M  V30 7689 H 729.614 4.15853 0.681486 0
M  V30 7690 H 728.289 3.04138 1.10824 0
M  V30 7691 H 727.196 3.55974 -1.15037 0
M  V30 7692 H 728.529 4.68953 -1.49478 0
M  V30 7693 N 730.181 0.707592 1.40822 0
M  V30 7694 C 731.597 0.38034 1.55002 0
M  V30 7695 C 731.797 -1.11163 1.68062 0
M  V30 7696 O 730.853 -1.89761 1.66574 0
M  V30 7697 C 732.166 1.1394 2.78277 0
M  V30 7698 C 733.714 1.12492 2.92087 0
M  V30 7699 C 734.189 1.86597 4.18265 0
M  V30 7700 N 735.68 1.83626 4.25248 0
M  V30 7701 C 736.415 2.37794 5.21768 0
M  V30 7702 N 735.911 3.00485 6.24244 0
M  V30 7703 N 737.704 2.27982 5.13791 0
M  V30 7704 H 729.855 1.67511 1.3059 0
M  V30 7705 H 732.118 0.707579 0.630901 0
M  V30 7706 H 731.824 2.19398 2.74877 0
M  V30 7707 H 731.698 0.725793 3.70151 0
M  V30 7708 H 734.085 0.0785564 2.94995 0
M  V30 7709 H 734.166 1.57768 2.01353 0
M  V30 7710 H 733.81 2.91219 4.16118 0
M  V30 7711 H 733.74 1.38746 5.07993 0
M  V30 7712 H 736.231 1.3793 3.51829 0
M  V30 7713 H 736.544 3.39355 6.94304 0
M  V30 7714 H 734.889 3.04567 6.24711 0
M  V30 7715 H 738.08 1.78669 4.3266 0
M  V30 7716 H 738.253 2.70499 5.88841 0
M  V30 7717 N 731.66 -1.50943 0.453197 0
M  V30 7718 C 732.908 -2.01813 -0.107709 0
M  V30 7719 C 733.229 -1.33841 -1.41816 0
M  V30 7720 O 732.499 -0.477973 -1.8998 0
M  V30 7721 H 731.079 -0.745773 -0.0427948 0
M  V30 7722 H 733.741 -1.8545 0.599531 0
M  V30 7723 H 732.837 -3.10911 -0.27218 0
M  V30 7724 N 733.138 -0.185124 -1.56509 0
M  V30 7725 C 734.068 0.735098 -2.21627 0
M  V30 7726 C 735.049 1.2288 -1.1762 0
M  V30 7727 O 736.234 1.27945 -1.46095 0
M  V30 7728 C 733.364 1.95889 -2.86783 0
M  V30 7729 C 732.318 1.6005 -3.96948 0
M  V30 7730 C 731.644 2.90009 -4.4922 0
M  V30 7731 C 732.944 0.818008 -5.15855 0
M  V30 7732 H 734.638 0.192274 -2.98782 0
M  V30 7733 H 732.184 0.0910393 -1.43712 0
M  V30 7734 H 734.137 2.60779 -3.31017 0
M  V30 7735 H 732.861 2.52608 -2.07018 0
M  V30 7736 H 731.52 0.975237 -3.5339 0
M  V30 7737 H 731.168 3.44797 -3.6623 0
M  V30 7738 H 730.868 2.66778 -5.23549 0
M  V30 7739 H 732.392 3.55904 -4.9615 0
M  V30 7740 H 733.806 1.36979 -5.56695 0
M  V30 7741 H 732.203 0.684207 -5.96187 0
M  V30 7742 H 733.273 -0.182939 -4.84555 0
M  V30 7743 N 734.616 1.57351 0.0885366 0
M  V30 7744 C 735.579 2.01557 1.09121 0
M  V30 7745 C 736.579 0.910052 1.3257 0
M  V30 7746 O 737.769 1.17537 1.28572 0
M  V30 7747 C 734.901 2.38189 2.43883 0
M  V30 7748 H 736.094 2.91361 0.710562 0
M  V30 7749 H 733.647 1.52694 0.333779 0
M  V30 7750 H 734.382 1.5136 2.86811 0
M  V30 7751 H 734.167 3.18846 2.28209 0
M  V30 7752 H 735.657 2.73025 3.15986 0
M  V30 7753 N 736.094 -0.359525 1.53444 0
M  V30 7754 C 737.057 -1.42357 1.7963 0
M  V30 7755 C 738.057 -1.46319 0.666884 0
M  V30 7756 O 739.247 -1.46974 0.935113 0
M  V30 7757 C 736.379 -2.81425 1.92387 0
M  V30 7758 H 737.572 -1.20409 2.74666 0
M  V30 7759 H 735.125 -0.593007 1.44614 0
M  V30 7760 H 735.86 -3.08679 0.994384 0
M  V30 7761 H 735.645 -2.79947 2.74539 0
M  V30 7762 H 737.135 -3.5847 2.14218 0
M  V30 7763 N 737.572 -1.44907 -0.619662 0
M  V30 7764 C 738.802 -1.51575 -1.40387 0
M  V30 7765 C 739.21 -0.14309 -1.88658 0
M  V30 7766 O 738.553 0.863403 -1.62145 0
M  V30 7767 C 738.615 -2.42858 -2.65067 0
M  V30 7768 C 738.279 -3.8982 -2.38515 0
M  V30 7769 C 739.276 -4.80047 -1.99627 0
M  V30 7770 C 736.961 -4.34628 -2.51801 0
M  V30 7771 C 738.955 -6.13086 -1.74369 0
M  V30 7772 C 736.642 -5.67712 -2.26156 0
M  V30 7773 C 737.64 -6.56759 -1.875 0
M  V30 7774 O 737.328 -7.87377 -1.62148 0
M  V30 7775 H 737.06 -0.51612 -0.436573 0
M  V30 7776 H 739.614 -1.90664 -0.763959 0
M  V30 7777 H 737.844 -1.98717 -3.31735 0
M  V30 7778 H 739.533 -2.40346 -3.27091 0
M  V30 7779 H 740.299 -4.46697 -1.8891 0
M  V30 7780 H 736.178 -3.65568 -2.80857 0
M  V30 7781 H 739.722 -6.8255 -1.44122 0
M  V30 7782 H 735.619 -6.0062 -2.36486 0
M  V30 7783 H 736.387 -7.99288 -1.763 0
M  V30 7784 N 739.05 0.861098 -1.31996 0
M  V30 7785 C 739.997 1.96912 -1.20392 0
M  V30 7786 C 740.967 1.65869 -0.0875899 0
M  V30 7787 O 742.152 1.88992 -0.262011 0
M  V30 7788 C 739.292 3.32435 -0.926335 0
M  V30 7789 C 738.405 3.76018 -2.12684 0
M  V30 7790 C 737.54 5.00301 -1.78529 0
M  V30 7791 C 736.579 5.36357 -2.94937 0
M  V30 7792 N 735.716 6.51818 -2.60917 0
M  V30 7793 H 740.556 2.06169 -2.1517 0
M  V30 7794 H 738.093 1.00917 -1.07024 0
M  V30 7795 H 740.051 4.10478 -0.745917 0
M  V30 7796 H 738.681 3.22796 -0.0153578 0
M  V30 7797 H 737.733 2.93683 -2.41774 0
M  V30 7798 H 739.045 3.98664 -2.99781 0
M  V30 7799 H 738.199 5.86034 -1.57001 0
M  V30 7800 H 736.938 4.79578 -0.886356 0
M  V30 7801 H 735.943 4.49139 -3.17103 0
M  V30 7802 H 737.168 5.59041 -3.85552 0
M  V30 7803 H 735.114 6.32624 -1.73558 0
M  V30 7804 H 735.031 6.7445 -3.41544 0
M  V30 7805 H 736.299 7.4072 -2.42804 0
M  V30 7806 N 740.528 1.15101 1.07655 0
M  V30 7807 C 741.777 0.918528 1.79572 0
M  V30 7808 C 742.09 -0.555922 1.87534 0
M  V30 7809 O 743.296 -0.905893 2.55941 0
M  V30 7810 C 741.752 1.59394 3.22679 0
M  V30 7811 C 741.36 3.1052 3.22927 0
M  V30 7812 C 743.104 1.44289 3.99225 0
M  V30 7813 C 741.011 3.70862 4.60668 0
M  V30 7814 H 739.941 0.340006 0.672987 0
M  V30 7815 H 742.592 1.38079 1.20857 0
M  V30 7816 H 740.974 1.05936 3.81567 0
M  V30 7817 H 742.148 3.70708 2.737 0
M  V30 7818 H 740.463 3.25351 2.59876 0
M  V30 7819 H 743.06 1.86766 5.01022 0
M  V30 7820 H 743.403 0.389975 4.14469 0
M  V30 7821 H 743.936 1.94826 3.46825 0
M  V30 7822 H 740.675 4.7604 4.50628 0
M  V30 7823 H 740.195 3.15456 5.10145 0
M  V30 7824 H 741.874 3.71607 5.29639 0
M  V30 7825 N 742.006 -1.2595 0.947325 0
M  V30 7826 C 743.417 -1.75389 0.639963 0
M  V30 7827 C 743.768 -1.77081 -0.844788 0
M  V30 7828 O 742.893 -1.3869 -1.66114 0
M  V30 7829 C 743.488 -3.18506 1.15496 0
M  V30 7830 C 742.047 -3.65534 0.897894 0
M  V30 7831 C 741.194 -2.44818 1.30228 0
M  V30 7832 H 744.145 -1.1194 1.12495 0
M  V30 7833 H 744.166 -3.77045 0.511627 0
M  V30 7834 H 743.678 -3.17243 2.23559 0
M  V30 7835 H 741.779 -3.72221 -0.168096 0
M  V30 7836 H 741.892 -4.54039 1.52922 0
M  V30 7837 H 740.256 -2.44291 0.720678 0
M  V30 7838 H 741.039 -2.46251 2.39198 0
M  V30 7839 N 743.484 -0.715051 -1.40445 0
M  V30 7840 C 744.761 -0.181503 -1.94756 0
M  V30 7841 C 745.141 1.31268 -1.65324 0
M  V30 7842 O 744.489 2.0686 -0.970631 0
M  V30 7843 C 744.699 -0.493663 -3.45491 0
M  V30 7844 C 746.047 -0.432032 -4.22396 0
M  V30 7845 O 747.071 -0.429692 -3.53599 0
M  V30 7846 O 745.93 -0.409091 -5.44967 0
M  V30 7847 H 743.024 -0.0263989 -0.826579 0
M  V30 7848 H 745.57 -0.792546 -1.50056 0
M  V30 7849 H 744.342 -1.52713 -3.6027 0
M  V30 7850 H 743.965 0.14737 -3.97327 0
M  V30 7851 N 744.962 1.50701 -0.461195 0
M  V30 7852 C 746.378 1.59187 -0.114786 0
M  V30 7853 C 746.578 1.4702 1.37794 0
M  V30 7854 O 745.634 1.32361 2.15027 0
M  V30 7855 C 746.947 2.93453 -0.656167 0
M  V30 7856 C 748.495 3.06824 -0.618715 0
M  V30 7857 C 748.97 4.4365 -1.13747 0
M  V30 7858 N 750.461 4.50035 -1.09646 0
M  V30 7859 C 751.196 5.54278 -1.46846 0
M  V30 7860 N 750.692 6.65822 -1.91448 0
M  V30 7861 N 752.485 5.44767 -1.38512 0
M  V30 7862 H 744.636 1.56853 -1.43216 0
M  V30 7863 H 746.899 0.740712 -0.59165 0
M  V30 7864 H 746.605 3.07802 -1.7015 0
M  V30 7865 H 746.479 3.77082 -0.0942261 0
M  V30 7866 H 748.866 2.92129 0.417685 0
M  V30 7867 H 748.947 2.24976 -1.21734 0
M  V30 7868 H 748.591 4.59093 -2.17245 0
M  V30 7869 H 748.521 5.24074 -0.515153 0
M  V30 7870 H 751.012 3.69988 -0.769217 0
M  V30 7871 H 751.325 7.41413 -2.18007 0
M  V30 7872 H 749.67 6.66968 -1.95393 0
M  V30 7873 H 752.861 4.56511 -1.03516 0
M  V30 7874 H 753.034 6.25889 -1.6783 0
M  V30 7875 N 746.441 0.193421 1.56409 0
M  V30 7876 C 747.687 -0.446449 1.97825 0
M  V30 7877 C 748.02 -1.61386 1.08019 0
M  V30 7878 O 747.295 -1.94053 0.131839 0
M  V30 7879 C 747.578 -0.908199 3.48459 0
M  V30 7880 C 747.431 0.260914 4.49043 0
M  V30 7881 C 748.75 -1.77428 4.0275 0
M  V30 7882 H 745.869 -0.160807 0.719243 0
M  V30 7883 H 748.511 0.284006 1.87865 0
M  V30 7884 H 746.661 -1.53062 3.57077 0
M  V30 7885 H 748.333 0.898548 4.52464 0
M  V30 7886 H 746.576 0.912949 4.24085 0
M  V30 7887 H 747.247 -0.104657 5.51901 0
M  V30 7888 H 749.723 -1.24936 3.96901 0
M  V30 7889 H 748.599 -2.06633 5.08521 0
M  V30 7890 H 748.86 -2.72788 3.47907 0
M  V30 7891 N 747.919 -1.57396 -0.0801906 0
M  V30 7892 C 748.829 -2.06451 -1.11423 0
M  V30 7893 C 749.845 -0.992352 -1.42928 0
M  V30 7894 O 751.021 -1.30651 -1.53272 0
M  V30 7895 C 748.086 -2.49164 -2.41077 0
M  V30 7896 C 747.147 -3.70641 -2.16619 0
M  V30 7897 C 746.38 -4.11307 -3.40092 0
M  V30 7898 O 746.603 -3.51922 -4.48895 0
M  V30 7899 O 745.537 -5.04157 -3.288 0
M  V30 7900 H 749.363 -2.94857 -0.727519 0
M  V30 7901 H 746.948 -1.46484 -0.293743 0
M  V30 7902 H 748.83 -2.77196 -3.17396 0
M  V30 7903 H 747.505 -1.6389 -2.79145 0
M  V30 7904 H 746.412 -3.47703 -1.38033 0
M  V30 7905 H 747.745 -4.5674 -1.83437 0
M  V30 7906 N 749.397 0.351382 -1.53633 0
M  V30 7907 C 750.644 1.0925 -1.70502 0
M  V30 7908 C 750.972 1.88881 -0.464123 0
M  V30 7909 O 750.227 1.87693 0.554077 0
M  V30 7910 C 750.526 2.06744 -2.91533 0
M  V30 7911 C 750.192 1.43484 -4.27461 0
M  V30 7912 C 748.854 1.2596 -4.64422 0
M  V30 7913 C 751.206 0.978436 -5.11934 0
M  V30 7914 C 748.534 0.614017 -5.83478 0
M  V30 7915 C 750.886 0.346795 -6.31649 0
M  V30 7916 C 749.55 0.15917 -6.6731 0
M  V30 7917 H 748.82 0.399773 -0.623909 0
M  V30 7918 H 751.467 0.372656 -1.87839 0
M  V30 7919 H 749.772 2.85082 -2.68767 0
M  V30 7920 H 751.469 2.64066 -3.01778 0
M  V30 7921 H 748.059 1.5812 -3.98367 0
M  V30 7922 H 752.243 1.1017 -4.83918 0
M  V30 7923 H 747.499 0.457194 -6.09688 0
M  V30 7924 H 751.673 -0.0149864 -6.96398 0
M  V30 7925 H 749.3 -0.343129 -7.59425 0
M  V30 7926 N 750.875 1.45233 0.611969 0
M  V30 7927 C 752.121 1.49242 1.37312 0
M  V30 7928 C 752.454 0.131963 1.93751 0
M  V30 7929 O 751.729 -0.852999 1.74798 0
M  V30 7930 C 752.012 2.56811 2.52428 0
M  V30 7931 C 751.865 4.02284 2.01215 0
M  V30 7932 C 753.184 2.60705 3.54572 0
M  V30 7933 H 750.303 0.54336 0.497925 0
M  V30 7934 H 752.945 1.77019 0.690242 0
M  V30 7935 H 751.095 2.33256 3.10683 0
M  V30 7936 H 752.767 4.37035 1.47643 0
M  V30 7937 H 751.01 4.1315 1.32248 0
M  V30 7938 H 751.681 4.7323 2.84178 0
M  V30 7939 H 754.157 2.81799 3.06151 0
M  V30 7940 H 753.033 3.37841 4.32614 0
M  V30 7941 H 753.294 1.65627 4.09903 0
M  V30 7942 N 752.353 -0.854086 1.3245 0
M  V30 7943 C 753.263 -1.99503 1.23434 0
M  V30 7944 C 754.279 -1.73371 0.147828 0
M  V30 7945 O 755.455 -1.97998 0.368609 0
M  V30 7946 C 752.52 -3.33192 0.958328 0
M  V30 7947 C 751.581 -3.72542 2.13333 0
M  V30 7948 C 750.814 -4.99852 1.8704 0
M  V30 7949 O 751.037 -5.64573 0.813239 0
M  V30 7950 O 749.971 -5.36345 2.73161 0
M  V30 7951 H 753.797 -2.10046 2.1935 0
M  V30 7952 H 751.382 -0.984823 1.12346 0
M  V30 7953 H 753.264 -4.13327 0.820918 0
M  V30 7954 H 751.939 -3.23687 0.0293299 0
M  V30 7955 H 750.846 -2.92981 2.32622 0
M  V30 7956 H 752.179 -3.86694 3.04514 0
M  V30 7957 N 753.831 -1.1567 -1.07043 0
M  V30 7958 C 755.056 -0.957946 -1.83952 0
M  V30 7959 C 755.481 0.488807 -1.81638 0
M  V30 7960 O 754.839 1.34869 -1.21162 0
M  V30 7961 C 754.887 -1.48064 -3.288 0
M  V30 7962 O 753.991 -0.681921 -4.06723 0
M  V30 7963 H 753.332 -0.341453 -0.569479 0
M  V30 7964 H 755.862 -1.53728 -1.35015 0
M  V30 7965 H 755.872 -1.49484 -3.7963 0
M  V30 7966 H 754.547 -2.53388 -3.29799 0
M  V30 7967 H 753.124 -0.737612 -3.65532 0
M  V30 7968 N 755.309 1.25446 -0.953992 0
M  V30 7969 C 756.556 1.93143 -0.608429 0
M  V30 7970 C 756.884 1.74727 0.854451 0
M  V30 7971 O 756.139 1.0855 1.62836 0
M  V30 7972 C 756.438 3.45555 -0.912496 0
M  V30 7973 C 756.104 3.84126 -2.36131 0
M  V30 7974 C 754.766 3.94367 -2.75732 0
M  V30 7975 C 757.118 4.0324 -3.30223 0
M  V30 7976 C 754.446 4.21127 -4.08496 0
M  V30 7977 C 756.798 4.31493 -4.62598 0
M  V30 7978 C 755.462 4.3995 -5.01996 0
M  V30 7979 H 754.732 0.706762 -0.22264 0
M  V30 7980 H 757.379 1.49005 -1.20291 0
M  V30 7981 H 755.684 3.91091 -0.235618 0
M  V30 7982 H 757.381 3.9612 -0.623714 0
M  V30 7983 H 753.971 3.76711 -2.04418 0
M  V30 7984 H 758.155 3.94744 -3.00817 0
M  V30 7985 H 753.411 4.2589 -4.38665 0
M  V30 7986 H 757.585 4.45227 -5.35486 0
M  V30 7987 H 755.212 4.60439 -6.04896 0
M  V30 7988 N 756.787 0.722489 1.40064 0
M  V30 7989 C 758.198 0.336507 1.83642 0
M  V30 7990 C 758.549 -1.13002 1.6039 0
M  V30 7991 O 757.674 -1.87036 1.08842 0
M  V30 7992 C 758.269 0.603985 3.33373 0
M  V30 7993 C 756.828 0.271637 3.75419 0
M  V30 7994 C 755.975 0.872898 2.63203 0
M  V30 7995 H 758.926 0.921108 1.29233 0
M  V30 7996 H 758.947 -0.128471 3.80283 0
M  V30 7997 H 758.459 1.67141 3.50265 0
M  V30 7998 H 756.56 -0.790455 3.64119 0
M  V30 7999 H 756.673 0.745457 4.73265 0
M  V30 8000 H 755.037 0.300431 2.52922 0
M  V30 8001 H 755.82 1.94473 2.82905 0
M  V30 8002 N 758.265 -1.50454 0.469181 0
M  V30 8003 C 759.197 -2.26319 -0.362247 0
M  V30 8004 C 760.21 -1.31574 -0.958751 0
M  V30 8005 O 761.399 -1.57099 -0.847482 0
M  V30 8006 C 758.499 -3.02808 -1.52187 0
M  V30 8007 C 757.672 -4.24893 -1.03849 0
M  V30 8008 C 756.731 -4.83691 -2.07194 0
M  V30 8009 O 755.757 -5.44659 -1.65333 0
M  V30 8010 N 756.959 -4.70522 -3.39985 0
M  V30 8011 H 759.724 -2.98312 0.288124 0
M  V30 8012 H 757.285 -1.59099 0.299856 0
M  V30 8013 H 759.277 -3.39023 -2.21011 0
M  V30 8014 H 757.847 -2.33625 -2.07697 0
M  V30 8015 H 757.067 -3.93806 -0.176203 0
M  V30 8016 H 758.355 -5.04053 -0.693435 0
M  V30 8017 H 757.753 -4.2203 -3.76706 0
M  V30 8018 H 756.31 -5.11011 -4.04612 0
M  V30 8019 N 759.743 -0.201713 -1.56304 0
M  V30 8020 C 760.971 0.440723 -2.02152 0
M  V30 8021 C 761.386 1.54735 -1.08179 0
M  V30 8022 O 760.743 1.82289 -0.0878196 0
M  V30 8023 C 760.794 0.990884 -3.47655 0
M  V30 8024 O 760.515 -0.0715937 -4.38041 0
M  V30 8025 C 762.016 1.70854 -4.09052 0
M  V30 8026 H 759.236 0.109987 -0.661924 0
M  V30 8027 H 761.78 -0.312358 -2.021 0
M  V30 8028 H 759.935 1.69432 -3.48384 0
M  V30 8029 H 760.349 0.338892 -5.23404 0
M  V30 8030 H 761.823 2.04572 -5.12693 0
M  V30 8031 H 762.3 2.61462 -3.52894 0
M  V30 8032 H 762.906 1.0508 -4.12114 0
M  V30 8033 N 761.222 1.57436 0.0718424 0
M  V30 8034 C 762.47 1.86878 0.769484 0
M  V30 8035 C 762.791 0.7937 1.78116 0
M  V30 8036 O 762.061 -0.177642 1.95093 0
M  V30 8037 H 760.641 0.689593 0.287177 0
M  V30 8038 H 763.303 1.94841 0.0479427 0
M  V30 8039 H 762.399 2.84387 1.28572 0
M  V30 8040 N 762.7 -0.34323 1.53817 0
M  V30 8041 C 763.946 -1.08504 1.71332 0
M  V30 8042 C 764.279 -1.88294 0.475285 0
M  V30 8043 O 763.554 -1.87205 -0.527688 0
M  V30 8044 C 763.837 -2.02597 2.97702 0
M  V30 8045 C 763.69 -1.26268 4.31713 0
M  V30 8046 C 765.009 -3.0241 3.19744 0
M  V30 8047 H 762.128 -0.393072 0.623429 0
M  V30 8048 H 764.77 -0.363579 1.86489 0
M  V30 8049 H 762.92 -2.64118 2.8491 0
M  V30 8050 H 764.592 -0.673594 4.56356 0
M  V30 8051 H 762.835 -0.564696 4.30109 0
M  V30 8052 H 763.506 -1.95253 5.16314 0
M  V30 8053 H 765.982 -2.51004 3.31868 0
M  V30 8054 H 764.858 -3.65449 4.09558 0
M  V30 8055 H 765.119 -3.73806 2.36054 0
M  V30 8056 N 764.178 -1.45556 -0.604258 0
M  V30 8057 C 765.426 -1.4945 -1.36048 0
M  V30 8058 C 765.747 -0.138933 -1.94504 0
M  V30 8059 O 765.017 0.832097 -1.7735 0
M  V30 8060 H 763.597 -0.550381 -0.505064 0
M  V30 8061 H 766.259 -1.81535 -0.709308 0
M  V30 8062 H 765.355 -2.23519 -2.17821 0
M  V30 8063 N 765.656 0.84705 -1.32902 0
M  V30 8064 C 766.603 1.95624 -1.22473 0
M  V30 8065 C 767.573 1.65767 -0.105178 0
M  V30 8066 O 768.758 1.88704 -0.282042 0
M  V30 8067 C 765.898 3.31434 -0.961542 0
M  V30 8068 C 765.011 3.73741 -2.1666 0
M  V30 8069 C 764.146 4.98379 -1.83825 0
M  V30 8070 C 763.185 5.33199 -3.00609 0
M  V30 8071 N 762.322 6.49014 -2.67816 0
M  V30 8072 H 767.162 2.03875 -2.17345 0
M  V30 8073 H 764.699 0.997764 -1.08088 0
M  V30 8074 H 766.657 4.09663 -0.789411 0
M  V30 8075 H 765.287 3.22762 -0.0495938 0
M  V30 8076 H 764.339 2.91102 -2.44875 0
M  V30 8077 H 765.651 3.95462 -3.03993 0
M  V30 8078 H 764.805 5.84336 -1.63208 0
M  V30 8079 H 763.544 4.78611 -0.937172 0
M  V30 8080 H 762.549 4.4575 -3.21849 0
M  V30 8081 H 763.774 5.5492 -3.9146 0
M  V30 8082 H 761.72 6.30748 -1.80258 0
M  V30 8083 H 761.637 6.7079 -3.48679 0
M  V30 8084 H 762.905 7.38103 -2.50647 0
M  V30 8085 N 767.134 1.16236 1.06428 0
M  V30 8086 C 768.38 0.944431 1.79467 0
M  V30 8087 C 768.713 -0.526558 1.86925 0
M  V30 8088 O 767.988 -1.39061 1.35986 0
M  V30 8089 C 768.271 1.57092 3.24028 0
M  V30 8090 C 768.124 3.11315 3.24658 0
M  V30 8091 C 769.443 1.26447 4.21544 0
M  V30 8092 H 766.562 0.344521 0.651517 0
M  V30 8093 H 769.204 1.43545 1.24478 0
M  V30 8094 H 767.354 1.15337 3.70985 0
M  V30 8095 H 769.026 3.62042 2.85873 0
M  V30 8096 H 767.269 3.44716 2.6335 0
M  V30 8097 H 767.94 3.50269 4.26633 0
M  V30 8098 H 770.416 1.62581 3.83023 0
M  V30 8099 H 769.292 1.72885 5.20963 0
M  V30 8100 H 769.553 0.183068 4.41721 0
M  V30 8101 N 768.612 -1.24939 0.960631 0
M  V30 8102 C 769.837 -1.9742 0.635608 0
M  V30 8103 C 770.262 -1.70857 -0.786737 0
M  V30 8104 O 769.62 -0.968063 -1.53291 0
M  V30 8105 C 769.668 -3.48987 0.907771 0
M  V30 8106 O 768.772 -4.12399 -0.0104053 0
M  V30 8107 H 768.113 -0.61871 0.241027 0
M  V30 8108 H 770.643 -1.58901 1.28886 0
M  V30 8109 H 770.653 -3.99334 0.836453 0
M  V30 8110 H 769.328 -3.6765 1.94439 0
M  V30 8111 H 767.905 -3.72727 0.113631 0
M  V30 8112 N 770.09 -0.729906 -1.39679 0
M  V30 8113 C 771.037 -0.0866063 -2.30637 0
M  V30 8114 C 772.007 0.735115 -1.48947 0
M  V30 8115 O 773.192 0.696125 -1.77648 0
M  V30 8116 C 770.332 0.818524 -3.35252 0
M  V30 8117 C 769.445 -0.0152635 -4.31997 0
M  V30 8118 C 768.58 0.890669 -5.2368 0
M  V30 8119 C 767.619 0.0518246 -6.12078 0
M  V30 8120 N 766.756 0.913411 -6.96133 0
M  V30 8121 H 771.596 -0.867925 -2.85081 0
M  V30 8122 H 769.133 -0.439673 -1.40376 0
M  V30 8123 H 771.091 1.3577 -3.9449 0
M  V30 8124 H 769.721 1.56587 -2.82277 0
M  V30 8125 H 768.773 -0.671794 -3.74421 0
M  V30 8126 H 770.085 -0.664086 -4.9436 0
M  V30 8127 H 769.239 1.49787 -5.87919 0
M  V30 8128 H 767.978 1.57328 -4.61627 0
M  V30 8129 H 766.983 -0.568209 -5.46856 0
M  V30 8130 H 768.208 -0.627497 -6.76195 0
M  V30 8131 H 766.154 1.58141 -6.36653 0
M  V30 8132 H 766.071 0.320952 -7.55318 0
M  V30 8133 H 767.339 1.50633 -7.64807 0
M  V30 8134 N 771.568 1.50203 -0.477153 0
M  V30 8135 C 772.515 2.28656 0.31386 0
M  V30 8136 C 773.485 1.33977 0.981802 0
M  V30 8137 O 774.67 1.62919 0.993072 0
M  V30 8138 C 771.81 3.16027 1.38639 0
M  V30 8139 C 770.923 4.25743 0.732615 0
M  V30 8140 C 770.058 5.00363 1.78355 0
M  V30 8141 C 769.097 6.01945 1.11035 0
M  V30 8142 N 768.234 6.6982 2.10441 0
M  V30 8143 H 773.074 2.958 -0.361445 0
M  V30 8144 H 770.611 1.45867 -0.190093 0
M  V30 8145 H 772.569 3.6504 2.01994 0
M  V30 8146 H 771.199 2.50917 2.03077 0
M  V30 8147 H 770.251 3.80398 -0.0136546 0
M  V30 8148 H 771.563 4.98393 0.201513 0
M  V30 8149 H 770.717 5.53124 2.49276 0
M  V30 8150 H 769.456 4.27432 2.34847 0
M  V30 8151 H 768.461 5.48438 0.386797 0
M  V30 8152 H 769.686 6.76851 0.552248 0
M  V30 8153 H 767.632 5.99677 2.65939 0
M  V30 8154 H 767.549 7.38366 1.62332 0
M  V30 8155 H 768.817 7.27196 2.80724 0
M  V30 8156 N 773.046 0.209999 1.56195 0
M  V30 8157 C 774.009 -0.691232 2.18528 0
M  V30 8158 C 775.009 -1.13013 1.14388 0
M  V30 8159 O 776.199 -1.04081 1.39688 0
M  V30 8160 C 773.331 -1.94551 2.79934 0
M  V30 8161 H 774.524 -0.147953 2.99535 0
M  V30 8162 H 772.077 -0.0396243 1.5625 0
M  V30 8163 H 772.812 -2.53094 2.02766 0
M  V30 8164 H 772.597 -1.63938 3.56184 0
M  V30 8165 H 774.087 -2.58785 3.2775 0
M  V30 8166 N 774.524 -1.57472 -0.0634922 0
M  V30 8167 C 775.454 -2.07297 -1.07473 0
M  V30 8168 C 776.435 -0.968162 -1.39859 0
M  V30 8169 O 777.62 -1.24139 -1.49343 0
M  V30 8170 C 774.75 -2.52381 -2.38581 0
M  V30 8171 C 773.704 -3.66813 -2.20526 0
M  V30 8172 C 773.03 -3.97982 -3.57092 0
M  V30 8173 C 774.33 -4.96553 -1.61965 0
M  V30 8174 H 776.024 -2.92033 -0.660092 0
M  V30 8175 H 773.57 -1.40488 -0.316074 0
M  V30 8176 H 775.523 -2.85852 -3.09624 0
M  V30 8177 H 774.247 -1.64684 -2.8204 0
M  V30 8178 H 772.906 -3.33639 -1.51924 0
M  V30 8179 H 772.554 -3.07403 -3.98136 0
M  V30 8180 H 772.254 -4.7504 -3.45848 0
M  V30 8181 H 773.778 -4.33956 -4.29552 0
M  V30 8182 H 775.192 -5.28201 -2.22883 0
M  V30 8183 H 773.589 -5.7799 -1.61394 0
M  V30 8184 H 774.659 -4.81396 -0.581918 0
M  V30 8185 N 776.003 0.335068 -1.53997 0
M  V30 8186 C 777.419 0.678704 -1.4445 0
M  V30 8187 C 777.619 1.92106 -0.608078 0
M  V30 8188 O 776.675 2.52292 -0.102373 0
M  V30 8189 C 777.988 0.863435 -2.88037 0
M  V30 8190 C 779.536 0.961513 -2.97866 0
M  V30 8191 C 780.011 1.1785 -4.42578 0
M  V30 8192 N 781.502 1.2455 -4.46141 0
M  V30 8193 C 782.237 1.43106 -5.55255 0
M  V30 8194 N 781.733 1.5878 -6.74359 0
M  V30 8195 N 783.526 1.45722 -5.42883 0
M  V30 8196 H 775.677 -0.481656 -2.06867 0
M  V30 8197 H 777.94 -0.153615 -0.935471 0
M  V30 8198 H 777.646 0.0219511 -3.51693 0
M  V30 8199 H 777.52 1.76268 -3.33481 0
M  V30 8200 H 779.907 1.79351 -2.34344 0
M  V30 8201 H 779.988 0.0389862 -2.5577 0
M  V30 8202 H 779.632 0.351397 -5.06683 0
M  V30 8203 H 779.562 2.11472 -4.82273 0
M  V30 8204 H 782.053 1.13928 -3.60318 0
M  V30 8205 H 782.366 1.72599 -7.53279 0
M  V30 8206 H 780.711 1.559 -6.77289 0
M  V30 8207 H 783.902 1.33065 -4.48789 0
M  V30 8208 H 784.075 1.59841 -6.27977 0
M  V30 8209 N 777.481 1.45874 0.596531 0
M  V30 8210 C 778.391 1.57947 1.73464 0
M  V30 8211 C 779.407 0.463461 1.67714 0
M  V30 8212 O 780.583 0.725685 1.87872 0
M  V30 8213 C 777.648 1.55348 3.09948 0
M  V30 8214 C 776.709 2.78074 3.27068 0
M  V30 8215 C 775.942 2.75589 4.57041 0
M  V30 8216 O 776.165 1.83545 5.40063 0
M  V30 8217 O 775.099 3.66945 4.77111 0
M  V30 8218 H 778.925 2.54169 1.66228 0
M  V30 8219 H 776.51 1.2851 0.76194 0
M  V30 8220 H 778.392 1.56545 3.91244 0
M  V30 8221 H 777.067 0.622811 3.17652 0
M  V30 8222 H 775.974 2.82435 2.45319 0
M  V30 8223 H 777.307 3.70303 3.24248 0
M  V30 8224 N 778.959 -0.83999 1.33349 0
M  V30 8225 C 779.922 -1.93128 1.23426 0
M  V30 8226 C 780.922 -1.60065 0.153599 0
M  V30 8227 O 782.112 -1.69425 0.405049 0
M  V30 8228 C 779.244 -3.28761 0.901622 0
M  V30 8229 H 780.437 -2.03352 2.20427 0
M  V30 8230 H 777.99 -1.03194 1.17391 0
M  V30 8231 H 778.725 -3.24233 -0.0659337 0
M  V30 8232 H 778.51 -3.54138 1.68311 0
M  V30 8233 H 780 -4.08714 0.856913 0
M  V30 8234 N 780.437 -1.16799 -1.0581 0
M  V30 8235 C 781.686 -0.94698 -1.78088 0
M  V30 8236 C 781.999 0.526016 -1.88394 0
M  V30 8237 O 783.205 0.865061 -2.5735 0
M  V30 8238 C 781.661 -1.64508 -3.20102 0
M  V30 8239 C 781.269 -3.15618 -3.17946 0
M  V30 8240 C 783.013 -1.50622 -3.96879 0
M  V30 8241 C 780.92 -3.78144 -4.5471 0
M  V30 8242 H 779.85 -0.35067 -0.667493 0
M  V30 8243 H 782.501 -1.39985 -1.18645 0
M  V30 8244 H 780.883 -1.11993 -3.79834 0
M  V30 8245 H 782.057 -3.75016 -2.67768 0
M  V30 8246 H 780.372 -3.29444 -2.54667 0
M  V30 8247 H 782.969 -1.94713 -4.97987 0
M  V30 8248 H 783.312 -0.455864 -4.13797 0
M  V30 8249 H 783.845 -2.00319 -3.43682 0
M  V30 8250 H 780.584 -4.83149 -4.42998 0
M  V30 8251 H 780.104 -3.23532 -5.05062 0
M  V30 8252 H 781.783 -3.79986 -5.2366 0
M  V30 8253 N 781.915 1.24427 -0.967243 0
M  V30 8254 C 783.14 1.9708 -0.646069 0
M  V30 8255 C 783.565 1.71272 0.777665 0
M  V30 8256 O 782.923 0.976179 1.52776 0
M  V30 8257 C 782.971 3.48501 -0.926266 0
M  V30 8258 O 782.075 4.12398 -0.0114653 0
M  V30 8259 H 781.416 0.617423 -0.244304 0
M  V30 8260 H 783.946 1.58215 -1.29727 0
M  V30 8261 H 783.956 3.98885 -0.857619 0
M  V30 8262 H 782.631 3.66613 -1.96386 0
M  V30 8263 H 781.208 3.72661 -0.133396 0
M  V30 8264 N 783.393 0.737304 1.3929 0
M  V30 8265 C 784.303 0.100464 2.34385 0
M  V30 8266 C 785.319 -0.719282 1.58437 0
M  V30 8267 O 786.495 -0.647216 1.90717 0
M  V30 8268 C 783.56 -0.794325 3.37478 0
M  V30 8269 C 782.621 0.0379345 4.29283 0
M  V30 8270 C 781.854 -0.814241 5.27452 0
M  V30 8271 O 782.077 -2.05288 5.32177 0
M  V30 8272 O 781.011 -0.241679 6.01415 0
M  V30 8273 H 784.837 0.885407 2.90507 0
M  V30 8274 H 782.422 0.497999 1.40856 0
M  V30 8275 H 784.304 -1.30622 4.00644 0
M  V30 8276 H 782.979 -1.55804 2.83737 0
M  V30 8277 H 781.886 0.595405 3.69331 0
M  V30 8278 H 783.219 0.763926 4.86236 0
M  V30 8279 N 784.871 -1.49948 0.485112 0
M  V30 8280 C 785.818 -2.28819 -0.301729 0
M  V30 8281 C 786.788 -1.34496 -0.974683 0
M  V30 8282 O 787.973 -1.63444 -0.984418 0
M  V30 8283 C 785.113 -3.16758 -1.36961 0
M  V30 8284 C 784.226 -4.26125 -0.710027 0
M  V30 8285 C 783.361 -5.01302 -1.75699 0
M  V30 8286 C 782.4 -6.02525 -1.07841 0
M  V30 8287 N 781.537 -6.70927 -2.06886 0
M  V30 8288 H 786.377 -2.95604 0.377127 0
M  V30 8289 H 783.914 -1.45764 0.197826 0
M  V30 8290 H 785.872 -3.66106 -2.00056 0
M  V30 8291 H 784.502 -2.51991 -2.01744 0
M  V30 8292 H 783.554 -3.80385 0.0338278 0
M  V30 8293 H 784.866 -4.98493 -0.175079 0
M  V30 8294 H 784.02 -5.54438 -2.46339 0
M  V30 8295 H 782.759 -4.28672 -2.32577 0
M  V30 8296 H 781.764 -5.48635 -0.357706 0
M  V30 8297 H 782.989 -6.77134 -0.516345 0
M  V30 8298 H 780.935 -6.01079 -2.62755 0
M  V30 8299 H 780.852 -7.39216 -1.58414 0
M  V30 8300 H 782.12 -7.28675 -2.76863 0
M  V30 8301 N 786.349 -0.21828 -1.56081 0
M  V30 8302 C 787.279 0.687922 -2.23136 0
M  V30 8303 C 788.26 1.20357 -1.202 0
M  V30 8304 O 789.445 1.24817 -1.48776 0
M  V30 8305 C 786.575 1.89762 -2.90874 0
M  V30 8306 C 785.529 1.51595 -4.00254 0
M  V30 8307 C 784.855 2.80415 -4.55271 0
M  V30 8308 C 786.155 0.708404 -5.17474 0
M  V30 8309 H 787.849 0.128854 -2.99123 0
M  V30 8310 H 785.395 0.0605354 -1.43873 0
M  V30 8311 H 787.348 2.53699 -3.36474 0
M  V30 8312 H 786.072 2.4816 -2.1233 0
M  V30 8313 H 784.731 0.900058 -3.55379 0
M  V30 8314 H 784.379 3.36951 -3.73461 0
M  V30 8315 H 784.079 2.55613 -5.2909 0
M  V30 8316 H 785.603 3.453 -5.03587 0
M  V30 8317 H 787.017 1.2514 -5.59476 0
M  V30 8318 H 785.414 0.557593 -5.97504 0
M  V30 8319 H 786.484 -0.285679 -4.84058 0
M  V30 8320 N 787.827 1.57504 0.0551401 0
M  V30 8321 C 788.757 2.07864 1.06372 0
M  V30 8322 C 789.738 0.975565 1.39344 0
M  V30 8323 O 790.923 1.24929 1.48682 0
M  V30 8324 C 788.053 2.53643 2.3724 0
M  V30 8325 C 787.007 3.67978 2.18578 0
M  V30 8326 C 786.333 3.9987 3.54976 0
M  V30 8327 C 787.633 4.97405 1.59329 0
M  V30 8328 H 789.327 2.92379 0.644595 0
M  V30 8329 H 786.873 1.40654 0.308619 0
M  V30 8330 H 788.826 2.8749 3.08103 0
M  V30 8331 H 787.55 1.66177 2.81163 0
M  V30 8332 H 786.209 3.3444 1.50152 0
M  V30 8333 H 785.857 3.0951 3.965 0
M  V30 8334 H 785.557 4.76867 3.43324 0
M  V30 8335 H 787.081 4.36228 4.27244 0
M  V30 8336 H 788.495 5.29375 2.20078 0
M  V30 8337 H 786.892 5.78837 1.58327 0
M  V30 8338 H 787.962 4.81697 0.55638 0
M  V30 8339 N 789.305 -0.326896 1.54172 0
M  V30 8340 C 790.268 -1.38515 1.8261 0
M  V30 8341 C 791.268 -1.44872 0.697771 0
M  V30 8342 O 792.458 -1.44957 0.966078 0
M  V30 8343 C 789.59 -2.77281 1.98313 0
M  V30 8344 H 790.783 -1.14556 2.77159 0
M  V30 8345 H 788.336 -0.562199 1.45839 0
M  V30 8346 H 789.071 -3.065 1.05964 0
M  V30 8347 H 788.856 -2.74061 2.80416 0
M  V30 8348 H 790.346 -3.53845 2.21773 0
M  V30 8349 N 790.784 -1.46188 -0.588786 0
M  V30 8350 C 792.032 -1.50885 -1.34455 0
M  V30 8351 C 792.353 -0.159555 -1.94346 0
M  V30 8352 O 791.623 0.813239 -1.78222 0
M  V30 8353 H 790.203 -0.555707 -0.499198 0
M  V30 8354 H 792.865 -1.82277 -0.690014 0
M  V30 8355 H 791.961 -2.25816 -2.15438 0
M  V30 8356 N 792.262 0.832906 -1.33792 0
M  V30 8357 C 793.509 1.58853 -1.25586 0
M  V30 8358 C 793.837 1.93695 0.176807 0
M  V30 8359 O 793.092 1.59386 1.13554 0
M  V30 8360 C 793.391 2.9047 -2.08235 0
M  V30 8361 C 793.057 2.74965 -3.57358 0
M  V30 8362 C 791.719 2.70444 -3.98012 0
M  V30 8363 C 794.071 2.59347 -4.52093 0
M  V30 8364 C 791.399 2.48212 -5.31608 0
M  V30 8365 C 793.751 2.38649 -5.85858 0
M  V30 8366 C 792.415 2.32533 -6.25687 0
M  V30 8367 H 791.685 0.581285 -0.459553 0
M  V30 8368 H 794.332 0.964501 -1.65438 0
M  V30 8369 H 792.637 3.57111 -1.6118 0
M  V30 8370 H 794.334 3.48001 -1.99239 0
M  V30 8371 H 790.924 2.79319 -3.25083 0
M  V30 8372 H 795.108 2.6187 -4.2159 0
M  V30 8373 H 790.364 2.41929 -5.61498 0
M  V30 8374 H 794.538 2.25549 -6.58863 0
M  V30 8375 H 792.165 2.15067 -7.29143 0
M  V30 8376 N 793.74 1.17359 1.05189 0
M  V30 8377 C 794.687 0.890325 2.12936 0
M  V30 8378 C 795.657 -0.165779 1.65271 0
M  V30 8379 O 796.842 -0.0285672 1.90779 0
M  V30 8380 C 793.982 0.409793 3.42658 0
M  V30 8381 C 793.095 1.53002 4.03998 0
M  V30 8382 C 792.23 1.00336 5.21638 0
M  V30 8383 C 791.269 2.09903 5.74984 0
M  V30 8384 N 790.406 1.58714 6.83926 0
M  V30 8385 H 795.246 1.81299 2.36505 0
M  V30 8386 H 792.783 0.904249 1.16025 0
M  V30 8387 H 794.741 0.112743 4.17048 0
M  V30 8388 H 793.371 -0.475915 3.19272 0
M  V30 8389 H 792.423 1.9428 3.27047 0
M  V30 8390 H 793.735 2.3564 4.39631 0
M  V30 8391 H 792.889 0.660158 6.03098 0
M  V30 8392 H 791.628 0.14642 4.8748 0
M  V30 8393 H 790.633 2.45081 4.92154 0
M  V30 8394 H 791.858 2.96013 6.1119 0
M  V30 8395 H 789.804 0.752915 6.51665 0
M  V30 8396 H 789.721 2.34959 7.18561 0
M  V30 8397 H 790.989 1.27287 7.69037 0
M  V30 8398 N 795.218 -1.23913 0.973828 0
M  V30 8399 C 796.165 -2.25132 0.508366 0
M  V30 8400 C 797.135 -1.59908 -0.449307 0
M  V30 8401 O 798.32 -1.87405 -0.358313 0
M  V30 8402 C 795.46 -3.4458 -0.189422 0
M  V30 8403 C 794.573 -4.24381 0.807738 0
M  V30 8404 C 793.708 -5.31131 0.0854315 0
M  V30 8405 C 792.747 -6.02635 1.07225 0
M  V30 8406 N 791.884 -7.01073 0.379535 0
M  V30 8407 H 796.724 -2.64313 1.37632 0
M  V30 8408 H 794.261 -1.29924 0.689802 0
M  V30 8409 H 796.219 -4.12706 -0.610733 0
M  V30 8410 H 794.849 -3.06218 -1.02129 0
M  V30 8411 H 793.901 -3.55735 1.34747 0
M  V30 8412 H 795.213 -4.73778 1.55998 0
M  V30 8413 H 794.367 -6.05422 -0.393572 0
M  V30 8414 H 793.106 -4.82658 -0.699461 0
M  V30 8415 H 792.111 -5.27143 1.56207 0
M  V30 8416 H 793.336 -6.53197 1.85769 0
M  V30 8417 H 791.282 -6.54862 -0.386269 0
M  V30 8418 H 791.199 -7.48382 1.07054 0
M  V30 8419 H 792.467 -7.79462 -0.0772984 0
M  V30 8420 O 796.735 -0.882192 -1.35276 0
M  V30 8421 H 797.426 -0.486499 -1.87491 0
M  V30 END ATOM
M  V30 BEGIN BOND
M  V30 END BOND
M  V30 END CTAB
M  END
$$$$
