drugbank_target|P62913 60S ribosomal protein L11 (DB02494; DB07374; DB08437)
 OpenBabel12092120423D

  0  0  0     0  0            999 V3000
M  V30 BEGIN CTAB
M  V30 COUNTS 2882 2905 0 0 0
M  V30 BEGIN ATOM
M  V30 1 H -0.908 1.98254 -0.117106 0
M  V30 2 N 0 1.576 0 0
M  V30 3 C 0.933 2.03868 1.02534 0
M  V30 4 C 1.911 0.928543 1.3348 0
M  V30 5 O 3.095 1.19667 1.45644 0
M  V30 6 C 0.222 2.43627 2.35294 0
M  V30 7 C -0.732 3.65373 2.2001 0
M  V30 8 S 0.101 5.13292 1.52614 0
M  V30 9 C 1.257 5.56322 2.86805 0
M  V30 10 H 1.49 2.90518 0.631377 0
M  V30 11 H -0.977 1.52953 0.210867 0
M  V30 12 H 0.981 2.67203 3.11629 0
M  V30 13 H -0.358 1.57376 2.7183 0
M  V30 14 H -1.165 3.90944 3.18086 0
M  V30 15 H -1.563 3.418 1.51819 0
M  V30 16 H 0.729 5.58782 3.83104 0
M  V30 17 H 1.672 6.56266 2.65933 0
M  V30 18 H 2.08 4.83886 2.90714 0
M  V30 19 N 1.4781 -0.272755 1.55222 0
M  V30 20 C 2.4411 -1.32041 1.87344 0
M  V30 21 C 3.4411 -1.42342 0.74803 0
M  V30 22 O 4.6311 -1.41488 1.0162 0
M  V30 23 C 1.7631 -2.70173 2.07893 0
M  V30 24 H 2.9561 -1.04789 2.80997 0
M  V30 25 H 0.5091 -0.51083 1.47717 0
M  V30 26 H 1.2441 -3.02605 1.16622 0
M  V30 27 H 1.0291 -2.64082 2.89833 0
M  V30 28 H 2.5191 -3.45869 2.34017 0
M  V30 29 N 2.9562 -1.48159 -0.537278 0
M  V30 30 C 3.8882 -1.58218 -1.65831 0
M  V30 31 C 4.9012 -0.466948 -1.5596 0
M  V30 32 O 6.0902 -0.73747 -1.62553 0
M  V30 33 C 3.1902 -1.48906 -3.04434 0
M  V30 34 C 2.3632 -2.75343 -3.3986 0
M  V30 35 C 1.4222 -2.59588 -4.57712 0
M  V30 36 O 0.4482 -3.33457 -4.61297 0
M  V30 37 N 1.6502 -1.68724 -5.55439 0
M  V30 38 H 4.4152 -2.54891 -1.57641 0
M  V30 39 H 1.9762 -1.4479 -0.724386 0
M  V30 40 H 3.9682 -1.36072 -3.81139 0
M  V30 41 H 2.5382 -0.602368 -3.06741 0
M  V30 42 H 1.7582 -3.02795 -2.52406 0
M  V30 43 H 3.0462 -3.5924 -3.60311 0
M  V30 44 H 2.4442 -1.07898 -5.55315 0
M  V30 45 H 1.0012 -1.61832 -6.3139 0
M  V30 46 N 4.4343 0.785586 -1.36625 0
M  V30 47 C 5.7113 1.53198 -1.21613 0
M  V30 48 C 6.0913 2.10187 0.196113 0
M  V30 49 O 5.4393 1.94318 1.20219 0
M  V30 50 C 5.6493 2.62388 -2.30116 0
M  V30 51 C 6.9973 3.30167 -2.66974 0
M  V30 52 O 8.0213 2.72674 -2.29188 0
M  V30 53 O 6.8803 4.34077 -3.32023 0
M  V30 54 H 3.9743 0.677865 -0.473738 0
M  V30 55 H 6.5203 0.823739 -1.48367 0
M  V30 56 H 5.2923 2.18299 -3.24748 0
M  V30 57 H 4.9153 3.40827 -2.0475 0
M  V30 58 N 5.9124 1.20967 1.01018 0
M  V30 59 C 6.8444 0.922059 2.09835 0
M  V30 60 C 7.8574 -0.0927106 1.62536 0
M  V30 61 O 9.0464 0.139127 1.77957 0
M  V30 62 C 6.1464 0.362004 3.36961 0
M  V30 63 C 5.3194 1.42986 4.13369 0
M  V30 64 C 4.3784 0.879976 5.1879 0
M  V30 65 O 3.4044 1.56219 5.47343 0
M  V30 66 N 4.6064 -0.307396 5.79686 0
M  V30 67 H 7.3714 1.8588 2.35093 0
M  V30 68 H 4.9324 1.11422 1.1746 0
M  V30 69 H 6.9244 -0.0201474 4.04695 0
M  V30 70 H 5.4944 -0.479437 3.08902 0
M  V30 71 H 4.7144 1.98608 3.40512 0
M  V30 72 H 6.0024 2.14885 4.61196 0
M  V30 73 H 5.4004 -0.878796 5.58832 0
M  V30 74 H 3.9574 -0.631115 6.48737 0
M  V30 75 N 7.3905 -1.2043 1.01659 0
M  V30 76 C 8.6385 -1.89423 0.704522 0
M  V30 77 C 8.9595 -1.79231 -0.768197 0
M  V30 78 O 8.2295 -1.1947 -1.55254 0
M  V30 79 H 6.8095 -0.701178 0.257602 0
M  V30 80 H 9.4715 -1.4626 1.28818 0
M  V30 81 H 8.5675 -2.96052 0.987916 0
M  V30 82 N 8.8686 -0.792821 -1.36206 0
M  V30 83 C 9.7786 -0.194808 -2.3379 0
M  V30 84 C 10.7946 0.654869 -1.61206 0
M  V30 85 O 11.9706 0.569856 -1.9317 0
M  V30 86 C 9.0356 0.657721 -3.40404 0
M  V30 87 C 8.0966 -0.210849 -4.28782 0
M  V30 88 C 7.3296 0.601086 -5.30304 0
M  V30 89 O 7.5526 1.83682 -5.40016 0
M  V30 90 O 6.4866 -0.000808277 -6.019 0
M  V30 91 H 10.3126 -1.00172 -2.86704 0
M  V30 92 H 7.8976 -0.554341 -1.38735 0
M  V30 93 H 9.7796 1.14375 -4.05581 0
M  V30 94 H 8.4546 1.44247 -2.89784 0
M  V30 95 H 7.3616 -0.743714 -3.66633 0
M  V30 96 H 8.6946 -0.959195 -4.82763 0
M  V30 97 N 10.3467 1.47872 -0.545128 0
M  V30 98 C 11.2937 2.29849 0.2093 0
M  V30 99 C 12.2637 1.38313 0.919707 0
M  V30 100 O 13.4487 1.67277 0.917772 0
M  V30 101 C 10.5887 3.22019 1.24088 0
M  V30 102 C 9.7017 4.2864 0.537778 0
M  V30 103 C 8.8367 5.07973 1.5536 0
M  V30 104 C 7.8757 6.06381 0.8348 0
M  V30 105 N 7.0127 6.78717 1.79688 0
M  V30 106 H 11.8527 2.93845 -0.49591 0
M  V30 107 H 9.3897 1.44848 -0.256389 0
M  V30 108 H 11.3477 3.73868 1.85144 0
M  V30 109 H 9.9777 2.59914 1.91428 0
M  V30 110 H 9.0297 3.7994 -0.187046 0
M  V30 111 H 10.3417 4.98793 -0.0258907 0
M  V30 112 H 9.4957 5.63912 2.23803 0
M  V30 113 H 8.2347 4.37693 2.15118 0
M  V30 114 H 7.2397 5.49631 0.136388 0
M  V30 115 H 8.4647 6.78665 0.24313 0
M  V30 116 H 6.4107 6.11177 2.38326 0
M  V30 117 H 6.3277 7.44998 1.28505 0
M  V30 118 H 7.5957 7.39237 2.47282 0
M  V30 119 N 11.8248 0.280983 1.55075 0
M  V30 120 C 12.7348 -0.61388 2.26426 0
M  V30 121 C 13.7508 -1.16521 1.29224 0
M  V30 122 O 14.9268 -1.19426 1.62171 0
M  V30 123 C 11.9918 -1.7788 2.9759 0
M  V30 124 C 11.0528 -1.26355 4.10284 0
M  V30 125 C 10.2858 -2.37295 4.78045 0
M  V30 126 O 10.5088 -3.56777 4.45047 0
M  V30 127 O 9.4428 -2.05119 5.65871 0
M  V30 128 H 13.2688 -0.0356932 3.03679 0
M  V30 129 H 10.8538 0.0481686 1.49322 0
M  V30 130 H 12.7358 -2.45791 3.42293 0
M  V30 131 H 11.4108 -2.34397 2.23249 0
M  V30 132 H 10.3178 -0.550735 3.70024 0
M  V30 133 H 11.6508 -0.744065 4.86543 0
M  V30 134 N 13.3029 -1.57598 0.00835791 0
M  V30 135 C 14.2509 -2.10078 -0.998508 0
M  V30 136 C 15.2449 -1.02262 -1.35051 0
M  V30 137 O 16.4509 -1.20719 -1.33518 0
M  V30 138 H 12.8259 -0.670903 -0.339696 0
M  V30 139 H 14.7969 -2.93648 -0.530398 0
M  V30 140 C 13.5459 -2.62615 -2.27879 0
M  V30 141 H 12.8689 -3.45213 -2.01662 0
M  V30 142 H 14.3089 -3.03004 -2.96588 0
M  V30 143 C 12.7679 -1.54407 -2.99433 0
M  V30 144 O 13.2979 -0.931812 -3.90743 0
M  V30 145 N 11.5039 -1.2695 -2.61404 0
M  V30 146 H 11.0509 -1.76924 -1.87232 0
M  V30 147 H 11.0089 -0.547704 -3.09593 0
M  V30 148 N 14.781 0.264519 -1.55364 0
M  V30 149 C 16.192 0.834936 -1.6699 0
M  V30 150 C 16.543 1.86718 -0.602552 0
M  V30 151 O 15.668 2.14899 0.254425 0
M  V30 152 C 16.263 1.5212 -3.02729 0
M  V30 153 C 14.822 2.03954 -3.16354 0
M  V30 154 C 13.969 0.884498 -2.62815 0
M  V30 155 H 16.92 0.0406869 -1.58648 0
M  V30 156 H 16.941 2.38853 -2.96191 0
M  V30 157 H 16.453 0.769668 -3.80392 0
M  V30 158 H 14.554 2.82041 -2.43482 0
M  V30 159 H 14.667 2.24902 -4.23032 0
M  V30 160 H 13.031 1.2802 -2.20188 0
M  V30 161 H 13.814 0.14634 -3.42988 0
M  V30 162 N 16.2591 1.48442 0.529413 0
M  V30 163 C 17.1921 1.57577 1.65059 0
M  V30 164 C 18.1701 0.426198 1.56915 0
M  V30 165 O 19.3541 0.637877 1.77379 0
M  V30 166 C 16.4811 1.5043 3.03461 0
M  V30 167 C 15.5271 2.70235 3.29962 0
M  V30 168 S 16.3601 4.32198 3.16172 0
M  V30 169 C 17.5161 4.2765 4.57019 0
M  V30 170 H 17.7491 2.52427 1.5706 0
M  V30 171 H 15.2821 1.36982 0.712417 0
M  V30 172 H 17.2401 1.46992 3.8328 0
M  V30 173 H 15.9011 0.569167 3.089 0
M  V30 174 H 15.0941 2.61374 4.30929 0
M  V30 175 H 14.6961 2.70938 2.57815 0
M  V30 176 H 16.9881 3.97618 5.48549 0
M  V30 177 H 17.9311 5.28797 4.70934 0
M  V30 178 H 18.3391 3.5811 4.36368 0
M  V30 179 N 17.7372 -0.778329 1.37039 0
M  V30 180 C 19.1532 -1.07796 1.17695 0
M  V30 181 C 19.3532 -2.01498 0.00860115 0
M  V30 182 O 18.4092 -2.43901 -0.653352 0
M  V30 183 C 19.7222 -1.68178 2.49272 0
M  V30 184 C 21.2702 -1.80467 2.55735 0
M  V30 185 C 21.7452 -2.44263 3.87427 0
M  V30 186 N 23.2362 -2.51721 3.88833 0
M  V30 187 C 23.9712 -3.01919 4.87476 0
M  V30 188 N 23.4672 -3.5234 5.96513 0
M  V30 189 N 25.2602 -3.00733 4.74885 0
M  V30 190 H 17.4112 -0.156032 2.11826 0
M  V30 191 H 19.6742 -0.131844 0.938787 0
M  V30 192 H 19.3802 -1.06796 3.35093 0
M  V30 193 H 19.2542 -2.67554 2.65885 0
M  V30 194 H 21.6412 -2.40984 1.70325 0
M  V30 195 H 21.7222 -0.798656 2.43013 0
M  V30 196 H 21.3662 -1.84388 4.73248 0
M  V30 197 H 21.2962 -3.45458 3.9745 0
M  V30 198 H 23.7872 -2.1603 3.10063 0
M  V30 199 H 24.1002 -3.89027 6.67741 0
M  V30 200 H 22.4452 -3.50462 6.00168 0
M  V30 201 H 25.6362 -2.60638 3.88826 0
M  V30 202 H 25.8092 -3.39545 5.51918 0
M  V30 203 N 19.2153 -1.21501 -1.00376 0
M  V30 204 C 20.1253 -0.991447 -2.12621 0
M  V30 205 C 21.1413 0.0568446 -1.73907 0
M  V30 206 O 22.3173 -0.13348 -2.00957 0
M  V30 207 C 19.3823 -0.560312 -3.42142 0
M  V30 208 C 18.4433 -1.68096 -3.95022 0
M  V30 209 C 17.6763 -1.2703 -5.18362 0
M  V30 210 O 17.8993 -0.144438 -5.70217 0
M  V30 211 O 16.8333 -2.08269 -5.64719 0
M  V30 212 H 20.6593 -1.93158 -2.34358 0
M  V30 213 H 18.2443 -0.999999 -1.10997 0
M  V30 214 H 20.1263 -0.329724 -4.20108 0
M  V30 215 H 18.8013 0.351089 -3.2179 0
M  V30 216 H 17.7083 -1.96597 -3.18278 0
M  V30 217 H 19.0413 -2.56983 -4.19786 0
M  V30 218 N 20.6934 1.19889 -1.02296 0
M  V30 219 C 21.6234 2.25141 -0.619174 0
M  V30 220 C 22.6044 1.66051 0.368915 0
M  V30 221 O 23.7894 1.92546 0.252941 0
M  V30 222 C 20.9194 3.4728 0.0368783 0
M  V30 223 C 19.8734 4.19005 -0.872865 0
M  V30 224 C 19.1994 5.34637 -0.0822402 0
M  V30 225 C 20.4994 4.74452 -2.18387 0
M  V30 226 H 22.1934 2.59171 -1.49903 0
M  V30 227 H 19.7394 1.24579 -0.722222 0
M  V30 228 H 21.6924 4.20098 0.330958 0
M  V30 229 H 20.4164 3.12433 0.95149 0
M  V30 230 H 19.0754 3.48061 -1.15105 0
M  V30 231 H 18.7234 4.96034 0.83422 0
M  V30 232 H 18.4234 5.83557 -0.688149 0
M  V30 233 H 19.9474 6.10255 0.205238 0
M  V30 234 H 21.3614 5.39055 -1.95172 0
M  V30 235 H 19.7584 5.33834 -2.74119 0
M  V30 236 H 20.8284 3.92844 -2.84257 0
M  V30 237 N 22.1715 0.800033 1.35784 0
M  V30 238 C 23.5875 0.482977 1.52117 0
M  V30 239 C 23.7875 -0.996948 1.75109 0
M  V30 240 O 22.8435 -1.78216 1.78872 0
M  V30 241 C 24.1565 1.32264 2.70049 0
M  V30 242 C 25.7045 1.31742 2.83924 0
M  V30 243 C 26.1795 2.14106 4.04874 0
M  V30 244 N 27.6705 2.11607 4.12039 0
M  V30 245 C 28.4055 2.72099 5.04727 0
M  V30 246 N 27.9015 3.41492 6.02789 0
M  V30 247 N 29.6945 2.61776 4.97423 0
M  V30 248 H 21.8455 1.75856 1.19115 0
M  V30 249 H 24.1085 0.748122 0.582252 0
M  V30 250 H 23.8145 2.37261 2.59616 0
M  V30 251 H 23.6885 0.971303 3.6448 0
M  V30 252 H 26.0755 0.275333 2.93813 0
M  V30 253 H 26.1565 1.70859 1.9037 0
M  V30 254 H 25.8005 3.18351 3.95746 0
M  V30 255 H 25.7305 1.72353 4.97596 0
M  V30 256 H 28.2215 1.61112 3.41835 0
M  V30 257 H 28.5345 3.84953 6.70098 0
M  V30 258 H 26.8795 3.45596 6.02983 0
M  V30 259 H 30.0705 2.07157 4.19766 0
M  V30 260 H 30.2435 3.0921 5.69468 0
M  V30 261 N 23.6496 -1.47581 0.552962 0
M  V30 262 C 24.8986 -2.01684 0.0251995 0
M  V30 263 C 25.2116 -1.43317 -1.33115 0
M  V30 264 O 26.4176 -1.89057 -1.94858 0
M  V30 265 C 24.8736 -3.599 -0.00542052 0
M  V30 266 C 24.4816 -4.27257 1.34742 0
M  V30 267 C 26.2256 -4.21768 -0.4808 0
M  V30 268 C 24.1326 -5.77467 1.27614 0
M  V30 269 H 23.0626 -0.753979 0.00565033 0
M  V30 270 H 25.7136 -1.69616 0.70018 0
M  V30 271 H 24.0956 -3.88911 -0.745961 0
M  V30 272 H 25.2696 -4.09893 2.10534 0
M  V30 273 H 23.5846 -3.77358 1.76039 0
M  V30 274 H 26.1816 -5.31838 -0.55246 0
M  V30 275 H 26.5246 -3.88651 -1.49184 0
M  V30 276 H 27.0576 -3.97273 0.204752 0
M  V30 277 H 23.7966 -6.15196 2.26304 0
M  V30 278 H 23.3166 -5.9718 0.55996 0
M  V30 279 H 24.9956 -6.3959 0.976421 0
M  V30 280 N 25.1277 -0.289203 -1.54924 0
M  V30 281 C 26.5437 0.0645403 -1.59469 0
M  V30 282 C 26.7437 1.53419 -1.30632 0
M  V30 283 O 25.7997 2.2852 -1.074 0
M  V30 284 C 27.1127 -0.32278 -2.98963 0
M  V30 285 C 28.6607 -0.270564 -3.11828 0
M  V30 286 C 29.1357 -0.632532 -4.53611 0
M  V30 287 N 30.6267 -0.584617 -4.59496 0
M  V30 288 C 31.3617 -0.837314 -5.67254 0
M  V30 289 N 30.8577 -1.15536 -6.83098 0
M  V30 290 N 32.6507 -0.765166 -5.56868 0
M  V30 291 H 24.8017 -1.24714 -1.71931 0
M  V30 292 H 27.0647 -0.504809 -0.802416 0
M  V30 293 H 26.7707 -1.34541 -3.24948 0
M  V30 294 H 26.6447 0.32944 -3.75759 0
M  V30 295 H 29.0317 0.742805 -2.85598 0
M  V30 296 H 29.1127 -0.957242 -2.37214 0
M  V30 297 H 28.7567 -1.64365 -4.80569 0
M  V30 298 H 28.6867 0.07609 -5.26545 0
M  V30 299 H 31.1777 -0.349248 -3.76283 0
M  V30 300 H 31.4907 -1.33447 -7.61191 0
M  V30 301 H 29.8357 -1.19328 -6.84679 0
M  V30 302 H 33.0267 -0.516432 -4.65243 0
M  V30 303 H 33.1997 -0.965477 -6.40767 0
M  V30 304 N 26.6058 1.57591 -0.0167156 0
M  V30 305 C 27.5528 2.09462 0.969251 0
M  V30 306 C 28.5228 0.99381 1.33089 0
M  V30 307 O 29.7078 1.26726 1.42636 0
M  V30 308 C 26.8478 2.61622 2.25051 0
M  V30 309 C 25.9608 3.85666 1.94642 0
M  V30 310 C 25.0958 4.26266 3.16972 0
M  V30 311 C 24.1348 5.43101 2.82326 0
M  V30 312 N 23.2718 5.78915 3.97243 0
M  V30 313 H 28.1118 2.93428 0.519997 0
M  V30 314 H 25.6488 1.45044 0.245087 0
M  V30 315 H 27.6068 2.89949 2.99976 0
M  V30 316 H 26.2368 1.80505 2.67615 0
M  V30 317 H 25.2888 3.64145 1.10013 0
M  V30 318 H 26.6008 4.70678 1.65117 0
M  V30 319 H 25.7548 4.55963 4.00228 0
M  V30 320 H 24.4938 3.39996 3.49648 0
M  V30 321 H 23.4988 5.1311 1.97479 0
M  V30 322 H 24.7238 6.3106 2.50879 0
M  V30 323 H 22.6698 4.95602 4.29785 0
M  V30 324 H 22.5868 6.58539 3.71299 0
M  V30 325 H 23.8548 6.13212 4.81239 0
M  V30 326 N 28.0839 -0.256276 1.55502 0
M  V30 327 C 29.0139 -1.32102 1.92539 0
M  V30 328 C 29.9949 -1.50684 0.789194 0
M  V30 329 O 31.1799 -1.63449 1.04872 0
M  V30 330 C 28.3099 -2.67752 2.21192 0
M  V30 331 C 27.2639 -2.63878 3.36975 0
M  V30 332 C 26.5899 -4.03236 3.51147 0
M  V30 333 C 27.8899 -2.21682 4.72921 0
M  V30 334 H 29.5839 -1.01351 2.81724 0
M  V30 335 H 27.1299 -0.486105 1.35547 0
M  V30 336 H 29.0829 -3.42365 2.45691 0
M  V30 337 H 27.8069 -3.0012 1.28824 0
M  V30 338 H 26.4659 -1.91722 3.12471 0
M  V30 339 H 26.1139 -4.32854 2.56216 0
M  V30 340 H 25.8139 -4.01535 4.29003 0
M  V30 341 H 27.3379 -4.79563 3.77957 0
M  V30 342 H 28.7519 -2.86023 4.96854 0
M  V30 343 H 27.1489 -2.3111 5.53812 0
M  V30 344 H 28.2189 -1.16833 4.70615 0
M  V30 345 N 29.562 -1.4872 -0.521534 0
M  V30 346 C 30.802 -1.58771 -1.28729 0
M  V30 347 C 31.166 -0.259394 -1.9024 0
M  V30 348 O 32.367 -0.234942 -2.67771 0
M  V30 349 C 30.638 -2.70039 -2.34124 0
M  V30 350 S 32.197 -2.9991 -3.20312 0
M  V30 351 H 29.015 -0.560251 -0.437767 0
M  V30 352 H 31.617 -1.86283 -0.593188 0
M  V30 353 H 30.321 -3.65101 -1.87429 0
M  V30 354 H 29.852 -2.44455 -3.08229 0
M  V30 355 H 31.867 -2.39855 -4.34378 0
M  V30 356 N 31.0401 0.771051 -1.3745 0
M  V30 357 C 31.9701 1.89827 -1.3597 0
M  V30 358 C 32.9511 1.68562 -0.228216 0
M  V30 359 O 34.1361 1.8941 -0.428675 0
M  V30 360 C 31.2661 3.2712 -1.16662 0
M  V30 361 C 30.2201 3.6295 -2.2683 0
M  V30 362 C 29.5461 4.98791 -1.92644 0
M  V30 363 C 30.8461 3.69627 -3.69017 0
M  V30 364 H 32.5401 1.91323 -2.30295 0
M  V30 365 H 30.0861 0.919082 -1.10855 0
M  V30 366 H 32.0391 4.05615 -1.14256 0
M  V30 367 H 30.7631 3.26059 -0.187926 0
M  V30 368 H 29.4221 2.86763 -2.28392 0
M  V30 369 H 29.0701 4.94271 -0.933021 0
M  V30 370 H 28.7701 5.23733 -2.66416 0
M  V30 371 H 30.2941 5.79685 -1.91826 0
M  V30 372 H 31.7081 4.38273 -3.69581 0
M  V30 373 H 30.1051 4.06067 -4.41848 0
M  V30 374 H 31.1751 2.70273 -4.02592 0
M  V30 375 N 32.5182 1.22032 0.997298 0
M  V30 376 C 33.4662 0.983634 2.10778 0
M  V30 377 C 34.4602 -0.0717564 1.69248 0
M  V30 378 O 35.6662 0.080304 1.79821 0
M  V30 379 H 32.0412 0.300877 0.689186 0
M  V30 380 H 34.0122 1.92606 2.27916 0
M  V30 381 C 32.7612 0.57326 3.42942 0
M  V30 382 H 32.0842 1.37702 3.75338 0
M  V30 383 H 33.5242 0.447031 4.21637 0
M  V30 384 C 31.9832 -0.7167 3.29188 0
M  V30 385 O 32.5132 -1.77027 3.60589 0
M  V30 386 N 30.7192 -0.686167 2.82383 0
M  V30 387 H 30.2662 0.171507 2.57028 0
M  V30 388 H 30.2242 -1.54955 2.73562 0
M  V30 389 N 33.9963 -1.19345 1.0293 0
M  V30 390 C 35.2453 -1.88363 0.721256 0
M  V30 391 C 35.5583 -1.80514 -0.753254 0
M  V30 392 O 36.7643 -2.44788 -1.17436 0
M  V30 393 C 35.2203 -3.37872 1.23978 0
M  V30 394 C 34.8283 -3.54278 2.74211 0
M  V30 395 C 36.5723 -4.12365 1.00775 0
M  V30 396 C 34.4793 -4.97682 3.19479 0
M  V30 397 H 33.4093 -0.705484 0.266098 0
M  V30 398 H 36.0603 -1.34928 1.24365 0
M  V30 399 H 34.4423 -3.90707 0.6453 0
M  V30 400 H 35.6163 -3.11769 3.39318 0
M  V30 401 H 33.9313 -2.93174 2.95699 0
M  V30 402 H 36.5283 -5.18119 1.32123 0
M  V30 403 H 36.8713 -4.16263 -0.0554308 0
M  V30 404 H 37.4043 -3.65668 1.56625 0
M  V30 405 H 34.1433 -4.98945 4.25128 0
M  V30 406 H 33.6633 -5.4095 2.591 0
M  V30 407 H 35.3423 -5.66337 3.12845 0
M  V30 408 N 35.4744 -0.807222 -1.35358 0
M  V30 409 C 36.7144 -0.393534 -2.00576 0
M  V30 410 C 37.0784 1.0203 -1.62647 0
M  V30 411 O 38.2794 1.53603 -2.20589 0
M  V30 412 C 36.5504 -0.572017 -3.52793 0
M  V30 413 S 38.1094 -0.248845 -4.38094 0
M  V30 414 H 34.9274 -0.149425 -0.695121 0
M  V30 415 H 37.5294 -1.04961 -1.64935 0
M  V30 416 H 36.2334 -1.60097 -3.77885 0
M  V30 417 H 35.7644 0.099359 -3.93275 0
M  V30 418 H 37.7794 0.943253 -4.87152 0
M  V30 419 N 36.9525 1.47285 -0.560781 0
M  V30 420 C 38.1985 2.02764 -0.0381184 0
M  V30 421 C 38.5315 1.43384 1.30976 0
M  V30 422 O 37.8065 0.590733 1.85312 0
M  V30 423 C 38.0895 3.60064 0.0511427 0
M  V30 424 C 37.9425 4.2987 -1.32408 0
M  V30 425 C 39.2615 4.33439 0.762795 0
M  V30 426 H 36.3805 0.736841 -0.0153264 0
M  V30 427 H 39.0225 1.75675 -0.723759 0
M  V30 428 H 37.1725 3.83274 0.635065 0
M  V30 429 H 38.8445 4.17989 -1.95148 0
M  V30 430 H 37.0875 3.90085 -1.8978 0
M  V30 431 H 37.7585 5.38478 -1.21431 0
M  V30 432 H 40.2345 4.15243 0.266965 0
M  V30 433 H 39.1105 5.43124 0.794221 0
M  V30 434 H 39.3715 4.02915 1.81966 0
M  V30 435 N 38.4306 0.297415 1.54768 0
M  V30 436 C 39.6786 -0.312295 1.99673 0
M  V30 437 C 39.9996 -1.54686 1.18732 0
M  V30 438 O 39.2696 -1.93854 0.282382 0
M  V30 439 H 37.8496 -0.118381 0.73756 0
M  V30 440 H 40.5116 0.407915 1.90583 0
M  V30 441 H 39.6076 -0.586813 3.06534 0
M  V30 442 N 39.9087 -1.5758 0.0250728 0
M  V30 443 C 40.8187 -2.1343 -0.973905 0
M  V30 444 C 41.8347 -1.08556 -1.35984 0
M  V30 445 O 43.0107 -1.40592 -1.44207 0
M  V30 446 C 40.0757 -2.64703 -2.23904 0
M  V30 447 C 39.1367 -3.84276 -1.91391 0
M  V30 448 C 38.3697 -4.33095 -3.11873 0
M  V30 449 O 38.5927 -3.81107 -4.24398 0
M  V30 450 O 37.5267 -5.24984 -2.94406 0
M  V30 451 H 41.3527 -2.99057 -0.529036 0
M  V30 452 H 38.9377 -1.48118 -0.195288 0
M  V30 453 H 40.8197 -2.97769 -2.98181 0
M  V30 454 H 39.4947 -1.82161 -2.6758 0
M  V30 455 H 38.4017 -3.56143 -1.14511 0
M  V30 456 H 39.7347 -4.67968 -1.52534 0
M  V30 457 N 41.3868 0.248026 -1.55636 0
M  V30 458 C 42.6118 0.998028 -1.81808 0
M  V30 459 C 43.0368 1.78207 -0.601979 0
M  V30 460 O 42.3948 1.75653 0.448961 0
M  V30 461 C 42.4428 1.9125 -3.05705 0
M  V30 462 O 41.5468 3.00406 -2.82542 0
M  V30 463 H 40.8878 0.284045 -0.600179 0
M  V30 464 H 43.4178 0.269357 -2.02819 0
M  V30 465 H 43.4278 2.32737 -3.35108 0
M  V30 466 H 42.1028 1.33602 -3.93857 0
M  V30 467 H 40.6798 2.63056 -2.64303 0
M  V30 468 N 42.8649 1.48995 0.513639 0
M  V30 469 C 44.1129 1.57531 1.26604 0
M  V30 470 C 44.4339 0.258236 1.93283 0
M  V30 471 O 43.7039 -0.721502 1.8213 0
M  V30 472 H 42.2839 0.580387 0.470276 0
M  V30 473 H 44.9459 1.85552 0.596373 0
M  V30 474 H 44.0419 2.36486 2.03669 0
M  V30 475 N 44.343 -0.763751 1.37857 0
M  V30 476 C 45.62 -1.51244 1.24035 0
M  V30 477 C 46 -2.10472 -0.162649 0
M  V30 478 O 45.348 -1.96206 -1.17112 0
M  V30 479 C 45.558 -2.58694 2.34261 0
M  V30 480 C 46.906 -3.25878 2.72193 0
M  V30 481 O 47.93 -2.68993 2.33497 0
M  V30 482 O 46.789 -4.2874 3.38887 0
M  V30 483 H 43.883 -0.670243 0.484462 0
M  V30 484 H 46.429 -0.800031 1.49658 0
M  V30 485 H 45.201 -2.13105 3.2818 0
M  V30 486 H 44.824 -3.37527 2.10146 0
M  V30 487 N 45.8211 -1.22559 -0.990812 0
M  V30 488 C 47.2371 -0.985996 -1.255 0
M  V30 489 C 47.4371 0.319173 -1.98956 0
M  V30 490 O 46.4931 1.04127 -2.3003 0
M  V30 491 C 47.8061 -2.18607 -2.06474 0
M  V30 492 C 49.3541 -2.22985 -2.19651 0
M  V30 493 C 49.8291 -3.4255 -3.04012 0
M  V30 494 N 51.3201 -3.42725 -3.11599 0
M  V30 495 C 52.0551 -4.31892 -3.7717 0
M  V30 496 N 51.5511 -5.31279 -4.44651 0
M  V30 497 N 53.3441 -4.19662 -3.73952 0
M  V30 498 H 45.4951 -2.06469 -0.49841 0
M  V30 499 H 47.7581 -0.904853 -0.282747 0
M  V30 500 H 47.4641 -3.13267 -1.59865 0
M  V30 501 H 47.3381 -2.18838 -3.07229 0
M  V30 502 H 49.7251 -1.28871 -2.65474 0
M  V30 503 H 49.8061 -2.26791 -1.18319 0
M  V30 504 H 49.4501 -4.36965 -2.58889 0
M  V30 505 H 49.3801 -3.35984 -4.0549 0
M  V30 506 H 51.8711 -2.70807 -2.63575 0
M  V30 507 H 52.1841 -5.95593 -4.92431 0
M  V30 508 H 50.5291 -5.3519 -4.43392 0
M  V30 509 H 53.7201 -3.41268 -3.20396 0
M  V30 510 H 53.8931 -4.89358 -4.24774 0
M  V30 511 N 47.2992 1.18797 -1.03562 0
M  V30 512 C 48.2292 2.24472 -0.643019 0
M  V30 513 C 49.2102 1.66433 0.351283 0
M  V30 514 O 50.3952 1.92803 0.232505 0
M  V30 515 C 47.5252 3.473 4.24935e-05 0
M  V30 516 C 46.4792 4.18055 -0.917257 0
M  V30 517 C 45.8052 5.34519 -0.138941 0
M  V30 518 C 47.1052 4.72109 -2.23407 0
M  V30 519 H 48.7992 2.57566 -1.52643 0
M  V30 520 H 46.3452 1.23806 -0.735394 0
M  V30 521 H 48.2982 4.20426 0.286383 0
M  V30 522 H 47.0222 3.13424 0.918299 0
M  V30 523 H 45.6812 3.46821 -1.1879 0
M  V30 524 H 45.3292 4.96891 0.781562 0
M  V30 525 H 45.0292 5.82794 -0.750005 0
M  V30 526 H 46.5532 6.10438 0.1405 0
M  V30 527 H 47.9672 5.36955 -2.00879 0
M  V30 528 H 46.3642 5.30897 -2.79765 0
M  V30 529 H 47.4342 3.89807 -2.88407 0
M  V30 530 N 48.7773 0.814389 1.34928 0
M  V30 531 C 50.0053 0.411136 2.02774 0
M  V30 532 C 50.4203 -0.980316 1.61354 0
M  V30 533 O 49.7773 -1.63299 0.814847 0
M  V30 534 C 49.8283 0.493865 3.58111 0
M  V30 535 O 49.5493 1.83047 3.98027 0
M  V30 536 C 51.0503 0.0844174 4.4322 0
M  V30 537 H 48.2703 0.166037 0.650133 0
M  V30 538 H 50.8143 1.10018 1.72384 0
M  V30 539 H 48.9693 -0.147006 3.87121 0
M  V30 540 H 49.3833 1.79872 4.92693 0
M  V30 541 H 50.8573 0.193404 5.51661 0
M  V30 542 H 51.3343 -0.97113 4.28329 0
M  V30 543 H 51.9403 0.69875 4.19521 0
M  V30 544 N 50.2554 -1.46986 0.568584 0
M  V30 545 C 51.6714 -1.57946 0.229189 0
M  V30 546 C 51.8714 -1.56567 -1.26843 0
M  V30 547 O 50.9274 -1.47511 -2.04931 0
M  V30 548 C 52.2404 -2.87963 0.865909 0
M  V30 549 C 53.7884 -3.01568 0.838188 0
M  V30 550 C 54.2634 -4.34301 1.45419 0
M  V30 551 N 55.7544 -4.40965 1.41788 0
M  V30 552 C 56.4894 -5.42256 1.86403 0
M  V30 553 N 55.9854 -6.50297 2.38926 0
M  V30 554 N 57.7784 -5.3337 1.77405 0
M  V30 555 H 49.9294 -1.46126 1.54146 0
M  V30 556 H 52.1924 -0.696156 0.643484 0
M  V30 557 H 51.8984 -2.94742 1.91886 0
M  V30 558 H 51.7724 -3.75423 0.365687 0
M  V30 559 H 54.1594 -2.94379 -0.206106 0
M  V30 560 H 54.2404 -2.1562 1.37629 0
M  V30 561 H 53.8844 -4.42247 2.49761 0
M  V30 562 H 53.8144 -5.19 0.891435 0
M  V30 563 H 56.3054 -3.63484 1.03381 0
M  V30 564 H 56.6184 -7.23777 2.70863 0
M  V30 565 H 54.9634 -6.51155 2.42944 0
M  V30 566 H 58.1544 -4.47865 1.3614 0
M  V30 567 H 58.3274 -6.12169 2.12492 0
M  V30 568 N 51.7335 -0.305618 -1.54608 0
M  V30 569 C 52.6965 0.555591 -2.22364 0
M  V30 570 C 53.6965 1.05768 -1.21119 0
M  V30 571 O 54.8865 0.952972 -1.45822 0
M  V30 572 C 52.0185 1.76974 -2.91364 0
M  V30 573 H 53.2115 -0.0364572 -2.99878 0
M  V30 574 H 50.7645 -0.0565007 -1.56198 0
M  V30 575 H 51.4995 2.40151 -2.17941 0
M  V30 576 H 51.2845 1.41732 -3.65588 0
M  V30 577 H 52.7745 2.38148 -3.43038 0
M  V30 578 N 53.2116 1.57565 -0.0334293 0
M  V30 579 C 54.1746 2.09393 0.932048 0
M  V30 580 C 55.1746 1.00986 1.25134 0
M  V30 581 O 56.3646 1.27129 1.19096 0
M  V30 582 C 53.4966 2.56338 2.2473 0
M  V30 583 H 54.6896 2.95984 0.483085 0
M  V30 584 H 52.2426 1.54819 0.21468 0
M  V30 585 H 52.9776 1.7309 2.74245 0
M  V30 586 H 52.7626 3.35542 2.02865 0
M  V30 587 H 54.2526 2.96646 2.93923 0
M  V30 588 N 54.6897 -0.239769 1.55765 0
M  V30 589 C 55.6367 -1.29696 1.90913 0
M  V30 590 C 56.6067 -1.47478 0.764164 0
M  V30 591 O 57.7917 -1.61345 1.01845 0
M  V30 592 C 54.9317 -2.64598 2.21544 0
M  V30 593 C 54.0447 -2.54765 3.48882 0
M  V30 594 C 53.1797 -3.82069 3.69049 0
M  V30 595 C 52.2187 -3.66883 4.89963 0
M  V30 596 N 51.3557 -4.86094 5.06614 0
M  V30 597 H 56.1957 -0.990224 2.81067 0
M  V30 598 H 53.7327 -0.477684 1.39128 0
M  V30 599 H 55.6907 -3.43132 2.3731 0
M  V30 600 H 54.3207 -2.93405 1.34585 0
M  V30 601 H 53.3727 -1.67763 3.41409 0
M  V30 602 H 54.6847 -2.39457 4.37563 0
M  V30 603 H 53.8387 -4.69046 3.84812 0
M  V30 604 H 52.5777 -4.00282 2.78614 0
M  V30 605 H 51.5827 -2.78289 4.74168 0
M  V30 606 H 52.8077 -3.50157 5.81865 0
M  V30 607 H 50.7537 -5.04655 4.19117 0
M  V30 608 H 50.6707 -4.73443 5.89396 0
M  V30 609 H 51.9387 -5.74549 5.26795 0
M  V30 610 N 56.1678 -1.49265 -0.50573 0
M  V30 611 C 57.4138 -1.58748 -1.26202 0
M  V30 612 C 57.7468 -0.271227 -1.92297 0
M  V30 613 O 57.0218 0.724831 -1.80489 0
M  V30 614 C 57.3048 -2.74332 -2.33268 0
M  V30 615 C 57.1578 -4.15737 -1.71705 0
M  V30 616 C 58.4768 -2.85576 -3.34865 0
M  V30 617 H 55.5958 -0.577826 -0.457478 0
M  V30 618 H 58.2378 -1.81532 -0.560897 0
M  V30 619 H 56.3878 -2.55036 -2.93068 0
M  V30 620 H 58.0598 -4.46537 -1.15769 0
M  V30 621 H 56.3028 -4.21605 -1.02135 0
M  V30 622 H 56.9738 -4.92477 -2.49341 0
M  V30 623 H 59.4498 -3.03127 -2.8505 0
M  V30 624 H 58.3258 -3.68135 -4.07146 0
M  V30 625 H 58.5868 -1.94732 -3.96903 0
M  V30 626 N 57.6459 0.756429 -1.3826 0
M  V30 627 C 58.5759 1.88374 -1.37976 0
M  V30 628 C 59.5569 1.68311 -0.246082 0
M  V30 629 O 60.7419 1.88944 -0.44874 0
M  V30 630 C 57.8719 3.25864 -1.20125 0
M  V30 631 C 56.8259 3.60523 -2.30666 0
M  V30 632 C 56.1519 4.9672 -1.97923 0
M  V30 633 C 57.4519 3.65692 -3.72916 0
M  V30 634 H 59.1459 1.88869 -2.32312 0
M  V30 635 H 56.6919 0.907272 -1.11824 0
M  V30 636 H 58.6449 4.0438 -1.18552 0
M  V30 637 H 57.3689 3.25841 -0.222498 0
M  V30 638 H 56.0279 2.84324 -2.3142 0
M  V30 639 H 55.6759 4.93253 -0.985393 0
M  V30 640 H 55.3759 5.20878 -2.71955 0
M  V30 641 H 56.8999 5.77618 -1.97964 0
M  V30 642 H 58.3139 4.34328 -3.74208 0
M  V30 643 H 56.7109 4.01358 -4.4613 0
M  V30 644 H 57.7809 2.65987 -4.05436 0
M  V30 645 N 59.124 1.23083 0.984299 0
M  V30 646 C 60.034 1.02515 2.11016 0
M  V30 647 C 61.05 -0.0291702 1.73976 0
M  V30 648 O 62.226 0.165434 2.00719 0
M  V30 649 C 59.291 0.614673 3.41208 0
M  V30 650 C 58.352 1.74359 3.92297 0
M  V30 651 C 57.585 1.35261 5.16275 0
M  V30 652 O 57.808 0.235136 5.69915 0
M  V30 653 O 56.742 2.17227 5.61334 0
M  V30 654 H 60.568 1.96862 2.31255 0
M  V30 655 H 58.153 1.01753 1.09392 0
M  V30 656 H 60.035 0.396518 4.1953 0
M  V30 657 H 58.71 -0.299851 3.22308 0
M  V30 658 H 57.617 2.01635 3.1511 0
M  V30 659 H 58.95 2.63629 4.15645 0
M  V30 660 N 60.6021 -1.18246 1.0419 0
M  V30 661 C 61.5341 -2.2142 0.592088 0
M  V30 662 C 62.5471 -1.59233 -0.338909 0
M  V30 663 O 63.7361 -1.78002 -0.133231 0
M  V30 664 C 60.8361 -3.38546 -0.154854 0
M  V30 665 C 60.0091 -4.3031 0.784328 0
M  V30 666 C 59.0681 -5.26138 0.0804583 0
M  V30 667 O 58.0941 -5.64738 0.711292 0
M  V30 668 N 59.2961 -5.68261 -1.18574 0
M  V30 669 H 62.0611 -2.60636 1.47949 0
M  V30 670 H 59.6221 -1.33044 0.922544 0
M  V30 671 H 61.6141 -3.99678 -0.635606 0
M  V30 672 H 60.1841 -2.98012 -0.943811 0
M  V30 673 H 59.4041 -3.66764 1.44491 0
M  V30 674 H 60.6921 -4.8852 1.42218 0
M  V30 675 H 60.0901 -5.38957 -1.71876 0
M  V30 676 H 58.6471 -6.31584 -1.61074 0
M  V30 677 N 62.0802 -0.821533 -1.34494 0
M  V30 678 C 63.0102 -0.257138 -2.3208 0
M  V30 679 C 63.9912 0.625645 -1.58176 0
M  V30 680 O 65.1762 0.552811 -1.86166 0
M  V30 681 C 62.3062 0.582958 -3.42372 0
M  V30 682 C 61.2602 -0.202571 -4.2752 0
M  V30 683 C 60.5862 0.760179 -5.29269 0
M  V30 684 C 61.8862 -1.40998 -5.02908 0
M  V30 685 H 63.5802 -1.07247 -2.79532 0
M  V30 686 H 61.1262 -0.517163 -1.34393 0
M  V30 687 H 63.0792 0.987972 -4.09655 0
M  V30 688 H 61.8032 1.43133 -2.93565 0
M  V30 689 H 60.4622 -0.588936 -3.61838 0
M  V30 690 H 60.1102 1.60447 -4.76724 0
M  V30 691 H 59.8102 0.238809 -5.87115 0
M  V30 692 H 61.3342 1.16308 -5.9942 0
M  V30 693 H 62.7482 -1.07905 -5.63054 0
M  V30 694 H 61.1452 -1.86689 -5.70322 0
M  V30 695 H 62.2152 -2.1889 -4.32684 0
M  V30 696 N 63.5583 1.46682 -0.576371 0
M  V30 697 C 64.7863 2.06798 -0.0649635 0
M  V30 698 C 65.2013 1.42612 1.23723 0
M  V30 699 O 64.5583 0.529203 1.74659 0
M  V30 700 C 64.6093 3.6132 0.114202 0
M  V30 701 O 64.3303 4.23104 -1.13644 0
M  V30 702 C 65.8313 4.38349 0.66069 0
M  V30 703 H 63.0513 0.668778 -0.0545616 0
M  V30 704 H 65.5953 1.88404 -0.795237 0
M  V30 705 H 63.7503 3.79162 0.794673 0
M  V30 706 H 64.1643 5.15894 -0.946253 0
M  V30 707 H 65.6383 5.47081 0.73526 0
M  V30 708 H 66.1153 4.05953 1.67627 0
M  V30 709 H 66.7213 4.25297 0.0152951 0
M  V30 710 N 65.0364 0.313813 1.54444 0
M  V30 711 C 66.2844 -0.291099 1.99993 0
M  V30 712 C 66.6054 -1.53418 1.20366 0
M  V30 713 O 65.8754 -1.93544 0.302927 0
M  V30 714 H 64.4554 -0.110552 0.738774 0
M  V30 715 H 67.1174 0.428106 1.9014 0
M  V30 716 H 66.2134 -0.554268 3.07139 0
M  V30 717 N 66.5145 -1.57545 0.0417849 0
M  V30 718 C 67.4465 -2.07904 -0.964799 0
M  V30 719 C 68.4595 -1.00497 -1.28079 0
M  V30 720 O 69.6485 -1.28087 -1.24322 0
M  V30 721 C 66.7485 -2.49928 -2.28887 0
M  V30 722 C 65.9215 -3.80562 -2.15619 0
M  V30 723 C 64.9805 -4.08999 -3.31069 0
M  V30 724 O 64.0065 -4.79061 -3.0739 0
M  V30 725 N 65.2085 -3.6017 -4.55256 0
M  V30 726 H 67.9735 -2.94886 -0.535029 0
M  V30 727 H 65.5345 -1.61252 -0.144681 0
M  V30 728 H 67.5265 -2.66034 -3.04972 0
M  V30 729 H 66.0965 -1.68245 -2.63463 0
M  V30 730 H 65.3165 -3.74129 -1.24183 0
M  V30 731 H 66.6045 -4.66126 -2.03971 0
M  V30 732 H 66.0025 -3.03512 -4.77386 0
M  V30 733 H 64.5595 -3.81532 -5.28466 0
M  V30 734 N 67.9926 0.231505 -1.5589 0
M  V30 735 C 69.2206 0.974505 -1.82513 0
M  V30 736 C 69.6356 1.78344 -0.619591 0
M  V30 737 O 68.9926 1.77792 0.411848 0
M  V30 738 C 69.0436 1.90007 -3.07538 0
M  V30 739 O 68.7646 1.12385 -4.2344 0
M  V30 740 C 70.2656 2.75779 -3.47075 0
M  V30 741 H 67.4856 0.286065 -0.606966 0
M  V30 742 H 70.0296 0.249739 -2.02969 0
M  V30 743 H 68.1846 2.57891 -2.89086 0
M  V30 744 H 68.5986 1.75125 -4.944 0
M  V30 745 H 70.0726 3.36443 -4.37619 0
M  V30 746 H 70.5496 3.47672 -2.68367 0
M  V30 747 H 71.1556 2.13323 -3.67931 0
M  V30 748 N 69.4707 1.49531 0.497807 0
M  V30 749 C 70.8817 1.52344 1.07927 0
M  V30 750 C 71.2327 0.311469 1.93712 0
M  V30 751 O 70.3577 -0.578405 2.08527 0
M  V30 752 C 70.9527 2.76062 1.96405 0
M  V30 753 C 69.5117 2.81643 2.49709 0
M  V30 754 C 68.6587 2.46299 1.27404 0
M  V30 755 H 71.6097 1.56182 0.281576 0
M  V30 756 H 71.6307 2.56405 2.81135 0
M  V30 757 H 71.1427 3.64254 1.33943 0
M  V30 758 H 69.2437 1.97739 3.15801 0
M  V30 759 H 69.3567 3.83891 2.86643 0
M  V30 760 H 67.7207 1.98148 1.60029 0
M  V30 761 H 68.5037 3.36769 0.66645 0
M  V30 762 N 70.9488 -0.749086 1.3866 0
M  V30 763 C 72.1948 -1.51056 1.35314 0
M  V30 764 C 72.5278 -1.94121 -0.0553751 0
M  V30 765 O 71.8028 -1.65763 -1.01749 0
M  V30 766 C 72.0858 -2.76003 2.31288 0
M  V30 767 C 71.9388 -2.39047 3.8102 0
M  V30 768 C 73.2578 -3.78046 2.2532 0
M  V30 769 H 70.3768 -0.547972 0.492844 0
M  V30 770 H 73.0188 -0.857628 1.69543 0
M  V30 771 H 71.1688 -3.31716 2.02229 0
M  V30 772 H 72.8408 -1.89074 4.20771 0
M  V30 773 H 71.0838 -1.71449 3.98482 0
M  V30 774 H 71.7548 -3.28462 4.4364 0
M  V30 775 H 74.2308 -3.31884 2.50983 0
M  V30 776 H 73.1068 -4.63159 2.94576 0
M  V30 777 H 73.3678 -4.23957 1.25352 0
M  V30 778 N 72.4269 -1.23603 -0.977757 0
M  V30 779 C 73.6739 -1.06971 -1.71941 0
M  V30 780 C 74.0019 0.393009 -1.90488 0
M  V30 781 O 73.2569 1.30719 -1.4564 0
M  V30 782 C 73.5559 -1.7433 -3.11999 0
M  V30 783 C 73.2219 -3.24252 -3.13323 0
M  V30 784 C 71.8839 -3.65156 -3.13392 0
M  V30 785 C 74.2359 -4.20141 -3.08433 0
M  V30 786 C 71.5639 -5.00403 -3.0629 0
M  V30 787 C 73.9159 -5.55384 -3.02873 0
M  V30 788 C 72.5799 -5.95647 -3.01265 0
M  V30 789 H 71.8499 -0.391433 -0.629175 0
M  V30 790 H 74.4969 -1.53572 -1.14403 0
M  V30 791 H 72.8019 -1.20096 -3.7294 0
M  V30 792 H 74.4989 -1.58936 -3.68158 0
M  V30 793 H 71.0889 -2.91692 -3.14029 0
M  V30 794 H 75.2729 -3.89547 -3.07517 0
M  V30 795 H 70.5289 -5.3081 -3.03399 0
M  V30 796 H 74.7029 -6.29398 -2.98046 0
M  V30 797 H 72.3299 -7.0041 -2.95516 0
M  V30 798 N 73.905 1.17692 -1.04816 0
M  V30 799 C 75.13 1.92327 -0.776207 0
M  V30 800 C 75.555 1.76082 0.661581 0
M  V30 801 O 74.913 1.076 1.45917 0
M  V30 802 C 74.961 3.41539 -1.15687 0
M  V30 803 O 74.065 4.11402 -0.286775 0
M  V30 804 H 73.406 0.599735 -0.284981 0
M  V30 805 H 75.936 1.49201 -1.4 0
M  V30 806 H 75.946 3.92269 -1.12202 0
M  V30 807 H 74.621 3.52684 -2.20425 0
M  V30 808 H 73.198 3.70939 -0.381903 0
M  V30 809 N 75.3831 0.828654 1.34056 0
M  V30 810 C 76.3301 0.252567 2.29414 0
M  V30 811 C 77.3001 -0.62588 1.53857 0
M  V30 812 O 78.4851 -0.566312 1.82202 0
M  V30 813 C 75.6251 -0.574831 3.40279 0
M  V30 814 C 74.7381 0.326499 4.30764 0
M  V30 815 C 73.8731 -0.511016 5.28736 0
M  V30 816 C 72.9121 0.389342 6.1086 0
M  V30 817 N 72.0491 -0.409439 7.00905 0
M  V30 818 H 76.8891 1.07108 2.78086 0
M  V30 819 H 74.4261 0.539677 1.36843 0
M  V30 820 H 76.3841 -1.06992 4.03248 0
M  V30 821 H 75.0141 -1.35841 2.92826 0
M  V30 822 H 74.0661 0.939837 3.68607 0
M  V30 823 H 75.3781 1.01857 4.88289 0
M  V30 824 H 74.5321 -1.07035 5.97184 0
M  V30 825 H 73.2711 -1.23657 4.71763 0
M  V30 826 H 72.2761 0.960769 5.4134 0
M  V30 827 H 73.5011 1.1131 6.69916 0
M  V30 828 H 71.4471 -1.11856 6.46393 0
M  V30 829 H 71.3641 0.224126 7.55668 0
M  V30 830 H 72.6321 -0.951336 7.73673 0
M  V30 831 N 76.8612 -1.46375 0.584142 0
M  V30 832 C 77.8242 -2.28784 -0.138108 0
M  V30 833 C 78.8242 -1.38471 -0.817462 0
M  V30 834 O 80.0142 -1.60833 -0.669199 0
M  V30 835 C 77.1462 -3.18892 -1.20503 0
M  V30 836 H 78.3392 -2.94117 0.586127 0
M  V30 837 H 75.8922 -1.52509 0.342171 0
M  V30 838 H 76.6272 -2.58309 -1.96079 0
M  V30 839 H 76.4122 -3.85388 -0.722384 0
M  V30 840 H 77.9022 -3.80914 -1.71155 0
M  V30 841 N 78.3393 -0.321999 -1.54275 0
M  V30 842 C 79.7553 0.0306999 -1.5957 0
M  V30 843 C 79.9553 1.50614 -1.33857 0
M  V30 844 O 79.0113 2.2619 -1.12223 0
M  V30 845 C 80.3243 -0.386122 -2.98211 0
M  V30 846 C 81.8723 -0.336647 -3.11184 0
M  V30 847 C 82.3473 -0.728607 -4.52167 0
M  V30 848 N 83.8383 -0.681952 -4.58152 0
M  V30 849 C 84.5733 -0.957449 -5.6535 0
M  V30 850 N 84.0693 -1.3 -6.80494 0
M  V30 851 N 85.8623 -0.883113 -5.55119 0
M  V30 852 H 78.0133 -1.28332 -1.69247 0
M  V30 853 H 80.2763 -0.521716 -0.791528 0
M  V30 854 H 79.9823 -1.41404 -3.22022 0
M  V30 855 H 79.8563 0.249662 -3.76373 0
M  V30 856 H 82.2433 0.682058 -2.8711 0
M  V30 857 H 82.3243 -1.00734 -2.3513 0
M  V30 858 H 81.9683 -1.74522 -4.76974 0
M  V30 859 H 81.8983 -0.0356152 -5.26588 0
M  V30 860 H 84.3893 -0.428985 -3.75457 0
M  V30 861 H 84.7023 -1.49563 -7.58189 0
M  V30 862 H 83.0473 -1.33824 -6.81994 0
M  V30 863 H 86.2383 -0.615001 -4.64042 0
M  V30 864 H 86.4113 -1.10118 -6.38575 0
M  V30 865 N 79.8174 1.5752 -0.0501392 0
M  V30 866 C 81.0474 1.96678 0.632573 0
M  V30 867 C 81.4554 0.926298 1.64974 0
M  V30 868 O 80.7984 -0.09802 1.83438 0
M  V30 869 C 80.8604 3.32068 1.37735 0
M  V30 870 C 80.5244 4.54076 0.516131 0
M  V30 871 C 81.5214 5.19445 -0.217357 0
M  V30 872 C 79.2064 5.00304 0.44736 0
M  V30 873 C 81.2004 6.29378 -1.00807 0
M  V30 874 C 78.8874 6.10114 -0.347038 0
M  V30 875 C 79.8854 6.74512 -1.07344 0
M  V30 876 O 79.5734 7.82211 -1.85477 0
M  V30 877 H 79.3054 0.652193 0.177821 0
M  V30 878 H 81.8594 2.05091 -0.112543 0
M  V30 879 H 80.0894 3.20206 2.16807 0
M  V30 880 H 81.7784 3.55981 1.95019 0
M  V30 881 H 82.5444 4.84689 -0.173688 0
M  V30 882 H 78.4234 4.49971 1.00235 0
M  V30 883 H 81.9674 6.79575 -1.57556 0
M  V30 884 H 77.8644 6.44307 -0.392349 0
M  V30 885 H 78.6324 7.98982 -1.77678 0
M  V30 886 N 81.2955 -0.223234 1.56011 0
M  V30 887 C 82.5235 -0.964812 1.83027 0
M  V30 888 C 82.9385 -1.78013 0.62904 0
M  V30 889 O 82.2955 -1.78008 -0.402414 0
M  V30 890 C 82.3465 -1.88373 3.08542 0
M  V30 891 O 82.0675 -1.10137 4.2403 0
M  V30 892 C 83.5685 -2.73934 3.48533 0
M  V30 893 H 80.7885 -0.282842 0.608475 0
M  V30 894 H 83.3325 -0.238971 2.03099 0
M  V30 895 H 81.4875 -2.56354 2.9045 0
M  V30 896 H 81.9015 -1.72501 4.95322 0
M  V30 897 H 83.3755 -3.34117 4.39397 0
M  V30 898 H 83.8525 -3.46244 2.70207 0
M  V30 899 H 84.4585 -2.11369 3.69057 0
M  V30 900 N 82.7736 -1.49793 -0.48987 0
M  V30 901 C 84.0196 -1.60078 -1.24511 0
M  V30 902 C 84.3526 -0.291608 -1.91998 0
M  V30 903 O 83.6276 0.705647 -1.81248 0
M  V30 904 C 83.9106 -2.76791 -2.30345 0
M  V30 905 C 83.7636 -4.17535 -1.67286 0
M  V30 906 C 85.0826 -2.89111 -3.31817 0
M  V30 907 H 82.2016 -0.582645 -0.451324 0
M  V30 908 H 84.8436 -1.82117 -0.541612 0
M  V30 909 H 82.9936 -2.5813 -2.90346 0
M  V30 910 H 84.6656 -4.4774 -1.11026 0
M  V30 911 H 82.9086 -4.22665 -0.976577 0
M  V30 912 H 83.5796 -4.95094 -2.44103 0
M  V30 913 H 86.0556 -3.06133 -2.81819 0
M  V30 914 H 84.9316 -3.72433 -4.03219 0
M  V30 915 H 85.1926 -1.9893 -3.94815 0
M  V30 916 N 84.2517 0.741722 -1.39055 0
M  V30 917 C 85.6677 1.04638 -1.20512 0
M  V30 918 C 85.8677 2.01405 -0.0620218 0
M  V30 919 O 84.9237 2.45547 0.588457 0
M  V30 920 C 86.2367 1.6151 -2.53643 0
M  V30 921 C 87.7847 1.73623 -2.6043 0
M  V30 922 C 88.2597 2.33906 -3.93767 0
M  V30 923 N 89.7507 2.41323 -3.9537 0
M  V30 924 C 90.4857 2.88888 -4.95309 0
M  V30 925 N 89.9817 3.36401 -6.05645 0
M  V30 926 N 91.7747 2.88037 -4.82692 0
M  V30 927 H 83.9257 0.0998155 -2.12165 0
M  V30 928 H 86.1887 0.106907 -0.941953 0
M  V30 929 H 85.8947 0.978739 -3.37807 0
M  V30 930 H 85.7687 2.60411 -2.72885 0
M  V30 931 H 88.1557 2.36384 -1.76655 0
M  V30 932 H 88.2367 0.733945 -2.45045 0
M  V30 933 H 87.8807 1.71776 -4.7797 0
M  V30 934 H 87.8107 3.34799 -4.06469 0
M  V30 935 H 90.3017 2.07734 -3.15682 0
M  V30 936 H 90.6147 3.71186 -6.77821 0
M  V30 937 H 88.9597 3.34427 -6.09248 0
M  V30 938 H 92.1507 2.50237 -3.95599 0
M  V30 939 H 92.3237 3.24792 -5.60726 0
M  V30 940 N 85.7298 1.2412 0.971189 0
M  V30 941 C 86.9548 1.10667 1.75407 0
M  V30 942 C 87.3798 -0.337048 1.85056 0
M  V30 943 O 86.7378 -1.24396 1.31892 0
M  V30 944 C 86.7858 1.74726 3.15441 0
M  V30 945 O 85.8898 1.01566 3.99697 0
M  V30 946 H 85.2308 0.387341 0.539317 0
M  V30 947 H 87.7608 1.64358 1.2185 0
M  V30 948 H 87.7708 1.80341 3.6598 0
M  V30 949 H 86.4458 2.79773 3.07734 0
M  V30 950 H 85.0228 1.03713 3.58187 0
M  V30 951 N 87.2079 -1.17134 1.05439 0
M  V30 952 C 88.4549 -1.87456 0.765942 0
M  V30 953 C 88.7829 -1.81189 -0.707153 0
M  V30 954 O 88.0379 -1.21633 -1.5331 0
M  V30 955 C 88.3369 -3.36833 1.19491 0
M  V30 956 C 88.0029 -3.63301 2.67063 0
M  V30 957 C 86.6649 -3.70234 3.07376 0
M  V30 958 C 89.0169 -3.74575 3.62413 0
M  V30 959 C 86.3449 -3.85933 4.41896 0
M  V30 960 C 88.6969 -3.91793 4.9667 0
M  V30 961 C 87.3609 -3.96966 5.36633 0
M  V30 962 H 86.6309 -0.685948 0.280278 0
M  V30 963 H 89.2779 -1.38556 1.32192 0
M  V30 964 H 87.5829 -3.87807 0.557969 0
M  V30 965 H 89.2799 -3.89611 0.948893 0
M  V30 966 H 85.8699 -3.58532 2.34846 0
M  V30 967 H 90.0539 -3.68537 3.32406 0
M  V30 968 H 85.3099 -3.88187 4.72357 0
M  V30 969 H 89.4839 -3.99458 5.70444 0
M  V30 970 H 87.1109 -4.08883 6.40874 0
M  V30 971 N 88.686 -0.835752 -1.33615 0
M  V30 972 C 89.934 -0.429109 -1.97492 0
M  V30 973 C 90.255 1.01433 -1.66543 0
M  V30 974 O 89.525 1.70611 -0.962744 0
M  V30 975 H 88.105 -0.155686 -0.730596 0
M  V30 976 H 90.767 -1.06802 -1.63031 0
M  V30 977 H 89.863 -0.55861 -3.0706 0
M  V30 978 N 90.1641 1.46063 -0.591896 0
M  V30 979 C 91.4131 2.01547 -0.0786637 0
M  V30 980 C 91.7261 1.46796 1.29268 0
M  V30 981 O 92.9321 1.94157 1.89777 0
M  V30 982 C 91.3881 3.59787 -0.0900024 0
M  V30 983 C 90.9961 4.23534 -1.46023 0
M  V30 984 C 92.7401 4.22895 0.368806 0
M  V30 985 C 90.6471 5.73881 -1.4288 0
M  V30 986 H 89.5771 0.753564 -0.0256388 0
M  V30 987 H 92.2281 1.677 -0.744905 0
M  V30 988 H 90.6101 3.90752 0.642586 0
M  V30 989 H 91.7841 4.04167 -2.21328 0
M  V30 990 H 90.0991 3.72558 -1.85982 0
M  V30 991 H 92.6961 5.33116 0.411258 0
M  V30 992 H 93.0391 3.9247 1.38827 0
M  V30 993 H 93.5721 3.9659 -0.31001 0
M  V30 994 H 90.3111 6.0898 -2.42536 0
M  V30 995 H 89.8311 5.95486 -0.718095 0
M  V30 996 H 91.5101 6.36776 -1.14565 0
M  V30 997 N 91.6422 0.330177 1.54103 0
M  V30 998 C 93.0582 -0.0222371 1.59585 0
M  V30 999 C 93.2582 -1.49902 1.34654 0
M  V30 1000 O 92.3142 -2.25592 1.13421 0
M  V30 1001 C 93.6272 0.401932 2.98002 0
M  V30 1002 C 95.1752 0.353145 3.11001 0
M  V30 1003 C 95.6502 0.752576 4.51775 0
M  V30 1004 N 97.1412 0.706239 4.57784 0
M  V30 1005 C 97.8762 0.987417 5.64834 0
M  V30 1006 N 97.3722 1.33607 6.79795 0
M  V30 1007 N 99.1652 0.91254 5.54643 0
M  V30 1008 H 91.3162 1.29228 1.68564 0
M  V30 1009 H 93.5792 0.525906 0.78875 0
M  V30 1010 H 93.2852 1.4311 3.21267 0
M  V30 1011 H 93.1592 -0.229699 3.765 0
M  V30 1012 H 95.5462 -0.666822 2.87467 0
M  V30 1013 H 95.6272 1.0198 2.34593 0
M  V30 1014 H 95.2712 1.77049 4.76042 0
M  V30 1015 H 95.2012 0.0635409 5.26562 0
M  V30 1016 H 97.6922 0.44889 3.75224 0
M  V30 1017 H 98.0052 1.53582 7.57385 0
M  V30 1018 H 96.3502 1.37439 6.81275 0
M  V30 1019 H 99.5412 0.639601 4.6371 0
M  V30 1020 H 99.7142 1.13503 6.37982 0
M  V30 1021 N 93.1203 -1.57491 0.0584922 0
M  V30 1022 C 94.5363 -1.56792 -0.298091 0
M  V30 1023 C 94.7363 -1.06679 -1.70944 0
M  V30 1024 O 93.7923 -0.726672 -2.41818 0
M  V30 1025 C 95.1053 -3.00461 -0.119879 0
M  V30 1026 C 96.6533 -3.1242 -0.190428 0
M  V30 1027 C 97.1283 -4.57982 -0.0406567 0
M  V30 1028 N 98.6193 -4.63099 -0.0966958 0
M  V30 1029 C 99.3543 -5.734 -0.00502943 0
M  V30 1030 N 98.8503 -6.9266 0.139402 0
M  V30 1031 N 100.643 -5.62067 -0.0611391 0
M  V30 1032 H 92.7943 -1.88386 0.98105 0
M  V30 1033 H 95.0573 -0.867865 0.381463 0
M  V30 1034 H 94.7633 -3.41187 0.85349 0
M  V30 1035 H 94.6373 -3.66843 -0.877833 0
M  V30 1036 H 97.0243 -2.71589 -1.15427 0
M  V30 1037 H 97.1053 -2.48702 0.598405 0
M  V30 1038 H 96.7493 -4.995 0.919897 0
M  V30 1039 H 96.6793 -5.19715 -0.848727 0
M  V30 1040 H 99.1703 -3.77331 -0.207277 0
M  V30 1041 H 99.4833 -7.72536 0.201855 0
M  V30 1042 H 97.8283 -6.94781 0.174586 0
M  V30 1043 H 101.019 -4.67782 -0.172583 0
M  V30 1044 H 101.192 -6.47999 0.0137562 0
M  V30 1045 N 94.5984 0.214957 -1.56127 0
M  V30 1046 C 95.5464 1.28601 -1.93816 0
M  V30 1047 C 96.5404 1.48175 -0.821016 0
M  V30 1048 O 97.7464 1.49271 -1.0059 0
M  V30 1049 H 94.1214 0.431302 -0.616022 0
M  V30 1050 H 96.0924 0.940991 -2.83175 0
M  V30 1051 C 94.8414 2.62779 -2.27689 0
M  V30 1052 H 94.1644 2.48527 -3.13168 0
M  V30 1053 H 95.6044 3.36517 -2.57939 0
M  V30 1054 C 94.0634 3.18285 -1.10436 0
M  V30 1055 O 94.5934 4.00002 -0.368945 0
M  V30 1056 N 92.7994 2.7675 -0.886433 0
M  V30 1057 H 92.3464 2.10404 -1.48619 0
M  V30 1058 H 92.3044 3.14229 -0.103656 0
M  V30 1059 N 96.0765 1.50051 0.48192 0
M  V30 1060 C 96.9865 1.7089 1.60728 0
M  V30 1061 C 98.0025 0.591788 1.63627 0
M  V30 1062 O 99.1785 0.868817 1.81696 0
M  V30 1063 C 96.2435 1.78855 2.97005 0
M  V30 1064 C 95.3045 3.02537 3.04581 0
M  V30 1065 C 94.5375 3.10112 4.34357 0
M  V30 1066 O 94.7605 2.24765 5.24249 0
M  V30 1067 O 93.6945 4.02747 4.47301 0
M  V30 1068 H 97.5205 2.66264 1.46072 0
M  V30 1069 H 95.1055 1.34018 0.660264 0
M  V30 1070 H 96.9875 1.86336 3.77964 0
M  V30 1071 H 95.6625 0.866628 3.11883 0
M  V30 1072 H 94.5695 3.00563 2.22739 0
M  V30 1073 H 95.9025 3.94272 2.94636 0
M  V30 1074 N 97.5546 -0.734337 1.39446 0
M  V30 1075 C 98.5016 -1.84835 1.38219 0
M  V30 1076 C 99.4716 -1.64331 0.24179 0
M  V30 1077 O 100.657 -1.85728 0.437002 0
M  V30 1078 C 97.7966 -3.22355 1.23212 0
M  V30 1079 C 96.9096 -3.5456 2.46801 0
M  V30 1080 C 96.0446 -4.81485 2.24377 0
M  V30 1081 C 95.0836 -5.06536 3.43639 0
M  V30 1082 N 94.2206 -6.24665 3.20528 0
M  V30 1083 H 99.0606 -1.85219 2.33448 0
M  V30 1084 H 96.5976 -0.905039 1.15963 0
M  V30 1085 H 98.5556 -4.0174 1.12522 0
M  V30 1086 H 97.1856 -3.21248 0.316121 0
M  V30 1087 H 96.2376 -2.69872 2.68092 0
M  V30 1088 H 97.5496 -3.6899 3.3563 0
M  V30 1089 H 96.7036 -5.68852 2.10933 0
M  V30 1090 H 95.4426 -4.6923 1.32944 0
M  V30 1091 H 94.4476 -4.17632 3.5758 0
M  V30 1092 H 95.6726 -5.20676 4.35974 0
M  V30 1093 H 93.6186 -6.13696 2.3176 0
M  V30 1094 H 93.5356 -6.39685 4.02913 0
M  V30 1095 H 94.8036 -7.14868 3.10779 0
M  V30 1096 N 99.0327 -1.24633 -0.964593 0
M  V30 1097 C 100.282 -1.08188 -1.7023 0
M  V30 1098 C 100.595 0.37873 -1.91898 0
M  V30 1099 O 101.801 0.663427 -2.6327 0
M  V30 1100 C 100.257 -1.88773 -3.06419 0
M  V30 1101 C 99.8647 -3.39263 -2.92582 0
M  V30 1102 C 101.609 -1.80867 -3.84041 0
M  V30 1103 C 99.5157 -4.1218 -4.24101 0
M  V30 1104 H 98.4457 -0.401245 -0.638372 0
M  V30 1105 H 101.097 -1.48742 -1.07462 0
M  V30 1106 H 99.4787 -1.41035 -3.70034 0
M  V30 1107 H 100.653 -3.94603 -2.37961 0
M  V30 1108 H 98.9677 -3.48154 -2.28424 0
M  V30 1109 H 101.565 -2.32646 -4.81435 0
M  V30 1110 H 101.908 -0.774543 -4.09031 0
M  V30 1111 H 102.441 -2.26301 -3.27159 0
M  V30 1112 H 99.1797 -5.15965 -4.04303 0
M  V30 1113 H 98.6997 -3.61626 -4.78526 0
M  V30 1114 H 100.379 -4.19349 -4.92702 0
M  V30 1115 N 100.511 1.16574 -1.06058 0
M  V30 1116 C 101.474 2.19085 -0.673392 0
M  V30 1117 C 102.474 1.5835 0.279648 0
M  V30 1118 O 103.664 1.74088 0.0623488 0
M  V30 1119 C 100.796 3.40899 0.00954234 0
M  V30 1120 H 101.989 2.54853 -1.58081 0
M  V30 1121 H 99.5418 1.30808 -0.855516 0
M  V30 1122 H 100.277 3.10684 0.929826 0
M  V30 1123 H 100.062 3.86233 -0.67573 0
M  V30 1124 H 101.552 4.1675 0.266245 0
M  V30 1125 N 101.989 0.842826 1.3317 0
M  V30 1126 C 103.235 0.441099 1.97945 0
M  V30 1127 C 103.568 -0.998024 1.66593 0
M  V30 1128 O 102.843 -1.69839 0.947898 0
M  V30 1129 C 103.126 0.666841 3.53872 0
M  V30 1130 C 102.979 2.15352 3.94897 0
M  V30 1131 C 104.298 0.115544 4.39948 0
M  V30 1132 H 101.417 0.161739 0.719034 0
M  V30 1133 H 104.059 1.05907 1.57746 0
M  V30 1134 H 102.209 0.140828 3.88245 0
M  V30 1135 H 103.881 2.7447 3.70761 0
M  V30 1136 H 102.124 2.63653 3.44484 0
M  V30 1137 H 102.795 2.26221 5.03516 0
M  V30 1138 H 105.271 0.565213 4.12243 0
M  V30 1139 H 104.147 0.303152 5.48062 0
M  V30 1140 H 104.408 -0.980935 4.3108 0
M  V30 1141 N 103.467 -1.45747 0.599634 0
M  V30 1142 C 104.417 -2.27538 -0.145107 0
M  V30 1143 C 105.401 -1.3686 -0.846055 0
M  V30 1144 O 106.593 -1.6091 -0.737357 0
M  V30 1145 C 103.722 -3.23569 -1.14708 0
M  V30 1146 C 102.808 -4.21734 -0.447383 0
M  V30 1147 N 103.199 -5.03257 0.506535 0
M  V30 1148 C 101.497 -4.40536 -0.695966 0
M  V30 1149 C 102.198 -5.74426 0.917068 0
M  V30 1150 N 101.174 -5.42966 0.26253 0
M  V30 1151 H 104.976 -2.87965 0.587672 0
M  V30 1152 H 102.49 -1.56803 0.422697 0
M  V30 1153 H 104.487 -3.8089 -1.69495 0
M  V30 1154 H 103.147 -2.64702 -1.8805 0
M  V30 1155 H 104.158 -5.10319 0.882899 0
M  V30 1156 H 100.835 -3.92802 -1.41467 0
M  V30 1157 H 102.225 -6.4995 1.70338 0
M  V30 1158 N 104.945 -0.338344 -1.53925 0
M  V30 1159 C 106.185 0.260168 -2.02737 0
M  V30 1160 C 106.549 1.48181 -1.22092 0
M  V30 1161 O 107.75 2.15416 -1.60777 0
M  V30 1162 C 106.021 0.571627 -3.52799 0
M  V30 1163 S 107.58 1.14769 -4.23525 0
M  V30 1164 H 104.398 0.077791 -0.706732 0
M  V30 1165 H 107 -0.474899 -1.89644 0
M  V30 1166 H 105.704 -0.325392 -4.09108 0
M  V30 1167 H 105.235 1.3365 -3.70002 0
M  V30 1168 H 107.25 2.43372 -4.32417 0
M  V30 1169 N 106.423 1.57458 -0.0668435 0
M  V30 1170 C 107.651 1.97624 0.612565 0
M  V30 1171 C 108.066 0.94502 1.63447 0
M  V30 1172 O 107.423 -0.0689276 1.8237 0
M  V30 1173 C 107.474 3.37869 1.28555 0
M  V30 1174 O 107.195 4.3704 0.304557 0
M  V30 1175 C 108.696 3.92882 2.05325 0
M  V30 1176 H 105.916 0.650045 0.166381 0
M  V30 1177 H 108.46 2.04035 -0.137782 0
M  V30 1178 H 106.615 3.3256 1.98702 0
M  V30 1179 H 107.029 5.18565 0.786779 0
M  V30 1180 H 108.503 4.93247 2.47812 0
M  V30 1181 H 108.98 3.29156 2.9078 0
M  V30 1182 H 109.586 4.01577 1.40056 0
M  V30 1183 N 107.901 -0.206675 1.56239 0
M  V30 1184 C 109.147 -0.930218 1.80208 0
M  V30 1185 C 109.48 -1.83387 0.638981 0
M  V30 1186 O 108.755 -1.91119 -0.361066 0
M  V30 1187 C 109.038 -1.75641 3.1436 0
M  V30 1188 C 108.891 -0.878257 4.41142 0
M  V30 1189 C 110.21 -2.73129 3.45092 0
M  V30 1190 H 107.329 -0.336742 0.655571 0
M  V30 1191 H 109.971 -0.198222 1.88963 0
M  V30 1192 H 108.121 -2.38048 3.07027 0
M  V30 1193 H 109.793 -0.269787 4.6051 0
M  V30 1194 H 108.036 -0.184385 4.33408 0
M  V30 1195 H 108.707 -1.49106 5.3148 0
M  V30 1196 H 111.183 -2.20856 3.52649 0
M  V30 1197 H 110.059 -3.28028 4.40101 0
M  V30 1198 H 110.32 -3.51606 2.68003 0
M  V30 1199 N 109.379 -1.50304 -0.473955 0
M  V30 1200 C 110.795 -1.37667 -0.807466 0
M  V30 1201 C 110.995 -0.430555 -1.96846 0
M  V30 1202 O 110.051 0.127874 -2.52176 0
M  V30 1203 C 111.364 -2.78974 -1.12223 0
M  V30 1204 C 112.912 -2.87868 -1.22885 0
M  V30 1205 C 113.387 -4.30003 -1.57676 0
M  V30 1206 N 114.878 -4.3294 -1.64673 0
M  V30 1207 C 115.613 -5.3991 -1.93091 0
M  V30 1208 N 115.109 -6.57092 -2.1955 0
M  V30 1209 N 116.902 -5.27351 -1.94569 0
M  V30 1210 H 109.053 -2.10394 0.291212 0
M  V30 1211 H 111.316 -0.945575 0.0677609 0
M  V30 1212 H 111.022 -3.50031 -0.342229 0
M  V30 1213 H 110.896 -3.16038 -2.05913 0
M  V30 1214 H 113.283 -2.17032 -1.99953 0
M  V30 1215 H 113.364 -2.54352 -0.271814 0
M  V30 1216 H 113.008 -5.01375 -0.81149 0
M  V30 1217 H 112.938 -4.61004 -2.54525 0
M  V30 1218 H 115.429 -3.48441 -1.46277 0
M  V30 1219 H 115.742 -7.34425 -2.405 0
M  V30 1220 H 114.087 -6.60272 -2.16948 0
M  V30 1221 H 117.278 -4.34801 -1.73394 0
M  V30 1222 H 117.451 -6.10805 -2.16381 0
M  V30 1223 N 110.857 0.726932 -1.39834 0
M  V30 1224 C 112.105 1.4837 -1.37225 0
M  V30 1225 C 112.426 1.94979 0.0284857 0
M  V30 1226 O 111.696 1.69555 0.981213 0
M  V30 1227 H 110.276 0.55043 -0.505011 0
M  V30 1228 H 112.938 0.862468 -1.74778 0
M  V30 1229 H 112.034 2.36198 -2.04003 0
M  V30 1230 N 112.336 1.25143 0.95797 0
M  V30 1231 C 113.299 1.05321 2.03569 0
M  V30 1232 C 114.299 0.007152 1.60798 0
M  V30 1233 O 115.489 0.24903 1.72411 0
M  V30 1234 C 112.621 0.598394 3.35607 0
M  V30 1235 H 113.814 2.00986 2.22586 0
M  V30 1236 H 111.367 1.07502 1.13459 0
M  V30 1237 H 112.102 -0.361014 3.22284 0
M  V30 1238 H 111.887 1.35351 3.67998 0
M  V30 1239 H 113.377 0.48104 4.1482 0
M  V30 1240 N 113.814 -1.1601 1.06675 0
M  V30 1241 C 114.761 -2.20525 0.680967 0
M  V30 1242 C 115.731 -1.62904 -0.324283 0
M  V30 1243 O 116.916 -1.89615 -0.212294 0
M  V30 1244 C 114.056 -3.45013 0.0776551 0
M  V30 1245 C 113.169 -4.16863 1.13355 0
M  V30 1246 C 112.304 -5.2888 0.49597 0
M  V30 1247 C 111.343 -5.92537 1.53513 0
M  V30 1248 N 110.48 -6.96038 0.920631 0
M  V30 1249 H 115.32 -2.52876 1.57663 0
M  V30 1250 H 112.857 -1.24199 0.788223 0
M  V30 1251 H 114.815 -4.16193 -0.289704 0
M  V30 1252 H 113.445 -3.132 -0.781393 0
M  V30 1253 H 112.497 -3.44248 1.61857 0
M  V30 1254 H 113.809 -4.60294 1.92174 0
M  V30 1255 H 112.963 -6.06653 0.0758604 0
M  V30 1256 H 111.702 -4.86622 -0.324062 0
M  V30 1257 H 110.707 -5.13482 1.9651 0
M  V30 1258 H 111.932 -6.36873 2.35733 0
M  V30 1259 H 109.878 -6.55888 0.12138 0
M  V30 1260 H 109.795 -7.3786 1.64616 0
M  V30 1261 H 111.063 -7.77725 0.525795 0
M  V30 1262 N 115.292 -0.849877 -1.32721 0
M  V30 1263 C 116.255 -0.296122 -2.27279 0
M  V30 1264 C 117.255 0.541458 -1.5141 0
M  V30 1265 O 118.445 0.353658 -1.70572 0
M  V30 1266 C 115.577 0.581579 -3.35902 0
M  V30 1267 H 116.77 -1.13064 -2.77771 0
M  V30 1268 H 114.323 -0.62383 -1.43311 0
M  V30 1269 H 115.058 1.43809 -2.9067 0
M  V30 1270 H 114.843 -0.0178814 -3.92096 0
M  V30 1271 H 116.333 0.961951 -4.0637 0
M  V30 1272 N 116.77 1.45427 -0.607355 0
M  V30 1273 C 117.68 2.34325 0.113463 0
M  V30 1274 C 118.696 1.51226 0.860617 0
M  V30 1275 O 119.872 1.84029 0.818255 0
M  V30 1276 C 116.937 3.28839 1.09844 0
M  V30 1277 C 115.998 4.27844 0.353271 0
M  V30 1278 C 115.231 5.17842 1.29133 0
M  V30 1279 O 115.454 5.11264 2.52913 0
M  V30 1280 O 114.388 5.96713 0.788523 0
M  V30 1281 H 118.214 2.97364 -0.617094 0
M  V30 1282 H 115.799 1.44807 -0.367619 0
M  V30 1283 H 117.681 3.8708 1.66575 0
M  V30 1284 H 116.356 2.68365 1.81003 0
M  V30 1285 H 115.263 3.7322 -0.256494 0
M  V30 1286 H 116.596 4.91173 -0.317822 0
M  V30 1287 N 118.248 0.346503 1.53744 0
M  V30 1288 C 119.158 -0.517293 2.28826 0
M  V30 1289 C 120.174 -1.10935 1.3405 0
M  V30 1290 O 121.35 -1.1244 1.6709 0
M  V30 1291 C 118.415 -1.65098 3.04866 0
M  V30 1292 C 117.476 -1.0884 4.15274 0
M  V30 1293 C 116.709 -2.16806 4.87679 0
M  V30 1294 O 116.932 -3.3758 4.59778 0
M  V30 1295 O 115.866 -1.80934 5.74061 0
M  V30 1296 H 119.692 0.0931396 3.03557 0
M  V30 1297 H 117.277 0.111458 1.48984 0
M  V30 1298 H 119.159 -2.31053 3.5241 0
M  V30 1299 H 117.834 -2.24717 2.32989 0
M  V30 1300 H 116.741 -0.3933 3.72027 0
M  V30 1301 H 118.074 -0.537036 4.89261 0
M  V30 1302 N 119.726 -1.57421 0.075193 0
M  V30 1303 C 120.975 -1.92794 -0.592731 0
M  V30 1304 C 121.288 -0.957478 -1.70563 0
M  V30 1305 O 122.494 -1.20417 -2.43335 0
M  V30 1306 C 120.95 -3.42495 -1.10569 0
M  V30 1307 C 120.558 -4.47994 -0.0236121 0
M  V30 1308 C 122.302 -3.86864 -1.74748 0
M  V30 1309 C 120.209 -5.88829 -0.550803 0
M  V30 1310 H 119.139 -0.719591 -0.225177 0
M  V30 1311 H 121.79 -1.82902 0.147978 0
M  V30 1312 H 120.172 -3.47471 -1.89947 0
M  V30 1313 H 121.346 -4.54637 0.751099 0
M  V30 1314 H 119.661 -4.13113 0.522159 0
M  V30 1315 H 122.258 -4.8947 -2.15229 0
M  V30 1316 H 122.601 -3.24417 -2.60882 0
M  V30 1317 H 123.134 -3.84504 -1.01986 0
M  V30 1318 H 119.873 -6.54929 0.273457 0
M  V30 1319 H 119.393 -5.85698 -1.29296 0
M  V30 1320 H 121.072 -6.38811 -1.02613 0
M  V30 1321 N 121.204 0.198386 -1.56346 0
M  V30 1322 C 122.134 1.24865 -1.9731 0
M  V30 1323 C 123.115 1.47651 -0.844576 0
M  V30 1324 O 124.3 1.59444 -1.10866 0
M  V30 1325 C 121.43 2.59358 -2.30977 0
M  V30 1326 C 120.384 2.5119 -3.46537 0
M  V30 1327 C 119.71 3.89926 -3.65871 0
M  V30 1328 C 121.01 2.03977 -4.80823 0
M  V30 1329 H 122.704 0.908252 -2.85291 0
M  V30 1330 H 120.25 0.435462 -1.37258 0
M  V30 1331 H 122.203 3.33011 -2.58228 0
M  V30 1332 H 120.927 2.95132 -1.39874 0
M  V30 1333 H 119.586 1.79993 -3.19371 0
M  V30 1334 H 119.234 4.23046 -2.72105 0
M  V30 1335 H 118.934 3.85336 -4.4361 0
M  V30 1336 H 120.458 4.65205 -3.95495 0
M  V30 1337 H 121.872 2.67386 -5.07127 0
M  V30 1338 H 120.269 2.10397 -5.62008 0
M  V30 1339 H 121.339 0.992861 -4.74626 0
M  V30 1340 N 122.682 1.50554 0.465978 0
M  V30 1341 C 123.592 1.72585 1.58907 0
M  V30 1342 C 124.608 0.60911 1.6299 0
M  V30 1343 O 125.784 0.88804 1.80765 0
M  V30 1344 C 122.849 1.81995 2.95091 0
M  V30 1345 C 121.91 3.05751 3.01355 0
M  V30 1346 C 121.143 3.14702 4.31043 0
M  V30 1347 O 121.366 2.30313 5.21835 0
M  V30 1348 O 120.3 4.07468 4.43005 0
M  V30 1349 H 124.126 2.67799 1.43239 0
M  V30 1350 H 121.711 1.34711 0.646013 0
M  V30 1351 H 123.593 1.90335 3.75966 0
M  V30 1352 H 122.268 0.899659 3.10947 0
M  V30 1353 H 121.175 3.02908 2.19539 0
M  V30 1354 H 122.508 3.97375 2.90437 0
M  V30 1355 N 124.16 -0.719506 1.40217 0
M  V30 1356 C 125.107 -1.83359 1.40172 0
M  V30 1357 C 126.077 -1.64065 0.259206 0
M  V30 1358 O 127.262 -1.85254 0.456677 0
M  V30 1359 C 124.402 -3.2103 1.26624 0
M  V30 1360 C 123.515 -3.51923 2.50548 0
M  V30 1361 C 122.65 -4.79079 2.29471 0
M  V30 1362 C 121.689 -5.02863 3.48992 0
M  V30 1363 N 120.826 -6.2123 3.27135 0
M  V30 1364 H 125.666 -1.82733 2.35399 0
M  V30 1365 H 123.203 -0.892688 1.16917 0
M  V30 1366 H 125.161 -4.00524 1.16776 0
M  V30 1367 H 123.791 -3.20895 0.350176 0
M  V30 1368 H 122.843 -2.67014 2.70939 0
M  V30 1369 H 124.155 -3.6541 3.39525 0
M  V30 1370 H 123.309 -5.66582 2.16955 0
M  V30 1371 H 122.048 -4.67794 1.37913 0
M  V30 1372 H 121.053 -4.13816 3.6199 0
M  V30 1373 H 122.278 -5.16023 4.41472 0
M  V30 1374 H 120.224 -6.11204 2.38256 0
M  V30 1375 H 120.141 -6.35375 4.09675 0
M  V30 1376 H 121.409 -7.11532 3.18344 0
M  V30 1377 N 125.638 -1.25649 -0.95132 0
M  V30 1378 C 126.886 -1.10375 -1.69298 0
M  V30 1379 C 127.207 0.355339 -1.91735 0
M  V30 1380 O 126.477 1.25188 -1.50681 0
M  V30 1381 H 125.057 -0.405461 -0.627384 0
M  V30 1382 H 127.719 -1.57823 -1.14358 0
M  V30 1383 H 126.815 -1.61465 -2.67087 0
M  V30 1384 N 127.117 1.15442 -1.07289 0
M  V30 1385 C 128.047 2.22312 -0.714107 0
M  V30 1386 C 129.028 1.67467 0.298155 0
M  V30 1387 O 130.213 1.93445 0.171048 0
M  V30 1388 C 127.343 3.47124 -0.110448 0
M  V30 1389 C 126.297 4.14926 -1.04979 0
M  V30 1390 C 125.623 5.33807 -0.308924 0
M  V30 1391 C 126.923 4.64762 -2.38314 0
M  V30 1392 H 128.617 2.5258 -1.6076 0
M  V30 1393 H 126.163 1.21404 -0.77441 0
M  V30 1394 H 128.116 4.21124 0.152482 0
M  V30 1395 H 126.84 3.16187 0.81812 0
M  V30 1396 H 125.499 3.42866 -1.29764 0
M  V30 1397 H 125.147 4.99126 0.623084 0
M  V30 1398 H 124.847 5.80113 -0.935036 0
M  V30 1399 H 126.371 6.10576 -0.0537771 0
M  V30 1400 H 127.785 5.30292 -2.1786 0
M  V30 1401 H 126.182 5.21728 -2.96514 0
M  V30 1402 H 127.252 3.80434 -3.00663 0
M  V30 1403 N 128.595 0.856903 1.32268 0
M  V30 1404 C 129.542 0.301172 2.28827 0
M  V30 1405 C 130.512 -0.593104 1.5515 0
M  V30 1406 O 131.697 -0.527537 1.83362 0
M  V30 1407 C 128.837 -0.502523 3.41422 0
M  V30 1408 C 127.95 0.417797 4.29975 0
M  V30 1409 C 127.085 -0.398749 5.29701 0
M  V30 1410 C 126.124 0.518827 6.09897 0
M  V30 1411 N 125.261 -0.260674 7.01616 0
M  V30 1412 H 130.101 1.12983 2.75751 0
M  V30 1413 H 127.638 0.568582 1.35667 0
M  V30 1414 H 129.596 -0.984141 4.05426 0
M  V30 1415 H 128.226 -1.29599 2.95642 0
M  V30 1416 H 127.278 1.01781 3.66531 0
M  V30 1417 H 128.59 1.12191 4.86019 0
M  V30 1418 H 127.744 -0.943435 5.9932 0
M  V30 1419 H 126.483 -1.13622 4.7428 0
M  V30 1420 H 125.488 1.07538 5.39181 0
M  V30 1421 H 126.713 1.25495 6.67404 0
M  V30 1422 H 124.659 -0.981198 6.4862 0
M  V30 1423 H 124.576 0.384364 7.55022 0
M  V30 1424 H 125.844 -0.787014 7.75517 0
M  V30 1425 N 130.073 -1.45103 0.615059 0
M  V30 1426 C 131.319 -2.02483 0.113347 0
M  V30 1427 C 131.652 -1.48146 -1.25564 0
M  V30 1428 O 130.927 -0.659104 -1.82992 0
M  V30 1429 C 131.21 -3.60005 0.0825278 0
M  V30 1430 C 131.063 -4.2466 1.48271 0
M  V30 1431 C 132.382 -4.35972 -0.601401 0
M  V30 1432 H 129.501 -0.735764 0.0426632 0
M  V30 1433 H 132.143 -1.72868 0.788461 0
M  V30 1434 H 130.293 -3.85367 -0.492378 0
M  V30 1435 H 131.965 -4.10458 2.10527 0
M  V30 1436 H 130.208 -3.82772 2.04127 0
M  V30 1437 H 130.879 -5.336 1.41332 0
M  V30 1438 H 133.355 -4.15947 -0.112666 0
M  V30 1439 H 132.231 -5.45697 -0.592097 0
M  V30 1440 H 132.492 -4.09391 -1.66887 0
M  V30 1441 N 131.551 -0.354651 -1.53558 0
M  V30 1442 C 132.967 -0.00315426 -1.596 0
M  V30 1443 C 133.167 1.47741 -1.37021 0
M  V30 1444 O 132.223 2.23759 -1.16996 0
M  V30 1445 C 133.536 -0.44929 -2.97325 0
M  V30 1446 C 135.084 -0.402578 -3.104 0
M  V30 1447 C 135.559 -0.824355 -4.5052 0
M  V30 1448 N 137.05 -0.778979 -4.56603 0
M  V30 1449 C 137.785 -1.07715 -5.63192 0
M  V30 1450 N 137.281 -1.44405 -6.77583 0
M  V30 1451 N 139.074 -1.00066 -5.53121 0
M  V30 1452 H 131.225 -1.31893 -1.66487 0
M  V30 1453 H 133.488 -0.538388 -0.780284 0
M  V30 1454 H 133.194 -1.48202 -3.1895 0
M  V30 1455 H 133.068 0.169772 -3.76818 0
M  V30 1456 H 135.455 0.621004 -2.88492 0
M  V30 1457 H 135.536 -1.05699 -2.32941 0
M  V30 1458 H 135.18 -1.846 -4.73165 0
M  V30 1459 H 135.11 -0.147304 -5.26394 0
M  V30 1460 H 137.601 -0.508528 -3.74463 0
M  V30 1461 H 137.914 -1.65612 -7.54846 0
M  V30 1462 H 136.259 -1.4826 -6.79002 0
M  V30 1463 H 139.45 -0.713293 -4.62633 0
M  V30 1464 H 139.623 -1.23638 -6.36096 0
M  V30 1465 N 133.029 1.57378 -0.0835403 0
M  V30 1466 C 133.939 2.16897 0.894021 0
M  V30 1467 C 134.955 1.13528 1.31861 0
M  V30 1468 O 136.131 1.45848 1.3889 0
M  V30 1469 C 133.196 2.72831 2.13925 0
M  V30 1470 C 132.257 3.91115 1.76997 0
M  V30 1471 C 131.49 4.44371 2.95584 0
M  V30 1472 O 131.713 3.96596 4.09961 0
M  V30 1473 O 130.647 5.35549 2.74719 0
M  V30 1474 H 134.473 3.00814 0.417679 0
M  V30 1475 H 132.058 1.48741 0.140181 0
M  V30 1476 H 133.94 3.0863 2.86924 0
M  V30 1477 H 132.615 1.91967 2.60635 0
M  V30 1478 H 131.522 3.60148 1.01214 0
M  V30 1479 H 132.855 4.73307 1.3506 0
M  V30 1480 N 134.507 -0.190092 1.56449 0
M  V30 1481 C 135.737 -0.92443 1.84764 0
M  V30 1482 C 136.145 -1.77146 0.664529 0
M  V30 1483 O 135.488 -1.79812 -0.375957 0
M  V30 1484 C 135.55 -1.86651 3.07248 0
M  V30 1485 C 135.214 -1.20094 4.40938 0
M  V30 1486 C 136.211 -0.575445 5.16706 0
M  V30 1487 C 133.896 -1.2033 4.87674 0
M  V30 1488 C 135.89 0.0388111 6.37388 0
M  V30 1489 C 133.577 -0.585214 6.08291 0
M  V30 1490 C 134.575 0.0347578 6.82991 0
M  V30 1491 O 134.263 0.643147 8.01323 0
M  V30 1492 H 133.995 -0.274974 0.617548 0
M  V30 1493 H 136.549 -0.200788 2.04416 0
M  V30 1494 H 134.779 -2.62998 2.83494 0
M  V30 1495 H 136.468 -2.46907 3.22167 0
M  V30 1496 H 137.234 -0.565728 4.81689 0
M  V30 1497 H 133.113 -1.67526 4.29484 0
M  V30 1498 H 136.657 0.523329 6.95634 0
M  V30 1499 H 132.554 -0.592451 6.42775 0
M  V30 1500 H 133.322 0.540545 8.16713 0
M  V30 1501 N 135.985 -1.50799 -0.457987 0
M  V30 1502 C 136.895 -1.73426 -1.57989 0
M  V30 1503 C 137.911 -0.617745 -1.62665 0
M  V30 1504 O 139.087 -0.897614 -1.80291 0
M  V30 1505 C 136.152 -1.83557 -2.94122 0
M  V30 1506 C 135.213 -3.07345 -2.99729 0
M  V30 1507 C 134.446 -3.16983 -4.29368 0
M  V30 1508 O 134.669 -2.33077 -5.20607 0
M  V30 1509 O 133.603 -4.09812 -4.40837 0
M  V30 1510 H 137.429 -2.68555 -1.41817 0
M  V30 1511 H 135.014 -1.35052 -0.638859 0
M  V30 1512 H 136.896 -1.92326 -3.74952 0
M  V30 1513 H 135.571 -0.916137 -3.10465 0
M  V30 1514 H 134.478 -3.04068 -2.1793 0
M  V30 1515 H 135.811 -3.9891 -2.88326 0
M  V30 1516 N 137.463 0.71206 -1.40597 0
M  V30 1517 C 138.393 1.83889 -1.43899 0
M  V30 1518 C 139.374 1.67442 -0.299504 0
M  V30 1519 O 140.559 1.87421 -0.508624 0
M  V30 1520 C 137.689 3.21877 -1.30431 0
M  V30 1521 C 136.643 3.53002 -2.42019 0
M  V30 1522 C 135.969 4.90172 -2.13626 0
M  V30 1523 C 137.269 3.53643 -3.84362 0
M  V30 1524 H 138.963 1.81383 -2.38203 0
M  V30 1525 H 136.509 0.871237 -1.14654 0
M  V30 1526 H 138.462 4.00404 -1.31357 0
M  V30 1527 H 137.186 3.24968 -0.326049 0
M  V30 1528 H 135.845 2.76818 -2.40349 0
M  V30 1529 H 135.493 4.89869 -1.14182 0
M  V30 1530 H 135.193 5.11962 -2.88389 0
M  V30 1531 H 136.717 5.71028 -2.1624 0
M  V30 1532 H 138.131 4.22203 -3.87837 0
M  V30 1533 H 136.528 3.86961 -4.58673 0
M  V30 1534 H 137.598 2.52954 -4.13693 0
M  V30 1535 N 138.941 1.26152 0.944643 0
M  V30 1536 C 140.357 1.03189 1.21754 0
M  V30 1537 C 140.557 -0.245112 2.00004 0
M  V30 1538 O 139.613 -0.955176 2.33736 0
M  V30 1539 C 140.926 2.26119 1.98219 0
M  V30 1540 C 142.474 2.30984 2.11224 0
M  V30 1541 C 142.949 3.53597 2.91089 0
M  V30 1542 N 144.44 3.54053 2.98664 0
M  V30 1543 C 145.175 4.45593 3.60881 0
M  V30 1544 N 144.671 5.47416 4.24626 0
M  V30 1545 N 146.464 4.33252 3.58119 0
M  V30 1546 H 138.615 2.08177 0.421437 0
M  V30 1547 H 140.878 0.914723 0.248969 0
M  V30 1548 H 140.584 3.18984 1.48128 0
M  V30 1549 H 140.458 2.3009 2.98895 0
M  V30 1550 H 142.845 1.38635 2.60508 0
M  V30 1551 H 142.926 2.31026 1.09821 0
M  V30 1552 H 142.57 4.46273 2.42493 0
M  V30 1553 H 142.5 3.50802 3.92741 0
M  V30 1554 H 144.991 2.80403 2.53343 0
M  V30 1555 H 145.304 6.13459 4.69987 0
M  V30 1556 H 143.649 5.51278 4.23223 0
M  V30 1557 H 146.84 3.52924 3.0751 0
M  V30 1558 H 147.013 5.04786 4.06319 0
M  V30 1559 N 140.419 -1.14872 1.07899 0
M  V30 1560 C 141.366 -2.19791 0.704319 0
M  V30 1561 C 142.336 -1.63238 -0.306987 0
M  V30 1562 O 143.521 -1.8983 -0.192171 0
M  V30 1563 C 140.661 -3.44911 0.114244 0
M  V30 1564 C 139.774 -4.15637 1.1777 0
M  V30 1565 C 138.909 -5.28324 0.552037 0
M  V30 1566 C 137.948 -5.90875 1.59789 0
M  V30 1567 N 137.085 -6.95022 0.994404 0
M  V30 1568 H 141.925 -2.5119 1.60336 0
M  V30 1569 H 139.462 -1.23356 0.801352 0
M  V30 1570 H 141.42 -4.16477 -0.245544 0
M  V30 1571 H 140.05 -3.14011 -0.74813 0
M  V30 1572 H 139.102 -3.42512 1.65499 0
M  V30 1573 H 140.414 -4.5823 1.97046 0
M  V30 1574 H 139.568 -6.06538 0.1402 0
M  V30 1575 H 138.307 -4.86939 -0.272431 0
M  V30 1576 H 137.312 -5.11369 2.01945 0
M  V30 1577 H 138.537 -6.34337 2.42474 0
M  V30 1578 H 136.483 -6.55722 0.190939 0
M  V30 1579 H 136.4 -7.36073 1.72432 0
M  V30 1580 H 137.668 -7.77123 0.608253 0
M  V30 1581 N 141.898 -0.863906 -1.31812 0
M  V30 1582 C 142.846 -0.30422 -2.30602 0
M  V30 1583 C 143.84 0.577419 -1.59255 0
M  V30 1584 O 145.046 0.464194 -1.73912 0
M  V30 1585 H 141.421 -0.0796877 -0.747766 0
M  V30 1586 H 143.392 -1.15148 -2.75288 0
M  V30 1587 C 142.141 0.484617 -3.44306 0
M  V30 1588 H 141.464 -0.18451 -3.99374 0
M  V30 1589 H 142.904 0.841664 -4.15562 0
M  V30 1590 C 141.363 1.6735 -2.92396 0
M  V30 1591 O 141.893 2.77273 -2.90659 0
M  V30 1592 N 140.099 1.50362 -2.48676 0
M  V30 1593 H 139.646 0.609402 -2.50288 0
M  V30 1594 H 139.604 2.30051 -2.14299 0
M  V30 1595 N 143.376 1.44774 -0.622745 0
M  V30 1596 C 144.324 2.32387 0.0994683 0
M  V30 1597 C 145.318 1.46859 0.844326 0
M  V30 1598 O 146.524 1.63254 0.758174 0
M  V30 1599 H 142.899 0.750273 0.0509291 0
M  V30 1600 H 144.87 2.91062 -0.65767 0
M  V30 1601 C 143.619 3.30723 1.07319 0
M  V30 1602 H 142.942 3.96541 0.509462 0
M  V30 1603 H 144.382 3.94725 1.54817 0
M  V30 1604 C 142.841 2.59021 2.15429 0
M  V30 1605 O 143.371 2.38286 3.23393 0
M  V30 1606 N 141.577 2.189 1.91131 0
M  V30 1607 H 141.124 2.35964 1.03337 0
M  V30 1608 H 141.082 1.71251 2.63668 0
M  V30 1609 N 144.854 0.36279 1.53368 0
M  V30 1610 C 146.101 -0.227776 2.01215 0
M  V30 1611 C 146.429 -1.49003 1.25014 0
M  V30 1612 O 145.684 -1.92876 0.331236 0
M  V30 1613 C 145.983 -0.568417 3.52851 0
M  V30 1614 C 145.649 0.59918 4.46901 0
M  V30 1615 C 144.311 0.919559 4.72332 0
M  V30 1616 C 146.663 1.38156 5.02556 0
M  V30 1617 C 143.991 2.02434 5.5067 0
M  V30 1618 C 146.343 2.47674 5.821 0
M  V30 1619 C 145.007 2.8025 6.05819 0
M  V30 1620 H 144.277 -0.083349 0.736297 0
M  V30 1621 H 146.924 0.494677 1.85001 0
M  V30 1622 H 145.229 -1.37185 3.66998 0
M  V30 1623 H 146.926 -1.03756 3.87344 0
M  V30 1624 H 143.516 0.339437 4.27254 0
M  V30 1625 H 147.7 1.14729 4.82857 0
M  V30 1626 H 142.956 2.28075 5.67267 0
M  V30 1627 H 147.13 3.08716 6.24234 0
M  V30 1628 H 144.757 3.65979 6.66306 0
M  V30 1629 N 146.332 -1.57332 0.0918853 0
M  V30 1630 C 147.557 -1.98995 -0.584442 0
M  V30 1631 C 147.982 -0.970528 -1.61128 0
M  V30 1632 O 147.34 0.0613904 -1.81196 0
M  V30 1633 C 147.388 -3.39636 -1.21161 0
M  V30 1634 O 146.492 -3.40447 -2.32744 0
M  V30 1635 H 145.833 -0.647165 -0.148572 0
M  V30 1636 H 148.363 -2.03873 0.172347 0
M  V30 1637 H 148.373 -3.7726 -1.55367 0
M  V30 1638 H 147.048 -4.13356 -0.459313 0
M  V30 1639 H 145.625 -3.14614 -2.0018 0
M  V30 1640 N 147.81 0.181792 -1.56548 0
M  V30 1641 C 149.087 0.926765 -1.72251 0
M  V30 1642 C 149.467 2.00831 -0.650386 0
M  V30 1643 O 148.815 2.26008 0.336521 0
M  V30 1644 C 149.025 1.50106 -3.1507 0
M  V30 1645 C 150.373 1.97805 -3.75711 0
M  V30 1646 O 151.397 1.59922 -3.18282 0
M  V30 1647 O 150.256 2.67555 -4.76525 0
M  V30 1648 H 147.35 0.435506 -0.703039 0
M  V30 1649 H 149.896 0.170443 -1.68842 0
M  V30 1650 H 148.668 0.72212 -3.84579 0
M  V30 1651 H 148.291 2.32186 -3.22763 0
M  V30 1652 N 149.288 1.51039 0.449983 0
M  V30 1653 C 150.516 1.66869 1.2232 0
M  V30 1654 C 150.931 0.360727 1.85322 0
M  V30 1655 O 150.288 -0.659531 1.70166 0
M  V30 1656 C 150.339 2.77524 2.31652 0
M  V30 1657 O 150.06 4.03252 1.7123 0
M  V30 1658 C 151.561 3.04512 3.2216 0
M  V30 1659 H 148.781 0.560326 0.369155 0
M  V30 1660 H 151.325 1.97385 0.534719 0
M  V30 1661 H 149.48 2.49642 2.96239 0
M  V30 1662 H 149.894 4.64609 2.43389 0
M  V30 1663 H 151.368 3.85551 3.95038 0
M  V30 1664 H 151.845 2.16415 3.8218 0
M  V30 1665 H 152.451 3.34005 2.63288 0
M  V30 1666 N 150.766 -0.704594 1.40972 0
M  V30 1667 C 152.014 -1.46169 1.39568 0
M  V30 1668 C 152.335 -1.95 0.00253745 0
M  V30 1669 O 151.605 -1.71095 -0.954114 0
M  V30 1670 H 150.185 -0.542326 0.513704 0
M  V30 1671 H 152.847 -0.834553 1.76128 0
M  V30 1672 H 151.943 -2.32922 2.07735 0
M  V30 1673 N 152.244 -1.26651 -0.937939 0
M  V30 1674 C 153.192 -1.08308 -2.05845 0
M  V30 1675 C 154.186 -0.0090757 -1.69398 0
M  V30 1676 O 155.392 -0.166007 -1.79233 0
M  V30 1677 H 151.767 -0.333416 -0.674046 0
M  V30 1678 H 153.738 -2.03261 -2.18467 0
M  V30 1679 C 152.487 -0.736229 -3.39816 0
M  V30 1680 H 151.81 -1.55453 -3.6834 0
M  V30 1681 H 153.25 -0.64769 -4.19024 0
M  V30 1682 C 151.709 0.558824 -3.32233 0
M  V30 1683 O 152.239 1.59621 -3.68624 0
M  V30 1684 N 150.445 0.550657 -2.85335 0
M  V30 1685 H 149.992 -0.293943 -2.55917 0
M  V30 1686 H 149.95 1.41726 -2.80644 0
M  V30 1687 N 153.722 1.14298 -1.08507 0
M  V30 1688 C 154.969 1.85359 -0.815373 0
M  V30 1689 C 155.297 1.83001 0.658865 0
M  V30 1690 O 154.552 1.25655 1.50031 0
M  V30 1691 C 154.851 3.33547 -1.28379 0
M  V30 1692 C 154.517 3.56093 -2.76602 0
M  V30 1693 C 153.179 3.61955 -3.17084 0
M  V30 1694 C 155.531 3.64834 -3.72217 0
M  V30 1695 C 152.859 3.74082 -4.51973 0
M  V30 1696 C 155.211 3.78487 -5.06883 0
M  V30 1697 C 153.875 3.82598 -5.46969 0
M  V30 1698 H 153.145 0.678276 -0.298366 0
M  V30 1699 H 155.792 1.35002 -1.35819 0
M  V30 1700 H 154.097 3.86191 -0.660593 0
M  V30 1701 H 155.794 3.86959 -1.05186 0
M  V30 1702 H 152.384 3.52179 -2.4427 0
M  V30 1703 H 156.568 3.59595 -3.42061 0
M  V30 1704 H 151.824 3.75527 -4.82483 0
M  V30 1705 H 155.998 3.84193 -5.80834 0
M  V30 1706 H 153.625 3.91747 -6.51489 0
M  V30 1707 N 155.201 0.870884 1.31352 0
M  V30 1708 C 156.449 0.48132 1.96285 0
M  V30 1709 C 156.77 -0.969813 1.69173 0
M  V30 1710 O 156.04 -1.67998 1.00764 0
M  V30 1711 H 154.62 0.175002 0.726212 0
M  V30 1712 H 157.282 1.11087 1.60143 0
M  V30 1713 H 156.378 0.639825 3.05471 0
M  V30 1714 N 156.679 -1.44442 0.630414 0
M  V30 1715 C 157.926 -2.02052 0.134617 0
M  V30 1716 C 158.254 -1.49576 -1.24327 0
M  V30 1717 O 157.509 -0.669806 -1.83881 0
M  V30 1718 C 157.808 -3.57332 0.0697835 0
M  V30 1719 C 157.474 -4.29058 1.38635 0
M  V30 1720 C 156.136 -4.4837 1.74694 0
M  V30 1721 C 158.488 -4.69872 2.25543 0
M  V30 1722 C 155.816 -5.05756 2.97369 0
M  V30 1723 C 158.168 -5.28616 3.47487 0
M  V30 1724 C 156.832 -5.46147 3.8377 0
M  V30 1725 H 156.102 -0.739361 0.0492598 0
M  V30 1726 H 158.749 -1.73217 0.816586 0
M  V30 1727 H 157.054 -3.85577 -0.695553 0
M  V30 1728 H 158.751 -3.99637 -0.330344 0
M  V30 1729 H 155.341 -4.14357 1.09574 0
M  V30 1730 H 159.525 -4.54666 1.98979 0
M  V30 1731 H 154.781 -5.17515 3.25558 0
M  V30 1732 H 158.955 -5.59192 4.15063 0
M  V30 1733 H 156.582 -5.9038 4.7891 0
M  V30 1734 N 158.157 -0.370918 -1.53173 0
M  V30 1735 C 159.405 0.216673 -2.00935 0
M  V30 1736 C 159.726 1.48845 -1.25977 0
M  V30 1737 O 158.996 1.92286 -0.374551 0
M  V30 1738 H 157.576 0.0830565 -0.742368 0
M  V30 1739 H 160.238 -0.49838 -1.8842 0
M  V30 1740 H 159.334 0.439893 -3.08984 0
M  V30 1741 N 159.635 1.57281 -0.100228 0
M  V30 1742 C 160.884 1.93713 0.561984 0
M  V30 1743 C 161.197 0.984492 1.69018 0
M  V30 1744 O 162.403 1.24273 2.41389 0
M  V30 1745 C 160.859 3.4421 1.05106 0
M  V30 1746 C 160.467 4.47975 -0.0476628 0
M  V30 1747 C 162.211 3.89595 1.68571 0
M  V30 1748 C 160.118 5.89631 0.457055 0
M  V30 1749 H 159.048 0.723082 0.2137 0
M  V30 1750 H 161.699 1.82644 -0.177057 0
M  V30 1751 H 160.081 3.50449 1.84395 0
M  V30 1752 H 161.255 4.53385 -0.823333 0
M  V30 1753 H 159.57 4.1223 -0.587816 0
M  V30 1754 H 162.167 4.92832 2.07414 0
M  V30 1755 H 162.51 3.28526 2.55688 0
M  V30 1756 H 163.043 3.86078 0.958562 0
M  V30 1757 H 159.782 6.54411 -0.377616 0
M  V30 1758 H 159.302 5.87681 1.19962 0
M  V30 1759 H 160.981 6.40363 0.92437 0
M  V30 1760 N 161.113 -0.173488 1.56642 0
M  V30 1761 C 162.045 -1.23935 1.92802 0
M  V30 1762 C 163.058 -1.40589 0.820889 0
M  V30 1763 O 164.247 -1.40631 1.09933 0
M  V30 1764 C 161.347 -2.60837 2.16373 0
M  V30 1765 C 160.52 -2.6551 3.47596 0
M  V30 1766 C 159.579 -3.8376 3.60021 0
M  V30 1767 O 158.605 -3.69859 4.32658 0
M  V30 1768 N 159.807 -5.00127 2.94709 0
M  V30 1769 H 162.572 -0.932236 2.84832 0
M  V30 1770 H 160.133 -0.363268 1.57772 0
M  V30 1771 H 162.125 -3.38407 2.21952 0
M  V30 1772 H 160.695 -2.83948 1.30738 0
M  V30 1773 H 159.915 -1.74052 3.53694 0
M  V30 1774 H 161.203 -2.65641 4.33949 0
M  V30 1775 H 160.601 -5.14322 2.35563 0
M  V30 1776 H 159.158 -5.75567 3.05886 0
M  V30 1777 N 162.591 -1.51276 -0.441967 0
M  V30 1778 C 163.501 -1.75092 -1.56141 0
M  V30 1779 C 164.517 -0.634963 -1.62001 0
M  V30 1780 O 165.693 -0.916686 -1.79329 0
M  V30 1781 C 162.758 -1.86666 -2.92158 0
M  V30 1782 C 161.819 -3.10506 -2.96453 0
M  V30 1783 C 161.052 -3.21519 -4.25982 0
M  V30 1784 O 161.275 -2.38586 -5.18105 0
M  V30 1785 O 160.209 -4.14465 -4.36466 0
M  V30 1786 H 164.035 -2.70044 -1.38961 0
M  V30 1787 H 161.62 -1.35722 -0.624499 0
M  V30 1788 H 163.502 -1.96292 -3.72891 0
M  V30 1789 H 162.177 -0.949014 -3.09476 0
M  V30 1790 H 161.084 -3.06363 -2.14692 0
M  V30 1791 H 162.417 -4.01945 -2.84079 0
M  V30 1792 N 164.069 0.697108 -1.41344 0
M  V30 1793 C 165.019 1.80313 -1.39539 0
M  V30 1794 C 166.003 1.58618 -0.270001 0
M  V30 1795 O 167.195 1.69477 -0.510551 0
M  V30 1796 C 164.324 3.18606 -1.27848 0
M  V30 1797 C 163.41 3.46001 -2.45244 0
M  V30 1798 N 163.801 3.44103 -3.70711 0
M  V30 1799 C 162.099 3.76542 -2.39023 0
M  V30 1800 C 162.8 3.7036 -4.48563 0
M  V30 1801 N 161.776 3.90027 -3.78655 0
M  V30 1802 H 165.578 1.77207 -2.34468 0
M  V30 1803 H 163.092 0.897031 -1.35378 0
M  V30 1804 H 165.089 3.97833 -1.24637 0
M  V30 1805 H 163.749 3.22925 -0.339032 0
M  V30 1806 H 164.76 3.2452 -4.03618 0
M  V30 1807 H 161.437 3.88241 -1.53542 0
M  V30 1808 H 162.827 3.75042 -5.57488 0
M  V30 1809 N 165.547 1.27147 0.931209 0
M  V30 1810 C 166.796 1.12664 1.67302 0
M  V30 1811 C 167.109 -0.327718 1.92835 0
M  V30 1812 O 168.315 -0.593392 2.64936 0
M  V30 1813 C 166.771 1.9683 3.01307 0
M  V30 1814 C 166.379 3.46901 2.83485 0
M  V30 1815 C 168.123 1.90985 3.79111 0
M  V30 1816 C 166.03 4.23279 4.13024 0
M  V30 1817 H 164.96 0.41803 0.627509 0
M  V30 1818 H 167.611 1.51539 1.03481 0
M  V30 1819 H 165.993 1.50797 3.66164 0
M  V30 1820 H 167.167 4.00773 2.27415 0
M  V30 1821 H 165.482 3.54088 2.19113 0
M  V30 1822 H 168.079 2.45328 4.75098 0
M  V30 1823 H 168.422 0.882718 4.06834 0
M  V30 1824 H 168.955 2.34895 3.21044 0
M  V30 1825 H 165.694 5.26503 3.90481 0
M  V30 1826 H 165.214 3.74186 4.6877 0
M  V30 1827 H 166.893 4.32265 4.81411 0
M  V30 1828 N 167.025 -1.13721 1.09112 0
M  V30 1829 C 168.302 -1.81155 0.737706 0
M  V30 1830 C 168.682 -1.96253 -0.777683 0
M  V30 1831 O 168.03 -1.52807 -1.69889 0
M  V30 1832 C 168.24 -3.16392 1.47299 0
M  V30 1833 C 169.588 -3.91787 1.63671 0
M  V30 1834 O 170.612 -3.26005 1.43524 0
M  V30 1835 O 169.471 -5.0977 1.96969 0
M  V30 1836 H 166.565 -0.783518 0.26463 0
M  V30 1837 H 169.111 -1.20676 1.19312 0
M  V30 1838 H 167.883 -3.0061 2.50498 0
M  V30 1839 H 167.506 -3.8457 1.00953 0
M  V30 1840 N 168.503 -0.877838 -1.30888 0
M  V30 1841 C 169.433 -0.35534 -2.3078 0
M  V30 1842 C 170.414 0.557994 -1.60687 0
M  V30 1843 O 171.599 0.473355 -1.88343 0
M  V30 1844 C 168.729 0.437221 -3.44537 0
M  V30 1845 C 167.683 -0.383715 -4.26276 0
M  V30 1846 C 167.009 0.535014 -5.32017 0
M  V30 1847 C 168.309 -1.62201 -4.96476 0
M  V30 1848 H 170.003 -1.19007 -2.74732 0
M  V30 1849 H 167.549 -0.573698 -1.32078 0
M  V30 1850 H 169.502 0.813334 -4.13477 0
M  V30 1851 H 168.226 1.30553 -2.99372 0
M  V30 1852 H 166.885 -0.741874 -3.59015 0
M  V30 1853 H 166.533 1.40083 -4.831 0
M  V30 1854 H 166.233 -0.0104211 -5.87599 0
M  V30 1855 H 167.757 0.907799 -6.03814 0
M  V30 1856 H 169.171 -1.31689 -5.5797 0
M  V30 1857 H 167.568 -2.10711 -5.61891 0
M  V30 1858 H 168.638 -2.37044 -4.23011 0
M  V30 1859 N 169.982 1.44106 -0.638065 0
M  V30 1860 C 171.23 2.01579 -0.145043 0
M  V30 1861 C 171.551 1.50496 1.24 0
M  V30 1862 O 170.821 0.711374 1.82527 0
M  V30 1863 H 169.401 0.745282 -0.05063 0
M  V30 1864 H 172.063 1.76516 -0.826327 0
M  V30 1865 H 171.159 3.11877 -0.118039 0
M  V30 1866 N 171.46 0.379036 1.52974 0
M  V30 1867 C 172.709 -0.207612 2.00629 0
M  V30 1868 C 173.022 -1.48758 1.27006 0
M  V30 1869 O 174.228 -2.15365 1.65318 0
M  V30 1870 C 172.684 -0.42053 3.57435 0
M  V30 1871 C 172.292 0.845587 4.39948 0
M  V30 1872 C 174.036 -0.964102 4.13407 0
M  V30 1873 C 171.943 0.601513 5.88333 0
M  V30 1874 H 170.873 -0.0813591 0.749598 0
M  V30 1875 H 173.524 0.499853 1.76561 0
M  V30 1876 H 171.906 -1.18959 3.7771 0
M  V30 1877 H 173.08 1.61848 4.31442 0
M  V30 1878 H 171.395 1.31336 3.95145 0
M  V30 1879 H 173.992 -1.16225 5.21916 0
M  V30 1880 H 174.335 -1.93019 3.68849 0
M  V30 1881 H 174.868 -0.25487 3.96983 0
M  V30 1882 H 171.607 1.53831 6.37194 0
M  V30 1883 H 171.127 -0.132628 5.99653 0
M  V30 1884 H 172.806 0.232134 6.46583 0
M  V30 1885 N 172.938 -1.57226 0.108567 0
M  V30 1886 C 173.885 -2.14756 -0.845481 0
M  V30 1887 C 174.855 -1.06971 -1.27068 0
M  V30 1888 O 176.04 -1.34827 -1.35005 0
M  V30 1889 C 173.18 -2.74298 -2.09415 0
M  V30 1890 C 172.293 -3.96358 -1.71826 0
M  V30 1891 C 171.428 -4.44021 -2.9158 0
M  V30 1892 C 170.467 -5.58637 -2.50181 0
M  V30 1893 N 169.604 -6.01091 -3.62814 0
M  V30 1894 H 174.444 -2.95961 -0.348035 0
M  V30 1895 H 171.981 -1.46226 -0.160106 0
M  V30 1896 H 173.939 -3.06945 -2.82561 0
M  V30 1897 H 172.569 -1.95801 -2.56636 0
M  V30 1898 H 171.621 -3.69939 -0.885947 0
M  V30 1899 H 172.933 -4.79504 -1.37394 0
M  V30 1900 H 172.087 -4.78522 -3.72963 0
M  V30 1901 H 170.826 -3.59803 -3.29231 0
M  V30 1902 H 169.831 -5.23751 -1.67228 0
M  V30 1903 H 171.056 -6.44613 -2.13659 0
M  V30 1904 H 169.002 -5.19817 -4.00158 0
M  V30 1905 H 168.919 -6.79066 -3.32273 0
M  V30 1906 H 170.187 -6.40227 -4.44668 0
M  V30 1907 N 174.416 0.165178 -1.56732 0
M  V30 1908 C 175.646 0.894919 -1.86212 0
M  V30 1909 C 176.054 1.76066 -0.692627 0
M  V30 1910 O 175.397 1.80387 0.347303 0
M  V30 1911 C 175.459 1.8174 -3.10179 0
M  V30 1912 C 175.123 1.13064 -4.42793 0
M  V30 1913 C 176.12 0.493169 -5.17556 0
M  V30 1914 C 173.805 1.12556 -4.89527 0
M  V30 1915 C 175.799 -0.140209 -6.37246 0
M  V30 1916 C 173.486 0.488366 -6.09145 0
M  V30 1917 C 174.484 -0.143411 -6.82849 0
M  V30 1918 O 174.172 -0.77055 -8.00199 0
M  V30 1919 H 173.904 0.265114 -0.621844 0
M  V30 1920 H 176.458 0.168242 -2.0471 0
M  V30 1921 H 174.688 2.58455 -2.87642 0
M  V30 1922 H 176.377 2.4175 -3.26055 0
M  V30 1923 H 177.143 0.489023 -4.82528 0
M  V30 1924 H 173.022 1.60672 -4.32094 0
M  V30 1925 H 176.566 -0.633932 -6.94714 0
M  V30 1926 H 172.463 0.490116 -6.43637 0
M  V30 1927 H 173.231 -0.670408 -8.1575 0
M  V30 1928 N 175.894 1.51508 0.433938 0
M  V30 1929 C 177.171 1.54888 1.19453 0
M  V30 1930 C 177.551 0.315154 2.08734 0
M  V30 1931 O 176.899 -0.699558 2.17528 0
M  V30 1932 C 177.109 2.86467 1.99342 0
M  V30 1933 C 178.457 3.38545 2.56267 0
M  V30 1934 O 179.481 2.88041 2.0955 0
M  V30 1935 O 178.34 4.26675 3.41483 0
M  V30 1936 H 175.434 0.622863 0.544032 0
M  V30 1937 H 177.98 1.63823 0.442732 0
M  V30 1938 H 176.752 3.67718 1.33788 0
M  V30 1939 H 176.375 2.8071 2.8158 0
M  V30 1940 N 177.372 -0.689602 1.41712 0
M  V30 1941 C 178.783 -1.26973 1.36875 0
M  V30 1942 C 179.134 -1.96124 0.054748 0
M  V30 1943 O 178.259 -1.99141 -0.84687 0
M  V30 1944 C 178.854 -2.30912 2.47922 0
M  V30 1945 C 177.413 -2.84486 2.46464 0
M  V30 1946 C 176.56 -1.58603 2.27465 0
M  V30 1947 H 179.511 -0.48396 1.51141 0
M  V30 1948 H 179.532 -3.12331 2.17323 0
M  V30 1949 H 179.044 -1.80554 3.43543 0
M  V30 1950 H 177.145 -3.39005 1.54617 0
M  V30 1951 H 177.258 -3.34511 3.42986 0
M  V30 1952 H 175.622 -1.84632 1.75451 0
M  V30 1953 H 176.405 -1.10233 3.25121 0
M  V30 1954 N 178.85 -1.27639 -0.924453 0
M  V30 1955 C 180.075 -1.17101 -1.71179 0
M  V30 1956 C 180.5 0.268134 -1.86179 0
M  V30 1957 O 179.858 1.19415 -1.36418 0
M  V30 1958 C 179.906 -1.86313 -3.08739 0
M  V30 1959 O 179.01 -1.16331 -3.95652 0
M  V30 1960 H 178.351 -0.407091 -0.524569 0
M  V30 1961 H 180.881 -1.68767 -1.15666 0
M  V30 1962 H 180.891 -1.938 -3.59034 0
M  V30 1963 H 179.566 -2.91001 -2.97138 0
M  V30 1964 H 178.143 -1.16935 -3.54091 0
M  V30 1965 N 180.328 1.1314 -1.09713 0
M  V30 1966 C 181.577 1.83838 -0.829851 0
M  V30 1967 C 181.89 1.84599 0.646728 0
M  V30 1968 O 183.096 2.51218 1.02965 0
M  V30 1969 C 181.552 3.30069 -1.43466 0
M  V30 1970 C 181.16 3.37688 -2.94399 0
M  V30 1971 C 182.904 4.05788 -1.24645 0
M  V30 1972 C 180.811 4.78209 -3.47952 0
M  V30 1973 H 179.741 0.68877 -0.306777 0
M  V30 1974 H 182.392 1.27448 -1.3202 0
M  V30 1975 H 180.774 3.8628 -0.871996 0
M  V30 1976 H 181.948 2.91456 -3.56918 0
M  V30 1977 H 180.263 2.75436 -3.12289 0
M  V30 1978 H 182.86 5.09535 -1.62107 0
M  V30 1979 H 183.203 4.15878 -0.187357 0
M  V30 1980 H 183.736 3.55915 -1.77678 0
M  V30 1981 H 180.475 4.73311 -4.53495 0
M  V30 1982 H 179.995 5.24924 -2.90198 0
M  V30 1983 H 181.674 5.47133 -3.45332 0
M  V30 1984 N 181.806 0.884767 1.30421 0
M  V30 1985 C 183.054 0.502112 1.95763 0
M  V30 1986 C 183.375 -0.951815 1.70192 0
M  V30 1987 O 182.645 -1.6692 1.0254 0
M  V30 1988 H 181.225 0.182694 0.724315 0
M  V30 1989 H 183.887 1.1278 1.58955 0
M  V30 1990 H 182.983 0.672188 3.04775 0
M  V30 1991 N 183.284 -1.43765 0.645699 0
M  V30 1992 C 184.533 -2.01116 0.153412 0
M  V30 1993 C 184.846 -1.51493 -1.23731 0
M  V30 1994 O 186.052 -2.01067 -1.8244 0
M  V30 1995 C 184.508 -3.59206 0.223473 0
M  V30 1996 C 184.116 -4.17823 1.61642 0
M  V30 1997 C 185.86 -4.23972 -0.211597 0
M  V30 1998 C 183.767 -5.68183 1.64081 0
M  V30 1999 H 182.697 -0.752093 0.0535891 0
M  V30 2000 H 185.348 -1.6482 0.806633 0
M  V30 2001 H 183.73 -3.92867 -0.497118 0
M  V30 2002 H 184.904 -3.95674 2.36176 0
M  V30 2003 H 183.219 -3.65399 1.99681 0
M  V30 2004 H 185.816 -5.34275 -0.213112 0
M  V30 2005 H 186.159 -3.97352 -1.24165 0
M  V30 2006 H 186.692 -3.95166 0.456988 0
M  V30 2007 H 183.431 -5.99559 2.64971 0
M  V30 2008 H 182.951 -5.9241 0.938611 0
M  V30 2009 H 184.63 -6.32085 1.3812 0
M  V30 2010 N 184.763 -0.387143 -1.52771 0
M  V30 2011 C 185.993 0.195585 -2.05672 0
M  V30 2012 C 186.401 1.41241 -1.25887 0
M  V30 2013 O 185.744 1.81265 -0.298081 0
M  V30 2014 C 185.806 0.632327 -3.53895 0
M  V30 2015 C 185.47 -0.470739 -4.54569 0
M  V30 2016 C 186.467 -1.32746 -5.02667 0
M  V30 2017 C 184.152 -0.637151 -4.98243 0
M  V30 2018 C 186.146 -2.33574 -5.93061 0
M  V30 2019 C 183.833 -1.64877 -5.88438 0
M  V30 2020 C 184.831 -2.49649 -6.35739 0
M  V30 2021 O 184.519 -3.49082 -7.24153 0
M  V30 2022 H 184.251 0.033658 -0.675162 0
M  V30 2023 H 186.805 -0.550221 -1.97893 0
M  V30 2024 H 185.035 1.43008 -3.59285 0
M  V30 2025 H 186.724 1.14048 -3.89548 0
M  V30 2026 H 187.49 -1.21019 -4.69659 0
M  V30 2027 H 183.369 0.0129567 -4.60998 0
M  V30 2028 H 186.913 -2.99777 -6.29904 0
M  V30 2029 H 182.81 -1.76643 -6.2086 0
M  V30 2030 H 183.578 -3.45065 -7.42208 0
M  V30 2031 N 186.241 1.57166 -0.116904 0
M  V30 2032 C 187.489 1.94737 0.540533 0
M  V30 2033 C 187.81 1.00096 1.67349 0
M  V30 2034 O 187.08 0.0568854 1.95817 0
M  V30 2035 H 185.66 0.718981 0.202669 0
M  V30 2036 H 188.322 1.94017 -0.185353 0
M  V30 2037 H 187.418 2.97719 0.936483 0
M  V30 2038 N 187.719 -0.156864 1.56817 0
M  V30 2039 C 188.649 -1.19589 2.00551 0
M  V30 2040 C 189.63 -1.4536 0.883426 0
M  V30 2041 O 190.815 -1.56449 1.15054 0
M  V30 2042 C 187.945 -2.53143 2.37773 0
M  V30 2043 C 186.899 -2.41913 3.53075 0
M  V30 2044 C 186.225 -3.80088 3.76081 0
M  V30 2045 C 187.525 -1.91157 4.86062 0
M  V30 2046 H 189.219 -0.832293 2.87599 0
M  V30 2047 H 186.765 -0.398918 1.38364 0
M  V30 2048 H 188.718 -3.26047 2.66967 0
M  V30 2049 H 187.442 -2.91319 1.4765 0
M  V30 2050 H 186.101 -1.71462 3.24031 0
M  V30 2051 H 185.749 -4.15683 2.83225 0
M  V30 2052 H 185.449 -3.73439 4.53671 0
M  V30 2053 H 186.973 -4.54556 4.0769 0
M  V30 2054 H 188.387 -2.53846 5.14038 0
M  V30 2055 H 186.784 -1.95422 5.67389 0
M  V30 2056 H 187.854 -0.866673 4.77092 0
M  V30 2057 N 189.197 -1.51736 -0.425897 0
M  V30 2058 C 190.474 -1.55519 -1.1863 0
M  V30 2059 C 190.854 -0.326219 -2.08564 0
M  V30 2060 O 190.202 0.688012 -2.17896 0
M  V30 2061 C 190.412 -2.87521 -1.9782 0
M  V30 2062 C 191.76 -3.39899 -2.54468 0
M  V30 2063 O 192.784 -2.89148 -2.08019 0
M  V30 2064 O 191.643 -4.2848 -3.39215 0
M  V30 2065 H 188.737 -0.625739 -0.540721 0
M  V30 2066 H 191.283 -1.64055 -0.434038 0
M  V30 2067 H 190.055 -3.68422 -1.31836 0
M  V30 2068 H 189.678 -2.822 -2.80088 0
M  V30 2069 N 190.675 0.682077 -1.42076 0
M  V30 2070 C 191.922 1.44215 -1.42156 0
M  V30 2071 C 192.25 1.94468 -0.0354186 0
M  V30 2072 O 191.505 1.70816 0.955002 0
M  V30 2073 C 191.804 2.66036 -2.38662 0
M  V30 2074 C 191.47 2.34366 -3.85206 0
M  V30 2075 C 190.132 2.25439 -4.25124 0
M  V30 2076 C 192.484 2.08513 -4.77673 0
M  V30 2077 C 189.812 1.88775 -5.55501 0
M  V30 2078 C 192.164 1.73354 -6.08384 0
M  V30 2079 C 190.828 1.62933 -6.47309 0
M  V30 2080 H 190.098 0.527718 -0.520187 0
M  V30 2081 H 192.745 0.778387 -1.74967 0
M  V30 2082 H 191.05 3.3741 -1.99152 0
M  V30 2083 H 192.747 3.24205 -2.35991 0
M  V30 2084 H 189.337 2.42213 -3.53597 0
M  V30 2085 H 193.521 2.14346 -4.47626 0
M  V30 2086 H 188.777 1.7927 -5.84527 0
M  V30 2087 H 192.951 1.52373 -6.79526 0
M  V30 2088 H 190.578 1.34292 -7.48244 0
M  V30 2089 N 192.153 1.28127 0.917671 0
M  V30 2090 C 193.383 1.17722 1.6978 0
M  V30 2091 C 193.791 -0.267261 1.87303 0
M  V30 2092 O 193.134 -1.19286 1.39702 0
M  V30 2093 C 193.196 1.79958 3.11216 0
M  V30 2094 C 192.86 3.29187 3.16993 0
M  V30 2095 C 193.857 4.25679 2.98485 0
M  V30 2096 C 191.542 3.70075 3.39632 0
M  V30 2097 C 193.536 5.61035 3.02521 0
M  V30 2098 C 191.223 5.05557 3.433 0
M  V30 2099 C 192.221 6.00847 3.24764 0
M  V30 2100 O 191.909 7.33859 3.28187 0
M  V30 2101 H 191.641 0.409788 0.537634 0
M  V30 2102 H 194.195 1.69694 1.15728 0
M  V30 2103 H 192.425 1.22475 3.66793 0
M  V30 2104 H 194.114 1.64125 3.71238 0
M  V30 2105 H 194.88 3.95426 2.80826 0
M  V30 2106 H 190.759 2.96373 3.53106 0
M  V30 2107 H 194.303 6.35388 2.87971 0
M  V30 2108 H 190.2 5.35462 3.60486 0
M  V30 2109 H 190.968 7.42436 3.44575 0
M  V30 2110 N 193.631 -1.12557 1.10312 0
M  V30 2111 C 194.877 -1.84311 0.846011 0
M  V30 2112 C 195.21 -1.83805 -0.626859 0
M  V30 2113 O 194.485 -1.28268 -1.46211 0
M  V30 2114 C 194.768 -3.32048 1.39341 0
M  V30 2115 C 194.621 -3.41016 2.93305 0
M  V30 2116 C 195.94 -4.27764 1.03468 0
M  V30 2117 H 193.059 -0.669192 0.30879 0
M  V30 2118 H 195.701 -1.32057 1.36605 0
M  V30 2119 H 193.851 -3.76678 0.951087 0
M  V30 2120 H 195.523 -3.05031 3.46055 0
M  V30 2121 H 193.766 -2.81603 3.29973 0
M  V30 2122 H 194.437 -4.44948 3.26689 0
M  V30 2123 H 196.913 -3.91253 1.41633 0
M  V30 2124 H 195.789 -5.29549 1.44463 0
M  V30 2125 H 196.05 -4.42064 -0.0560404 0
M  V30 2126 N 195.109 -0.891671 -1.2995 0
M  V30 2127 C 196.355 -0.514261 -1.96171 0
M  V30 2128 C 196.688 0.935506 -1.70182 0
M  V30 2129 O 195.963 1.66204 -1.01028 0
M  V30 2130 C 196.246 -0.797719 -3.51153 0
M  V30 2131 C 196.099 -2.2986 -3.86632 0
M  V30 2132 C 197.418 -0.278749 -4.39216 0
M  V30 2133 H 194.537 -0.188314 -0.712535 0
M  V30 2134 H 197.179 -1.11689 -1.53706 0
M  V30 2135 H 195.329 -0.284826 -3.87455 0
M  V30 2136 H 197.001 -2.88042 -3.60319 0
M  V30 2137 H 195.244 -2.76257 -3.34462 0
M  V30 2138 H 195.915 -2.44753 -4.94773 0
M  V30 2139 H 198.391 -0.717825 -4.09862 0
M  V30 2140 H 197.267 -0.506353 -5.46559 0
M  V30 2141 H 197.528 0.820266 -4.34424 0
M  V30 2142 N 196.587 1.43421 -0.653314 0
M  V30 2143 C 197.517 2.33487 0.0246656 0
M  V30 2144 C 198.498 1.49475 0.811863 0
M  V30 2145 O 199.683 1.78139 0.773322 0
M  V30 2146 C 196.813 3.32841 0.99166 0
M  V30 2147 C 195.767 4.26842 0.314568 0
M  V30 2148 C 195.093 5.16236 1.39302 0
M  V30 2149 C 196.393 5.16243 -0.793095 0
M  V30 2150 H 198.087 2.90427 -0.727481 0
M  V30 2151 H 195.633 1.39649 -0.351287 0
M  V30 2152 H 197.586 3.94747 1.47487 0
M  V30 2153 H 196.31 2.74158 1.77497 0
M  V30 2154 H 194.969 3.663 -0.148199 0
M  V30 2155 H 194.617 4.53891 2.16776 0
M  V30 2156 H 194.317 5.79948 0.945223 0
M  V30 2157 H 195.841 5.81015 1.87759 0
M  V30 2158 H 197.255 5.71958 -0.392039 0
M  V30 2159 H 195.652 5.88676 -1.16536 0
M  V30 2160 H 196.722 4.55927 -1.65103 0
M  V30 2161 N 198.065 0.39524 1.52563 0
M  V30 2162 C 199.313 -0.184678 2.01254 0
M  V30 2163 C 199.634 -1.46822 1.28329 0
M  V30 2164 O 198.904 -1.91666 0.405094 0
M  V30 2165 H 197.484 -0.0712355 0.743596 0
M  V30 2166 H 200.146 0.528293 1.87603 0
M  V30 2167 H 199.242 -0.390681 3.09645 0
M  V30 2168 N 199.544 -1.57102 0.125237 0
M  V30 2169 C 200.96 -1.57915 -0.231322 0
M  V30 2170 C 201.16 -1.13833 -1.66266 0
M  V30 2171 O 200.216 -0.828581 -2.38518 0
M  V30 2172 C 201.529 -3.00699 0.00766489 0
M  V30 2173 C 203.077 -3.12947 -0.0577483 0
M  V30 2174 C 203.552 -4.57742 0.153626 0
M  V30 2175 N 205.043 -4.63092 0.0998073 0
M  V30 2176 C 205.778 -5.72905 0.238174 0
M  V30 2177 N 205.274 -6.91445 0.433057 0
M  V30 2178 N 207.067 -5.6182 0.177308 0
M  V30 2179 H 199.218 -1.84055 1.06007 0
M  V30 2180 H 201.481 -0.850905 0.417929 0
M  V30 2181 H 201.187 -3.3726 0.997431 0
M  V30 2182 H 201.061 -3.70236 -0.721452 0
M  V30 2183 H 203.448 -2.7624 -1.03804 0
M  V30 2184 H 203.529 -2.4594 0.70335 0
M  V30 2185 H 203.173 -4.95149 1.13092 0
M  V30 2186 H 203.103 -5.22848 -0.627534 0
M  V30 2187 H 205.594 -3.77871 -0.047051 0
M  V30 2188 H 205.907 -7.70985 0.529332 0
M  V30 2189 H 204.252 -6.93415 0.469109 0
M  V30 2190 H 207.443 -4.68093 0.0259748 0
M  V30 2191 H 207.616 -6.47357 0.288582 0
M  V30 2192 N 201.022 0.148545 -1.56898 0
M  V30 2193 C 202.433 0.708766 -1.72723 0
M  V30 2194 C 202.784 1.81734 -0.739395 0
M  V30 2195 O 201.909 2.16194 0.0943169 0
M  V30 2196 C 202.504 1.29245 -3.13179 0
M  V30 2197 C 201.063 1.79925 -3.30611 0
M  V30 2198 C 200.21 0.687111 -2.68652 0
M  V30 2199 H 203.161 -0.0771063 -1.58513 0
M  V30 2200 H 203.182 2.16224 -3.13093 0
M  V30 2201 H 202.694 0.485382 -3.85053 0
M  V30 2202 H 200.795 2.63203 -2.63732 0
M  V30 2203 H 200.908 1.92903 -4.38549 0
M  V30 2204 H 199.272 1.11335 -2.29078 0
M  V30 2205 H 200.055 -0.108483 -3.43129 0
M  V30 2206 N 202.5 1.5196 0.417844 0
M  V30 2207 C 203.748 1.65263 1.16329 0
M  V30 2208 C 204.069 0.380634 1.91249 0
M  V30 2209 O 203.339 -0.604214 1.86349 0
M  V30 2210 H 201.919 0.60912 0.432414 0
M  V30 2211 H 204.581 1.88969 0.477162 0
M  V30 2212 H 203.677 2.4896 1.88217 0
M  V30 2213 N 203.978 -0.674533 1.42435 0
M  V30 2214 C 205.225 -1.43459 1.42919 0
M  V30 2215 C 205.553 -1.94446 0.0457312 0
M  V30 2216 O 204.808 -1.7132 -0.94593 0
M  V30 2217 C 205.107 -2.64767 2.40069 0
M  V30 2218 C 204.773 -2.3232 3.86443 0
M  V30 2219 C 203.435 -2.23182 4.26314 0
M  V30 2220 C 205.787 -2.05977 4.78773 0
M  V30 2221 C 203.115 -1.85827 5.56494 0
M  V30 2222 C 205.467 -1.70125 6.09295 0
M  V30 2223 C 204.131 -1.59498 6.48164 0
M  V30 2224 H 203.401 -0.524952 0.522978 0
M  V30 2225 H 206.048 -0.769097 1.75377 0
M  V30 2226 H 204.353 -3.36349 2.00939 0
M  V30 2227 H 206.05 -3.22949 2.37707 0
M  V30 2228 H 202.64 -2.40334 3.54877 0
M  V30 2229 H 206.824 -2.11969 4.48757 0
M  V30 2230 H 202.08 -1.76168 5.8547 0
M  V30 2231 H 206.254 -1.48767 6.80324 0
M  V30 2232 H 203.881 -1.30322 7.48946 0
M  V30 2233 N 205.456 -1.28612 -0.910864 0
M  V30 2234 C 206.681 -1.1891 -1.69927 0
M  V30 2235 C 207.106 0.248372 -1.86453 0
M  V30 2236 O 206.464 1.17961 -1.37676 0
M  V30 2237 C 206.512 -1.89578 -3.06745 0
M  V30 2238 O 205.616 -1.20521 -3.94396 0
M  V30 2239 H 204.957 -0.412632 -0.520222 0
M  V30 2240 H 207.487 -1.69985 -1.1387 0
M  V30 2241 H 207.497 -1.97597 -3.56958 0
M  V30 2242 H 206.172 -2.94136 -2.94035 0
M  V30 2243 H 204.749 -1.20684 -3.52831 0
M  V30 2244 N 206.934 1.1197 -1.10907 0
M  V30 2245 C 208.183 1.82947 -0.849302 0
M  V30 2246 C 208.496 1.85275 0.627112 0
M  V30 2247 O 209.702 2.52296 1.00295 0
M  V30 2248 C 208.158 3.28529 -1.46959 0
M  V30 2249 C 207.766 3.34546 -2.97965 0
M  V30 2250 C 209.51 4.04443 -1.28942 0
M  V30 2251 C 207.417 4.74491 -3.53004 0
M  V30 2252 H 206.347 0.685477 -0.314065 0
M  V30 2253 H 208.998 1.2604 -1.33365 0
M  V30 2254 H 207.38 3.85333 -0.912917 0
M  V30 2255 H 208.554 2.87654 -3.59989 0
M  V30 2256 H 206.869 2.72108 -3.15192 0
M  V30 2257 H 209.466 5.07787 -1.67502 0
M  V30 2258 H 209.809 4.15656 -0.231456 0
M  V30 2259 H 210.342 3.5401 -1.81443 0
M  V30 2260 H 207.081 4.68474 -4.58489 0
M  V30 2261 H 206.601 5.21816 -2.9575 0
M  V30 2262 H 208.28 5.4344 -3.51115 0
M  V30 2263 N 208.412 0.89855 1.29475 0
M  V30 2264 C 209.375 0.380272 2.26023 0
M  V30 2265 C 210.375 -0.484891 1.53315 0
M  V30 2266 O 211.565 -0.290108 1.71767 0
M  V30 2267 C 208.697 -0.45651 3.3783 0
M  V30 2268 H 209.89 1.23295 2.73383 0
M  V30 2269 H 207.443 0.676589 1.40897 0
M  V30 2270 H 208.178 -1.32922 2.95808 0
M  V30 2271 H 207.963 0.163393 3.91759 0
M  V30 2272 H 209.453 -0.810466 4.0966 0
M  V30 2273 N 209.89 -1.43072 0.660911 0
M  V30 2274 C 211.167 -1.95307 0.107017 0
M  V30 2275 C 211.547 -1.60192 -1.37484 0
M  V30 2276 O 210.895 -0.890949 -2.10415 0
M  V30 2277 C 211.105 -3.47124 0.361402 0
M  V30 2278 C 212.453 -4.23738 0.270455 0
M  V30 2279 O 213.477 -3.54981 0.294382 0
M  V30 2280 O 212.336 -5.46131 0.200737 0
M  V30 2281 H 209.43 -0.826984 -0.00517729 0
M  V30 2282 H 211.976 -1.52972 0.734681 0
M  V30 2283 H 210.748 -3.65837 1.38848 0
M  V30 2284 H 210.371 -3.96475 -0.298953 0
M  V30 2285 N 211.368 -0.403325 -1.52352 0
M  V30 2286 C 212.315 0.425011 -2.26853 0
M  V30 2287 C 213.285 1.04598 -1.29029 0
M  V30 2288 O 214.47 1.07135 -1.57882 0
M  V30 2289 C 211.61 1.53888 -3.08889 0
M  V30 2290 C 210.723 0.939396 -4.21663 0
M  V30 2291 C 209.858 2.02547 -4.91068 0
M  V30 2292 C 208.897 1.40263 -5.95813 0
M  V30 2293 N 208.034 2.4286 -6.58759 0
M  V30 2294 H 212.874 -0.21674 -2.97211 0
M  V30 2295 H 210.411 -0.118722 -1.4662 0
M  V30 2296 H 212.369 2.19558 -3.54753 0
M  V30 2297 H 210.999 2.15074 -2.40714 0
M  V30 2298 H 210.051 0.171898 -3.80011 0
M  V30 2299 H 211.363 0.44436 -4.96817 0
M  V30 2300 H 210.517 2.75958 -5.40308 0
M  V30 2301 H 209.256 2.55415 -4.15469 0
M  V30 2302 H 208.261 0.653833 -5.45898 0
M  V30 2303 H 209.486 0.881719 -6.73352 0
M  V30 2304 H 207.432 2.94871 -5.85992 0
M  V30 2305 H 207.349 1.98152 -7.2957 0
M  V30 2306 H 208.617 3.15858 -7.12639 0
M  V30 2307 N 212.846 1.57033 -0.133567 0
M  V30 2308 C 213.793 2.16074 0.811208 0
M  V30 2309 C 214.763 1.08979 1.2535 0
M  V30 2310 O 215.948 1.36958 1.32843 0
M  V30 2311 C 213.088 2.77595 2.05024 0
M  V30 2312 C 212.201 3.99042 1.65498 0
M  V30 2313 C 211.336 4.48603 2.84479 0
M  V30 2314 C 210.375 5.62547 2.41262 0
M  V30 2315 N 209.512 6.06787 3.53206 0
M  V30 2316 H 214.352 2.96477 0.300906 0
M  V30 2317 H 211.889 1.46462 0.136822 0
M  V30 2318 H 213.847 3.11402 2.77642 0
M  V30 2319 H 212.477 1.99859 2.53488 0
M  V30 2320 H 211.529 3.71302 0.826981 0
M  V30 2321 H 212.841 4.81629 1.29748 0
M  V30 2322 H 211.995 4.84395 3.65303 0
M  V30 2323 H 210.734 3.64995 3.23465 0
M  V30 2324 H 209.739 5.26345 1.58874 0
M  V30 2325 H 210.964 6.47931 2.03377 0
M  V30 2326 H 208.91 5.26117 3.91838 0
M  V30 2327 H 208.827 6.84266 3.21427 0
M  V30 2328 H 210.095 6.4722 4.34427 0
M  V30 2329 N 214.325 -0.140222 1.56975 0
M  V30 2330 C 215.741 -0.493088 1.51792 0
M  V30 2331 C 215.941 -1.83013 0.843116 0
M  V30 2332 O 214.997 -2.49041 0.416493 0
M  V30 2333 C 216.31 -0.497144 2.96562 0
M  V30 2334 C 217.858 -0.582186 3.07538 0
M  V30 2335 C 218.333 -0.616838 4.53827 0
M  V30 2336 N 219.824 -0.678873 4.58198 0
M  V30 2337 C 220.559 -0.726782 5.68775 0
M  V30 2338 N 220.055 -0.733623 6.88905 0
M  V30 2339 N 221.848 -0.768179 5.56826 0
M  V30 2340 H 213.999 0.736108 1.99237 0
M  V30 2341 H 216.262 0.269182 0.90898 0
M  V30 2342 H 215.968 0.417217 3.49217 0
M  V30 2343 H 215.842 -1.33263 3.52875 0
M  V30 2344 H 218.229 -1.48697 2.54899 0
M  V30 2345 H 218.31 0.280581 2.54257 0
M  V30 2346 H 217.954 0.283812 5.07106 0
M  V30 2347 H 217.884 -1.49619 5.04898 0
M  V30 2348 H 220.375 -0.68061 3.7172 0
M  V30 2349 H 220.688 -0.772215 7.68932 0
M  V30 2350 H 219.033 -0.701389 6.91452 0
M  V30 2351 H 222.224 -0.760051 4.61888 0
M  V30 2352 H 222.397 -0.80205 6.43017 0
M  V30 2353 N 215.803 -1.52179 -0.40978 0
M  V30 2354 C 217.219 -1.40968 -0.74835 0
M  V30 2355 C 217.419 -0.513657 -1.94843 0
M  V30 2356 O 216.475 0.0208026 -2.52491 0
M  V30 2357 C 217.788 -2.83483 -1.0029 0
M  V30 2358 C 219.336 -2.92821 -1.10565 0
M  V30 2359 C 219.811 -4.36303 -1.39296 0
M  V30 2360 N 221.302 -4.39535 -1.46162 0
M  V30 2361 C 222.037 -5.47614 -1.70018 0
M  V30 2362 N 221.533 -6.65812 -1.91483 0
M  V30 2363 N 223.326 -5.35129 -1.72027 0
M  V30 2364 H 215.477 -2.0897 0.380186 0
M  V30 2365 H 217.74 -0.94185 0.107805 0
M  V30 2366 H 217.446 -3.51168 -0.193461 0
M  V30 2367 H 217.32 -3.24487 -1.92323 0
M  V30 2368 H 219.707 -2.25318 -1.90568 0
M  V30 2369 H 219.788 -2.55276 -0.16369 0
M  V30 2370 H 219.432 -5.04366 -0.598109 0
M  V30 2371 H 219.362 -4.71385 -2.34743 0
M  V30 2372 H 221.853 -3.54332 -1.31367 0
M  V30 2373 H 222.166 -7.43964 -2.09134 0
M  V30 2374 H 220.511 -6.68879 -1.88749 0
M  V30 2375 H 223.702 -4.41764 -1.54796 0
M  V30 2376 H 223.875 -6.19433 -1.9028 0
M  V30 2377 N 217.281 0.66697 -1.42791 0
M  V30 2378 C 218.509 1.45505 -1.47091 0
M  V30 2379 C 218.924 1.8861 -0.0845873 0
M  V30 2380 O 218.281 1.58632 0.90234 0
M  V30 2381 C 218.332 2.69906 -2.40485 0
M  V30 2382 O 218.053 2.28608 -3.73725 0
M  V30 2383 C 219.554 3.63396 -2.53886 0
M  V30 2384 H 216.774 0.447459 -0.500022 0
M  V30 2385 H 219.318 0.818866 -1.8739 0
M  V30 2386 H 217.473 3.29696 -2.03419 0
M  V30 2387 H 217.887 3.08997 -4.23817 0
M  V30 2388 H 219.361 4.47387 -3.2334 0
M  V30 2389 H 219.838 4.09824 -1.57927 0
M  V30 2390 H 220.444 3.09495 -2.91706 0
M  V30 2391 N 218.759 1.29093 0.90403 0
M  V30 2392 C 220.007 1.16583 1.65085 0
M  V30 2393 C 220.328 -0.283933 1.92922 0
M  V30 2394 O 219.598 -1.19509 1.55224 0
M  V30 2395 H 218.178 0.428467 0.611903 0
M  V30 2396 H 220.84 1.61959 1.08422 0
M  V30 2397 H 219.936 1.71266 2.6091 0
M  V30 2398 N 220.237 -1.11381 1.11499 0
M  V30 2399 C 221.477 -1.84763 0.874188 0
M  V30 2400 C 221.841 -1.82726 -0.589496 0
M  V30 2401 O 223.042 -2.51562 -0.947089 0
M  V30 2402 C 221.313 -3.27931 1.42112 0
M  V30 2403 S 222.872 -4.18557 1.31739 0
M  V30 2404 H 219.69 -0.637115 0.315603 0
M  V30 2405 H 222.292 -1.34097 1.42261 0
M  V30 2406 H 220.996 -3.26978 2.48019 0
M  V30 2407 H 220.527 -3.83665 0.869761 0
M  V30 2408 H 222.542 -4.95396 0.282335 0
M  V30 2409 N 221.715 -0.905404 -1.28997 0
M  V30 2410 C 222.964 -0.530191 -1.94607 0
M  V30 2411 C 223.277 0.929185 -1.72121 0
M  V30 2412 O 224.483 1.41218 -2.31883 0
M  V30 2413 C 222.939 -0.897333 -3.48534 0
M  V30 2414 C 222.547 -2.37587 -3.79811 0
M  V30 2415 C 224.291 -0.592304 -4.20347 0
M  V30 2416 C 222.198 -2.68357 -5.27009 0
M  V30 2417 H 221.128 -0.194558 -0.728466 0
M  V30 2418 H 223.779 -1.10318 -1.46636 0
M  V30 2419 H 222.161 -0.253214 -3.9519 0
M  V30 2420 H 223.335 -3.06602 -3.43994 0
M  V30 2421 H 221.65 -2.6505 -3.2115 0
M  V30 2422 H 224.247 -0.798975 -5.28697 0
M  V30 2423 H 224.59 0.469474 -4.13644 0
M  V30 2424 H 225.123 -1.19452 -3.79442 0
M  V30 2425 H 221.862 -3.73355 -5.38782 0
M  V30 2426 H 221.382 -2.03971 -5.64053 0
M  V30 2427 H 223.061 -2.54922 -5.94663 0
M  V30 2428 N 223.193 1.4272 -0.668489 0
M  V30 2429 C 224.441 2.01226 -0.187769 0
M  V30 2430 C 224.762 1.53092 1.2078 0
M  V30 2431 O 224.032 0.74993 1.80977 0
M  V30 2432 H 222.612 0.744041 -0.0664272 0
M  V30 2433 H 225.274 1.74723 -0.863583 0
M  V30 2434 H 224.37 3.11556 -0.184166 0
M  V30 2435 N 224.671 0.411399 1.52136 0
M  V30 2436 C 225.634 -0.401089 2.25663 0
M  V30 2437 C 226.634 -0.971732 1.28117 0
M  V30 2438 O 227.824 -0.850254 1.52041 0
M  V30 2439 C 224.956 -1.56483 3.02863 0
M  V30 2440 H 226.149 0.24295 2.98914 0
M  V30 2441 H 223.702 0.163968 1.55438 0
M  V30 2442 H 224.437 -2.24567 2.33967 0
M  V30 2443 H 224.222 -1.16211 3.74483 0
M  V30 2444 H 225.712 -2.13951 3.58629 0
M  V30 2445 N 226.149 -1.5696 0.141893 0
M  V30 2446 C 227.096 -2.16501 -0.799737 0
M  V30 2447 C 228.066 -1.09643 -1.24771 0
M  V30 2448 O 229.251 -1.3766 -1.32115 0
M  V30 2449 C 226.391 -2.78679 -2.03549 0
M  V30 2450 C 225.504 -3.99914 -1.6338 0
M  V30 2451 C 224.639 -4.50106 -2.82096 0
M  V30 2452 C 223.678 -5.63819 -2.38275 0
M  V30 2453 N 222.815 -6.08651 -3.49983 0
M  V30 2454 H 227.655 -2.96632 -0.285179 0
M  V30 2455 H 225.192 -1.46533 -0.129053 0
M  V30 2456 H 227.15 -3.1287 -2.75986 0
M  V30 2457 H 225.78 -2.012 -2.52425 0
M  V30 2458 H 224.832 -3.71735 -0.807279 0
M  V30 2459 H 226.144 -4.82311 -1.27192 0
M  V30 2460 H 225.298 -4.86325 -3.62729 0
M  V30 2461 H 224.037 -3.66706 -3.21525 0
M  V30 2462 H 223.042 -5.2718 -1.56081 0
M  V30 2463 H 224.267 -6.49 -1.99938 0
M  V30 2464 H 222.213 -5.28188 -3.89042 0
M  V30 2465 H 222.13 -6.85961 -3.17794 0
M  V30 2466 H 223.398 -6.49515 -4.30988 0
M  V30 2467 N 227.627 0.131896 -1.57047 0
M  V30 2468 C 228.577 1.1679 -1.95816 0
M  V30 2469 C 229.561 1.37756 -0.831393 0
M  V30 2470 O 230.753 1.39065 -1.09499 0
M  V30 2471 C 227.882 2.49778 -2.35512 0
M  V30 2472 C 226.968 2.32342 -3.54793 0
M  V30 2473 N 227.359 1.8469 -4.70875 0
M  V30 2474 C 225.657 2.63043 -3.60173 0
M  V30 2475 C 226.358 1.80656 -5.52936 0
M  V30 2476 N 225.334 2.24528 -4.95064 0
M  V30 2477 H 229.136 0.791818 -2.83033 0
M  V30 2478 H 226.65 0.339791 -1.58805 0
M  V30 2479 H 228.647 3.24692 -2.61498 0
M  V30 2480 H 227.307 2.88156 -1.49654 0
M  V30 2481 H 228.318 1.54429 -4.9434 0
M  V30 2482 H 224.995 3.05193 -2.84892 0
M  V30 2483 H 226.385 1.45178 -6.56028 0
M  V30 2484 N 229.106 1.52395 0.401703 0
M  V30 2485 C 230.522 1.41363 0.740864 0
M  V30 2486 C 230.722 0.523982 1.94568 0
M  V30 2487 O 229.778 -0.00741204 2.52499 0
M  V30 2488 C 231.091 2.84011 0.987847 0
M  V30 2489 C 232.639 2.93404 1.09011 0
M  V30 2490 C 233.114 4.37036 1.3698 0
M  V30 2491 N 234.605 4.40304 1.43829 0
M  V30 2492 C 235.34 5.48508 1.67112 0
M  V30 2493 N 234.836 6.66819 1.87949 0
M  V30 2494 N 236.629 5.36034 1.69187 0
M  V30 2495 H 228.78 2.08765 -0.391262 0
M  V30 2496 H 231.043 0.941265 -0.112798 0
M  V30 2497 H 230.749 3.51265 0.174835 0
M  V30 2498 H 230.623 3.25502 1.906 0
M  V30 2499 H 233.01 2.26325 1.8937 0
M  V30 2500 H 233.091 2.55359 0.15015 0
M  V30 2501 H 232.735 5.04676 0.571353 0
M  V30 2502 H 232.665 4.72623 2.3224 0
M  V30 2503 H 235.156 3.55024 1.29486 0
M  V30 2504 H 235.469 7.45063 2.05185 0
M  V30 2505 H 233.814 6.6987 1.85199 0
M  V30 2506 H 237.005 4.42579 1.52451 0
M  V30 2507 H 237.178 6.20434 1.86993 0
M  V30 2508 N 230.584 -0.659388 1.43143 0
M  V30 2509 C 231.833 -1.41518 1.43721 0
M  V30 2510 C 232.146 -1.95499 0.0628176 0
M  V30 2511 O 233.352 -2.71446 -0.0539683 0
M  V30 2512 C 231.808 -2.5608 2.52885 0
M  V30 2513 C 231.416 -2.08733 3.96402 0
M  V30 2514 C 233.16 -3.3349 2.62649 0
M  V30 2515 C 231.067 -3.20469 4.97045 0
M  V30 2516 H 229.997 -0.531705 0.534608 0
M  V30 2517 H 232.648 -0.712343 1.69109 0
M  V30 2518 H 231.03 -3.28805 2.20688 0
M  V30 2519 H 232.204 -1.43059 4.3803 0
M  V30 2520 H 230.519 -1.44219 3.90627 0
M  V30 2521 H 233.116 -4.16734 3.35017 0
M  V30 2522 H 233.459 -3.8111 1.67513 0
M  V30 2523 H 233.992 -2.67842 2.94118 0
M  V30 2524 H 230.731 -2.77824 5.93712 0
M  V30 2525 H 230.251 -3.84874 4.60034 0
M  V30 2526 H 231.93 -3.85698 5.19467 0
M  V30 2527 N 232.062 -1.29571 -0.897171 0
M  V30 2528 C 233.287 -1.20705 -1.68656 0
M  V30 2529 C 233.712 0.228582 -1.86706 0
M  V30 2530 O 233.07 1.16494 -1.3892 0
M  V30 2531 C 233.118 -1.9282 -3.04717 0
M  V30 2532 O 232.222 -1.24697 -3.93096 0
M  V30 2533 H 231.563 -0.418126 -0.515816 0
M  V30 2534 H 234.093 -1.71183 -1.12061 0
M  V30 2535 H 234.103 -2.01372 -3.54843 0
M  V30 2536 H 232.778 -2.97239 -2.90899 0
M  V30 2537 H 231.355 -1.2442 -3.51531 0
M  V30 2538 N 233.54 1.10788 -1.12088 0
M  V30 2539 C 234.487 2.17025 -0.785407 0
M  V30 2540 C 235.457 1.64265 0.246191 0
M  V30 2541 O 236.642 1.90412 0.121584 0
M  V30 2542 C 233.782 3.44249 -0.242177 0
M  V30 2543 C 232.895 4.1098 -1.33115 0
M  V30 2544 C 232.03 5.25911 -0.747741 0
M  V30 2545 C 231.069 5.84538 -1.81609 0
M  V30 2546 N 230.206 6.90853 -1.25167 0
M  V30 2547 H 235.046 2.45066 -1.69548 0
M  V30 2548 H 232.583 1.20297 -0.846582 0
M  V30 2549 H 234.541 4.17101 0.0908026 0
M  V30 2550 H 233.171 3.16571 0.631072 0
M  V30 2551 H 232.223 3.36133 -1.78097 0
M  V30 2552 H 233.535 4.50601 -2.13917 0
M  V30 2553 H 232.689 6.056 -0.365216 0
M  V30 2554 H 231.428 4.87614 0.0915188 0
M  V30 2555 H 230.433 5.03522 -2.20785 0
M  V30 2556 H 231.658 6.249 -2.6585 0
M  V30 2557 H 229.604 6.54562 -0.434174 0
M  V30 2558 H 229.521 7.29166 -1.99633 0
M  V30 2559 H 230.789 7.7433 -0.896259 0
M  V30 2560 N 235.018 0.912232 1.28515 0
M  V30 2561 C 235.928 0.404506 2.31086 0
M  V30 2562 C 236.944 -0.50707 1.66448 0
M  V30 2563 O 238.12 -0.393624 1.97516 0
M  V30 2564 C 235.185 -0.348572 3.44943 0
M  V30 2565 C 234.246 0.59604 4.25142 0
M  V30 2566 C 233.479 -0.121194 5.33562 0
M  V30 2567 O 233.702 -1.34317 5.5436 0
M  V30 2568 O 232.636 0.542716 5.99448 0
M  V30 2569 H 236.462 1.25579 2.76521 0
M  V30 2570 H 234.047 0.676998 1.33181 0
M  V30 2571 H 235.929 -0.77395 4.14232 0
M  V30 2572 H 234.604 -1.17571 3.01594 0
M  V30 2573 H 233.511 1.07079 3.58448 0
M  V30 2574 H 234.844 1.38995 4.72167 0
M  V30 2575 N 236.496 -1.42363 0.676048 0
M  V30 2576 C 237.406 -2.346 -0.00153389 0
M  V30 2577 C 238.422 -1.5516 -0.787485 0
M  V30 2578 O 239.598 -1.87723 -0.729521 0
M  V30 2579 C 236.663 -3.33705 -0.940298 0
M  V30 2580 C 235.724 -4.29042 -0.148739 0
M  V30 2581 C 234.957 -5.23413 -1.04279 0
M  V30 2582 O 235.18 -5.22749 -2.28232 0
M  V30 2583 O 234.114 -5.99795 -0.502925 0
M  V30 2584 H 237.94 -2.94082 0.758268 0
M  V30 2585 H 235.525 -1.42888 0.436289 0
M  V30 2586 H 237.407 -3.94586 -1.47917 0
M  V30 2587 H 236.082 -2.76695 -1.67993 0
M  V30 2588 H 234.989 -3.71571 0.43427 0
M  V30 2589 H 236.322 -4.89097 0.551805 0
M  V30 2590 N 237.974 -0.419461 -1.51915 0
M  V30 2591 C 238.937 0.389116 -2.25873 0
M  V30 2592 C 239.937 0.964924 -1.28631 0
M  V30 2593 O 241.127 0.842179 -1.52489 0
M  V30 2594 C 238.259 1.54874 -3.03689 0
M  V30 2595 H 239.452 -0.258799 -2.98781 0
M  V30 2596 H 237.005 -0.172209 -1.55348 0
M  V30 2597 H 237.74 2.23323 -2.35154 0
M  V30 2598 H 237.525 1.14223 -3.75094 0
M  V30 2599 H 239.015 2.12046 -3.59759 0
M  V30 2600 N 239.452 1.56882 -0.150215 0
M  V30 2601 C 240.385 2.12712 0.826358 0
M  V30 2602 C 241.363 1.05154 1.24022 0
M  V30 2603 O 242.547 1.33004 1.33575 0
M  V30 2604 C 239.674 2.64945 2.11002 0
M  V30 2605 C 238.72 3.8468 1.84183 0
M  V30 2606 S 239.553 5.25502 1.02995 0
M  V30 2607 C 240.709 5.81125 2.32474 0
M  V30 2608 H 240.942 2.95214 0.351598 0
M  V30 2609 H 238.475 1.54267 0.0641211 0
M  V30 2610 H 240.433 2.95689 2.84742 0
M  V30 2611 H 239.094 1.82568 2.55593 0
M  V30 2612 H 238.287 4.19482 2.79375 0
M  V30 2613 H 237.889 3.54714 1.1855 0
M  V30 2614 H 240.181 5.92753 3.281 0
M  V30 2615 H 241.124 6.78625 2.02171 0
M  V30 2616 H 241.532 5.09392 2.43269 0
M  V30 2617 N 240.93 -0.123565 1.57115 0
M  V30 2618 C 242.346 -0.476961 1.52306 0
M  V30 2619 C 242.546 -1.82109 0.86248 0
M  V30 2620 O 241.602 -2.48586 0.442884 0
M  V30 2621 C 242.915 -0.465661 2.97073 0
M  V30 2622 C 244.463 -0.549534 3.08138 0
M  V30 2623 C 244.938 -0.568669 4.54456 0
M  V30 2624 N 246.429 -0.630237 4.58892 0
M  V30 2625 C 247.164 -0.666415 5.69514 0
M  V30 2626 N 246.66 -0.660514 6.89644 0
M  V30 2627 N 248.453 -0.709077 5.5761 0
M  V30 2628 H 240.604 0.757198 1.98445 0
M  V30 2629 H 242.867 0.278808 0.906074 0
M  V30 2630 H 242.573 0.454232 3.48754 0
M  V30 2631 H 242.447 -1.29513 3.54269 0
M  V30 2632 H 244.834 -1.45985 2.56461 0
M  V30 2633 H 244.915 0.307532 2.53945 0
M  V30 2634 H 244.559 0.337581 5.06777 0
M  V30 2635 H 244.489 -1.44256 5.06456 0
M  V30 2636 H 246.98 -0.641146 3.72421 0
M  V30 2637 H 247.293 -0.690616 7.69708 0
M  V30 2638 H 245.638 -0.628012 6.92157 0
M  V30 2639 H 248.829 -0.711019 4.62668 0
M  V30 2640 H 249.002 -0.733804 6.43832 0
M  V30 2641 N 242.408 -1.52605 -0.393616 0
M  V30 2642 C 243.654 -1.68624 -1.13743 0
M  V30 2643 C 244.009 -0.418687 -1.87789 0
M  V30 2644 O 243.302 0.58747 -1.82371 0
M  V30 2645 C 243.496 -2.85721 -2.14705 0
M  V30 2646 C 243.325 -4.23742 -1.50575 0
M  V30 2647 C 242.095 -4.89033 -1.2718 0
M  V30 2648 C 244.293 -5.05293 -0.958311 0
M  V30 2649 N 242.275 -6.11048 -0.591058 0
M  V30 2650 C 243.646 -6.18673 -0.405367 0
M  V30 2651 C 245.701 -4.90517 -0.854274 0
M  V30 2652 C 244.404 -7.18895 0.241434 0
M  V30 2653 C 246.43 -5.90986 -0.221301 0
M  V30 2654 C 245.792 -7.03669 0.320894 0
M  V30 2655 H 241.891 -0.670556 -0.402342 0
M  V30 2656 H 244.475 -1.89946 -0.427607 0
M  V30 2657 H 242.646 -2.65987 -2.83029 0
M  V30 2658 H 244.378 -2.90699 -2.8156 0
M  V30 2659 H 241.133 -4.47672 -1.54554 0
M  V30 2660 H 241.557 -6.76474 -0.266862 0
M  V30 2661 H 246.199 -4.03612 -1.25926 0
M  V30 2662 H 243.917 -8.05413 0.658448 0
M  V30 2663 H 247.503 -5.81626 -0.142111 0
M  V30 2664 H 246.383 -7.80078 0.802956 0
M  V30 2665 N 243.887 0.651787 -1.4349 0
M  V30 2666 C 245.134 1.41167 -1.45183 0
M  V30 2667 C 245.462 1.94349 -0.0766601 0
M  V30 2668 O 244.717 1.72804 0.918555 0
M  V30 2669 C 245.016 2.60914 -2.44251 0
M  V30 2670 C 244.682 2.26142 -3.9009 0
M  V30 2671 C 243.344 2.16371 -4.2981 0
M  V30 2672 C 245.696 1.98334 -4.81989 0
M  V30 2673 C 243.024 1.7695 -5.5938 0
M  V30 2674 C 245.376 1.6041 -6.11924 0
M  V30 2675 C 244.04 1.49166 -6.5062 0
M  V30 2676 H 243.31 0.516566 -0.531263 0
M  V30 2677 H 245.957 0.741099 -1.76579 0
M  V30 2678 H 244.262 3.3311 -2.06265 0
M  V30 2679 H 245.959 3.19127 -2.42815 0
M  V30 2680 H 242.549 2.34658 -3.58655 0
M  V30 2681 H 246.733 2.04803 -4.52072 0
M  V30 2682 H 241.989 1.66831 -5.88198 0
M  V30 2683 H 246.163 1.37925 -6.82605 0
M  V30 2684 H 243.79 1.1839 -7.50925 0
M  V30 2685 N 245.365 1.30045 0.890287 0
M  V30 2686 C 246.297 1.11786 2.00091 0
M  V30 2687 C 247.31 0.0626307 1.62679 0
M  V30 2688 O 248.499 0.308112 1.75821 0
M  V30 2689 C 245.599 0.681527 3.31977 0
M  V30 2690 C 244.772 1.81735 3.97858 0
M  V30 2691 C 243.831 1.37045 5.08041 0
M  V30 2692 O 242.857 2.07677 5.29961 0
M  V30 2693 N 244.059 0.246525 5.79976 0
M  V30 2694 H 246.824 2.07441 2.16306 0
M  V30 2695 H 244.385 1.2211 1.06305 0
M  V30 2696 H 246.377 0.365675 4.03045 0
M  V30 2697 H 244.947 -0.182828 3.12065 0
M  V30 2698 H 244.167 2.30159 3.20032 0
M  V30 2699 H 245.455 2.57865 4.38615 0
M  V30 2700 H 244.853 -0.34215 5.64664 0
M  V30 2701 H 243.41 -0.00990438 6.51799 0
M  V30 2702 N 246.843 -1.10192 1.12674 0
M  V30 2703 C 247.775 -2.16418 0.754701 0
M  V30 2704 C 248.788 -1.61309 -0.21986 0
M  V30 2705 O 249.977 -1.785 -0.000826841 0
M  V30 2706 C 247.077 -3.38762 0.096698 0
M  V30 2707 C 246.25 -4.23307 1.10136 0
M  V30 2708 C 245.309 -5.24092 0.470513 0
M  V30 2709 O 244.335 -5.57906 1.12824 0
M  V30 2710 N 245.537 -5.75491 -0.760948 0
M  V30 2711 H 248.302 -2.48943 1.66875 0
M  V30 2712 H 245.863 -1.25834 1.01869 0
M  V30 2713 H 247.855 -4.03291 -0.337384 0
M  V30 2714 H 246.425 -3.04192 -0.720153 0
M  V30 2715 H 245.645 -3.55036 1.71299 0
M  V30 2716 H 246.933 -4.76624 1.78064 0
M  V30 2717 H 246.331 -5.50222 -1.31424 0
M  V30 2718 H 244.888 -6.41792 -1.13781 0
M  V30 2719 N 248.321 -0.919034 -1.28029 0
M  V30 2720 C 249.268 -0.410005 -2.27129 0
M  V30 2721 C 250.238 0.518405 -1.57803 0
M  V30 2722 O 251.423 0.439451 -1.8567 0
M  V30 2723 C 248.563 0.339054 -3.4343 0
M  V30 2724 C 247.676 -0.622468 -4.27492 0
M  V30 2725 C 246.811 0.145567 -5.31001 0
M  V30 2726 C 245.85 -0.809226 -6.06727 0
M  V30 2727 N 244.987 -0.0743728 -7.02061 0
M  V30 2728 H 249.827 -1.26011 -2.70047 0
M  V30 2729 H 247.364 -0.632663 -1.328 0
M  V30 2730 H 249.322 0.789586 -4.0966 0
M  V30 2731 H 247.952 1.15346 -3.01488 0
M  V30 2732 H 247.004 -1.19153 -3.61257 0
M  V30 2733 H 248.316 -1.35252 -4.80113 0
M  V30 2734 H 247.47 0.656417 -6.03139 0
M  V30 2735 H 246.209 0.908643 -4.79161 0
M  V30 2736 H 245.214 -1.3314 -5.33436 0
M  V30 2737 H 246.439 -1.57194 -6.60656 0
M  V30 2738 H 244.385 0.670616 -6.52563 0
M  V30 2739 H 244.302 -0.744157 -7.52329 0
M  V30 2740 H 245.57 0.416109 -7.78389 0
M  V30 2741 N 249.799 1.42003 -0.683588 0
M  V30 2742 C 251.029 2.05448 -0.217866 0
M  V30 2743 C 251.437 1.51491 1.13346 0
M  V30 2744 O 250.78 0.653048 1.717 0
M  V30 2745 C 250.842 3.59399 -0.0850118 0
M  V30 2746 C 250.506 4.36093 -1.36645 0
M  V30 2747 C 251.503 4.66169 -2.30179 0
M  V30 2748 C 249.188 4.75578 -1.61649 0
M  V30 2749 C 251.182 5.34676 -3.46988 0
M  V30 2750 C 248.869 5.43824 -2.78745 0
M  V30 2751 C 249.867 5.73299 -3.71238 0
M  V30 2752 O 249.555 6.40142 -4.86285 0
M  V30 2753 H 249.287 0.668344 -0.101454 0
M  V30 2754 H 251.841 1.82974 -0.933248 0
M  V30 2755 H 250.071 3.80566 0.686031 0
M  V30 2756 H 251.76 4.04457 0.341973 0
M  V30 2757 H 252.526 4.36156 -2.12115 0
M  V30 2758 H 248.405 4.52025 -0.905243 0
M  V30 2759 H 251.949 5.57599 -4.19201 0
M  V30 2760 H 247.846 5.73254 -2.96732 0
M  V30 2761 H 248.614 6.58636 -4.85944 0
M  V30 2762 N 251.277 0.427512 1.51691 0
M  V30 2763 C 252.554 -0.201684 1.94557 0
M  V30 2764 C 252.934 -1.60981 1.36559 0
M  V30 2765 O 252.282 -2.21814 0.548702 0
M  V30 2766 C 252.492 -0.189394 3.48486 0
M  V30 2767 C 253.84 -0.39978 4.22714 0
M  V30 2768 O 254.864 -0.267945 3.55191 0
M  V30 2769 O 253.723 -0.661249 5.42485 0
M  V30 2770 H 250.817 -0.135261 0.815864 0
M  V30 2771 H 253.363 0.484782 1.62628 0
M  V30 2772 H 252.135 0.795431 3.8313 0
M  V30 2773 H 251.758 -0.919187 3.86829 0
M  V30 2774 N 252.755 -1.56801 0.158532 0
M  V30 2775 C 254.003 -1.96102 -0.488712 0
M  V30 2776 C 254.324 -1.04498 -1.64636 0
M  V30 2777 O 253.594 -0.108783 -1.95598 0
M  V30 2778 H 252.174 -0.724102 -0.183535 0
M  V30 2779 H 254.836 -1.93457 0.236728 0
M  V30 2780 H 253.932 -3.00097 -0.857219 0
M  V30 2781 N 254.233 0.115231 -1.57178 0
M  V30 2782 C 255.482 0.820945 -1.84237 0
M  V30 2783 C 255.795 1.80866 -0.744761 0
M  V30 2784 O 257.001 2.56083 -0.901871 0
M  V30 2785 C 255.457 1.51072 -3.26658 0
M  V30 2786 C 255.065 0.563795 -4.44438 0
M  V30 2787 C 256.809 2.20134 -3.62962 0
M  V30 2788 C 254.716 1.25701 -5.77887 0
M  V30 2789 H 253.646 0.310328 -0.687177 0
M  V30 2790 H 256.297 0.0737134 -1.83352 0
M  V30 2791 H 254.679 2.30471 -3.22024 0
M  V30 2792 H 255.853 -0.197247 -4.60378 0
M  V30 2793 H 254.168 -0.0200638 -4.16395 0
M  V30 2794 H 256.765 2.72696 -4.59936 0
M  V30 2795 H 257.108 2.98107 -2.90582 0
M  V30 2796 H 257.641 1.47619 -3.69396 0
M  V30 2797 H 254.38 0.518493 -6.53446 0
M  V30 2798 H 253.9 1.98997 -5.65827 0
M  V30 2799 H 255.579 1.78915 -6.2177 0
M  V30 2800 N 255.711 1.52812 0.385517 0
M  V30 2801 C 256.96 1.67249 1.12741 0
M  V30 2802 C 257.273 0.4205 1.91027 0
M  V30 2803 O 258.479 0.445064 2.67827 0
M  V30 2804 C 256.935 2.95583 2.05326 0
M  V30 2805 C 256.543 4.27974 1.32447 0
M  V30 2806 C 258.287 3.19386 2.7963 0
M  V30 2807 C 256.194 5.47412 2.23818 0
M  V30 2808 H 255.124 0.6231 0.424573 0
M  V30 2809 H 257.775 1.79309 0.389924 0
M  V30 2810 H 256.157 2.77277 2.82725 0
M  V30 2811 H 257.331 4.56844 0.602495 0
M  V30 2812 H 255.646 4.10459 0.700885 0
M  V30 2813 H 258.243 4.05801 3.48181 0
M  V30 2814 H 258.586 2.34604 3.43899 0
M  V30 2815 H 259.119 3.38274 2.09322 0
M  V30 2816 H 255.858 6.34612 1.64157 0
M  V30 2817 H 255.378 5.22849 2.93921 0
M  V30 2818 H 257.057 5.81423 2.83824 0
M  V30 2819 N 257.189 -0.644168 1.43834 0
M  V30 2820 C 258.119 -1.76814 1.52509 0
M  V30 2821 C 259.1 -1.65823 0.379052 0
M  V30 2822 O 260.285 -1.84781 0.597466 0
M  V30 2823 C 257.415 -3.15288 1.4564 0
M  V30 2824 C 256.369 -3.41053 2.58586 0
M  V30 2825 C 255.695 -4.79421 2.36769 0
M  V30 2826 C 256.995 -3.34902 4.00797 0
M  V30 2827 H 258.689 -1.69812 2.46586 0
M  V30 2828 H 256.235 -0.815542 1.1868 0
M  V30 2829 H 258.188 -3.93681 1.50311 0
M  V30 2830 H 256.912 -3.23043 0.480725 0
M  V30 2831 H 255.571 -2.65035 2.53282 0
M  V30 2832 H 255.219 -4.83863 1.37424 0
M  V30 2833 H 254.919 -4.9762 3.12487 0
M  V30 2834 H 256.443 -5.6006 2.43238 0
M  V30 2835 H 257.857 -4.03218 4.07539 0
M  V30 2836 H 256.254 -3.64637 4.76613 0
M  V30 2837 H 257.324 -2.32928 4.25291 0
M  V30 2838 N 258.668 -1.30515 -0.883378 0
M  V30 2839 C 260.079 -1.17509 -1.45081 0
M  V30 2840 C 260.43 0.223605 -1.94922 0
M  V30 2841 O 259.555 1.12041 -1.85137 0
M  V30 2842 C 260.15 -2.12715 -2.63701 0
M  V30 2843 C 258.709 -2.03682 -3.16529 0
M  V30 2844 C 257.856 -2.02706 -1.89224 0
M  V30 2845 H 260.807 -1.42762 -0.693165 0
M  V30 2846 H 260.828 -1.70891 -3.39965 0
M  V30 2847 H 260.34 -3.14505 -2.27395 0
M  V30 2848 H 258.441 -1.05039 -3.57488 0
M  V30 2849 H 258.554 -2.92146 -3.7972 0
M  V30 2850 H 256.918 -1.4753 -2.07622 0
M  V30 2851 H 257.701 -3.06229 -1.55174 0
M  V30 2852 N 260.146 1.09593 -1.13257 0
M  V30 2853 C 261.394 1.81375 -0.891492 0
M  V30 2854 C 261.715 1.86049 0.584009 0
M  V30 2855 O 260.985 1.34481 1.42449 0
M  V30 2856 H 259.565 0.671708 -0.326828 0
M  V30 2857 H 262.227 1.3256 -1.42877 0
M  V30 2858 H 261.323 2.84612 -1.28071 0
M  V30 2859 N 261.624 0.925811 1.2754 0
M  V30 2860 C 262.571 0.422045 2.26908 0
M  V30 2861 C 263.541 -0.510029 1.58076 0
M  V30 2862 O 264.726 -0.429599 1.85901 0
M  V30 2863 C 261.866 -0.320837 3.43605 0
M  V30 2864 C 260.979 0.64513 4.27156 0
M  V30 2865 C 260.114 -0.117405 5.3107 0
M  V30 2866 C 259.153 0.841391 6.0629 0
M  V30 2867 N 258.29 0.111604 7.02011 0
M  V30 2868 H 263.13 1.27441 2.69375 0
M  V30 2869 H 260.667 0.639697 1.32462 0
M  V30 2870 H 262.625 -0.76785 4.10073 0
M  V30 2871 H 261.255 -1.13745 3.02096 0
M  V30 2872 H 260.307 1.21067 3.6062 0
M  V30 2873 H 261.619 1.37797 4.79389 0
M  V30 2874 H 260.773 -0.624422 6.03478 0
M  V30 2875 H 259.512 -0.883219 4.79636 0
M  V30 2876 H 258.517 1.35967 5.32722 0
M  V30 2877 H 259.742 1.60696 6.59813 0
M  V30 2878 H 257.688 -0.635999 6.5291 0
M  V30 2879 H 257.605 0.784044 7.51923 0
M  V30 2880 H 258.873 -0.374823 7.78598 0
M  V30 2881 O 263.141 -1.38545 0.829904 0
M  V30 2882 H 263.832 -1.89212 0.414565 0
M  V30 END ATOM
M  V30 BEGIN BOND
M  V30 END BOND
M  V30 END CTAB
M  END
$$$$
