drugbank_target|Q86XF0 Dihydrofolate reductase, mitochondrial (DB01929; DB01958; DB02001; DB02402; DB04163; DB04306; DB07862; DB08203; DB12116)
 OpenBabel12092120443D

  0  0  0     0  0            999 V3000
M  V30 BEGIN CTAB
M  V30 COUNTS 3062 3094 0 0 0
M  V30 BEGIN ATOM
M  V30 1 H -0.908 1.98254 -0.117106 0
M  V30 2 N 0 1.576 0 0
M  V30 3 C 0.933 2.03868 1.02534 0
M  V30 4 C 1.911 0.928543 1.3348 0
M  V30 5 O 3.095 1.19667 1.45644 0
M  V30 6 C 0.222 2.43627 2.35294 0
M  V30 7 C -0.732 3.65373 2.2001 0
M  V30 8 S 0.101 5.13292 1.52614 0
M  V30 9 C 1.257 5.56322 2.86805 0
M  V30 10 H 1.49 2.90518 0.631377 0
M  V30 11 H -0.977 1.52953 0.210867 0
M  V30 12 H 0.981 2.67203 3.11629 0
M  V30 13 H -0.358 1.57376 2.7183 0
M  V30 14 H -1.165 3.90944 3.18086 0
M  V30 15 H -1.563 3.418 1.51819 0
M  V30 16 H 0.729 5.58782 3.83104 0
M  V30 17 H 1.672 6.56266 2.65933 0
M  V30 18 H 2.08 4.83886 2.90714 0
M  V30 19 N 1.4781 -0.272755 1.55222 0
M  V30 20 C 2.7251 -1.00433 1.7584 0
M  V30 21 C 3.0531 -1.86275 0.559629 0
M  V30 22 O 2.3081 -1.90269 -0.457857 0
M  V30 23 C 2.6071 -1.91642 3.01675 0
M  V30 24 C 2.2731 -1.21548 4.34208 0
M  V30 25 C 0.9351 -1.02166 4.70229 0
M  V30 26 C 3.2871 -0.716684 5.16249 0
M  V30 27 C 0.6151 -0.316334 5.85847 0
M  V30 28 C 2.9671 -0.0249476 6.32595 0
M  V30 29 C 1.6311 0.180579 6.67256 0
M  V30 30 H 0.9011 -0.367509 0.643443 0
M  V30 31 H 3.5481 -0.276596 1.89492 0
M  V30 32 H 1.8531 -2.71037 2.82924 0
M  V30 33 H 3.5501 -2.48369 3.14824 0
M  V30 34 H 0.1401 -1.37645 4.05896 0
M  V30 35 H 4.3241 -0.854047 4.88896 0
M  V30 36 H -0.4199 -0.146378 6.11225 0
M  V30 37 H 3.7541 0.369311 6.9542 0
M  V30 38 H 1.3811 0.729098 7.56696 0
M  V30 39 N 2.9562 -1.48159 -0.537278 0
M  V30 40 C 3.8862 -1.65029 -1.6519 0
M  V30 41 C 4.8672 -0.499281 -1.62607 0
M  V30 42 O 6.0522 -0.730972 -1.79918 0
M  V30 43 C 3.1822 -1.68303 -3.03795 0
M  V30 44 C 2.1362 -2.8283 -3.21234 0
M  V30 45 C 1.4622 -2.71189 -4.60826 0
M  V30 46 C 2.7622 -4.24211 -3.04701 0
M  V30 47 H 4.4562 -2.58341 -1.51328 0
M  V30 48 H 2.0022 -1.24325 -0.726585 0
M  V30 49 H 3.9552 -1.78693 -3.81637 0
M  V30 50 H 2.6792 -0.715635 -3.18663 0
M  V30 51 H 1.3382 -2.71983 -2.45807 0
M  V30 52 H 0.9862 -1.72435 -4.7252 0
M  V30 53 H 0.6862 -3.48035 -4.7344 0
M  V30 54 H 2.2102 -2.83537 -5.40777 0
M  V30 55 H 3.6242 -4.3593 -3.72341 0
M  V30 56 H 2.0212 -5.01998 -3.28813 0
M  V30 57 H 3.0912 -4.41184 -2.01209 0
M  V30 58 N 4.4343 0.785586 -1.36625 0
M  V30 59 C 5.3643 1.91259 -1.33949 0
M  V30 60 C 6.3453 1.68795 -0.210325 0
M  V30 61 O 7.5303 1.89854 -0.408561 0
M  V30 62 C 4.6603 3.28339 -1.13186 0
M  V30 63 C 3.6143 3.65335 -2.22967 0
M  V30 64 C 2.9403 5.00806 -1.87342 0
M  V30 65 C 4.2403 3.7352 -3.65075 0
M  V30 66 H 5.9343 1.93755 -2.28253 0
M  V30 67 H 3.4803 0.930788 -1.09874 0
M  V30 68 H 5.4333 4.06804 -1.09948 0
M  V30 69 H 4.1573 3.2624 -0.153332 0
M  V30 70 H 2.8163 2.89169 -2.25337 0
M  V30 71 H 2.4643 4.95233 -0.880545 0
M  V30 72 H 2.1643 5.26529 -2.60846 0
M  V30 73 H 3.6883 5.81687 -1.85667 0
M  V30 74 H 5.1023 4.42168 -3.64911 0
M  V30 75 H 3.4993 4.10731 -4.37516 0
M  V30 76 H 4.5693 2.74527 -3.99703 0
M  V30 77 N 5.9124 1.20967 1.01018 0
M  V30 78 C 6.8424 0.988272 2.11555 0
M  V30 79 C 7.8234 -0.0849778 1.69888 0
M  V30 80 O 9.0084 0.0738202 1.9406 0
M  V30 81 C 6.1384 0.546528 3.42973 0
M  V30 82 C 5.0924 1.56375 3.9841 0
M  V30 83 C 4.4184 0.97842 5.25672 0
M  V30 84 C 5.7184 2.94922 4.31066 0
M  V30 85 H 7.4124 1.91276 2.30334 0
M  V30 86 H 4.9584 0.921073 1.1069 0
M  V30 87 H 6.9114 0.378839 4.19694 0
M  V30 88 H 5.6354 -0.413598 3.23971 0
M  V30 89 H 4.2944 1.71891 3.23804 0
M  V30 90 H 3.9424 0.0101688 5.02999 0
M  V30 91 H 3.6424 1.65784 5.63728 0
M  V30 92 H 5.1664 0.821939 6.05043 0
M  V30 93 H 6.5804 2.8288 4.9865 0
M  V30 94 H 4.9774 3.5983 4.80253 0
M  V30 95 H 6.0474 3.4616 3.39561 0
M  V30 96 N 7.3905 -1.2043 1.01659 0
M  V30 97 C 8.3385 -2.25249 0.580143 0
M  V30 98 C 9.3325 -1.65057 -0.381115 0
M  V30 99 O 10.5385 -1.78241 -0.251039 0
M  V30 100 H 6.9135 -0.732695 0.169299 0
M  V30 101 H 8.8845 -2.59389 1.47512 0
M  V30 102 C 7.6335 -3.47638 -0.065788 0
M  V30 103 H 6.9565 -3.94233 0.664874 0
M  V30 104 H 8.3965 -4.2268 -0.334282 0
M  V30 105 C 6.8555 -3.10447 -1.3086 0
M  V30 106 O 7.3855 -3.21981 -2.4019 0
M  V30 107 N 5.5915 -2.64996 -1.1927 0
M  V30 108 H 5.1385 -2.55811 -0.303064 0
M  V30 109 H 5.0965 -2.40482 -2.02523 0
M  V30 110 N 8.8686 -0.792821 -1.36206 0
M  V30 111 C 10.1086 -0.372238 -2.00982 0
M  V30 112 C 10.4726 1.03749 -1.61555 0
M  V30 113 O 11.6736 1.55934 -2.18948 0
M  V30 114 C 9.9446 -0.534566 -3.5338 0
M  V30 115 S 11.5036 -0.202365 -4.38333 0
M  V30 116 H 8.3216 -0.142044 -0.696667 0
M  V30 117 H 10.9236 -1.03206 -1.66039 0
M  V30 118 H 9.6276 -1.5608 -3.79562 0
M  V30 119 H 9.1586 0.141065 -3.93147 0
M  V30 120 H 11.1736 0.994869 -4.86124 0
M  V30 121 N 10.3467 1.47872 -0.545128 0
M  V30 122 C 11.5957 2.01695 -0.0145033 0
M  V30 123 C 11.9087 1.42609 1.33873 0
M  V30 124 O 13.1147 1.88021 1.95858 0
M  V30 125 C 11.5707 3.59892 0.0245068 0
M  V30 126 C 11.1787 4.27966 -1.32475 0
M  V30 127 C 12.9227 4.21507 0.50316 0
M  V30 128 C 10.8297 5.78136 -1.2455 0
M  V30 129 H 9.7597 0.753998 -0.00165172 0
M  V30 130 H 12.4107 1.69985 -0.691175 0
M  V30 131 H 10.7927 3.88509 0.766575 0
M  V30 132 H 11.9667 4.11003 -2.08357 0
M  V30 133 H 10.2817 3.78286 -1.74036 0
M  V30 134 H 12.8787 5.31538 0.580656 0
M  V30 135 H 13.2217 3.87855 1.51243 0
M  V30 136 H 13.7547 3.97376 -0.183681 0
M  V30 137 H 10.4937 6.16388 -2.23039 0
M  V30 138 H 10.0137 5.97469 -0.528282 0
M  V30 139 H 11.6927 6.40099 -0.942488 0
M  V30 140 N 11.8248 0.280983 1.55075 0
M  V30 141 C 13.0708 -0.33461 2.00021 0
M  V30 142 C 13.4038 -1.55063 1.16915 0
M  V30 143 O 12.6788 -1.93006 0.240646 0
M  V30 144 C 12.9618 -0.711007 3.53011 0
M  V30 145 C 12.8148 0.512766 4.46868 0
M  V30 146 C 14.1338 -1.54522 4.12081 0
M  V30 147 H 11.2528 -0.120147 0.727141 0
M  V30 148 H 13.8948 0.389097 1.85973 0
M  V30 149 H 12.0448 -1.32761 3.65112 0
M  V30 150 H 13.7168 1.15131 4.46702 0
M  V30 151 H 11.9598 1.14975 4.18286 0
M  V30 152 H 12.6308 0.205556 5.51617 0
M  V30 153 H 15.1068 -1.02442 4.03293 0
M  V30 154 H 13.9828 -1.77739 5.19327 0
M  V30 155 H 14.2438 -2.52813 3.62682 0
M  V30 156 N 13.3029 -1.57598 0.00835791 0
M  V30 157 C 14.2659 -2.07884 -0.965242 0
M  V30 158 C 15.2659 -0.989825 -1.26725 0
M  V30 159 O 16.4559 -1.25218 -1.21104 0
M  V30 160 C 13.5879 -2.52731 -2.28779 0
M  V30 161 H 14.7809 -2.95178 -0.530112 0
M  V30 162 H 12.3339 -1.54458 -0.239283 0
M  V30 163 H 13.0689 -1.68705 -2.76964 0
M  V30 164 H 12.8539 -3.32272 -2.08177 0
M  V30 165 H 14.3439 -2.91933 -2.98605 0
M  V30 166 N 14.781 0.264519 -1.55364 0
M  V30 167 C 16.027 0.99646 -1.76631 0
M  V30 168 C 16.36 1.85632 -0.570478 0
M  V30 169 O 15.635 1.89647 0.43175 0
M  V30 170 C 15.918 1.87187 -3.07625 0
M  V30 171 C 15.771 1.04138 -4.37579 0
M  V30 172 C 17.09 2.85749 -3.34717 0
M  V30 173 H 14.209 0.360841 -0.642622 0
M  V30 174 H 16.851 0.268218 -1.88097 0
M  V30 175 H 15.001 2.49279 -2.9798 0
M  V30 176 H 16.673 0.440517 -4.59192 0
M  V30 177 H 14.916 0.345115 -4.32425 0
M  V30 178 H 15.587 1.68729 -5.2558 0
M  V30 179 H 18.063 2.33793 -3.4421 0
M  V30 180 H 16.939 3.44136 -4.27623 0
M  V30 181 H 17.2 3.61311 -2.54768 0
M  V30 182 N 16.2591 1.48442 0.529413 0
M  V30 183 C 17.4841 1.60406 1.31471 0
M  V30 184 C 17.9091 0.264738 1.86228 0
M  V30 185 O 17.2671 -0.763668 1.64432 0
M  V30 186 C 17.3151 2.65419 2.44101 0
M  V30 187 O 16.4191 2.22618 3.47153 0
M  V30 188 H 15.7601 0.537863 0.389357 0
M  V30 189 H 18.2901 1.94432 0.636965 0
M  V30 190 H 18.3001 2.86709 2.90279 0
M  V30 191 H 16.9751 3.62652 2.03608 0
M  V30 192 H 15.5521 2.11543 3.0709 0
M  V30 193 N 17.7372 -0.778329 1.37039 0
M  V30 194 C 18.6692 -1.90034 1.2814 0
M  V30 195 C 19.6822 -1.61585 0.198558 0
M  V30 196 O 20.8712 -1.72625 0.454175 0
M  V30 197 C 17.9712 -3.25108 0.956968 0
M  V30 198 C 17.1442 -3.81253 2.14394 0
M  V30 199 C 16.2032 -4.94789 1.79082 0
M  V30 200 O 15.2292 -5.10721 2.51301 0
M  V30 201 N 16.4312 -5.75878 0.731043 0
M  V30 202 H 19.1962 -1.98186 2.24816 0
M  V30 203 H 16.7572 -0.957129 1.30578 0
M  V30 204 H 18.7492 -3.9857 0.701701 0
M  V30 205 H 17.3192 -3.125 0.0789812 0
M  V30 206 H 16.5392 -2.99647 2.56135 0
M  V30 207 H 17.8272 -4.15495 2.93668 0
M  V30 208 H 17.2252 -5.65547 0.131618 0
M  V30 209 H 15.7822 -6.49596 0.535622 0
M  V30 210 N 19.2153 -1.21501 -1.00376 0
M  V30 211 C 20.1633 -0.972442 -2.11297 0
M  V30 212 C 21.1573 0.080731 -1.69208 0
M  V30 213 O 22.3633 -0.0707666 -1.79861 0
M  V30 214 H 18.7383 -0.297218 -0.690772 0
M  V30 215 H 20.7093 -1.91394 -2.28934 0
M  V30 216 C 19.4583 -0.555065 -3.43241 0
M  V30 217 H 18.7813 -1.35709 -3.76062 0
M  V30 218 H 20.2213 -0.424664 -4.21868 0
M  V30 219 C 18.6803 0.734147 -3.28804 0
M  V30 220 O 19.2103 1.78937 -3.59645 0
M  V30 221 N 17.4163 0.701133 -2.82015 0
M  V30 222 H 16.9633 -0.157874 -2.57116 0
M  V30 223 H 16.9213 1.56403 -2.72737 0
M  V30 224 N 20.6934 1.19889 -1.02296 0
M  V30 225 C 21.6264 2.21639 -0.543282 0
M  V30 226 C 22.6044 1.57275 0.412698 0
M  V30 227 O 23.7884 1.85568 0.331198 0
M  V30 228 C 20.9154 3.38057 0.208571 0
M  V30 229 C 19.9614 4.20751 -0.697933 0
M  V30 230 S 20.7944 4.89529 -2.17075 0
M  V30 231 C 21.9504 6.09363 -1.42923 0
M  V30 232 H 22.1834 2.61984 -1.40541 0
M  V30 233 H 19.7164 1.30041 -0.832387 0
M  V30 234 H 21.6744 4.05539 0.63624 0
M  V30 235 H 20.3354 2.96159 1.04635 0
M  V30 236 H 19.5284 5.03862 -0.117831 0
M  V30 237 H 19.1304 3.58556 -1.06366 0
M  V30 238 H 21.4224 6.73742 -0.712637 0
M  V30 239 H 22.3654 6.71845 -2.23673 0
M  V30 240 H 22.7734 5.56798 -0.929327 0
M  V30 241 N 22.1715 0.800033 1.35784 0
M  V30 242 C 23.4195 0.376597 1.9856 0
M  V30 243 C 23.7405 -1.05812 1.63795 0
M  V30 244 O 23.0105 -1.73103 0.917171 0
M  V30 245 H 21.5905 0.136261 0.734467 0
M  V30 246 H 24.2525 1.02442 1.65806 0
M  V30 247 H 23.3485 0.477002 3.08433 0
M  V30 248 N 23.6496 -1.47581 0.552962 0
M  V30 249 C 24.8986 -2.01684 0.0251995 0
M  V30 250 C 25.2116 -1.43317 -1.33115 0
M  V30 251 O 26.4176 -1.89057 -1.94858 0
M  V30 252 C 24.8736 -3.599 -0.00542052 0
M  V30 253 C 24.4816 -4.27257 1.34742 0
M  V30 254 C 26.2256 -4.21768 -0.4808 0
M  V30 255 C 24.1326 -5.77467 1.27614 0
M  V30 256 H 23.0626 -0.753979 0.00565033 0
M  V30 257 H 25.7136 -1.69616 0.70018 0
M  V30 258 H 24.0956 -3.88911 -0.745961 0
M  V30 259 H 25.2696 -4.09893 2.10534 0
M  V30 260 H 23.5846 -3.77358 1.76039 0
M  V30 261 H 26.1816 -5.31838 -0.55246 0
M  V30 262 H 26.5246 -3.88651 -1.49184 0
M  V30 263 H 27.0576 -3.97273 0.204752 0
M  V30 264 H 23.7966 -6.15196 2.26304 0
M  V30 265 H 23.3166 -5.9718 0.55996 0
M  V30 266 H 24.9956 -6.3959 0.976421 0
M  V30 267 N 25.1277 -0.289203 -1.54924 0
M  V30 268 C 26.3757 0.322879 -1.99504 0
M  V30 269 C 26.6967 1.55313 -1.1791 0
M  V30 270 O 25.9667 1.94001 -0.272097 0
M  V30 271 H 24.5467 0.122291 -0.736922 0
M  V30 272 H 27.2087 -0.397802 -1.90797 0
M  V30 273 H 26.3047 0.603061 -3.06218 0
M  V30 274 N 26.6058 1.57591 -0.0167156 0
M  V30 275 C 27.5528 2.09462 0.969251 0
M  V30 276 C 28.5228 0.99381 1.33089 0
M  V30 277 O 29.7078 1.26726 1.42636 0
M  V30 278 C 26.8478 2.61622 2.25051 0
M  V30 279 C 25.9608 3.85666 1.94642 0
M  V30 280 C 25.0958 4.26266 3.16972 0
M  V30 281 C 24.1348 5.43101 2.82326 0
M  V30 282 N 23.2718 5.78915 3.97243 0
M  V30 283 H 28.1118 2.93428 0.519997 0
M  V30 284 H 25.6488 1.45044 0.245087 0
M  V30 285 H 27.6068 2.89949 2.99976 0
M  V30 286 H 26.2368 1.80505 2.67615 0
M  V30 287 H 25.2888 3.64145 1.10013 0
M  V30 288 H 26.6008 4.70678 1.65117 0
M  V30 289 H 25.7548 4.55963 4.00228 0
M  V30 290 H 24.4938 3.39996 3.49648 0
M  V30 291 H 23.4988 5.1311 1.97479 0
M  V30 292 H 24.7238 6.3106 2.50879 0
M  V30 293 H 22.6698 4.95602 4.29785 0
M  V30 294 H 22.5868 6.58539 3.71299 0
M  V30 295 H 23.8548 6.13212 4.81239 0
M  V30 296 N 28.0839 -0.256276 1.55502 0
M  V30 297 C 29.0319 -1.33694 1.90338 0
M  V30 298 C 30.0259 -1.50299 0.781441 0
M  V30 299 O 31.2319 -1.51885 0.965966 0
M  V30 300 H 27.6069 -0.447483 0.60437 0
M  V30 301 H 29.5779 -1.01574 2.8058 0
M  V30 302 C 28.3269 -2.68724 2.20642 0
M  V30 303 H 27.6499 -2.56743 3.06469 0
M  V30 304 H 29.0899 -3.43237 2.48926 0
M  V30 305 C 27.5489 -3.21101 1.01959 0
M  V30 306 O 28.0789 -4.0084 0.262762 0
M  V30 307 N 26.2849 -2.79003 0.812746 0
M  V30 308 H 25.8319 -2.14271 1.42989 0
M  V30 309 H 25.7899 -3.14393 0.0203076 0
M  V30 310 N 29.562 -1.4872 -0.521534 0
M  V30 311 C 30.81 -1.56857 -1.27437 0
M  V30 312 C 31.131 -0.247982 -1.93417 0
M  V30 313 O 30.401 0.731151 -1.81744 0
M  V30 314 H 28.981 -0.577885 -0.473347 0
M  V30 315 H 31.643 -1.85233 -0.606205 0
M  V30 316 H 30.739 -2.35402 -2.0492 0
M  V30 317 N 31.0401 0.771051 -1.3745 0
M  V30 318 C 32.3171 1.519 -1.23231 0
M  V30 319 C 32.6971 2.10383 0.173809 0
M  V30 320 O 32.0451 1.95583 1.18151 0
M  V30 321 C 32.2551 2.59933 -2.32886 0
M  V30 322 C 33.6031 3.27316 -2.70461 0
M  V30 323 O 34.6271 2.70228 -2.32068 0
M  V30 324 O 33.4861 4.30531 -3.36608 0
M  V30 325 H 30.5801 0.672803 -0.480901 0
M  V30 326 H 33.1261 0.807957 -1.49232 0
M  V30 327 H 31.8981 2.14842 -3.27045 0
M  V30 328 H 31.5211 3.38637 -2.08353 0
M  V30 329 N 32.5182 1.22032 0.997298 0
M  V30 330 C 33.4482 1.01065 2.10495 0
M  V30 331 C 34.4292 -0.0669542 1.69968 0
M  V30 332 O 35.6142 0.0943987 1.9397 0
M  V30 333 C 32.7442 0.582874 3.42374 0
M  V30 334 C 31.6982 1.60592 3.96729 0
M  V30 335 C 31.0242 1.03412 5.24605 0
M  V30 336 C 32.3242 2.99478 4.27914 0
M  V30 337 H 34.0182 1.93708 2.28292 0
M  V30 338 H 31.5642 0.932761 1.09707 0
M  V30 339 H 33.5172 0.423332 4.19268 0
M  V30 340 H 32.2412 -0.379213 3.24391 0
M  V30 341 H 30.9002 1.75316 3.21963 0
M  V30 342 H 30.5482 0.063518 5.0296 0
M  V30 343 H 30.2482 1.71754 5.61938 0
M  V30 344 H 31.7722 0.886066 6.04137 0
M  V30 345 H 33.1862 2.88153 4.95622 0
M  V30 346 H 31.5832 3.64903 4.76409 0
M  V30 347 H 32.6532 3.49742 3.3587 0
M  V30 348 N 33.9963 -1.19345 1.0293 0
M  V30 349 C 35.4073 -1.70725 0.755633 0
M  V30 350 C 35.7583 -1.82326 -0.724676 0
M  V30 351 O 34.8833 -1.49471 -1.56484 0
M  V30 352 C 35.4783 -3.10084 1.36503 0
M  V30 353 C 34.0373 -3.58723 1.13994 0
M  V30 354 C 33.1843 -2.35577 1.46283 0
M  V30 355 H 36.1353 -1.0418 1.19718 0
M  V30 356 H 36.1563 -3.72787 0.762217 0
M  V30 357 H 35.6683 -3.01609 2.44241 0
M  V30 358 H 33.7693 -3.72512 0.0807901 0
M  V30 359 H 33.8823 -4.42816 1.82894 0
M  V30 360 H 32.2463 -2.38935 0.88217 0
M  V30 361 H 33.0293 -2.29731 2.55105 0
M  V30 362 N 35.4744 -0.807222 -1.35358 0
M  V30 363 C 36.8904 -0.491038 -1.51858 0
M  V30 364 C 37.0904 0.987648 -1.75635 0
M  V30 365 O 36.1464 1.77265 -1.79815 0
M  V30 366 C 37.4594 -1.33695 -2.69344 0
M  V30 367 C 39.0074 -1.33246 -2.83222 0
M  V30 368 C 39.4824 -2.1625 -4.03733 0
M  V30 369 N 40.9734 -2.1379 -4.10911 0
M  V30 370 C 41.7084 -2.74772 -5.03277 0
M  V30 371 N 41.2044 -3.44684 -6.0097 0
M  V30 372 N 42.9974 -2.6441 -4.96028 0
M  V30 373 H 35.1484 -1.76485 -1.18181 0
M  V30 374 H 37.4114 -0.751199 -0.578276 0
M  V30 375 H 37.1174 -2.38634 -2.58354 0
M  V30 376 H 36.9914 -0.990618 -3.6396 0
M  V30 377 H 39.3784 -0.290911 -2.93663 0
M  V30 378 H 39.4594 -1.71866 -1.89461 0
M  V30 379 H 39.1034 -3.20445 -3.94052 0
M  V30 380 H 39.0334 -1.74989 -4.96675 0
M  V30 381 H 41.5244 -1.62923 -3.40976 0
M  V30 382 H 41.8374 -3.88501 -6.68047 0
M  V30 383 H 40.1824 -3.48788 -6.01142 0
M  V30 384 H 43.3734 -2.0938 -4.18662 0
M  V30 385 H 43.5464 -3.12225 -5.6782 0
M  V30 386 N 36.9525 1.47285 -0.560781 0
M  V30 387 C 38.3635 1.86258 -0.128343 0
M  V30 388 C 38.7145 1.46699 1.30284 0
M  V30 389 O 37.8395 0.871698 1.98067 0
M  V30 390 C 38.4345 3.38044 -0.22614 0
M  V30 391 C 36.9935 3.76096 0.151283 0
M  V30 392 C 36.1405 2.71335 -0.572084 0
M  V30 393 H 39.0915 1.38752 -0.770297 0
M  V30 394 H 39.1125 3.76441 0.554322 0
M  V30 395 H 38.6245 3.66806 -1.26788 0
M  V30 396 H 36.7255 3.52951 1.19399 0
M  V30 397 H 36.8385 4.78641 -0.209765 0
M  V30 398 H 35.2025 2.54696 -0.0147653 0
M  V30 399 H 35.9855 3.02938 -1.61504 0
M  V30 400 N 38.4306 0.297415 1.54768 0
M  V30 401 C 39.8416 -0.195947 1.85669 0
M  V30 402 C 40.1926 -1.53707 1.21937 0
M  V30 403 O 39.3176 -2.10164 0.515754 0
M  V30 404 C 39.9126 -0.362318 3.36857 0
M  V30 405 C 38.4716 -0.799901 3.67802 0
M  V30 406 C 37.6186 0.0938578 2.77141 0
M  V30 407 H 40.5696 0.518538 1.4999 0
M  V30 408 H 40.5906 -1.19745 3.61167 0
M  V30 409 H 40.1026 0.613921 3.83214 0
M  V30 410 H 38.2036 -1.78682 3.26961 0
M  V30 411 H 38.3166 -0.621773 4.75048 0
M  V30 412 H 36.6806 -0.426254 2.51108 0
M  V30 413 H 37.4636 1.06639 3.26318 0
M  V30 414 N 39.9087 -1.5758 0.0250728 0
M  V30 415 C 40.8387 -2.13007 -0.956575 0
M  V30 416 C 41.8197 -1.0452 -1.342 0
M  V30 417 O 43.0047 -1.32332 -1.42133 0
M  V30 418 C 40.1347 -2.65386 -2.24026 0
M  V30 419 C 39.0887 -3.78623 -1.99571 0
M  V30 420 C 38.4147 -4.17414 -3.3417 0
M  V30 421 C 39.7147 -5.04867 -1.33814 0
M  V30 422 H 41.4087 -2.9528 -0.494991 0
M  V30 423 H 38.9547 -1.42042 -0.236651 0
M  V30 424 H 40.9077 -3.02794 -2.93076 0
M  V30 425 H 39.6317 -1.80268 -2.72343 0
M  V30 426 H 38.2907 -3.41646 -1.32941 0
M  V30 427 H 37.9387 -3.29284 -3.80238 0
M  V30 428 H 37.6387 -4.93719 -3.18615 0
M  V30 429 H 39.1627 -4.57402 -4.04495 0
M  V30 430 H 40.5767 -5.39888 -1.92857 0
M  V30 431 H 38.9737 -5.86144 -1.28669 0
M  V30 432 H 40.0437 -4.83904 -0.310561 0
M  V30 433 N 41.3868 0.248026 -1.55636 0
M  V30 434 C 42.8028 0.596483 -1.48035 0
M  V30 435 C 43.0028 1.88386 -0.715039 0
M  V30 436 O 42.0588 2.51319 -0.243944 0
M  V30 437 C 43.3718 0.700258 -2.92433 0
M  V30 438 C 44.9198 0.792659 -3.02797 0
M  V30 439 C 45.3948 0.928005 -4.485 0
M  V30 440 N 46.8858 0.992903 -4.52433 0
M  V30 441 C 47.6208 1.11687 -5.62418 0
M  V30 442 N 47.1168 1.20645 -6.82214 0
M  V30 443 N 48.9098 1.14994 -5.50212 0
M  V30 444 H 41.0608 -0.597109 -2.03834 0
M  V30 445 H 43.3238 -0.205925 -0.925364 0
M  V30 446 H 43.0298 -0.175658 -3.51261 0
M  V30 447 H 42.9038 1.57255 -3.42857 0
M  V30 448 H 45.2908 1.65903 -2.4405 0
M  V30 449 H 45.3718 -0.104762 -2.55585 0
M  V30 450 H 45.0158 0.0661971 -5.07857 0
M  V30 451 H 44.9458 1.84045 -4.93391 0
M  V30 452 H 47.4368 0.935064 -3.66149 0
M  V30 453 H 47.7498 1.30008 -7.61786 0
M  V30 454 H 46.0948 1.17605 -6.84977 0
M  V30 455 H 49.2858 1.07643 -4.55555 0
M  V30 456 H 49.4588 1.24311 -6.35965 0
M  V30 457 N 42.8649 1.48995 0.513639 0
M  V30 458 C 43.8129 1.65199 1.63744 0
M  V30 459 C 44.8069 0.51809 1.61283 0
M  V30 460 O 46.0129 0.697335 1.65943 0
M  V30 461 H 42.3879 0.52069 0.542574 0
M  V30 462 H 44.3589 2.59552 1.47226 0
M  V30 463 C 43.1079 1.72409 3.01945 0
M  V30 464 H 42.4309 2.59029 3.04539 0
M  V30 465 H 43.8709 1.87785 3.80148 0
M  V30 466 C 42.3299 0.46618 3.33659 0
M  V30 467 O 42.8599 -0.413744 3.99564 0
M  V30 468 N 41.0659 0.332931 2.88687 0
M  V30 469 H 40.6129 1.04996 2.35231 0
M  V30 470 H 40.5709 -0.507665 3.10274 0
M  V30 471 N 44.343 -0.763751 1.37857 0
M  V30 472 C 45.253 -1.90817 1.36478 0
M  V30 473 C 46.269 -1.71997 0.263248 0
M  V30 474 O 47.445 -1.95095 0.499979 0
M  V30 475 C 44.51 -3.2605 1.17864 0
M  V30 476 C 43.571 -3.57467 2.3773 0
M  V30 477 C 42.804 -4.86249 2.19995 0
M  V30 478 O 43.027 -5.57884 1.18836 0
M  V30 479 O 41.961 -5.16911 3.08361 0
M  V30 480 H 45.787 -1.94933 2.32884 0
M  V30 481 H 43.372 -0.907619 1.1867 0
M  V30 482 H 45.254 -4.06924 1.09504 0
M  V30 483 H 43.929 -3.22769 0.245372 0
M  V30 484 H 42.836 -2.76796 2.51664 0
M  V30 485 H 44.169 -3.655 3.29652 0
M  V30 486 N 45.8211 -1.22559 -0.990812 0
M  V30 487 C 47.0681 -1.05141 -1.73065 0
M  V30 488 C 47.3961 0.413191 -1.9006 0
M  V30 489 O 46.6511 1.32257 -1.44245 0
M  V30 490 C 46.9501 -1.71011 -3.13831 0
M  V30 491 C 46.6161 -3.20911 -3.16745 0
M  V30 492 C 45.2781 -3.61812 -3.17247 0
M  V30 493 C 47.6301 -4.16846 -3.12872 0
M  V30 494 C 44.9581 -4.97127 -3.1158 0
M  V30 495 C 47.3101 -5.5214 -3.08746 0
M  V30 496 C 45.9741 -5.92419 -3.07565 0
M  V30 497 H 45.2441 -0.384738 -0.633291 0
M  V30 498 H 47.8911 -1.5235 -1.16025 0
M  V30 499 H 46.1961 -1.16133 -3.74193 0
M  V30 500 H 47.8931 -1.55023 -3.69823 0
M  V30 501 H 44.4831 -2.88344 -3.17105 0
M  V30 502 H 48.6671 -3.86263 -3.11632 0
M  V30 503 H 43.9231 -5.27562 -3.09012 0
M  V30 504 H 48.0971 -6.26201 -3.04705 0
M  V30 505 H 45.7241 -6.97236 -3.02929 0
M  V30 506 N 47.2992 1.18797 -1.03562 0
M  V30 507 C 48.7152 1.40671 -0.753917 0
M  V30 508 C 48.9152 1.9043 0.658686 0
M  V30 509 O 47.9712 2.08538 1.42366 0
M  V30 510 C 49.2842 2.41192 -1.79574 0
M  V30 511 C 50.8322 2.54928 -1.81606 0
M  V30 512 C 51.3072 3.58709 -2.84766 0
M  V30 513 N 52.7982 3.66212 -2.83625 0
M  V30 514 C 53.5332 4.46225 -3.60098 0
M  V30 515 N 53.0292 5.29888 -4.46308 0
M  V30 516 N 54.8222 4.40939 -3.4861 0
M  V30 517 H 46.9732 0.848221 -1.94728 0
M  V30 518 H 49.2362 0.435081 -0.842264 0
M  V30 519 H 48.9422 2.11669 -2.80872 0
M  V30 520 H 48.8162 3.40467 -1.62365 0
M  V30 521 H 51.2032 2.83771 -0.809817 0
M  V30 522 H 51.2842 1.55784 -2.02891 0
M  V30 523 H 50.9282 3.30607 -3.85566 0
M  V30 524 H 50.8582 4.57519 -2.60737 0
M  V30 525 H 53.3492 3.06466 -2.21105 0
M  V30 526 H 53.6622 5.88078 -5.01382 0
M  V30 527 H 52.0072 5.29326 -4.50377 0
M  V30 528 H 55.1982 3.74624 -2.80668 0
M  V30 529 H 55.3712 5.03056 -4.08459 0
M  V30 530 N 48.7773 0.814389 1.34928 0
M  V30 531 C 50.0073 0.41054 2.0248 0
M  V30 532 C 50.4153 -0.985625 1.61499 0
M  V30 533 O 49.7583 -1.64781 0.811976 0
M  V30 534 C 49.8203 0.423384 3.56998 0
M  V30 535 C 49.4843 1.77141 4.21272 0
M  V30 536 C 50.4813 2.73093 4.42398 0
M  V30 537 C 48.1663 2.05755 4.58225 0
M  V30 538 C 50.1603 3.95838 4.9959 0
M  V30 539 C 47.8473 3.28762 5.1513 0
M  V30 540 C 48.8453 4.23621 5.35755 0
M  V30 541 O 48.5333 5.44456 5.91458 0
M  V30 542 H 48.2653 0.163997 0.655806 0
M  V30 543 H 50.8193 1.10155 1.73364 0
M  V30 544 H 49.0493 -0.324276 3.85338 0
M  V30 545 H 50.7383 0.0407683 4.0588 0
M  V30 546 H 51.5043 2.5228 4.14222 0
M  V30 547 H 47.3833 1.32727 4.4148 0
M  V30 548 H 50.9273 4.69891 5.15605 0
M  V30 549 H 46.8243 3.49443 5.42734 0
M  V30 550 H 47.5923 5.4586 6.09901 0
M  V30 551 N 50.2554 -1.46986 0.568584 0
M  V30 552 C 51.5024 -2.02441 0.0487986 0
M  V30 553 C 51.8304 -1.44169 -1.30559 0
M  V30 554 O 51.0854 -0.591213 -1.86556 0
M  V30 555 C 51.3844 -3.57306 -0.081836 0
M  V30 556 C 51.0504 -4.34552 1.20313 0
M  V30 557 C 49.7124 -4.55376 1.5552 0
M  V30 558 C 52.0644 -4.79016 2.05411 0
M  V30 559 C 49.3924 -5.17913 2.7565 0
M  V30 560 C 51.7444 -5.42879 3.24754 0
M  V30 561 C 50.4084 -5.61933 3.60261 0
M  V30 562 H 49.6784 -0.740785 0.0178567 0
M  V30 563 H 52.3254 -1.76525 0.742384 0
M  V30 564 H 50.6304 -3.8228 -0.858463 0
M  V30 565 H 52.3274 -3.97876 -0.499546 0
M  V30 566 H 48.9174 -4.18631 0.919014 0
M  V30 567 H 53.1014 -4.62696 1.79516 0
M  V30 568 H 48.3574 -5.30858 3.03315 0
M  V30 569 H 52.5314 -5.76293 3.90973 0
M  V30 570 H 50.1584 -6.10161 4.53439 0
M  V30 571 N 51.7335 -0.305618 -1.54608 0
M  V30 572 C 52.6655 0.602161 -2.21149 0
M  V30 573 C 53.6785 1.09394 -1.20569 0
M  V30 574 O 54.8675 1.0106 -1.47136 0
M  V30 575 C 51.9675 1.83692 -2.84799 0
M  V30 576 C 51.1405 1.48686 -4.11353 0
M  V30 577 C 50.1995 2.57725 -4.58764 0
M  V30 578 O 49.2255 2.22623 -5.23858 0
M  V30 579 N 50.4275 3.88346 -4.31471 0
M  V30 580 H 53.1925 0.0324966 -2.99682 0
M  V30 581 H 50.7535 -0.128021 -1.61393 0
M  V30 582 H 52.7455 2.55994 -3.13448 0
M  V30 583 H 51.3155 2.31486 -2.10078 0
M  V30 584 H 50.5355 0.596269 -3.89664 0
M  V30 585 H 51.8235 1.22842 -4.93748 0
M  V30 586 H 51.2215 4.19671 -3.79331 0
M  V30 587 H 49.7785 4.56932 -4.64818 0
M  V30 588 N 53.2116 1.57565 -0.0334293 0
M  V30 589 C 54.6276 1.56297 0.322997 0
M  V30 590 C 54.8276 1.03945 1.7262 0
M  V30 591 O 53.8836 0.688109 2.42943 0
M  V30 592 C 55.1966 3.00232 0.167664 0
M  V30 593 C 56.7446 3.12078 0.240107 0
M  V30 594 C 57.2196 4.57859 0.113513 0
M  V30 595 N 58.7106 4.62887 0.170359 0
M  V30 596 C 59.4456 5.73319 0.0962517 0
M  V30 597 N 58.9416 6.92794 -0.0291881 0
M  V30 598 N 60.7346 5.61898 0.150551 0
M  V30 599 H 52.8856 1.89923 -0.950956 0
M  V30 600 H 55.1486 0.873824 -0.367608 0
M  V30 601 H 54.8546 3.42501 -0.799102 0
M  V30 602 H 54.7286 3.654 0.936083 0
M  V30 603 H 57.1156 2.69718 1.19733 0
M  V30 604 H 57.1966 2.49623 -0.558763 0
M  V30 605 H 56.8406 5.009 -0.840314 0
M  V30 606 H 56.7706 5.18299 0.931302 0
M  V30 607 H 59.2616 3.76954 0.26728 0
M  V30 608 H 59.5746 7.7276 -0.0789252 0
M  V30 609 H 57.9196 6.94971 -0.0640299 0
M  V30 610 H 61.1106 4.67448 0.246981 0
M  V30 611 H 61.2836 6.47938 0.0893365 0
M  V30 612 N 54.6897 -0.239769 1.55765 0
M  V30 613 C 55.6227 -1.32356 1.85895 0
M  V30 614 C 56.6007 -1.46053 0.714662 0
M  V30 615 O 57.7847 -1.62154 0.961157 0
M  V30 616 C 54.9117 -2.6962 2.04994 0
M  V30 617 C 53.9577 -2.73036 3.27648 0
M  V30 618 S 54.7907 -2.28929 4.84099 0
M  V30 619 C 55.9467 -3.68103 5.06212 0
M  V30 620 H 56.1797 -1.06601 2.77531 0
M  V30 621 H 53.7127 -0.441112 1.47965 0
M  V30 622 H 55.6707 -3.48653 2.16682 0
M  V30 623 H 54.3317 -2.92609 1.14188 0
M  V30 624 H 53.5247 -3.7386 3.38 0
M  V30 625 H 53.1267 -2.02052 3.14723 0
M  V30 626 H 55.4187 -4.63656 4.93993 0
M  V30 627 H 56.3617 -3.6268 6.08168 0
M  V30 628 H 56.7697 -3.60947 4.34025 0
M  V30 629 N 56.1678 -1.49265 -0.50573 0
M  V30 630 C 57.3958 -1.62215 -1.28429 0
M  V30 631 C 57.8108 -0.291697 -1.86533 0
M  V30 632 O 57.1678 0.722233 -1.67601 0
M  V30 633 C 57.2188 -2.68735 -2.41793 0
M  V30 634 O 56.9398 -3.96619 -1.86078 0
M  V30 635 C 58.4408 -2.92346 -3.3324 0
M  V30 636 H 55.6608 -0.546239 -0.389697 0
M  V30 637 H 58.2048 -1.95265 -0.607609 0
M  V30 638 H 56.3598 -2.38476 -3.053 0
M  V30 639 H 56.7738 -4.55256 -2.60465 0
M  V30 640 H 58.2478 -3.70623 -4.09075 0
M  V30 641 H 58.7248 -2.02081 -3.89948 0
M  V30 642 H 59.3308 -3.24003 -2.75503 0
M  V30 643 N 57.6459 0.756429 -1.3826 0
M  V30 644 C 58.8739 1.54565 -1.3754 0
M  V30 645 C 59.2889 1.88767 0.0355331 0
M  V30 646 O 58.6459 1.52572 1.0014 0
M  V30 647 C 58.6969 2.84654 -2.22833 0
M  V30 648 O 58.4179 2.51912 -3.5843 0
M  V30 649 C 59.9189 3.78807 -2.30261 0
M  V30 650 H 57.1389 0.478353 -0.470553 0
M  V30 651 H 59.6829 0.936381 -1.81803 0
M  V30 652 H 57.8379 3.41965 -1.8204 0
M  V30 653 H 58.2519 3.35325 -4.03308 0
M  V30 654 H 59.7259 4.67045 -2.94233 0
M  V30 655 H 60.2029 4.19038 -1.31545 0
M  V30 656 H 60.8089 3.2742 -2.71433 0
M  V30 657 N 59.124 1.23083 0.984299 0
M  V30 658 C 60.352 1.08714 1.76037 0
M  V30 659 C 60.767 -0.361691 1.85303 0
M  V30 660 O 60.124 -1.25034 1.32939 0
M  V30 661 C 60.175 1.70206 3.18923 0
M  V30 662 O 59.896 3.09423 3.10144 0
M  V30 663 C 61.397 1.61227 4.12941 0
M  V30 664 H 58.617 0.380664 0.552572 0
M  V30 665 H 61.161 1.62853 1.23689 0
M  V30 666 H 59.316 1.20109 3.6831 0
M  V30 667 H 59.73 3.39188 4.00065 0
M  V30 668 H 61.204 2.08962 5.10919 0
M  V30 669 H 61.681 0.570375 4.35481 0
M  V30 670 H 62.287 2.10671 3.69456 0
M  V30 671 N 60.6021 -1.18246 1.0419 0
M  V30 672 C 61.8271 -1.92736 0.765996 0
M  V30 673 C 62.2521 -1.75728 -0.67091 0
M  V30 674 O 61.6101 -1.06825 -1.46486 0
M  V30 675 C 61.6581 -3.42148 1.13875 0
M  V30 676 O 60.7621 -4.11548 0.264954 0
M  V30 677 H 60.1031 -0.601238 0.281797 0
M  V30 678 H 62.6331 -1.49942 1.39207 0
M  V30 679 H 62.6431 -3.92858 1.1012 0
M  V30 680 H 61.3181 -3.53848 2.18551 0
M  V30 681 H 59.8951 -3.71137 0.362226 0
M  V30 682 N 62.0802 -0.821533 -1.34494 0
M  V30 683 C 63.3052 -0.420873 -2.03085 0
M  V30 684 C 63.7302 0.964915 -1.61465 0
M  V30 685 O 63.0882 1.62763 -0.798607 0
M  V30 686 C 63.1362 -0.529414 -3.56693 0
M  V30 687 O 62.2402 0.451302 -4.09923 0
M  V30 688 H 61.5812 -0.173489 -0.640935 0
M  V30 689 H 64.1112 -1.11157 -1.71771 0
M  V30 690 H 64.1212 -0.404671 -4.05988 0
M  V30 691 H 62.7962 -1.54014 -3.86332 0
M  V30 692 H 61.3732 0.285558 -3.71805 0
M  V30 693 N 63.5583 1.46682 -0.576371 0
M  V30 694 C 64.8043 2.02712 -0.0596221 0
M  V30 695 C 65.1373 1.44765 1.29448 0
M  V30 696 O 64.4123 0.610355 1.84675 0
M  V30 697 C 64.6953 3.60098 0.0129503 0
M  V30 698 C 64.5483 4.28441 -1.3696 0
M  V30 699 C 65.8673 4.34224 0.71678 0
M  V30 700 H 62.9863 0.736637 -0.0231407 0
M  V30 701 H 65.6283 1.74898 -0.742351 0
M  V30 702 H 63.7783 3.83926 0.594378 0
M  V30 703 H 65.4503 4.15896 -1.9957 0
M  V30 704 H 63.6933 3.8805 -1.93907 0
M  V30 705 H 64.3643 5.3716 -1.27135 0
M  V30 706 H 66.8403 4.15503 0.222908 0
M  V30 707 H 65.7163 5.43936 0.73657 0
M  V30 708 H 65.9773 4.04823 1.77682 0
M  V30 709 N 65.0364 0.313813 1.54444 0
M  V30 710 C 65.9464 -0.565714 2.27677 0
M  V30 711 C 66.9624 -1.13754 1.31666 0
M  V30 712 O 68.1384 -1.15959 1.64668 0
M  V30 713 C 65.2034 -1.71528 3.01296 0
M  V30 714 C 64.2644 -1.17624 4.12872 0
M  V30 715 C 63.4974 -2.27102 4.8297 0
M  V30 716 O 63.7204 -3.47256 4.52514 0
M  V30 717 O 62.6544 -1.9307 5.70094 0
M  V30 718 H 66.4804 0.0287296 3.03686 0
M  V30 719 H 64.0654 0.0798312 1.49187 0
M  V30 720 H 65.9474 -2.38476 3.4743 0
M  V30 721 H 64.6224 -2.29608 2.2817 0
M  V30 722 H 63.5294 -0.472124 3.71109 0
M  V30 723 H 64.8624 -0.640695 4.88012 0
M  V30 724 N 66.5145 -1.57545 0.0417849 0
M  V30 725 C 67.7625 -1.91937 -0.632829 0
M  V30 726 C 68.0835 -0.919978 -1.71934 0
M  V30 727 O 67.3535 0.0366064 -1.95866 0
M  V30 728 H 65.9335 -0.708493 -0.236742 0
M  V30 729 H 68.5955 -1.9468 0.0925745 0
M  V30 730 H 67.6915 -2.92912 -1.07746 0
M  V30 731 N 67.9926 0.231505 -1.5589 0
M  V30 732 C 68.9396 1.28682 -1.91598 0
M  V30 733 C 69.9096 1.47071 -0.771974 0
M  V30 734 O 71.0946 1.60802 -1.027 0
M  V30 735 C 68.2346 2.6342 -2.22944 0
M  V30 736 C 67.3476 2.52912 -3.50228 0
M  V30 737 C 66.4826 3.80106 -3.7107 0
M  V30 738 C 65.5216 3.64279 -4.91902 0
M  V30 739 N 64.6586 4.834 -5.09184 0
M  V30 740 H 69.4986 0.975305 -2.81588 0
M  V30 741 H 67.0356 0.470299 -1.39379 0
M  V30 742 H 68.9936 3.41869 -2.39126 0
M  V30 743 H 67.6236 2.92687 -1.36139 0
M  V30 744 H 66.6756 1.6595 -3.42294 0
M  V30 745 H 67.9876 2.37133 -4.38827 0
M  V30 746 H 67.1416 4.66999 -3.87295 0
M  V30 747 H 65.8806 3.98799 -2.80733 0
M  V30 748 H 64.8856 2.7577 -4.75637 0
M  V30 749 H 66.1106 3.47067 -5.83714 0
M  V30 750 H 64.0566 5.02425 -4.21788 0
M  V30 751 H 63.9736 4.70311 -5.91898 0
M  V30 752 H 65.2416 5.71747 -5.29835 0
M  V30 753 N 69.4707 1.49531 0.497807 0
M  V30 754 C 70.4027 1.62559 1.61578 0
M  V30 755 C 71.4157 0.508134 1.54667 0
M  V30 756 O 72.6047 0.780309 1.60541 0
M  V30 757 C 69.7047 1.56925 3.00379 0
M  V30 758 C 68.8777 2.84257 3.3244 0
M  V30 759 C 67.9367 2.71632 4.50669 0
M  V30 760 O 66.9627 3.4557 4.52294 0
M  V30 761 N 68.1647 1.83391 5.5077 0
M  V30 762 H 70.9297 2.58981 1.50828 0
M  V30 763 H 68.4907 1.4666 0.685743 0
M  V30 764 H 70.4827 1.46129 3.77397 0
M  V30 765 H 69.0527 0.683483 3.05037 0
M  V30 766 H 68.2727 3.09381 2.44289 0
M  V30 767 H 69.5607 3.68666 3.5066 0
M  V30 768 H 68.9587 1.22583 5.52259 0
M  V30 769 H 67.5157 1.78515 6.26878 0
M  V30 770 N 70.9488 -0.749086 1.3866 0
M  V30 771 C 71.8968 -1.88428 1.36373 0
M  V30 772 C 72.8908 -1.67561 0.248929 0
M  V30 773 O 74.0968 -1.75074 0.41821 0
M  V30 774 H 70.4718 -0.620023 0.42553 0
M  V30 775 H 72.4428 -1.87473 2.32156 0
M  V30 776 C 71.1918 -3.25961 1.21014 0
M  V30 777 H 70.5148 -3.42607 2.06059 0
M  V30 778 H 71.9548 -4.05625 1.23469 0
M  V30 779 C 70.4138 -3.36799 -0.0825941 0
M  V30 780 O 70.9438 -3.87517 -1.05797 0
M  V30 781 N 69.1498 -2.90258 -0.140939 0
M  V30 782 H 68.6968 -2.49174 0.653477 0
M  V30 783 H 68.6548 -2.97889 -1.00545 0
M  V30 784 N 72.4269 -1.23603 -0.977757 0
M  V30 785 C 73.3569 -1.04401 -2.0886 0
M  V30 786 C 74.3379 0.0399052 -1.70053 0
M  V30 787 O 75.5229 -0.125246 -1.93796 0
M  V30 788 C 72.6529 -0.637269 -3.41403 0
M  V30 789 C 71.6069 -1.66883 -3.94124 0
M  V30 790 C 70.9329 -1.11745 -5.22893 0
M  V30 791 C 72.2329 -3.06247 -4.23096 0
M  V30 792 H 73.9269 -1.97316 -2.25182 0
M  V30 793 H 71.4729 -0.950096 -1.08209 0
M  V30 794 H 73.4259 -0.48998 -4.18542 0
M  V30 795 H 72.1499 0.327557 -3.24953 0
M  V30 796 H 70.8089 -1.80416 -3.19133 0
M  V30 797 H 70.4569 -0.143527 -5.02795 0
M  V30 798 H 70.1569 -1.80672 -5.59134 0
M  V30 799 H 71.6809 -0.982067 -6.02651 0
M  V30 800 H 73.0949 -2.96001 -4.90975 0
M  V30 801 H 71.4919 -3.72436 -4.70544 0
M  V30 802 H 72.5619 -3.55041 -3.30263 0
M  V30 803 N 73.905 1.17692 -1.04816 0
M  V30 804 C 75.151 1.88137 -0.75711 0
M  V30 805 C 75.484 1.80604 0.713841 0
M  V30 806 O 74.759 1.21146 1.52164 0
M  V30 807 C 75.042 3.38318 -1.2334 0
M  V30 808 C 74.895 3.54622 -2.76701 0
M  V30 809 C 76.214 4.32214 -0.829415 0
M  V30 810 H 73.333 0.683163 -0.27651 0
M  V30 811 H 75.975 1.38424 -1.30149 0
M  V30 812 H 74.125 3.80787 -0.770286 0
M  V30 813 H 75.797 3.21194 -3.31107 0
M  V30 814 H 74.04 2.97026 -3.16161 0
M  V30 815 H 74.711 4.60028 -3.05088 0
M  V30 816 H 77.187 3.97565 -1.22805 0
M  V30 817 H 76.063 5.35838 -1.19033 0
M  V30 818 H 76.324 4.41294 0.266891 0
M  V30 819 N 75.3831 0.828654 1.34056 0
M  V30 820 C 76.6321 0.415828 1.97367 0
M  V30 821 C 76.9451 -1.02796 1.6641 0
M  V30 822 O 78.1511 -1.54497 2.23255 0
M  V30 823 C 76.6071 0.692601 3.53173 0
M  V30 824 C 76.2151 2.15038 3.93017 0
M  V30 825 C 77.9591 0.346222 4.23086 0
M  V30 826 C 75.8661 2.37174 5.41758 0
M  V30 827 H 74.7961 0.151755 0.738571 0
M  V30 828 H 77.4471 1.01581 1.52819 0
M  V30 829 H 75.8291 0.0223764 3.95994 0
M  V30 830 H 77.0031 2.86024 3.61285 0
M  V30 831 H 75.3181 2.45875 3.36057 0
M  V30 832 H 77.9151 0.48937 5.32456 0
M  V30 833 H 78.2581 -0.709842 4.10204 0
M  V30 834 H 78.7911 0.971258 3.85761 0
M  V30 835 H 75.5301 3.41308 5.59633 0
M  V30 836 H 75.0501 1.70738 5.74986 0
M  V30 837 H 76.7291 2.19818 6.08514 0
M  V30 838 N 76.8612 -1.46375 0.584142 0
M  V30 839 C 77.7942 -2.27351 -0.196676 0
M  V30 840 C 78.7722 -1.35715 -0.895561 0
M  V30 841 O 79.9562 -1.65126 -0.90916 0
M  V30 842 C 77.0832 -3.13486 -1.28235 0
M  V30 843 C 76.1292 -4.20896 -0.689145 0
M  V30 844 S 76.9622 -5.33299 0.48507 0
M  V30 845 C 78.1182 -6.23 -0.601767 0
M  V30 846 H 78.3512 -2.93228 0.490395 0
M  V30 847 H 75.8842 -1.49875 0.371071 0
M  V30 848 H 77.8422 -3.63676 -1.90395 0
M  V30 849 H 76.5032 -2.4692 -1.94138 0
M  V30 850 H 75.6962 -4.80997 -1.50527 0
M  V30 851 H 75.2982 -3.73726 -0.143181 0
M  V30 852 H 77.5902 -6.60979 -1.48705 0
M  V30 853 H 78.5332 -7.0809 -0.0374799 0
M  V30 854 H 78.9412 -5.57173 -0.906557 0
M  V30 855 N 78.3393 -0.321999 -1.54275 0
M  V30 856 C 79.5873 0.280489 -2.00144 0
M  V30 857 C 79.9083 1.52777 -1.21178 0
M  V30 858 O 79.1783 1.9338 -0.313187 0
M  V30 859 H 77.7583 0.106632 -0.73935 0
M  V30 860 H 80.4203 -0.438184 -1.8991 0
M  V30 861 H 79.5163 0.537972 -3.07428 0
M  V30 862 N 79.8174 1.5752 -0.0501392 0
M  V30 863 C 81.2334 1.56631 0.306402 0
M  V30 864 C 81.4334 1.0577 1.71508 0
M  V30 865 O 80.4894 0.713837 2.422 0
M  V30 866 C 81.8024 3.00393 0.135811 0
M  V30 867 C 83.3504 3.12315 0.206993 0
M  V30 868 C 83.8254 4.57954 0.064944 0
M  V30 869 N 85.3164 4.63041 0.121254 0
M  V30 870 C 86.0514 5.73389 0.0354381 0
M  V30 871 N 85.5474 6.92724 -0.102666 0
M  V30 872 N 87.3404 5.62026 0.090946 0
M  V30 873 H 79.4914 1.88903 -0.971046 0
M  V30 874 H 81.7544 0.869876 -0.376855 0
M  V30 875 H 81.4604 3.41635 -0.835384 0
M  V30 876 H 81.3344 3.66373 0.897275 0
M  V30 877 H 83.7214 2.70973 1.16866 0
M  V30 878 H 83.8024 2.49016 -0.585208 0
M  V30 879 H 83.4464 4.99981 -0.893394 0
M  V30 880 H 83.3764 5.19258 0.876277 0
M  V30 881 H 85.8674 3.77216 0.227284 0
M  V30 882 H 86.1804 7.72633 -0.160882 0
M  V30 883 H 84.5254 6.94864 -0.137737 0
M  V30 884 H 87.7164 4.67684 0.197388 0
M  V30 885 H 87.8894 6.47997 0.0206089 0
M  V30 886 N 81.2955 -0.223234 1.56011 0
M  V30 887 C 82.2425 -1.27664 1.92277 0
M  V30 888 C 83.2125 -1.46659 0.779763 0
M  V30 889 O 84.3975 -1.60256 1.03551 0
M  V30 890 C 81.5375 -2.62234 2.24338 0
M  V30 891 C 80.6505 -2.51051 3.51564 0
M  V30 892 C 79.7855 -3.78133 3.7308 0
M  V30 893 C 78.8245 -3.61665 4.93827 0
M  V30 894 N 77.9615 -4.80693 5.11741 0
M  V30 895 H 82.8015 -0.960358 2.82101 0
M  V30 896 H 80.3385 -0.462901 1.39627 0
M  V30 897 H 82.2965 -3.40596 2.40936 0
M  V30 898 H 80.9265 -2.91961 1.3769 0
M  V30 899 H 79.9785 -1.64132 3.43169 0
M  V30 900 H 81.2905 -2.34803 4.40079 0
M  V30 901 H 80.4445 -4.64938 3.89766 0
M  V30 902 H 79.1835 -3.97304 2.82844 0
M  V30 903 H 78.1885 -2.73244 4.77093 0
M  V30 904 H 79.4135 -3.43966 5.85546 0
M  V30 905 H 77.3595 -5.00181 4.24446 0
M  V30 906 H 77.2765 -4.67165 5.94384 0
M  V30 907 H 78.5445 -5.6893 5.3286 0
M  V30 908 N 82.7736 -1.49793 -0.48987 0
M  V30 909 C 84.0016 -1.63568 -1.26701 0
M  V30 910 C 84.4166 -0.311465 -1.86213 0
M  V30 911 O 83.7736 0.704416 -1.68357 0
M  V30 912 C 83.8246 -2.71284 -2.38929 0
M  V30 913 O 83.5456 -3.9857 -1.81861 0
M  V30 914 C 85.0466 -2.95864 -3.3012 0
M  V30 915 H 82.2666 -0.550342 -0.383881 0
M  V30 916 H 84.8106 -1.95898 -0.586864 0
M  V30 917 H 82.9656 -2.417 -3.02753 0
M  V30 918 H 83.3796 -4.57993 -2.55622 0
M  V30 919 H 84.8536 -3.74941 -4.05121 0
M  V30 920 H 85.3306 -2.06206 -3.87783 0
M  V30 921 H 85.9366 -3.26907 -2.72051 0
M  V30 922 N 84.2517 0.741722 -1.39055 0
M  V30 923 C 85.4977 1.50234 -1.37118 0
M  V30 924 C 85.8527 1.92368 0.0350439 0
M  V30 925 O 85.1457 1.63422 1.00019 0
M  V30 926 C 85.3397 2.7592 -2.27163 0
M  V30 927 C 85.1687 2.46074 -3.76401 0
M  V30 928 C 83.9387 2.38704 -4.45364 0
M  V30 929 C 86.1367 2.12062 -4.68545 0
M  V30 930 N 84.1187 2.01258 -5.79973 0
M  V30 931 C 85.4897 1.85005 -5.91754 0
M  V30 932 C 87.5447 1.98473 -4.56632 0
M  V30 933 C 86.2477 1.4573 -7.04383 0
M  V30 934 C 88.2737 1.60599 -5.69176 0
M  V30 935 C 87.6357 1.34423 -6.91455 0
M  V30 936 H 83.7347 0.548858 -0.557027 0
M  V30 937 H 86.3187 0.862642 -1.74547 0
M  V30 938 H 84.4897 3.3768 -1.91904 0
M  V30 939 H 86.2217 3.42068 -2.16267 0
M  V30 940 H 82.9767 2.55574 -3.98721 0
M  V30 941 H 83.4007 1.85147 -6.51191 0
M  V30 942 H 88.0427 2.17381 -3.62637 0
M  V30 943 H 85.7607 1.25562 -7.98286 0
M  V30 944 H 89.3467 1.507 -5.61944 0
M  V30 945 H 88.2267 1.05555 -7.77064 0
M  V30 946 N 85.7298 1.2412 0.971189 0
M  V30 947 C 86.9768 1.07881 1.71371 0
M  V30 948 C 87.3048 -0.382901 1.90694 0
M  V30 949 O 86.5598 -1.29945 1.46331 0
M  V30 950 C 86.8588 1.75983 3.11071 0
M  V30 951 C 86.5248 3.25909 3.11599 0
M  V30 952 C 85.1868 3.66813 3.11451 0
M  V30 953 C 87.5388 4.21771 3.062 0
M  V30 954 C 84.8668 5.02021 3.03631 0
M  V30 955 C 87.2188 5.56982 2.99923 0
M  V30 956 C 85.8828 5.97237 2.98102 0
M  V30 957 H 85.1528 0.394764 0.62709 0
M  V30 958 H 87.7998 1.54176 1.13587 0
M  V30 959 H 86.1048 1.22072 3.72298 0
M  V30 960 H 87.8018 1.60887 3.6731 0
M  V30 961 H 84.3918 2.93353 3.12477 0
M  V30 962 H 88.5758 3.91172 3.05447 0
M  V30 963 H 83.8318 5.32411 3.0058 0
M  V30 964 H 88.0058 6.30969 2.94704 0
M  V30 965 H 85.6328 7.01967 2.91798 0
M  V30 966 N 87.2079 -1.17134 1.05439 0
M  V30 967 C 88.4329 -1.91913 0.786396 0
M  V30 968 C 88.8579 -1.7643 -0.652234 0
M  V30 969 O 88.2159 -1.08372 -1.45345 0
M  V30 970 C 88.2639 -3.40921 1.17497 0
M  V30 971 O 87.3679 -4.11244 0.308589 0
M  V30 972 H 86.7089 -0.598215 0.288158 0
M  V30 973 H 89.2389 -1.48457 1.4079 0
M  V30 974 H 89.2489 -3.91668 1.14281 0
M  V30 975 H 87.9239 -3.5151 2.22292 0
M  V30 976 H 86.5009 -3.70731 0.40157 0
M  V30 977 N 88.686 -0.835752 -1.33615 0
M  V30 978 C 89.935 -0.426289 -1.97144 0
M  V30 979 C 90.248 1.01912 -1.66953 0
M  V30 980 O 91.454 1.53311 -2.24072 0
M  V30 981 C 89.91 -0.711321 -3.52801 0
M  V30 982 C 89.518 -2.1712 -3.91871 0
M  V30 983 C 91.262 -0.368654 -4.22896 0
M  V30 984 C 89.169 -2.40044 -5.40493 0
M  V30 985 H 88.099 -0.15567 -0.737755 0
M  V30 986 H 90.75 -1.0239 -1.52278 0
M  V30 987 H 89.132 -0.0433766 -3.95976 0
M  V30 988 H 90.306 -2.87936 -3.59763 0
M  V30 989 H 88.621 -2.47654 -3.34749 0
M  V30 990 H 91.218 -0.517601 -5.32189 0
M  V30 991 H 91.561 0.688078 -4.10574 0
M  V30 992 H 92.094 -0.991702 -3.8524 0
M  V30 993 H 88.833 -3.44271 -5.57815 0
M  V30 994 H 88.353 -1.73785 -5.74072 0
M  V30 995 H 90.032 -2.23042 -6.0734 0
M  V30 996 N 90.1641 1.46063 -0.591896 0
M  V30 997 C 91.5751 1.85944 -0.167822 0
M  V30 998 C 91.9261 1.49429 1.27143 0
M  V30 999 O 91.0511 0.913515 1.96173 0
M  V30 1000 C 91.6461 3.37489 -0.297794 0
M  V30 1001 C 90.2051 3.76332 0.0714732 0
M  V30 1002 C 89.3521 2.7006 -0.629509 0
M  V30 1003 H 92.3031 1.37087 -0.799555 0
M  V30 1004 H 92.3241 3.77532 0.474349 0
M  V30 1005 H 91.8361 3.64034 -1.3454 0
M  V30 1006 H 89.9371 3.55405 1.11886 0
M  V30 1007 H 90.0501 4.78088 -0.311245 0
M  V30 1008 H 88.4141 2.54607 -0.0687867 0
M  V30 1009 H 89.1971 2.99444 -1.67894 0
M  V30 1010 N 91.6422 0.330177 1.54103 0
M  V30 1011 C 92.5522 -0.541534 2.28264 0
M  V30 1012 C 93.5682 -1.12351 1.32866 0
M  V30 1013 O 94.7442 -1.14206 1.65888 0
M  V30 1014 C 91.8092 -1.68322 3.03098 0
M  V30 1015 C 90.8702 -1.13238 4.14096 0
M  V30 1016 C 90.1032 -2.21966 4.85352 0
M  V30 1017 O 90.3262 -3.42437 4.56172 0
M  V30 1018 O 89.2602 -1.87013 5.7211 0
M  V30 1019 H 93.0862 0.060938 3.03639 0
M  V30 1020 H 90.6712 0.09565 1.49093 0
M  V30 1021 H 92.5532 -2.34777 3.49939 0
M  V30 1022 H 91.2282 -2.27176 2.30593 0
M  V30 1023 H 90.1352 -0.432736 3.71589 0
M  V30 1024 H 91.4682 -0.588898 4.88664 0
M  V30 1025 N 93.1203 -1.57491 0.0584922 0
M  V30 1026 C 94.0673 -2.11958 -0.913376 0
M  V30 1027 C 95.0373 -1.02875 -1.30407 0
M  V30 1028 O 96.2223 -1.30464 -1.39226 0
M  V30 1029 C 93.3623 -2.67497 -2.18035 0
M  V30 1030 C 92.4753 -3.90691 -1.84349 0
M  V30 1031 C 91.6103 -4.3452 -3.05559 0
M  V30 1032 C 90.6493 -5.50395 -2.67827 0
M  V30 1033 N 89.7863 -5.89244 -3.81754 0
M  V30 1034 H 94.6263 -2.94704 -0.442017 0
M  V30 1035 H 92.1633 -1.45643 -0.206545 0
M  V30 1036 H 94.1213 -2.978 -2.92183 0
M  V30 1037 H 92.7513 -1.87537 -2.62735 0
M  V30 1038 H 91.8033 -3.66934 -1.00319 0
M  V30 1039 H 93.1153 -4.7489 -1.5258 0
M  V30 1040 H 92.2693 -4.66414 -3.87998 0
M  V30 1041 H 91.0083 -3.49147 -3.40511 0
M  V30 1042 H 90.0133 -5.18165 -1.83806 0
M  V30 1043 H 91.2383 -6.3749 -2.34059 0
M  V30 1044 H 89.1843 -5.06823 -4.16493 0
M  V30 1045 H 89.1013 -6.68151 -3.53708 0
M  V30 1046 H 90.3693 -6.25756 -4.64811 0
M  V30 1047 N 94.5984 0.214957 -1.56127 0
M  V30 1048 C 95.5464 1.28601 -1.93816 0
M  V30 1049 C 96.5404 1.48175 -0.821016 0
M  V30 1050 O 97.7464 1.49271 -1.0059 0
M  V30 1051 H 94.1214 0.431302 -0.616022 0
M  V30 1052 H 96.0924 0.940991 -2.83175 0
M  V30 1053 C 94.8414 2.62779 -2.27689 0
M  V30 1054 H 94.1644 2.48527 -3.13168 0
M  V30 1055 H 95.6044 3.36517 -2.57939 0
M  V30 1056 C 94.0634 3.18285 -1.10436 0
M  V30 1057 O 94.5934 4.00002 -0.368945 0
M  V30 1058 N 92.7994 2.7675 -0.886433 0
M  V30 1059 H 92.3464 2.10404 -1.48619 0
M  V30 1060 H 92.3044 3.14229 -0.103656 0
M  V30 1061 N 96.0765 1.50051 0.48192 0
M  V30 1062 C 97.4925 1.37237 0.814756 0
M  V30 1063 C 97.6925 0.420109 1.97072 0
M  V30 1064 O 96.7485 -0.141246 2.52105 0
M  V30 1065 C 98.0615 2.78375 1.13701 0
M  V30 1066 C 99.6095 2.87213 1.2441 0
M  V30 1067 C 100.084 4.29161 1.59954 0
M  V30 1068 N 101.575 4.32061 1.66967 0
M  V30 1069 C 102.31 5.38879 1.95952 0
M  V30 1070 N 101.806 6.55918 2.23031 0
M  V30 1071 N 103.599 5.26312 1.97363 0
M  V30 1072 H 95.7505 2.10546 -0.28005 0
M  V30 1073 H 98.0135 0.945921 -0.0627454 0
M  V30 1074 H 97.7195 3.49845 0.360787 0
M  V30 1075 H 97.5935 3.14941 2.07586 0
M  V30 1076 H 99.9805 2.15969 2.01101 0
M  V30 1077 H 100.061 2.54204 0.285299 0
M  V30 1078 H 99.7055 5.00938 0.838067 0
M  V30 1079 H 99.6355 4.59648 2.56966 0
M  V30 1080 H 102.126 3.47661 1.48123 0
M  V30 1081 H 102.439 7.33139 2.44391 0
M  V30 1082 H 100.784 6.59112 2.20447 0
M  V30 1083 H 103.975 4.33876 1.75697 0
M  V30 1084 H 104.148 6.09649 2.19618 0
M  V30 1085 N 97.5546 -0.734337 1.39446 0
M  V30 1086 C 98.9656 -1.31264 1.32766 0
M  V30 1087 C 99.3166 -1.96198 -0.00767497 0
M  V30 1088 O 98.4416 -1.96346 -0.909796 0
M  V30 1089 C 99.0366 -2.38682 2.4045 0
M  V30 1090 C 97.5956 -2.92184 2.37288 0
M  V30 1091 C 96.7426 -1.6576 2.22304 0
M  V30 1092 H 99.6936 -0.531799 1.49525 0
M  V30 1093 H 99.7146 -3.19087 2.07276 0
M  V30 1094 H 99.2266 -1.91392 3.37625 0
M  V30 1095 H 97.3276 -3.43752 1.43754 0
M  V30 1096 H 97.4406 -3.45253 3.3217 0
M  V30 1097 H 95.8046 -1.9012 1.69489 0
M  V30 1098 H 96.5876 -1.20521 3.21449 0
M  V30 1099 N 99.0327 -1.24633 -0.964593 0
M  V30 1100 C 99.9627 -1.06611 -2.07741 0
M  V30 1101 C 100.944 0.0218666 -1.70086 0
M  V30 1102 O 102.129 -0.145793 -1.93652 0
M  V30 1103 C 99.2587 -0.673444 -3.40708 0
M  V30 1104 C 98.2127 -1.71054 -3.92332 0
M  V30 1105 C 97.5387 -1.17285 -5.21678 0
M  V30 1106 C 98.8387 -3.10718 -4.19824 0
M  V30 1107 H 100.533 -1.99693 -2.23076 0
M  V30 1108 H 98.0787 -0.96152 -1.07195 0
M  V30 1109 H 100.032 -0.534345 -4.17998 0
M  V30 1110 H 98.7557 0.293073 -3.25282 0
M  V30 1111 H 97.4147 -1.83791 -3.17201 0
M  V30 1112 H 97.0627 -0.196847 -5.02615 0
M  V30 1113 H 96.7627 -1.86592 -5.57187 0
M  V30 1114 H 98.2867 -1.04593 -6.01575 0
M  V30 1115 H 99.7007 -3.01192 -4.87808 0
M  V30 1116 H 98.0977 -3.77406 -4.66567 0
M  V30 1117 H 99.1677 -3.58524 -3.26479 0
M  V30 1118 N 100.511 1.16574 -1.06058 0
M  V30 1119 C 101.458 2.20883 -0.669263 0
M  V30 1120 C 102.428 1.62729 0.332918 0
M  V30 1121 O 103.613 1.895 0.222346 0
M  V30 1122 C 100.753 3.45049 -0.0593572 0
M  V30 1123 C 99.8658 4.17458 -1.11143 0
M  V30 1124 C 99.0008 5.29135 -0.467916 0
M  V30 1125 C 98.0398 5.93343 -1.50369 0
M  V30 1126 N 97.1768 6.96516 -0.883706 0
M  V30 1127 H 102.017 2.53709 -1.5632 0
M  V30 1128 H 99.5538 1.24616 -0.781625 0
M  V30 1129 H 101.512 4.16033 0.311771 0
M  V30 1130 H 100.142 3.12781 0.797992 0
M  V30 1131 H 99.1938 3.45101 -1.60029 0
M  V30 1132 H 100.506 4.61307 -1.89731 0
M  V30 1133 H 99.6598 6.06684 -0.0436871 0
M  V30 1134 H 98.3988 4.86443 0.349864 0
M  V30 1135 H 97.4038 5.14517 -1.93784 0
M  V30 1136 H 98.6288 6.38114 -2.32352 0
M  V30 1137 H 96.5748 6.55943 -0.086595 0
M  V30 1138 H 96.4918 7.38723 -1.607 0
M  V30 1139 H 97.7598 7.77993 -0.484543 0
M  V30 1140 N 101.989 0.842826 1.3317 0
M  V30 1141 C 103.266 0.362216 1.92217 0
M  V30 1142 C 103.646 -1.15289 1.76838 0
M  V30 1143 O 102.994 -1.96914 1.15919 0
M  V30 1144 C 103.204 0.813495 3.39387 0
M  V30 1145 C 104.552 0.823804 4.16532 0
M  V30 1146 O 105.576 0.757358 3.48055 0
M  V30 1147 O 104.435 0.915193 5.38782 0
M  V30 1148 H 101.529 0.103317 0.820521 0
M  V30 1149 H 104.075 0.928942 1.42017 0
M  V30 1150 H 102.847 1.85624 3.4447 0
M  V30 1151 H 102.47 0.223561 3.96971 0
M  V30 1152 N 103.467 -1.45747 0.599634 0
M  V30 1153 C 104.883 -1.57424 0.26264 0
M  V30 1154 C 105.083 -1.59222 -1.23493 0
M  V30 1155 O 104.139 -1.51825 -2.01756 0
M  V30 1156 C 105.452 -2.86061 0.926795 0
M  V30 1157 C 107 -2.99722 0.901967 0
M  V30 1158 C 107.475 -4.31119 1.54598 0
M  V30 1159 N 108.966 -4.37858 1.5111 0
M  V30 1160 C 109.701 -5.3818 1.97863 0
M  V30 1161 N 109.197 -6.45083 2.52666 0
M  V30 1162 N 110.99 -5.29487 1.88679 0
M  V30 1163 H 103.141 -1.42823 1.57211 0
M  V30 1164 H 105.404 -0.68235 0.658105 0
M  V30 1165 H 105.11 -2.90605 1.98095 0
M  V30 1166 H 104.984 -3.74563 0.445238 0
M  V30 1167 H 107.371 -2.9475 -0.143617 0
M  V30 1168 H 107.452 -2.12652 1.42171 0
M  V30 1169 H 107.096 -4.36849 2.59085 0
M  V30 1170 H 107.026 -5.16992 1.00132 0
M  V30 1171 H 109.517 -3.61209 1.11068 0
M  V30 1172 H 109.83 -7.17869 2.86155 0
M  V30 1173 H 108.175 -6.45856 2.56701 0
M  V30 1174 H 111.366 -4.44877 1.4561 0
M  V30 1175 H 111.539 -6.07524 2.25429 0
M  V30 1176 N 104.945 -0.338344 -1.53925 0
M  V30 1177 C 106.194 0.260732 -2.00008 0
M  V30 1178 C 106.507 1.52073 -1.23017 0
M  V30 1179 O 107.713 2.19672 -1.5955 0
M  V30 1180 C 106.169 0.51515 -3.56194 0
M  V30 1181 C 105.777 -0.728645 -4.42035 0
M  V30 1182 C 107.521 1.07337 -4.10706 0
M  V30 1183 C 105.428 -0.445315 -5.89721 0
M  V30 1184 H 104.358 0.101205 -0.747177 0
M  V30 1185 H 107.009 -0.452866 -1.77824 0
M  V30 1186 H 105.391 1.28932 -3.74423 0
M  V30 1187 H 106.565 -1.50352 -4.35581 0
M  V30 1188 H 104.88 -1.20813 -3.98489 0
M  V30 1189 H 107.477 1.30022 -5.18651 0
M  V30 1190 H 107.82 2.0273 -3.63602 0
M  V30 1191 H 108.353 0.360034 -3.96167 0
M  V30 1192 H 105.092 -1.36883 -6.41049 0
M  V30 1193 H 104.612 0.291569 -5.99091 0
M  V30 1194 H 106.291 -0.0606218 -6.46972 0
M  V30 1195 N 106.423 1.57458 -0.0668435 0
M  V30 1196 C 107.371 2.13639 0.919851 0
M  V30 1197 C 108.365 1.07204 1.31163 0
M  V30 1198 O 109.571 1.25591 1.28945 0
M  V30 1199 H 105.946 0.683048 0.314562 0
M  V30 1200 H 107.917 2.95415 0.421047 0
M  V30 1201 C 106.666 2.70892 2.17975 0
M  V30 1202 H 105.989 3.5246 1.88711 0
M  V30 1203 H 107.429 3.13803 2.85138 0
M  V30 1204 C 105.888 1.65414 2.93496 0
M  V30 1205 O 106.418 1.07619 3.87015 0
M  V30 1206 N 104.624 1.36564 2.56512 0
M  V30 1207 H 104.171 1.83751 1.80536 0
M  V30 1208 H 104.129 0.66223 3.07347 0
M  V30 1209 N 107.901 -0.206675 1.56239 0
M  V30 1210 C 108.831 -1.25909 1.96645 0
M  V30 1211 C 109.812 -1.48097 0.836734 0
M  V30 1212 O 110.997 -1.6003 1.10019 0
M  V30 1213 C 108.127 -2.6058 2.29599 0
M  V30 1214 C 107.081 -2.53024 3.452 0
M  V30 1215 C 106.407 -3.91861 3.63798 0
M  V30 1216 C 107.707 -2.06524 4.79734 0
M  V30 1217 H 109.401 -0.923369 2.84806 0
M  V30 1218 H 106.947 -0.442735 1.37025 0
M  V30 1219 H 108.9 -3.34375 2.56459 0
M  V30 1220 H 107.624 -2.95869 1.38307 0
M  V30 1221 H 106.283 -1.81684 3.18412 0
M  V30 1222 H 105.931 -4.24483 2.69857 0
M  V30 1223 H 105.631 -3.87683 4.4156 0
M  V30 1224 H 107.155 -4.67296 3.93022 0
M  V30 1225 H 108.569 -2.70072 5.05702 0
M  V30 1226 H 106.966 -2.13374 5.60885 0
M  V30 1227 H 108.036 -1.01802 4.74093 0
M  V30 1228 N 109.379 -1.50304 -0.473955 0
M  V30 1229 C 110.625 -1.61389 -1.22806 0
M  V30 1230 C 110.958 -0.311955 -1.91678 0
M  V30 1231 O 110.233 0.686384 -1.81986 0
M  V30 1232 C 110.516 -2.79219 -2.27396 0
M  V30 1233 C 110.369 -4.19286 -1.62848 0
M  V30 1234 C 111.688 -2.92614 -3.28732 0
M  V30 1235 H 108.807 -0.587399 -0.445119 0
M  V30 1236 H 111.449 -1.82681 -0.522265 0
M  V30 1237 H 109.599 -2.61195 -2.87592 0
M  V30 1238 H 111.271 -4.48892 -1.06271 0
M  V30 1239 H 109.514 -4.23677 -0.931693 0
M  V30 1240 H 110.185 -4.97655 -2.38838 0
M  V30 1241 H 112.661 -3.09105 -2.78556 0
M  V30 1242 H 111.537 -3.76688 -3.99246 0
M  V30 1243 H 111.798 -2.03107 -3.92683 0
M  V30 1244 N 110.857 0.726932 -1.39834 0
M  V30 1245 C 111.787 1.85405 -1.41941 0
M  V30 1246 C 112.768 1.67751 -0.281728 0
M  V30 1247 O 113.953 1.8795 -0.488717 0
M  V30 1248 C 111.083 3.23243 -1.2701 0
M  V30 1249 C 110.037 3.55549 -2.38262 0
M  V30 1250 C 109.363 4.9241 -2.08415 0
M  V30 1251 C 110.663 3.577 -3.80589 0
M  V30 1252 H 112.357 1.83899 -2.36266 0
M  V30 1253 H 109.903 0.883349 -1.13723 0
M  V30 1254 H 111.856 4.01775 -1.27103 0
M  V30 1255 H 110.58 3.25296 -0.291564 0
M  V30 1256 H 109.239 2.79351 -2.37399 0
M  V30 1257 H 108.887 4.91052 -1.0898 0
M  V30 1258 H 108.587 5.14992 -2.82943 0
M  V30 1259 H 110.111 5.73289 -2.10171 0
M  V30 1260 H 111.525 4.26293 -3.83337 0
M  V30 1261 H 109.922 3.91804 -4.54543 0
M  V30 1262 H 110.992 2.57328 -4.10987 0
M  V30 1263 N 112.336 1.25143 0.95797 0
M  V30 1264 C 113.561 1.12521 1.74223 0
M  V30 1265 C 113.986 -0.317402 1.85403 0
M  V30 1266 O 113.344 -1.2299 1.33204 0
M  V30 1267 C 113.392 1.78062 3.1357 0
M  V30 1268 O 112.496 1.058 3.98598 0
M  V30 1269 H 111.837 0.39304 0.535178 0
M  V30 1270 H 114.367 1.65641 1.201 0
M  V30 1271 H 114.377 1.84213 3.64046 0
M  V30 1272 H 113.052 2.83021 3.04749 0
M  V30 1273 H 111.629 1.07506 3.57067 0
M  V30 1274 N 113.814 -1.1601 1.06675 0
M  V30 1275 C 115.23 -1.38622 0.790948 0
M  V30 1276 C 115.43 -1.92109 -0.607965 0
M  V30 1277 O 114.486 -2.12239 -1.36787 0
M  V30 1278 C 115.799 -2.36347 1.85905 0
M  V30 1279 C 117.347 -2.50023 1.88301 0
M  V30 1280 C 117.822 -3.51033 2.94176 0
M  V30 1281 N 119.313 -3.58563 2.93235 0
M  V30 1282 C 120.048 -4.36521 3.71803 0
M  V30 1283 N 119.544 -5.17869 4.602 0
M  V30 1284 N 121.337 -4.31541 3.60178 0
M  V30 1285 H 113.488 -0.796294 1.96908 0
M  V30 1286 H 115.751 -0.412597 0.853503 0
M  V30 1287 H 115.457 -2.04147 2.86386 0
M  V30 1288 H 115.331 -3.36042 1.71334 0
M  V30 1289 H 117.718 -2.81524 0.884769 0
M  V30 1290 H 117.799 -1.5035 2.06951 0
M  V30 1291 H 117.443 -3.20268 3.94196 0
M  V30 1292 H 117.373 -4.50445 2.72776 0
M  V30 1293 H 119.864 -3.00496 2.29152 0
M  V30 1294 H 120.177 -5.74578 5.16797 0
M  V30 1295 H 118.522 -5.17199 4.64253 0
M  V30 1296 H 121.713 -3.67051 2.90502 0
M  V30 1297 H 121.886 -4.9205 4.21653 0
M  V30 1298 N 115.292 -0.849877 -1.32721 0
M  V30 1299 C 116.202 -0.293791 -2.32753 0
M  V30 1300 C 117.218 0.585906 -1.63839 0
M  V30 1301 O 118.394 0.487413 -1.95413 0
M  V30 1302 C 115.459 0.512752 -3.42887 0
M  V30 1303 C 114.52 -0.39252 -4.27502 0
M  V30 1304 C 113.753 0.375625 -5.32377 0
M  V30 1305 O 113.976 1.60613 -5.4732 0
M  V30 1306 O 112.91 -0.256094 -6.01355 0
M  V30 1307 H 116.736 -1.12242 -2.82197 0
M  V30 1308 H 114.321 -0.612685 -1.36259 0
M  V30 1309 H 116.203 0.970704 -4.10067 0
M  V30 1310 H 114.878 1.31826 -2.95641 0
M  V30 1311 H 113.785 -0.898547 -3.63149 0
M  V30 1312 H 115.118 -1.16309 -4.7826 0
M  V30 1313 N 116.77 1.45427 -0.607355 0
M  V30 1314 C 117.7 2.3329 0.0989352 0
M  V30 1315 C 118.681 1.46816 0.859007 0
M  V30 1316 O 119.866 1.75588 0.829604 0
M  V30 1317 C 116.996 3.29518 1.09705 0
M  V30 1318 C 115.95 4.25626 0.450206 0
M  V30 1319 C 115.276 5.11542 1.55655 0
M  V30 1320 C 116.576 5.18505 -0.628455 0
M  V30 1321 H 118.27 2.92595 -0.634716 0
M  V30 1322 H 115.816 1.40696 -0.306681 0
M  V30 1323 H 117.769 3.89855 1.59971 0
M  V30 1324 H 116.493 2.68372 1.86129 0
M  V30 1325 H 115.152 3.66586 -0.0315886 0
M  V30 1326 H 114.8 4.46765 2.31107 0
M  V30 1327 H 114.5 5.76647 1.12925 0
M  V30 1328 H 116.024 5.74748 2.06148 0
M  V30 1329 H 117.438 5.72916 -0.209877 0
M  V30 1330 H 115.835 5.92085 -0.977489 0
M  V30 1331 H 116.905 4.60948 -1.50514 0
M  V30 1332 N 118.248 0.346503 1.53744 0
M  V30 1333 C 119.195 -0.508914 2.25119 0
M  V30 1334 C 120.165 -1.09315 1.25058 0
M  V30 1335 O 121.35 -1.12921 1.53797 0
M  V30 1336 C 118.49 -1.65246 3.02965 0
M  V30 1337 C 117.603 -1.09525 4.17886 0
M  V30 1338 C 116.738 -2.20634 4.83212 0
M  V30 1339 C 115.777 -1.62279 5.90196 0
M  V30 1340 N 114.914 -2.67143 6.49291 0
M  V30 1341 H 119.754 0.106283 2.9781 0
M  V30 1342 H 117.291 0.0642227 1.4696 0
M  V30 1343 H 119.249 -2.32574 3.4636 0
M  V30 1344 H 117.879 -2.2386 2.32565 0
M  V30 1345 H 116.931 -0.312818 3.79112 0
M  V30 1346 H 118.243 -0.628444 4.94825 0
M  V30 1347 H 117.397 -2.95821 5.29693 0
M  V30 1348 H 116.136 -2.70659 4.05703 0
M  V30 1349 H 115.141 -0.855989 5.43096 0
M  V30 1350 H 116.366 -1.13102 6.69615 0
M  V30 1351 H 114.312 -3.16417 5.74645 0
M  V30 1352 H 114.229 -2.25093 7.21713 0
M  V30 1353 H 115.497 -3.4209 7.00425 0
M  V30 1354 N 119.726 -1.57421 0.075193 0
M  V30 1355 C 120.636 -2.1642 -0.905511 0
M  V30 1356 C 121.652 -1.12828 -1.32461 0
M  V30 1357 O 122.828 -1.45109 -1.39661 0
M  V30 1358 C 119.893 -2.71693 -2.15369 0
M  V30 1359 C 118.954 -3.90171 -1.79068 0
M  V30 1360 C 118.187 -4.42798 -2.97936 0
M  V30 1361 O 118.41 -3.94416 -4.12058 0
M  V30 1362 O 117.344 -5.34085 -2.77555 0
M  V30 1363 H 121.17 -3.00588 -0.433626 0
M  V30 1364 H 118.755 -1.48664 -0.148067 0
M  V30 1365 H 120.637 -3.07104 -2.88557 0
M  V30 1366 H 119.312 -1.90582 -2.61649 0
M  V30 1367 H 118.219 -3.59606 -1.03122 0
M  V30 1368 H 119.552 -4.72584 -1.37569 0
M  V30 1369 N 121.204 0.198386 -1.56346 0
M  V30 1370 C 122.615 0.763358 -1.70381 0
M  V30 1371 C 122.966 1.83995 -0.681203 0
M  V30 1372 O 122.091 2.15785 0.16305 0
M  V30 1373 C 122.686 1.39143 -3.08909 0
M  V30 1374 C 121.245 1.90352 -3.2472 0
M  V30 1375 C 120.392 0.772233 -2.6633 0
M  V30 1376 H 123.343 -0.0266377 -1.58678 0
M  V30 1377 H 123.364 2.26076 -3.06055 0
M  V30 1378 H 122.876 0.607638 -3.83314 0
M  V30 1379 H 120.977 2.71461 -2.55225 0
M  V30 1380 H 121.09 2.06757 -4.3219 0
M  V30 1381 H 119.454 1.18566 -2.2542 0
M  V30 1382 H 120.237 0.00073556 -3.433 0
M  V30 1383 N 122.682 1.50554 0.465978 0
M  V30 1384 C 124.093 1.54599 1.04671 0
M  V30 1385 C 124.444 0.352488 1.93008 0
M  V30 1386 O 123.569 -0.534044 2.09707 0
M  V30 1387 C 124.164 2.80166 1.90505 0
M  V30 1388 C 122.723 2.86876 2.43678 0
M  V30 1389 C 121.87 2.48947 1.22151 0
M  V30 1390 H 124.821 1.56744 0.248384 0
M  V30 1391 H 124.842 2.62311 2.75633 0
M  V30 1392 H 124.354 3.67013 1.26186 0
M  V30 1393 H 122.455 2.04393 3.11536 0
M  V30 1394 H 122.568 3.89885 2.78436 0
M  V30 1395 H 120.932 2.01498 1.5579 0
M  V30 1396 H 121.715 3.38107 0.594866 0
M  V30 1397 N 124.16 -0.719506 1.40217 0
M  V30 1398 C 125.092 -1.84428 1.36084 0
M  V30 1399 C 126.105 -1.60597 0.266913 0
M  V30 1400 O 127.294 -1.70544 0.526983 0
M  V30 1401 C 124.394 -3.20757 1.094 0
M  V30 1402 C 123.567 -3.71817 2.30372 0
M  V30 1403 C 122.626 -4.86748 1.99907 0
M  V30 1404 O 121.652 -4.99603 2.72737 0
M  V30 1405 N 122.854 -5.7226 0.974635 0
M  V30 1406 H 125.619 -1.88473 2.33019 0
M  V30 1407 H 123.18 -0.900885 1.3452 0
M  V30 1408 H 125.172 -3.95235 0.870116 0
M  V30 1409 H 123.742 -3.11884 0.211452 0
M  V30 1410 H 122.962 -2.88514 2.68614 0
M  V30 1411 H 124.25 -4.02666 3.11026 0
M  V30 1412 H 123.648 -5.6448 0.371368 0
M  V30 1413 H 122.205 -6.46739 0.810656 0
M  V30 1414 N 125.638 -1.25649 -0.95132 0
M  V30 1415 C 126.886 -1.10375 -1.69298 0
M  V30 1416 C 127.207 0.355339 -1.91735 0
M  V30 1417 O 126.477 1.25188 -1.50681 0
M  V30 1418 H 125.057 -0.405461 -0.627384 0
M  V30 1419 H 127.719 -1.57823 -1.14358 0
M  V30 1420 H 126.815 -1.61465 -2.67087 0
M  V30 1421 N 127.117 1.15442 -1.07289 0
M  V30 1422 C 128.08 2.18358 -0.696591 0
M  V30 1423 C 129.08 1.58637 0.262837 0
M  V30 1424 O 130.27 1.74145 0.0438809 0
M  V30 1425 C 127.402 3.4089 -0.0266151 0
M  V30 1426 H 128.595 2.53162 -1.60776 0
M  V30 1427 H 126.148 1.29893 -0.869342 0
M  V30 1428 H 126.883 3.11653 0.896822 0
M  V30 1429 H 126.668 3.85495 -0.716657 0
M  V30 1430 H 128.158 4.17009 0.222028 0
M  V30 1431 N 128.595 0.856903 1.32268 0
M  V30 1432 C 129.545 0.274899 2.26337 0
M  V30 1433 C 130.529 -0.580543 1.50062 0
M  V30 1434 O 131.721 -0.429559 1.71708 0
M  V30 1435 C 128.85 -0.533841 3.39124 0
M  V30 1436 C 127.936 0.334114 4.22782 0
M  V30 1437 N 128.327 1.42143 4.85416 0
M  V30 1438 C 126.625 0.124256 4.45827 0
M  V30 1439 C 127.326 1.95559 5.47843 0
M  V30 1440 N 126.302 1.25444 5.28928 0
M  V30 1441 H 130.104 1.10612 2.72291 0
M  V30 1442 H 127.618 0.703258 1.46383 0
M  V30 1443 H 129.615 -0.96722 4.05525 0
M  V30 1444 H 128.275 -1.36283 2.94715 0
M  V30 1445 H 129.286 1.80436 4.85451 0
M  V30 1446 H 125.963 -0.669837 4.12092 0
M  V30 1447 H 127.353 2.86714 6.07655 0
M  V30 1448 N 130.073 -1.45103 0.615059 0
M  V30 1449 C 131.32 -2.02183 0.113179 0
M  V30 1450 C 131.648 -1.48249 -1.25906 0
M  V30 1451 O 130.903 -0.650265 -1.84581 0
M  V30 1452 C 131.202 -3.57386 0.0318797 0
M  V30 1453 C 130.868 -4.30505 1.34077 0
M  V30 1454 C 129.53 -4.50197 1.69929 0
M  V30 1455 C 131.882 -4.72238 2.20546 0
M  V30 1456 C 129.21 -5.08881 2.91988 0
M  V30 1457 C 131.562 -5.32272 3.41861 0
M  V30 1458 C 130.226 -5.50187 3.77956 0
M  V30 1459 H 129.496 -0.739842 0.0414151 0
M  V30 1460 H 132.143 -1.74073 0.798168 0
M  V30 1461 H 130.448 -3.84817 -0.736409 0
M  V30 1462 H 132.145 -3.99264 -0.372712 0
M  V30 1463 H 128.735 -4.15496 1.05173 0
M  V30 1464 H 132.919 -4.56751 1.94146 0
M  V30 1465 H 128.175 -5.20939 3.2005 0
M  V30 1466 H 132.349 -5.63563 4.09109 0
M  V30 1467 H 129.976 -5.95427 4.72622 0
M  V30 1468 N 131.551 -0.354651 -1.53558 0
M  V30 1469 C 132.481 0.489091 -2.2832 0
M  V30 1470 C 133.462 1.09324 -1.30316 0
M  V30 1471 O 134.647 1.11255 -1.59173 0
M  V30 1472 C 131.777 1.63456 -3.0643 0
M  V30 1473 C 130.731 1.1582 -4.12031 0
M  V30 1474 C 130.057 2.39305 -4.7816 0
M  V30 1475 C 131.357 0.250731 -5.21698 0
M  V30 1476 H 133.051 -0.134614 -2.99097 0
M  V30 1477 H 130.597 -0.0661826 -1.43848 0
M  V30 1478 H 132.55 2.23136 -3.57475 0
M  V30 1479 H 131.274 2.28533 -2.33325 0
M  V30 1480 H 129.933 0.584146 -3.61916 0
M  V30 1481 H 129.581 3.02814 -4.01637 0
M  V30 1482 H 129.281 2.08109 -5.49513 0
M  V30 1483 H 130.805 2.99691 -5.31994 0
M  V30 1484 H 132.219 0.754695 -5.68311 0
M  V30 1485 H 130.616 0.0301468 -6.00092 0
M  V30 1486 H 131.686 -0.710125 -4.79672 0
M  V30 1487 N 133.029 1.57378 -0.0835403 0
M  V30 1488 C 133.992 2.12252 0.864959 0
M  V30 1489 C 134.992 1.04916 1.21858 0
M  V30 1490 O 136.182 1.30853 1.14991 0
M  V30 1491 C 133.314 2.63358 2.16461 0
M  V30 1492 H 134.507 2.97371 0.388676 0
M  V30 1493 H 132.06 1.55423 0.165317 0
M  V30 1494 H 132.795 1.81727 2.686 0
M  V30 1495 H 132.58 3.41826 1.92087 0
M  V30 1496 H 134.07 3.05847 2.84337 0
M  V30 1497 N 134.507 -0.190092 1.56449 0
M  V30 1498 C 135.923 -0.54113 1.50146 0
M  V30 1499 C 136.123 -1.85603 0.784465 0
M  V30 1500 O 135.179 -2.5024 0.337051 0
M  V30 1501 C 136.492 -0.591241 2.9483 0
M  V30 1502 C 138.04 -0.679732 3.0553 0
M  V30 1503 C 138.515 -0.760908 4.51635 0
M  V30 1504 N 140.006 -0.824302 4.55806 0
M  V30 1505 C 140.741 -0.907365 5.66175 0
M  V30 1506 N 140.237 -0.952422 6.86222 0
M  V30 1507 N 142.03 -0.94494 5.541 0
M  V30 1508 H 134.181 0.67235 2.01478 0
M  V30 1509 H 136.444 0.240127 0.917084 0
M  V30 1510 H 136.15 0.305905 3.50367 0
M  V30 1511 H 136.024 -1.44422 3.48457 0
M  V30 1512 H 138.411 -1.56731 2.50039 0
M  V30 1513 H 138.492 0.199549 2.5502 0
M  V30 1514 H 138.136 0.122336 5.07753 0
M  V30 1515 H 138.066 -1.65606 4.99882 0
M  V30 1516 H 140.557 -0.798526 3.69367 0
M  V30 1517 H 140.87 -1.01645 7.66086 0
M  V30 1518 H 139.215 -0.921014 6.8887 0
M  V30 1519 H 142.406 -0.906612 4.59236 0
M  V30 1520 H 142.579 -1.00622 6.4014 0
M  V30 1521 N 135.985 -1.50799 -0.457987 0
M  V30 1522 C 137.21 -1.66496 -1.23668 0
M  V30 1523 C 137.635 -0.353288 -1.84752 0
M  V30 1524 O 136.993 0.684346 -1.67888 0
M  V30 1525 C 137.041 -2.76763 -2.3116 0
M  V30 1526 O 136.145 -2.38928 -3.36136 0
M  V30 1527 H 135.486 -0.555828 -0.363252 0
M  V30 1528 H 138.016 -1.9725 -0.543474 0
M  V30 1529 H 138.026 -3.00232 -2.76269 0
M  V30 1530 H 136.701 -3.71954 -1.86073 0
M  V30 1531 H 135.278 -2.25953 -2.96647 0
M  V30 1532 N 137.463 0.71206 -1.40597 0
M  V30 1533 C 138.393 1.83889 -1.43899 0
M  V30 1534 C 139.374 1.67442 -0.299504 0
M  V30 1535 O 140.559 1.87421 -0.508624 0
M  V30 1536 C 137.689 3.21877 -1.30431 0
M  V30 1537 C 136.643 3.53002 -2.42019 0
M  V30 1538 C 135.969 4.90172 -2.13626 0
M  V30 1539 C 137.269 3.53643 -3.84362 0
M  V30 1540 H 138.963 1.81383 -2.38203 0
M  V30 1541 H 136.509 0.871237 -1.14654 0
M  V30 1542 H 138.462 4.00404 -1.31357 0
M  V30 1543 H 137.186 3.24968 -0.326049 0
M  V30 1544 H 135.845 2.76818 -2.40349 0
M  V30 1545 H 135.493 4.89869 -1.14182 0
M  V30 1546 H 135.193 5.11962 -2.88389 0
M  V30 1547 H 136.717 5.71028 -2.1624 0
M  V30 1548 H 138.131 4.22203 -3.87837 0
M  V30 1549 H 136.528 3.86961 -4.58673 0
M  V30 1550 H 137.598 2.52954 -4.13693 0
M  V30 1551 N 138.941 1.26152 0.944643 0
M  V30 1552 C 140.218 1.02247 1.66748 0
M  V30 1553 C 140.598 -0.448202 2.06287 0
M  V30 1554 O 139.946 -1.42779 1.78399 0
M  V30 1555 C 140.156 1.96788 2.88228 0
M  V30 1556 C 141.504 2.25201 3.59958 0
M  V30 1557 O 142.528 1.94626 2.98327 0
M  V30 1558 O 141.387 2.77242 4.70956 0
M  V30 1559 H 138.481 0.388517 0.730057 0
M  V30 1560 H 141.027 1.37348 0.99668 0
M  V30 1561 H 139.799 2.96047 2.55875 0
M  V30 1562 H 139.422 1.62145 3.63035 0
M  V30 1563 N 140.419 -1.14872 1.07899 0
M  V30 1564 C 141.696 -1.81928 0.71845 0
M  V30 1565 C 142.076 -1.95417 -0.798455 0
M  V30 1566 O 141.424 -1.50997 -1.715 0
M  V30 1567 C 141.634 -3.17937 1.43935 0
M  V30 1568 C 142.982 -3.93501 1.59506 0
M  V30 1569 O 144.006 -3.27509 1.40058 0
M  V30 1570 O 142.865 -5.1183 1.91551 0
M  V30 1571 H 139.959 -0.78628 0.256305 0
M  V30 1572 H 142.505 -1.21934 1.18026 0
M  V30 1573 H 141.277 -3.0325 2.47295 0
M  V30 1574 H 140.9 -3.85619 0.968687 0
M  V30 1575 N 141.898 -0.863906 -1.31812 0
M  V30 1576 C 142.861 -0.320212 -2.26952 0
M  V30 1577 C 143.861 0.525369 -1.51975 0
M  V30 1578 O 145.051 0.335547 -1.70938 0
M  V30 1579 C 142.183 0.545919 -3.365 0
M  V30 1580 H 143.376 -1.16004 -2.76556 0
M  V30 1581 H 140.929 -0.638995 -1.42641 0
M  V30 1582 H 141.664 1.40718 -2.92179 0
M  V30 1583 H 141.449 -0.0594674 -3.92055 0
M  V30 1584 H 142.939 0.918796 -4.07367 0
M  V30 1585 N 143.376 1.44774 -0.622745 0
M  V30 1586 C 144.306 2.33382 0.0741861 0
M  V30 1587 C 145.287 1.47719 0.843387 0
M  V30 1588 O 146.472 1.76458 0.810934 0
M  V30 1589 C 143.602 3.30663 1.06204 0
M  V30 1590 C 142.556 4.26079 0.405037 0
M  V30 1591 C 141.882 5.13165 1.5022 0
M  V30 1592 C 143.182 5.1781 -0.683414 0
M  V30 1593 H 144.876 2.91905 -0.665713 0
M  V30 1594 H 142.422 1.40363 -0.321587 0
M  V30 1595 H 144.375 3.9153 1.55827 0
M  V30 1596 H 143.099 2.70331 1.83272 0
M  V30 1597 H 141.758 3.66532 -0.0704683 0
M  V30 1598 H 141.406 4.49191 2.26355 0
M  V30 1599 H 141.106 5.77812 1.06803 0
M  V30 1600 H 142.63 5.76902 2.00041 0
M  V30 1601 H 144.044 5.72661 -0.270631 0
M  V30 1602 H 142.441 5.91015 -1.04023 0
M  V30 1603 H 143.511 4.59326 -1.55395 0
M  V30 1604 N 144.854 0.36279 1.53368 0
M  V30 1605 C 145.801 -0.485008 2.25646 0
M  V30 1606 C 146.771 -1.07982 1.2621 0
M  V30 1607 O 147.956 -1.11284 1.54986 0
M  V30 1608 C 145.096 -1.62023 3.04701 0
M  V30 1609 C 144.209 -1.05086 4.19024 0
M  V30 1610 C 143.344 -2.15496 4.85525 0
M  V30 1611 C 142.383 -1.5601 5.91884 0
M  V30 1612 N 141.52 -2.60241 6.52088 0
M  V30 1613 H 146.36 0.137864 2.97681 0
M  V30 1614 H 143.897 0.0798061 1.46883 0
M  V30 1615 H 145.855 -2.28887 3.48807 0
M  V30 1616 H 144.485 -2.2138 2.34927 0
M  V30 1617 H 143.537 -0.27259 3.79422 0
M  V30 1618 H 144.849 -0.575926 4.95464 0
M  V30 1619 H 144.003 -2.90186 5.32801 0
M  V30 1620 H 142.742 -2.66341 4.08551 0
M  V30 1621 H 141.747 -0.798338 5.43973 0
M  V30 1622 H 142.972 -1.05994 6.70777 0
M  V30 1623 H 140.918 -3.10304 5.77968 0
M  V30 1624 H 140.835 -2.17426 7.24059 0
M  V30 1625 H 142.103 -3.34641 7.04014 0
M  V30 1626 N 146.332 -1.57332 0.0918853 0
M  V30 1627 C 147.262 -2.16872 -0.865371 0
M  V30 1628 C 148.243 -1.10118 -1.29646 0
M  V30 1629 O 149.428 -1.38242 -1.36392 0
M  V30 1630 C 146.558 -2.74649 -2.12569 0
M  V30 1631 C 145.512 -3.86747 -1.83333 0
M  V30 1632 C 144.838 -4.31212 -3.16166 0
M  V30 1633 C 146.138 -5.10089 -1.1228 0
M  V30 1634 H 147.832 -2.97114 -0.369307 0
M  V30 1635 H 145.378 -1.42918 -0.176194 0
M  V30 1636 H 147.331 -3.14952 -2.7997 0
M  V30 1637 H 146.055 -1.91657 -2.64452 0
M  V30 1638 H 144.714 -3.46978 -1.18331 0
M  V30 1639 H 144.362 -3.45115 -3.6593 0
M  V30 1640 H 144.062 -5.06788 -2.97388 0
M  V30 1641 H 145.586 -4.74146 -3.84731 0
M  V30 1642 H 147 -5.47582 -1.69785 0
M  V30 1643 H 145.397 -5.91073 -1.03693 0
M  V30 1644 H 146.467 -4.84786 -0.105041 0
M  V30 1645 N 147.81 0.181792 -1.56548 0
M  V30 1646 C 149.038 0.915947 -1.85521 0
M  V30 1647 C 149.453 1.76282 -0.676016 0
M  V30 1648 O 148.81 1.79012 0.355077 0
M  V30 1649 C 148.861 1.80126 -3.13427 0
M  V30 1650 O 148.582 0.988562 -4.26801 0
M  V30 1651 C 150.083 2.64597 -3.55673 0
M  V30 1652 H 147.303 0.26661 -0.61576 0
M  V30 1653 H 149.847 0.185039 -2.03661 0
M  V30 1654 H 148.002 2.48563 -2.97145 0
M  V30 1655 H 148.416 1.59308 -4.99721 0
M  V30 1656 H 149.89 3.2235 -4.48101 0
M  V30 1657 H 150.367 3.38958 -2.79292 0
M  V30 1658 H 150.973 2.0151 -3.74532 0
M  V30 1659 N 149.288 1.51039 0.449983 0
M  V30 1660 C 150.198 1.74261 1.57067 0
M  V30 1661 C 151.214 0.626363 1.62335 0
M  V30 1662 O 152.39 0.907162 1.79812 0
M  V30 1663 C 149.455 1.85114 2.93144 0
M  V30 1664 C 148.516 3.0893 2.98095 0
M  V30 1665 C 147.749 3.19256 4.27681 0
M  V30 1666 O 147.972 2.35835 5.19363 0
M  V30 1667 O 146.906 4.12144 4.38658 0
M  V30 1668 H 150.732 2.69303 1.40391 0
M  V30 1669 H 148.317 1.35389 0.631688 0
M  V30 1670 H 150.199 1.94311 3.73926 0
M  V30 1671 H 148.874 0.932588 3.09975 0
M  V30 1672 H 147.781 3.0522 2.16314 0
M  V30 1673 H 149.114 4.00433 2.86206 0
M  V30 1674 N 150.766 -0.704594 1.40972 0
M  V30 1675 C 152.182 -1.01406 1.23244 0
M  V30 1676 C 152.382 -2.01169 0.115399 0
M  V30 1677 O 151.438 -2.47021 -0.523147 0
M  V30 1678 C 152.751 -1.54728 2.57836 0
M  V30 1679 C 154.299 -1.66658 2.64942 0
M  V30 1680 C 154.774 -2.23383 3.9983 0
M  V30 1681 N 156.265 -2.30756 4.01629 0
M  V30 1682 C 157 -2.75655 5.02794 0
M  V30 1683 N 156.496 -3.20225 6.14352 0
M  V30 1684 N 158.289 -2.75138 4.90159 0
M  V30 1685 H 150.44 -0.0435285 2.12355 0
M  V30 1686 H 152.703 -0.0818951 0.944456 0
M  V30 1687 H 152.409 -0.888832 3.40283 0
M  V30 1688 H 152.283 -2.53084 2.79693 0
M  V30 1689 H 154.67 -2.31617 1.8286 0
M  V30 1690 H 154.751 -0.668717 2.46904 0
M  V30 1691 H 154.395 -1.59043 4.82357 0
M  V30 1692 H 154.325 -3.23904 4.15203 0
M  V30 1693 H 156.816 -1.99291 3.21079 0
M  V30 1694 H 157.129 -3.53084 6.87424 0
M  V30 1695 H 155.474 -3.18156 6.17901 0
M  V30 1696 H 158.665 -2.39661 4.02095 0
M  V30 1697 H 158.838 -3.09812 5.6914 0
M  V30 1698 N 152.244 -1.26651 -0.937939 0
M  V30 1699 C 153.655 -1.1125 -1.49934 0
M  V30 1700 C 154.006 0.306077 -1.93798 0
M  V30 1701 O 153.131 1.19792 -1.80219 0
M  V30 1702 C 153.726 -2.01339 -2.72485 0
M  V30 1703 C 152.285 -1.90074 -3.24883 0
M  V30 1704 C 151.432 -1.94498 -1.97651 0
M  V30 1705 H 154.383 -1.39693 -0.753091 0
M  V30 1706 H 154.404 -1.56319 -3.46907 0
M  V30 1707 H 153.916 -3.04577 -2.40529 0
M  V30 1708 H 152.017 -0.897827 -3.61621 0
M  V30 1709 H 152.13 -2.75778 -3.9177 0
M  V30 1710 H 150.494 -1.38591 -2.13693 0
M  V30 1711 H 151.277 -2.99372 -1.68022 0
M  V30 1712 N 153.722 1.14298 -1.08507 0
M  V30 1713 C 154.632 2.23027 -0.727753 0
M  V30 1714 C 155.648 1.71952 0.26619 0
M  V30 1715 O 156.824 2.011 0.109882 0
M  V30 1716 C 153.889 3.46403 -0.143541 0
M  V30 1717 C 152.95 4.12413 -1.19223 0
M  V30 1718 C 152.183 5.29899 -0.635798 0
M  V30 1719 O 152.406 5.67796 0.544393 0
M  V30 1720 O 151.34 5.85717 -1.38634 0
M  V30 1721 H 155.166 2.55945 -1.63481 0
M  V30 1722 H 152.751 1.22248 -0.858817 0
M  V30 1723 H 154.633 4.21018 0.179404 0
M  V30 1724 H 153.308 3.15206 0.736659 0
M  V30 1725 H 152.215 3.39667 -1.56772 0
M  V30 1726 H 153.548 4.47718 -2.04474 0
M  V30 1727 N 155.201 0.870884 1.31352 0
M  V30 1728 C 156.131 0.343096 2.30966 0
M  V30 1729 C 157.112 -0.566507 1.60389 0
M  V30 1730 O 158.297 -0.483336 1.88089 0
M  V30 1731 C 155.427 -0.455487 3.443 0
M  V30 1732 C 154.381 0.361103 4.26474 0
M  V30 1733 C 153.707 -0.563221 5.31725 0
M  V30 1734 C 155.007 1.59566 4.97329 0
M  V30 1735 H 156.701 1.17548 2.75359 0
M  V30 1736 H 154.247 0.566686 1.32381 0
M  V30 1737 H 156.2 -0.83525 4.13039 0
M  V30 1738 H 154.924 -1.32139 2.98675 0
M  V30 1739 H 153.583 0.722825 3.59403 0
M  V30 1740 H 153.231 -1.42643 4.82351 0
M  V30 1741 H 152.931 -0.0207409 5.87596 0
M  V30 1742 H 154.455 -0.939808 6.03324 0
M  V30 1743 H 155.869 1.28728 5.58661 0
M  V30 1744 H 154.266 2.07728 5.63 0
M  V30 1745 H 155.336 2.34798 4.24262 0
M  V30 1746 N 156.679 -1.44442 0.630414 0
M  V30 1747 C 157.642 -2.29107 -0.0652523 0
M  V30 1748 C 158.642 -1.41002 -0.772995 0
M  V30 1749 O 159.832 -1.62881 -0.617692 0
M  V30 1750 C 156.964 -3.22564 -1.10296 0
M  V30 1751 H 158.157 -2.92103 0.679401 0
M  V30 1752 H 155.71 -1.51343 0.390517 0
M  V30 1753 H 156.445 -2.64416 -1.87762 0
M  V30 1754 H 156.23 -3.87491 -0.59941 0
M  V30 1755 H 157.72 -3.86167 -1.5895 0
M  V30 1756 N 158.157 -0.370918 -1.53173 0
M  V30 1757 C 159.105 0.488101 -2.27421 0
M  V30 1758 C 160.099 1.07884 -1.30604 0
M  V30 1759 O 161.305 1.02143 -1.48212 0
M  V30 1760 H 157.68 0.176134 -0.731082 0
M  V30 1761 H 159.651 -0.159815 -2.97972 0
M  V30 1762 C 158.4 1.61306 -3.08019 0
M  V30 1763 H 157.723 1.1678 -3.82364 0
M  V30 1764 H 159.163 2.18872 -3.63141 0
M  V30 1765 C 157.622 2.55848 -2.19188 0
M  V30 1766 O 158.152 3.58799 -1.80626 0
M  V30 1767 N 156.358 2.2516 -1.83715 0
M  V30 1768 H 155.905 1.41476 -2.15273 0
M  V30 1769 H 155.863 2.8867 -1.24567 0
M  V30 1770 N 159.635 1.57281 -0.100228 0
M  V30 1771 C 160.582 2.14305 0.856858 0
M  V30 1772 C 161.552 1.06296 1.27634 0
M  V30 1773 O 162.737 1.34109 1.35718 0
M  V30 1774 C 159.877 2.73184 2.10866 0
M  V30 1775 C 158.99 3.95442 1.73925 0
M  V30 1776 C 158.125 4.42468 2.93931 0
M  V30 1777 C 157.164 5.57303 2.5314 0
M  V30 1778 N 156.301 5.99158 3.65997 0
M  V30 1779 H 161.141 2.95772 0.363726 0
M  V30 1780 H 158.678 1.46139 0.167858 0
M  V30 1781 H 160.636 3.05442 2.84185 0
M  V30 1782 H 159.266 1.94437 2.57671 0
M  V30 1783 H 158.318 3.69464 0.905554 0
M  V30 1784 H 159.63 4.78769 1.39935 0
M  V30 1785 H 158.784 4.76537 3.75496 0
M  V30 1786 H 157.523 3.58052 3.31134 0
M  V30 1787 H 156.528 5.22857 1.70003 0
M  V30 1788 H 157.753 6.43471 2.17075 0
M  V30 1789 H 155.699 5.17687 4.02909 0
M  V30 1790 H 155.616 6.77295 3.35869 0
M  V30 1791 H 156.884 6.3786 4.48057 0
M  V30 1792 N 161.113 -0.173488 1.56642 0
M  V30 1793 C 162.359 -0.891784 1.8214 0
M  V30 1794 C 162.692 -1.8199 0.677736 0
M  V30 1795 O 161.967 -1.91842 -0.320446 0
M  V30 1796 C 162.25 -1.68933 3.18015 0
M  V30 1797 C 162.103 -0.784487 4.42906 0
M  V30 1798 C 163.422 -2.65748 3.50808 0
M  V30 1799 H 160.541 -0.322761 0.662567 0
M  V30 1800 H 163.183 -0.158095 1.89341 0
M  V30 1801 H 161.333 -2.31482 3.12007 0
M  V30 1802 H 163.005 -0.172046 4.60979 0
M  V30 1803 H 161.248 -0.0924117 4.33702 0
M  V30 1804 H 161.919 -1.37799 5.34524 0
M  V30 1805 H 164.395 -2.13327 3.57255 0
M  V30 1806 H 163.271 -3.18619 4.4696 0
M  V30 1807 H 163.532 -3.45842 2.75401 0
M  V30 1808 N 162.591 -1.51276 -0.441967 0
M  V30 1809 C 163.868 -1.54252 -1.20273 0
M  V30 1810 C 164.248 -0.30408 -2.08898 0
M  V30 1811 O 163.596 0.711084 -2.17154 0
M  V30 1812 C 163.806 -2.85406 -2.00859 0
M  V30 1813 C 165.154 -3.37181 -2.58059 0
M  V30 1814 O 166.178 -2.86925 -2.11074 0
M  V30 1815 O 165.037 -4.24858 -3.43741 0
M  V30 1816 H 162.131 -0.619969 -0.547328 0
M  V30 1817 H 164.677 -1.63586 -0.451413 0
M  V30 1818 H 163.449 -3.67003 -1.35736 0
M  V30 1819 H 163.072 -2.79213 -2.83065 0
M  V30 1820 N 164.069 0.697108 -1.41344 0
M  V30 1821 C 165.002 1.82134 -1.37486 0
M  V30 1822 C 165.98 1.60784 -0.242351 0
M  V30 1823 O 167.164 1.83553 -0.429012 0
M  V30 1824 C 164.291 3.18788 -1.14421 0
M  V30 1825 C 163.337 3.58932 -2.3037 0
M  V30 1826 S 164.17 3.63916 -3.92843 0
M  V30 1827 C 165.326 5.03298 -3.72078 0
M  V30 1828 H 165.559 1.85129 -2.32625 0
M  V30 1829 H 163.092 0.865671 -1.2785 0
M  V30 1830 H 165.05 3.97677 -1.018 0
M  V30 1831 H 163.711 3.13404 -0.20905 0
M  V30 1832 H 162.904 4.58202 -2.09922 0
M  V30 1833 H 162.506 2.87347 -2.39391 0
M  V30 1834 H 164.798 5.90753 -3.31688 0
M  V30 1835 H 165.741 5.28788 -4.70945 0
M  V30 1836 H 166.149 4.74764 -3.05384 0
M  V30 1837 N 165.547 1.27147 0.931209 0
M  V30 1838 C 166.796 1.12664 1.67302 0
M  V30 1839 C 167.109 -0.327718 1.92835 0
M  V30 1840 O 168.315 -0.593392 2.64936 0
M  V30 1841 C 166.771 1.9683 3.01307 0
M  V30 1842 C 166.379 3.46901 2.83485 0
M  V30 1843 C 168.123 1.90985 3.79111 0
M  V30 1844 C 166.03 4.23279 4.13024 0
M  V30 1845 H 164.96 0.41803 0.627509 0
M  V30 1846 H 167.611 1.51539 1.03481 0
M  V30 1847 H 165.993 1.50797 3.66164 0
M  V30 1848 H 167.167 4.00773 2.27415 0
M  V30 1849 H 165.482 3.54088 2.19113 0
M  V30 1850 H 168.079 2.45328 4.75098 0
M  V30 1851 H 168.422 0.882718 4.06834 0
M  V30 1852 H 168.955 2.34895 3.21044 0
M  V30 1853 H 165.694 5.26503 3.90481 0
M  V30 1854 H 165.214 3.74186 4.6877 0
M  V30 1855 H 166.893 4.32265 4.81411 0
M  V30 1856 N 167.025 -1.13721 1.09112 0
M  V30 1857 C 168.271 -1.85413 0.836283 0
M  V30 1858 C 168.626 -1.8175 -0.631249 0
M  V30 1859 O 167.919 -1.24238 -1.45861 0
M  V30 1860 C 168.113 -3.32861 1.30146 0
M  V30 1861 C 167.942 -3.50882 2.81268 0
M  V30 1862 C 166.712 -3.65312 3.49106 0
M  V30 1863 C 168.91 -3.47196 3.7942 0
M  V30 1864 N 166.892 -3.71563 4.88686 0
M  V30 1865 C 168.263 -3.59777 5.04936 0
M  V30 1866 C 170.318 -3.30577 3.72321 0
M  V30 1867 C 169.021 -3.57455 6.24194 0
M  V30 1868 C 171.047 -3.29562 4.91063 0
M  V30 1869 C 170.409 -3.42691 6.15421 0
M  V30 1870 H 166.508 -0.694812 0.358832 0
M  V30 1871 H 169.092 -1.36246 1.39087 0
M  V30 1872 H 167.263 -3.80602 0.774361 0
M  V30 1873 H 168.995 -3.92346 0.99229 0
M  V30 1874 H 165.75 -3.6685 2.9953 0
M  V30 1875 H 166.174 -3.78387 5.61384 0
M  V30 1876 H 170.816 -3.19332 2.77105 0
M  V30 1877 H 168.534 -3.67475 7.19714 0
M  V30 1878 H 172.12 -3.17905 4.87266 0
M  V30 1879 H 171 -3.41862 7.05762 0
M  V30 1880 N 168.503 -0.877838 -1.30888 0
M  V30 1881 C 169.752 -0.488793 -1.95688 0
M  V30 1882 C 170.065 0.965485 -1.70111 0
M  V30 1883 O 171.271 1.46104 -2.28836 0
M  V30 1884 C 169.727 -0.823201 -3.50359 0
M  V30 1885 C 169.335 -2.29477 -3.84765 0
M  V30 1886 C 171.079 -0.503009 -4.21509 0
M  V30 1887 C 168.986 -2.57118 -5.32583 0
M  V30 1888 H 167.916 -0.179062 -0.732429 0
M  V30 1889 H 170.567 -1.07183 -1.48943 0
M  V30 1890 H 168.949 -0.169331 -3.95638 0
M  V30 1891 H 170.123 -2.99236 -3.5042 0
M  V30 1892 H 168.438 -2.58178 -3.267 0
M  V30 1893 H 171.035 -0.68665 -5.30273 0
M  V30 1894 H 171.378 0.557109 -4.12555 0
M  V30 1895 H 171.911 -1.11376 -3.8189 0
M  V30 1896 H 168.65 -3.61843 -5.4658 0
M  V30 1897 H 168.17 -1.91961 -5.68253 0
M  V30 1898 H 169.849 -2.42251 -5.99936 0
M  V30 1899 N 169.982 1.44106 -0.638065 0
M  V30 1900 C 171.228 2.02277 -0.145546 0
M  V30 1901 C 171.561 1.50125 1.23191 0
M  V30 1902 O 170.836 0.688133 1.8192 0
M  V30 1903 C 171.119 3.59829 -0.139791 0
M  V30 1904 C 170.972 4.22247 -1.55008 0
M  V30 1905 C 172.291 4.36873 0.531966 0
M  V30 1906 H 169.41 0.734992 -0.0543632 0
M  V30 1907 H 172.052 1.71592 -0.815863 0
M  V30 1908 H 170.202 3.86102 0.431007 0
M  V30 1909 H 171.874 4.07057 -2.1703 0
M  V30 1910 H 170.117 3.79476 -2.10191 0
M  V30 1911 H 170.788 5.31284 -1.49804 0
M  V30 1912 H 173.264 4.16074 0.0464781 0
M  V30 1913 H 172.14 5.4657 0.505206 0
M  V30 1914 H 172.401 4.11995 1.60352 0
M  V30 1915 N 171.46 0.379036 1.52974 0
M  V30 1916 C 172.708 -0.206014 2.01047 0
M  V30 1917 C 173.029 -1.48175 1.26765 0
M  V30 1918 O 172.299 -1.92085 0.384743 0
M  V30 1919 H 170.879 -0.0791184 0.742798 0
M  V30 1920 H 173.541 0.508366 1.88153 0
M  V30 1921 H 172.637 -0.423501 3.09213 0
M  V30 1922 N 172.938 -1.57226 0.108567 0
M  V30 1923 C 174.186 -1.94448 -0.550853 0
M  V30 1924 C 174.507 -0.992074 -1.67878 0
M  V30 1925 O 173.777 -0.0465 -1.95845 0
M  V30 1926 H 172.357 -0.717897 -0.206479 0
M  V30 1927 H 175.019 -1.94112 0.175062 0
M  V30 1928 H 174.115 -2.97218 -0.952259 0
M  V30 1929 N 174.416 0.165178 -1.56732 0
M  V30 1930 C 175.641 0.900253 -1.86843 0
M  V30 1931 C 176.066 1.74766 -0.695596 0
M  V30 1932 O 175.424 1.77786 0.35522 0
M  V30 1933 C 175.472 1.74777 -3.15413 0
M  V30 1934 O 174.576 2.85007 -2.98068 0
M  V30 1935 H 173.917 0.251832 -0.614391 0
M  V30 1936 H 176.447 0.161468 -2.03962 0
M  V30 1937 H 176.457 2.14646 -3.46974 0
M  V30 1938 H 175.132 1.12537 -4.00385 0
M  V30 1939 H 173.709 2.48676 -2.77875 0
M  V30 1940 N 175.894 1.51508 0.433938 0
M  V30 1941 C 177.119 1.68443 1.21003 0
M  V30 1942 C 177.544 0.382636 1.84167 0
M  V30 1943 O 176.902 -0.65755 1.68956 0
M  V30 1944 C 176.95 2.80405 2.26727 0
M  V30 1945 O 176.054 2.44245 3.32292 0
M  V30 1946 H 175.395 0.561536 0.354363 0
M  V30 1947 H 177.925 1.9809 0.512024 0
M  V30 1948 H 177.935 3.0459 2.71457 0
M  V30 1949 H 176.61 3.74867 1.80132 0
M  V30 1950 H 175.187 2.30644 2.93015 0
M  V30 1951 N 177.372 -0.689602 1.41712 0
M  V30 1952 C 178.618 -1.45181 1.41599 0
M  V30 1953 C 178.951 -1.94181 0.0270081 0
M  V30 1954 O 178.226 -1.6993 -0.946265 0
M  V30 1955 C 178.509 -2.65945 2.42787 0
M  V30 1956 C 178.362 -2.22672 3.90816 0
M  V30 1957 C 179.681 -3.68149 2.41151 0
M  V30 1958 H 176.8 -0.526576 0.515642 0
M  V30 1959 H 179.442 -0.784947 1.73028 0
M  V30 1960 H 177.592 -3.2284 2.16116 0
M  V30 1961 H 179.264 -1.71058 4.28412 0
M  V30 1962 H 177.507 -1.54394 4.05395 0
M  V30 1963 H 178.178 -3.0935 4.57172 0
M  V30 1964 H 180.654 -3.2094 2.64834 0
M  V30 1965 H 179.53 -4.50248 3.13955 0
M  V30 1966 H 179.791 -4.18259 1.43221 0
M  V30 1967 N 178.85 -1.27639 -0.924453 0
M  V30 1968 C 180.08 -1.16819 -1.70402 0
M  V30 1969 C 180.488 0.277191 -1.87158 0
M  V30 1970 O 179.831 1.20025 -1.39067 0
M  V30 1971 C 179.893 -1.78305 -3.12166 0
M  V30 1972 C 179.557 -3.27502 -3.18734 0
M  V30 1973 C 180.554 -4.2409 -3.00738 0
M  V30 1974 C 178.239 -3.68269 -3.4159 0
M  V30 1975 C 180.233 -5.59422 -3.05492 0
M  V30 1976 C 177.92 -5.0373 -3.45977 0
M  V30 1977 C 178.918 -5.99116 -3.27946 0
M  V30 1978 O 178.606 -7.32108 -3.32074 0
M  V30 1979 H 178.338 -0.406931 -0.539799 0
M  V30 1980 H 180.892 -1.69078 -1.16626 0
M  V30 1981 H 179.122 -1.20528 -3.67437 0
M  V30 1982 H 180.811 -1.62154 -3.72103 0
M  V30 1983 H 181.577 -3.93931 -2.82919 0
M  V30 1984 H 177.456 -2.94496 -3.54673 0
M  V30 1985 H 181 -6.33852 -2.91337 0
M  V30 1986 H 176.897 -5.33543 -3.63321 0
M  V30 1987 H 177.665 -7.40598 -3.48507 0
M  V30 1988 N 180.328 1.1314 -1.09713 0
M  V30 1989 C 181.275 2.18642 -0.739196 0
M  V30 1990 C 182.245 1.63706 0.280978 0
M  V30 1991 O 183.43 1.90111 0.161946 0
M  V30 1992 C 180.57 3.44685 -0.169102 0
M  V30 1993 C 179.683 4.13711 -1.24367 0
M  V30 1994 C 178.818 5.27379 -0.636019 0
M  V30 1995 C 177.857 5.88259 -1.69169 0
M  V30 1996 N 176.994 6.93352 -1.10485 0
M  V30 1997 H 181.834 2.48607 -1.64312 0
M  V30 1998 H 179.371 1.22066 -0.820875 0
M  V30 1999 H 181.329 4.16815 0.179256 0
M  V30 2000 H 179.959 3.15161 0.698079 0
M  V30 2001 H 179.011 3.39835 -1.70927 0
M  V30 2002 H 180.323 4.55037 -2.04311 0
M  V30 2003 H 179.477 6.06238 -0.236677 0
M  V30 2004 H 178.216 4.8731 0.194928 0
M  V30 2005 H 177.221 5.08092 -2.10055 0
M  V30 2006 H 178.446 6.30399 -2.52536 0
M  V30 2007 H 176.392 6.55335 -0.295234 0
M  V30 2008 H 176.309 7.33236 -1.84121 0
M  V30 2009 H 177.577 7.76057 -0.73181 0
M  V30 2010 N 181.806 0.884767 1.30421 0
M  V30 2011 C 182.716 0.355398 2.31892 0
M  V30 2012 C 183.732 -0.542261 1.65335 0
M  V30 2013 O 184.908 -0.435432 1.96637 0
M  V30 2014 C 181.973 -0.421661 3.44126 0
M  V30 2015 C 181.034 0.505727 4.26311 0
M  V30 2016 C 180.267 -0.234343 5.33185 0
M  V30 2017 O 180.49 -1.46045 5.51386 0
M  V30 2018 O 179.424 0.415443 6.00465 0
M  V30 2019 H 183.25 1.19685 2.79122 0
M  V30 2020 H 180.835 0.648596 1.34587 0
M  V30 2021 H 182.717 -0.861641 4.12497 0
M  V30 2022 H 181.392 -1.23942 2.99032 0
M  V30 2023 H 180.299 0.994513 3.60639 0
M  V30 2024 H 181.632 1.28948 4.75009 0
M  V30 2025 N 183.284 -1.43765 0.645699 0
M  V30 2026 C 184.247 -2.29163 -0.0409488 0
M  V30 2027 C 185.247 -1.41813 -0.757996 0
M  V30 2028 O 186.437 -1.63527 -0.600382 0
M  V30 2029 C 183.569 -3.23716 -1.06869 0
M  V30 2030 H 184.762 -2.91366 0.710345 0
M  V30 2031 H 182.315 -1.5092 0.406547 0
M  V30 2032 H 183.05 -2.66393 -1.84947 0
M  V30 2033 H 182.835 -3.88105 -0.558277 0
M  V30 2034 H 184.325 -3.87831 -1.54845 0
M  V30 2035 N 184.763 -0.387143 -1.52771 0
M  V30 2036 C 185.696 0.493123 -2.22808 0
M  V30 2037 C 186.674 1.0658 -1.22798 0
M  V30 2038 O 187.858 1.11785 -1.51777 0
M  V30 2039 C 184.985 1.68238 -2.93962 0
M  V30 2040 C 184.031 1.23515 -4.08223 0
M  V30 2041 S 184.864 0.21848 -5.35054 0
M  V30 2042 C 186.02 1.41357 -6.09729 0
M  V30 2043 H 186.253 -0.101625 -2.97126 0
M  V30 2044 H 183.786 -0.171323 -1.53447 0
M  V30 2045 H 185.744 2.36443 -3.35567 0
M  V30 2046 H 184.405 2.24842 -2.19328 0
M  V30 2047 H 183.598 2.12304 -4.57103 0
M  V30 2048 H 183.2 0.632044 -3.68621 0
M  V30 2049 H 185.492 2.34101 -6.3577 0
M  V30 2050 H 186.435 0.965736 -7.01484 0
M  V30 2051 H 186.843 1.6294 -5.40473 0
M  V30 2052 N 186.241 1.57166 -0.116904 0
M  V30 2053 C 187.189 2.16457 0.851418 0
M  V30 2054 C 188.183 1.11323 1.27686 0
M  V30 2055 O 189.389 1.2963 1.24884 0
M  V30 2056 H 185.764 0.69271 0.292672 0
M  V30 2057 H 187.735 2.96605 0.32685 0
M  V30 2058 C 186.484 2.77689 2.09246 0
M  V30 2059 H 185.807 3.58285 1.77402 0
M  V30 2060 H 187.247 3.22716 2.7501 0
M  V30 2061 C 185.706 1.74667 2.88085 0
M  V30 2062 O 186.236 1.19877 3.83396 0
M  V30 2063 N 184.442 1.44656 2.52038 0
M  V30 2064 H 183.989 1.89402 1.74599 0
M  V30 2065 H 183.947 0.759675 3.05084 0
M  V30 2066 N 187.719 -0.156864 1.56817 0
M  V30 2067 C 188.669 -1.19891 1.93934 0
M  V30 2068 C 189.653 -1.39061 0.809372 0
M  V30 2069 O 190.845 -1.40789 1.07273 0
M  V30 2070 C 187.974 -2.53493 2.31508 0
M  V30 2071 C 187.06 -2.37957 3.51052 0
M  V30 2072 N 187.451 -1.92158 4.67877 0
M  V30 2073 C 185.749 -2.68739 3.55943 0
M  V30 2074 C 186.45 -1.8943 5.49992 0
M  V30 2075 N 185.426 -2.32375 4.91429 0
M  V30 2076 H 189.228 -0.836746 2.81737 0
M  V30 2077 H 186.742 -0.365012 1.58245 0
M  V30 2078 H 188.739 -3.28811 2.56299 0
M  V30 2079 H 187.399 -2.905 1.45051 0
M  V30 2080 H 188.41 -1.62274 4.91821 0
M  V30 2081 H 185.087 -3.09687 2.80001 0
M  V30 2082 H 186.477 -1.55596 6.53636 0
M  V30 2083 N 189.197 -1.51736 -0.425897 0
M  V30 2084 C 190.127 -1.76827 -1.52494 0
M  V30 2085 C 191.108 -0.618524 -1.58456 0
M  V30 2086 O 192.293 -0.862416 -1.74 0
M  V30 2087 C 189.423 -1.90374 -2.90474 0
M  V30 2088 C 188.377 -3.0588 -2.99369 0
M  V30 2089 C 187.703 -3.04625 -4.3944 0
M  V30 2090 C 189.003 -4.45644 -2.72394 0
M  V30 2091 H 190.697 -2.68855 -1.31748 0
M  V30 2092 H 188.243 -1.29372 -0.632362 0
M  V30 2093 H 190.196 -2.0651 -3.6733 0
M  V30 2094 H 188.92 -0.95004 -3.12477 0
M  V30 2095 H 187.579 -2.89467 -2.24954 0
M  V30 2096 H 187.227 -2.0701 -4.58428 0
M  V30 2097 H 186.927 -3.82195 -4.46319 0
M  V30 2098 H 188.451 -3.22869 -5.18255 0
M  V30 2099 H 189.865 -4.62348 -3.38979 0
M  V30 2100 H 188.262 -5.25006 -2.9067 0
M  V30 2101 H 189.332 -4.54893 -1.67929 0
M  V30 2102 N 190.675 0.682077 -1.42076 0
M  V30 2103 C 191.923 1.4393 -1.41876 0
M  V30 2104 C 192.244 1.94971 -0.0335599 0
M  V30 2105 O 191.514 1.72591 0.926773 0
M  V30 2106 H 190.094 0.534085 -0.522267 0
M  V30 2107 H 192.756 0.806427 -1.77434 0
M  V30 2108 H 191.852 2.29588 -2.11414 0
M  V30 2109 N 192.153 1.28127 0.917671 0
M  V30 2110 C 193.103 1.08361 2.00604 0
M  V30 2111 C 194.087 0.00847518 1.60898 0
M  V30 2112 O 195.279 0.228167 1.75523 0
M  V30 2113 C 192.408 0.743376 3.35155 0
M  V30 2114 C 191.494 1.85716 3.81275 0
M  V30 2115 N 191.885 3.09822 3.99805 0
M  V30 2116 C 190.183 1.74612 4.10398 0
M  V30 2117 C 190.884 3.82368 4.38372 0
M  V30 2118 N 189.86 3.10192 4.4641 0
M  V30 2119 H 193.662 2.02531 2.12975 0
M  V30 2120 H 191.176 1.18989 1.10523 0
M  V30 2121 H 193.173 0.582859 4.12805 0
M  V30 2122 H 191.833 -0.190595 3.2414 0
M  V30 2123 H 192.844 3.45475 3.85833 0
M  V30 2124 H 189.521 0.883657 4.08041 0
M  V30 2125 H 190.911 4.89082 4.60704 0
M  V30 2126 N 193.631 -1.12557 1.10312 0
M  V30 2127 C 194.561 -2.20341 0.772798 0
M  V30 2128 C 195.542 -1.68198 -0.25365 0
M  V30 2129 O 196.727 -1.93831 -0.119699 0
M  V30 2130 C 193.857 -3.46709 0.202443 0
M  V30 2131 C 192.811 -4.11996 1.15943 0
M  V30 2132 C 192.137 -5.328 0.450345 0
M  V30 2133 C 193.437 -4.5828 2.50552 0
M  V30 2134 H 195.131 -2.48229 1.674 0
M  V30 2135 H 192.677 -1.19308 0.806326 0
M  V30 2136 H 194.63 -4.2138 -0.0407752 0
M  V30 2137 H 193.354 -3.18245 -0.734001 0
M  V30 2138 H 192.013 -3.39305 1.38808 0
M  V30 2139 H 191.661 -5.00602 -0.490531 0
M  V30 2140 H 191.361 -5.7743 1.08851 0
M  V30 2141 H 192.885 -6.10219 0.215642 0
M  V30 2142 H 194.299 -5.2433 2.31843 0
M  V30 2143 H 192.696 -5.13683 3.10242 0
M  V30 2144 H 193.766 -3.72329 3.10643 0
M  V30 2145 N 195.109 -0.891671 -1.2995 0
M  V30 2146 C 196.056 -0.361736 -2.27948 0
M  V30 2147 C 197.026 0.551761 -1.56668 0
M  V30 2148 O 198.211 0.478736 -1.84696 0
M  V30 2149 C 195.351 0.411825 -3.42634 0
M  V30 2150 C 194.464 -0.531651 -4.28716 0
M  V30 2151 C 193.599 0.258167 -5.30572 0
M  V30 2152 C 192.638 -0.680349 -6.08307 0
M  V30 2153 N 191.775 0.0745613 -7.0206 0
M  V30 2154 H 196.615 -1.20254 -2.72659 0
M  V30 2155 H 194.152 -0.604352 -1.34112 0
M  V30 2156 H 196.11 0.876304 -4.07893 0
M  V30 2157 H 194.74 1.21715 -2.98974 0
M  V30 2158 H 193.792 -1.11463 -3.63703 0
M  V30 2159 H 195.104 -1.25038 -4.82874 0
M  V30 2160 H 194.258 0.784204 -6.0161 0
M  V30 2161 H 192.997 1.01008 -4.77126 0
M  V30 2162 H 192.002 -1.21796 -5.3614 0
M  V30 2163 H 193.227 -1.43145 -6.63842 0
M  V30 2164 H 191.173 0.808883 -6.50994 0
M  V30 2165 H 191.09 -0.584409 -7.53738 0
M  V30 2166 H 192.358 0.581123 -7.77331 0
M  V30 2167 N 196.587 1.43421 -0.653314 0
M  V30 2168 C 197.517 2.33487 0.0246656 0
M  V30 2169 C 198.498 1.49475 0.811863 0
M  V30 2170 O 199.683 1.78139 0.773322 0
M  V30 2171 C 196.813 3.32841 0.99166 0
M  V30 2172 C 195.767 4.26842 0.314568 0
M  V30 2173 C 195.093 5.16236 1.39302 0
M  V30 2174 C 196.393 5.16243 -0.793095 0
M  V30 2175 H 198.087 2.90427 -0.727481 0
M  V30 2176 H 195.633 1.39649 -0.351287 0
M  V30 2177 H 197.586 3.94747 1.47487 0
M  V30 2178 H 196.31 2.74158 1.77497 0
M  V30 2179 H 194.969 3.663 -0.148199 0
M  V30 2180 H 194.617 4.53891 2.16776 0
M  V30 2181 H 194.317 5.79948 0.945223 0
M  V30 2182 H 195.841 5.81015 1.87759 0
M  V30 2183 H 197.255 5.71958 -0.392039 0
M  V30 2184 H 195.652 5.88676 -1.16536 0
M  V30 2185 H 196.722 4.55927 -1.65103 0
M  V30 2186 N 198.065 0.39524 1.52563 0
M  V30 2187 C 199.312 -0.185044 2.01653 0
M  V30 2188 C 199.64 -1.46317 1.28146 0
M  V30 2189 O 198.895 -1.9213 0.372074 0
M  V30 2190 C 199.194 -0.493444 3.53977 0
M  V30 2191 C 198.86 0.69384 4.4553 0
M  V30 2192 C 197.522 1.01954 4.70275 0
M  V30 2193 C 199.874 1.48785 4.99512 0
M  V30 2194 C 197.202 2.14069 5.46252 0
M  V30 2195 C 199.554 2.59965 5.76716 0
M  V30 2196 C 198.218 2.93037 5.99738 0
M  V30 2197 H 197.488 -0.0677123 0.7379 0
M  V30 2198 H 200.135 0.533807 1.8391 0
M  V30 2199 H 198.44 -1.29369 3.69825 0
M  V30 2200 H 200.137 -0.955163 3.89458 0
M  V30 2201 H 196.727 0.429987 4.26438 0
M  V30 2202 H 200.911 1.24946 4.80315 0
M  V30 2203 H 196.167 2.40056 5.62302 0
M  V30 2204 H 200.341 3.21887 6.17545 0
M  V30 2205 H 197.968 3.8003 6.58393 0
M  V30 2206 N 199.544 -1.57102 0.125237 0
M  V30 2207 C 200.79 -1.95697 -0.532035 0
M  V30 2208 C 201.123 -1.009 -1.6593 0
M  V30 2209 O 200.398 -0.047347 -1.94442 0
M  V30 2210 C 200.681 -3.44181 -1.05884 0
M  V30 2211 C 200.534 -4.49752 0.0654392 0
M  V30 2212 C 201.853 -3.94655 -1.9477 0
M  V30 2213 H 198.972 -0.711571 -0.191925 0
M  V30 2214 H 201.614 -1.88923 0.20206 0
M  V30 2215 H 199.764 -3.50085 -1.68442 0
M  V30 2216 H 201.436 -4.55943 0.700982 0
M  V30 2217 H 199.679 -4.27653 0.727709 0
M  V30 2218 H 200.35 -5.50924 -0.344505 0
M  V30 2219 H 202.826 -3.91094 -1.42074 0
M  V30 2220 H 201.702 -4.99057 -2.28546 0
M  V30 2221 H 201.963 -3.35718 -2.87656 0
M  V30 2222 N 201.022 0.148545 -1.56898 0
M  V30 2223 C 202.25 0.876389 -1.87422 0
M  V30 2224 C 202.665 1.74809 -0.713256 0
M  V30 2225 O 202.022 1.79725 0.317025 0
M  V30 2226 C 202.073 1.73438 -3.17178 0
M  V30 2227 O 201.794 0.897809 -4.28802 0
M  V30 2228 C 203.295 2.56993 -3.61205 0
M  V30 2229 H 200.515 0.253489 -0.621277 0
M  V30 2230 H 203.059 0.141798 -2.04008 0
M  V30 2231 H 201.214 2.42205 -3.0235 0
M  V30 2232 H 201.628 1.48672 -5.02988 0
M  V30 2233 H 203.102 3.12773 -4.54838 0
M  V30 2234 H 203.579 3.32958 -2.86419 0
M  V30 2235 H 204.185 1.9352 -3.78722 0
M  V30 2236 N 202.5 1.5196 0.417844 0
M  V30 2237 C 203.916 1.40569 0.755816 0
M  V30 2238 C 204.116 0.503316 1.95113 0
M  V30 2239 O 203.172 -0.0341925 2.52477 0
M  V30 2240 C 204.485 2.82947 1.01791 0
M  V30 2241 C 206.033 2.92231 1.12116 0
M  V30 2242 C 206.508 4.35559 1.41608 0
M  V30 2243 N 207.999 4.38753 1.48491 0
M  V30 2244 C 208.734 5.46705 1.7292 0
M  V30 2245 N 208.23 6.64788 1.95011 0
M  V30 2246 N 210.023 5.34209 1.74863 0
M  V30 2247 H 202.174 2.09168 -0.369098 0
M  V30 2248 H 204.437 0.942409 -0.102809 0
M  V30 2249 H 204.143 3.5106 0.212081 0
M  V30 2250 H 204.017 3.23462 1.94042 0
M  V30 2251 H 206.404 2.24304 1.9176 0
M  V30 2252 H 206.485 2.55185 0.177225 0
M  V30 2253 H 206.129 5.04042 0.624848 0
M  V30 2254 H 206.059 4.70133 2.37239 0
M  V30 2255 H 208.55 3.5363 1.33244 0
M  V30 2256 H 208.863 7.42845 2.13076 0
M  V30 2257 H 207.208 6.67869 1.92293 0
M  V30 2258 H 210.399 4.40937 1.57137 0
M  V30 2259 H 210.572 6.18415 1.93563 0
M  V30 2260 N 203.978 -0.674533 1.42435 0
M  V30 2261 C 205.227 -1.43034 1.42212 0
M  V30 2262 C 205.54 -1.95555 0.0420788 0
M  V30 2263 O 206.746 -2.71374 -0.0827558 0
M  V30 2264 C 205.202 -2.58748 2.50155 0
M  V30 2265 C 204.81 -2.12925 3.94166 0
M  V30 2266 C 206.554 -3.36257 2.59098 0
M  V30 2267 C 204.461 -3.25723 4.93618 0
M  V30 2268 H 203.391 -0.537345 0.528939 0
M  V30 2269 H 206.042 -0.73024 1.68344 0
M  V30 2270 H 204.424 -3.31128 2.17188 0
M  V30 2271 H 205.598 -1.47697 4.36488 0
M  V30 2272 H 203.913 -1.48354 3.89076 0
M  V30 2273 H 206.51 -4.20264 3.30578 0
M  V30 2274 H 206.853 -3.82866 1.63461 0
M  V30 2275 H 207.386 -2.70947 2.9126 0
M  V30 2276 H 204.125 -2.84105 5.90732 0
M  V30 2277 H 203.645 -3.89732 4.55926 0
M  V30 2278 H 205.324 -3.91186 5.15347 0
M  V30 2279 N 205.456 -1.28612 -0.910864 0
M  V30 2280 C 206.389 -1.07109 -2.01502 0
M  V30 2281 C 207.367 0.013706 -1.62594 0
M  V30 2282 O 208.551 -0.134796 -1.88017 0
M  V30 2283 C 205.678 -0.628255 -3.32822 0
M  V30 2284 C 204.724 -1.71012 -3.90714 0
M  V30 2285 S 205.557 -3.30676 -4.21205 0
M  V30 2286 C 206.713 -2.88234 -5.55583 0
M  V30 2287 H 206.946 -2.00591 -2.19432 0
M  V30 2288 H 204.479 -1.12633 -1.05609 0
M  V30 2289 H 206.437 -0.37946 -4.08742 0
M  V30 2290 H 205.098 0.28678 -3.12788 0
M  V30 2291 H 204.291 -1.35195 -4.85529 0
M  V30 2292 H 203.893 -1.91186 -3.21441 0
M  V30 2293 H 206.185 -2.34584 -6.35591 0
M  V30 2294 H 207.128 -3.81857 -5.96314 0
M  V30 2295 H 207.536 -2.26862 -5.16908 0
M  V30 2296 N 206.934 1.1197 -1.10907 0
M  V30 2297 C 207.866 2.17592 -0.720175 0
M  V30 2298 C 208.879 1.60938 0.245495 0
M  V30 2299 O 210.068 1.78476 0.0292245 0
M  V30 2300 C 207.168 3.38873 -0.0427917 0
M  V30 2301 C 206.341 4.25006 -1.03388 0
M  V30 2302 C 205.4 5.24774 -0.387075 0
M  V30 2303 O 204.426 5.59631 -1.03934 0
M  V30 2304 N 205.628 5.74208 0.852407 0
M  V30 2305 H 208.393 2.51567 -1.62893 0
M  V30 2306 H 205.954 1.27439 -0.998543 0
M  V30 2307 H 207.946 4.02703 0.401501 0
M  V30 2308 H 206.516 3.03007 0.768456 0
M  V30 2309 H 205.736 3.57716 -1.65629 0
M  V30 2310 H 207.024 4.79397 -1.70458 0
M  V30 2311 H 206.422 5.48062 1.40161 0
M  V30 2312 H 204.979 6.39901 1.23977 0
M  V30 2313 N 208.412 0.89855 1.29475 0
M  V30 2314 C 209.689 0.443416 1.90508 0
M  V30 2315 C 210.069 -1.07685 1.81569 0
M  V30 2316 O 209.417 -1.9182 1.24166 0
M  V30 2317 C 209.627 0.956708 3.35631 0
M  V30 2318 C 210.975 0.999728 4.12663 0
M  V30 2319 O 211.999 0.904299 3.4453 0
M  V30 2320 O 210.858 1.14289 5.34416 0
M  V30 2321 H 207.952 0.138025 0.815401 0
M  V30 2322 H 210.498 0.98834 1.37949 0
M  V30 2323 H 209.27 2.00067 3.36287 0
M  V30 2324 H 208.893 0.391728 3.95666 0
M  V30 2325 N 209.89 -1.43072 0.660911 0
M  V30 2326 C 211.137 -2.01721 0.177445 0
M  V30 2327 C 211.465 -1.5218 -1.21126 0
M  V30 2328 O 210.72 -0.708659 -1.82419 0
M  V30 2329 C 211.019 -3.57103 0.145563 0
M  V30 2330 C 210.685 -4.26021 1.47705 0
M  V30 2331 C 209.347 -4.44563 1.84165 0
M  V30 2332 C 211.699 -4.64983 2.35458 0
M  V30 2333 C 209.027 -4.99334 3.0803 0
M  V30 2334 C 211.379 -5.21127 3.58622 0
M  V30 2335 C 210.043 -5.37884 3.95268 0
M  V30 2336 H 209.313 -0.73815 0.0649317 0
M  V30 2337 H 211.96 -1.71446 0.853144 0
M  V30 2338 H 210.265 -3.86965 -0.61361 0
M  V30 2339 H 211.962 -4.00248 -0.2455 0
M  V30 2340 H 208.552 -4.11939 1.18339 0
M  V30 2341 H 212.736 -4.50343 2.08579 0
M  V30 2342 H 207.992 -5.10493 3.36462 0
M  V30 2343 H 212.166 -5.50262 4.26831 0
M  V30 2344 H 209.793 -5.80089 4.91325 0
M  V30 2345 N 211.368 -0.403325 -1.52352 0
M  V30 2346 C 212.278 0.432009 -2.30588 0
M  V30 2347 C 213.294 1.05884 -1.38075 0
M  V30 2348 O 214.47 1.06161 -1.71148 0
M  V30 2349 C 211.535 1.53669 -3.10784 0
M  V30 2350 C 210.596 0.933525 -4.19027 0
M  V30 2351 C 209.829 1.98557 -4.9539 0
M  V30 2352 O 210.052 3.20283 -4.71991 0
M  V30 2353 O 208.986 1.59504 -5.80381 0
M  V30 2354 H 212.812 -0.205739 -3.03002 0
M  V30 2355 H 210.397 -0.166675 -1.48467 0
M  V30 2356 H 212.279 2.17814 -3.60742 0
M  V30 2357 H 210.954 2.15915 -2.41169 0
M  V30 2358 H 209.861 0.254954 -3.7323 0
M  V30 2359 H 211.194 0.35508 -4.90918 0
M  V30 2360 N 212.846 1.57033 -0.133567 0
M  V30 2361 C 214.071 2.00475 0.531477 0
M  V30 2362 C 214.496 1.01291 1.58499 0
M  V30 2363 O 213.854 -0.0133279 1.81295 0
M  V30 2364 C 213.902 3.42729 1.12113 0
M  V30 2365 O 213.006 3.46498 2.23636 0
M  V30 2366 H 212.347 0.650876 0.131362 0
M  V30 2367 H 214.877 2.03344 -0.22634 0
M  V30 2368 H 214.887 3.81246 1.4531 0
M  V30 2369 H 213.562 4.14428 0.349557 0
M  V30 2370 H 212.139 3.19811 1.91769 0
M  V30 2371 N 214.325 -0.140222 1.56975 0
M  V30 2372 C 215.602 -0.880769 1.74648 0
M  V30 2373 C 215.982 -1.99036 0.703404 0
M  V30 2374 O 215.33 -2.26821 -0.27648 0
M  V30 2375 C 215.54 -1.417 3.18939 0
M  V30 2376 C 216.888 -1.87774 3.80823 0
M  V30 2377 O 217.912 -1.51427 3.2241 0
M  V30 2378 O 216.771 -2.54827 4.83452 0
M  V30 2379 H 213.865 -0.416713 0.714338 0
M  V30 2380 H 216.411 -0.125618 1.69234 0
M  V30 2381 H 215.183 -0.619902 3.86359 0
M  V30 2382 H 214.806 -2.23546 3.28805 0
M  V30 2383 N 215.803 -1.52179 -0.40978 0
M  V30 2384 C 217.031 -1.70054 -1.17853 0
M  V30 2385 C 217.446 -0.409735 -1.843 0
M  V30 2386 O 216.803 0.614183 -1.71855 0
M  V30 2387 C 216.854 -2.83568 -2.24213 0
M  V30 2388 O 216.575 -4.0765 -1.60478 0
M  V30 2389 C 218.076 -3.12947 -3.13973 0
M  V30 2390 H 215.296 -0.569917 -0.354169 0
M  V30 2391 H 217.84 -1.98734 -0.482198 0
M  V30 2392 H 215.995 -2.57409 -2.89516 0
M  V30 2393 H 216.409 -4.70899 -2.30986 0
M  V30 2394 H 217.883 -3.95889 -3.84677 0
M  V30 2395 H 218.36 -2.26472 -3.76307 0
M  V30 2396 H 218.966 -3.40868 -2.5434 0
M  V30 2397 N 217.281 0.66697 -1.42791 0
M  V30 2398 C 218.528 1.42699 -1.43678 0
M  V30 2399 C 218.856 1.94419 -0.0560425 0
M  V30 2400 O 218.111 1.7182 0.936831 0
M  V30 2401 C 218.41 2.6349 -2.4147 0
M  V30 2402 C 218.076 2.30267 -3.8767 0
M  V30 2403 C 216.738 2.20918 -4.27491 0
M  V30 2404 C 219.09 2.03435 -4.79858 0
M  V30 2405 C 216.418 1.82873 -5.57471 0
M  V30 2406 C 218.77 1.66892 -6.10188 0
M  V30 2407 C 217.434 1.56058 -6.49001 0
M  V30 2408 H 216.704 0.522171 -0.525755 0
M  V30 2409 H 219.351 0.759785 -1.75783 0
M  V30 2410 H 217.656 3.35279 -2.0272 0
M  V30 2411 H 219.353 3.21684 -2.39417 0
M  V30 2412 H 215.943 2.38449 -3.56146 0
M  V30 2413 H 220.127 2.09586 -4.49875 0
M  V30 2414 H 215.383 1.7306 -5.86396 0
M  V30 2415 H 219.557 1.45157 -6.81104 0
M  V30 2416 H 217.184 1.26348 -7.49627 0
M  V30 2417 N 218.759 1.29093 0.90403 0
M  V30 2418 C 220.006 1.16813 1.65411 0
M  V30 2419 C 220.334 -0.28128 1.92455 0
M  V30 2420 O 219.589 -1.22006 1.53013 0
M  V30 2421 C 219.888 1.92224 3.01305 0
M  V30 2422 C 219.554 3.41968 2.93885 0
M  V30 2423 C 218.216 3.82807 2.91569 0
M  V30 2424 C 220.568 4.37409 2.83413 0
M  V30 2425 C 217.896 5.1741 2.76594 0
M  V30 2426 C 220.248 5.72097 2.69977 0
M  V30 2427 C 218.912 6.12199 2.66024 0
M  V30 2428 H 218.182 0.42745 0.605283 0
M  V30 2429 H 220.829 1.59981 1.05254 0
M  V30 2430 H 219.134 1.41635 3.65304 0
M  V30 2431 H 220.831 1.80131 3.58265 0
M  V30 2432 H 217.421 3.09504 2.96488 0
M  V30 2433 H 221.605 4.06813 2.84283 0
M  V30 2434 H 216.861 5.47596 2.71935 0
M  V30 2435 H 221.035 6.45704 2.60844 0
M  V30 2436 H 218.662 7.16448 2.54178 0
M  V30 2437 N 220.237 -1.11381 1.11499 0
M  V30 2438 C 221.462 -1.87475 0.887019 0
M  V30 2439 C 221.887 -1.79639 -0.557796 0
M  V30 2440 O 221.245 -1.15924 -1.39396 0
M  V30 2441 C 221.293 -3.34213 1.35403 0
M  V30 2442 O 220.397 -4.0903 0.526146 0
M  V30 2443 H 219.738 -0.582099 0.319463 0
M  V30 2444 H 222.268 -1.40785 1.48461 0
M  V30 2445 H 222.278 -3.8506 1.34881 0
M  V30 2446 H 220.953 -3.39232 2.40612 0
M  V30 2447 H 219.53 -3.68082 0.597522 0
M  V30 2448 N 221.715 -0.905404 -1.28997 0
M  V30 2449 C 222.625 -0.392246 -2.31298 0
M  V30 2450 C 223.641 0.515889 -1.66176 0
M  V30 2451 O 224.817 0.404093 -1.97304 0
M  V30 2452 C 221.882 0.36686 -3.44754 0
M  V30 2453 C 220.943 -0.573485 -4.25452 0
M  V30 2454 C 220.176 0.149488 -5.33491 0
M  V30 2455 O 220.399 1.37255 -5.5364 0
M  V30 2456 O 219.333 -0.510919 -5.99728 0
M  V30 2457 H 223.159 -1.2411 -2.77183 0
M  V30 2458 H 220.744 -0.669926 -1.33538 0
M  V30 2459 H 222.626 0.795907 -4.13816 0
M  V30 2460 H 221.301 1.19169 -3.00966 0
M  V30 2461 H 220.208 -1.05176 -3.59011 0
M  V30 2462 H 221.541 -1.36489 -4.72897 0
M  V30 2463 N 223.193 1.4272 -0.668489 0
M  V30 2464 C 224.442 2.00846 -0.185389 0
M  V30 2465 C 224.755 1.53442 1.21305 0
M  V30 2466 O 225.961 2.03944 1.79218 0
M  V30 2467 C 224.417 3.58805 -0.280591 0
M  V30 2468 C 224.025 4.15198 -1.68268 0
M  V30 2469 C 225.769 4.24255 0.14412 0
M  V30 2470 C 223.676 5.655 -1.73099 0
M  V30 2471 H 222.606 0.751145 -0.0655475 0
M  V30 2472 H 225.257 1.63516 -0.832752 0
M  V30 2473 H 223.639 3.93608 0.434553 0
M  V30 2474 H 224.813 3.91866 -2.42441 0
M  V30 2475 H 223.128 3.62176 -2.05469 0
M  V30 2476 H 225.725 5.34547 0.128086 0
M  V30 2477 H 226.068 3.99277 1.17827 0
M  V30 2478 H 226.601 3.94389 -0.519798 0
M  V30 2479 H 223.34 5.95268 -2.74475 0
M  V30 2480 H 222.86 5.90842 -1.03274 0
M  V30 2481 H 224.539 6.29808 -1.48158 0
M  V30 2482 N 224.671 0.411399 1.52136 0
M  V30 2483 C 225.948 -0.222308 1.94333 0
M  V30 2484 C 226.328 -1.6242 1.34844 0
M  V30 2485 O 225.676 -2.22384 0.525145 0
M  V30 2486 C 225.886 -0.226345 3.48265 0
M  V30 2487 C 227.234 -0.444592 4.22266 0
M  V30 2488 O 228.258 -0.305602 3.54887 0
M  V30 2489 O 227.117 -0.718749 5.41753 0
M  V30 2490 H 224.211 -0.143907 0.814383 0
M  V30 2491 H 226.757 0.467506 1.63133 0
M  V30 2492 H 225.529 0.75475 3.83952 0
M  V30 2493 H 225.152 -0.960163 3.85832 0
M  V30 2494 N 226.149 -1.5696 0.141893 0
M  V30 2495 C 227.079 -2.19516 -0.795936 0
M  V30 2496 C 228.06 -1.14187 -1.26077 0
M  V30 2497 O 229.245 -1.42511 -1.31925 0
M  V30 2498 C 226.375 -2.81272 -2.03723 0
M  V30 2499 C 225.329 -3.92384 -1.70936 0
M  V30 2500 C 224.655 -4.41052 -3.02287 0
M  V30 2501 C 225.955 -5.13403 -0.959954 0
M  V30 2502 H 227.649 -2.98138 -0.274596 0
M  V30 2503 H 225.195 -1.43406 -0.130636 0
M  V30 2504 H 227.148 -3.237 -2.69808 0
M  V30 2505 H 225.872 -1.99973 -2.58221 0
M  V30 2506 H 224.531 -3.50566 -1.07232 0
M  V30 2507 H 224.179 -3.56582 -3.54765 0
M  V30 2508 H 223.879 -5.15993 -2.81114 0
M  V30 2509 H 225.403 -4.86146 -3.69451 0
M  V30 2510 H 226.817 -5.52706 -1.52279 0
M  V30 2511 H 225.214 -5.94073 -0.848357 0
M  V30 2512 H 226.284 -4.84875 0.0492434 0
M  V30 2513 N 227.627 0.131896 -1.57047 0
M  V30 2514 C 228.537 1.1815 -2.02676 0
M  V30 2515 C 229.553 1.46113 -0.944824 0
M  V30 2516 O 230.729 1.57485 -1.25541 0
M  V30 2517 C 227.794 2.49139 -2.41103 0
M  V30 2518 C 226.855 2.28688 -3.63318 0
M  V30 2519 C 226.088 3.53431 -3.99903 0
M  V30 2520 O 226.311 4.60223 -3.36973 0
M  V30 2521 O 225.245 3.45198 -4.93074 0
M  V30 2522 H 229.071 0.824069 -2.92306 0
M  V30 2523 H 226.656 0.341745 -1.45439 0
M  V30 2524 H 228.538 3.26338 -2.66611 0
M  V30 2525 H 227.213 2.84382 -1.54624 0
M  V30 2526 H 226.12 1.4939 -3.42977 0
M  V30 2527 H 227.453 1.98355 -4.50462 0
M  V30 2528 N 229.106 1.52395 0.401703 0
M  V30 2529 C 230.053 1.76268 1.48991 0
M  V30 2530 C 231.023 0.605386 1.54675 0
M  V30 2531 O 232.208 0.843742 1.7113 0
M  V30 2532 C 229.348 1.92592 2.86361 0
M  V30 2533 C 228.461 3.20259 2.89928 0
M  V30 2534 C 227.596 3.26972 4.18644 0
M  V30 2535 C 226.635 4.48812 4.16214 0
M  V30 2536 N 225.772 4.52877 5.36514 0
M  V30 2537 H 230.612 2.6914 1.27935 0
M  V30 2538 H 228.149 1.33355 0.620871 0
M  V30 2539 H 230.107 2.0004 3.66115 0
M  V30 2540 H 228.737 1.03093 3.05895 0
M  V30 2541 H 227.789 3.21945 2.02621 0
M  V30 2542 H 229.101 4.10056 2.83999 0
M  V30 2543 H 228.255 3.33533 5.06794 0
M  V30 2544 H 226.994 2.35126 4.27278 0
M  V30 2545 H 225.999 4.4239 3.26453 0
M  V30 2546 H 227.224 5.41961 4.09213 0
M  V30 2547 H 225.17 3.63917 5.45802 0
M  V30 2548 H 225.087 5.36529 5.32609 0
M  V30 2549 H 226.355 4.63676 6.26597 0
M  V30 2550 N 230.584 -0.659388 1.43143 0
M  V30 2551 C 231.814 -1.44513 1.47646 0
M  V30 2552 C 232.222 -1.88981 0.0910095 0
M  V30 2553 O 231.565 -1.59702 -0.907789 0
M  V30 2554 C 231.627 -2.71663 2.35456 0
M  V30 2555 C 231.291 -2.49175 3.83094 0
M  V30 2556 C 232.288 -2.1279 4.74359 0
M  V30 2557 C 229.973 -2.63691 4.27519 0
M  V30 2558 C 231.967 -1.9121 6.08044 0
M  V30 2559 C 229.654 -2.41726 5.61259 0
M  V30 2560 C 230.652 -2.0554 6.51339 0
M  V30 2561 O 230.34 -1.838 7.82606 0
M  V30 2562 H 230.072 -0.45064 0.503884 0
M  V30 2563 H 232.626 -0.816248 1.88485 0
M  V30 2564 H 230.856 -3.37089 1.89493 0
M  V30 2565 H 232.545 -3.33595 2.31235 0
M  V30 2566 H 233.311 -2.01157 4.41317 0
M  V30 2567 H 229.19 -2.90832 3.57684 0
M  V30 2568 H 232.734 -1.62889 6.78316 0
M  V30 2569 H 228.631 -2.52959 5.9387 0
M  V30 2570 H 229.399 -1.98275 7.94122 0
M  V30 2571 N 232.062 -1.29571 -0.897171 0
M  V30 2572 C 233.009 -1.14916 -2.00158 0
M  V30 2573 C 233.979 -0.0418149 -1.66047 0
M  V30 2574 O 235.164 -0.209793 -1.89643 0
M  V30 2575 C 232.304 -0.834307 -3.34863 0
M  V30 2576 C 231.417 -2.02234 -3.8174 0
M  V30 2577 C 230.552 -1.64664 -5.05034 0
M  V30 2578 C 229.591 -2.80033 -5.44286 0
M  V30 2579 N 228.728 -2.42843 -6.58765 0
M  V30 2580 H 233.568 -2.09403 -2.12025 0
M  V30 2581 H 231.105 -1.042 -1.0383 0
M  V30 2582 H 233.063 -0.632436 -4.12379 0
M  V30 2583 H 231.693 0.0736656 -3.22716 0
M  V30 2584 H 230.745 -2.33583 -3.00238 0
M  V30 2585 H 232.057 -2.88673 -4.06779 0
M  V30 2586 H 231.211 -1.4078 -5.9014 0
M  V30 2587 H 229.95 -0.753766 -4.8184 0
M  V30 2588 H 228.955 -3.04596 -4.57713 0
M  V30 2589 H 230.18 -3.69989 -5.6946 0
M  V30 2590 H 228.126 -1.56046 -6.3717 0
M  V30 2591 H 228.043 -3.22815 -6.83613 0
M  V30 2592 H 229.311 -2.22285 -7.47134 0
M  V30 2593 N 233.54 1.10788 -1.12088 0
M  V30 2594 C 234.47 2.19083 -0.807755 0
M  V30 2595 C 235.451 1.6858 0.226859 0
M  V30 2596 O 236.636 1.93997 0.0888475 0
M  V30 2597 C 233.766 3.46344 -0.257576 0
M  V30 2598 C 232.72 4.101 -1.22483 0
M  V30 2599 C 232.046 5.32016 -0.535052 0
M  V30 2600 C 233.346 4.54236 -2.57811 0
M  V30 2601 H 235.04 2.45534 -1.71328 0
M  V30 2602 H 232.586 1.1801 -0.825205 0
M  V30 2603 H 234.539 4.21392 -0.0262679 0
M  V30 2604 H 233.263 3.19373 0.683278 0
M  V30 2605 H 231.922 3.37054 -1.44189 0
M  V30 2606 H 231.57 5.01319 0.410827 0
M  V30 2607 H 231.27 5.75625 -1.18024 0
M  V30 2608 H 232.794 6.09799 -0.312695 0
M  V30 2609 H 234.208 5.20575 -2.40155 0
M  V30 2610 H 232.605 5.08682 -3.18375 0
M  V30 2611 H 233.675 3.6734 -3.16528 0
M  V30 2612 N 235.018 0.912232 1.28515 0
M  V30 2613 C 235.948 0.416403 2.29757 0
M  V30 2614 C 236.929 -0.515194 1.6211 0
M  V30 2615 O 238.114 -0.423253 1.89532 0
M  V30 2616 C 235.244 -0.34572 3.45575 0
M  V30 2617 C 234.198 0.496599 4.25109 0
M  V30 2618 C 233.524 -0.393771 5.33248 0
M  V30 2619 C 234.824 1.75307 4.92001 0
M  V30 2620 H 236.518 1.26249 2.7148 0
M  V30 2621 H 234.064 0.608515 1.30511 0
M  V30 2622 H 236.017 -0.703422 4.15488 0
M  V30 2623 H 234.741 -1.2257 3.02728 0
M  V30 2624 H 233.4 0.8368 3.56922 0
M  V30 2625 H 233.048 -1.27225 4.86644 0
M  V30 2626 H 232.748 0.166209 5.87365 0
M  V30 2627 H 234.272 -0.747389 6.06009 0
M  V30 2628 H 235.686 1.46437 5.54283 0
M  V30 2629 H 234.083 2.25534 5.56106 0
M  V30 2630 H 235.153 2.48176 4.16577 0
M  V30 2631 N 236.496 -1.42363 0.676048 0
M  V30 2632 C 237.907 -1.84649 0.275948 0
M  V30 2633 C 238.258 -1.56588 -1.18214 0
M  V30 2634 O 237.383 -1.02634 -1.90513 0
M  V30 2635 C 237.978 -3.35178 0.494053 0
M  V30 2636 C 236.537 -3.76109 0.148061 0
M  V30 2637 C 235.684 -2.65931 0.785891 0
M  V30 2638 H 238.635 -1.32192 0.878121 0
M  V30 2639 H 238.656 -3.79655 -0.25343 0
M  V30 2640 H 238.168 -3.55571 1.55535 0
M  V30 2641 H 236.269 -3.61323 -0.909742 0
M  V30 2642 H 236.382 -4.7546 0.589454 0
M  V30 2643 H 234.746 -2.53773 0.217113 0
M  V30 2644 H 235.529 -2.89146 1.85067 0
M  V30 2645 N 237.974 -0.419461 -1.51915 0
M  V30 2646 C 238.884 0.407528 -2.31033 0
M  V30 2647 C 239.9 1.04413 -1.3919 0
M  V30 2648 O 241.076 1.0434 -1.72265 0
M  V30 2649 C 238.141 1.50365 -3.12396 0
M  V30 2650 C 237.202 0.889029 -4.19994 0
M  V30 2651 C 236.435 1.93291 -4.97468 0
M  V30 2652 O 236.658 3.15259 -4.75361 0
M  V30 2653 O 235.592 1.53339 -5.8204 0
M  V30 2654 H 239.418 -0.237865 -3.02767 0
M  V30 2655 H 237.003 -0.182413 -1.48282 0
M  V30 2656 H 238.885 2.13975 -3.63032 0
M  V30 2657 H 237.56 2.13345 -2.43445 0
M  V30 2658 H 236.467 0.215353 -3.7348 0
M  V30 2659 H 237.8 0.302991 -4.91267 0
M  V30 2660 N 239.452 1.56882 -0.150215 0
M  V30 2661 C 240.682 2.00302 0.506213 0
M  V30 2662 C 241.09 1.02934 1.58749 0
M  V30 2663 O 240.433 0.0188384 1.8369 0
M  V30 2664 C 240.495 3.40156 1.16337 0
M  V30 2665 C 240.159 4.56439 0.226311 0
M  V30 2666 C 241.156 5.17012 -0.547265 0
M  V30 2667 C 238.841 5.02136 0.128279 0
M  V30 2668 C 240.835 6.21693 -1.40629 0
M  V30 2669 C 238.522 6.06672 -0.734345 0
M  V30 2670 C 239.52 6.6632 -1.50023 0
M  V30 2671 O 239.208 7.68831 -2.34848 0
M  V30 2672 H 238.94 0.662182 0.135984 0
M  V30 2673 H 241.494 2.03961 -0.242746 0
M  V30 2674 H 239.724 3.33346 1.96004 0
M  V30 2675 H 241.413 3.67663 1.71985 0
M  V30 2676 H 242.179 4.82603 -0.48158 0
M  V30 2677 H 238.058 4.55435 0.714157 0
M  V30 2678 H 241.602 6.68179 -2.00455 0
M  V30 2679 H 237.499 6.40507 -0.801309 0
M  V30 2680 H 238.267 7.86065 -2.28131 0
M  V30 2681 N 240.93 -0.123565 1.57115 0
M  V30 2682 C 242.341 -0.681198 1.73829 0
M  V30 2683 C 242.692 -1.80535 0.768214 0
M  V30 2684 O 241.817 -2.16317 -0.0599103 0
M  V30 2685 C 242.412 -1.24246 3.15196 0
M  V30 2686 C 240.971 -1.74643 3.33432 0
M  V30 2687 C 240.118 -0.644284 2.69711 0
M  V30 2688 H 243.069 0.102315 1.5837 0
M  V30 2689 H 243.09 -2.11216 3.16493 0
M  V30 2690 H 242.602 -0.424062 3.85776 0
M  V30 2691 H 240.703 -2.58974 2.67886 0
M  V30 2692 H 240.816 -1.85902 4.41562 0
M  V30 2693 H 239.18 -1.07676 2.3082 0
M  V30 2694 H 239.963 0.163058 3.42913 0
M  V30 2695 N 242.408 -1.52605 -0.393616 0
M  V30 2696 C 243.656 -1.67093 -1.13685 0
M  V30 2697 C 243.977 -0.411011 -1.90619 0
M  V30 2698 O 243.247 0.574491 -1.87287 0
M  V30 2699 H 241.827 -0.615923 -0.422668 0
M  V30 2700 H 244.489 -1.89704 -0.447039 0
M  V30 2701 H 243.585 -2.51922 -1.84232 0
M  V30 2702 N 243.887 0.651787 -1.4349 0
M  V30 2703 C 245.133 1.41376 -1.45398 0
M  V30 2704 C 245.466 1.94041 -0.0784823 0
M  V30 2705 O 244.741 1.72379 0.900878 0
M  V30 2706 C 245.024 2.59414 -2.49752 0
M  V30 2707 C 244.877 2.12232 -3.96582 0
M  V30 2708 C 246.196 3.61626 -2.50827 0
M  V30 2709 H 243.315 0.512719 -0.529422 0
M  V30 2710 H 245.957 0.738796 -1.75048 0
M  V30 2711 H 244.107 3.16997 -2.246 0
M  V30 2712 H 245.779 1.59639 -4.32797 0
M  V30 2713 H 244.022 1.43592 -4.09346 0
M  V30 2714 H 244.693 2.9712 -4.65214 0
M  V30 2715 H 247.169 3.13805 -2.7325 0
M  V30 2716 H 246.045 4.41766 -3.25783 0
M  V30 2717 H 246.306 4.14314 -1.5426 0
M  V30 2718 N 245.365 1.30045 0.890287 0
M  V30 2719 C 246.295 1.18541 2.01172 0
M  V30 2720 C 247.276 0.0773356 1.69924 0
M  V30 2721 O 248.461 0.25845 1.92473 0
M  V30 2722 C 245.591 0.870941 3.36202 0
M  V30 2723 C 244.545 1.93637 3.81692 0
M  V30 2724 C 243.871 1.475 5.13953 0
M  V30 2725 C 245.171 3.34666 4.00994 0
M  V30 2726 H 246.865 2.12359 2.11054 0
M  V30 2727 H 244.411 1.02238 1.01407 0
M  V30 2728 H 246.364 0.777141 4.14172 0
M  V30 2729 H 245.088 -0.102926 3.26438 0
M  V30 2730 H 243.747 2.01972 3.05946 0
M  V30 2731 H 243.395 0.489551 5.00612 0
M  V30 2732 H 243.095 2.1876 5.4536 0
M  V30 2733 H 244.619 1.39489 5.94454 0
M  V30 2734 H 246.033 3.2912 4.69417 0
M  V30 2735 H 244.43 4.03966 4.43769 0
M  V30 2736 H 245.5 3.76949 3.05021 0
M  V30 2737 N 246.843 -1.10192 1.12674 0
M  V30 2738 C 248.068 -1.86523 0.906853 0
M  V30 2739 C 248.493 -1.80221 -0.538711 0
M  V30 2740 O 247.851 -1.17396 -1.38158 0
M  V30 2741 C 247.899 -3.32758 1.3894 0
M  V30 2742 O 247.003 -4.08449 0.5695 0
M  V30 2743 H 246.344 -0.578678 0.325619 0
M  V30 2744 H 248.874 -1.39203 1.49946 0
M  V30 2745 H 248.884 -3.83608 1.38958 0
M  V30 2746 H 247.559 -3.36661 2.44197 0
M  V30 2747 H 246.136 -3.67427 0.636528 0
M  V30 2748 N 248.321 -0.919034 -1.28029 0
M  V30 2749 C 249.598 -0.473668 -1.89778 0
M  V30 2750 C 249.978 1.04783 -1.83259 0
M  V30 2751 O 249.326 1.8982 -1.27202 0
M  V30 2752 C 249.536 -1.00998 -3.34066 0
M  V30 2753 C 250.884 -1.06525 -4.1102 0
M  V30 2754 O 251.908 -0.958996 -3.43048 0
M  V30 2755 O 250.767 -1.22776 -5.3253 0
M  V30 2756 H 247.861 -0.15098 -0.813101 0
M  V30 2757 H 250.407 -1.01016 -1.36359 0
M  V30 2758 H 249.179 -2.05392 -3.33061 0
M  V30 2759 H 248.802 -0.454626 -3.94992 0
M  V30 2760 N 249.799 1.42003 -0.683588 0
M  V30 2761 C 251.045 2.01712 -0.209825 0
M  V30 2762 C 251.378 1.53968 1.18353 0
M  V30 2763 O 250.653 0.745661 1.79639 0
M  V30 2764 C 250.936 3.59202 -0.254197 0
M  V30 2765 C 250.789 4.17102 -1.68363 0
M  V30 2766 C 252.108 4.38344 0.392709 0
M  V30 2767 H 249.227 0.732891 -0.0777189 0
M  V30 2768 H 251.869 1.68909 -0.87004 0
M  V30 2769 H 250.019 3.87278 0.307954 0
M  V30 2770 H 251.691 3.99946 -2.29871 0
M  V30 2771 H 249.934 3.72597 -2.22157 0
M  V30 2772 H 250.605 5.26249 -1.6663 0
M  V30 2773 H 253.081 4.16011 -0.0859162 0
M  V30 2774 H 251.957 5.47901 0.331063 0
M  V30 2775 H 252.218 4.16887 1.47164 0
M  V30 2776 N 251.277 0.427512 1.51691 0
M  V30 2777 C 252.209 -0.424521 2.25234 0
M  V30 2778 C 253.222 -0.994671 1.2888 0
M  V30 2779 O 254.411 -0.890483 1.54702 0
M  V30 2780 C 251.511 -1.60479 2.98496 0
M  V30 2781 C 250.684 -1.15527 4.21868 0
M  V30 2782 C 249.743 -2.20454 4.77793 0
M  V30 2783 O 248.769 -1.8029 5.39893 0
M  V30 2784 N 249.971 -3.52831 4.60967 0
M  V30 2785 H 252.736 0.205749 2.98993 0
M  V30 2786 H 250.297 0.255867 1.59865 0
M  V30 2787 H 252.289 -2.30276 3.32799 0
M  V30 2788 H 250.859 -2.14061 2.27809 0
M  V30 2789 H 250.079 -0.284736 3.9317 0
M  V30 2790 H 251.367 -0.832173 5.01949 0
M  V30 2791 H 250.765 -3.88201 4.11481 0
M  V30 2792 H 249.322 -4.18551 4.99658 0
M  V30 2793 N 252.755 -1.56801 0.158532 0
M  V30 2794 C 253.665 -2.20916 -0.789518 0
M  V30 2795 C 254.681 -1.1969 -1.26294 0
M  V30 2796 O 255.857 -1.52308 -1.31773 0
M  V30 2797 C 252.922 -2.82727 -2.00665 0
M  V30 2798 C 251.983 -3.99114 -1.58134 0
M  V30 2799 C 251.216 -4.57968 -2.74045 0
M  V30 2800 O 251.439 -4.15704 -3.90572 0
M  V30 2801 O 250.373 -5.48047 -2.48855 0
M  V30 2802 H 254.199 -3.02464 -0.273681 0
M  V30 2803 H 251.784 -1.4924 -0.0690548 0
M  V30 2804 H 253.666 -3.21968 -2.71872 0
M  V30 2805 H 252.341 -2.04184 -2.51179 0
M  V30 2806 H 251.248 -3.64567 -0.839155 0
M  V30 2807 H 252.581 -4.79212 -1.12325 0
M  V30 2808 N 254.233 0.115231 -1.57178 0
M  V30 2809 C 255.481 0.820727 -1.84685 0
M  V30 2810 C 255.802 1.80237 -0.744279 0
M  V30 2811 O 255.072 1.94529 0.231375 0
M  V30 2812 H 253.652 0.306084 -0.681411 0
M  V30 2813 H 256.314 0.101656 -1.94635 0
M  V30 2814 H 255.41 1.36366 -2.80733 0
M  V30 2815 N 255.711 1.52812 0.385517 0
M  V30 2816 C 256.658 1.77838 1.47113 0
M  V30 2817 C 257.628 0.621757 1.54024 0
M  V30 2818 O 258.813 0.861846 1.70226 0
M  V30 2819 C 255.953 1.95618 2.84302 0
M  V30 2820 C 255.066 3.23316 2.86515 0
M  V30 2821 C 254.201 3.31394 4.15152 0
M  V30 2822 C 253.24 4.53201 4.1143 0
M  V30 2823 N 252.377 4.58542 5.3168 0
M  V30 2824 H 257.217 2.70482 1.25073 0
M  V30 2825 H 254.754 1.34006 0.606692 0
M  V30 2826 H 256.712 2.03912 3.63972 0
M  V30 2827 H 255.342 1.06331 3.04784 0
M  V30 2828 H 254.394 3.24076 1.99195 0
M  V30 2829 H 255.706 4.13045 2.79634 0
M  V30 2830 H 254.86 3.3889 5.03228 0
M  V30 2831 H 253.599 2.39645 4.24761 0
M  V30 2832 H 252.604 4.45827 3.21742 0
M  V30 2833 H 253.829 5.46271 4.03442 0
M  V30 2834 H 251.775 3.69686 5.41912 0
M  V30 2835 H 251.692 5.42148 5.26889 0
M  V30 2836 H 252.96 4.70296 6.21644 0
M  V30 2837 N 257.189 -0.644168 1.43834 0
M  V30 2838 C 258.139 -1.7501 1.46135 0
M  V30 2839 C 259.123 -1.57507 0.328685 0
M  V30 2840 O 260.315 -1.67465 0.5731 0
M  V30 2841 C 257.444 -3.13641 1.39585 0
M  V30 2842 C 256.53 -3.3666 2.57916 0
M  V30 2843 N 256.921 -3.30107 3.83227 0
M  V30 2844 C 255.219 -3.67411 2.52834 0
M  V30 2845 C 255.92 -3.53456 4.61999 0
M  V30 2846 N 254.896 -3.75705 3.9287 0
M  V30 2847 H 258.698 -1.68382 2.40883 0
M  V30 2848 H 256.212 -0.846169 1.38614 0
M  V30 2849 H 258.209 -3.92933 1.39317 0
M  V30 2850 H 256.869 -3.21444 0.45865 0
M  V30 2851 H 257.88 -3.09316 4.15384 0
M  V30 2852 H 254.557 -3.82275 1.67845 0
M  V30 2853 H 255.947 -3.54093 5.71024 0
M  V30 2854 N 258.668 -1.30515 -0.883378 0
M  V30 2855 C 259.917 -1.18795 -1.63005 0
M  V30 2856 C 260.23 0.255923 -1.93919 0
M  V30 2857 O 261.436 0.494654 -2.66956 0
M  V30 2858 C 259.892 -2.07878 -2.93794 0
M  V30 2859 C 259.5 -3.57184 -2.70414 0
M  V30 2860 C 261.244 -2.04924 -3.71761 0
M  V30 2861 C 259.151 -4.38317 -3.97029 0
M  V30 2862 H 258.081 -0.441031 -0.611562 0
M  V30 2863 H 260.732 -1.55275 -0.977854 0
M  V30 2864 H 259.114 -1.64283 -3.60315 0
M  V30 2865 H 260.288 -4.08937 -2.12384 0
M  V30 2866 H 258.603 -3.61976 -2.0582 0
M  V30 2867 H 261.2 -2.62792 -4.65665 0
M  V30 2868 H 261.543 -1.0331 -4.03277 0
M  V30 2869 H 262.076 -2.46649 -3.12104 0
M  V30 2870 H 258.815 -5.40632 -3.70671 0
M  V30 2871 H 258.335 -3.91326 -4.54559 0
M  V30 2872 H 260.014 -4.49834 -4.65036 0
M  V30 2873 N 260.146 1.09593 -1.13257 0
M  V30 2874 C 261.093 2.1618 -0.808381 0
M  V30 2875 C 262.063 1.64517 0.228754 0
M  V30 2876 O 263.248 1.9053 0.101381 0
M  V30 2877 C 260.388 3.43973 -0.278675 0
M  V30 2878 C 259.501 4.09545 -1.37466 0
M  V30 2879 C 258.636 5.25088 -0.803479 0
M  V30 2880 C 257.675 5.82579 -1.87799 0
M  V30 2881 N 256.812 6.89486 -1.32488 0
M  V30 2882 H 261.652 2.43254 -1.72138 0
M  V30 2883 H 259.189 1.19392 -0.859294 0
M  V30 2884 H 261.147 4.17174 0.0465583 0
M  V30 2885 H 259.777 3.17223 0.597459 0
M  V30 2886 H 258.829 3.34226 -1.81652 0
M  V30 2887 H 260.141 4.48307 -2.18684 0
M  V30 2888 H 259.295 6.05178 -0.429427 0
M  V30 2889 H 258.034 4.87684 0.0397956 0
M  V30 2890 H 257.039 5.01152 -2.26113 0
M  V30 2891 H 258.264 6.22045 -2.72463 0
M  V30 2892 H 256.21 6.54064 -0.503575 0
M  V30 2893 H 256.127 7.27007 -2.07355 0
M  V30 2894 H 257.395 7.73336 -0.978336 0
M  V30 2895 N 261.624 0.925811 1.2754 0
M  V30 2896 C 262.854 0.580666 1.98272 0
M  V30 2897 C 263.262 -0.845207 1.69272 0
M  V30 2898 O 262.605 -1.57306 0.948707 0
M  V30 2899 C 262.667 0.724418 3.52126 0
M  V30 2900 C 262.331 2.12206 4.04744 0
M  V30 2901 C 263.328 3.09604 4.17662 0
M  V30 2902 C 261.013 2.4385 4.39138 0
M  V30 2903 C 263.007 4.36755 4.64246 0
M  V30 2904 C 260.694 3.71237 4.85414 0
M  V30 2905 C 261.692 4.67503 4.97926 0
M  V30 2906 O 261.38 5.92624 5.43187 0
M  V30 2907 H 261.112 0.218987 0.639547 0
M  V30 2908 H 263.666 1.24452 1.63404 0
M  V30 2909 H 261.896 0.0034663 3.867 0
M  V30 2910 H 263.585 0.384607 4.04074 0
M  V30 2911 H 264.351 2.86478 3.91351 0
M  V30 2912 H 260.23 1.69665 4.28643 0
M  V30 2913 H 263.774 5.11898 4.73927 0
M  V30 2914 H 259.671 3.94182 5.11166 0
M  V30 2915 H 260.439 5.95585 5.61445 0
M  V30 2916 N 263.102 -1.41638 0.69111 0
M  V30 2917 C 264.049 -2.30789 0.0229705 0
M  V30 2918 C 265.019 -1.46863 -0.775911 0
M  V30 2919 O 266.204 -1.75661 -0.74485 0
M  V30 2920 C 263.344 -3.32868 -0.910666 0
M  V30 2921 C 262.457 -4.31875 -0.103874 0
M  V30 2922 C 261.592 -5.21024 -1.03475 0
M  V30 2923 C 260.631 -6.11702 -0.220598 0
M  V30 2924 N 259.768 -6.93349 -1.10504 0
M  V30 2925 H 264.608 -2.87366 0.788978 0
M  V30 2926 H 262.145 -1.41535 0.400794 0
M  V30 2927 H 264.103 -3.90596 -1.46597 0
M  V30 2928 H 262.733 -2.77851 -1.64312 0
M  V30 2929 H 261.785 -3.76131 0.568285 0
M  V30 2930 H 263.097 -4.96003 0.527504 0
M  V30 2931 H 262.251 -5.83565 -1.65943 0
M  V30 2932 H 260.99 -4.57112 -1.69999 0
M  V30 2933 H 259.995 -5.48215 0.417187 0
M  V30 2934 H 261.22 -6.77668 0.440784 0
M  V30 2935 H 259.166 -6.3205 -1.75638 0
M  V30 2936 H 259.083 -7.54146 -0.529125 0
M  V30 2937 H 260.351 -7.60362 -1.71667 0
M  V30 2938 N 264.58 -0.43555 -1.51462 0
M  V30 2939 C 265.827 0.131514 -2.02072 0
M  V30 2940 C 266.155 1.42868 -1.31981 0
M  V30 2941 O 265.41 1.91076 -0.422883 0
M  V30 2942 C 265.709 0.39942 -3.55161 0
M  V30 2943 C 265.375 -0.81172 -4.43533 0
M  V30 2944 C 264.037 -1.14387 -4.67407 0
M  V30 2945 C 266.389 -1.61976 -4.95392 0
M  V30 2946 C 263.717 -2.28477 -5.40384 0
M  V30 2947 C 266.069 -2.75164 -5.6962 0
M  V30 2948 C 264.733 -3.08835 -5.91758 0
M  V30 2949 H 264.003 0.0481244 -0.739436 0
M  V30 2950 H 266.65 -0.58238 -1.8243 0
M  V30 2951 H 264.955 1.19519 -3.73125 0
M  V30 2952 H 266.652 0.85157 -3.91854 0
M  V30 2953 H 263.242 -0.542898 -4.25148 0
M  V30 2954 H 267.426 -1.37637 -4.76833 0
M  V30 2955 H 262.682 -2.5488 -5.55739 0
M  V30 2956 H 266.856 -3.38147 -6.08793 0
M  V30 2957 H 264.483 -3.97353 -6.48086 0
M  V30 2958 N 266.058 1.56714 -0.166846 0
M  V30 2959 C 266.968 2.21331 0.777791 0
M  V30 2960 C 267.984 1.20358 1.25658 0
M  V30 2961 O 269.16 1.53005 1.30964 0
M  V30 2962 C 266.225 2.83787 1.99163 0
M  V30 2963 C 265.286 3.99947 1.56016 0
M  V30 2964 C 264.519 4.59415 2.71613 0
M  V30 2965 O 264.742 4.17769 3.88362 0
M  V30 2966 O 263.676 5.49359 2.45945 0
M  V30 2967 H 267.502 3.02605 0.257636 0
M  V30 2968 H 265.087 1.49275 0.0611393 0
M  V30 2969 H 266.969 3.23405 2.70161 0
M  V30 2970 H 265.644 2.05513 2.50092 0
M  V30 2971 H 264.551 3.65007 0.819809 0
M  V30 2972 H 265.884 4.79801 1.09782 0
M  V30 2973 N 267.536 -0.106894 1.57237 0
M  V30 2974 C 268.782 -0.81373 1.85759 0
M  V30 2975 C 269.115 -1.78952 0.754315 0
M  V30 2976 O 268.39 -1.93029 -0.23879 0
M  V30 2977 C 268.673 -1.55293 3.24894 0
M  V30 2978 C 268.526 -0.595929 4.45835 0
M  V30 2979 C 269.845 -2.5063 3.61763 0
M  V30 2980 H 266.964 -0.294369 0.67566 0
M  V30 2981 H 269.606 -0.0776472 1.89841 0
M  V30 2982 H 267.756 -2.1804 3.21544 0
M  V30 2983 H 269.428 0.0236262 4.61294 0
M  V30 2984 H 267.671 0.0916191 4.33703 0
M  V30 2985 H 268.342 -1.15004 5.39887 0
M  V30 2986 H 270.818 -1.97982 3.65981 0
M  V30 2987 H 269.694 -2.99376 4.60071 0
M  V30 2988 H 269.955 -3.3385 2.89821 0
M  V30 2989 N 269.014 -1.53014 -0.377408 0
M  V30 2990 C 270.254 -1.70318 -1.1301 0
M  V30 2991 C 270.618 -0.439538 -1.86901 0
M  V30 2992 O 271.819 -0.489095 -2.64313 0
M  V30 2993 C 270.09 -2.91125 -2.07319 0
M  V30 2994 S 271.649 -3.29075 -2.90268 0
M  V30 2995 H 268.467 -0.599426 -0.382374 0
M  V30 2996 H 271.069 -1.91089 -0.412933 0
M  V30 2997 H 269.773 -3.81303 -1.51777 0
M  V30 2998 H 269.304 -2.7272 -2.83526 0
M  V30 2999 H 271.319 -2.80165 -4.09539 0
M  V30 3000 N 270.492 0.636531 -1.44174 0
M  V30 3001 C 271.402 1.77754 -1.53103 0
M  V30 3002 C 272.418 1.68928 -0.417034 0
M  V30 3003 O 273.594 1.89801 -0.6736 0
M  V30 3004 C 270.659 3.14115 -1.46741 0
M  V30 3005 C 269.72 3.34612 -2.68948 0
M  V30 3006 C 268.953 4.64467 -2.6288 0
M  V30 3007 O 269.176 5.44919 -1.68581 0
M  V30 3008 O 268.11 4.87049 -3.53648 0
M  V30 3009 H 271.936 1.73174 -2.49489 0
M  V30 3010 H 269.521 0.79709 -1.2636 0
M  V30 3011 H 271.403 3.95412 -1.45696 0
M  V30 3012 H 270.078 3.19249 -0.534975 0
M  V30 3013 H 268.985 2.53014 -2.75562 0
M  V30 3014 H 270.318 3.34336 -3.61221 0
M  V30 3015 N 271.97 1.30982 0.876444 0
M  V30 3016 C 272.917 1.18085 1.98304 0
M  V30 3017 C 273.887 0.0682263 1.6596 0
M  V30 3018 O 275.072 0.239937 1.89285 0
M  V30 3019 C 272.212 0.887475 3.33493 0
M  V30 3020 C 271.325 2.08281 3.78475 0
M  V30 3021 C 270.46 1.72678 5.0235 0
M  V30 3022 C 269.499 2.88657 5.39762 0
M  V30 3023 N 268.636 2.53292 6.54819 0
M  V30 3024 H 273.476 2.1275 2.08666 0
M  V30 3025 H 271.013 1.05839 1.02159 0
M  V30 3026 H 272.971 0.697961 4.1132 0
M  V30 3027 H 271.601 -0.022315 3.22792 0
M  V30 3028 H 270.653 2.3833 2.96484 0
M  V30 3029 H 271.965 2.95108 4.02135 0
M  V30 3030 H 271.119 1.50151 5.87826 0
M  V30 3031 H 269.858 0.830327 4.8058 0
M  V30 3032 H 268.863 3.1184 4.52809 0
M  V30 3033 H 270.088 3.79002 5.63502 0
M  V30 3034 H 268.034 1.66163 6.34607 0
M  V30 3035 H 267.951 3.3365 6.7839 0
M  V30 3036 H 269.219 2.34143 7.43503 0
M  V30 3037 N 273.449 -1.08991 1.13837 0
M  V30 3038 C 274.726 -1.77863 0.813876 0
M  V30 3039 C 275.106 -1.99375 -0.693746 0
M  V30 3040 O 274.454 -1.59875 -1.63255 0
M  V30 3041 C 274.664 -3.0986 1.60586 0
M  V30 3042 C 276.012 -3.84493 1.8014 0
M  V30 3043 O 277.036 -3.19624 1.57222 0
M  V30 3044 O 275.895 -5.00957 2.18413 0
M  V30 3045 H 272.989 -0.771589 0.297624 0
M  V30 3046 H 275.535 -1.15507 1.24323 0
M  V30 3047 H 274.307 -2.89715 2.63022 0
M  V30 3048 H 273.93 -3.79942 1.17173 0
M  V30 3049 N 274.927 -0.932562 -1.27047 0
M  V30 3050 C 276.204 -0.49377 -1.89265 0
M  V30 3051 C 276.584 1.02833 -1.8436 0
M  V30 3052 O 275.932 1.88461 -1.29209 0
M  V30 3053 C 276.142 -1.04536 -3.32976 0
M  V30 3054 C 277.49 -1.10879 -4.09867 0
M  V30 3055 O 278.514 -0.995327 -3.42011 0
M  V30 3056 O 277.373 -1.28417 -5.31198 0
M  V30 3057 H 274.467 -0.159596 -0.811454 0
M  V30 3058 H 277.013 -1.02457 -1.3528 0
M  V30 3059 H 275.785 -2.08913 -3.30864 0
M  V30 3060 H 275.408 -0.496494 -3.94488 0
M  V30 3061 O 276.444 1.38103 -0.83724 0
M  V30 3062 H 277.135 1.88989 -0.424593 0
M  V30 END ATOM
M  V30 BEGIN BOND
M  V30 END BOND
M  V30 END CTAB
M  END
$$$$
