drugbank_target|P54368 Ornithine decarboxylase antizyme 1 (DB00129)
 OpenBabel12092119303D

  0  0  0     0  0            999 V3000
M  V30 BEGIN CTAB
M  V30 COUNTS 3529 3570 0 0 0
M  V30 BEGIN ATOM
M  V30 1 H -0.908 1.98254 -0.117106 0
M  V30 2 N 0 1.576 0 0
M  V30 3 C 0.933 2.03868 1.02534 0
M  V30 4 C 1.911 0.928543 1.3348 0
M  V30 5 O 3.095 1.19667 1.45644 0
M  V30 6 C 0.222 2.43627 2.35294 0
M  V30 7 C -0.732 3.65373 2.2001 0
M  V30 8 S 0.101 5.13292 1.52614 0
M  V30 9 C 1.257 5.56322 2.86805 0
M  V30 10 H 1.49 2.90518 0.631377 0
M  V30 11 H -0.977 1.52953 0.210867 0
M  V30 12 H 0.981 2.67203 3.11629 0
M  V30 13 H -0.358 1.57376 2.7183 0
M  V30 14 H -1.165 3.90944 3.18086 0
M  V30 15 H -1.563 3.418 1.51819 0
M  V30 16 H 0.729 5.58782 3.83104 0
M  V30 17 H 1.672 6.56266 2.65933 0
M  V30 18 H 2.08 4.83886 2.90714 0
M  V30 19 N 1.4781 -0.272755 1.55222 0
M  V30 20 C 2.7241 -1.00581 1.761 0
M  V30 21 C 3.0571 -1.85932 0.560625 0
M  V30 22 O 2.3321 -1.89416 -0.441801 0
M  V30 23 C 2.6151 -1.88816 3.06628 0
M  V30 24 C 2.4681 -1.06457 4.37021 0
M  V30 25 C 3.7871 -2.8752 3.33197 0
M  V30 26 H 0.9061 -0.364244 0.640699 0
M  V30 27 H 3.5481 -0.278189 1.87952 0
M  V30 28 H 1.6981 -2.50856 2.96654 0
M  V30 29 H 3.3701 -0.464863 4.58952 0
M  V30 30 H 1.6131 -0.368043 4.32236 0
M  V30 31 H 2.2841 -1.71514 5.24678 0
M  V30 32 H 4.7601 -2.35615 3.42965 0
M  V30 33 H 3.6361 -3.46399 4.25792 0
M  V30 34 H 3.8971 -3.62657 2.52849 0
M  V30 35 N 2.9562 -1.48159 -0.537278 0
M  V30 36 C 3.9032 -1.62138 -1.64256 0
M  V30 37 C 4.8732 -0.463668 -1.59497 0
M  V30 38 O 6.0582 -0.686241 -1.78032 0
M  V30 39 C 3.1982 -1.66028 -3.02537 0
M  V30 40 C 2.3112 -2.92855 -3.17585 0
M  V30 41 C 1.4462 -2.87952 -4.46382 0
M  V30 42 C 0.4852 -4.09516 -4.54932 0
M  V30 43 N -0.3778 -4.02733 -5.75109 0
M  V30 44 H 4.4622 -2.56529 -1.51647 0
M  V30 45 H 1.9992 -1.27224 -0.738414 0
M  V30 46 H 3.9572 -1.66265 -3.82638 0
M  V30 47 H 2.5872 -0.751331 -3.13934 0
M  V30 48 H 1.6392 -3.02395 -2.30784 0
M  V30 49 H 2.9512 -3.82822 -3.19764 0
M  V30 50 H 2.1052 -2.8655 -5.34765 0
M  V30 51 H 0.8442 -1.95702 -4.46712 0
M  V30 52 H -0.1508 -4.11201 -3.64957 0
M  V30 53 H 1.0742 -5.02917 -4.56346 0
M  V30 54 H -0.9798 -3.13299 -5.76351 0
M  V30 55 H -1.0628 -4.86397 -5.78752 0
M  V30 56 H 0.2052 -4.05379 -6.65799 0
M  V30 57 N 4.4343 0.785586 -1.36625 0
M  V30 58 C 5.6593 1.57963 -1.34397 0
M  V30 59 C 6.0843 1.87964 0.071526 0
M  V30 60 O 5.4423 1.48182 1.0446 0
M  V30 61 C 5.4903 2.87511 -2.17646 0
M  V30 62 O 4.5943 3.81281 -1.57158 0
M  V30 63 H 3.9353 0.479014 -0.459828 0
M  V30 64 H 6.4653 0.973411 -1.79961 0
M  V30 65 H 6.4753 3.36745 -2.30362 0
M  V30 66 H 5.1503 2.65002 -3.20541 0
M  V30 67 H 3.7273 3.39885 -1.53403 0
M  V30 68 N 5.9124 1.20967 1.01018 0
M  V30 69 C 7.1374 1.0503 1.78839 0
M  V30 70 C 7.5624 -0.395752 1.8389 0
M  V30 71 O 6.9204 -1.28529 1.27867 0
M  V30 72 C 6.9684 1.64602 3.2084 0
M  V30 73 O 6.0724 0.887988 4.02726 0
M  V30 74 H 5.4134 0.369987 0.551367 0
M  V30 75 H 7.9434 1.60399 1.27018 0
M  V30 76 H 7.9534 1.68607 3.71532 0
M  V30 77 H 6.6284 2.69841 3.16479 0
M  V30 78 H 5.2054 0.922648 3.61305 0
M  V30 79 N 7.3905 -1.2043 1.01659 0
M  V30 80 C 8.3205 -2.25466 0.607226 0
M  V30 81 C 9.3015 -1.65853 -0.377716 0
M  V30 82 O 10.4865 -1.92409 -0.263149 0
M  V30 83 C 7.6165 -3.47256 -0.0552949 0
M  V30 84 C 6.5705 -4.19462 0.850632 0
M  V30 85 C 5.8965 -5.34673 0.0538859 0
M  V30 86 C 7.1965 -4.75603 2.15868 0
M  V30 87 H 8.8905 -2.59962 1.48526 0
M  V30 88 H 6.4365 -1.2496 0.715605 0
M  V30 89 H 8.3895 -4.19917 -0.353233 0
M  V30 90 H 7.1135 -3.11924 -0.968045 0
M  V30 91 H 5.7725 -3.48667 1.13257 0
M  V30 92 H 5.4205 -4.95585 -0.860514 0
M  V30 93 H 5.1205 -5.83913 0.657192 0
M  V30 94 H 6.6445 -6.10138 -0.237598 0
M  V30 95 H 8.0585 -5.40083 1.92311 0
M  V30 96 H 6.4555 -5.3528 2.71284 0
M  V30 97 H 7.5255 -3.94346 2.82169 0
M  V30 98 N 8.8686 -0.792821 -1.36206 0
M  V30 99 C 9.8006 -0.151469 -2.28699 0
M  V30 100 C 10.8136 0.641262 -1.49638 0
M  V30 101 O 12.0026 0.475885 -1.72039 0
M  V30 102 C 9.1026 0.808424 -3.29117 0
M  V30 103 C 8.2756 0.0650202 -4.37352 0
M  V30 104 C 7.3346 0.941358 -5.17711 0
M  V30 105 O 6.3606 0.397352 -5.67811 0
M  V30 106 N 7.5626 2.2652 -5.3448 0
M  V30 107 H 10.3276 -0.945982 -2.84379 0
M  V30 108 H 7.8886 -0.647032 -1.48409 0
M  V30 109 H 9.8806 1.3986 -3.79765 0
M  V30 110 H 8.4506 1.5038 -2.74052 0
M  V30 111 H 7.6706 -0.706255 -3.87822 0
M  V30 112 H 8.9586 -0.447847 -5.06825 0
M  V30 113 H 8.3566 2.73128 -4.95396 0
M  V30 114 H 6.9136 2.80493 -5.88359 0
M  V30 115 N 10.3467 1.47872 -0.545128 0
M  V30 116 C 11.7627 1.5829 -0.204032 0
M  V30 117 C 11.9627 1.54529 1.29317 0
M  V30 118 O 11.0187 1.44232 2.07252 0
M  V30 119 C 12.3317 2.89304 -0.819987 0
M  V30 120 C 13.8797 3.02864 -0.790105 0
M  V30 121 C 14.3547 4.3656 -1.38491 0
M  V30 122 N 15.8457 4.43165 -1.34755 0
M  V30 123 C 16.5807 5.45153 -1.77753 0
M  V30 124 N 16.0767 6.54016 -2.2855 0
M  V30 125 N 17.8697 5.36125 -1.68897 0
M  V30 126 H 10.0207 1.4856 -1.51802 0
M  V30 127 H 12.2837 0.706305 -0.632327 0
M  V30 128 H 11.9897 2.97757 -1.87173 0
M  V30 129 H 11.8637 3.75957 -0.305915 0
M  V30 130 H 14.2507 2.94014 0.252913 0
M  V30 131 H 14.3317 2.17782 -1.34181 0
M  V30 132 H 13.9757 4.46164 -2.42693 0
M  V30 133 H 13.9057 5.20353 -0.808754 0
M  V30 134 H 16.3967 3.65083 -0.975855 0
M  V30 135 H 16.7097 7.27994 -2.59314 0
M  V30 136 H 15.0547 6.54938 -2.32553 0
M  V30 137 H 18.2457 4.49975 -1.28998 0
M  V30 138 H 18.4187 6.15472 -2.02726 0
M  V30 139 N 11.8248 0.280983 1.55075 0
M  V30 140 C 13.0738 -0.334784 1.98902 0
M  V30 141 C 13.3868 -1.56534 1.17288 0
M  V30 142 O 14.5928 -2.25443 1.51287 0
M  V30 143 C 13.0488 -0.646994 3.54037 0
M  V30 144 C 12.6568 0.564085 4.44435 0
M  V30 145 C 14.4008 -1.22506 4.06439 0
M  V30 146 C 12.3078 0.226137 5.90967 0
M  V30 147 H 11.2378 -0.128866 0.742906 0
M  V30 148 H 13.8888 0.386556 1.79382 0
M  V30 149 H 12.2708 -1.42739 3.6938 0
M  V30 150 H 13.4448 1.34082 4.40861 0
M  V30 151 H 11.7598 1.0594 4.02698 0
M  V30 152 H 14.3568 -1.49182 5.13468 0
M  V30 153 H 14.6998 -2.16085 3.55827 0
M  V30 154 H 15.2328 -0.50682 3.94558 0
M  V30 155 H 11.9718 1.12996 6.45687 0
M  V30 156 H 11.4918 -0.513717 5.97596 0
M  V30 157 H 13.1708 -0.179539 6.46751 0
M  V30 158 N 13.3029 -1.57598 0.00835791 0
M  V30 159 C 14.2329 -2.1198 -0.979113 0
M  V30 160 C 15.2139 -1.03091 -1.35301 0
M  V30 161 O 16.3989 -1.30818 -1.43528 0
M  V30 162 C 13.5289 -2.62995 -2.26828 0
M  V30 163 C 12.4829 -3.76485 -2.03576 0
M  V30 164 C 11.8089 -4.13846 -3.38579 0
M  V30 165 C 13.1089 -5.0342 -1.39161 0
M  V30 166 H 14.8029 -2.94738 -0.526281 0
M  V30 167 H 12.3489 -1.41783 -0.251704 0
M  V30 168 H 14.3019 -2.99669 -2.96271 0
M  V30 169 H 13.0259 -1.7737 -2.7424 0
M  V30 170 H 11.6849 -3.40217 -1.36557 0
M  V30 171 H 11.3329 -3.25232 -3.83709 0
M  V30 172 H 11.0329 -4.90312 -3.23834 0
M  V30 173 H 12.5569 -4.53086 -4.09323 0
M  V30 174 H 13.9709 -5.37812 -1.98573 0
M  V30 175 H 12.3679 -5.84746 -1.34878 0
M  V30 176 H 13.4379 -4.83548 -0.361868 0
M  V30 177 N 14.781 0.264519 -1.55364 0
M  V30 178 C 15.729 1.34702 -1.89626 0
M  V30 179 C 16.723 1.50712 -0.773459 0
M  V30 180 O 17.929 1.52395 -0.957897 0
M  V30 181 H 14.304 0.450682 -0.601988 0
M  V30 182 H 16.275 1.0306 -2.80038 0
M  V30 183 C 15.024 2.6989 -2.19214 0
M  V30 184 H 14.347 2.58365 -3.05103 0
M  V30 185 H 15.787 3.44553 -2.47102 0
M  V30 186 C 14.246 3.21637 -1.00254 0
M  V30 187 O 14.776 4.00973 -0.241501 0
M  V30 188 N 12.982 2.7943 -0.797938 0
M  V30 189 H 12.529 2.15026 -1.4185 0
M  V30 190 H 12.487 3.144 -0.00363422 0
M  V30 191 N 16.2591 1.48442 0.529413 0
M  V30 192 C 17.4841 1.60406 1.31471 0
M  V30 193 C 17.9091 0.264738 1.86228 0
M  V30 194 O 17.2671 -0.763668 1.64432 0
M  V30 195 C 17.3151 2.65419 2.44101 0
M  V30 196 O 16.4191 2.22618 3.47153 0
M  V30 197 H 15.7601 0.537863 0.389357 0
M  V30 198 H 18.2901 1.94432 0.636965 0
M  V30 199 H 18.3001 2.86709 2.90279 0
M  V30 200 H 16.9751 3.62652 2.03608 0
M  V30 201 H 15.5521 2.11543 3.0709 0
M  V30 202 N 17.7372 -0.778329 1.37039 0
M  V30 203 C 18.6872 -1.88142 1.28789 0
M  V30 204 C 19.6712 -1.59923 0.177063 0
M  V30 205 O 20.8632 -1.72165 0.410873 0
M  V30 206 C 17.9922 -3.25518 1.09055 0
M  V30 207 C 17.0782 -3.5971 2.24654 0
M  V30 208 N 17.4692 -3.65131 3.50018 0
M  V30 209 C 15.7672 -3.89837 2.16663 0
M  V30 210 C 16.4682 -3.95882 4.26207 0
M  V30 211 N 15.4442 -4.11441 3.55271 0
M  V30 212 H 19.2462 -1.90575 2.23737 0
M  V30 213 H 16.7602 -0.974435 1.29917 0
M  V30 214 H 18.7572 -4.04423 1.0123 0
M  V30 215 H 17.4172 -3.24353 0.15018 0
M  V30 216 H 18.4282 -3.475 3.84011 0
M  V30 217 H 15.1052 -3.96533 1.30645 0
M  V30 218 H 16.4952 -4.06907 5.34674 0
M  V30 219 N 19.2153 -1.21501 -1.00376 0
M  V30 220 C 20.4553 -1.04444 -1.75701 0
M  V30 221 C 20.8193 0.414644 -1.87469 0
M  V30 222 O 22.0203 0.705763 -2.59369 0
M  V30 223 C 20.2913 -1.72389 -3.13077 0
M  V30 224 S 21.8503 -1.70604 -4.04277 0
M  V30 225 H 18.6683 -0.374249 -0.604532 0
M  V30 226 H 21.2703 -1.54267 -1.20091 0
M  V30 227 H 19.9743 -2.77734 -3.02146 0
M  V30 228 H 19.5053 -1.22751 -3.73759 0
M  V30 229 H 21.5203 -0.748012 -4.9053 0
M  V30 230 N 20.6934 1.19889 -1.02296 0
M  V30 231 C 21.9404 1.8942 -0.715972 0
M  V30 232 C 22.2684 1.79251 0.754944 0
M  V30 233 O 21.5234 1.17526 1.56481 0
M  V30 234 C 21.8224 3.39883 -1.10518 0
M  V30 235 C 21.4884 3.70254 -2.57337 0
M  V30 236 C 20.1504 3.78254 -2.97452 0
M  V30 237 C 22.5024 3.84052 -3.52354 0
M  V30 238 C 19.8304 3.97514 -4.31509 0
M  V30 239 C 22.1824 4.04824 -4.86108 0
M  V30 240 C 20.8464 4.11054 -5.25919 0
M  V30 241 H 20.1164 0.693138 -0.261993 0
M  V30 242 H 22.7634 1.42012 -1.28472 0
M  V30 243 H 21.0684 3.8915 -0.454953 0
M  V30 244 H 22.7654 3.9199 -0.845261 0
M  V30 245 H 19.3554 3.64632 -2.25258 0
M  V30 246 H 23.5394 3.77221 -3.22518 0
M  V30 247 H 18.7954 4.00574 -4.61898 0
M  V30 248 H 22.9694 4.14442 -5.59653 0
M  V30 249 H 20.5964 4.2573 -6.29808 0
M  V30 250 N 22.1715 0.800033 1.35784 0
M  V30 251 C 23.1345 0.211565 2.28221 0
M  V30 252 C 24.1345 -0.59728 1.49296 0
M  V30 253 O 25.3245 -0.416721 1.69142 0
M  V30 254 C 22.4565 -0.705846 3.33513 0
M  V30 255 H 23.6495 1.02677 2.81776 0
M  V30 256 H 21.2025 0.570211 1.45528 0
M  V30 257 H 21.9375 -1.54498 2.85133 0
M  V30 258 H 21.7225 -0.127655 3.91892 0
M  V30 259 H 23.2125 -1.11211 4.02519 0
M  V30 260 N 23.6496 -1.47581 0.552962 0
M  V30 261 C 25.0656 -1.5818 0.212424 0
M  V30 262 C 25.2656 -1.55213 -1.28496 0
M  V30 263 O 24.3216 -1.45329 -2.06484 0
M  V30 264 C 25.6346 -2.88865 0.835318 0
M  V30 265 C 27.1826 -3.0244 0.806156 0
M  V30 266 C 27.6576 -4.35819 1.40804 0
M  V30 267 N 29.1486 -4.42444 1.37103 0
M  V30 268 C 29.8836 -5.44202 1.80641 0
M  V30 269 N 29.3796 -6.52795 2.32015 0
M  V30 270 N 31.1726 -5.35222 1.71738 0
M  V30 271 H 23.3236 -1.47753 1.52587 0
M  V30 272 H 25.5866 -0.702941 0.636064 0
M  V30 273 H 25.2926 -2.9676 1.88749 0
M  V30 274 H 25.1666 -3.7579 0.325848 0
M  V30 275 H 27.5536 -2.94144 -0.237317 0
M  V30 276 H 27.6346 -2.17068 1.35334 0
M  V30 277 H 27.2786 -4.44871 2.45056 0
M  V30 278 H 27.2086 -5.19916 0.836338 0
M  V30 279 H 29.6996 -3.6456 0.995202 0
M  V30 280 H 30.0126 -7.26609 2.63171 0
M  V30 281 H 28.3576 -6.53696 2.36023 0
M  V30 282 H 31.5486 -4.49284 1.31382 0
M  V30 283 H 31.7216 -6.14389 2.05987 0
M  V30 284 N 25.1277 -0.289203 -1.54924 0
M  V30 285 C 26.0377 0.601863 -2.26748 0
M  V30 286 C 27.0537 1.15834 -1.2984 0
M  V30 287 O 28.2297 1.18564 -1.62802 0
M  V30 288 C 25.2947 1.76299 -2.98529 0
M  V30 289 C 24.3557 1.24178 -4.10948 0
M  V30 290 C 23.5887 2.34757 -4.79296 0
M  V30 291 O 23.8117 3.54411 -4.46933 0
M  V30 292 O 22.7457 2.02115 -5.66951 0
M  V30 293 H 26.5717 0.0195879 -3.03694 0
M  V30 294 H 24.1567 -0.0560868 -1.49295 0
M  V30 295 H 26.0387 2.43973 -3.43592 0
M  V30 296 H 24.7137 2.33209 -2.24488 0
M  V30 297 H 23.6207 0.531104 -3.70311 0
M  V30 298 H 24.9537 0.718252 -4.86931 0
M  V30 299 N 26.6058 1.57591 -0.0167156 0
M  V30 300 C 27.5528 2.09462 0.969251 0
M  V30 301 C 28.5228 0.99381 1.33089 0
M  V30 302 O 29.7078 1.26726 1.42636 0
M  V30 303 C 26.8478 2.61622 2.25051 0
M  V30 304 C 25.9608 3.85666 1.94642 0
M  V30 305 C 25.0958 4.26266 3.16972 0
M  V30 306 C 24.1348 5.43101 2.82326 0
M  V30 307 N 23.2718 5.78915 3.97243 0
M  V30 308 H 28.1118 2.93428 0.519997 0
M  V30 309 H 25.6488 1.45044 0.245087 0
M  V30 310 H 27.6068 2.89949 2.99976 0
M  V30 311 H 26.2368 1.80505 2.67615 0
M  V30 312 H 25.2888 3.64145 1.10013 0
M  V30 313 H 26.6008 4.70678 1.65117 0
M  V30 314 H 25.7548 4.55963 4.00228 0
M  V30 315 H 24.4938 3.39996 3.49648 0
M  V30 316 H 23.4988 5.1311 1.97479 0
M  V30 317 H 24.7238 6.3106 2.50879 0
M  V30 318 H 22.6698 4.95602 4.29785 0
M  V30 319 H 22.5868 6.58539 3.71299 0
M  V30 320 H 23.8548 6.13212 4.81239 0
M  V30 321 N 28.0839 -0.256276 1.55502 0
M  V30 322 C 28.9939 -1.33882 1.92647 0
M  V30 323 C 30.0099 -1.53159 0.825727 0
M  V30 324 O 31.1859 -1.66963 1.12629 0
M  V30 325 C 28.2509 -2.6751 2.20543 0
M  V30 326 C 27.3119 -2.56836 3.43997 0
M  V30 327 C 26.5449 -3.84092 3.70553 0
M  V30 328 O 26.7679 -4.85545 2.99336 0
M  V30 329 O 25.7019 -3.83288 4.64084 0
M  V30 330 H 29.5279 -1.05374 2.84833 0
M  V30 331 H 27.1129 -0.456237 1.42263 0
M  V30 332 H 28.9949 -3.46492 2.39835 0
M  V30 333 H 27.6699 -2.9577 1.31536 0
M  V30 334 H 26.5769 -1.76172 3.30021 0
M  V30 335 H 27.9099 -2.33523 4.33275 0
M  V30 336 N 29.562 -1.4872 -0.521534 0
M  V30 337 C 30.81 -1.56857 -1.27437 0
M  V30 338 C 31.131 -0.247982 -1.93417 0
M  V30 339 O 30.401 0.731151 -1.81744 0
M  V30 340 H 28.981 -0.577885 -0.473347 0
M  V30 341 H 31.643 -1.85233 -0.606205 0
M  V30 342 H 30.739 -2.35402 -2.0492 0
M  V30 343 N 31.0401 0.771051 -1.3745 0
M  V30 344 C 32.3171 1.519 -1.23231 0
M  V30 345 C 32.6971 2.10383 0.173809 0
M  V30 346 O 32.0451 1.95583 1.18151 0
M  V30 347 C 32.2551 2.59933 -2.32886 0
M  V30 348 C 33.6031 3.27316 -2.70461 0
M  V30 349 O 34.6271 2.70228 -2.32068 0
M  V30 350 O 33.4861 4.30531 -3.36608 0
M  V30 351 H 30.5801 0.672803 -0.480901 0
M  V30 352 H 33.1261 0.807957 -1.49232 0
M  V30 353 H 31.8981 2.14842 -3.27045 0
M  V30 354 H 31.5211 3.38637 -2.08353 0
M  V30 355 N 32.5182 1.22032 0.997298 0
M  V30 356 C 33.4652 0.986467 2.08656 0
M  V30 357 C 34.4352 -0.0902671 1.65855 0
M  V30 358 O 35.6202 0.0584294 1.90711 0
M  V30 359 C 32.7602 0.565569 3.40434 0
M  V30 360 C 31.8732 1.71259 3.96604 0
M  V30 361 C 31.0082 1.24011 5.16522 0
M  V30 362 C 30.0472 2.35896 5.64818 0
M  V30 363 N 29.1842 1.89726 6.7598 0
M  V30 364 H 34.0242 1.91892 2.27994 0
M  V30 365 H 31.5612 0.956199 1.11782 0
M  V30 366 H 33.5192 0.302738 4.161 0
M  V30 367 H 32.1492 -0.329879 3.2111 0
M  V30 368 H 31.2012 2.08986 3.17851 0
M  V30 369 H 32.5132 2.55436 4.28432 0
M  V30 370 H 31.6672 0.934395 5.99461 0
M  V30 371 H 30.4062 0.368487 4.86306 0
M  V30 372 H 29.4112 2.67261 4.8047 0
M  V30 373 H 30.6362 3.23567 5.97061 0
M  V30 374 H 28.5822 1.0492 6.47555 0
M  V30 375 H 28.4992 2.67471 7.07103 0
M  V30 376 H 29.7672 1.62211 7.62435 0
M  V30 377 N 33.9963 -1.19345 1.0293 0
M  V30 378 C 35.4073 -1.70725 0.755633 0
M  V30 379 C 35.7583 -1.82326 -0.724676 0
M  V30 380 O 34.8833 -1.49471 -1.56484 0
M  V30 381 C 35.4783 -3.10084 1.36503 0
M  V30 382 C 34.0373 -3.58723 1.13994 0
M  V30 383 C 33.1843 -2.35577 1.46283 0
M  V30 384 H 36.1353 -1.0418 1.19718 0
M  V30 385 H 36.1563 -3.72787 0.762217 0
M  V30 386 H 35.6683 -3.01609 2.44241 0
M  V30 387 H 33.7693 -3.72512 0.0807901 0
M  V30 388 H 33.8823 -4.42816 1.82894 0
M  V30 389 H 32.2463 -2.38935 0.88217 0
M  V30 390 H 33.0293 -2.29731 2.55105 0
M  V30 391 N 35.4744 -0.807222 -1.35358 0
M  V30 392 C 36.6994 -0.399309 -2.0352 0
M  V30 393 C 37.1244 0.981986 -1.60433 0
M  V30 394 O 36.4824 1.63601 -0.781299 0
M  V30 395 C 36.5304 -0.491552 -3.57234 0
M  V30 396 O 35.6344 0.494754 -4.09421 0
M  V30 397 H 34.9754 -0.166682 -0.642739 0
M  V30 398 H 37.5054 -1.09328 -1.72941 0
M  V30 399 H 37.5154 -0.361588 -4.06395 0
M  V30 400 H 36.1904 -1.49907 -3.87944 0
M  V30 401 H 34.7674 0.324977 -3.71481 0
M  V30 402 N 36.9525 1.47285 -0.560781 0
M  V30 403 C 37.9155 2.28535 0.174488 0
M  V30 404 C 38.9155 1.37153 0.839388 0
M  V30 405 O 40.1055 1.59748 0.694702 0
M  V30 406 C 37.2375 3.16934 1.25561 0
M  V30 407 H 38.4305 2.95012 -0.539262 0
M  V30 408 H 35.9835 1.53034 -0.317865 0
M  V30 409 H 36.7185 2.55157 2.00164 0
M  V30 410 H 36.5035 3.8419 0.783604 0
M  V30 411 H 37.9935 3.78143 1.77193 0
M  V30 412 N 38.4306 0.297415 1.54768 0
M  V30 413 C 39.6586 -0.315623 2.04478 0
M  V30 414 C 40.0736 -1.47792 1.17486 0
M  V30 415 O 39.4306 -1.81404 0.19971 0
M  V30 416 C 39.4816 -0.7753 3.53088 0
M  V30 417 O 39.2026 0.340732 4.36773 0
M  V30 418 C 40.7036 -1.45386 4.18781 0
M  V30 419 H 37.9236 -0.0690887 0.667434 0
M  V30 420 H 40.4676 0.436003 1.99798 0
M  V30 421 H 38.6226 -1.47696 3.58141 0
M  V30 422 H 39.0366 -0.0165035 5.24497 0
M  V30 423 H 40.5106 -1.72669 5.24299 0
M  V30 424 H 40.9876 -2.39275 3.68299 0
M  V30 425 H 41.5936 -0.795475 4.17795 0
M  V30 426 N 39.9087 -1.5758 0.0250728 0
M  V30 427 C 41.1577 -1.90811 -0.653767 0
M  V30 428 C 41.4707 -0.90273 -1.73523 0
M  V30 429 O 42.6767 -1.12614 -2.47043 0
M  V30 430 C 41.1327 -3.38804 -1.21409 0
M  V30 431 C 40.7407 -4.47692 -0.166126 0
M  V30 432 C 42.4847 -3.81108 -1.86967 0
M  V30 433 C 40.3917 -5.86779 -0.737856 0
M  V30 434 H 39.3217 -0.712063 -0.247956 0
M  V30 435 H 41.9727 -1.83281 0.0897137 0
M  V30 436 H 40.3547 -3.41252 -2.00905 0
M  V30 437 H 41.5287 -4.56797 0.606079 0
M  V30 438 H 39.8437 -4.14565 0.390466 0
M  V30 439 H 42.4407 -4.82375 -2.30692 0
M  V30 440 H 42.7837 -3.15953 -2.71071 0
M  V30 441 H 43.3167 -3.81065 -1.14167 0
M  V30 442 H 40.0557 -6.55468 0.0649577 0
M  V30 443 H 39.5757 -5.81288 -1.47864 0
M  V30 444 H 41.2547 -6.35223 -1.22884 0
M  V30 445 N 41.3868 0.248026 -1.55636 0
M  V30 446 C 42.3368 1.30994 -1.86614 0
M  V30 447 C 43.3208 1.43543 -0.726918 0
M  V30 448 O 44.5128 1.46804 -0.988818 0
M  V30 449 C 41.6418 2.6656 -2.16335 0
M  V30 450 C 40.7278 2.58019 -3.36581 0
M  V30 451 N 41.1188 2.1911 -4.55878 0
M  V30 452 C 39.4168 2.89035 -3.39669 0
M  V30 453 C 40.1178 2.21174 -5.38012 0
M  V30 454 N 39.0938 2.60632 -4.77045 0
M  V30 455 H 42.8958 0.999583 -2.76379 0
M  V30 456 H 40.4098 0.456652 -1.55848 0
M  V30 457 H 42.4068 3.43194 -2.36692 0
M  V30 458 H 41.0668 2.98463 -1.27867 0
M  V30 459 H 42.0778 1.90672 -4.81523 0
M  V30 460 H 38.7548 3.25485 -2.61469 0
M  V30 461 H 40.1448 1.9344 -6.43452 0
M  V30 462 N 42.8649 1.48995 0.513639 0
M  V30 463 C 43.8279 1.64229 1.59879 0
M  V30 464 C 44.8279 0.514696 1.5234 0
M  V30 465 O 46.0179 0.78087 1.55718 0
M  V30 466 C 43.1499 1.62783 2.99524 0
M  V30 467 H 44.3429 2.61004 1.47705 0
M  V30 468 H 41.8959 1.37837 0.736936 0
M  V30 469 H 42.6309 0.675461 3.17188 0
M  V30 470 H 42.4159 2.4466 3.06404 0
M  V30 471 H 43.9059 1.76669 3.78388 0
M  V30 472 N 44.343 -0.763751 1.37857 0
M  V30 473 C 45.568 -1.55805 1.36893 0
M  V30 474 C 45.993 -1.88054 -0.0416135 0
M  V30 475 O 45.351 -1.49825 -1.02089 0
M  V30 476 C 45.399 -2.84012 2.22192 0
M  V30 477 O 44.503 -3.78732 1.63204 0
M  V30 478 H 43.844 -0.471638 0.46739 0
M  V30 479 H 46.374 -0.944657 1.81487 0
M  V30 480 H 46.384 -3.33037 2.35691 0
M  V30 481 H 45.059 -2.59869 3.24716 0
M  V30 482 H 43.636 -3.37402 1.58791 0
M  V30 483 N 45.8211 -1.22559 -0.990812 0
M  V30 484 C 47.2371 -0.985996 -1.255 0
M  V30 485 C 47.4371 0.319173 -1.98956 0
M  V30 486 O 46.4931 1.04127 -2.3003 0
M  V30 487 C 47.8061 -2.18607 -2.06474 0
M  V30 488 C 49.3541 -2.22985 -2.19651 0
M  V30 489 C 49.8291 -3.4255 -3.04012 0
M  V30 490 N 51.3201 -3.42725 -3.11599 0
M  V30 491 C 52.0551 -4.31892 -3.7717 0
M  V30 492 N 51.5511 -5.31279 -4.44651 0
M  V30 493 N 53.3441 -4.19662 -3.73952 0
M  V30 494 H 45.4951 -2.06469 -0.49841 0
M  V30 495 H 47.7581 -0.904853 -0.282747 0
M  V30 496 H 47.4641 -3.13267 -1.59865 0
M  V30 497 H 47.3381 -2.18838 -3.07229 0
M  V30 498 H 49.7251 -1.28871 -2.65474 0
M  V30 499 H 49.8061 -2.26791 -1.18319 0
M  V30 500 H 49.4501 -4.36965 -2.58889 0
M  V30 501 H 49.3801 -3.35984 -4.0549 0
M  V30 502 H 51.8711 -2.70807 -2.63575 0
M  V30 503 H 52.1841 -5.95593 -4.92431 0
M  V30 504 H 50.5291 -5.3519 -4.43392 0
M  V30 505 H 53.7201 -3.41268 -3.20396 0
M  V30 506 H 53.8931 -4.89358 -4.24774 0
M  V30 507 N 47.2992 1.18797 -1.03562 0
M  V30 508 C 48.5272 1.92599 -0.755869 0
M  V30 509 C 48.9422 1.75886 0.686271 0
M  V30 510 O 48.2992 1.08517 1.46732 0
M  V30 511 C 48.3502 3.44159 -1.10619 0
M  V30 512 O 48.0712 3.60341 -2.4917 0
M  V30 513 C 49.5722 4.3507 -0.850214 0
M  V30 514 H 46.7922 0.611587 -0.276048 0
M  V30 515 H 49.3362 1.50742 -1.38192 0
M  V30 516 H 47.4912 3.83823 -0.525194 0
M  V30 517 H 47.9052 4.54128 -2.62427 0
M  V30 518 H 49.3792 5.39989 -1.14523 0
M  V30 519 H 49.8562 4.38673 0.215176 0
M  V30 520 H 50.4622 4.01097 -1.41426 0
M  V30 521 N 48.7773 0.814389 1.34928 0
M  V30 522 C 49.7103 0.175641 2.27523 0
M  V30 523 C 50.6883 -0.662953 1.48471 0
M  V30 524 O 51.8723 -0.628545 1.77712 0
M  V30 525 C 48.9993 -0.755516 3.30166 0
M  V30 526 C 48.0453 0.00445305 4.265 0
M  V30 527 S 48.8783 1.34582 5.18313 0
M  V30 528 C 50.0343 0.419315 6.24494 0
M  V30 529 H 50.2673 0.960691 2.8135 0
M  V30 530 H 47.8003 0.609846 1.41846 0
M  V30 531 H 49.7583 -1.28723 3.89796 0
M  V30 532 H 48.4193 -1.51402 2.75202 0
M  V30 533 H 47.6123 -0.703077 4.99072 0
M  V30 534 H 47.2143 0.466447 3.7108 0
M  V30 535 H 49.5063 -0.392432 6.76362 0
M  V30 536 H 50.4493 1.11446 6.99275 0
M  V30 537 H 50.8573 0.0115389 5.64499 0
M  V30 538 N 50.2554 -1.46986 0.568584 0
M  V30 539 C 51.6664 -1.86188 0.138219 0
M  V30 540 C 52.0174 -1.47388 -1.29504 0
M  V30 541 O 51.1424 -0.88219 -1.97602 0
M  V30 542 C 51.7374 -3.3792 0.244065 0
M  V30 543 C 50.2964 -3.76171 -0.131335 0
M  V30 544 C 49.4434 -2.71027 0.586465 0
M  V30 545 H 52.3944 -1.38342 0.777645 0
M  V30 546 H 52.4154 -3.76729 -0.534351 0
M  V30 547 H 51.9274 -3.66128 1.28731 0
M  V30 548 H 50.0284 -3.5358 -1.17526 0
M  V30 549 H 50.1414 -4.78523 0.235146 0
M  V30 550 H 48.5054 -2.54684 0.0282722 0
M  V30 551 H 49.2884 -3.02077 1.63109 0
M  V30 552 N 51.7335 -0.305618 -1.54608 0
M  V30 553 C 52.6635 0.561482 -2.26649 0
M  V30 554 C 53.6445 1.13415 -1.26772 0
M  V30 555 O 54.8295 1.16262 -1.55553 0
M  V30 556 C 51.9595 1.73122 -3.01075 0
M  V30 557 C 50.9135 1.2887 -4.08138 0
M  V30 558 C 50.2395 2.54396 -4.70305 0
M  V30 559 C 51.5395 0.416578 -5.20636 0
M  V30 560 H 53.2335 -0.0393902 -2.99374 0
M  V30 561 H 50.7795 -0.020385 -1.43986 0
M  V30 562 H 52.7325 2.34396 -3.50195 0
M  V30 563 H 51.4565 2.3584 -2.25936 0
M  V30 564 H 50.1155 0.698991 -3.59875 0
M  V30 565 H 49.7635 3.15439 -3.918 0
M  V30 566 H 49.4635 2.25486 -5.42614 0
M  V30 567 H 50.9875 3.16464 -5.2219 0
M  V30 568 H 52.4015 0.935116 -5.65622 0
M  V30 569 H 50.7985 0.221046 -5.99693 0
M  V30 570 H 51.8685 -0.557162 -4.81688 0
M  V30 571 N 53.2116 1.57565 -0.0334293 0
M  V30 572 C 54.1416 2.13511 0.945265 0
M  V30 573 C 55.1226 1.05231 1.33643 0
M  V30 574 O 56.3076 1.33084 1.41429 0
M  V30 575 C 53.4376 2.6657 2.22616 0
M  V30 576 C 52.3916 3.79676 1.97561 0
M  V30 577 C 51.7176 4.1918 3.31952 0
M  V30 578 C 53.0176 5.0557 1.31135 0
M  V30 579 H 54.7116 2.95538 0.479325 0
M  V30 580 H 52.2576 1.42166 0.229115 0
M  V30 581 H 54.2106 3.04344 2.91466 0
M  V30 582 H 52.9346 1.8171 2.71384 0
M  V30 583 H 51.5936 3.42347 1.31127 0
M  V30 584 H 51.2416 3.31296 3.78487 0
M  V30 585 H 50.9416 4.95402 3.15992 0
M  V30 586 H 52.4656 4.59541 4.02063 0
M  V30 587 H 53.8796 5.40903 1.89992 0
M  V30 588 H 52.2766 5.86818 1.25559 0
M  V30 589 H 53.3466 4.84062 0.284894 0
M  V30 590 N 54.6897 -0.239769 1.55765 0
M  V30 591 C 55.9147 -0.988373 1.82335 0
M  V30 592 C 56.3397 -1.77886 0.611421 0
M  V30 593 O 55.6977 -1.75889 -0.439639 0
M  V30 594 C 55.7457 -1.89627 3.06715 0
M  V30 595 O 54.8497 -2.98904 2.84131 0
M  V30 596 H 54.1907 -0.280858 0.601677 0
M  V30 597 H 56.7207 -0.258597 2.02959 0
M  V30 598 H 56.7307 -2.30957 3.36338 0
M  V30 599 H 55.4057 -1.31511 3.9456 0
M  V30 600 H 53.9827 -2.61651 2.65694 0
M  V30 601 N 56.1678 -1.49265 -0.50573 0
M  V30 602 C 57.0978 -1.68495 -1.61653 0
M  V30 603 C 58.0788 -0.53366 -1.61512 0
M  V30 604 O 59.2638 -0.76897 -1.78327 0
M  V30 605 C 56.3938 -1.74709 -3.00157 0
M  V30 606 C 55.3478 -2.89581 -3.15162 0
M  V30 607 C 54.6738 -2.80903 -4.5497 0
M  V30 608 C 55.9738 -4.30578 -2.95634 0
M  V30 609 H 57.6678 -2.61493 -1.45814 0
M  V30 610 H 55.2138 -1.25838 -0.70005 0
M  V30 611 H 57.1668 -1.86748 -3.77761 0
M  V30 612 H 55.8908 -0.783067 -3.17074 0
M  V30 613 H 54.5498 -2.77136 -2.39982 0
M  V30 614 H 54.1978 -1.82419 -4.68756 0
M  V30 615 H 53.8978 -3.57999 -4.65951 0
M  V30 616 H 55.4218 -2.94944 -5.34641 0
M  V30 617 H 56.8358 -4.4373 -3.63011 0
M  V30 618 H 55.2328 -5.0886 -3.18091 0
M  V30 619 H 56.3028 -4.45352 -1.91806 0
M  V30 620 N 57.6459 0.756429 -1.3826 0
M  V30 621 C 58.5959 1.86069 -1.31766 0
M  V30 622 C 59.5799 1.59621 -0.202483 0
M  V30 623 O 60.7719 1.7149 -0.438211 0
M  V30 624 C 57.9009 3.23742 -1.1422 0
M  V30 625 C 56.9869 3.56091 -2.30348 0
M  V30 626 N 57.3779 3.59517 -3.55783 0
M  V30 627 C 55.6759 3.86341 -2.22838 0
M  V30 628 C 56.3769 3.89052 -4.32451 0
M  V30 629 N 55.3529 4.05736 -3.61772 0
M  V30 630 H 59.1549 1.86992 -2.26741 0
M  V30 631 H 56.6689 0.953643 -1.31451 0
M  V30 632 H 58.6659 4.02761 -1.07652 0
M  V30 633 H 57.3259 3.24073 -0.201763 0
M  V30 634 H 58.3369 3.41347 -3.89491 0
M  V30 635 H 55.0139 3.94404 -1.36937 0
M  V30 636 H 56.4039 3.98349 -5.4108 0
M  V30 637 N 59.124 1.23083 0.984299 0
M  V30 638 C 60.349 1.088 1.76571 0
M  V30 639 C 60.774 -0.356657 1.84688 0
M  V30 640 O 60.132 -1.25788 1.30565 0
M  V30 641 C 60.18 1.71371 3.17277 0
M  V30 642 O 59.284 0.973213 4.00752 0
M  V30 643 H 58.625 0.381599 0.543395 0
M  V30 644 H 61.155 1.63057 1.23587 0
M  V30 645 H 61.165 1.76449 3.67872 0
M  V30 646 H 59.84 2.76493 3.10684 0
M  V30 647 H 58.417 0.999078 3.59267 0
M  V30 648 N 60.6021 -1.18246 1.0419 0
M  V30 649 C 62.0181 -1.40269 0.761366 0
M  V30 650 C 62.2181 -1.90777 -0.648578 0
M  V30 651 O 61.2741 -2.0929 -1.41258 0
M  V30 652 C 62.5871 -2.40237 1.8085 0
M  V30 653 C 64.1351 -2.53961 1.82955 0
M  V30 654 C 64.6101 -3.57194 2.86664 0
M  V30 655 N 66.1011 -3.64702 2.85563 0
M  V30 656 C 66.8361 -4.44309 3.6246 0
M  V30 657 N 66.3321 -5.27514 4.49111 0
M  V30 658 N 68.1251 -4.39084 3.50944 0
M  V30 659 H 60.2761 -0.837882 1.95175 0
M  V30 660 H 62.5391 -0.430608 0.84456 0
M  V30 661 H 62.2451 -2.10176 2.81991 0
M  V30 662 H 62.1191 -3.39601 1.64168 0
M  V30 663 H 64.5061 -2.83338 0.824855 0
M  V30 664 H 64.5871 -1.54706 2.03715 0
M  V30 665 H 64.2311 -3.28558 3.87314 0
M  V30 666 H 64.1611 -4.5613 2.6316 0
M  V30 667 H 66.6521 -3.05289 2.22727 0
M  V30 668 H 66.9651 -5.85411 5.04493 0
M  V30 669 H 65.3101 -5.2693 4.53178 0
M  V30 670 H 68.5011 -3.7313 2.82651 0
M  V30 671 H 68.6741 -5.00883 4.11121 0
M  V30 672 N 62.0802 -0.821533 -1.34494 0
M  V30 673 C 63.3282 -0.408139 -1.97936 0
M  V30 674 C 63.6492 1.03193 -1.65457 0
M  V30 675 O 62.9192 1.71622 -0.944595 0
M  V30 676 H 61.4992 -0.147928 -0.732206 0
M  V30 677 H 64.1612 -1.05067 -1.64155 0
M  V30 678 H 63.2572 -0.52601 -3.07635 0
M  V30 679 N 63.5583 1.46682 -0.576371 0
M  V30 680 C 64.8063 2.02013 -0.0594163 0
M  V30 681 C 65.1273 1.45101 1.30271 0
M  V30 682 O 64.3973 0.633317 1.8538 0
M  V30 683 H 62.9773 0.746759 -0.0189745 0
M  V30 684 H 65.6393 1.79862 -0.750717 0
M  V30 685 H 64.7353 3.12097 0.014345 0
M  V30 686 N 65.0364 0.313813 1.54444 0
M  V30 687 C 66.2614 -0.296681 2.05267 0
M  V30 688 C 66.6864 -1.45757 1.18897 0
M  V30 689 O 66.0444 -1.80239 0.195886 0
M  V30 690 C 66.0924 -0.71831 3.53373 0
M  V30 691 O 65.1964 -1.82175 3.69981 0
M  V30 692 H 64.5374 -0.0554061 0.661684 0
M  V30 693 H 67.0674 0.459387 1.99376 0
M  V30 694 H 67.0774 -1.00364 3.95463 0
M  V30 695 H 65.7524 0.130821 4.15694 0
M  V30 696 H 64.3294 -1.53598 3.39797 0
M  V30 697 N 66.5145 -1.57545 0.0417849 0
M  V30 698 C 67.7395 -1.97035 -0.647455 0
M  V30 699 C 68.1645 -0.918775 -1.64135 0
M  V30 700 O 67.5225 0.119006 -1.80909 0
M  V30 701 C 67.5705 -3.35609 -1.31905 0
M  V30 702 O 66.6745 -3.3287 -2.43457 0
M  V30 703 H 66.0155 -0.64211 -0.169086 0
M  V30 704 H 68.5455 -2.04318 0.107399 0
M  V30 705 H 68.5555 -3.72126 -1.67291 0
M  V30 706 H 67.2305 -4.11685 -0.590586 0
M  V30 707 H 65.8075 -3.08087 -2.10088 0
M  V30 708 N 67.9926 0.231505 -1.5589 0
M  V30 709 C 69.2176 0.978689 -1.82856 0
M  V30 710 C 69.6426 1.77559 -0.620846 0
M  V30 711 O 69.0006 1.76119 0.430305 0
M  V30 712 C 69.0486 1.87997 -3.07716 0
M  V30 713 O 68.1526 2.97393 -2.85712 0
M  V30 714 H 67.4936 0.277663 -0.603158 0
M  V30 715 H 70.0236 0.24783 -2.03093 0
M  V30 716 H 70.0336 2.2917 -3.37558 0
M  V30 717 H 68.7086 1.29417 -3.95252 0
M  V30 718 H 67.2856 2.60238 -2.67078 0
M  V30 719 N 69.4707 1.49531 0.497807 0
M  V30 720 C 70.3807 1.69176 1.62532 0
M  V30 721 C 71.3967 0.5744 1.64246 0
M  V30 722 O 72.5727 0.849497 1.82608 0
M  V30 723 C 69.6377 1.75695 2.98885 0
M  V30 724 C 68.6987 2.9929 3.07773 0
M  V30 725 C 67.9317 3.05488 4.37622 0
M  V30 726 O 68.1547 2.19192 5.26603 0
M  V30 727 O 67.0887 3.9798 4.51548 0
M  V30 728 H 70.9147 2.647 1.48887 0
M  V30 729 H 68.4997 1.3331 0.674441 0
M  V30 730 H 70.3817 1.82317 3.79919 0
M  V30 731 H 69.0567 0.8335 3.12785 0
M  V30 732 H 67.9637 2.98183 2.25915 0
M  V30 733 H 69.2967 3.91125 2.98801 0
M  V30 734 N 70.9488 -0.749086 1.3866 0
M  V30 735 C 72.1738 -1.54344 1.38538 0
M  V30 736 C 72.5988 -1.88088 -0.0216655 0
M  V30 737 O 71.9568 -1.50899 -1.00494 0
M  V30 738 C 72.0048 -2.8164 2.25192 0
M  V30 739 O 71.1088 -3.7698 1.67212 0
M  V30 740 H 70.4498 -0.466654 0.472367 0
M  V30 741 H 72.9798 -0.925355 1.82478 0
M  V30 742 H 72.9898 -3.30519 2.3921 0
M  V30 743 H 71.6648 -2.56411 3.27454 0
M  V30 744 H 70.2418 -3.35699 1.6236 0
M  V30 745 N 72.4269 -1.23603 -0.977757 0
M  V30 746 C 73.6519 -1.09735 -1.75991 0
M  V30 747 C 74.0769 0.346858 -1.84874 0
M  V30 748 O 73.4349 1.25093 -1.3123 0
M  V30 749 C 73.4829 -1.73051 -3.16363 0
M  V30 750 O 72.5869 -0.994452 -4.0023 0
M  V30 751 H 71.9279 -0.384476 -0.541364 0
M  V30 752 H 74.4579 -1.6371 -1.2272 0
M  V30 753 H 74.4679 -1.78398 -3.66931 0
M  V30 754 H 73.1429 -2.78137 -3.09213 0
M  V30 755 H 71.7199 -1.01812 -3.58732 0
M  V30 756 N 73.905 1.17692 -1.04816 0
M  V30 757 C 75.321 1.39863 -0.768794 0
M  V30 758 C 75.521 1.91118 0.638451 0
M  V30 759 O 74.577 2.10036 1.40146 0
M  V30 760 C 75.89 2.39274 -1.82122 0
M  V30 761 C 77.438 2.52987 -1.843 0
M  V30 762 C 77.913 3.55669 -2.88555 0
M  V30 763 N 79.404 3.63183 -2.87493 0
M  V30 764 C 80.139 4.42381 -3.64811 0
M  V30 765 N 79.635 5.25125 -4.51903 0
M  V30 766 N 81.428 4.37217 -3.53267 0
M  V30 767 H 73.579 0.82752 -1.95617 0
M  V30 768 H 75.842 0.426123 -0.846831 0
M  V30 769 H 75.548 2.08678 -2.83102 0
M  V30 770 H 75.422 3.38725 -1.65967 0
M  V30 771 H 77.809 2.82896 -0.839869 0
M  V30 772 H 77.89 1.53623 -2.04532 0
M  V30 773 H 77.534 3.26499 -3.89051 0
M  V30 774 H 77.464 4.54728 -2.65575 0
M  V30 775 H 79.955 3.04103 -2.24343 0
M  V30 776 H 80.268 5.82728 -5.07591 0
M  V30 777 H 78.613 5.24519 -4.55966 0
M  V30 778 H 81.804 3.71626 -2.84625 0
M  V30 779 H 81.977 4.98696 -4.13771 0
M  V30 780 N 75.3831 0.828654 1.34056 0
M  V30 781 C 76.6291 0.42008 1.98402 0
M  V30 782 C 76.9621 -1.01564 1.65525 0
M  V30 783 O 76.2371 -1.70834 0.929831 0
M  V30 784 C 76.5201 0.62927 3.54559 0
M  V30 785 C 76.3731 2.11152 3.97159 0
M  V30 786 C 77.6921 0.0688756 4.40046 0
M  V30 787 H 74.8111 0.154104 0.720709 0
M  V30 788 H 77.4531 1.04228 1.5886 0
M  V30 789 H 75.6031 0.0996418 3.88372 0
M  V30 790 H 77.2751 2.70522 3.73651 0
M  V30 791 H 75.5181 2.59985 3.47261 0
M  V30 792 H 76.1891 2.20868 5.05887 0
M  V30 793 H 78.6651 0.521458 4.1282 0
M  V30 794 H 77.5411 0.245006 5.48353 0
M  V30 795 H 77.8021 -1.0266 4.30015 0
M  V30 796 N 76.8612 -1.46375 0.584142 0
M  V30 797 C 78.0862 -2.07268 0.0740405 0
M  V30 798 C 78.5112 -1.42979 -1.22223 0
M  V30 799 O 77.8692 -0.514092 -1.73859 0
M  V30 800 C 77.9172 -3.60518 -0.0767769 0
M  V30 801 O 77.0212 -3.96533 -1.13292 0
M  V30 802 H 76.3622 -0.660961 0.0634524 0
M  V30 803 H 78.8922 -1.87991 0.807492 0
M  V30 804 H 78.9022 -4.07021 -0.282489 0
M  V30 805 H 77.5772 -4.06702 0.86986 0
M  V30 806 H 76.1542 -3.61738 -0.905553 0
M  V30 807 N 78.3393 -0.321999 -1.54275 0
M  V30 808 C 79.2693 0.537411 -2.27231 0
M  V30 809 C 80.2503 1.12064 -1.27968 0
M  V30 810 O 81.4353 1.14606 -1.56777 0
M  V30 811 C 78.5653 1.69919 -3.02894 0
M  V30 812 C 77.5193 1.24534 -4.09482 0
M  V30 813 C 76.8453 2.49394 -4.72977 0
M  V30 814 C 78.1453 0.361335 -5.21049 0
M  V30 815 H 79.8393 -0.0711406 -2.99315 0
M  V30 816 H 77.3853 -0.0356555 -1.43956 0
M  V30 817 H 79.3383 2.30668 -3.52662 0
M  V30 818 H 78.0623 2.33431 -2.28424 0
M  V30 819 H 76.7213 0.660782 -3.60596 0
M  V30 820 H 76.3693 3.11265 -3.95124 0
M  V30 821 H 76.0693 2.19718 -5.44975 0
M  V30 822 H 77.5933 3.10908 -5.25517 0
M  V30 823 H 79.0073 0.875072 -5.66582 0
M  V30 824 H 77.4043 0.157428 -5.99893 0
M  V30 825 H 78.4743 -0.60822 -4.8107 0
M  V30 826 N 79.8174 1.5752 -0.0501392 0
M  V30 827 C 80.7674 2.07981 0.934231 0
M  V30 828 C 81.7514 0.984745 1.27246 0
M  V30 829 O 82.9434 1.24809 1.25506 0
M  V30 830 C 80.0724 2.62751 2.20945 0
M  V30 831 C 79.1584 3.79225 1.89865 0
M  V30 832 N 79.5494 4.89036 1.29142 0
M  V30 833 C 77.8474 3.88111 2.19741 0
M  V30 834 C 78.5484 5.70084 1.15669 0
M  V30 835 N 77.5244 5.17659 1.65923 0
M  V30 836 H 81.3264 2.90277 0.460053 0
M  V30 837 H 78.8404 1.61665 0.15434 0
M  V30 838 H 80.8374 2.97205 2.9236 0
M  V30 839 H 79.4974 1.81894 2.6897 0
M  V30 840 H 80.5084 5.08854 0.963756 0
M  V30 841 H 77.1854 3.18194 2.70293 0
M  V30 842 H 78.5754 6.68395 0.685356 0
M  V30 843 N 81.2955 -0.223234 1.56011 0
M  V30 844 C 82.5355 -0.954962 1.8072 0
M  V30 845 C 82.8995 -1.81598 0.623384 0
M  V30 846 O 84.1005 -2.58132 0.749745 0
M  V30 847 C 82.3715 -1.77313 3.10314 0
M  V30 848 S 83.9305 -2.56073 3.56332 0
M  V30 849 H 80.7485 -0.320812 0.634508 0
M  V30 850 H 83.3505 -0.220686 1.9425 0
M  V30 851 H 82.0545 -1.13071 3.94516 0
M  V30 852 H 81.5855 -2.54974 2.99586 0
M  V30 853 H 83.6005 -3.79619 3.19536 0
M  V30 854 N 82.7736 -1.49793 -0.48987 0
M  V30 855 C 84.0136 -1.61466 -1.25332 0
M  V30 856 C 84.3776 -0.299688 -1.89647 0
M  V30 857 O 85.5786 -0.291687 -2.67213 0
M  V30 858 C 83.8496 -2.74944 -2.28343 0
M  V30 859 S 85.4086 -3.06637 -3.13878 0
M  V30 860 H 82.2266 -0.569411 -0.425784 0
M  V30 861 H 84.8286 -1.875 -0.553541 0
M  V30 862 H 83.5326 -3.68994 -1.79643 0
M  V30 863 H 83.0636 -2.50938 -3.02975 0
M  V30 864 H 85.0786 -2.49015 -4.29192 0
M  V30 865 N 84.2517 0.741722 -1.39055 0
M  V30 866 C 85.4767 1.53607 -1.39354 0
M  V30 867 C 85.9017 1.88096 0.0116905 0
M  V30 868 O 85.2597 1.5143 0.996924 0
M  V30 869 C 85.3077 2.80441 -2.26682 0
M  V30 870 O 84.4117 3.76088 -1.69208 0
M  V30 871 H 83.7527 0.464142 -0.474835 0
M  V30 872 H 86.2827 0.915665 -1.82967 0
M  V30 873 H 86.2927 3.29246 -2.40959 0
M  V30 874 H 84.9677 2.5467 -3.2881 0
M  V30 875 H 83.5447 3.34833 -1.64138 0
M  V30 876 N 85.7298 1.2412 0.971189 0
M  V30 877 C 86.6778 1.02812 2.08644 0
M  V30 878 C 87.6718 -0.0358403 1.69362 0
M  V30 879 O 88.8778 0.118429 1.7961 0
M  V30 880 H 85.2528 0.315428 0.682649 0
M  V30 881 H 87.2238 1.97397 2.23779 0
M  V30 882 C 85.9728 0.645874 3.41649 0
M  V30 883 H 85.2958 1.45632 3.72332 0
M  V30 884 H 86.7358 0.536366 4.20594 0
M  V30 885 C 85.1948 -0.646713 3.30635 0
M  V30 886 O 85.7248 -1.69338 3.64263 0
M  V30 887 N 83.9308 -0.626115 2.83775 0
M  V30 888 H 83.4778 0.225988 2.56607 0
M  V30 889 H 83.4358 -1.49117 2.76788 0
M  V30 890 N 87.2079 -1.17134 1.05439 0
M  V30 891 C 88.6189 -1.69084 0.791676 0
M  V30 892 C 88.9699 -1.83822 -0.685839 0
M  V30 893 O 88.0949 -1.52757 -1.53278 0
M  V30 894 C 88.6899 -3.07119 1.4305 0
M  V30 895 C 87.2489 -3.56225 1.21577 0
M  V30 896 C 86.3959 -2.32421 1.51247 0
M  V30 897 H 89.3469 -1.01617 1.219 0
M  V30 898 H 89.3679 -3.71087 0.84112 0
M  V30 899 H 88.8799 -2.9636 2.50584 0
M  V30 900 H 86.9809 -3.72257 0.159787 0
M  V30 901 H 87.0939 -4.38837 1.92246 0
M  V30 902 H 85.4579 -2.3701 0.932653 0
M  V30 903 H 86.2409 -2.24268 2.5992 0
M  V30 904 N 88.686 -0.835752 -1.33615 0
M  V30 905 C 89.934 -0.429109 -1.97492 0
M  V30 906 C 90.255 1.01433 -1.66543 0
M  V30 907 O 89.525 1.70611 -0.962744 0
M  V30 908 H 88.105 -0.155686 -0.730596 0
M  V30 909 H 90.767 -1.06802 -1.63031 0
M  V30 910 H 89.863 -0.55861 -3.0706 0
M  V30 911 N 90.1641 1.46063 -0.591896 0
M  V30 912 C 91.5751 1.85944 -0.167822 0
M  V30 913 C 91.9261 1.49429 1.27143 0
M  V30 914 O 91.0511 0.913515 1.96173 0
M  V30 915 C 91.6461 3.37489 -0.297794 0
M  V30 916 C 90.2051 3.76332 0.0714732 0
M  V30 917 C 89.3521 2.7006 -0.629509 0
M  V30 918 H 92.3031 1.37087 -0.799555 0
M  V30 919 H 92.3241 3.77532 0.474349 0
M  V30 920 H 91.8361 3.64034 -1.3454 0
M  V30 921 H 89.9371 3.55405 1.11886 0
M  V30 922 H 90.0501 4.78088 -0.311245 0
M  V30 923 H 88.4141 2.54607 -0.0687867 0
M  V30 924 H 89.1971 2.99444 -1.67894 0
M  V30 925 N 91.6422 0.330177 1.54103 0
M  V30 926 C 92.8902 -0.269871 2.0029 0
M  V30 927 C 93.2112 -1.52133 1.21986 0
M  V30 928 O 92.4812 -1.93212 0.323438 0
M  V30 929 H 91.0612 -0.10271 0.739905 0
M  V30 930 H 93.7232 0.448249 1.89675 0
M  V30 931 H 92.8192 -0.52166 3.07709 0
M  V30 932 N 93.1203 -1.57491 0.0584922 0
M  V30 933 C 94.5313 -1.80526 -0.476138 0
M  V30 934 C 94.8823 -0.971334 -1.70469 0
M  V30 935 O 94.0073 -0.190012 -2.15564 0
M  V30 936 C 94.6023 -3.27424 -0.870587 0
M  V30 937 C 93.1613 -3.51351 -1.35015 0
M  V30 938 C 92.3083 -2.75343 -0.32887 0
M  V30 939 H 95.2593 -1.56133 0.284312 0
M  V30 940 H 95.2803 -3.38745 -1.73299 0
M  V30 941 H 94.7923 -3.88093 0.0237627 0
M  V30 942 H 92.8933 -2.95971 -2.26345 0
M  V30 943 H 93.0063 -4.60059 -1.33726 0
M  V30 944 H 91.3703 -2.417 -0.803321 0
M  V30 945 H 92.1533 -3.38743 0.557521 0
M  V30 946 N 94.5984 0.214957 -1.56127 0
M  V30 947 C 96.0144 0.564948 -1.49267 0
M  V30 948 C 96.2144 1.86827 -0.754838 0
M  V30 949 O 95.2704 2.50745 -0.297198 0
M  V30 950 C 96.5834 0.638071 -2.93852 0
M  V30 951 C 98.1314 0.728253 -3.0441 0
M  V30 952 C 98.6064 0.832663 -4.50367 0
M  V30 953 N 100.097 0.896712 -4.54437 0
M  V30 954 C 100.832 0.997324 -5.6466 0
M  V30 955 N 100.328 1.06147 -6.8462 0
M  V30 956 N 102.121 1.03297 -5.52527 0
M  V30 957 H 94.2724 -0.640211 -2.02522 0
M  V30 958 H 96.5354 -0.225507 -0.920788 0
M  V30 959 H 96.2414 -0.250126 -3.50809 0
M  V30 960 H 96.1154 1.49947 -3.46115 0
M  V30 961 H 98.5024 1.60689 -2.47514 0
M  V30 962 H 98.5834 -0.158952 -2.55306 0
M  V30 963 H 98.2274 -0.0415417 -5.07883 0
M  V30 964 H 98.1574 1.73538 -4.97184 0
M  V30 965 H 100.648 0.857188 -3.6805 0
M  V30 966 H 100.961 1.1382 -7.64372 0
M  V30 967 H 99.3064 1.03049 -6.87318 0
M  V30 968 H 102.497 0.979558 -4.57736 0
M  V30 969 H 102.67 1.10793 -6.38458 0
M  V30 970 N 96.0765 1.50051 0.48192 0
M  V30 971 C 97.3225 1.61706 1.2338 0
M  V30 972 C 97.6775 0.308488 1.89911 0
M  V30 973 O 96.9705 -0.692798 1.78636 0
M  V30 974 C 97.1645 2.72717 2.30998 0
M  V30 975 C 96.9935 4.14242 1.75024 0
M  V30 976 C 95.7635 4.80786 1.55476 0
M  V30 977 C 97.9615 4.98846 1.25128 0
M  V30 978 N 95.9435 6.06563 0.946311 0
M  V30 979 C 97.3145 6.15258 0.765382 0
M  V30 980 C 99.3695 4.84702 1.13881 0
M  V30 981 C 98.0725 7.19079 0.178113 0
M  V30 982 C 100.098 5.8869 0.565486 0
M  V30 983 C 99.4605 7.04343 0.0899105 0
M  V30 984 H 95.5595 0.645958 0.440753 0
M  V30 985 H 98.1435 1.8713 0.537624 0
M  V30 986 H 96.3145 2.49033 2.98055 0
M  V30 987 H 98.0465 2.73789 2.9803 0
M  V30 988 H 94.8015 4.37899 1.80392 0
M  V30 989 H 95.2255 6.73767 0.660812 0
M  V30 990 H 99.8675 3.95583 1.49244 0
M  V30 991 H 97.5855 8.07882 -0.187749 0
M  V30 992 H 101.171 5.79808 0.480974 0
M  V30 993 H 100.051 7.83433 -0.346782 0
M  V30 994 N 97.5546 -0.734337 1.39446 0
M  V30 995 C 98.7946 -1.50655 1.38139 0
M  V30 996 C 99.1586 -1.91986 -0.0228701 0
M  V30 997 O 100.36 -2.68318 -0.160947 0
M  V30 998 C 98.6306 -2.71251 2.32718 0
M  V30 999 S 100.19 -3.60892 2.49605 0
M  V30 1000 H 97.0076 -0.515315 0.489869 0
M  V30 1001 H 99.6096 -0.860392 1.75549 0
M  V30 1002 H 98.3136 -2.39027 3.33608 0
M  V30 1003 H 97.8446 -3.40795 1.96526 0
M  V30 1004 H 99.8596 -4.64899 1.73446 0
M  V30 1005 N 99.0327 -1.24633 -0.964593 0
M  V30 1006 C 100.258 -1.11596 -1.74818 0
M  V30 1007 C 100.683 0.32723 -1.85232 0
M  V30 1008 O 100.041 1.23695 -1.32549 0
M  V30 1009 C 100.089 -1.76397 -3.1451 0
M  V30 1010 O 99.1927 -1.03685 -3.99153 0
M  V30 1011 H 98.5337 -0.390196 -0.537255 0
M  V30 1012 H 101.064 -1.65002 -1.20977 0
M  V30 1013 H 101.074 -1.8228 -3.65018 0
M  V30 1014 H 99.7487 -2.81401 -3.06246 0
M  V30 1015 H 98.3257 -1.05611 -3.57632 0
M  V30 1016 N 100.511 1.16574 -1.06058 0
M  V30 1017 C 101.788 1.83048 -0.689416 0
M  V30 1018 C 102.168 1.94122 0.829443 0
M  V30 1019 O 101.516 1.48249 1.7388 0
M  V30 1020 C 101.726 3.20186 -1.38859 0
M  V30 1021 C 103.074 3.95989 -1.53226 0
M  V30 1022 O 104.098 3.29696 -1.3483 0
M  V30 1023 O 102.957 5.14813 -1.83384 0
M  V30 1024 H 100.051 0.790258 -0.243764 0
M  V30 1025 H 102.597 1.23797 -1.16071 0
M  V30 1026 H 101.369 3.07146 -2.4244 0
M  V30 1027 H 100.992 3.87112 -0.907216 0
M  V30 1028 N 101.989 0.842826 1.3317 0
M  V30 1029 C 102.952 0.284065 2.27433 0
M  V30 1030 C 103.952 -0.54948 1.5112 0
M  V30 1031 O 105.142 -0.362699 1.70382 0
M  V30 1032 C 102.274 -0.599384 3.35589 0
M  V30 1033 H 103.467 1.11589 2.78366 0
M  V30 1034 H 101.02 0.616221 1.4364 0
M  V30 1035 H 101.755 -1.45349 2.89904 0
M  V30 1036 H 101.54 -0.00291266 3.921 0
M  V30 1037 H 103.03 -0.983488 4.05854 0
M  V30 1038 N 103.467 -1.45747 0.599634 0
M  V30 1039 C 104.878 -1.85853 0.177681 0
M  V30 1040 C 105.229 -1.50102 -1.26348 0
M  V30 1041 O 104.354 -0.923905 -1.95686 0
M  V30 1042 C 104.949 -3.37326 0.315688 0
M  V30 1043 C 103.508 -3.76365 -0.0515144 0
M  V30 1044 C 102.655 -2.69722 0.643822 0
M  V30 1045 H 105.606 -1.36661 0.806814 0
M  V30 1046 H 105.627 -3.77778 -0.454321 0
M  V30 1047 H 105.139 -3.63315 1.36468 0
M  V30 1048 H 103.24 -3.55993 -1.09999 0
M  V30 1049 H 103.353 -4.77916 0.336594 0
M  V30 1050 H 101.717 -2.54567 0.0822881 0
M  V30 1051 H 102.5 -2.98549 1.6948 0
M  V30 1052 N 104.945 -0.338344 -1.53925 0
M  V30 1053 C 105.895 0.536712 -2.21593 0
M  V30 1054 C 106.879 1.07015 -1.20153 0
M  V30 1055 O 108.071 1.00471 -1.45721 0
M  V30 1056 C 105.2 1.68977 -2.98834 0
M  V30 1057 C 104.286 1.17052 -4.07627 0
M  V30 1058 N 104.677 0.372085 -5.0443 0
M  V30 1059 C 102.975 1.44789 -4.21844 0
M  V30 1060 C 103.676 0.0909171 -5.81629 0
M  V30 1061 N 102.652 0.681131 -5.39316 0
M  V30 1062 H 106.454 -0.0804298 -2.9379 0
M  V30 1063 H 103.968 -0.144943 -1.61752 0
M  V30 1064 H 105.965 2.32857 -3.45808 0
M  V30 1065 H 104.625 2.31024 -2.28162 0
M  V30 1066 H 105.636 0.0136217 -5.17898 0
M  V30 1067 H 102.313 2.07313 -3.62391 0
M  V30 1068 H 103.703 -0.552817 -6.69622 0
M  V30 1069 N 106.423 1.57458 -0.0668435 0
M  V30 1070 C 107.834 1.80776 0.466558 0
M  V30 1071 C 108.185 0.980361 1.69951 0
M  V30 1072 O 107.31 0.201441 2.1546 0
M  V30 1073 C 107.905 3.27881 0.85321 0
M  V30 1074 C 106.464 3.52062 1.3315 0
M  V30 1075 C 105.611 2.75513 0.314264 0
M  V30 1076 H 108.562 1.5598 -0.292588 0
M  V30 1077 H 108.583 3.39659 1.715 0
M  V30 1078 H 108.095 3.88075 -0.0443439 0
M  V30 1079 H 106.196 2.97167 2.24772 0
M  V30 1080 H 106.309 4.60762 1.31285 0
M  V30 1081 H 104.673 2.42123 0.790492 0
M  V30 1082 H 105.456 3.38442 -0.575477 0
M  V30 1083 N 107.901 -0.206675 1.56239 0
M  V30 1084 C 109.312 -0.772383 1.69974 0
M  V30 1085 C 109.663 -1.84353 0.671436 0
M  V30 1086 O 108.788 -2.15695 -0.174491 0
M  V30 1087 C 109.383 -1.40779 3.08167 0
M  V30 1088 C 107.942 -1.92072 3.23706 0
M  V30 1089 C 107.089 -0.786347 2.65917 0
M  V30 1090 H 110.04 0.0182223 1.5869 0
M  V30 1091 H 110.061 -2.27696 3.04852 0
M  V30 1092 H 109.573 -0.627958 3.82986 0
M  V30 1093 H 107.674 -2.7281 2.53782 0
M  V30 1094 H 107.787 -2.09046 4.31087 0
M  V30 1095 H 106.151 -1.1976 2.24788 0
M  V30 1096 H 106.934 -0.0189416 3.43295 0
M  V30 1097 N 109.379 -1.50304 -0.473955 0
M  V30 1098 C 110.309 -1.71886 -1.58042 0
M  V30 1099 C 111.29 -0.567799 -1.60344 0
M  V30 1100 O 112.475 -0.806623 -1.76656 0
M  V30 1101 C 109.605 -1.81036 -2.96384 0
M  V30 1102 C 108.559 -2.962 -3.08949 0
M  V30 1103 C 107.885 -2.9049 -4.48909 0
M  V30 1104 C 109.185 -4.36752 -2.86434 0
M  V30 1105 H 110.879 -2.64527 -1.40234 0
M  V30 1106 H 108.425 -1.27295 -0.673201 0
M  V30 1107 H 110.378 -1.94719 -3.73714 0
M  V30 1108 H 109.102 -0.850147 -3.15341 0
M  V30 1109 H 107.761 -2.82164 -2.3405 0
M  V30 1110 H 107.409 -1.92321 -4.64781 0
M  V30 1111 H 107.109 -3.67802 -4.58253 0
M  V30 1112 H 108.633 -3.06218 -5.28264 0
M  V30 1113 H 110.047 -4.5133 -3.53517 0
M  V30 1114 H 108.444 -5.15493 -3.07225 0
M  V30 1115 H 109.514 -4.49321 -1.82316 0
M  V30 1116 N 110.857 0.726932 -1.39834 0
M  V30 1117 C 111.804 1.841 -1.39197 0
M  V30 1118 C 112.774 1.642 -0.250502 0
M  V30 1119 O 113.959 1.85494 -0.446846 0
M  V30 1120 C 111.099 3.21697 -1.24919 0
M  V30 1121 C 110.212 3.53247 -2.48678 0
M  V30 1122 C 109.347 4.80289 -2.26928 0
M  V30 1123 C 108.386 5.04707 -3.4632 0
M  V30 1124 N 107.523 6.22956 -3.23836 0
M  V30 1125 H 112.363 1.83979 -2.34427 0
M  V30 1126 H 109.9 0.898876 -1.16442 0
M  V30 1127 H 111.858 4.01137 -1.1465 0
M  V30 1128 H 110.488 3.21076 -0.333153 0
M  V30 1129 H 109.54 2.68447 -2.69519 0
M  V30 1130 H 110.852 3.67205 -3.37582 0
M  V30 1131 H 110.006 5.67725 -2.13947 0
M  V30 1132 H 108.745 4.68519 -1.35431 0
M  V30 1133 H 107.75 4.1573 -3.5979 0
M  V30 1134 H 108.975 5.18357 -4.38729 0
M  V30 1135 H 106.921 6.12459 -2.35011 0
M  V30 1136 H 106.838 6.37539 -4.063 0
M  V30 1137 H 108.106 7.1321 -3.14566 0
M  V30 1138 N 112.336 1.25143 0.95797 0
M  V30 1139 C 113.585 1.0909 1.69654 0
M  V30 1140 C 113.898 -0.368548 1.92097 0
M  V30 1141 O 115.104 -0.649455 2.63618 0
M  V30 1142 C 113.56 1.90395 3.05414 0
M  V30 1143 C 113.168 3.4081 2.90779 0
M  V30 1144 C 114.912 1.82901 3.83076 0
M  V30 1145 C 112.819 4.14423 4.21909 0
M  V30 1146 H 111.749 0.404625 0.636235 0
M  V30 1147 H 114.4 1.4931 1.06672 0
M  V30 1148 H 112.782 1.42996 3.69281 0
M  V30 1149 H 113.956 3.95859 2.35865 0
M  V30 1150 H 112.271 3.49361 2.26575 0
M  V30 1151 H 114.868 2.35196 4.80195 0
M  V30 1152 H 115.211 0.796224 4.08615 0
M  V30 1153 H 115.744 2.28033 3.25954 0
M  V30 1154 H 112.483 5.18102 4.01561 0
M  V30 1155 H 112.003 3.64159 4.76601 0
M  V30 1156 H 113.682 4.21956 4.90471 0
M  V30 1157 N 113.814 -1.1601 1.06675 0
M  V30 1158 C 115.225 -1.68235 0.809565 0
M  V30 1159 C 115.576 -1.8454 -0.666303 0
M  V30 1160 O 114.701 -1.54374 -1.5165 0
M  V30 1161 C 115.296 -3.05585 1.46299 0
M  V30 1162 C 113.855 -3.54915 1.25349 0
M  V30 1163 C 113.002 -2.30804 1.53703 0
M  V30 1164 H 115.953 -1.00318 1.22971 0
M  V30 1165 H 115.974 -3.70174 0.880431 0
M  V30 1166 H 115.486 -2.93686 2.53713 0
M  V30 1167 H 113.587 -3.72067 0.199261 0
M  V30 1168 H 113.7 -4.36774 1.9689 0
M  V30 1169 H 112.064 -2.36007 0.957739 0
M  V30 1170 H 112.847 -2.21499 2.62284 0
M  V30 1171 N 115.292 -0.849877 -1.32721 0
M  V30 1172 C 116.54 -0.450032 -1.97026 0
M  V30 1173 C 116.861 0.996604 -1.67609 0
M  V30 1174 O 116.131 1.6958 -0.980786 0
M  V30 1175 H 114.711 -0.163426 -0.728904 0
M  V30 1176 H 117.373 -1.08526 -1.6189 0
M  V30 1177 H 116.469 -0.591146 -3.0645 0
M  V30 1178 N 116.77 1.45427 -0.607355 0
M  V30 1179 C 118.018 2.01841 -0.102253 0
M  V30 1180 C 118.339 1.47832 1.27164 0
M  V30 1181 O 117.609 0.672497 1.83995 0
M  V30 1182 H 116.189 0.746188 -0.0348101 0
M  V30 1183 H 118.851 1.78229 -0.7887 0
M  V30 1184 H 117.947 3.12057 -0.0518585 0
M  V30 1185 N 118.248 0.346503 1.53744 0
M  V30 1186 C 119.664 -0.00530975 1.59599 0
M  V30 1187 C 119.864 -1.48465 1.36236 0
M  V30 1188 O 118.92 -2.24376 1.15808 0
M  V30 1189 C 120.233 0.433516 2.97559 0
M  V30 1190 C 121.781 0.386111 3.10609 0
M  V30 1191 C 122.256 0.800451 4.50951 0
M  V30 1192 N 123.747 0.754753 4.5701 0
M  V30 1193 C 124.482 1.04727 5.63755 0
M  V30 1194 N 123.978 1.4081 6.7834 0
M  V30 1195 N 125.771 0.971316 5.53644 0
M  V30 1196 H 117.922 1.31009 1.67184 0
M  V30 1197 H 120.185 0.534242 0.783128 0
M  V30 1198 H 119.891 1.46509 3.19731 0
M  V30 1199 H 119.765 -0.189753 3.76722 0
M  V30 1200 H 122.152 -0.636295 2.88158 0
M  V30 1201 H 122.233 1.04462 2.33498 0
M  V30 1202 H 121.877 1.82088 4.74137 0
M  V30 1203 H 121.807 0.119386 5.26465 0
M  V30 1204 H 124.298 0.488662 3.74727 0
M  V30 1205 H 124.611 1.61607 7.55714 0
M  V30 1206 H 122.956 1.44657 6.79779 0
M  V30 1207 H 126.147 0.688748 4.63005 0
M  V30 1208 H 126.32 1.20263 6.36742 0
M  V30 1209 N 119.726 -1.57421 0.075193 0
M  V30 1210 C 120.974 -1.93236 -0.591974 0
M  V30 1211 C 121.295 -0.956241 -1.69944 0
M  V30 1212 O 120.565 -0.00494792 -1.95899 0
M  V30 1213 H 119.145 -0.713355 -0.22166 0
M  V30 1214 H 121.807 -1.9444 0.133848 0
M  V30 1215 H 120.903 -2.95131 -1.01509 0
M  V30 1216 N 121.204 0.198386 -1.56346 0
M  V30 1217 C 122.152 1.26538 -1.95169 0
M  V30 1218 C 123.146 1.47295 -0.836685 0
M  V30 1219 O 124.352 1.48195 -1.02167 0
M  V30 1220 H 120.727 0.424744 -0.620561 0
M  V30 1221 H 122.698 0.910904 -2.84157 0
M  V30 1222 C 121.447 2.6035 -2.30463 0
M  V30 1223 H 120.77 2.45192 -3.15786 0
M  V30 1224 H 122.21 3.33762 -2.61494 0
M  V30 1225 C 120.669 3.17096 -1.13806 0
M  V30 1226 O 121.199 3.99588 -0.41135 0
M  V30 1227 N 119.405 2.75795 -0.915736 0
M  V30 1228 H 118.952 2.08816 -1.50843 0
M  V30 1229 H 118.91 3.14101 -0.136979 0
M  V30 1230 N 122.682 1.50554 0.465978 0
M  V30 1231 C 123.907 1.65838 1.24549 0
M  V30 1232 C 124.332 0.343486 1.84937 0
M  V30 1233 O 123.69 -0.69324 1.67523 0
M  V30 1234 C 123.738 2.75533 2.32624 0
M  V30 1235 O 122.842 2.37142 3.37398 0
M  V30 1236 H 122.183 0.553893 0.366194 0
M  V30 1237 H 124.713 1.96959 0.553927 0
M  V30 1238 H 124.723 2.98763 2.77857 0
M  V30 1239 H 123.398 3.70962 1.88043 0
M  V30 1240 H 121.975 2.24377 2.97841 0
M  V30 1241 N 124.16 -0.719506 1.40217 0
M  V30 1242 C 125.092 -1.84428 1.36084 0
M  V30 1243 C 126.105 -1.60597 0.266913 0
M  V30 1244 O 127.294 -1.70544 0.526983 0
M  V30 1245 C 124.394 -3.20757 1.094 0
M  V30 1246 C 123.567 -3.71817 2.30372 0
M  V30 1247 C 122.626 -4.86748 1.99907 0
M  V30 1248 O 121.652 -4.99603 2.72737 0
M  V30 1249 N 122.854 -5.7226 0.974635 0
M  V30 1250 H 125.619 -1.88473 2.33019 0
M  V30 1251 H 123.18 -0.900885 1.3452 0
M  V30 1252 H 125.172 -3.95235 0.870116 0
M  V30 1253 H 123.742 -3.11884 0.211452 0
M  V30 1254 H 122.962 -2.88514 2.68614 0
M  V30 1255 H 124.25 -4.02666 3.11026 0
M  V30 1256 H 123.648 -5.6448 0.371368 0
M  V30 1257 H 122.205 -6.46739 0.810656 0
M  V30 1258 N 125.638 -1.25649 -0.95132 0
M  V30 1259 C 127.054 -1.02542 -1.223 0
M  V30 1260 C 127.254 0.255715 -1.99871 0
M  V30 1261 O 126.31 0.967558 -2.33226 0
M  V30 1262 C 127.623 -2.25065 -1.99415 0
M  V30 1263 C 129.171 -2.29861 -2.12446 0
M  V30 1264 C 129.646 -3.52048 -2.92961 0
M  V30 1265 N 131.137 -3.52465 -3.00538 0
M  V30 1266 C 131.872 -4.43672 -3.63239 0
M  V30 1267 N 131.368 -5.45157 -4.27523 0
M  V30 1268 N 133.161 -4.31346 -3.60412 0
M  V30 1269 H 125.312 -2.07951 -0.432471 0
M  V30 1270 H 127.575 -0.91339 -0.253816 0
M  V30 1271 H 127.281 -3.18194 -1.49817 0
M  V30 1272 H 127.155 -2.28502 -3.00111 0
M  V30 1273 H 129.542 -1.37252 -2.61239 0
M  V30 1274 H 129.623 -2.3044 -1.11044 0
M  V30 1275 H 129.267 -4.44981 -2.44856 0
M  V30 1276 H 129.197 -3.48715 -3.94596 0
M  V30 1277 H 131.688 -2.79056 -2.54826 0
M  V30 1278 H 132.001 -6.10958 -4.73234 0
M  V30 1279 H 130.346 -5.49025 -4.26141 0
M  V30 1280 H 133.537 -3.51288 -3.09377 0
M  V30 1281 H 133.71 -5.02624 -4.0899 0
M  V30 1282 N 127.117 1.15442 -1.07289 0
M  V30 1283 C 128.394 1.82306 -0.708792 0
M  V30 1284 C 128.774 1.94991 0.808807 0
M  V30 1285 O 128.122 1.50085 1.72298 0
M  V30 1286 C 128.332 3.18695 -1.42247 0
M  V30 1287 C 129.68 3.94341 -1.57417 0
M  V30 1288 O 130.704 3.28247 -1.38319 0
M  V30 1289 O 129.563 5.12839 -1.88834 0
M  V30 1290 H 126.657 0.787628 -0.252132 0
M  V30 1291 H 129.203 1.22559 -1.17377 0
M  V30 1292 H 127.975 3.04557 -2.45684 0
M  V30 1293 H 127.598 3.86128 -0.948223 0
M  V30 1294 N 128.595 0.856903 1.32268 0
M  V30 1295 C 129.545 0.274899 2.26337 0
M  V30 1296 C 130.529 -0.580543 1.50062 0
M  V30 1297 O 131.721 -0.429559 1.71708 0
M  V30 1298 C 128.85 -0.533841 3.39124 0
M  V30 1299 C 127.936 0.334114 4.22782 0
M  V30 1300 N 128.327 1.42143 4.85416 0
M  V30 1301 C 126.625 0.124256 4.45827 0
M  V30 1302 C 127.326 1.95559 5.47843 0
M  V30 1303 N 126.302 1.25444 5.28928 0
M  V30 1304 H 130.104 1.10612 2.72291 0
M  V30 1305 H 127.618 0.703258 1.46383 0
M  V30 1306 H 129.615 -0.96722 4.05525 0
M  V30 1307 H 128.275 -1.36283 2.94715 0
M  V30 1308 H 129.286 1.80436 4.85451 0
M  V30 1309 H 125.963 -0.669837 4.12092 0
M  V30 1310 H 127.353 2.86714 6.07655 0
M  V30 1311 N 130.073 -1.45103 0.615059 0
M  V30 1312 C 131.021 -2.32331 -0.111791 0
M  V30 1313 C 132.015 -1.46409 -0.852102 0
M  V30 1314 O 133.221 -1.62849 -0.766821 0
M  V30 1315 H 129.596 -0.749993 -0.0549072 0
M  V30 1316 H 131.567 -2.91407 0.642225 0
M  V30 1317 C 130.316 -3.3015 -1.09071 0
M  V30 1318 H 129.639 -3.96265 -0.530485 0
M  V30 1319 H 131.079 -3.93898 -1.56908 0
M  V30 1320 C 129.538 -2.57875 -2.168 0
M  V30 1321 O 130.068 -2.36567 -3.24652 0
M  V30 1322 N 128.274 -2.17884 -1.92289 0
M  V30 1323 H 127.821 -2.35413 -1.04587 0
M  V30 1324 H 127.779 -1.6985 -2.64572 0
M  V30 1325 N 131.551 -0.354651 -1.53558 0
M  V30 1326 C 132.481 0.489091 -2.2832 0
M  V30 1327 C 133.462 1.09324 -1.30316 0
M  V30 1328 O 134.647 1.11255 -1.59173 0
M  V30 1329 C 131.777 1.63456 -3.0643 0
M  V30 1330 C 130.731 1.1582 -4.12031 0
M  V30 1331 C 130.057 2.39305 -4.7816 0
M  V30 1332 C 131.357 0.250731 -5.21698 0
M  V30 1333 H 133.051 -0.134614 -2.99097 0
M  V30 1334 H 130.597 -0.0661826 -1.43848 0
M  V30 1335 H 132.55 2.23136 -3.57475 0
M  V30 1336 H 131.274 2.28533 -2.33325 0
M  V30 1337 H 129.933 0.584146 -3.61916 0
M  V30 1338 H 129.581 3.02814 -4.01637 0
M  V30 1339 H 129.281 2.08109 -5.49513 0
M  V30 1340 H 130.805 2.99691 -5.31994 0
M  V30 1341 H 132.219 0.754695 -5.68311 0
M  V30 1342 H 130.616 0.0301468 -6.00092 0
M  V30 1343 H 131.686 -0.710125 -4.79672 0
M  V30 1344 N 133.029 1.57378 -0.0835403 0
M  V30 1345 C 134.254 1.98682 0.594987 0
M  V30 1346 C 134.679 0.961969 1.61641 0
M  V30 1347 O 134.037 -0.0709989 1.81161 0
M  V30 1348 C 134.085 3.38988 1.2296 0
M  V30 1349 O 133.189 3.39208 2.34546 0
M  V30 1350 H 132.53 0.646368 0.152002 0
M  V30 1351 H 135.06 2.03961 -0.161533 0
M  V30 1352 H 135.07 3.76431 1.57366 0
M  V30 1353 H 133.745 4.13107 0.481228 0
M  V30 1354 H 132.322 3.13548 2.01846 0
M  V30 1355 N 134.507 -0.190092 1.56449 0
M  V30 1356 C 135.47 -1.21925 1.9408 0
M  V30 1357 C 136.47 -1.38176 0.822431 0
M  V30 1358 O 137.66 -1.35903 1.08977 0
M  V30 1359 C 134.792 -2.58773 2.21922 0
M  V30 1360 H 135.985 -0.897464 2.86157 0
M  V30 1361 H 133.538 -0.43181 1.50217 0
M  V30 1362 H 134.273 -2.95998 1.32499 0
M  V30 1363 H 134.058 -2.48348 3.03424 0
M  V30 1364 H 135.548 -3.32978 2.52022 0
M  V30 1365 N 135.985 -1.50799 -0.457987 0
M  V30 1366 C 136.933 -1.71162 -1.575 0
M  V30 1367 C 137.927 -0.577592 -1.59249 0
M  V30 1368 O 139.133 -0.758443 -1.63241 0
M  V30 1369 H 135.508 -0.540468 -0.522875 0
M  V30 1370 H 137.479 -2.64837 -1.37492 0
M  V30 1371 C 136.228 -1.83496 -2.95338 0
M  V30 1372 H 135.551 -2.70153 -2.94716 0
M  V30 1373 H 136.991 -2.01765 -3.72917 0
M  V30 1374 C 135.45 -0.589694 -3.31699 0
M  V30 1375 O 135.98 0.265163 -4.00824 0
M  V30 1376 N 134.186 -0.439845 -2.87252 0
M  V30 1377 H 133.733 -1.13655 -2.31172 0
M  V30 1378 H 133.691 0.392159 -3.11945 0
M  V30 1379 N 137.463 0.71206 -1.40597 0
M  V30 1380 C 138.393 1.83889 -1.43899 0
M  V30 1381 C 139.374 1.67442 -0.299504 0
M  V30 1382 O 140.559 1.87421 -0.508624 0
M  V30 1383 C 137.689 3.21877 -1.30431 0
M  V30 1384 C 136.643 3.53002 -2.42019 0
M  V30 1385 C 135.969 4.90172 -2.13626 0
M  V30 1386 C 137.269 3.53643 -3.84362 0
M  V30 1387 H 138.963 1.81383 -2.38203 0
M  V30 1388 H 136.509 0.871237 -1.14654 0
M  V30 1389 H 138.462 4.00404 -1.31357 0
M  V30 1390 H 137.186 3.24968 -0.326049 0
M  V30 1391 H 135.845 2.76818 -2.40349 0
M  V30 1392 H 135.493 4.89869 -1.14182 0
M  V30 1393 H 135.193 5.11962 -2.88389 0
M  V30 1394 H 136.717 5.71028 -2.1624 0
M  V30 1395 H 138.131 4.22203 -3.87837 0
M  V30 1396 H 136.528 3.86961 -4.58673 0
M  V30 1397 H 137.598 2.52954 -4.13693 0
M  V30 1398 N 138.941 1.26152 0.944643 0
M  V30 1399 C 140.188 1.11492 1.69044 0
M  V30 1400 C 140.516 -0.342366 1.91463 0
M  V30 1401 O 139.771 -1.26812 1.49054 0
M  V30 1402 C 140.07 1.82541 3.07268 0
M  V30 1403 C 139.736 3.32445 3.04616 0
M  V30 1404 C 138.398 3.73337 3.036 0
M  V30 1405 C 140.75 4.28171 2.97185 0
M  V30 1406 C 138.078 5.08348 2.92915 0
M  V30 1407 C 140.43 5.63218 2.88041 0
M  V30 1408 C 139.094 6.03426 2.85366 0
M  V30 1409 H 138.364 0.407977 0.618576 0
M  V30 1410 H 141.011 1.56551 1.10291 0
M  V30 1411 H 139.316 1.29941 3.69625 0
M  V30 1412 H 141.013 1.68642 3.63815 0
M  V30 1413 H 137.603 2.99915 3.06185 0
M  V30 1414 H 141.787 3.97563 2.97081 0
M  V30 1415 H 137.043 5.38667 2.89219 0
M  V30 1416 H 141.217 6.37078 2.81254 0
M  V30 1417 H 138.844 7.07999 2.76842 0
M  V30 1418 N 140.419 -1.14872 1.07899 0
M  V30 1419 C 141.649 -1.89386 0.825631 0
M  V30 1420 C 142.057 -1.78565 -0.625406 0
M  V30 1421 O 141.4 -1.13918 -1.44113 0
M  V30 1422 C 141.462 -3.40206 1.16191 0
M  V30 1423 C 141.126 -3.74812 2.61467 0
M  V30 1424 C 142.123 -3.75367 3.59716 0
M  V30 1425 C 139.808 -4.0495 2.97189 0
M  V30 1426 C 141.802 -4.05574 4.9172 0
M  V30 1427 C 139.489 -4.34821 4.29388 0
M  V30 1428 C 140.487 -4.35116 5.26463 0
M  V30 1429 O 140.175 -4.64267 6.56286 0
M  V30 1430 H 139.907 -0.606894 0.297751 0
M  V30 1431 H 142.461 -1.46438 1.44031 0
M  V30 1432 H 140.691 -3.8358 0.490214 0
M  V30 1433 H 142.38 -3.96018 0.890193 0
M  V30 1434 H 143.146 -3.52176 3.33462 0
M  V30 1435 H 139.025 -4.03876 2.22273 0
M  V30 1436 H 142.569 -4.05719 5.67484 0
M  V30 1437 H 138.466 -4.5748 4.55392 0
M  V30 1438 H 139.234 -4.82007 6.61522 0
M  V30 1439 N 141.898 -0.863906 -1.31812 0
M  V30 1440 C 143.123 -0.48527 -2.01643 0
M  V30 1441 C 143.548 0.913058 -1.64453 0
M  V30 1442 O 142.906 1.6014 -0.849985 0
M  V30 1443 C 142.954 -0.642625 -3.54828 0
M  V30 1444 O 142.058 0.320659 -4.11151 0
M  V30 1445 H 141.399 -0.193793 -0.635091 0
M  V30 1446 H 143.929 -1.16565 -1.68148 0
M  V30 1447 H 143.939 -0.533628 -4.04495 0
M  V30 1448 H 142.614 -1.66227 -3.81237 0
M  V30 1449 H 141.191 0.167126 -3.72525 0
M  V30 1450 N 143.376 1.44774 -0.622745 0
M  V30 1451 C 144.653 1.95522 -0.0551974 0
M  V30 1452 C 145.033 1.5649 1.41683 0
M  V30 1453 O 144.381 0.834848 2.12703 0
M  V30 1454 C 144.591 3.4796 -0.269242 0
M  V30 1455 C 145.939 4.24306 -0.158014 0
M  V30 1456 O 146.963 3.55637 -0.200162 0
M  V30 1457 O 145.822 5.46471 -0.0558693 0
M  V30 1458 H 142.916 0.826556 0.0271015 0
M  V30 1459 H 145.462 1.54866 -0.693864 0
M  V30 1460 H 144.234 3.6939 -1.29099 0
M  V30 1461 H 143.857 3.95543 0.403966 0
M  V30 1462 N 144.854 0.36279 1.53368 0
M  V30 1463 C 146.131 -0.284021 1.93527 0
M  V30 1464 C 146.511 -1.66628 1.29608 0
M  V30 1465 O 145.859 -2.23942 0.45413 0
M  V30 1466 C 146.069 -0.337028 3.47369 0
M  V30 1467 C 147.417 -0.578708 4.20638 0
M  V30 1468 O 148.441 -0.418352 3.53735 0
M  V30 1469 O 147.3 -0.89074 5.39192 0
M  V30 1470 H 144.394 -0.169743 0.809393 0
M  V30 1471 H 146.94 0.41537 1.64538 0
M  V30 1472 H 145.712 0.632217 3.86159 0
M  V30 1473 H 145.335 -1.08243 3.82582 0
M  V30 1474 N 146.332 -1.57332 0.0918853 0
M  V30 1475 C 147.748 -1.57389 -0.264766 0
M  V30 1476 C 147.948 -1.10281 -1.68643 0
M  V30 1477 O 147.004 -0.777801 -2.40222 0
M  V30 1478 C 148.317 -3.00648 -0.0561195 0
M  V30 1479 C 149.865 -3.12754 -0.124116 0
M  V30 1480 C 150.34 -4.57965 0.0564972 0
M  V30 1481 N 151.831 -4.632 0.00155611 0
M  V30 1482 C 152.566 -5.73281 0.116598 0
M  V30 1483 N 152.062 -6.92208 0.286294 0
M  V30 1484 N 153.855 -5.6207 0.0580973 0
M  V30 1485 H 146.006 -1.86262 1.02079 0
M  V30 1486 H 148.269 -0.859579 0.399786 0
M  V30 1487 H 147.975 -3.393 0.925669 0
M  V30 1488 H 147.849 -3.68623 -0.799823 0
M  V30 1489 H 150.236 -2.73976 -1.09641 0
M  V30 1490 H 150.317 -2.47377 0.651024 0
M  V30 1491 H 149.961 -4.97436 1.02564 0
M  V30 1492 H 149.891 -5.21399 -0.738297 0
M  V30 1493 H 152.382 -3.77686 -0.127192 0
M  V30 1494 H 152.695 -7.71934 0.365676 0
M  V30 1495 H 151.04 -6.94254 0.32192 0
M  V30 1496 H 154.231 -4.68043 -0.0733204 0
M  V30 1497 H 154.404 -6.47824 0.151203 0
M  V30 1498 N 147.81 0.181792 -1.56548 0
M  V30 1499 C 148.74 1.22765 -1.98623 0
M  V30 1500 C 149.721 1.46747 -0.860189 0
M  V30 1501 O 150.906 1.58259 -1.12551 0
M  V30 1502 C 148.036 2.56894 -2.33715 0
M  V30 1503 C 146.99 2.475 -3.49182 0
M  V30 1504 C 146.316 3.86023 -3.69986 0
M  V30 1505 C 147.616 1.98866 -4.82959 0
M  V30 1506 H 149.31 0.877942 -2.86239 0
M  V30 1507 H 146.856 0.42088 -1.37712 0
M  V30 1508 H 148.809 3.30253 -2.61746 0
M  V30 1509 H 147.533 2.93632 -1.42997 0
M  V30 1510 H 146.192 1.76596 -3.21262 0
M  V30 1511 H 145.84 4.20136 -2.76576 0
M  V30 1512 H 145.54 3.80609 -4.47672 0
M  V30 1513 H 147.064 4.60984 -4.00407 0
M  V30 1514 H 148.478 2.61992 -5.09934 0
M  V30 1515 H 146.875 2.04424 -5.64208 0
M  V30 1516 H 147.945 0.942465 -4.75653 0
M  V30 1517 N 149.288 1.51039 0.449983 0
M  V30 1518 C 150.236 1.71995 1.5659 0
M  V30 1519 C 151.23 0.586029 1.5894 0
M  V30 1520 O 152.436 0.76709 1.62837 0
M  V30 1521 H 148.811 0.543233 0.520001 0
M  V30 1522 H 150.782 2.65562 1.36085 0
M  V30 1523 C 149.531 1.8506 2.9436 0
M  V30 1524 H 148.854 2.71712 2.93279 0
M  V30 1525 H 150.294 2.0374 3.71842 0
M  V30 1526 C 148.753 0.607277 3.31382 0
M  V30 1527 O 149.283 -0.243903 4.00959 0
M  V30 1528 N 147.489 0.455073 2.87015 0
M  V30 1529 H 147.036 1.14879 2.30566 0
M  V30 1530 H 146.994 -0.375611 3.12148 0
M  V30 1531 N 150.766 -0.704594 1.40972 0
M  V30 1532 C 152.012 -1.46675 1.40051 0
M  V30 1533 C 152.345 -1.94199 0.00641102 0
M  V30 1534 O 151.62 -1.68916 -0.964235 0
M  V30 1535 C 151.903 -2.68505 2.39952 0
M  V30 1536 C 151.756 -2.26805 3.88432 0
M  V30 1537 C 153.075 -3.70686 2.37233 0
M  V30 1538 H 150.194 -0.532015 0.510028 0
M  V30 1539 H 152.836 -0.803255 1.72185 0
M  V30 1540 H 150.986 -3.25114 2.1268 0
M  V30 1541 H 152.658 -1.75592 4.26574 0
M  V30 1542 H 150.901 -1.58685 4.03734 0
M  V30 1543 H 151.572 -3.14181 4.53866 0
M  V30 1544 H 154.048 -3.23731 2.61415 0
M  V30 1545 H 152.924 -4.53553 3.09162 0
M  V30 1546 H 153.185 -4.19754 1.38777 0
M  V30 1547 N 152.244 -1.26651 -0.937939 0
M  V30 1548 C 153.472 -1.15173 -1.7188 0
M  V30 1549 C 153.887 0.292668 -1.86518 0
M  V30 1550 O 153.244 1.20014 -1.37488 0
M  V30 1551 C 153.295 -1.81925 -3.12387 0
M  V30 1552 O 153.016 -3.2072 -2.98446 0
M  V30 1553 C 154.517 -1.76442 -4.06673 0
M  V30 1554 H 151.737 -0.400911 -0.538063 0
M  V30 1555 H 154.281 -1.67332 -1.1756 0
M  V30 1556 H 152.436 -1.33696 -3.63599 0
M  V30 1557 H 152.85 -3.53802 -3.872 0
M  V30 1558 H 154.324 -2.27781 -5.02812 0
M  V30 1559 H 154.801 -0.731608 -4.33064 0
M  V30 1560 H 155.407 -2.24238 -3.61382 0
M  V30 1561 N 153.722 1.14298 -1.08507 0
M  V30 1562 C 154.632 2.23027 -0.727753 0
M  V30 1563 C 155.648 1.71952 0.26619 0
M  V30 1564 O 156.824 2.011 0.109882 0
M  V30 1565 C 153.889 3.46403 -0.143541 0
M  V30 1566 C 152.95 4.12413 -1.19223 0
M  V30 1567 C 152.183 5.29899 -0.635798 0
M  V30 1568 O 152.406 5.67796 0.544393 0
M  V30 1569 O 151.34 5.85717 -1.38634 0
M  V30 1570 H 155.166 2.55945 -1.63481 0
M  V30 1571 H 152.751 1.22248 -0.858817 0
M  V30 1572 H 154.633 4.21018 0.179404 0
M  V30 1573 H 153.308 3.15206 0.736659 0
M  V30 1574 H 152.215 3.39667 -1.56772 0
M  V30 1575 H 153.548 4.47718 -2.04474 0
M  V30 1576 N 155.201 0.870884 1.31352 0
M  V30 1577 C 156.111 0.330783 2.32256 0
M  V30 1578 C 157.127 -0.559767 1.6475 0
M  V30 1579 O 158.303 -0.456263 1.96164 0
M  V30 1580 C 155.368 -0.458137 3.4366 0
M  V30 1581 C 154.429 0.460482 4.26823 0
M  V30 1582 C 153.662 -0.290881 5.32907 0
M  V30 1583 O 153.885 -1.51885 5.49806 0
M  V30 1584 O 152.819 0.351732 6.00871 0
M  V30 1585 H 156.645 1.16718 2.80376 0
M  V30 1586 H 154.23 0.634285 1.35267 0
M  V30 1587 H 156.112 -0.905343 4.1156 0
M  V30 1588 H 154.787 -1.27106 2.97701 0
M  V30 1589 H 153.694 0.956207 3.61673 0
M  V30 1590 H 155.027 1.23903 4.7635 0
M  V30 1591 N 156.679 -1.44442 0.630414 0
M  V30 1592 C 157.609 -2.33418 -0.0618083 0
M  V30 1593 C 158.59 -1.48165 -0.835541 0
M  V30 1594 O 159.775 -1.76886 -0.801564 0
M  V30 1595 C 156.905 -3.31222 -1.04449 0
M  V30 1596 C 155.859 -4.26288 -0.382436 0
M  V30 1597 C 155.185 -5.13954 -1.47497 0
M  V30 1598 C 156.485 -5.1744 0.710865 0
M  V30 1599 H 158.179 -2.91548 0.681184 0
M  V30 1600 H 155.725 -1.40191 0.329026 0
M  V30 1601 H 157.678 -3.92351 -1.53748 0
M  V30 1602 H 156.402 -2.71299 -1.81836 0
M  V30 1603 H 155.061 -3.6649 0.0899054 0
M  V30 1604 H 154.709 -4.50385 -2.2397 0
M  V30 1605 H 154.409 -5.7837 -1.03737 0
M  V30 1606 H 155.933 -5.77955 -1.96979 0
M  V30 1607 H 157.347 -5.72509 0.300996 0
M  V30 1608 H 155.744 -5.90455 1.07156 0
M  V30 1609 H 156.814 -4.58496 1.57829 0
M  V30 1610 N 158.157 -0.370918 -1.53173 0
M  V30 1611 C 159.385 0.217704 -2.05751 0
M  V30 1612 C 159.8 1.42018 -1.24404 0
M  V30 1613 O 159.157 1.80245 -0.286033 0
M  V30 1614 C 159.208 0.605954 -3.56385 0
M  V30 1615 O 158.929 -0.548734 -4.3465 0
M  V30 1616 C 160.43 1.2524 -4.25241 0
M  V30 1617 H 157.65 0.0371659 -0.66997 0
M  V30 1618 H 160.194 -0.530832 -1.9749 0
M  V30 1619 H 158.349 1.3044 -3.6478 0
M  V30 1620 H 158.763 -0.23376 -5.23979 0
M  V30 1621 H 160.237 1.47458 -5.3194 0
M  V30 1622 H 160.714 2.2143 -3.79296 0
M  V30 1623 H 161.32 0.595233 -4.21114 0
M  V30 1624 N 159.635 1.57281 -0.100228 0
M  V30 1625 C 160.86 1.99302 0.573881 0
M  V30 1626 C 161.285 0.979059 1.60611 0
M  V30 1627 O 160.643 -0.0517803 1.81226 0
M  V30 1628 C 160.691 3.40274 1.19358 0
M  V30 1629 O 159.795 3.41676 2.30935 0
M  V30 1630 H 159.136 0.647944 0.145138 0
M  V30 1631 H 161.666 2.03779 -0.183156 0
M  V30 1632 H 161.676 3.78078 1.53365 0
M  V30 1633 H 160.351 4.13594 0.437385 0
M  V30 1634 H 158.928 3.15672 1.98509 0
M  V30 1635 N 161.113 -0.173488 1.56642 0
M  V30 1636 C 162.061 -1.23417 1.97157 0
M  V30 1637 C 163.055 -1.45946 0.860013 0
M  V30 1638 O 164.261 -1.46551 1.04512 0
M  V30 1639 H 160.636 -0.414818 0.62724 0
M  V30 1640 H 162.607 -0.865582 2.8557 0
M  V30 1641 C 161.356 -2.5665 2.34576 0
M  V30 1642 H 160.679 -2.40137 3.19647 0
M  V30 1643 H 162.119 -3.2956 2.6677 0
M  V30 1644 C 160.578 -3.15245 1.18836 0
M  V30 1645 O 161.108 -3.98883 0.474869 0
M  V30 1646 N 159.314 -2.74303 0.959497 0
M  V30 1647 H 158.861 -2.0639 1.54146 0
M  V30 1648 H 158.819 -3.13844 0.186932 0
M  V30 1649 N 162.591 -1.51276 -0.441967 0
M  V30 1650 C 163.868 -1.54252 -1.20273 0
M  V30 1651 C 164.248 -0.30408 -2.08898 0
M  V30 1652 O 163.596 0.711084 -2.17154 0
M  V30 1653 C 163.806 -2.85406 -2.00859 0
M  V30 1654 C 165.154 -3.37181 -2.58059 0
M  V30 1655 O 166.178 -2.86925 -2.11074 0
M  V30 1656 O 165.037 -4.24858 -3.43741 0
M  V30 1657 H 162.131 -0.619969 -0.547328 0
M  V30 1658 H 164.677 -1.63586 -0.451413 0
M  V30 1659 H 163.449 -3.67003 -1.35736 0
M  V30 1660 H 163.072 -2.79213 -2.83065 0
M  V30 1661 N 164.069 0.697108 -1.41344 0
M  V30 1662 C 165.016 1.81106 -1.43071 0
M  V30 1663 C 165.986 1.63632 -0.285275 0
M  V30 1664 O 167.171 1.84504 -0.486091 0
M  V30 1665 C 164.311 3.18975 -1.31715 0
M  V30 1666 C 163.424 3.47892 -2.56115 0
M  V30 1667 C 162.559 4.75367 -2.37064 0
M  V30 1668 C 161.598 4.97247 -3.56948 0
M  V30 1669 N 160.735 6.15947 -3.36977 0
M  V30 1670 H 165.575 1.78965 -2.38276 0
M  V30 1671 H 163.112 0.873975 -1.18322 0
M  V30 1672 H 165.07 3.98615 -1.23133 0
M  V30 1673 H 163.7 3.20297 -0.401183 0
M  V30 1674 H 162.752 2.62669 -2.75153 0
M  V30 1675 H 164.064 3.59962 -3.45295 0
M  V30 1676 H 163.218 5.63059 -2.25941 0
M  V30 1677 H 161.957 4.65541 -1.45338 0
M  V30 1678 H 160.962 4.08004 -3.68527 0
M  V30 1679 H 162.187 5.08934 -4.49626 0
M  V30 1680 H 160.133 6.07336 -2.47949 0
M  V30 1681 H 160.05 6.28777 -4.19732 0
M  V30 1682 H 161.318 7.06377 -3.29623 0
M  V30 1683 N 165.547 1.27147 0.931209 0
M  V30 1684 C 166.775 1.16082 1.71267 0
M  V30 1685 C 167.19 -0.282772 1.8667 0
M  V30 1686 O 166.547 -1.19283 1.38122 0
M  V30 1687 C 166.598 1.8358 3.11417 0
M  V30 1688 O 166.319 3.22299 2.96741 0
M  V30 1689 C 167.82 1.78597 4.05732 0
M  V30 1690 H 165.04 0.403758 0.535929 0
M  V30 1691 H 167.584 1.67953 1.16671 0
M  V30 1692 H 165.739 1.35623 3.62885 0
M  V30 1693 H 166.153 3.55851 3.85319 0
M  V30 1694 H 167.627 2.30444 5.01597 0
M  V30 1695 H 168.104 0.754564 4.3267 0
M  V30 1696 H 168.71 2.26152 3.60188 0
M  V30 1697 N 167.025 -1.13721 1.09112 0
M  V30 1698 C 168.441 -1.36914 0.820174 0
M  V30 1699 C 168.641 -1.93356 -0.567079 0
M  V30 1700 O 167.697 -2.15093 -1.32255 0
M  V30 1701 C 169.01 -2.3235 1.90877 0
M  V30 1702 C 170.558 -2.45973 1.93562 0
M  V30 1703 C 171.033 -3.44714 3.01556 0
M  V30 1704 N 172.524 -3.52263 3.00775 0
M  V30 1705 C 173.259 -4.28536 3.80978 0
M  V30 1706 N 172.755 -5.07991 4.71081 0
M  V30 1707 N 174.548 -4.23804 3.69251 0
M  V30 1708 H 166.699 -0.754348 1.98553 0
M  V30 1709 H 168.962 -0.3944 0.862063 0
M  V30 1710 H 168.668 -1.98027 2.90651 0
M  V30 1711 H 168.542 -3.32332 1.78424 0
M  V30 1712 H 170.929 -2.79584 0.944286 0
M  V30 1713 H 171.01 -1.45926 2.10093 0
M  V30 1714 H 170.654 -3.11835 4.00901 0
M  V30 1715 H 170.584 -4.44558 2.82269 0
M  V30 1716 H 173.075 -2.95567 2.35475 0
M  V30 1717 H 173.388 -5.63487 5.28869 0
M  V30 1718 H 171.733 -5.07235 4.75119 0
M  V30 1719 H 174.924 -3.60806 2.98222 0
M  V30 1720 H 175.097 -4.82995 4.31995 0
M  V30 1721 N 168.503 -0.877838 -1.30888 0
M  V30 1722 C 169.752 -0.488793 -1.95688 0
M  V30 1723 C 170.065 0.965485 -1.70111 0
M  V30 1724 O 171.271 1.46104 -2.28836 0
M  V30 1725 C 169.727 -0.823201 -3.50359 0
M  V30 1726 C 169.335 -2.29477 -3.84765 0
M  V30 1727 C 171.079 -0.503009 -4.21509 0
M  V30 1728 C 168.986 -2.57118 -5.32583 0
M  V30 1729 H 167.916 -0.179062 -0.732429 0
M  V30 1730 H 170.567 -1.07183 -1.48943 0
M  V30 1731 H 168.949 -0.169331 -3.95638 0
M  V30 1732 H 170.123 -2.99236 -3.5042 0
M  V30 1733 H 168.438 -2.58178 -3.267 0
M  V30 1734 H 171.035 -0.68665 -5.30273 0
M  V30 1735 H 171.378 0.557109 -4.12555 0
M  V30 1736 H 171.911 -1.11376 -3.8189 0
M  V30 1737 H 168.65 -3.61843 -5.4658 0
M  V30 1738 H 168.17 -1.91961 -5.68253 0
M  V30 1739 H 169.849 -2.42251 -5.99936 0
M  V30 1740 N 169.982 1.44106 -0.638065 0
M  V30 1741 C 170.912 2.33448 0.0494287 0
M  V30 1742 C 171.893 1.48606 0.827672 0
M  V30 1743 O 173.078 1.77308 0.792173 0
M  V30 1744 C 170.208 3.31771 1.02691 0
M  V30 1745 C 169.162 4.26485 0.359823 0
M  V30 1746 C 168.488 5.14729 1.44769 0
M  V30 1747 C 169.788 5.17056 -0.738296 0
M  V30 1748 H 171.482 2.91183 -0.696636 0
M  V30 1749 H 169.028 1.40014 -0.336456 0
M  V30 1750 H 170.981 3.93161 1.51666 0
M  V30 1751 H 169.705 2.7226 1.80395 0
M  V30 1752 H 168.364 3.66437 -0.10934 0
M  V30 1753 H 168.012 4.51566 2.21578 0
M  V30 1754 H 167.712 5.78913 1.00668 0
M  V30 1755 H 169.236 5.78991 1.93911 0
M  V30 1756 H 170.65 5.72342 -0.331354 0
M  V30 1757 H 169.047 5.89879 -1.10286 0
M  V30 1758 H 170.117 4.57652 -1.60258 0
M  V30 1759 N 171.46 0.379036 1.52974 0
M  V30 1760 C 172.408 -0.476033 2.27677 0
M  V30 1761 C 173.402 -1.0719 1.31174 0
M  V30 1762 O 174.608 -1.01355 1.48752 0
M  V30 1763 H 170.983 -0.172255 0.732006 0
M  V30 1764 H 172.954 0.175615 2.97883 0
M  V30 1765 C 171.703 -1.5967 3.0887 0
M  V30 1766 H 171.026 -1.1475 3.82978 0
M  V30 1767 H 172.466 -2.16943 3.64296 0
M  V30 1768 C 170.925 -2.54682 2.20542 0
M  V30 1769 O 171.455 -3.57836 1.82527 0
M  V30 1770 N 169.661 -2.24183 1.84907 0
M  V30 1771 H 169.208 -1.40333 2.1602 0
M  V30 1772 H 169.166 -2.88006 1.26096 0
M  V30 1773 N 172.938 -1.57226 0.108567 0
M  V30 1774 C 174.184 -1.95121 -0.552761 0
M  V30 1775 C 174.517 -0.991345 -1.66991 0
M  V30 1776 O 173.792 -0.0267211 -1.94482 0
M  V30 1777 C 174.075 -3.43039 -1.09528 0
M  V30 1778 C 173.928 -4.49797 0.0177332 0
M  V30 1779 C 175.247 -3.92567 -1.98945 0
M  V30 1780 H 172.366 -0.709496 -0.199461 0
M  V30 1781 H 175.008 -1.89126 0.182011 0
M  V30 1782 H 173.158 -3.48279 -1.72146 0
M  V30 1783 H 174.83 -4.56661 0.652584 0
M  V30 1784 H 173.073 -4.284 0.682309 0
M  V30 1785 H 173.744 -5.50528 -0.402919 0
M  V30 1786 H 176.22 -3.89565 -1.46214 0
M  V30 1787 H 175.096 -4.96605 -2.33827 0
M  V30 1788 H 175.357 -3.32648 -2.91201 0
M  V30 1789 N 174.416 0.165178 -1.56732 0
M  V30 1790 C 175.348 1.22911 -1.93457 0
M  V30 1791 C 176.361 1.40152 -0.828333 0
M  V30 1792 O 177.55 1.40046 -1.10677 0
M  V30 1793 C 174.65 2.59686 -2.17753 0
M  V30 1794 C 173.823 2.63663 -3.48999 0
M  V30 1795 C 172.882 3.81845 -3.62051 0
M  V30 1796 O 171.908 3.67559 -4.34613 0
M  V30 1797 N 173.11 4.98557 -2.97357 0
M  V30 1798 H 175.875 0.917118 -2.85323 0
M  V30 1799 H 173.436 0.354895 -1.57962 0
M  V30 1800 H 175.428 3.37225 -2.23743 0
M  V30 1801 H 173.998 2.83251 -1.32242 0
M  V30 1802 H 173.218 1.72173 -3.54612 0
M  V30 1803 H 174.506 2.63336 -4.35352 0
M  V30 1804 H 173.904 5.13065 -2.38287 0
M  V30 1805 H 172.461 5.73936 -3.08934 0
M  V30 1806 N 175.894 1.51508 0.433938 0
M  V30 1807 C 177.119 1.68443 1.21003 0
M  V30 1808 C 177.544 0.382636 1.84167 0
M  V30 1809 O 176.902 -0.65755 1.68956 0
M  V30 1810 C 176.95 2.80405 2.26727 0
M  V30 1811 O 176.054 2.44245 3.32292 0
M  V30 1812 H 175.395 0.561536 0.354363 0
M  V30 1813 H 177.925 1.9809 0.512024 0
M  V30 1814 H 177.935 3.0459 2.71457 0
M  V30 1815 H 176.61 3.74867 1.80132 0
M  V30 1816 H 175.187 2.30644 2.93015 0
M  V30 1817 N 177.372 -0.689602 1.41712 0
M  V30 1818 C 178.788 -1.00093 1.24312 0
M  V30 1819 C 178.988 -2.01036 0.136729 0
M  V30 1820 O 178.044 -2.47562 -0.496918 0
M  V30 1821 C 179.357 -1.51985 2.59463 0
M  V30 1822 C 180.905 -1.63838 2.66695 0
M  V30 1823 C 181.38 -2.1913 4.02177 0
M  V30 1824 N 182.871 -2.26483 4.04054 0
M  V30 1825 C 183.606 -2.70306 5.0569 0
M  V30 1826 N 183.102 -3.13691 6.17713 0
M  V30 1827 N 184.895 -2.69923 4.9305 0
M  V30 1828 H 177.046 -0.0210029 2.1239 0
M  V30 1829 H 179.309 -0.0718733 0.945272 0
M  V30 1830 H 179.015 -0.85269 3.41207 0
M  V30 1831 H 178.889 -2.50103 2.82362 0
M  V30 1832 H 181.276 -2.29664 1.85306 0
M  V30 1833 H 181.357 -0.642492 2.476 0
M  V30 1834 H 181.001 -1.53918 4.84016 0
M  V30 1835 H 180.931 -3.19482 4.18615 0
M  V30 1836 H 183.422 -1.95874 3.23174 0
M  V30 1837 H 183.735 -3.45773 6.9113 0
M  V30 1838 H 182.08 -3.11585 6.21241 0
M  V30 1839 H 185.271 -2.35382 4.04614 0
M  V30 1840 H 185.444 -3.03758 5.72394 0
M  V30 1841 N 178.85 -1.27639 -0.924453 0
M  V30 1842 C 179.78 -1.13166 -2.04244 0
M  V30 1843 C 180.761 -0.032256 -1.70069 0
M  V30 1844 O 181.946 -0.207328 -1.9309 0
M  V30 1845 C 179.076 -0.781496 -3.38393 0
M  V30 1846 C 178.03 -1.83449 -3.86692 0
M  V30 1847 C 177.356 -1.33822 -5.17683 0
M  V30 1848 C 178.656 -3.23917 -4.09726 0
M  V30 1849 H 180.35 -2.06689 -2.1661 0
M  V30 1850 H 177.896 -0.995136 -1.04082 0
M  V30 1851 H 179.849 -0.667057 -4.16087 0
M  V30 1852 H 178.573 0.189439 -3.2605 0
M  V30 1853 H 177.232 -1.93789 -3.11193 0
M  V30 1854 H 176.88 -0.35665 -5.01734 0
M  V30 1855 H 176.58 -2.04224 -5.50968 0
M  V30 1856 H 178.104 -1.23679 -5.97943 0
M  V30 1857 H 179.518 -3.16559 -4.77978 0
M  V30 1858 H 177.915 -3.92059 -4.54324 0
M  V30 1859 H 178.985 -3.68729 -3.14908 0
M  V30 1860 N 180.328 1.1314 -1.09713 0
M  V30 1861 C 181.556 1.88321 -0.856898 0
M  V30 1862 C 181.971 1.79276 0.592073 0
M  V30 1863 O 181.328 1.16142 1.40774 0
M  V30 1864 C 181.379 3.37812 -1.28706 0
M  V30 1865 O 181.1 3.46627 -2.67921 0
M  V30 1866 C 182.601 4.29952 -1.07964 0
M  V30 1867 H 179.821 0.596094 -0.308079 0
M  V30 1868 H 182.365 1.43205 -1.45988 0
M  V30 1869 H 180.52 3.805 -0.727912 0
M  V30 1870 H 180.934 4.39579 -2.8613 0
M  V30 1871 H 182.408 5.33159 -1.42986 0
M  V30 1872 H 182.885 4.39196 -0.0176577 0
M  V30 1873 H 183.491 3.93036 -1.62489 0
M  V30 1874 N 181.806 0.884767 1.30421 0
M  V30 1875 C 183.083 0.423185 1.90967 0
M  V30 1876 C 183.463 -1.09605 1.80416 0
M  V30 1877 O 182.811 -1.93126 1.22125 0
M  V30 1878 C 183.021 0.921056 3.36627 0
M  V30 1879 C 184.369 0.955903 4.137 0
M  V30 1880 O 185.393 0.867706 3.4547 0
M  V30 1881 O 184.252 1.08614 5.35598 0
M  V30 1882 H 181.346 0.129369 0.816819 0
M  V30 1883 H 183.892 0.973653 1.3899 0
M  V30 1884 H 182.664 1.96489 3.3839 0
M  V30 1885 H 182.287 0.349741 3.96059 0
M  V30 1886 N 183.284 -1.43765 0.645699 0
M  V30 1887 C 184.247 -2.29163 -0.0409488 0
M  V30 1888 C 185.247 -1.41813 -0.757996 0
M  V30 1889 O 186.437 -1.63527 -0.600382 0
M  V30 1890 C 183.569 -3.23716 -1.06869 0
M  V30 1891 H 184.762 -2.91366 0.710345 0
M  V30 1892 H 182.315 -1.5092 0.406547 0
M  V30 1893 H 183.05 -2.66393 -1.84947 0
M  V30 1894 H 182.835 -3.88105 -0.558277 0
M  V30 1895 H 184.325 -3.87831 -1.54845 0
M  V30 1896 N 184.763 -0.387143 -1.52771 0
M  V30 1897 C 185.71 0.449048 -2.26389 0
M  V30 1898 C 186.68 1.05961 -1.27912 0
M  V30 1899 O 187.865 1.08804 -1.56737 0
M  V30 1900 C 185.005 1.57155 -3.0724 0
M  V30 1901 C 184.118 0.984066 -4.20643 0
M  V30 1902 C 183.253 2.07745 -4.88892 0
M  V30 1903 C 182.292 1.46574 -5.94292 0
M  V30 1904 N 181.429 2.49834 -6.56146 0
M  V30 1905 H 186.269 -0.185205 -2.97424 0
M  V30 1906 H 183.806 -0.103164 -1.46738 0
M  V30 1907 H 185.764 2.23309 -3.52405 0
M  V30 1908 H 184.394 2.17615 -2.38419 0
M  V30 1909 H 183.446 0.212193 -3.79808 0
M  V30 1910 H 184.758 0.497029 -4.96318 0
M  V30 1911 H 183.912 2.81673 -5.3735 0
M  V30 1912 H 182.651 2.59807 -4.12737 0
M  V30 1913 H 181.656 0.711696 -5.45174 0
M  V30 1914 H 182.881 0.953088 -6.72379 0
M  V30 1915 H 180.827 3.0107 -5.82832 0
M  V30 1916 H 180.744 2.05879 -7.27427 0
M  V30 1917 H 182.012 3.23399 -7.09249 0
M  V30 1918 N 186.241 1.57166 -0.116904 0
M  V30 1919 C 187.657 1.5779 0.239693 0
M  V30 1920 C 187.857 1.1295 1.66867 0
M  V30 1921 O 186.913 0.81592 2.38954 0
M  V30 1922 C 188.226 3.00699 0.00828202 0
M  V30 1923 C 189.774 3.12912 0.0743438 0
M  V30 1924 C 190.249 4.57817 -0.129348 0
M  V30 1925 N 191.74 4.63139 -0.075247 0
M  V30 1926 C 192.475 5.73023 -0.207788 0
M  V30 1927 N 191.971 6.91665 -0.396382 0
M  V30 1928 N 193.764 5.61906 -0.14751 0
M  V30 1929 H 185.915 1.84615 -1.05029 0
M  V30 1930 H 188.178 0.85311 -0.41341 0
M  V30 1931 H 187.884 3.37784 -0.979531 0
M  V30 1932 H 187.758 3.69848 0.741077 0
M  V30 1933 H 190.145 2.75686 1.05268 0
M  V30 1934 H 190.226 2.4631 -0.690297 0
M  V30 1935 H 189.87 4.95742 -1.10465 0
M  V30 1936 H 189.8 5.22507 0.655253 0
M  V30 1937 H 192.291 3.7784 0.0670898 0
M  V30 1938 H 192.604 7.71255 -0.488437 0
M  V30 1939 H 190.949 6.93654 -0.432329 0
M  V30 1940 H 194.14 4.681 -0.00115036 0
M  V30 1941 H 194.313 6.47501 -0.254247 0
M  V30 1942 N 187.719 -0.156864 1.56817 0
M  V30 1943 C 188.968 -0.869504 1.81996 0
M  V30 1944 C 189.281 -1.82777 0.696545 0
M  V30 1945 O 190.487 -2.58384 0.833658 0
M  V30 1946 C 188.943 -1.59679 3.22538 0
M  V30 1947 C 188.551 -0.681431 4.42787 0
M  V30 1948 C 190.295 -2.2968 3.56997 0
M  V30 1949 C 188.202 -1.40978 5.74351 0
M  V30 1950 H 187.132 -0.328438 0.678708 0
M  V30 1951 H 189.783 -0.1223 1.83092 0
M  V30 1952 H 188.165 -2.38927 3.158 0
M  V30 1953 H 189.339 0.0751166 4.60739 0
M  V30 1954 H 187.654 -0.0903431 4.16302 0
M  V30 1955 H 190.251 -2.84794 4.52544 0
M  V30 1956 H 190.594 -3.05707 2.82576 0
M  V30 1957 H 191.127 -1.57361 3.65352 0
M  V30 1958 H 187.866 -0.691561 6.51842 0
M  V30 1959 H 187.386 -2.13929 5.60352 0
M  V30 1960 H 189.065 -1.95337 6.16808 0
M  V30 1961 N 189.197 -1.51736 -0.425897 0
M  V30 1962 C 190.145 -1.74464 -1.53834 0
M  V30 1963 C 191.139 -0.611241 -1.57988 0
M  V30 1964 O 192.345 -0.792899 -1.61596 0
M  V30 1965 H 188.72 -0.551437 -0.511293 0
M  V30 1966 H 190.691 -2.67694 -1.31843 0
M  V30 1967 C 189.44 -1.8972 -2.91379 0
M  V30 1968 H 188.763 -2.76344 -2.88919 0
M  V30 1969 H 190.203 -2.09629 -3.68553 0
M  V30 1970 C 188.662 -0.65992 -3.30374 0
M  V30 1971 O 189.192 0.180083 -4.01296 0
M  V30 1972 N 187.398 -0.500677 -2.86254 0
M  V30 1973 H 186.945 -1.18532 -2.28709 0
M  V30 1974 H 186.903 0.325903 -3.12706 0
M  V30 1975 N 190.675 0.682077 -1.42076 0
M  V30 1976 C 191.921 1.44283 -1.43366 0
M  V30 1977 C 192.276 1.92344 -0.0465775 0
M  V30 1978 O 191.569 1.67517 0.929973 0
M  V30 1979 C 191.763 2.66036 -2.38662 0
M  V30 1980 C 191.592 2.29889 -3.86499 0
M  V30 1981 C 190.362 2.19599 -4.55087 0
M  V30 1982 C 192.56 1.91999 -4.77117 0
M  V30 1983 N 190.542 1.76478 -5.87987 0
M  V30 1984 C 191.913 1.59741 -5.99068 0
M  V30 1985 C 193.968 1.78927 -4.64639 0
M  V30 1986 C 192.671 1.15723 -7.0993 0
M  V30 1987 C 194.697 1.36314 -5.75476 0
M  V30 1988 C 194.059 1.04975 -6.96534 0
M  V30 1989 H 190.158 0.524739 -0.579805 0
M  V30 1990 H 192.742 0.787834 -1.78048 0
M  V30 1991 H 190.913 3.29237 -2.06053 0
M  V30 1992 H 192.645 3.32588 -2.30581 0
M  V30 1993 H 189.4 2.38433 -4.09202 0
M  V30 1994 H 189.824 1.57362 -6.58458 0
M  V30 1995 H 194.466 2.01805 -3.7153 0
M  V30 1996 H 192.184 0.91591 -8.02893 0
M  V30 1997 H 195.77 1.26731 -5.6783 0
M  V30 1998 H 194.65 0.725017 -7.80841 0
M  V30 1999 N 192.153 1.28127 0.917671 0
M  V30 2000 C 193.569 1.05749 1.19538 0
M  V30 2001 C 193.769 -0.202633 2.00479 0
M  V30 2002 O 192.825 -0.905382 2.3571 0
M  V30 2003 C 194.138 2.30273 1.93378 0
M  V30 2004 C 195.686 2.35412 2.06277 0
M  V30 2005 C 196.161 3.59692 2.83524 0
M  V30 2006 N 197.652 3.60309 2.91087 0
M  V30 2007 C 198.387 4.53147 3.51348 0
M  V30 2008 N 197.883 5.563 4.12919 0
M  V30 2009 N 199.676 4.40751 3.48849 0
M  V30 2010 H 191.827 2.09024 0.377184 0
M  V30 2011 H 194.09 0.919798 0.22951 0
M  V30 2012 H 193.796 3.22055 1.41328 0
M  V30 2013 H 193.67 2.36378 2.93947 0
M  V30 2014 H 196.057 1.4413 2.57508 0
M  V30 2015 H 196.138 2.33304 1.04895 0
M  V30 2016 H 195.782 4.51316 2.32973 0
M  V30 2017 H 195.712 3.59054 3.85211 0
M  V30 2018 H 198.203 2.85714 2.47338 0
M  V30 2019 H 198.516 6.2329 4.56869 0
M  V30 2020 H 196.861 5.60131 4.11435 0
M  V30 2021 H 200.052 3.59367 2.99955 0
M  V30 2022 H 200.225 5.13291 3.9552 0
M  V30 2023 N 193.631 -1.12557 1.10312 0
M  V30 2024 C 194.859 -1.87864 0.866873 0
M  V30 2025 C 195.274 -1.79588 -0.582557 0
M  V30 2026 O 194.631 -1.16887 -1.40156 0
M  V30 2027 C 194.682 -3.37125 1.30496 0
M  V30 2028 O 194.403 -3.45201 2.69755 0
M  V30 2029 C 195.904 -4.29373 1.10243 0
M  V30 2030 H 193.124 -0.594452 0.311236 0
M  V30 2031 H 195.668 -1.42429 1.46745 0
M  V30 2032 H 193.823 -3.80109 0.748081 0
M  V30 2033 H 194.237 -4.38056 2.88457 0
M  V30 2034 H 195.711 -5.32394 1.45811 0
M  V30 2035 H 196.188 -4.39181 0.0409492 0
M  V30 2036 H 196.794 -3.92169 1.64571 0
M  V30 2037 N 195.109 -0.891671 -1.2995 0
M  V30 2038 C 196.355 -0.514261 -1.96171 0
M  V30 2039 C 196.688 0.935506 -1.70182 0
M  V30 2040 O 195.963 1.66204 -1.01028 0
M  V30 2041 C 196.246 -0.797719 -3.51153 0
M  V30 2042 C 196.099 -2.2986 -3.86632 0
M  V30 2043 C 197.418 -0.278749 -4.39216 0
M  V30 2044 H 194.537 -0.188314 -0.712535 0
M  V30 2045 H 197.179 -1.11689 -1.53706 0
M  V30 2046 H 195.329 -0.284826 -3.87455 0
M  V30 2047 H 197.001 -2.88042 -3.60319 0
M  V30 2048 H 195.244 -2.76257 -3.34462 0
M  V30 2049 H 195.915 -2.44753 -4.94773 0
M  V30 2050 H 198.391 -0.717825 -4.09862 0
M  V30 2051 H 197.267 -0.506353 -5.46559 0
M  V30 2052 H 197.528 0.820266 -4.34424 0
M  V30 2053 N 196.587 1.43421 -0.653314 0
M  V30 2054 C 197.517 2.33487 0.0246656 0
M  V30 2055 C 198.498 1.49475 0.811863 0
M  V30 2056 O 199.683 1.78139 0.773322 0
M  V30 2057 C 196.813 3.32841 0.99166 0
M  V30 2058 C 195.767 4.26842 0.314568 0
M  V30 2059 C 195.093 5.16236 1.39302 0
M  V30 2060 C 196.393 5.16243 -0.793095 0
M  V30 2061 H 198.087 2.90427 -0.727481 0
M  V30 2062 H 195.633 1.39649 -0.351287 0
M  V30 2063 H 197.586 3.94747 1.47487 0
M  V30 2064 H 196.31 2.74158 1.77497 0
M  V30 2065 H 194.969 3.663 -0.148199 0
M  V30 2066 H 194.617 4.53891 2.16776 0
M  V30 2067 H 194.317 5.79948 0.945223 0
M  V30 2068 H 195.841 5.81015 1.87759 0
M  V30 2069 H 197.255 5.71958 -0.392039 0
M  V30 2070 H 195.652 5.88676 -1.16536 0
M  V30 2071 H 196.722 4.55927 -1.65103 0
M  V30 2072 N 198.065 0.39524 1.52563 0
M  V30 2073 C 199.29 -0.187456 2.06551 0
M  V30 2074 C 199.715 -1.39249 1.26457 0
M  V30 2075 O 199.073 -1.78947 0.291151 0
M  V30 2076 C 199.121 -0.529985 3.56684 0
M  V30 2077 O 198.225 -1.62307 3.79118 0
M  V30 2078 H 197.566 -0.0202537 0.663691 0
M  V30 2079 H 200.096 0.564426 1.96661 0
M  V30 2080 H 200.106 -0.792598 4.00227 0
M  V30 2081 H 198.781 0.350987 4.14416 0
M  V30 2082 H 197.358 -1.3537 3.47461 0
M  V30 2083 N 199.544 -1.57102 0.125237 0
M  V30 2084 C 200.792 -1.95021 -0.530198 0
M  V30 2085 C 201.113 -1.00982 -1.66816 0
M  V30 2086 O 200.383 -0.0672693 -1.95784 0
M  V30 2087 H 198.963 -0.720046 -0.198853 0
M  V30 2088 H 201.625 -1.93916 0.19564 0
M  V30 2089 H 200.721 -2.98211 -0.920681 0
M  V30 2090 N 201.022 0.148545 -1.56898 0
M  V30 2091 C 202.27 0.859717 -1.82902 0
M  V30 2092 C 202.591 1.81775 -0.70588 0
M  V30 2093 O 201.861 1.93994 0.272586 0
M  V30 2094 H 200.441 0.320469 -0.674766 0
M  V30 2095 H 203.103 0.142918 -1.94375 0
M  V30 2096 H 202.199 1.4229 -2.77777 0
M  V30 2097 N 202.5 1.5196 0.417844 0
M  V30 2098 C 203.725 1.69717 1.1921 0
M  V30 2099 C 204.15 0.402148 1.83751 0
M  V30 2100 O 203.508 -0.639593 1.69643 0
M  V30 2101 C 203.556 2.82794 2.2374 0
M  V30 2102 O 202.66 2.47756 3.29683 0
M  V30 2103 H 202.001 0.565263 0.348387 0
M  V30 2104 H 204.531 1.98621 0.490985 0
M  V30 2105 H 204.541 3.07452 2.68212 0
M  V30 2106 H 203.216 3.76756 1.76146 0
M  V30 2107 H 201.793 2.33739 2.90552 0
M  V30 2108 N 203.978 -0.674533 1.42435 0
M  V30 2109 C 204.908 -1.80009 1.48724 0
M  V30 2110 C 205.889 -1.6659 0.343793 0
M  V30 2111 O 207.074 -1.86007 0.558137 0
M  V30 2112 C 204.204 -3.18306 1.38919 0
M  V30 2113 C 203.158 -3.46461 2.51294 0
M  V30 2114 C 202.484 -4.84335 2.26547 0
M  V30 2115 C 203.784 -3.43328 3.93603 0
M  V30 2116 H 205.478 -1.75004 2.42928 0
M  V30 2117 H 203.024 -0.840533 1.16923 0
M  V30 2118 H 204.977 -3.9678 1.41927 0
M  V30 2119 H 203.701 -3.2399 0.412094 0
M  V30 2120 H 202.36 -2.70348 2.47604 0
M  V30 2121 H 202.008 -4.86669 1.2713 0
M  V30 2122 H 201.708 -5.04136 3.01861 0
M  V30 2123 H 203.232 -5.65094 2.31304 0
M  V30 2124 H 204.646 -4.11772 3.98894 0
M  V30 2125 H 203.043 -3.74664 4.68771 0
M  V30 2126 H 204.113 -2.41897 4.20255 0
M  V30 2127 N 205.456 -1.28612 -0.910864 0
M  V30 2128 C 206.686 -1.1862 -1.69153 0
M  V30 2129 C 207.094 0.257324 -1.87442 0
M  V30 2130 O 206.437 1.18543 -1.40332 0
M  V30 2131 C 206.499 -1.81606 -3.10257 0
M  V30 2132 C 206.163 -3.30864 -3.15243 0
M  V30 2133 C 207.16 -4.27256 -2.96223 0
M  V30 2134 C 204.845 -3.71871 -3.37664 0
M  V30 2135 C 206.839 -5.62631 -2.99541 0
M  V30 2136 C 204.526 -5.07371 -3.40614 0
M  V30 2137 C 205.524 -6.02561 -3.21573 0
M  V30 2138 O 205.212 -7.35589 -3.2429 0
M  V30 2139 H 204.944 -0.412633 -0.535453 0
M  V30 2140 H 207.498 -1.70306 -1.14827 0
M  V30 2141 H 205.728 -1.24418 -3.66138 0
M  V30 2142 H 207.417 -1.66092 -3.70362 0
M  V30 2143 H 208.183 -3.9691 -2.78725 0
M  V30 2144 H 204.062 -2.98241 -3.5153 0
M  V30 2145 H 207.606 -6.36907 -2.84597 0
M  V30 2146 H 203.503 -5.37366 -3.57642 0
M  V30 2147 H 204.271 -7.44252 -3.40633 0
M  V30 2148 N 206.934 1.1197 -1.10907 0
M  V30 2149 C 208.183 1.82947 -0.849302 0
M  V30 2150 C 208.496 1.85275 0.627112 0
M  V30 2151 O 209.702 2.52296 1.00295 0
M  V30 2152 C 208.158 3.28529 -1.46959 0
M  V30 2153 C 207.766 3.34546 -2.97965 0
M  V30 2154 C 209.51 4.04443 -1.28942 0
M  V30 2155 C 207.417 4.74491 -3.53004 0
M  V30 2156 H 206.347 0.685477 -0.314065 0
M  V30 2157 H 208.998 1.2604 -1.33365 0
M  V30 2158 H 207.38 3.85333 -0.912917 0
M  V30 2159 H 208.554 2.87654 -3.59989 0
M  V30 2160 H 206.869 2.72108 -3.15192 0
M  V30 2161 H 209.466 5.07787 -1.67502 0
M  V30 2162 H 209.809 4.15656 -0.231456 0
M  V30 2163 H 210.342 3.5401 -1.81443 0
M  V30 2164 H 207.081 4.68474 -4.58489 0
M  V30 2165 H 206.601 5.21816 -2.9575 0
M  V30 2166 H 208.28 5.4344 -3.51115 0
M  V30 2167 N 208.412 0.89855 1.29475 0
M  V30 2168 C 209.322 0.379974 2.31502 0
M  V30 2169 C 210.338 -0.524695 1.659 0
M  V30 2170 O 211.514 -0.414551 1.97087 0
M  V30 2171 C 208.579 -0.385138 3.44554 0
M  V30 2172 C 207.64 0.550914 4.2575 0
M  V30 2173 C 206.873 -0.177778 5.33404 0
M  V30 2174 O 207.096 -1.40189 5.52904 0
M  V30 2175 O 206.03 0.479106 5.9999 0
M  V30 2176 H 209.856 1.22639 2.77837 0
M  V30 2177 H 207.441 0.662834 1.33891 0
M  V30 2178 H 209.323 -0.817841 4.13388 0
M  V30 2179 H 207.998 -1.20763 3.0033 0
M  V30 2180 H 206.905 1.03271 3.59564 0
M  V30 2181 H 208.238 1.33979 4.73614 0
M  V30 2182 N 209.89 -1.43072 0.660911 0
M  V30 2183 C 211.139 -2.00942 0.174735 0
M  V30 2184 C 211.452 -1.52797 -1.22117 0
M  V30 2185 O 212.658 -2.02991 -1.80297 0
M  V30 2186 C 211.114 -3.58948 0.261559 0
M  V30 2187 C 210.722 -4.16085 1.66064 0
M  V30 2188 C 212.466 -4.24173 -0.166617 0
M  V30 2189 C 210.373 -5.6641 1.70098 0
M  V30 2190 H 209.303 -0.751483 0.0615631 0
M  V30 2191 H 211.954 -1.63955 0.824069 0
M  V30 2192 H 210.336 -3.93372 -0.455421 0
M  V30 2193 H 211.51 -3.93147 2.40359 0
M  V30 2194 H 209.825 -3.6326 2.03546 0
M  V30 2195 H 212.422 -5.34471 -0.156433 0
M  V30 2196 H 212.765 -3.98647 -1.19943 0
M  V30 2197 H 213.298 -3.94659 0.498875 0
M  V30 2198 H 210.037 -5.96715 2.71315 0
M  V30 2199 H 209.557 -5.91382 1.00139 0
M  V30 2200 H 211.236 -6.30585 1.44816 0
M  V30 2201 N 211.368 -0.403325 -1.52352 0
M  V30 2202 C 212.779 0.0675782 -1.86578 0
M  V30 2203 C 213.13 1.44941 -1.32236 0
M  V30 2204 O 212.255 2.06112 -0.659307 0
M  V30 2205 C 212.85 0.129404 -3.38553 0
M  V30 2206 C 211.409 0.544629 -3.72439 0
M  V30 2207 C 210.556 -0.284551 -2.75836 0
M  V30 2208 H 213.507 -0.620631 -1.46061 0
M  V30 2209 H 213.528 0.94581 -3.68558 0
M  V30 2210 H 213.04 -0.87645 -3.78074 0
M  V30 2211 H 211.141 1.55734 -3.38493 0
M  V30 2212 H 211.254 0.293046 -4.78203 0
M  V30 2213 H 209.618 0.252258 -2.53448 0
M  V30 2214 H 210.401 -1.28865 -3.18196 0
M  V30 2215 N 212.846 1.57033 -0.133567 0
M  V30 2216 C 214.094 1.953 0.519848 0
M  V30 2217 C 214.415 1.01866 1.66278 0
M  V30 2218 O 213.685 0.0776513 1.95746 0
M  V30 2219 H 212.265 0.721091 0.195032 0
M  V30 2220 H 214.927 1.93809 -0.205921 0
M  V30 2221 H 214.023 2.98695 0.904854 0
M  V30 2222 N 214.325 -0.140222 1.56975 0
M  V30 2223 C 215.573 -0.850005 1.83356 0
M  V30 2224 C 215.894 -1.81399 0.71551 0
M  V30 2225 O 215.164 -1.94136 -0.262294 0
M  V30 2226 H 213.744 -0.316886 0.676456 0
M  V30 2227 H 216.406 -0.132608 1.94448 0
M  V30 2228 H 215.502 -1.40814 2.78528 0
M  V30 2229 N 215.803 -1.52179 -0.40978 0
M  V30 2230 C 216.766 -1.74853 -1.48186 0
M  V30 2231 C 217.766 -0.618417 -1.48433 0
M  V30 2232 O 218.956 -0.886286 -1.49969 0
M  V30 2233 C 216.088 -1.8303 -2.87598 0
M  V30 2234 H 217.281 -2.70559 -1.29374 0
M  V30 2235 H 214.834 -1.42586 -0.640233 0
M  V30 2236 H 215.569 -0.89236 -3.11781 0
M  V30 2237 H 215.354 -2.65187 -2.88822 0
M  V30 2238 H 216.844 -2.02316 -3.65319 0
M  V30 2239 N 217.281 0.66697 -1.42791 0
M  V30 2240 C 218.211 1.79218 -1.49677 0
M  V30 2241 C 219.192 1.66405 -0.352623 0
M  V30 2242 O 220.377 1.85708 -0.567993 0
M  V30 2243 C 217.507 3.17565 -1.40605 0
M  V30 2244 C 216.461 3.45124 -2.53127 0
M  V30 2245 C 215.787 4.83127 -2.29112 0
M  V30 2246 C 217.087 3.41236 -3.95418 0
M  V30 2247 H 218.781 1.73713 -2.43853 0
M  V30 2248 H 216.327 0.83432 -1.17367 0
M  V30 2249 H 218.28 3.96022 -1.44029 0
M  V30 2250 H 217.004 3.23767 -0.429271 0
M  V30 2251 H 215.663 2.69031 -2.49034 0
M  V30 2252 H 215.311 4.85988 -1.29709 0
M  V30 2253 H 215.011 5.02528 -3.04531 0
M  V30 2254 H 216.535 5.63859 -2.34297 0
M  V30 2255 H 217.949 4.09651 -4.01073 0
M  V30 2256 H 216.346 3.72173 -4.70752 0
M  V30 2257 H 217.416 2.39665 -4.21532 0
M  V30 2258 N 218.759 1.29093 0.90403 0
M  V30 2259 C 220.17 1.15186 1.46932 0
M  V30 2260 C 220.521 -0.254587 1.94541 0
M  V30 2261 O 219.646 -1.14972 1.83332 0
M  V30 2262 C 220.241 2.08492 2.67051 0
M  V30 2263 C 218.8 1.98621 3.19729 0
M  V30 2264 C 217.947 1.9967 1.92425 0
M  V30 2265 H 220.898 1.41641 0.715789 0
M  V30 2266 H 220.919 1.65461 3.42641 0
M  V30 2267 H 220.431 3.10847 2.3237 0
M  V30 2268 H 218.532 0.993389 3.59114 0
M  V30 2269 H 218.645 2.86068 3.8432 0
M  V30 2270 H 217.009 1.44208 2.09943 0
M  V30 2271 H 217.792 3.03721 1.60026 0
M  V30 2272 N 220.237 -1.11381 1.11499 0
M  V30 2273 C 221.147 -2.21019 0.786628 0
M  V30 2274 C 222.163 -1.72597 -0.220507 0
M  V30 2275 O 223.339 -2.01321 -0.0565251 0
M  V30 2276 C 220.404 -3.459 0.235333 0
M  V30 2277 C 219.465 -4.09107 1.30115 0
M  V30 2278 C 218.698 -5.28027 0.776068 0
M  V30 2279 O 218.921 -5.6904 -0.393661 0
M  V30 2280 O 217.855 -5.81835 1.54114 0
M  V30 2281 H 221.681 -2.51521 1.70209 0
M  V30 2282 H 219.266 -1.19928 0.890928 0
M  V30 2283 H 221.148 -4.21346 -0.067715 0
M  V30 2284 H 219.823 -3.17049 -0.652828 0
M  V30 2285 H 218.73 -3.35391 1.65722 0
M  V30 2286 H 220.063 -4.42139 2.16273 0
M  V30 2287 N 221.715 -0.905404 -1.28997 0
M  V30 2288 C 222.963 -0.533192 -1.9494 0
M  V30 2289 C 223.284 0.924618 -1.71685 0
M  V30 2290 O 222.554 1.65268 -1.05183 0
M  V30 2291 H 221.134 -0.194194 -0.721317 0
M  V30 2292 H 223.796 -1.15294 -1.57141 0
M  V30 2293 H 222.892 -0.72059 -3.03667 0
M  V30 2294 N 223.193 1.4272 -0.668489 0
M  V30 2295 C 224.418 2.06484 -0.194758 0
M  V30 2296 C 224.843 1.49862 1.13679 0
M  V30 2297 O 224.201 0.614582 1.70565 0
M  V30 2298 C 224.249 3.60353 -0.133546 0
M  V30 2299 O 223.353 4.02464 0.899806 0
M  V30 2300 H 222.694 0.656137 -0.10188 0
M  V30 2301 H 225.224 1.82964 -0.915722 0
M  V30 2302 H 225.234 4.07976 0.0447041 0
M  V30 2303 H 223.909 4.00938 -1.1055 0
M  V30 2304 H 222.486 3.66402 0.693109 0
M  V30 2305 N 224.671 0.411399 1.52136 0
M  V30 2306 C 225.618 -0.412975 2.27075 0
M  V30 2307 C 226.588 -1.03912 1.29582 0
M  V30 2308 O 227.773 -1.06296 1.58448 0
M  V30 2309 C 224.913 -1.52247 3.09701 0
M  V30 2310 C 224.026 -0.917021 4.22155 0
M  V30 2311 C 223.161 -1.9994 4.92135 0
M  V30 2312 C 222.2 -1.37101 5.96548 0
M  V30 2313 N 221.337 -2.39364 6.60038 0
M  V30 2314 H 226.177 0.232499 2.97092 0
M  V30 2315 H 223.714 0.126496 1.46555 0
M  V30 2316 H 225.672 -2.17674 3.55913 0
M  V30 2317 H 224.302 -2.13794 2.41851 0
M  V30 2318 H 223.354 -0.151742 3.80097 0
M  V30 2319 H 224.666 -0.418006 4.97045 0
M  V30 2320 H 223.82 -2.73088 5.41763 0
M  V30 2321 H 222.559 -2.53208 4.16818 0
M  V30 2322 H 221.564 -0.624873 5.46237 0
M  V30 2323 H 222.789 -0.845998 6.7381 0
M  V30 2324 H 220.735 -2.91759 5.87548 0
M  V30 2325 H 220.652 -1.9428 7.3061 0
M  V30 2326 H 221.92 -3.12074 7.14304 0
M  V30 2327 N 226.149 -1.5696 0.141893 0
M  V30 2328 C 227.426 -1.87553 -0.555281 0
M  V30 2329 C 227.806 -1.04699 -1.83306 0
M  V30 2330 O 227.154 -0.132346 -2.28116 0
M  V30 2331 C 227.364 -3.39093 -0.825664 0
M  V30 2332 C 228.712 -4.08199 -1.16869 0
M  V30 2333 O 229.736 -3.44242 -0.915185 0
M  V30 2334 O 228.595 -5.21139 -1.6455 0
M  V30 2335 H 225.689 -0.777188 -0.282679 0
M  V30 2336 H 228.235 -1.68763 0.17812 0
M  V30 2337 H 227.007 -3.91221 0.0788633 0
M  V30 2338 H 226.63 -3.63393 -1.61343 0
M  V30 2339 N 227.627 0.131896 -1.57047 0
M  V30 2340 C 228.852 0.860418 -1.8871 0
M  V30 2341 C 229.277 1.73251 -0.73251 0
M  V30 2342 O 228.635 1.785 0.317429 0
M  V30 2343 C 228.683 1.68047 -3.19049 0
M  V30 2344 O 227.787 2.7862 -3.04047 0
M  V30 2345 H 227.128 0.238743 -0.619595 0
M  V30 2346 H 229.658 0.118169 -2.04258 0
M  V30 2347 H 229.668 2.07238 -3.51449 0
M  V30 2348 H 228.343 1.04018 -4.02682 0
M  V30 2349 H 226.92 2.42726 -2.83088 0
M  V30 2350 N 229.106 1.52395 0.401703 0
M  V30 2351 C 230.353 1.66817 1.14796 0
M  V30 2352 C 230.681 0.401772 1.90305 0
M  V30 2353 O 229.936 -0.615487 1.85769 0
M  V30 2354 C 230.235 2.84578 2.16217 0
M  V30 2355 C 229.901 4.22513 1.5746 0
M  V30 2356 C 228.563 4.60029 1.41161 0
M  V30 2357 C 230.915 5.0844 1.14622 0
M  V30 2358 C 228.243 5.81144 0.80552 0
M  V30 2359 C 230.595 6.30167 0.55428 0
M  V30 2360 C 229.259 6.66426 0.378482 0
M  V30 2361 H 228.529 0.610428 0.420069 0
M  V30 2362 H 231.176 1.86512 0.434212 0
M  V30 2363 H 229.481 2.59248 2.93764 0
M  V30 2364 H 231.178 2.92933 2.73845 0
M  V30 2365 H 227.768 3.92953 1.71132 0
M  V30 2366 H 231.952 4.80034 1.26021 0
M  V30 2367 H 227.208 6.07855 0.657399 0
M  V30 2368 H 231.382 6.96071 0.213983 0
M  V30 2369 H 229.009 7.60143 -0.0932606 0
M  V30 2370 N 230.584 -0.659388 1.43143 0
M  V30 2371 C 231.547 -1.75432 1.47501 0
M  V30 2372 C 232.547 -1.56707 0.360512 0
M  V30 2373 O 233.737 -1.62717 0.622002 0
M  V30 2374 C 230.869 -3.14239 1.32162 0
M  V30 2375 H 232.062 -1.7295 2.45006 0
M  V30 2376 H 229.615 -0.870469 1.29817 0
M  V30 2377 H 230.35 -3.22336 0.356401 0
M  V30 2378 H 230.135 -3.29235 2.12948 0
M  V30 2379 H 231.625 -3.94094 1.3813 0
M  V30 2380 N 232.062 -1.29571 -0.897171 0
M  V30 2381 C 233.308 -1.17863 -1.65034 0
M  V30 2382 C 233.641 0.268729 -1.92332 0
M  V30 2383 O 232.916 1.19378 -1.53555 0
M  V30 2384 C 233.199 -1.995 -2.99786 0
M  V30 2385 C 233.052 -3.5239 -2.79538 0
M  V30 2386 C 234.371 -1.82335 -4.00552 0
M  V30 2387 H 231.49 -0.429528 -0.598895 0
M  V30 2388 H 234.132 -1.59072 -1.03905 0
M  V30 2389 H 232.282 -1.64485 -3.51962 0
M  V30 2390 H 233.954 -3.97401 -2.34244 0
M  V30 2391 H 232.197 -3.77187 -2.14273 0
M  V30 2392 H 232.868 -4.04787 -3.75302 0
M  V30 2393 H 235.344 -2.12924 -3.57495 0
M  V30 2394 H 234.22 -2.41801 -4.92771 0
M  V30 2395 H 234.481 -0.779209 -4.35179 0
M  V30 2396 N 233.54 1.10788 -1.12088 0
M  V30 2397 C 234.47 2.19083 -0.807755 0
M  V30 2398 C 235.451 1.6858 0.226859 0
M  V30 2399 O 236.636 1.93997 0.0888475 0
M  V30 2400 C 233.766 3.46344 -0.257576 0
M  V30 2401 C 232.72 4.101 -1.22483 0
M  V30 2402 C 232.046 5.32016 -0.535052 0
M  V30 2403 C 233.346 4.54236 -2.57811 0
M  V30 2404 H 235.04 2.45534 -1.71328 0
M  V30 2405 H 232.586 1.1801 -0.825205 0
M  V30 2406 H 234.539 4.21392 -0.0262679 0
M  V30 2407 H 233.263 3.19373 0.683278 0
M  V30 2408 H 231.922 3.37054 -1.44189 0
M  V30 2409 H 231.57 5.01319 0.410827 0
M  V30 2410 H 231.27 5.75625 -1.18024 0
M  V30 2411 H 232.794 6.09799 -0.312695 0
M  V30 2412 H 234.208 5.20575 -2.40155 0
M  V30 2413 H 232.605 5.08682 -3.18375 0
M  V30 2414 H 233.675 3.6734 -3.16528 0
M  V30 2415 N 235.018 0.912232 1.28515 0
M  V30 2416 C 235.948 0.416403 2.29757 0
M  V30 2417 C 236.929 -0.515194 1.6211 0
M  V30 2418 O 238.114 -0.423253 1.89532 0
M  V30 2419 C 235.244 -0.34572 3.45575 0
M  V30 2420 C 234.198 0.496599 4.25109 0
M  V30 2421 C 233.524 -0.393771 5.33248 0
M  V30 2422 C 234.824 1.75307 4.92001 0
M  V30 2423 H 236.518 1.26249 2.7148 0
M  V30 2424 H 234.064 0.608515 1.30511 0
M  V30 2425 H 236.017 -0.703422 4.15488 0
M  V30 2426 H 234.741 -1.2257 3.02728 0
M  V30 2427 H 233.4 0.8368 3.56922 0
M  V30 2428 H 233.048 -1.27225 4.86644 0
M  V30 2429 H 232.748 0.166209 5.87365 0
M  V30 2430 H 234.272 -0.747389 6.06009 0
M  V30 2431 H 235.686 1.46437 5.54283 0
M  V30 2432 H 234.083 2.25534 5.56106 0
M  V30 2433 H 235.153 2.48176 4.16577 0
M  V30 2434 N 236.496 -1.42363 0.676048 0
M  V30 2435 C 237.406 -2.346 -0.00153389 0
M  V30 2436 C 238.422 -1.5516 -0.787485 0
M  V30 2437 O 239.598 -1.87723 -0.729521 0
M  V30 2438 C 236.663 -3.33705 -0.940298 0
M  V30 2439 C 235.724 -4.29042 -0.148739 0
M  V30 2440 C 234.957 -5.23413 -1.04279 0
M  V30 2441 O 235.18 -5.22749 -2.28232 0
M  V30 2442 O 234.114 -5.99795 -0.502925 0
M  V30 2443 H 237.94 -2.94082 0.758268 0
M  V30 2444 H 235.525 -1.42888 0.436289 0
M  V30 2445 H 237.407 -3.94586 -1.47917 0
M  V30 2446 H 236.082 -2.76695 -1.67993 0
M  V30 2447 H 234.989 -3.71571 0.43427 0
M  V30 2448 H 236.322 -4.89097 0.551805 0
M  V30 2449 N 237.974 -0.419461 -1.51915 0
M  V30 2450 C 239.221 0.152939 -2.01922 0
M  V30 2451 C 239.549 1.4426 -1.30458 0
M  V30 2452 O 238.804 1.91514 -0.402593 0
M  V30 2453 C 239.103 0.437067 -3.54717 0
M  V30 2454 C 238.769 -0.764632 -4.44369 0
M  V30 2455 C 237.431 -1.09423 -4.68594 0
M  V30 2456 C 239.783 -1.56713 -4.97082 0
M  V30 2457 C 237.111 -2.22732 -5.42777 0
M  V30 2458 C 239.463 -2.69107 -5.72507 0
M  V30 2459 C 238.127 -3.02541 -5.95 0
M  V30 2460 H 237.397 0.0559644 -0.738884 0
M  V30 2461 H 240.044 -0.562998 -1.83037 0
M  V30 2462 H 238.349 1.23469 -3.71837 0
M  V30 2463 H 240.046 0.893083 -3.90928 0
M  V30 2464 H 236.636 -0.497775 -4.257 0
M  V30 2465 H 240.82 -1.32571 -4.78266 0
M  V30 2466 H 236.076 -2.48971 -5.58411 0
M  V30 2467 H 240.25 -3.31671 -6.12346 0
M  V30 2468 H 237.877 -3.90457 -6.52264 0
M  V30 2469 N 239.452 1.56882 -0.150215 0
M  V30 2470 C 240.415 2.1573 0.774157 0
M  V30 2471 C 241.415 1.0999 1.17298 0
M  V30 2472 O 242.605 1.35613 1.09338 0
M  V30 2473 C 239.737 2.72302 2.05096 0
M  V30 2474 H 240.93 2.98752 0.262201 0
M  V30 2475 H 238.483 1.55985 0.099248 0
M  V30 2476 H 239.218 1.92956 2.6065 0
M  V30 2477 H 239.003 3.49665 1.77416 0
M  V30 2478 H 240.493 3.17632 2.71109 0
M  V30 2479 N 240.93 -0.123565 1.57115 0
M  V30 2480 C 241.84 -1.17074 2.033 0
M  V30 2481 C 242.856 -1.4561 0.952559 0
M  V30 2482 O 244.032 -1.56817 1.26374 0
M  V30 2483 C 241.097 -2.47857 2.42421 0
M  V30 2484 C 240.158 -2.26758 3.64526 0
M  V30 2485 C 239.391 -3.51305 4.01771 0
M  V30 2486 O 239.614 -4.5843 3.39409 0
M  V30 2487 O 238.548 -3.42578 4.94898 0
M  V30 2488 H 242.374 -0.808555 2.92739 0
M  V30 2489 H 239.959 -0.334027 1.45618 0
M  V30 2490 H 241.841 -3.2492 2.68338 0
M  V30 2491 H 240.516 -2.83558 1.5613 0
M  V30 2492 H 239.423 -1.47569 3.43765 0
M  V30 2493 H 240.756 -1.95963 4.51508 0
M  V30 2494 N 242.408 -1.52605 -0.393616 0
M  V30 2495 C 243.318 -1.79971 -1.50492 0
M  V30 2496 C 244.334 -0.686181 -1.59899 0
M  V30 2497 O 245.51 -0.973274 -1.76322 0
M  V30 2498 C 242.575 -1.95867 -2.86072 0
M  V30 2499 C 241.636 -3.19781 -2.86424 0
M  V30 2500 C 240.869 -3.34909 -4.15538 0
M  V30 2501 O 241.092 -2.54948 -5.10253 0
M  V30 2502 O 240.026 -4.28141 -4.23059 0
M  V30 2503 H 243.852 -2.74328 -1.30299 0
M  V30 2504 H 241.437 -1.3764 -0.581005 0
M  V30 2505 H 243.319 -2.08056 -3.66457 0
M  V30 2506 H 241.994 -1.04699 -3.063 0
M  V30 2507 H 240.901 -3.13038 -2.04837 0
M  V30 2508 H 242.234 -4.1078 -2.71147 0
M  V30 2509 N 243.887 0.651787 -1.4349 0
M  V30 2510 C 244.819 1.77725 -1.44729 0
M  V30 2511 C 245.832 1.59141 -0.343231 0
M  V30 2512 O 247.021 1.67835 -0.607751 0
M  V30 2513 C 244.121 3.15172 -1.24579 0
M  V30 2514 C 243.294 3.60402 -2.47849 0
M  V30 2515 C 242.353 4.76656 -2.22902 0
M  V30 2516 O 241.379 4.86022 -2.96263 0
M  V30 2517 N 242.581 5.66958 -1.24656 0
M  V30 2518 H 245.346 1.77141 -2.41746 0
M  V30 2519 H 242.907 0.835678 -1.38665 0
M  V30 2520 H 244.899 3.90634 -1.0577 0
M  V30 2521 H 243.469 3.1052 -0.360015 0
M  V30 2522 H 242.689 2.75369 -2.82073 0
M  V30 2523 H 243.977 3.87368 -3.29884 0
M  V30 2524 H 243.375 5.62065 -0.640265 0
M  V30 2525 H 241.932 6.42135 -1.1183 0
M  V30 2526 N 245.365 1.30045 0.890287 0
M  V30 2527 C 246.295 1.18541 2.01172 0
M  V30 2528 C 247.276 0.0773356 1.69924 0
M  V30 2529 O 248.461 0.25845 1.92473 0
M  V30 2530 C 245.591 0.870941 3.36202 0
M  V30 2531 C 244.545 1.93637 3.81692 0
M  V30 2532 C 243.871 1.475 5.13953 0
M  V30 2533 C 245.171 3.34666 4.00994 0
M  V30 2534 H 246.865 2.12359 2.11054 0
M  V30 2535 H 244.411 1.02238 1.01407 0
M  V30 2536 H 246.364 0.777141 4.14172 0
M  V30 2537 H 245.088 -0.102926 3.26438 0
M  V30 2538 H 243.747 2.01972 3.05946 0
M  V30 2539 H 243.395 0.489551 5.00612 0
M  V30 2540 H 243.095 2.1876 5.4536 0
M  V30 2541 H 244.619 1.39489 5.94454 0
M  V30 2542 H 246.033 3.2912 4.69417 0
M  V30 2543 H 244.43 4.03966 4.43769 0
M  V30 2544 H 245.5 3.76949 3.05021 0
M  V30 2545 N 246.843 -1.10192 1.12674 0
M  V30 2546 C 248.259 -1.34235 0.863317 0
M  V30 2547 C 248.459 -1.95062 -0.505277 0
M  V30 2548 O 247.515 -2.19192 -1.25345 0
M  V30 2549 C 248.828 -2.2616 1.98172 0
M  V30 2550 C 250.376 -2.3969 2.0129 0
M  V30 2551 C 250.851 -3.34946 3.1237 0
M  V30 2552 N 252.342 -3.42515 3.11829 0
M  V30 2553 C 253.077 -4.16199 3.94419 0
M  V30 2554 N 252.573 -4.92747 4.87004 0
M  V30 2555 N 254.366 -4.11843 3.82547 0
M  V30 2556 H 246.517 -0.690798 2.00853 0
M  V30 2557 H 248.78 -0.366774 0.874174 0
M  V30 2558 H 248.486 -1.8868 2.96804 0
M  V30 2559 H 248.36 -3.26488 1.88906 0
M  V30 2560 H 250.747 -2.76438 1.03276 0
M  V30 2561 H 250.828 -1.39169 2.14629 0
M  V30 2562 H 250.472 -2.98923 4.10619 0
M  V30 2563 H 250.402 -4.35353 2.96269 0
M  V30 2564 H 252.893 -2.87926 2.44759 0
M  V30 2565 H 253.206 -5.46376 5.46528 0
M  V30 2566 H 251.551 -4.91862 4.91016 0
M  V30 2567 H 254.742 -3.51136 3.0955 0
M  V30 2568 H 254.915 -4.69007 4.47142 0
M  V30 2569 N 248.321 -0.919034 -1.28029 0
M  V30 2570 C 249.284 -0.416182 -2.2539 0
M  V30 2571 C 250.284 0.460438 -1.54067 0
M  V30 2572 O 251.474 0.262744 -1.72207 0
M  V30 2573 C 248.606 0.402707 -3.38513 0
M  V30 2574 H 249.799 -1.27629 -2.71387 0
M  V30 2575 H 247.352 -0.698919 -1.39803 0
M  V30 2576 H 248.087 1.282 -2.97885 0
M  V30 2577 H 247.872 -0.225698 -3.9145 0
M  V30 2578 H 249.362 0.745191 -4.10897 0
M  V30 2579 N 249.799 1.42003 -0.683588 0
M  V30 2580 C 251.076 1.95112 -0.138075 0
M  V30 2581 C 251.456 1.62359 1.34918 0
M  V30 2582 O 250.804 0.924311 2.08971 0
M  V30 2583 C 251.014 3.46505 -0.416581 0
M  V30 2584 C 252.362 4.23254 -0.337834 0
M  V30 2585 O 253.386 3.54468 -0.35082 0
M  V30 2586 O 252.245 5.45743 -0.287596 0
M  V30 2587 H 249.339 0.826961 -0.00797996 0
M  V30 2588 H 251.885 1.51784 -0.758924 0
M  V30 2589 H 250.657 3.63582 -1.4465 0
M  V30 2590 H 250.28 3.969 0.235839 0
M  V30 2591 N 251.277 0.427512 1.51691 0
M  V30 2592 C 252.227 -0.406604 2.24345 0
M  V30 2593 C 253.211 -0.998276 1.26187 0
M  V30 2594 O 254.403 -0.918045 1.51331 0
M  V30 2595 C 251.532 -1.51266 3.08177 0
M  V30 2596 C 250.618 -0.930868 4.13758 0
M  V30 2597 N 251.009 -0.0773552 5.05741 0
M  V30 2598 C 249.307 -1.19948 4.29568 0
M  V30 2599 C 250.008 0.248344 5.8117 0
M  V30 2600 N 248.984 -0.365535 5.4237 0
M  V30 2601 H 252.786 0.251581 2.92821 0
M  V30 2602 H 250.3 0.239003 1.60632 0
M  V30 2603 H 252.297 -2.123 3.58796 0
M  V30 2604 H 250.957 -2.17328 2.41244 0
M  V30 2605 H 251.968 0.288351 5.17097 0
M  V30 2606 H 248.645 -1.85832 3.73862 0
M  V30 2607 H 250.035 0.942286 6.6526 0
M  V30 2608 N 252.755 -1.56801 0.158532 0
M  V30 2609 C 254.001 -1.96781 -0.490405 0
M  V30 2610 C 254.334 -1.04397 -1.63753 0
M  V30 2611 O 253.609 -0.0885805 -1.94298 0
M  V30 2612 C 253.892 -3.4635 -0.985594 0
M  V30 2613 C 253.745 -4.49512 0.160824 0
M  V30 2614 C 255.064 -3.98697 -1.86355 0
M  V30 2615 H 252.183 -0.715482 -0.176788 0
M  V30 2616 H 254.825 -1.88451 0.242088 0
M  V30 2617 H 252.975 -3.53579 -1.60978 0
M  V30 2618 H 254.647 -4.54353 0.797537 0
M  V30 2619 H 252.89 -4.26013 0.818256 0
M  V30 2620 H 253.561 -5.51531 -0.227569 0
M  V30 2621 H 256.037 -3.94019 -1.33746 0
M  V30 2622 H 254.913 -5.03792 -2.17909 0
M  V30 2623 H 255.174 -3.41744 -2.8047 0
M  V30 2624 N 254.233 0.115231 -1.57178 0
M  V30 2625 C 255.48 0.822351 -1.8505 0
M  V30 2626 C 255.808 1.79701 -0.744168 0
M  V30 2627 O 255.063 1.93909 0.26414 0
M  V30 2628 C 255.362 1.60324 -3.19423 0
M  V30 2629 C 255.028 0.772536 -4.44233 0
M  V30 2630 C 253.69 0.543468 -4.78121 0
M  V30 2631 C 256.042 0.193746 -5.2084 0
M  V30 2632 C 253.37 -0.274583 -5.86057 0
M  V30 2633 C 255.722 -0.611517 -6.29637 0
M  V30 2634 C 254.386 -0.850867 -6.62055 0
M  V30 2635 H 253.656 0.30092 -0.677147 0
M  V30 2636 H 256.303 0.0845802 -1.91313 0
M  V30 2637 H 254.608 2.41203 -3.08753 0
M  V30 2638 H 256.305 2.1544 -3.38211 0
M  V30 2639 H 252.895 0.96117 -4.17683 0
M  V30 2640 H 257.079 0.357926 -4.95008 0
M  V30 2641 H 252.335 -0.469206 -6.09597 0
M  V30 2642 H 256.509 -1.06697 -6.88178 0
M  V30 2643 H 254.136 -1.48657 -7.45523 0
M  V30 2644 N 255.711 1.52812 0.385517 0
M  V30 2645 C 256.96 1.67249 1.12741 0
M  V30 2646 C 257.273 0.4205 1.91027 0
M  V30 2647 O 258.479 0.445064 2.67827 0
M  V30 2648 C 256.935 2.95583 2.05326 0
M  V30 2649 C 256.543 4.27974 1.32447 0
M  V30 2650 C 258.287 3.19386 2.7963 0
M  V30 2651 C 256.194 5.47412 2.23818 0
M  V30 2652 H 255.124 0.6231 0.424573 0
M  V30 2653 H 257.775 1.79309 0.389924 0
M  V30 2654 H 256.157 2.77277 2.82725 0
M  V30 2655 H 257.331 4.56844 0.602495 0
M  V30 2656 H 255.646 4.10459 0.700885 0
M  V30 2657 H 258.243 4.05801 3.48181 0
M  V30 2658 H 258.586 2.34604 3.43899 0
M  V30 2659 H 259.119 3.38274 2.09322 0
M  V30 2660 H 255.858 6.34612 1.64157 0
M  V30 2661 H 255.378 5.22849 2.93921 0
M  V30 2662 H 257.057 5.81423 2.83824 0
M  V30 2663 N 257.189 -0.644168 1.43834 0
M  V30 2664 C 258.429 -1.41565 1.47441 0
M  V30 2665 C 258.793 -1.91743 0.0992723 0
M  V30 2666 O 259.994 -2.68798 0.0100192 0
M  V30 2667 C 258.265 -2.55902 2.49498 0
M  V30 2668 S 259.824 -3.44287 2.72051 0
M  V30 2669 H 256.642 -0.483118 0.521649 0
M  V30 2670 H 259.244 -0.747008 1.80666 0
M  V30 2671 H 257.948 -2.17327 3.48134 0
M  V30 2672 H 257.479 -3.27607 2.17801 0
M  V30 2673 H 259.494 -4.52927 2.0266 0
M  V30 2674 N 258.668 -1.30515 -0.883378 0
M  V30 2675 C 259.915 -1.1943 -1.63532 0
M  V30 2676 C 260.243 0.250627 -1.92878 0
M  V30 2677 O 259.498 1.19556 -1.54935 0
M  V30 2678 C 259.797 -1.96994 -2.98209 0
M  V30 2679 C 259.463 -3.466 -2.88408 0
M  V30 2680 C 258.125 -3.87397 -2.85442 0
M  V30 2681 C 260.477 -4.41863 -2.76418 0
M  V30 2682 C 257.805 -5.21745 -2.68327 0
M  V30 2683 C 260.157 -5.7632 -2.60841 0
M  V30 2684 C 258.821 -6.16354 -2.56251 0
M  V30 2685 H 258.091 -0.437025 -0.598406 0
M  V30 2686 H 260.738 -1.61635 -1.02696 0
M  V30 2687 H 259.043 -1.47429 -3.63004 0
M  V30 2688 H 260.74 -1.85808 -3.55354 0
M  V30 2689 H 257.33 -3.14182 -2.91527 0
M  V30 2690 H 261.514 -4.11285 -2.77775 0
M  V30 2691 H 256.77 -5.51853 -2.63189 0
M  V30 2692 H 260.944 -6.49772 -2.50538 0
M  V30 2693 H 258.571 -7.20401 -2.42748 0
M  V30 2694 N 260.146 1.09593 -1.13257 0
M  V30 2695 C 261.096 2.14345 -0.777179 0
M  V30 2696 C 262.08 1.59277 0.227966 0
M  V30 2697 O 263.272 1.76971 0.0321413 0
M  V30 2698 C 260.401 3.42439 -0.242991 0
M  V30 2699 C 259.487 4.04419 -1.27694 0
M  V30 2700 N 259.878 4.40979 -2.47732 0
M  V30 2701 C 258.176 4.31596 -1.12432 0
M  V30 2702 C 258.877 4.89784 -3.13826 0
M  V30 2703 N 257.853 4.87133 -2.41252 0
M  V30 2704 H 261.655 2.40415 -1.69049 0
M  V30 2705 H 259.169 1.26803 -1.01463 0
M  V30 2706 H 261.166 4.16889 0.0298496 0
M  V30 2707 H 259.826 3.17824 0.66467 0
M  V30 2708 H 260.837 4.32396 -2.85051 0
M  V30 2709 H 257.514 4.16595 -0.274684 0
M  V30 2710 H 258.904 5.2755 -4.16102 0
M  V30 2711 N 261.624 0.925811 1.2754 0
M  V30 2712 C 262.571 0.422045 2.26908 0
M  V30 2713 C 263.541 -0.510029 1.58076 0
M  V30 2714 O 264.726 -0.429599 1.85901 0
M  V30 2715 C 261.866 -0.320837 3.43605 0
M  V30 2716 C 260.979 0.64513 4.27156 0
M  V30 2717 C 260.114 -0.117405 5.3107 0
M  V30 2718 C 259.153 0.841391 6.0629 0
M  V30 2719 N 258.29 0.111604 7.02011 0
M  V30 2720 H 263.13 1.27441 2.69375 0
M  V30 2721 H 260.667 0.639697 1.32462 0
M  V30 2722 H 262.625 -0.76785 4.10073 0
M  V30 2723 H 261.255 -1.13745 3.02096 0
M  V30 2724 H 260.307 1.21067 3.6062 0
M  V30 2725 H 261.619 1.37797 4.79389 0
M  V30 2726 H 260.773 -0.624422 6.03478 0
M  V30 2727 H 259.512 -0.883219 4.79636 0
M  V30 2728 H 258.517 1.35967 5.32722 0
M  V30 2729 H 259.742 1.60696 6.59813 0
M  V30 2730 H 257.688 -0.635999 6.5291 0
M  V30 2731 H 257.605 0.784044 7.51923 0
M  V30 2732 H 258.873 -0.374823 7.78598 0
M  V30 2733 N 263.102 -1.41638 0.69111 0
M  V30 2734 C 264.05 -2.32597 0.0115199 0
M  V30 2735 C 265.044 -1.5072 -0.773296 0
M  V30 2736 O 266.25 -1.66685 -0.67942 0
M  V30 2737 H 262.625 -0.751849 -0.0150746 0
M  V30 2738 H 264.596 -2.87593 0.795791 0
M  V30 2739 C 263.345 -3.35467 -0.914172 0
M  V30 2740 H 262.668 -3.9852 -0.319687 0
M  V30 2741 H 264.108 -4.01662 -1.35808 0
M  V30 2742 C 262.567 -2.69004 -2.02826 0
M  V30 2743 O 263.097 -2.53444 -3.11655 0
M  V30 2744 N 261.303 -2.2777 -1.80469 0
M  V30 2745 H 260.85 -2.40626 -0.919615 0
M  V30 2746 H 260.808 -1.83635 -2.55197 0
M  V30 2747 N 264.58 -0.43555 -1.51462 0
M  V30 2748 C 265.996 -0.0877501 -1.59359 0
M  V30 2749 C 266.196 1.4027 -1.4466 0
M  V30 2750 O 265.252 2.17243 -1.28693 0
M  V30 2751 C 266.565 -0.606264 -2.94525 0
M  V30 2752 C 268.113 -0.566548 -3.0783 0
M  V30 2753 C 268.588 -1.06201 -4.45517 0
M  V30 2754 N 270.079 -1.01992 -4.51832 0
M  V30 2755 C 270.814 -1.37417 -5.5669 0
M  V30 2756 N 270.31 -1.80119 -6.68976 0
M  V30 2757 N 272.103 -1.29245 -5.47039 0
M  V30 2758 H 264.254 -1.40533 -1.59261 0
M  V30 2759 H 266.517 -0.578992 -0.750648 0
M  V30 2760 H 266.223 -1.64901 -3.10645 0
M  V30 2761 H 266.097 -0.0302097 -3.77188 0
M  V30 2762 H 268.484 0.467208 -2.91378 0
M  V30 2763 H 268.565 -1.17898 -2.2701 0
M  V30 2764 H 268.209 -2.09422 -4.62715 0
M  V30 2765 H 268.139 -0.426127 -5.24873 0
M  V30 2766 H 270.63 -0.706308 -3.71241 0
M  V30 2767 H 270.943 -2.05392 -7.45006 0
M  V30 2768 H 269.288 -1.84044 -6.70189 0
M  V30 2769 H 272.479 -0.957522 -4.58202 0
M  V30 2770 H 272.652 -1.57182 -6.28648 0
M  V30 2771 N 266.058 1.56714 -0.166846 0
M  V30 2772 C 266.968 2.21331 0.777791 0
M  V30 2773 C 267.984 1.20358 1.25658 0
M  V30 2774 O 269.16 1.53005 1.30964 0
M  V30 2775 C 266.225 2.83787 1.99163 0
M  V30 2776 C 265.286 3.99947 1.56016 0
M  V30 2777 C 264.519 4.59415 2.71613 0
M  V30 2778 O 264.742 4.17769 3.88362 0
M  V30 2779 O 263.676 5.49359 2.45945 0
M  V30 2780 H 267.502 3.02605 0.257636 0
M  V30 2781 H 265.087 1.49275 0.0611393 0
M  V30 2782 H 266.969 3.23405 2.70161 0
M  V30 2783 H 265.644 2.05513 2.50092 0
M  V30 2784 H 264.551 3.65007 0.819809 0
M  V30 2785 H 265.884 4.79801 1.09782 0
M  V30 2786 N 267.536 -0.106894 1.57237 0
M  V30 2787 C 268.813 -0.843526 1.76477 0
M  V30 2788 C 269.193 -1.97499 0.745464 0
M  V30 2789 O 268.541 -2.27357 -0.228306 0
M  V30 2790 C 268.751 -1.34903 3.21873 0
M  V30 2791 C 270.099 -1.79654 3.8472 0
M  V30 2792 O 271.123 -1.44554 3.2555 0
M  V30 2793 O 269.982 -2.44515 4.88748 0
M  V30 2794 H 267.076 -0.401468 0.723016 0
M  V30 2795 H 269.622 -0.0896927 1.69463 0
M  V30 2796 H 268.394 -0.53781 3.87586 0
M  V30 2797 H 268.017 -2.16522 3.33473 0
M  V30 2798 N 269.014 -1.53014 -0.377408 0
M  V30 2799 C 270.43 -1.42523 -0.718281 0
M  V30 2800 C 270.63 -0.55487 -1.9371 0
M  V30 2801 O 269.686 -0.0327593 -2.52479 0
M  V30 2802 C 270.999 -2.85546 -0.942539 0
M  V30 2803 C 272.547 -2.95101 -1.04329 0
M  V30 2804 C 273.022 -4.3916 -1.3001 0
M  V30 2805 N 274.513 -4.42536 -1.36806 0
M  V30 2806 C 275.248 -5.51097 -1.58364 0
M  V30 2807 N 274.744 -6.69724 -1.77317 0
M  V30 2808 N 276.537 -5.38657 -1.60638 0
M  V30 2809 H 268.688 -2.08116 0.424426 0
M  V30 2810 H 270.951 -0.939352 0.127759 0
M  V30 2811 H 270.657 -3.51499 -0.118929 0
M  V30 2812 H 270.531 -3.28493 -1.85397 0
M  V30 2813 H 272.918 -2.29309 -1.85745 0
M  V30 2814 H 272.999 -2.55566 -0.109505 0
M  V30 2815 H 272.643 -5.05521 -0.490991 0
M  V30 2816 H 272.573 -4.76258 -2.24691 0
M  V30 2817 H 275.064 -3.57039 -1.23821 0
M  V30 2818 H 275.377 -7.48233 -1.93306 0
M  V30 2819 H 273.722 -6.72732 -1.74518 0
M  V30 2820 H 276.913 -4.44948 -1.45391 0
M  V30 2821 H 277.086 -6.2333 -1.77098 0
M  V30 2822 N 270.492 0.636531 -1.44174 0
M  V30 2823 C 271.455 1.73063 -1.50273 0
M  V30 2824 C 272.455 1.56113 -0.385397 0
M  V30 2825 O 273.645 1.61707 -0.64781 0
M  V30 2826 C 270.777 3.12096 -1.37145 0
M  V30 2827 H 271.97 1.69031 -2.47727 0
M  V30 2828 H 269.523 0.849706 -1.31186 0
M  V30 2829 H 270.258 3.21728 -0.407636 0
M  V30 2830 H 270.043 3.25805 -2.18159 0
M  V30 2831 H 271.533 3.91846 -1.44382 0
M  V30 2832 N 271.97 1.30982 0.876444 0
M  V30 2833 C 272.933 1.18054 1.96459 0
M  V30 2834 C 273.933 0.109399 1.60427 0
M  V30 2835 O 275.123 0.358173 1.70478 0
M  V30 2836 C 272.255 0.810616 3.31122 0
M  V30 2837 H 273.448 2.14735 2.09354 0
M  V30 2838 H 271.001 1.145 1.06392 0
M  V30 2839 H 271.736 -0.155322 3.23928 0
M  V30 2840 H 271.521 1.58481 3.58645 0
M  V30 2841 H 273.011 0.743876 4.10921 0
M  V30 2842 N 273.449 -1.08991 1.13837 0
M  V30 2843 C 274.379 -2.17771 0.842507 0
M  V30 2844 C 275.36 -1.6892 -0.20001 0
M  V30 2845 O 276.545 -1.94113 -0.0579731 0
M  V30 2846 C 273.675 -3.4589 0.312644 0
M  V30 2847 C 272.629 -4.08099 1.28992 0
M  V30 2848 C 271.955 -5.31098 0.619623 0
M  V30 2849 C 273.255 -4.50077 2.65005 0
M  V30 2850 H 274.949 -2.42777 1.75213 0
M  V30 2851 H 272.495 -1.16682 0.843875 0
M  V30 2852 H 274.448 -4.21297 0.0933043 0
M  V30 2853 H 273.172 -3.20419 -0.632382 0
M  V30 2854 H 271.831 -3.34717 1.49533 0
M  V30 2855 H 271.479 -5.0191 -0.33102 0
M  V30 2856 H 271.179 -5.73674 1.27167 0
M  V30 2857 H 272.703 -6.09224 0.409669 0
M  V30 2858 H 274.117 -5.16688 2.48407 0
M  V30 2859 H 272.514 -5.03553 3.26427 0
M  V30 2860 H 273.584 -3.62257 3.22332 0
M  V30 2861 N 274.927 -0.932562 -1.27047 0
M  V30 2862 C 275.857 -0.452902 -2.29066 0
M  V30 2863 C 276.838 0.489338 -1.62909 0
M  V30 2864 O 278.023 0.393046 -1.90181 0
M  V30 2865 C 275.153 0.290698 -3.46081 0
M  V30 2866 C 274.107 -0.564168 -4.24265 0
M  V30 2867 C 273.433 0.308886 -5.33807 0
M  V30 2868 C 274.733 -1.83112 -4.89149 0
M  V30 2869 H 276.427 -1.30552 -2.69437 0
M  V30 2870 H 273.973 -0.629201 -1.29526 0
M  V30 2871 H 275.926 0.637233 -4.16554 0
M  V30 2872 H 274.65 1.17738 -3.0464 0
M  V30 2873 H 273.309 -0.893477 -3.55545 0
M  V30 2874 H 272.957 1.19467 -4.88607 0
M  V30 2875 H 272.657 -0.259633 -5.87026 0
M  V30 2876 H 274.181 0.650884 -6.07121 0
M  V30 2877 H 275.595 -1.55236 -5.51883 0
M  V30 2878 H 273.992 -2.34353 -5.52448 0
M  V30 2879 H 275.062 -2.54772 -4.12576 0
M  V30 2880 N 276.405 1.4127 -0.698611 0
M  V30 2881 C 277.821 1.55241 -0.370462 0
M  V30 2882 C 278.021 1.67351 1.12231 0
M  V30 2883 O 277.077 1.65363 1.90818 0
M  V30 2884 C 278.39 2.78997 -1.12165 0
M  V30 2885 C 279.938 2.92797 -1.1063 0
M  V30 2886 C 280.413 4.19445 -1.8393 0
M  V30 2887 N 281.904 4.26409 -1.80914 0
M  V30 2888 C 282.639 5.23271 -2.34467 0
M  V30 2889 N 282.135 6.26145 -2.96504 0
M  V30 2890 N 283.928 5.15232 -2.24706 0
M  V30 2891 H 276.079 1.31654 -1.66676 0
M  V30 2892 H 278.342 0.635393 -0.703548 0
M  V30 2893 H 278.048 2.76268 -2.17644 0
M  V30 2894 H 277.922 3.70606 -0.702209 0
M  V30 2895 H 280.309 2.95039 -0.0597713 0
M  V30 2896 H 280.39 2.02353 -1.56483 0
M  V30 2897 H 280.034 4.17964 -2.88563 0
M  V30 2898 H 279.964 5.08866 -1.35509 0
M  V30 2899 H 282.455 3.527 -1.35687 0
M  V30 2900 H 282.768 6.96451 -3.34927 0
M  V30 2901 H 281.113 6.26638 -3.00583 0
M  V30 2902 H 284.304 4.33789 -1.7591 0
M  V30 2903 H 284.477 5.90552 -2.66745 0
M  V30 2904 N 277.883 0.443576 1.51229 0
M  V30 2905 C 279.111 -0.11929 2.06556 0
M  V30 2906 C 279.526 -1.35921 1.31038 0
M  V30 2907 O 278.883 -1.78675 0.371704 0
M  V30 2908 C 278.934 -0.435228 3.5887 0
M  V30 2909 O 278.655 0.755486 4.31537 0
M  V30 2910 C 280.156 -1.04808 4.30732 0
M  V30 2911 H 277.376 -0.0051584 0.67098 0
M  V30 2912 H 279.92 0.624453 1.94733 0
M  V30 2913 H 278.075 -1.12887 3.70588 0
M  V30 2914 H 278.489 0.483491 5.22267 0
M  V30 2915 H 279.963 -1.2191 5.3837 0
M  V30 2916 H 280.44 -2.03081 3.89429 0
M  V30 2917 H 281.046 -0.393637 4.23474 0
M  V30 2918 N 279.361 -1.56624 0.175154 0
M  V30 2919 C 280.608 -1.96999 -0.468811 0
M  V30 2920 C 280.936 -1.06129 -1.62994 0
M  V30 2921 O 280.191 -0.0961771 -1.95464 0
M  V30 2922 C 280.49 -3.43419 -0.989864 0
M  V30 2923 C 280.156 -4.50866 0.0557687 0
M  V30 2924 C 278.818 -4.79975 0.343134 0
M  V30 2925 C 281.17 -5.15551 0.765308 0
M  V30 2926 C 278.498 -5.71066 1.34536 0
M  V30 2927 C 280.85 -6.07724 1.75654 0
M  V30 2928 C 279.514 -6.35199 2.05132 0
M  V30 2929 H 278.784 -0.720869 -0.17155 0
M  V30 2930 H 281.431 -1.89616 0.267924 0
M  V30 2931 H 279.736 -3.47772 -1.80449 0
M  V30 2932 H 281.433 -3.72002 -1.49719 0
M  V30 2933 H 278.023 -4.28229 -0.178381 0
M  V30 2934 H 282.207 -4.9317 0.556513 0
M  V30 2935 H 277.463 -5.90635 1.57988 0
M  V30 2936 H 281.637 -6.56912 2.31169 0
M  V30 2937 H 279.264 -7.05584 2.8294 0
M  V30 2938 N 280.839 0.0985539 -1.57292 0
M  V30 2939 C 282.064 0.820196 -1.90493 0
M  V30 2940 C 282.489 1.71658 -0.769094 0
M  V30 2941 O 281.847 1.79133 0.279495 0
M  V30 2942 C 281.895 1.61242 -3.22542 0
M  V30 2943 O 280.999 2.72108 -3.09888 0
M  V30 2944 H 280.34 0.225547 -0.62452 0
M  V30 2945 H 282.87 0.0748159 -2.04463 0
M  V30 2946 H 282.88 1.99737 -3.55766 0
M  V30 2947 H 281.555 0.954535 -4.04798 0
M  V30 2948 H 280.132 2.36667 -2.88172 0
M  V30 2949 N 282.317 1.53212 0.369288 0
M  V30 2950 C 283.564 1.69215 1.11232 0
M  V30 2951 C 283.892 0.442048 1.8941 0
M  V30 2952 O 283.147 -0.575944 1.87033 0
M  V30 2953 C 283.446 2.89101 2.10132 0
M  V30 2954 C 283.112 4.25758 1.48463 0
M  V30 2955 C 281.774 4.6292 1.31372 0
M  V30 2956 C 284.126 5.10757 1.03811 0
M  V30 2957 C 281.454 5.82722 0.68207 0
M  V30 2958 C 283.806 6.31201 0.420487 0
M  V30 2959 C 282.47 6.67079 0.237038 0
M  V30 2960 H 281.74 0.619201 0.407027 0
M  V30 2961 H 284.387 1.87391 0.394552 0
M  V30 2962 H 282.692 2.65421 2.88199 0
M  V30 2963 H 284.389 2.98676 2.6757 0
M  V30 2964 H 280.979 3.96494 1.62758 0
M  V30 2965 H 285.163 4.82599 1.1581 0
M  V30 2966 H 280.419 6.09113 0.528316 0
M  V30 2967 H 284.593 6.96368 0.0662874 0
M  V30 2968 H 282.22 7.59774 -0.254477 0
M  V30 2969 N 283.795 -0.628877 1.44509 0
M  V30 2970 C 284.725 -1.75187 1.54376 0
M  V30 2971 C 285.706 -1.65411 0.396618 0
M  V30 2972 O 286.891 -1.84137 0.617031 0
M  V30 2973 C 284.021 -3.13725 1.48976 0
M  V30 2974 C 282.975 -3.38291 2.62189 0
M  V30 2975 C 282.301 -4.76883 2.41841 0
M  V30 2976 C 283.601 -3.30632 4.04326 0
M  V30 2977 H 285.295 -1.67187 2.48373 0
M  V30 2978 H 282.841 -0.802909 1.19538 0
M  V30 2979 H 284.794 -3.92064 1.54478 0
M  V30 2980 H 283.518 -3.22515 0.514961 0
M  V30 2981 H 282.177 -2.62334 2.56079 0
M  V30 2982 H 281.825 -4.82378 1.42548 0
M  V30 2983 H 281.525 -4.94278 3.17747 0
M  V30 2984 H 283.049 -5.57449 2.49165 0
M  V30 2985 H 284.463 -3.98873 4.11793 0
M  V30 2986 H 282.86 -3.59561 4.80454 0
M  V30 2987 H 283.93 -2.28404 4.27738 0
M  V30 2988 N 285.273 -1.31445 -0.869486 0
M  V30 2989 C 286.521 -1.20918 -1.61936 0
M  V30 2990 C 286.842 0.232683 -1.93607 0
M  V30 2991 O 286.112 1.15352 -1.58338 0
M  V30 2992 H 284.692 -0.44454 -0.600328 0
M  V30 2993 H 287.354 -1.64776 -1.0409 0
M  V30 2994 H 286.45 -1.78124 -2.56278 0
M  V30 2995 N 286.751 1.08385 -1.14413 0
M  V30 2996 C 287.998 1.80776 -0.912482 0
M  V30 2997 C 288.326 1.86236 0.560934 0
M  V30 2998 O 287.581 1.33431 1.43159 0
M  V30 2999 C 287.88 3.26273 -1.45879 0
M  V30 3000 C 287.546 3.4093 -2.95089 0
M  V30 3001 C 286.208 3.44638 -3.35824 0
M  V30 3002 C 288.56 3.44591 -3.91033 0
M  V30 3003 C 285.888 3.49597 -4.71167 0
M  V30 3004 C 288.24 3.51086 -5.26233 0
M  V30 3005 C 286.904 3.53067 -5.6648 0
M  V30 3006 H 286.174 0.661507 -0.333901 0
M  V30 3007 H 288.821 1.27613 -1.42784 0
M  V30 3008 H 287.126 3.82146 -0.864376 0
M  V30 3009 H 288.823 3.80839 -1.2555 0
M  V30 3010 H 285.413 3.38736 -2.62594 0
M  V30 3011 H 289.597 3.40957 -3.60641 0
M  V30 3012 H 284.853 3.49424 -5.0171 0
M  V30 3013 H 289.027 3.52864 -6.00383 0
M  V30 3014 H 286.654 3.56662 -6.71339 0
M  V30 3015 N 288.23 0.939286 1.26551 0
M  V30 3016 C 289.14 0.453432 2.30176 0
M  V30 3017 C 290.156 -0.471649 1.67486 0
M  V30 3018 O 291.332 -0.35164 1.98306 0
M  V30 3019 C 288.397 -0.275326 3.45605 0
M  V30 3020 C 287.458 0.686084 4.23782 0
M  V30 3021 C 286.691 -0.00798994 5.33699 0
M  V30 3022 O 286.914 -1.22528 5.57085 0
M  V30 3023 O 285.848 0.669746 5.98162 0
M  V30 3024 H 289.674 1.31416 2.73795 0
M  V30 3025 H 287.259 0.705095 1.31715 0
M  V30 3026 H 289.141 -0.685911 4.1578 0
M  V30 3027 H 287.816 -1.11147 3.0402 0
M  V30 3028 H 286.723 1.14658 3.56096 0
M  V30 3029 H 288.056 1.48979 4.69112 0
M  V30 3030 N 289.708 -1.40897 0.706093 0
M  V30 3031 C 290.957 -2.00284 0.238574 0
M  V30 3032 C 291.27 -1.56604 -1.17194 0
M  V30 3033 O 292.476 -2.08624 -1.73748 0
M  V30 3034 C 290.932 -3.57934 0.375623 0
M  V30 3035 C 290.54 -4.10591 1.79217 0
M  V30 3036 C 292.284 -4.24488 -0.0315857 0
M  V30 3037 C 290.191 -5.60712 1.88032 0
M  V30 3038 H 289.121 -0.749144 0.0854398 0
M  V30 3039 H 291.772 -1.61251 0.875813 0
M  V30 3040 H 290.154 -3.94622 -0.330042 0
M  V30 3041 H 291.328 -3.85301 2.52745 0
M  V30 3042 H 289.643 -3.56601 2.15 0
M  V30 3043 H 292.24 -5.34698 0.0136842 0
M  V30 3044 H 292.583 -4.02261 -1.072 0
M  V30 3045 H 293.116 -3.92873 0.624181 0
M  V30 3046 H 289.855 -5.87781 2.90161 0
M  V30 3047 H 289.375 -5.87896 1.18903 0
M  V30 3048 H 291.054 -6.25658 1.64805 0
M  V30 3049 N 291.186 -0.45159 -1.50991 0
M  V30 3050 C 292.432 0.110237 -2.025 0
M  V30 3051 C 292.765 1.41109 -1.33424 0
M  V30 3052 O 292.04 1.89135 -0.453659 0
M  V30 3053 C 292.323 0.314271 -3.58726 0
M  V30 3054 C 292.176 -1.00623 -4.38401 0
M  V30 3055 C 293.495 1.07767 -4.26702 0
M  V30 3056 H 290.614 0.0385897 -0.735989 0
M  V30 3057 H 293.256 -0.593374 -1.80497 0
M  V30 3058 H 291.406 0.913601 -3.77605 0
M  V30 3059 H 293.078 -1.64064 -4.31139 0
M  V30 3060 H 291.321 -1.6075 -4.02917 0
M  V30 3061 H 291.992 -0.817341 -5.45915 0
M  V30 3062 H 294.468 0.56986 -4.12179 0
M  V30 3063 H 293.344 1.18921 -5.35863 0
M  V30 3064 H 293.605 2.10939 -3.88532 0
M  V30 3065 N 292.664 1.56529 -0.183458 0
M  V30 3066 C 294.08 1.58664 0.172554 0
M  V30 3067 C 294.28 1.19925 1.61926 0
M  V30 3068 O 293.336 0.916534 2.35278 0
M  V30 3069 C 294.649 3.00463 -0.119262 0
M  V30 3070 C 296.197 3.12945 -0.0584396 0
M  V30 3071 C 296.672 4.56857 -0.323408 0
M  V30 3072 N 298.163 4.62403 -0.271612 0
M  V30 3073 C 298.898 5.71626 -0.450639 0
M  V30 3074 N 298.394 6.89362 -0.689384 0
M  V30 3075 N 300.187 5.60775 -0.385701 0
M  V30 3076 H 292.338 1.79994 -1.12765 0
M  V30 3077 H 294.601 0.834808 -0.449222 0
M  V30 3078 H 294.307 3.33326 -1.12192 0
M  V30 3079 H 294.181 3.72659 0.583544 0
M  V30 3080 H 296.568 2.79902 0.934805 0
M  V30 3081 H 296.649 2.4316 -0.794144 0
M  V30 3082 H 296.293 4.9061 -1.31392 0
M  V30 3083 H 296.223 5.24816 0.43305 0
M  V30 3084 H 298.714 3.77785 -0.0932256 0
M  V30 3085 H 299.027 7.68489 -0.815113 0
M  V30 3086 H 297.372 6.91196 -0.726142 0
M  V30 3087 H 300.563 4.67674 -0.199687 0
M  V30 3088 H 300.736 6.4584 -0.528646 0
M  V30 3089 N 294.142 -0.090211 1.57342 0
M  V30 3090 C 295.553 -0.644173 1.75235 0
M  V30 3091 C 295.904 -1.78865 0.806335 0
M  V30 3092 O 295.029 -2.16395 -0.0140128 0
M  V30 3093 C 295.624 -1.17532 3.1776 0
M  V30 3094 C 294.183 -1.67531 3.37061 0
M  V30 3095 C 293.33 -0.58693 2.71017 0
M  V30 3096 H 296.281 0.135884 1.58117 0
M  V30 3097 H 296.302 -2.04455 3.20902 0
M  V30 3098 H 295.814 -0.342138 3.86589 0
M  V30 3099 H 293.915 -2.53234 2.73319 0
M  V30 3100 H 294.028 -1.76493 4.45406 0
M  V30 3101 H 292.392 -1.02756 2.33052 0
M  V30 3102 H 293.175 0.235758 3.4249 0
M  V30 3103 N 295.62 -1.53406 -0.361157 0
M  V30 3104 C 296.868 -1.69467 -1.10115 0
M  V30 3105 C 297.189 -0.451352 -1.89705 0
M  V30 3106 O 296.459 0.534636 -1.88463 0
M  V30 3107 H 295.039 -0.624749 -0.409508 0
M  V30 3108 H 297.701 -1.90609 -0.406699 0
M  V30 3109 H 296.797 -2.55774 -1.78847 0
M  V30 3110 N 297.098 0.621204 -1.44841 0
M  V30 3111 C 298.048 1.72663 -1.48901 0
M  V30 3112 C 299.032 1.56964 -0.353702 0
M  V30 3113 O 300.224 1.66532 -0.599669 0
M  V30 3114 C 297.353 3.11381 -1.44557 0
M  V30 3115 C 296.439 3.32514 -2.6324 0
M  V30 3116 N 296.83 3.23969 -3.8843 0
M  V30 3117 C 295.128 3.63343 -2.58647 0
M  V30 3118 C 295.829 3.46062 -4.67564 0
M  V30 3119 N 294.805 3.69407 -3.98797 0
M  V30 3120 H 298.607 1.64529 -2.43531 0
M  V30 3121 H 296.121 0.82401 -1.39942 0
M  V30 3122 H 298.118 3.90667 -1.4555 0
M  V30 3123 H 296.778 3.20674 -0.509731 0
M  V30 3124 H 297.789 3.02669 -4.20252 0
M  V30 3125 H 294.466 3.79556 -1.73906 0
M  V30 3126 H 295.856 3.44963 -5.76585 0
M  V30 3127 N 298.576 1.31904 0.862503 0
M  V30 3128 C 299.987 1.19803 1.43193 0
M  V30 3129 C 300.338 -0.192567 1.95253 0
M  V30 3130 O 299.463 -1.09081 1.86896 0
M  V30 3131 C 300.058 2.16883 2.60283 0
M  V30 3132 C 298.617 2.08692 3.13248 0
M  V30 3133 C 297.764 2.05691 1.85975 0
M  V30 3134 H 300.715 1.43846 0.670365 0
M  V30 3135 H 300.736 1.76278 3.37204 0
M  V30 3136 H 300.248 3.18083 2.22363 0
M  V30 3137 H 298.349 1.10713 3.55771 0
M  V30 3138 H 298.462 2.9815 3.75025 0
M  V30 3139 H 296.826 1.50814 2.05249 0
M  V30 3140 H 297.609 3.08659 1.50282 0
M  V30 3141 N 300.054 -1.07777 1.14986 0
M  V30 3142 C 300.984 -2.16865 0.865557 0
M  V30 3143 C 301.965 -1.69123 -0.182083 0
M  V30 3144 O 303.15 -1.94164 -0.0373815 0
M  V30 3145 C 300.28 -3.45539 0.349313 0
M  V30 3146 C 299.234 -4.06708 1.33313 0
M  V30 3147 C 298.56 -5.30411 0.675918 0
M  V30 3148 C 299.86 -4.47241 2.69764 0
M  V30 3149 H 301.554 -2.40905 1.77778 0
M  V30 3150 H 299.1 -1.15781 0.856203 0
M  V30 3151 H 301.053 -4.21174 0.137983 0
M  V30 3152 H 299.777 -3.21072 -0.598362 0
M  V30 3153 H 298.436 -3.33112 1.53075 0
M  V30 3154 H 298.084 -5.02232 -0.277767 0
M  V30 3155 H 297.784 -5.72293 1.33244 0
M  V30 3156 H 299.308 -6.08755 0.474262 0
M  V30 3157 H 300.722 -5.14025 2.53873 0
M  V30 3158 H 299.119 -5.00062 3.3175 0
M  V30 3159 H 300.189 -3.58818 3.26156 0
M  V30 3160 N 301.532 -0.945985 -1.26051 0
M  V30 3161 C 302.778 -0.597002 -1.93814 0
M  V30 3162 C 303.111 0.862484 -1.73997 0
M  V30 3163 O 302.386 1.61769 -1.07986 0
M  V30 3164 C 302.669 -0.945937 -3.47454 0
M  V30 3165 C 302.522 -2.46052 -3.76535 0
M  V30 3166 C 303.841 -0.464785 -4.37639 0
M  V30 3167 H 300.96 -0.218366 -0.703907 0
M  V30 3168 H 303.602 -1.18107 -1.48831 0
M  V30 3169 H 301.752 -0.448902 -3.85898 0
M  V30 3170 H 303.424 -3.03065 -3.47778 0
M  V30 3171 H 301.667 -2.90194 -3.22444 0
M  V30 3172 H 302.338 -2.65517 -4.83947 0
M  V30 3173 H 304.814 -0.891016 -4.06448 0
M  V30 3174 H 303.69 -0.737712 -5.4392 0
M  V30 3175 H 303.951 0.635274 -4.37512 0
M  V30 3176 N 303.011 1.40521 -0.713556 0
M  V30 3177 C 304.422 1.83853 -0.324807 0
M  V30 3178 C 304.773 1.59667 1.14021 0
M  V30 3179 O 303.898 1.07649 1.87725 0
M  V30 3180 C 304.493 3.33751 -0.582746 0
M  V30 3181 C 303.052 3.75584 -0.247727 0
M  V30 3182 C 302.199 2.63753 -0.856121 0
M  V30 3183 H 305.15 1.29817 -0.91286 0
M  V30 3184 H 305.171 3.80194 0.152682 0
M  V30 3185 H 304.683 3.51322 -1.64908 0
M  V30 3186 H 302.784 3.63608 0.813624 0
M  V30 3187 H 302.897 4.7373 -0.715307 0
M  V30 3188 H 301.261 2.53108 -0.28432 0
M  V30 3189 H 302.044 2.84137 -1.92668 0
M  V30 3190 N 304.489 0.459591 1.5075 0
M  V30 3191 C 305.436 -0.340524 2.28274 0
M  V30 3192 C 306.406 -0.997371 1.32822 0
M  V30 3193 O 307.591 -1.01202 1.61749 0
M  V30 3194 C 304.731 -1.42317 3.14388 0
M  V30 3195 C 303.844 -0.782251 4.24859 0
M  V30 3196 C 302.979 -1.84182 4.98247 0
M  V30 3197 C 302.018 -1.18053 6.00608 0
M  V30 3198 N 301.155 -2.18244 6.67319 0
M  V30 3199 H 305.995 0.326899 2.96202 0
M  V30 3200 H 303.532 0.173057 1.46078 0
M  V30 3201 H 305.49 -2.06241 3.62658 0
M  V30 3202 H 304.12 -2.05992 2.4853 0
M  V30 3203 H 303.172 -0.0307404 3.80388 0
M  V30 3204 H 304.484 -0.259663 4.98124 0
M  V30 3205 H 303.638 -2.55714 5.50177 0
M  V30 3206 H 302.377 -2.39819 4.24662 0
M  V30 3207 H 301.382 -0.450776 5.47949 0
M  V30 3208 H 302.607 -0.631202 6.7616 0
M  V30 3209 H 300.553 -2.72919 5.96533 0
M  V30 3210 H 300.47 -1.70938 7.36421 0
M  V30 3211 H 301.738 -2.89191 7.23871 0
M  V30 3212 N 305.967 -1.56429 0.191757 0
M  V30 3213 C 307.383 -1.58754 -0.164137 0
M  V30 3214 C 307.583 -1.20782 -1.61288 0
M  V30 3215 O 306.639 -0.928999 -2.34789 0
M  V30 3216 C 307.952 -3.00396 0.135195 0
M  V30 3217 C 309.5 -3.1291 0.0750351 0
M  V30 3218 C 309.975 -4.56679 0.347632 0
M  V30 3219 N 311.466 -4.62252 0.296131 0
M  V30 3220 C 312.201 -5.71379 0.480948 0
M  V30 3221 N 311.697 -6.88986 0.725933 0
M  V30 3222 N 313.49 -5.60563 0.415435 0
M  V30 3223 H 305.641 -1.79393 1.13718 0
M  V30 3224 H 307.904 -0.832414 0.453643 0
M  V30 3225 H 307.61 -3.32726 1.13958 0
M  V30 3226 H 307.484 -3.72963 -0.563773 0
M  V30 3227 H 309.871 -2.80394 -0.919948 0
M  V30 3228 H 309.952 -2.42736 0.807029 0
M  V30 3229 H 309.596 -4.89907 1.33992 0
M  V30 3230 H 309.526 -5.25039 -0.405212 0
M  V30 3231 H 312.017 -3.7773 0.113259 0
M  V30 3232 H 312.33 -7.68046 0.855857 0
M  V30 3233 H 310.675 -6.90801 0.762788 0
M  V30 3234 H 313.866 -4.67561 0.224486 0
M  V30 3235 H 314.039 -6.45551 0.562889 0
M  V30 3236 N 307.445 0.0818655 -1.57387 0
M  V30 3237 C 308.856 0.634871 -1.75574 0
M  V30 3238 C 309.207 1.78435 -0.815809 0
M  V30 3239 O 308.332 2.164 0.0025366 0
M  V30 3240 C 308.927 1.15845 -3.18379 0
M  V30 3241 C 307.486 1.65741 -3.37945 0
M  V30 3242 C 306.633 0.572549 -2.71325 0
M  V30 3243 H 309.584 -0.144268 -1.58043 0
M  V30 3244 H 309.605 2.02751 -3.21982 0
M  V30 3245 H 309.117 0.321631 -3.86765 0
M  V30 3246 H 307.218 2.51781 -2.74658 0
M  V30 3247 H 307.331 1.74129 -4.46336 0
M  V30 3248 H 305.695 1.01518 -2.33594 0
M  V30 3249 H 306.478 -0.253918 -3.4236 0
M  V30 3250 N 308.923 1.53595 0.353017 0
M  V30 3251 C 310.2 1.61002 1.11075 0
M  V30 3252 C 310.58 0.425356 2.0677 0
M  V30 3253 O 309.928 -0.583267 2.2093 0
M  V30 3254 C 310.138 2.96631 1.83877 0
M  V30 3255 C 311.486 3.51653 2.37961 0
M  V30 3256 O 312.51 2.98743 1.93987 0
M  V30 3257 O 311.369 4.44177 3.18386 0
M  V30 3258 H 308.463 0.650825 0.510251 0
M  V30 3259 H 311.009 1.6594 0.35527 0
M  V30 3260 H 309.781 3.74293 1.14108 0
M  V30 3261 H 309.404 2.95242 2.66304 0
M  V30 3262 N 310.401 -0.613514 1.45168 0
M  V30 3263 C 311.364 -1.7065 1.53007 0
M  V30 3264 C 312.364 -1.5548 0.410184 0
M  V30 3265 O 313.554 -1.60656 0.673455 0
M  V30 3266 C 310.686 -3.09875 1.42093 0
M  V30 3267 H 311.879 -1.65068 2.50385 0
M  V30 3268 H 309.432 -0.828728 1.32521 0
M  V30 3269 H 310.167 -3.21039 0.458769 0
M  V30 3270 H 309.952 -3.22293 2.23315 0
M  V30 3271 H 311.442 -3.895 1.50598 0
M  V30 3272 N 311.879 -1.3236 -0.855495 0
M  V30 3273 C 313.119 -1.24187 -1.62348 0
M  V30 3274 C 313.483 0.193597 -1.91021 0
M  V30 3275 O 314.684 0.39904 -2.65822 0
M  V30 3276 C 312.955 -2.07661 -2.90881 0
M  V30 3277 S 314.514 -2.16505 -3.81669 0
M  V30 3278 H 311.332 -0.442076 -0.556857 0
M  V30 3279 H 313.934 -1.67198 -1.01317 0
M  V30 3280 H 312.638 -3.11018 -2.67761 0
M  V30 3281 H 312.169 -1.65425 -3.56929 0
M  V30 3282 H 314.184 -1.31394 -4.78487 0
M  V30 3283 N 313.357 1.07166 -1.15556 0
M  V30 3284 C 314.604 1.79798 -0.931604 0
M  V30 3285 C 314.932 1.8682 0.54115 0
M  V30 3286 O 314.187 1.34942 1.41736 0
M  V30 3287 C 314.486 3.24707 -1.49332 0
M  V30 3288 C 314.152 3.37781 -2.98688 0
M  V30 3289 C 312.814 3.41057 -3.39461 0
M  V30 3290 C 315.166 3.40424 -3.94665 0
M  V30 3291 C 312.494 3.4458 -4.74849 0
M  V30 3292 C 314.846 3.45485 -5.29927 0
M  V30 3293 C 313.51 3.47039 -5.70193 0
M  V30 3294 H 312.78 0.657928 -0.340898 0
M  V30 3295 H 315.427 1.26091 -1.44129 0
M  V30 3296 H 313.732 3.81208 -0.904859 0
M  V30 3297 H 315.429 3.79486 -1.29582 0
M  V30 3298 H 312.019 3.35932 -2.66172 0
M  V30 3299 H 316.203 3.37113 -3.64237 0
M  V30 3300 H 311.459 3.44083 -5.05388 0
M  V30 3301 H 315.633 3.46476 -6.04092 0
M  V30 3302 H 313.26 3.49522 -6.75084 0
M  V30 3303 N 314.835 0.952656 1.25548 0
M  V30 3304 C 315.768 0.415525 2.24385 0
M  V30 3305 C 316.746 -0.502046 1.54655 0
M  V30 3306 O 317.93 -0.436875 1.83368 0
M  V30 3307 C 315.057 -0.401734 3.36309 0
M  V30 3308 C 314.103 0.455949 4.24056 0
M  V30 3309 S 314.936 1.88698 5.01152 0
M  V30 3310 C 316.092 1.07809 6.16545 0
M  V30 3311 H 316.325 1.25315 2.69599 0
M  V30 3312 H 313.858 0.756587 1.34592 0
M  V30 3313 H 315.816 -0.867329 4.01233 0
M  V30 3314 H 314.477 -1.21416 2.89684 0
M  V30 3315 H 313.67 -0.170776 5.03711 0
M  V30 3316 H 313.272 0.856675 3.64056 0
M  V30 3317 H 315.564 0.325816 6.76716 0
M  V30 3318 H 316.507 1.84849 6.83547 0
M  V30 3319 H 316.915 0.60909 5.61204 0
M  V30 3320 N 316.313 -1.40141 0.720998 0
M  V30 3321 C 317.276 -2.29058 0.0805834 0
M  V30 3322 C 318.276 -1.45632 -0.681758 0
M  V30 3323 O 319.466 -1.6648 -0.512856 0
M  V30 3324 C 316.598 -3.28925 -0.895593 0
M  V30 3325 H 317.791 -2.87191 0.863793 0
M  V30 3326 H 315.344 -1.48553 0.485975 0
M  V30 3327 H 316.079 -2.75822 -1.70566 0
M  V30 3328 H 315.864 -3.90519 -0.351766 0
M  V30 3329 H 317.354 -3.95494 -1.34069 0
M  V30 3330 N 317.792 -0.46758 -1.50504 0
M  V30 3331 C 319.022 0.086288 -2.0642 0
M  V30 3332 C 319.43 1.34369 -1.33197 0
M  V30 3333 O 318.773 1.79431 -0.393747 0
M  V30 3334 C 318.835 0.443846 -3.5675 0
M  V30 3335 C 318.499 -0.711035 -4.51435 0
M  V30 3336 C 319.496 -1.59205 -4.94924 0
M  V30 3337 C 317.181 -0.900363 -4.94165 0
M  V30 3338 C 319.175 -2.64683 -5.79846 0
M  V30 3339 C 316.862 -1.95837 -5.7887 0
M  V30 3340 C 317.86 -2.82997 -6.21612 0
M  V30 3341 O 317.548 -3.86977 -7.0463 0
M  V30 3342 H 317.28 -0.00217814 -0.675996 0
M  V30 3343 H 319.834 -0.654346 -1.94698 0
M  V30 3344 H 318.064 1.23762 -3.6636 0
M  V30 3345 H 319.753 0.932386 -3.95046 0
M  V30 3346 H 320.519 -1.45745 -4.62583 0
M  V30 3347 H 316.398 -0.231427 -4.60419 0
M  V30 3348 H 319.942 -3.32745 -6.13128 0
M  V30 3349 H 315.839 -2.09305 -6.10624 0
M  V30 3350 H 316.607 -3.83923 -7.22873 0
M  V30 3351 N 319.27 1.56325 -0.20005 0
M  V30 3352 C 320.498 2.02105 0.442874 0
M  V30 3353 C 320.913 1.08014 1.5485 0
M  V30 3354 O 320.27 0.0858797 1.82298 0
M  V30 3355 C 320.321 3.47549 0.994583 0
M  V30 3356 O 320.042 4.38049 -0.0669322 0
M  V30 3357 C 321.543 4.0887 1.7129 0
M  V30 3358 H 318.763 0.661807 0.110691 0
M  V30 3359 H 321.307 2.02134 -0.310207 0
M  V30 3360 H 319.462 3.48204 1.69803 0
M  V30 3361 H 319.876 5.23368 0.344462 0
M  V30 3362 H 321.35 5.12475 2.05118 0
M  V30 3363 H 321.827 3.52615 2.61838 0
M  V30 3364 H 322.433 4.12002 1.05518 0
M  V30 3365 N 320.748 -0.0735177 1.57428 0
M  V30 3366 C 321.995 -0.772999 1.87166 0
M  V30 3367 C 322.323 -1.77665 0.791551 0
M  V30 3368 O 321.578 -1.94541 -0.212636 0
M  V30 3369 C 321.877 -1.51799 3.23561 0
M  V30 3370 C 321.543 -0.654484 4.46125 0
M  V30 3371 C 320.205 -0.416511 4.79394 0
M  V30 3372 C 322.557 -0.0555862 5.2117 0
M  V30 3373 C 319.885 0.429869 5.85123 0
M  V30 3374 C 322.237 0.778239 6.27795 0
M  V30 3375 C 320.901 1.0261 6.59566 0
M  V30 3376 H 320.171 -0.282861 0.684888 0
M  V30 3377 H 322.818 -0.0338272 1.9147 0
M  V30 3378 H 321.123 -2.32932 3.1504 0
M  V30 3379 H 322.82 -2.06397 3.43804 0
M  V30 3380 H 319.41 -0.850091 4.20085 0
M  V30 3381 H 323.594 -0.226558 4.95783 0
M  V30 3382 H 318.85 0.630665 6.08139 0
M  V30 3383 H 323.024 1.24906 6.85107 0
M  V30 3384 H 320.651 1.68371 7.4132 0
M  V30 3385 N 322.226 -1.5378 -0.344866 0
M  V30 3386 C 323.136 -1.84667 -1.4469 0
M  V30 3387 C 324.152 -0.736704 -1.57635 0
M  V30 3388 O 325.328 -1.02888 -1.73136 0
M  V30 3389 C 322.393 -2.04869 -2.79696 0
M  V30 3390 C 321.454 -3.28731 -2.76106 0
M  V30 3391 C 320.687 -3.4796 -4.04673 0
M  V30 3392 O 320.91 -2.71052 -5.01883 0
M  V30 3393 O 319.844 -4.41383 -4.09224 0
M  V30 3394 H 323.67 -2.78334 -1.21506 0
M  V30 3395 H 321.255 -1.39418 -0.536921 0
M  V30 3396 H 323.137 -2.19609 -3.59652 0
M  V30 3397 H 321.812 -1.14391 -3.02814 0
M  V30 3398 H 320.719 -3.19396 -1.94774 0
M  V30 3399 H 322.052 -4.19198 -2.57941 0
M  V30 3400 N 323.704 0.605807 -1.45491 0
M  V30 3401 C 325.12 0.926751 -1.29936 0
M  V30 3402 C 325.32 1.99896 -0.253706 0
M  V30 3403 O 324.376 2.50038 0.351737 0
M  V30 3404 C 325.689 1.36599 -2.67883 0
M  V30 3405 C 327.237 1.4801 -2.75793 0
M  V30 3406 C 327.712 1.95309 -4.14268 0
M  V30 3407 N 329.203 2.0254 -4.16571 0
M  V30 3408 C 329.938 2.40363 -5.20589 0
M  V30 3409 N 329.434 2.77143 -6.34952 0
M  V30 3410 N 331.227 2.40718 -5.07948 0
M  V30 3411 H 323.378 -0.102862 -2.12151 0
M  V30 3412 H 325.641 0.016639 -0.947854 0
M  V30 3413 H 325.347 0.652306 -3.45598 0
M  V30 3414 H 325.221 2.33215 -2.96463 0
M  V30 3415 H 327.608 2.1847 -1.98381 0
M  V30 3416 H 327.689 0.497041 -2.50925 0
M  V30 3417 H 327.333 1.25436 -4.92167 0
M  V30 3418 H 327.263 2.94532 -4.3653 0
M  V30 3419 H 329.754 1.76699 -3.34045 0
M  V30 3420 H 330.067 3.0489 -7.10114 0
M  V30 3421 H 328.412 2.74834 -6.3835 0
M  V30 3422 H 331.603 2.11392 -4.1765 0
M  V30 3423 H 331.776 2.69869 -5.89131 0
M  V30 3424 N 325.182 1.32811 0.848464 0
M  V30 3425 C 326.092 1.24278 1.98978 0
M  V30 3426 C 327.108 0.155176 1.73307 0
M  V30 3427 O 328.284 0.376999 1.9784 0
M  V30 3428 C 325.349 0.972444 3.32783 0
M  V30 3429 C 324.41 2.14911 3.71634 0
M  V30 3430 C 323.643 1.89157 4.99054 0
M  V30 3431 O 323.866 0.837165 5.64223 0
M  V30 3432 O 322.8 2.75433 5.35183 0
M  V30 3433 H 326.626 2.20238 2.09115 0
M  V30 3434 H 324.211 1.12762 0.980052 0
M  V30 3435 H 326.093 0.838432 4.12975 0
M  V30 3436 H 324.768 0.043051 3.23671 0
M  V30 3437 H 323.675 2.33862 2.91992 0
M  V30 3438 H 325.008 3.06151 3.85399 0
M  V30 3439 N 326.66 -1.06551 1.16123 0
M  V30 3440 C 327.885 -1.83544 0.965735 0
M  V30 3441 C 328.31 -1.81843 -0.481102 0
M  V30 3442 O 327.668 -1.21732 -1.34354 0
M  V30 3443 C 327.716 -3.28169 1.49457 0
M  V30 3444 O 326.82 -4.0643 0.699157 0
M  V30 3445 H 326.161 -0.568026 0.343864 0
M  V30 3446 H 328.691 -1.34362 1.54299 0
M  V30 3447 H 328.701 -3.78992 1.51092 0
M  V30 3448 H 327.376 -3.28722 2.54784 0
M  V30 3449 H 325.953 -3.65216 0.7531 0
M  V30 3450 N 328.138 -0.959301 -1.25041 0
M  V30 3451 C 329.363 -0.633507 -1.97488 0
M  V30 3452 C 329.788 0.788555 -1.70773 0
M  V30 3453 O 329.146 1.53394 -0.966431 0
M  V30 3454 C 329.194 -0.904057 -3.49083 0
M  V30 3455 O 328.298 0.0147939 -4.12397 0
M  V30 3456 H 327.639 -0.240368 -0.618966 0
M  V30 3457 H 330.169 -1.28717 -1.59038 0
M  V30 3458 H 330.179 -0.832203 -3.99423 0
M  V30 3459 H 328.854 -1.94048 -3.67856 0
M  V30 3460 H 327.431 -0.109664 -3.72739 0
M  V30 3461 N 329.616 1.39756 -0.72842 0
M  V30 3462 C 330.864 2.00248 -0.272946 0
M  V30 3463 C 331.185 1.58077 1.14178 0
M  V30 3464 O 330.455 0.826014 1.77634 0
M  V30 3465 H 329.035 0.740554 -0.0979247 0
M  V30 3466 H 331.697 1.70903 -0.936912 0
M  V30 3467 H 330.793 3.10495 -0.316142 0
M  V30 3468 N 331.094 0.475555 1.50254 0
M  V30 3469 C 332.004 -0.321501 2.32387 0
M  V30 3470 C 333.02 -0.991755 1.42969 0
M  V30 3471 O 334.196 -0.978747 1.76018 0
M  V30 3472 C 331.261 -1.38667 3.17762 0
M  V30 3473 C 330.322 -0.732538 4.23004 0
M  V30 3474 C 329.555 -1.74695 5.04299 0
M  V30 3475 O 329.778 -2.97399 4.86734 0
M  V30 3476 O 328.712 -1.31631 5.8733 0
M  V30 3477 H 332.538 0.350071 3.01676 0
M  V30 3478 H 330.123 0.237321 1.47503 0
M  V30 3479 H 332.005 -2.00354 3.70724 0
M  V30 3480 H 330.68 -2.04163 2.51196 0
M  V30 3481 H 329.587 -0.0765902 3.74022 0
M  V30 3482 H 330.92 -0.120452 4.92053 0
M  V30 3483 N 332.573 -1.56217 0.208337 0
M  V30 3484 C 333.483 -2.23316 -0.718836 0
M  V30 3485 C 334.499 -1.23648 -1.22422 0
M  V30 3486 O 335.675 -1.56423 -1.26861 0
M  V30 3487 C 332.74 -2.88968 -1.91568 0
M  V30 3488 C 331.801 -4.03943 -1.45357 0
M  V30 3489 C 331.034 -4.66455 -2.59337 0
M  V30 3490 O 331.257 -4.27919 -3.77149 0
M  V30 3491 O 330.191 -5.55686 -2.31293 0
M  V30 3492 H 334.017 -3.03182 -0.177315 0
M  V30 3493 H 331.602 -1.49384 -0.0215402 0
M  V30 3494 H 333.484 -3.30455 -2.61491 0
M  V30 3495 H 332.159 -2.12071 -2.44556 0
M  V30 3496 H 331.066 -3.67052 -0.722746 0
M  V30 3497 H 332.399 -4.82543 -0.970219 0
M  V30 3498 N 334.051 0.0651679 -1.57465 0
M  V30 3499 C 334.961 1.09448 -2.07505 0
M  V30 3500 C 335.977 1.41974 -1.00595 0
M  V30 3501 O 337.153 1.52018 -1.32107 0
M  V30 3502 C 334.218 2.38689 -2.51453 0
M  V30 3503 C 333.279 2.13073 -3.72691 0
M  V30 3504 C 332.512 3.36152 -4.14533 0
M  V30 3505 O 332.735 4.45517 -3.56189 0
M  V30 3506 O 331.669 3.23974 -5.07272 0
M  V30 3507 H 335.495 0.69935 -2.95538 0
M  V30 3508 H 333.08 0.279752 -1.46757 0
M  V30 3509 H 334.962 3.14736 -2.80212 0
M  V30 3510 H 333.637 2.77568 -1.66546 0
M  V30 3511 H 332.544 1.34709 -3.49005 0
M  V30 3512 H 333.877 1.79071 -4.5847 0
M  V30 3513 N 335.529 1.53961 0.336706 0
M  V30 3514 C 336.439 1.85432 1.43708 0
M  V30 3515 C 337.455 0.745053 1.57242 0
M  V30 3516 O 338.631 1.03804 1.72588 0
M  V30 3517 C 335.696 2.06349 2.78605 0
M  V30 3518 C 334.757 3.30191 2.74358 0
M  V30 3519 C 333.99 3.50101 4.02822 0
M  V30 3520 O 334.213 2.7371 5.00439 0
M  V30 3521 O 333.147 4.43547 4.06878 0
M  V30 3522 H 336.973 2.78975 1.20028 0
M  V30 3523 H 334.558 1.39701 0.52952 0
M  V30 3524 H 336.44 2.21513 3.58483 0
M  V30 3525 H 335.115 1.15995 3.02203 0
M  V30 3526 H 334.022 3.20425 1.93078 0
M  V30 3527 H 335.355 4.2056 2.55715 0
M  V30 3528 O 337.046 -0.482677 1.54118 0
M  V30 3529 H 337.737 -1.13727 1.56799 0
M  V30 END ATOM
M  V30 BEGIN BOND
M  V30 END BOND
M  V30 END CTAB
M  END
$$$$
