drugbank_target|P36871 Phosphoglucomutase-1 (DB02835; DB04397)
 OpenBabel12092120533D

  0  0  0     0  0            999 V3000
M  V30 BEGIN CTAB
M  V30 COUNTS 8658 8742 0 0 0
M  V30 BEGIN ATOM
M  V30 1 H -0.908 1.98254 -0.117106 0
M  V30 2 N 0 1.576 0 0
M  V30 3 C 0.933 2.03868 1.02534 0
M  V30 4 C 1.911 0.928543 1.3348 0
M  V30 5 O 3.095 1.19667 1.45644 0
M  V30 6 C 0.222 2.43627 2.35294 0
M  V30 7 C -0.732 3.65373 2.2001 0
M  V30 8 S 0.101 5.13292 1.52614 0
M  V30 9 C 1.257 5.56322 2.86805 0
M  V30 10 H 1.49 2.90518 0.631377 0
M  V30 11 H -0.977 1.52953 0.210867 0
M  V30 12 H 0.981 2.67203 3.11629 0
M  V30 13 H -0.358 1.57376 2.7183 0
M  V30 14 H -1.165 3.90944 3.18086 0
M  V30 15 H -1.563 3.418 1.51819 0
M  V30 16 H 0.729 5.58782 3.83104 0
M  V30 17 H 1.672 6.56266 2.65933 0
M  V30 18 H 2.08 4.83886 2.90714 0
M  V30 19 N 1.4781 -0.272755 1.55222 0
M  V30 20 C 2.7241 -1.00581 1.761 0
M  V30 21 C 3.0571 -1.85932 0.560625 0
M  V30 22 O 2.3321 -1.89416 -0.441801 0
M  V30 23 C 2.6151 -1.88816 3.06628 0
M  V30 24 C 2.4681 -1.06457 4.37021 0
M  V30 25 C 3.7871 -2.8752 3.33197 0
M  V30 26 H 0.9061 -0.364244 0.640699 0
M  V30 27 H 3.5481 -0.278189 1.87952 0
M  V30 28 H 1.6981 -2.50856 2.96654 0
M  V30 29 H 3.3701 -0.464863 4.58952 0
M  V30 30 H 1.6131 -0.368043 4.32236 0
M  V30 31 H 2.2841 -1.71514 5.24678 0
M  V30 32 H 4.7601 -2.35615 3.42965 0
M  V30 33 H 3.6361 -3.46399 4.25792 0
M  V30 34 H 3.8971 -3.62657 2.52849 0
M  V30 35 N 2.9562 -1.48159 -0.537278 0
M  V30 36 C 3.9032 -1.62138 -1.64256 0
M  V30 37 C 4.8732 -0.463668 -1.59497 0
M  V30 38 O 6.0582 -0.686241 -1.78032 0
M  V30 39 C 3.1982 -1.66028 -3.02537 0
M  V30 40 C 2.3112 -2.92855 -3.17585 0
M  V30 41 C 1.4462 -2.87952 -4.46382 0
M  V30 42 C 0.4852 -4.09516 -4.54932 0
M  V30 43 N -0.3778 -4.02733 -5.75109 0
M  V30 44 H 4.4622 -2.56529 -1.51647 0
M  V30 45 H 1.9992 -1.27224 -0.738414 0
M  V30 46 H 3.9572 -1.66265 -3.82638 0
M  V30 47 H 2.5872 -0.751331 -3.13934 0
M  V30 48 H 1.6392 -3.02395 -2.30784 0
M  V30 49 H 2.9512 -3.82822 -3.19764 0
M  V30 50 H 2.1052 -2.8655 -5.34765 0
M  V30 51 H 0.8442 -1.95702 -4.46712 0
M  V30 52 H -0.1508 -4.11201 -3.64957 0
M  V30 53 H 1.0742 -5.02917 -4.56346 0
M  V30 54 H -0.9798 -3.13299 -5.76351 0
M  V30 55 H -1.0628 -4.86397 -5.78752 0
M  V30 56 H 0.2052 -4.05379 -6.65799 0
M  V30 57 N 4.4343 0.785586 -1.36625 0
M  V30 58 C 5.6833 1.53883 -1.30396 0
M  V30 59 C 5.9963 1.95271 0.113452 0
M  V30 60 O 7.2023 2.69858 0.298142 0
M  V30 61 C 5.6583 2.77808 -2.28802 0
M  V30 62 C 5.2663 2.43574 -3.75999 0
M  V30 63 C 7.0103 3.55783 -2.31558 0
M  V30 64 C 4.9173 3.63919 -4.66173 0
M  V30 65 H 3.8473 0.577678 -0.484566 0
M  V30 66 H 6.4983 0.861705 -1.62009 0
M  V30 67 H 4.8803 3.47339 -1.90188 0
M  V30 68 H 6.0543 1.81916 -4.23371 0
M  V30 69 H 4.3693 1.78803 -3.76056 0
M  V30 70 H 6.9663 4.45205 -2.96137 0
M  V30 71 H 7.3093 3.94644 -1.3252 0
M  V30 72 H 7.8423 2.93235 -2.68809 0
M  V30 73 H 4.5813 3.3015 -5.66287 0
M  V30 74 H 4.1013 4.2473 -4.23515 0
M  V30 75 H 5.7803 4.30901 -4.82632 0
M  V30 76 N 5.9124 1.20967 1.01018 0
M  V30 77 C 7.1584 1.02526 1.74975 0
M  V30 78 C 7.4914 -0.4408 1.89131 0
M  V30 79 O 6.7664 -1.32718 1.42184 0
M  V30 80 C 7.0494 1.71699 3.1653 0
M  V30 81 C 6.9024 3.25791 3.10129 0
M  V30 82 C 8.2214 1.45531 4.15342 0
M  V30 83 H 5.3404 0.373863 0.635134 0
M  V30 84 H 7.9824 1.49071 1.17805 0
M  V30 85 H 6.1324 1.32128 3.65341 0
M  V30 86 H 7.8044 3.74697 2.69072 0
M  V30 87 H 6.0474 3.56363 2.47362 0
M  V30 88 H 6.7184 3.69353 4.10222 0
M  V30 89 H 9.1944 1.79872 3.75213 0
M  V30 90 H 8.0704 1.96453 5.1254 0
M  V30 91 H 8.3314 0.384237 4.40427 0
M  V30 92 N 7.3905 -1.2043 1.01659 0
M  V30 93 C 8.6185 -1.93777 0.725132 0
M  V30 94 C 9.0335 -1.74772 -0.714166 0
M  V30 95 O 8.3905 -1.06169 -1.4844 0
M  V30 96 C 8.4415 -3.45876 1.05129 0
M  V30 97 O 8.1625 -3.6426 2.43406 0
M  V30 98 C 9.6635 -4.36368 0.780891 0
M  V30 99 H 6.8835 -0.615901 0.266284 0
M  V30 100 H 9.4275 -1.52922 1.35776 0
M  V30 101 H 7.5825 -3.8461 0.464065 0
M  V30 102 H 7.9965 -4.58246 2.55169 0
M  V30 103 H 9.4705 -5.41743 1.05918 0
M  V30 104 H 9.9475 -4.38275 -0.284937 0
M  V30 105 H 10.5535 -4.03296 1.35027 0
M  V30 106 N 8.8686 -0.792821 -1.36206 0
M  V30 107 C 10.1146 -0.36733 -1.99446 0
M  V30 108 C 10.4476 1.05917 -1.62774 0
M  V30 109 O 9.7226 1.7324 -0.88421 0
M  V30 110 C 10.0056 -0.535044 -3.56103 0
M  V30 111 C 9.8586 -2.00548 -4.02617 0
M  V30 112 C 11.1776 0.0478191 -4.40074 0
M  V30 113 H 8.2966 -0.134941 -0.724541 0
M  V30 114 H 10.9386 -0.999794 -1.61568 0
M  V30 115 H 9.0886 0.00336329 -3.885 0
M  V30 116 H 10.7606 -2.60521 -3.80692 0
M  V30 117 H 9.0036 -2.50686 -3.54032 0
M  V30 118 H 9.6746 -2.07377 -5.11565 0
M  V30 119 H 12.1506 -0.411822 -4.14057 0
M  V30 120 H 11.0266 -0.0995336 -5.4881 0
M  V30 121 H 11.2876 1.14025 -4.27142 0
M  V30 122 N 10.3467 1.47872 -0.545128 0
M  V30 123 C 11.2937 2.29849 0.2093 0
M  V30 124 C 12.2637 1.38313 0.919707 0
M  V30 125 O 13.4487 1.67277 0.917772 0
M  V30 126 C 10.5887 3.22019 1.24088 0
M  V30 127 C 9.7017 4.2864 0.537778 0
M  V30 128 C 8.8367 5.07973 1.5536 0
M  V30 129 C 7.8757 6.06381 0.8348 0
M  V30 130 N 7.0127 6.78717 1.79688 0
M  V30 131 H 11.8527 2.93845 -0.49591 0
M  V30 132 H 9.3897 1.44848 -0.256389 0
M  V30 133 H 11.3477 3.73868 1.85144 0
M  V30 134 H 9.9777 2.59914 1.91428 0
M  V30 135 H 9.0297 3.7994 -0.187046 0
M  V30 136 H 10.3417 4.98793 -0.0258907 0
M  V30 137 H 9.4957 5.63912 2.23803 0
M  V30 138 H 8.2347 4.37693 2.15118 0
M  V30 139 H 7.2397 5.49631 0.136388 0
M  V30 140 H 8.4647 6.78665 0.24313 0
M  V30 141 H 6.4107 6.11177 2.38326 0
M  V30 142 H 6.3277 7.44998 1.28505 0
M  V30 143 H 7.5957 7.39237 2.47282 0
M  V30 144 N 11.8248 0.280983 1.55075 0
M  V30 145 C 13.0528 -0.337293 2.04132 0
M  V30 146 C 13.4678 -1.4903 1.15912 0
M  V30 147 O 12.8248 -1.81606 0.180459 0
M  V30 148 C 12.8758 -0.812706 3.52246 0
M  V30 149 O 12.5968 0.294387 4.3711 0
M  V30 150 C 14.0978 -1.4982 4.17216 0
M  V30 151 H 11.3178 -0.0761638 0.666663 0
M  V30 152 H 13.8618 0.414787 2.00249 0
M  V30 153 H 12.0168 -1.51486 3.56554 0
M  V30 154 H 12.4308 -0.0721325 5.2445 0
M  V30 155 H 13.9048 -1.7822 5.22438 0
M  V30 156 H 14.3818 -2.43168 3.65741 0
M  V30 157 H 14.9878 -0.839742 4.16927 0
M  V30 158 N 13.3029 -1.57598 0.00835791 0
M  V30 159 C 14.2349 -2.05811 -1.00868 0
M  V30 160 C 15.2479 -0.977579 -1.30182 0
M  V30 161 O 16.4369 -1.25421 -1.27011 0
M  V30 162 C 13.5369 -2.45016 -2.34137 0
M  V30 163 C 12.7099 -3.75903 -2.23643 0
M  V30 164 C 11.7689 -4.01884 -3.3967 0
M  V30 165 O 10.7949 -4.72433 -3.17483 0
M  V30 166 N 11.9969 -3.50432 -4.62793 0
M  V30 167 H 14.7619 -2.93684 -0.597458 0
M  V30 168 H 12.3229 -1.60909 -0.178852 0
M  V30 169 H 14.3149 -2.59506 -3.10546 0
M  V30 170 H 12.8849 -1.62618 -2.66972 0
M  V30 171 H 12.1049 -3.7141 -1.32091 0
M  V30 172 H 13.3929 -4.61695 -2.13812 0
M  V30 173 H 12.7909 -2.93317 -4.83716 0
M  V30 174 H 11.3479 -3.70236 -5.3644 0
M  V30 175 N 14.781 0.264519 -1.55364 0
M  V30 176 C 15.744 1.31046 -1.88042 0
M  V30 177 C 16.744 1.41943 -0.755569 0
M  V30 178 O 17.934 1.40947 -1.02369 0
M  V30 179 C 15.066 2.69067 -2.09323 0
M  V30 180 H 16.259 1.03297 -2.81549 0
M  V30 181 H 13.812 0.502989 -1.47986 0
M  V30 182 H 14.547 3.01982 -1.18226 0
M  V30 183 H 14.332 2.62542 -2.91229 0
M  V30 184 H 15.822 3.44623 -2.35848 0
M  V30 185 N 16.2591 1.48442 0.529413 0
M  V30 186 C 17.4891 1.59919 1.30804 0
M  V30 187 C 17.8971 0.258792 1.87422 0
M  V30 188 O 17.2401 -0.762096 1.67146 0
M  V30 189 C 17.3021 2.58693 2.49636 0
M  V30 190 C 16.9661 4.03745 2.14101 0
M  V30 191 C 17.9631 4.9141 1.6974 0
M  V30 192 C 15.6481 4.49285 2.24607 0
M  V30 193 C 17.6421 6.22645 1.36351 0
M  V30 194 C 15.3291 5.8054 1.9083 0
M  V30 195 C 16.3271 6.67043 1.46773 0
M  V30 196 O 16.0151 7.95856 1.1344 0
M  V30 197 H 15.7471 0.541981 0.404021 0
M  V30 198 H 18.3011 1.95 0.645309 0
M  V30 199 H 16.5311 2.18734 3.18892 0
M  V30 200 H 18.2201 2.59999 3.11698 0
M  V30 201 H 18.9861 4.57465 1.61094 0
M  V30 202 H 14.8651 3.82142 2.57854 0
M  V30 203 H 18.4091 6.90119 1.01891 0
M  V30 204 H 14.3061 6.14022 1.99117 0
M  V30 205 H 15.0741 8.08613 1.26832 0
M  V30 206 N 17.7372 -0.778329 1.37039 0
M  V30 207 C 18.6692 -1.90034 1.2814 0
M  V30 208 C 19.6822 -1.61585 0.198558 0
M  V30 209 O 20.8712 -1.72625 0.454175 0
M  V30 210 C 17.9712 -3.25108 0.956968 0
M  V30 211 C 17.1442 -3.81253 2.14394 0
M  V30 212 C 16.2032 -4.94789 1.79082 0
M  V30 213 O 15.2292 -5.10721 2.51301 0
M  V30 214 N 16.4312 -5.75878 0.731043 0
M  V30 215 H 19.1962 -1.98186 2.24816 0
M  V30 216 H 16.7572 -0.957129 1.30578 0
M  V30 217 H 18.7492 -3.9857 0.701701 0
M  V30 218 H 17.3192 -3.125 0.0789812 0
M  V30 219 H 16.5392 -2.99647 2.56135 0
M  V30 220 H 17.8272 -4.15495 2.93668 0
M  V30 221 H 17.2252 -5.65547 0.131618 0
M  V30 222 H 15.7822 -6.49596 0.535622 0
M  V30 223 N 19.2153 -1.21501 -1.00376 0
M  V30 224 C 20.4923 -0.941745 -1.71437 0
M  V30 225 C 20.8723 0.546114 -2.03914 0
M  V30 226 O 20.2203 1.51128 -1.71384 0
M  V30 227 C 20.4303 -1.82812 -2.97289 0
M  V30 228 C 21.7783 -2.07771 -3.70292 0
M  V30 229 O 22.8023 -1.80171 -3.07273 0
M  V30 230 O 21.6613 -2.54456 -4.83647 0
M  V30 231 H 18.7553 -0.353243 -0.747762 0
M  V30 232 H 21.3013 -1.32436 -1.06108 0
M  V30 233 H 20.0733 -2.83501 -2.69709 0
M  V30 234 H 19.6963 -1.4464 -3.70358 0
M  V30 235 N 20.6934 1.19889 -1.02296 0
M  V30 236 C 21.6254 2.22334 -0.556787 0
M  V30 237 C 22.6384 1.58674 0.364199 0
M  V30 238 O 23.8274 1.77768 0.161533 0
M  V30 239 C 20.9274 3.38257 0.208694 0
M  V30 240 C 20.1004 4.31504 -0.71577 0
M  V30 241 C 19.1594 5.262 0.00325597 0
M  V30 242 O 18.1854 5.65798 -0.621357 0
M  V30 243 N 19.3874 5.66303 1.27599 0
M  V30 244 H 22.1524 2.62957 -1.43784 0
M  V30 245 H 19.7134 1.34495 -0.901261 0
M  V30 246 H 21.7054 3.98616 0.699111 0
M  V30 247 H 20.2754 2.96472 0.991102 0
M  V30 248 H 19.4954 3.69016 -1.38638 0
M  V30 249 H 20.7834 4.9072 -1.34428 0
M  V30 250 H 20.1814 5.36155 1.80429 0
M  V30 251 H 18.7384 6.28942 1.71102 0
M  V30 252 N 22.1715 0.800033 1.35784 0
M  V30 253 C 23.1185 0.203848 2.29898 0
M  V30 254 C 24.0885 -0.658375 1.52495 0
M  V30 255 O 25.2735 -0.604832 1.8096 0
M  V30 256 C 22.4135 -0.64688 3.38983 0
M  V30 257 C 21.5265 0.235054 4.3136 0
M  V30 258 C 20.6615 -0.623054 5.27533 0
M  V30 259 C 19.7005 0.259682 6.11549 0
M  V30 260 N 18.8375 -0.558019 6.99879 0
M  V30 261 H 23.6775 1.01186 2.80295 0
M  V30 262 H 21.2145 0.51053 1.37957 0
M  V30 263 H 23.1725 -1.15521 4.00887 0
M  V30 264 H 21.8025 -1.42021 2.89879 0
M  V30 265 H 20.8545 0.861438 3.70518 0
M  V30 266 H 22.1665 0.914768 4.9034 0
M  V30 267 H 21.3205 -1.19678 5.94779 0
M  V30 268 H 20.0595 -1.33636 4.69034 0
M  V30 269 H 19.0645 0.845726 5.43256 0
M  V30 270 H 20.2895 0.970748 6.72126 0
M  V30 271 H 18.2355 -1.25542 6.43875 0
M  V30 272 H 18.1525 0.0637872 7.55973 0
M  V30 273 H 19.4205 -1.11523 7.71481 0
M  V30 274 N 23.6496 -1.47581 0.552962 0
M  V30 275 C 25.0606 -1.86324 0.118463 0
M  V30 276 C 25.4116 -1.46006 -1.3106 0
M  V30 277 O 24.5366 -0.861182 -1.98526 0
M  V30 278 C 25.1316 -3.3816 0.20821 0
M  V30 279 C 23.6906 -3.7601 -0.171226 0
M  V30 280 C 22.8376 -2.71634 0.557686 0
M  V30 281 H 25.7886 -1.39159 0.762928 0
M  V30 282 H 25.8096 -3.76141 -0.574278 0
M  V30 283 H 25.3216 -3.67473 1.24841 0
M  V30 284 H 23.4226 -3.52313 -1.21269 0
M  V30 285 H 23.5356 -4.78745 0.184379 0
M  V30 286 H 21.8996 -2.547 0.00125792 0
M  V30 287 H 22.6826 -3.0379 1.59896 0
M  V30 288 N 25.1277 -0.289203 -1.54924 0
M  V30 289 C 26.3757 0.322879 -1.99504 0
M  V30 290 C 26.6967 1.55313 -1.1791 0
M  V30 291 O 25.9667 1.94001 -0.272097 0
M  V30 292 H 24.5467 0.122291 -0.736922 0
M  V30 293 H 27.2087 -0.397802 -1.90797 0
M  V30 294 H 26.3047 0.603061 -3.06218 0
M  V30 295 N 26.6058 1.57591 -0.0167156 0
M  V30 296 C 27.8338 1.95575 0.675128 0
M  V30 297 C 28.2488 0.892542 1.6637 0
M  V30 298 O 27.6058 -0.126912 1.82058 0
M  V30 299 C 27.6568 3.33608 1.39239 0
M  V30 300 O 27.3778 4.3585 0.443444 0
M  V30 301 C 28.8788 3.86151 2.17721 0
M  V30 302 H 26.0988 0.644423 0.186978 0
M  V30 303 H 28.6428 2.0437 -0.0728 0
M  V30 304 H 26.7978 3.2607 2.09182 0
M  V30 305 H 27.2118 5.158 0.951358 0
M  V30 306 H 28.6858 4.85114 2.63379 0
M  V30 307 H 29.1628 3.19738 3.01105 0
M  V30 308 H 29.7688 3.96918 1.52761 0
M  V30 309 N 28.0839 -0.256276 1.55502 0
M  V30 310 C 29.3089 -1.00766 1.81276 0
M  V30 311 C 29.7339 -1.78524 0.59252 0
M  V30 312 O 29.0919 -1.75413 -0.45827 0
M  V30 313 C 29.1399 -1.92869 3.04687 0
M  V30 314 O 28.2439 -3.019 2.80945 0
M  V30 315 H 27.5849 -0.287224 0.598664 0
M  V30 316 H 30.1149 -0.280109 2.02674 0
M  V30 317 H 30.1249 -2.34511 3.33869 0
M  V30 318 H 28.7999 -1.35689 3.93143 0
M  V30 319 H 27.3769 -2.64454 2.62904 0
M  V30 320 N 29.562 -1.4872 -0.521534 0
M  V30 321 C 30.81 -1.56857 -1.27437 0
M  V30 322 C 31.131 -0.247982 -1.93417 0
M  V30 323 O 30.401 0.731151 -1.81744 0
M  V30 324 H 28.981 -0.577885 -0.473347 0
M  V30 325 H 31.643 -1.85233 -0.606205 0
M  V30 326 H 30.739 -2.35402 -2.0492 0
M  V30 327 N 31.0401 0.771051 -1.3745 0
M  V30 328 C 31.9701 1.89827 -1.3597 0
M  V30 329 C 32.9511 1.68562 -0.228216 0
M  V30 330 O 34.1361 1.8941 -0.428675 0
M  V30 331 C 31.2661 3.2712 -1.16662 0
M  V30 332 C 30.2201 3.6295 -2.2683 0
M  V30 333 C 29.5461 4.98791 -1.92644 0
M  V30 334 C 30.8461 3.69627 -3.69017 0
M  V30 335 H 32.5401 1.91323 -2.30295 0
M  V30 336 H 30.0861 0.919082 -1.10855 0
M  V30 337 H 32.0391 4.05615 -1.14256 0
M  V30 338 H 30.7631 3.26059 -0.187926 0
M  V30 339 H 29.4221 2.86763 -2.28392 0
M  V30 340 H 29.0701 4.94271 -0.933021 0
M  V30 341 H 28.7701 5.23733 -2.66416 0
M  V30 342 H 30.2941 5.79685 -1.91826 0
M  V30 343 H 31.7081 4.38273 -3.69581 0
M  V30 344 H 30.1051 4.06067 -4.41848 0
M  V30 345 H 31.1751 2.70273 -4.02592 0
M  V30 346 N 32.5182 1.22032 0.997298 0
M  V30 347 C 33.9342 0.979326 1.26021 0
M  V30 348 C 34.1342 -0.32972 1.98784 0
M  V30 349 O 33.1902 -1.05345 2.29475 0
M  V30 350 C 34.5032 2.17509 2.07631 0
M  V30 351 C 36.0512 2.21817 2.2083 0
M  V30 352 C 36.5262 3.40933 3.05825 0
M  V30 353 N 38.0172 3.41067 3.13412 0
M  V30 354 C 38.7522 4.29885 3.79455 0
M  V30 355 N 38.2482 5.28914 4.47462 0
M  V30 356 N 40.0412 4.17673 3.76173 0
M  V30 357 H 32.1922 2.06202 0.509352 0
M  V30 358 H 34.4552 0.90334 0.287541 0
M  V30 359 H 34.1612 3.12415 1.61524 0
M  V30 360 H 34.0352 2.17206 3.08385 0
M  V30 361 H 36.4222 1.27462 2.66153 0
M  V30 362 H 36.5032 2.2616 1.1952 0
M  V30 363 H 36.1472 4.35586 2.61203 0
M  V30 364 H 36.0772 3.33829 4.07266 0
M  V30 365 H 38.5682 2.69406 2.65007 0
M  V30 366 H 38.8812 5.92973 4.95583 0
M  V30 367 H 37.2262 5.32831 4.46224 0
M  V30 368 H 40.4172 3.39564 3.22202 0
M  V30 369 H 40.5902 4.87098 4.27363 0
M  V30 370 N 33.9963 -1.19345 1.0293 0
M  V30 371 C 34.9433 -2.2258 0.610464 0
M  V30 372 C 35.9133 -1.6179 -0.375946 0
M  V30 373 O 37.0983 -1.88844 -0.272511 0
M  V30 374 C 34.2383 -3.45085 -0.0321473 0
M  V30 375 C 33.3513 -4.20258 1.00035 0
M  V30 376 C 32.4863 -5.3019 0.32746 0
M  V30 377 C 31.5253 -5.97121 1.34584 0
M  V30 378 N 30.6623 -6.98615 0.698726 0
M  V30 379 H 35.5023 -2.57764 1.49538 0
M  V30 380 H 33.0393 -1.26644 0.748311 0
M  V30 381 H 34.9973 -4.15061 -0.421966 0
M  V30 382 H 33.6273 -3.10555 -0.88064 0
M  V30 383 H 32.6793 -3.49223 1.50823 0
M  V30 384 H 33.9913 -4.66175 1.77433 0
M  V30 385 H 33.1453 -6.06587 -0.11718 0
M  V30 386 H 31.8843 -4.85345 -0.478713 0
M  V30 387 H 30.8893 -5.19474 1.80074 0
M  V30 388 H 32.1143 -6.4405 2.15352 0
M  V30 389 H 30.0603 -6.55942 -0.0873471 0
M  V30 390 H 29.9773 -7.42724 1.41058 0
M  V30 391 H 31.2453 -7.79004 0.278102 0
M  V30 392 N 35.4744 -0.807222 -1.35358 0
M  V30 393 C 36.8904 -0.491038 -1.51858 0
M  V30 394 C 37.0904 0.987648 -1.75635 0
M  V30 395 O 36.1464 1.77265 -1.79815 0
M  V30 396 C 37.4594 -1.33695 -2.69344 0
M  V30 397 C 39.0074 -1.33246 -2.83222 0
M  V30 398 C 39.4824 -2.1625 -4.03733 0
M  V30 399 N 40.9734 -2.1379 -4.10911 0
M  V30 400 C 41.7084 -2.74772 -5.03277 0
M  V30 401 N 41.2044 -3.44684 -6.0097 0
M  V30 402 N 42.9974 -2.6441 -4.96028 0
M  V30 403 H 35.1484 -1.76485 -1.18181 0
M  V30 404 H 37.4114 -0.751199 -0.578276 0
M  V30 405 H 37.1174 -2.38634 -2.58354 0
M  V30 406 H 36.9914 -0.990618 -3.6396 0
M  V30 407 H 39.3784 -0.290911 -2.93663 0
M  V30 408 H 39.4594 -1.71866 -1.89461 0
M  V30 409 H 39.1034 -3.20445 -3.94052 0
M  V30 410 H 39.0334 -1.74989 -4.96675 0
M  V30 411 H 41.5244 -1.62923 -3.40976 0
M  V30 412 H 41.8374 -3.88501 -6.68047 0
M  V30 413 H 40.1824 -3.48788 -6.01142 0
M  V30 414 H 43.3734 -2.0938 -4.18662 0
M  V30 415 H 43.5464 -3.12225 -5.6782 0
M  V30 416 N 36.9525 1.47285 -0.560781 0
M  V30 417 C 38.1985 2.02764 -0.0381184 0
M  V30 418 C 38.5315 1.43384 1.30976 0
M  V30 419 O 37.8065 0.590733 1.85312 0
M  V30 420 C 38.0895 3.60064 0.0511427 0
M  V30 421 C 37.9425 4.2987 -1.32408 0
M  V30 422 C 39.2615 4.33439 0.762795 0
M  V30 423 H 36.3805 0.736841 -0.0153264 0
M  V30 424 H 39.0225 1.75675 -0.723759 0
M  V30 425 H 37.1725 3.83274 0.635065 0
M  V30 426 H 38.8445 4.17989 -1.95148 0
M  V30 427 H 37.0875 3.90085 -1.8978 0
M  V30 428 H 37.7585 5.38478 -1.21431 0
M  V30 429 H 40.2345 4.15243 0.266965 0
M  V30 430 H 39.1105 5.43124 0.794221 0
M  V30 431 H 39.3715 4.02915 1.81966 0
M  V30 432 N 38.4306 0.297415 1.54768 0
M  V30 433 C 39.3776 -0.580276 2.23386 0
M  V30 434 C 40.3476 -1.13238 1.21517 0
M  V30 435 O 41.5326 -1.17757 1.50126 0
M  V30 436 C 38.6726 -1.74801 2.97555 0
M  V30 437 C 37.7856 -1.22764 4.1419 0
M  V30 438 C 36.9206 -2.35895 4.75949 0
M  V30 439 C 35.9596 -1.80974 5.84735 0
M  V30 440 N 35.0966 -2.87664 6.40464 0
M  V30 441 H 39.9366 0.0114833 2.97998 0
M  V30 442 H 37.4736 0.0174361 1.4709 0
M  V30 443 H 39.4316 -2.43475 3.38786 0
M  V30 444 H 38.0616 -2.31145 2.25326 0
M  V30 445 H 37.1136 -0.433271 3.77924 0
M  V30 446 H 38.4256 -0.785551 4.92575 0
M  V30 447 H 37.5796 -3.12523 5.20014 0
M  V30 448 H 36.3186 -2.83429 3.96887 0
M  V30 449 H 35.3236 -1.02834 5.40097 0
M  V30 450 H 36.5486 -1.34348 6.65678 0
M  V30 451 H 34.4946 -3.34538 5.64287 0
M  V30 452 H 34.4116 -2.4794 7.14186 0
M  V30 453 H 35.6796 -3.642 6.89187 0
M  V30 454 N 39.9087 -1.5758 0.0250728 0
M  V30 455 C 41.1547 -1.91917 -0.655413 0
M  V30 456 C 41.4877 -0.901433 -1.72011 0
M  V30 457 O 40.7627 0.0764069 -1.9435 0
M  V30 458 C 41.0457 -3.36751 -1.27558 0
M  V30 459 C 40.8987 -4.49258 -0.220719 0
M  V30 460 C 42.2177 -3.81469 -2.19475 0
M  V30 461 H 39.3367 -0.697925 -0.23679 0
M  V30 462 H 41.9787 -1.89825 0.0815036 0
M  V30 463 H 40.1287 -3.38664 -1.90365 0
M  V30 464 H 41.8007 -4.59478 0.409601 0
M  V30 465 H 40.0437 -4.31415 0.454264 0
M  V30 466 H 40.7147 -5.47618 -0.694175 0
M  V30 467 H 43.1907 -3.81266 -1.66659 0
M  V30 468 H 42.0667 -4.83512 -2.59822 0
M  V30 469 H 42.3277 -3.16744 -3.08424 0
M  V30 470 N 41.3868 0.248026 -1.55636 0
M  V30 471 C 42.6338 0.976224 -1.77415 0
M  V30 472 C 42.9618 1.85361 -0.589193 0
M  V30 473 O 42.2168 1.90973 0.427529 0
M  V30 474 C 42.5158 1.86819 -3.04686 0
M  V30 475 C 42.1818 1.14625 -4.36087 0
M  V30 476 C 40.8438 0.946723 -4.71795 0
M  V30 477 C 43.1958 0.634463 -5.17324 0
M  V30 478 C 40.5238 0.223091 -5.86276 0
M  V30 479 C 42.8758 -0.0756959 -6.32555 0
M  V30 480 C 41.5398 -0.286711 -6.66884 0
M  V30 481 H 40.8098 0.357226 -0.649208 0
M  V30 482 H 43.4568 0.246415 -1.89908 0
M  V30 483 H 41.7618 2.66502 -2.872 0
M  V30 484 H 43.4588 2.43329 -3.18735 0
M  V30 485 H 40.0488 1.3117 -4.08035 0
M  V30 486 H 44.2328 0.77616 -4.90193 0
M  V30 487 H 39.4888 0.0491185 -6.1138 0
M  V30 488 H 43.6628 -0.479899 -6.94745 0
M  V30 489 H 41.2898 -0.849389 -7.5544 0
M  V30 490 N 42.8649 1.48995 0.513639 0
M  V30 491 C 43.7969 1.60836 1.63293 0
M  V30 492 C 44.8099 0.491701 1.55197 0
M  V30 493 O 45.9989 0.763238 1.6136 0
M  V30 494 C 43.0989 1.53731 3.02027 0
M  V30 495 C 42.2719 2.80715 3.35437 0
M  V30 496 C 41.3309 2.66837 4.53525 0
M  V30 497 O 40.3569 3.40753 4.55934 0
M  V30 498 N 41.5589 1.77539 5.52684 0
M  V30 499 H 44.3239 2.57366 1.53566 0
M  V30 500 H 41.8849 1.45925 0.701259 0
M  V30 501 H 43.8769 1.42118 3.78926 0
M  V30 502 H 42.4469 0.651092 3.05744 0
M  V30 503 H 41.6669 3.06772 2.47557 0
M  V30 504 H 42.9549 3.64927 3.54551 0
M  V30 505 H 42.3529 1.16719 5.53528 0
M  V30 506 H 40.9099 1.71856 6.28736 0
M  V30 507 N 44.343 -0.763751 1.37857 0
M  V30 508 C 45.568 -1.55805 1.36893 0
M  V30 509 C 45.993 -1.88054 -0.0416135 0
M  V30 510 O 45.351 -1.49825 -1.02089 0
M  V30 511 C 45.399 -2.84012 2.22192 0
M  V30 512 O 44.503 -3.78732 1.63204 0
M  V30 513 H 43.844 -0.471638 0.46739 0
M  V30 514 H 46.374 -0.944657 1.81487 0
M  V30 515 H 46.384 -3.33037 2.35691 0
M  V30 516 H 45.059 -2.59869 3.24716 0
M  V30 517 H 43.636 -3.37402 1.58791 0
M  V30 518 N 45.8211 -1.22559 -0.990812 0
M  V30 519 C 47.0461 -1.07862 -1.77145 0
M  V30 520 C 47.4711 0.366447 -1.84496 0
M  V30 521 O 46.8291 1.26478 -1.29896 0
M  V30 522 C 46.8771 -1.69686 -3.18181 0
M  V30 523 O 45.9811 -0.951946 -4.01263 0
M  V30 524 H 45.3221 -0.378712 -0.545411 0
M  V30 525 H 47.8521 -1.62399 -1.2445 0
M  V30 526 H 47.8621 -1.74496 -3.68802 0
M  V30 527 H 46.5371 -2.74841 -3.12146 0
M  V30 528 H 45.1141 -0.980011 -3.59792 0
M  V30 529 N 47.2992 1.18797 -1.03562 0
M  V30 530 C 48.2622 2.20464 -0.626769 0
M  V30 531 C 49.2622 1.57721 0.313173 0
M  V30 532 O 50.4522 1.73917 0.0992615 0
M  V30 533 C 47.5842 3.40802 0.0818498 0
M  V30 534 H 48.7772 2.58149 -1.5264 0
M  V30 535 H 46.3302 1.32593 -0.827578 0
M  V30 536 H 47.0652 3.08642 0.995518 0
M  V30 537 H 46.8502 3.8758 -0.593652 0
M  V30 538 H 48.3402 4.16092 0.354584 0
M  V30 539 N 48.7773 0.814389 1.34928 0
M  V30 540 C 49.7253 0.218424 2.31572 0
M  V30 541 C 50.7193 -0.636128 1.57002 0
M  V30 542 O 51.9253 -0.52842 1.72069 0
M  V30 543 H 48.3003 0.0518799 0.750208 0
M  V30 544 H 50.2713 1.04852 2.79372 0
M  V30 545 C 49.0203 -0.61207 3.4227 0
M  V30 546 H 48.3433 0.0361578 3.99784 0
M  V30 547 H 49.7833 -0.995317 4.12152 0
M  V30 548 C 48.2423 -1.78087 2.85984 0
M  V30 549 O 48.7723 -2.8787 2.80168 0
M  V30 550 N 46.9783 -1.59488 2.42924 0
M  V30 551 H 46.5253 -0.701874 2.47854 0
M  V30 552 H 46.4833 -2.37846 2.05613 0
M  V30 553 N 50.2554 -1.46986 0.568584 0
M  V30 554 C 51.4854 -2.0653 0.0539173 0
M  V30 555 C 51.8934 -1.42004 -1.25026 0
M  V30 556 O 51.2364 -0.514541 -1.76347 0
M  V30 557 C 51.2984 -3.58938 -0.200854 0
M  V30 558 C 50.9624 -4.45572 1.01559 0
M  V30 559 C 51.9594 -4.82986 1.92407 0
M  V30 560 C 49.6444 -4.8692 1.23346 0
M  V30 561 C 51.6384 -5.60559 3.03402 0
M  V30 562 C 49.3254 -5.64255 2.34649 0
M  V30 563 C 50.3234 -6.00986 3.24507 0
M  V30 564 O 50.0114 -6.76761 4.33878 0
M  V30 565 H 49.7434 -0.674292 0.0480234 0
M  V30 566 H 52.2974 -1.89812 0.784896 0
M  V30 567 H 50.5274 -3.73911 -0.986279 0
M  V30 568 H 52.2164 -4.0046 -0.662294 0
M  V30 569 H 52.9824 -4.51633 1.76785 0
M  V30 570 H 48.8614 -4.57789 0.543178 0
M  V30 571 H 52.4054 -5.89147 3.73565 0
M  V30 572 H 48.3024 -5.95021 2.5024 0
M  V30 573 H 49.0704 -6.95168 4.32068 0
M  V30 574 N 51.7335 -0.305618 -1.54608 0
M  V30 575 C 52.6965 0.555591 -2.22364 0
M  V30 576 C 53.6965 1.05768 -1.21119 0
M  V30 577 O 54.8865 0.952972 -1.45822 0
M  V30 578 C 52.0185 1.76974 -2.91364 0
M  V30 579 H 53.2115 -0.0364572 -2.99878 0
M  V30 580 H 50.7645 -0.0565007 -1.56198 0
M  V30 581 H 51.4995 2.40151 -2.17941 0
M  V30 582 H 51.2845 1.41732 -3.65588 0
M  V30 583 H 52.7745 2.38148 -3.43038 0
M  V30 584 N 53.2116 1.57565 -0.0334293 0
M  V30 585 C 54.1216 2.13943 0.962572 0
M  V30 586 C 55.1376 1.09276 1.35406 0
M  V30 587 O 56.3136 1.41355 1.4346 0
M  V30 588 C 53.3786 2.65887 2.22497 0
M  V30 589 C 52.4396 3.85286 1.8935 0
M  V30 590 C 51.6726 4.34743 3.09571 0
M  V30 591 O 51.8956 3.83352 4.22371 0
M  V30 592 O 50.8296 5.26538 2.91618 0
M  V30 593 H 54.6556 2.99333 0.513169 0
M  V30 594 H 52.2406 1.4822 0.18743 0
M  V30 595 H 54.1226 2.99346 2.96598 0
M  V30 596 H 52.7976 1.83578 2.6661 0
M  V30 597 H 51.7046 3.56746 1.1262 0
M  V30 598 H 53.0376 4.68771 1.5005 0
M  V30 599 N 54.6897 -0.239769 1.55765 0
M  V30 600 C 55.6377 -1.31668 1.91745 0
M  V30 601 C 56.6317 -1.49462 0.797338 0
M  V30 602 O 57.8377 -1.50852 0.982021 0
M  V30 603 H 54.2127 -0.441048 0.609082 0
M  V30 604 H 56.1837 -0.985923 2.81642 0
M  V30 605 C 54.9327 -2.66368 2.2348 0
M  V30 606 H 54.2557 -2.53478 3.09175 0
M  V30 607 H 55.6957 -3.40578 2.52553 0
M  V30 608 C 54.1547 -3.20002 1.05359 0
M  V30 609 O 54.6847 -4.00538 0.305261 0
M  V30 610 N 52.8907 -2.78126 0.842292 0
M  V30 611 H 52.4377 -2.12742 1.45253 0
M  V30 612 H 52.3957 -3.14354 0.053652 0
M  V30 613 N 56.1678 -1.49265 -0.50573 0
M  V30 614 C 57.4148 -1.58513 -1.26015 0
M  V30 615 C 57.7428 -0.26972 -1.92621 0
M  V30 616 O 56.9978 0.741997 -1.81088 0
M  V30 617 C 57.2968 -2.69008 -2.35308 0
M  V30 618 C 56.9628 -4.10662 -1.86192 0
M  V30 619 C 55.6248 -4.49212 -1.72516 0
M  V30 620 C 57.9768 -4.99336 -1.49375 0
M  V30 621 C 55.3048 -5.74214 -1.20394 0
M  V30 622 C 57.6568 -6.24852 -0.987072 0
M  V30 623 C 56.3208 -6.62236 -0.836669 0
M  V30 624 H 55.5908 -0.580041 -0.461122 0
M  V30 625 H 58.2378 -1.83078 -0.561665 0
M  V30 626 H 56.5428 -2.38396 -3.10926 0
M  V30 627 H 58.2398 -2.73373 -2.93374 0
M  V30 628 H 54.8298 -3.8023 -1.97795 0
M  V30 629 H 59.0138 -4.70212 -1.5879 0
M  V30 630 H 54.2698 -6.01883 -1.07458 0
M  V30 631 H 58.4438 -6.92944 -0.692983 0
M  V30 632 H 56.0708 -7.58979 -0.430607 0
M  V30 633 N 57.6459 0.756429 -1.3826 0
M  V30 634 C 58.8949 1.51082 -1.3363 0
M  V30 635 C 59.2079 1.95467 0.0720068 0
M  V30 636 O 60.4139 2.7043 0.240834 0
M  V30 637 C 58.8699 2.72893 -2.34644 0
M  V30 638 C 58.4779 2.35544 -3.81081 0
M  V30 639 C 60.2219 3.50791 -2.39052 0
M  V30 640 C 58.1289 3.53948 -4.73787 0
M  V30 641 H 57.0589 0.56727 -0.49671 0
M  V30 642 H 59.7099 0.827147 -1.638 0
M  V30 643 H 58.0919 3.43227 -1.97513 0
M  V30 644 H 59.2659 1.72894 -4.27135 0
M  V30 645 H 57.5809 1.70786 -3.79764 0
M  V30 646 H 60.1779 4.38823 -3.05513 0
M  V30 647 H 60.5209 3.91745 -1.40861 0
M  V30 648 H 61.0539 2.87467 -2.74968 0
M  V30 649 H 57.7929 3.18064 -5.73163 0
M  V30 650 H 57.3129 4.15651 -4.32428 0
M  V30 651 H 58.9919 4.20566 -4.91663 0
M  V30 652 N 59.124 1.23083 0.984299 0
M  V30 653 C 60.056 0.96636 2.07832 0
M  V30 654 C 61.069 -0.0582135 1.62696 0
M  V30 655 O 62.258 0.176843 1.77622 0
M  V30 656 C 59.358 0.433397 3.36117 0
M  V30 657 C 58.531 1.51722 4.10243 0
M  V30 658 C 57.59 0.989821 5.16807 0
M  V30 659 O 56.616 1.67794 5.43906 0
M  V30 660 N 57.818 -0.184367 5.80207 0
M  V30 661 H 60.583 1.90824 2.31098 0
M  V30 662 H 58.144 1.13888 1.1507 0
M  V30 663 H 60.136 0.065699 4.04647 0
M  V30 664 H 58.706 -0.413806 3.09849 0
M  V30 665 H 57.926 2.05786 3.36223 0
M  V30 666 H 59.214 2.24619 4.56534 0
M  V30 667 H 58.612 -0.760062 5.60571 0
M  V30 668 H 57.169 -0.493366 6.4993 0
M  V30 669 N 60.6021 -1.18246 1.0419 0
M  V30 670 C 61.8271 -1.92736 0.765996 0
M  V30 671 C 62.2521 -1.75728 -0.67091 0
M  V30 672 O 61.6101 -1.06825 -1.46486 0
M  V30 673 C 61.6581 -3.42148 1.13875 0
M  V30 674 O 60.7621 -4.11548 0.264954 0
M  V30 675 H 60.1031 -0.601238 0.281797 0
M  V30 676 H 62.6331 -1.49942 1.39207 0
M  V30 677 H 62.6431 -3.92858 1.1012 0
M  V30 678 H 61.3181 -3.53848 2.18551 0
M  V30 679 H 59.8951 -3.71137 0.362226 0
M  V30 680 N 62.0802 -0.821533 -1.34494 0
M  V30 681 C 63.3292 -0.405355 -1.97585 0
M  V30 682 C 63.6422 1.03677 -1.65863 0
M  V30 683 O 64.8482 1.55679 -2.22433 0
M  V30 684 C 63.3042 -0.673861 -3.53535 0
M  V30 685 C 62.9122 -2.12951 -3.94152 0
M  V30 686 C 64.6562 -0.32378 -4.23263 0
M  V30 687 C 62.5632 -2.34298 -5.43009 0
M  V30 688 H 61.4932 -0.147836 -0.739365 0
M  V30 689 H 64.1442 -1.00769 -1.53355 0
M  V30 690 H 62.5262 -0.00137554 -3.96 0
M  V30 691 H 63.7002 -2.84104 -3.62797 0
M  V30 692 H 62.0152 -2.44089 -3.37356 0
M  V30 693 H 64.6122 -0.461126 -5.32708 0
M  V30 694 H 64.9552 0.731586 -4.09821 0
M  V30 695 H 65.4882 -0.950786 -3.8627 0
M  V30 696 H 62.2272 -3.38335 -5.61435 0
M  V30 697 H 61.7472 -1.67687 -5.75883 0
M  V30 698 H 63.4262 -2.16588 -6.09671 0
M  V30 699 N 63.5583 1.46682 -0.576371 0
M  V30 700 C 64.8073 2.01619 -0.0572825 0
M  V30 701 C 65.1203 1.45417 1.30818 0
M  V30 702 O 66.3263 1.92133 1.91825 0
M  V30 703 C 64.7823 3.59863 -0.0518371 0
M  V30 704 C 64.3903 4.25059 -1.41523 0
M  V30 705 C 66.1343 4.2248 0.413639 0
M  V30 706 C 64.0413 5.75364 -1.36785 0
M  V30 707 H 62.9713 0.753794 -0.0176448 0
M  V30 708 H 65.6223 1.68481 -0.727076 0
M  V30 709 H 64.0043 3.90048 0.683994 0
M  V30 710 H 65.1783 4.06491 -2.17029 0
M  V30 711 H 63.4933 3.7451 -1.8202 0
M  V30 712 H 66.0903 5.3265 0.467779 0
M  V30 713 H 66.4333 3.90976 1.42982 0
M  V30 714 H 66.9663 3.96897 -0.267929 0
M  V30 715 H 63.7053 6.11518 -2.36063 0
M  V30 716 H 63.2253 5.96214 -0.654895 0
M  V30 717 H 64.9043 6.37955 -1.07805 0
M  V30 718 N 65.0364 0.313813 1.54444 0
M  V30 719 C 66.2614 -0.296681 2.05267 0
M  V30 720 C 66.6864 -1.45757 1.18897 0
M  V30 721 O 66.0444 -1.80239 0.195886 0
M  V30 722 C 66.0924 -0.71831 3.53373 0
M  V30 723 O 65.1964 -1.82175 3.69981 0
M  V30 724 H 64.5374 -0.0554061 0.661684 0
M  V30 725 H 67.0674 0.459387 1.99376 0
M  V30 726 H 67.0774 -1.00364 3.95463 0
M  V30 727 H 65.7524 0.130821 4.15694 0
M  V30 728 H 64.3294 -1.53598 3.39797 0
M  V30 729 N 66.5145 -1.57545 0.0417849 0
M  V30 730 C 67.7425 -1.96624 -0.643928 0
M  V30 731 C 68.1575 -0.918897 -1.64929 0
M  V30 732 O 67.5145 0.0979323 -1.82237 0
M  V30 733 C 67.5655 -3.35781 -1.33914 0
M  V30 734 O 67.2865 -4.365 -0.374048 0
M  V30 735 C 68.7875 -3.89566 -2.1155 0
M  V30 736 H 66.0075 -0.647316 -0.176702 0
M  V30 737 H 68.5515 -2.04229 0.105304 0
M  V30 738 H 66.7065 -3.29357 -2.03968 0
M  V30 739 H 67.1205 -5.17248 -0.869179 0
M  V30 740 H 68.5945 -4.89242 -2.55628 0
M  V30 741 H 69.0715 -3.24488 -2.9598 0
M  V30 742 H 69.6775 -3.99298 -1.46427 0
M  V30 743 N 67.9926 0.231505 -1.5589 0
M  V30 744 C 69.2386 0.95877 -1.78705 0
M  V30 745 C 69.5716 1.8438 -0.609725 0
M  V30 746 O 68.8466 1.90521 0.391426 0
M  V30 747 C 69.1296 1.8062 -3.11526 0
M  V30 748 C 68.9826 0.948328 -4.39689 0
M  V30 749 C 70.3016 2.78585 -3.40703 0
M  V30 750 H 67.4206 0.347129 -0.650131 0
M  V30 751 H 70.0626 0.228259 -1.88624 0
M  V30 752 H 68.2126 2.42902 -3.03201 0
M  V30 753 H 69.8846 0.343016 -4.60023 0
M  V30 754 H 68.1276 0.253314 -4.3306 0
M  V30 755 H 68.7986 1.57543 -5.29041 0
M  V30 756 H 71.2746 2.26439 -3.49091 0
M  V30 757 H 70.1506 3.34988 -4.34826 0
M  V30 758 H 70.4116 3.55825 -2.62375 0
M  V30 759 N 69.4707 1.49531 0.497807 0
M  V30 760 C 70.3807 1.69176 1.62532 0
M  V30 761 C 71.3967 0.5744 1.64246 0
M  V30 762 O 72.5727 0.849497 1.82608 0
M  V30 763 C 69.6377 1.75695 2.98885 0
M  V30 764 C 68.6987 2.9929 3.07773 0
M  V30 765 C 67.9317 3.05488 4.37622 0
M  V30 766 O 68.1547 2.19192 5.26603 0
M  V30 767 O 67.0887 3.9798 4.51548 0
M  V30 768 H 70.9147 2.647 1.48887 0
M  V30 769 H 68.4997 1.3331 0.674441 0
M  V30 770 H 70.3817 1.82317 3.79919 0
M  V30 771 H 69.0567 0.8335 3.12785 0
M  V30 772 H 67.9637 2.98183 2.25915 0
M  V30 773 H 69.2967 3.91125 2.98801 0
M  V30 774 N 70.9488 -0.749086 1.3866 0
M  V30 775 C 72.3598 -1.32664 1.31366 0
M  V30 776 C 72.7108 -1.96179 -0.028484 0
M  V30 777 O 71.8358 -1.9537 -0.93057 0
M  V30 778 C 72.4308 -2.41219 2.37905 0
M  V30 779 C 70.9898 -2.94684 2.34176 0
M  V30 780 C 70.1368 -1.68108 2.20533 0
M  V30 781 H 73.0878 -0.547628 1.48952 0
M  V30 782 H 73.1088 -3.21268 2.0388 0
M  V30 783 H 72.6208 -1.94962 3.35576 0
M  V30 784 H 70.7218 -3.45258 1.401 0
M  V30 785 H 70.8348 -3.48757 3.2849 0
M  V30 786 H 69.1988 -1.91907 1.67463 0
M  V30 787 H 69.9818 -1.23923 3.20153 0
M  V30 788 N 72.4269 -1.23603 -0.977757 0
M  V30 789 C 73.3899 -1.02069 -2.05218 0
M  V30 790 C 74.3899 0.0184305 -1.60789 0
M  V30 791 O 75.5799 -0.221569 -1.72785 0
M  V30 792 C 72.7119 -0.544926 -3.36517 0
M  V30 793 H 73.9049 -1.9742 -2.25755 0
M  V30 794 H 71.4579 -1.05684 -1.15155 0
M  V30 795 H 72.1929 0.412241 -3.21669 0
M  V30 796 H 71.9779 -1.2948 -3.70105 0
M  V30 797 H 73.4679 -0.414985 -4.15533 0
M  V30 798 N 73.905 1.17692 -1.04816 0
M  V30 799 C 74.837 2.21103 -0.603822 0
M  V30 800 C 75.85 1.59411 0.33046 0
M  V30 801 O 77.039 1.7807 0.12379 0
M  V30 802 C 74.139 3.38623 0.136898 0
M  V30 803 C 73.312 4.29888 -0.807137 0
M  V30 804 C 72.371 5.26088 -0.10836 0
M  V30 805 O 71.397 5.64353 -0.741232 0
M  V30 806 N 72.599 5.68882 1.15558 0
M  V30 807 H 75.364 2.59848 -1.49329 0
M  V30 808 H 72.925 1.32553 -0.929587 0
M  V30 809 H 74.917 4.00009 0.614401 0
M  V30 810 H 73.487 2.98508 0.927993 0
M  V30 811 H 72.707 3.65993 -1.46434 0
M  V30 812 H 73.995 4.87759 -1.44807 0
M  V30 813 H 73.393 5.39861 1.69015 0
M  V30 814 H 71.95 6.32429 1.57722 0
M  V30 815 N 75.3831 0.828654 1.34056 0
M  V30 816 C 76.7991 0.515135 1.51058 0
M  V30 817 C 76.9991 -0.959581 1.77184 0
M  V30 818 O 76.0551 -1.74382 1.82612 0
M  V30 819 C 77.3681 1.37963 2.67183 0
M  V30 820 C 78.9161 1.37735 2.81066 0
M  V30 821 C 79.3911 2.22645 4.00241 0
M  V30 822 N 80.8821 2.203 4.07458 0
M  V30 823 C 81.6171 2.82744 4.98842 0
M  V30 824 N 81.1131 3.54201 5.9541 0
M  V30 825 N 82.9061 2.72268 4.91759 0
M  V30 826 H 75.0571 1.78343 1.15358 0
M  V30 827 H 77.3201 0.760304 0.566252 0
M  V30 828 H 77.0261 2.42714 2.54525 0
M  V30 829 H 76.9001 1.0484 3.62338 0
M  V30 830 H 79.2871 0.337593 2.93163 0
M  V30 831 H 79.3681 1.74859 1.86703 0
M  V30 832 H 79.0121 3.26674 3.88905 0
M  V30 833 H 78.9421 1.82869 4.93829 0
M  V30 834 H 81.4331 1.68327 3.38341 0
M  V30 835 H 81.7461 3.9908 6.61782 0
M  V30 836 H 80.0911 3.58308 5.95517 0
M  V30 837 H 83.2821 2.16014 4.15278 0
M  V30 838 H 83.4551 3.21219 5.62781 0
M  V30 839 N 76.8612 -1.46375 0.584142 0
M  V30 840 C 77.7932 -2.28443 -0.186119 0
M  V30 841 C 78.8062 -1.38596 -0.854115 0
M  V30 842 O 79.9952 -1.63183 -0.723438 0
M  V30 843 C 77.0952 -3.13671 -1.28311 0
M  V30 844 C 76.2682 -4.31652 -0.706758 0
M  V30 845 C 75.3272 -4.98267 -1.69163 0
M  V30 846 O 74.3532 -5.55815 -1.22712 0
M  V30 847 N 75.5552 -4.95408 -3.02575 0
M  V30 848 H 78.3202 -2.9519 0.517986 0
M  V30 849 H 75.8812 -1.56303 0.42201 0
M  V30 850 H 77.8732 -3.55101 -1.94128 0
M  V30 851 H 76.4432 -2.48989 -1.89005 0
M  V30 852 H 75.6632 -3.93989 0.128908 0
M  V30 853 H 76.9512 -5.07906 -0.301506 0
M  V30 854 H 76.3492 -4.49902 -3.42936 0
M  V30 855 H 74.9062 -5.40774 -3.63877 0
M  V30 856 N 78.3393 -0.321999 -1.54275 0
M  V30 857 C 79.2493 0.553631 -2.27974 0
M  V30 858 C 80.2653 1.13054 -1.32268 0
M  V30 859 O 81.4413 1.15084 -1.6528 0
M  V30 860 C 78.5063 1.69927 -3.02201 0
M  V30 861 C 77.5673 1.15433 -4.1349 0
M  V30 862 C 76.8003 2.24537 -4.84168 0
M  V30 863 O 77.0233 3.44852 -4.5435 0
M  V30 864 O 75.9573 1.90044 -5.7111 0
M  V30 865 H 79.7833 -0.0448345 -3.03667 0
M  V30 866 H 77.3683 -0.0877418 -1.49142 0
M  V30 867 H 79.2503 2.3663 -3.48689 0
M  V30 868 H 77.9253 2.28395 -2.29385 0
M  V30 869 H 76.8323 0.452436 -3.71354 0
M  V30 870 H 78.1653 0.614805 -4.88345 0
M  V30 871 N 79.8174 1.5752 -0.0501392 0
M  V30 872 C 80.7804 2.1037 0.909786 0
M  V30 873 C 81.7804 1.02308 1.24056 0
M  V30 874 O 82.9704 1.28385 1.17741 0
M  V30 875 C 80.1024 2.58708 2.21998 0
M  V30 876 H 81.2954 2.96479 0.451665 0
M  V30 877 H 78.8484 1.55038 0.198248 0
M  V30 878 H 79.5834 1.75989 2.72394 0
M  V30 879 H 79.3684 3.37675 1.99295 0
M  V30 880 H 80.8584 2.99747 2.9076 0
M  V30 881 N 81.2955 -0.223234 1.56011 0
M  V30 882 C 82.5235 -0.964812 1.83027 0
M  V30 883 C 82.9385 -1.78013 0.62904 0
M  V30 884 O 82.2955 -1.78008 -0.402414 0
M  V30 885 C 82.3465 -1.88373 3.08542 0
M  V30 886 O 82.0675 -1.10137 4.2403 0
M  V30 887 C 83.5685 -2.73934 3.48533 0
M  V30 888 H 80.7885 -0.282842 0.608475 0
M  V30 889 H 83.3325 -0.238971 2.03099 0
M  V30 890 H 81.4875 -2.56354 2.9045 0
M  V30 891 H 81.9015 -1.72501 4.95322 0
M  V30 892 H 83.3755 -3.34117 4.39397 0
M  V30 893 H 83.8525 -3.46244 2.70207 0
M  V30 894 H 84.4585 -2.11369 3.69057 0
M  V30 895 N 82.7736 -1.49793 -0.48987 0
M  V30 896 C 83.7036 -1.70201 -1.59856 0
M  V30 897 C 84.6846 -0.55076 -1.60937 0
M  V30 898 O 85.8696 -0.787841 -1.77501 0
M  V30 899 C 82.9996 -1.77882 -2.98287 0
M  V30 900 C 81.9536 -2.92907 -3.12073 0
M  V30 901 C 81.2796 -2.85712 -4.51965 0
M  V30 902 C 82.5796 -4.3369 -2.91051 0
M  V30 903 H 84.2736 -2.63025 -1.43032 0
M  V30 904 H 81.8196 -1.26574 -0.686664 0
M  V30 905 H 83.7726 -1.90744 -3.75759 0
M  V30 906 H 82.4966 -0.816653 -3.16225 0
M  V30 907 H 81.1556 -2.79665 -2.37029 0
M  V30 908 H 80.8036 -1.8738 -4.66795 0
M  V30 909 H 80.5036 -3.62921 -4.62128 0
M  V30 910 H 82.0276 -3.00598 -5.31482 0
M  V30 911 H 83.4416 -4.47555 -3.58284 0
M  V30 912 H 81.8386 -5.12205 -3.12675 0
M  V30 913 H 82.9086 -4.47362 -1.87071 0
M  V30 914 N 84.2517 0.741722 -1.39055 0
M  V30 915 C 85.4977 1.50336 -1.36113 0
M  V30 916 C 85.8307 1.94148 0.0450796 0
M  V30 917 O 85.1057 1.66301 1.00868 0
M  V30 918 C 85.3887 2.74773 -2.32749 0
M  V30 919 C 85.2417 2.37023 -3.82283 0
M  V30 920 C 86.5607 3.76846 -2.27322 0
M  V30 921 H 83.6797 0.545351 -0.495743 0
M  V30 922 H 86.3217 0.848624 -1.69995 0
M  V30 923 H 84.4717 3.30639 -2.03986 0
M  V30 924 H 86.1437 1.8684 -4.21768 0
M  V30 925 H 84.3867 1.69334 -3.99385 0
M  V30 926 H 85.0577 3.26104 -4.45376 0
M  V30 927 H 87.5337 3.30548 -2.5274 0
M  V30 928 H 86.4097 4.6159 -2.97028 0
M  V30 929 H 86.6707 4.23286 -1.27599 0
M  V30 930 N 85.7298 1.2412 0.971189 0
M  V30 931 C 86.9758 1.08041 1.71625 0
M  V30 932 C 87.3088 -0.380407 1.90438 0
M  V30 933 O 86.5838 -1.28127 1.46334 0
M  V30 934 C 86.8668 1.81682 3.10908 0
M  V30 935 C 86.7198 3.35493 2.99608 0
M  V30 936 C 88.0388 1.58671 4.10501 0
M  V30 937 H 85.1578 0.39388 0.622919 0
M  V30 938 H 87.7998 1.52743 1.13003 0
M  V30 939 H 85.9498 1.43684 3.60953 0
M  V30 940 H 87.6218 3.83068 2.57015 0
M  V30 941 H 85.8648 3.64052 2.35899 0
M  V30 942 H 86.5358 3.82217 3.98264 0
M  V30 943 H 89.0118 1.91719 3.69301 0
M  V30 944 H 87.8878 2.1266 5.06031 0
M  V30 945 H 88.1488 0.524161 4.38982 0
M  V30 946 N 87.2079 -1.17134 1.05439 0
M  V30 947 C 88.4559 -1.87085 0.764429 0
M  V30 948 C 88.7769 -1.81584 -0.710787 0
M  V30 949 O 88.0469 -1.24349 -1.51374 0
M  V30 950 H 86.6269 -0.692627 0.279779 0
M  V30 951 H 89.2889 -1.42087 1.33406 0
M  V30 952 H 88.3849 -2.92759 1.0816 0
M  V30 953 N 88.686 -0.835752 -1.33615 0
M  V30 954 C 89.934 -0.429109 -1.97492 0
M  V30 955 C 90.255 1.01433 -1.66543 0
M  V30 956 O 89.525 1.70611 -0.962744 0
M  V30 957 H 88.105 -0.155686 -0.730596 0
M  V30 958 H 90.767 -1.06802 -1.63031 0
M  V30 959 H 89.863 -0.55861 -3.0706 0
M  V30 960 N 90.1641 1.46063 -0.591896 0
M  V30 961 C 91.4411 1.95595 -0.0137119 0
M  V30 962 C 91.8211 1.5345 1.4497 0
M  V30 963 O 91.1691 0.789543 2.14426 0
M  V30 964 C 91.3791 3.48453 -0.195373 0
M  V30 965 C 92.7271 4.24546 -0.0679765 0
M  V30 966 O 93.7511 3.55982 -0.124681 0
M  V30 967 O 92.6101 5.46467 0.0600579 0
M  V30 968 H 89.7041 0.825795 0.0446279 0
M  V30 969 H 92.2501 1.56303 -0.660859 0
M  V30 970 H 91.0221 3.72045 -1.21235 0
M  V30 971 H 90.6451 3.94597 0.487775 0
M  V30 972 N 91.6422 0.330177 1.54103 0
M  V30 973 C 92.8902 -0.269871 2.0029 0
M  V30 974 C 93.2112 -1.52133 1.21986 0
M  V30 975 O 92.4812 -1.93212 0.323438 0
M  V30 976 H 91.0612 -0.10271 0.739905 0
M  V30 977 H 93.7232 0.448249 1.89675 0
M  V30 978 H 92.8192 -0.52166 3.07709 0
M  V30 979 N 93.1203 -1.57491 0.0584922 0
M  V30 980 C 94.5363 -1.56792 -0.298091 0
M  V30 981 C 94.7363 -1.06679 -1.70944 0
M  V30 982 O 93.7923 -0.726672 -2.41818 0
M  V30 983 C 95.1053 -3.00461 -0.119879 0
M  V30 984 C 96.6533 -3.1242 -0.190428 0
M  V30 985 C 97.1283 -4.57982 -0.0406567 0
M  V30 986 N 98.6193 -4.63099 -0.0966958 0
M  V30 987 C 99.3543 -5.734 -0.00502943 0
M  V30 988 N 98.8503 -6.9266 0.139402 0
M  V30 989 N 100.643 -5.62067 -0.0611391 0
M  V30 990 H 92.7943 -1.88386 0.98105 0
M  V30 991 H 95.0573 -0.867865 0.381463 0
M  V30 992 H 94.7633 -3.41187 0.85349 0
M  V30 993 H 94.6373 -3.66843 -0.877833 0
M  V30 994 H 97.0243 -2.71589 -1.15427 0
M  V30 995 H 97.1053 -2.48702 0.598405 0
M  V30 996 H 96.7493 -4.995 0.919897 0
M  V30 997 H 96.6793 -5.19715 -0.848727 0
M  V30 998 H 99.1703 -3.77331 -0.207277 0
M  V30 999 H 99.4833 -7.72536 0.201855 0
M  V30 1000 H 97.8283 -6.94781 0.174586 0
M  V30 1001 H 101.019 -4.67782 -0.172583 0
M  V30 1002 H 101.192 -6.47999 0.0137562 0
M  V30 1003 N 94.5984 0.214957 -1.56127 0
M  V30 1004 C 95.8454 0.938372 -1.79446 0
M  V30 1005 C 96.1734 1.8407 -0.628378 0
M  V30 1006 O 95.4284 1.91837 0.386925 0
M  V30 1007 C 95.7274 1.80314 -3.0858 0
M  V30 1008 C 95.3934 1.05349 -4.3842 0
M  V30 1009 C 94.0554 0.846435 -4.73697 0
M  V30 1010 C 96.4074 0.524588 -5.18553 0
M  V30 1011 C 93.7354 0.098683 -5.86617 0
M  V30 1012 C 96.0874 -0.209853 -6.32252 0
M  V30 1013 C 94.7514 -0.428102 -6.66126 0
M  V30 1014 H 94.0214 0.343375 -0.656639 0
M  V30 1015 H 96.6684 0.206077 -1.90388 0
M  V30 1016 H 94.9734 2.6035 -2.92789 0
M  V30 1017 H 96.6704 2.36513 -3.23825 0
M  V30 1018 H 93.2604 1.22486 -4.10725 0
M  V30 1019 H 97.4444 0.672008 -4.91729 0
M  V30 1020 H 92.7004 -0.0805753 -6.11347 0
M  V30 1021 H 96.8744 -0.627157 -6.9357 0
M  V30 1022 H 94.5014 -1.00944 -7.53468 0
M  V30 1023 N 96.0765 1.50051 0.48192 0
M  V30 1024 C 97.3065 1.63999 1.2565 0
M  V30 1025 C 97.7145 0.318288 1.86504 0
M  V30 1026 O 97.0575 -0.708534 1.69486 0
M  V30 1027 C 97.1195 2.66504 2.4128 0
M  V30 1028 C 96.7835 4.10352 2.01148 0
M  V30 1029 C 97.7805 4.96562 1.54021 0
M  V30 1030 C 95.4655 4.56203 2.10199 0
M  V30 1031 C 97.4595 6.26668 1.16473 0
M  V30 1032 C 95.1465 5.86318 1.72264 0
M  V30 1033 C 96.1445 6.71375 1.25477 0
M  V30 1034 O 95.8325 7.99062 0.880626 0
M  V30 1035 H 95.5645 0.55456 0.386574 0
M  V30 1036 H 98.1185 1.96954 0.582944 0
M  V30 1037 H 96.3485 2.28769 3.11772 0
M  V30 1038 H 98.0375 2.69783 3.03268 0
M  V30 1039 H 98.8035 4.62358 1.46458 0
M  V30 1040 H 94.6825 3.90152 2.45566 0
M  V30 1041 H 98.2265 6.93011 0.798841 0
M  V30 1042 H 94.1235 6.20046 1.79482 0
M  V30 1043 H 94.8915 8.12239 1.01043 0
M  V30 1044 N 97.5546 -0.734337 1.39446 0
M  V30 1045 C 98.4876 -1.85715 1.32609 0
M  V30 1046 C 99.4656 -1.6137 0.199636 0
M  V30 1047 O 100.65 -1.84626 0.380195 0
M  V30 1048 C 97.7766 -3.21709 1.05929 0
M  V30 1049 C 96.8226 -3.64913 2.20773 0
M  V30 1050 S 97.6556 -3.74203 3.83056 0
M  V30 1051 C 98.8116 -5.12986 3.58603 0
M  V30 1052 H 99.0446 -1.91232 2.27635 0
M  V30 1053 H 96.5776 -0.899263 1.25509 0
M  V30 1054 H 98.5356 -4.00236 0.912203 0
M  V30 1055 H 97.1966 -3.13848 0.125883 0
M  V30 1056 H 96.3896 -4.63606 1.97699 0
M  V30 1057 H 95.9916 -2.93593 2.31688 0
M  V30 1058 H 98.2836 -5.99339 3.15909 0
M  V30 1059 H 99.2266 -5.41088 4.5676 0
M  V30 1060 H 99.6346 -4.82694 2.9269 0
M  V30 1061 N 99.0327 -1.24633 -0.964593 0
M  V30 1062 C 99.9797 -1.04144 -2.05968 0
M  V30 1063 C 100.95 0.046262 -1.66036 0
M  V30 1064 O 102.135 -0.108972 -1.90489 0
M  V30 1065 C 99.2747 -0.65563 -3.38815 0
M  V30 1066 C 98.3877 -1.81714 -3.91923 0
M  V30 1067 C 97.5227 -1.37662 -5.13052 0
M  V30 1068 C 96.5617 -2.50788 -5.58365 0
M  V30 1069 N 95.6987 -2.07582 -6.70712 0
M  V30 1070 H 100.539 -1.9787 -2.22827 0
M  V30 1071 H 98.0757 -0.9855 -1.09208 0
M  V30 1072 H 100.034 -0.412954 -4.15151 0
M  V30 1073 H 98.6637 0.244627 -3.21872 0
M  V30 1074 H 97.7157 -2.1734 -3.12198 0
M  V30 1075 H 99.0277 -2.66705 -4.21509 0
M  V30 1076 H 98.1817 -1.093 -5.96773 0
M  V30 1077 H 96.9207 -0.497293 -4.85158 0
M  V30 1078 H 95.9257 -2.79906 -4.73215 0
M  V30 1079 H 97.1507 -3.39283 -5.88272 0
M  V30 1080 H 95.0967 -1.22051 -6.44546 0
M  V30 1081 H 95.0137 -2.86125 -6.99763 0
M  V30 1082 H 96.2817 -1.82369 -7.57867 0
M  V30 1083 N 100.511 1.16574 -1.06058 0
M  V30 1084 C 101.421 2.2452 -0.680282 0
M  V30 1085 C 102.437 1.71348 0.302604 0
M  V30 1086 O 103.613 2.00822 0.152513 0
M  V30 1087 C 100.678 3.46629 -0.0700315 0
M  V30 1088 C 99.7388 4.14849 -1.10448 0
M  V30 1089 C 98.9718 5.31129 -0.523256 0
M  V30 1090 O 99.1948 5.66514 0.664709 0
M  V30 1091 O 98.1288 5.88526 -1.26179 0
M  V30 1092 H 101.955 2.59355 -1.58015 0
M  V30 1093 H 99.5398 1.24043 -0.832694 0
M  V30 1094 H 101.422 4.20543 0.268667 0
M  V30 1095 H 100.097 3.13573 0.803353 0
M  V30 1096 H 99.0038 3.42916 -1.49532 0
M  V30 1097 H 100.337 4.51954 -1.94931 0
M  V30 1098 N 101.989 0.842826 1.3317 0
M  V30 1099 C 102.952 0.284065 2.27433 0
M  V30 1100 C 103.952 -0.54948 1.5112 0
M  V30 1101 O 105.142 -0.362699 1.70382 0
M  V30 1102 C 102.274 -0.599384 3.35589 0
M  V30 1103 H 103.467 1.11589 2.78366 0
M  V30 1104 H 101.02 0.616221 1.4364 0
M  V30 1105 H 101.755 -1.45349 2.89904 0
M  V30 1106 H 101.54 -0.00291266 3.921 0
M  V30 1107 H 103.03 -0.983488 4.05854 0
M  V30 1108 N 103.467 -1.45747 0.599634 0
M  V30 1109 C 104.716 -2.01502 0.0893511 0
M  V30 1110 C 105.029 -1.4748 -1.28488 0
M  V30 1111 O 106.235 -1.95161 -1.88745 0
M  V30 1112 C 104.691 -3.59735 0.109082 0
M  V30 1113 C 104.299 -4.22754 1.48267 0
M  V30 1114 C 106.043 -4.23085 -0.346374 0
M  V30 1115 C 103.95 -5.73115 1.45921 0
M  V30 1116 H 102.88 -0.753417 0.0296347 0
M  V30 1117 H 105.531 -1.67303 0.753788 0
M  V30 1118 H 103.913 -3.91087 -0.621854 0
M  V30 1119 H 105.087 -4.02987 2.23468 0
M  V30 1120 H 103.402 -3.71567 1.87955 0
M  V30 1121 H 105.999 -5.33327 -0.38298 0
M  V30 1122 H 106.342 -3.93201 -1.36743 0
M  V30 1123 H 106.875 -3.9642 0.331038 0
M  V30 1124 H 103.614 -6.07685 2.45762 0
M  V30 1125 H 103.134 -5.95097 0.749665 0
M  V30 1126 H 104.813 -6.3616 1.17941 0
M  V30 1127 N 104.945 -0.338344 -1.53925 0
M  V30 1128 C 105.877 0.555117 -2.22376 0
M  V30 1129 C 106.89 1.06812 -1.22862 0
M  V30 1130 O 108.079 0.979163 -1.49247 0
M  V30 1131 C 105.179 1.77609 -2.88631 0
M  V30 1132 C 104.352 1.39927 -4.14414 0
M  V30 1133 C 103.411 2.47936 -4.64127 0
M  V30 1134 O 102.437 2.11461 -5.28463 0
M  V30 1135 N 103.639 3.79107 -4.39612 0
M  V30 1136 H 106.404 -0.0310778 -2.99684 0
M  V30 1137 H 103.965 -0.162226 -1.61085 0
M  V30 1138 H 105.957 2.49287 -3.18807 0
M  V30 1139 H 104.527 2.26978 -2.14941 0
M  V30 1140 H 103.747 0.513481 -3.90841 0
M  V30 1141 H 105.035 1.12341 -4.96243 0
M  V30 1142 H 104.433 4.11531 -3.88148 0
M  V30 1143 H 102.99 4.4697 -4.74406 0
M  V30 1144 N 106.423 1.57458 -0.0668435 0
M  V30 1145 C 107.353 2.15468 0.899764 0
M  V30 1146 C 108.334 1.08042 1.31381 0
M  V30 1147 O 109.519 1.36054 1.38574 0
M  V30 1148 C 106.649 2.71232 2.16911 0
M  V30 1149 C 105.603 3.83781 1.89463 0
M  V30 1150 C 104.929 4.26127 3.22986 0
M  V30 1151 C 106.229 5.08238 1.20381 0
M  V30 1152 H 107.923 2.96488 0.416529 0
M  V30 1153 H 105.469 1.4262 0.198908 0
M  V30 1154 H 107.422 3.10458 2.84945 0
M  V30 1155 H 106.146 1.87426 2.67468 0
M  V30 1156 H 104.805 3.45051 1.23836 0
M  V30 1157 H 104.453 3.39249 3.71374 0
M  V30 1158 H 104.153 5.01993 3.05413 0
M  V30 1159 H 105.677 4.67966 3.92225 0
M  V30 1160 H 107.091 5.44811 1.78475 0
M  V30 1161 H 105.488 5.89349 1.13083 0
M  V30 1162 H 106.558 4.84558 0.182153 0
M  V30 1163 N 107.901 -0.206675 1.56239 0
M  V30 1164 C 109.15 -0.926964 1.79138 0
M  V30 1165 C 109.463 -1.84901 0.638043 0
M  V30 1166 O 110.669 -2.60906 0.751033 0
M  V30 1167 C 109.125 -1.6986 3.17294 0
M  V30 1168 C 108.733 -0.821956 4.40395 0
M  V30 1169 C 110.477 -2.40922 3.4951 0
M  V30 1170 C 108.384 -1.59179 5.69575 0
M  V30 1171 H 107.314 -0.349864 0.667915 0
M  V30 1172 H 109.965 -0.180487 1.8261 0
M  V30 1173 H 108.347 -2.48853 3.08039 0
M  V30 1174 H 109.521 -0.0715019 4.60745 0
M  V30 1175 H 107.836 -0.222741 4.15804 0
M  V30 1176 H 110.433 -2.99047 4.43255 0
M  V30 1177 H 110.776 -3.14542 2.72707 0
M  V30 1178 H 111.309 -1.68905 3.60161 0
M  V30 1179 H 108.048 -0.898589 6.49312 0
M  V30 1180 H 107.568 -2.31648 5.53262 0
M  V30 1181 H 109.247 -2.14862 6.10281 0
M  V30 1182 N 109.379 -1.50304 -0.473955 0
M  V30 1183 C 110.342 -1.6841 -1.55469 0
M  V30 1184 C 111.342 -0.554905 -1.50922 0
M  V30 1185 O 112.532 -0.821882 -1.53593 0
M  V30 1186 C 109.664 -1.70667 -2.95102 0
M  V30 1187 H 110.857 -2.64828 -1.40733 0
M  V30 1188 H 108.41 -1.39742 -0.700132 0
M  V30 1189 H 109.145 -0.75932 -3.15285 0
M  V30 1190 H 108.93 -2.52698 -2.9981 0
M  V30 1191 H 110.42 -1.8664 -3.73571 0
M  V30 1192 N 110.857 0.726932 -1.39834 0
M  V30 1193 C 112.273 1.03354 -1.21615 0
M  V30 1194 C 112.473 2.01327 -0.08338 0
M  V30 1195 O 111.529 2.46158 0.56238 0
M  V30 1196 C 112.842 1.58811 -2.55342 0
M  V30 1197 C 114.39 1.70851 -2.62257 0
M  V30 1198 C 114.865 2.29716 -3.96225 0
M  V30 1199 N 116.356 2.37116 -3.97907 0
M  V30 1200 C 117.091 2.83619 -4.98345 0
M  V30 1201 N 116.587 3.29958 -6.09179 0
M  V30 1202 N 118.38 2.82901 -4.8572 0
M  V30 1203 H 110.531 0.0773069 -2.12259 0
M  V30 1204 H 112.794 0.0969102 -0.943034 0
M  V30 1205 H 112.5 0.942855 -3.38826 0
M  V30 1206 H 112.374 2.57502 -2.75632 0
M  V30 1207 H 114.761 2.34497 -1.79152 0
M  V30 1208 H 114.842 0.707913 -2.45809 0
M  V30 1209 H 114.486 1.66696 -4.79765 0
M  V30 1210 H 114.416 3.30469 -4.09997 0
M  V30 1211 H 116.907 2.04374 -3.17868 0
M  V30 1212 H 117.22 3.63976 -6.8172 0
M  V30 1213 H 115.565 3.27946 -6.12761 0
M  V30 1214 H 118.756 2.46027 -3.98231 0
M  V30 1215 H 118.929 3.18827 -5.6414 0
M  V30 1216 N 112.336 1.25143 0.95797 0
M  V30 1217 C 113.585 1.0909 1.69654 0
M  V30 1218 C 113.898 -0.368548 1.92097 0
M  V30 1219 O 115.104 -0.649455 2.63618 0
M  V30 1220 C 113.56 1.90395 3.05414 0
M  V30 1221 C 113.168 3.4081 2.90779 0
M  V30 1222 C 114.912 1.82901 3.83076 0
M  V30 1223 C 112.819 4.14423 4.21909 0
M  V30 1224 H 111.749 0.404625 0.636235 0
M  V30 1225 H 114.4 1.4931 1.06672 0
M  V30 1226 H 112.782 1.42996 3.69281 0
M  V30 1227 H 113.956 3.95859 2.35865 0
M  V30 1228 H 112.271 3.49361 2.26575 0
M  V30 1229 H 114.868 2.35196 4.80195 0
M  V30 1230 H 115.211 0.796224 4.08615 0
M  V30 1231 H 115.744 2.28033 3.25954 0
M  V30 1232 H 112.483 5.18102 4.01561 0
M  V30 1233 H 112.003 3.64159 4.76601 0
M  V30 1234 H 113.682 4.21956 4.90471 0
M  V30 1235 N 113.814 -1.1601 1.06675 0
M  V30 1236 C 114.777 -2.18724 0.685001 0
M  V30 1237 C 115.777 -1.58496 -0.271246 0
M  V30 1238 O 116.967 -1.74119 -0.0531156 0
M  V30 1239 C 114.099 -3.40899 0.00853648 0
M  V30 1240 H 115.292 -2.54011 1.59431 0
M  V30 1241 H 112.845 -1.30352 0.862441 0
M  V30 1242 H 113.58 -3.11173 -0.913337 0
M  V30 1243 H 113.365 -3.8587 0.696204 0
M  V30 1244 H 114.855 -4.16886 -0.24414 0
M  V30 1245 N 115.292 -0.849877 -1.32721 0
M  V30 1246 C 116.255 -0.296122 -2.27279 0
M  V30 1247 C 117.255 0.541458 -1.5141 0
M  V30 1248 O 118.445 0.353658 -1.70572 0
M  V30 1249 C 115.577 0.581579 -3.35902 0
M  V30 1250 H 116.77 -1.13064 -2.77771 0
M  V30 1251 H 114.323 -0.62383 -1.43311 0
M  V30 1252 H 115.058 1.43809 -2.9067 0
M  V30 1253 H 114.843 -0.0178814 -3.92096 0
M  V30 1254 H 116.333 0.961951 -4.0637 0
M  V30 1255 N 116.77 1.45427 -0.607355 0
M  V30 1256 C 117.733 2.28974 0.101693 0
M  V30 1257 C 118.733 1.39754 0.795329 0
M  V30 1258 O 119.923 1.61878 0.643527 0
M  V30 1259 C 117.055 3.20768 1.15414 0
M  V30 1260 H 118.248 2.93147 -0.632844 0
M  V30 1261 H 115.801 1.51945 -0.366391 0
M  V30 1262 H 116.536 2.61395 1.91945 0
M  V30 1263 H 116.321 3.86489 0.66098 0
M  V30 1264 H 117.811 3.83589 1.65073 0
M  V30 1265 N 118.248 0.346503 1.53744 0
M  V30 1266 C 119.196 -0.52422 2.26616 0
M  V30 1267 C 120.19 -1.09948 1.28871 0
M  V30 1268 O 121.396 -1.04488 1.46568 0
M  V30 1269 H 117.771 -0.187743 0.728187 0
M  V30 1270 H 119.742 0.11239 2.98188 0
M  V30 1271 C 118.491 -1.66186 3.05414 0
M  V30 1272 H 117.814 -1.22848 3.80458 0
M  V30 1273 H 119.254 -2.24622 3.59612 0
M  V30 1274 C 117.713 -2.59302 2.1509 0
M  V30 1275 O 118.243 -3.61628 1.74895 0
M  V30 1276 N 116.449 -2.28055 1.8011 0
M  V30 1277 H 115.996 -1.44883 2.12994 0
M  V30 1278 H 115.954 -2.90615 1.19958 0
M  V30 1279 N 119.726 -1.57421 0.075193 0
M  V30 1280 C 120.974 -1.93236 -0.591974 0
M  V30 1281 C 121.295 -0.956241 -1.69944 0
M  V30 1282 O 120.565 -0.00494792 -1.95899 0
M  V30 1283 H 119.145 -0.713355 -0.22166 0
M  V30 1284 H 121.807 -1.9444 0.133848 0
M  V30 1285 H 120.903 -2.95131 -1.01509 0
M  V30 1286 N 121.204 0.198386 -1.56346 0
M  V30 1287 C 122.453 0.917451 -1.79627 0
M  V30 1288 C 122.766 1.8456 -0.64784 0
M  V30 1289 O 123.972 2.60504 -0.764859 0
M  V30 1290 C 122.428 1.68175 -3.18191 0
M  V30 1291 C 122.036 0.798589 -4.40825 0
M  V30 1292 C 123.78 2.39065 -3.50782 0
M  V30 1293 C 121.687 1.56157 -5.70411 0
M  V30 1294 H 120.617 0.346317 -0.669762 0
M  V30 1295 H 123.268 0.170801 -1.82703 0
M  V30 1296 H 121.65 2.47216 -3.09354 0
M  V30 1297 H 122.824 0.0470665 -4.60776 0
M  V30 1298 H 121.139 0.200686 -4.15916 0
M  V30 1299 H 123.736 2.96692 -4.44835 0
M  V30 1300 H 124.079 3.13091 -2.74371 0
M  V30 1301 H 124.612 1.66993 -3.61052 0
M  V30 1302 H 121.351 0.864142 -6.49779 0
M  V30 1303 H 120.871 2.2871 -5.54483 0
M  V30 1304 H 122.55 2.11622 -6.11412 0
M  V30 1305 N 122.682 1.50554 0.465978 0
M  V30 1306 C 123.93 1.61479 1.21528 0
M  V30 1307 C 124.251 0.319596 1.92363 0
M  V30 1308 O 123.521 -0.663194 1.84333 0
M  V30 1309 H 122.101 0.595055 0.451573 0
M  V30 1310 H 124.763 1.87355 0.53704 0
M  V30 1311 H 123.859 2.42846 1.96042 0
M  V30 1312 N 124.16 -0.719506 1.40217 0
M  V30 1313 C 125.576 -1.02707 1.22161 0
M  V30 1314 C 125.776 -2.0128 0.0940557 0
M  V30 1315 O 124.832 -2.46452 -0.549318 0
M  V30 1316 C 126.145 -1.57454 2.56181 0
M  V30 1317 C 127.693 -1.69458 2.63159 0
M  V30 1318 C 128.168 -2.27611 3.97438 0
M  V30 1319 N 129.659 -2.35002 3.99159 0
M  V30 1320 C 130.394 -2.80972 4.99842 0
M  V30 1321 N 129.89 -3.26723 6.10921 0
M  V30 1322 N 131.683 -2.80321 4.87213 0
M  V30 1323 H 123.834 -0.0660492 2.12297 0
M  V30 1324 H 126.097 -0.0919077 0.943534 0
M  V30 1325 H 125.803 -0.924873 3.39321 0
M  V30 1326 H 125.677 -2.56036 2.76993 0
M  V30 1327 H 128.064 -2.33543 1.80393 0
M  V30 1328 H 128.145 -0.694867 2.46181 0
M  V30 1329 H 127.789 -1.6415 4.80643 0
M  V30 1330 H 127.719 -3.2829 4.11744 0
M  V30 1331 H 130.21 -2.02685 3.18947 0
M  V30 1332 H 130.523 -3.60355 6.8364 0
M  V30 1333 H 128.868 -3.24692 6.14492 0
M  V30 1334 H 132.059 -2.43912 3.9953 0
M  V30 1335 H 132.232 -3.15831 5.65822 0
M  V30 1336 N 125.638 -1.25649 -0.95132 0
M  V30 1337 C 126.568 -1.08808 -2.06599 0
M  V30 1338 C 127.549 0.00382547 -1.701 0
M  V30 1339 O 128.734 -0.166325 -1.93486 0
M  V30 1340 C 125.864 -0.709542 -3.39975 0
M  V30 1341 C 124.818 -1.75206 -3.90496 0
M  V30 1342 C 124.144 -1.22811 -5.20405 0
M  V30 1343 C 125.444 -3.15153 -4.16504 0
M  V30 1344 H 127.138 -2.02048 -2.20946 0
M  V30 1345 H 124.684 -0.972835 -1.06169 0
M  V30 1346 H 126.637 -0.578649 -4.17408 0
M  V30 1347 H 125.361 0.258556 -3.25575 0
M  V30 1348 H 124.02 -1.87145 -3.15234 0
M  V30 1349 H 123.668 -0.250145 -5.02378 0
M  V30 1350 H 123.368 -1.92492 -5.55176 0
M  V30 1351 H 124.892 -1.10968 -6.00432 0
M  V30 1352 H 126.306 -3.06349 -4.84586 0
M  V30 1353 H 124.703 -3.82333 -4.62538 0
M  V30 1354 H 125.773 -3.61966 -3.22658 0
M  V30 1355 N 127.117 1.15442 -1.07289 0
M  V30 1356 C 128.363 1.86489 -0.796846 0
M  V30 1357 C 128.696 1.82078 0.675371 0
M  V30 1358 O 127.971 1.24346 1.4956 0
M  V30 1359 C 128.254 3.35626 -1.30489 0
M  V30 1360 C 128.107 3.48673 -2.84161 0
M  V30 1361 C 129.426 4.30357 -0.920907 0
M  V30 1362 H 126.545 0.677144 -0.290939 0
M  V30 1363 H 129.187 1.35633 -1.33056 0
M  V30 1364 H 127.337 3.79068 -0.850883 0
M  V30 1365 H 129.009 3.14099 -3.37846 0
M  V30 1366 H 127.252 2.90253 -3.22391 0
M  V30 1367 H 127.923 4.53453 -3.14777 0
M  V30 1368 H 130.399 3.94871 -1.3121 0
M  V30 1369 H 129.275 5.33193 -1.30372 0
M  V30 1370 H 129.536 4.4176 0.173226 0
M  V30 1371 N 128.595 0.856903 1.32268 0
M  V30 1372 C 129.844 0.457599 1.96441 0
M  V30 1373 C 130.157 -0.992426 1.68553 0
M  V30 1374 O 131.363 -1.49727 2.26482 0
M  V30 1375 C 129.819 0.767358 3.51624 0
M  V30 1376 C 129.427 2.23326 3.88367 0
M  V30 1377 C 131.171 0.435887 4.22256 0
M  V30 1378 C 129.078 2.48613 5.36606 0
M  V30 1379 H 128.008 0.167387 0.735185 0
M  V30 1380 H 130.659 1.048 1.5063 0
M  V30 1381 H 129.041 0.106367 3.95857 0
M  V30 1382 H 130.215 2.93623 3.55137 0
M  V30 1383 H 128.53 2.52948 3.30766 0
M  V30 1384 H 131.127 0.602202 5.31298 0
M  V30 1385 H 131.47 -0.622672 4.11617 0
M  V30 1386 H 132.003 1.05286 3.83614 0
M  V30 1387 H 128.742 3.53101 5.52268 0
M  V30 1388 H 128.262 1.82896 5.71235 0
M  V30 1389 H 129.941 2.32676 6.03714 0
M  V30 1390 N 130.073 -1.45103 0.615059 0
M  V30 1391 C 131.321 -2.01784 0.112955 0
M  V30 1392 C 131.642 -1.48504 -1.26378 0
M  V30 1393 O 130.912 -0.682245 -1.83636 0
M  V30 1394 H 129.492 -0.745993 0.0387668 0
M  V30 1395 H 132.154 -1.77808 0.798141 0
M  V30 1396 H 131.25 -3.12025 0.0684069 0
M  V30 1397 N 131.551 -0.354651 -1.53558 0
M  V30 1398 C 132.483 0.5315 -2.22952 0
M  V30 1399 C 133.496 1.05503 -1.23988 0
M  V30 1400 O 134.685 0.963279 -1.50277 0
M  V30 1401 C 131.785 1.74538 -2.90499 0
M  V30 1402 C 130.958 1.35524 -4.15875 0
M  V30 1403 C 130.017 2.42999 -4.66731 0
M  V30 1404 O 129.043 2.05844 -5.30676 0
M  V30 1405 N 130.245 3.74423 -4.43608 0
M  V30 1406 H 133.01 -0.0628615 -2.99634 0
M  V30 1407 H 130.571 -0.179302 -1.60904 0
M  V30 1408 H 132.563 2.45892 -3.21433 0
M  V30 1409 H 131.133 2.24686 -2.17336 0
M  V30 1410 H 130.353 0.471998 -3.91364 0
M  V30 1411 H 131.641 1.07071 -4.97406 0
M  V30 1412 H 131.039 4.07391 -3.92491 0
M  V30 1413 H 129.596 4.41913 -4.7912 0
M  V30 1414 N 133.029 1.57378 -0.0835403 0
M  V30 1415 C 133.977 2.14602 0.89714 0
M  V30 1416 C 134.971 1.08589 1.30018 0
M  V30 1417 O 136.177 1.26952 1.27606 0
M  V30 1418 H 132.552 0.686346 0.3073 0
M  V30 1419 H 134.523 2.95845 0.38969 0
M  V30 1420 C 133.272 2.73188 2.15089 0
M  V30 1421 H 132.595 3.54442 1.84962 0
M  V30 1422 H 134.035 3.1681 2.81793 0
M  V30 1423 C 132.494 1.68517 2.91725 0
M  V30 1424 O 133.024 1.11718 3.85852 0
M  V30 1425 N 131.23 1.39277 2.55049 0
M  V30 1426 H 130.777 1.85655 1.78577 0
M  V30 1427 H 130.735 0.694791 3.06627 0
M  V30 1428 N 134.507 -0.190092 1.56449 0
M  V30 1429 C 135.755 -0.907908 1.80559 0
M  V30 1430 C 136.076 -1.83583 0.657438 0
M  V30 1431 O 135.346 -1.93203 -0.323924 0
M  V30 1432 H 133.926 -0.338247 0.666032 0
M  V30 1433 H 136.588 -0.194403 1.93928 0
M  V30 1434 H 135.684 -1.49604 2.73907 0
M  V30 1435 N 135.985 -1.50799 -0.457987 0
M  V30 1436 C 137.234 -1.6168 -1.20593 0
M  V30 1437 C 137.547 -0.32888 -1.92815 0
M  V30 1438 O 138.753 -0.316773 -2.69646 0
M  V30 1439 C 137.209 -2.8545 -2.19195 0
M  V30 1440 C 136.817 -4.21168 -1.52715 0
M  V30 1441 C 138.561 -3.05681 -2.94549 0
M  V30 1442 C 136.468 -5.3611 -2.4968 0
M  V30 1443 H 135.398 -0.602134 -0.453818 0
M  V30 1444 H 138.049 -1.77245 -0.475031 0
M  V30 1445 H 136.431 -2.63472 -2.95632 0
M  V30 1446 H 137.605 -4.53449 -0.819775 0
M  V30 1447 H 135.92 -4.06648 -0.895922 0
M  V30 1448 H 138.517 -3.88727 -3.67145 0
M  V30 1449 H 138.86 -2.17929 -3.54701 0
M  V30 1450 H 139.393 -3.27901 -2.25223 0
M  V30 1451 H 136.132 -6.26057 -1.94249 0
M  V30 1452 H 135.652 -5.0823 -3.18532 0
M  V30 1453 H 137.331 -5.6722 -3.11241 0
M  V30 1454 N 137.463 0.71206 -1.40597 0
M  V30 1455 C 138.393 1.83889 -1.43899 0
M  V30 1456 C 139.374 1.67442 -0.299504 0
M  V30 1457 O 140.559 1.87421 -0.508624 0
M  V30 1458 C 137.689 3.21877 -1.30431 0
M  V30 1459 C 136.643 3.53002 -2.42019 0
M  V30 1460 C 135.969 4.90172 -2.13626 0
M  V30 1461 C 137.269 3.53643 -3.84362 0
M  V30 1462 H 138.963 1.81383 -2.38203 0
M  V30 1463 H 136.509 0.871237 -1.14654 0
M  V30 1464 H 138.462 4.00404 -1.31357 0
M  V30 1465 H 137.186 3.24968 -0.326049 0
M  V30 1466 H 135.845 2.76818 -2.40349 0
M  V30 1467 H 135.493 4.89869 -1.14182 0
M  V30 1468 H 135.193 5.11962 -2.88389 0
M  V30 1469 H 136.717 5.71028 -2.1624 0
M  V30 1470 H 138.131 4.22203 -3.87837 0
M  V30 1471 H 136.528 3.86961 -4.58673 0
M  V30 1472 H 137.598 2.52954 -4.13693 0
M  V30 1473 N 138.941 1.26152 0.944643 0
M  V30 1474 C 140.166 1.14363 1.7302 0
M  V30 1475 C 140.591 -0.29772 1.85729 0
M  V30 1476 O 139.949 -1.2157 1.34501 0
M  V30 1477 C 139.997 1.81378 3.11664 0
M  V30 1478 O 139.101 1.10022 3.97453 0
M  V30 1479 H 138.442 0.398694 0.53098 0
M  V30 1480 H 140.972 1.66906 1.18337 0
M  V30 1481 H 140.982 1.88064 3.62072 0
M  V30 1482 H 139.657 2.86237 3.0173 0
M  V30 1483 H 138.234 1.11287 3.55907 0
M  V30 1484 N 140.419 -1.14872 1.07899 0
M  V30 1485 C 141.647 -1.89661 0.82683 0
M  V30 1486 C 142.062 -1.78312 -0.620519 0
M  V30 1487 O 141.419 -1.13888 -1.42604 0
M  V30 1488 C 141.47 -3.39817 1.23316 0
M  V30 1489 O 141.191 -3.50845 2.62372 0
M  V30 1490 C 142.692 -4.31615 1.0111 0
M  V30 1491 H 139.912 -0.60092 0.298557 0
M  V30 1492 H 142.456 -1.4551 1.43691 0
M  V30 1493 H 140.611 -3.8161 0.667286 0
M  V30 1494 H 141.025 -4.44076 2.79101 0
M  V30 1495 H 142.499 -5.35367 1.34486 0
M  V30 1496 H 142.976 -4.39169 -0.0522168 0
M  V30 1497 H 143.582 -3.95572 1.56215 0
M  V30 1498 N 141.898 -0.863906 -1.31812 0
M  V30 1499 C 143.309 -0.52522 -1.7916 0
M  V30 1500 C 143.66 0.957518 -1.71248 0
M  V30 1501 O 142.785 1.74734 -1.27659 0
M  V30 1502 C 143.38 -0.9466 -3.25307 0
M  V30 1503 C 141.939 -0.659668 -3.70574 0
M  V30 1504 C 141.086 -1.14126 -2.52726 0
M  V30 1505 H 144.037 -1.05022 -1.1898 0
M  V30 1506 H 144.058 -0.266766 -3.79564 0
M  V30 1507 H 143.57 -2.02579 -3.31034 0
M  V30 1508 H 141.671 0.408416 -3.70355 0
M  V30 1509 H 141.784 -1.23245 -4.62977 0
M  V30 1510 H 140.148 -0.561216 -2.4844 0
M  V30 1511 H 140.931 -2.22775 -2.61201 0
M  V30 1512 N 143.376 1.44774 -0.622745 0
M  V30 1513 C 144.339 2.29069 0.0774015 0
M  V30 1514 C 145.339 1.4059 0.780461 0
M  V30 1515 O 146.529 1.62551 0.626322 0
M  V30 1516 C 143.661 3.21974 1.12006 0
M  V30 1517 H 144.854 2.92459 -0.663901 0
M  V30 1518 H 142.407 1.51548 -0.382486 0
M  V30 1519 H 143.142 2.63417 1.89162 0
M  V30 1520 H 142.927 3.87168 0.619951 0
M  V30 1521 H 144.417 3.85318 1.60995 0
M  V30 1522 N 144.854 0.36279 1.53368 0
M  V30 1523 C 146.1 -0.228113 2.01513 0
M  V30 1524 C 146.433 -1.48648 1.2497 0
M  V30 1525 O 145.708 -1.91459 0.342616 0
M  V30 1526 C 145.991 -0.522884 3.56284 0
M  V30 1527 C 145.844 0.74892 4.43521 0
M  V30 1528 C 147.163 -1.32461 4.19693 0
M  V30 1529 H 144.282 -0.0814343 0.732487 0
M  V30 1530 H 146.924 0.48713 1.83649 0
M  V30 1531 H 145.074 -1.1322 3.71636 0
M  V30 1532 H 146.746 1.38648 4.39971 0
M  V30 1533 H 144.989 1.36986 4.11603 0
M  V30 1534 H 145.66 0.497667 5.49752 0
M  V30 1535 H 148.136 -0.809203 4.08156 0
M  V30 1536 H 147.012 -1.49961 5.28018 0
M  V30 1537 H 147.273 -2.33232 3.75573 0
M  V30 1538 N 146.332 -1.57332 0.0918853 0
M  V30 1539 C 147.557 -1.98995 -0.584442 0
M  V30 1540 C 147.982 -0.970528 -1.61128 0
M  V30 1541 O 147.34 0.0613904 -1.81196 0
M  V30 1542 C 147.388 -3.39636 -1.21161 0
M  V30 1543 O 146.492 -3.40447 -2.32744 0
M  V30 1544 H 145.833 -0.647165 -0.148572 0
M  V30 1545 H 148.363 -2.03873 0.172347 0
M  V30 1546 H 148.373 -3.7726 -1.55367 0
M  V30 1547 H 147.048 -4.13356 -0.459313 0
M  V30 1548 H 145.625 -3.14614 -2.0018 0
M  V30 1549 N 147.81 0.181792 -1.56548 0
M  V30 1550 C 149.05 0.906711 -1.83189 0
M  V30 1551 C 149.414 1.79882 -0.671312 0
M  V30 1552 O 150.615 2.56054 -0.81792 0
M  V30 1553 C 148.886 1.69023 -3.14906 0
M  V30 1554 S 150.445 2.46535 -3.62996 0
M  V30 1555 H 147.263 0.303877 -0.642791 0
M  V30 1556 H 149.865 0.169107 -1.94767 0
M  V30 1557 H 148.569 1.02571 -3.97376 0
M  V30 1558 H 148.1 2.46941 -3.06241 0
M  V30 1559 H 150.115 3.71014 -3.29489 0
M  V30 1560 N 149.288 1.51039 0.449983 0
M  V30 1561 C 150.537 1.62317 1.19733 0
M  V30 1562 C 150.85 0.339101 1.92638 0
M  V30 1563 O 152.056 0.331069 2.69474 0
M  V30 1564 C 150.512 2.86608 2.17678 0
M  V30 1565 C 150.12 4.21972 1.50479 0
M  V30 1566 C 151.864 3.07239 2.92924 0
M  V30 1567 C 149.771 5.37426 2.46834 0
M  V30 1568 H 148.701 0.604532 0.450619 0
M  V30 1569 H 151.352 1.77494 0.465625 0
M  V30 1570 H 149.734 2.65037 2.94231 0
M  V30 1571 H 150.908 4.53878 0.795716 0
M  V30 1572 H 149.223 4.07117 0.874344 0
M  V30 1573 H 151.82 3.90668 3.65079 0
M  V30 1574 H 152.163 2.19807 3.5354 0
M  V30 1575 H 152.696 3.29091 2.23481 0
M  V30 1576 H 149.435 6.27079 1.90926 0
M  V30 1577 H 148.955 5.09912 3.15832 0
M  V30 1578 H 150.634 5.68862 3.08228 0
M  V30 1579 N 150.766 -0.704594 1.40972 0
M  V30 1580 C 152.015 -1.46018 1.39146 0
M  V30 1581 C 152.328 -1.956 0.000589254 0
M  V30 1582 O 153.534 -2.71137 -0.1403 0
M  V30 1583 C 151.99 -2.63996 2.4461 0
M  V30 1584 C 151.598 -2.21238 3.89561 0
M  V30 1585 C 153.342 -3.41677 2.51907 0
M  V30 1586 C 151.249 -3.3612 4.86598 0
M  V30 1587 H 150.179 -0.548444 0.517422 0
M  V30 1588 H 152.83 -0.765784 1.66757 0
M  V30 1589 H 151.212 -3.3566 2.10115 0
M  V30 1590 H 152.386 -1.56923 4.33257 0
M  V30 1591 H 150.701 -1.56574 3.85841 0
M  V30 1592 H 153.298 -4.27182 3.2159 0
M  V30 1593 H 153.641 -3.86247 1.55303 0
M  V30 1594 H 154.174 -2.77064 2.85448 0
M  V30 1595 H 150.913 -2.96572 5.84573 0
M  V30 1596 H 150.433 -3.99315 4.47557 0
M  V30 1597 H 152.112 -4.02029 5.06934 0
M  V30 1598 N 152.244 -1.26651 -0.937939 0
M  V30 1599 C 153.66 -1.03834 -1.21205 0
M  V30 1600 C 153.86 0.234502 -2.00131 0
M  V30 1601 O 152.916 0.942767 -2.3424 0
M  V30 1602 C 154.229 -2.27167 -1.97017 0
M  V30 1603 C 155.777 -2.32101 -2.09996 0
M  V30 1604 C 156.252 -3.55136 -2.8921 0
M  V30 1605 N 157.743 -3.55632 -2.96783 0
M  V30 1606 C 158.478 -4.475 -3.58512 0
M  V30 1607 N 157.974 -5.4966 -4.21717 0
M  V30 1608 N 159.767 -4.35145 -3.55816 0
M  V30 1609 H 151.918 -2.08398 -0.410391 0
M  V30 1610 H 154.181 -0.916031 -0.244114 0
M  V30 1611 H 153.887 -3.19765 -1.46434 0
M  V30 1612 H 153.761 -2.31672 -2.97671 0
M  V30 1613 H 156.148 -1.40015 -2.59769 0
M  V30 1614 H 156.229 -2.31605 -1.08594 0
M  V30 1615 H 155.873 -4.47553 -2.40123 0
M  V30 1616 H 155.803 -3.5288 -3.90875 0
M  V30 1617 H 158.294 -2.81743 -2.51852 0
M  V30 1618 H 158.607 -6.15943 -4.66727 0
M  V30 1619 H 156.952 -5.53514 -4.20294 0
M  V30 1620 H 160.143 -3.5455 -3.05634 0
M  V30 1621 H 160.316 -5.06934 -4.03636 0
M  V30 1622 N 153.722 1.14298 -1.08507 0
M  V30 1623 C 154.669 2.19414 -0.715965 0
M  V30 1624 C 155.639 1.63399 0.298326 0
M  V30 1625 O 156.824 1.89929 0.182101 0
M  V30 1626 C 153.964 3.44845 -0.132534 0
M  V30 1627 C 153.077 4.15007 -1.19973 0
M  V30 1628 C 152.212 5.28024 -0.580048 0
M  V30 1629 C 151.251 5.9002 -1.62921 0
M  V30 1630 N 150.388 6.94485 -1.03125 0
M  V30 1631 H 155.228 2.50336 -1.61666 0
M  V30 1632 H 152.765 1.2293 -0.807882 0
M  V30 1633 H 154.723 4.16601 0.223454 0
M  V30 1634 H 153.353 3.14403 0.731467 0
M  V30 1635 H 152.405 3.41629 -1.67313 0
M  V30 1636 H 153.717 4.57178 -1.99473 0
M  V30 1637 H 152.871 6.06455 -0.172364 0
M  V30 1638 H 151.61 4.87076 0.246603 0
M  V30 1639 H 150.615 5.10291 -2.04654 0
M  V30 1640 H 151.84 6.33042 -2.45835 0
M  V30 1641 H 149.786 6.55612 -0.225711 0
M  V30 1642 H 149.703 7.35148 -1.76334 0
M  V30 1643 H 150.971 7.7679 -0.649458 0
M  V30 1644 N 155.201 0.870884 1.31352 0
M  V30 1645 C 156.45 0.478408 1.95944 0
M  V30 1646 C 156.763 -0.974493 1.69597 0
M  V30 1647 O 157.969 -1.47316 2.28058 0
M  V30 1648 C 156.425 0.804609 3.50791 0
M  V30 1649 C 156.033 2.27433 3.85977 0
M  V30 1650 C 157.777 0.480648 4.2177 0
M  V30 1651 C 155.684 2.5429 5.33939 0
M  V30 1652 H 154.614 0.175175 0.733369 0
M  V30 1653 H 157.265 1.06391 1.4951 0
M  V30 1654 H 155.647 0.148347 3.95722 0
M  V30 1655 H 156.821 2.97373 3.52002 0
M  V30 1656 H 155.136 2.56442 3.28065 0
M  V30 1657 H 157.733 0.658519 5.30629 0
M  V30 1658 H 158.076 -0.578979 4.12254 0
M  V30 1659 H 158.609 1.09349 3.82476 0
M  V30 1660 H 155.348 3.58939 5.48491 0
M  V30 1661 H 154.868 1.88945 5.69263 0
M  V30 1662 H 156.547 2.39066 6.01212 0
M  V30 1663 N 156.679 -1.44442 0.630414 0
M  V30 1664 C 157.626 -2.30678 -0.0749355 0
M  V30 1665 C 158.596 -1.4344 -0.837502 0
M  V30 1666 O 159.781 -1.72343 -0.818684 0
M  V30 1667 C 156.921 -3.28706 -1.05103 0
M  V30 1668 C 156.034 -4.31046 -0.286954 0
M  V30 1669 C 155.169 -5.16167 -1.2548 0
M  V30 1670 C 154.208 -6.10216 -0.479843 0
M  V30 1671 N 153.345 -6.88039 -1.39811 0
M  V30 1672 H 158.185 -2.90454 0.666386 0
M  V30 1673 H 155.722 -1.43107 0.340404 0
M  V30 1674 H 157.68 -3.84027 -1.63031 0
M  V30 1675 H 156.31 -2.70632 -1.75949 0
M  V30 1676 H 155.362 -3.78203 0.408243 0
M  V30 1677 H 156.674 -4.97794 0.316657 0
M  V30 1678 H 155.828 -5.76002 -1.90544 0
M  V30 1679 H 154.567 -4.49491 -1.89233 0
M  V30 1680 H 153.572 -5.49491 0.184295 0
M  V30 1681 H 154.797 -6.78928 0.152965 0
M  V30 1682 H 152.743 -6.24032 -2.02287 0
M  V30 1683 H 152.66 -7.51223 -0.848508 0
M  V30 1684 H 153.928 -7.52397 -2.03762 0
M  V30 1685 N 158.157 -0.370918 -1.53173 0
M  V30 1686 C 159.12 0.460778 -2.24521 0
M  V30 1687 C 160.12 1.00536 -1.25496 0
M  V30 1688 O 161.31 0.890266 -1.49733 0
M  V30 1689 C 158.442 1.64457 -2.98608 0
M  V30 1690 H 159.635 -0.163613 -2.99453 0
M  V30 1691 H 157.188 -0.122699 -1.55818 0
M  V30 1692 H 157.923 2.30691 -2.2793 0
M  V30 1693 H 157.708 1.26099 -3.7127 0
M  V30 1694 H 159.198 2.23384 -3.5283 0
M  V30 1695 N 159.635 1.57281 -0.100228 0
M  V30 1696 C 160.884 1.93713 0.561984 0
M  V30 1697 C 161.197 0.984492 1.69018 0
M  V30 1698 O 162.403 1.24273 2.41389 0
M  V30 1699 C 160.859 3.4421 1.05106 0
M  V30 1700 C 160.467 4.47975 -0.0476628 0
M  V30 1701 C 162.211 3.89595 1.68571 0
M  V30 1702 C 160.118 5.89631 0.457055 0
M  V30 1703 H 159.048 0.723082 0.2137 0
M  V30 1704 H 161.699 1.82644 -0.177057 0
M  V30 1705 H 160.081 3.50449 1.84395 0
M  V30 1706 H 161.255 4.53385 -0.823333 0
M  V30 1707 H 159.57 4.1223 -0.587816 0
M  V30 1708 H 162.167 4.92832 2.07414 0
M  V30 1709 H 162.51 3.28526 2.55688 0
M  V30 1710 H 163.043 3.86078 0.958562 0
M  V30 1711 H 159.782 6.54411 -0.377616 0
M  V30 1712 H 159.302 5.87681 1.19962 0
M  V30 1713 H 160.981 6.40363 0.92437 0
M  V30 1714 N 161.113 -0.173488 1.56642 0
M  V30 1715 C 162.361 -0.888706 1.81512 0
M  V30 1716 C 162.682 -1.82875 0.676872 0
M  V30 1717 O 161.952 -1.93536 -0.303414 0
M  V30 1718 H 160.532 -0.331164 0.669582 0
M  V30 1719 H 163.194 -0.173823 1.94123 0
M  V30 1720 H 162.29 -1.46691 2.75478 0
M  V30 1721 N 162.591 -1.51276 -0.441967 0
M  V30 1722 C 163.839 -1.63392 -1.18943 0
M  V30 1723 C 164.16 -0.350159 -1.9183 0
M  V30 1724 O 163.43 0.633784 -1.85364 0
M  V30 1725 H 162.01 -0.602164 -0.442049 0
M  V30 1726 H 164.672 -1.88186 -0.507165 0
M  V30 1727 H 163.768 -2.45934 -1.92154 0
M  V30 1728 N 164.069 0.697108 -1.41344 0
M  V30 1729 C 165.318 1.45279 -1.39918 0
M  V30 1730 C 165.631 1.95597 -0.0109624 0
M  V30 1731 O 166.837 2.71208 0.125919 0
M  V30 1732 C 165.293 2.62695 -2.46007 0
M  V30 1733 C 164.901 2.19169 -3.90729 0
M  V30 1734 C 166.645 3.40336 -2.53715 0
M  V30 1735 C 164.552 3.33535 -4.88373 0
M  V30 1736 H 163.482 0.545692 -0.520323 0
M  V30 1737 H 166.133 0.756929 -1.67161 0
M  V30 1738 H 164.515 3.34541 -2.11892 0
M  V30 1739 H 165.689 1.54623 -4.34083 0
M  V30 1740 H 164.004 1.54525 -3.86666 0
M  V30 1741 H 166.601 4.2547 -3.2385 0
M  V30 1742 H 166.944 3.85418 -1.5735 0
M  V30 1743 H 167.477 2.75546 -2.86913 0
M  V30 1744 H 164.216 2.93468 -5.86137 0
M  V30 1745 H 163.736 3.96936 -4.49668 0
M  V30 1746 H 165.415 3.99335 -5.09059 0
M  V30 1747 N 165.547 1.27147 0.931209 0
M  V30 1748 C 166.796 1.12664 1.67302 0
M  V30 1749 C 167.109 -0.327718 1.92835 0
M  V30 1750 O 168.315 -0.593392 2.64936 0
M  V30 1751 C 166.771 1.9683 3.01307 0
M  V30 1752 C 166.379 3.46901 2.83485 0
M  V30 1753 C 168.123 1.90985 3.79111 0
M  V30 1754 C 166.03 4.23279 4.13024 0
M  V30 1755 H 164.96 0.41803 0.627509 0
M  V30 1756 H 167.611 1.51539 1.03481 0
M  V30 1757 H 165.993 1.50797 3.66164 0
M  V30 1758 H 167.167 4.00773 2.27415 0
M  V30 1759 H 165.482 3.54088 2.19113 0
M  V30 1760 H 168.079 2.45328 4.75098 0
M  V30 1761 H 168.422 0.882718 4.06834 0
M  V30 1762 H 168.955 2.34895 3.21044 0
M  V30 1763 H 165.694 5.26503 3.90481 0
M  V30 1764 H 165.214 3.74186 4.6877 0
M  V30 1765 H 166.893 4.32265 4.81411 0
M  V30 1766 N 167.025 -1.13721 1.09112 0
M  V30 1767 C 167.955 -2.21148 0.749385 0
M  V30 1768 C 168.936 -1.6792 -0.271475 0
M  V30 1769 O 170.121 -1.93693 -0.140251 0
M  V30 1770 C 167.251 -3.46905 0.165659 0
M  V30 1771 C 166.205 -4.13203 1.11567 0
M  V30 1772 C 165.531 -5.33248 0.393809 0
M  V30 1773 C 166.831 -4.60912 2.45678 0
M  V30 1774 H 168.525 -2.4999 1.64758 0
M  V30 1775 H 166.071 -1.20156 0.793626 0
M  V30 1776 H 168.024 -4.21313 -0.085466 0
M  V30 1777 H 166.748 -3.17449 -0.767714 0
M  V30 1778 H 165.407 -3.40758 1.35202 0
M  V30 1779 H 165.055 -5.00054 -0.543599 0
M  V30 1780 H 164.755 -5.78552 1.02721 0
M  V30 1781 H 166.279 -6.10413 0.150908 0
M  V30 1782 H 167.693 -5.26759 2.26269 0
M  V30 1783 H 166.09 -5.16944 3.04776 0
M  V30 1784 H 167.16 -3.75603 3.06677 0
M  V30 1785 N 168.503 -0.877838 -1.30888 0
M  V30 1786 C 169.731 -0.507414 -2.00581 0
M  V30 1787 C 170.146 0.902216 -1.65848 0
M  V30 1788 O 169.503 1.59225 -0.891831 0
M  V30 1789 C 169.554 -0.664162 -3.55347 0
M  V30 1790 O 169.275 -2.01829 -3.8884 0
M  V30 1791 C 170.776 -0.295787 -4.42312 0
M  V30 1792 H 167.996 -0.196866 -0.641471 0
M  V30 1793 H 170.54 -1.18117 -1.66939 0
M  V30 1794 H 168.695 -0.0378619 -3.87381 0
M  V30 1795 H 169.109 -2.03174 -4.8355 0
M  V30 1796 H 170.583 -0.456388 -5.5011 0
M  V30 1797 H 171.06 0.765663 -4.32475 0
M  V30 1798 H 171.666 -0.898113 -4.15709 0
M  V30 1799 N 169.982 1.44106 -0.638065 0
M  V30 1800 C 170.945 2.29138 0.0531013 0
M  V30 1801 C 171.945 1.41409 0.765506 0
M  V30 1802 O 173.135 1.63206 0.609046 0
M  V30 1803 C 170.267 3.23144 1.08584 0
M  V30 1804 H 171.46 2.91739 -0.694883 0
M  V30 1805 H 169.013 1.51134 -0.398538 0
M  V30 1806 H 169.748 2.65408 1.86357 0
M  V30 1807 H 169.533 3.87804 0.578852 0
M  V30 1808 H 171.023 3.87004 1.56899 0
M  V30 1809 N 171.46 0.379036 1.52974 0
M  V30 1810 C 172.685 -0.209353 2.06341 0
M  V30 1811 C 173.11 -1.40583 1.24972 0
M  V30 1812 O 172.468 -1.79246 0.272155 0
M  V30 1813 C 172.516 -0.567786 3.56102 0
M  V30 1814 O 171.62 -1.66318 3.77375 0
M  V30 1815 H 170.961 -0.0272919 0.663439 0
M  V30 1816 H 173.491 0.543536 1.97248 0
M  V30 1817 H 173.501 -0.835003 3.99364 0
M  V30 1818 H 172.176 0.307013 4.14765 0
M  V30 1819 H 170.753 -1.39048 3.46006 0
M  V30 1820 N 172.938 -1.57226 0.108567 0
M  V30 1821 C 173.888 -2.11305 -0.856396 0
M  V30 1822 C 174.872 -1.03129 -1.23504 0
M  V30 1823 O 176.064 -1.29381 -1.20787 0
M  V30 1824 C 173.193 -2.70771 -2.11041 0
M  V30 1825 C 172.279 -3.86011 -1.7566 0
M  V30 1826 N 172.67 -4.93492 -1.10902 0
M  V30 1827 C 170.968 -3.95999 -2.05185 0
M  V30 1828 C 171.669 -5.73984 -0.944308 0
M  V30 1829 N 170.645 -5.2346 -1.46596 0
M  V30 1830 H 174.447 -2.91784 -0.352002 0
M  V30 1831 H 171.961 -1.62126 -0.0942324 0
M  V30 1832 H 173.958 -3.07851 -2.81128 0
M  V30 1833 H 172.618 -1.91751 -2.62034 0
M  V30 1834 H 173.629 -5.1208 -0.774235 0
M  V30 1835 H 170.306 -3.28007 -2.58298 0
M  V30 1836 H 171.696 -6.70479 -0.436813 0
M  V30 1837 N 174.416 0.165178 -1.56732 0
M  V30 1838 C 175.364 1.22369 -1.97809 0
M  V30 1839 C 176.358 1.45488 -0.867741 0
M  V30 1840 O 177.564 1.45995 -1.05288 0
M  V30 1841 H 173.939 0.411486 -0.629431 0
M  V30 1842 H 175.91 0.850425 -2.86025 0
M  V30 1843 C 174.659 2.55403 -2.35934 0
M  V30 1844 H 173.982 2.38438 -3.20916 0
M  V30 1845 H 175.422 3.2814 -2.68514 0
M  V30 1846 C 173.881 3.14611 -1.20506 0
M  V30 1847 O 174.411 3.98626 -0.496016 0
M  V30 1848 N 172.617 2.7379 -0.97403 0
M  V30 1849 H 172.164 2.0557 -1.55238 0
M  V30 1850 H 172.122 3.1374 -0.203573 0
M  V30 1851 N 175.894 1.51508 0.433938 0
M  V30 1852 C 177.305 1.56784 1.01369 0
M  V30 1853 C 177.656 0.393349 1.92217 0
M  V30 1854 O 176.781 -0.489441 2.10792 0
M  V30 1855 C 177.376 2.84144 1.8452 0
M  V30 1856 C 175.935 2.9198 2.37539 0
M  V30 1857 C 175.082 2.51482 1.16843 0
M  V30 1858 H 178.033 1.57236 0.215081 0
M  V30 1859 H 178.054 2.68098 2.70007 0
M  V30 1860 H 177.566 3.69607 1.18373 0
M  V30 1861 H 175.667 2.10955 3.0713 0
M  V30 1862 H 175.78 3.95704 2.70103 0
M  V30 1863 H 174.144 2.04758 1.51481 0
M  V30 1864 H 174.927 3.39293 0.523015 0
M  V30 1865 N 177.372 -0.689602 1.41712 0
M  V30 1866 C 178.62 -1.4468 1.4111 0
M  V30 1867 C 178.941 -1.94986 0.0232196 0
M  V30 1868 O 178.211 -1.72097 -0.935913 0
M  V30 1869 H 176.791 -0.536847 0.519427 0
M  V30 1870 H 179.453 -0.815825 1.77004 0
M  V30 1871 H 178.549 -2.30706 2.10193 0
M  V30 1872 N 178.85 -1.27639 -0.924453 0
M  V30 1873 C 180.098 -1.13941 -1.66918 0
M  V30 1874 C 180.419 0.314589 -1.92446 0
M  V30 1875 O 179.689 1.21964 -1.53303 0
M  V30 1876 H 178.269 -0.418678 -0.618642 0
M  V30 1877 H 180.931 -1.60213 -1.10985 0
M  V30 1878 H 180.027 -1.67094 -2.63602 0
M  V30 1879 N 180.328 1.1314 -1.09713 0
M  V30 1880 C 181.739 1.66029 -0.853885 0
M  V30 1881 C 182.09 1.86241 0.617142 0
M  V30 1882 O 181.215 1.5834 1.47503 0
M  V30 1883 C 181.81 3.01599 -1.5435 0
M  V30 1884 C 180.369 3.51467 -1.34714 0
M  V30 1885 C 179.516 2.26648 -1.59769 0
M  V30 1886 H 182.467 0.970226 -1.25588 0
M  V30 1887 H 182.488 3.67709 -0.978267 0
M  V30 1888 H 182 2.86856 -2.6141 0
M  V30 1889 H 180.101 3.71408 -0.297838 0
M  V30 1890 H 180.214 4.314 -2.08401 0
M  V30 1891 H 178.578 2.33385 -1.01998 0
M  V30 1892 H 179.361 2.14467 -2.68065 0
M  V30 1893 N 181.806 0.884767 1.30421 0
M  V30 1894 C 182.754 0.340869 2.30089 0
M  V30 1895 C 183.748 -0.55201 1.60154 0
M  V30 1896 O 184.954 -0.436467 1.74628 0
M  V30 1897 H 181.329 0.0915739 0.746404 0
M  V30 1898 H 183.3 1.19513 2.73421 0
M  V30 1899 C 182.049 -0.429779 3.45034 0
M  V30 1900 H 181.372 0.248024 3.9903 0
M  V30 1901 H 182.812 -0.775445 4.16849 0
M  V30 1902 C 181.271 -1.62677 2.95022 0
M  V30 1903 O 181.801 -2.72614 2.95033 0
M  V30 1904 N 180.007 -1.46387 2.51036 0
M  V30 1905 H 179.554 -0.569506 2.51226 0
M  V30 1906 H 179.512 -2.26612 2.17932 0
M  V30 1907 N 183.284 -1.43765 0.645699 0
M  V30 1908 C 184.532 -2.01499 0.155731 0
M  V30 1909 C 184.853 -1.51151 -1.232 0
M  V30 1910 O 184.123 -0.721044 -1.82148 0
M  V30 1911 H 182.703 -0.745003 0.0545817 0
M  V30 1912 H 185.365 -1.76075 0.835677 0
M  V30 1913 H 184.461 -3.1181 0.134577 0
M  V30 1914 N 184.763 -0.387143 -1.52771 0
M  V30 1915 C 186.04 0.253197 -1.93954 0
M  V30 1916 C 186.42 1.64545 -1.32243 0
M  V30 1917 O 185.768 2.23191 -0.489699 0
M  V30 1918 C 185.978 0.281722 -3.47861 0
M  V30 1919 C 187.326 0.511715 -4.21505 0
M  V30 1920 O 188.35 0.362023 -3.54356 0
M  V30 1921 O 187.209 0.804847 -5.40541 0
M  V30 1922 H 184.303 0.156845 -0.811991 0
M  V30 1923 H 186.849 -0.441494 -1.63856 0
M  V30 1924 H 185.621 -0.693571 -3.85104 0
M  V30 1925 H 185.244 1.02142 -3.84256 0
M  V30 1926 N 186.241 1.57166 -0.116904 0
M  V30 1927 C 187.488 1.95123 0.541603 0
M  V30 1928 C 187.816 1.00006 1.6682 0
M  V30 1929 O 187.071 0.0235658 1.95686 0
M  V30 1930 C 187.37 3.39508 1.11664 0
M  V30 1931 C 187.036 4.50762 0.111606 0
M  V30 1932 C 185.698 4.80918 -0.164758 0
M  V30 1933 C 188.05 5.18036 -0.573438 0
M  V30 1934 C 185.378 5.75666 -1.13249 0
M  V30 1935 C 187.73 6.13824 -1.52978 0
M  V30 1936 C 186.394 6.42374 -1.81415 0
M  V30 1937 H 185.664 0.714005 0.198187 0
M  V30 1938 H 188.311 1.9048 -0.197365 0
M  V30 1939 H 186.616 3.40835 1.93232 0
M  V30 1940 H 188.313 3.66189 1.63422 0
M  V30 1941 H 184.903 4.27272 0.337192 0
M  V30 1942 H 189.087 4.94896 -0.373092 0
M  V30 1943 H 184.343 5.96092 -1.35958 0
M  V30 1944 H 188.517 6.65039 -2.06629 0
M  V30 1945 H 186.144 7.15599 -2.56557 0
M  V30 1946 N 187.719 -0.156864 1.56817 0
M  V30 1947 C 188.967 -0.869404 1.82444 0
M  V30 1948 C 189.288 -1.82147 0.69623 0
M  V30 1949 O 188.558 -1.93847 -0.28287 0
M  V30 1950 H 187.138 -0.324043 0.673056 0
M  V30 1951 H 189.8 -0.153224 1.94297 0
M  V30 1952 H 188.896 -1.43761 2.77019 0
M  V30 1953 N 189.197 -1.51736 -0.425897 0
M  V30 1954 C 190.446 -1.64201 -1.17136 0
M  V30 1955 C 190.759 -0.369705 -1.92074 0
M  V30 1956 O 191.965 -0.373898 -2.68913 0
M  V30 1957 C 190.421 -2.90035 -2.13091 0
M  V30 1958 C 190.029 -4.24312 -1.43747 0
M  V30 1959 C 191.773 -3.1186 -2.87999 0
M  V30 1960 C 189.68 -5.41285 -2.38253 0
M  V30 1961 H 188.61 -0.611624 -0.440944 0
M  V30 1962 H 191.261 -1.78212 -0.437328 0
M  V30 1963 H 189.643 -2.69684 -2.89977 0
M  V30 1964 H 190.817 -4.55086 -0.723408 0
M  V30 1965 H 189.132 -4.08456 -0.809465 0
M  V30 1966 H 191.729 -3.96427 -3.58817 0
M  V30 1967 H 192.072 -2.25403 -3.49999 0
M  V30 1968 H 192.605 -3.32605 -2.18217 0
M  V30 1969 H 189.344 -6.30037 -1.80925 0
M  V30 1970 H 188.864 -5.14872 -3.0768 0
M  V30 1971 H 190.543 -5.73694 -2.99139 0
M  V30 1972 N 190.675 0.682077 -1.42076 0
M  V30 1973 C 191.622 1.79578 -1.44984 0
M  V30 1974 C 192.592 1.6332 -0.302614 0
M  V30 1975 O 193.777 1.83978 -0.505633 0
M  V30 1976 C 190.917 3.1756 -1.35091 0
M  V30 1977 C 190.03 3.45156 -2.59791 0
M  V30 1978 C 189.165 4.72826 -2.42093 0
M  V30 1979 C 188.204 4.93433 -3.62202 0
M  V30 1980 N 187.341 6.12338 -3.43491 0
M  V30 1981 H 192.181 1.76427 -2.40161 0
M  V30 1982 H 189.718 0.861376 -1.19242 0
M  V30 1983 H 191.676 3.97287 -1.27354 0
M  V30 1984 H 190.306 3.19854 -0.435133 0
M  V30 1985 H 189.358 2.59736 -2.77923 0
M  V30 1986 H 190.67 3.5628 -3.49094 0
M  V30 1987 H 189.824 5.60631 -2.319 0
M  V30 1988 H 188.563 4.63973 -1.50268 0
M  V30 1989 H 187.568 4.04073 -3.72834 0
M  V30 1990 H 188.793 5.04136 -4.54998 0
M  V30 1991 H 186.739 6.04672 -2.54377 0
M  V30 1992 H 186.656 6.2429 -4.26377 0
M  V30 1993 H 187.924 7.02841 -3.37097 0
M  V30 1994 N 192.153 1.28127 0.917671 0
M  V30 1995 C 193.4 1.15052 1.66641 0
M  V30 1996 C 193.728 -0.301677 1.92146 0
M  V30 1997 O 192.983 -1.23622 1.51711 0
M  V30 1998 C 193.282 1.89018 3.03327 0
M  V30 1999 C 192.948 3.38832 2.97496 0
M  V30 2000 C 191.61 3.79693 2.95613 0
M  V30 2001 C 193.962 4.34378 2.88036 0
M  V30 2002 C 191.29 5.14447 2.82066 0
M  V30 2003 C 193.642 5.69201 2.7603 0
M  V30 2004 C 192.306 6.09343 2.72502 0
M  V30 2005 H 191.576 0.421006 0.609783 0
M  V30 2006 H 194.223 1.58855 1.06945 0
M  V30 2007 H 192.528 1.37752 3.66785 0
M  V30 2008 H 194.225 1.76321 3.60156 0
M  V30 2009 H 190.815 3.06342 2.99754 0
M  V30 2010 H 194.999 4.03775 2.88581 0
M  V30 2011 H 190.255 5.44681 2.77728 0
M  V30 2012 H 194.429 6.42901 2.67678 0
M  V30 2013 H 192.056 7.13712 2.61762 0
M  V30 2014 N 193.631 -1.12557 1.10312 0
M  V30 2015 C 194.579 -2.20325 0.745629 0
M  V30 2016 C 195.573 -1.67429 -0.25763 0
M  V30 2017 O 196.779 -1.79612 -0.118132 0
M  V30 2018 H 193.154 -0.718118 0.223182 0
M  V30 2019 H 195.125 -2.47733 1.66346 0
M  V30 2020 C 193.874 -3.47168 0.192262 0
M  V30 2021 H 193.197 -3.88215 0.955475 0
M  V30 2022 H 194.637 -4.23995 -0.0198274 0
M  V30 2023 C 193.096 -3.19298 -1.07472 0
M  V30 2024 O 193.626 -3.3891 -2.15645 0
M  V30 2025 N 191.832 -2.73113 -0.992847 0
M  V30 2026 H 191.379 -2.57354 -0.112474 0
M  V30 2027 H 191.337 -2.54842 -1.84127 0
M  V30 2028 N 195.109 -0.891671 -1.2995 0
M  V30 2029 C 196.358 -0.509521 -1.95158 0
M  V30 2030 C 196.671 0.947388 -1.71125 0
M  V30 2031 O 197.877 1.43669 -2.30372 0
M  V30 2032 C 196.333 -0.860315 -3.49466 0
M  V30 2033 C 195.941 -2.33545 -3.8231 0
M  V30 2034 C 197.685 -0.547687 -4.20952 0
M  V30 2035 C 195.592 -2.62752 -5.29826 0
M  V30 2036 H 194.522 -0.18682 -0.730489 0
M  V30 2037 H 197.173 -1.08756 -1.47798 0
M  V30 2038 H 195.555 -0.211285 -3.95436 0
M  V30 2039 H 196.729 -3.02936 -3.47227 0
M  V30 2040 H 195.044 -2.61629 -3.23944 0
M  V30 2041 H 197.641 -0.742854 -5.29515 0
M  V30 2042 H 197.984 0.51332 -4.13123 0
M  V30 2043 H 198.517 -1.1542 -3.80688 0
M  V30 2044 H 195.256 -3.6762 -5.42712 0
M  V30 2045 H 194.776 -1.97977 -5.66185 0
M  V30 2046 H 196.455 -2.48601 -5.97333 0
M  V30 2047 N 196.587 1.43421 -0.653314 0
M  V30 2048 C 197.812 2.06678 -0.172846 0
M  V30 2049 C 198.237 1.48648 1.15262 0
M  V30 2050 O 197.595 0.596457 1.71208 0
M  V30 2051 C 197.643 3.60474 -0.0953184 0
M  V30 2052 O 196.747 4.01487 0.942442 0
M  V30 2053 H 196.088 0.657181 -0.0949155 0
M  V30 2054 H 198.618 1.83925 -0.896265 0
M  V30 2055 H 198.628 4.07905 0.0879728 0
M  V30 2056 H 197.303 4.02088 -1.06291 0
M  V30 2057 H 195.88 3.65646 0.731932 0
M  V30 2058 N 198.065 0.39524 1.52563 0
M  V30 2059 C 199.013 -0.451859 2.28169 0
M  V30 2060 C 200.007 -1.05792 1.32304 0
M  V30 2061 O 201.213 -0.997718 1.49818 0
M  V30 2062 H 197.588 -0.164481 0.733792 0
M  V30 2063 H 199.559 0.207199 2.9768 0
M  V30 2064 C 198.308 -1.56385 3.10546 0
M  V30 2065 H 197.631 -1.10682 3.84174 0
M  V30 2066 H 199.071 -2.13067 3.66577 0
M  V30 2067 C 197.53 -2.52328 2.23231 0
M  V30 2068 O 198.06 -3.5588 1.86312 0
M  V30 2069 N 196.266 -2.22209 1.87274 0
M  V30 2070 H 195.813 -1.38033 2.17496 0
M  V30 2071 H 195.771 -2.86652 1.29143 0
M  V30 2072 N 199.544 -1.57102 0.125237 0
M  V30 2073 C 200.792 -1.95021 -0.530198 0
M  V30 2074 C 201.113 -1.00982 -1.66816 0
M  V30 2075 O 200.383 -0.0672693 -1.95784 0
M  V30 2076 H 198.963 -0.720046 -0.198853 0
M  V30 2077 H 201.625 -1.93916 0.19564 0
M  V30 2078 H 200.721 -2.98211 -0.920681 0
M  V30 2079 N 201.022 0.148545 -1.56898 0
M  V30 2080 C 202.27 0.859717 -1.82902 0
M  V30 2081 C 202.591 1.81775 -0.70588 0
M  V30 2082 O 201.861 1.93994 0.272586 0
M  V30 2083 H 200.441 0.320469 -0.674766 0
M  V30 2084 H 203.103 0.142918 -1.94375 0
M  V30 2085 H 202.199 1.4229 -2.77777 0
M  V30 2086 N 202.5 1.5196 0.417844 0
M  V30 2087 C 203.911 1.57851 0.997 0
M  V30 2088 C 204.262 0.413714 1.91789 0
M  V30 2089 O 203.387 -0.467057 2.113 0
M  V30 2090 C 203.982 2.86085 1.81496 0
M  V30 2091 C 202.541 2.94483 2.34428 0
M  V30 2092 C 201.688 2.52707 1.14169 0
M  V30 2093 H 204.639 1.57455 0.198392 0
M  V30 2094 H 204.66 2.70947 2.67148 0
M  V30 2095 H 204.172 3.70842 1.14446 0
M  V30 2096 H 202.273 2.142 3.04875 0
M  V30 2097 H 202.386 3.98546 2.65891 0
M  V30 2098 H 200.75 2.06353 1.49301 0
M  V30 2099 H 201.533 3.39828 0.486999 0
M  V30 2100 N 203.978 -0.674533 1.42435 0
M  V30 2101 C 204.941 -1.76986 1.45632 0
M  V30 2102 C 205.941 -1.5708 0.343871 0
M  V30 2103 O 207.131 -1.63367 0.604709 0
M  V30 2104 C 204.263 -3.15623 1.28822 0
M  V30 2105 H 205.456 -1.75539 2.43158 0
M  V30 2106 H 203.009 -0.884189 1.28887 0
M  V30 2107 H 203.744 -3.22696 0.322193 0
M  V30 2108 H 203.529 -3.31475 2.09444 0
M  V30 2109 H 205.019 -3.95537 1.33942 0
M  V30 2110 N 205.456 -1.28612 -0.910864 0
M  V30 2111 C 206.867 -1.14406 -1.47541 0
M  V30 2112 C 207.218 0.264901 -1.94403 0
M  V30 2113 O 206.343 1.15942 -1.82719 0
M  V30 2114 C 206.938 -2.07073 -2.68153 0
M  V30 2115 C 205.497 -1.96923 -3.20778 0
M  V30 2116 C 204.644 -1.98646 -1.93481 0
M  V30 2117 H 207.595 -1.41259 -0.723291 0
M  V30 2118 H 207.616 -1.63642 -3.43514 0
M  V30 2119 H 207.128 -3.09611 -2.34015 0
M  V30 2120 H 205.229 -0.97433 -3.59635 0
M  V30 2121 H 205.342 -2.84026 -3.85832 0
M  V30 2122 H 203.706 -1.43093 -2.10705 0
M  V30 2123 H 204.489 -3.02868 -1.61634 0
M  V30 2124 N 206.934 1.1197 -1.10907 0
M  V30 2125 C 207.844 2.21433 -0.774896 0
M  V30 2126 C 208.86 1.72478 0.229657 0
M  V30 2127 O 210.036 2.01288 0.0672008 0
M  V30 2128 C 207.101 3.4602 -0.216986 0
M  V30 2129 C 206.162 4.09791 -1.27944 0
M  V30 2130 C 205.395 5.28431 -0.748055 0
M  V30 2131 O 205.618 5.68823 0.423833 0
M  V30 2132 O 204.552 5.82644 -1.51027 0
M  V30 2133 H 208.378 2.5242 -1.68873 0
M  V30 2134 H 205.963 1.20399 -0.884555 0
M  V30 2135 H 207.845 4.21304 0.090059 0
M  V30 2136 H 206.52 3.16698 0.669633 0
M  V30 2137 H 205.427 3.36265 -1.63941 0
M  V30 2138 H 206.76 4.4328 -2.13925 0
M  V30 2139 N 208.412 0.89855 1.29475 0
M  V30 2140 C 209.375 0.380272 2.26023 0
M  V30 2141 C 210.375 -0.484891 1.53315 0
M  V30 2142 O 211.565 -0.290108 1.71767 0
M  V30 2143 C 208.697 -0.45651 3.3783 0
M  V30 2144 H 209.89 1.23295 2.73383 0
M  V30 2145 H 207.443 0.676589 1.40897 0
M  V30 2146 H 208.178 -1.32922 2.95808 0
M  V30 2147 H 207.963 0.163393 3.91759 0
M  V30 2148 H 209.453 -0.810466 4.0966 0
M  V30 2149 N 209.89 -1.43072 0.660911 0
M  V30 2150 C 211.139 -2.00942 0.174735 0
M  V30 2151 C 211.452 -1.52797 -1.22117 0
M  V30 2152 O 212.658 -2.02991 -1.80297 0
M  V30 2153 C 211.114 -3.58948 0.261559 0
M  V30 2154 C 210.722 -4.16085 1.66064 0
M  V30 2155 C 212.466 -4.24173 -0.166617 0
M  V30 2156 C 210.373 -5.6641 1.70098 0
M  V30 2157 H 209.303 -0.751483 0.0615631 0
M  V30 2158 H 211.954 -1.63955 0.824069 0
M  V30 2159 H 210.336 -3.93372 -0.455421 0
M  V30 2160 H 211.51 -3.93147 2.40359 0
M  V30 2161 H 209.825 -3.6326 2.03546 0
M  V30 2162 H 212.422 -5.34471 -0.156433 0
M  V30 2163 H 212.765 -3.98647 -1.19943 0
M  V30 2164 H 213.298 -3.94659 0.498875 0
M  V30 2165 H 210.037 -5.96715 2.71315 0
M  V30 2166 H 209.557 -5.91382 1.00139 0
M  V30 2167 H 211.236 -6.30585 1.44816 0
M  V30 2168 N 211.368 -0.403325 -1.52352 0
M  V30 2169 C 212.596 0.174012 -2.06167 0
M  V30 2170 C 213.011 1.39347 -1.27388 0
M  V30 2171 O 212.368 1.79597 -0.324201 0
M  V30 2172 C 212.419 0.530223 -3.5759 0
M  V30 2173 O 212.14 -0.640806 -4.33388 0
M  V30 2174 C 213.641 1.16192 -4.27802 0
M  V30 2175 H 210.861 0.0229464 -0.670608 0
M  V30 2176 H 213.405 -0.572604 -1.9632 0
M  V30 2177 H 211.56 1.22673 -3.67464 0
M  V30 2178 H 211.974 -0.344851 -5.23365 0
M  V30 2179 H 213.448 1.36141 -5.34948 0
M  V30 2180 H 213.925 2.13335 -3.83907 0
M  V30 2181 H 214.531 0.505775 -4.22282 0
M  V30 2182 N 212.846 1.57033 -0.133567 0
M  V30 2183 C 214.123 1.87256 0.56522 0
M  V30 2184 C 214.503 1.03726 1.83859 0
M  V30 2185 O 213.851 0.120247 2.28183 0
M  V30 2186 C 214.061 3.3865 0.843636 0
M  V30 2187 C 215.409 4.07574 1.19032 0
M  V30 2188 O 216.433 3.43752 0.933429 0
M  V30 2189 O 215.292 5.20259 1.67312 0
M  V30 2190 H 212.386 0.775678 0.286796 0
M  V30 2191 H 214.932 1.68855 -0.169168 0
M  V30 2192 H 213.704 3.91257 -0.0581149 0
M  V30 2193 H 213.327 3.62532 1.63268 0
M  V30 2194 N 214.325 -0.140222 1.56975 0
M  V30 2195 C 215.272 -1.17292 1.98774 0
M  V30 2196 C 216.242 -1.4232 0.856408 0
M  V30 2197 O 217.427 -1.54541 1.119 0
M  V30 2198 C 214.567 -2.49973 2.37923 0
M  V30 2199 C 213.68 -2.32062 3.64378 0
M  V30 2200 C 212.815 -3.57825 3.926 0
M  V30 2201 C 211.854 -3.3498 5.12303 0
M  V30 2202 N 210.991 -4.52891 5.36502 0
M  V30 2203 H 215.831 -0.809472 2.86795 0
M  V30 2204 H 213.368 -0.388237 1.41884 0
M  V30 2205 H 215.326 -3.27346 2.58652 0
M  V30 2206 H 213.956 -2.84252 1.52972 0
M  V30 2207 H 213.008 -1.45711 3.51387 0
M  V30 2208 H 214.32 -2.11145 4.51906 0
M  V30 2209 H 213.474 -4.43624 4.13863 0
M  V30 2210 H 212.213 -3.81753 3.03506 0
M  V30 2211 H 211.218 -2.4757 4.90906 0
M  V30 2212 H 212.443 -3.12444 6.02956 0
M  V30 2213 H 210.389 -4.76979 4.50363 0
M  V30 2214 H 210.306 -4.35001 6.18312 0
M  V30 2215 H 211.574 -5.39884 5.62268 0
M  V30 2216 N 215.803 -1.52179 -0.40978 0
M  V30 2217 C 217.052 -1.65434 -1.15388 0
M  V30 2218 C 217.365 -0.390056 -1.91671 0
M  V30 2219 O 218.571 -0.402399 -2.68501 0
M  V30 2220 C 217.027 -2.92279 -2.10003 0
M  V30 2221 C 216.635 -4.25813 -1.39239 0
M  V30 2222 C 218.379 -3.14897 -2.84675 0
M  V30 2223 C 216.286 -5.43782 -2.32498 0
M  V30 2224 H 215.216 -0.616267 -0.434432 0
M  V30 2225 H 217.867 -1.78666 -0.418401 0
M  V30 2226 H 216.249 -2.72744 -2.871 0
M  V30 2227 H 217.423 -4.55828 -0.675099 0
M  V30 2228 H 215.738 -4.09292 -0.766097 0
M  V30 2229 H 218.335 -4.0021 -3.54593 0
M  V30 2230 H 218.678 -2.29103 -3.47588 0
M  V30 2231 H 219.211 -3.34901 -2.14677 0
M  V30 2232 H 215.95 -6.3192 -1.74233 0
M  V30 2233 H 215.47 -5.18106 -3.02201 0
M  V30 2234 H 217.149 -5.76834 -2.93038 0
M  V30 2235 N 217.281 0.66697 -1.42791 0
M  V30 2236 C 218.528 1.42699 -1.43678 0
M  V30 2237 C 218.856 1.94419 -0.0560425 0
M  V30 2238 O 218.111 1.7182 0.936831 0
M  V30 2239 C 218.41 2.6349 -2.4147 0
M  V30 2240 C 218.076 2.30267 -3.8767 0
M  V30 2241 C 216.738 2.20918 -4.27491 0
M  V30 2242 C 219.09 2.03435 -4.79858 0
M  V30 2243 C 216.418 1.82873 -5.57471 0
M  V30 2244 C 218.77 1.66892 -6.10188 0
M  V30 2245 C 217.434 1.56058 -6.49001 0
M  V30 2246 H 216.704 0.522171 -0.525755 0
M  V30 2247 H 219.351 0.759785 -1.75783 0
M  V30 2248 H 217.656 3.35279 -2.0272 0
M  V30 2249 H 219.353 3.21684 -2.39417 0
M  V30 2250 H 215.943 2.38449 -3.56146 0
M  V30 2251 H 220.127 2.09586 -4.49875 0
M  V30 2252 H 215.383 1.7306 -5.86396 0
M  V30 2253 H 219.557 1.45157 -6.81104 0
M  V30 2254 H 217.184 1.26348 -7.49627 0
M  V30 2255 N 218.759 1.29093 0.90403 0
M  V30 2256 C 219.691 1.09658 2.01266 0
M  V30 2257 C 220.704 0.0453729 1.62737 0
M  V30 2258 O 221.893 0.289446 1.76138 0
M  V30 2259 C 218.993 0.646278 3.32681 0
M  V30 2260 C 218.166 1.77505 3.99763 0
M  V30 2261 C 217.225 1.31649 5.09465 0
M  V30 2262 O 216.251 2.02045 5.32134 0
M  V30 2263 N 217.453 0.184997 5.80205 0
M  V30 2264 H 220.218 2.05135 2.18494 0
M  V30 2265 H 217.779 1.20975 1.07594 0
M  V30 2266 H 219.771 0.322906 4.0341 0
M  V30 2267 H 218.341 -0.215916 3.11853 0
M  V30 2268 H 217.561 2.26752 3.22455 0
M  V30 2269 H 218.849 2.53198 4.41325 0
M  V30 2270 H 218.247 -0.402021 5.6427 0
M  V30 2271 H 216.804 -0.0790358 6.51752 0
M  V30 2272 N 220.237 -1.11381 1.11499 0
M  V30 2273 C 221.486 -1.82494 0.858993 0
M  V30 2274 C 221.799 -1.85605 -0.617278 0
M  V30 2275 O 223.005 -2.52824 -0.989552 0
M  V30 2276 C 221.461 -3.27745 1.48699 0
M  V30 2277 C 221.069 -3.32961 2.99735 0
M  V30 2278 C 222.813 -4.03754 1.31085 0
M  V30 2279 C 220.72 -4.72612 3.55516 0
M  V30 2280 H 219.65 -0.683802 0.317696 0
M  V30 2281 H 222.301 -1.25331 1.34031 0
M  V30 2282 H 220.683 -3.84844 0.933339 0
M  V30 2283 H 221.857 -2.85741 3.61509 0
M  V30 2284 H 220.172 -2.70433 3.16631 0
M  V30 2285 H 222.769 -5.06891 1.70192 0
M  V30 2286 H 223.112 -4.15527 0.253496 0
M  V30 2287 H 223.645 -3.53043 1.83318 0
M  V30 2288 H 220.384 -4.66036 4.60967 0
M  V30 2289 H 219.904 -5.2024 2.98513 0
M  V30 2290 H 221.583 -5.4157 3.53992 0
M  V30 2291 N 221.715 -0.905404 -1.28997 0
M  V30 2292 C 222.94 -0.549175 -1.99997 0
M  V30 2293 C 223.365 0.860276 -1.67275 0
M  V30 2294 O 222.723 1.57355 -0.900502 0
M  V30 2295 C 222.771 -0.755185 -3.52604 0
M  V30 2296 O 221.875 0.189692 -4.11964 0
M  V30 2297 H 221.216 -0.213899 -0.628604 0
M  V30 2298 H 223.746 -1.21856 -1.64354 0
M  V30 2299 H 223.756 -0.662045 -4.02593 0
M  V30 2300 H 222.431 -1.78271 -3.75755 0
M  V30 2301 H 221.008 0.0485257 -3.72868 0
M  V30 2302 N 223.193 1.4272 -0.668489 0
M  V30 2303 C 224.14 2.30796 0.0137489 0
M  V30 2304 C 225.11 1.4561 0.799177 0
M  V30 2305 O 226.295 1.74453 0.772702 0
M  V30 2306 C 223.435 3.31377 0.963507 0
M  V30 2307 C 222.548 4.31655 0.172569 0
M  V30 2308 C 221.683 5.19312 1.1175 0
M  V30 2309 C 220.722 6.11274 0.317886 0
M  V30 2310 N 219.859 6.91504 1.2152 0
M  V30 2311 H 224.699 2.88585 -0.743161 0
M  V30 2312 H 222.236 1.42154 -0.378226 0
M  V30 2313 H 224.194 3.88214 1.52792 0
M  V30 2314 H 222.824 2.75202 1.68712 0
M  V30 2315 H 221.876 3.76988 -0.508374 0
M  V30 2316 H 223.188 4.96779 -0.448527 0
M  V30 2317 H 222.342 5.80851 1.75206 0
M  V30 2318 H 221.081 4.5435 1.77249 0
M  V30 2319 H 220.086 5.48809 -0.329918 0
M  V30 2320 H 221.311 6.78283 -0.332917 0
M  V30 2321 H 219.257 6.29176 1.85671 0
M  V30 2322 H 219.174 7.53209 0.649036 0
M  V30 2323 H 220.442 7.57535 1.83742 0
M  V30 2324 N 224.671 0.411399 1.52136 0
M  V30 2325 C 225.899 -0.163076 2.06256 0
M  V30 2326 C 226.314 -1.3867 1.28125 0
M  V30 2327 O 225.671 -1.79423 0.333721 0
M  V30 2328 C 225.722 -0.511252 3.57867 0
M  V30 2329 O 225.443 0.66378 4.33042 0
M  V30 2330 C 226.944 -1.13921 4.28412 0
M  V30 2331 H 224.164 -0.0193897 0.67072 0
M  V30 2332 H 226.708 0.583007 1.96013 0
M  V30 2333 H 224.863 -1.20723 3.6811 0
M  V30 2334 H 225.277 0.372601 5.23175 0
M  V30 2335 H 226.751 -1.33302 5.35663 0
M  V30 2336 H 227.228 -2.11296 3.85033 0
M  V30 2337 H 227.834 -0.483373 4.22544 0
M  V30 2338 N 226.149 -1.5696 0.141893 0
M  V30 2339 C 227.398 -1.95135 -0.510427 0
M  V30 2340 C 227.711 -1.02896 -1.66348 0
M  V30 2341 O 228.917 -1.30629 -2.38009 0
M  V30 2342 C 227.373 -3.46876 -0.959427 0
M  V30 2343 C 226.981 -4.47691 0.166419 0
M  V30 2344 C 228.725 -3.93927 -1.58183 0
M  V30 2345 C 226.632 -5.90636 -0.300565 0
M  V30 2346 H 225.562 -0.728494 -0.194454 0
M  V30 2347 H 228.213 -1.8211 0.22542 0
M  V30 2348 H 226.595 -3.55215 -1.75038 0
M  V30 2349 H 227.769 -4.51043 0.94325 0
M  V30 2350 H 226.084 -4.10527 0.696905 0
M  V30 2351 H 228.681 -4.98158 -1.94275 0
M  V30 2352 H 229.024 -3.3519 -2.46888 0
M  V30 2353 H 229.557 -3.88484 -0.855863 0
M  V30 2354 H 226.296 -6.5318 0.550989 0
M  V30 2355 H 225.816 -5.90655 -1.04338 0
M  V30 2356 H 227.495 -6.42588 -0.754265 0
M  V30 2357 N 227.627 0.131896 -1.57047 0
M  V30 2358 C 228.537 1.1815 -2.02676 0
M  V30 2359 C 229.553 1.46113 -0.944824 0
M  V30 2360 O 230.729 1.57485 -1.25541 0
M  V30 2361 C 227.794 2.49139 -2.41103 0
M  V30 2362 C 226.855 2.28688 -3.63318 0
M  V30 2363 C 226.088 3.53431 -3.99903 0
M  V30 2364 O 226.311 4.60223 -3.36973 0
M  V30 2365 O 225.245 3.45198 -4.93074 0
M  V30 2366 H 229.071 0.824069 -2.92306 0
M  V30 2367 H 226.656 0.341745 -1.45439 0
M  V30 2368 H 228.538 3.26338 -2.66611 0
M  V30 2369 H 227.213 2.84382 -1.54624 0
M  V30 2370 H 226.12 1.4939 -3.42977 0
M  V30 2371 H 227.453 1.98355 -4.50462 0
M  V30 2372 N 229.106 1.52395 0.401703 0
M  V30 2373 C 230.016 1.7917 1.51444 0
M  V30 2374 C 231.032 0.677691 1.6026 0
M  V30 2375 O 232.208 0.963909 1.76835 0
M  V30 2376 C 229.273 1.94347 2.87107 0
M  V30 2377 C 228.334 3.18257 2.88116 0
M  V30 2378 C 227.567 3.32701 4.17308 0
M  V30 2379 O 227.79 2.52238 5.11598 0
M  V30 2380 O 226.724 4.25891 4.25324 0
M  V30 2381 H 230.55 2.73633 1.31752 0
M  V30 2382 H 228.135 1.3733 0.588296 0
M  V30 2383 H 230.017 2.06109 3.67555 0
M  V30 2384 H 228.692 1.03073 3.06851 0
M  V30 2385 H 227.599 3.11947 2.06494 0
M  V30 2386 H 228.932 4.09336 2.73322 0
M  V30 2387 N 230.584 -0.659388 1.43143 0
M  V30 2388 C 231.814 -1.44513 1.47646 0
M  V30 2389 C 232.222 -1.88981 0.0910095 0
M  V30 2390 O 231.565 -1.59702 -0.907789 0
M  V30 2391 C 231.627 -2.71663 2.35456 0
M  V30 2392 C 231.291 -2.49175 3.83094 0
M  V30 2393 C 232.288 -2.1279 4.74359 0
M  V30 2394 C 229.973 -2.63691 4.27519 0
M  V30 2395 C 231.967 -1.9121 6.08044 0
M  V30 2396 C 229.654 -2.41726 5.61259 0
M  V30 2397 C 230.652 -2.0554 6.51339 0
M  V30 2398 O 230.34 -1.838 7.82606 0
M  V30 2399 H 230.072 -0.45064 0.503884 0
M  V30 2400 H 232.626 -0.816248 1.88485 0
M  V30 2401 H 230.856 -3.37089 1.89493 0
M  V30 2402 H 232.545 -3.33595 2.31235 0
M  V30 2403 H 233.311 -2.01157 4.41317 0
M  V30 2404 H 229.19 -2.90832 3.57684 0
M  V30 2405 H 232.734 -1.62889 6.78316 0
M  V30 2406 H 228.631 -2.52959 5.9387 0
M  V30 2407 H 229.399 -1.98275 7.94122 0
M  V30 2408 N 232.062 -1.29571 -0.897171 0
M  V30 2409 C 233.025 -1.14913 -1.98312 0
M  V30 2410 C 234.025 -0.0838629 -1.60581 0
M  V30 2411 O 235.215 -0.331006 -1.71026 0
M  V30 2412 C 232.347 -0.757835 -3.3237 0
M  V30 2413 H 233.54 -2.11377 -2.12743 0
M  V30 2414 H 231.093 -1.12793 -1.08201 0
M  V30 2415 H 231.828 0.206837 -3.2364 0
M  V30 2416 H 231.613 -1.52755 -3.61121 0
M  V30 2417 H 233.103 -0.678408 -4.12053 0
M  V30 2418 N 233.54 1.10788 -1.12088 0
M  V30 2419 C 234.786 1.82942 -0.875226 0
M  V30 2420 C 235.119 1.84779 0.597538 0
M  V30 2421 O 234.394 1.30578 1.44152 0
M  V30 2422 C 234.677 3.29789 -1.44606 0
M  V30 2423 C 234.53 3.36307 -2.98693 0
M  V30 2424 C 235.849 4.26064 -1.10261 0
M  V30 2425 H 232.968 0.664195 -0.319397 0
M  V30 2426 H 235.61 1.29867 -1.38689 0
M  V30 2427 H 233.76 3.75118 -1.01089 0
M  V30 2428 H 235.432 2.99487 -3.50864 0
M  V30 2429 H 233.675 2.76318 -3.34411 0
M  V30 2430 H 234.346 4.39694 -3.33726 0
M  V30 2431 H 236.822 3.88951 -1.4784 0
M  V30 2432 H 235.698 5.27183 -1.52869 0
M  V30 2433 H 235.959 4.42098 -0.0142953 0
M  V30 2434 N 235.018 0.912232 1.28515 0
M  V30 2435 C 236.258 0.551677 1.96814 0
M  V30 2436 C 236.622 -0.887825 1.7024 0
M  V30 2437 O 237.823 -1.35588 2.32098 0
M  V30 2438 C 236.094 0.850555 3.47132 0
M  V30 2439 S 237.653 0.59619 4.34731 0
M  V30 2440 H 234.471 0.204191 0.681049 0
M  V30 2441 H 237.073 1.17736 1.56072 0
M  V30 2442 H 235.777 1.8962 3.63968 0
M  V30 2443 H 235.308 0.213471 3.9282 0
M  V30 2444 H 237.323 -0.553154 4.93107 0
M  V30 2445 N 236.496 -1.42363 0.676048 0
M  V30 2446 C 237.907 -1.84649 0.275948 0
M  V30 2447 C 238.258 -1.56588 -1.18214 0
M  V30 2448 O 237.383 -1.02634 -1.90513 0
M  V30 2449 C 237.978 -3.35178 0.494053 0
M  V30 2450 C 236.537 -3.76109 0.148061 0
M  V30 2451 C 235.684 -2.65931 0.785891 0
M  V30 2452 H 238.635 -1.32192 0.878121 0
M  V30 2453 H 238.656 -3.79655 -0.25343 0
M  V30 2454 H 238.168 -3.55571 1.55535 0
M  V30 2455 H 236.269 -3.61323 -0.909742 0
M  V30 2456 H 236.382 -4.7546 0.589454 0
M  V30 2457 H 234.746 -2.53773 0.217113 0
M  V30 2458 H 235.529 -2.89146 1.85067 0
M  V30 2459 N 237.974 -0.419461 -1.51915 0
M  V30 2460 C 239.251 0.211999 -1.94448 0
M  V30 2461 C 239.631 1.61703 -1.35703 0
M  V30 2462 O 238.979 2.22102 -0.536931 0
M  V30 2463 C 239.189 0.207872 -3.4838 0
M  V30 2464 C 240.537 0.422192 -4.22496 0
M  V30 2465 O 241.561 0.286778 -3.55044 0
M  V30 2466 O 240.42 0.690009 -5.42126 0
M  V30 2467 H 237.514 0.139586 -0.815135 0
M  V30 2468 H 240.06 -0.476151 -1.62883 0
M  V30 2469 H 238.832 -0.775102 -3.83546 0
M  V30 2470 H 238.455 0.939688 -3.86336 0
M  V30 2471 N 239.452 1.56882 -0.150215 0
M  V30 2472 C 240.382 2.19935 0.784284 0
M  V30 2473 C 241.363 1.14854 1.25469 0
M  V30 2474 O 242.548 1.43209 1.31168 0
M  V30 2475 C 239.678 2.82349 2.02229 0
M  V30 2476 C 238.632 3.93285 1.68853 0
M  V30 2477 C 237.958 4.42649 2.99944 0
M  V30 2478 C 239.258 5.13904 0.932714 0
M  V30 2479 H 240.952 2.9828 0.258781 0
M  V30 2480 H 238.498 1.43473 0.123029 0
M  V30 2481 H 240.451 3.25126 2.68088 0
M  V30 2482 H 239.175 2.0134 2.57157 0
M  V30 2483 H 237.834 3.5113 1.05371 0
M  V30 2484 H 237.482 3.58458 3.52869 0
M  V30 2485 H 237.182 5.17476 2.78374 0
M  V30 2486 H 238.706 4.88099 3.66868 0
M  V30 2487 H 240.12 5.53506 1.49345 0
M  V30 2488 H 238.517 5.94515 0.81684 0
M  V30 2489 H 239.587 4.84842 -0.0749568 0
M  V30 2490 N 240.93 -0.123565 1.57115 0
M  V30 2491 C 241.877 -1.15177 2.00007 0
M  V30 2492 C 242.847 -1.41403 0.871454 0
M  V30 2493 O 244.032 -1.53346 1.13533 0
M  V30 2494 C 241.172 -2.47436 2.40561 0
M  V30 2495 C 240.285 -2.28184 3.66819 0
M  V30 2496 C 239.42 -3.53641 3.96373 0
M  V30 2497 C 238.459 -3.29528 5.15827 0
M  V30 2498 N 237.596 -4.47175 5.41275 0
M  V30 2499 H 242.436 -0.779008 2.87638 0
M  V30 2500 H 239.973 -0.373166 1.42288 0
M  V30 2501 H 241.931 -3.24584 2.62109 0
M  V30 2502 H 240.561 -2.82614 1.55978 0
M  V30 2503 H 239.613 -1.41976 3.52912 0
M  V30 2504 H 240.925 -2.0634 4.5412 0
M  V30 2505 H 240.079 -4.39209 4.18545 0
M  V30 2506 H 238.818 -3.78512 3.07538 0
M  V30 2507 H 237.823 -2.42349 4.93505 0
M  V30 2508 H 239.048 -3.06031 6.06236 0
M  V30 2509 H 236.994 -4.72175 4.55397 0
M  V30 2510 H 236.911 -4.28419 6.22891 0
M  V30 2511 H 238.179 -5.3389 5.67963 0
M  V30 2512 N 242.408 -1.52605 -0.393616 0
M  V30 2513 C 243.654 -1.67672 -1.14079 0
M  V30 2514 C 243.987 -0.413121 -1.89755 0
M  V30 2515 O 243.262 0.588952 -1.85369 0
M  V30 2516 C 243.545 -2.9088 -2.12276 0
M  V30 2517 C 243.398 -4.27329 -1.40394 0
M  V30 2518 C 244.717 -3.09628 -3.12759 0
M  V30 2519 H 241.836 -0.610168 -0.413356 0
M  V30 2520 H 244.478 -1.85193 -0.424696 0
M  V30 2521 H 242.628 -2.76073 -2.73342 0
M  V30 2522 H 244.3 -4.53894 -0.82327 0
M  V30 2523 H 242.543 -4.2802 -0.705801 0
M  V30 2524 H 243.214 -5.09615 -2.12123 0
M  V30 2525 H 245.69 -3.23436 -2.61779 0
M  V30 2526 H 244.566 -3.97322 -3.78717 0
M  V30 2527 H 244.827 -2.23637 -3.81365 0
M  V30 2528 N 243.887 0.651787 -1.4349 0
M  V30 2529 C 245.164 1.40909 -1.35661 0
M  V30 2530 C 245.544 2.11099 -0.00511733 0
M  V30 2531 O 244.892 2.04892 1.0115 0
M  V30 2532 C 245.102 2.3926 -2.54078 0
M  V30 2533 C 246.45 3.03217 -2.97228 0
M  V30 2534 O 247.474 2.49588 -2.54135 0
M  V30 2535 O 246.333 4.00455 -3.71885 0
M  V30 2536 H 243.427 0.629625 -0.536191 0
M  V30 2537 H 245.973 0.678575 -1.55542 0
M  V30 2538 H 244.745 1.86352 -3.44076 0
M  V30 2539 H 244.368 3.1976 -2.36303 0
M  V30 2540 N 245.365 1.30045 0.890287 0
M  V30 2541 C 246.295 1.18541 2.01172 0
M  V30 2542 C 247.276 0.0773356 1.69924 0
M  V30 2543 O 248.461 0.25845 1.92473 0
M  V30 2544 C 245.591 0.870941 3.36202 0
M  V30 2545 C 244.545 1.93637 3.81692 0
M  V30 2546 C 243.871 1.475 5.13953 0
M  V30 2547 C 245.171 3.34666 4.00994 0
M  V30 2548 H 246.865 2.12359 2.11054 0
M  V30 2549 H 244.411 1.02238 1.01407 0
M  V30 2550 H 246.364 0.777141 4.14172 0
M  V30 2551 H 245.088 -0.102926 3.26438 0
M  V30 2552 H 243.747 2.01972 3.05946 0
M  V30 2553 H 243.395 0.489551 5.00612 0
M  V30 2554 H 243.095 2.1876 5.4536 0
M  V30 2555 H 244.619 1.39489 5.94454 0
M  V30 2556 H 246.033 3.2912 4.69417 0
M  V30 2557 H 244.43 4.03966 4.43769 0
M  V30 2558 H 245.5 3.76949 3.05021 0
M  V30 2559 N 246.843 -1.10192 1.12674 0
M  V30 2560 C 248.091 -1.81845 0.881861 0
M  V30 2561 C 248.412 -1.85737 -0.593867 0
M  V30 2562 O 247.682 -1.33724 -1.4316 0
M  V30 2563 H 246.262 -0.673432 0.323261 0
M  V30 2564 H 248.924 -1.33316 1.42172 0
M  V30 2565 H 248.02 -2.85288 1.2656 0
M  V30 2566 N 248.321 -0.919034 -1.28029 0
M  V30 2567 C 249.567 -0.555757 -1.95036 0
M  V30 2568 C 249.9 0.899198 -1.72128 0
M  V30 2569 O 249.175 1.64023 -1.04531 0
M  V30 2570 C 249.458 -0.872024 -3.49382 0
M  V30 2571 C 249.311 -2.3801 -3.81669 0
M  V30 2572 C 250.63 -0.37185 -4.38526 0
M  V30 2573 H 247.749 -0.203386 -0.708381 0
M  V30 2574 H 250.391 -1.14924 -1.51303 0
M  V30 2575 H 248.541 -0.366946 -3.86763 0
M  V30 2576 H 250.213 -2.9562 -3.54128 0
M  V30 2577 H 248.456 -2.83289 -3.28526 0
M  V30 2578 H 249.127 -2.55192 -4.8947 0
M  V30 2579 H 251.603 -0.804602 -4.08247 0
M  V30 2580 H 250.479 -0.622173 -5.45362 0
M  V30 2581 H 250.74 0.727934 -4.36066 0
M  V30 2582 N 249.799 1.42003 -0.683588 0
M  V30 2583 C 250.729 2.33487 -0.024866 0
M  V30 2584 C 251.71 1.51163 0.779975 0
M  V30 2585 O 252.895 1.79739 0.735362 0
M  V30 2586 C 250.025 3.3487 0.920836 0
M  V30 2587 C 248.979 4.27414 0.223958 0
M  V30 2588 C 248.305 5.19074 1.2832 0
M  V30 2589 C 249.605 5.14445 -0.90242 0
M  V30 2590 H 251.299 2.88819 -0.788921 0
M  V30 2591 H 248.845 1.38873 -0.38083 0
M  V30 2592 H 250.798 3.97787 1.39081 0
M  V30 2593 H 249.522 2.77861 1.71642 0
M  V30 2594 H 248.181 3.65904 -0.225864 0
M  V30 2595 H 247.829 4.58387 2.071 0
M  V30 2596 H 247.529 5.81822 0.821995 0
M  V30 2597 H 249.053 5.84867 1.75392 0
M  V30 2598 H 250.467 5.70998 -0.513272 0
M  V30 2599 H 248.864 5.86072 -1.28997 0
M  V30 2600 H 249.934 4.52322 -1.74737 0
M  V30 2601 N 251.277 0.427512 1.51691 0
M  V30 2602 C 252.525 -0.141948 2.01601 0
M  V30 2603 C 252.846 -1.44067 1.31414 0
M  V30 2604 O 252.116 -1.90763 0.445658 0
M  V30 2605 H 250.696 -0.0554468 0.744939 0
M  V30 2606 H 253.358 0.567968 1.86441 0
M  V30 2607 H 252.454 -0.324913 3.10404 0
M  V30 2608 N 252.755 -1.56801 0.158532 0
M  V30 2609 C 253.702 -2.17337 -0.776729 0
M  V30 2610 C 254.672 -1.1096 -1.23601 0
M  V30 2611 O 255.857 -1.39054 -1.30647 0
M  V30 2612 C 252.997 -2.80822 -2.00582 0
M  V30 2613 C 252.11 -4.01624 -1.59129 0
M  V30 2614 C 251.245 -4.53072 -2.77306 0
M  V30 2615 C 250.284 -5.66314 -2.32282 0
M  V30 2616 N 249.421 -6.12329 -3.43508 0
M  V30 2617 H 254.261 -2.96918 -0.253701 0
M  V30 2618 H 251.798 -1.46661 -0.113504 0
M  V30 2619 H 253.756 -3.15779 -2.72652 0
M  V30 2620 H 252.386 -2.03866 -2.50277 0
M  V30 2621 H 251.438 -3.72571 -0.767806 0
M  V30 2622 H 252.75 -4.83633 -1.2207 0
M  V30 2623 H 251.904 -4.90145 -3.57551 0
M  V30 2624 H 250.643 -3.70095 -3.17617 0
M  V30 2625 H 249.648 -5.28806 -1.5048 0
M  V30 2626 H 250.873 -6.51085 -1.93043 0
M  V30 2627 H 248.819 -5.32284 -3.83418 0
M  V30 2628 H 248.736 -6.89293 -3.105 0
M  V30 2629 H 250.004 -6.5405 -4.24075 0
M  V30 2630 N 254.233 0.115231 -1.57178 0
M  V30 2631 C 255.165 1.16694 -1.97269 0
M  V30 2632 C 256.178 1.37445 -0.872502 0
M  V30 2633 O 257.367 1.36454 -1.15077 0
M  V30 2634 C 254.467 2.52627 -2.25905 0
M  V30 2635 C 253.64 2.52427 -3.57211 0
M  V30 2636 C 252.699 3.70134 -3.74016 0
M  V30 2637 O 251.725 3.53546 -4.46087 0
M  V30 2638 N 252.927 4.88844 -3.13068 0
M  V30 2639 H 255.692 0.82588 -2.88096 0
M  V30 2640 H 253.253 0.304461 -1.59011 0
M  V30 2641 H 255.245 3.29937 -2.34359 0
M  V30 2642 H 253.815 2.789 -1.41186 0
M  V30 2643 H 253.035 1.60805 -3.5991 0
M  V30 2644 H 254.323 2.49353 -4.43509 0
M  V30 2645 H 253.721 5.05225 -2.54489 0
M  V30 2646 H 252.278 5.63817 -3.27037 0
M  V30 2647 N 255.711 1.52812 0.385517 0
M  V30 2648 C 256.643 1.74096 1.49074 0
M  V30 2649 C 257.656 0.621462 1.50472 0
M  V30 2650 O 258.845 0.897245 1.54311 0
M  V30 2651 C 255.945 1.78774 2.87911 0
M  V30 2652 C 255.118 3.08134 3.10439 0
M  V30 2653 C 254.177 3.04313 4.29278 0
M  V30 2654 O 253.203 3.78168 4.25415 0
M  V30 2655 N 254.405 2.23741 5.35649 0
M  V30 2656 H 257.17 2.69455 1.31202 0
M  V30 2657 H 254.731 1.51343 0.575065 0
M  V30 2658 H 256.723 1.73721 3.65518 0
M  V30 2659 H 255.293 0.907869 2.99126 0
M  V30 2660 H 254.513 3.26649 2.20667 0
M  V30 2661 H 255.801 3.93662 3.22347 0
M  V30 2662 H 255.199 1.63211 5.41645 0
M  V30 2663 H 253.756 2.24524 6.11909 0
M  V30 2664 N 257.189 -0.644168 1.43834 0
M  V30 2665 C 258.436 -1.40395 1.4593 0
M  V30 2666 C 258.764 -1.94305 0.0869658 0
M  V30 2667 O 258.019 -1.73288 -0.909378 0
M  V30 2668 C 258.318 -2.59615 2.45631 0
M  V30 2669 C 257.984 -2.2407 3.91284 0
M  V30 2670 C 256.646 -2.14089 4.30952 0
M  V30 2671 C 258.998 -1.95775 4.83034 0
M  V30 2672 C 256.326 -1.73981 5.6031 0
M  V30 2673 C 258.678 -1.57163 6.12766 0
M  V30 2674 C 257.342 -1.45713 6.51402 0
M  V30 2675 H 256.612 -0.513741 0.533995 0
M  V30 2676 H 259.259 -0.731724 1.76969 0
M  V30 2677 H 257.564 -3.32011 2.08028 0
M  V30 2678 H 259.261 -3.17834 2.44504 0
M  V30 2679 H 255.851 -2.32753 3.59895 0
M  V30 2680 H 260.035 -2.02403 4.53152 0
M  V30 2681 H 255.291 -1.63709 5.89075 0
M  V30 2682 H 259.465 -1.34303 6.83327 0
M  V30 2683 H 257.092 -1.14406 7.51542 0
M  V30 2684 N 258.668 -1.30515 -0.883378 0
M  V30 2685 C 259.945 -1.10086 -1.6168 0
M  V30 2686 C 260.325 0.349269 -2.08191 0
M  V30 2687 O 259.673 1.34105 -1.85008 0
M  V30 2688 C 259.883 -2.10315 -2.78511 0
M  V30 2689 C 261.231 -2.42119 -3.48803 0
M  V30 2690 O 262.255 -2.08638 -2.88702 0
M  V30 2691 O 261.114 -2.99396 -4.57192 0
M  V30 2692 H 258.208 -0.422907 -0.710689 0
M  V30 2693 H 260.754 -1.41947 -0.930015 0
M  V30 2694 H 259.526 -3.07917 -2.41459 0
M  V30 2695 H 259.149 -1.79282 -3.54886 0
M  V30 2696 N 260.146 1.09593 -1.13257 0
M  V30 2697 C 261.076 2.18214 -0.830946 0
M  V30 2698 C 262.057 1.68812 0.208966 0
M  V30 2699 O 263.242 1.9408 0.0682666 0
M  V30 2700 C 260.372 3.46051 -0.294296 0
M  V30 2701 C 259.326 4.08778 -1.26826 0
M  V30 2702 C 258.652 5.31419 -0.591449 0
M  V30 2703 C 259.952 4.51476 -2.62615 0
M  V30 2704 H 261.646 2.43703 -1.73923 0
M  V30 2705 H 259.192 1.17128 -0.837675 0
M  V30 2706 H 261.145 4.2134 -0.0709606 0
M  V30 2707 H 259.869 3.20079 0.649366 0
M  V30 2708 H 258.528 3.35505 -1.47756 0
M  V30 2709 H 258.176 5.01727 0.357633 0
M  V30 2710 H 257.876 5.74341 -1.24123 0
M  V30 2711 H 259.4 6.09433 -0.377355 0
M  V30 2712 H 260.814 5.17999 -2.45663 0
M  V30 2713 H 259.211 5.05277 -3.23752 0
M  V30 2714 H 260.281 3.63962 -3.20406 0
M  V30 2715 N 261.624 0.925811 1.2754 0
M  V30 2716 C 262.534 0.428993 2.30644 0
M  V30 2717 C 263.55 -0.489387 1.66976 0
M  V30 2718 O 264.726 -0.372653 1.97922 0
M  V30 2719 C 261.791 -0.311967 3.45294 0
M  V30 2720 C 260.852 0.641098 4.24486 0
M  V30 2721 C 260.085 -0.0645955 5.33661 0
M  V30 2722 O 260.308 -1.28429 5.55754 0
M  V30 2723 O 259.242 0.606265 5.98839 0
M  V30 2724 H 263.068 1.28504 2.75173 0
M  V30 2725 H 260.653 0.691086 1.32455 0
M  V30 2726 H 262.535 -0.729972 4.15029 0
M  V30 2727 H 261.21 -1.14365 3.02824 0
M  V30 2728 H 260.117 1.10874 3.57292 0
M  V30 2729 H 261.45 1.43995 4.70666 0
M  V30 2730 N 263.102 -1.41638 0.69111 0
M  V30 2731 C 264.05 -2.32597 0.0115199 0
M  V30 2732 C 265.044 -1.5072 -0.773296 0
M  V30 2733 O 266.25 -1.66685 -0.67942 0
M  V30 2734 H 262.625 -0.751849 -0.0150746 0
M  V30 2735 H 264.596 -2.87593 0.795791 0
M  V30 2736 C 263.345 -3.35467 -0.914172 0
M  V30 2737 H 262.668 -3.9852 -0.319687 0
M  V30 2738 H 264.108 -4.01662 -1.35808 0
M  V30 2739 C 262.567 -2.69004 -2.02826 0
M  V30 2740 O 263.097 -2.53444 -3.11655 0
M  V30 2741 N 261.303 -2.2777 -1.80469 0
M  V30 2742 H 260.85 -2.40626 -0.919615 0
M  V30 2743 H 260.808 -1.83635 -2.55197 0
M  V30 2744 N 264.58 -0.43555 -1.51462 0
M  V30 2745 C 265.527 0.376797 -2.27703 0
M  V30 2746 C 266.497 1.01838 -1.31219 0
M  V30 2747 O 267.682 1.03762 -1.60119 0
M  V30 2748 C 264.822 1.47301 -3.12084 0
M  V30 2749 C 263.935 0.849744 -4.2356 0
M  V30 2750 C 263.07 1.92086 -4.95254 0
M  V30 2751 C 262.109 1.27593 -5.98654 0
M  V30 2752 N 261.246 2.28833 -6.63762 0
M  V30 2753 H 266.086 -0.279734 -2.96684 0
M  V30 2754 H 263.623 -0.149795 -1.46335 0
M  V30 2755 H 265.581 2.11984 -3.59331 0
M  V30 2756 H 264.211 2.0992 -2.45221 0
M  V30 2757 H 263.263 0.0912529 -3.80291 0
M  V30 2758 H 264.575 0.338878 -4.97648 0
M  V30 2759 H 263.729 2.64435 -5.46039 0
M  V30 2760 H 262.468 2.46545 -4.20793 0
M  V30 2761 H 261.473 0.537893 -5.47162 0
M  V30 2762 H 262.698 0.738693 -6.7507 0
M  V30 2763 H 260.644 2.82375 -5.92115 0
M  V30 2764 H 260.561 1.82632 -7.33608 0
M  V30 2765 H 261.829 3.00671 -7.19178 0
M  V30 2766 N 266.058 1.56714 -0.166846 0
M  V30 2767 C 267.305 1.96747 0.479252 0
M  V30 2768 C 267.633 1.05263 1.63554 0
M  V30 2769 O 266.888 0.0858098 1.95512 0
M  V30 2770 C 267.187 3.42889 1.00806 0
M  V30 2771 C 266.853 4.50889 -0.0318574 0
M  V30 2772 C 265.515 4.8015 -0.317675 0
M  V30 2773 C 267.867 5.15949 -0.737956 0
M  V30 2774 C 265.195 5.71772 -1.31506 0
M  V30 2775 C 267.547 6.08647 -1.72429 0
M  V30 2776 C 266.211 6.36277 -2.0176 0
M  V30 2777 H 265.481 0.719949 0.175371 0
M  V30 2778 H 268.128 1.89756 -0.257864 0
M  V30 2779 H 266.433 3.4681 1.82291 0
M  V30 2780 H 268.13 3.71203 1.51689 0
M  V30 2781 H 264.72 4.28128 0.201088 0
M  V30 2782 H 268.904 4.93458 -0.530351 0
M  V30 2783 H 264.16 5.91465 -1.54853 0
M  V30 2784 H 268.334 6.58129 -2.27682 0
M  V30 2785 H 265.961 7.07075 -2.79194 0
M  V30 2786 N 267.536 -0.106894 1.57237 0
M  V30 2787 C 268.483 -1.13049 2.01217 0
M  V30 2788 C 269.453 -1.40471 0.886403 0
M  V30 2789 O 270.638 -1.52133 1.15153 0
M  V30 2790 C 267.778 -2.4487 2.43172 0
M  V30 2791 C 266.891 -2.24281 3.69218 0
M  V30 2792 C 266.026 -3.49417 4.00101 0
M  V30 2793 C 265.065 -3.24038 5.19294 0
M  V30 2794 N 264.202 -4.41409 5.45988 0
M  V30 2795 H 269.042 -0.748456 2.88448 0
M  V30 2796 H 266.579 -0.358054 1.42676 0
M  V30 2797 H 268.537 -3.21786 2.65537 0
M  V30 2798 H 267.167 -2.80944 1.58967 0
M  V30 2799 H 266.219 -1.38224 3.54398 0
M  V30 2800 H 267.531 -2.01512 4.56283 0
M  V30 2801 H 266.685 -4.34746 4.2318 0
M  V30 2802 H 265.424 -3.75229 3.11535 0
M  V30 2803 H 264.429 -2.37102 4.96047 0
M  V30 2804 H 265.654 -2.99584 6.09447 0
M  V30 2805 H 263.6 -4.67319 4.60379 0
M  V30 2806 H 263.517 -4.21788 6.274 0
M  V30 2807 H 264.785 -5.27836 5.73593 0
M  V30 2808 N 269.014 -1.53014 -0.377408 0
M  V30 2809 C 270.425 -1.60438 -0.954798 0
M  V30 2810 C 270.776 -0.464418 -1.90624 0
M  V30 2811 O 269.901 0.41087 -2.12464 0
M  V30 2812 C 270.496 -2.90797 -1.73847 0
M  V30 2813 C 269.055 -3.00595 -2.26538 0
M  V30 2814 C 268.202 -2.55645 -1.07429 0
M  V30 2815 H 271.153 -1.57926 -0.156575 0
M  V30 2816 H 271.174 -2.77935 -2.5987 0
M  V30 2817 H 270.686 -3.73746 -1.04574 0
M  V30 2818 H 268.787 -2.22208 -2.99089 0
M  V30 2819 H 268.9 -4.05456 -2.5523 0
M  V30 2820 H 267.264 -2.10239 -1.43777 0
M  V30 2821 H 268.047 -3.41 -0.396728 0
M  V30 2822 N 270.492 0.636531 -1.44174 0
M  V30 2823 C 271.739 1.39619 -1.46672 0
M  V30 2824 C 272.067 1.94257 -0.0972691 0
M  V30 2825 O 271.322 1.73768 0.900175 0
M  V30 2826 C 271.621 2.58309 -2.47005 0
M  V30 2827 C 271.287 2.21992 -3.92467 0
M  V30 2828 C 269.949 2.118 -4.32081 0
M  V30 2829 C 272.301 1.9321 -4.84065 0
M  V30 2830 C 269.629 1.71007 -5.61225 0
M  V30 2831 C 271.981 1.53911 -6.13591 0
M  V30 2832 C 270.645 1.42257 -6.52165 0
M  V30 2833 H 269.915 0.510902 -0.536712 0
M  V30 2834 H 272.562 0.722328 -1.77355 0
M  V30 2835 H 270.867 3.30903 -2.09786 0
M  V30 2836 H 272.564 3.16533 -2.46186 0
M  V30 2837 H 269.154 2.30841 -3.61124 0
M  V30 2838 H 273.338 1.99997 -4.54219 0
M  V30 2839 H 268.594 1.60583 -5.89935 0
M  V30 2840 H 272.768 1.30677 -6.8403 0
M  V30 2841 H 270.395 1.10419 -7.52138 0
M  V30 2842 N 271.97 1.30982 0.876444 0
M  V30 2843 C 273.198 1.23242 1.6619 0
M  V30 2844 C 273.613 -0.203345 1.87702 0
M  V30 2845 O 272.97 -1.13317 1.43057 0
M  V30 2846 C 273.021 1.96623 3.03351 0
M  V30 2847 O 272.742 3.34594 2.82804 0
M  V30 2848 C 274.243 1.95644 3.97792 0
M  V30 2849 H 271.463 0.426126 0.518322 0
M  V30 2850 H 274.007 1.7275 1.09442 0
M  V30 2851 H 272.162 1.50892 3.56806 0
M  V30 2852 H 272.576 3.71873 3.69879 0
M  V30 2853 H 274.05 2.51511 4.91372 0
M  V30 2854 H 274.527 0.937395 4.2908 0
M  V30 2855 H 275.133 2.41225 3.50272 0
M  V30 2856 N 273.449 -1.08991 1.13837 0
M  V30 2857 C 274.695 -1.81526 0.90422 0
M  V30 2858 C 275.028 -1.85706 -0.568066 0
M  V30 2859 O 274.303 -1.32855 -1.42056 0
M  V30 2860 C 274.586 -3.27447 1.49835 0
M  V30 2861 C 274.439 -3.31512 3.04006 0
M  V30 2862 C 275.758 -4.24256 1.17025 0
M  V30 2863 H 272.877 -0.659029 0.329923 0
M  V30 2864 H 275.519 -1.27644 1.40737 0
M  V30 2865 H 273.669 -3.73462 1.07044 0
M  V30 2866 H 275.341 -2.93867 3.55584 0
M  V30 2867 H 273.584 -2.70963 3.38765 0
M  V30 2868 H 274.255 -4.34329 3.40679 0
M  V30 2869 H 276.731 -3.86549 1.54009 0
M  V30 2870 H 275.607 -5.24684 1.61237 0
M  V30 2871 H 275.868 -4.42019 0.0846274 0
M  V30 2872 N 274.927 -0.932562 -1.27047 0
M  V30 2873 C 275.837 -0.441219 -2.30414 0
M  V30 2874 C 276.853 0.480525 -1.67233 0
M  V30 2875 O 278.029 0.362151 -1.98117 0
M  V30 2876 C 275.094 0.293651 -3.45454 0
M  V30 2877 C 274.155 -0.663601 -4.2414 0
M  V30 2878 C 273.388 0.0362932 -5.33688 0
M  V30 2879 O 273.611 1.2548 -5.56427 0
M  V30 2880 O 272.545 -0.638015 -5.98509 0
M  V30 2881 H 276.371 -1.29962 -2.74488 0
M  V30 2882 H 273.956 -0.6981 -1.32087 0
M  V30 2883 H 275.838 0.707951 -4.15411 0
M  V30 2884 H 274.513 1.12758 -3.03426 0
M  V30 2885 H 273.42 -1.12768 -3.56699 0
M  V30 2886 H 274.753 -1.46489 -4.69896 0
M  V30 2887 N 276.405 1.4127 -0.698611 0
M  V30 2888 C 277.654 2.00408 -0.227949 0
M  V30 2889 C 277.967 1.55981 1.18023 0
M  V30 2890 O 279.173 2.07699 1.74852 0
M  V30 2891 C 277.629 3.58129 -0.356636 0
M  V30 2892 C 277.237 4.11536 -1.77037 0
M  V30 2893 C 278.981 4.24466 0.0540969 0
M  V30 2894 C 276.888 5.61701 -1.85055 0
M  V30 2895 H 275.818 0.749586 -0.0814657 0
M  V30 2896 H 278.469 1.61713 -0.867249 0
M  V30 2897 H 276.851 3.94442 0.350965 0
M  V30 2898 H 278.025 3.86636 -2.50698 0
M  V30 2899 H 276.34 3.57736 -2.13105 0
M  V30 2900 H 278.937 5.34698 0.0146723 0
M  V30 2901 H 279.28 4.01687 1.09332 0
M  V30 2902 H 279.813 3.93198 -0.603337 0
M  V30 2903 H 276.552 5.89312 -2.8704 0
M  V30 2904 H 276.072 5.88519 -1.15783 0
M  V30 2905 H 277.751 6.26524 -1.61484 0
M  V30 2906 N 277.883 0.443576 1.51229 0
M  V30 2907 C 279.129 -0.120975 2.02439 0
M  V30 2908 C 279.462 -1.41815 1.32674 0
M  V30 2909 O 278.737 -1.89373 0.443622 0
M  V30 2910 C 279.02 -0.333291 3.58554 0
M  V30 2911 C 278.873 0.982968 4.38928 0
M  V30 2912 C 280.192 -1.10028 4.26124 0
M  V30 2913 H 277.311 -0.0424923 0.735774 0
M  V30 2914 H 279.953 0.583794 1.80809 0
M  V30 2915 H 278.103 -0.933614 3.77115 0
M  V30 2916 H 279.775 1.61775 4.32003 0
M  V30 2917 H 278.018 1.58611 4.03763 0
M  V30 2918 H 278.689 0.788379 5.46341 0
M  V30 2919 H 281.165 -0.591711 4.11871 0
M  V30 2920 H 280.041 -1.21761 5.35225 0
M  V30 2921 H 280.302 -2.12996 3.87408 0
M  V30 2922 N 279.361 -1.56624 0.175154 0
M  V30 2923 C 280.638 -1.88688 -0.515373 0
M  V30 2924 C 281.018 -1.08564 -1.81044 0
M  V30 2925 O 280.366 -0.180703 -2.27784 0
M  V30 2926 C 280.576 -3.40768 -0.753552 0
M  V30 2927 C 281.924 -4.10587 -1.08184 0
M  V30 2928 O 282.948 -3.46106 -0.841961 0
M  V30 2929 O 281.807 -5.24512 -1.53459 0
M  V30 2930 H 278.901 -0.78301 -0.26613 0
M  V30 2931 H 281.447 -1.68347 0.213877 0
M  V30 2932 H 280.219 -3.90965 0.161829 0
M  V30 2933 H 279.842 -3.66733 -1.53598 0
M  V30 2934 N 280.839 0.0985539 -1.57292 0
M  V30 2935 C 282.064 0.820196 -1.90493 0
M  V30 2936 C 282.489 1.71658 -0.769094 0
M  V30 2937 O 281.847 1.79133 0.279495 0
M  V30 2938 C 281.895 1.61242 -3.22542 0
M  V30 2939 O 280.999 2.72108 -3.09888 0
M  V30 2940 H 280.34 0.225547 -0.62452 0
M  V30 2941 H 282.87 0.0748159 -2.04463 0
M  V30 2942 H 282.88 1.99737 -3.55766 0
M  V30 2943 H 281.555 0.954535 -4.04798 0
M  V30 2944 H 280.132 2.36667 -2.88172 0
M  V30 2945 N 282.317 1.53212 0.369288 0
M  V30 2946 C 283.563 1.69466 1.11397 0
M  V30 2947 C 283.896 0.443257 1.89074 0
M  V30 2948 O 283.171 -0.559386 1.86282 0
M  V30 2949 C 283.454 2.9422 2.07621 0
M  V30 2950 C 283.307 4.29508 1.33577 0
M  V30 2951 C 284.626 3.14565 3.07794 0
M  V30 2952 H 281.745 0.616667 0.403597 0
M  V30 2953 H 284.387 1.85845 0.395179 0
M  V30 2954 H 282.537 2.80387 2.68916 0
M  V30 2955 H 284.209 4.55147 0.750955 0
M  V30 2956 H 282.452 4.29088 0.637618 0
M  V30 2957 H 283.123 5.12926 2.03989 0
M  V30 2958 H 285.599 3.2756 2.56601 0
M  V30 2959 H 284.475 4.03297 3.72348 0
M  V30 2960 H 284.736 2.29675 3.77759 0
M  V30 2961 N 283.795 -0.628877 1.44509 0
M  V30 2962 C 284.705 -1.7694 1.54044 0
M  V30 2963 C 285.721 -1.68705 0.425987 0
M  V30 2964 O 286.897 -1.89442 0.683656 0
M  V30 2965 C 283.962 -3.13332 1.48405 0
M  V30 2966 C 283.023 -3.33181 2.70719 0
M  V30 2967 C 282.256 -4.63067 2.6534 0
M  V30 2968 O 282.479 -5.44017 1.71469 0
M  V30 2969 O 281.413 -4.85167 3.56226 0
M  V30 2970 H 285.239 -1.71848 2.50403 0
M  V30 2971 H 282.824 -0.790378 1.26781 0
M  V30 2972 H 284.706 -3.94634 1.47791 0
M  V30 2973 H 283.381 -3.1896 0.551898 0
M  V30 2974 H 282.288 -2.51549 2.769 0
M  V30 2975 H 283.621 -3.32416 3.62988 0
M  V30 2976 N 285.273 -1.31445 -0.869486 0
M  V30 2977 C 286.236 -1.19094 -1.9583 0
M  V30 2978 C 287.236 -0.117906 -1.60367 0
M  V30 2979 O 288.426 -0.367208 -1.70286 0
M  V30 2980 C 285.558 -0.828165 -3.30688 0
M  V30 2981 H 286.751 -2.15842 -2.08212 0
M  V30 2982 H 284.304 -1.15063 -1.05784 0
M  V30 2983 H 285.039 0.138142 -3.24006 0
M  V30 2984 H 284.824 -1.6038 -3.578 0
M  V30 2985 H 286.314 -0.765658 -4.10521 0
M  V30 2986 N 286.751 1.08385 -1.14413 0
M  V30 2987 C 287.981 1.8425 -0.934644 0
M  V30 2988 C 288.389 1.81907 0.520234 0
M  V30 2989 O 287.732 1.22126 1.37226 0
M  V30 2990 C 287.794 3.32853 -1.35828 0
M  V30 2991 C 287.458 3.5893 -2.82875 0
M  V30 2992 C 288.455 3.53756 -3.80989 0
M  V30 2993 C 286.14 3.86934 -3.20293 0
M  V30 2994 C 288.134 3.76216 -5.14529 0
M  V30 2995 C 285.821 4.09047 -4.54008 0
M  V30 2996 C 286.819 4.03682 -5.50936 0
M  V30 2997 O 286.507 4.25214 -6.82238 0
M  V30 2998 H 286.239 0.588502 -0.332628 0
M  V30 2999 H 288.793 1.37792 -1.52324 0
M  V30 3000 H 287.023 3.8007 -0.713019 0
M  V30 3001 H 288.712 3.90154 -1.11957 0
M  V30 3002 H 289.478 3.32135 -3.53428 0
M  V30 3003 H 285.357 3.9023 -2.45442 0
M  V30 3004 H 288.901 3.71943 -5.90173 0
M  V30 3005 H 284.798 4.30151 -4.8129 0
M  V30 3006 H 285.566 4.42619 -6.88499 0
M  V30 3007 N 288.23 0.939286 1.26551 0
M  V30 3008 C 289.193 0.451987 2.24699 0
M  V30 3009 C 290.193 -0.435869 1.5478 0
M  V30 3010 O 291.383 -0.235314 1.72603 0
M  V30 3011 C 288.515 -0.348801 3.39111 0
M  V30 3012 H 289.708 1.3193 2.69322 0
M  V30 3013 H 287.261 0.721072 1.38673 0
M  V30 3014 H 287.996 -1.23444 2.99887 0
M  V30 3015 H 287.781 0.287945 3.91041 0
M  V30 3016 H 289.271 -0.679726 4.12031 0
M  V30 3017 N 289.708 -1.40897 0.706093 0
M  V30 3018 C 290.936 -2.05373 0.250887 0
M  V30 3019 C 291.351 -1.53172 -1.10381 0
M  V30 3020 O 290.708 -0.684305 -1.69185 0
M  V30 3021 C 290.759 -3.6088 0.211571 0
M  V30 3022 O 290.48 -4.11153 1.51276 0
M  V30 3023 C 291.981 -4.42517 -0.263346 0
M  V30 3024 H 289.201 -0.66115 0.114552 0
M  V30 3025 H 291.745 -1.80479 0.961635 0
M  V30 3026 H 289.9 -3.84777 -0.450073 0
M  V30 3027 H 290.314 -5.05279 1.40689 0
M  V30 3028 H 291.788 -5.51479 -0.239718 0
M  V30 3029 H 292.265 -4.19396 -1.30397 0
M  V30 3030 H 292.871 -4.23708 0.367677 0
M  V30 3031 N 291.186 -0.45159 -1.50991 0
M  V30 3032 C 292.119 0.398179 -2.24699 0
M  V30 3033 C 293.097 1.01276 -1.27208 0
M  V30 3034 O 294.281 1.05247 -1.56382 0
M  V30 3035 C 291.408 1.55618 -3.00833 0
M  V30 3036 C 290.454 1.0609 -4.13095 0
M  V30 3037 S 291.287 -0.00865136 -5.35499 0
M  V30 3038 C 292.443 1.15369 -6.15175 0
M  V30 3039 H 292.676 -0.227555 -2.96428 0
M  V30 3040 H 290.209 -0.236251 -1.52582 0
M  V30 3041 H 292.167 2.21997 -3.45293 0
M  V30 3042 H 290.828 2.15337 -2.28667 0
M  V30 3043 H 290.021 1.92726 -4.65696 0
M  V30 3044 H 289.623 0.47513 -3.7097 0
M  V30 3045 H 291.915 2.06925 -6.45126 0
M  V30 3046 H 292.858 0.667344 -7.04948 0
M  V30 3047 H 293.266 1.3987 -5.46897 0
M  V30 3048 N 292.664 1.56529 -0.183458 0
M  V30 3049 C 293.594 2.21549 0.737456 0
M  V30 3050 C 294.575 1.17489 1.23005 0
M  V30 3051 O 295.76 1.45959 1.281 0
M  V30 3052 C 292.89 2.86575 1.96194 0
M  V30 3053 C 291.844 3.96778 1.60473 0
M  V30 3054 C 291.17 4.48911 2.90487 0
M  V30 3055 C 292.47 5.15767 0.823497 0
M  V30 3056 H 294.164 2.98761 0.195453 0
M  V30 3057 H 291.71 1.43702 0.0925686 0
M  V30 3058 H 293.663 3.30739 2.61131 0
M  V30 3059 H 292.387 2.06749 2.52828 0
M  V30 3060 H 291.046 3.53286 0.978997 0
M  V30 3061 H 290.694 3.65862 3.45186 0
M  V30 3062 H 290.394 5.23265 2.67335 0
M  V30 3063 H 291.918 4.95771 3.56432 0
M  V30 3064 H 293.332 5.56549 1.37571 0
M  V30 3065 H 291.729 5.96114 0.690551 0
M  V30 3066 H 292.799 4.84574 -0.177782 0
M  V30 3067 N 294.142 -0.090211 1.57342 0
M  V30 3068 C 295.558 -0.444547 1.53284 0
M  V30 3069 C 295.758 -1.80238 0.900914 0
M  V30 3070 O 294.814 -2.4759 0.495513 0
M  V30 3071 C 296.127 -0.402543 2.97993 0
M  V30 3072 C 297.675 -0.48405 3.09234 0
M  V30 3073 C 298.15 -0.472144 4.5556 0
M  V30 3074 N 299.641 -0.532757 4.60126 0
M  V30 3075 C 300.376 -0.545462 5.708 0
M  V30 3076 N 299.872 -0.514082 6.9089 0
M  V30 3077 N 301.665 -0.59064 5.58988 0
M  V30 3078 H 293.816 0.799121 1.96794 0
M  V30 3079 H 296.079 0.297965 0.899956 0
M  V30 3080 H 295.785 0.528106 3.47712 0
M  V30 3081 H 295.659 -1.21969 3.56936 0
M  V30 3082 H 298.046 -1.40512 2.595 0
M  V30 3083 H 298.127 0.361328 2.53235 0
M  V30 3084 H 297.771 0.445 5.05947 0
M  V30 3085 H 297.701 -1.3348 5.09402 0
M  V30 3086 H 300.192 -0.562006 3.73698 0
M  V30 3087 H 300.505 -0.527195 7.71 0
M  V30 3088 H 298.85 -0.481054 6.93333 0
M  V30 3089 H 302.041 -0.61272 4.64073 0
M  V30 3090 H 302.214 -0.597073 6.45243 0
M  V30 3091 N 295.62 -1.53406 -0.361157 0
M  V30 3092 C 296.845 -1.74024 -1.12829 0
M  V30 3093 C 297.27 -0.470069 -1.82132 0
M  V30 3094 O 296.628 0.57619 -1.719 0
M  V30 3095 C 296.676 -2.90903 -2.13091 0
M  V30 3096 O 295.78 -2.59821 -3.20261 0
M  V30 3097 H 295.121 -0.577804 -0.327168 0
M  V30 3098 H 297.651 -2.00307 -0.41693 0
M  V30 3099 H 297.661 -3.17194 -2.56616 0
M  V30 3100 H 296.336 -3.83034 -1.62042 0
M  V30 3101 H 294.913 -2.44362 -2.81677 0
M  V30 3102 N 297.098 0.621204 -1.44841 0
M  V30 3103 C 298.347 1.37658 -1.47422 0
M  V30 3104 C 298.66 1.95264 -0.114629 0
M  V30 3105 O 299.866 2.71494 -0.0180199 0
M  V30 3106 C 298.322 2.49285 -2.59586 0
M  V30 3107 C 297.93 1.98149 -4.01797 0
M  V30 3108 C 299.674 3.26409 -2.71399 0
M  V30 3109 C 297.581 3.07178 -5.05367 0
M  V30 3110 H 296.511 0.517344 -0.548517 0
M  V30 3111 H 299.162 0.667257 -1.70938 0
M  V30 3112 H 297.544 3.22839 -2.29328 0
M  V30 3113 H 298.718 1.31395 -4.41669 0
M  V30 3114 H 297.033 1.33812 -3.94314 0
M  V30 3115 H 299.63 4.07706 -3.45948 0
M  V30 3116 H 299.973 3.76535 -1.77559 0
M  V30 3117 H 300.506 2.5995 -3.01116 0
M  V30 3118 H 297.245 2.61985 -6.00869 0
M  V30 3119 H 296.765 3.72542 -4.70077 0
M  V30 3120 H 298.444 3.71789 -5.29511 0
M  V30 3121 N 298.576 1.31904 0.862503 0
M  V30 3122 C 299.823 1.22017 1.61611 0
M  V30 3123 C 300.151 -0.21991 1.93253 0
M  V30 3124 O 299.406 -1.17076 1.56817 0
M  V30 3125 C 299.705 2.01713 2.95037 0
M  V30 3126 C 299.371 3.51145 2.82857 0
M  V30 3127 C 298.033 3.91889 2.79243 0
M  V30 3128 C 300.385 4.46204 2.69353 0
M  V30 3129 C 297.713 5.25947 2.59993 0
M  V30 3130 C 300.065 5.80397 2.5164 0
M  V30 3131 C 298.729 6.20352 2.46413 0
M  V30 3132 H 297.999 0.44649 0.591378 0
M  V30 3133 H 300.646 1.63248 1.00111 0
M  V30 3134 H 298.951 1.53185 3.60613 0
M  V30 3135 H 300.648 1.91437 3.52353 0
M  V30 3136 H 297.238 3.1878 2.86491 0
M  V30 3137 H 301.422 4.15652 2.71196 0
M  V30 3138 H 296.678 5.5597 2.54376 0
M  V30 3139 H 300.852 6.53676 2.40169 0
M  V30 3140 H 298.479 7.24172 2.31256 0
M  V30 3141 N 300.054 -1.07777 1.14986 0
M  V30 3142 C 301.331 -1.7699 0.832695 0
M  V30 3143 C 301.711 -2.001 -0.672561 0
M  V30 3144 O 301.059 -1.61598 -1.6155 0
M  V30 3145 C 301.269 -3.08139 1.63863 0
M  V30 3146 C 302.617 -3.8256 1.84208 0
M  V30 3147 O 303.641 -3.17939 1.60603 0
M  V30 3148 O 302.5 -4.98612 2.23714 0
M  V30 3149 H 299.594 -0.768389 0.305791 0
M  V30 3150 H 302.14 -1.14182 1.25541 0
M  V30 3151 H 300.912 -2.86909 2.6608 0
M  V30 3152 H 300.535 -3.78678 1.21197 0
M  V30 3153 N 301.532 -0.945985 -1.26051 0
M  V30 3154 C 302.779 -0.596118 -1.93527 0
M  V30 3155 C 303.107 0.865559 -1.74179 0
M  V30 3156 O 302.362 1.63524 -1.0751 0
M  V30 3157 C 302.661 -0.890475 -3.46129 0
M  V30 3158 C 302.327 -2.3368 -3.85622 0
M  V30 3159 C 300.989 -2.73216 -3.96114 0
M  V30 3160 C 303.341 -3.27648 -4.05334 0
M  V30 3161 C 300.669 -4.05806 -4.2372 0
M  V30 3162 C 303.021 -4.59841 -4.3443 0
M  V30 3163 C 301.685 -4.99185 -4.43137 0
M  V30 3164 H 300.955 -0.218135 -0.708165 0
M  V30 3165 H 303.602 -1.1934 -1.49768 0
M  V30 3166 H 301.907 -0.210711 -3.91233 0
M  V30 3167 H 303.604 -0.598478 -3.96509 0
M  V30 3168 H 300.194 -2.02015 -3.78005 0
M  V30 3169 H 304.378 -2.98298 -3.96651 0
M  V30 3170 H 299.634 -4.35945 -4.28675 0
M  V30 3171 H 303.808 -5.32641 -4.48628 0
M  V30 3172 H 301.435 -6.01952 -4.64282 0
M  V30 3173 N 303.011 1.40521 -0.713556 0
M  V30 3174 C 304.236 2.05759 -0.26035 0
M  V30 3175 C 304.661 1.53403 1.08854 0
M  V30 3176 O 304.019 0.668535 1.68524 0
M  V30 3177 C 304.067 3.59745 -0.248122 0
M  V30 3178 O 303.171 4.05123 0.77131 0
M  V30 3179 H 302.512 0.652564 -0.122703 0
M  V30 3180 H 305.042 1.79958 -0.973467 0
M  V30 3181 H 305.052 4.07911 -0.0851129 0
M  V30 3182 H 303.727 3.97218 -1.2325 0
M  V30 3183 H 302.304 3.68422 0.57619 0
M  V30 3184 N 304.489 0.459591 1.5075 0
M  V30 3185 C 305.452 -0.329093 2.26825 0
M  V30 3186 C 306.452 -0.930481 1.31144 0
M  V30 3187 O 307.642 -0.801453 1.54669 0
M  V30 3188 C 304.774 -1.46768 3.07688 0
M  V30 3189 H 305.967 0.337924 2.9799 0
M  V30 3190 H 303.52 0.213336 1.54837 0
M  V30 3191 H 304.255 -2.17009 2.40993 0
M  V30 3192 H 304.04 -1.04238 3.77991 0
M  V30 3193 H 305.53 -2.02433 3.65254 0
M  V30 3194 N 305.967 -1.56429 0.191757 0
M  V30 3195 C 306.897 -2.21937 -0.725696 0
M  V30 3196 C 307.878 -1.1814 -1.2238 0
M  V30 3197 O 309.063 -1.46636 -1.27325 0
M  V30 3198 C 306.193 -2.87611 -1.94672 0
M  V30 3199 C 305.147 -3.97623 -1.58366 0
M  V30 3200 C 304.473 -4.50446 -2.88102 0
M  V30 3201 C 305.773 -5.16197 -0.796133 0
M  V30 3202 H 307.467 -2.98861 -0.179606 0
M  V30 3203 H 305.013 -1.43749 -0.0849464 0
M  V30 3204 H 306.966 -3.3212 -2.59373 0
M  V30 3205 H 305.69 -2.08087 -2.51728 0
M  V30 3206 H 304.349 -3.53801 -0.960247 0
M  V30 3207 H 303.997 -3.67688 -3.43241 0
M  V30 3208 H 303.697 -5.24675 -2.64556 0
M  V30 3209 H 305.221 -4.97654 -3.53798 0
M  V30 3210 H 306.635 -5.57271 -1.34618 0
M  V30 3211 H 305.032 -5.96471 -0.658928 0
M  V30 3212 H 306.102 -4.84473 0.203478 0
M  V30 3213 N 307.445 0.0818655 -1.57387 0
M  V30 3214 C 308.392 1.09834 -2.0299 0
M  V30 3215 C 309.362 1.39043 -0.908639 0
M  V30 3216 O 310.547 1.50282 -1.17559 0
M  V30 3217 C 307.687 2.40971 -2.47037 0
M  V30 3218 C 306.8 2.18379 -3.7274 0
M  V30 3219 C 305.935 3.43008 -4.0561 0
M  V30 3220 C 304.974 3.15736 -5.24383 0
M  V30 3221 N 304.111 4.32667 -5.52941 0
M  V30 3222 H 308.951 0.702472 -2.89602 0
M  V30 3223 H 306.488 0.33531 -1.43227 0
M  V30 3224 H 308.446 3.1752 -2.70623 0
M  V30 3225 H 307.076 2.78379 -1.63417 0
M  V30 3226 H 306.128 1.32569 -3.56552 0
M  V30 3227 H 307.44 1.94227 -4.59431 0
M  V30 3228 H 306.594 4.27958 -4.30043 0
M  V30 3229 H 305.333 3.70225 -3.17466 0
M  V30 3230 H 304.338 2.2918 -4.99757 0
M  V30 3231 H 305.563 2.8985 -6.14136 0
M  V30 3232 H 303.509 4.59935 -4.67756 0
M  V30 3233 H 303.426 4.11753 -6.34031 0
M  V30 3234 H 304.694 5.18644 -5.81918 0
M  V30 3235 N 308.923 1.53595 0.353017 0
M  V30 3236 C 309.833 1.83897 1.45667 0
M  V30 3237 C 310.849 0.728334 1.58023 0
M  V30 3238 O 312.025 1.01968 1.73679 0
M  V30 3239 C 309.09 2.03383 2.80778 0
M  V30 3240 C 308.151 3.27262 2.77845 0
M  V30 3241 C 307.384 3.45809 4.06512 0
M  V30 3242 O 307.607 2.68387 5.03314 0
M  V30 3243 O 306.541 4.39207 4.11559 0
M  V30 3244 H 310.367 2.77686 1.2298 0
M  V30 3245 H 307.952 1.39132 0.544308 0
M  V30 3246 H 309.834 2.17698 3.60812 0
M  V30 3247 H 308.509 1.12783 3.03417 0
M  V30 3248 H 307.416 3.18359 1.96465 0
M  V30 3249 H 308.749 4.17824 2.60161 0
M  V30 3250 N 310.401 -0.613514 1.45168 0
M  V30 3251 C 311.331 -1.7354 1.56225 0
M  V30 3252 C 312.312 -1.64981 0.41414 0
M  V30 3253 O 313.497 -1.83472 0.636526 0
M  V30 3254 C 310.627 -3.12128 1.52295 0
M  V30 3255 C 309.581 -3.35491 2.65762 0
M  V30 3256 C 308.907 -4.74291 2.46885 0
M  V30 3257 C 310.207 -3.26325 4.0781 0
M  V30 3258 H 311.901 -1.64543 2.50132 0
M  V30 3259 H 309.447 -0.790185 1.20383 0
M  V30 3260 H 311.4 -3.90404 1.58628 0
M  V30 3261 H 310.124 -3.2195 0.549139 0
M  V30 3262 H 308.783 -2.59603 2.58847 0
M  V30 3263 H 308.431 -4.80839 1.47657 0
M  V30 3264 H 308.131 -4.9088 3.22972 0
M  V30 3265 H 309.655 -5.54775 2.55063 0
M  V30 3266 H 311.069 -3.94483 4.16 0
M  V30 3267 H 309.466 -3.54445 4.8424 0
M  V30 3268 H 310.536 -2.23855 4.30136 0
M  V30 3269 N 311.879 -1.3236 -0.855495 0
M  V30 3270 C 312.809 -1.23833 -1.97958 0
M  V30 3271 C 313.79 -0.122361 -1.69659 0
M  V30 3272 O 314.975 -0.30939 -1.9172 0
M  V30 3273 C 312.105 -0.959772 -3.33775 0
M  V30 3274 C 311.059 -2.03689 -3.76424 0
M  V30 3275 C 310.385 -1.61075 -5.09862 0
M  V30 3276 C 311.685 -3.4518 -3.9198 0
M  V30 3277 H 313.379 -2.1788 -2.0535 0
M  V30 3278 H 310.925 -1.04891 -0.986605 0
M  V30 3279 H 312.878 -0.886678 -4.11966 0
M  V30 3280 H 311.602 0.0163404 -3.26596 0
M  V30 3281 H 310.261 -2.10012 -3.00484 0
M  V30 3282 H 309.909 -0.622107 -4.99138 0
M  V30 3283 H 309.609 -2.33143 -5.39368 0
M  V30 3284 H 311.133 -1.55201 -5.90546 0
M  V30 3285 H 312.547 -3.4145 -4.60526 0
M  V30 3286 H 310.944 -4.1559 -4.32903 0
M  V30 3287 H 312.014 -3.84903 -2.94919 0
M  V30 3288 N 313.357 1.07166 -1.15556 0
M  V30 3289 C 314.582 1.84053 -0.955988 0
M  V30 3290 C 315.007 1.81586 0.490739 0
M  V30 3291 O 314.365 1.21018 1.34997 0
M  V30 3292 C 314.413 3.28957 -1.47714 0
M  V30 3293 O 313.517 4.06795 -0.677593 0
M  V30 3294 H 312.858 0.569842 -0.340847 0
M  V30 3295 H 315.388 1.35178 -1.53584 0
M  V30 3296 H 315.398 3.79788 -1.4908 0
M  V30 3297 H 314.073 3.30068 -2.53037 0
M  V30 3298 H 312.65 3.6561 -0.733721 0
M  V30 3299 N 314.835 0.952656 1.25548 0
M  V30 3300 C 316.083 0.605176 1.92826 0
M  V30 3301 C 316.404 -0.860261 1.74999 0
M  V30 3302 O 315.674 -1.6125 1.11244 0
M  V30 3303 H 314.254 0.220832 0.713612 0
M  V30 3304 H 316.916 1.21047 1.52754 0
M  V30 3305 H 316.012 0.832798 3.00784 0
M  V30 3306 N 316.313 -1.40141 0.720998 0
M  V30 3307 C 317.724 -1.83678 0.334553 0
M  V30 3308 C 318.075 -1.6027 -1.13173 0
M  V30 3309 O 317.2 -1.08643 -1.87152 0
M  V30 3310 C 317.795 -3.33437 0.600437 0
M  V30 3311 C 316.354 -3.75447 0.267642 0
M  V30 3312 C 315.501 -2.63296 0.870097 0
M  V30 3313 H 318.452 -1.29331 0.919732 0
M  V30 3314 H 318.473 -3.80269 -0.132517 0
M  V30 3315 H 317.985 -3.50442 1.66768 0
M  V30 3316 H 316.086 -3.64035 -0.794329 0
M  V30 3317 H 316.199 -4.73344 0.74042 0
M  V30 3318 H 314.563 -2.52954 0.297739 0
M  V30 3319 H 315.346 -2.83112 1.94172 0
M  V30 3320 N 317.792 -0.46758 -1.50504 0
M  V30 3321 C 318.74 0.342482 -2.30065 0
M  V30 3322 C 319.734 0.993596 -1.37201 0
M  V30 3323 O 320.94 0.925102 -1.54408 0
M  V30 3324 H 317.315 0.129283 -0.740803 0
M  V30 3325 H 319.286 -0.34899 -2.96352 0
M  V30 3326 C 318.035 1.4139 -3.17654 0
M  V30 3327 H 317.358 0.922264 -3.89017 0
M  V30 3328 H 318.798 1.95335 -3.76325 0
M  V30 3329 C 317.257 2.4139 -2.35016 0
M  V30 3330 O 317.787 3.46586 -2.03079 0
M  V30 3331 N 315.993 2.13021 -1.97662 0
M  V30 3332 H 315.54 1.27499 -2.23834 0
M  V30 3333 H 315.498 2.80164 -1.42673 0
M  V30 3334 N 319.27 1.56325 -0.20005 0
M  V30 3335 C 320.686 1.58839 0.155716 0
M  V30 3336 C 320.886 1.21636 1.60645 0
M  V30 3337 O 319.942 0.941437 2.34293 0
M  V30 3338 C 321.255 3.0032 -0.151124 0
M  V30 3339 C 322.803 3.12866 -0.0916284 0
M  V30 3340 C 323.278 4.56488 -0.371845 0
M  V30 3341 N 324.769 4.62089 -0.320641 0
M  V30 3342 C 325.504 5.71116 -0.511243 0
M  V30 3343 N 325 6.88592 -0.762461 0
M  V30 3344 N 326.793 5.60335 -0.445157 0
M  V30 3345 H 318.944 1.78788 -1.14668 0
M  V30 3346 H 321.207 0.829996 -0.458051 0
M  V30 3347 H 320.913 3.32117 -1.15721 0
M  V30 3348 H 320.787 3.73257 0.543986 0
M  V30 3349 H 323.174 2.80878 0.905065 0
M  V30 3350 H 323.255 2.42304 -0.81989 0
M  V30 3351 H 322.899 4.89189 -1.36588 0
M  V30 3352 H 322.829 5.25246 0.377362 0
M  V30 3353 H 325.32 3.77665 -0.13329 0
M  V30 3354 H 325.633 7.67581 -0.896576 0
M  V30 3355 H 323.978 6.90387 -0.799412 0
M  V30 3356 H 327.169 4.67436 -0.249278 0
M  V30 3357 H 327.342 6.45243 -0.597116 0
M  V30 3358 N 320.748 -0.0735177 1.57428 0
M  V30 3359 C 321.678 -1.0879 2.06608 0
M  V30 3360 C 322.659 -1.40473 0.959237 0
M  V30 3361 O 323.844 -1.5013 1.23185 0
M  V30 3362 C 320.974 -2.40183 2.50857 0
M  V30 3363 C 319.928 -2.22858 3.65402 0
M  V30 3364 C 319.254 -3.59619 3.957 0
M  V30 3365 C 320.554 -1.65123 4.95511 0
M  V30 3366 H 322.248 -0.678673 2.91607 0
M  V30 3367 H 319.794 -0.325013 1.40284 0
M  V30 3368 H 321.747 -3.11437 2.83874 0
M  V30 3369 H 320.471 -2.83083 1.62885 0
M  V30 3370 H 319.13 -1.54045 3.32664 0
M  V30 3371 H 318.778 -4.00086 3.04861 0
M  V30 3372 H 318.478 -3.48866 4.72828 0
M  V30 3373 H 320.002 -4.32306 4.31212 0
M  V30 3374 H 321.416 -2.26241 5.26771 0
M  V30 3375 H 319.813 -1.65071 5.7695 0
M  V30 3376 H 320.883 -0.612559 4.81015 0
M  V30 3377 N 322.226 -1.5378 -0.344866 0
M  V30 3378 C 323.173 -1.81676 -1.42346 0
M  V30 3379 C 324.143 -0.662376 -1.52321 0
M  V30 3380 O 325.328 -0.906675 -1.67881 0
M  V30 3381 C 322.468 -2.03087 -2.79015 0
M  V30 3382 C 321.581 -3.30799 -2.77842 0
M  V30 3383 C 320.716 -3.42285 -4.0622 0
M  V30 3384 C 319.755 -4.6395 -3.9927 0
M  V30 3385 N 318.892 -4.72477 -5.19336 0
M  V30 3386 H 323.732 -2.73703 -1.17858 0
M  V30 3387 H 321.269 -1.35568 -0.570949 0
M  V30 3388 H 323.227 -2.1349 -3.58438 0
M  V30 3389 H 321.857 -1.14375 -3.01858 0
M  V30 3390 H 320.909 -3.29244 -1.90533 0
M  V30 3391 H 322.221 -4.20314 -2.68584 0
M  V30 3392 H 321.375 -3.52113 -4.94066 0
M  V30 3393 H 320.114 -2.50823 -4.18258 0
M  V30 3394 H 319.119 -4.54201 -3.09809 0
M  V30 3395 H 320.344 -5.56775 -3.88817 0
M  V30 3396 H 318.29 -3.83924 -5.3192 0
M  V30 3397 H 318.207 -5.55927 -5.12329 0
M  V30 3398 H 319.475 -4.86613 -6.08957 0
M  V30 3399 N 323.704 0.605807 -1.45491 0
M  V30 3400 C 324.953 1.36086 -1.48874 0
M  V30 3401 C 325.266 1.95131 -0.135333 0
M  V30 3402 O 326.472 2.7146 -0.0468144 0
M  V30 3403 C 324.928 2.46518 -2.62215 0
M  V30 3404 C 324.536 1.93877 -4.03876 0
M  V30 3405 C 326.28 3.23512 -2.74846 0
M  V30 3406 C 324.187 3.01801 -5.08596 0
M  V30 3407 H 323.117 0.511497 -0.553974 0
M  V30 3408 H 325.768 0.649089 -1.71636 0
M  V30 3409 H 324.15 3.20388 -2.32739 0
M  V30 3410 H 325.324 1.26704 -4.43038 0
M  V30 3411 H 323.639 1.29622 -3.95711 0
M  V30 3412 H 326.236 4.04013 -3.50253 0
M  V30 3413 H 326.579 3.74631 -1.81542 0
M  V30 3414 H 327.112 2.56742 -3.03856 0
M  V30 3415 H 323.851 2.55597 -6.03614 0
M  V30 3416 H 323.371 3.67535 -4.74002 0
M  V30 3417 H 325.05 3.66152 -5.33424 0
M  V30 3418 N 325.182 1.32811 0.848464 0
M  V30 3419 C 326.598 1.11937 1.13764 0
M  V30 3420 C 326.798 -0.0960789 2.01271 0
M  V30 3421 O 325.854 -0.779165 2.40178 0
M  V30 3422 C 327.167 2.402 1.809 0
M  V30 3423 C 328.715 2.46016 1.93508 0
M  V30 3424 C 329.19 3.74215 2.64059 0
M  V30 3425 N 330.681 3.75232 2.71579 0
M  V30 3426 C 331.416 4.71134 3.26833 0
M  V30 3427 N 330.912 5.77406 3.8285 0
M  V30 3428 N 332.705 4.58623 3.24995 0
M  V30 3429 H 324.856 2.1073 0.265855 0
M  V30 3430 H 327.119 0.930671 0.180431 0
M  V30 3431 H 326.825 3.29093 1.24058 0
M  V30 3432 H 326.699 2.51628 2.81004 0
M  V30 3433 H 329.086 1.57577 2.49506 0
M  V30 3434 H 329.167 2.38536 0.923811 0
M  V30 3435 H 328.811 4.63031 2.08722 0
M  V30 3436 H 328.741 3.78968 3.65637 0
M  V30 3437 H 331.232 2.98423 2.31845 0
M  V30 3438 H 331.545 6.46632 4.23187 0
M  V30 3439 H 329.89 5.81152 3.81165 0
M  V30 3440 H 333.081 3.74762 2.80484 0
M  V30 3441 H 333.254 5.33535 3.67756 0
M  V30 3442 N 326.66 -1.06551 1.16123 0
M  V30 3443 C 327.909 -1.78687 0.935622 0
M  V30 3444 C 328.222 -1.88056 -0.538001 0
M  V30 3445 O 329.428 -2.56794 -0.88143 0
M  V30 3446 C 327.884 -3.21143 1.62466 0
M  V30 3447 C 327.492 -3.19949 3.13587 0
M  V30 3448 C 329.236 -3.9783 1.48092 0
M  V30 3449 C 327.143 -4.57108 3.75241 0
M  V30 3450 H 326.073 -0.669712 0.346412 0
M  V30 3451 H 328.724 -1.19534 1.39226 0
M  V30 3452 H 327.106 -3.80539 1.09572 0
M  V30 3453 H 328.28 -2.70151 3.73303 0
M  V30 3454 H 326.595 -2.5676 3.27816 0
M  V30 3455 H 329.192 -4.99217 1.91538 0
M  V30 3456 H 329.535 -4.14078 0.429507 0
M  V30 3457 H 330.068 -3.4495 1.98127 0
M  V30 3458 H 326.807 -4.46065 4.80319 0
M  V30 3459 H 326.327 -5.07111 3.20309 0
M  V30 3460 H 328.006 -5.26069 3.76644 0
M  V30 3461 N 328.138 -0.959301 -1.25041 0
M  V30 3462 C 329.415 -0.533805 -1.88175 0
M  V30 3463 C 329.795 0.988994 -1.865 0
M  V30 3464 O 329.143 1.85677 -1.33177 0
M  V30 3465 C 329.353 -1.11575 -3.30684 0
M  V30 3466 C 330.701 -1.19548 -4.07423 0
M  V30 3467 O 331.725 -1.06765 -3.39823 0
M  V30 3468 O 330.584 -1.39656 -5.28354 0
M  V30 3469 H 327.678 -0.176772 -0.807887 0
M  V30 3470 H 330.224 -1.05303 -1.33076 0
M  V30 3471 H 328.996 -2.15884 -3.26358 0
M  V30 3472 H 328.619 -0.580059 -3.93346 0
M  V30 3473 N 329.616 1.39756 -0.72842 0
M  V30 3474 C 330.579 2.29012 -0.0927297 0
M  V30 3475 C 331.579 1.45992 0.674025 0
M  V30 3476 O 332.769 1.66749 0.50402 0
M  V30 3477 C 329.901 3.29396 0.878137 0
M  V30 3478 H 331.094 2.86729 -0.879011 0
M  V30 3479 H 328.647 1.48293 -0.493847 0
M  V30 3480 H 329.382 2.76722 1.69101 0
M  V30 3481 H 329.167 3.907 0.331051 0
M  V30 3482 H 330.657 3.96199 1.3197 0
M  V30 3483 N 331.094 0.475555 1.50254 0
M  V30 3484 C 332.027 -0.362381 2.25304 0
M  V30 3485 C 333.005 -0.992393 1.28803 0
M  V30 3486 O 334.189 -1.02746 1.58036 0
M  V30 3487 C 331.316 -1.50813 3.03271 0
M  V30 3488 C 330.362 -0.995044 4.1473 0
M  V30 3489 S 331.195 0.0938436 5.35418 0
M  V30 3490 C 332.351 -1.05567 6.16933 0
M  V30 3491 H 332.584 0.274686 2.96028 0
M  V30 3492 H 330.117 0.260495 1.52187 0
M  V30 3493 H 332.075 -2.16476 3.48781 0
M  V30 3494 H 330.736 -2.11672 2.32064 0
M  V30 3495 H 329.929 -1.85293 4.68703 0
M  V30 3496 H 329.531 -0.416052 3.71679 0
M  V30 3497 H 331.823 -1.96636 6.48337 0
M  V30 3498 H 332.766 -0.555109 7.05921 0
M  V30 3499 H 333.174 -1.31151 5.49053 0
M  V30 3500 N 332.573 -1.56217 0.208337 0
M  V30 3501 C 333.523 -2.16324 -0.720281 0
M  V30 3502 C 334.507 -1.10775 -1.16695 0
M  V30 3503 O 335.699 -1.36801 -1.12314 0
M  V30 3504 C 332.828 -2.83644 -1.93393 0
M  V30 3505 C 331.914 -3.96401 -1.50755 0
M  V30 3506 N 332.305 -4.99546 -0.792937 0
M  V30 3507 C 330.603 -4.08246 -1.79585 0
M  V30 3508 C 331.304 -5.78828 -0.577364 0
M  V30 3509 N 330.28 -5.31723 -1.1301 0
M  V30 3510 H 334.082 -2.93432 -0.165725 0
M  V30 3511 H 331.596 -1.62397 0.00906463 0
M  V30 3512 H 333.593 -3.25107 -2.60981 0
M  V30 3513 H 332.253 -2.08027 -2.49308 0
M  V30 3514 H 333.264 -5.15967 -0.447004 0
M  V30 3515 H 329.941 -3.4377 -2.36915 0
M  V30 3516 H 331.331 -6.71899 -0.00952956 0
M  V30 3517 N 334.051 0.0651679 -1.57465 0
M  V30 3518 C 335.299 0.761555 -1.87202 0
M  V30 3519 C 335.62 1.77778 -0.801243 0
M  V30 3520 O 334.89 1.95166 0.16937 0
M  V30 3521 H 333.47 0.284251 -0.690804 0
M  V30 3522 H 336.132 0.0396827 -1.9486 0
M  V30 3523 H 335.228 1.27365 -2.84929 0
M  V30 3524 N 335.529 1.53961 0.336706 0
M  V30 3525 C 336.775 1.7179 1.07777 0
M  V30 3526 C 337.108 0.483263 1.88091 0
M  V30 3527 O 336.383 -0.519747 1.87427 0
M  V30 3528 C 336.666 2.98558 2.01334 0
M  V30 3529 C 336.519 4.32245 1.24437 0
M  V30 3530 C 337.838 3.21023 3.01052 0
M  V30 3531 H 334.957 0.625089 0.390426 0
M  V30 3532 H 337.599 1.86641 0.35567 0
M  V30 3533 H 335.749 2.86028 2.62908 0
M  V30 3534 H 337.421 4.56637 0.654243 0
M  V30 3535 H 335.664 4.30344 0.546458 0
M  V30 3536 H 336.335 5.17137 1.93063 0
M  V30 3537 H 338.811 3.32929 2.49595 0
M  V30 3538 H 337.687 4.11104 3.6371 0
M  V30 3539 H 337.948 2.37637 3.72802 0
M  V30 3540 N 337.007 -0.598083 1.45811 0
M  V30 3541 C 338.253 -1.35882 1.50545 0
M  V30 3542 C 338.586 -1.93616 0.150445 0
M  V30 3543 O 337.861 -1.75604 -0.83628 0
M  V30 3544 C 338.144 -2.49966 2.59208 0
M  V30 3545 C 337.997 -1.97367 4.04186 0
M  V30 3546 C 339.316 -3.52068 2.64076 0
M  V30 3547 H 336.435 -0.492717 0.548087 0
M  V30 3548 H 339.077 -0.673319 1.77669 0
M  V30 3549 H 337.227 -3.08443 2.3621 0
M  V30 3550 H 338.899 -1.43466 4.38423 0
M  V30 3551 H 337.142 -1.283 4.14393 0
M  V30 3552 H 337.813 -2.79649 4.75921 0
M  V30 3553 H 340.289 -3.03448 2.84708 0
M  V30 3554 H 339.165 -4.2937 3.41954 0
M  V30 3555 H 339.426 -4.08304 1.69531 0
M  V30 3556 N 338.485 -1.33259 -0.841409 0
M  V30 3557 C 339.733 -1.24326 -1.59334 0
M  V30 3558 C 340.054 0.191564 -1.94057 0
M  V30 3559 O 339.324 1.11967 -1.60749 0
M  V30 3560 H 337.904 -0.457174 -0.590763 0
M  V30 3561 H 340.566 -1.66947 -1.00571 0
M  V30 3562 H 339.662 -1.8352 -2.52442 0
M  V30 3563 N 339.963 1.05934 -1.16686 0
M  V30 3564 C 341.374 1.60263 -0.957745 0
M  V30 3565 C 341.725 1.89789 0.49745 0
M  V30 3566 O 340.85 1.67401 1.37135 0
M  V30 3567 C 341.445 2.91172 -1.73218 0
M  V30 3568 C 340.004 3.42188 -1.56794 0
M  V30 3569 C 339.151 2.16028 -1.73859 0
M  V30 3570 H 342.102 0.888392 -1.31504 0
M  V30 3571 H 342.123 3.60744 -1.21014 0
M  V30 3572 H 341.635 2.6965 -2.79124 0
M  V30 3573 H 339.736 3.68762 -0.533437 0
M  V30 3574 H 339.849 4.17273 -2.35414 0
M  V30 3575 H 338.213 2.26426 -1.16633 0
M  V30 3576 H 338.996 1.96985 -2.81161 0
M  V30 3577 N 341.441 0.965919 1.2453 0
M  V30 3578 C 342.671 0.643451 1.96324 0
M  V30 3579 C 343.079 -0.790927 1.71875 0
M  V30 3580 O 342.422 -1.54208 0.998273 0
M  V30 3581 C 342.484 0.836078 3.49643 0
M  V30 3582 C 342.148 2.24975 3.97788 0
M  V30 3583 C 343.145 3.22735 4.07601 0
M  V30 3584 C 340.83 2.57697 4.31158 0
M  V30 3585 C 342.824 4.51303 4.50116 0
M  V30 3586 C 340.511 3.86492 4.73357 0
M  V30 3587 C 341.509 4.83107 4.828 0
M  V30 3588 O 341.197 6.09605 5.24058 0
M  V30 3589 H 340.929 0.239223 0.632257 0
M  V30 3590 H 343.483 1.29587 1.59362 0
M  V30 3591 H 341.713 0.12649 3.86493 0
M  V30 3592 H 343.402 0.512965 4.02646 0
M  V30 3593 H 344.168 2.98783 3.82039 0
M  V30 3594 H 340.047 1.83216 4.23028 0
M  V30 3595 H 343.591 5.26716 4.57401 0
M  V30 3596 H 339.488 4.10245 4.98366 0
M  V30 3597 H 340.256 6.13146 5.42213 0
M  V30 3598 N 342.919 -1.39368 0.735821 0
M  V30 3599 C 344.165 -2.00794 0.284544 0
M  V30 3600 C 344.498 -1.58255 -1.12557 0
M  V30 3601 O 343.773 -0.811819 -1.76748 0
M  V30 3602 C 344.056 -3.58011 0.387337 0
M  V30 3603 C 343.909 -4.10566 1.83728 0
M  V30 3604 C 345.228 -4.395 -0.22975 0
M  V30 3605 H 342.347 -0.729501 0.104866 0
M  V30 3606 H 344.989 -1.65564 0.93213 0
M  V30 3607 H 343.139 -3.88154 -0.164006 0
M  V30 3608 H 344.811 -3.91139 2.44556 0
M  V30 3609 H 343.054 -3.64095 2.35833 0
M  V30 3610 H 343.725 -5.19702 1.86047 0
M  V30 3611 H 346.201 -4.15406 0.240257 0
M  V30 3612 H 345.077 -5.48752 -0.127485 0
M  V30 3613 H 345.338 -4.22062 -1.3159 0
M  V30 3614 N 344.397 -0.483516 -1.5 0
M  V30 3615 C 345.344 0.304164 -2.28787 0
M  V30 3616 C 346.314 0.976114 -1.34392 0
M  V30 3617 O 347.499 0.986156 -1.63339 0
M  V30 3618 C 344.639 1.37298 -3.16612 0
M  V30 3619 C 343.752 0.714561 -4.26049 0
M  V30 3620 C 342.887 1.76232 -5.01114 0
M  V30 3621 C 341.926 1.08483 -6.0241 0
M  V30 3622 N 341.063 2.076 -6.70706 0
M  V30 3623 H 345.903 -0.373981 -2.95644 0
M  V30 3624 H 343.44 -0.196275 -1.45785 0
M  V30 3625 H 345.398 2.00445 -3.65893 0
M  V30 3626 H 344.028 2.02012 -2.51776 0
M  V30 3627 H 343.08 -0.0297798 -3.80388 0
M  V30 3628 H 344.392 0.180383 -4.98474 0
M  V30 3629 H 343.546 2.46929 -5.54176 0
M  V30 3630 H 342.285 2.33033 -4.28424 0
M  V30 3631 H 341.29 0.363545 -5.48597 0
M  V30 3632 H 342.515 0.523551 -6.77079 0
M  V30 3633 H 340.461 2.63394 -6.00799 0
M  V30 3634 H 340.378 1.59201 -7.39047 0
M  V30 3635 H 341.646 2.77639 -7.2838 0
M  V30 3636 N 345.875 1.56104 -0.216619 0
M  V30 3637 C 346.822 2.2007 0.695531 0
M  V30 3638 C 347.792 1.15471 1.19397 0
M  V30 3639 O 348.977 1.43807 1.25396 0
M  V30 3640 C 346.117 2.88073 1.90021 0
M  V30 3641 C 345.23 4.07253 1.44113 0
M  V30 3642 C 344.365 4.63052 2.603 0
M  V30 3643 C 343.404 5.74545 2.11103 0
M  V30 3644 N 342.541 6.24656 3.20545 0
M  V30 3645 H 347.381 2.97655 0.143327 0
M  V30 3646 H 344.918 1.46982 0.0589934 0
M  V30 3647 H 346.876 3.25681 2.60745 0
M  V30 3648 H 345.506 2.13015 2.42538 0
M  V30 3649 H 344.558 3.75164 0.628999 0
M  V30 3650 H 345.87 4.8783 1.04036 0
M  V30 3651 H 345.024 5.03078 3.39113 0
M  V30 3652 H 343.763 3.81628 3.03663 0
M  V30 3653 H 342.768 5.34027 1.3075 0
M  V30 3654 H 343.993 6.57801 1.68746 0
M  V30 3655 H 341.939 5.46148 3.63399 0
M  V30 3656 H 341.856 7.00343 2.84704 0
M  V30 3657 H 343.124 6.69338 3.99508 0
M  V30 3658 N 347.353 -0.0568162 1.57498 0
M  V30 3659 C 348.602 -0.752001 1.87157 0
M  V30 3660 C 348.915 -1.77978 0.811375 0
M  V30 3661 O 350.121 -2.52559 0.996293 0
M  V30 3662 C 348.577 -1.38844 3.3204 0
M  V30 3663 C 348.185 -0.398456 4.46225 0
M  V30 3664 C 349.929 -2.06512 3.70882 0
M  V30 3665 C 347.836 -1.04166 5.82154 0
M  V30 3666 H 346.766 -0.28461 0.698222 0
M  V30 3667 H 349.417 -0.00561272 1.83499 0
M  V30 3668 H 347.799 -2.1836 3.30356 0
M  V30 3669 H 348.973 0.367977 4.59328 0
M  V30 3670 H 347.288 0.174592 4.16034 0
M  V30 3671 H 349.885 -2.55437 4.6974 0
M  V30 3672 H 350.228 -2.87117 3.01445 0
M  V30 3673 H 350.761 -1.33808 3.7462 0
M  V30 3674 H 347.5 -0.275614 6.5492 0
M  V30 3675 H 347.02 -1.7786 5.72823 0
M  V30 3676 H 348.699 -1.55715 6.27982 0
M  V30 3677 N 348.832 -1.54138 -0.328536 0
M  V30 3678 C 349.762 -1.86167 -1.40939 0
M  V30 3679 C 350.743 -0.718044 -1.54202 0
M  V30 3680 O 351.928 -0.971328 -1.68163 0
M  V30 3681 C 349.058 -2.08461 -2.77779 0
M  V30 3682 C 348.012 -3.24299 -2.7931 0
M  V30 3683 C 347.338 -3.31955 -4.19178 0
M  V30 3684 C 348.638 -4.62065 -2.43502 0
M  V30 3685 H 350.332 -2.76689 -1.14383 0
M  V30 3686 H 347.878 -1.33132 -0.548806 0
M  V30 3687 H 349.831 -2.29453 -3.53454 0
M  V30 3688 H 348.555 -1.14684 -3.05802 0
M  V30 3689 H 347.214 -3.03187 -2.0609 0
M  V30 3690 H 346.862 -2.35745 -4.44335 0
M  V30 3691 H 346.562 -4.09805 -4.2111 0
M  V30 3692 H 348.086 -3.55175 -4.96672 0
M  V30 3693 H 349.5 -4.8297 -3.08889 0
M  V30 3694 H 347.897 -5.42429 -2.56693 0
M  V30 3695 H 348.967 -4.64652 -1.38659 0
M  V30 3696 N 350.31 0.590341 -1.46126 0
M  V30 3697 C 351.55 1.35995 -1.52593 0
M  V30 3698 C 351.914 1.91243 -0.170368 0
M  V30 3699 O 353.115 2.68576 -0.109775 0
M  V30 3700 C 351.386 2.46465 -2.58823 0
M  V30 3701 S 352.945 3.33953 -2.84641 0
M  V30 3702 H 349.763 0.463425 -0.53922 0
M  V30 3703 H 352.365 0.67944 -1.83314 0
M  V30 3704 H 351.069 2.04256 -3.5596 0
M  V30 3705 H 350.6 3.19297 -2.2981 0
M  V30 3706 H 352.615 4.45094 -2.19331 0
M  V30 3707 N 351.788 1.33704 0.83433 0
M  V30 3708 C 352.698 1.26382 1.97648 0
M  V30 3709 C 353.714 0.173548 1.73132 0
M  V30 3710 O 354.89 0.397962 1.97429 0
M  V30 3711 C 351.955 1.00769 3.31733 0
M  V30 3712 C 351.016 2.1884 3.69334 0
M  V30 3713 C 350.249 1.9444 4.9702 0
M  V30 3714 O 350.472 0.896961 5.63303 0
M  V30 3715 O 349.406 2.81093 5.32231 0
M  V30 3716 H 353.232 2.22444 2.06767 0
M  V30 3717 H 350.817 1.13795 0.968037 0
M  V30 3718 H 352.699 0.882186 4.12062 0
M  V30 3719 H 351.374 0.0773783 3.23608 0
M  V30 3720 H 350.281 2.36946 2.89495 0
M  V30 3721 H 351.614 3.10221 3.82131 0
M  V30 3722 N 353.266 -1.05314 1.17247 0
M  V30 3723 C 354.176 -2.16538 0.90268 0
M  V30 3724 C 355.192 -1.73523 -0.128707 0
M  V30 3725 O 356.368 -2.01337 0.0502701 0
M  V30 3726 C 353.433 -3.44167 0.418356 0
M  V30 3727 C 352.494 -4.01635 1.51618 0
M  V30 3728 C 351.727 -5.23171 1.05487 0
M  V30 3729 O 351.95 -5.70327 -0.0914715 0
M  V30 3730 O 350.884 -5.72848 1.8474 0
M  V30 3731 H 354.71 -2.42145 1.83302 0
M  V30 3732 H 352.295 -1.15037 0.953246 0
M  V30 3733 H 354.177 -4.21112 0.155726 0
M  V30 3734 H 352.852 -3.20063 -0.48385 0
M  V30 3735 H 351.759 -3.26135 1.83268 0
M  V30 3736 H 353.092 -4.30053 2.39405 0
M  V30 3737 N 354.744 -0.972509 -1.24016 0
M  V30 3738 C 355.674 -0.525548 -2.27509 0
M  V30 3739 C 356.655 0.437262 -1.64384 0
M  V30 3740 O 357.84 0.332343 -1.91335 0
M  V30 3741 C 354.97 0.180448 -3.46831 0
M  V30 3742 C 353.924 -0.698859 -4.22256 0
M  V30 3743 C 353.25 0.138903 -5.3452 0
M  V30 3744 C 354.55 -1.98582 -4.83076 0
M  V30 3745 H 356.244 -1.39058 -2.65148 0
M  V30 3746 H 353.79 -0.67009 -1.27459 0
M  V30 3747 H 355.743 0.504387 -4.18371 0
M  V30 3748 H 354.467 1.07987 -3.08231 0
M  V30 3749 H 353.126 -1.00614 -3.52523 0
M  V30 3750 H 352.774 1.03862 -4.9216 0
M  V30 3751 H 352.474 -0.446259 -5.85903 0
M  V30 3752 H 353.998 0.457404 -6.08884 0
M  V30 3753 H 355.412 -1.72715 -5.46665 0
M  V30 3754 H 353.809 -2.5181 -5.44713 0
M  V30 3755 H 354.879 -2.67769 -4.04262 0
M  V30 3756 N 356.222 1.38976 -0.743202 0
M  V30 3757 C 357.47 1.99948 -0.29417 0
M  V30 3758 C 357.791 1.59279 1.12495 0
M  V30 3759 O 357.061 0.844808 1.76748 0
M  V30 3760 H 355.641 0.739473 -0.105774 0
M  V30 3761 H 358.303 1.699 -0.954986 0
M  V30 3762 H 357.399 3.10142 -0.349056 0
M  V30 3763 N 357.7 0.491464 1.49741 0
M  V30 3764 C 358.663 -0.280906 2.27472 0
M  V30 3765 C 359.663 -0.902454 1.33088 0
M  V30 3766 O 360.853 -0.768465 1.56334 0
M  V30 3767 C 357.985 -1.40209 3.10732 0
M  V30 3768 H 359.178 0.401056 2.97206 0
M  V30 3769 H 356.731 0.246131 1.5435 0
M  V30 3770 H 357.466 -2.11849 2.45541 0
M  V30 3771 H 357.251 -0.961969 3.80117 0
M  V30 3772 H 358.741 -1.9464 3.69466 0
M  V30 3773 N 359.178 -1.55987 0.224894 0
M  V30 3774 C 360.589 -1.84553 -0.282345 0
M  V30 3775 C 360.94 -1.14634 -1.59227 0
M  V30 3776 O 360.065 -0.417155 -2.12341 0
M  V30 3777 C 360.66 -3.348 -0.519062 0
M  V30 3778 C 359.219 -3.63671 -0.970604 0
M  V30 3779 C 358.366 -2.77277 -0.0355261 0
M  V30 3780 H 361.317 -1.52245 0.448006 0
M  V30 3781 H 361.338 -3.55187 -1.36463 0
M  V30 3782 H 360.85 -3.8566 0.43449 0
M  V30 3783 H 358.951 -3.1827 -1.9374 0
M  V30 3784 H 359.064 -4.71631 -0.842698 0
M  V30 3785 H 357.428 -2.48846 -0.542927 0
M  V30 3786 H 358.211 -3.30937 0.913003 0
M  V30 3787 N 360.656 0.0484629 -1.57525 0
M  V30 3788 C 361.619 1.03956 -2.04269 0
M  V30 3789 C 362.619 1.30211 -0.943496 0
M  V30 3790 O 363.809 1.25539 -1.20771 0
M  V30 3791 C 360.941 2.37742 -2.44319 0
M  V30 3792 H 362.134 0.636182 -2.93075 0
M  V30 3793 H 359.687 0.294811 -1.53494 0
M  V30 3794 H 360.422 2.82866 -1.5861 0
M  V30 3795 H 360.207 2.20021 -3.24551 0
M  V30 3796 H 361.697 3.08936 -2.80978 0
M  V30 3797 N 362.134 1.5431 0.320358 0
M  V30 3798 C 363.082 1.84647 1.4145 0
M  V30 3799 C 364.076 0.718624 1.53402 0
M  V30 3800 O 365.282 0.902335 1.5575 0
M  V30 3801 H 361.657 0.585349 0.472091 0
M  V30 3802 H 363.628 2.7614 1.13089 0
M  V30 3803 C 362.377 2.09341 2.77617 0
M  V30 3804 H 361.7 2.9559 2.69196 0
M  V30 3805 H 363.14 2.3452 3.53237 0
M  V30 3806 C 361.599 0.885939 3.25043 0
M  V30 3807 O 362.129 0.0967891 4.01583 0
M  V30 3808 N 360.335 0.696682 2.82125 0
M  V30 3809 H 359.882 1.34006 2.2 0
M  V30 3810 H 359.84 -0.109712 3.14209 0
M  V30 3811 N 363.613 -0.582584 1.46437 0
M  V30 3812 C 364.838 -1.37168 1.55563 0
M  V30 3813 C 365.263 -1.87061 0.19743 0
M  V30 3814 O 364.621 -1.61572 -0.822451 0
M  V30 3815 C 364.669 -2.53511 2.56446 0
M  V30 3816 O 363.773 -3.54953 2.09958 0
M  V30 3817 H 363.114 -0.408494 0.523477 0
M  V30 3818 H 365.644 -0.706646 1.9201 0
M  V30 3819 H 365.654 -3.00426 2.76058 0
M  V30 3820 H 364.329 -2.16549 3.55076 0
M  V30 3821 H 362.906 -3.14516 2.00334 0
M  V30 3822 N 365.091 -1.34144 -0.827227 0
M  V30 3823 C 366.054 -1.25264 -1.91942 0
M  V30 3824 C 367.054 -0.168866 -1.59911 0
M  V30 3825 O 368.244 -0.421198 -1.69031 0
M  V30 3826 C 365.376 -0.932952 -3.27885 0
M  V30 3827 H 366.569 -2.22357 -2.0124 0
M  V30 3828 H 364.122 -1.1837 -1.0207 0
M  V30 3829 H 364.857 0.0349917 -3.24281 0
M  V30 3830 H 364.642 -1.71682 -3.52516 0
M  V30 3831 H 366.132 -0.895874 -4.07877 0
M  V30 3832 N 366.569 1.04691 -1.17803 0
M  V30 3833 C 367.815 1.78045 -0.970969 0
M  V30 3834 C 368.148 1.87686 0.498751 0
M  V30 3835 O 367.423 1.38035 1.37027 0
M  V30 3836 C 367.706 3.2166 -1.61884 0
M  V30 3837 C 367.559 3.20001 -3.161 0
M  V30 3838 C 368.878 4.1962 -1.3269 0
M  V30 3839 H 365.997 0.64633 -0.354155 0
M  V30 3840 H 368.639 1.22333 -1.45378 0
M  V30 3841 H 366.789 3.69232 -1.20831 0
M  V30 3842 H 368.461 2.80467 -3.66246 0
M  V30 3843 H 366.704 2.58203 -3.48588 0
M  V30 3844 H 367.375 4.21386 -3.56564 0
M  V30 3845 H 369.851 3.80567 -1.68249 0
M  V30 3846 H 368.727 5.18339 -1.80599 0
M  V30 3847 H 368.988 4.414 -0.248622 0
M  V30 3848 N 368.047 0.979072 1.23499 0
M  V30 3849 C 368.995 0.510604 2.26926 0
M  V30 3850 C 369.989 -0.431691 1.63807 0
M  V30 3851 O 371.195 -0.30573 1.77385 0
M  V30 3852 H 367.57 0.146688 0.737554 0
M  V30 3853 H 369.541 1.39466 2.63803 0
M  V30 3854 C 368.29 -0.172658 3.47271 0
M  V30 3855 H 367.613 0.543331 3.96091 0
M  V30 3856 H 369.053 -0.464101 4.21452 0
M  V30 3857 C 367.512 -1.40345 3.06276 0
M  V30 3858 O 368.042 -2.49978 3.14442 0
M  V30 3859 N 366.248 -1.27362 2.61203 0
M  V30 3860 H 365.795 -0.381584 2.54758 0
M  V30 3861 H 365.753 -2.09822 2.34141 0
M  V30 3862 N 369.525 -1.3858 0.750561 0
M  V30 3863 C 370.765 -2.02032 0.310258 0
M  V30 3864 C 371.129 -1.58288 -1.08668 0
M  V30 3865 O 372.33 -2.14049 -1.62593 0
M  V30 3866 C 370.601 -3.54856 0.425647 0
M  V30 3867 S 372.16 -4.38748 0.0674797 0
M  V30 3868 H 368.978 -0.700705 0.120554 0
M  V30 3869 H 371.58 -1.69134 0.980512 0
M  V30 3870 H 370.284 -3.84182 1.44335 0
M  V30 3871 H 369.815 -3.92527 -0.261894 0
M  V30 3872 H 371.83 -4.82835 -1.14388 0
M  V30 3873 N 371.003 -0.499398 -1.49478 0
M  V30 3874 C 372.249 0.0457576 -2.02748 0
M  V30 3875 C 372.582 1.36793 -1.37846 0
M  V30 3876 O 371.857 1.87596 -0.513601 0
M  V30 3877 C 372.14 0.199986 -3.59544 0
M  V30 3878 C 371.993 -1.1452 -4.34977 0
M  V30 3879 C 373.312 0.94137 -4.29914 0
M  V30 3880 H 370.431 0.0151552 -0.736844 0
M  V30 3881 H 373.073 -0.650498 -1.78518 0
M  V30 3882 H 371.223 0.793007 -3.8032 0
M  V30 3883 H 372.895 -1.77697 -4.25701 0
M  V30 3884 H 371.138 -1.73488 -3.97598 0
M  V30 3885 H 371.809 -0.990607 -5.43039 0
M  V30 3886 H 374.285 0.43844 -4.13784 0
M  V30 3887 H 373.161 1.01812 -5.39375 0
M  V30 3888 H 373.422 1.98471 -3.95046 0
M  V30 3889 N 372.481 1.55866 -0.233164 0
M  V30 3890 C 373.892 1.847 0.272554 0
M  V30 3891 C 374.243 1.15477 1.58617 0
M  V30 3892 O 373.368 0.42841 2.12117 0
M  V30 3893 C 373.963 3.35071 0.501299 0
M  V30 3894 C 372.522 3.6418 0.951304 0
M  V30 3895 C 371.669 2.77292 0.0208209 0
M  V30 3896 H 374.62 1.52005 -0.456074 0
M  V30 3897 H 374.641 3.55906 1.34577 0
M  V30 3898 H 374.153 3.85424 -0.454936 0
M  V30 3899 H 372.254 3.19293 1.92049 0
M  V30 3900 H 372.367 4.72071 0.817675 0
M  V30 3901 H 370.731 2.49131 0.529723 0
M  V30 3902 H 371.514 3.30448 -0.93054 0
M  V30 3903 N 373.959 -0.0401083 1.57549 0
M  V30 3904 C 374.889 -1.04384 2.08869 0
M  V30 3905 C 375.87 -1.38407 0.988817 0
M  V30 3906 O 377.055 -1.47483 1.26342 0
M  V30 3907 C 374.185 -2.34808 2.55895 0
M  V30 3908 C 373.139 -2.15057 3.70047 0
M  V30 3909 C 372.465 -3.51145 4.03239 0
M  V30 3910 C 373.765 -1.54576 4.98902 0
M  V30 3911 H 375.459 -0.616666 2.92981 0
M  V30 3912 H 373.005 -0.295184 1.40942 0
M  V30 3913 H 374.958 -3.05346 2.90417 0
M  V30 3914 H 373.682 -2.79565 1.68853 0
M  V30 3915 H 372.341 -1.46954 3.35857 0
M  V30 3916 H 371.989 -3.93529 3.13279 0
M  V30 3917 H 371.689 -3.38758 4.80122 0
M  V30 3918 H 373.213 -4.23062 4.40285 0
M  V30 3919 H 374.627 -2.15017 5.31451 0
M  V30 3920 H 373.024 -1.52796 5.80322 0
M  V30 3921 H 374.094 -0.51039 4.82206 0
M  V30 3922 N 375.437 -1.54477 -0.31217 0
M  V30 3923 C 376.347 -1.87695 -1.4074 0
M  V30 3924 C 377.363 -0.769975 -1.56036 0
M  V30 3925 O 378.539 -1.06537 -1.70915 0
M  V30 3926 C 375.604 -2.10755 -2.75287 0
M  V30 3927 C 374.665 -3.34514 -2.69071 0
M  V30 3928 C 373.898 -3.56465 -3.97201 0
M  V30 3929 O 374.121 -2.81637 -4.96021 0
M  V30 3930 O 373.055 -4.49964 -3.9977 0
M  V30 3931 H 376.881 -2.80849 -1.15574 0
M  V30 3932 H 374.466 -1.40526 -0.507228 0
M  V30 3933 H 376.348 -2.27188 -3.54913 0
M  V30 3934 H 375.023 -1.20788 -3.0032 0
M  V30 3935 H 373.93 -3.23456 -1.87955 0
M  V30 3936 H 375.263 -4.24575 -2.48992 0
M  V30 3937 N 376.915 0.57481 -1.46744 0
M  V30 3938 C 378.192 1.3352 -1.4294 0
M  V30 3939 C 378.572 2.10775 -0.117009 0
M  V30 3940 O 377.92 2.09966 0.901474 0
M  V30 3941 C 378.13 2.25456 -2.66403 0
M  V30 3942 C 379.478 2.87035 -3.12883 0
M  V30 3943 O 380.502 2.35766 -2.67007 0
M  V30 3944 O 379.361 3.80179 -3.92589 0
M  V30 3945 H 376.455 0.600318 -0.568812 0
M  V30 3946 H 379.001 0.595171 -1.58921 0
M  V30 3947 H 377.773 1.67851 -3.53471 0
M  V30 3948 H 377.396 3.06785 -2.52921 0
M  V30 3949 N 378.394 1.34581 0.820102 0
M  V30 3950 C 379.641 1.27096 1.57648 0
M  V30 3951 C 379.969 -0.158317 1.93855 0
M  V30 3952 O 379.224 -1.12028 1.60463 0
M  V30 3953 C 379.523 2.10997 2.8847 0
M  V30 3954 C 379.189 3.59966 2.71543 0
M  V30 3955 C 377.851 4.00575 2.66634 0
M  V30 3956 C 380.203 4.54548 2.55021 0
M  V30 3957 C 377.531 5.33953 2.43128 0
M  V30 3958 C 379.883 5.88109 2.33047 0
M  V30 3959 C 378.547 6.27878 2.26552 0
M  V30 3960 H 377.817 0.465078 0.576874 0
M  V30 3961 H 380.464 1.6635 0.948671 0
M  V30 3962 H 378.769 1.6458 3.55557 0
M  V30 3963 H 380.466 2.0255 3.46084 0
M  V30 3964 H 377.056 3.27733 2.76205 0
M  V30 3965 H 381.24 4.24069 2.57835 0
M  V30 3966 H 376.496 5.63781 2.3656 0
M  V30 3967 H 380.67 6.60985 2.19251 0
M  V30 3968 H 378.297 7.31162 2.081 0
M  V30 3969 N 379.872 -1.04064 1.18357 0
M  V30 3970 C 381.12 -1.76915 0.977013 0
M  V30 3971 C 381.441 -1.88624 -0.494577 0
M  V30 3972 O 380.711 -1.41125 -1.3587 0
M  V30 3973 H 379.291 -0.65535 0.358504 0
M  V30 3974 H 381.953 -1.25592 1.49039 0
M  V30 3975 H 381.049 -2.78178 1.41504 0
M  V30 3976 N 381.35 -0.985608 -1.22978 0
M  V30 3977 C 382.598 -0.656087 -1.91154 0
M  V30 3978 C 382.919 0.813561 -1.77218 0
M  V30 3979 O 382.189 1.58244 -1.1548 0
M  V30 3980 H 380.769 -0.239674 -0.707506 0
M  V30 3981 H 383.431 -1.25054 -1.49491 0
M  V30 3982 H 382.527 -0.912253 -2.9847 0
M  V30 3983 N 382.828 1.3818 -0.7579 0
M  V30 3984 C 383.778 2.27741 -0.108674 0
M  V30 3985 C 384.762 1.45415 0.688709 0
M  V30 3986 O 385.954 1.68108 0.553956 0
M  V30 3987 C 383.083 3.34313 0.780367 0
M  V30 3988 C 382.169 4.24093 -0.0240977 0
M  V30 3989 N 382.56 4.9451 -1.06271 0
M  V30 3990 C 380.858 4.45542 0.202049 0
M  V30 3991 C 381.559 5.60675 -1.54979 0
M  V30 3992 N 380.535 5.36684 -0.864348 0
M  V30 3993 H 384.337 2.79649 -0.904071 0
M  V30 3994 H 381.851 1.51133 -0.594346 0
M  V30 3995 H 383.848 3.97368 1.26114 0
M  V30 3996 H 382.508 2.83962 1.57467 0
M  V30 3997 H 383.519 4.97345 -1.44459 0
M  V30 3998 H 380.196 4.06091 0.96935 0
M  V30 3999 H 381.586 6.26992 -2.41517 0
M  V30 4000 N 384.306 0.507319 1.49211 0
M  V30 4001 C 385.256 -0.287112 2.26185 0
M  V30 4002 C 386.24 -0.929983 1.31302 0
M  V30 4003 O 387.432 -0.836538 1.55984 0
M  V30 4004 C 384.561 -1.34718 3.15763 0
M  V30 4005 C 383.647 -0.710235 4.18111 0
M  V30 4006 N 384.038 0.190836 5.0544 0
M  V30 4007 C 382.336 -0.97009 4.35322 0
M  V30 4008 C 383.037 0.55606 5.79036 0
M  V30 4009 N 382.013 -0.0775232 5.43545 0
M  V30 4010 H 385.815 0.406445 2.91076 0
M  V30 4011 H 383.329 0.323814 1.59139 0
M  V30 4012 H 385.326 -1.92982 3.69545 0
M  V30 4013 H 383.986 -2.04235 2.52424 0
M  V30 4014 H 384.997 0.562047 5.14841 0
M  V30 4015 H 381.674 -1.65753 3.83187 0
M  V30 4016 H 383.064 1.2936 6.5933 0
M  V30 4017 N 385.784 -1.5574 0.241426 0
M  V30 4018 C 387.195 -1.84842 -0.262755 0
M  V30 4019 C 387.546 -1.16317 -1.58003 0
M  V30 4020 O 386.671 -0.439653 -2.11887 0
M  V30 4021 C 387.266 -3.35332 -0.483523 0
M  V30 4022 C 385.825 -3.6468 -0.931977 0
M  V30 4023 C 384.972 -2.77299 -0.0061151 0
M  V30 4024 H 387.923 -1.51761 0.464129 0
M  V30 4025 H 387.944 -3.56615 -1.32688 0
M  V30 4026 H 387.456 -3.85178 0.47537 0
M  V30 4027 H 385.557 -3.20307 -1.90353 0
M  V30 4028 H 385.67 -4.72498 -0.792628 0
M  V30 4029 H 384.034 -2.49408 -0.516503 0
M  V30 4030 H 384.817 -3.2995 0.948052 0
M  V30 4031 N 387.262 0.0317525 -1.57568 0
M  V30 4032 C 388.539 0.758366 -1.803 0
M  V30 4033 C 388.919 1.93718 -0.838845 0
M  V30 4034 O 388.267 2.28187 0.119571 0
M  V30 4035 C 388.477 1.19392 -3.27943 0
M  V30 4036 C 389.825 1.61094 -3.92854 0
M  V30 4037 O 390.849 1.28857 -3.32076 0
M  V30 4038 O 389.708 2.20918 -4.99858 0
M  V30 4039 H 386.802 0.366514 -0.741348 0
M  V30 4040 H 389.348 0.00873765 -1.69698 0
M  V30 4041 H 388.12 0.352275 -3.89711 0
M  V30 4042 H 387.743 2.00365 -3.43424 0
M  V30 4043 N 388.74 1.54641 0.303973 0
M  V30 4044 C 390.151 1.64811 0.877163 0
M  V30 4045 C 390.502 0.554838 1.88191 0
M  V30 4046 O 389.627 -0.309033 2.14182 0
M  V30 4047 C 390.222 2.9876 1.59775 0
M  V30 4048 C 388.781 3.11061 2.11938 0
M  V30 4049 C 387.928 2.60479 0.951097 0
M  V30 4050 H 390.879 1.58493 0.0810486 0
M  V30 4051 H 390.9 2.90017 2.46314 0
M  V30 4052 H 390.412 3.7831 0.866226 0
M  V30 4053 H 388.513 2.36225 2.88146 0
M  V30 4054 H 388.626 4.17171 2.35595 0
M  V30 4055 H 386.99 2.16859 1.33583 0
M  V30 4056 H 387.773 3.42504 0.233581 0
M  V30 4057 N 390.218 -0.567019 1.47046 0
M  V30 4058 C 391.166 -1.69593 1.59188 0
M  V30 4059 C 392.16 -1.63046 0.459609 0
M  V30 4060 O 393.366 -1.6835 0.637058 0
M  V30 4061 H 389.741 -0.560993 0.500791 0
M  V30 4062 H 391.712 -1.56488 2.54075 0
M  V30 4063 C 390.461 -3.07964 1.61411 0
M  V30 4064 H 389.784 -3.13679 2.47881 0
M  V30 4065 H 391.224 -3.86671 1.73958 0
M  V30 4066 C 389.683 -3.35123 0.34559 0
M  V30 4067 O 390.213 -3.97812 -0.557521 0
M  V30 4068 N 388.419 -2.89699 0.22864 0
M  V30 4069 H 387.966 -2.38863 0.964479 0
M  V30 4070 H 387.924 -3.08242 -0.619192 0
M  V30 4071 N 391.696 -1.35014 -0.812953 0
M  V30 4072 C 392.626 -1.30069 -1.93919 0
M  V30 4073 C 393.607 -0.176275 -1.69184 0
M  V30 4074 O 394.792 -0.370227 -1.90638 0
M  V30 4075 C 391.922 -1.06547 -3.30552 0
M  V30 4076 C 390.876 -2.15561 -3.69753 0
M  V30 4077 C 390.202 -1.77214 -5.04479 0
M  V30 4078 C 391.502 -3.57476 -3.808 0
M  V30 4079 H 393.196 -2.24303 -1.98314 0
M  V30 4080 H 390.742 -1.07977 -0.952736 0
M  V30 4081 H 392.695 -1.01729 -4.08937 0
M  V30 4082 H 391.419 -0.0875719 -3.26483 0
M  V30 4083 H 390.078 -2.19466 -2.9365 0
M  V30 4084 H 389.726 -0.780589 -4.96906 0
M  V30 4085 H 389.426 -2.50184 -5.31678 0
M  V30 4086 H 390.95 -1.7391 -5.8531 0
M  V30 4087 H 392.364 -3.55929 -4.4943 0
M  V30 4088 H 390.761 -4.29152 -4.19462 0
M  V30 4089 H 391.831 -3.94091 -2.82525 0
M  V30 4090 N 393.175 1.03435 -1.18907 0
M  V30 4091 C 394.403 1.80381 -1.01342 0
M  V30 4092 C 394.818 1.83649 0.438005 0
M  V30 4093 O 394.175 1.27655 1.30424 0
M  V30 4094 C 394.226 3.25689 -1.56873 0
M  V30 4095 O 393.947 3.22673 -2.96334 0
M  V30 4096 C 395.448 4.19255 -1.44014 0
M  V30 4097 H 392.668 0.56784 -0.35749 0
M  V30 4098 H 395.212 1.30317 -1.576 0
M  V30 4099 H 393.367 3.72962 -1.04777 0
M  V30 4100 H 393.781 4.13748 -3.22355 0
M  V30 4101 H 395.255 5.19123 -1.87657 0
M  V30 4102 H 395.732 4.37467 -0.389815 0
M  V30 4103 H 396.338 3.77851 -1.95214 0
M  V30 4104 N 394.653 0.992116 1.22453 0
M  V30 4105 C 395.883 0.684949 1.94915 0
M  V30 4106 C 396.291 -0.754292 1.73514 0
M  V30 4107 O 395.634 -1.52056 1.03076 0
M  V30 4108 C 395.696 0.910054 3.47791 0
M  V30 4109 C 395.36 2.33363 3.92926 0
M  V30 4110 C 396.357 3.31308 4.00663 0
M  V30 4111 C 394.042 2.66785 4.25595 0
M  V30 4112 C 396.036 4.6075 4.40441 0
M  V30 4113 C 393.723 3.96446 4.65053 0
M  V30 4114 C 394.721 4.9324 4.72444 0
M  V30 4115 O 394.409 6.20584 5.1101 0
M  V30 4116 H 394.141 0.25258 0.62704 0
M  V30 4117 H 396.695 1.32939 1.56577 0
M  V30 4118 H 394.925 0.208443 3.86138 0
M  V30 4119 H 396.614 0.598257 4.01467 0
M  V30 4120 H 397.38 3.0682 3.75615 0
M  V30 4121 H 393.259 1.92148 4.19047 0
M  V30 4122 H 396.803 5.363 4.46126 0
M  V30 4123 H 392.7 4.20724 4.89552 0
M  V30 4124 H 393.468 6.24509 5.29085 0
M  V30 4125 N 396.131 -1.37776 0.765217 0
M  V30 4126 C 397.094 -2.28686 0.153416 0
M  V30 4127 C 398.094 -1.47727 -0.635081 0
M  V30 4128 O 399.284 -1.68027 -0.459632 0
M  V30 4129 C 396.416 -3.31608 -0.790495 0
M  V30 4130 H 397.609 -2.84297 0.954723 0
M  V30 4131 H 395.162 -1.46932 0.53299 0
M  V30 4132 H 395.897 -2.81109 -1.61705 0
M  V30 4133 H 395.682 -3.9144 -0.227348 0
M  V30 4134 H 397.172 -3.99559 -1.21419 0
M  V30 4135 N 397.609 -0.515225 -1.4894 0
M  V30 4136 C 398.572 0.244681 -2.2789 0
M  V30 4137 C 399.572 0.881166 -1.34507 0
M  V30 4138 O 400.762 0.743497 -1.57537 0
M  V30 4139 C 397.894 1.35247 -3.12923 0
M  V30 4140 H 399.087 -0.448289 -2.96531 0
M  V30 4141 H 396.64 -0.270656 -1.53939 0
M  V30 4142 H 397.375 2.07916 -2.48881 0
M  V30 4143 H 397.16 0.901374 -3.81599 0
M  V30 4144 H 398.65 1.88737 -3.72516 0
M  V30 4145 N 399.087 1.5561 -0.249682 0
M  V30 4146 C 400.364 1.90932 0.424761 0
M  V30 4147 C 400.744 1.17078 1.75658 0
M  V30 4148 O 400.092 0.289176 2.26663 0
M  V30 4149 C 400.302 3.43975 0.590109 0
M  V30 4150 C 401.65 4.15281 0.884714 0
M  V30 4151 O 402.674 3.49729 0.67587 0
M  V30 4152 O 401.533 5.31236 1.28259 0
M  V30 4153 H 398.627 0.794815 0.228468 0
M  V30 4154 H 401.173 1.67135 -0.293954 0
M  V30 4155 H 399.945 3.89748 -0.34818 0
M  V30 4156 H 399.568 3.73644 1.35926 0
M  V30 4157 N 400.565 -0.0233959 1.57583 0
M  V30 4158 C 401.495 -1.02162 2.09965 0
M  V30 4159 C 402.476 -1.3735 1.00344 0
M  V30 4160 O 403.661 -1.46135 1.27899 0
M  V30 4161 C 400.791 -2.32081 2.58371 0
M  V30 4162 C 399.745 -2.1112 3.72307 0
M  V30 4163 C 399.071 -3.46848 4.06941 0
M  V30 4164 C 400.371 -1.49276 5.00514 0
M  V30 4165 H 402.065 -0.585557 2.93618 0
M  V30 4166 H 399.611 -0.280218 1.41247 0
M  V30 4167 H 401.564 -3.02249 2.93639 0
M  V30 4168 H 400.288 -2.77758 1.71808 0
M  V30 4169 H 398.947 -1.43384 3.37397 0
M  V30 4170 H 398.595 -3.90184 3.17436 0
M  V30 4171 H 398.295 -3.33646 4.83688 0
M  V30 4172 H 399.819 -4.18369 4.44747 0
M  V30 4173 H 401.233 -2.09368 5.33702 0
M  V30 4174 H 399.63 -1.46632 5.8191 0
M  V30 4175 H 400.7 -0.459217 4.82721 0
M  V30 4176 N 402.043 -1.548 -0.295768 0
M  V30 4177 C 403.289 -1.74588 -1.03184 0
M  V30 4178 C 403.622 -0.532962 -1.86744 0
M  V30 4179 O 402.897 0.469872 -1.88739 0
M  V30 4180 C 403.18 -3.03791 -1.93347 0
M  V30 4181 C 403.033 -4.35392 -1.12933 0
M  V30 4182 C 404.352 -3.28892 -2.92435 0
M  V30 4183 H 401.471 -0.635221 -0.373715 0
M  V30 4184 H 404.113 -1.87519 -0.30606 0
M  V30 4185 H 402.263 -2.92898 -2.55232 0
M  V30 4186 H 403.935 -4.58211 -0.532943 0
M  V30 4187 H 402.178 -4.31642 -0.432168 0
M  V30 4188 H 402.849 -5.22074 -1.79284 0
M  V30 4189 H 405.325 -3.39429 -2.4068 0
M  V30 4190 H 404.201 -4.20603 -3.52682 0
M  V30 4191 H 404.462 -2.47437 -3.6637 0
M  V30 4192 N 403.521 0.559213 -1.47345 0
M  V30 4193 C 404.431 1.69388 -1.62311 0
M  V30 4194 C 405.447 1.6648 -0.505993 0
M  V30 4195 O 406.623 1.85964 -0.773262 0
M  V30 4196 C 403.688 3.05894 -1.63185 0
M  V30 4197 C 402.749 3.19885 -2.86307 0
M  V30 4198 C 401.982 4.49879 -2.87131 0
M  V30 4199 O 402.205 5.35217 -1.97229 0
M  V30 4200 O 401.139 4.67618 -3.78968 0
M  V30 4201 H 404.965 1.59706 -2.58317 0
M  V30 4202 H 402.55 0.728989 -1.30407 0
M  V30 4203 H 404.432 3.87133 -1.66451 0
M  V30 4204 H 403.107 3.15964 -0.70345 0
M  V30 4205 H 402.014 2.38052 -2.88587 0
M  V30 4206 H 403.347 3.14718 -3.78435 0
M  V30 4207 N 404.999 1.35443 0.805782 0
M  V30 4208 C 406.227 1.31878 1.59423 0
M  V30 4209 C 406.642 -0.103562 1.88516 0
M  V30 4210 O 405.999 -1.05575 1.48863 0
M  V30 4211 C 406.05 2.12426 2.92502 0
M  V30 4212 O 405.771 3.49115 2.6467 0
M  V30 4213 C 407.272 2.16455 3.86862 0
M  V30 4214 H 404.492 0.453002 0.495005 0
M  V30 4215 H 407.036 1.78309 1.00131 0
M  V30 4216 H 405.191 1.69593 3.48306 0
M  V30 4217 H 405.605 3.90957 3.49647 0
M  V30 4218 H 407.079 2.77204 4.77349 0
M  V30 4219 H 407.556 1.16352 4.23508 0
M  V30 4220 H 408.162 2.59453 3.36993 0
M  V30 4221 N 406.477 -1.02803 1.19454 0
M  V30 4222 C 407.41 -2.107 0.876396 0
M  V30 4223 C 408.388 -1.61741 -0.166897 0
M  V30 4224 O 409.572 -1.88451 -0.0430195 0
M  V30 4225 C 406.699 -3.37262 0.311758 0
M  V30 4226 C 405.745 -4.05093 1.33424 0
M  V30 4227 S 406.578 -4.50498 2.89503 0
M  V30 4228 C 407.734 -5.80277 2.34584 0
M  V30 4229 H 407.967 -2.37362 1.79016 0
M  V30 4230 H 405.5 -1.15755 1.02177 0
M  V30 4231 H 407.458 -4.10499 -0.00748752 0
M  V30 4232 H 406.119 -3.08693 -0.58032 0
M  V30 4233 H 405.312 -4.9611 0.888302 0
M  V30 4234 H 404.914 -3.3803 1.60037 0
M  V30 4235 H 407.206 -6.54873 1.73633 0
M  V30 4236 H 408.149 -6.29651 3.23952 0
M  V30 4237 H 408.557 -5.3599 1.77131 0
M  V30 4238 N 407.956 -0.998596 -1.21925 0
M  V30 4239 C 408.903 -0.553621 -2.24062 0
M  V30 4240 C 409.873 0.416999 -1.6078 0
M  V30 4241 O 411.058 0.320482 -1.88089 0
M  V30 4242 C 408.198 0.119959 -3.44891 0
M  V30 4243 C 407.311 -0.893077 -4.22668 0
M  V30 4244 C 406.446 -0.192424 -5.30851 0
M  V30 4245 C 405.485 -1.19344 -6.00353 0
M  V30 4246 N 404.622 -0.520707 -7.00166 0
M  V30 4247 H 409.462 -1.4293 -2.61486 0
M  V30 4248 H 406.999 -0.715838 -1.28507 0
M  V30 4249 H 408.957 0.527459 -4.13852 0
M  V30 4250 H 407.587 0.959389 -3.08214 0
M  V30 4251 H 406.639 -1.41886 -3.52948 0
M  V30 4252 H 407.951 -1.65512 -4.70539 0
M  V30 4253 H 407.105 0.271515 -6.06092 0
M  V30 4254 H 405.844 0.602075 -4.83969 0
M  V30 4255 H 404.849 -1.66795 -5.23889 0
M  V30 4256 H 406.074 -1.98891 -6.49322 0
M  V30 4257 H 404.02 0.254252 -6.55507 0
M  V30 4258 H 403.937 -1.2211 -7.46073 0
M  V30 4259 H 405.205 -0.0797596 -7.79459 0
M  V30 4260 N 409.434 1.37368 -0.772513 0
M  V30 4261 C 410.659 2.0447 -0.347386 0
M  V30 4262 C 411.084 1.57882 1.0225 0
M  V30 4263 O 410.442 0.73941 1.65537 0
M  V30 4264 C 410.49 3.58369 -0.400479 0
M  V30 4265 O 409.594 4.0803 0.598789 0
M  V30 4266 H 408.935 0.646773 -0.15027 0
M  V30 4267 H 411.465 1.75667 -1.04892 0
M  V30 4268 H 411.475 4.07183 -0.258045 0
M  V30 4269 H 410.15 3.91633 -1.39986 0
M  V30 4270 H 408.727 3.70534 0.419411 0
M  V30 4271 N 410.912 0.523116 1.48665 0
M  V30 4272 C 412.16 -0.0134497 2.02096 0
M  V30 4273 C 412.481 -1.35418 1.40311 0
M  V30 4274 O 411.751 -1.87543 0.566074 0
M  V30 4275 H 410.331 -0.00795915 0.746958 0
M  V30 4276 H 412.993 0.685388 1.82451 0
M  V30 4277 H 412.089 -0.126849 3.11842 0
M  V30 4278 N 412.39 -1.55475 0.257931 0
M  V30 4279 C 413.3 -2.2549 -0.647425 0
M  V30 4280 C 414.316 -1.2748 -1.18427 0
M  V30 4281 O 415.492 -1.6038 -1.2182 0
M  V30 4282 C 412.557 -2.94916 -1.82278 0
M  V30 4283 C 411.618 -4.08363 -1.32432 0
M  V30 4284 C 410.851 -4.74469 -2.44366 0
M  V30 4285 O 411.074 -4.39701 -3.63344 0
M  V30 4286 O 410.008 -5.62763 -2.13497 0
M  V30 4287 H 413.834 -3.03593 -0.0807707 0
M  V30 4288 H 411.419 -1.49377 0.0259962 0
M  V30 4289 H 413.301 -3.38606 -2.50846 0
M  V30 4290 H 411.976 -2.19744 -2.37685 0
M  V30 4291 H 410.883 -3.69166 -0.605605 0
M  V30 4292 H 412.216 -4.85385 -0.816211 0
M  V30 4293 N 413.868 0.0150385 -1.57593 0
M  V30 4294 C 414.818 1.01943 -2.0394 0
M  V30 4295 C 415.802 1.31209 -0.931286 0
M  V30 4296 O 416.994 1.30559 -1.19513 0
M  V30 4297 C 414.123 2.31621 -2.53391 0
M  V30 4298 C 413.209 2.05384 -3.7105 0
M  V30 4299 N 413.6 1.49253 -4.83278 0
M  V30 4300 C 411.898 2.35601 -3.78693 0
M  V30 4301 C 412.599 1.39143 -5.64813 0
M  V30 4302 N 411.575 1.87187 -5.10355 0
M  V30 4303 H 415.377 0.57969 -2.88126 0
M  V30 4304 H 412.891 0.221056 -1.60888 0
M  V30 4305 H 414.888 3.044 -2.84862 0
M  V30 4306 H 413.548 2.76261 -1.70616 0
M  V30 4307 H 414.559 1.17334 -5.04433 0
M  V30 4308 H 411.236 2.8322 -3.06746 0
M  V30 4309 H 412.626 0.961153 -6.6499 0
M  V30 4310 N 415.346 1.54954 0.287554 0
M  V30 4311 C 416.623 1.65569 1.04146 0
M  V30 4312 C 417.003 0.512672 2.0478 0
M  V30 4313 O 416.351 -0.489038 2.23205 0
M  V30 4314 C 416.561 3.04163 1.71131 0
M  V30 4315 C 417.909 3.61429 2.22832 0
M  V30 4316 O 418.933 3.06702 1.81141 0
M  V30 4317 O 417.792 4.57281 2.9926 0
M  V30 4318 H 414.886 0.671881 0.482188 0
M  V30 4319 H 417.432 1.67297 0.28457 0
M  V30 4320 H 416.204 3.78796 0.981303 0
M  V30 4321 H 415.827 3.06271 2.53543 0
M  V30 4322 N 416.824 -0.551391 1.4764 0
M  V30 4323 C 418.071 -1.3083 1.54563 0
M  V30 4324 C 418.399 -1.93359 0.210361 0
M  V30 4325 O 417.654 -1.78721 -0.797332 0
M  V30 4326 C 417.953 -2.43469 2.61644 0
M  V30 4327 C 417.619 -1.98732 4.04742 0
M  V30 4328 C 416.281 -1.86248 4.43695 0
M  V30 4329 C 418.633 -1.64659 4.94507 0
M  V30 4330 C 415.961 -1.37995 5.70241 0
M  V30 4331 C 418.313 -1.17875 6.21521 0
M  V30 4332 C 416.977 -1.03992 6.5935 0
M  V30 4333 H 416.247 -0.478741 0.565587 0
M  V30 4334 H 418.894 -0.617697 1.81264 0
M  V30 4335 H 417.199 -3.18109 2.28722 0
M  V30 4336 H 418.896 -3.01642 2.64222 0
M  V30 4337 H 415.486 -2.09393 3.73968 0
M  V30 4338 H 419.67 -1.73174 4.65107 0
M  V30 4339 H 414.926 -1.25915 5.98294 0
M  V30 4340 H 419.1 -0.905739 6.90485 0
M  V30 4341 H 416.727 -0.663794 7.57296 0
M  V30 4342 N 418.302 -1.35869 -0.798587 0
M  V30 4343 C 419.55 -1.29332 -1.55298 0
M  V30 4344 C 419.871 0.129729 -1.94568 0
M  V30 4345 O 419.141 1.06796 -1.6423 0
M  V30 4346 H 417.721 -0.475737 -0.57592 0
M  V30 4347 H 420.383 -1.70062 -0.952093 0
M  V30 4348 H 419.479 -1.91458 -2.46476 0
M  V30 4349 N 419.78 1.02168 -1.19998 0
M  V30 4350 C 420.743 2.08765 -0.94604 0
M  V30 4351 C 421.743 1.60618 0.0763846 0
M  V30 4352 O 422.933 1.73472 -0.159135 0
M  V30 4353 C 420.065 3.38262 -0.423255 0
M  V30 4354 H 421.258 2.32726 -1.89153 0
M  V30 4355 H 418.811 1.1889 -1.01464 0
M  V30 4356 H 419.546 3.19974 0.527938 0
M  V30 4357 H 419.331 3.74532 -1.16053 0
M  V30 4358 H 420.821 4.16759 -0.264911 0
M  V30 4359 N 421.258 1.00505 1.21394 0
M  V30 4360 C 422.221 0.570459 2.21987 0
M  V30 4361 C 423.221 -0.353211 1.56873 0
M  V30 4362 O 424.411 -0.14349 1.73608 0
M  V30 4363 C 421.543 -0.168555 3.40483 0
M  V30 4364 H 422.736 1.46021 2.6195 0
M  V30 4365 H 420.289 0.793565 1.34656 0
M  V30 4366 H 421.024 -1.07374 3.06009 0
M  V30 4367 H 420.809 0.494823 3.88965 0
M  V30 4368 H 422.299 -0.460362 4.15055 0
M  V30 4369 N 422.737 -1.36956 0.779787 0
M  V30 4370 C 423.984 -1.99491 0.347766 0
M  V30 4371 C 424.312 -1.61898 -1.07793 0
M  V30 4372 O 423.567 -0.86071 -1.75756 0
M  V30 4373 C 423.866 -3.54585 0.447686 0
M  V30 4374 C 423.532 -4.1197 1.83279 0
M  V30 4375 C 422.194 -4.27356 2.2118 0
M  V30 4376 C 424.546 -4.43354 2.74019 0
M  V30 4377 C 421.874 -4.71432 3.4924 0
M  V30 4378 C 424.226 -4.88858 4.01497 0
M  V30 4379 C 422.89 -5.0245 4.39432 0
M  V30 4380 H 422.16 -0.729991 0.127257 0
M  V30 4381 H 424.807 -1.63599 0.995376 0
M  V30 4382 H 423.112 -3.90773 -0.283447 0
M  V30 4383 H 424.809 -4.00888 0.0945948 0
M  V30 4384 H 421.399 -4.00428 1.52825 0
M  V30 4385 H 425.583 -4.31045 2.45995 0
M  V30 4386 H 420.839 -4.80141 3.78516 0
M  V30 4387 H 425.013 -5.12108 4.71931 0
M  V30 4388 H 422.64 -5.36362 5.38721 0
M  V30 4389 N 424.215 -0.530993 -1.48385 0
M  V30 4390 C 425.492 0.0671788 -1.95485 0
M  V30 4391 C 425.872 1.51191 -1.47324 0
M  V30 4392 O 425.22 2.17507 -0.700202 0
M  V30 4393 C 425.43 -0.0511206 -3.48963 0
M  V30 4394 C 426.778 0.107632 -4.24464 0
M  V30 4395 O 427.802 0.0226248 -3.56193 0
M  V30 4396 O 426.661 0.285972 -5.45751 0
M  V30 4397 H 423.755 0.0787365 -0.823243 0
M  V30 4398 H 426.301 -0.595662 -1.58902 0
M  V30 4399 H 425.073 -1.05747 -3.7674 0
M  V30 4400 H 424.696 0.650525 -3.92242 0
M  V30 4401 N 425.693 1.55336 -0.266172 0
M  V30 4402 C 426.941 1.99003 0.35246 0
M  V30 4403 C 427.262 1.15591 1.57047 0
M  V30 4404 O 426.532 0.243268 1.94384 0
M  V30 4405 H 425.112 0.735025 0.133217 0
M  V30 4406 H 427.774 1.91367 -0.369434 0
M  V30 4407 H 426.87 3.05289 0.648453 0
M  V30 4408 N 427.171 -0.0066808 1.57599 0
M  V30 4409 C 428.448 -0.729586 1.81484 0
M  V30 4410 C 428.828 -1.92359 0.869558 0
M  V30 4411 O 428.176 -2.28348 -0.0832533 0
M  V30 4412 C 428.386 -1.1416 3.29801 0
M  V30 4413 C 429.734 -1.54823 3.95367 0
M  V30 4414 O 430.758 -1.23558 3.34084 0
M  V30 4415 O 429.617 -2.12937 5.03309 0
M  V30 4416 H 426.711 -0.354674 0.747085 0
M  V30 4417 H 429.257 0.0182609 1.6969 0
M  V30 4418 H 428.029 -0.290231 3.90222 0
M  V30 4419 H 427.652 -1.94876 3.46568 0
M  V30 4420 N 428.649 -1.55105 -0.279332 0
M  V30 4421 C 429.897 -1.75066 -1.00977 0
M  V30 4422 C 430.218 -0.551276 -1.87045 0
M  V30 4423 O 429.488 0.433984 -1.91032 0
M  V30 4424 H 428.068 -0.645578 -0.375816 0
M  V30 4425 H 430.73 -1.92497 -0.305089 0
M  V30 4426 H 429.826 -2.64894 -1.65038 0
M  V30 4427 N 430.127 0.543554 -1.4793 0
M  V30 4428 C 431.404 1.30458 -1.4574 0
M  V30 4429 C 431.784 2.1048 -0.161692 0
M  V30 4430 O 431.132 2.11831 0.856734 0
M  V30 4431 C 431.342 2.19754 -2.71126 0
M  V30 4432 C 432.69 2.80334 -3.18901 0
M  V30 4433 O 433.714 2.30049 -2.71948 0
M  V30 4434 O 432.573 3.71766 -4.00565 0
M  V30 4435 H 429.667 0.588117 -0.581418 0
M  V30 4436 H 432.213 0.561328 -1.60147 0
M  V30 4437 H 430.985 1.60316 -3.56952 0
M  V30 4438 H 430.608 3.01351 -2.59371 0
M  V30 4439 N 431.605 1.3629 0.791371 0
M  V30 4440 C 433.021 1.16661 1.08914 0
M  V30 4441 C 433.221 -0.0106266 2.01497 0
M  V30 4442 O 432.277 -0.676596 2.43266 0
M  V30 4443 C 433.59 2.47656 1.70549 0
M  V30 4444 C 435.138 2.54002 1.82899 0
M  V30 4445 C 435.613 3.85078 2.47949 0
M  V30 4446 N 437.104 3.86413 2.5542 0
M  V30 4447 C 437.839 4.84572 3.06557 0
M  V30 4448 N 437.335 5.93124 3.58016 0
M  V30 4449 N 439.128 4.71994 3.05251 0
M  V30 4450 H 431.279 2.11668 0.176238 0
M  V30 4451 H 433.542 0.937486 0.140796 0
M  V30 4452 H 433.248 3.34059 1.09989 0
M  V30 4453 H 433.122 2.63319 2.70079 0
M  V30 4454 H 435.509 1.68018 2.42598 0
M  V30 4455 H 435.59 2.42239 0.821808 0
M  V30 4456 H 435.234 4.71467 1.88895 0
M  V30 4457 H 435.164 3.94135 3.49235 0
M  V30 4458 H 437.655 3.07988 2.18979 0
M  V30 4459 H 437.968 6.63999 3.95381 0
M  V30 4460 H 436.313 5.96796 3.56173 0
M  V30 4461 H 439.504 3.86321 2.64336 0
M  V30 4462 H 439.677 5.48653 3.44796 0
M  V30 4463 N 433.083 -1.0153 1.20538 0
M  V30 4464 C 434.031 -2.12215 0.952235 0
M  V30 4465 C 435.025 -1.69123 -0.0968735 0
M  V30 4466 O 436.231 -1.7992 0.0536006 0
M  V30 4467 H 432.606 -0.693576 0.290613 0
M  V30 4468 H 434.577 -2.3075 1.89201 0
M  V30 4469 C 433.326 -3.43755 0.522287 0
M  V30 4470 H 432.649 -3.7734 1.32115 0
M  V30 4471 H 434.089 -4.22254 0.384389 0
M  V30 4472 C 432.548 -3.28088 -0.765489 0
M  V30 4473 O 433.078 -3.57921 -1.8236 0
M  V30 4474 N 431.284 -2.81333 -0.728011 0
M  V30 4475 H 430.831 -2.57255 0.133332 0
M  V30 4476 H 430.789 -2.71232 -1.58999 0
M  V30 4477 N 434.561 -1.01147 -1.20859 0
M  V30 4478 C 435.494 -0.522108 -2.22147 0
M  V30 4479 C 436.472 0.427686 -1.56874 0
M  V30 4480 O 437.656 0.34889 -1.85243 0
M  V30 4481 C 434.783 0.240819 -3.37843 0
M  V30 4482 C 433.829 -0.657752 -4.21398 0
M  V30 4483 S 434.662 -2.12393 -4.91578 0
M  V30 4484 C 435.818 -1.37102 -6.10699 0
M  V30 4485 H 436.051 -1.38035 -2.63313 0
M  V30 4486 H 433.584 -0.819941 -1.30829 0
M  V30 4487 H 435.542 0.674908 -4.04914 0
M  V30 4488 H 434.203 1.07457 -2.95147 0
M  V30 4489 H 433.396 -0.0697456 -5.03952 0
M  V30 4490 H 432.998 -1.0294 -3.59555 0
M  V30 4491 H 435.29 -0.648315 -6.74391 0
M  V30 4492 H 436.233 -2.17252 -6.73949 0
M  V30 4493 H 436.641 -0.876154 -5.57659 0
M  V30 4494 N 436.039 1.36541 -0.78704 0
M  V30 4495 C 437.288 1.98552 -0.35494 0
M  V30 4496 C 437.601 1.63171 1.07864 0
M  V30 4497 O 438.807 2.18399 1.61289 0
M  V30 4498 C 437.263 3.55136 -0.583671 0
M  V30 4499 C 436.871 3.99444 -2.02851 0
M  V30 4500 C 438.615 4.2395 -0.215957 0
M  V30 4501 C 436.522 5.48796 -2.20403 0
M  V30 4502 H 435.452 0.742888 -0.128972 0
M  V30 4503 H 438.103 1.5587 -0.968337 0
M  V30 4504 H 436.485 3.95875 0.0994046 0
M  V30 4505 H 437.659 3.6991 -2.74779 0
M  V30 4506 H 435.974 3.43459 -2.35425 0
M  V30 4507 H 438.571 5.33709 -0.325405 0
M  V30 4508 H 438.914 4.07827 0.835646 0
M  V30 4509 H 439.447 3.88565 -0.852175 0
M  V30 4510 H 436.186 5.69864 -3.23937 0
M  V30 4511 H 435.706 5.79964 -1.52977 0
M  V30 4512 H 437.385 6.14986 -2.01002 0
M  V30 4513 N 437.518 0.538854 1.48102 0
M  V30 4514 C 438.448 -0.207654 2.32575 0
M  V30 4515 C 439.429 -0.926559 1.4265 0
M  V30 4516 O 440.614 -0.91061 1.71527 0
M  V30 4517 C 437.744 -1.24957 3.24042 0
M  V30 4518 C 436.698 -0.648263 4.23062 0
M  V30 4519 C 436.024 -1.79348 5.03725 0
M  V30 4520 C 437.324 0.385897 5.20872 0
M  V30 4521 H 439.018 0.497534 2.95237 0
M  V30 4522 H 436.564 0.240715 1.41974 0
M  V30 4523 H 438.517 -1.77983 3.81969 0
M  V30 4524 H 437.241 -1.98446 2.59397 0
M  V30 4525 H 435.9 -0.139452 3.66335 0
M  V30 4526 H 435.548 -2.51696 4.35498 0
M  V30 4527 H 435.248 -1.39702 5.70751 0
M  V30 4528 H 436.772 -2.32735 5.64506 0
M  V30 4529 H 438.186 -0.057607 5.73271 0
M  V30 4530 H 436.583 0.700227 5.96001 0
M  V30 4531 H 437.653 1.28848 4.67468 0
M  V30 4532 N 438.996 -1.55193 0.274407 0
M  V30 4533 C 440.244 -1.99187 -0.341902 0
M  V30 4534 C 440.565 -1.16422 -1.56431 0
M  V30 4535 O 439.835 -0.253573 -1.94252 0
M  V30 4536 H 438.415 -0.735721 -0.129317 0
M  V30 4537 H 441.077 -1.91168 0.379578 0
M  V30 4538 H 440.173 -3.05629 -0.632253 0
M  V30 4539 N 440.474 -0.00167713 -1.576 0
M  V30 4540 C 441.421 0.989195 -2.08527 0
M  V30 4541 C 442.391 1.34031 -0.981065 0
M  V30 4542 O 443.576 1.43839 -1.2536 0
M  V30 4543 C 440.716 2.27537 -2.59463 0
M  V30 4544 C 439.829 1.98314 -3.83791 0
M  V30 4545 C 438.964 3.21025 -4.23222 0
M  V30 4546 C 438.003 2.87495 -5.40382 0
M  V30 4547 N 437.14 4.02749 -5.75098 0
M  V30 4548 H 441.98 0.547973 -2.92919 0
M  V30 4549 H 439.517 0.258917 -1.44803 0
M  V30 4550 H 441.475 3.02729 -2.87073 0
M  V30 4551 H 440.105 2.69325 -1.77943 0
M  V30 4552 H 439.157 1.13482 -3.63078 0
M  V30 4553 H 440.469 1.69601 -4.69081 0
M  V30 4554 H 439.623 4.04561 -4.52123 0
M  V30 4555 H 438.362 3.52877 -3.36644 0
M  V30 4556 H 437.367 2.02367 -5.11202 0
M  V30 4557 H 438.592 2.56889 -6.28637 0
M  V30 4558 H 436.538 4.34494 -4.91478 0
M  V30 4559 H 436.455 3.77566 -6.54966 0
M  V30 4560 H 437.723 4.87068 -6.08592 0
M  V30 4561 N 441.952 1.55251 0.271103 0
M  V30 4562 C 442.902 1.84649 1.33749 0
M  V30 4563 C 443.886 0.705529 1.44607 0
M  V30 4564 O 445.078 0.966916 1.48256 0
M  V30 4565 C 442.207 2.12354 2.69742 0
M  V30 4566 C 441.293 3.32714 2.62988 0
M  V30 4567 N 441.684 4.52575 2.25853 0
M  V30 4568 C 439.982 3.35341 2.94045 0
M  V30 4569 C 440.683 5.34669 2.29136 0
M  V30 4570 N 439.659 4.73123 2.67685 0
M  V30 4571 H 443.461 2.74865 1.0405 0
M  V30 4572 H 440.975 1.55152 0.479738 0
M  V30 4573 H 442.972 2.31572 3.4667 0
M  V30 4574 H 441.632 1.23422 3.00328 0
M  V30 4575 H 442.643 4.78639 1.978 0
M  V30 4576 H 439.32 2.56608 3.2933 0
M  V30 4577 H 440.71 6.40509 2.02971 0
M  V30 4578 N 443.43 -0.535701 1.48216 0
M  V30 4579 C 444.678 -1.28928 1.55634 0
M  V30 4580 C 444.999 -1.93645 0.229514 0
M  V30 4581 O 444.269 -1.81038 -0.74846 0
M  V30 4582 H 442.849 -0.47884 0.573342 0
M  V30 4583 H 445.511 -0.623853 1.84646 0
M  V30 4584 H 444.607 -2.07157 2.33436 0
M  V30 4585 N 444.908 -1.36708 -0.784132 0
M  V30 4586 C 446.155 -1.31231 -1.54222 0
M  V30 4587 C 446.483 0.106864 -1.94206 0
M  V30 4588 O 445.738 1.07734 -1.63376 0
M  V30 4589 C 446.037 -2.18571 -2.82774 0
M  V30 4590 C 445.703 -3.67039 -2.61903 0
M  V30 4591 C 444.365 -4.07503 -2.55919 0
M  V30 4592 C 446.717 -4.61149 -2.4288 0
M  V30 4593 C 444.045 -5.40211 -2.28886 0
M  V30 4594 C 446.397 -5.94081 -2.17373 0
M  V30 4595 C 445.061 -6.33664 -2.09825 0
M  V30 4596 H 444.331 -0.48021 -0.56434 0
M  V30 4597 H 446.978 -1.68807 -0.904233 0
M  V30 4598 H 445.283 -1.73949 -3.51068 0
M  V30 4599 H 446.98 -2.11655 -3.40592 0
M  V30 4600 H 443.57 -3.34941 -2.67418 0
M  V30 4601 H 447.754 -4.30756 -2.46501 0
M  V30 4602 H 443.01 -5.69855 -2.21529 0
M  V30 4603 H 447.184 -6.66566 -2.01649 0
M  V30 4604 H 444.811 -7.36423 -1.88641 0
M  V30 4605 N 446.386 1.0089 -1.21074 0
M  V30 4606 C 447.633 1.74607 -1.0256 0
M  V30 4607 C 447.961 1.89426 0.44136 0
M  V30 4608 O 447.216 1.42266 1.34384 0
M  V30 4609 C 447.515 3.16335 -1.66334 0
M  V30 4610 C 447.181 3.21474 -3.16173 0
M  V30 4611 C 445.843 3.22583 -3.57062 0
M  V30 4612 C 448.195 3.19025 -4.12156 0
M  V30 4613 C 445.523 3.18925 -4.92446 0
M  V30 4614 C 447.875 3.16909 -5.47496 0
M  V30 4615 C 446.539 3.16326 -5.87787 0
M  V30 4616 H 445.809 0.638933 -0.375294 0
M  V30 4617 H 448.456 1.18274 -1.50611 0
M  V30 4618 H 446.761 3.75876 -1.10566 0
M  V30 4619 H 448.458 3.72083 -1.49516 0
M  V30 4620 H 445.048 3.2135 -2.83605 0
M  V30 4621 H 449.232 3.17332 -3.81595 0
M  V30 4622 H 444.488 3.16809 -5.22917 0
M  V30 4623 H 448.662 3.13968 -6.21609 0
M  V30 4624 H 446.289 3.13246 -6.92662 0
M  V30 4625 N 447.864 1.01787 1.20321 0
M  V30 4626 C 449.11 0.708985 1.90003 0
M  V30 4627 C 449.443 -0.759572 1.78729 0
M  V30 4628 O 448.718 -1.55198 1.17234 0
M  V30 4629 C 449.001 1.1469 3.41348 0
M  V30 4630 C 448.854 2.67586 3.61549 0
M  V30 4631 C 450.173 0.71915 4.34185 0
M  V30 4632 H 447.292 0.259034 0.689978 0
M  V30 4633 H 449.934 1.26584 1.41692 0
M  V30 4634 H 448.084 0.673128 3.82624 0
M  V30 4635 H 449.756 3.22826 3.29517 0
M  V30 4636 H 447.999 3.085 3.04976 0
M  V30 4637 H 448.67 2.93281 4.67643 0
M  V30 4638 H 451.146 1.12647 4.00562 0
M  V30 4639 H 450.022 1.05358 5.38694 0
M  V30 4640 H 450.283 -0.379111 4.40472 0
M  V30 4641 N 449.342 -1.36122 0.79427 0
M  V30 4642 C 450.29 -2.31871 0.184023 0
M  V30 4643 C 451.284 -1.56041 -0.659365 0
M  V30 4644 O 452.49 -1.71266 -0.553906 0
M  V30 4645 H 448.865 -0.750896 0.0407373 0
M  V30 4646 H 450.836 -2.80898 1.00693 0
M  V30 4647 C 449.585 -3.41324 -0.662813 0
M  V30 4648 H 448.908 -3.99793 -0.0231944 0
M  V30 4649 H 450.348 -4.10629 -1.05639 0
M  V30 4650 C 448.807 -2.83308 -1.82313 0
M  V30 4651 O 449.337 -2.75863 -2.91997 0
M  V30 4652 N 447.543 -2.40529 -1.63077 0
M  V30 4653 H 447.09 -2.46785 -0.738591 0
M  V30 4654 H 447.048 -2.02059 -2.40872 0
M  V30 4655 N 450.82 -0.546701 -1.47814 0
M  V30 4656 C 452.231 -0.110564 -1.86372 0
M  V30 4657 C 452.582 1.31678 -1.45449 0
M  V30 4658 O 451.707 1.98889 -0.852758 0
M  V30 4659 C 452.302 -0.193873 -3.38245 0
M  V30 4660 C 450.861 0.187164 -3.75934 0
M  V30 4661 C 450.008 -0.546166 -2.71868 0
M  V30 4662 H 452.959 -0.757022 -1.39481 0
M  V30 4663 H 452.98 0.590218 -3.75895 0
M  V30 4664 H 452.492 -1.23282 -3.67999 0
M  V30 4665 H 450.593 1.22762 -3.51796 0
M  V30 4666 H 450.706 -0.164083 -4.78819 0
M  V30 4667 H 449.07 0.00953904 -2.54698 0
M  V30 4668 H 449.853 -1.58606 -3.04465 0
M  V30 4669 N 452.299 1.55045 -0.282633 0
M  V30 4670 C 453.524 2.04628 0.337977 0
M  V30 4671 C 453.949 1.15937 1.48123 0
M  V30 4672 O 453.307 0.159532 1.80597 0
M  V30 4673 C 453.355 3.51854 0.78936 0
M  V30 4674 O 452.459 3.66236 1.89592 0
M  V30 4675 H 451.8 0.660434 0.0687261 0
M  V30 4676 H 454.33 2.00261 -0.419124 0
M  V30 4677 H 454.34 3.93361 1.08311 0
M  V30 4678 H 453.015 4.15873 -0.0470419 0
M  V30 4679 H 451.592 3.36633 1.60413 0
M  V30 4680 N 453.777 0.010035 1.57597 0
M  V30 4681 C 455.054 -0.710296 1.82248 0
M  V30 4682 C 455.434 -1.91426 0.889911 0
M  V30 4683 O 454.782 -2.28424 -0.0590292 0
M  V30 4684 C 454.992 -1.10655 3.30993 0
M  V30 4685 C 456.34 -1.50621 3.96987 0
M  V30 4686 O 457.364 -1.20007 3.35375 0
M  V30 4687 O 456.223 -2.07587 5.05539 0
M  V30 4688 H 453.317 -0.34673 0.750804 0
M  V30 4689 H 455.863 0.0362578 1.69661 0
M  V30 4690 H 454.635 -0.248826 3.90508 0
M  V30 4691 H 454.258 -1.91189 3.48615 0
M  V30 4692 N 455.255 -1.55392 -0.262866 0
M  V30 4693 C 456.48 -1.80847 -1.01533 0
M  V30 4694 C 456.905 -0.584946 -1.78774 0
M  V30 4695 O 456.263 0.465701 -1.75217 0
M  V30 4696 C 456.311 -3.03866 -1.94159 0
M  V30 4697 O 455.415 -2.79662 -3.03089 0
M  V30 4698 H 454.756 -0.597441 -0.289759 0
M  V30 4699 H 457.286 -2.02553 -0.288698 0
M  V30 4700 H 457.296 -3.32872 -2.35924 0
M  V30 4701 H 455.971 -3.92564 -1.37354 0
M  V30 4702 H 454.548 -2.61781 -2.65566 0
M  V30 4703 N 456.733 0.527833 -1.48498 0
M  V30 4704 C 457.979 1.28545 -1.56857 0
M  V30 4705 C 458.312 1.92678 -0.242651 0
M  V30 4706 O 457.587 1.79394 0.751545 0
M  V30 4707 C 457.87 2.37314 -2.70839 0
M  V30 4708 C 457.723 1.77858 -4.13142 0
M  V30 4709 C 459.042 3.39068 -2.80573 0
M  V30 4710 H 456.161 0.466006 -0.570971 0
M  V30 4711 H 458.803 0.587784 -1.8068 0
M  V30 4712 H 456.953 2.96821 -2.50658 0
M  V30 4713 H 458.625 1.22385 -4.44769 0
M  V30 4714 H 456.868 1.08383 -4.20042 0
M  V30 4715 H 457.539 2.56624 -4.88721 0
M  V30 4716 H 460.015 2.89518 -2.98862 0
M  V30 4717 H 458.891 4.12566 -3.6205 0
M  V30 4718 H 459.152 3.9975 -1.88818 0
M  V30 4719 N 458.211 1.37122 0.776871 0
M  V30 4720 C 459.174 1.32301 1.8716 0
M  V30 4721 C 460.174 0.228099 1.59174 0
M  V30 4722 O 461.364 0.483642 1.67352 0
M  V30 4723 C 458.496 1.054 3.24197 0
M  V30 4724 H 459.689 2.29673 1.92848 0
M  V30 4725 H 457.242 1.22077 0.97606 0
M  V30 4726 H 457.977 0.0853872 3.24188 0
M  V30 4727 H 457.762 1.84648 3.45901 0
M  V30 4728 H 459.252 1.04664 4.04271 0
M  V30 4729 N 459.689 -1.00246 1.21608 0
M  V30 4730 C 460.935 -1.74319 1.03638 0
M  V30 4731 C 461.268 -1.89408 -0.428749 0
M  V30 4732 O 460.543 -1.43026 -1.3181 0
M  V30 4733 C 460.826 -3.15431 1.73711 0
M  V30 4734 C 460.679 -3.08049 3.27759 0
M  V30 4735 C 461.998 -4.14407 1.48173 0
M  V30 4736 H 459.117 -0.632741 0.377899 0
M  V30 4737 H 461.759 -1.16853 1.49818 0
M  V30 4738 H 459.909 -3.64493 1.34452 0
M  V30 4739 H 461.581 -2.66681 3.76403 0
M  V30 4740 H 459.824 -2.45088 3.57931 0
M  V30 4741 H 460.495 -4.07862 3.71958 0
M  V30 4742 H 462.971 -3.74061 1.82258 0
M  V30 4743 H 461.847 -5.11279 1.99713 0
M  V30 4744 H 462.108 -4.40174 0.412273 0
M  V30 4745 N 461.167 -1.02423 -1.1978 0
M  V30 4746 C 462.416 -0.713265 -1.88667 0
M  V30 4747 C 462.729 0.7609 -1.80193 0
M  V30 4748 O 463.935 1.18473 -2.44288 0
M  V30 4749 C 462.391 -1.22545 -3.38394 0
M  V30 4750 C 461.999 -2.72706 -3.55437 0
M  V30 4751 C 463.743 -0.990257 -4.12788 0
M  V30 4752 C 461.65 -3.17367 -4.99031 0
M  V30 4753 H 460.58 -0.263105 -0.706606 0
M  V30 4754 H 463.231 -1.23792 -1.35454 0
M  V30 4755 H 461.613 -0.628732 -3.90977 0
M  V30 4756 H 462.787 -3.37993 -3.13205 0
M  V30 4757 H 461.102 -2.94453 -2.94425 0
M  V30 4758 H 463.699 -1.29926 -5.18675 0
M  V30 4759 H 464.042 0.0730761 -4.16236 0
M  V30 4760 H 464.575 -1.55074 -3.66329 0
M  V30 4761 H 461.314 -4.23009 -5.00743 0
M  V30 4762 H 460.834 -2.56805 -5.42044 0
M  V30 4763 H 462.513 -3.10441 -5.67658 0
M  V30 4764 N 462.645 1.35699 -0.801477 0
M  V30 4765 C 463.608 2.28199 -0.213994 0
M  V30 4766 C 464.608 1.49359 0.595691 0
M  V30 4767 O 465.798 1.69186 0.414921 0
M  V30 4768 C 462.93 3.33587 0.702297 0
M  V30 4769 H 464.123 2.81666 -1.02976 0
M  V30 4770 H 461.676 1.45467 -0.571759 0
M  V30 4771 H 462.411 2.85297 1.54195 0
M  V30 4772 H 462.196 3.91906 0.123484 0
M  V30 4773 H 463.686 4.02638 1.10783 0
M  V30 4774 N 464.123 0.554532 1.47522 0
M  V30 4775 C 465.086 -0.184174 2.28459 0
M  V30 4776 C 466.086 -0.845195 1.36796 0
M  V30 4777 O 467.276 -0.701467 1.59452 0
M  V30 4778 C 464.408 -1.26903 3.16399 0
M  V30 4779 H 465.601 0.526751 2.95238 0
M  V30 4780 H 463.154 0.311375 1.53167 0
M  V30 4781 H 463.889 -2.01244 2.54306 0
M  V30 4782 H 463.674 -0.799883 3.83854 0
M  V30 4783 H 465.164 -1.78794 3.77389 0
M  V30 4784 N 465.601 -1.54893 0.290851 0
M  V30 4785 C 466.549 -2.24579 -0.605576 0
M  V30 4786 C 467.543 -1.24824 -1.14522 0
M  V30 4787 O 468.749 -1.42706 -1.09704 0
M  V30 4788 H 465.124 -0.720946 -0.213872 0
M  V30 4789 H 467.095 -2.984 0.0048173 0
M  V30 4790 C 465.844 -2.99224 -1.77088 0
M  V30 4791 H 465.167 -3.75782 -1.36484 0
M  V30 4792 H 466.607 -3.51281 -2.3744 0
M  V30 4793 C 465.066 -2.05602 -2.66888 0
M  V30 4794 O 465.596 -1.61745 -3.67698 0
M  V30 4795 N 463.802 -1.71771 -2.34399 0
M  V30 4796 H 463.349 -2.07633 -1.52468 0
M  V30 4797 H 463.307 -1.09403 -2.94751 0
M  V30 4798 N 467.08 -0.0183926 -1.57589 0
M  V30 4799 C 468.329 0.66185 -1.90532 0
M  V30 4800 C 468.642 1.73904 -0.895366 0
M  V30 4801 O 469.848 2.47518 -1.11566 0
M  V30 4802 C 468.304 1.22844 -3.38286 0
M  V30 4803 C 467.912 0.185103 -4.47617 0
M  V30 4804 C 469.656 1.88581 -3.80312 0
M  V30 4805 C 467.563 0.762723 -5.86461 0
M  V30 4806 H 466.493 0.250972 -0.711006 0
M  V30 4807 H 469.144 -0.0819435 -1.83317 0
M  V30 4808 H 467.526 2.0235 -3.40398 0
M  V30 4809 H 468.7 -0.58671 -4.5705 0
M  V30 4810 H 467.015 -0.372889 -4.14727 0
M  V30 4811 H 469.612 2.32735 -4.81392 0
M  V30 4812 H 469.955 2.72408 -3.14801 0
M  V30 4813 H 470.488 1.15782 -3.80578 0
M  V30 4814 H 467.227 -0.0371713 -6.55489 0
M  V30 4815 H 466.747 1.50327 -5.80656 0
M  V30 4816 H 468.426 1.25576 -6.34697 0
M  V30 4817 N 468.558 1.5553 0.254621 0
M  V30 4818 C 469.805 1.77 0.983736 0
M  V30 4819 C 470.133 0.58133 1.85609 0
M  V30 4820 O 469.388 -0.435621 1.9079 0
M  V30 4821 C 469.687 3.03891 1.88109 0
M  V30 4822 C 469.353 4.35597 1.16472 0
M  V30 4823 C 468.015 4.7139 0.966714 0
M  V30 4824 C 470.367 5.1705 0.656387 0
M  V30 4825 C 467.695 5.86176 0.247942 0
M  V30 4826 C 470.047 6.32581 -0.0488807 0
M  V30 4827 C 468.711 6.67 -0.258438 0
M  V30 4828 H 467.981 0.647688 0.359974 0
M  V30 4829 H 470.628 1.89802 0.254463 0
M  V30 4830 H 468.933 2.86068 2.67717 0
M  V30 4831 H 470.63 3.17701 2.44677 0
M  V30 4832 H 467.22 4.07475 1.32899 0
M  V30 4833 H 471.404 4.8986 0.796933 0
M  V30 4834 H 466.66 6.11354 0.075035 0
M  V30 4835 H 470.834 6.94942 -0.450444 0
M  V30 4836 H 468.461 7.55793 -0.817358 0
M  V30 4837 N 470.036 -0.519951 1.48776 0
M  V30 4838 C 471.261 -1.30447 1.6124 0
M  V30 4839 C 471.686 -1.86055 0.276591 0
M  V30 4840 O 471.044 -1.64915 -0.753183 0
M  V30 4841 C 471.092 -2.42406 2.66967 0
M  V30 4842 O 470.196 -3.45728 2.24824 0
M  V30 4843 H 469.537 -0.385924 0.540332 0
M  V30 4844 H 472.067 -0.624572 1.94834 0
M  V30 4845 H 472.077 -2.88447 2.88552 0
M  V30 4846 H 470.752 -2.01294 3.63941 0
M  V30 4847 H 469.329 -3.05737 2.13494 0
M  V30 4848 N 471.514 -1.37532 -0.769588 0
M  V30 4849 C 472.763 -1.32183 -1.5235 0
M  V30 4850 C 473.076 0.0906555 -1.9539 0
M  V30 4851 O 474.282 0.266628 -2.70188 0
M  V30 4852 C 472.738 -2.32029 -2.75119 0
M  V30 4853 C 472.346 -3.78816 -2.3917 0
M  V30 4854 C 474.09 -2.35694 -3.53056 0
M  V30 4855 C 471.997 -4.70388 -3.58453 0
M  V30 4856 H 470.927 -0.491275 -0.571984 0
M  V30 4857 H 473.578 -1.63004 -0.842739 0
M  V30 4858 H 471.96 -1.94229 -3.45096 0
M  V30 4859 H 473.134 -4.25466 -1.76962 0
M  V30 4860 H 471.449 -3.78117 -1.74402 0
M  V30 4861 H 474.046 -3.01312 -4.41718 0
M  V30 4862 H 474.389 -1.37117 -3.93071 0
M  V30 4863 H 474.922 -2.72212 -2.90078 0
M  V30 4864 H 471.661 -5.70102 -3.23518 0
M  V30 4865 H 471.181 -4.28442 -4.19758 0
M  V30 4866 H 472.86 -4.87628 -4.25239 0
M  V30 4867 N 472.992 0.995999 -1.22138 0
M  V30 4868 C 474.403 1.54961 -1.04135 0
M  V30 4869 C 474.754 1.92159 0.396147 0
M  V30 4870 O 473.879 1.74435 1.28069 0
M  V30 4871 C 474.474 2.81581 -1.88408 0
M  V30 4872 C 473.033 3.33396 -1.74712 0
M  V30 4873 C 472.18 2.06509 -1.85066 0
M  V30 4874 H 475.131 0.817436 -1.36028 0
M  V30 4875 H 475.152 3.53822 -1.39966 0
M  V30 4876 H 474.664 2.54476 -2.93025 0
M  V30 4877 H 472.765 3.65416 -0.728159 0
M  V30 4878 H 472.878 4.04208 -2.57202 0
M  V30 4879 H 471.242 2.19925 -1.28472 0
M  V30 4880 H 472.025 1.81804 -2.91208 0
M  V30 4881 N 474.47 1.03057 1.19235 0
M  V30 4882 C 475.7 0.746613 1.92638 0
M  V30 4883 C 476.108 -0.698708 1.75826 0
M  V30 4884 O 475.451 -1.487 1.07861 0
M  V30 4885 C 475.513 1.02024 3.44719 0
M  V30 4886 C 475.177 2.45745 3.85303 0
M  V30 4887 C 476.174 3.43887 3.8992 0
M  V30 4888 C 473.859 2.8019 4.16892 0
M  V30 4889 C 475.853 4.74529 4.2556 0
M  V30 4890 C 473.54 4.1104 4.52205 0
M  V30 4891 C 474.538 5.0802 4.56513 0
M  V30 4892 O 474.226 6.36527 4.91008 0
M  V30 4893 H 473.958 0.272401 0.618687 0
M  V30 4894 H 476.512 1.37853 1.52269 0
M  V30 4895 H 474.742 0.331184 3.85279 0
M  V30 4896 H 476.431 0.725677 3.9936 0
M  V30 4897 H 477.197 3.18614 3.65664 0
M  V30 4898 H 473.076 2.05382 4.12722 0
M  V30 4899 H 476.62 5.50222 4.28838 0
M  V30 4900 H 472.517 4.36086 4.7592 0
M  V30 4901 H 473.285 6.41025 5.08949 0
M  V30 4902 N 475.948 -1.35272 0.808662 0
M  V30 4903 C 477.195 -1.98709 0.390003 0
M  V30 4904 C 477.523 -1.64148 -1.04335 0
M  V30 4905 O 476.778 -0.897797 -1.73891 0
M  V30 4906 C 477.077 -3.53556 0.522798 0
M  V30 4907 C 476.743 -4.0799 1.91977 0
M  V30 4908 C 475.405 -4.22568 2.30195 0
M  V30 4909 C 477.757 -4.37442 2.83361 0
M  V30 4910 C 475.085 -4.63918 3.59162 0
M  V30 4911 C 477.437 -4.80232 4.11776 0
M  V30 4912 C 476.101 -4.93016 4.49991 0
M  V30 4913 H 475.371 -0.727127 0.142712 0
M  V30 4914 H 478.018 -1.6145 1.02985 0
M  V30 4915 H 476.323 -3.91287 -0.200494 0
M  V30 4916 H 478.02 -4.00598 0.179608 0
M  V30 4917 H 474.61 -3.97096 1.61284 0
M  V30 4918 H 478.794 -4.25731 2.55083 0
M  V30 4919 H 474.05 -4.72005 3.88615 0
M  V30 4920 H 478.224 -5.01982 4.82687 0
M  V30 4921 H 475.851 -5.24814 5.49976 0
M  V30 4922 N 477.426 -0.562348 -1.47226 0
M  V30 4923 C 478.358 0.220011 -2.28142 0
M  V30 4924 C 479.371 0.874596 -1.37312 0
M  V30 4925 O 480.56 0.747583 -1.62091 0
M  V30 4926 C 477.66 1.32953 -3.11732 0
M  V30 4927 C 476.833 0.770759 -4.30556 0
M  V30 4928 C 475.892 1.76541 -4.95701 0
M  V30 4929 O 474.918 1.3095 -5.53932 0
M  V30 4930 N 476.12 3.09896 -4.90861 0
M  V30 4931 H 478.885 -0.474107 -2.95926 0
M  V30 4932 H 476.446 -0.398761 -1.56912 0
M  V30 4933 H 478.438 1.99378 -3.5218 0
M  V30 4934 H 477.008 1.92681 -2.46156 0
M  V30 4935 H 476.228 -0.0704056 -3.94137 0
M  V30 4936 H 477.516 0.376872 -5.07402 0
M  V30 4937 H 476.914 3.49577 -4.44761 0
M  V30 4938 H 475.471 3.71865 -5.35313 0
M  V30 4939 N 478.904 1.54736 -0.299062 0
M  V30 4940 C 479.836 2.20891 0.61153 0
M  V30 4941 C 480.849 1.20104 1.09904 0
M  V30 4942 O 482.038 1.46707 1.01683 0
M  V30 4943 C 479.138 2.84018 1.84897 0
M  V30 4944 C 478.311 4.10719 1.50428 0
M  V30 4945 C 477.37 4.57667 2.59667 0
M  V30 4946 O 476.396 5.2291 2.24842 0
M  V30 4947 N 477.598 4.29821 3.90172 0
M  V30 4948 H 480.363 2.99666 0.0452001 0
M  V30 4949 H 477.924 1.61446 -0.121178 0
M  V30 4950 H 479.916 3.1236 2.5732 0
M  V30 4951 H 478.486 2.09095 2.32375 0
M  V30 4952 H 477.706 3.89408 0.612781 0
M  V30 4953 H 478.994 4.93223 1.24934 0
M  V30 4954 H 478.392 3.77549 4.21276 0
M  V30 4955 H 476.949 4.62877 4.58899 0
M  V30 4956 N 480.382 0.0267497 1.57577 0
M  V30 4957 C 481.61 -0.662661 1.96001 0
M  V30 4958 C 482.025 -1.65799 0.903117 0
M  V30 4959 O 481.382 -1.82135 -0.115317 0
M  V30 4960 C 481.433 -1.37112 3.34488 0
M  V30 4961 O 481.154 -0.415683 4.36123 0
M  V30 4962 C 482.655 -2.15257 3.8753 0
M  V30 4963 H 479.875 -0.18287 0.6456 0
M  V30 4964 H 482.419 0.0858116 2.0432 0
M  V30 4965 H 480.574 -2.07101 3.27395 0
M  V30 4966 H 480.988 -0.918496 5.16395 0
M  V30 4967 H 482.462 -2.60285 4.86781 0
M  V30 4968 H 482.939 -2.99063 3.21649 0
M  V30 4969 H 483.545 -1.50231 3.97883 0
M  V30 4970 N 481.861 -1.55662 -0.24637 0
M  V30 4971 C 483.109 -1.77168 -0.972411 0
M  V30 4972 C 483.43 -0.590827 -1.85834 0
M  V30 4973 O 482.7 0.393365 -1.9191 0
M  V30 4974 H 481.28 -0.653405 -0.362038 0
M  V30 4975 H 483.942 -1.93101 -0.264189 0
M  V30 4976 H 483.038 -2.68335 -1.59382 0
M  V30 4977 N 483.339 0.512053 -1.4905 0
M  V30 4978 C 484.585 1.26874 -1.58212 0
M  V30 4979 C 484.918 1.9241 -0.263073 0
M  V30 4980 O 484.193 1.80181 0.732476 0
M  V30 4981 C 484.476 2.34428 -2.73341 0
M  V30 4982 C 484.329 1.73466 -4.15006 0
M  V30 4983 C 485.648 3.36073 -2.84154 0
M  V30 4984 H 482.767 0.459924 -0.575881 0
M  V30 4985 H 485.409 0.568587 -1.81293 0
M  V30 4986 H 483.559 2.94146 -2.53792 0
M  V30 4987 H 485.231 1.17661 -4.46042 0
M  V30 4988 H 483.474 1.03921 -4.21168 0
M  V30 4989 H 484.145 2.51426 -4.91415 0
M  V30 4990 H 486.621 2.86332 -3.01916 0
M  V30 4991 H 485.497 4.08703 -3.66406 0
M  V30 4992 H 485.758 3.97725 -1.93048 0
M  V30 4993 N 484.817 1.37938 0.762283 0
M  V30 4994 C 486.233 1.18945 1.06415 0
M  V30 4995 C 486.433 0.0321163 2.01474 0
M  V30 4996 O 485.489 -0.624844 2.44647 0
M  V30 4997 C 486.802 2.51218 1.65258 0
M  V30 4998 C 488.35 2.57824 1.7747 0
M  V30 4999 C 488.825 3.90251 2.39725 0
M  V30 5000 N 490.316 3.91744 2.47166 0
M  V30 5001 C 491.051 4.90966 2.96209 0
M  V30 5002 N 490.547 6.00585 3.45354 0
M  V30 5003 N 492.34 4.78363 2.9517 0
M  V30 5004 H 484.491 2.11994 0.131301 0
M  V30 5005 H 486.754 0.940262 0.120879 0
M  V30 5006 H 486.46 3.36317 1.02878 0
M  V30 5007 H 486.334 2.68989 2.64433 0
M  V30 5008 H 488.721 1.73126 2.3898 0
M  V30 5009 H 488.802 2.43928 0.770241 0
M  V30 5010 H 488.446 4.75368 1.78852 0
M  V30 5011 H 488.376 4.01454 3.40796 0
M  V30 5012 H 490.867 3.12563 2.12397 0
M  V30 5013 H 491.18 6.72236 3.81207 0
M  V30 5014 H 489.525 6.04217 3.43434 0
M  V30 5015 H 492.716 3.91841 2.56082 0
M  V30 5016 H 492.889 5.55843 3.33081 0
M  V30 5017 N 486.295 -0.989507 1.22664 0
M  V30 5018 C 487.543 -1.72612 1.05117 0
M  V30 5019 C 487.864 -1.90552 -0.414131 0
M  V30 5020 O 487.134 -1.4676 -1.29762 0
M  V30 5021 H 485.714 -0.639555 0.385977 0
M  V30 5022 H 488.376 -1.19158 1.54232 0
M  V30 5023 H 487.472 -2.71926 1.53175 0
M  V30 5024 N 487.773 -1.03688 -1.18687 0
M  V30 5025 C 489.02 -0.73803 -1.88572 0
M  V30 5026 C 489.348 0.733973 -1.8012 0
M  V30 5027 O 488.603 1.55098 -1.19344 0
M  V30 5028 C 488.902 -1.14477 -3.3857 0
M  V30 5029 C 488.568 -2.61641 -3.67226 0
M  V30 5030 C 487.23 -3.01846 -3.74757 0
M  V30 5031 C 489.582 -3.56812 -3.79914 0
M  V30 5032 C 486.91 -4.36118 -3.92451 0
M  V30 5033 C 489.262 -4.90799 -3.99123 0
M  V30 5034 C 487.926 -5.3068 -4.04888 0
M  V30 5035 H 487.196 -0.270064 -0.690034 0
M  V30 5036 H 489.843 -1.3012 -1.40503 0
M  V30 5037 H 488.148 -0.500337 -3.88592 0
M  V30 5038 H 489.845 -0.89095 -3.90977 0
M  V30 5039 H 486.435 -2.29498 -3.61979 0
M  V30 5040 H 490.619 -3.26899 -3.73431 0
M  V30 5041 H 485.875 -4.66542 -3.95157 0
M  V30 5042 H 490.049 -5.64451 -4.07882 0
M  V30 5043 H 487.676 -6.34733 -4.18351 0
M  V30 5044 N 489.251 1.34841 -0.815825 0
M  V30 5045 C 490.214 2.27959 -0.238185 0
M  V30 5046 C 491.214 1.49983 0.579816 0
M  V30 5047 O 492.404 1.69617 0.396953 0
M  V30 5048 C 489.536 3.34314 0.666876 0
M  V30 5049 H 490.729 2.80558 -1.05958 0
M  V30 5050 H 488.282 1.44852 -0.587156 0
M  V30 5051 H 489.017 2.86916 1.5116 0
M  V30 5052 H 488.802 3.92014 0.0819106 0
M  V30 5053 H 490.292 4.0379 1.06506 0
M  V30 5054 N 490.729 0.570148 1.46925 0
M  V30 5055 C 492.145 0.23087 1.57921 0
M  V30 5056 C 492.345 -1.26676 1.56702 0
M  V30 5057 O 491.401 -2.04774 1.47729 0
M  V30 5058 C 492.714 0.868973 2.8787 0
M  V30 5059 C 494.262 0.841397 3.01479 0
M  V30 5060 C 494.737 1.45881 4.34146 0
M  V30 5061 N 496.228 1.42258 4.40814 0
M  V30 5062 C 496.963 1.8698 5.42057 0
M  V30 5063 N 496.459 2.39618 6.50042 0
M  V30 5064 N 498.252 1.77972 5.33181 0
M  V30 5065 H 490.403 1.54301 1.45962 0
M  V30 5066 H 492.666 0.644224 0.69547 0
M  V30 5067 H 492.372 1.922 2.94537 0
M  V30 5068 H 492.246 0.369682 3.75384 0
M  V30 5069 H 494.633 -0.202973 2.94401 0
M  V30 5070 H 494.714 1.37858 2.15474 0
M  V30 5071 H 494.358 2.50231 4.4198 0
M  V30 5072 H 494.288 0.896958 5.18905 0
M  V30 5073 H 496.779 1.03768 3.63374 0
M  V30 5074 H 497.092 2.71633 7.23488 0
M  V30 5075 H 495.437 2.43636 6.50897 0
M  V30 5076 H 498.628 1.36617 4.4772 0
M  V30 5077 H 498.801 2.13143 6.11943 0
M  V30 5078 N 492.207 -1.54576 0.307264 0
M  V30 5079 C 493.432 -2.05139 -0.305379 0
M  V30 5080 C 493.857 -1.18278 -1.46259 0
M  V30 5081 O 493.215 -0.188243 -1.8032 0
M  V30 5082 C 493.263 -3.53066 -0.733283 0
M  V30 5083 O 492.367 -3.69206 -1.83741 0
M  V30 5084 H 491.708 -0.661444 -0.0582105 0
M  V30 5085 H 494.238 -1.99569 0.450931 0
M  V30 5086 H 494.248 -3.95034 -1.02039 0
M  V30 5087 H 492.923 -4.15746 0.113198 0
M  V30 5088 H 491.5 -3.39143 -1.55037 0
M  V30 5089 N 493.685 -0.035106 -1.57561 0
M  V30 5090 C 494.618 0.979673 -2.06101 0
M  V30 5091 C 495.596 1.31378 -0.958046 0
M  V30 5092 O 496.78 1.42942 -1.22881 0
M  V30 5093 C 493.907 2.29809 -2.48808 0
M  V30 5094 C 492.953 2.11817 -3.70184 0
M  V30 5095 S 493.786 1.41143 -5.16565 0
M  V30 5096 C 494.942 2.74341 -5.62572 0
M  V30 5097 H 495.175 0.566506 -2.91853 0
M  V30 5098 H 492.708 0.176744 -1.53385 0
M  V30 5099 H 494.666 3.056 -2.74078 0
M  V30 5100 H 493.327 2.68257 -1.63392 0
M  V30 5101 H 492.52 3.09299 -3.97933 0
M  V30 5102 H 492.122 1.44168 -3.45097 0
M  V30 5103 H 494.414 3.70562 -5.67177 0
M  V30 5104 H 495.357 2.51249 -6.62027 0
M  V30 5105 H 495.765 2.79863 -4.90242 0
M  V30 5106 N 495.163 1.55791 0.238111 0
M  V30 5107 C 496.574 1.68383 0.806472 0
M  V30 5108 C 496.925 0.634157 1.85669 0
M  V30 5109 O 496.05 -0.217913 2.153 0
M  V30 5110 C 496.645 3.05268 1.46959 0
M  V30 5111 C 495.204 3.1977 1.98555 0
M  V30 5112 C 494.351 2.64279 0.839763 0
M  V30 5113 H 497.302 1.58694 0.0137535 0
M  V30 5114 H 497.323 3.00203 2.33792 0
M  V30 5115 H 496.835 3.81643 0.704993 0
M  V30 5116 H 494.936 2.48234 2.77868 0
M  V30 5117 H 495.049 4.26788 2.17689 0
M  V30 5118 H 493.413 2.22329 1.24265 0
M  V30 5119 H 494.196 3.43187 0.0881032 0
M  V30 5120 N 496.642 -0.504142 1.49319 0
M  V30 5121 C 497.87 -1.28256 1.62351 0
M  V30 5122 C 498.285 -1.86502 0.293682 0
M  V30 5123 O 497.642 -1.67678 -0.720449 0
M  V30 5124 C 497.693 -2.41507 2.68992 0
M  V30 5125 O 497.414 -1.85656 3.96817 0
M  V30 5126 C 498.915 -3.32929 2.927 0
M  V30 5127 H 496.135 -0.389115 0.546654 0
M  V30 5128 H 498.679 -0.605531 1.95329 0
M  V30 5129 H 496.834 -3.05046 2.38801 0
M  V30 5130 H 497.248 -2.59981 4.55533 0
M  V30 5131 H 498.722 -4.0868 3.71058 0
M  V30 5132 H 499.199 -3.89733 2.02496 0
M  V30 5133 H 499.805 -2.75158 3.24296 0
M  V30 5134 N 498.12 -1.38341 -0.754957 0
M  V30 5135 C 499.345 -1.37882 -1.5493 0
M  V30 5136 C 499.77 0.0296385 -1.88077 0
M  V30 5137 O 499.128 1.01133 -1.50472 0
M  V30 5138 C 499.176 -2.23996 -2.82592 0
M  V30 5139 O 498.28 -1.65612 -3.77686 0
M  V30 5140 H 497.621 -0.470384 -0.468652 0
M  V30 5141 H 500.151 -1.82084 -0.933082 0
M  V30 5142 H 500.161 -2.37806 -3.3153 0
M  V30 5143 H 498.836 -3.26365 -2.57796 0
M  V30 5144 H 497.413 -1.60936 -3.36384 0
M  V30 5145 N 499.598 0.982988 -1.23187 0
M  V30 5146 C 500.846 1.72052 -1.06031 0
M  V30 5147 C 501.167 1.90769 0.404019 0
M  V30 5148 O 500.437 1.47446 1.28982 0
M  V30 5149 H 499.017 0.637499 -0.389363 0
M  V30 5150 H 501.679 1.18338 -1.54862 0
M  V30 5151 H 500.775 2.7111 -1.54615 0
M  V30 5152 N 501.076 1.04316 1.18135 0
M  V30 5153 C 502.039 0.640794 2.2006 0
M  V30 5154 C 503.039 -0.303124 1.57917 0
M  V30 5155 O 504.229 -0.0881855 1.73977 0
M  V30 5156 C 501.361 -0.060148 3.40847 0
M  V30 5157 H 502.554 1.54281 2.57172 0
M  V30 5158 H 500.107 0.836004 1.32063 0
M  V30 5159 H 500.842 -0.975845 3.0927 0
M  V30 5160 H 500.627 0.618319 3.87194 0
M  V30 5161 H 502.117 -0.328082 4.16309 0
M  V30 5162 N 502.554 -1.34406 0.822964 0
M  V30 5163 C 503.484 -2.32052 0.259608 0
M  V30 5164 C 504.465 -1.58243 -0.623961 0
M  V30 5165 O 505.65 -1.86224 -0.55083 0
M  V30 5166 C 502.78 -3.42434 -0.579314 0
M  V30 5167 C 501.734 -4.27499 0.20712 0
M  V30 5168 C 501.06 -5.29349 -0.754547 0
M  V30 5169 C 502.36 -5.02758 1.41533 0
M  V30 5170 H 504.054 -2.79418 1.07545 0
M  V30 5171 H 501.6 -1.34338 0.518593 0
M  V30 5172 H 503.553 -4.0976 -0.983612 0
M  V30 5173 H 502.277 -2.93717 -1.4282 0
M  V30 5174 H 500.936 -3.61776 0.592787 0
M  V30 5175 H 500.584 -4.76895 -1.59939 0
M  V30 5176 H 500.284 -5.8714 -0.232561 0
M  V30 5177 H 501.808 -5.99544 -1.1567 0
M  V30 5178 H 503.222 -5.62938 1.08504 0
M  V30 5179 H 501.619 -5.70123 1.87296 0
M  V30 5180 H 502.689 -4.32451 2.1935 0
M  V30 5181 N 504.032 -0.577932 -1.46621 0
M  V30 5182 C 505.309 0.00495287 -1.95599 0
M  V30 5183 C 505.689 1.46428 -1.5206 0
M  V30 5184 O 505.037 2.1517 -0.769046 0
M  V30 5185 C 505.247 -0.162114 -3.48623 0
M  V30 5186 C 506.595 -0.0274623 -4.24591 0
M  V30 5187 O 507.619 -0.0907067 -3.56084 0
M  V30 5188 O 506.478 0.1122 -5.46385 0
M  V30 5189 H 503.572 0.0525057 -0.825332 0
M  V30 5190 H 506.118 -0.645914 -1.56927 0
M  V30 5191 H 504.89 -1.17679 -3.73185 0
M  V30 5192 H 504.513 0.525407 -3.94113 0
M  V30 5193 N 505.51 1.54411 -0.315457 0
M  V30 5194 C 506.926 1.59556 0.037464 0
M  V30 5195 C 507.126 1.33217 1.5118 0
M  V30 5196 O 506.182 1.11264 2.26664 0
M  V30 5197 C 507.495 2.98372 -0.373477 0
M  V30 5198 C 509.043 3.11324 -0.323452 0
M  V30 5199 C 509.518 4.52472 -0.709433 0
M  V30 5200 N 511.009 4.58437 -0.662524 0
M  V30 5201 C 511.744 5.65751 -0.933474 0
M  V30 5202 N 511.24 6.81039 -1.27114 0
M  V30 5203 N 513.033 5.55489 -0.859573 0
M  V30 5204 H 505.184 1.6979 -1.27614 0
M  V30 5205 H 507.447 0.793732 -0.518356 0
M  V30 5206 H 507.153 3.22618 -1.40037 0
M  V30 5207 H 507.027 3.76264 0.265615 0
M  V30 5208 H 509.414 2.86818 0.694223 0
M  V30 5209 H 509.495 2.35555 -0.997367 0
M  V30 5210 H 509.139 4.7771 -1.72498 0
M  V30 5211 H 509.069 5.26598 -0.0132923 0
M  V30 5212 H 511.56 3.75636 -0.413065 0
M  V30 5213 H 511.873 7.58816 -1.46348 0
M  V30 5214 H 510.218 6.82555 -1.30932 0
M  V30 5215 H 513.409 4.64299 -0.595324 0
M  V30 5216 H 513.582 6.39036 -1.0741 0
M  V30 5217 N 506.988 0.0434614 1.5754 0
M  V30 5218 C 508.234 -0.632971 1.92669 0
M  V30 5219 C 508.567 -1.70947 0.921446 0
M  V30 5220 O 507.842 -1.94426 -0.0537202 0
M  V30 5221 C 508.125 -1.23619 3.38216 0
M  V30 5222 C 507.978 -0.168274 4.49485 0
M  V30 5223 C 509.297 -2.15008 3.84005 0
M  V30 5224 H 506.416 -0.228629 0.700641 0
M  V30 5225 H 509.058 0.103651 1.89717 0
M  V30 5226 H 507.208 -1.864 3.40863 0
M  V30 5227 H 508.88 0.463196 4.58969 0
M  V30 5228 H 507.123 0.504581 4.30855 0
M  V30 5229 H 507.794 -0.630218 5.48391 0
M  V30 5230 H 510.27 -1.62198 3.83185 0
M  V30 5231 H 509.146 -2.54161 4.86511 0
M  V30 5232 H 509.407 -3.04707 3.20322 0
M  V30 5233 N 508.466 -1.55915 -0.229846 0
M  V30 5234 C 509.429 -1.90914 -1.26824 0
M  V30 5235 C 510.429 -0.786999 -1.40225 0
M  V30 5236 O 511.619 -1.05484 -1.38632 0
M  V30 5237 C 508.751 -2.15264 -2.64337 0
M  V30 5238 H 509.944 -2.8378 -0.969998 0
M  V30 5239 H 507.497 -1.49069 -0.4699 0
M  V30 5240 H 508.232 -1.24923 -2.99274 0
M  V30 5241 H 508.017 -2.97005 -2.55989 0
M  V30 5242 H 509.507 -2.43467 -3.39284 0
M  V30 5243 N 509.944 0.496216 -1.49584 0
M  V30 5244 C 511.169 1.27865 -1.63295 0
M  V30 5245 C 511.594 1.85592 -0.306156 0
M  V30 5246 O 510.952 1.66092 0.726851 0
M  V30 5247 C 511 2.38128 -2.7079 0
M  V30 5248 O 510.104 3.42108 -2.30296 0
M  V30 5249 H 509.445 0.377279 -0.546403 0
M  V30 5250 H 511.975 0.593497 -1.95803 0
M  V30 5251 H 511.985 2.8382 -2.93104 0
M  V30 5252 H 510.66 1.95479 -3.67098 0
M  V30 5253 H 509.237 3.02301 -2.18331 0
M  V30 5254 N 511.423 1.38739 0.74761 0
M  V30 5255 C 512.386 1.36241 1.84312 0
M  V30 5256 C 513.386 0.261811 1.58654 0
M  V30 5257 O 514.576 0.519031 1.66288 0
M  V30 5258 C 511.708 1.12253 3.21888 0
M  V30 5259 H 512.901 2.33712 1.87933 0
M  V30 5260 H 510.454 1.2412 0.949946 0
M  V30 5261 H 511.189 0.154133 3.23934 0
M  V30 5262 H 510.974 1.91943 3.41907 0
M  V30 5263 H 512.464 1.13215 4.0196 0
M  V30 5264 N 512.901 -0.976442 1.23707 0
M  V30 5265 C 514.129 -1.75341 1.09833 0
M  V30 5266 C 514.544 -1.8553 -0.349885 0
M  V30 5267 O 513.901 -1.33732 -1.24185 0
M  V30 5268 C 513.952 -3.17833 1.72233 0
M  V30 5269 O 513.673 -3.08167 3.11391 0
M  V30 5270 C 515.174 -4.11906 1.63853 0
M  V30 5271 H 512.394 -0.550137 0.384175 0
M  V30 5272 H 514.938 -1.2265 1.63638 0
M  V30 5273 H 513.093 -3.67538 1.22452 0
M  V30 5274 H 513.507 -3.97897 3.41729 0
M  V30 5275 H 514.981 -5.09579 2.12211 0
M  V30 5276 H 515.458 -4.35109 0.598092 0
M  V30 5277 H 516.064 -3.68107 2.13019 0
M  V30 5278 N 514.379 -1.04941 -1.1758 0
M  V30 5279 C 515.326 -0.648155 -2.21512 0
M  V30 5280 C 516.296 0.348431 -1.62404 0
M  V30 5281 O 517.481 0.240419 -1.89279 0
M  V30 5282 C 514.621 -0.0264291 -3.4509 0
M  V30 5283 C 513.734 -1.07154 -4.185 0
M  V30 5284 C 512.869 -0.417403 -5.29558 0
M  V30 5285 C 511.908 -1.447 -5.94751 0
M  V30 5286 N 511.045 -0.817203 -6.97328 0
M  V30 5287 H 515.885 -1.53891 -2.55189 0
M  V30 5288 H 513.422 -0.769699 -1.25356 0
M  V30 5289 H 515.38 0.351456 -4.15717 0
M  V30 5290 H 514.01 0.827802 -3.12005 0
M  V30 5291 H 513.062 -1.56728 -3.46613 0
M  V30 5292 H 514.374 -1.8532 -4.63096 0
M  V30 5293 H 513.528 0.0142061 -6.06698 0
M  V30 5294 H 512.267 0.396265 -4.86087 0
M  V30 5295 H 511.272 -1.88865 -5.16343 0
M  V30 5296 H 512.497 -2.26252 -6.40302 0
M  V30 5297 H 510.443 -0.0239995 -6.55996 0
M  V30 5298 H 510.36 -1.53644 -7.40223 0
M  V30 5299 H 511.628 -0.410283 -7.7842 0
M  V30 5300 N 515.857 1.33968 -0.830081 0
M  V30 5301 C 517.106 1.97323 -0.417928 0
M  V30 5302 C 517.419 1.6652 1.02618 0
M  V30 5303 O 518.625 2.2342 1.54259 0
M  V30 5304 C 517.081 3.53099 -0.696359 0
M  V30 5305 C 516.689 3.92788 -2.15457 0
M  V30 5306 C 518.433 4.23049 -0.350724 0
M  V30 5307 C 516.34 5.41506 -2.37751 0
M  V30 5308 H 515.27 0.738409 -0.152541 0
M  V30 5309 H 517.921 1.52711 -1.01744 0
M  V30 5310 H 516.303 3.95991 -0.0265904 0
M  V30 5311 H 517.477 3.6098 -2.86408 0
M  V30 5312 H 515.792 3.35795 -2.46232 0
M  V30 5313 H 518.389 5.32403 -0.495036 0
M  V30 5314 H 518.732 4.10279 0.705476 0
M  V30 5315 H 519.265 3.85657 -0.975362 0
M  V30 5316 H 516.004 5.5927 -3.41903 0
M  V30 5317 H 515.524 5.74804 -1.7135 0
M  V30 5318 H 517.203 6.0828 -2.20465 0
M  V30 5319 N 517.335 0.585699 1.46312 0
M  V30 5320 C 518.298 -0.135673 2.28798 0
M  V30 5321 C 519.298 -0.815988 1.38558 0
M  V30 5322 O 520.488 -0.667487 1.60904 0
M  V30 5323 C 517.62 -1.20163 3.1902 0
M  V30 5324 H 518.813 0.589257 2.94054 0
M  V30 5325 H 516.366 0.343794 1.52472 0
M  V30 5326 H 517.101 -1.95804 2.58517 0
M  V30 5327 H 516.886 -0.718282 3.85465 0
M  V30 5328 H 518.376 -1.70749 3.81096 0
M  V30 5329 N 518.813 -1.54241 0.323641 0
M  V30 5330 C 519.743 -2.27289 -0.534993 0
M  V30 5331 C 520.724 -1.28087 -1.11927 0
M  V30 5332 O 521.909 -1.56899 -1.14439 0
M  V30 5333 C 519.039 -3.03075 -1.69596 0
M  V30 5334 C 517.993 -4.09614 -1.24098 0
M  V30 5335 C 517.319 -4.73242 -2.4889 0
M  V30 5336 C 518.619 -5.21087 -0.355789 0
M  V30 5337 H 520.313 -2.99308 0.0743257 0
M  V30 5338 H 517.859 -1.43952 0.0371874 0
M  V30 5339 H 519.812 -3.52907 -2.30293 0
M  V30 5340 H 518.536 -2.28673 -2.33187 0
M  V30 5341 H 517.195 -3.60666 -0.656945 0
M  V30 5342 H 516.843 -3.95455 -3.10845 0
M  V30 5343 H 516.543 -5.45209 -2.19138 0
M  V30 5344 H 518.067 -5.25848 -3.10348 0
M  V30 5345 H 519.481 -5.66675 -0.869042 0
M  V30 5346 H 517.878 -5.9991 -0.151045 0
M  V30 5347 H 518.948 -4.81005 0.613339 0
M  V30 5348 N 520.291 -0.0518155 -1.57515 0
M  V30 5349 C 521.521 0.63048 -1.96745 0
M  V30 5350 C 521.929 1.64875 -0.928054 0
M  V30 5351 O 521.272 1.83449 0.0960678 0
M  V30 5352 C 521.334 1.37381 -3.32215 0
M  V30 5353 C 520.998 0.511298 -4.54131 0
M  V30 5354 C 521.995 -0.222884 -5.19422 0
M  V30 5355 C 519.68 0.442035 -5.00351 0
M  V30 5356 C 521.674 -1.01476 -6.2927 0
M  V30 5357 C 519.361 -0.35353 -6.10077 0
M  V30 5358 C 520.359 -1.08062 -6.74397 0
M  V30 5359 O 520.047 -1.8631 -7.82013 0
M  V30 5360 H 519.779 0.177126 -0.652382 0
M  V30 5361 H 522.333 -0.114726 -2.05079 0
M  V30 5362 H 520.563 2.16466 -3.20436 0
M  V30 5363 H 522.252 1.9464 -3.56188 0
M  V30 5364 H 523.018 -0.178846 -4.8467 0
M  V30 5365 H 518.897 0.997562 -4.50077 0
M  V30 5366 H 522.441 -1.58279 -6.79407 0
M  V30 5367 H 518.338 -0.399205 -6.44264 0
M  V30 5368 H 519.106 -1.78528 -7.98793 0
M  V30 5369 N 521.769 1.56035 0.221574 0
M  V30 5370 C 522.679 1.95581 1.29558 0
M  V30 5371 C 523.695 0.859639 1.51282 0
M  V30 5372 O 524.871 1.16321 1.64413 0
M  V30 5373 C 521.936 2.26447 2.62531 0
M  V30 5374 C 520.997 3.49632 2.4911 0
M  V30 5375 C 520.23 3.79017 3.75742 0
M  V30 5376 O 520.453 3.10077 4.78757 0
M  V30 5377 O 519.387 4.72507 3.72855 0
M  V30 5378 H 523.213 2.8711 0.990035 0
M  V30 5379 H 520.798 1.43244 0.424434 0
M  V30 5380 H 522.68 2.47494 3.41064 0
M  V30 5381 H 521.355 1.38092 2.92766 0
M  V30 5382 H 520.262 3.33864 1.68777 0
M  V30 5383 H 521.595 4.3837 2.23814 0
M  V30 5384 N 523.247 -0.488276 1.49845 0
M  V30 5385 C 524.475 -1.26527 1.63702 0
M  V30 5386 C 524.89 -1.8618 0.313447 0
M  V30 5387 O 524.247 -1.68432 -0.702624 0
M  V30 5388 C 524.298 -2.3864 2.71538 0
M  V30 5389 O 524.019 -1.81437 3.98763 0
M  V30 5390 C 525.52 -3.29805 2.96215 0
M  V30 5391 H 522.74 -0.383295 0.55075 0
M  V30 5392 H 525.284 -0.584779 1.95961 0
M  V30 5393 H 523.439 -3.02496 2.42023 0
M  V30 5394 H 523.853 -2.55135 4.58265 0
M  V30 5395 H 525.327 -4.04722 3.75372 0
M  V30 5396 H 525.804 -3.87563 2.06619 0
M  V30 5397 H 526.41 -2.71703 3.27196 0
M  V30 5398 N 524.725 -1.39134 -0.740242 0
M  V30 5399 C 526.136 -1.32208 -1.31825 0
M  V30 5400 C 526.487 0.0159919 -1.96193 0
M  V30 5401 O 525.612 0.918111 -1.95958 0
M  V30 5402 C 526.207 -2.39436 -2.39699 0
M  V30 5403 C 524.766 -2.36048 -2.93187 0
M  V30 5404 C 523.913 -2.21599 -1.66701 0
M  V30 5405 H 526.864 -1.49298 -0.538133 0
M  V30 5406 H 526.885 -2.05922 -3.19963 0
M  V30 5407 H 526.397 -3.36811 -1.92821 0
M  V30 5408 H 524.498 -1.42295 -3.44359 0
M  V30 5409 H 524.611 -3.30704 -3.46658 0
M  V30 5410 H 522.975 -1.68681 -1.90837 0
M  V30 5411 H 523.758 -3.20936 -1.21882 0
M  V30 5412 N 526.204 0.969867 -1.24223 0
M  V30 5413 C 527.432 1.74756 -1.10761 0
M  V30 5414 C 527.847 1.85713 0.340041 0
M  V30 5415 O 527.204 1.34389 1.23474 0
M  V30 5416 C 527.255 3.16915 -1.73917 0
M  V30 5417 O 526.976 3.06511 -3.13021 0
M  V30 5418 C 528.477 4.11032 -1.66036 0
M  V30 5419 H 525.697 0.548092 -0.387087 0
M  V30 5420 H 528.241 1.2178 -1.64286 0
M  V30 5421 H 526.396 3.66884 -1.244 0
M  V30 5422 H 526.81 3.96079 -3.43834 0
M  V30 5423 H 528.284 5.08446 -2.14911 0
M  V30 5424 H 528.761 4.34785 -0.621159 0
M  V30 5425 H 529.367 3.66972 -2.14969 0
M  V30 5426 N 527.682 1.05563 1.17022 0
M  V30 5427 C 528.93 0.76642 1.87004 0
M  V30 5428 C 529.251 -0.708854 1.8166 0
M  V30 5429 O 528.521 -1.51242 1.2451 0
M  V30 5430 H 527.101 0.280516 0.692329 0
M  V30 5431 H 529.763 1.33557 1.41945 0
M  V30 5432 H 528.859 1.08472 2.92644 0
M  V30 5433 N 529.16 -1.33526 0.837174 0
M  V30 5434 C 530.406 -1.98541 0.44193 0
M  V30 5435 C 530.761 -1.65124 -0.987517 0
M  V30 5436 O 530.054 -0.919948 -1.6807 0
M  V30 5437 C 530.248 -3.52367 0.597675 0
M  V30 5438 C 530.077 -4.00731 2.04071 0
M  V30 5439 C 528.847 -4.28649 2.67559 0
M  V30 5440 C 531.045 -4.17073 3.00923 0
M  V30 5441 N 529.027 -4.63142 4.02955 0
M  V30 5442 C 530.398 -4.54905 4.21261 0
M  V30 5443 C 532.453 -3.99358 2.97351 0
M  V30 5444 C 531.156 -4.76874 5.38501 0
M  V30 5445 C 533.182 -4.22501 4.1382 0
M  V30 5446 C 532.544 -4.60634 5.32912 0
M  V30 5447 H 528.643 -0.753246 0.210105 0
M  V30 5448 H 531.227 -1.61674 1.08488 0
M  V30 5449 H 529.398 -3.88397 -0.0154658 0
M  V30 5450 H 531.13 -4.04326 0.17404 0
M  V30 5451 H 527.885 -4.20077 2.18706 0
M  V30 5452 H 528.309 -4.84601 4.72748 0
M  V30 5453 H 532.951 -3.68993 2.06408 0
M  V30 5454 H 530.669 -5.06101 6.2999 0
M  V30 5455 H 534.255 -4.10316 4.12471 0
M  V30 5456 H 533.135 -4.78187 6.21536 0
M  V30 5457 N 530.638 -0.59345 -1.46 0
M  V30 5458 C 531.585 0.133618 -2.30413 0
M  V30 5459 C 532.555 0.873736 -1.41262 0
M  V30 5460 O 533.74 0.862279 -1.70204 0
M  V30 5461 C 530.88 1.13434 -3.25924 0
M  V30 5462 C 529.993 0.39656 -4.30176 0
M  V30 5463 C 529.128 1.38575 -5.12806 0
M  V30 5464 C 528.167 0.634984 -6.08797 0
M  V30 5465 N 527.304 1.57276 -6.84258 0
M  V30 5466 H 532.144 -0.592252 -2.92055 0
M  V30 5467 H 529.681 -0.303874 -1.43927 0
M  V30 5468 H 531.639 1.72752 -3.79753 0
M  V30 5469 H 530.269 1.82779 -2.66067 0
M  V30 5470 H 529.321 -0.311861 -3.79119 0
M  V30 5471 H 530.633 -0.189869 -4.98438 0
M  V30 5472 H 529.787 2.05141 -5.70966 0
M  V30 5473 H 528.526 2.00611 -4.44529 0
M  V30 5474 H 527.531 -0.0443925 -5.49782 0
M  V30 5475 H 528.756 0.0198678 -6.79097 0
M  V30 5476 H 526.702 2.18103 -6.18682 0
M  V30 5477 H 526.619 1.03941 -7.48821 0
M  V30 5478 H 527.887 2.22844 -7.46968 0
M  V30 5479 N 532.116 1.54067 -0.331816 0
M  V30 5480 C 533.363 2.00715 0.268269 0
M  V30 5481 C 533.691 1.21986 1.51491 0
M  V30 5482 O 532.946 0.292309 1.93505 0
M  V30 5483 C 533.245 3.51634 0.639392 0
M  V30 5484 C 532.911 4.48018 -0.509019 0
M  V30 5485 C 531.573 4.74089 -0.824209 0
M  V30 5486 C 533.925 5.05237 -1.28003 0
M  V30 5487 C 531.253 5.54637 -1.91298 0
M  V30 5488 C 533.605 5.86972 -2.35895 0
M  V30 5489 C 532.269 6.11342 -2.67987 0
M  V30 5490 H 531.539 0.734469 0.0981667 0
M  V30 5491 H 534.186 1.8596 -0.457304 0
M  V30 5492 H 532.491 3.6416 1.44551 0
M  V30 5493 H 534.188 3.85175 1.11539 0
M  V30 5494 H 530.778 4.27851 -0.253287 0
M  V30 5495 H 534.962 4.8507 -1.04978 0
M  V30 5496 H 530.218 5.71747 -2.16599 0
M  V30 5497 H 534.392 6.30327 -2.96076 0
M  V30 5498 H 532.019 6.73544 -3.5248 0
M  V30 5499 N 533.594 0.0601682 1.57485 0
M  V30 5500 C 534.841 -0.611594 1.93043 0
M  V30 5501 C 535.169 -1.70317 0.939274 0
M  V30 5502 O 534.424 -1.95644 -0.046996 0
M  V30 5503 C 534.723 -1.23831 3.35262 0
M  V30 5504 C 534.389 -0.274037 4.50066 0
M  V30 5505 C 533.051 -0.00872394 4.81199 0
M  V30 5506 C 535.403 0.386308 5.19766 0
M  V30 5507 C 532.731 0.924218 5.79375 0
M  V30 5508 C 535.083 1.3075 6.1894 0
M  V30 5509 C 533.747 1.58139 6.48497 0
M  V30 5510 H 533.017 -0.223798 0.706396 0
M  V30 5511 H 535.664 0.128566 1.91068 0
M  V30 5512 H 533.969 -2.05394 3.33647 0
M  V30 5513 H 535.666 -1.76517 3.60059 0
M  V30 5514 H 532.256 -0.491008 4.25778 0
M  V30 5515 H 536.44 0.194436 4.95919 0
M  V30 5516 H 531.696 1.1438 6.00606 0
M  V30 5517 H 535.87 1.82519 6.72056 0
M  V30 5518 H 533.497 2.30593 7.24383 0
M  V30 5519 N 535.072 -1.5615 -0.213296 0
M  V30 5520 C 536.32 -1.79191 -0.934612 0
M  V30 5521 C 536.641 -0.630112 -1.84539 0
M  V30 5522 O 535.911 0.35257 -1.92701 0
M  V30 5523 H 534.491 -0.660937 -0.348097 0
M  V30 5524 H 537.153 -1.93618 -0.22317 0
M  V30 5525 H 536.249 -2.71656 -1.53654 0
M  V30 5526 N 536.55 0.480323 -1.50102 0
M  V30 5527 C 537.498 1.60024 -1.68805 0
M  V30 5528 C 538.492 1.60089 -0.553888 0
M  V30 5529 O 539.698 1.64349 -0.734127 0
M  V30 5530 H 536.073 0.530841 -0.532646 0
M  V30 5531 H 538.044 1.41408 -2.62767 0
M  V30 5532 C 536.793 2.98029 -1.79092 0
M  V30 5533 H 536.116 2.98694 -2.65748 0
M  V30 5534 H 537.556 3.75871 -1.96206 0
M  V30 5535 C 536.015 3.32538 -0.540388 0
M  V30 5536 O 536.545 4.00386 0.324637 0
M  V30 5537 N 534.751 2.87873 -0.397154 0
M  V30 5538 H 534.298 2.32834 -1.1021 0
M  V30 5539 H 534.256 3.11328 0.438425 0
M  V30 5540 N 538.028 1.39524 0.732853 0
M  V30 5541 C 538.958 1.41153 1.86005 0
M  V30 5542 C 539.939 0.274614 1.67869 0
M  V30 5543 O 541.124 0.480745 1.88155 0
M  V30 5544 C 538.254 1.25638 3.23778 0
M  V30 5545 C 537.208 2.36752 3.56556 0
M  V30 5546 C 536.534 2.06326 4.93289 0
M  V30 5547 C 537.834 3.79069 3.5931 0
M  V30 5548 H 539.528 2.35484 1.84899 0
M  V30 5549 H 537.074 1.13348 0.888162 0
M  V30 5550 H 539.027 1.25398 4.0231 0
M  V30 5551 H 537.751 0.277772 3.25417 0
M  V30 5552 H 536.41 2.36213 2.80355 0
M  V30 5553 H 536.058 1.06897 4.9151 0
M  V30 5554 H 535.758 2.80757 5.16187 0
M  V30 5555 H 537.282 2.07739 5.74175 0
M  V30 5556 H 538.696 3.81526 4.27914 0
M  V30 5557 H 537.093 4.52878 3.93728 0
M  V30 5558 H 538.163 4.09893 2.59068 0
M  V30 5559 N 539.506 -0.963266 1.24736 0
M  V30 5560 C 540.439 -2.05758 0.986852 0
M  V30 5561 C 541.417 -1.62398 -0.0809272 0
M  V30 5562 O 542.601 -1.88414 0.0569347 0
M  V30 5563 C 539.728 -3.35135 0.490095 0
M  V30 5564 C 538.774 -3.97451 1.54709 0
M  V30 5565 S 539.607 -4.34519 3.12976 0
M  V30 5566 C 540.763 -5.67026 2.65014 0
M  V30 5567 H 540.996 -2.27539 1.91346 0
M  V30 5568 H 538.529 -1.10176 1.08169 0
M  V30 5569 H 540.487 -4.09962 0.21012 0
M  V30 5570 H 539.148 -3.11335 -0.415873 0
M  V30 5571 H 538.341 -4.90704 1.15003 0
M  V30 5572 H 537.943 -3.29071 1.77731 0
M  V30 5573 H 540.235 -6.44748 2.08102 0
M  V30 5574 H 541.178 -6.11594 3.56873 0
M  V30 5575 H 541.586 -5.25847 2.05294 0
M  V30 5576 N 540.985 -1.06182 -1.16461 0
M  V30 5577 C 542.262 -0.691364 -1.82974 0
M  V30 5578 C 542.642 0.827377 -1.9421 0
M  V30 5579 O 541.99 1.73723 -1.48434 0
M  V30 5580 C 542.2 -1.39199 -3.20038 0
M  V30 5581 C 543.548 -1.53647 -3.95825 0
M  V30 5582 O 544.572 -1.35181 -3.29552 0
M  V30 5583 O 543.431 -1.83932 -5.14618 0
M  V30 5584 H 540.525 -0.244605 -0.789998 0
M  V30 5585 H 543.071 -1.16203 -1.23673 0
M  V30 5586 H 541.843 -2.42766 -3.06888 0
M  V30 5587 H 541.466 -0.911335 -3.87015 0
M  V30 5588 N 542.463 1.3308 -0.844243 0
M  V30 5589 C 543.426 2.27403 -0.286485 0
M  V30 5590 C 544.426 1.51179 0.547872 0
M  V30 5591 O 545.616 1.70421 0.360886 0
M  V30 5592 C 542.748 3.35653 0.595813 0
M  V30 5593 H 543.941 2.78248 -1.11885 0
M  V30 5594 H 541.494 1.43574 -0.617749 0
M  V30 5595 H 542.229 2.90058 1.4504 0
M  V30 5596 H 542.014 3.921 -0.00125994 0
M  V30 5597 H 543.504 4.05958 0.979168 0
M  V30 5598 N 543.941 0.601185 1.45683 0
M  V30 5599 C 545.166 0.0982245 2.07167 0
M  V30 5600 C 545.591 -1.20546 1.44396 0
M  V30 5601 O 544.949 -1.73247 0.534347 0
M  V30 5602 C 544.997 -0.0346976 3.60583 0
M  V30 5603 O 544.101 -1.08657 3.97828 0
M  V30 5604 H 543.442 0.0711618 0.660176 0
M  V30 5605 H 545.972 0.829376 1.87036 0
M  V30 5606 H 545.982 -0.234969 4.07323 0
M  V30 5607 H 544.657 0.917265 4.05659 0
M  V30 5608 H 543.234 -0.863275 3.6277 0
M  V30 5609 N 545.419 -1.53889 0.339982 0
M  V30 5610 C 546.366 -2.24902 -0.518452 0
M  V30 5611 C 547.336 -1.24593 -1.09844 0
M  V30 5612 O 548.521 -1.53317 -1.13572 0
M  V30 5613 C 545.661 -3.02262 -1.66529 0
M  V30 5614 C 544.774 -4.17418 -1.11295 0
M  V30 5615 C 543.909 -4.82273 -2.2268 0
M  V30 5616 C 542.948 -5.89503 -1.6478 0
M  V30 5617 N 542.085 -6.48153 -2.69893 0
M  V30 5618 H 546.925 -2.97853 0.0936579 0
M  V30 5619 H 544.462 -1.46986 0.0579924 0
M  V30 5620 H 546.42 -3.45371 -2.3404 0
M  V30 5621 H 545.05 -2.31614 -2.24844 0
M  V30 5622 H 544.102 -3.78976 -0.328886 0
M  V30 5623 H 545.414 -4.94554 -0.649414 0
M  V30 5624 H 544.568 -5.28435 -2.98063 0
M  V30 5625 H 543.307 -4.04552 -2.72376 0
M  V30 5626 H 542.312 -5.42728 -0.879004 0
M  V30 5627 H 543.537 -6.6913 -1.1594 0
M  V30 5628 H 541.483 -5.73298 -3.1885 0
M  V30 5629 H 541.4 -7.20752 -2.28151 0
M  V30 5630 H 542.668 -6.98968 -3.45056 0
M  V30 5631 N 546.897 -0.0685191 -1.57451 0
M  V30 5632 C 547.827 0.89747 -2.15564 0
M  V30 5633 C 548.808 1.31266 -1.08181 0
M  V30 5634 O 549.993 1.38429 -1.36202 0
M  V30 5635 C 547.123 2.16623 -2.71463 0
M  V30 5636 C 546.077 1.89054 -3.83982 0
M  V30 5637 C 545.403 3.22532 -4.26471 0
M  V30 5638 C 546.703 1.1984 -5.08366 0
M  V30 5639 H 548.397 0.413373 -2.96533 0
M  V30 5640 H 545.943 0.197391 -1.42641 0
M  V30 5641 H 547.896 2.84614 -3.10761 0
M  V30 5642 H 546.62 2.67269 -1.8771 0
M  V30 5643 H 545.279 1.23469 -3.45183 0
M  V30 5644 H 544.927 3.71013 -3.39644 0
M  V30 5645 H 544.627 3.04879 -5.02317 0
M  V30 5646 H 546.151 3.91727 -4.68383 0
M  V30 5647 H 547.565 1.77896 -5.45001 0
M  V30 5648 H 545.962 1.12456 -5.89469 0
M  V30 5649 H 547.032 0.176996 -4.84577 0
M  V30 5650 N 548.375 1.56261 0.205012 0
M  V30 5651 C 549.6 1.84491 0.947512 0
M  V30 5652 C 550.025 0.650894 1.76479 0
M  V30 5653 O 549.383 -0.40035 1.76824 0
M  V30 5654 C 549.431 3.10863 1.82747 0
M  V30 5655 O 548.535 2.90719 2.925 0
M  V30 5656 H 547.876 0.607783 0.267386 0
M  V30 5657 H 550.406 2.03485 0.213323 0
M  V30 5658 H 550.416 3.41399 2.23407 0
M  V30 5659 H 549.091 3.97392 1.2269 0
M  V30 5660 H 547.668 2.71457 2.55667 0
M  V30 5661 N 549.853 -0.472356 1.50355 0
M  V30 5662 C 550.783 -1.57859 1.72055 0
M  V30 5663 C 551.764 -1.60283 0.569505 0
M  V30 5664 O 552.949 -1.7657 0.808503 0
M  V30 5665 C 550.079 -2.96191 1.81351 0
M  V30 5666 C 549.033 -3.08633 2.96529 0
M  V30 5667 C 548.359 -4.486 2.90968 0
M  V30 5668 C 549.659 -2.85969 4.37057 0
M  V30 5669 H 551.353 -1.39953 2.64676 0
M  V30 5670 H 548.899 -0.671846 1.27367 0
M  V30 5671 H 550.852 -3.73507 1.95117 0
M  V30 5672 H 549.576 -3.15251 0.853502 0
M  V30 5673 H 548.235 -2.33749 2.82413 0
M  V30 5674 H 547.883 -4.64577 1.92815 0
M  V30 5675 H 547.583 -4.57861 3.68289 0
M  V30 5676 H 549.107 -5.27938 3.0678 0
M  V30 5677 H 550.521 -3.53036 4.51706 0
M  V30 5678 H 548.918 -3.06677 5.15819 0
M  V30 5679 H 549.988 -1.81838 4.49514 0
M  V30 5680 N 551.331 -1.39911 -0.725443 0
M  V30 5681 C 552.571 -1.39096 -1.49772 0
M  V30 5682 C 552.935 0.0106452 -1.91997 0
M  V30 5683 O 554.136 0.143859 -2.68415 0
M  V30 5684 C 552.407 -2.34441 -2.69764 0
M  V30 5685 S 553.966 -2.51898 -3.59295 0
M  V30 5686 H 550.784 -0.49314 -0.512186 0
M  V30 5687 H 553.386 -1.76093 -0.849197 0
M  V30 5688 H 552.09 -3.35123 -2.36898 0
M  V30 5689 H 551.621 -1.98692 -3.39537 0
M  V30 5690 H 553.636 -1.76402 -4.63785 0
M  V30 5691 N 552.809 0.956637 -1.25245 0
M  V30 5692 C 554.057 1.69764 -1.09657 0
M  V30 5693 C 554.378 1.91583 0.363464 0
M  V30 5694 O 553.648 1.50149 1.25825 0
M  V30 5695 H 552.228 0.629097 -0.402798 0
M  V30 5696 H 554.89 1.15026 -1.57337 0
M  V30 5697 H 553.986 2.67769 -1.60331 0
M  V30 5698 N 554.287 1.06798 1.15896 0
M  V30 5699 C 555.197 0.694564 2.24083 0
M  V30 5700 C 556.213 -0.291687 1.71538 0
M  V30 5701 O 557.389 -0.139723 2.00915 0
M  V30 5702 C 554.454 0.0921014 3.46578 0
M  V30 5703 C 553.515 1.13087 4.14137 0
M  V30 5704 C 552.748 0.557064 5.30785 0
M  V30 5705 O 552.971 -0.628623 5.66925 0
M  V30 5706 O 551.905 1.29924 5.8771 0
M  V30 5707 H 555.731 1.59663 2.58344 0
M  V30 5708 H 553.316 0.840575 1.2351 0
M  V30 5709 H 555.198 -0.241884 4.20705 0
M  V30 5710 H 553.873 -0.78337 3.14078 0
M  V30 5711 H 552.78 1.51712 3.41957 0
M  V30 5712 H 554.113 1.97805 4.50704 0
M  V30 5713 N 555.766 -1.3263 0.851289 0
M  V30 5714 C 556.676 -2.32722 0.296268 0
M  V30 5715 C 557.692 -1.63901 -0.584162 0
M  V30 5716 O 558.868 -1.95465 -0.485334 0
M  V30 5717 C 555.933 -3.42942 -0.509103 0
M  V30 5718 C 554.994 -4.2746 0.397069 0
M  V30 5719 C 554.227 -5.32416 -0.36996 0
M  V30 5720 O 554.45 -5.47491 -1.6003 0
M  V30 5721 O 553.384 -6.01327 0.262493 0
M  V30 5722 H 557.21 -2.82078 1.12543 0
M  V30 5723 H 554.795 -1.36194 0.614135 0
M  V30 5724 H 556.677 -4.1017 -0.96634 0
M  V30 5725 H 555.352 -2.95781 -1.31512 0
M  V30 5726 H 554.259 -3.63053 0.902411 0
M  V30 5727 H 555.592 -4.78136 1.16818 0
M  V30 5728 N 557.244 -0.608902 -1.45362 0
M  V30 5729 C 558.469 -0.10921 -2.07112 0
M  V30 5730 C 558.894 1.19779 -1.45033 0
M  V30 5731 O 558.252 1.72961 -0.543527 0
M  V30 5732 C 558.3 0.0155745 -3.60597 0
M  V30 5733 O 557.404 1.06546 -3.98399 0
M  V30 5734 H 556.745 -0.0746619 -0.659789 0
M  V30 5735 H 559.275 -0.839283 -1.86594 0
M  V30 5736 H 559.285 0.213364 -4.07442 0
M  V30 5737 H 557.96 -0.938765 -4.05167 0
M  V30 5738 H 556.537 0.844024 -3.63223 0
M  V30 5739 N 558.722 1.53707 -0.348139 0
M  V30 5740 C 559.969 2.00988 0.246966 0
M  V30 5741 C 560.297 1.23586 1.50189 0
M  V30 5742 O 559.552 0.312817 1.93184 0
M  V30 5743 C 559.851 3.52292 0.602061 0
M  V30 5744 C 559.517 4.47453 -0.556509 0
M  V30 5745 C 558.179 4.73188 -0.874446 0
M  V30 5746 C 560.531 5.03851 -1.33354 0
M  V30 5747 C 557.859 5.52577 -1.9717 0
M  V30 5748 C 560.211 5.84437 -2.42108 0
M  V30 5749 C 558.875 6.08465 -2.74456 0
M  V30 5750 H 558.145 0.735469 0.0903712 0
M  V30 5751 H 560.792 1.85464 -0.477001 0
M  V30 5752 H 559.097 3.65672 1.40681 0
M  V30 5753 H 560.794 3.86337 1.07447 0
M  V30 5754 H 557.384 4.27558 -0.298652 0
M  V30 5755 H 561.568 4.8393 -1.10117 0
M  V30 5756 H 556.824 5.69418 -2.22651 0
M  V30 5757 H 560.998 6.27151 -3.02745 0
M  V30 5758 H 558.625 6.69768 -3.59604 0
M  V30 5759 N 560.2 0.0768682 1.57412 0
M  V30 5760 C 561.448 -0.589918 1.93299 0
M  V30 5761 C 561.769 -1.69842 0.958049 0
M  V30 5762 O 561.039 -1.95899 0.00703261 0
M  V30 5763 H 559.619 -0.220901 0.713591 0
M  V30 5764 H 562.281 0.135917 1.94425 0
M  V30 5765 H 561.377 -1.01195 2.95239 0
M  V30 5766 N 561.678 -1.56367 -0.196722 0
M  V30 5767 C 562.906 -1.84639 -0.933608 0
M  V30 5768 C 563.321 -0.659164 -1.76919 0
M  V30 5769 O 562.678 0.372142 -1.78665 0
M  V30 5770 C 562.729 -3.11694 -1.83109 0
M  V30 5771 O 562.45 -4.25838 -1.02924 0
M  V30 5772 C 563.951 -3.53132 -2.67979 0
M  V30 5773 H 561.171 -0.613188 -0.272473 0
M  V30 5774 H 563.715 -2.03475 -0.204465 0
M  V30 5775 H 561.87 -2.94759 -2.51387 0
M  V30 5776 H 562.284 -4.98178 -1.64069 0
M  V30 5777 H 563.758 -4.45005 -3.26611 0
M  V30 5778 H 564.235 -2.76045 -3.41608 0
M  V30 5779 H 564.841 -3.72592 -2.05074 0
M  V30 5780 N 563.156 0.464375 -1.50603 0
M  V30 5781 C 564.404 1.21356 -1.61608 0
M  V30 5782 C 564.725 1.92329 -0.321643 0
M  V30 5783 O 563.995 1.84403 0.661232 0
M  V30 5784 H 562.575 0.45094 -0.595535 0
M  V30 5785 H 565.237 0.535046 -1.87412 0
M  V30 5786 H 564.333 1.95783 -2.43054 0
M  V30 5787 N 564.634 1.40294 0.718013 0
M  V30 5788 C 565.859 1.41941 1.5122 0
M  V30 5789 C 566.284 0.0202371 1.88089 0
M  V30 5790 O 565.642 -0.971078 1.53101 0
M  V30 5791 C 565.69 2.3141 2.76554 0
M  V30 5792 O 564.794 1.75567 3.73162 0
M  V30 5793 H 564.135 0.482644 0.456016 0
M  V30 5794 H 566.665 1.84494 0.884478 0
M  V30 5795 H 566.675 2.46513 3.25108 0
M  V30 5796 H 565.35 3.33085 2.49053 0
M  V30 5797 H 563.927 1.69798 3.31999 0
M  V30 5798 N 566.112 -0.949982 1.2575 0
M  V30 5799 C 567.389 -1.6718 1.01539 0
M  V30 5800 C 567.769 -2.06095 -0.456942 0
M  V30 5801 O 567.117 -1.77792 -1.43534 0
M  V30 5802 C 567.327 -2.8906 1.95564 0
M  V30 5803 C 568.675 -3.60909 2.23673 0
M  V30 5804 O 569.699 -2.9915 1.9336 0
M  V30 5805 O 568.558 -4.72127 2.75243 0
M  V30 5806 H 565.652 -0.731697 0.385419 0
M  V30 5807 H 568.198 -1.00249 1.36924 0
M  V30 5808 H 566.97 -2.57128 2.94959 0
M  V30 5809 H 566.593 -3.63719 1.60605 0
M  V30 5810 N 567.59 -1.07411 -1.15328 0
M  V30 5811 C 568.54 -0.664788 -2.18093 0
M  V30 5812 C 569.524 0.310395 -1.57878 0
M  V30 5813 O 570.716 0.124026 -1.76565 0
M  V30 5814 C 567.845 -0.0647822 -3.43239 0
M  V30 5815 C 566.931 -1.06514 -4.10506 0
M  V30 5816 N 567.322 -2.24491 -4.53252 0
M  V30 5817 C 565.62 -0.898613 -4.36853 0
M  V30 5818 C 566.321 -2.8796 -5.05424 0
M  V30 5819 N 565.297 -2.15622 -4.99007 0
M  V30 5820 H 569.099 -1.56333 -2.48872 0
M  V30 5821 H 566.613 -0.947393 -1.31902 0
M  V30 5822 H 568.61 0.246363 -4.16171 0
M  V30 5823 H 567.27 0.828866 -3.13943 0
M  V30 5824 H 568.281 -2.62205 -4.46619 0
M  V30 5825 H 564.958 -0.0579118 -4.1746 0
M  V30 5826 H 566.348 -3.88137 -5.48452 0
M  V30 5827 N 569.068 1.32177 -0.85831 0
M  V30 5828 C 570.317 1.96392 -0.459689 0
M  V30 5829 C 570.63 1.68659 0.990632 0
M  V30 5830 O 571.836 2.26641 1.49485 0
M  V30 5831 C 570.292 3.51542 -0.7711 0
M  V30 5832 C 569.9 3.8813 -2.2374 0
M  V30 5833 C 571.644 4.2221 -0.44038 0
M  V30 5834 C 569.551 5.36341 -2.49183 0
M  V30 5835 H 568.481 0.735007 -0.168169 0
M  V30 5836 H 571.132 1.50518 -1.0496 0
M  V30 5837 H 569.514 3.95846 -0.11058 0
M  V30 5838 H 570.688 3.54824 -2.94001 0
M  V30 5839 H 569.003 3.30497 -2.533 0
M  V30 5840 H 571.6 5.31234 -0.607855 0
M  V30 5841 H 571.943 4.11683 0.618291 0
M  V30 5842 H 572.476 3.83502 -1.05695 0
M  V30 5843 H 569.215 5.51892 -3.53689 0
M  V30 5844 H 568.735 5.7104 -1.83504 0
M  V30 5845 H 570.414 6.03466 -2.33318 0
M  V30 5846 N 570.547 0.616602 1.45037 0
M  V30 5847 C 571.963 0.280994 1.57107 0
M  V30 5848 C 572.163 -1.21627 1.60653 0
M  V30 5849 O 571.219 -1.9997 1.54169 0
M  V30 5850 C 572.532 0.960116 2.8496 0
M  V30 5851 C 574.08 0.936884 2.98649 0
M  V30 5852 C 574.555 1.59619 4.29285 0
M  V30 5853 N 576.046 1.5621 4.36065 0
M  V30 5854 C 576.781 2.04131 5.35834 0
M  V30 5855 N 576.277 2.60177 6.4209 0
M  V30 5856 N 578.07 1.94845 5.27249 0
M  V30 5857 H 570.221 1.58867 1.40979 0
M  V30 5858 H 572.484 0.666024 0.674623 0
M  V30 5859 H 572.19 2.01473 2.88273 0
M  V30 5860 H 572.064 0.488921 3.74018 0
M  V30 5861 H 574.451 -0.109209 2.94898 0
M  V30 5862 H 574.532 1.44643 2.10979 0
M  V30 5863 H 574.176 2.64166 4.33796 0
M  V30 5864 H 574.106 1.06159 5.15789 0
M  V30 5865 H 576.597 1.15276 3.59889 0
M  V30 5866 H 576.91 2.94513 7.1448 0
M  V30 5867 H 575.255 2.64221 6.42816 0
M  V30 5868 H 578.446 1.50792 4.43147 0
M  V30 5869 H 578.619 2.32504 6.04852 0
M  V30 5870 N 572.025 -1.5352 0.356285 0
M  V30 5871 C 572.935 -2.29151 -0.502712 0
M  V30 5872 C 573.951 -1.34753 -1.1008 0
M  V30 5873 O 575.127 -1.67803 -1.11374 0
M  V30 5874 C 572.192 -3.05911 -1.63154 0
M  V30 5875 C 571.253 -4.15958 -1.06194 0
M  V30 5876 C 570.486 -4.8905 -2.13696 0
M  V30 5877 O 570.709 -4.61919 -3.34645 0
M  V30 5878 O 569.643 -5.75202 -1.77275 0
M  V30 5879 H 573.469 -3.03492 0.112466 0
M  V30 5880 H 571.054 -1.4891 0.120942 0
M  V30 5881 H 572.936 -3.53874 -2.28804 0
M  V30 5882 H 571.611 -2.34415 -2.23229 0
M  V30 5883 H 570.518 -3.7227 -0.369603 0
M  V30 5884 H 571.851 -4.89593 -0.505872 0
M  V30 5885 N 573.503 -0.0852151 -1.57369 0
M  V30 5886 C 574.45 0.877268 -2.13478 0
M  V30 5887 C 575.42 1.28642 -1.05073 0
M  V30 5888 O 576.605 1.36992 -1.32808 0
M  V30 5889 C 573.745 2.13464 -2.71159 0
M  V30 5890 C 572.858 1.77691 -3.93764 0
M  V30 5891 C 571.993 2.98139 -4.39643 0
M  V30 5892 C 571.032 2.58447 -5.54862 0
M  V30 5893 N 570.169 3.71698 -5.95639 0
M  V30 5894 H 575.009 0.391933 -2.95411 0
M  V30 5895 H 572.546 0.181796 -1.45972 0
M  V30 5896 H 574.504 2.87086 -3.02717 0
M  V30 5897 H 573.134 2.59514 -1.91969 0
M  V30 5898 H 572.186 0.940768 -3.68583 0
M  V30 5899 H 573.498 1.44497 -4.77412 0
M  V30 5900 H 572.652 3.80026 -4.72933 0
M  V30 5901 H 571.391 3.34536 -3.54876 0
M  V30 5902 H 570.396 1.74984 -5.21211 0
M  V30 5903 H 571.621 2.23205 -6.41371 0
M  V30 5904 H 569.567 4.07831 -5.13819 0
M  V30 5905 H 569.484 3.42317 -6.74059 0
M  V30 5906 H 570.752 4.54123 -6.33555 0
M  V30 5907 N 574.981 1.5647 0.188427 0
M  V30 5908 C 576.258 1.71857 0.934058 0
M  V30 5909 C 576.638 0.641867 2.01105 0
M  V30 5910 O 575.986 -0.346098 2.25864 0
M  V30 5911 C 576.196 3.14431 1.5144 0
M  V30 5912 C 577.544 3.74869 1.99396 0
M  V30 5913 O 578.568 3.17601 1.61269 0
M  V30 5914 O 577.427 4.75387 2.69573 0
M  V30 5915 H 574.521 0.701186 0.438483 0
M  V30 5916 H 577.067 1.68768 0.177599 0
M  V30 5917 H 575.839 3.8427 0.738416 0
M  V30 5918 H 575.462 3.21775 2.33552 0
M  V30 5919 N 576.459 -0.456382 1.50847 0
M  V30 5920 C 577.707 -1.20497 1.62249 0
M  V30 5921 C 578.028 -1.92156 0.331839 0
M  V30 5922 O 577.298 -1.84751 -0.651443 0
M  V30 5923 H 575.878 -0.447775 0.597918 0
M  V30 5924 H 578.54 -0.525099 1.87693 0
M  V30 5925 H 577.636 -1.94492 2.44089 0
M  V30 5926 N 577.937 -1.40673 -0.710563 0
M  V30 5927 C 578.867 -1.44095 -1.83736 0
M  V30 5928 C 579.848 -0.301286 -1.67411 0
M  V30 5929 O 581.033 -0.510618 -1.87367 0
M  V30 5930 C 578.163 -1.30773 -3.21738 0
M  V30 5931 C 577.117 -2.42395 -3.52745 0
M  V30 5932 C 576.443 -2.14147 -4.89944 0
M  V30 5933 C 577.743 -3.84738 -3.53234 0
M  V30 5934 H 579.437 -2.38396 -1.81129 0
M  V30 5935 H 576.983 -1.14746 -0.870017 0
M  V30 5936 H 578.936 -1.31783 -4.00264 0
M  V30 5937 H 577.66 -0.329507 -3.24934 0
M  V30 5938 H 576.319 -2.40643 -2.76562 0
M  V30 5939 H 575.967 -1.14703 -4.89747 0
M  V30 5940 H 575.667 -2.88934 -5.11655 0
M  V30 5941 H 577.191 -2.16848 -5.70797 0
M  V30 5942 H 578.605 -3.88286 -4.2179 0
M  V30 5943 H 577.002 -4.59085 -3.86473 0
M  V30 5944 H 578.072 -4.13962 -2.52514 0
M  V30 5945 N 579.415 0.9433 -1.26252 0
M  V30 5946 C 580.661 1.69226 -1.12846 0
M  V30 5947 C 581.016 1.8963 0.325282 0
M  V30 5948 O 580.309 1.46435 1.23561 0
M  V30 5949 C 580.503 3.07073 -1.82868 0
M  V30 5950 C 580.332 3.00118 -3.34902 0
M  V30 5951 C 579.102 3.03251 -4.04186 0
M  V30 5952 C 581.3 2.80418 -4.31127 0
M  V30 5953 N 579.282 2.86573 -5.42908 0
M  V30 5954 C 580.653 2.72287 -5.5701 0
M  V30 5955 C 582.708 2.65185 -4.21404 0
M  V30 5956 C 581.411 2.50479 -6.74279 0
M  V30 5957 C 583.437 2.4475 -5.38378 0
M  V30 5958 C 582.799 2.37349 -6.63208 0
M  V30 5959 H 578.898 0.626716 -0.467708 0
M  V30 5960 H 581.482 1.11645 -1.5951 0
M  V30 5961 H 579.653 3.62797 -1.38682 0
M  V30 5962 H 581.385 3.70816 -1.62103 0
M  V30 5963 H 578.14 3.12882 -3.55531 0
M  V30 5964 H 578.564 2.81408 -6.15742 0
M  V30 5965 H 583.206 2.69675 -3.25631 0
M  V30 5966 H 580.924 2.4473 -7.70151 0
M  V30 5967 H 584.51 2.33872 -5.32724 0
M  V30 5968 H 583.39 2.21746 -7.52196 0
M  V30 5969 N 580.893 1.08022 1.14757 0
M  V30 5970 C 581.856 0.71048 2.1791 0
M  V30 5971 C 582.856 -0.252731 1.58801 0
M  V30 5972 O 584.046 -0.0327915 1.74169 0
M  V30 5973 C 581.178 0.0483203 3.40866 0
M  V30 5974 H 582.371 1.62384 2.52134 0
M  V30 5975 H 579.924 0.877595 1.29337 0
M  V30 5976 H 580.659 -0.876959 3.12218 0
M  V30 5977 H 580.444 0.741189 3.85031 0
M  V30 5978 H 581.934 -0.195471 4.17142 0
M  V30 5979 N 582.371 -1.3172 0.865308 0
M  V30 5980 C 583.617 -1.97168 0.474633 0
M  V30 5981 C 583.95 -1.68263 -0.969604 0
M  V30 5982 O 583.225 -0.976588 -1.68205 0
M  V30 5983 C 583.508 -3.52689 0.726808 0
M  V30 5984 C 583.361 -3.91185 2.22024 0
M  V30 5985 C 584.68 -4.39689 0.190201 0
M  V30 5986 H 581.799 -0.716185 0.17392 0
M  V30 5987 H 584.441 -1.55925 1.08569 0
M  V30 5988 H 582.591 -3.8795 0.206705 0
M  V30 5989 H 584.263 -3.66049 2.80724 0
M  V30 5990 H 582.506 -3.3996 2.69462 0
M  V30 5991 H 583.177 -4.99604 2.34735 0
M  V30 5992 H 585.653 -4.11225 0.635103 0
M  V30 5993 H 584.529 -5.47469 0.396132 0
M  V30 5994 H 584.79 -4.32683 -0.907625 0
M  V30 5995 N 583.85 -0.624285 -1.44708 0
M  V30 5996 C 584.779 0.0717025 -2.3339 0
M  V30 5997 C 585.76 0.841814 -1.47809 0
M  V30 5998 O 586.946 0.809056 -1.76544 0
M  V30 5999 C 584.076 1.05852 -3.30776 0
M  V30 6000 C 583.029 0.400503 -4.26122 0
M  V30 6001 C 582.356 1.49674 -5.13324 0
M  V30 6002 C 583.656 -0.688924 -5.17737 0
M  V30 6003 H 585.35 -0.668819 -2.91834 0
M  V30 6004 H 582.896 -0.32308 -1.40329 0
M  V30 6005 H 584.849 1.5541 -3.91696 0
M  V30 6006 H 583.572 1.82984 -2.70526 0
M  V30 6007 H 582.231 -0.0743687 -3.66525 0
M  V30 6008 H 581.88 2.25877 -4.49431 0
M  V30 6009 H 581.58 1.06188 -5.77926 0
M  V30 6010 H 583.104 1.99427 -5.77115 0
M  V30 6011 H 584.518 -0.276724 -5.72632 0
M  V30 6012 H 582.915 -1.04652 -5.90904 0
M  V30 6013 H 583.985 -1.55884 -4.5916 0
M  V30 6014 N 585.328 1.53329 -0.364422 0
M  V30 6015 C 586.291 2.24323 0.470292 0
M  V30 6016 C 587.291 1.25068 1.01067 0
M  V30 6017 O 588.481 1.49354 0.896605 0
M  V30 6018 C 585.613 2.97908 1.65722 0
M  V30 6019 H 586.806 2.9952 -0.150917 0
M  V30 6020 H 584.359 1.55868 -0.116092 0
M  V30 6021 H 585.094 2.2695 2.31655 0
M  V30 6022 H 584.879 3.70732 1.27671 0
M  V30 6023 H 586.369 3.5188 2.24878 0
M  V30 6024 N 586.806 0.0935595 1.57322 0
M  V30 6025 C 588.052 -0.565234 1.95388 0
M  V30 6026 C 588.407 -1.65888 0.974632 0
M  V30 6027 O 587.7 -1.916 0.000376385 0
M  V30 6028 C 587.894 -1.16692 3.37813 0
M  V30 6029 C 587.723 -0.133091 4.49503 0
M  V30 6030 C 586.493 0.289884 5.04468 0
M  V30 6031 C 588.691 0.638141 5.10326 0
M  V30 6032 N 586.673 1.31214 5.99713 0
M  V30 6033 C 588.044 1.51227 6.01274 0
M  V30 6034 C 590.099 0.691827 4.9307 0
M  V30 6035 C 588.802 2.43536 6.76818 0
M  V30 6036 C 590.828 1.60251 5.69274 0
M  V30 6037 C 590.19 2.46427 6.59889 0
M  V30 6038 H 586.289 -0.177212 0.761656 0
M  V30 6039 H 588.873 0.175769 1.93905 0
M  V30 6040 H 587.044 -1.87775 3.39993 0
M  V30 6041 H 588.776 -1.78795 3.63063 0
M  V30 6042 H 585.531 -0.0975541 4.735 0
M  V30 6043 H 585.955 1.82143 6.52038 0
M  V30 6044 H 590.597 0.0397431 4.22781 0
M  V30 6045 H 588.315 3.0977 7.4637 0
M  V30 6046 H 591.901 1.64917 5.57937 0
M  V30 6047 H 590.781 3.15751 7.17824 0
M  V30 6048 N 588.284 -1.56567 -0.180126 0
M  V30 6049 C 589.214 -1.98753 -1.22553 0
M  V30 6050 C 590.195 -0.86175 -1.46656 0
M  V30 6051 O 591.38 -1.12719 -1.58139 0
M  V30 6052 C 588.51 -2.33988 -2.56645 0
M  V30 6053 C 587.464 -3.49445 -2.47128 0
M  V30 6054 C 586.79 -3.70397 -3.8563 0
M  V30 6055 C 588.09 -4.83171 -1.98352 0
M  V30 6056 H 589.784 -2.86332 -0.874896 0
M  V30 6057 H 587.33 -1.37757 -0.419414 0
M  V30 6058 H 589.283 -2.62097 -3.29974 0
M  V30 6059 H 588.007 -1.43309 -2.93479 0
M  V30 6060 H 586.666 -3.2145 -1.76254 0
M  V30 6061 H 586.314 -2.77023 -4.19842 0
M  V30 6062 H 586.014 -4.48077 -3.80132 0
M  V30 6063 H 587.538 -4.00897 -4.60558 0
M  V30 6064 H 588.952 -5.10213 -2.61449 0
M  V30 6065 H 587.349 -5.64425 -2.03823 0
M  V30 6066 H 588.419 -4.75753 -0.937402 0
M  V30 6067 N 589.762 0.448376 -1.51087 0
M  V30 6068 C 590.987 1.22605 -1.6728 0
M  V30 6069 C 591.412 1.84524 -0.365045 0
M  V30 6070 O 590.77 1.6832 0.673642 0
M  V30 6071 C 590.818 2.29393 -2.78229 0
M  V30 6072 O 589.922 3.34608 -2.41063 0
M  V30 6073 H 589.263 0.359705 -0.558129 0
M  V30 6074 H 591.793 0.530903 -1.97592 0
M  V30 6075 H 591.803 2.74352 -3.01986 0
M  V30 6076 H 590.478 1.83701 -3.73131 0
M  V30 6077 H 589.055 2.95202 -2.27838 0
M  V30 6078 N 591.24 1.41047 0.703093 0
M  V30 6079 C 592.489 1.39301 1.4587 0
M  V30 6080 C 592.802 0.00267077 1.956 0
M  V30 6081 O 594.008 -0.137414 2.71152 0
M  V30 6082 C 592.464 2.44891 2.63735 0
M  V30 6083 C 592.072 3.89796 2.20824 0
M  V30 6084 C 593.816 2.5227 3.41409 0
M  V30 6085 C 591.723 4.86955 3.35602 0
M  V30 6086 H 590.653 0.518005 0.547893 0
M  V30 6087 H 593.304 1.66839 0.764009 0
M  V30 6088 H 591.686 2.10472 3.35436 0
M  V30 6089 H 592.86 4.33424 1.56461 0
M  V30 6090 H 591.175 3.86008 1.56163 0
M  V30 6091 H 593.772 3.22044 4.26839 0
M  V30 6092 H 594.115 1.55714 3.86081 0
M  V30 6093 H 594.648 2.85742 2.7676 0
M  V30 6094 H 591.387 5.84888 2.9595 0
M  V30 6095 H 590.907 4.47982 3.98839 0
M  V30 6096 H 592.586 5.07361 4.01489 0
M  V30 6097 N 592.718 -0.936591 1.26751 0
M  V30 6098 C 593.648 -2.05315 1.11212 0
M  V30 6099 C 594.629 -1.70092 0.0160262 0
M  V30 6100 O 595.814 -1.93279 0.188894 0
M  V30 6101 C 592.944 -3.39123 0.749171 0
M  V30 6102 C 591.898 -3.88425 1.79751 0
M  V30 6103 C 591.224 -5.18936 1.28876 0
M  V30 6104 C 592.524 -4.12798 3.19992 0
M  V30 6105 H 594.218 -2.18573 2.04613 0
M  V30 6106 H 591.764 -1.05027 0.985159 0
M  V30 6107 H 593.717 -4.16704 0.627323 0
M  V30 6108 H 592.441 -3.25855 -0.220543 0
M  V30 6109 H 591.1 -3.13028 1.90811 0
M  V30 6110 H 590.748 -5.02051 0.308757 0
M  V30 6111 H 590.448 -5.52892 1.98958 0
M  V30 6112 H 591.972 -5.99096 1.17967 0
M  V30 6113 H 593.386 -4.80977 3.11983 0
M  V30 6114 H 591.783 -4.58044 3.87705 0
M  V30 6115 H 592.853 -3.18412 3.65707 0
M  V30 6116 N 594.196 -1.08629 -1.14182 0
M  V30 6117 C 595.159 -0.722027 -2.1753 0
M  V30 6118 C 596.159 0.244305 -1.58933 0
M  V30 6119 O 597.349 0.0235545 -1.74184 0
M  V30 6120 C 594.481 -0.0663966 -3.40835 0
M  V30 6121 H 595.674 -1.63719 -2.51269 0
M  V30 6122 H 593.227 -0.884442 -1.28869 0
M  V30 6123 H 593.962 0.860389 -3.12678 0
M  V30 6124 H 593.747 -0.761598 -3.84632 0
M  V30 6125 H 595.237 0.173346 -4.1724 0
M  V30 6126 N 595.674 1.31259 -0.872281 0
M  V30 6127 C 596.902 2.00795 -0.498907 0
M  V30 6128 C 597.317 1.65464 0.909238 0
M  V30 6129 O 596.674 0.885073 1.59602 0
M  V30 6130 C 596.725 3.55625 -0.649092 0
M  V30 6131 O 596.446 3.89692 -2.00179 0
M  V30 6132 C 597.947 4.42434 -0.277034 0
M  V30 6133 H 595.167 0.642299 -0.194145 0
M  V30 6134 H 597.711 1.67438 -1.17408 0
M  V30 6135 H 595.866 3.87394 -0.0214402 0
M  V30 6136 H 596.28 4.84407 -2.01122 0
M  V30 6137 H 597.754 5.50299 -0.433064 0
M  V30 6138 H 598.231 4.32146 0.783989 0
M  V30 6139 H 598.837 4.16086 -0.880483 0
M  V30 6140 N 597.152 0.631951 1.44375 0
M  V30 6141 C 598.568 0.297642 1.568 0
M  V30 6142 C 598.768 -1.19916 1.61934 0
M  V30 6143 O 597.824 -1.98324 1.56281 0
M  V30 6144 C 599.137 0.990286 2.83926 0
M  V30 6145 C 600.685 0.968507 2.97639 0
M  V30 6146 C 601.16 1.64163 4.27568 0
M  V30 6147 N 602.651 1.60826 4.34384 0
M  V30 6148 C 603.386 2.09802 5.33639 0
M  V30 6149 N 602.882 2.66973 6.39294 0
M  V30 6150 N 604.675 2.00426 5.25153 0
M  V30 6151 H 596.826 1.60353 1.39286 0
M  V30 6152 H 599.089 0.673142 0.667521 0
M  V30 6153 H 598.795 2.04519 2.8612 0
M  V30 6154 H 598.669 0.528563 3.73478 0
M  V30 6155 H 601.056 -0.0779247 2.94997 0
M  V30 6156 H 601.137 1.46873 2.09433 0
M  V30 6157 H 600.781 2.68752 4.3097 0
M  V30 6158 H 600.711 1.11624 5.14634 0
M  V30 6159 H 603.202 1.19087 3.58646 0
M  V30 6160 H 603.515 3.02074 7.11316 0
M  V30 6161 H 601.86 2.71024 6.39977 0
M  V30 6162 H 605.051 1.55483 4.41523 0
M  V30 6163 H 605.224 2.38906 6.02352 0
M  V30 6164 N 598.631 -1.53133 0.372548 0
M  V30 6165 C 599.578 -2.25951 -0.470631 0
M  V30 6166 C 600.548 -1.26895 -1.07176 0
M  V30 6167 O 601.733 -1.55691 -1.10294 0
M  V30 6168 C 598.873 -3.05726 -1.6008 0
M  V30 6169 C 597.986 -4.19684 -1.02416 0
M  V30 6170 C 597.121 -4.86888 -2.124 0
M  V30 6171 C 596.16 -5.92866 -1.52238 0
M  V30 6172 N 595.297 -6.53732 -2.56084 0
M  V30 6173 H 600.137 -2.97587 0.156816 0
M  V30 6174 H 597.674 -1.4683 0.0891571 0
M  V30 6175 H 599.632 -3.50258 -2.26661 0
M  V30 6176 H 598.262 -2.36331 -2.1988 0
M  V30 6177 H 597.314 -3.79588 -0.248426 0
M  V30 6178 H 598.626 -4.95821 -0.544366 0
M  V30 6179 H 597.78 -5.34638 -2.86787 0
M  V30 6180 H 596.519 -4.10239 -2.63734 0
M  V30 6181 H 595.524 -5.4447 -0.763685 0
M  V30 6182 H 596.749 -6.71439 -1.0172 0
M  V30 6183 H 594.695 -5.79932 -3.06618 0
M  V30 6184 H 594.612 -7.25429 -2.12811 0
M  V30 6185 H 595.88 -7.0613 -3.30152 0
M  V30 6186 N 600.109 -0.101901 -1.5727 0
M  V30 6187 C 601.041 0.884723 -2.11436 0
M  V30 6188 C 602.054 1.24149 -1.05314 0
M  V30 6189 O 603.243 1.19341 -1.3274 0
M  V30 6190 C 600.343 2.19179 -2.58484 0
M  V30 6191 C 599.516 2.00933 -3.88516 0
M  V30 6192 C 598.575 3.15213 -4.2134 0
M  V30 6193 O 597.601 2.88877 -4.90448 0
M  V30 6194 N 598.803 4.41174 -3.77288 0
M  V30 6195 H 601.568 0.422058 -2.96713 0
M  V30 6196 H 599.129 0.0830128 -1.61687 0
M  V30 6197 H 601.121 2.94593 -2.77484 0
M  V30 6198 H 599.691 2.56847 -1.7818 0
M  V30 6199 H 598.911 1.09809 -3.78597 0
M  V30 6200 H 600.199 1.86026 -4.73573 0
M  V30 6201 H 599.597 4.6545 -3.21516 0
M  V30 6202 H 598.154 5.13515 -4.01429 0
M  V30 6203 N 601.587 1.56661 0.17182 0
M  V30 6204 C 602.812 1.86459 0.908165 0
M  V30 6205 C 603.237 0.688181 1.75059 0
M  V30 6206 O 602.595 -0.362753 1.77634 0
M  V30 6207 C 602.643 3.14669 1.76112 0
M  V30 6208 O 601.747 2.96858 2.86268 0
M  V30 6209 H 601.088 0.613318 0.254434 0
M  V30 6210 H 603.618 2.03892 0.170113 0
M  V30 6211 H 603.628 3.46061 2.16115 0
M  V30 6212 H 602.303 3.99905 1.14233 0
M  V30 6213 H 600.88 2.76819 2.49852 0
M  V30 6214 N 603.065 -0.440357 1.51323 0
M  V30 6215 C 604.311 -1.19181 1.64085 0
M  V30 6216 C 604.644 -1.90936 0.354575 0
M  V30 6217 O 603.919 -1.8347 -0.645675 0
M  V30 6218 C 604.202 -2.2112 2.84215 0
M  V30 6219 C 604.055 -1.53468 4.22809 0
M  V30 6220 C 605.374 -3.22133 2.99864 0
M  V30 6221 H 602.493 -0.431924 0.597169 0
M  V30 6222 H 605.135 -0.481443 1.83799 0
M  V30 6223 H 603.285 -2.81703 2.67537 0
M  V30 6224 H 604.957 -0.962455 4.51148 0
M  V30 6225 H 603.2 -0.837086 4.25647 0
M  V30 6226 H 603.871 -2.27694 5.02852 0
M  V30 6227 H 606.347 -2.71601 3.15233 0
M  V30 6228 H 605.223 -3.90756 3.85488 0
M  V30 6229 H 605.484 -3.88061 2.11804 0
M  V30 6230 N 604.543 -1.41418 -0.695603 0
M  V30 6231 C 605.453 -1.45622 -1.83933 0
M  V30 6232 C 606.469 -0.346825 -1.70508 0
M  V30 6233 O 607.645 -0.59454 -1.92424 0
M  V30 6234 C 604.71 -1.33627 -3.19914 0
M  V30 6235 C 603.771 -2.54882 -3.45447 0
M  V30 6236 C 603.004 -2.43449 -4.7494 0
M  V30 6237 O 603.227 -1.45905 -5.51424 0
M  V30 6238 O 602.161 -3.33206 -5.01256 0
M  V30 6239 H 605.987 -2.42114 -1.83342 0
M  V30 6240 H 603.572 -1.22956 -0.848658 0
M  V30 6241 H 605.454 -1.29221 -4.01098 0
M  V30 6242 H 604.129 -0.402508 -3.21188 0
M  V30 6243 H 603.036 -2.64865 -2.64192 0
M  V30 6244 H 604.369 -3.47087 -3.48987 0
M  V30 6245 N 606.021 0.929856 -1.27246 0
M  V30 6246 C 607.298 1.65544 -1.04186 0
M  V30 6247 C 607.678 2.06796 0.424097 0
M  V30 6248 O 607.026 1.80053 1.40688 0
M  V30 6249 C 607.236 2.85912 -2.00138 0
M  V30 6250 C 608.584 3.57305 -2.29387 0
M  V30 6251 O 609.608 2.96036 -1.98094 0
M  V30 6252 O 608.467 4.67688 -2.82719 0
M  V30 6253 H 605.561 0.725473 -0.397011 0
M  V30 6254 H 608.107 0.980583 -1.38501 0
M  V30 6255 H 606.879 2.52403 -2.99013 0
M  V30 6256 H 606.502 3.61118 -1.66371 0
M  V30 6257 N 607.499 1.09233 1.13605 0
M  V30 6258 C 608.748 0.82205 1.84188 0
M  V30 6259 C 609.061 -0.654548 1.84323 0
M  V30 6260 O 610.267 -1.04029 2.50779 0
M  V30 6261 C 608.723 1.42066 3.30674 0
M  V30 6262 C 608.331 2.92965 3.38933 0
M  V30 6263 C 610.075 1.22924 4.06313 0
M  V30 6264 C 607.982 3.45922 4.79679 0
M  V30 6265 H 606.912 0.303854 0.690064 0
M  V30 6266 H 609.563 1.31479 1.28006 0
M  V30 6267 H 607.945 0.855613 3.86646 0
M  V30 6268 H 609.119 3.55679 2.92966 0
M  V30 6269 H 607.434 3.11118 2.76757 0
M  V30 6270 H 610.031 1.59945 5.10217 0
M  V30 6271 H 610.374 0.169726 4.15954 0
M  V30 6272 H 610.907 1.76168 3.56665 0
M  V30 6273 H 607.646 4.51484 4.75229 0
M  V30 6274 H 607.166 2.87971 5.26149 0
M  V30 6275 H 608.845 3.43009 5.48592 0
M  V30 6276 N 608.977 -1.30795 0.87923 0
M  V30 6277 C 609.907 -2.30742 0.357796 0
M  V30 6278 C 610.888 -1.60747 -0.556283 0
M  V30 6279 O 612.073 -1.88393 -0.47135 0
M  V30 6280 C 609.203 -3.44583 -0.433555 0
M  V30 6281 C 608.157 -4.26235 0.388251 0
M  V30 6282 C 607.483 -5.32073 -0.529352 0
M  V30 6283 C 608.783 -4.96303 1.62729 0
M  V30 6284 H 610.477 -2.74605 1.19299 0
M  V30 6285 H 608.023 -1.32017 0.575104 0
M  V30 6286 H 609.976 -4.13563 -0.808934 0
M  V30 6287 H 608.7 -2.99511 -1.30234 0
M  V30 6288 H 607.359 -3.58936 0.745695 0
M  V30 6289 H 607.007 -4.83249 -1.39569 0
M  V30 6290 H 606.707 -5.87598 0.0166741 0
M  V30 6291 H 608.231 -6.0391 -0.901373 0
M  V30 6292 H 609.645 -5.5783 1.32283 0
M  V30 6293 H 608.042 -5.61666 2.11309 0
M  V30 6294 H 609.112 -4.22758 2.37494 0
M  V30 6295 N 610.455 -0.639598 -1.44038 0
M  V30 6296 C 611.402 0.0602458 -2.30721 0
M  V30 6297 C 612.372 0.828352 -1.43971 0
M  V30 6298 O 613.557 0.807693 -1.72861 0
M  V30 6299 C 610.697 1.03008 -3.29368 0
M  V30 6300 C 609.81 0.259502 -4.3122 0
M  V30 6301 C 608.945 1.22191 -5.16955 0
M  V30 6302 C 607.984 0.440978 -6.10509 0
M  V30 6303 N 607.121 1.35428 -6.88915 0
M  V30 6304 H 611.961 -0.684867 -2.90023 0
M  V30 6305 H 609.498 -0.349509 -1.42888 0
M  V30 6306 H 611.456 1.60583 -3.85057 0
M  V30 6307 H 610.086 1.74222 -2.71747 0
M  V30 6308 H 609.138 -0.432317 -3.77935 0
M  V30 6309 H 610.45 -0.348347 -4.97582 0
M  V30 6310 H 609.604 1.86873 -5.77203 0
M  V30 6311 H 608.343 1.86367 -4.50687 0
M  V30 6312 H 607.348 -0.219279 -5.49363 0
M  V30 6313 H 608.573 -0.196192 -6.78817 0
M  V30 6314 H 606.519 1.9831 -6.25307 0
M  V30 6315 H 606.436 0.800657 -7.51748 0
M  V30 6316 H 607.704 1.98967 -7.53679 0
M  V30 6317 N 611.933 1.52934 -0.380664 0
M  V30 6318 C 613.21 1.93845 0.261417 0
M  V30 6319 C 613.59 1.31544 1.65104 0
M  V30 6320 O 612.938 0.480234 2.23397 0
M  V30 6321 C 613.148 3.47739 0.296466 0
M  V30 6322 C 614.496 4.21284 0.529578 0
M  V30 6323 O 615.52 3.54199 0.377041 0
M  V30 6324 O 614.379 5.40195 0.827753 0
M  V30 6325 H 611.473 0.811318 0.160285 0
M  V30 6326 H 614.019 1.64042 -0.434544 0
M  V30 6327 H 612.791 3.85395 -0.67724 0
M  V30 6328 H 612.414 3.8382 1.0377 0
M  V30 6329 N 613.412 0.11024 1.57214 0
M  V30 6330 C 614.362 -0.854147 2.11396 0
M  V30 6331 C 615.346 -1.23394 1.03261 0
M  V30 6332 O 616.538 -1.20649 1.2951 0
M  V30 6333 C 613.667 -2.10752 2.70995 0
M  V30 6334 C 612.753 -1.75249 3.86198 0
M  V30 6335 N 613.144 -1.10377 4.9361 0
M  V30 6336 C 611.442 -2.04763 3.96217 0
M  V30 6337 C 612.143 -0.938199 5.74084 0
M  V30 6338 N 611.119 -1.46039 5.23616 0
M  V30 6339 H 614.921 -0.348897 2.91822 0
M  V30 6340 H 612.435 -0.0925071 1.62136 0
M  V30 6341 H 614.432 -2.80801 3.0815 0
M  V30 6342 H 613.092 -2.61829 1.9203 0
M  V30 6343 H 614.103 -0.768785 5.12162 0
M  V30 6344 H 610.78 -2.57948 3.28282 0
M  V30 6345 H 612.17 -0.429678 6.70525 0
M  V30 6346 N 614.89 -1.56749 -0.16351 0
M  V30 6347 C 616.136 -1.83597 -0.875436 0
M  V30 6348 C 616.491 -0.691907 -1.79528 0
M  V30 6349 O 615.784 0.311193 -1.89056 0
M  V30 6350 C 615.978 -3.14342 -1.70071 0
M  V30 6351 C 615.807 -4.41356 -0.862265 0
M  V30 6352 C 614.577 -5.02467 -0.534299 0
M  V30 6353 C 616.775 -5.1391 -0.200203 0
M  V30 6354 N 614.757 -6.13068 0.31947 0
M  V30 6355 C 616.128 -6.17862 0.514398 0
M  V30 6356 C 618.183 -4.97757 -0.119171 0
M  V30 6357 C 616.886 -7.07412 1.30236 0
M  V30 6358 C 618.912 -5.87756 0.655477 0
M  V30 6359 C 618.274 -6.91178 1.35842 0
M  V30 6360 H 614.373 -0.722702 -0.298708 0
M  V30 6361 H 616.957 -1.94182 -0.141883 0
M  V30 6362 H 615.128 -3.04933 -2.40562 0
M  V30 6363 H 616.86 -3.29156 -2.35453 0
M  V30 6364 H 613.615 -4.65611 -0.866222 0
M  V30 6365 H 614.039 -6.72978 0.736893 0
M  V30 6366 H 618.681 -4.178 -0.648278 0
M  V30 6367 H 616.399 -7.86808 1.84278 0
M  V30 6368 H 619.985 -5.77328 0.719948 0
M  V30 6369 H 618.865 -7.59614 1.94822 0
M  V30 6370 N 616.368 0.432326 -1.51554 0
M  V30 6371 C 617.3 1.54357 -1.6943 0
M  V30 6372 C 618.313 1.52311 -0.574897 0
M  V30 6373 O 619.502 1.56997 -0.849369 0
M  V30 6374 C 616.602 2.93273 -1.69836 0
M  V30 6375 C 615.775 3.19768 -2.98442 0
M  V30 6376 C 614.834 4.38433 -2.90969 0
M  V30 6377 O 613.86 4.36842 -3.64908 0
M  V30 6378 N 615.062 5.42276 -2.07163 0
M  V30 6379 H 617.827 1.39426 -2.65293 0
M  V30 6380 H 615.388 0.621331 -1.49503 0
M  V30 6381 H 617.38 3.70687 -1.62399 0
M  V30 6382 H 615.95 3.01777 -0.815456 0
M  V30 6383 H 615.17 2.30607 -3.19709 0
M  V30 6384 H 616.458 3.343 -3.83563 0
M  V30 6385 H 615.856 5.46407 -1.46477 0
M  V30 6386 H 614.413 6.18524 -2.05601 0
M  V30 6387 N 617.846 1.41785 0.688094 0
M  V30 6388 C 618.793 1.44221 1.80191 0
M  V30 6389 C 619.763 0.295688 1.63447 0
M  V30 6390 O 620.948 0.49783 1.84191 0
M  V30 6391 C 618.088 1.33743 3.1813 0
M  V30 6392 C 617.201 2.58325 3.46254 0
M  V30 6393 C 616.336 2.40086 4.73848 0
M  V30 6394 C 615.375 3.60107 4.94964 0
M  V30 6395 N 614.512 3.40892 6.13789 0
M  V30 6396 H 619.352 2.39411 1.77444 0
M  V30 6397 H 616.889 1.18876 0.866423 0
M  V30 6398 H 618.847 1.25669 3.97823 0
M  V30 6399 H 617.477 0.42157 3.20035 0
M  V30 6400 H 616.529 2.7682 2.60912 0
M  V30 6401 H 617.841 3.4758 3.57756 0
M  V30 6402 H 616.995 2.29522 5.61609 0
M  V30 6403 H 615.734 1.483 4.64606 0
M  V30 6404 H 614.739 3.71118 4.05649 0
M  V30 6405 H 615.964 4.52857 5.06061 0
M  V30 6406 H 613.91 2.51812 6.05745 0
M  V30 6407 H 613.827 4.23727 6.26092 0
M  V30 6408 H 615.095 3.34114 7.04264 0
M  V30 6409 N 619.324 -0.923095 1.27737 0
M  V30 6410 C 620.554 -1.70277 1.17001 0
M  V30 6411 C 620.962 -1.87188 -0.275199 0
M  V30 6412 O 620.305 -1.39195 -1.19877 0
M  V30 6413 C 620.367 -3.11976 1.78637 0
M  V30 6414 C 620.031 -3.18386 3.27841 0
M  V30 6415 C 621.028 -3.00287 4.2441 0
M  V30 6416 C 618.713 -3.41198 3.68632 0
M  V30 6417 C 620.707 -3.04896 5.59747 0
M  V30 6418 C 618.394 -3.4544 5.04097 0
M  V30 6419 C 619.392 -3.27309 5.99465 0
M  V30 6420 O 619.08 -3.31295 7.32461 0
M  V30 6421 H 618.812 -0.539366 0.407505 0
M  V30 6422 H 621.366 -1.16446 1.69202 0
M  V30 6423 H 619.596 -3.67308 1.20919 0
M  V30 6424 H 621.285 -3.7193 1.6255 0
M  V30 6425 H 622.051 -2.825 3.94232 0
M  V30 6426 H 617.93 -3.54359 2.94873 0
M  V30 6427 H 621.474 -2.90662 6.34162 0
M  V30 6428 H 617.371 -3.62753 5.33929 0
M  V30 6429 H 618.139 -3.47719 7.40968 0
M  V30 6430 N 620.802 -1.09834 -1.13024 0
M  V30 6431 C 622.05 -0.835297 -1.8403 0
M  V30 6432 C 622.371 0.640944 -1.84165 0
M  V30 6433 O 621.641 1.46517 -1.30037 0
M  V30 6434 H 620.221 -0.306018 -0.681441 0
M  V30 6435 H 622.883 -1.38734 -1.36891 0
M  V30 6436 H 621.979 -1.19258 -2.88416 0
M  V30 6437 N 622.28 1.30327 -0.886154 0
M  V30 6438 C 623.696 1.48676 -0.580323 0
M  V30 6439 C 623.896 1.81189 0.881639 0
M  V30 6440 O 622.952 1.90021 1.66278 0
M  V30 6441 C 624.265 2.60932 -1.49449 0
M  V30 6442 C 625.813 2.74812 -1.49824 0
M  V30 6443 C 626.288 3.90183 -2.39836 0
M  V30 6444 N 627.779 3.97495 -2.37806 0
M  V30 6445 C 628.514 4.86078 -3.04165 0
M  V30 6446 N 628.01 5.79448 -3.79753 0
M  V30 6447 N 629.803 4.79456 -2.93391 0
M  V30 6448 H 621.954 1.07495 -1.8319 0
M  V30 6449 H 624.217 0.532661 -0.784204 0
M  V30 6450 H 623.923 2.43731 -2.5355 0
M  V30 6451 H 623.797 3.57437 -1.20494 0
M  V30 6452 H 626.184 2.91418 -0.464731 0
M  V30 6453 H 626.265 1.78924 -1.82811 0
M  V30 6454 H 625.909 3.74334 -3.43273 0
M  V30 6455 H 625.839 4.85411 -2.04166 0
M  V30 6456 H 628.33 3.30703 -1.82877 0
M  V30 6457 H 628.643 6.43805 -4.27475 0
M  V30 6458 H 626.988 5.79376 -3.8386 0
M  V30 6459 H 630.179 4.05494 -2.33864 0
M  V30 6460 H 630.352 5.48283 -3.45383 0
M  V30 6461 N 623.758 0.647228 1.43697 0
M  V30 6462 C 624.706 -0.0600105 2.32523 0
M  V30 6463 C 625.7 -0.819277 1.48271 0
M  V30 6464 O 626.906 -0.730356 1.64517 0
M  V30 6465 H 623.281 -0.0381872 0.75103 0
M  V30 6466 H 625.252 0.706978 2.89904 0
M  V30 6467 C 624.001 -1.0169 3.32497 0
M  V30 6468 H 623.324 -0.442083 3.97348 0
M  V30 6469 H 624.764 -1.48095 3.97296 0
M  V30 6470 C 623.223 -2.11002 2.6264 0
M  V30 6471 O 623.753 -3.19302 2.4374 0
M  V30 6472 N 621.959 -1.87388 2.22113 0
M  V30 6473 H 621.506 -0.993174 2.37684 0
M  V30 6474 H 621.464 -2.60723 1.75701 0
M  V30 6475 N 625.236 -1.5273 0.388769 0
M  V30 6476 C 626.483 -2.01573 -0.19359 0
M  V30 6477 C 626.811 -1.27525 -1.46859 0
M  V30 6478 O 626.066 -0.363926 -1.92286 0
M  V30 6479 C 626.365 -3.53765 -0.508445 0
M  V30 6480 C 626.031 -4.4582 0.674947 0
M  V30 6481 C 624.693 -4.70703 0.999596 0
M  V30 6482 C 627.045 -5.00138 1.46666 0
M  V30 6483 C 624.373 -5.47155 2.11751 0
M  V30 6484 C 626.725 -5.77812 2.57518 0
M  V30 6485 C 625.389 -6.00975 2.90492 0
M  V30 6486 H 624.659 -0.737606 -0.0708397 0
M  V30 6487 H 627.306 -1.84134 0.526006 0
M  V30 6488 H 625.611 -3.69274 -1.30936 0
M  V30 6489 H 627.308 -3.8905 -0.971664 0
M  V30 6490 H 623.898 -4.26616 0.411906 0
M  V30 6491 H 628.082 -4.8084 1.22909 0
M  V30 6492 H 623.338 -5.63314 2.3767 0
M  V30 6493 H 627.512 -6.18904 3.19267 0
M  V30 6494 H 625.139 -6.59998 3.77236 0
M  V30 6495 N 626.714 -0.118576 -1.57153 0
M  V30 6496 C 627.961 0.539526 -1.9518 0
M  V30 6497 C 628.289 1.66714 -1.00184 0
M  V30 6498 O 627.544 1.95683 -0.0256482 0
M  V30 6499 C 627.843 1.11303 -3.39627 0
M  V30 6500 C 627.509 0.106809 -4.50773 0
M  V30 6501 C 626.171 -0.169876 -4.809 0
M  V30 6502 C 628.523 -0.57895 -5.17975 0
M  V30 6503 C 625.851 -1.13861 -5.75545 0
M  V30 6504 C 628.203 -1.53631 -6.13661 0
M  V30 6505 C 626.867 -1.82099 -6.42181 0
M  V30 6506 H 626.137 0.197427 -0.714215 0
M  V30 6507 H 628.784 -0.199391 -1.90459 0
M  V30 6508 H 627.089 1.92869 -3.4104 0
M  V30 6509 H 628.786 1.63032 -3.66363 0
M  V30 6510 H 625.376 0.332645 -4.27307 0
M  V30 6511 H 629.56 -0.378359 -4.94856 0
M  V30 6512 H 624.816 -1.36592 -5.95947 0
M  V30 6513 H 628.99 -2.07337 -6.64819 0
M  V30 6514 H 626.617 -2.57319 -7.15326 0
M  V30 6515 N 628.193 1.56834 0.155195 0
M  V30 6516 C 629.421 1.87049 0.884326 0
M  V30 6517 C 629.836 0.705839 1.7511 0
M  V30 6518 O 629.193 -0.324641 1.79589 0
M  V30 6519 C 629.244 3.1644 1.74781 0
M  V30 6520 O 628.965 4.28417 0.915978 0
M  V30 6521 C 630.466 3.60113 2.58522 0
M  V30 6522 H 627.686 0.620196 0.25612 0
M  V30 6523 H 630.23 2.03946 0.150445 0
M  V30 6524 H 628.385 3.01321 2.43484 0
M  V30 6525 H 628.799 5.02353 1.50803 0
M  V30 6526 H 630.273 4.53508 3.14698 0
M  V30 6527 H 630.75 2.85005 3.34169 0
M  V30 6528 H 631.356 3.77898 1.95124 0
M  V30 6529 N 629.671 -0.424282 1.51781 0
M  V30 6530 C 631.087 -0.761768 1.40247 0
M  V30 6531 C 631.287 -1.95324 0.495041 0
M  V30 6532 O 630.343 -2.5246 -0.0448949 0
M  V30 6533 C 631.656 -1.0299 2.82513 0
M  V30 6534 C 633.204 -1.13354 2.91753 0
M  V30 6535 C 633.679 -1.43453 4.34954 0
M  V30 6536 N 635.17 -1.5035 4.3812 0
M  V30 6537 C 635.905 -1.75236 5.45967 0
M  V30 6538 N 635.401 -1.97827 6.63955 0
M  V30 6539 N 637.194 -1.77126 5.33463 0
M  V30 6540 H 629.345 0.360228 2.09323 0
M  V30 6541 H 631.608 0.0988128 0.942836 0
M  V30 6542 H 631.314 -0.226961 3.50967 0
M  V30 6543 H 631.188 -1.95411 3.22637 0
M  V30 6544 H 633.575 -1.92709 2.23489 0
M  V30 6545 H 633.656 -0.188041 2.55108 0
M  V30 6546 H 633.3 -0.646209 5.03772 0
M  V30 6547 H 633.23 -2.3923 4.69123 0
M  V30 6548 H 635.721 -1.34742 3.53062 0
M  V30 6549 H 636.034 -2.16223 7.41935 0
M  V30 6550 H 634.379 -1.95123 6.67047 0
M  V30 6551 H 637.57 -1.59005 4.40267 0
M  V30 6552 H 637.743 -1.96182 6.17589 0
M  V30 6553 N 631.149 -1.42148 -0.680565 0
M  V30 6554 C 632.379 -1.45485 -1.46689 0
M  V30 6555 C 632.787 -0.0629451 -1.89095 0
M  V30 6556 O 632.13 0.931397 -1.58337 0
M  V30 6557 C 632.192 -2.31397 -2.75129 0
M  V30 6558 C 631.856 -3.79353 -2.54834 0
M  V30 6559 C 632.853 -4.71148 -2.19808 0
M  V30 6560 C 630.538 -4.23557 -2.70008 0
M  V30 6561 C 632.532 -6.05139 -2.00215 0
M  V30 6562 C 630.219 -5.57609 -2.50031 0
M  V30 6563 C 631.217 -6.48216 -2.15187 0
M  V30 6564 O 630.905 -7.79792 -1.95397 0
M  V30 6565 H 630.637 -0.497139 -0.458071 0
M  V30 6566 H 633.191 -1.87252 -0.844139 0
M  V30 6567 H 631.421 -1.84468 -3.39865 0
M  V30 6568 H 633.11 -2.26257 -3.36991 0
M  V30 6569 H 633.876 -4.38282 -2.07686 0
M  V30 6570 H 629.755 -3.53327 -2.96109 0
M  V30 6571 H 633.299 -6.75823 -1.72941 0
M  V30 6572 H 629.196 -5.9005 -2.61748 0
M  V30 6573 H 629.964 -7.91091 -2.10042 0
M  V30 6574 N 632.627 0.916307 -1.28225 0
M  V30 6575 C 633.904 1.64429 -1.05936 0
M  V30 6576 C 634.284 2.07234 0.402139 0
M  V30 6577 O 633.632 1.81535 1.3877 0
M  V30 6578 C 633.842 2.83773 -2.03159 0
M  V30 6579 C 635.19 3.54852 -2.33164 0
M  V30 6580 O 636.214 2.93918 -2.01223 0
M  V30 6581 O 635.073 4.64663 -2.87664 0
M  V30 6582 H 632.167 0.721221 -0.404683 0
M  V30 6583 H 634.713 0.965838 -1.39534 0
M  V30 6584 H 633.485 2.49217 -3.01673 0
M  V30 6585 H 633.108 3.59333 -1.70192 0
M  V30 6586 N 634.105 1.10431 1.1244 0
M  V30 6587 C 635.335 0.867612 1.87499 0
M  V30 6588 C 635.743 -0.585475 1.79913 0
M  V30 6589 O 635.086 -1.41539 1.171 0
M  V30 6590 C 635.148 1.2374 3.37533 0
M  V30 6591 C 634.812 2.69751 3.68895 0
M  V30 6592 C 635.809 3.67988 3.67261 0
M  V30 6593 C 633.494 3.06135 3.98229 0
M  V30 6594 C 635.488 5.00632 3.9452 0
M  V30 6595 C 633.175 4.38967 4.25149 0
M  V30 6596 C 634.173 5.36025 4.23281 0
M  V30 6597 O 633.861 6.66465 4.49533 0
M  V30 6598 H 633.593 0.311196 0.600111 0
M  V30 6599 H 636.147 1.47257 1.43194 0
M  V30 6600 H 634.377 0.575537 3.82393 0
M  V30 6601 H 636.066 0.978187 3.93937 0
M  V30 6602 H 636.832 3.41224 3.44661 0
M  V30 6603 H 632.711 2.31214 3.98825 0
M  V30 6604 H 636.255 5.7638 3.92978 0
M  V30 6605 H 632.152 4.6547 4.47223 0
M  V30 6606 H 632.92 6.72095 4.67152 0
M  V30 6607 N 635.583 -1.29855 0.893053 0
M  V30 6608 C 636.493 -2.31661 0.370157 0
M  V30 6609 C 637.509 -1.65677 -0.531723 0
M  V30 6610 O 638.685 -1.9691 -0.422902 0
M  V30 6611 C 635.75 -3.44388 -0.399741 0
M  V30 6612 C 634.811 -4.2598 0.532861 0
M  V30 6613 C 634.044 -5.33324 -0.200388 0
M  V30 6614 O 634.267 -5.52305 -1.42531 0
M  V30 6615 O 633.201 -6.00188 0.453668 0
M  V30 6616 H 637.027 -2.78354 1.2146 0
M  V30 6617 H 634.612 -1.34171 0.657153 0
M  V30 6618 H 636.494 -4.13037 -0.835358 0
M  V30 6619 H 635.169 -2.99815 -1.22035 0
M  V30 6620 H 634.076 -3.59998 1.01746 0
M  V30 6621 H 635.409 -4.74178 1.3197 0
M  V30 6622 N 637.061 -0.65484 -1.43351 0
M  V30 6623 C 637.971 0.0363603 -2.34572 0
M  V30 6624 C 638.987 0.810432 -1.53974 0
M  V30 6625 O 640.163 0.757308 -1.86619 0
M  V30 6626 C 637.228 0.989733 -3.32273 0
M  V30 6627 C 636.289 0.212414 -4.28774 0
M  V30 6628 C 635.522 1.12038 -5.21808 0
M  V30 6629 O 635.745 2.35967 -5.19303 0
M  V30 6630 O 634.679 0.59191 -5.98982 0
M  V30 6631 H 638.505 -0.714527 -2.95175 0
M  V30 6632 H 636.09 -0.415029 -1.4352 0
M  V30 6633 H 637.972 1.53759 -3.92347 0
M  V30 6634 H 636.647 1.72082 -2.74171 0
M  V30 6635 H 635.554 -0.379062 -3.72175 0
M  V30 6636 H 636.887 -0.479138 -4.89862 0
M  V30 6637 N 638.539 1.52521 -0.396863 0
M  V30 6638 C 639.785 2.01971 0.183169 0
M  V30 6639 C 640.118 1.2825 1.45827 0
M  V30 6640 O 639.393 0.385179 1.90648 0
M  V30 6641 C 639.676 3.5736 0.443391 0
M  V30 6642 C 639.529 4.41743 -0.84753 0
M  V30 6643 C 640.848 4.22539 1.2308 0
M  V30 6644 H 637.967 0.734119 0.0650976 0
M  V30 6645 H 640.609 1.82519 -0.527918 0
M  V30 6646 H 638.759 3.74066 1.04914 0
M  V30 6647 H 640.431 4.36773 -1.48414 0
M  V30 6648 H 638.674 4.0845 -1.4612 0
M  V30 6649 H 639.345 5.48507 -0.620003 0
M  V30 6650 H 641.821 4.09857 0.718084 0
M  V30 6651 H 640.697 5.31227 1.38162 0
M  V30 6652 H 640.958 3.80675 2.24808 0
M  V30 6653 N 640.017 0.126909 1.57088 0
M  V30 6654 C 640.927 -0.833867 2.1928 0
M  V30 6655 C 641.943 -1.2868 1.17122 0
M  V30 6656 O 643.119 -1.34815 1.49622 0
M  V30 6657 C 640.184 -2.0632 2.78627 0
M  V30 6658 C 639.245 -1.66143 3.95847 0
M  V30 6659 C 638.478 -2.83217 4.52354 0
M  V30 6660 O 638.701 -3.98868 4.0775 0
M  V30 6661 O 637.635 -2.59846 5.42922 0
M  V30 6662 H 641.461 -0.334564 3.01852 0
M  V30 6663 H 639.046 -0.0991091 1.49071 0
M  V30 6664 H 640.928 -2.78304 3.16425 0
M  V30 6665 H 639.603 -2.55242 1.99082 0
M  V30 6666 H 638.51 -0.912435 3.62802 0
M  V30 6667 H 639.843 -1.21957 4.76852 0
M  V30 6668 N 641.495 -1.56914 -0.146875 0
M  V30 6669 C 642.458 -1.97368 -1.16526 0
M  V30 6670 C 643.458 -0.860223 -1.35856 0
M  V30 6671 O 644.648 -1.12684 -1.32846 0
M  V30 6672 C 641.78 -2.28974 -2.52555 0
M  V30 6673 H 642.973 -2.88523 -0.818209 0
M  V30 6674 H 640.526 -1.5135 -0.390221 0
M  V30 6675 H 641.261 -1.40611 -2.92231 0
M  V30 6676 H 641.046 -3.10157 -2.39886 0
M  V30 6677 H 642.536 -2.61109 -3.25902 0
M  V30 6678 N 642.974 0.416227 -1.52004 0
M  V30 6679 C 643.884 1.53147 -1.77717 0
M  V30 6680 C 644.9 1.609 -0.662368 0
M  V30 6681 O 646.076 1.77747 -0.946991 0
M  V30 6682 C 643.141 2.88948 -1.91598 0
M  V30 6683 C 642.202 2.9114 -3.15493 0
M  V30 6684 C 641.435 4.20464 -3.28703 0
M  V30 6685 O 641.658 5.13981 -2.47345 0
M  V30 6686 O 640.592 4.29368 -4.21813 0
M  V30 6687 H 644.418 1.34357 -2.72363 0
M  V30 6688 H 642.003 0.601373 -1.36762 0
M  V30 6689 H 643.885 3.69505 -2.02593 0
M  V30 6690 H 642.56 3.07821 -1.00141 0
M  V30 6691 H 641.467 2.09461 -3.09962 0
M  V30 6692 H 642.8 2.77216 -4.06709 0
M  V30 6693 N 644.452 1.42507 0.673017 0
M  V30 6694 C 645.7 1.42789 1.43023 0
M  V30 6695 C 646.021 0.0459738 1.94946 0
M  V30 6696 O 645.291 -0.915765 1.73178 0
M  V30 6697 H 643.871 0.525657 0.530748 0
M  V30 6698 H 646.533 1.77944 0.795113 0
M  V30 6699 H 645.629 2.12872 2.28237 0
M  V30 6700 N 645.93 -0.909495 1.28709 0
M  V30 6701 C 646.893 -1.99399 1.13016 0
M  V30 6702 C 647.893 -1.60654 0.068536 0
M  V30 6703 O 649.083 -1.71334 0.314671 0
M  V30 6704 C 646.215 -3.33078 0.726085 0
M  V30 6705 H 647.408 -2.14751 2.09338 0
M  V30 6706 H 644.961 -1.09272 1.11756 0
M  V30 6707 H 645.696 -3.23428 -0.23771 0
M  V30 6708 H 645.481 -3.62562 1.49302 0
M  V30 6709 H 646.971 -4.12681 0.639058 0
M  V30 6710 N 647.408 -1.11026 -1.11852 0
M  V30 6711 C 648.356 -0.759643 -2.19846 0
M  V30 6712 C 649.35 0.246964 -1.6759 0
M  V30 6713 O 650.556 0.106693 -1.79684 0
M  V30 6714 H 646.931 -0.22775 -0.716683 0
M  V30 6715 H 648.902 -1.6792 -2.46669 0
M  V30 6716 C 647.651 -0.214364 -3.47039 0
M  V30 6717 H 646.974 -0.980175 -3.87599 0
M  V30 6718 H 648.414 -0.00717047 -4.23999 0
M  V30 6719 C 646.873 1.05436 -3.19976 0
M  V30 6720 O 647.403 2.13483 -3.40276 0
M  V30 6721 N 645.609 0.975436 -2.7374 0
M  V30 6722 H 645.156 0.0960853 -2.57421 0
M  V30 6723 H 645.114 1.82501 -2.5601 0
M  V30 6724 N 648.886 1.2938 -0.899927 0
M  V30 6725 C 649.833 2.27713 -0.376243 0
M  V30 6726 C 650.803 1.57016 0.541774 0
M  V30 6727 O 651.988 1.84997 0.466966 0
M  V30 6728 C 649.128 3.42889 0.39 0
M  V30 6729 C 648.241 4.28369 -0.558938 0
M  V30 6730 C 647.376 5.30726 0.224379 0
M  V30 6731 C 646.415 6.07862 -0.719068 0
M  V30 6732 N 645.552 7.02094 0.0298569 0
M  V30 6733 H 650.392 2.71888 -1.21988 0
M  V30 6734 H 647.929 1.33724 -0.612879 0
M  V30 6735 H 649.887 4.08443 0.850314 0
M  V30 6736 H 648.517 2.99743 1.19809 0
M  V30 6737 H 647.569 3.62986 -1.13777 0
M  V30 6738 H 648.881 4.82068 -1.2811 0
M  V30 6739 H 648.035 6.02098 0.745881 0
M  V30 6740 H 646.774 4.77759 0.979674 0
M  V30 6741 H 645.779 5.35353 -1.25207 0
M  V30 6742 H 647.004 6.62917 -1.4737 0
M  V30 6743 H 644.95 6.51496 0.767415 0
M  V30 6744 H 644.867 7.5335 -0.632391 0
M  V30 6745 H 646.135 7.77685 0.531615 0
M  V30 6746 N 650.364 0.662433 1.43002 0
M  V30 6747 C 651.297 -0.073459 2.28082 0
M  V30 6748 C 652.275 -0.820869 1.40358 0
M  V30 6749 O 653.459 -0.818545 1.698 0
M  V30 6750 C 650.586 -1.11097 3.19961 0
M  V30 6751 C 649.632 -0.460557 4.24006 0
M  V30 6752 S 650.465 0.772717 5.29896 0
M  V30 6753 C 651.621 -0.264028 6.25343 0
M  V30 6754 H 651.854 0.648227 2.90147 0
M  V30 6755 H 649.387 0.451566 1.47649 0
M  V30 6756 H 651.345 -1.70452 3.73439 0
M  V30 6757 H 650.006 -1.80503 2.57056 0
M  V30 6758 H 649.199 -1.24299 4.88432 0
M  V30 6759 H 648.801 0.0591038 3.73953 0
M  V30 6760 H 651.093 -1.12748 6.68052 0
M  V30 6761 H 652.036 0.345443 7.07257 0
M  V30 6762 H 652.444 -0.603964 5.6126 0
M  V30 6763 N 651.842 -1.52309 0.404946 0
M  V30 6764 C 652.775 -2.23369 -0.467087 0
M  V30 6765 C 653.753 -1.24034 -1.0514 0
M  V30 6766 O 654.937 -1.53071 -1.10006 0
M  V30 6767 C 652.064 -2.95906 -1.64795 0
M  V30 6768 C 651.11 -4.09637 -1.18743 0
M  V30 6769 S 651.943 -5.35273 -0.156022 0
M  V30 6770 C 653.099 -6.11337 -1.34231 0
M  V30 6771 H 653.332 -2.96987 0.136294 0
M  V30 6772 H 650.865 -1.53236 0.189219 0
M  V30 6773 H 652.823 -3.38304 -2.3251 0
M  V30 6774 H 651.484 -2.21937 -2.22267 0
M  V30 6775 H 650.677 -4.59549 -2.06955 0
M  V30 6776 H 650.279 -3.69333 -0.588981 0
M  V30 6777 H 652.571 -6.38458 -2.26665 0
M  V30 6778 H 653.514 -7.02563 -0.883804 0
M  V30 6779 H 653.922 -5.42338 -1.56621 0
M  V30 6780 N 653.32 -0.135238 -1.57019 0
M  V30 6781 C 654.267 0.808908 -2.1616 0
M  V30 6782 C 655.237 1.25234 -1.09113 0
M  V30 6783 O 656.422 1.32697 -1.37099 0
M  V30 6784 C 653.562 2.04729 -2.77813 0
M  V30 6785 C 652.675 1.65074 -3.99218 0
M  V30 6786 C 651.81 2.84002 -4.48906 0
M  V30 6787 C 650.849 2.40663 -5.62803 0
M  V30 6788 N 649.986 3.5256 -6.07162 0
M  V30 6789 H 654.826 0.297751 -2.96509 0
M  V30 6790 H 652.363 0.135264 -1.46477 0
M  V30 6791 H 654.321 2.7731 -3.11697 0
M  V30 6792 H 652.951 2.53275 -2.00128 0
M  V30 6793 H 652.003 0.823029 -3.7139 0
M  V30 6794 H 653.315 1.29236 -4.81767 0
M  V30 6795 H 652.469 3.64788 -4.84783 0
M  V30 6796 H 651.208 3.23076 -3.65339 0
M  V30 6797 H 650.213 1.58314 -5.26514 0
M  V30 6798 H 651.438 2.02687 -6.48147 0
M  V30 6799 H 649.384 3.91278 -5.26534 0
M  V30 6800 H 649.301 3.20699 -6.84608 0
M  V30 6801 H 650.569 4.33738 -6.47682 0
M  V30 6802 N 654.798 1.5699 0.138552 0
M  V30 6803 C 656.075 1.74741 0.87891 0
M  V30 6804 C 656.455 0.705522 1.98961 0
M  V30 6805 O 655.803 -0.274066 2.2685 0
M  V30 6806 C 656.013 3.1909 1.4136 0
M  V30 6807 C 657.361 3.81023 1.87368 0
M  V30 6808 O 658.385 3.22571 1.51084 0
M  V30 6809 O 657.244 4.83722 2.54312 0
M  V30 6810 H 654.338 0.714781 0.415953 0
M  V30 6811 H 656.884 1.69248 0.123817 0
M  V30 6812 H 655.656 3.86424 0.61579 0
M  V30 6813 H 655.279 3.29043 2.23196 0
M  V30 6814 N 656.276 -0.40816 1.52223 0
M  V30 6815 C 657.206 -1.5042 1.78595 0
M  V30 6816 C 658.187 -1.57723 0.636974 0
M  V30 6817 O 659.372 -1.72982 0.882664 0
M  V30 6818 C 656.502 -2.88232 1.93751 0
M  V30 6819 C 655.456 -2.95779 3.09352 0
M  V30 6820 C 654.782 -4.35855 3.09732 0
M  V30 6821 C 656.082 -2.67175 4.48793 0
M  V30 6822 H 657.776 -1.28601 2.70374 0
M  V30 6823 H 655.322 -0.617221 1.30101 0
M  V30 6824 H 657.275 -3.64895 2.10783 0
M  V30 6825 H 655.999 -3.11347 0.986443 0
M  V30 6826 H 654.658 -2.21561 2.92072 0
M  V30 6827 H 654.306 -4.55981 2.12346 0
M  V30 6828 H 654.006 -4.41829 3.87377 0
M  V30 6829 H 655.53 -5.14451 3.28895 0
M  V30 6830 H 656.944 -3.3356 4.66273 0
M  V30 6831 H 655.341 -2.84523 5.28362 0
M  V30 6832 H 656.411 -1.62609 4.56822 0
M  V30 6833 N 657.755 -1.42862 -0.66545 0
M  V30 6834 C 658.665 -1.49491 -1.80803 0
M  V30 6835 C 659.681 -0.382914 -1.69734 0
M  V30 6836 O 660.857 -0.635223 -1.9112 0
M  V30 6837 C 657.922 -1.40383 -3.17007 0
M  V30 6838 C 656.983 -2.62152 -3.39963 0
M  V30 6839 C 656.216 -2.53469 -4.69669 0
M  V30 6840 O 656.439 -1.57568 -5.48205 0
M  V30 6841 O 655.373 -3.43763 -4.94075 0
M  V30 6842 H 659.199 -2.45949 -1.78165 0
M  V30 6843 H 656.784 -1.24728 -0.822387 0
M  V30 6844 H 658.666 -1.377 -3.98267 0
M  V30 6845 H 657.341 -0.470546 -3.20262 0
M  V30 6846 H 656.248 -2.70409 -2.58515 0
M  V30 6847 H 657.581 -3.54411 -3.41546 0
M  V30 6848 N 659.233 0.902656 -1.29189 0
M  V30 6849 C 660.196 1.98797 -1.14071 0
M  V30 6850 C 661.196 1.60615 -0.0770549 0
M  V30 6851 O 662.386 1.71165 -0.323753 0
M  V30 6852 C 659.518 3.32688 -0.743739 0
M  V30 6853 H 660.711 2.13637 -2.10473 0
M  V30 6854 H 658.264 1.08678 -1.12334 0
M  V30 6855 H 658.999 3.23549 0.220554 0
M  V30 6856 H 658.784 3.61765 -1.51223 0
M  V30 6857 H 660.274 4.12337 -0.660935 0
M  V30 6858 N 660.711 1.11618 1.11262 0
M  V30 6859 C 661.641 0.79846 2.19424 0
M  V30 6860 C 662.622 -0.234003 1.68483 0
M  V30 6861 O 663.807 -0.0970704 1.93957 0
M  V30 6862 C 660.937 0.242892 3.4645 0
M  V30 6863 C 659.891 1.20744 4.10615 0
M  V30 6864 C 659.217 0.512494 5.32238 0
M  V30 6865 C 660.517 2.55884 4.55325 0
M  V30 6866 H 662.211 1.70286 2.46258 0
M  V30 6867 H 659.757 0.820195 1.18359 0
M  V30 6868 H 661.71 0.00840447 4.21399 0
M  V30 6869 H 660.434 -0.696811 3.1908 0
M  V30 6870 H 659.093 1.42759 3.37662 0
M  V30 6871 H 658.741 -0.432075 5.01141 0
M  V30 6872 H 658.441 1.15583 5.7612 0
M  V30 6873 H 659.965 0.286842 6.09926 0
M  V30 6874 H 661.379 2.37946 5.21588 0
M  V30 6875 H 659.776 3.16216 5.10027 0
M  V30 6876 H 660.846 3.14968 3.68678 0
M  V30 6877 N 662.189 -1.289 0.906776 0
M  V30 6878 C 663.122 -2.25737 0.334362 0
M  V30 6879 C 664.1 -1.52745 -0.557474 0
M  V30 6880 O 665.284 -1.81673 -0.502697 0
M  V30 6881 C 662.411 -3.34642 -0.522716 0
M  V30 6882 C 661.457 -4.25424 0.302777 0
M  V30 6883 S 662.29 -5.07629 1.70508 0
M  V30 6884 C 663.446 -6.20031 0.855118 0
M  V30 6885 H 663.679 -2.73941 1.15514 0
M  V30 6886 H 661.212 -1.37233 0.707573 0
M  V30 6887 H 663.17 -3.97845 -1.01141 0
M  V30 6888 H 661.831 -2.85119 -1.31781 0
M  V30 6889 H 661.024 -5.02767 -0.352257 0
M  V30 6890 H 660.626 -3.66908 0.724873 0
M  V30 6891 H 662.918 -6.77451 0.0816418 0
M  V30 6892 H 663.861 -6.89767 1.60087 0
M  V30 6893 H 664.269 -5.63035 0.406375 0
M  V30 6894 N 663.667 -0.670007 -1.42649 0
M  V30 6895 C 664.914 -0.190286 -2.01604 0
M  V30 6896 C 665.242 1.20155 -1.52948 0
M  V30 6897 O 664.497 1.81964 -0.72026 0
M  V30 6898 C 664.796 -0.168298 -3.57004 0
M  V30 6899 C 664.462 -1.50415 -4.25072 0
M  V30 6900 C 663.124 -1.86992 -4.43382 0
M  V30 6901 C 665.476 -2.38414 -4.63474 0
M  V30 6902 C 662.804 -3.11203 -4.97363 0
M  V30 6903 C 665.156 -3.61933 -5.18833 0
M  V30 6904 C 663.82 -3.98685 -5.35356 0
M  V30 6905 H 663.09 -0.0696305 -0.737721 0
M  V30 6906 H 665.737 -0.864044 -1.70899 0
M  V30 6907 H 664.042 0.588958 -3.87348 0
M  V30 6908 H 665.739 0.22001 -4.00396 0
M  V30 6909 H 662.329 -1.20959 -4.11177 0
M  V30 6910 H 666.513 -2.11442 -4.49006 0
M  V30 6911 H 661.769 -3.39705 -5.08341 0
M  V30 6912 H 665.943 -4.30326 -5.47533 0
M  V30 6913 H 663.57 -4.95009 -5.76949 0
M  V30 6914 N 665.145 1.52092 -0.413018 0
M  V30 6915 C 666.422 1.94356 0.22024 0
M  V30 6916 C 666.802 1.35017 1.62277 0
M  V30 6917 O 666.15 0.527511 2.22328 0
M  V30 6918 C 666.36 3.48289 0.222638 0
M  V30 6919 C 667.708 4.22313 0.440098 0
M  V30 6920 O 668.732 3.54919 0.301826 0
M  V30 6921 O 667.591 5.41829 0.712984 0
M  V30 6922 H 664.685 0.814536 0.14304 0
M  V30 6923 H 667.231 1.63083 -0.469242 0
M  V30 6924 H 666.003 3.83872 -0.758836 0
M  V30 6925 H 665.626 3.85934 0.956057 0
M  V30 6926 N 666.623 0.143563 1.56945 0
M  V30 6927 C 668.039 -0.212877 1.58174 0
M  V30 6928 C 668.239 -1.64926 1.15766 0
M  V30 6929 O 667.295 -2.37535 0.856361 0
M  V30 6930 C 668.608 0.0427573 3.0067 0
M  V30 6931 C 670.156 -0.0212221 3.12993 0
M  V30 6932 C 670.631 0.207036 4.57532 0
M  V30 6933 N 672.122 0.153845 4.62944 0
M  V30 6934 C 672.857 0.305018 5.72588 0
M  V30 6935 N 672.353 0.513722 6.90893 0
M  V30 6936 N 674.146 0.242862 5.61575 0
M  V30 6937 H 666.297 1.08148 1.82805 0
M  V30 6938 H 668.56 0.427831 0.84597 0
M  V30 6939 H 668.266 1.03672 3.36073 0
M  V30 6940 H 668.14 -0.678195 3.71053 0
M  V30 6941 H 670.527 -1.00574 2.77433 0
M  V30 6942 H 670.608 0.732004 2.45103 0
M  V30 6943 H 670.252 1.18863 4.93795 0
M  V30 6944 H 670.182 -0.566473 5.23544 0
M  V30 6945 H 672.673 -0.00294866 3.779 0
M  V30 6946 H 672.986 0.619273 7.70315 0
M  V30 6947 H 671.331 0.550001 6.9282 0
M  V30 6948 H 674.522 0.0806015 4.68031 0
M  V30 6949 H 674.695 0.364112 6.46976 0
M  V30 6950 N 668.101 -1.57061 -0.130224 0
M  V30 6951 C 669.326 -1.88802 -0.858409 0
M  V30 6952 C 669.751 -0.734353 -1.73173 0
M  V30 6953 O 669.109 0.315529 -1.78533 0
M  V30 6954 C 669.157 -3.19228 -1.67708 0
M  V30 6955 O 668.261 -3.04343 -2.78297 0
M  V30 6956 H 667.602 -0.619849 -0.238083 0
M  V30 6957 H 670.132 -2.04271 -0.115995 0
M  V30 6958 H 670.142 -3.51669 -2.06864 0
M  V30 6959 H 668.817 -4.02793 -1.0359 0
M  V30 6960 H 667.394 -2.83346 -2.42425 0
M  V30 6961 N 669.579 0.400081 -1.52437 0
M  V30 6962 C 670.826 1.14619 -1.6694 0
M  V30 6963 C 671.154 1.90262 -0.403797 0
M  V30 6964 O 670.409 1.85835 0.61351 0
M  V30 6965 C 670.708 2.15914 -2.84808 0
M  V30 6966 C 670.374 1.57011 -4.2268 0
M  V30 6967 C 669.036 1.40672 -4.60179 0
M  V30 6968 C 671.388 1.14081 -5.08562 0
M  V30 6969 C 668.716 0.799335 -5.81229 0
M  V30 6970 C 671.068 0.547573 -6.30226 0
M  V30 6971 C 669.732 0.371389 -6.66466 0
M  V30 6972 H 669.002 0.419419 -0.610875 0
M  V30 6973 H 671.649 0.432227 -1.86558 0
M  V30 6974 H 669.954 2.93488 -2.59561 0
M  V30 6975 H 671.651 2.73533 -2.93225 0
M  V30 6976 H 668.241 1.70713 -3.93135 0
M  V30 6977 H 672.425 1.2551 -4.80168 0
M  V30 6978 H 667.681 0.65093 -6.07925 0
M  V30 6979 H 671.855 0.206575 -6.96094 0
M  V30 6980 H 669.482 -0.10135 -7.60132 0
M  V30 6981 N 671.057 1.43213 0.657864 0
M  V30 6982 C 672.303 1.44798 1.41991 0
M  V30 6983 C 672.636 0.070256 1.94073 0
M  V30 6984 O 671.911 -0.908177 1.71995 0
M  V30 6985 C 672.194 2.4865 2.60471 0
M  V30 6986 C 672.047 3.95679 2.13911 0
M  V30 6987 C 673.366 2.49292 3.62686 0
M  V30 6988 H 670.485 0.527244 0.514959 0
M  V30 6989 H 673.127 1.74733 0.74621 0
M  V30 6990 H 671.277 2.23254 3.17946 0
M  V30 6991 H 672.949 4.32116 1.61472 0
M  V30 6992 H 671.192 4.08733 1.45325 0
M  V30 6993 H 671.863 4.6395 2.99089 0
M  V30 6994 H 674.339 2.71917 3.14961 0
M  V30 6995 H 673.215 3.23907 4.43143 0
M  V30 6996 H 673.476 1.52502 4.14964 0
M  V30 6997 N 672.536 -0.895792 1.29666 0
M  V30 6998 C 673.784 -1.64339 1.17631 0
M  V30 6999 C 674.105 -1.93099 -0.271643 0
M  V30 7000 O 673.375 -1.55981 -1.18518 0
M  V30 7001 H 671.955 -0.609162 0.432354 0
M  V30 7002 H 674.617 -1.07389 1.62646 0
M  V30 7003 H 673.713 -2.59815 1.72924 0
M  V30 7004 N 674.014 -1.12206 -1.10668 0
M  V30 7005 C 674.961 -0.787716 -2.16942 0
M  V30 7006 C 675.931 0.244442 -1.64291 0
M  V30 7007 O 677.116 0.119558 -1.90425 0
M  V30 7008 C 674.256 -0.24584 -3.44223 0
M  V30 7009 C 673.369 -1.33552 -4.10838 0
M  V30 7010 C 672.504 -0.753337 -5.25831 0
M  V30 7011 C 671.543 -1.82231 -5.84344 0
M  V30 7012 N 670.68 -1.25902 -6.90719 0
M  V30 7013 H 675.52 -1.69809 -2.44885 0
M  V30 7014 H 673.057 -0.847862 -1.20207 0
M  V30 7015 H 675.015 0.0863639 -4.17111 0
M  V30 7016 H 673.645 0.627702 -3.16638 0
M  V30 7017 H 672.697 -1.78454 -3.35944 0
M  V30 7018 H 674.009 -2.14396 -4.50373 0
M  V30 7019 H 673.163 -0.37166 -6.05561 0
M  V30 7020 H 671.902 0.0863297 -4.87624 0
M  V30 7021 H 670.907 -2.2132 -5.03287 0
M  V30 7022 H 672.132 -2.66515 -6.24617 0
M  V30 7023 H 670.078 -0.44114 -6.54515 0
M  V30 7024 H 669.995 -2.00408 -7.28953 0
M  V30 7025 H 671.263 -0.904498 -7.74235 0
M  V30 7026 N 675.492 1.28418 -0.913599 0
M  V30 7027 C 676.424 2.26368 -0.359169 0
M  V30 7028 C 677.437 1.54858 0.502285 0
M  V30 7029 O 678.626 1.75659 0.31719 0
M  V30 7030 C 675.726 3.35112 0.50526 0
M  V30 7031 C 674.899 4.36126 -0.333648 0
M  V30 7032 C 673.958 5.24134 0.465845 0
M  V30 7033 O 672.984 5.6907 -0.121538 0
M  V30 7034 N 674.186 5.52892 1.76891 0
M  V30 7035 H 676.951 2.74579 -1.2011 0
M  V30 7036 H 674.512 1.41898 -0.779532 0
M  V30 7037 H 676.504 3.90926 1.04684 0
M  V30 7038 H 675.074 2.86611 1.2479 0
M  V30 7039 H 674.294 3.79776 -1.0566 0
M  V30 7040 H 675.582 5.00638 -0.907669 0
M  V30 7041 H 674.98 5.18217 2.26865 0
M  V30 7042 H 673.537 6.11464 2.25732 0
M  V30 7043 N 676.97 0.677563 1.42291 0
M  V30 7044 C 678.217 0.200975 2.015 0
M  V30 7045 C 678.545 -1.19342 1.53583 0
M  V30 7046 O 677.8 -1.81579 0.7299 0
M  V30 7047 C 678.099 0.187229 3.56909 0
M  V30 7048 C 677.765 1.52667 4.24268 0
M  V30 7049 C 676.427 1.89341 4.42384 0
M  V30 7050 C 678.779 2.40869 4.62203 0
M  V30 7051 C 676.107 3.13836 4.95705 0
M  V30 7052 C 678.459 3.64679 5.16906 0
M  V30 7053 C 677.123 4.01519 5.33234 0
M  V30 7054 H 676.393 0.0735418 0.737342 0
M  V30 7055 H 679.04 0.873095 1.70439 0
M  V30 7056 H 677.345 -0.568407 3.87655 0
M  V30 7057 H 679.042 -0.198773 4.00507 0
M  V30 7058 H 675.632 1.23138 4.1053 0
M  V30 7059 H 679.816 2.1382 4.47878 0
M  V30 7060 H 675.072 3.42396 5.06532 0
M  V30 7061 H 679.246 4.33224 5.45243 0
M  V30 7062 H 676.873 4.98062 5.74316 0
M  V30 7063 N 678.448 -1.51871 0.421078 0
M  V30 7064 C 679.673 -2.0684 -0.152371 0
M  V30 7065 C 680.098 -1.28802 -1.37083 0
M  V30 7066 O 679.456 -0.321482 -1.78427 0
M  V30 7067 C 679.504 -3.57532 -0.469368 0
M  V30 7068 O 678.608 -3.81818 -1.55848 0
M  V30 7069 H 677.949 -0.663939 -0.00898586 0
M  V30 7070 H 680.479 -1.95674 0.597724 0
M  V30 7071 H 680.489 -4.01515 -0.724553 0
M  V30 7072 H 679.164 -4.13761 0.421276 0
M  V30 7073 H 677.741 -3.49709 -1.29453 0
M  V30 7074 N 679.926 -0.151884 -1.56866 0
M  V30 7075 C 680.889 0.771861 -2.15812 0
M  V30 7076 C 681.889 1.17181 -1.10115 0
M  V30 7077 O 683.079 1.09194 -1.35729 0
M  V30 7078 C 680.211 2.04806 -2.7252 0
M  V30 7079 H 681.404 0.259021 -2.98779 0
M  V30 7080 H 678.957 0.097588 -1.55995 0
M  V30 7081 H 679.692 2.60445 -1.93233 0
M  V30 7082 H 679.477 1.77044 -3.49854 0
M  V30 7083 H 680.967 2.70771 -3.1792 0
M  V30 7084 N 681.404 1.57128 0.121893 0
M  V30 7085 C 682.352 2.01109 1.16868 0
M  V30 7086 C 683.346 0.907532 1.43039 0
M  V30 7087 O 684.552 1.09274 1.43036 0
M  V30 7088 H 680.927 0.640539 0.393971 0
M  V30 7089 H 682.898 2.88261 0.771224 0
M  V30 7090 C 681.647 2.42887 2.48799 0
M  V30 7091 H 680.97 3.2737 2.29498 0
M  V30 7092 H 682.41 2.77461 3.20611 0
M  V30 7093 C 680.869 1.29137 3.11168 0
M  V30 7094 O 681.399 0.605756 3.97106 0
M  V30 7095 N 679.605 1.04916 2.71 0
M  V30 7096 H 679.152 1.60848 2.01211 0
M  V30 7097 H 679.11 0.290016 3.1306 0
M  V30 7098 N 682.882 -0.391992 1.52647 0
M  V30 7099 C 684.159 -1.15136 1.58123 0
M  V30 7100 C 684.539 -2.07786 0.372597 0
M  V30 7101 O 683.887 -2.19374 -0.639304 0
M  V30 7102 C 684.097 -1.91367 2.91856 0
M  V30 7103 C 685.445 -2.46833 3.45483 0
M  V30 7104 O 686.469 -2.01527 2.9371 0
M  V30 7105 O 685.328 -3.29587 4.3593 0
M  V30 7106 H 682.422 -0.526649 0.637629 0
M  V30 7107 H 684.968 -0.397386 1.64982 0
M  V30 7108 H 683.74 -1.23597 3.71268 0
M  V30 7109 H 683.363 -2.73732 2.88369 0
M  V30 7110 N 684.36 -1.4356 -0.65026 0
M  V30 7111 C 685.307 -1.48948 -1.76304 0
M  V30 7112 C 686.277 -0.338919 -1.62605 0
M  V30 7113 O 687.462 -0.54649 -1.82806 0
M  V30 7114 C 684.602 -1.42131 -3.14472 0
M  V30 7115 C 683.715 -2.67415 -3.39284 0
M  V30 7116 C 682.85 -2.52565 -4.67316 0
M  V30 7117 C 681.889 -3.73103 -4.85243 0
M  V30 7118 N 681.026 -3.57046 -6.04535 0
M  V30 7119 H 685.866 -2.44032 -1.71034 0
M  V30 7120 H 683.403 -1.21131 -0.834601 0
M  V30 7121 H 685.361 -1.36172 -3.94351 0
M  V30 7122 H 683.991 -0.506273 -3.18805 0
M  V30 7123 H 683.043 -2.8364 -2.53481 0
M  V30 7124 H 684.355 -3.56943 -3.48415 0
M  V30 7125 H 683.509 -2.44331 -5.55326 0
M  V30 7126 H 682.248 -1.60566 -4.60511 0
M  V30 7127 H 681.253 -3.81743 -3.95667 0
M  V30 7128 H 682.478 -4.66115 -4.93876 0
M  V30 7129 H 680.424 -2.67783 -5.98856 0
M  V30 7130 H 680.341 -4.40178 -6.14638 0
M  V30 7131 H 681.609 -3.52669 -6.95158 0
M  V30 7132 N 685.838 0.888903 -1.30139 0
M  V30 7133 C 687.084 1.6428 -1.18912 0
M  V30 7134 C 687.417 1.92499 0.256477 0
M  V30 7135 O 686.692 1.54312 1.18397 0
M  V30 7136 C 686.975 2.9851 -2.01405 0
M  V30 7137 C 686.828 2.77288 -3.54163 0
M  V30 7138 C 688.147 3.99383 -1.84882 0
M  V30 7139 H 685.266 0.596148 -0.433333 0
M  V30 7140 H 687.908 1.0289 -1.5973 0
M  V30 7141 H 686.058 3.50907 -1.66722 0
M  V30 7142 H 687.73 2.31709 -3.98884 0
M  V30 7143 H 685.973 2.11867 -3.78543 0
M  V30 7144 H 686.644 3.72717 -4.07168 0
M  V30 7145 H 689.12 3.56132 -2.15196 0
M  V30 7146 H 687.996 4.91222 -2.44934 0
M  V30 7147 H 688.257 4.34674 -0.806902 0
M  V30 7148 N 687.317 1.12792 1.10072 0
M  V30 7149 C 688.547 0.907189 1.85617 0
M  V30 7150 C 688.955 -0.547181 1.81115 0
M  V30 7151 O 688.298 -1.39024 1.20075 0
M  V30 7152 C 688.36 1.30872 3.34832 0
M  V30 7153 C 688.024 2.77516 3.6309 0
M  V30 7154 C 689.021 3.75696 3.59373 0
M  V30 7155 C 686.706 3.14513 3.91646 0
M  V30 7156 C 688.7 5.08888 3.83812 0
M  V30 7157 C 686.387 4.47886 4.15742 0
M  V30 7158 C 687.385 5.44882 4.11816 0
M  V30 7159 O 687.073 6.7585 4.35295 0
M  V30 7160 H 686.805 0.323855 0.593375 0
M  V30 7161 H 689.359 1.50262 1.40038 0
M  V30 7162 H 687.589 0.656518 3.81086 0
M  V30 7163 H 689.278 1.06153 3.91773 0
M  V30 7164 H 690.044 3.48458 3.37345 0
M  V30 7165 H 685.923 2.39622 3.93831 0
M  V30 7166 H 689.467 5.84586 3.80663 0
M  V30 7167 H 685.364 4.74851 4.37249 0
M  V30 7168 H 686.132 6.81853 4.52791 0
M  V30 7169 N 688.795 -1.27931 0.920396 0
M  V30 7170 C 690.023 -1.98805 0.573087 0
M  V30 7171 C 690.438 -1.68724 -0.847201 0
M  V30 7172 O 689.795 -0.943699 -1.56207 0
M  V30 7173 C 689.846 -3.52971 0.780633 0
M  V30 7174 O 689.567 -3.81994 2.14504 0
M  V30 7175 C 691.068 -4.411 0.44105 0
M  V30 7176 H 688.288 -0.634651 0.21785 0
M  V30 7177 H 690.832 -1.62965 1.23542 0
M  V30 7178 H 688.987 -3.87048 0.165204 0
M  V30 7179 H 689.401 -4.76609 2.18962 0
M  V30 7180 H 690.875 -5.48312 0.637006 0
M  V30 7181 H 691.352 -4.34758 -0.62306 0
M  V30 7182 H 691.958 -4.12532 1.0343 0
M  V30 7183 N 690.273 -0.685099 -1.4193 0
M  V30 7184 C 691.519 -0.211971 -2.01689 0
M  V30 7185 C 691.852 1.18189 -1.54094 0
M  V30 7186 O 691.127 1.79559 -0.747572 0
M  V30 7187 C 691.41 -0.258019 -3.59174 0
M  V30 7188 C 691.263 -1.68807 -4.16922 0
M  V30 7189 C 692.582 0.388044 -4.38386 0
M  V30 7190 H 689.701 -0.0784987 -0.732808 0
M  V30 7191 H 692.343 -0.871837 -1.68816 0
M  V30 7192 H 690.493 0.303832 -3.8731 0
M  V30 7193 H 692.165 -2.30296 -3.99702 0
M  V30 7194 H 690.408 -2.22553 -3.72361 0
M  V30 7195 H 691.079 -1.6719 -5.26072 0
M  V30 7196 H 693.555 -0.0903432 -4.16002 0
M  V30 7197 H 692.431 0.325232 -5.47936 0
M  V30 7198 H 692.692 1.4672 -4.17044 0
M  V30 7199 N 691.751 1.51645 -0.429126 0
M  V30 7200 C 692.661 2.31288 0.392809 0
M  V30 7201 C 693.677 1.39852 1.03525 0
M  V30 7202 O 694.853 1.72926 1.03241 0
M  V30 7203 C 691.918 3.13347 1.48372 0
M  V30 7204 C 690.979 4.20551 0.862268 0
M  V30 7205 C 690.212 4.98688 1.9012 0
M  V30 7206 O 690.435 4.77359 3.12225 0
M  V30 7207 O 689.369 5.83005 1.4963 0
M  V30 7208 H 693.195 3.02609 -0.257138 0
M  V30 7209 H 690.78 1.48163 -0.191851 0
M  V30 7210 H 692.662 3.64387 2.1166 0
M  V30 7211 H 691.337 2.44799 2.1179 0
M  V30 7212 H 690.244 3.73609 0.191568 0
M  V30 7213 H 691.577 4.91449 0.271704 0
M  V30 7214 N 693.229 0.160201 1.56784 0
M  V30 7215 C 694.176 -0.774416 2.1742 0
M  V30 7216 C 695.146 -1.23483 1.11091 0
M  V30 7217 O 696.331 -1.30499 1.39193 0
M  V30 7218 C 693.471 -2.00283 2.81035 0
M  V30 7219 C 692.584 -1.58701 4.01793 0
M  V30 7220 C 691.719 -2.76824 4.53367 0
M  V30 7221 C 690.758 -2.31679 5.66561 0
M  V30 7222 N 689.895 -3.42856 6.12694 0
M  V30 7223 H 694.735 -0.250542 2.96945 0
M  V30 7224 H 692.272 -0.111943 1.46673 0
M  V30 7225 H 694.23 -2.72316 3.16069 0
M  V30 7226 H 692.86 -2.5006 2.04132 0
M  V30 7227 H 691.912 -0.76384 3.72652 0
M  V30 7228 H 693.224 -1.21555 4.83762 0
M  V30 7229 H 692.378 -3.57029 4.90525 0
M  V30 7230 H 691.117 -3.17223 3.70433 0
M  V30 7231 H 690.122 -1.49917 5.28966 0
M  V30 7232 H 691.347 -1.9235 6.5129 0
M  V30 7233 H 689.293 -3.82852 5.32692 0
M  V30 7234 H 689.21 -3.09767 6.89624 0
M  V30 7235 H 690.478 -4.23379 6.545 0
M  V30 7236 N 694.707 -1.5719 -0.113559 0
M  V30 7237 C 695.67 -1.99796 -1.12314 0
M  V30 7238 C 696.67 -0.888847 -1.34001 0
M  V30 7239 O 697.86 -1.15476 -1.30426 0
M  V30 7240 C 694.992 -2.34279 -2.47641 0
M  V30 7241 H 696.185 -2.90193 -0.756825 0
M  V30 7242 H 693.738 -1.52144 -0.358029 0
M  V30 7243 H 694.473 -1.46778 -2.89183 0
M  V30 7244 H 694.258 -3.15175 -2.33253 0
M  V30 7245 H 695.748 -2.67963 -3.2029 0
M  V30 7246 N 696.185 0.383891 -1.52853 0
M  V30 7247 C 697.462 1.14296 -1.58732 0
M  V30 7248 C 697.842 2.07585 -0.383611 0
M  V30 7249 O 697.19 2.1971 0.627661 0
M  V30 7250 C 697.4 1.89816 -2.92867 0
M  V30 7251 C 698.748 2.44998 -3.46787 0
M  V30 7252 O 699.772 1.99966 -2.94774 0
M  V30 7253 O 698.631 3.2727 -4.37672 0
M  V30 7254 H 695.725 0.52326 -0.640413 0
M  V30 7255 H 698.271 0.388631 -1.6519 0
M  V30 7256 H 697.043 1.21626 -3.71918 0
M  V30 7257 H 696.666 2.72199 -2.89816 0
M  V30 7258 N 697.663 1.43903 0.642637 0
M  V30 7259 C 698.611 1.50164 1.77634 0
M  V30 7260 C 699.605 0.374294 1.65213 0
M  V30 7261 O 700.811 0.548748 1.71431 0
M  V30 7262 H 697.186 0.470974 0.586249 0
M  V30 7263 H 699.157 2.45603 1.69474 0
M  V30 7264 C 697.906 1.45196 3.15933 0
M  V30 7265 H 697.229 2.31253 3.26132 0
M  V30 7266 H 698.669 1.53638 3.95185 0
M  V30 7267 C 697.128 0.171043 3.36466 0
M  V30 7268 O 697.658 -0.763413 3.94379 0
M  V30 7269 N 695.864 0.077847 2.90496 0
M  V30 7270 H 695.411 0.8391 2.43551 0
M  V30 7271 H 695.369 -0.778473 3.0461 0
M  V30 7272 N 699.141 -0.881989 1.30609 0
M  V30 7273 C 700.388 -1.63405 1.19604 0
M  V30 7274 C 700.716 -1.92905 -0.248574 0
M  V30 7275 O 699.971 -1.55062 -1.19391 0
M  V30 7276 C 700.27 -2.97999 1.97311 0
M  V30 7277 C 699.936 -2.88039 3.46907 0
M  V30 7278 C 698.598 -2.85029 3.877 0
M  V30 7279 C 700.95 -2.75948 4.42156 0
M  V30 7280 C 698.278 -2.67772 5.2203 0
M  V30 7281 C 700.63 -2.60228 5.76597 0
M  V30 7282 C 699.294 -2.55595 6.16626 0
M  V30 7283 H 698.564 -0.597941 0.437662 0
M  V30 7284 H 701.211 -1.02524 1.61744 0
M  V30 7285 H 699.516 -3.62847 1.47815 0
M  V30 7286 H 701.213 -3.55156 1.86186 0
M  V30 7287 H 697.803 -2.91192 3.14492 0
M  V30 7288 H 701.987 -2.77337 4.1158 0
M  V30 7289 H 697.243 -2.62601 5.52133 0
M  V30 7290 H 701.417 -2.49847 6.50038 0
M  V30 7291 H 699.044 -2.41981 7.20659 0
M  V30 7292 N 700.619 -1.13374 -1.09472 0
M  V30 7293 C 701.529 -0.824029 -2.19652 0
M  V30 7294 C 702.545 0.19118 -1.72947 0
M  V30 7295 O 703.721 0.0223464 -2.01388 0
M  V30 7296 C 700.786 -0.294009 -3.45451 0
M  V30 7297 C 699.847 -1.3704 -4.0684 0
M  V30 7298 C 699.08 -0.86558 -5.26634 0
M  V30 7299 O 699.303 0.29702 -5.69626 0
M  V30 7300 O 698.237 -1.63968 -5.79136 0
M  V30 7301 H 702.063 -1.74454 -2.48595 0
M  V30 7302 H 699.648 -0.911155 -1.18399 0
M  V30 7303 H 701.53 -0.00381039 -4.214 0
M  V30 7304 H 700.205 0.598921 -3.18111 0
M  V30 7305 H 699.112 -1.71391 -3.3253 0
M  V30 7306 H 700.445 -2.23746 -4.38405 0
M  V30 7307 N 702.098 1.27442 -0.927168 0
M  V30 7308 C 703.328 1.9821 -0.582775 0
M  V30 7309 C 703.736 1.69361 0.843406 0
M  V30 7310 O 703.079 0.950381 1.57205 0
M  V30 7311 C 703.141 3.52048 -0.728165 0
M  V30 7312 C 702.805 4.04518 -2.12637 0
M  V30 7313 C 703.802 4.17332 -3.10048 0
M  V30 7314 C 701.487 4.38879 -2.44317 0
M  V30 7315 C 703.481 4.6378 -4.37249 0
M  V30 7316 C 701.168 4.85018 -3.71753 0
M  V30 7317 C 702.166 4.97428 -4.68033 0
M  V30 7318 O 701.854 5.42556 -5.93202 0
M  V30 7319 H 701.586 0.639314 -0.219667 0
M  V30 7320 H 704.14 1.63272 -1.24626 0
M  V30 7321 H 702.37 3.86699 -0.00758143 0
M  V30 7322 H 704.059 4.04033 -0.388906 0
M  V30 7323 H 704.825 3.91046 -2.86894 0
M  V30 7324 H 700.704 4.28462 -1.70121 0
M  V30 7325 H 704.248 4.73382 -5.12402 0
M  V30 7326 H 700.145 5.10746 -3.94726 0
M  V30 7327 H 700.913 5.60811 -5.96182 0
M  V30 7328 N 703.576 0.692616 1.41565 0
M  V30 7329 C 704.801 0.229776 2.06123 0
M  V30 7330 C 705.226 -1.11119 1.5177 0
M  V30 7331 O 704.584 -1.69498 0.643444 0
M  V30 7332 C 704.632 0.19469 3.60074 0
M  V30 7333 O 703.736 -0.831366 4.03933 0
M  V30 7334 H 703.077 0.113002 0.654314 0
M  V30 7335 H 705.607 0.946645 1.81383 0
M  V30 7336 H 705.617 0.0245487 4.07993 0
M  V30 7337 H 704.292 1.17339 3.99004 0
M  V30 7338 H 702.869 -0.630819 3.67526 0
M  V30 7339 N 705.054 -1.51416 0.437162 0
M  V30 7340 C 706.331 -1.94682 -0.189292 0
M  V30 7341 C 706.711 -1.37581 -1.60108 0
M  V30 7342 O 706.059 -0.562815 -2.2146 0
M  V30 7343 C 706.269 -3.48599 -0.167201 0
M  V30 7344 C 707.617 -4.2296 -0.372856 0
M  V30 7345 O 708.641 -3.55354 -0.245323 0
M  V30 7346 O 707.5 -5.42895 -0.626693 0
M  V30 7347 H 704.594 -0.816708 -0.130063 0
M  V30 7348 H 707.14 -1.62316 0.495128 0
M  V30 7349 H 705.912 -3.82616 0.81981 0
M  V30 7350 H 705.535 -3.87406 -0.894537 0
M  V30 7351 N 706.532 -0.168513 -1.56696 0
M  V30 7352 C 707.943 0.348694 -1.83415 0
M  V30 7353 C 708.294 1.63257 -1.0882 0
M  V30 7354 O 707.419 2.13707 -0.340333 0
M  V30 7355 C 708.014 0.639423 -3.32711 0
M  V30 7356 C 706.573 1.10108 -3.59935 0
M  V30 7357 C 705.72 0.135464 -2.76969 0
M  V30 7358 H 708.671 -0.392829 -1.53761 0
M  V30 7359 H 708.692 1.49179 -3.50037 0
M  V30 7360 H 708.204 -0.295173 -3.86976 0
M  V30 7361 H 706.305 2.05088 -3.11079 0
M  V30 7362 H 706.418 1.01218 -4.68286 0
M  V30 7363 H 704.782 0.632286 -2.46727 0
M  V30 7364 H 705.565 -0.793104 -3.34013 0
M  V30 7365 N 708.01 1.57248 0.105221 0
M  V30 7366 C 709.256 1.85845 0.811753 0
M  V30 7367 C 709.589 0.756219 1.78871 0
M  V30 7368 O 708.864 -0.236736 1.93054 0
M  V30 7369 C 709.147 3.25059 1.54947 0
M  V30 7370 C 709 4.45898 0.591185 0
M  V30 7371 C 710.319 3.6203 2.50245 0
M  V30 7372 H 707.438 0.675973 0.293649 0
M  V30 7373 H 710.08 1.89849 0.0756269 0
M  V30 7374 H 708.23 3.21776 2.17698 0
M  V30 7375 H 709.902 4.61291 -0.0285352 0
M  V30 7376 H 708.145 4.33693 -0.0962343 0
M  V30 7377 H 708.816 5.40009 1.1443 0
M  V30 7378 H 711.292 3.66192 1.97593 0
M  V30 7379 H 710.168 4.60389 2.98886 0
M  V30 7380 H 710.429 2.90176 3.33542 0
M  V30 7381 N 709.488 -0.375779 1.53054 0
M  V30 7382 C 710.765 -1.13453 1.59336 0
M  V30 7383 C 711.145 -2.07379 0.394614 0
M  V30 7384 O 710.493 -2.2004 -0.616 0
M  V30 7385 C 710.703 -1.8826 2.93869 0
M  V30 7386 C 712.051 -2.43155 3.48081 0
M  V30 7387 O 713.075 -1.984 2.95831 0
M  V30 7388 O 711.934 -3.24944 4.39401 0
M  V30 7389 H 709.028 -0.519856 0.643179 0
M  V30 7390 H 711.574 -0.379865 1.65394 0
M  V30 7391 H 710.346 -1.19652 3.72558 0
M  V30 7392 H 709.969 -2.70658 2.91256 0
M  V30 7393 N 710.966 -1.44241 -0.634997 0
M  V30 7394 C 712.214 -1.46531 -1.39187 0
M  V30 7395 C 712.535 -0.0976441 -1.94755 0
M  V30 7396 O 711.805 0.869528 -1.75545 0
M  V30 7397 H 710.385 -0.539544 -0.516625 0
M  V30 7398 H 713.047 -1.79989 -0.747655 0
M  V30 7399 H 712.143 -2.18848 -2.22513 0
M  V30 7400 N 712.444 0.87505 -1.31075 0
M  V30 7401 C 713.669 1.66583 -1.23551 0
M  V30 7402 C 714.094 1.87067 0.19686 0
M  V30 7403 O 713.452 1.40877 1.1412 0
M  V30 7404 C 713.5 3.01401 -1.97965 0
M  V30 7405 O 712.604 3.90923 -1.31351 0
M  V30 7406 H 711.945 0.508645 -0.426821 0
M  V30 7407 H 714.475 1.09139 -1.7306 0
M  V30 7408 H 714.485 3.51374 -2.07366 0
M  V30 7409 H 713.16 2.85812 -3.02133 0
M  V30 7410 H 711.737 3.49369 -1.30368 0
M  V30 7411 N 713.922 1.13953 1.08869 0
M  V30 7412 C 715.171 0.899431 1.80536 0
M  V30 7413 C 715.484 -0.575781 1.86933 0
M  V30 7414 O 716.69 -0.932988 2.54966 0
M  V30 7415 C 715.146 1.55963 3.24351 0
M  V30 7416 C 714.754 3.07077 3.26202 0
M  V30 7417 C 716.498 1.40046 4.00733 0
M  V30 7418 C 714.405 3.65955 4.64576 0
M  V30 7419 H 713.335 0.332849 0.676556 0
M  V30 7420 H 715.986 1.3679 1.22314 0
M  V30 7421 H 714.368 1.01883 3.82669 0
M  V30 7422 H 715.542 3.67785 2.77617 0
M  V30 7423 H 713.857 3.22576 2.63312 0
M  V30 7424 H 716.454 1.81441 5.02974 0
M  V30 7425 H 716.797 0.345993 4.1486 0
M  V30 7426 H 717.33 1.91137 3.48872 0
M  V30 7427 H 714.069 4.71234 4.55652 0
M  V30 7428 H 713.589 3.10027 5.13462 0
M  V30 7429 H 715.268 3.65968 5.33551 0
M  V30 7430 N 715.4 -1.26948 0.933913 0
M  V30 7431 C 716.625 -1.98724 0.593589 0
M  V30 7432 C 717.05 -1.6915 -0.822801 0
M  V30 7433 O 716.408 -0.93533 -1.5531 0
M  V30 7434 C 716.456 -3.50834 0.833542 0
M  V30 7435 O 715.56 -4.12284 -0.0978788 0
M  V30 7436 H 714.901 -0.623683 0.227849 0
M  V30 7437 H 717.431 -1.61599 1.25486 0
M  V30 7438 H 717.441 -4.01018 0.75156 0
M  V30 7439 H 716.116 -3.71691 1.86597 0
M  V30 7440 H 714.693 -3.72884 0.0345443 0
M  V30 7441 N 716.879 -0.700114 -1.41195 0
M  V30 7442 C 718.295 -0.372114 -1.55201 0
M  V30 7443 C 718.495 1.12053 -1.6747 0
M  V30 7444 O 717.551 1.90642 -1.65566 0
M  V30 7445 C 718.864 -1.12462 -2.78878 0
M  V30 7446 C 720.412 -1.10941 -2.92679 0
M  V30 7447 C 720.887 -1.84376 -4.19249 0
M  V30 7448 N 722.378 -1.81368 -4.26216 0
M  V30 7449 C 723.113 -2.35024 -5.23021 0
M  V30 7450 N 722.609 -2.9717 -6.25829 0
M  V30 7451 N 724.402 -2.25254 -5.14992 0
M  V30 7452 H 716.553 -1.66816 -1.31477 0
M  V30 7453 H 718.816 -0.704223 -0.634644 0
M  V30 7454 H 718.522 -2.17937 -2.76037 0
M  V30 7455 H 718.396 -0.706152 -3.70531 0
M  V30 7456 H 720.783 -0.062911 -2.95033 0
M  V30 7457 H 720.864 -1.56698 -2.02187 0
M  V30 7458 H 720.508 -2.89008 -4.17656 0
M  V30 7459 H 720.438 -1.3605 -5.08722 0
M  V30 7460 H 722.929 -1.36062 -3.52556 0
M  V30 7461 H 723.242 -3.35668 -6.96094 0
M  V30 7462 H 721.587 -3.01249 -6.26318 0
M  V30 7463 H 724.778 -1.76372 -4.33602 0
M  V30 7464 H 724.951 -2.67373 -5.90268 0
M  V30 7465 N 718.357 1.51182 -0.445186 0
M  V30 7466 C 719.305 2.29531 0.376597 0
M  V30 7467 C 720.299 1.35711 1.01385 0
M  V30 7468 O 721.505 1.53018 0.947922 0
M  V30 7469 H 717.88 0.738803 0.140267 0
M  V30 7470 H 719.851 2.96838 -0.304958 0
M  V30 7471 C 718.6 3.1552 1.4609 0
M  V30 7472 H 717.923 3.87605 0.979912 0
M  V30 7473 H 719.363 3.73384 2.009 0
M  V30 7474 C 717.822 2.31406 2.44852 0
M  V30 7475 O 718.352 1.97912 3.49562 0
M  V30 7476 N 716.558 1.94478 2.15932 0
M  V30 7477 H 716.105 2.21917 1.30808 0
M  V30 7478 H 716.063 1.38498 2.82251 0
M  V30 7479 N 719.835 0.176821 1.56605 0
M  V30 7480 C 720.767 -0.782836 2.15417 0
M  V30 7481 C 721.78 -1.18982 1.11117 0
M  V30 7482 O 722.969 -1.12872 1.38283 0
M  V30 7483 C 720.069 -2.06596 2.68647 0
M  V30 7484 C 719.242 -1.82167 3.9766 0
M  V30 7485 C 718.301 -2.94751 4.35899 0
M  V30 7486 O 717.327 -2.65148 5.03672 0
M  V30 7487 N 718.529 -4.2267 3.97907 0
M  V30 7488 H 721.294 -0.280012 2.98389 0
M  V30 7489 H 718.855 -0.00577529 1.61899 0
M  V30 7490 H 720.847 -2.81018 2.91223 0
M  V30 7491 H 719.417 -2.48054 1.90232 0
M  V30 7492 H 718.637 -0.916208 3.83405 0
M  V30 7493 H 719.925 -1.6322 4.81909 0
M  V30 7494 H 719.323 -4.4958 3.43357 0
M  V30 7495 H 717.88 -4.93778 4.25472 0
M  V30 7496 N 721.313 -1.57302 -0.09688 0
M  V30 7497 C 722.561 -1.8563 -0.799117 0
M  V30 7498 C 722.882 -0.765263 -1.79356 0
M  V30 7499 O 722.152 0.208657 -1.94786 0
M  V30 7500 H 720.732 -0.684937 -0.298111 0
M  V30 7501 H 723.394 -1.9474 -0.0789341 0
M  V30 7502 H 722.49 -2.82305 -1.3308 0
M  V30 7503 N 722.791 0.367657 -1.53252 0
M  V30 7504 C 723.721 1.45632 -1.8252 0
M  V30 7505 C 724.702 1.55979 -0.678568 0
M  V30 7506 O 725.887 1.70581 -0.928217 0
M  V30 7507 C 723.017 2.82994 -2.01325 0
M  V30 7508 C 721.971 2.87473 -3.17086 0
M  V30 7509 C 721.297 4.2749 -3.21179 0
M  V30 7510 C 722.597 2.55182 -4.55719 0
M  V30 7511 H 724.291 1.21387 -2.73689 0
M  V30 7512 H 721.837 0.58251 -1.31692 0
M  V30 7513 H 723.79 3.59179 -2.20383 0
M  V30 7514 H 722.514 3.08622 -1.06864 0
M  V30 7515 H 721.173 2.13739 -2.97844 0
M  V30 7516 H 720.821 4.5019 -2.24361 0
M  V30 7517 H 720.521 4.31403 -3.98955 0
M  V30 7518 H 722.045 5.0555 -3.42419 0
M  V30 7519 H 723.459 3.21081 -4.74953 0
M  V30 7520 H 721.856 2.70414 -5.3572 0
M  V30 7521 H 722.926 1.5044 -4.60973 0
M  V30 7522 N 724.269 1.44576 0.627338 0
M  V30 7523 C 725.685 1.28546 0.945938 0
M  V30 7524 C 725.885 0.224003 2.00251 0
M  V30 7525 O 724.941 -0.388817 2.49488 0
M  V30 7526 C 726.254 2.65825 1.40561 0
M  V30 7527 C 727.802 2.73566 1.52088 0
M  V30 7528 C 728.277 4.11323 2.01438 0
M  V30 7529 N 729.768 4.13519 2.08702 0
M  V30 7530 C 730.503 5.16964 2.48065 0
M  V30 7531 N 729.999 6.30768 2.86538 0
M  V30 7532 N 731.792 5.04319 2.48232 0
M  V30 7533 H 723.943 2.1228 -0.0713567 0
M  V30 7534 H 726.206 0.947503 0.0307081 0
M  V30 7535 H 725.912 3.44591 0.703539 0
M  V30 7536 H 725.786 2.92969 2.37591 0
M  V30 7537 H 728.173 1.95116 2.21391 0
M  V30 7538 H 728.254 2.50159 0.534237 0
M  V30 7539 H 727.898 4.9025 1.32729 0
M  V30 7540 H 727.828 4.32109 3.0098 0
M  V30 7541 H 730.319 3.31385 1.81638 0
M  V30 7542 H 730.632 7.0551 3.15398 0
M  V30 7543 H 728.977 6.342 2.84281 0
M  V30 7544 H 732.168 4.14465 2.17569 0
M  V30 7545 H 732.341 5.85059 2.78585 0
M  V30 7546 N 725.747 -0.868086 1.31537 0
M  V30 7547 C 726.677 -1.99131 1.21939 0
M  V30 7548 C 727.658 -1.69768 0.106166 0
M  V30 7549 O 728.843 -1.92006 0.291081 0
M  V30 7550 C 725.973 -3.34676 0.927879 0
M  V30 7551 C 724.927 -3.7835 2.00088 0
M  V30 7552 C 724.253 -5.11375 1.56203 0
M  V30 7553 C 725.553 -3.95256 3.41424 0
M  V30 7554 H 727.247 -2.07419 2.15911 0
M  V30 7555 H 724.793 -0.996569 1.03945 0
M  V30 7556 H 726.746 -4.12793 0.847327 0
M  V30 7557 H 725.47 -3.26565 -0.0475042 0
M  V30 7558 H 724.129 -3.02474 2.07135 0
M  V30 7559 H 723.777 -4.99709 0.57445 0
M  V30 7560 H 723.477 -5.41568 2.27985 0
M  V30 7561 H 725.001 -5.92001 1.49558 0
M  V30 7562 H 726.415 -4.63764 3.3704 0
M  V30 7563 H 724.812 -4.36849 4.1144 0
M  V30 7564 H 725.882 -2.98579 3.82072 0
M  V30 7565 N 727.225 -1.14528 -1.08264 0
M  V30 7566 C 728.474 -0.908992 -1.80056 0
M  V30 7567 C 728.787 0.565859 -1.87236 0
M  V30 7568 O 729.993 0.919454 -2.55457 0
M  V30 7569 C 728.449 -1.57681 -3.23519 0
M  V30 7570 C 728.057 -3.08803 -3.24569 0
M  V30 7571 C 729.801 -1.4217 -3.99985 0
M  V30 7572 C 727.708 -3.68414 -4.62629 0
M  V30 7573 H 726.638 -0.336432 -0.674781 0
M  V30 7574 H 729.289 -1.37437 -1.21587 0
M  V30 7575 H 727.671 -1.03911 -3.82124 0
M  V30 7576 H 728.845 -3.69252 -2.75663 0
M  V30 7577 H 727.16 -3.23968 -2.61598 0
M  V30 7578 H 729.757 -1.84106 -5.02005 0
M  V30 7579 H 730.1 -0.367989 -4.1467 0
M  V30 7580 H 730.633 -1.92984 -3.47853 0
M  V30 7581 H 727.372 -4.73644 -4.53147 0
M  V30 7582 H 726.892 -3.12746 -5.11811 0
M  V30 7583 H 728.571 -3.68793 -5.31602 0
M  V30 7584 N 728.703 1.26451 -0.940633 0
M  V30 7585 C 729.95 1.93778 -0.587909 0
M  V30 7586 C 730.278 1.73811 0.872935 0
M  V30 7587 O 729.533 1.06816 1.63978 0
M  V30 7588 C 729.832 3.46503 -0.875794 0
M  V30 7589 C 729.498 3.86609 -2.32043 0
M  V30 7590 C 728.16 3.97269 -2.71534 0
M  V30 7591 C 730.512 4.0672 -3.25927 0
M  V30 7592 C 727.84 4.25436 -4.04006 0
M  V30 7593 C 730.192 4.36375 -4.57995 0
M  V30 7594 C 728.856 4.45249 -4.97302 0
M  V30 7595 H 728.126 0.709084 -0.215131 0
M  V30 7596 H 730.773 1.50272 -1.18704 0
M  V30 7597 H 729.078 3.91319 -0.194124 0
M  V30 7598 H 730.775 3.96759 -0.581665 0
M  V30 7599 H 727.365 3.78858 -2.00411 0
M  V30 7600 H 731.549 3.97912 -2.96614 0
M  V30 7601 H 726.805 4.30519 -4.34124 0
M  V30 7602 H 730.979 4.50882 -5.30734 0
M  V30 7603 H 728.606 4.66829 -5.99979 0
M  V30 7604 N 730.181 0.707592 1.40822 0
M  V30 7605 C 731.409 0.253073 2.05346 0
M  V30 7606 C 731.824 -1.10218 1.53289 0
M  V30 7607 O 731.181 -1.69112 0.686105 0
M  V30 7608 C 731.232 0.215411 3.60858 0
M  V30 7609 O 730.953 1.51714 4.10992 0
M  V30 7610 C 732.454 -0.258636 4.42545 0
M  V30 7611 H 729.674 0.115256 0.661027 0
M  V30 7612 H 732.218 0.963555 1.80377 0
M  V30 7613 H 730.373 -0.445978 3.84824 0
M  V30 7614 H 730.787 1.41226 5.05129 0
M  V30 7615 H 732.261 -0.233849 5.51504 0
M  V30 7616 H 732.738 -1.2995 4.19535 0
M  V30 7617 H 733.344 0.372186 4.23668 0
M  V30 7618 N 731.66 -1.50943 0.453197 0
M  V30 7619 C 732.937 -1.94872 -0.168633 0
M  V30 7620 C 733.317 -1.39272 -1.5864 0
M  V30 7621 O 732.665 -0.586272 -2.20851 0
M  V30 7622 C 732.875 -3.48757 -0.130217 0
M  V30 7623 C 734.223 -4.23331 -0.327975 0
M  V30 7624 O 735.247 -3.55594 -0.207619 0
M  V30 7625 O 734.106 -5.43529 -0.569077 0
M  V30 7626 H 731.2 -0.818042 -0.121394 0
M  V30 7627 H 733.746 -1.61782 0.512316 0
M  V30 7628 H 732.518 -3.81725 0.860346 0
M  V30 7629 H 732.141 -3.88333 -0.853397 0
M  V30 7630 N 733.138 -0.185124 -1.56509 0
M  V30 7631 C 734.386 0.455357 -1.96903 0
M  V30 7632 C 734.707 1.62839 -1.07277 0
M  V30 7633 O 733.977 1.95385 -0.141966 0
M  V30 7634 H 732.557 0.171218 -0.727113 0
M  V30 7635 H 735.219 -0.26953 -1.93027 0
M  V30 7636 H 734.315 0.80616 -3.01509 0
M  V30 7637 N 734.616 1.57351 0.0885366 0
M  V30 7638 C 735.841 1.91011 0.80805 0
M  V30 7639 C 736.266 0.780009 1.71165 0
M  V30 7640 O 735.624 -0.268083 1.79307 0
M  V30 7641 C 735.672 3.23562 1.59185 0
M  V30 7642 O 734.776 3.11615 2.7013 0
M  V30 7643 H 734.117 0.625943 0.221565 0
M  V30 7644 H 736.647 2.04507 0.0617954 0
M  V30 7645 H 736.657 3.5703 1.97468 0
M  V30 7646 H 735.332 4.05398 0.928741 0
M  V30 7647 H 733.909 2.89673 2.34827 0
M  V30 7648 N 736.094 -0.359525 1.53444 0
M  V30 7649 C 737.51 -0.701599 1.43352 0
M  V30 7650 C 737.71 -1.93049 0.577439 0
M  V30 7651 O 736.766 -2.52423 0.0622224 0
M  V30 7652 C 738.079 -0.90915 2.86627 0
M  V30 7653 C 739.627 -1.00878 2.96298 0
M  V30 7654 C 740.102 -1.24876 4.40647 0
M  V30 7655 N 741.593 -1.31632 4.44103 0
M  V30 7656 C 742.328 -1.51922 5.52908 0
M  V30 7657 N 741.824 -1.69489 6.71748 0
M  V30 7658 N 743.617 -1.54341 5.40496 0
M  V30 7659 H 735.768 0.448685 2.07607 0
M  V30 7660 H 738.031 0.138713 0.937797 0
M  V30 7661 H 737.737 -0.0778997 3.51614 0
M  V30 7662 H 737.611 -1.81551 3.30634 0
M  V30 7663 H 739.998 -1.83057 2.31461 0
M  V30 7664 H 740.079 -0.0796721 2.55676 0
M  V30 7665 H 739.723 -0.431961 5.0606 0
M  V30 7666 H 739.653 -2.19118 4.78848 0
M  V30 7667 H 742.144 -1.19646 3.5846 0
M  V30 7668 H 742.457 -1.84561 7.50438 0
M  V30 7669 H 740.802 -1.66655 6.74723 0
M  V30 7670 H 743.993 -1.40188 4.46615 0
M  V30 7671 H 744.166 -1.69812 6.25354 0
M  V30 7672 N 737.572 -1.44907 -0.619662 0
M  V30 7673 C 738.821 -1.47569 -1.37501 0
M  V30 7674 C 739.134 -0.116707 -1.95252 0
M  V30 7675 O 740.34 -0.020909 -2.71492 0
M  V30 7676 C 738.796 -2.59851 -2.49009 0
M  V30 7677 C 738.404 -4.02008 -1.97722 0
M  V30 7678 C 740.148 -2.71746 -3.2612 0
M  V30 7679 C 738.055 -5.05693 -3.0664 0
M  V30 7680 H 736.985 -0.549068 -0.51676 0
M  V30 7681 H 739.636 -1.71009 -0.665437 0
M  V30 7682 H 738.018 -2.29671 -3.22594 0
M  V30 7683 H 739.192 -4.41809 -1.30925 0
M  V30 7684 H 737.507 -3.94456 -1.33392 0
M  V30 7685 H 740.104 -3.46382 -4.07337 0
M  V30 7686 H 740.447 -1.77959 -3.76346 0
M  V30 7687 H 740.98 -3.01392 -2.5963 0
M  V30 7688 H 737.719 -6.01148 -2.61345 0
M  V30 7689 H 737.239 -4.70473 -3.72042 0
M  V30 7690 H 738.918 -5.29906 -3.71226 0
M  V30 7691 N 739.05 0.861098 -1.31996 0
M  V30 7692 C 740.296 1.61721 -1.22369 0
M  V30 7693 C 740.629 1.93 0.215587 0
M  V30 7694 O 739.904 1.56789 1.15098 0
M  V30 7695 C 740.187 2.9417 -2.07691 0
M  V30 7696 C 740.04 2.69714 -3.59965 0
M  V30 7697 C 741.359 3.95372 -1.93312 0
M  V30 7698 H 738.478 0.586822 -0.44588 0
M  V30 7699 H 741.12 0.994788 -1.61876 0
M  V30 7700 H 739.27 3.47292 -1.74128 0
M  V30 7701 H 740.942 2.23196 -4.03709 0
M  V30 7702 H 739.185 2.03789 -3.82952 0
M  V30 7703 H 739.856 3.63996 -4.14983 0
M  V30 7704 H 742.332 3.51487 -2.22701 0
M  V30 7705 H 741.208 4.85916 -2.55298 0
M  V30 7706 H 741.469 4.32865 -0.898922 0
M  V30 7707 N 740.528 1.15101 1.07655 0
M  V30 7708 C 741.775 0.923974 1.80191 0
M  V30 7709 C 742.103 -0.549065 1.86589 0
M  V30 7710 O 741.358 -1.42307 1.3434 0
M  V30 7711 C 741.657 1.47954 3.25337 0
M  V30 7712 C 741.323 2.97253 3.39044 0
M  V30 7713 C 739.985 3.38012 3.42493 0
M  V30 7714 C 742.337 3.93219 3.42094 0
M  V30 7715 C 739.665 4.73384 3.4659 0
M  V30 7716 C 742.017 5.28458 3.47728 0
M  V30 7717 C 740.681 5.68717 3.49453 0
M  V30 7718 H 739.951 0.338106 0.659367 0
M  V30 7719 H 742.598 1.43594 1.26701 0
M  V30 7720 H 740.903 0.888691 3.81588 0
M  V30 7721 H 742.6 1.27972 3.80032 0
M  V30 7722 H 739.19 2.64746 3.37057 0
M  V30 7723 H 743.374 3.62805 3.38654 0
M  V30 7724 H 738.63 5.03925 3.46222 0
M  V30 7725 H 742.804 6.02618 3.49034 0
M  V30 7726 H 740.431 6.73596 3.5238 0
M  V30 7727 N 742.006 -1.2595 0.947325 0
M  V30 7728 C 743.422 -1.45737 0.650597 0
M  V30 7729 C 743.622 -1.85189 -0.794188 0
M  V30 7730 O 742.678 -1.97738 -1.57022 0
M  V30 7731 C 743.991 -2.53505 1.61728 0
M  V30 7732 C 745.539 -2.67351 1.62765 0
M  V30 7733 C 746.014 -3.78296 2.58179 0
M  V30 7734 N 747.505 -3.85696 2.56501 0
M  V30 7735 C 748.24 -4.71012 3.2701 0
M  V30 7736 N 747.736 -5.60669 4.06966 0
M  V30 7737 N 749.529 -4.64912 3.15932 0
M  V30 7738 H 741.68 -0.986327 1.8811 0
M  V30 7739 H 743.943 -0.494639 0.808725 0
M  V30 7740 H 743.649 -2.31357 2.6489 0
M  V30 7741 H 743.523 -3.51281 1.3741 0
M  V30 7742 H 745.91 -2.88869 0.603241 0
M  V30 7743 H 745.991 -1.69998 1.91139 0
M  V30 7744 H 745.635 -3.5753 3.60742 0
M  V30 7745 H 745.565 -4.75117 2.27093 0
M  V30 7746 H 748.056 -3.21601 1.98447 0
M  V30 7747 H 748.369 -6.22677 4.57704 0
M  V30 7748 H 746.714 -5.60402 4.11066 0
M  V30 7749 H 749.905 -3.93874 2.52945 0
M  V30 7750 H 750.078 -5.3118 3.71149 0
M  V30 7751 N 743.484 -0.715051 -1.40445 0
M  V30 7752 C 744.414 -0.0768699 -2.33373 0
M  V30 7753 C 745.395 0.746109 -1.52863 0
M  V30 7754 O 746.58 0.695142 -1.81332 0
M  V30 7755 C 743.71 0.846014 -3.36838 0
M  V30 7756 C 742.664 0.128694 -4.27806 0
M  V30 7757 C 741.99 1.16726 -5.21804 0
M  V30 7758 C 743.29 -1.01679 -5.12307 0
M  V30 7759 H 744.984 -0.853061 -2.8699 0
M  V30 7760 H 742.53 -0.41167 -1.3799 0
M  V30 7761 H 744.483 1.30185 -4.00786 0
M  V30 7762 H 743.207 1.6541 -2.81615 0
M  V30 7763 H 741.866 -0.307314 -3.6531 0
M  V30 7764 H 741.514 1.96838 -4.62887 0
M  V30 7765 H 741.214 0.692188 -5.83509 0
M  V30 7766 H 742.738 1.62321 -5.88629 0
M  V30 7767 H 744.152 -0.640337 -5.69713 0
M  V30 7768 H 742.549 -1.4202 -5.83053 0
M  V30 7769 H 743.619 -1.84769 -4.48317 0
M  V30 7770 N 744.962 1.50701 -0.461195 0
M  V30 7771 C 746.187 2.07171 0.0974773 0
M  V30 7772 C 746.612 1.32391 1.3362 0
M  V30 7773 O 745.97 0.368676 1.77512 0
M  V30 7774 C 746.018 3.58651 0.374409 0
M  V30 7775 O 745.122 3.85816 1.4567 0
M  V30 7776 H 744.463 0.663944 -0.00862047 0
M  V30 7777 H 746.993 1.94021 -0.649394 0
M  V30 7778 H 747.003 4.03295 0.617843 0
M  V30 7779 H 745.678 4.12498 -0.530829 0
M  V30 7780 H 744.255 3.53018 1.20136 0
M  V30 7781 N 746.441 0.193421 1.56409 0
M  V30 7782 C 747.689 -0.444908 1.97142 0
M  V30 7783 C 748.01 -1.62268 1.08139 0
M  V30 7784 O 747.28 -1.95307 0.152326 0
M  V30 7785 H 745.86 -0.16736 0.728011 0
M  V30 7786 H 748.522 0.279763 1.92882 0
M  V30 7787 H 747.618 -0.790159 3.01932 0
M  V30 7788 N 747.919 -1.57396 -0.0801906 0
M  V30 7789 C 749.147 -1.91055 -0.794075 0
M  V30 7790 C 749.562 -0.788583 -1.71542 0
M  V30 7791 O 748.919 0.238587 -1.80934 0
M  V30 7792 C 748.97 -3.24418 -1.59484 0
M  V30 7793 O 748.691 -4.323 -0.710532 0
M  V30 7794 C 750.192 -3.72037 -2.41046 0
M  V30 7795 H 747.412 -0.63171 -0.226238 0
M  V30 7796 H 749.956 -2.04431 -0.0529685 0
M  V30 7797 H 748.111 -3.12595 -2.2883 0
M  V30 7798 H 748.525 -5.08976 -1.26663 0
M  V30 7799 H 749.999 -4.68006 -2.92702 0
M  V30 7800 H 750.476 -3.00624 -3.2019 0
M  V30 7801 H 751.082 -3.86777 -1.76871 0
M  V30 7802 N 749.397 0.351382 -1.53633 0
M  V30 7803 C 750.645 1.09034 -1.70165 0
M  V30 7804 C 750.966 1.89413 -0.463422 0
M  V30 7805 O 750.236 1.888 0.522624 0
M  V30 7806 H 748.816 0.405522 -0.627344 0
M  V30 7807 H 751.478 0.394554 -1.90865 0
M  V30 7808 H 750.574 1.77215 -2.56907 0
M  V30 7809 N 750.875 1.45233 0.611969 0
M  V30 7810 C 752.1 1.52767 1.40274 0
M  V30 7811 C 752.525 0.159701 1.87421 0
M  V30 7812 O 751.883 -0.854837 1.59882 0
M  V30 7813 C 751.931 2.51286 2.58626 0
M  V30 7814 O 751.035 2.02764 3.59111 0
M  V30 7815 H 750.376 0.515141 0.418958 0
M  V30 7816 H 752.906 1.90547 0.745188 0
M  V30 7817 H 752.916 2.69949 3.05927 0
M  V30 7818 H 751.591 3.50641 2.23659 0
M  V30 7819 H 750.168 1.93957 3.18489 0
M  V30 7820 N 752.353 -0.854086 1.3245 0
M  V30 7821 C 753.316 -1.94427 1.21371 0
M  V30 7822 C 754.316 -1.60219 0.136613 0
M  V30 7823 O 755.506 -1.69846 0.387057 0
M  V30 7824 C 752.638 -3.29698 0.866701 0
M  V30 7825 H 753.831 -2.05679 2.18257 0
M  V30 7826 H 751.384 -1.04434 1.1629 0
M  V30 7827 H 752.119 -3.24145 -0.100319 0
M  V30 7828 H 751.904 -3.55903 1.64545 0
M  V30 7829 H 753.394 -4.09599 0.813515 0
M  V30 7830 N 753.831 -1.1567 -1.07043 0
M  V30 7831 C 755.079 -0.931673 -1.79344 0
M  V30 7832 C 755.4 0.542421 -1.87304 0
M  V30 7833 O 754.67 1.39418 -1.37621 0
M  V30 7834 H 753.25 -0.34171 -0.664262 0
M  V30 7835 H 755.912 -1.45795 -1.29344 0
M  V30 7836 H 755.008 -1.34379 -2.81689 0
M  V30 7837 N 755.309 1.25446 -0.953992 0
M  V30 7838 C 756.272 2.24156 -0.478179 0
M  V30 7839 C 757.272 1.55278 0.417776 0
M  V30 7840 O 758.462 1.72866 0.215155 0
M  V30 7841 C 755.594 3.39495 0.309202 0
M  V30 7842 H 756.787 2.67764 -1.35064 0
M  V30 7843 H 754.34 1.37822 -0.737206 0
M  V30 7844 H 755.075 3.01307 1.19936 0
M  V30 7845 H 754.86 3.90679 -0.333562 0
M  V30 7846 H 756.35 4.12796 0.631594 0
M  V30 7847 N 756.787 0.722489 1.40064 0
M  V30 7848 C 758.015 0.274838 2.05066 0
M  V30 7849 C 758.43 -1.08586 1.54449 0
M  V30 7850 O 757.787 -1.68375 0.704003 0
M  V30 7851 C 757.838 0.253673 3.60609 0
M  V30 7852 O 757.559 1.56064 4.0936 0
M  V30 7853 C 759.06 -0.211684 4.42794 0
M  V30 7854 H 756.28 0.12226 0.659768 0
M  V30 7855 H 758.824 0.982632 1.79345 0
M  V30 7856 H 756.979 -0.405137 3.85276 0
M  V30 7857 H 757.393 1.46576 5.03603 0
M  V30 7858 H 758.867 -0.175341 5.51721 0
M  V30 7859 H 759.344 -1.25493 4.2089 0
M  V30 7860 H 759.95 0.4171 4.2325 0
M  V30 7861 N 758.265 -1.50454 0.469181 0
M  V30 7862 C 759.514 -2.01507 -0.0881425 0
M  V30 7863 C 759.827 -1.35613 -1.40956 0
M  V30 7864 O 761.033 -1.77812 -2.05171 0
M  V30 7865 C 759.489 -3.59301 -0.207596 0
M  V30 7866 C 759.097 -4.34152 1.10527 0
M  V30 7867 C 760.841 -4.18401 -0.716981 0
M  V30 7868 C 758.748 -5.83725 0.949717 0
M  V30 7869 H 757.678 -0.753106 -0.0367156 0
M  V30 7870 H 760.329 -1.73282 0.603788 0
M  V30 7871 H 758.711 -3.84106 -0.963265 0
M  V30 7872 H 759.885 -4.21073 1.87175 0
M  V30 7873 H 758.2 -3.86652 1.54562 0
M  V30 7874 H 760.797 -5.27895 -0.850363 0
M  V30 7875 H 761.14 -3.79657 -1.70782 0
M  V30 7876 H 761.673 -3.97796 -0.0187511 0
M  V30 7877 H 758.412 -6.26938 1.91387 0
M  V30 7878 H 757.932 -5.99383 0.223591 0
M  V30 7879 H 759.611 -6.44065 0.61557 0
M  V30 7880 N 759.743 -0.201713 -1.56304 0
M  V30 7881 C 761.159 0.154025 -1.58855 0
M  V30 7882 C 761.359 1.60516 -1.21807 0
M  V30 7883 O 760.415 2.34193 -0.94393 0
M  V30 7884 C 761.728 -0.154319 -3.00304 0
M  V30 7885 C 763.276 -0.0949578 -3.12856 0
M  V30 7886 C 763.751 -0.376703 -4.56448 0
M  V30 7887 N 765.242 -0.325558 -4.62054 0
M  V30 7888 C 765.977 -0.51732 -5.71062 0
M  V30 7889 N 765.473 -0.769789 -6.8851 0
M  V30 7890 N 767.266 -0.45112 -5.60287 0
M  V30 7891 H 759.417 -1.14858 -1.78666 0
M  V30 7892 H 761.68 -0.458934 -0.829508 0
M  V30 7893 H 761.386 -1.16074 -3.31994 0
M  V30 7894 H 761.26 0.540014 -3.73314 0
M  V30 7895 H 763.647 0.902075 -2.80974 0
M  V30 7896 H 763.728 -0.822468 -2.42217 0
M  V30 7897 H 763.372 -1.37108 -4.89044 0
M  V30 7898 H 763.302 0.371772 -5.25286 0
M  V30 7899 H 765.793 -0.137308 -3.7765 0
M  V30 7900 H 766.106 -0.904744 -7.67486 0
M  V30 7901 H 764.451 -0.806758 -6.90302 0
M  V30 7902 H 767.642 -0.254253 -4.67409 0
M  V30 7903 H 767.815 -0.603982 -6.45179 0
M  V30 7904 N 761.222 1.57436 0.0718424 0
M  V30 7905 C 762.152 2.06724 1.08571 0
M  V30 7906 C 763.133 0.960731 1.40371 0
M  V30 7907 O 764.318 1.23345 1.49999 0
M  V30 7908 C 761.448 2.51112 2.39916 0
M  V30 7909 C 760.402 3.65639 2.22469 0
M  V30 7910 C 759.728 3.96082 3.59198 0
M  V30 7911 C 761.028 4.95687 1.64596 0
M  V30 7912 H 762.722 2.91679 0.675569 0
M  V30 7913 H 760.268 1.40319 0.32352 0
M  V30 7914 H 762.221 2.84206 3.11135 0
M  V30 7915 H 760.945 1.63186 2.8291 0
M  V30 7916 H 759.604 3.32828 1.53691 0
M  V30 7917 H 759.252 3.05287 3.99761 0
M  V30 7918 H 758.952 4.73199 3.48362 0
M  V30 7919 H 760.476 4.31672 4.31847 0
M  V30 7920 H 761.89 5.27011 2.25681 0
M  V30 7921 H 760.287 5.77126 1.64457 0
M  V30 7922 H 761.357 4.8108 0.60744 0
M  V30 7923 N 762.7 -0.34323 1.53817 0
M  V30 7924 C 763.93 -1.10188 1.74763 0
M  V30 7925 C 764.338 -1.82829 0.486856 0
M  V30 7926 O 763.681 -1.75236 -0.551198 0
M  V30 7927 C 763.743 -2.16 2.87375 0
M  V30 7928 C 763.407 -1.62931 4.26969 0
M  V30 7929 C 764.404 -1.08147 5.08528 0
M  V30 7930 C 762.089 -1.67769 4.73454 0
M  V30 7931 C 764.083 -0.589039 6.34672 0
M  V30 7932 C 761.77 -1.18138 5.99572 0
M  V30 7933 C 762.768 -0.637979 6.80014 0
M  V30 7934 O 762.456 -0.149073 8.03762 0
M  V30 7935 H 762.188 -0.33445 0.587469 0
M  V30 7936 H 764.742 -0.401109 2.01445 0
M  V30 7937 H 762.972 -2.89637 2.56218 0
M  V30 7938 H 764.661 -2.77432 2.96287 0
M  V30 7939 H 765.427 -1.03732 4.73777 0
M  V30 7940 H 761.306 -2.09004 4.10899 0
M  V30 7941 H 764.85 -0.164233 6.97407 0
M  V30 7942 H 760.747 -1.22254 6.33817 0
M  V30 7943 H 761.515 -0.266332 8.18067 0
M  V30 7944 N 764.178 -1.45556 -0.604258 0
M  V30 7945 C 765.427 -1.49019 -1.35928 0
M  V30 7946 C 765.74 -0.137409 -1.95117 0
M  V30 7947 O 766.946 -0.0497032 -2.71455 0
M  V30 7948 C 765.402 -2.62477 -2.46239 0
M  V30 7949 C 765.01 -4.04082 -1.93447 0
M  V30 7950 C 766.754 -2.7519 -3.23219 0
M  V30 7951 C 764.661 -5.08917 -3.0126 0
M  V30 7952 H 763.591 -0.554518 -0.510907 0
M  V30 7953 H 766.242 -1.71705 -0.647262 0
M  V30 7954 H 764.624 -2.3308 -3.2014 0
M  V30 7955 H 765.798 -4.43173 -1.26232 0
M  V30 7956 H 764.113 -3.95849 -1.29201 0
M  V30 7957 H 766.71 -3.50683 -4.0364 0
M  V30 7958 H 767.053 -1.81941 -3.74437 0
M  V30 7959 H 767.586 -3.04129 -2.56418 0
M  V30 7960 H 764.325 -6.03886 -2.54955 0
M  V30 7961 H 763.845 -4.74393 -3.67031 0
M  V30 7962 H 765.524 -5.33814 -3.65584 0
M  V30 7963 N 765.656 0.84705 -1.32902 0
M  V30 7964 C 766.933 1.58583 -1.14503 0
M  V30 7965 C 767.313 2.09075 0.291724 0
M  V30 7966 O 766.661 1.88636 1.28952 0
M  V30 7967 C 766.871 2.72605 -2.17916 0
M  V30 7968 C 768.219 3.41993 -2.51646 0
M  V30 7969 O 769.243 2.82838 -2.1652 0
M  V30 7970 O 768.102 4.48761 -3.1189 0
M  V30 7971 H 765.196 0.698756 -0.442345 0
M  V30 7972 H 767.742 0.890516 -1.44457 0
M  V30 7973 H 766.514 2.32876 -3.14459 0
M  V30 7974 H 766.137 3.49807 -1.89 0
M  V30 7975 N 767.134 1.16236 1.06428 0
M  V30 7976 C 768.359 0.967688 1.83441 0
M  V30 7977 C 768.784 -0.479167 1.81894 0
M  V30 7978 O 768.142 -1.34224 1.21875 0
M  V30 7979 C 768.19 1.49806 3.2801 0
M  V30 7980 O 767.294 0.703481 4.06356 0
M  V30 7981 H 766.635 0.344468 0.56766 0
M  V30 7982 H 769.165 1.54442 1.34197 0
M  V30 7983 H 769.175 1.51495 3.78831 0
M  V30 7984 H 767.85 2.55133 3.2845 0
M  V30 7985 H 766.427 0.756986 3.65136 0
M  V30 7986 N 768.612 -1.24939 0.960631 0
M  V30 7987 C 769.842 -1.96595 0.635123 0
M  V30 7988 C 770.25 -1.71538 -0.798206 0
M  V30 7989 O 769.593 -0.991727 -1.5463 0
M  V30 7990 C 769.655 -3.49994 0.821248 0
M  V30 7991 C 769.319 -3.98738 2.23287 0
M  V30 7992 C 770.316 -4.08965 3.21004 0
M  V30 7993 C 768.001 -4.32247 2.55867 0
M  V30 7994 C 769.995 -4.52025 4.49391 0
M  V30 7995 C 767.682 -4.74991 3.84482 0
M  V30 7996 C 768.68 -4.84844 4.81056 0
M  V30 7997 O 768.368 -5.26638 6.07378 0
M  V30 7998 H 768.1 -0.633265 0.23654 0
M  V30 7999 H 770.654 -1.5991 1.28911 0
M  V30 8000 H 768.884 -3.86543 0.110105 0
M  V30 8001 H 770.573 -4.02859 0.495892 0
M  V30 8002 H 771.339 -3.83302 2.97161 0
M  V30 8003 H 767.218 -4.23801 1.81421 0
M  V30 8004 H 770.762 -4.5963 5.24773 0
M  V30 8005 H 766.659 -5.00101 4.08129 0
M  V30 8006 H 767.427 -5.44807 6.10842 0
M  V30 8007 N 770.09 -0.729906 -1.39679 0
M  V30 8008 C 771 -0.0880322 -2.34435 0
M  V30 8009 C 772.016 0.727674 -1.58053 0
M  V30 8010 O 773.192 0.657321 -1.90371 0
M  V30 8011 C 770.257 0.812211 -3.37052 0
M  V30 8012 C 769.318 -0.0151681 -4.29297 0
M  V30 8013 C 768.551 0.842202 -5.27013 0
M  V30 8014 O 768.774 2.08108 -5.31081 0
M  V30 8015 O 767.708 0.27357 -6.01278 0
M  V30 8016 H 771.534 -0.869989 -2.90972 0
M  V30 8017 H 769.119 -0.490522 -1.41118 0
M  V30 8018 H 771.001 1.32745 -3.99946 0
M  V30 8019 H 769.676 1.57307 -2.82907 0
M  V30 8020 H 768.583 -0.575811 -3.69642 0
M  V30 8021 H 769.916 -0.738129 -4.86634 0
M  V30 8022 N 771.568 1.50203 -0.477153 0
M  V30 8023 C 772.515 2.28656 0.31386 0
M  V30 8024 C 773.485 1.33977 0.981802 0
M  V30 8025 O 774.67 1.62919 0.993072 0
M  V30 8026 C 771.81 3.16027 1.38639 0
M  V30 8027 C 770.923 4.25743 0.732615 0
M  V30 8028 C 770.058 5.00363 1.78355 0
M  V30 8029 C 769.097 6.01945 1.11035 0
M  V30 8030 N 768.234 6.6982 2.10441 0
M  V30 8031 H 773.074 2.958 -0.361445 0
M  V30 8032 H 770.611 1.45867 -0.190093 0
M  V30 8033 H 772.569 3.6504 2.01994 0
M  V30 8034 H 771.199 2.50917 2.03077 0
M  V30 8035 H 770.251 3.80398 -0.0136546 0
M  V30 8036 H 771.563 4.98393 0.201513 0
M  V30 8037 H 770.717 5.53124 2.49276 0
M  V30 8038 H 769.456 4.27432 2.34847 0
M  V30 8039 H 768.461 5.48438 0.386797 0
M  V30 8040 H 769.686 6.76851 0.552248 0
M  V30 8041 H 767.632 5.99677 2.65939 0
M  V30 8042 H 767.549 7.38366 1.62332 0
M  V30 8043 H 768.817 7.27196 2.80724 0
M  V30 8044 N 773.046 0.209999 1.56195 0
M  V30 8045 C 774.323 -0.473214 1.89789 0
M  V30 8046 C 774.703 -1.78581 1.1257 0
M  V30 8047 O 774.051 -2.27325 0.231398 0
M  V30 8048 C 774.261 -0.677458 3.42362 0
M  V30 8049 C 775.609 -0.990114 4.12895 0
M  V30 8050 O 776.633 -0.764655 3.47896 0
M  V30 8051 O 775.492 -1.41737 5.278 0
M  V30 8052 H 772.586 -0.248622 0.788743 0
M  V30 8053 H 775.132 0.251324 1.67829 0
M  V30 8054 H 773.904 0.248878 3.90508 0
M  V30 8055 H 773.527 -1.45391 3.70064 0
M  V30 8056 N 774.524 -1.57472 -0.0634922 0
M  V30 8057 C 775.77 -1.87932 -0.762194 0
M  V30 8058 C 776.103 -0.803377 -1.76804 0
M  V30 8059 O 775.378 0.185468 -1.93614 0
M  V30 8060 C 775.661 -3.29053 -1.46275 0
M  V30 8061 C 775.514 -4.47309 -0.472755 0
M  V30 8062 C 776.833 -3.68537 -2.40558 0
M  V30 8063 H 773.952 -0.683521 -0.275624 0
M  V30 8064 H 776.594 -1.89983 -0.0252651 0
M  V30 8065 H 774.744 -3.27435 -2.0909 0
M  V30 8066 H 776.416 -4.61053 0.150828 0
M  V30 8067 H 774.659 -4.33286 0.211187 0
M  V30 8068 H 775.33 -5.42853 -1.00072 0
M  V30 8069 H 777.806 -3.71302 -1.87814 0
M  V30 8070 H 776.682 -4.68152 -2.86574 0
M  V30 8071 H 776.943 -2.98917 -3.25731 0
M  V30 8072 N 776.003 0.335068 -1.53997 0
M  V30 8073 C 776.966 1.39481 -1.81872 0
M  V30 8074 C 777.966 1.4524 -0.690078 0
M  V30 8075 O 779.156 1.45467 -0.958377 0
M  V30 8076 C 776.288 2.78329 -1.9684 0
M  V30 8077 H 777.481 1.16024 -2.76547 0
M  V30 8078 H 775.034 0.569926 -1.45539 0
M  V30 8079 H 775.769 3.07058 -1.04337 0
M  V30 8080 H 775.554 2.75544 -2.78958 0
M  V30 8081 H 777.044 3.55016 -2.19894 0
M  V30 8082 N 777.481 1.45874 0.596531 0
M  V30 8083 C 778.428 1.55389 1.70655 0
M  V30 8084 C 779.398 0.399036 1.61236 0
M  V30 8085 O 780.583 0.61396 1.80652 0
M  V30 8086 C 777.723 1.53705 3.0898 0
M  V30 8087 C 776.836 2.79823 3.29125 0
M  V30 8088 C 775.971 2.69735 4.5762 0
M  V30 8089 C 775.01 3.90856 4.71061 0
M  V30 8090 N 774.147 3.79237 5.90867 0
M  V30 8091 H 778.987 2.50211 1.61859 0
M  V30 8092 H 776.524 1.24146 0.789069 0
M  V30 8093 H 778.482 1.50715 3.89026 0
M  V30 8094 H 777.112 0.624247 3.16706 0
M  V30 8095 H 776.164 2.92852 2.42779 0
M  V30 8096 H 777.476 3.69628 3.34927 0
M  V30 8097 H 776.63 2.64773 5.45875 0
M  V30 8098 H 775.369 1.77547 4.54234 0
M  V30 8099 H 774.374 3.96164 3.81227 0
M  V30 8100 H 775.599 4.84124 4.76236 0
M  V30 8101 H 773.545 2.89825 5.88504 0
M  V30 8102 H 773.462 4.62686 5.97877 0
M  V30 8103 H 774.73 3.78227 6.8159 0
M  V30 8104 N 778.959 -0.83999 1.33349 0
M  V30 8105 C 780.208 -1.59011 1.2409 0
M  V30 8106 C 780.521 -1.94655 -0.192029 0
M  V30 8107 O 781.727 -2.68438 -0.406617 0
M  V30 8108 C 780.183 -2.86801 2.17425 0
M  V30 8109 C 779.791 -2.58525 3.65881 0
M  V30 8110 C 781.535 -3.64823 2.17036 0
M  V30 8111 C 779.442 -3.82404 4.51133 0
M  V30 8112 H 778.372 -0.596731 0.460899 0
M  V30 8113 H 781.023 -0.926274 1.58406 0
M  V30 8114 H 779.405 -3.54719 1.7604 0
M  V30 8115 H 780.579 -1.98824 4.15699 0
M  V30 8116 H 778.894 -1.93808 3.68548 0
M  V30 8117 H 781.491 -4.56774 2.7796 0
M  V30 8118 H 781.834 -3.99663 1.16513 0
M  V30 8119 H 782.367 -3.03826 2.56777 0
M  V30 8120 H 779.106 -3.52696 5.52527 0
M  V30 8121 H 778.626 -4.41447 4.0606 0
M  V30 8122 H 780.305 -4.49995 4.6488 0
M  V30 8123 N 780.437 -1.16799 -1.0581 0
M  V30 8124 C 781.385 -0.875111 -2.1551 0
M  V30 8125 C 782.379 0.157781 -1.68664 0
M  V30 8126 O 783.585 0.011297 -1.79996 0
M  V30 8127 H 779.96 -0.26542 -0.703602 0
M  V30 8128 H 781.931 -1.8076 -2.37421 0
M  V30 8129 C 780.68 -0.39802 -3.45414 0
M  V30 8130 H 780.003 -1.18425 -3.81858 0
M  V30 8131 H 781.443 -0.231913 -4.23365 0
M  V30 8132 C 779.902 0.88327 -3.25115 0
M  V30 8133 O 780.432 1.95145 -3.51114 0
M  V30 8134 N 778.638 0.828961 -2.78526 0
M  V30 8135 H 778.185 -0.0405029 -2.57568 0
M  V30 8136 H 778.143 1.68673 -2.65324 0
M  V30 8137 N 781.915 1.24427 -0.967243 0
M  V30 8138 C 782.847 2.24641 -0.454856 0
M  V30 8139 C 783.86 1.56849 0.436152 0
M  V30 8140 O 785.049 1.76846 0.242401 0
M  V30 8141 C 782.149 3.36954 0.362672 0
M  V30 8142 C 781.322 4.34318 -0.518324 0
M  V30 8143 C 780.381 5.25638 0.243122 0
M  V30 8144 O 779.407 5.68043 -0.362791 0
M  V30 8145 N 780.609 5.59897 1.53282 0
M  V30 8146 H 783.374 2.69238 -1.31648 0
M  V30 8147 H 780.935 1.38464 -0.839015 0
M  V30 8148 H 782.927 3.95014 0.880094 0
M  V30 8149 H 781.497 2.91646 1.12522 0
M  V30 8150 H 780.717 3.74953 -1.21672 0
M  V30 8151 H 782.005 4.96338 -1.11919 0
M  V30 8152 H 781.403 5.27373 2.04682 0
M  V30 8153 H 779.96 6.20488 1.99594 0
M  V30 8154 N 783.393 0.737304 1.3929 0
M  V30 8155 C 784.67 0.212464 1.94443 0
M  V30 8156 C 785.05 -1.28621 1.67391 0
M  V30 8157 O 784.398 -2.0529 1.00342 0
M  V30 8158 C 784.608 0.548565 3.44662 0
M  V30 8159 C 785.956 0.499177 4.21656 0
M  V30 8160 O 786.98 0.485892 3.5287 0
M  V30 8161 O 785.839 0.495739 5.44247 0
M  V30 8162 H 782.933 0.0395457 0.826054 0
M  V30 8163 H 785.479 0.816319 1.48776 0
M  V30 8164 H 784.251 1.58426 3.57795 0
M  V30 8165 H 783.874 -0.0841399 3.97511 0
M  V30 8166 N 784.871 -1.49948 0.485112 0
M  V30 8167 C 786.282 -1.8667 0.0334041 0
M  V30 8168 C 786.633 -1.3988 -1.37579 0
M  V30 8169 O 785.758 -0.769788 -2.02245 0
M  V30 8170 C 786.353 -3.38757 0.0538426 0
M  V30 8171 C 784.912 -3.74839 -0.342453 0
M  V30 8172 C 784.059 -2.73894 0.433281 0
M  V30 8173 H 787.01 -1.42492 0.698699 0
M  V30 8174 H 787.031 -3.73132 -0.745146 0
M  V30 8175 H 786.543 -3.72782 1.07959 0
M  V30 8176 H 784.644 -3.46419 -1.37203 0
M  V30 8177 H 784.757 -4.79088 -0.0340503 0
M  V30 8178 H 783.121 -2.54441 -0.114849 0
M  V30 8179 H 783.904 -3.10763 1.45881 0
M  V30 8180 N 786.349 -0.21828 -1.56081 0
M  V30 8181 C 787.281 0.725447 -2.17416 0
M  V30 8182 C 788.294 1.15995 -1.14233 0
M  V30 8183 O 789.483 1.09166 -1.41227 0
M  V30 8184 C 786.583 1.99401 -2.7403 0
M  V30 8185 C 785.756 1.7156 -4.02351 0
M  V30 8186 C 784.815 2.8309 -4.43561 0
M  V30 8187 O 783.841 2.51701 -5.10525 0
M  V30 8188 N 785.043 4.11972 -4.08973 0
M  V30 8189 H 787.808 0.200801 -2.99027 0
M  V30 8190 H 785.369 -0.0371514 -1.61857 0
M  V30 8191 H 787.361 2.73198 -2.98571 0
M  V30 8192 H 785.931 2.42923 -1.96742 0
M  V30 8193 H 785.151 0.814233 -3.85699 0
M  V30 8194 H 786.439 1.50385 -4.86068 0
M  V30 8195 H 785.837 4.40319 -3.55156 0
M  V30 8196 H 784.394 4.82323 -4.38415 0
M  V30 8197 N 787.827 1.57504 0.0551401 0
M  V30 8198 C 789.073 1.88334 0.752216 0
M  V30 8199 C 789.406 0.812742 1.76375 0
M  V30 8200 O 788.681 -0.175198 1.93709 0
M  V30 8201 C 788.964 3.29824 1.44528 0
M  V30 8202 C 788.817 4.47553 0.449026 0
M  V30 8203 C 790.136 3.69808 2.38601 0
M  V30 8204 H 787.255 0.684973 0.271995 0
M  V30 8205 H 789.897 1.89994 0.0151895 0
M  V30 8206 H 788.047 3.28539 2.07351 0
M  V30 8207 H 789.719 4.60967 -0.175277 0
M  V30 8208 H 787.962 4.33168 -0.234162 0
M  V30 8209 H 788.633 5.43376 0.971917 0
M  V30 8210 H 791.109 3.72293 1.85842 0
M  V30 8211 H 789.985 4.69665 2.84088 0
M  V30 8212 H 790.246 3.00641 3.24141 0
M  V30 8213 N 789.305 -0.326896 1.54172 0
M  V30 8214 C 790.238 -1.42591 1.78166 0
M  V30 8215 C 791.216 -1.49837 0.631484 0
M  V30 8216 O 792.4 -1.67298 0.868544 0
M  V30 8217 C 789.527 -2.8071 1.89524 0
M  V30 8218 C 788.573 -2.91012 3.11792 0
M  V30 8219 S 789.406 -2.55763 4.70474 0
M  V30 8220 C 790.562 -3.9596 4.84733 0
M  V30 8221 H 790.795 -1.22024 2.71104 0
M  V30 8222 H 788.328 -0.523539 1.45253 0
M  V30 8223 H 790.286 -3.60276 1.96753 0
M  V30 8224 H 788.947 -2.98562 0.975696 0
M  V30 8225 H 788.14 -3.92258 3.16464 0
M  V30 8226 H 787.742 -2.19414 3.02876 0
M  V30 8227 H 790.034 -4.90676 4.67166 0
M  V30 8228 H 790.977 -3.96273 5.86833 0
M  V30 8229 H 791.385 -3.8476 4.13062 0
M  V30 8230 N 790.784 -1.46188 -0.588786 0
M  V30 8231 C 791.714 -1.59148 -1.70863 0
M  V30 8232 C 792.695 -0.442083 -1.64255 0
M  V30 8233 O 793.88 -0.667575 -1.82365 0
M  V30 8234 C 791.01 -1.5757 -3.09498 0
M  V30 8235 C 789.964 -2.71418 -3.30932 0
M  V30 8236 C 789.29 -2.549 -4.70032 0
M  V30 8237 C 790.59 -4.1329 -3.19356 0
M  V30 8238 H 792.284 -2.52889 -1.60274 0
M  V30 8239 H 789.83 -1.21707 -0.769638 0
M  V30 8240 H 791.783 -1.65231 -3.87655 0
M  V30 8241 H 790.507 -0.603705 -3.20972 0
M  V30 8242 H 789.166 -2.63216 -2.55172 0
M  V30 8243 H 788.814 -1.55797 -4.78264 0
M  V30 8244 H 788.514 -3.31257 -4.85327 0
M  V30 8245 H 790.038 -2.64443 -5.50366 0
M  V30 8246 H 791.452 -4.22636 -3.87365 0
M  V30 8247 H 789.849 -4.90187 -3.46175 0
M  V30 8248 H 790.919 -4.33874 -2.16522 0
M  V30 8249 N 792.262 0.832906 -1.33792 0
M  V30 8250 C 793.225 1.92471 -1.24449 0
M  V30 8251 C 794.225 1.59981 -0.162085 0
M  V30 8252 O 795.415 1.69208 -0.414029 0
M  V30 8253 C 792.547 3.28278 -0.919044 0
M  V30 8254 H 793.74 2.0218 -2.21502 0
M  V30 8255 H 791.293 1.0257 -1.17936 0
M  V30 8256 H 792.028 3.24263 0.048738 0
M  V30 8257 H 791.813 3.53241 -1.70187 0
M  V30 8258 H 793.303 4.08253 -0.878576 0
M  V30 8259 N 793.74 1.17359 1.05189 0
M  V30 8260 C 795.151 0.96793 1.5965 0
M  V30 8261 C 795.502 -0.485355 1.90102 0
M  V30 8262 O 794.627 -1.36066 1.6827 0
M  V30 8263 C 795.222 1.75068 2.90063 0
M  V30 8264 C 793.781 1.58969 3.41183 0
M  V30 8265 C 792.928 1.75231 2.14917 0
M  V30 8266 H 795.879 1.32067 0.880001 0
M  V30 8267 H 795.9 1.23308 3.59966 0
M  V30 8268 H 795.412 2.80835 2.67868 0
M  V30 8269 H 793.513 0.556906 3.68415 0
M  V30 8270 H 793.626 2.38067 4.15766 0
M  V30 8271 H 791.99 1.18073 2.25679 0
M  V30 8272 H 792.773 2.8241 1.95191 0
M  V30 8273 N 795.218 -1.23913 0.973828 0
M  V30 8274 C 796.148 -2.27453 0.527969 0
M  V30 8275 C 797.129 -1.6443 -0.435513 0
M  V30 8276 O 798.314 -1.9137 -0.330306 0
M  V30 8277 C 795.444 -3.4685 -0.176757 0
M  V30 8278 C 794.398 -4.22181 0.703352 0
M  V30 8279 C 793.724 -5.34534 -0.133215 0
M  V30 8280 C 795.024 -4.82865 1.99096 0
M  V30 8281 H 796.718 -2.65 1.3934 0
M  V30 8282 H 794.264 -1.27388 0.671446 0
M  V30 8283 H 796.217 -4.18424 -0.499934 0
M  V30 8284 H 794.941 -3.08346 -1.07659 0
M  V30 8285 H 793.6 -3.52416 1.00989 0
M  V30 8286 H 793.248 -4.92271 -1.03338 0
M  V30 8287 H 792.948 -5.85855 0.452494 0
M  V30 8288 H 794.472 -6.08933 -0.450924 0
M  V30 8289 H 795.886 -5.46481 1.73297 0
M  V30 8290 H 794.283 -5.44444 2.52389 0
M  V30 8291 H 795.353 -4.03977 2.68199 0
M  V30 8292 N 796.696 -0.74468 -1.38897 0
M  V30 8293 C 797.945 -0.293716 -1.9955 0
M  V30 8294 C 798.258 1.12831 -1.59777 0
M  V30 8295 O 799.464 1.67929 -2.13336 0
M  V30 8296 C 797.92 -0.474188 -3.56762 0
M  V30 8297 C 797.528 -1.90472 -4.05493 0
M  V30 8298 C 799.272 -0.0854875 -4.24414 0
M  V30 8299 C 797.179 -2.03423 -5.55314 0
M  V30 8300 H 796.109 -0.106066 -0.746502 0
M  V30 8301 H 798.76 -0.919948 -1.58774 0
M  V30 8302 H 797.142 0.221092 -3.95382 0
M  V30 8303 H 798.316 -2.63274 -3.78184 0
M  V30 8304 H 796.631 -2.24752 -3.50536 0
M  V30 8305 H 799.228 -0.161133 -5.34457 0
M  V30 8306 H 799.571 0.96066 -4.05064 0
M  V30 8307 H 800.104 -0.732286 -3.91002 0
M  V30 8308 H 796.843 -3.0626 -5.79556 0
M  V30 8309 H 796.363 -1.3507 -5.84394 0
M  V30 8310 H 798.042 -1.81996 -6.20876 0
M  V30 8311 N 798.174 1.49689 -0.493057 0
M  V30 8312 C 799.399 2.07331 0.0535114 0
M  V30 8313 C 799.824 1.35196 1.30781 0
M  V30 8314 O 799.182 0.406246 1.7669 0
M  V30 8315 C 799.23 3.59364 0.29825 0
M  V30 8316 O 798.334 3.88819 1.37454 0
M  V30 8317 H 797.675 0.663612 -0.0227018 0
M  V30 8318 H 800.205 1.926 -0.690402 0
M  V30 8319 H 800.215 4.04515 0.532159 0
M  V30 8320 H 798.89 4.1128 -0.618207 0
M  V30 8321 H 797.467 3.55487 1.12621 0
M  V30 8322 N 799.652 0.226554 1.55963 0
M  V30 8323 C 800.901 -0.40417 1.97609 0
M  V30 8324 C 801.214 -1.60541 1.1174 0
M  V30 8325 O 802.42 -2.30598 1.43307 0
M  V30 8326 C 800.876 -0.770466 3.51556 0
M  V30 8327 C 800.484 0.408244 4.46136 0
M  V30 8328 C 802.228 -1.36651 4.01904 0
M  V30 8329 C 800.135 0.0192347 5.91397 0
M  V30 8330 H 799.065 -0.15478 0.737943 0
M  V30 8331 H 801.716 0.323558 1.80625 0
M  V30 8332 H 800.098 -1.55575 3.6416 0
M  V30 8333 H 801.272 1.18575 4.45283 0
M  V30 8334 H 799.587 0.917859 4.06158 0
M  V30 8335 H 802.184 -1.67055 5.07934 0
M  V30 8336 H 802.527 -2.28403 3.48049 0
M  V30 8337 H 803.06 -0.644556 3.92543 0
M  V30 8338 H 799.799 0.90336 6.49245 0
M  V30 8339 H 799.319 -0.722485 5.95433 0
M  V30 8340 H 800.998 -0.405711 6.45727 0
M  V30 8341 N 801.13 -1.57531 -0.0467866 0
M  V30 8342 C 802.093 -2.04379 -1.03738 0
M  V30 8343 C 803.093 -0.944881 -1.3011 0
M  V30 8344 O 804.283 -1.20904 -1.25411 0
M  V30 8345 C 801.415 -2.44572 -2.37482 0
M  V30 8346 H 802.608 -2.93142 -0.633063 0
M  V30 8347 H 800.161 -1.53526 -0.293177 0
M  V30 8348 H 800.896 -1.58911 -2.82697 0
M  V30 8349 H 800.681 -3.24785 -2.19675 0
M  V30 8350 H 802.171 -2.81307 -3.08636 0
M  V30 8351 N 802.608 0.318715 -1.54344 0
M  V30 8352 C 803.538 1.39751 -1.87061 0
M  V30 8353 C 804.519 1.53741 -0.727848 0
M  V30 8354 O 805.704 1.67541 -0.982016 0
M  V30 8355 C 802.834 2.76446 -2.10226 0
M  V30 8356 C 801.788 2.77239 -3.26071 0
M  V30 8357 C 801.114 4.17056 -3.34617 0
M  V30 8358 C 802.414 2.40555 -4.63606 0
M  V30 8359 H 804.108 1.12619 -2.77412 0
M  V30 8360 H 801.654 0.540318 -1.33479 0
M  V30 8361 H 803.607 3.51985 -2.31699 0
M  V30 8362 H 802.331 3.05066 -1.16629 0
M  V30 8363 H 800.99 2.04155 -3.04493 0
M  V30 8364 H 800.638 4.42824 -2.3857 0
M  V30 8365 H 800.338 4.18492 -4.12478 0
M  V30 8366 H 801.862 4.94401 -3.5833 0
M  V30 8367 H 803.276 3.05808 -4.84927 0
M  V30 8368 H 801.673 2.53234 -5.44052 0
M  V30 8369 H 802.743 1.35698 -4.65526 0
M  V30 8370 N 804.086 1.46499 0.581025 0
M  V30 8371 C 805.033 1.5719 1.68997 0
M  V30 8372 C 806.003 0.416114 1.60803 0
M  V30 8373 O 807.188 0.633086 1.79991 0
M  V30 8374 C 804.328 1.56973 3.07333 0
M  V30 8375 C 803.441 2.83298 3.26139 0
M  V30 8376 C 802.576 2.74574 4.54734 0
M  V30 8377 C 801.615 3.9583 4.66889 0
M  V30 8378 N 800.752 3.85482 5.86811 0
M  V30 8379 H 805.592 2.51914 1.59196 0
M  V30 8380 H 803.129 1.24975 0.775857 0
M  V30 8381 H 805.087 1.54832 3.87405 0
M  V30 8382 H 803.717 0.657803 3.16027 0
M  V30 8383 H 802.769 2.95411 2.3966 0
M  V30 8384 H 804.081 3.7316 3.30988 0
M  V30 8385 H 803.235 2.70548 5.43036 0
M  V30 8386 H 801.974 1.82354 4.52325 0
M  V30 8387 H 800.979 4.00186 3.77003 0
M  V30 8388 H 802.204 4.89148 4.71075 0
M  V30 8389 H 800.15 2.96051 5.85397 0
M  V30 8390 H 800.067 4.69002 5.92936 0
M  V30 8391 H 801.335 3.85434 6.7754 0
M  V30 8392 N 805.565 -0.825799 1.34232 0
M  V30 8393 C 806.811 -1.58419 1.26614 0
M  V30 8394 C 807.144 -1.93503 -0.164341 0
M  V30 8395 O 806.419 -1.59785 -1.109 0
M  V30 8396 C 806.702 -2.8856 2.15418 0
M  V30 8397 C 806.555 -2.60075 3.66989 0
M  V30 8398 C 807.874 -3.90107 2.03726 0
M  V30 8399 H 804.993 -0.574794 0.461282 0
M  V30 8400 H 807.635 -0.951519 1.64457 0
M  V30 8401 H 805.785 -3.42553 1.83275 0
M  V30 8402 H 807.457 -2.12414 4.09485 0
M  V30 8403 H 805.7 -1.93565 3.88221 0
M  V30 8404 H 806.371 -3.52866 4.24488 0
M  V30 8405 H 808.847 -3.45459 2.31942 0
M  V30 8406 H 807.723 -4.78976 2.68092 0
M  V30 8407 H 807.984 -4.30329 1.01337 0
M  V30 8408 N 807.043 -1.17915 -1.04565 0
M  V30 8409 C 808.268 -0.996749 -1.81878 0
M  V30 8410 C 808.693 0.450169 -1.82634 0
M  V30 8411 O 808.051 1.32268 -1.23995 0
M  V30 8412 C 808.099 -1.55005 -3.25585 0
M  V30 8413 O 807.203 -0.76804 -4.05185 0
M  V30 8414 H 806.544 -0.353456 -0.562108 0
M  V30 8415 H 809.074 -1.56557 -1.31723 0
M  V30 8416 H 809.084 -1.57503 -3.76373 0
M  V30 8417 H 807.759 -2.60327 -3.2435 0
M  V30 8418 H 806.336 -0.81498 -3.63885 0
M  V30 8419 N 808.521 1.23394 -0.980386 0
M  V30 8420 C 809.453 2.24146 -0.478657 0
M  V30 8421 C 810.466 1.57303 0.419492 0
M  V30 8422 O 811.655 1.77094 0.223631 0
M  V30 8423 C 808.755 3.3732 0.326913 0
M  V30 8424 C 807.928 4.33744 -0.56436 0
M  V30 8425 C 806.987 5.25866 0.187358 0
M  V30 8426 O 806.013 5.67626 -0.423019 0
M  V30 8427 N 807.215 5.61492 1.47335 0
M  V30 8428 H 809.98 2.67826 -1.34496 0
M  V30 8429 H 807.541 1.37566 -0.853653 0
M  V30 8430 H 809.533 3.95926 0.838148 0
M  V30 8431 H 808.103 2.92823 1.09422 0
M  V30 8432 H 807.323 3.73641 -1.25642 0
M  V30 8433 H 808.611 4.95123 -1.17177 0
M  V30 8434 H 808.009 5.29514 1.99077 0
M  V30 8435 H 806.566 6.2257 1.93002 0
M  V30 8436 N 809.999 0.752036 1.385 0
M  V30 8437 C 810.929 0.138718 2.33088 0
M  V30 8438 C 811.91 -0.705318 1.54788 0
M  V30 8439 O 813.095 -0.646821 1.83112 0
M  V30 8440 C 810.225 -0.75641 3.38963 0
M  V30 8441 C 809.179 -0.0152239 4.27997 0
M  V30 8442 C 808.505 -1.0285 5.24715 0
M  V30 8443 C 809.805 1.15226 5.09431 0
M  V30 8444 H 811.499 0.928852 2.84627 0
M  V30 8445 H 809.045 0.448111 1.3685 0
M  V30 8446 H 810.998 -1.19513 4.04097 0
M  V30 8447 H 809.722 -1.57885 2.85902 0
M  V30 8448 H 808.381 0.404061 3.64366 0
M  V30 8449 H 808.029 -1.84496 4.67943 0
M  V30 8450 H 807.729 -0.537238 5.85139 0
M  V30 8451 H 809.253 -1.46657 5.92726 0
M  V30 8452 H 810.667 0.791161 5.67815 0
M  V30 8453 H 809.064 1.57428 5.79082 0
M  V30 8454 H 810.134 1.9659 4.43261 0
M  V30 8455 N 811.477 -1.49425 0.500989 0
M  V30 8456 C 812.409 -2.27037 -0.314159 0
M  V30 8457 C 813.422 -1.33578 -0.930626 0
M  V30 8458 O 814.611 -1.58861 -0.813968 0
M  V30 8459 C 811.711 -3.05968 -1.45729 0
M  V30 8460 C 810.884 -4.27 -0.948135 0
M  V30 8461 C 809.943 -4.87977 -1.96888 0
M  V30 8462 O 808.969 -5.48044 -1.53743 0
M  V30 8463 N 810.171 -4.77627 -3.29928 0
M  V30 8464 H 812.936 -2.97634 0.351336 0
M  V30 8465 H 810.497 -1.58427 0.333536 0
M  V30 8466 H 812.489 -3.43634 -2.1377 0
M  V30 8467 H 811.059 -2.37978 -2.02695 0
M  V30 8468 H 810.279 -3.94091 -0.0926311 0
M  V30 8469 H 811.567 -5.0541 -0.586362 0
M  V30 8470 H 810.965 -4.29926 -3.67669 0
M  V30 8471 H 809.522 -5.19478 -3.93682 0
M  V30 8472 N 812.955 -0.234822 -1.55841 0
M  V30 8473 C 813.865 0.680828 -2.24504 0
M  V30 8474 C 814.881 1.20306 -1.25708 0
M  V30 8475 O 816.057 1.24188 -1.58554 0
M  V30 8476 C 813.122 1.86636 -2.92178 0
M  V30 8477 C 812.183 1.3848 -4.06352 0
M  V30 8478 C 811.416 2.51382 -4.70789 0
M  V30 8479 O 811.639 3.69831 -4.34259 0
M  V30 8480 O 810.573 2.21828 -5.59532 0
M  V30 8481 H 814.399 0.12583 -3.03439 0
M  V30 8482 H 811.984 -0.00381817 -1.494 0
M  V30 8483 H 813.866 2.55845 -3.34845 0
M  V30 8484 H 812.541 2.40921 -2.16192 0
M  V30 8485 H 811.448 0.660341 -3.68226 0
M  V30 8486 H 812.781 0.888177 -4.8412 0
M  V30 8487 N 814.433 1.57553 0.0384317 0
M  V30 8488 C 815.849 1.54663 0.39391 0
M  V30 8489 C 816.049 0.959685 1.77179 0
M  V30 8490 O 815.105 0.576647 2.45827 0
M  V30 8491 C 816.418 2.99156 0.304352 0
M  V30 8492 C 817.966 3.10659 0.382119 0
M  V30 8493 C 818.441 4.56866 0.322111 0
M  V30 8494 N 819.932 4.61629 0.38119 0
M  V30 8495 C 820.667 5.72284 0.357501 0
M  V30 8496 N 820.163 6.92207 0.286654 0
M  V30 8497 N 821.956 5.60628 0.406538 0
M  V30 8498 H 814.107 1.9406 -0.86339 0
M  V30 8499 H 816.37 0.889673 -0.327392 0
M  V30 8500 H 816.076 3.45788 -0.642141 0
M  V30 8501 H 815.95 3.60753 1.10168 0
M  V30 8502 H 818.337 2.6398 1.31904 0
M  V30 8503 H 818.418 2.5191 -0.444391 0
M  V30 8504 H 818.062 5.0421 -0.611104 0
M  V30 8505 H 817.992 5.13515 1.1666 0
M  V30 8506 H 820.483 3.75343 0.438838 0
M  V30 8507 H 820.796 7.72316 0.273421 0
M  V30 8508 H 819.141 6.9454 0.252841 0
M  V30 8509 H 822.332 4.65836 0.459812 0
M  V30 8510 H 822.505 6.46858 0.384608 0
M  V30 8511 N 815.911 -0.310526 1.54511 0
M  V30 8512 C 817.139 -1.06611 1.77318 0
M  V30 8513 C 817.554 -1.81265 0.528043 0
M  V30 8514 O 816.911 -1.75466 -0.50178 0
M  V30 8515 C 816.962 -2.05409 2.97472 0
M  V30 8516 O 816.683 -1.33785 4.17173 0
M  V30 8517 C 818.184 -2.93082 3.32593 0
M  V30 8518 H 815.404 -0.316578 0.591624 0
M  V30 8519 H 817.948 -0.352691 2.01436 0
M  V30 8520 H 816.103 -2.72266 2.7559 0
M  V30 8521 H 816.517 -2.00055 4.84849 0
M  V30 8522 H 817.991 -3.58274 4.19933 0
M  V30 8523 H 818.468 -3.60877 2.50329 0
M  V30 8524 H 819.074 -2.31768 3.566 0
M  V30 8525 N 817.389 -1.46805 -0.573248 0
M  V30 8526 C 818.637 -1.52302 -1.32847 0
M  V30 8527 C 818.958 -0.180159 -1.94166 0
M  V30 8528 O 818.228 0.794291 -1.79075 0
M  V30 8529 H 816.808 -0.56097 -0.493276 0
M  V30 8530 H 819.47 -1.82998 -0.670642 0
M  V30 8531 H 818.566 -2.28089 -2.13031 0
M  V30 8532 N 818.867 0.818669 -1.34668 0
M  V30 8533 C 820.283 1.11243 -1.14443 0
M  V30 8534 C 820.483 2.01435 0.0512212 0
M  V30 8535 O 819.539 2.41854 0.725471 0
M  V30 8536 C 820.852 1.75504 -2.4417 0
M  V30 8537 C 822.4 1.8798 -2.50265 0
M  V30 8538 C 822.875 2.55657 -3.80004 0
M  V30 8539 N 824.366 2.63153 -3.81189 0
M  V30 8540 C 825.101 3.16258 -4.78298 0
M  V30 8541 N 824.597 3.69893 -5.85791 0
M  V30 8542 N 826.39 3.14698 -4.65748 0
M  V30 8543 H 818.541 0.218848 -2.1127 0
M  V30 8544 H 820.804 0.159655 -0.934459 0
M  V30 8545 H 820.51 1.16697 -3.31775 0
M  V30 8546 H 820.384 2.75329 -2.57825 0
M  V30 8547 H 822.771 2.45934 -1.63096 0
M  V30 8548 H 822.852 0.870447 -2.40535 0
M  V30 8549 H 822.496 1.98356 -4.67565 0
M  V30 8550 H 822.426 3.57105 -3.87019 0
M  V30 8551 H 824.917 2.2514 -3.03513 0
M  V30 8552 H 825.23 4.08678 -6.55898 0
M  V30 8553 H 823.575 3.68125 -5.89499 0
M  V30 8554 H 826.766 2.72066 -3.80917 0
M  V30 8555 H 826.939 3.5578 -5.41594 0
M  V30 8556 N 820.346 1.18468 1.03938 0
M  V30 8557 C 821.574 1.00576 1.80809 0
M  V30 8558 C 821.989 -0.445786 1.83462 0
M  V30 8559 O 821.346 -1.30964 1.27101 0
M  V30 8560 C 821.397 1.55491 3.26351 0
M  V30 8561 O 821.118 2.94963 3.23926 0
M  V30 8562 C 822.619 1.42236 4.19862 0
M  V30 8563 H 819.839 0.35508 0.56935 0
M  V30 8564 H 822.383 1.57046 1.30984 0
M  V30 8565 H 820.538 1.03195 3.73403 0
M  V30 8566 H 820.952 3.20598 4.15111 0
M  V30 8567 H 822.426 1.85455 5.19914 0
M  V30 8568 H 822.903 0.371267 4.37628 0
M  V30 8569 H 823.509 1.9361 3.78675 0
M  V30 8570 N 821.824 -1.22873 0.986916 0
M  V30 8571 C 822.787 -2.2281 0.537442 0
M  V30 8572 C 823.787 -1.56331 -0.37646 0
M  V30 8573 O 824.977 -1.73376 -0.169247 0
M  V30 8574 C 822.109 -3.40195 -0.219082 0
M  V30 8575 H 823.302 -2.64089 1.42116 0
M  V30 8576 H 820.855 -1.35819 0.773488 0
M  V30 8577 H 821.59 -3.04381 -1.11905 0
M  V30 8578 H 821.375 -3.89657 0.437026 0
M  V30 8579 H 822.865 -4.14326 -0.521926 0
M  V30 8580 N 823.302 -0.75937 -1.38099 0
M  V30 8581 C 824.713 -0.385078 -1.82686 0
M  V30 8582 C 825.064 1.0871 -1.6333 0
M  V30 8583 O 824.189 1.84084 -1.13762 0
M  V30 8584 C 824.784 -0.692161 -3.31654 0
M  V30 8585 C 823.343 -0.371077 -3.74566 0
M  V30 8586 C 822.49 -0.942375 -2.60796 0
M  V30 8587 H 825.441 -0.955048 -1.26746 0
M  V30 8588 H 825.462 0.0276001 -3.8049 0
M  V30 8589 H 824.974 -1.76369 -3.4571 0
M  V30 8590 H 823.075 0.693637 -3.66087 0
M  V30 8591 H 823.188 -0.870672 -4.71122 0
M  V30 8592 H 821.552 -0.367383 -2.52036 0
M  V30 8593 H 822.335 -2.01905 -2.77649 0
M  V30 8594 N 824.78 1.49157 -0.508906 0
M  V30 8595 C 826.008 2.06879 0.0293734 0
M  V30 8596 C 826.423 1.36823 1.30095 0
M  V30 8597 O 825.78 0.449034 1.7689 0
M  V30 8598 C 825.831 3.60423 0.278791 0
M  V30 8599 O 825.552 4.27844 -0.942389 0
M  V30 8600 C 827.053 4.34881 0.859825 0
M  V30 8601 H 824.273 0.67057 -0.0240184 0
M  V30 8602 H 826.817 1.91834 -0.708526 0
M  V30 8603 H 824.972 3.75145 0.966689 0
M  V30 8604 H 825.386 5.19671 -0.710097 0
M  V30 8605 H 826.86 5.43161 0.983884 0
M  V30 8606 H 827.337 3.9789 1.85958 0
M  V30 8607 H 827.943 4.24785 0.209152 0
M  V30 8608 N 826.258 0.243083 1.55714 0
M  V30 8609 C 827.504 -0.383287 1.99145 0
M  V30 8610 C 827.837 -1.57868 1.13098 0
M  V30 8611 O 827.112 -1.93535 0.193509 0
M  V30 8612 C 827.395 -0.796879 3.51172 0
M  V30 8613 C 827.248 0.403642 4.47985 0
M  V30 8614 C 828.567 -1.64525 4.08191 0
M  V30 8615 H 825.686 -0.137843 0.723995 0
M  V30 8616 H 828.328 0.343631 1.86867 0
M  V30 8617 H 826.478 -1.41625 3.61766 0
M  V30 8618 H 828.15 1.04204 4.49376 0
M  V30 8619 H 826.393 1.04741 4.20965 0
M  V30 8620 H 827.064 0.0709794 5.51954 0
M  V30 8621 H 829.54 -1.12246 4.00674 0
M  V30 8622 H 828.416 -1.9035 5.14838 0
M  V30 8623 H 828.677 -2.61582 3.56409 0
M  V30 8624 N 827.736 -1.57571 -0.0300757 0
M  V30 8625 C 828.985 -1.88407 -0.720126 0
M  V30 8626 C 829.298 -0.841466 -1.76575 0
M  V30 8627 O 830.504 -1.03902 -2.50832 0
M  V30 8628 C 828.96 -3.34348 -1.33188 0
M  V30 8629 C 828.568 -4.46837 -0.32266 0
M  V30 8630 C 830.312 -3.74333 -2.00187 0
M  V30 8631 C 828.219 -5.83838 -0.942703 0
M  V30 8632 H 827.149 -0.702952 -0.272718 0
M  V30 8633 H 829.8 -1.83482 0.0255337 0
M  V30 8634 H 828.182 -3.34014 -2.12721 0
M  V30 8635 H 829.356 -4.58638 0.445887 0
M  V30 8636 H 827.671 -4.15678 0.245181 0
M  V30 8637 H 830.268 -4.74008 -2.47428 0
M  V30 8638 H 830.611 -3.06275 -2.81959 0
M  V30 8639 H 831.144 -3.76837 -1.2743 0
M  V30 8640 H 827.883 -6.55294 -0.164413 0
M  V30 8641 H 827.403 -5.75759 -1.68111 0
M  V30 8642 H 829.082 -6.30535 -1.45034 0
M  V30 8643 N 829.214 0.302327 -1.54673 0
M  V30 8644 C 830.442 1.05669 -1.77881 0
M  V30 8645 C 830.857 1.80983 -0.537648 0
M  V30 8646 O 830.214 1.7573 0.492467 0
M  V30 8647 C 830.265 2.03828 -2.98557 0
M  V30 8648 O 829.986 1.3157 -4.17877 0
M  V30 8649 C 831.487 2.91314 -3.34143 0
M  V30 8650 H 828.707 0.313436 -0.593295 0
M  V30 8651 H 831.251 0.342003 -2.0162 0
M  V30 8652 H 829.406 2.70801 -2.7703 0
M  V30 8653 H 829.82 1.97481 -4.85903 0
M  V30 8654 H 831.294 3.56042 -4.21827 0
M  V30 8655 H 831.771 3.59544 -2.52239 0
M  V30 8656 H 832.377 2.29874 -3.57824 0
M  V30 8657 O 830.731 1.55155 0.448226 0
M  V30 8658 H 831.422 1.59293 1.10206 0
M  V30 END ATOM
M  V30 BEGIN BOND
M  V30 END BOND
M  V30 END CTAB
M  END
$$$$
