drugbank_target|P22001 Potassium voltage-gated channel subfamily A member 3 (DB00228; DB01069; DB01110)
 OpenBabel12092120583D

  0  0  0     0  0            999 V3000
M  V30 BEGIN CTAB
M  V30 COUNTS 8913 9027 0 0 0
M  V30 BEGIN ATOM
M  V30 1 H -0.908 1.98254 -0.117106 0
M  V30 2 N 0 1.576 0 0
M  V30 3 C 0.933 2.03868 1.02534 0
M  V30 4 C 1.911 0.928543 1.3348 0
M  V30 5 O 3.095 1.19667 1.45644 0
M  V30 6 C 0.222 2.43627 2.35294 0
M  V30 7 C -0.732 3.65373 2.2001 0
M  V30 8 S 0.101 5.13292 1.52614 0
M  V30 9 C 1.257 5.56322 2.86805 0
M  V30 10 H 1.49 2.90518 0.631377 0
M  V30 11 H -0.977 1.52953 0.210867 0
M  V30 12 H 0.981 2.67203 3.11629 0
M  V30 13 H -0.358 1.57376 2.7183 0
M  V30 14 H -1.165 3.90944 3.18086 0
M  V30 15 H -1.563 3.418 1.51819 0
M  V30 16 H 0.729 5.58782 3.83104 0
M  V30 17 H 1.672 6.56266 2.65933 0
M  V30 18 H 2.08 4.83886 2.90714 0
M  V30 19 N 1.4781 -0.272755 1.55222 0
M  V30 20 C 2.7551 -1.02562 1.66555 0
M  V30 21 C 3.1351 -2.04282 0.532189 0
M  V30 22 O 2.4831 -2.23662 -0.467717 0
M  V30 23 C 2.6931 -1.6822 3.05782 0
M  V30 24 C 4.0411 -2.19373 3.63539 0
M  V30 25 O 5.0651 -1.78206 3.08417 0
M  V30 26 O 3.9241 -2.94883 4.60115 0
M  V30 27 H 1.0181 -0.475755 0.676451 0
M  V30 28 H 3.5641 -0.268593 1.67561 0
M  V30 29 H 2.3361 -0.945112 3.79715 0
M  V30 30 H 1.9591 -2.50609 3.08676 0
M  V30 31 N 2.9562 -1.48159 -0.537278 0
M  V30 32 C 3.8662 -1.64807 -1.6696 0
M  V30 33 C 4.8822 -0.530651 -1.65711 0
M  V30 34 O 6.0582 -0.800784 -1.84796 0
M  V30 35 C 3.1232 -1.67708 -3.03438 0
M  V30 36 C 2.1842 -2.91025 -3.156 0
M  V30 37 C 1.4172 -2.93778 -4.45567 0
M  V30 38 O 1.6402 -2.05153 -5.3223 0
M  V30 39 O 0.5742 -3.85868 -4.61941 0
M  V30 40 H 4.4002 -2.6066 -1.55853 0
M  V30 41 H 1.9852 -1.31475 -0.709549 0
M  V30 42 H 3.8672 -1.7218 -3.84619 0
M  V30 43 H 2.5422 -0.750278 -3.14885 0
M  V30 44 H 1.4492 -2.92089 -2.33741 0
M  V30 45 H 2.7822 -3.83065 -3.09066 0
M  V30 46 N 4.4343 0.785586 -1.36625 0
M  V30 47 C 5.8503 1.08419 -1.17122 0
M  V30 48 C 6.0503 2.015 0.00208491 0
M  V30 49 O 5.1063 2.43551 0.666278 0
M  V30 50 C 6.4193 1.69498 -2.48377 0
M  V30 51 C 7.9673 1.81821 -2.54775 0
M  V30 52 C 8.4423 2.46315 -3.86126 0
M  V30 53 N 9.9333 2.53779 -3.87492 0
M  V30 54 C 10.6683 3.045 -4.85868 0
M  V30 55 N 10.1643 3.55499 -5.94637 0
M  V30 56 N 11.9573 3.03247 -4.73284 0
M  V30 57 H 4.1083 0.167264 -2.1174 0
M  V30 58 H 6.3713 0.13682 -0.938075 0
M  V30 59 H 6.0773 1.08571 -3.34522 0
M  V30 60 H 5.9513 2.6896 -2.64462 0
M  V30 61 H 8.3383 2.41884 -1.69045 0
M  V30 62 H 8.4193 0.811532 -2.42586 0
M  V30 63 H 8.0633 1.86895 -4.72263 0
M  V30 64 H 7.9933 3.47561 -3.95612 0
M  V30 65 H 10.4843 2.17672 -3.08913 0
M  V30 66 H 10.7973 3.92562 -6.65669 0
M  V30 67 H 9.1423 3.5364 -5.98301 0
M  V30 68 H 12.3333 2.62696 -3.87438 0
M  V30 69 H 12.5063 3.42467 -5.50109 0
M  V30 70 N 5.9124 1.20967 1.01018 0
M  V30 71 C 6.8424 0.988272 2.11555 0
M  V30 72 C 7.8234 -0.0849778 1.69888 0
M  V30 73 O 9.0084 0.0738202 1.9406 0
M  V30 74 C 6.1384 0.546528 3.42973 0
M  V30 75 C 5.0924 1.56375 3.9841 0
M  V30 76 C 4.4184 0.97842 5.25672 0
M  V30 77 C 5.7184 2.94922 4.31066 0
M  V30 78 H 7.4124 1.91276 2.30334 0
M  V30 79 H 4.9584 0.921073 1.1069 0
M  V30 80 H 6.9114 0.378839 4.19694 0
M  V30 81 H 5.6354 -0.413598 3.23971 0
M  V30 82 H 4.2944 1.71891 3.23804 0
M  V30 83 H 3.9424 0.0101688 5.02999 0
M  V30 84 H 3.6424 1.65784 5.63728 0
M  V30 85 H 5.1664 0.821939 6.05043 0
M  V30 86 H 6.5804 2.8288 4.9865 0
M  V30 87 H 4.9774 3.5983 4.80253 0
M  V30 88 H 6.0474 3.4616 3.39561 0
M  V30 89 N 7.3905 -1.2043 1.01659 0
M  V30 90 C 8.6155 -1.94318 0.724942 0
M  V30 91 C 9.0405 -1.74266 -0.708034 0
M  V30 92 O 8.3985 -1.03694 -1.48719 0
M  V30 93 C 8.4465 -3.44486 1.06591 0
M  V30 94 O 7.5505 -4.12017 0.177599 0
M  V30 95 H 6.8915 -0.60708 0.26898 0
M  V30 96 H 9.4215 -1.52861 1.35995 0
M  V30 97 H 9.4315 -3.95106 1.01762 0
M  V30 98 H 8.1065 -3.58404 2.10997 0
M  V30 99 H 6.6835 -3.71821 0.283421 0
M  V30 100 N 8.8686 -0.792821 -1.36206 0
M  V30 101 C 9.7986 -0.207853 -2.32573 0
M  V30 102 C 10.7796 0.659055 -1.56813 0
M  V30 103 O 11.9646 0.592176 -1.84951 0
M  V30 104 C 9.0946 0.655449 -3.41059 0
M  V30 105 C 8.0486 -0.111842 -4.27854 0
M  V30 106 C 7.3746 0.872274 -5.27537 0
M  V30 107 C 8.6746 -1.30299 -5.05786 0
M  V30 108 H 10.3686 -1.01294 -2.81744 0
M  V30 109 H 7.9146 -0.48854 -1.3546 0
M  V30 110 H 9.8676 1.07464 -4.07467 0
M  V30 111 H 8.5916 1.49328 -2.90463 0
M  V30 112 H 7.2506 -0.512053 -3.63006 0
M  V30 113 H 6.8986 1.70523 -4.73214 0
M  V30 114 H 6.5986 0.363291 -5.86476 0
M  V30 115 H 8.1226 1.28996 -5.96818 0
M  V30 116 H 9.5366 -0.959379 -5.65216 0
M  V30 117 H 7.9336 -1.7455 -5.74154 0
M  V30 118 H 9.0036 -2.09663 -4.37229 0
M  V30 119 N 10.3467 1.47872 -0.545128 0
M  V30 120 C 11.2767 2.32661 0.197793 0
M  V30 121 C 12.2577 1.43041 0.920504 0
M  V30 122 O 13.4427 1.71912 0.90333 0
M  V30 123 C 10.5727 3.24569 1.23582 0
M  V30 124 C 9.5267 4.23333 0.630323 0
M  V30 125 C 8.8527 5.0448 1.77211 0
M  V30 126 C 10.1527 5.20704 -0.407974 0
M  V30 127 H 11.8467 2.95024 -0.510045 0
M  V30 128 H 9.3927 1.4187 -0.246731 0
M  V30 129 H 11.3457 3.8272 1.76362 0
M  V30 130 H 10.0697 2.60236 1.97344 0
M  V30 131 H 8.7287 3.6639 0.123922 0
M  V30 132 H 8.3767 4.36561 2.49847 0
M  V30 133 H 8.0767 5.71339 1.37281 0
M  V30 134 H 9.6007 5.65487 2.3034 0
M  V30 135 H 11.0147 5.7329 0.033305 0
M  V30 136 H 9.4117 5.95699 -0.725486 0
M  V30 137 H 10.4817 4.66917 -1.30828 0
M  V30 138 N 11.8248 0.280983 1.55075 0
M  V30 139 C 13.2408 -0.0729964 1.59433 0
M  V30 140 C 13.4408 -1.5411 1.29817 0
M  V30 141 O 12.4968 -2.29086 1.06187 0
M  V30 142 C 13.8098 0.306921 2.9913 0
M  V30 143 C 15.3578 0.254023 3.11968 0
M  V30 144 C 15.8328 0.608467 4.5394 0
M  V30 145 N 17.3238 0.560241 4.59799 0
M  V30 146 C 18.0588 0.80722 5.6769 0
M  V30 147 N 17.5548 1.11912 6.83701 0
M  V30 148 N 19.3478 0.735623 5.57266 0
M  V30 149 H 11.4988 1.238 1.7259 0
M  V30 150 H 13.7618 0.500547 0.805082 0
M  V30 151 H 13.4678 1.32816 3.25657 0
M  V30 152 H 13.3418 -0.349363 3.75579 0
M  V30 153 H 15.7288 -0.75794 2.852 0
M  V30 154 H 15.8098 0.944649 2.37718 0
M  V30 155 H 15.4538 1.61814 4.81434 0
M  V30 156 H 15.3838 -0.104013 5.26497 0
M  V30 157 H 17.8748 0.329288 3.76463 0
M  V30 158 H 18.1878 1.29409 7.61888 0
M  V30 159 H 16.5328 1.15695 6.85303 0
M  V30 160 H 19.7238 0.491752 4.6551 0
M  V30 161 H 19.8968 0.931482 6.4127 0
M  V30 162 N 13.3029 -1.57598 0.00835791 0
M  V30 163 C 14.5279 -1.95617 -0.689103 0
M  V30 164 C 14.9529 -0.883753 -1.66046 0
M  V30 165 O 14.3109 0.157352 -1.80616 0
M  V30 166 C 14.3589 -3.32736 -1.38994 0
M  V30 167 O 13.4629 -3.27631 -2.50463 0
M  V30 168 H 12.8039 -0.638379 -0.182668 0
M  V30 169 H 15.3339 -2.045 0.064036 0
M  V30 170 H 15.3439 -3.68494 -1.75147 0
M  V30 171 H 14.0189 -4.1034 -0.677778 0
M  V30 172 H 12.5959 -3.03561 -2.16576 0
M  V30 173 N 14.781 0.264519 -1.55364 0
M  V30 174 C 16.192 0.834936 -1.6699 0
M  V30 175 C 16.543 1.86718 -0.602552 0
M  V30 176 O 15.668 2.14899 0.254425 0
M  V30 177 C 16.263 1.5212 -3.02729 0
M  V30 178 C 14.822 2.03954 -3.16354 0
M  V30 179 C 13.969 0.884498 -2.62815 0
M  V30 180 H 16.92 0.0406869 -1.58648 0
M  V30 181 H 16.941 2.38853 -2.96191 0
M  V30 182 H 16.453 0.769668 -3.80392 0
M  V30 183 H 14.554 2.82041 -2.43482 0
M  V30 184 H 14.667 2.24902 -4.23032 0
M  V30 185 H 13.031 1.2802 -2.20188 0
M  V30 186 H 13.814 0.14634 -3.42988 0
M  V30 187 N 16.2591 1.48442 0.529413 0
M  V30 188 C 17.6701 1.5002 1.11134 0
M  V30 189 C 18.0211 0.27031 1.94329 0
M  V30 190 O 17.1461 -0.622507 2.07253 0
M  V30 191 C 17.7411 2.71834 2.02217 0
M  V30 192 C 16.3001 2.76283 2.55627 0
M  V30 193 C 15.4471 2.43542 1.326 0
M  V30 194 H 18.3981 1.5555 0.314641 0
M  V30 195 H 18.4191 2.50384 2.8651 0
M  V30 196 H 17.9311 3.61331 1.41639 0
M  V30 197 H 16.0321 1.90995 3.19924 0
M  V30 198 H 16.1451 3.77725 2.94721 0
M  V30 199 H 14.5091 1.94709 1.64196 0
M  V30 200 H 15.2921 3.3528 0.737734 0
M  V30 201 N 17.7372 -0.778329 1.37039 0
M  V30 202 C 19.1482 -1.35421 1.28523 0
M  V30 203 C 19.4992 -1.96075 -0.0700901 0
M  V30 204 O 18.6242 -1.93352 -0.971801 0
M  V30 205 C 19.2192 -2.46211 2.32735 0
M  V30 206 C 17.7782 -2.99585 2.27873 0
M  V30 207 C 16.9252 -1.72748 2.16918 0
M  V30 208 H 19.8762 -0.5791 1.47757 0
M  V30 209 H 19.8972 -3.2552 1.9702 0
M  V30 210 H 19.4092 -2.02036 3.31365 0
M  V30 211 H 17.5102 -3.48152 1.32745 0
M  V30 212 H 17.6232 -3.55646 3.21018 0
M  V30 213 H 15.9872 -1.95416 1.63354 0
M  V30 214 H 16.7702 -1.30686 3.17452 0
M  V30 215 N 19.2153 -1.21501 -1.00376 0
M  V30 216 C 20.6263 -1.03146 -1.55621 0
M  V30 217 C 20.9773 0.408375 -1.91903 0
M  V30 218 O 20.1023 1.29177 -1.73616 0
M  V30 219 C 20.6973 -1.86612 -2.82775 0
M  V30 220 C 19.2563 -1.72586 -3.34501 0
M  V30 221 C 18.4033 -1.83747 -2.07683 0
M  V30 222 H 21.3543 -1.35505 -0.826081 0
M  V30 223 H 21.3753 -1.3771 -3.54706 0
M  V30 224 H 20.8873 -2.91399 -2.56336 0
M  V30 225 H 18.9883 -0.704877 -3.65872 0
M  V30 226 H 19.1013 -2.54623 -4.05837 0
M  V30 227 H 17.4653 -1.27069 -2.20739 0
M  V30 228 H 18.2483 -2.90044 -1.83655 0
M  V30 229 N 20.6934 1.19889 -1.02296 0
M  V30 230 C 21.9184 1.9393 -0.735237 0
M  V30 231 C 22.3434 1.74639 0.698782 0
M  V30 232 O 21.7014 1.04481 1.48167 0
M  V30 233 C 21.7494 3.43916 -1.08417 0
M  V30 234 O 20.8534 4.11917 -0.199446 0
M  V30 235 H 20.1944 0.605645 -0.272196 0
M  V30 236 H 22.7244 1.52137 -1.36804 0
M  V30 237 H 22.7344 3.9456 -1.03856 0
M  V30 238 H 21.4094 3.5728 -2.12894 0
M  V30 239 H 19.9864 3.71666 -0.303136 0
M  V30 240 N 22.1715 0.800033 1.35784 0
M  V30 241 C 23.1345 0.211565 2.28221 0
M  V30 242 C 24.1345 -0.59728 1.49296 0
M  V30 243 O 25.3245 -0.416721 1.69142 0
M  V30 244 C 22.4565 -0.705846 3.33513 0
M  V30 245 H 23.6495 1.02677 2.81776 0
M  V30 246 H 21.2025 0.570211 1.45528 0
M  V30 247 H 21.9375 -1.54498 2.85133 0
M  V30 248 H 21.7225 -0.127655 3.91892 0
M  V30 249 H 23.2125 -1.11211 4.02519 0
M  V30 250 N 23.6496 -1.47581 0.552962 0
M  V30 251 C 25.0656 -1.5818 0.212424 0
M  V30 252 C 25.2656 -1.55213 -1.28496 0
M  V30 253 O 24.3216 -1.45329 -2.06484 0
M  V30 254 C 25.6346 -2.88865 0.835318 0
M  V30 255 C 27.1826 -3.0244 0.806156 0
M  V30 256 C 27.6576 -4.35819 1.40804 0
M  V30 257 N 29.1486 -4.42444 1.37103 0
M  V30 258 C 29.8836 -5.44202 1.80641 0
M  V30 259 N 29.3796 -6.52795 2.32015 0
M  V30 260 N 31.1726 -5.35222 1.71738 0
M  V30 261 H 23.3236 -1.47753 1.52587 0
M  V30 262 H 25.5866 -0.702941 0.636064 0
M  V30 263 H 25.2926 -2.9676 1.88749 0
M  V30 264 H 25.1666 -3.7579 0.325848 0
M  V30 265 H 27.5536 -2.94144 -0.237317 0
M  V30 266 H 27.6346 -2.17068 1.35334 0
M  V30 267 H 27.2786 -4.44871 2.45056 0
M  V30 268 H 27.2086 -5.19916 0.836338 0
M  V30 269 H 29.6996 -3.6456 0.995202 0
M  V30 270 H 30.0126 -7.26609 2.63171 0
M  V30 271 H 28.3576 -6.53696 2.36023 0
M  V30 272 H 31.5486 -4.49284 1.31382 0
M  V30 273 H 31.7216 -6.14389 2.05987 0
M  V30 274 N 25.1277 -0.289203 -1.54924 0
M  V30 275 C 26.0777 0.606939 -2.19773 0
M  V30 276 C 27.0617 1.10783 -1.16687 0
M  V30 277 O 28.2537 1.05057 -1.4245 0
M  V30 278 C 25.3827 1.78398 -2.93307 0
M  V30 279 C 24.4687 1.29961 -4.03697 0
M  V30 280 N 24.8597 0.532377 -5.0299 0
M  V30 281 C 23.1577 1.58136 -4.17024 0
M  V30 282 C 23.8587 0.275912 -5.81045 0
M  V30 283 N 22.8347 0.852365 -5.36876 0
M  V30 284 H 26.6367 0.0130779 -2.93897 0
M  V30 285 H 24.1507 -0.09341 -1.62131 0
M  V30 286 H 26.1477 2.43741 -3.38225 0
M  V30 287 H 24.8077 2.38166 -2.20697 0
M  V30 288 H 25.8187 0.17838 -5.17593 0
M  V30 289 H 22.4957 2.18738 -3.55612 0
M  V30 290 H 23.8857 -0.339502 -6.71042 0
M  V30 291 N 26.6058 1.57591 -0.0167156 0
M  V30 292 C 28.0218 1.55946 0.339557 0
M  V30 293 C 28.2218 1.02109 1.73713 0
M  V30 294 O 27.2778 0.662303 2.43659 0
M  V30 295 C 28.5908 3.00037 0.199499 0
M  V30 296 C 30.1388 3.11805 0.273193 0
M  V30 297 C 30.6138 4.57713 0.162068 0
M  V30 298 N 32.1048 4.6268 0.219444 0
M  V30 299 C 32.8398 5.73185 0.157054 0
M  V30 300 N 32.3358 6.92786 0.0442936 0
M  V30 301 N 34.1288 5.61707 0.21014 0
M  V30 302 H 26.2798 1.90921 -0.930758 0
M  V30 303 H 28.5428 0.877674 -0.358319 0
M  V30 304 H 28.2488 3.4333 -0.76273 0
M  V30 305 H 28.1228 3.64387 0.974786 0
M  V30 306 H 30.5098 2.68433 1.22587 0
M  V30 307 H 30.5908 2.50201 -0.532256 0
M  V30 308 H 30.2348 5.01763 -0.78714 0
M  V30 309 H 30.1648 5.17283 0.986222 0
M  V30 310 H 32.6558 3.76649 0.307246 0
M  V30 311 H 32.9688 7.728 0.00304069 0
M  V30 312 H 31.3138 6.94999 0.00968457 0
M  V30 313 H 34.5048 4.6716 0.296546 0
M  V30 314 H 34.6778 6.47807 0.158054 0
M  V30 315 N 28.0839 -0.256276 1.55502 0
M  V30 316 C 29.0469 -1.30047 1.88734 0
M  V30 317 C 30.0469 -1.4154 0.763086 0
M  V30 318 O 31.2369 -1.40403 1.03115 0
M  V30 319 C 28.3689 -2.67953 2.10747 0
M  V30 320 H 29.5619 -1.01802 2.82093 0
M  V30 321 H 27.1149 -0.495134 1.4825 0
M  V30 322 H 27.8499 -3.01351 1.19825 0
M  V30 323 H 27.6349 -2.60993 2.92617 0
M  V30 324 H 29.1249 -3.43368 2.37673 0
M  V30 325 N 29.562 -1.4872 -0.521534 0
M  V30 326 C 30.512 -1.60269 -1.62166 0
M  V30 327 C 31.496 -0.45935 -1.54204 0
M  V30 328 O 32.688 -0.711241 -1.62081 0
M  V30 329 C 29.817 -1.65344 -3.00859 0
M  V30 330 C 28.903 -2.85187 -3.13894 0
M  V30 331 N 29.294 -4.09509 -2.96877 0
M  V30 332 C 27.592 -2.82695 -3.44963 0
M  V30 333 C 28.293 -4.89959 -3.13552 0
M  V30 334 N 27.269 -4.22934 -3.41508 0
M  V30 335 H 31.071 -2.5413 -1.47632 0
M  V30 336 H 28.585 -1.45209 -0.727194 0
M  V30 337 H 30.582 -1.71713 -3.79895 0
M  V30 338 H 29.242 -0.726058 -3.16478 0
M  V30 339 H 30.253 -4.39814 -2.73467 0
M  V30 340 H 26.93 -1.99249 -3.66887 0
M  V30 341 H 28.32 -5.98654 -3.05061 0
M  V30 342 N 31.0401 0.771051 -1.3745 0
M  V30 343 C 32.4511 1.34737 -1.29239 0
M  V30 344 C 32.8021 1.96109 0.0596908 0
M  V30 345 O 31.9271 1.93865 0.961534 0
M  V30 346 C 32.5221 2.44973 -2.34037 0
M  V30 347 C 31.0811 2.98372 -2.29458 0
M  V30 348 C 30.2281 1.71595 -2.17831 0
M  V30 349 H 33.1791 0.571256 -1.48062 0
M  V30 350 H 33.2001 3.24471 -1.98744 0
M  V30 351 H 32.7121 2.00276 -3.32432 0
M  V30 352 H 30.8131 3.47443 -1.34589 0
M  V30 353 H 30.9261 3.53939 -3.229 0
M  V30 354 H 29.2901 1.94547 -1.64388 0
M  V30 355 H 30.0731 1.29001 -3.18141 0
M  V30 356 N 32.5182 1.22032 0.997298 0
M  V30 357 C 33.9292 1.0397 1.55071 0
M  V30 358 C 34.2802 -0.398192 1.92117 0
M  V30 359 O 33.4052 -1.28254 1.74298 0
M  V30 360 C 34.0002 1.88109 2.81781 0
M  V30 361 C 32.5592 1.74357 3.33581 0
M  V30 362 C 31.7062 1.84846 2.06706 0
M  V30 363 H 34.6572 1.35941 0.818883 0
M  V30 364 H 34.6782 1.39589 3.53971 0
M  V30 365 H 34.1902 2.92754 2.54787 0
M  V30 366 H 32.2912 0.72427 3.65493 0
M  V30 367 H 32.4042 2.56772 4.04481 0
M  V30 368 H 30.7682 1.28238 2.20062 0
M  V30 369 H 31.5512 2.91014 1.82114 0
M  V30 370 N 33.9963 -1.19345 1.0293 0
M  V30 371 C 34.9283 -2.22036 0.56857 0
M  V30 372 C 35.9413 -1.58865 -0.355779 0
M  V30 373 O 37.1303 -1.77851 -0.152103 0
M  V30 374 C 34.2303 -3.38363 -0.190752 0
M  V30 375 C 33.4033 -4.31118 0.738643 0
M  V30 376 C 32.4623 -5.26194 0.0246497 0
M  V30 377 O 31.4883 -5.65461 0.651354 0
M  V30 378 N 32.6903 -5.66971 -1.24594 0
M  V30 379 H 35.4553 -2.6219 1.45177 0
M  V30 380 H 33.0163 -1.34015 0.908381 0
M  V30 381 H 35.0083 -3.98981 -0.677961 0
M  V30 382 H 33.5783 -2.96994 -0.975366 0
M  V30 383 H 32.7983 -3.68276 1.40593 0
M  V30 384 H 34.0863 -4.90001 1.37029 0
M  V30 385 H 33.4843 -5.37104 -1.77583 0
M  V30 386 H 32.0413 -6.2984 -1.67764 0
M  V30 387 N 35.4744 -0.807222 -1.35358 0
M  V30 388 C 36.8904 -0.491038 -1.51858 0
M  V30 389 C 37.0904 0.987648 -1.75635 0
M  V30 390 O 36.1464 1.77265 -1.79815 0
M  V30 391 C 37.4594 -1.33695 -2.69344 0
M  V30 392 C 39.0074 -1.33246 -2.83222 0
M  V30 393 C 39.4824 -2.1625 -4.03733 0
M  V30 394 N 40.9734 -2.1379 -4.10911 0
M  V30 395 C 41.7084 -2.74772 -5.03277 0
M  V30 396 N 41.2044 -3.44684 -6.0097 0
M  V30 397 N 42.9974 -2.6441 -4.96028 0
M  V30 398 H 35.1484 -1.76485 -1.18181 0
M  V30 399 H 37.4114 -0.751199 -0.578276 0
M  V30 400 H 37.1174 -2.38634 -2.58354 0
M  V30 401 H 36.9914 -0.990618 -3.6396 0
M  V30 402 H 39.3784 -0.290911 -2.93663 0
M  V30 403 H 39.4594 -1.71866 -1.89461 0
M  V30 404 H 39.1034 -3.20445 -3.94052 0
M  V30 405 H 39.0334 -1.74989 -4.96675 0
M  V30 406 H 41.5244 -1.62923 -3.40976 0
M  V30 407 H 41.8374 -3.88501 -6.68047 0
M  V30 408 H 40.1824 -3.48788 -6.01142 0
M  V30 409 H 43.3734 -2.0938 -4.18662 0
M  V30 410 H 43.5464 -3.12225 -5.6782 0
M  V30 411 N 36.9525 1.47285 -0.560781 0
M  V30 412 C 38.3635 1.86258 -0.128343 0
M  V30 413 C 38.7145 1.46699 1.30284 0
M  V30 414 O 37.8395 0.871698 1.98067 0
M  V30 415 C 38.4345 3.38044 -0.22614 0
M  V30 416 C 36.9935 3.76096 0.151283 0
M  V30 417 C 36.1405 2.71335 -0.572084 0
M  V30 418 H 39.0915 1.38752 -0.770297 0
M  V30 419 H 39.1125 3.76441 0.554322 0
M  V30 420 H 38.6245 3.66806 -1.26788 0
M  V30 421 H 36.7255 3.52951 1.19399 0
M  V30 422 H 36.8385 4.78641 -0.209765 0
M  V30 423 H 35.2025 2.54696 -0.0147653 0
M  V30 424 H 35.9855 3.02938 -1.61504 0
M  V30 425 N 38.4306 0.297415 1.54768 0
M  V30 426 C 39.3936 -0.567375 2.22066 0
M  V30 427 C 40.3936 -1.06409 1.20556 0
M  V30 428 O 41.5836 -0.960691 1.45315 0
M  V30 429 C 38.7156 -1.78517 2.90421 0
M  V30 430 H 39.9086 0.0205534 2.99893 0
M  V30 431 H 37.4616 0.0482163 1.56226 0
M  V30 432 H 38.1966 -2.41303 2.16664 0
M  V30 433 H 37.9816 -1.43669 3.64831 0
M  V30 434 H 39.4716 -2.39964 3.41771 0
M  V30 435 N 39.9087 -1.5758 0.0250728 0
M  V30 436 C 41.1337 -1.96337 -0.668317 0
M  V30 437 C 41.5587 -0.901314 -1.651 0
M  V30 438 O 40.9167 0.138187 -1.80773 0
M  V30 439 C 40.9647 -3.34191 -1.35457 0
M  V30 440 O 40.0687 -3.30269 -2.46974 0
M  V30 441 H 39.4097 -0.640281 -0.175887 0
M  V30 442 H 41.9397 -2.0442 0.0857224 0
M  V30 443 H 41.9497 -3.70331 -1.71228 0
M  V30 444 H 40.6247 -4.11036 -0.634218 0
M  V30 445 H 39.2017 -3.05841 -2.13344 0
M  V30 446 N 41.3868 0.248026 -1.55636 0
M  V30 447 C 42.6118 0.998028 -1.81808 0
M  V30 448 C 43.0368 1.78207 -0.601979 0
M  V30 449 O 42.3948 1.75653 0.448961 0
M  V30 450 C 42.4428 1.9125 -3.05705 0
M  V30 451 O 41.5468 3.00406 -2.82542 0
M  V30 452 H 40.8878 0.284045 -0.600179 0
M  V30 453 H 43.4178 0.269357 -2.02819 0
M  V30 454 H 43.4278 2.32737 -3.35108 0
M  V30 455 H 42.1028 1.33602 -3.93857 0
M  V30 456 H 40.6798 2.63056 -2.64303 0
M  V30 457 N 42.8649 1.48995 0.513639 0
M  V30 458 C 44.1129 1.57531 1.26604 0
M  V30 459 C 44.4339 0.258236 1.93283 0
M  V30 460 O 43.7039 -0.721502 1.8213 0
M  V30 461 H 42.2839 0.580387 0.470276 0
M  V30 462 H 44.9459 1.85552 0.596373 0
M  V30 463 H 44.0419 2.36486 2.03669 0
M  V30 464 N 44.343 -0.763751 1.37857 0
M  V30 465 C 45.591 -1.51957 1.33243 0
M  V30 466 C 45.912 -1.94835 -0.0801709 0
M  V30 467 O 45.182 -1.66894 -1.02582 0
M  V30 468 H 43.762 -0.563626 0.49024 0
M  V30 469 H 46.424 -0.908504 1.7243 0
M  V30 470 H 45.52 -2.41523 1.97669 0
M  V30 471 N 45.8211 -1.22559 -0.990812 0
M  V30 472 C 46.7841 -0.998863 -2.0629 0
M  V30 473 C 47.7841 0.0354834 -1.60761 0
M  V30 474 O 48.9741 -0.203231 -1.7301 0
M  V30 475 C 46.1061 -0.509203 -3.37076 0
M  V30 476 H 47.2991 -1.95014 -2.27837 0
M  V30 477 H 44.8521 -1.04456 -1.16269 0
M  V30 478 H 45.5871 0.446335 -3.21214 0
M  V30 479 H 45.3721 -1.25547 -3.71457 0
M  V30 480 H 46.8621 -0.370888 -4.1595 0
M  V30 481 N 47.2992 1.18797 -1.03562 0
M  V30 482 C 48.2492 2.20161 -0.592724 0
M  V30 483 C 49.2332 1.56772 0.362133 0
M  V30 484 O 50.4252 1.76062 0.182009 0
M  V30 485 C 47.5542 3.43266 0.0481024 0
M  V30 486 C 46.6402 4.13786 -0.9296 0
M  V30 487 N 47.0312 4.60388 -2.09467 0
M  V30 488 C 45.3292 4.39572 -0.754499 0
M  V30 489 C 46.0302 5.14619 -2.71187 0
M  V30 490 N 45.0062 5.05826 -1.991 0
M  V30 491 H 48.8082 2.53877 -1.48066 0
M  V30 492 H 46.3222 1.34946 -0.903514 0
M  V30 493 H 48.3192 4.15136 0.383058 0
M  V30 494 H 46.9792 3.11048 0.931636 0
M  V30 495 H 47.9902 4.54999 -2.47379 0
M  V30 496 H 44.6672 4.17425 0.0793713 0
M  V30 497 H 46.0572 5.60917 -3.69895 0
M  V30 498 N 48.7773 0.814389 1.34928 0
M  V30 499 C 50.0053 0.411136 2.02774 0
M  V30 500 C 50.4203 -0.980316 1.61354 0
M  V30 501 O 49.7773 -1.63299 0.814847 0
M  V30 502 C 49.8283 0.493865 3.58111 0
M  V30 503 O 49.5493 1.83047 3.98027 0
M  V30 504 C 51.0503 0.0844174 4.4322 0
M  V30 505 H 48.2703 0.166037 0.650133 0
M  V30 506 H 50.8143 1.10018 1.72384 0
M  V30 507 H 48.9693 -0.147006 3.87121 0
M  V30 508 H 49.3833 1.79872 4.92693 0
M  V30 509 H 50.8573 0.193404 5.51661 0
M  V30 510 H 51.3343 -0.97113 4.28329 0
M  V30 511 H 51.9403 0.69875 4.19521 0
M  V30 512 N 50.2554 -1.46986 0.568584 0
M  V30 513 C 51.1854 -2.32946 -0.160753 0
M  V30 514 C 52.1664 -1.44487 -0.897631 0
M  V30 515 O 53.3514 -1.73327 -0.875867 0
M  V30 516 C 50.4814 -3.26494 -1.18403 0
M  V30 517 C 49.4354 -4.24282 -0.562895 0
M  V30 518 C 48.7614 -5.07236 -1.69163 0
M  V30 519 C 50.0614 -5.19989 0.490761 0
M  V30 520 H 51.7554 -2.94175 0.556916 0
M  V30 521 H 49.3014 -1.4146 0.26927 0
M  V30 522 H 51.2544 -3.85477 -1.70251 0
M  V30 523 H 49.9784 -2.63343 -1.93179 0
M  V30 524 H 48.6374 -3.66541 -0.0656164 0
M  V30 525 H 48.2854 -4.4048 -2.42871 0
M  V30 526 H 47.9854 -5.7345 -1.28174 0
M  V30 527 H 49.5094 -5.6908 -2.21314 0
M  V30 528 H 50.9234 -5.73271 0.0579047 0
M  V30 529 H 49.3204 -5.94469 0.820165 0
M  V30 530 H 50.3904 -4.64777 1.3824 0
M  V30 531 N 51.7335 -0.305618 -1.54608 0
M  V30 532 C 52.9795 0.302746 -2.00528 0
M  V30 533 C 53.3125 1.53184 -1.19367 0
M  V30 534 O 52.5875 1.92598 -0.271321 0
M  V30 535 C 52.8705 0.654756 -3.54097 0
M  V30 536 C 52.7235 -0.583793 -4.45995 0
M  V30 537 C 54.0425 1.47947 -4.14487 0
M  V30 538 H 51.1615 0.108564 -0.72896 0
M  V30 539 H 53.8035 -0.418634 -1.85331 0
M  V30 540 H 51.9535 1.26935 -3.67178 0
M  V30 541 H 53.6255 -1.22224 -4.44814 0
M  V30 542 H 51.8685 -1.21615 -4.16404 0
M  V30 543 H 52.5395 -0.293287 -5.5122 0
M  V30 544 H 55.0155 0.96013 -4.04871 0
M  V30 545 H 53.8915 1.69454 -5.22088 0
M  V30 546 H 54.1525 2.47011 -3.66658 0
M  V30 547 N 53.2116 1.57565 -0.0334293 0
M  V30 548 C 54.1596 2.1164 0.96496 0
M  V30 549 C 55.1536 1.04398 1.33407 0
M  V30 550 O 56.3596 1.22828 1.3158 0
M  V30 551 H 52.7346 0.676222 0.32898 0
M  V30 552 H 54.7056 2.94455 0.483614 0
M  V30 553 C 53.4546 2.66207 2.23672 0
M  V30 554 H 52.7776 3.48378 1.96145 0
M  V30 555 H 54.2176 3.07685 2.9173 0
M  V30 556 C 52.6766 1.59151 2.96939 0
M  V30 557 O 53.2066 0.993858 3.89211 0
M  V30 558 N 51.4126 1.31093 2.59351 0
M  V30 559 H 50.9596 1.7988 1.84393 0
M  V30 560 H 50.9176 0.596889 3.08682 0
M  V30 561 N 54.6897 -0.239769 1.55765 0
M  V30 562 C 55.6397 -1.30002 1.87306 0
M  V30 563 C 56.6237 -1.43156 0.73452 0
M  V30 564 O 57.8157 -1.46277 0.99659 0
M  V30 565 C 54.9447 -2.65409 2.17745 0
M  V30 566 C 54.0307 -2.56231 3.37945 0
M  V30 567 N 54.4217 -2.16689 4.57033 0
M  V30 568 C 52.7197 -2.87229 3.41197 0
M  V30 569 C 53.4207 -2.18318 5.39177 0
M  V30 570 N 52.3967 -2.58098 4.78421 0
M  V30 571 H 56.1987 -0.984912 2.76906 0
M  V30 572 H 53.7127 -0.448381 1.56087 0
M  V30 573 H 55.7097 -3.41934 2.38509 0
M  V30 574 H 54.3697 -2.97781 1.29448 0
M  V30 575 H 55.3807 -1.88116 4.82528 0
M  V30 576 H 52.0577 -3.24094 2.63191 0
M  V30 577 H 53.4477 -1.90025 6.44469 0
M  V30 578 N 56.1678 -1.49265 -0.50573 0
M  V30 579 C 57.4158 -1.582 -1.25766 0
M  V30 580 C 57.7368 -0.268482 -1.93143 0
M  V30 581 O 57.0068 0.711833 -1.8251 0
M  V30 582 H 55.5868 -0.582873 -0.467191 0
M  V30 583 H 58.2488 -1.85865 -0.586525 0
M  V30 584 H 57.3448 -2.37563 -2.02412 0
M  V30 585 N 57.6459 0.756429 -1.3826 0
M  V30 586 C 58.8759 1.54341 -1.3734 0
M  V30 587 C 59.2839 1.89159 0.0393917 0
M  V30 588 O 58.6269 1.5307 1.01565 0
M  V30 589 C 58.6889 2.87238 -2.16182 0
M  V30 590 C 58.3529 2.74973 -3.65019 0
M  V30 591 C 59.3499 2.44962 -4.58574 0
M  V30 592 C 57.0349 2.92515 -4.08338 0
M  V30 593 C 59.0289 2.32642 -5.93428 0
M  V30 594 C 56.7159 2.79815 -5.43274 0
M  V30 595 C 57.7139 2.49921 -6.35632 0
M  V30 596 O 57.4019 2.37275 -7.68086 0
M  V30 597 H 57.1339 0.484281 -0.471643 0
M  V30 598 H 59.6879 0.944152 -1.82414 0
M  V30 599 H 57.9179 3.49342 -1.65822 0
M  V30 600 H 59.6069 3.48731 -2.07705 0
M  V30 601 H 60.3729 2.31081 -4.26412 0
M  V30 602 H 56.2519 3.14781 -3.368 0
M  V30 603 H 59.7959 2.0923 -6.65484 0
M  V30 604 H 55.6929 2.93269 -5.75034 0
M  V30 605 H 56.4609 2.52509 -7.78577 0
M  V30 606 N 59.124 1.23083 0.984299 0
M  V30 607 C 60.087 1.00979 2.05757 0
M  V30 608 C 61.087 -0.0269573 1.60777 0
M  V30 609 O 62.277 0.212403 1.729 0
M  V30 610 C 59.409 0.527072 3.36801 0
M  V30 611 H 60.602 1.9622 2.26799 0
M  V30 612 H 58.155 1.05072 1.15714 0
M  V30 613 H 58.89 -0.429294 3.21446 0
M  V30 614 H 58.675 1.27515 3.70786 0
M  V30 615 H 60.165 0.392942 4.15747 0
M  V30 616 N 60.6021 -1.18246 1.0419 0
M  V30 617 C 61.5121 -2.25574 0.644476 0
M  V30 618 C 62.5281 -1.70845 -0.329826 0
M  V30 619 O 63.7041 -2.00554 -0.184443 0
M  V30 620 C 60.7691 -3.46697 0.014877 0
M  V30 621 C 59.8301 -4.16554 1.03834 0
M  V30 622 C 59.0631 -5.31894 0.438692 0
M  V30 623 O 59.2861 -5.65385 -0.754752 0
M  V30 624 O 58.2201 -5.90459 1.168 0
M  V30 625 H 62.0461 -2.61836 1.53869 0
M  V30 626 H 59.6311 -1.25352 0.812854 0
M  V30 627 H 61.5131 -4.20062 -0.335538 0
M  V30 628 H 60.1881 -3.12255 -0.853138 0
M  V30 629 H 59.0951 -3.45251 1.44057 0
M  V30 630 H 60.4281 -4.54998 1.87716 0
M  V30 631 N 62.0802 -0.821533 -1.34494 0
M  V30 632 C 63.4912 -0.467956 -1.8074 0
M  V30 633 C 63.8422 1.01151 -1.68116 0
M  V30 634 O 62.9672 1.78707 -1.22036 0
M  V30 635 C 63.5622 -0.842627 -3.28154 0
M  V30 636 C 62.1212 -0.541439 -3.72485 0
M  V30 637 C 61.2682 -1.06028 -2.56229 0
M  V30 638 H 64.2192 -1.01183 -1.22261 0
M  V30 639 H 64.2402 -0.145876 -3.8022 0
M  V30 640 H 63.7522 -1.91945 -3.37311 0
M  V30 641 H 61.8532 0.526034 -3.68868 0
M  V30 642 H 61.9662 -1.08453 -4.66663 0
M  V30 643 H 60.3302 -0.481892 -2.501 0
M  V30 644 H 61.1132 -2.14352 -2.68157 0
M  V30 645 N 63.5583 1.46682 -0.576371 0
M  V30 646 C 64.5213 2.28707 0.150239 0
M  V30 647 C 65.5213 1.38035 0.824794 0
M  V30 648 O 66.7113 1.60476 0.677719 0
M  V30 649 C 63.8433 3.18248 1.22192 0
M  V30 650 H 65.0363 2.94423 -0.570521 0
M  V30 651 H 62.5893 1.52688 -0.334078 0
M  V30 652 H 63.3243 2.57265 1.97447 0
M  V30 653 H 63.1093 3.85 0.742812 0
M  V30 654 H 64.5993 3.80001 1.73172 0
M  V30 655 N 65.0364 0.313813 1.54444 0
M  V30 656 C 65.9994 -0.54379 2.22656 0
M  V30 657 C 66.9994 -1.05124 1.21678 0
M  V30 658 O 68.1894 -0.945225 1.46325 0
M  V30 659 C 65.3214 -1.75427 2.92298 0
M  V30 660 H 66.5144 0.0523599 2.99854 0
M  V30 661 H 64.0674 0.0647834 1.56166 0
M  V30 662 H 64.8024 -2.38991 2.19211 0
M  V30 663 H 64.5874 -1.39791 3.66334 0
M  V30 664 H 66.0774 -2.36325 3.44297 0
M  V30 665 N 66.5145 -1.57545 0.0417849 0
M  V30 666 C 67.7625 -1.91937 -0.632829 0
M  V30 667 C 68.0835 -0.919978 -1.71934 0
M  V30 668 O 67.3535 0.0366064 -1.95866 0
M  V30 669 H 65.9335 -0.708493 -0.236742 0
M  V30 670 H 68.5955 -1.9468 0.0925745 0
M  V30 671 H 67.6915 -2.92912 -1.07746 0
M  V30 672 N 67.9926 0.231505 -1.5589 0
M  V30 673 C 69.4086 0.580748 -1.48659 0
M  V30 674 C 69.6086 1.87617 -0.73498 0
M  V30 675 O 68.6646 2.51046 -0.270586 0
M  V30 676 C 69.9776 0.669202 -2.93159 0
M  V30 677 C 71.5256 0.760499 -3.03621 0
M  V30 678 C 72.0006 0.880383 -4.49459 0
M  V30 679 N 73.4916 0.944861 -4.53461 0
M  V30 680 C 74.2266 1.05716 -5.63571 0
M  V30 681 N 73.7226 1.13403 -6.83456 0
M  V30 682 N 75.5156 1.09152 -5.514 0
M  V30 683 H 67.6666 -0.618695 -2.03189 0
M  V30 684 H 69.9296 -0.215728 -0.923128 0
M  V30 685 H 69.6356 -0.212904 -3.51055 0
M  V30 686 H 69.5096 1.5361 -3.44505 0
M  V30 687 H 71.8966 1.63305 -2.45796 0
M  V30 688 H 71.9776 -0.131864 -2.5546 0
M  V30 689 H 71.6216 0.0123284 -5.07899 0
M  V30 690 H 71.5516 1.78802 -4.95316 0
M  V30 691 H 74.0426 0.896176 -3.6712 0
M  V30 692 H 74.3556 1.21921 -7.63122 0
M  V30 693 H 72.7006 1.10333 -6.86186 0
M  V30 694 H 75.8916 1.02805 -4.56671 0
M  V30 695 H 76.0646 1.17558 -6.37247 0
M  V30 696 N 69.4707 1.49531 0.497807 0
M  V30 697 C 70.3807 1.69176 1.62532 0
M  V30 698 C 71.3967 0.5744 1.64246 0
M  V30 699 O 72.5727 0.849497 1.82608 0
M  V30 700 C 69.6377 1.75695 2.98885 0
M  V30 701 C 68.6987 2.9929 3.07773 0
M  V30 702 C 67.9317 3.05488 4.37622 0
M  V30 703 O 68.1547 2.19192 5.26603 0
M  V30 704 O 67.0887 3.9798 4.51548 0
M  V30 705 H 70.9147 2.647 1.48887 0
M  V30 706 H 68.4997 1.3331 0.674441 0
M  V30 707 H 70.3817 1.82317 3.79919 0
M  V30 708 H 69.0567 0.8335 3.12785 0
M  V30 709 H 67.9637 2.98183 2.25915 0
M  V30 710 H 69.2967 3.91125 2.98801 0
M  V30 711 N 70.9488 -0.749086 1.3866 0
M  V30 712 C 71.8788 -1.8764 1.38973 0
M  V30 713 C 72.8598 -1.68178 0.255004 0
M  V30 714 O 74.0448 -1.88704 0.458754 0
M  V30 715 C 71.1748 -3.25222 1.21851 0
M  V30 716 C 70.1288 -3.59295 2.32575 0
M  V30 717 C 69.4548 -4.95663 2.00555 0
M  V30 718 C 70.7548 -3.63709 3.7485 0
M  V30 719 H 72.4488 -1.87635 2.3331 0
M  V30 720 H 69.9948 -0.901329 1.12303 0
M  V30 721 H 71.9478 -4.03746 1.20695 0
M  V30 722 H 70.6718 -3.25719 0.239775 0
M  V30 723 H 69.3308 -2.83093 2.32925 0
M  V30 724 H 68.9788 -4.92724 1.01154 0
M  V30 725 H 68.6788 -5.19429 2.74714 0
M  V30 726 H 70.2028 -5.7656 2.01024 0
M  V30 727 H 71.6168 -4.32338 3.76506 0
M  V30 728 H 70.0138 -3.98986 4.48252 0
M  V30 729 H 71.0838 -2.63834 4.06841 0
M  V30 730 N 72.4269 -1.23603 -0.977757 0
M  V30 731 C 73.8379 -1.06424 -1.53398 0
M  V30 732 C 74.1889 0.367578 -1.92726 0
M  V30 733 O 73.3139 1.25465 -1.76316 0
M  V30 734 C 73.9089 -1.92568 -2.78753 0
M  V30 735 C 72.4679 -1.79642 -3.30765 0
M  V30 736 C 71.6149 -1.88111 -2.03739 0
M  V30 737 H 74.5659 -1.37227 -0.797152 0
M  V30 738 H 74.5869 -1.45203 -3.51705 0
M  V30 739 H 74.0989 -2.96771 -2.50098 0
M  V30 740 H 72.1999 -0.782325 -3.64294 0
M  V30 741 H 72.3129 -2.63174 -4.00345 0
M  V30 742 H 70.6769 -1.31723 -2.17994 0
M  V30 743 H 71.4599 -2.93875 -1.77461 0
M  V30 744 N 73.905 1.17692 -1.04816 0
M  V30 745 C 75.316 1.69501 -0.782698 0
M  V30 746 C 75.667 1.83456 0.695577 0
M  V30 747 O 74.792 1.51942 1.54086 0
M  V30 748 C 75.387 3.07874 -1.41419 0
M  V30 749 C 73.946 3.56864 -1.19686 0
M  V30 750 C 73.093 2.3322 -1.50012 0
M  V30 751 H 76.044 1.02262 -1.2136 0
M  V30 752 H 76.065 3.71528 -0.821428 0
M  V30 753 H 75.577 2.97685 -2.49009 0
M  V30 754 H 73.678 3.72337 -0.140043 0
M  V30 755 H 73.791 4.39851 -1.89916 0
M  V30 756 H 72.155 2.37501 -0.920071 0
M  V30 757 H 72.938 2.25644 -2.58727 0
M  V30 758 N 75.3831 0.828654 1.34056 0
M  V30 759 C 76.6601 0.341809 1.9259 0
M  V30 760 C 77.0401 -1.17158 1.75605 0
M  V30 761 O 76.3881 -1.98132 1.13824 0
M  V30 762 C 76.5981 0.777453 3.4023 0
M  V30 763 C 77.9461 0.779579 4.17382 0
M  V30 764 O 78.9701 0.7204 3.48839 0
M  V30 765 O 77.8291 0.857996 5.39723 0
M  V30 766 H 74.9231 0.0946085 0.821571 0
M  V30 767 H 77.4691 0.913827 1.42994 0
M  V30 768 H 76.2411 1.8196 3.46419 0
M  V30 769 H 75.8641 0.181444 3.97186 0
M  V30 770 N 76.8612 -1.46375 0.584142 0
M  V30 771 C 77.7942 -2.27351 -0.196676 0
M  V30 772 C 78.7722 -1.35715 -0.895561 0
M  V30 773 O 79.9562 -1.65126 -0.90916 0
M  V30 774 C 77.0832 -3.13486 -1.28235 0
M  V30 775 C 76.1292 -4.20896 -0.689145 0
M  V30 776 S 76.9622 -5.33299 0.48507 0
M  V30 777 C 78.1182 -6.23 -0.601767 0
M  V30 778 H 78.3512 -2.93228 0.490395 0
M  V30 779 H 75.8842 -1.49875 0.371071 0
M  V30 780 H 77.8422 -3.63676 -1.90395 0
M  V30 781 H 76.5032 -2.4692 -1.94138 0
M  V30 782 H 75.6962 -4.80997 -1.50527 0
M  V30 783 H 75.2982 -3.73726 -0.143181 0
M  V30 784 H 77.5902 -6.60979 -1.48705 0
M  V30 785 H 78.5332 -7.0809 -0.0374799 0
M  V30 786 H 78.9412 -5.57173 -0.906557 0
M  V30 787 N 78.3393 -0.321999 -1.54275 0
M  V30 788 C 79.5673 0.283052 -2.04955 0
M  V30 789 C 79.9823 1.45904 -1.19823 0
M  V30 790 O 79.3393 1.81063 -0.228545 0
M  V30 791 C 79.3903 0.719028 -3.54277 0
M  V30 792 O 79.1113 -0.410175 -4.36176 0
M  V30 793 C 80.6123 1.38705 -4.21041 0
M  V30 794 H 77.8323 0.0584616 -0.668448 0
M  V30 795 H 80.3763 -0.467734 -1.99079 0
M  V30 796 H 78.5313 1.41979 -3.60445 0
M  V30 797 H 78.9453 -0.0669416 -5.24457 0
M  V30 798 H 80.4193 1.64306 -5.2698 0
M  V30 799 H 80.8963 2.33385 -3.72059 0
M  V30 800 H 81.5023 0.728906 -4.19007 0
M  V30 801 N 79.8174 1.5752 -0.0501392 0
M  V30 802 C 81.0634 1.92936 0.624798 0
M  V30 803 C 81.3964 0.928685 1.70555 0
M  V30 804 O 80.6714 -0.0454779 1.94447 0
M  V30 805 C 80.9544 3.38737 1.22185 0
M  V30 806 C 80.8074 4.49552 0.149218 0
M  V30 807 C 82.1264 3.84913 2.13378 0
M  V30 808 H 79.2454 0.701604 0.225657 0
M  V30 809 H 81.8874 1.89671 -0.111693 0
M  V30 810 H 80.0374 3.4165 1.84953 0
M  V30 811 H 81.7094 4.58768 -0.482648 0
M  V30 812 H 79.9524 4.30638 -0.522841 0
M  V30 813 H 80.6234 5.48653 0.606966 0
M  V30 814 H 83.0994 3.8387 1.60572 0
M  V30 815 H 81.9754 4.87584 2.52097 0
M  V30 816 H 82.2364 3.21611 3.03346 0
M  V30 817 N 81.2955 -0.223234 1.56011 0
M  V30 818 C 82.5415 -0.949279 1.79211 0
M  V30 819 C 82.8745 -1.84054 0.619494 0
M  V30 820 O 82.1495 -1.90726 -0.381317 0
M  V30 821 C 82.4325 -1.78965 3.12479 0
M  V30 822 C 82.2855 -0.924997 4.40186 0
M  V30 823 C 83.6045 -2.76774 3.42175 0
M  V30 824 H 80.7235 -0.343676 0.651963 0
M  V30 825 H 83.3655 -0.218253 1.88742 0
M  V30 826 H 81.5155 -2.41291 3.04485 0
M  V30 827 H 83.1875 -0.318615 4.60198 0
M  V30 828 H 81.4305 -0.230344 4.33188 0
M  V30 829 H 82.1015 -1.54735 5.29869 0
M  V30 830 H 84.5775 -2.24584 3.50287 0
M  V30 831 H 83.4535 -3.32678 4.36597 0
M  V30 832 H 83.7145 -3.54429 2.64258 0
M  V30 833 N 82.7736 -1.49793 -0.48987 0
M  V30 834 C 84.1846 -1.52914 -1.07118 0
M  V30 835 C 84.5356 -0.321738 -1.93544 0
M  V30 836 O 83.6606 0.567338 -2.08831 0
M  V30 837 C 84.2556 -2.771 -1.94938 0
M  V30 838 C 82.8146 -2.82963 -2.48212 0
M  V30 839 C 81.9616 -2.46972 -1.26096 0
M  V30 840 H 84.9126 -1.56329 -0.273289 0
M  V30 841 H 84.9336 -2.57892 -2.79771 0
M  V30 842 H 84.4456 -3.64959 -1.32009 0
M  V30 843 H 82.5466 -1.99411 -3.14748 0
M  V30 844 H 82.6596 -3.85406 -2.84603 0
M  V30 845 H 81.0236 -1.98994 -1.58976 0
M  V30 846 H 81.8066 -3.37118 -0.648581 0
M  V30 847 N 84.2517 0.741722 -1.39055 0
M  V30 848 C 85.4997 1.49818 -1.35643 0
M  V30 849 C 85.8207 1.94938 0.0491642 0
M  V30 850 O 85.0907 1.68505 0.999141 0
M  V30 851 H 83.6707 0.555755 -0.499144 0
M  V30 852 H 86.3327 0.880957 -1.73854 0
M  V30 853 H 85.4287 2.38348 -2.01486 0
M  V30 854 N 85.7298 1.2412 0.971189 0
M  V30 855 C 87.0068 0.986867 1.6888 0
M  V30 856 C 87.3868 -0.491857 2.0529 0
M  V30 857 O 86.7348 -1.46531 1.75331 0
M  V30 858 C 86.9448 1.9063 2.92338 0
M  V30 859 C 88.2928 2.17515 3.64654 0
M  V30 860 O 89.3168 1.88254 3.02388 0
M  V30 861 O 88.1758 2.6719 4.7673 0
M  V30 862 H 85.2698 0.372944 0.738134 0
M  V30 863 H 87.8158 1.35203 1.02559 0
M  V30 864 H 86.5878 2.90552 2.62097 0
M  V30 865 H 86.2108 1.54408 3.66393 0
M  V30 866 N 87.2079 -1.17134 1.05439 0
M  V30 867 C 88.1579 -2.1919 0.627675 0
M  V30 868 C 89.1419 -1.57328 -0.337147 0
M  V30 869 O 90.3339 -1.76329 -0.153976 0
M  V30 870 C 87.4629 -3.43299 0.00651435 0
M  V30 871 C 86.5489 -4.12255 0.995312 0
M  V30 872 N 86.9399 -4.56997 2.16765 0
M  V30 873 C 85.2379 -4.38316 0.824336 0
M  V30 874 C 85.9389 -5.10239 2.7934 0
M  V30 875 N 84.9149 -5.02595 2.07122 0
M  V30 876 H 88.7169 -2.5149 1.52086 0
M  V30 877 H 86.2309 -1.33491 0.924868 0
M  V30 878 H 88.2279 -4.15693 -0.316965 0
M  V30 879 H 86.8879 -3.1249 -0.882033 0
M  V30 880 H 87.8989 -4.51006 2.54587 0
M  V30 881 H 84.5759 -4.17498 -0.0129526 0
M  V30 882 H 85.9659 -5.54961 3.78772 0
M  V30 883 N 88.686 -0.835752 -1.33615 0
M  V30 884 C 89.616 -0.281739 -2.31794 0
M  V30 885 C 90.597 0.608833 -1.58831 0
M  V30 886 O 91.782 0.533035 -1.86741 0
M  V30 887 C 88.912 0.546612 -3.42971 0
M  V30 888 C 87.866 -0.247904 -4.27281 0
M  V30 889 C 87.192 0.704001 -5.30045 0
M  V30 890 C 88.492 -1.46324 -5.01385 0
M  V30 891 H 90.186 -1.10206 -2.78379 0
M  V30 892 H 87.732 -0.531388 -1.33837 0
M  V30 893 H 89.685 0.944467 -4.1068 0
M  V30 894 H 88.409 1.40011 -2.95067 0
M  V30 895 H 87.068 -0.627281 -3.61194 0
M  V30 896 H 86.716 1.55381 -4.78399 0
M  V30 897 H 86.416 0.176524 -5.87335 0
M  V30 898 H 87.94 1.09944 -6.0062 0
M  V30 899 H 89.354 -1.13871 -5.61877 0
M  V30 900 H 87.751 -1.92728 -5.6831 0
M  V30 901 H 88.821 -2.23467 -4.30338 0
M  V30 902 N 90.1641 1.46063 -0.591896 0
M  V30 903 C 91.0941 2.33172 0.123673 0
M  V30 904 C 92.0751 1.45897 0.87453 0
M  V30 905 O 93.2601 1.74698 0.848181 0
M  V30 906 C 90.3901 3.28336 1.13194 0
M  V30 907 C 89.3441 4.25124 0.495324 0
M  V30 908 C 88.6701 5.09863 1.61071 0
M  V30 909 C 89.9701 5.19143 -0.573425 0
M  V30 910 H 91.6641 2.93252 -0.603646 0
M  V30 911 H 89.2101 1.41014 -0.291741 0
M  V30 912 H 91.1631 3.88137 1.64097 0
M  V30 913 H 89.8871 2.66383 1.88965 0
M  V30 914 H 88.5461 3.66599 0.00729452 0
M  V30 915 H 88.1941 4.44288 2.35832 0
M  V30 916 H 87.8941 5.75417 1.19035 0
M  V30 917 H 89.4181 5.72529 2.12233 0
M  V30 918 H 90.8321 5.73106 -0.1491 0
M  V30 919 H 89.2291 5.93089 -0.914636 0
M  V30 920 H 90.2991 4.62519 -1.45617 0
M  V30 921 N 91.6422 0.330177 1.54103 0
M  V30 922 C 92.5522 -0.541534 2.28264 0
M  V30 923 C 93.5682 -1.12351 1.32866 0
M  V30 924 O 94.7442 -1.14206 1.65888 0
M  V30 925 C 91.8092 -1.68322 3.03098 0
M  V30 926 C 90.8702 -1.13238 4.14096 0
M  V30 927 C 90.1032 -2.21966 4.85352 0
M  V30 928 O 90.3262 -3.42437 4.56172 0
M  V30 929 O 89.2602 -1.87013 5.7211 0
M  V30 930 H 93.0862 0.060938 3.03639 0
M  V30 931 H 90.6712 0.09565 1.49093 0
M  V30 932 H 92.5532 -2.34777 3.49939 0
M  V30 933 H 91.2282 -2.27176 2.30593 0
M  V30 934 H 90.1352 -0.432736 3.71589 0
M  V30 935 H 91.4682 -0.588898 4.88664 0
M  V30 936 N 93.1203 -1.57491 0.0584922 0
M  V30 937 C 94.5313 -1.80526 -0.476138 0
M  V30 938 C 94.8823 -0.971334 -1.70469 0
M  V30 939 O 94.0073 -0.190012 -2.15564 0
M  V30 940 C 94.6023 -3.27424 -0.870587 0
M  V30 941 C 93.1613 -3.51351 -1.35015 0
M  V30 942 C 92.3083 -2.75343 -0.32887 0
M  V30 943 H 95.2593 -1.56133 0.284312 0
M  V30 944 H 95.2803 -3.38745 -1.73299 0
M  V30 945 H 94.7923 -3.88093 0.0237627 0
M  V30 946 H 92.8933 -2.95971 -2.26345 0
M  V30 947 H 93.0063 -4.60059 -1.33726 0
M  V30 948 H 91.3703 -2.417 -0.803321 0
M  V30 949 H 92.1533 -3.38743 0.557521 0
M  V30 950 N 94.5984 0.214957 -1.56127 0
M  V30 951 C 95.5084 1.28727 -1.96129 0
M  V30 952 C 96.5244 1.50916 -0.866044 0
M  V30 953 O 97.7004 1.63918 -1.17016 0
M  V30 954 C 94.7654 2.61569 -2.27558 0
M  V30 955 C 93.8264 2.47625 -3.50685 0
M  V30 956 C 93.0594 3.74132 -3.80606 0
M  V30 957 O 93.2824 4.77438 -3.12104 0
M  V30 958 O 92.2164 3.70849 -4.74083 0
M  V30 959 H 96.0424 0.977855 -2.87527 0
M  V30 960 H 93.6274 0.418358 -1.43423 0
M  V30 961 H 95.5094 3.40012 -2.48938 0
M  V30 962 H 94.1844 2.92178 -1.39332 0
M  V30 963 H 93.0914 1.67361 -3.34576 0
M  V30 964 H 94.4244 2.21954 -4.39315 0
M  V30 965 N 96.0765 1.50051 0.48192 0
M  V30 966 C 97.3225 1.60736 1.2366 0
M  V30 967 C 97.6555 0.301786 1.91841 0
M  V30 968 O 96.9305 -0.696025 1.8162 0
M  V30 969 C 97.2135 2.78009 2.28874 0
M  V30 970 C 97.0665 4.18416 1.65069 0
M  V30 971 C 98.3855 2.90867 3.30279 0
M  V30 972 H 95.5045 0.585031 0.448228 0
M  V30 973 H 98.1465 1.82402 0.531946 0
M  V30 974 H 96.2965 2.59667 2.88973 0
M  V30 975 H 97.9685 4.48322 1.0865 0
M  V30 976 H 96.2115 4.23177 0.954148 0
M  V30 977 H 96.8825 4.96381 2.41474 0
M  V30 978 H 99.3585 3.07623 2.80191 0
M  V30 979 H 98.2345 3.74566 4.01238 0
M  V30 980 H 98.4955 2.01021 3.93755 0
M  V30 981 N 97.5546 -0.734337 1.39446 0
M  V30 982 C 98.5176 -1.83004 1.37994 0
M  V30 983 C 99.5176 -1.58397 0.276938 0
M  V30 984 O 100.708 -1.65785 0.534875 0
M  V30 985 C 97.8396 -3.20802 1.1532 0
M  V30 986 H 99.0326 -1.85694 2.35494 0
M  V30 987 H 96.5856 -0.938059 1.25021 0
M  V30 988 H 97.3206 -3.23772 0.185036 0
M  V30 989 H 97.1056 -3.4006 1.95197 0
M  V30 990 H 98.5956 -4.00862 1.17046 0
M  V30 991 N 99.0327 -1.24633 -0.964593 0
M  V30 992 C 100.31 -0.995809 -1.68354 0
M  V30 993 C 100.69 0.480964 -2.05548 0
M  V30 994 O 100.038 1.45599 -1.76105 0
M  V30 995 C 100.248 -1.92177 -2.91323 0
M  V30 996 C 101.596 -2.19446 -3.63495 0
M  V30 997 O 102.62 -1.89855 -3.01386 0
M  V30 998 O 101.479 -2.69714 -4.75307 0
M  V30 999 H 98.5727 -0.376854 -0.736146 0
M  V30 1000 H 101.119 -1.35745 -1.0184 0
M  V30 1001 H 99.8907 -2.91938 -2.60553 0
M  V30 1002 H 99.5137 -1.56349 -3.65569 0
M  V30 1003 N 100.511 1.16574 -1.06058 0
M  V30 1004 C 101.759 1.86677 -0.77434 0
M  V30 1005 C 102.08 1.81959 0.701147 0
M  V30 1006 O 101.35 1.2515 1.50713 0
M  V30 1007 H 99.9298 0.691134 -0.283449 0
M  V30 1008 H 102.592 1.41378 -1.34158 0
M  V30 1009 H 101.688 2.92181 -1.09711 0
M  V30 1010 N 101.989 0.842826 1.3317 0
M  V30 1011 C 103.237 0.439577 1.97262 0
M  V30 1012 C 103.558 -1.00548 1.67078 0
M  V30 1013 O 102.828 -1.70098 0.971779 0
M  V30 1014 H 101.408 0.159558 0.72976 0
M  V30 1015 H 104.07 1.07665 1.62463 0
M  V30 1016 H 103.166 0.574886 3.0676 0
M  V30 1017 N 103.467 -1.45747 0.599634 0
M  V30 1018 C 104.715 -2.01893 0.0915472 0
M  V30 1019 C 105.036 -1.47155 -1.27946 0
M  V30 1020 O 104.306 -0.66273 -1.84349 0
M  V30 1021 H 102.886 -0.746363 0.0308524 0
M  V30 1022 H 105.548 -1.78645 0.779237 0
M  V30 1023 H 104.644 -3.1208 0.0353086 0
M  V30 1024 N 104.945 -0.338344 -1.53925 0
M  V30 1025 C 105.908 0.508299 -2.23493 0
M  V30 1026 C 106.908 1.03175 -1.23335 0
M  V30 1027 O 108.098 0.921826 -1.47811 0
M  V30 1028 C 105.23 1.70754 -2.95052 0
M  V30 1029 H 106.423 -0.100058 -2.99733 0
M  V30 1030 H 103.976 -0.0896198 -1.56043 0
M  V30 1031 H 104.711 2.35474 -2.22986 0
M  V30 1032 H 104.496 1.33946 -3.68512 0
M  V30 1033 H 105.986 2.30818 -3.48013 0
M  V30 1034 N 106.423 1.57458 -0.0668435 0
M  V30 1035 C 107.834 1.80776 0.466558 0
M  V30 1036 C 108.185 0.980361 1.69951 0
M  V30 1037 O 107.31 0.201441 2.1546 0
M  V30 1038 C 107.905 3.27881 0.85321 0
M  V30 1039 C 106.464 3.52062 1.3315 0
M  V30 1040 C 105.611 2.75513 0.314264 0
M  V30 1041 H 108.562 1.5598 -0.292588 0
M  V30 1042 H 108.583 3.39659 1.715 0
M  V30 1043 H 108.095 3.88075 -0.0443439 0
M  V30 1044 H 106.196 2.97167 2.24772 0
M  V30 1045 H 106.309 4.60762 1.31285 0
M  V30 1046 H 104.673 2.42123 0.790492 0
M  V30 1047 H 105.456 3.38442 -0.575477 0
M  V30 1048 N 107.901 -0.206675 1.56239 0
M  V30 1049 C 109.312 -0.772383 1.69974 0
M  V30 1050 C 109.663 -1.84353 0.671436 0
M  V30 1051 O 108.788 -2.15695 -0.174491 0
M  V30 1052 C 109.383 -1.40779 3.08167 0
M  V30 1053 C 107.942 -1.92072 3.23706 0
M  V30 1054 C 107.089 -0.786347 2.65917 0
M  V30 1055 H 110.04 0.0182223 1.5869 0
M  V30 1056 H 110.061 -2.27696 3.04852 0
M  V30 1057 H 109.573 -0.627958 3.82986 0
M  V30 1058 H 107.674 -2.7281 2.53782 0
M  V30 1059 H 107.787 -2.09046 4.31087 0
M  V30 1060 H 106.151 -1.1976 2.24788 0
M  V30 1061 H 106.934 -0.0189416 3.43295 0
M  V30 1062 N 109.379 -1.50304 -0.473955 0
M  V30 1063 C 110.311 -1.65109 -1.58971 0
M  V30 1064 C 111.324 -0.532676 -1.53839 0
M  V30 1065 O 112.513 -0.805751 -1.59279 0
M  V30 1066 C 109.613 -1.61684 -2.97845 0
M  V30 1067 C 108.786 -2.8951 -3.27876 0
M  V30 1068 C 107.845 -2.78768 -4.4629 0
M  V30 1069 O 106.871 -3.52722 -4.46739 0
M  V30 1070 N 108.073 -1.9213 -5.47783 0
M  V30 1071 H 110.838 -2.61347 -1.46689 0
M  V30 1072 H 108.399 -1.47732 -0.662324 0
M  V30 1073 H 110.391 -1.52114 -3.75024 0
M  V30 1074 H 108.961 -0.731925 -3.03911 0
M  V30 1075 H 108.181 -3.13228 -2.39336 0
M  V30 1076 H 109.469 -3.74199 -3.4475 0
M  V30 1077 H 108.867 -1.31353 -5.50239 0
M  V30 1078 H 107.424 -1.88466 -6.23958 0
M  V30 1079 N 110.857 0.726932 -1.39834 0
M  V30 1080 C 112.105 1.4837 -1.37225 0
M  V30 1081 C 112.426 1.94979 0.0284857 0
M  V30 1082 O 111.696 1.69555 0.981213 0
M  V30 1083 H 110.276 0.55043 -0.505011 0
M  V30 1084 H 112.938 0.862468 -1.74778 0
M  V30 1085 H 112.034 2.36198 -2.04003 0
M  V30 1086 N 112.336 1.25143 0.95797 0
M  V30 1087 C 113.584 1.09476 1.69881 0
M  V30 1088 C 113.905 -0.365502 1.91544 0
M  V30 1089 O 113.175 -1.25985 1.50015 0
M  V30 1090 H 111.755 0.402128 0.629525 0
M  V30 1091 H 114.417 1.57214 1.15194 0
M  V30 1092 H 113.513 1.60046 2.6794 0
M  V30 1093 N 113.814 -1.1601 1.06675 0
M  V30 1094 C 115.054 -1.88304 0.795037 0
M  V30 1095 C 115.418 -1.80062 -0.666466 0
M  V30 1096 O 116.619 -2.47319 -1.05293 0
M  V30 1097 C 114.89 -3.33664 1.28076 0
M  V30 1098 S 116.449 -4.23768 1.13868 0
M  V30 1099 H 113.267 -0.649928 0.288296 0
M  V30 1100 H 115.869 -1.4001 1.36445 0
M  V30 1101 H 114.573 -3.37203 2.33927 0
M  V30 1102 H 114.104 -3.87009 0.706253 0
M  V30 1103 H 116.119 -4.96148 0.0719668 0
M  V30 1104 N 115.292 -0.849877 -1.32721 0
M  V30 1105 C 116.54 -0.450032 -1.97026 0
M  V30 1106 C 116.861 0.996604 -1.67609 0
M  V30 1107 O 116.131 1.6958 -0.980786 0
M  V30 1108 H 114.711 -0.163426 -0.728904 0
M  V30 1109 H 117.373 -1.08526 -1.6189 0
M  V30 1110 H 116.469 -0.591146 -3.0645 0
M  V30 1111 N 116.77 1.45427 -0.607355 0
M  V30 1112 C 118.018 2.01841 -0.102253 0
M  V30 1113 C 118.339 1.47832 1.27164 0
M  V30 1114 O 117.609 0.672497 1.83995 0
M  V30 1115 H 116.189 0.746188 -0.0348101 0
M  V30 1116 H 118.851 1.78229 -0.7887 0
M  V30 1117 H 117.947 3.12057 -0.0518585 0
M  V30 1118 N 118.248 0.346503 1.53744 0
M  V30 1119 C 119.496 -0.248612 2.00565 0
M  V30 1120 C 119.817 -1.5083 1.23593 0
M  V30 1121 O 119.087 -1.92858 0.343912 0
M  V30 1122 H 117.667 -0.0948564 0.740953 0
M  V30 1123 H 120.329 0.468341 1.89189 0
M  V30 1124 H 119.425 -0.488994 3.08245 0
M  V30 1125 N 119.726 -1.57421 0.075193 0
M  V30 1126 C 120.974 -1.93236 -0.591974 0
M  V30 1127 C 121.295 -0.956241 -1.69944 0
M  V30 1128 O 120.565 -0.00494792 -1.95899 0
M  V30 1129 H 119.145 -0.713355 -0.22166 0
M  V30 1130 H 121.807 -1.9444 0.133848 0
M  V30 1131 H 120.903 -2.95131 -1.01509 0
M  V30 1132 N 121.204 0.198386 -1.56346 0
M  V30 1133 C 122.444 0.92609 -1.82217 0
M  V30 1134 C 122.808 1.80584 -0.652195 0
M  V30 1135 O 124.009 2.56907 -0.790716 0
M  V30 1136 C 122.28 1.72354 -3.13096 0
M  V30 1137 S 123.839 2.50371 -3.6036 0
M  V30 1138 H 120.657 0.310677 -0.639532 0
M  V30 1139 H 123.259 0.189755 -1.94577 0
M  V30 1140 H 121.963 1.0678 -3.96265 0
M  V30 1141 H 121.494 2.50175 -3.03605 0
M  V30 1142 H 123.509 3.74488 -3.25535 0
M  V30 1143 N 122.682 1.50554 0.465978 0
M  V30 1144 C 123.959 1.5232 1.22712 0
M  V30 1145 C 124.339 0.270807 2.09356 0
M  V30 1146 O 123.687 -0.745541 2.15995 0
M  V30 1147 C 123.897 2.82175 2.05374 0
M  V30 1148 C 125.245 3.33033 2.6339 0
M  V30 1149 O 126.269 2.83531 2.15612 0
M  V30 1150 O 125.128 4.19336 3.50456 0
M  V30 1151 H 122.222 0.611183 0.557122 0
M  V30 1152 H 124.768 1.62847 0.477381 0
M  V30 1153 H 123.54 3.64797 1.41558 0
M  V30 1154 H 123.163 2.74675 2.87471 0
M  V30 1155 N 124.16 -0.719506 1.40217 0
M  V30 1156 C 125.576 -1.02707 1.22161 0
M  V30 1157 C 125.776 -2.0128 0.0940557 0
M  V30 1158 O 124.832 -2.46452 -0.549318 0
M  V30 1159 C 126.145 -1.57454 2.56181 0
M  V30 1160 C 127.693 -1.69458 2.63159 0
M  V30 1161 C 128.168 -2.27611 3.97438 0
M  V30 1162 N 129.659 -2.35002 3.99159 0
M  V30 1163 C 130.394 -2.80972 4.99842 0
M  V30 1164 N 129.89 -3.26723 6.10921 0
M  V30 1165 N 131.683 -2.80321 4.87213 0
M  V30 1166 H 123.834 -0.0660492 2.12297 0
M  V30 1167 H 126.097 -0.0919077 0.943534 0
M  V30 1168 H 125.803 -0.924873 3.39321 0
M  V30 1169 H 125.677 -2.56036 2.76993 0
M  V30 1170 H 128.064 -2.33543 1.80393 0
M  V30 1171 H 128.145 -0.694867 2.46181 0
M  V30 1172 H 127.789 -1.6415 4.80643 0
M  V30 1173 H 127.719 -3.2829 4.11744 0
M  V30 1174 H 130.21 -2.02685 3.18947 0
M  V30 1175 H 130.523 -3.60355 6.8364 0
M  V30 1176 H 128.868 -3.24692 6.14492 0
M  V30 1177 H 132.059 -2.43912 3.9953 0
M  V30 1178 H 132.232 -3.15831 5.65822 0
M  V30 1179 N 125.638 -1.25649 -0.95132 0
M  V30 1180 C 126.868 -1.13179 -1.72841 0
M  V30 1181 C 127.276 0.316827 -1.86528 0
M  V30 1182 O 126.619 1.22948 -1.3649 0
M  V30 1183 C 126.681 -1.71644 -3.15878 0
M  V30 1184 C 126.345 -3.20667 -3.25609 0
M  V30 1185 C 127.342 -4.17616 -3.09666 0
M  V30 1186 C 125.027 -3.6094 -3.49324 0
M  V30 1187 C 127.021 -5.52817 -3.17289 0
M  V30 1188 C 124.708 -4.96278 -3.56584 0
M  V30 1189 C 125.706 -5.92025 -3.40581 0
M  V30 1190 O 125.394 -7.24899 -3.47528 0
M  V30 1191 H 125.126 -0.395389 -0.54831 0
M  V30 1192 H 127.68 -1.66566 -1.20187 0
M  V30 1193 H 125.91 -1.12707 -3.69911 0
M  V30 1194 H 127.599 -1.54225 -3.75459 0
M  V30 1195 H 128.365 -3.87842 -2.91211 0
M  V30 1196 H 124.244 -2.86907 -3.6084 0
M  V30 1197 H 127.788 -6.2753 -3.04716 0
M  V30 1198 H 123.685 -5.25716 -3.74556 0
M  V30 1199 H 124.453 -7.33039 -3.64138 0
M  V30 1200 N 127.117 1.15442 -1.07289 0
M  V30 1201 C 128.027 2.23786 -0.704057 0
M  V30 1202 C 129.043 1.7166 0.284413 0
M  V30 1203 O 130.219 2.00972 0.131205 0
M  V30 1204 C 127.284 3.46535 -0.106792 0
M  V30 1205 C 126.345 4.13654 -1.14842 0
M  V30 1206 C 125.578 5.30544 -0.57956 0
M  V30 1207 O 125.801 5.67187 0.604585 0
M  V30 1208 O 124.735 5.87154 -1.32414 0
M  V30 1209 H 128.561 2.57664 -1.60757 0
M  V30 1210 H 126.146 1.23152 -0.845803 0
M  V30 1211 H 128.028 4.20804 0.224048 0
M  V30 1212 H 126.703 3.14407 0.770049 0
M  V30 1213 H 125.61 3.4131 -1.5316 0
M  V30 1214 H 126.943 4.49861 -1.99714 0
M  V30 1215 N 128.595 0.856903 1.32268 0
M  V30 1216 C 130.006 0.515711 1.79436 0
M  V30 1217 C 130.357 -0.966586 1.70738 0
M  V30 1218 O 129.482 -1.75409 1.26731 0
M  V30 1219 C 130.077 0.929335 3.25805 0
M  V30 1220 C 128.636 0.640006 3.70919 0
M  V30 1221 C 127.783 1.12784 2.53328 0
M  V30 1222 H 130.734 1.04389 1.19535 0
M  V30 1223 H 130.755 0.246633 3.797 0
M  V30 1224 H 130.267 2.00821 3.32103 0
M  V30 1225 H 128.368 -0.428051 3.70133 0
M  V30 1226 H 128.481 1.20788 4.63624 0
M  V30 1227 H 126.845 0.548033 2.48734 0
M  V30 1228 H 127.628 2.21387 2.62379 0
M  V30 1229 N 130.073 -1.45103 0.615059 0
M  V30 1230 C 131.003 -2.33339 -0.0865619 0
M  V30 1231 C 131.984 -1.4727 -0.851209 0
M  V30 1232 O 133.169 -1.76026 -0.820281 0
M  V30 1233 C 130.299 -3.30095 -1.07956 0
M  V30 1234 C 129.253 -4.25858 -0.427628 0
M  V30 1235 C 128.579 -5.12361 -1.5294 0
M  V30 1236 C 129.879 -5.18165 0.655944 0
M  V30 1237 H 131.573 -2.92254 0.650224 0
M  V30 1238 H 129.119 -1.40532 0.314138 0
M  V30 1239 H 131.072 -3.90698 -1.57901 0
M  V30 1240 H 129.796 -2.69355 -1.84703 0
M  V30 1241 H 128.455 -3.66564 0.0510292 0
M  V30 1242 H 128.103 -4.47984 -2.28734 0
M  V30 1243 H 127.803 -5.77238 -1.09865 0
M  V30 1244 H 129.327 -5.75833 -2.03098 0
M  V30 1245 H 130.741 -5.72796 0.240257 0
M  V30 1246 H 129.138 -5.91559 1.00888 0
M  V30 1247 H 130.208 -4.60144 1.52957 0
M  V30 1248 N 131.551 -0.354651 -1.53558 0
M  V30 1249 C 132.962 0.126902 -1.86268 0
M  V30 1250 C 133.313 1.49075 -1.27558 0
M  V30 1251 O 132.438 2.08105 -0.5934 0
M  V30 1252 C 133.033 0.237046 -3.3797 0
M  V30 1253 C 131.592 0.662842 -3.70518 0
M  V30 1254 C 130.739 -0.196652 -2.76602 0
M  V30 1255 H 133.69 -0.573849 -1.47962 0
M  V30 1256 H 133.711 1.06259 -3.65362 0
M  V30 1257 H 133.223 -0.755725 -3.80671 0
M  V30 1258 H 131.324 1.66424 -3.33367 0
M  V30 1259 H 131.437 0.445034 -4.77029 0
M  V30 1260 H 129.801 0.332763 -2.52517 0
M  V30 1261 H 130.584 -1.18676 -3.22135 0
M  V30 1262 N 133.029 1.57378 -0.0835403 0
M  V30 1263 C 134.44 1.81261 0.447358 0
M  V30 1264 C 134.791 0.998331 1.68902 0
M  V30 1265 O 133.916 0.224282 2.15235 0
M  V30 1266 C 134.511 3.28767 0.818386 0
M  V30 1267 C 133.07 3.53455 1.29409 0
M  V30 1268 C 132.217 2.75831 0.285024 0
M  V30 1269 H 135.168 1.5566 -0.309115 0
M  V30 1270 H 135.189 3.41459 1.67887 0
M  V30 1271 H 134.701 3.88006 -0.0855019 0
M  V30 1272 H 132.802 2.99534 2.21608 0
M  V30 1273 H 132.915 4.62128 1.2639 0
M  V30 1274 H 131.279 2.42947 0.764767 0
M  V30 1275 H 132.062 3.37813 -0.611341 0
M  V30 1276 N 134.507 -0.190092 1.56449 0
M  V30 1277 C 135.732 -0.929864 1.85387 0
M  V30 1278 C 136.157 -1.7585 0.667704 0
M  V30 1279 O 135.515 -1.77198 -0.383459 0
M  V30 1280 C 135.563 -1.79773 3.12593 0
M  V30 1281 O 134.667 -2.89713 2.93496 0
M  V30 1282 H 134.008 -0.261574 0.610307 0
M  V30 1283 H 136.538 -0.193896 2.03679 0
M  V30 1284 H 136.548 -2.20139 3.43515 0
M  V30 1285 H 135.223 -1.18892 3.98544 0
M  V30 1286 H 133.8 -2.53065 2.73884 0
M  V30 1287 N 135.985 -1.50799 -0.457987 0
M  V30 1288 C 136.915 -1.73553 -1.5621 0
M  V30 1289 C 137.896 -0.584774 -1.59732 0
M  V30 1290 O 139.081 -0.825314 -1.7579 0
M  V30 1291 C 136.211 -1.84169 -2.94447 0
M  V30 1292 C 135.165 -2.99461 -3.0579 0
M  V30 1293 C 134.491 -2.95235 -4.45803 0
M  V30 1294 C 135.791 -4.39766 -2.81786 0
M  V30 1295 H 137.485 -2.66 -1.37421 0
M  V30 1296 H 135.031 -1.28002 -0.659662 0
M  V30 1297 H 136.984 -1.98672 -3.71628 0
M  V30 1298 H 135.708 -0.883545 -3.14422 0
M  V30 1299 H 134.367 -2.8463 -2.31044 0
M  V30 1300 H 134.015 -1.97239 -4.62715 0
M  V30 1301 H 133.715 -3.72642 -4.54326 0
M  V30 1302 H 135.239 -3.11803 -5.24987 0
M  V30 1303 H 136.653 -4.55054 -3.4871 0
M  V30 1304 H 135.05 -5.18722 -3.0174 0
M  V30 1305 H 136.12 -4.51229 -1.7754 0
M  V30 1306 N 137.463 0.71206 -1.40597 0
M  V30 1307 C 138.874 1.29135 -1.34837 0
M  V30 1308 C 139.225 1.96186 -0.0235395 0
M  V30 1309 O 138.35 1.97768 0.878444 0
M  V30 1310 C 138.945 2.34827 -2.44217 0
M  V30 1311 C 137.504 2.88371 -2.41907 0
M  V30 1312 C 136.651 1.62202 -2.24913 0
M  V30 1313 H 139.602 0.507944 -1.50352 0
M  V30 1314 H 139.623 3.15749 -2.12327 0
M  V30 1315 H 139.135 1.85996 -3.40627 0
M  V30 1316 H 137.236 3.41422 -1.49204 0
M  V30 1317 H 137.349 3.39925 -3.37621 0
M  V30 1318 H 135.713 1.874 -1.72492 0
M  V30 1319 H 136.496 1.15391 -3.23326 0
M  V30 1320 N 138.941 1.26152 0.944643 0
M  V30 1321 C 139.904 1.07474 2.0244 0
M  V30 1322 C 140.904 0.0242064 1.60782 0
M  V30 1323 O 142.094 0.267302 1.72137 0
M  V30 1324 C 139.226 0.633956 3.34953 0
M  V30 1325 H 140.419 2.03336 2.20442 0
M  V30 1326 H 137.972 1.087 1.12312 0
M  V30 1327 H 138.707 -0.326811 3.22649 0
M  V30 1328 H 138.492 1.39247 3.66542 0
M  V30 1329 H 139.982 0.52501 4.14287 0
M  V30 1330 N 140.419 -1.14872 1.07899 0
M  V30 1331 C 141.382 -2.17986 0.708161 0
M  V30 1332 C 142.382 -1.58775 -0.25442 0
M  V30 1333 O 143.572 -1.74166 -0.034645 0
M  V30 1334 C 140.704 -3.40871 0.0446929 0
M  V30 1335 H 141.897 -2.52306 1.62116 0
M  V30 1336 H 139.45 -1.2943 0.876218 0
M  V30 1337 H 140.185 -3.12124 -0.880281 0
M  V30 1338 H 139.97 -3.8511 0.737091 0
M  V30 1339 H 141.46 -4.17121 -0.19991 0
M  V30 1340 N 141.898 -0.863906 -1.31812 0
M  V30 1341 C 143.146 -0.470904 -1.96537 0
M  V30 1342 C 143.467 0.978771 -1.68657 0
M  V30 1343 O 142.737 1.6853 -0.998717 0
M  V30 1344 H 141.317 -0.171148 -0.72713 0
M  V30 1345 H 143.979 -1.10236 -1.60729 0
M  V30 1346 H 143.075 -0.623616 -3.05806 0
M  V30 1347 N 143.376 1.44774 -0.622745 0
M  V30 1348 C 144.286 2.34433 0.0886031 0
M  V30 1349 C 145.302 1.52131 0.844529 0
M  V30 1350 O 146.478 1.84886 0.798691 0
M  V30 1351 C 143.543 3.29986 1.0635 0
M  V30 1352 C 142.604 4.28195 0.307873 0
M  V30 1353 C 141.837 5.19183 1.23633 0
M  V30 1354 O 142.06 5.13918 2.47476 0
M  V30 1355 O 140.994 5.97515 0.725189 0
M  V30 1356 H 144.82 2.96693 -0.648599 0
M  V30 1357 H 142.405 1.44408 -0.382957 0
M  V30 1358 H 144.287 3.88825 1.6246 0
M  V30 1359 H 142.962 2.70269 1.78146 0
M  V30 1360 H 141.869 3.72927 -0.296064 0
M  V30 1361 H 143.202 4.90808 -0.3699 0
M  V30 1362 N 144.854 0.36279 1.53368 0
M  V30 1363 C 145.786 -0.519668 2.23231 0
M  V30 1364 C 146.799 -1.04844 1.24546 0
M  V30 1365 O 147.988 -0.955296 1.50786 0
M  V30 1366 C 145.088 -1.72995 2.9142 0
M  V30 1367 C 144.261 -1.33316 4.16588 0
M  V30 1368 C 143.32 -2.40521 4.68013 0
M  V30 1369 O 142.346 -2.03027 5.3176 0
M  V30 1370 N 143.548 -3.72065 4.45587 0
M  V30 1371 H 146.313 0.078751 2.99597 0
M  V30 1372 H 143.874 0.187833 1.60807 0
M  V30 1373 H 145.866 -2.44184 3.22733 0
M  V30 1374 H 144.436 -2.2353 2.18525 0
M  V30 1375 H 143.656 -0.451236 3.91609 0
M  V30 1376 H 144.944 -1.04432 4.97967 0
M  V30 1377 H 144.342 -4.05304 3.94646 0
M  V30 1378 H 142.899 -4.39366 4.81457 0
M  V30 1379 N 146.332 -1.57332 0.0918853 0
M  V30 1380 C 147.609 -1.85691 -0.614668 0
M  V30 1381 C 147.989 -0.988146 -1.86545 0
M  V30 1382 O 147.337 -0.0597055 -2.28422 0
M  V30 1383 C 147.547 -3.36294 -0.933126 0
M  V30 1384 C 148.895 -4.04275 -1.29796 0
M  V30 1385 O 149.919 -3.41157 -1.02424 0
M  V30 1386 O 148.778 -5.1564 -1.81047 0
M  V30 1387 H 145.872 -0.767802 -0.307261 0
M  V30 1388 H 148.418 -1.69244 0.12434 0
M  V30 1389 H 147.19 -3.91273 -0.0456404 0
M  V30 1390 H 146.813 -3.58076 -1.72822 0
M  V30 1391 N 147.81 0.181792 -1.56548 0
M  V30 1392 C 149.05 0.906711 -1.83189 0
M  V30 1393 C 149.414 1.79882 -0.671312 0
M  V30 1394 O 150.615 2.56054 -0.81792 0
M  V30 1395 C 148.886 1.69023 -3.14906 0
M  V30 1396 S 150.445 2.46535 -3.62996 0
M  V30 1397 H 147.263 0.303877 -0.642791 0
M  V30 1398 H 149.865 0.169107 -1.94767 0
M  V30 1399 H 148.569 1.02571 -3.97376 0
M  V30 1400 H 148.1 2.46941 -3.06241 0
M  V30 1401 H 150.115 3.71014 -3.29489 0
M  V30 1402 N 149.288 1.51039 0.449983 0
M  V30 1403 C 150.528 1.64732 1.21007 0
M  V30 1404 C 150.892 0.349865 1.88785 0
M  V30 1405 O 152.093 0.362431 2.66345 0
M  V30 1406 C 150.364 2.80902 2.20973 0
M  V30 1407 S 151.923 3.14851 3.05638 0
M  V30 1408 H 148.741 0.5805 0.410538 0
M  V30 1409 H 151.343 1.88901 0.503634 0
M  V30 1410 H 150.047 3.73627 1.69796 0
M  V30 1411 H 149.578 2.58882 2.96215 0
M  V30 1412 H 151.593 2.60306 4.22439 0
M  V30 1413 N 150.766 -0.704594 1.40972 0
M  V30 1414 C 152.014 -1.46169 1.39568 0
M  V30 1415 C 152.335 -1.95 0.00253745 0
M  V30 1416 O 151.605 -1.71095 -0.954114 0
M  V30 1417 H 150.185 -0.542326 0.513704 0
M  V30 1418 H 152.847 -0.834553 1.76128 0
M  V30 1419 H 151.943 -2.32922 2.07735 0
M  V30 1420 N 152.244 -1.26651 -0.937939 0
M  V30 1421 C 153.154 -1.10276 -2.07066 0
M  V30 1422 C 154.17 -0.0354197 -1.73964 0
M  V30 1423 O 155.346 -0.239816 -1.99967 0
M  V30 1424 C 152.411 -0.740887 -3.38691 0
M  V30 1425 C 151.472 -1.88799 -3.85556 0
M  V30 1426 C 150.705 -1.54329 -5.10899 0
M  V30 1427 O 150.928 -0.446494 -5.6865 0
M  V30 1428 O 149.862 -2.37911 -5.52885 0
M  V30 1429 H 153.688 -2.05309 -2.23789 0
M  V30 1430 H 151.273 -1.05743 -1.0554 0
M  V30 1431 H 153.155 -0.55195 -4.1777 0
M  V30 1432 H 151.83 0.180022 -3.23199 0
M  V30 1433 H 150.737 -2.13191 -3.07409 0
M  V30 1434 H 152.07 -2.78874 -4.05574 0
M  V30 1435 N 153.722 1.14298 -1.08507 0
M  V30 1436 C 155.138 1.37347 -0.812901 0
M  V30 1437 C 155.338 1.93052 0.577325 0
M  V30 1438 O 154.394 2.14389 1.33393 0
M  V30 1439 C 155.707 2.33359 -1.89642 0
M  V30 1440 C 157.255 2.46996 -1.92255 0
M  V30 1441 C 157.73 3.46309 -2.99724 0
M  V30 1442 N 159.221 3.53853 -2.98902 0
M  V30 1443 C 159.956 4.3055 -3.787 0
M  V30 1444 N 159.452 5.10482 -4.6838 0
M  V30 1445 N 161.245 4.25757 -3.66998 0
M  V30 1446 H 153.396 0.764867 -1.9815 0
M  V30 1447 H 155.659 0.398966 -0.859959 0
M  V30 1448 H 155.365 1.99565 -2.89597 0
M  V30 1449 H 155.239 3.33274 -1.76659 0
M  V30 1450 H 157.626 2.80081 -0.929445 0
M  V30 1451 H 157.707 1.47039 -2.09316 0
M  V30 1452 H 157.351 3.13957 -3.99241 0
M  V30 1453 H 157.281 4.46049 -2.79907 0
M  V30 1454 H 159.772 2.96812 -2.33904 0
M  V30 1455 H 160.085 5.66284 -5.25873 0
M  V30 1456 H 158.43 5.09747 -4.72422 0
M  V30 1457 H 161.621 3.62383 -2.96304 0
M  V30 1458 H 161.794 4.85279 -4.29427 0
M  V30 1459 N 155.201 0.870884 1.31352 0
M  V30 1460 C 156.447 0.482987 1.96965 0
M  V30 1461 C 156.78 -0.962462 1.68672 0
M  V30 1462 O 156.055 -1.6779 0.98371 0
M  V30 1463 C 156.338 0.741752 3.52378 0
M  V30 1464 C 156.191 2.2368 3.9024 0
M  V30 1465 C 157.51 0.208838 4.39604 0
M  V30 1466 H 154.629 0.176955 0.715441 0
M  V30 1467 H 157.271 1.09229 1.55464 0
M  V30 1468 H 155.421 0.223149 3.87859 0
M  V30 1469 H 157.093 2.82273 3.64856 0
M  V30 1470 H 155.336 2.70901 3.38814 0
M  V30 1471 H 156.007 2.3685 4.98604 0
M  V30 1472 H 158.483 0.652529 4.10952 0
M  V30 1473 H 157.359 0.419336 5.47296 0
M  V30 1474 H 157.62 -0.889275 4.33064 0
M  V30 1475 N 156.679 -1.44442 0.630414 0
M  V30 1476 C 157.925 -2.02351 0.134816 0
M  V30 1477 C 158.258 -1.4947 -1.23986 0
M  V30 1478 O 157.533 -0.678475 -1.82283 0
M  V30 1479 C 157.816 -3.59898 0.120707 0
M  V30 1480 C 157.669 -4.23063 1.52767 0
M  V30 1481 C 158.988 -4.36585 -0.555127 0
M  V30 1482 H 156.107 -0.73527 0.0504646 0
M  V30 1483 H 158.749 -1.72022 0.806751 0
M  V30 1484 H 156.899 -3.85868 -0.451477 0
M  V30 1485 H 158.571 -4.08202 2.14869 0
M  V30 1486 H 156.814 -3.80586 2.08175 0
M  V30 1487 H 157.485 -5.32071 1.46984 0
M  V30 1488 H 159.961 -4.16044 -0.0685429 0
M  V30 1489 H 158.837 -5.46294 -0.534185 0
M  V30 1490 H 159.098 -4.11138 -1.62535 0
M  V30 1491 N 158.157 -0.370918 -1.53173 0
M  V30 1492 C 159.406 0.218249 -2.00516 0
M  V30 1493 C 159.719 1.49429 -1.26215 0
M  V30 1494 O 160.925 2.16239 -1.64174 0
M  V30 1495 C 159.381 0.43948 -3.57207 0
M  V30 1496 C 158.989 -0.822244 -4.4039 0
M  V30 1497 C 160.733 0.986012 -4.1289 0
M  V30 1498 C 158.64 -0.570304 -5.88644 0
M  V30 1499 H 157.57 0.0853333 -0.749156 0
M  V30 1500 H 160.221 -0.490483 -1.76823 0
M  V30 1501 H 158.603 1.20961 -3.77074 0
M  V30 1502 H 159.777 -1.59557 -4.32294 0
M  V30 1503 H 158.092 -1.29238 -3.95836 0
M  V30 1504 H 160.689 1.18991 -5.21292 0
M  V30 1505 H 161.032 1.94972 -3.6782 0
M  V30 1506 H 161.565 0.27592 -3.96842 0
M  V30 1507 H 158.304 -1.50449 -6.38001 0
M  V30 1508 H 157.824 0.164427 -5.99575 0
M  V30 1509 H 159.503 -0.19784 -6.46697 0
M  V30 1510 N 159.635 1.57281 -0.100228 0
M  V30 1511 C 160.583 2.15542 0.874328 0
M  V30 1512 C 161.577 1.09962 1.28859 0
M  V30 1513 O 162.783 1.28298 1.26252 0
M  V30 1514 H 159.158 0.689567 0.300003 0
M  V30 1515 H 161.129 2.96241 0.35829 0
M  V30 1516 C 159.878 2.75454 2.1218 0
M  V30 1517 H 159.201 3.56384 1.81193 0
M  V30 1518 H 160.641 3.19781 2.78417 0
M  V30 1519 C 159.1 1.71602 2.89921 0
M  V30 1520 O 159.63 1.15804 3.84646 0
M  V30 1521 N 157.836 1.41975 2.53558 0
M  V30 1522 H 157.383 1.87539 1.76598 0
M  V30 1523 H 157.341 0.727274 3.05873 0
M  V30 1524 N 161.113 -0.173488 1.56642 0
M  V30 1525 C 162.362 -0.888758 1.81063 0
M  V30 1526 C 162.675 -1.83506 0.67712 0
M  V30 1527 O 163.881 -2.59254 0.806206 0
M  V30 1528 C 162.337 -1.63091 3.20826 0
M  V30 1529 C 161.945 -0.728357 4.4204 0
M  V30 1530 C 163.689 -2.33454 3.54541 0
M  V30 1531 C 161.596 -1.47062 5.72823 0
M  V30 1532 H 160.526 -0.335618 0.675186 0
M  V30 1533 H 163.177 -0.141712 1.82952 0
M  V30 1534 H 161.559 -2.42263 3.13248 0
M  V30 1535 H 162.733 0.0262449 4.60793 0
M  V30 1536 H 161.048 -0.134492 4.16183 0
M  V30 1537 H 163.645 -2.89578 4.49498 0
M  V30 1538 H 163.988 -3.08687 2.79317 0
M  V30 1539 H 164.521 -1.61227 3.63663 0
M  V30 1540 H 161.26 -0.760658 6.51072 0
M  V30 1541 H 160.78 -2.1986 5.58052 0
M  V30 1542 H 162.459 -2.01868 6.14702 0
M  V30 1543 N 162.591 -1.51276 -0.441967 0
M  V30 1544 C 163.816 -1.67799 -1.21895 0
M  V30 1545 C 164.241 -0.372864 -1.84367 0
M  V30 1546 O 163.599 0.666501 -1.68604 0
M  V30 1547 C 163.647 -2.79199 -2.28211 0
M  V30 1548 O 162.751 -2.42479 -3.33583 0
M  V30 1549 H 162.092 -0.559649 -0.357336 0
M  V30 1550 H 164.622 -1.97815 -0.522522 0
M  V30 1551 H 164.632 -3.03146 -2.73069 0
M  V30 1552 H 163.307 -3.73906 -1.82118 0
M  V30 1553 H 161.884 -2.29087 -2.94234 0
M  V30 1554 N 164.069 0.697108 -1.41344 0
M  V30 1555 C 165.317 1.45426 -1.40341 0
M  V30 1556 C 165.638 1.94996 -0.0128787 0
M  V30 1557 O 164.908 1.71599 0.945027 0
M  V30 1558 H 163.488 0.539594 -0.516573 0
M  V30 1559 H 166.15 0.825201 -1.76569 0
M  V30 1560 H 165.246 2.31817 -2.08967 0
M  V30 1561 N 165.547 1.27147 0.931209 0
M  V30 1562 C 166.477 1.12081 2.04842 0
M  V30 1563 C 167.458 0.0232364 1.70084 0
M  V30 1564 O 168.643 0.197085 1.93197 0
M  V30 1565 C 165.773 0.76354 3.38803 0
M  V30 1566 C 164.727 1.81396 3.87659 0
M  V30 1567 C 164.053 1.31075 5.18385 0
M  V30 1568 C 165.353 3.21739 4.11438 0
M  V30 1569 H 167.047 2.05537 2.17703 0
M  V30 1570 H 164.593 0.989603 1.04608 0
M  V30 1571 H 166.546 0.644982 4.16435 0
M  V30 1572 H 165.27 -0.206727 3.25945 0
M  V30 1573 H 163.929 1.92136 3.12217 0
M  V30 1574 H 163.577 0.330037 5.01916 0
M  V30 1575 H 163.277 2.013 5.52044 0
M  V30 1576 H 164.801 1.20506 5.98591 0
M  V30 1577 H 166.215 3.14019 4.79651 0
M  V30 1578 H 164.612 3.89644 4.56397 0
M  V30 1579 H 165.682 3.67054 3.16859 0
M  V30 1580 N 167.025 -1.13721 1.09112 0
M  V30 1581 C 168.441 -1.36914 0.820174 0
M  V30 1582 C 168.641 -1.93356 -0.567079 0
M  V30 1583 O 167.697 -2.15093 -1.32255 0
M  V30 1584 C 169.01 -2.3235 1.90877 0
M  V30 1585 C 170.558 -2.45973 1.93562 0
M  V30 1586 C 171.033 -3.44714 3.01556 0
M  V30 1587 N 172.524 -3.52263 3.00775 0
M  V30 1588 C 173.259 -4.28536 3.80978 0
M  V30 1589 N 172.755 -5.07991 4.71081 0
M  V30 1590 N 174.548 -4.23804 3.69251 0
M  V30 1591 H 166.699 -0.754348 1.98553 0
M  V30 1592 H 168.962 -0.3944 0.862063 0
M  V30 1593 H 168.668 -1.98027 2.90651 0
M  V30 1594 H 168.542 -3.32332 1.78424 0
M  V30 1595 H 170.929 -2.79584 0.944286 0
M  V30 1596 H 171.01 -1.45926 2.10093 0
M  V30 1597 H 170.654 -3.11835 4.00901 0
M  V30 1598 H 170.584 -4.44558 2.82269 0
M  V30 1599 H 173.075 -2.95567 2.35475 0
M  V30 1600 H 173.388 -5.63487 5.28869 0
M  V30 1601 H 171.733 -5.07235 4.75119 0
M  V30 1602 H 174.924 -3.60806 2.98222 0
M  V30 1603 H 175.097 -4.82995 4.31995 0
M  V30 1604 N 168.503 -0.877838 -1.30888 0
M  V30 1605 C 169.75 -0.492696 -1.96415 0
M  V30 1606 C 170.078 0.956671 -1.69346 0
M  V30 1607 O 169.333 1.68993 -0.986913 0
M  V30 1608 C 169.632 -0.705748 -3.50363 0
M  V30 1609 C 169.298 -2.1291 -3.97467 0
M  V30 1610 C 167.96 -2.51834 -4.1004 0
M  V30 1611 C 170.312 -3.05702 -4.22132 0
M  V30 1612 C 167.64 -3.82775 -4.44635 0
M  V30 1613 C 169.992 -4.36166 -4.58194 0
M  V30 1614 C 168.656 -4.74993 -4.68975 0
M  V30 1615 H 167.926 -0.18029 -0.718733 0
M  V30 1616 H 170.573 -1.11233 -1.55883 0
M  V30 1617 H 168.878 -0.00303058 -3.918 0
M  V30 1618 H 170.575 -0.387456 -3.99124 0
M  V30 1619 H 167.165 -1.81694 -3.88182 0
M  V30 1620 H 171.349 -2.76853 -4.11906 0
M  V30 1621 H 166.605 -4.12609 -4.51181 0
M  V30 1622 H 170.779 -5.08111 -4.76231 0
M  V30 1623 H 168.406 -5.76495 -4.95537 0
M  V30 1624 N 169.982 1.44106 -0.638065 0
M  V30 1625 C 170.892 2.34513 0.0637334 0
M  V30 1626 C 171.908 1.53018 0.828346 0
M  V30 1627 O 173.084 1.85723 0.779036 0
M  V30 1628 C 170.149 3.31095 1.02844 0
M  V30 1629 C 169.21 4.28497 0.26244 0
M  V30 1630 C 168.443 5.20465 1.1812 0
M  V30 1631 O 168.666 5.16514 2.42011 0
M  V30 1632 O 167.6 5.98251 0.661774 0
M  V30 1633 H 171.426 2.95989 -0.68003 0
M  V30 1634 H 169.011 1.43994 -0.398252 0
M  V30 1635 H 170.893 3.90526 1.58327 0
M  V30 1636 H 169.568 2.72144 1.7527 0
M  V30 1637 H 168.475 3.72592 -0.335602 0
M  V30 1638 H 169.808 4.90388 -0.421936 0
M  V30 1639 N 171.46 0.379036 1.52974 0
M  V30 1640 C 172.688 -0.20679 2.05864 0
M  V30 1641 C 173.103 -1.41356 1.25155 0
M  V30 1642 O 172.46 -1.8009 0.295588 0
M  V30 1643 C 172.511 -0.587045 3.56702 0
M  V30 1644 O 172.232 0.571776 4.34353 0
M  V30 1645 C 173.733 -1.22983 4.25899 0
M  V30 1646 H 170.953 -0.0336123 0.670158 0
M  V30 1647 H 173.497 0.541298 1.97206 0
M  V30 1648 H 171.652 -1.28504 3.65466 0
M  V30 1649 H 172.066 0.261544 5.23847 0
M  V30 1650 H 173.54 -1.44635 5.32715 0
M  V30 1651 H 174.017 -2.19416 3.80465 0
M  V30 1652 H 174.623 -0.572892 4.21424 0
M  V30 1653 N 172.938 -1.57226 0.108567 0
M  V30 1654 C 173.87 -2.11809 -0.875752 0
M  V30 1655 C 174.883 -1.05839 -1.23701 0
M  V30 1656 O 176.072 -1.33245 -1.18778 0
M  V30 1657 C 173.172 -2.59411 -2.18081 0
M  V30 1658 C 172.345 -3.89364 -1.99284 0
M  V30 1659 C 171.404 -4.22672 -3.13424 0
M  V30 1660 O 170.43 -4.91668 -2.86795 0
M  V30 1661 N 171.632 -3.79154 -4.3957 0
M  V30 1662 H 174.397 -2.9689 -0.409477 0
M  V30 1663 H 171.958 -1.61721 -0.076158 0
M  V30 1664 H 173.95 -2.7873 -2.93414 0
M  V30 1665 H 172.52 -1.79268 -2.5609 0
M  V30 1666 H 171.74 -3.79059 -1.08203 0
M  V30 1667 H 173.028 -4.74358 -1.84017 0
M  V30 1668 H 172.426 -3.23486 -4.64083 0
M  V30 1669 H 170.983 -4.03602 -5.11809 0
M  V30 1670 N 174.416 0.165178 -1.56732 0
M  V30 1671 C 175.346 1.20651 -1.99914 0
M  V30 1672 C 176.327 1.45827 -0.875705 0
M  V30 1673 O 177.512 1.57057 -1.14223 0
M  V30 1674 C 174.642 2.54401 -2.36427 0
M  V30 1675 C 173.596 2.43782 -3.51787 0
M  V30 1676 C 172.922 3.82078 -3.7406 0
M  V30 1677 C 174.222 1.93732 -4.85041 0
M  V30 1678 H 175.916 0.847534 -2.87154 0
M  V30 1679 H 173.462 0.40625 -1.38151 0
M  V30 1680 H 175.415 3.27458 -2.65234 0
M  V30 1681 H 174.139 2.92098 -1.46103 0
M  V30 1682 H 172.798 1.73178 -3.23117 0
M  V30 1683 H 172.446 4.17179 -2.81017 0
M  V30 1684 H 172.146 3.7584 -4.51684 0
M  V30 1685 H 173.67 4.56712 -4.05274 0
M  V30 1686 H 175.084 2.56569 -5.12684 0
M  V30 1687 H 173.481 1.98428 -5.66345 0
M  V30 1688 H 174.551 0.891962 -4.76626 0
M  V30 1689 N 175.894 1.51508 0.433938 0
M  V30 1690 C 176.841 1.73068 1.52696 0
M  V30 1691 C 177.811 0.572441 1.55924 0
M  V30 1692 O 178.996 0.807253 1.72882 0
M  V30 1693 C 176.136 1.86474 2.90381 0
M  V30 1694 C 175.249 3.14037 2.96656 0
M  V30 1695 C 174.384 3.18019 4.25485 0
M  V30 1696 C 173.423 4.39882 4.2564 0
M  V30 1697 N 172.56 4.41394 5.45999 0
M  V30 1698 H 177.4 2.66366 1.33615 0
M  V30 1699 H 174.937 1.32008 0.649018 0
M  V30 1700 H 176.895 1.92229 3.70275 0
M  V30 1701 H 175.525 0.965809 3.08013 0
M  V30 1702 H 174.577 3.17575 2.09404 0
M  V30 1703 H 175.889 4.0394 2.92633 0
M  V30 1704 H 175.043 3.22708 5.13755 0
M  V30 1705 H 173.782 2.2601 4.3217 0
M  V30 1706 H 172.787 4.35366 3.35763 0
M  V30 1707 H 174.012 5.33159 4.20617 0
M  V30 1708 H 171.958 3.52258 5.53399 0
M  V30 1709 H 171.875 5.25111 5.4387 0
M  V30 1710 H 173.143 4.50281 6.36292 0
M  V30 1711 N 177.372 -0.689602 1.41712 0
M  V30 1712 C 178.6 -1.47827 1.44758 0
M  V30 1713 C 179.015 -1.88721 0.0545703 0
M  V30 1714 O 178.372 -1.57176 -0.927463 0
M  V30 1715 C 178.423 -2.73698 2.3616 0
M  V30 1716 O 178.144 -2.34524 3.7004 0
M  V30 1717 C 179.645 -3.67389 2.48072 0
M  V30 1718 H 176.865 -0.455357 0.49284 0
M  V30 1719 H 179.409 -0.848574 1.86063 0
M  V30 1720 H 177.564 -3.32891 1.98148 0
M  V30 1721 H 177.978 -3.15701 4.18847 0
M  V30 1722 H 179.452 -4.52475 3.16181 0
M  V30 1723 H 179.929 -4.12284 1.51388 0
M  V30 1724 H 180.535 -3.14097 2.86746 0
M  V30 1725 N 178.85 -1.27639 -0.924453 0
M  V30 1726 C 179.78 -1.13166 -2.04244 0
M  V30 1727 C 180.761 -0.032256 -1.70069 0
M  V30 1728 O 181.946 -0.207328 -1.9309 0
M  V30 1729 C 179.076 -0.781496 -3.38393 0
M  V30 1730 C 178.03 -1.83449 -3.86692 0
M  V30 1731 C 177.356 -1.33822 -5.17683 0
M  V30 1732 C 178.656 -3.23917 -4.09726 0
M  V30 1733 H 180.35 -2.06689 -2.1661 0
M  V30 1734 H 177.896 -0.995136 -1.04082 0
M  V30 1735 H 179.849 -0.667057 -4.16087 0
M  V30 1736 H 178.573 0.189439 -3.2605 0
M  V30 1737 H 177.232 -1.93789 -3.11193 0
M  V30 1738 H 176.88 -0.35665 -5.01734 0
M  V30 1739 H 176.58 -2.04224 -5.50968 0
M  V30 1740 H 178.104 -1.23679 -5.97943 0
M  V30 1741 H 179.518 -3.16559 -4.77978 0
M  V30 1742 H 177.915 -3.92059 -4.54324 0
M  V30 1743 H 178.985 -3.68729 -3.14908 0
M  V30 1744 N 180.328 1.1314 -1.09713 0
M  V30 1745 C 181.568 1.8613 -0.844683 0
M  V30 1746 C 181.932 1.81765 0.618491 0
M  V30 1747 O 183.133 2.50024 0.98699 0
M  V30 1748 C 181.404 3.30151 -1.36877 0
M  V30 1749 S 182.963 4.206 -1.25064 0
M  V30 1750 H 179.781 0.642056 -0.305427 0
M  V30 1751 H 182.383 1.36343 -1.4011 0
M  V30 1752 H 181.087 3.30883 -2.42786 0
M  V30 1753 H 180.618 3.85 -0.808614 0
M  V30 1754 H 182.633 4.95783 -0.203486 0
M  V30 1755 N 181.806 0.884767 1.30421 0
M  V30 1756 C 182.738 0.308655 2.27112 0
M  V30 1757 C 183.751 -0.536655 1.53701 0
M  V30 1758 O 184.94 -0.35624 1.74909 0
M  V30 1759 C 182.04 -0.579782 3.33904 0
M  V30 1760 C 181.213 0.236417 4.36761 0
M  V30 1761 C 180.272 -0.582482 5.22966 0
M  V30 1762 O 179.298 -0.00525502 5.692 0
M  V30 1763 N 180.5 -1.89163 5.48815 0
M  V30 1764 H 183.265 1.13964 2.77186 0
M  V30 1765 H 180.826 0.747731 1.43599 0
M  V30 1766 H 182.818 -1.13366 3.88497 0
M  V30 1767 H 181.388 -1.31144 2.83761 0
M  V30 1768 H 180.608 0.97174 3.82035 0
M  V30 1769 H 181.896 0.795924 5.02536 0
M  V30 1770 H 181.294 -2.38352 5.13035 0
M  V30 1771 H 179.851 -2.39296 6.06284 0
M  V30 1772 N 183.284 -1.43765 0.645699 0
M  V30 1773 C 184.531 -2.01898 0.15604 0
M  V30 1774 C 184.859 -1.50887 -1.22733 0
M  V30 1775 O 184.114 -0.689271 -1.8316 0
M  V30 1776 C 184.413 -3.57238 0.107679 0
M  V30 1777 C 184.079 -4.27564 1.43178 0
M  V30 1778 C 182.741 -4.46492 1.7944 0
M  V30 1779 C 185.093 -4.67454 2.30513 0
M  V30 1780 C 182.421 -5.02573 3.02716 0
M  V30 1781 C 184.773 -5.24901 3.53074 0
M  V30 1782 C 183.437 -5.42046 3.89541 0
M  V30 1783 H 182.707 -0.738797 0.057099 0
M  V30 1784 H 185.354 -1.72341 0.834912 0
M  V30 1785 H 183.659 -3.86293 -0.654618 0
M  V30 1786 H 185.356 -3.99965 -0.287938 0
M  V30 1787 H 181.946 -4.13171 1.13963 0
M  V30 1788 H 186.13 -4.5253 2.0379 0
M  V30 1789 H 181.386 -5.14033 3.31028 0
M  V30 1790 H 185.56 -5.54758 4.20971 0
M  V30 1791 H 183.187 -5.85268 4.85145 0
M  V30 1792 N 184.763 -0.387143 -1.52771 0
M  V30 1793 C 186.174 0.0873634 -1.86495 0
M  V30 1794 C 186.525 1.46336 -1.30691 0
M  V30 1795 O 185.65 2.068 -0.637409 0
M  V30 1796 C 186.245 0.165305 -3.38396 0
M  V30 1797 C 184.804 0.584101 -3.7184 0
M  V30 1798 C 183.951 -0.255279 -2.76122 0
M  V30 1799 H 186.902 -0.605104 -1.46711 0
M  V30 1800 H 186.923 0.984848 -3.67534 0
M  V30 1801 H 186.435 -0.836301 -3.78982 0
M  V30 1802 H 184.536 1.59315 -3.36823 0
M  V30 1803 H 184.649 0.343749 -4.77865 0
M  V30 1804 H 183.013 0.279126 -2.53166 0
M  V30 1805 H 183.796 -1.25482 -3.19545 0
M  V30 1806 N 186.241 1.57166 -0.116904 0
M  V30 1807 C 187.151 2.18745 0.847812 0
M  V30 1808 C 188.167 1.163 1.29423 0
M  V30 1809 O 189.343 1.48761 1.35765 0
M  V30 1810 C 186.408 2.77307 2.0809 0
M  V30 1811 C 185.469 3.94781 1.68661 0
M  V30 1812 C 184.702 4.50541 2.86091 0
M  V30 1813 O 184.925 4.05202 4.01456 0
M  V30 1814 O 183.859 5.41256 2.63298 0
M  V30 1815 H 187.685 3.01632 0.353778 0
M  V30 1816 H 185.27 1.49005 0.108599 0
M  V30 1817 H 187.152 3.14647 2.80313 0
M  V30 1818 H 185.827 1.97452 2.56504 0
M  V30 1819 H 184.734 3.62214 0.935518 0
M  V30 1820 H 186.067 4.76065 1.24991 0
M  V30 1821 N 187.719 -0.156864 1.56817 0
M  V30 1822 C 188.947 -0.886316 1.86955 0
M  V30 1823 C 189.362 -1.75185 0.703975 0
M  V30 1824 O 188.719 -1.79555 -0.326552 0
M  V30 1825 C 188.77 -1.75117 3.16253 0
M  V30 1826 O 188.491 -0.920537 4.2832 0
M  V30 1827 C 189.992 -2.58905 3.59837 0
M  V30 1828 H 187.212 -0.25678 0.619923 0
M  V30 1829 H 189.756 -0.152615 2.0393 0
M  V30 1830 H 187.911 -2.43805 3.01062 0
M  V30 1831 H 188.325 -1.51337 5.02192 0
M  V30 1832 H 189.799 -3.1518 4.53172 0
M  V30 1833 H 190.276 -3.34472 2.84649 0
M  V30 1834 H 190.882 -1.95526 3.7769 0
M  V30 1835 N 189.197 -1.51736 -0.425897 0
M  V30 1836 C 190.127 -1.76827 -1.52494 0
M  V30 1837 C 191.108 -0.618524 -1.58456 0
M  V30 1838 O 192.293 -0.862416 -1.74 0
M  V30 1839 C 189.423 -1.90374 -2.90474 0
M  V30 1840 C 188.377 -3.0588 -2.99369 0
M  V30 1841 C 187.703 -3.04625 -4.3944 0
M  V30 1842 C 189.003 -4.45644 -2.72394 0
M  V30 1843 H 190.697 -2.68855 -1.31748 0
M  V30 1844 H 188.243 -1.29372 -0.632362 0
M  V30 1845 H 190.196 -2.0651 -3.6733 0
M  V30 1846 H 188.92 -0.95004 -3.12477 0
M  V30 1847 H 187.579 -2.89467 -2.24954 0
M  V30 1848 H 187.227 -2.0701 -4.58428 0
M  V30 1849 H 186.927 -3.82195 -4.46319 0
M  V30 1850 H 188.451 -3.22869 -5.18255 0
M  V30 1851 H 189.865 -4.62348 -3.38979 0
M  V30 1852 H 188.262 -5.25006 -2.9067 0
M  V30 1853 H 189.332 -4.54893 -1.67929 0
M  V30 1854 N 190.675 0.682077 -1.42076 0
M  V30 1855 C 191.605 1.80796 -1.47767 0
M  V30 1856 C 192.586 1.6677 -0.334954 0
M  V30 1857 O 193.771 1.863 -0.548264 0
M  V30 1858 C 190.901 3.19038 -1.37229 0
M  V30 1859 C 189.855 3.47789 -2.49453 0
M  V30 1860 C 189.181 4.8553 -2.23975 0
M  V30 1861 C 190.481 3.45411 -3.91776 0
M  V30 1862 H 192.175 1.7629 -2.41997 0
M  V30 1863 H 189.721 0.846721 -1.16476 0
M  V30 1864 H 191.674 3.97528 -1.39821 0
M  V30 1865 H 190.398 3.24204 -0.394907 0
M  V30 1866 H 189.057 2.71657 -2.46166 0
M  V30 1867 H 188.705 4.87337 -1.24547 0
M  V30 1868 H 188.405 5.0573 -2.99184 0
M  V30 1869 H 189.929 5.66312 -2.28304 0
M  V30 1870 H 191.343 4.13882 -3.96705 0
M  V30 1871 H 189.74 3.77145 -4.66778 0
M  V30 1872 H 190.81 2.44122 -4.18966 0
M  V30 1873 N 192.153 1.28127 0.917671 0
M  V30 1874 C 193.401 1.14825 1.66312 0
M  V30 1875 C 193.722 -0.304379 1.9261 0
M  V30 1876 O 192.992 -1.21149 1.53947 0
M  V30 1877 H 191.572 0.421953 0.616413 0
M  V30 1878 H 194.234 1.608 1.10134 0
M  V30 1879 H 193.33 1.68489 2.62712 0
M  V30 1880 N 193.631 -1.12557 1.10312 0
M  V30 1881 C 194.908 -1.80363 0.756878 0
M  V30 1882 C 195.288 -1.97067 -0.756824 0
M  V30 1883 O 194.636 -1.54601 -1.68259 0
M  V30 1884 C 194.846 -3.14812 1.50647 0
M  V30 1885 C 196.194 -3.90029 1.67817 0
M  V30 1886 O 197.218 -3.24464 1.46974 0
M  V30 1887 O 196.077 -5.07652 2.02365 0
M  V30 1888 H 193.171 -0.780667 0.272926 0
M  V30 1889 H 195.717 -1.19404 1.20586 0
M  V30 1890 H 194.489 -2.97936 2.53672 0
M  V30 1891 H 194.112 -3.83478 1.05026 0
M  V30 1892 N 195.109 -0.891671 -1.2995 0
M  V30 1893 C 196.52 -0.563104 -1.78006 0
M  V30 1894 C 196.871 0.920978 -1.73241 0
M  V30 1895 O 195.996 1.71987 -1.31337 0
M  V30 1896 C 196.591 -1.01539 -3.23226 0
M  V30 1897 C 195.15 -0.738124 -3.69092 0
M  V30 1898 C 194.297 -1.19461 -2.50249 0
M  V30 1899 H 197.248 -1.07522 -1.16725 0
M  V30 1900 H 197.269 -0.347217 -3.78912 0
M  V30 1901 H 196.781 -2.09555 -3.26662 0
M  V30 1902 H 194.882 0.329766 -3.71138 0
M  V30 1903 H 194.995 -1.33037 -4.60259 0
M  V30 1904 H 193.359 -0.613787 -2.47194 0
M  V30 1905 H 194.142 -2.28265 -2.56417 0
M  V30 1906 N 196.587 1.43421 -0.653314 0
M  V30 1907 C 197.534 2.30768 0.0382271 0
M  V30 1908 C 198.504 1.44755 0.814576 0
M  V30 1909 O 199.689 1.73624 0.791162 0
M  V30 1910 C 196.829 3.30336 0.998599 0
M  V30 1911 C 195.942 4.31448 0.218342 0
M  V30 1912 C 195.077 5.18098 1.17252 0
M  V30 1913 C 194.116 6.10902 0.382702 0
M  V30 1914 N 193.253 6.90176 1.28848 0
M  V30 1915 H 198.093 2.89357 -0.712511 0
M  V30 1916 H 195.63 1.42548 -0.363128 0
M  V30 1917 H 197.588 3.86572 1.56901 0
M  V30 1918 H 196.218 2.73397 1.71621 0
M  V30 1919 H 195.27 3.77506 -0.46836 0
M  V30 1920 H 196.582 4.97227 -0.395812 0
M  V30 1921 H 195.736 5.7896 1.81356 0
M  V30 1922 H 194.475 4.52444 1.82058 0
M  V30 1923 H 193.48 5.49128 -0.27169 0
M  V30 1924 H 194.705 6.78598 -0.260957 0
M  V30 1925 H 192.651 6.27171 1.92334 0
M  V30 1926 H 192.568 7.52478 0.728887 0
M  V30 1927 H 193.836 7.55543 1.91766 0
M  V30 1928 N 198.065 0.39524 1.52563 0
M  V30 1929 C 199.481 0.0454682 1.59535 0
M  V30 1930 C 199.681 -1.44056 1.4089 0
M  V30 1931 O 198.737 -2.20579 1.22888 0
M  V30 1932 C 200.05 0.527963 2.96029 0
M  V30 1933 C 201.598 0.484733 3.09224 0
M  V30 1934 C 202.073 0.943512 4.48176 0
M  V30 1935 N 203.564 0.899765 4.54377 0
M  V30 1936 C 204.299 1.22609 5.60138 0
M  V30 1937 N 203.795 1.62319 6.73516 0
M  V30 1938 N 205.588 1.14696 5.50274 0
M  V30 1939 H 197.739 1.36261 1.62931 0
M  V30 1940 H 200.002 0.558887 0.765735 0
M  V30 1941 H 199.708 1.56607 3.14908 0
M  V30 1942 H 199.582 -0.0698056 3.77135 0
M  V30 1943 H 201.969 -0.544298 2.90037 0
M  V30 1944 H 202.05 1.11838 2.30056 0
M  V30 1945 H 201.694 1.9708 4.68104 0
M  V30 1946 H 201.624 0.286817 5.25818 0
M  V30 1947 H 204.115 0.607632 3.72983 0
M  V30 1948 H 204.428 1.85567 7.5019 0
M  V30 1949 H 202.773 1.66211 6.74833 0
M  V30 1950 H 205.964 0.835701 4.6058 0
M  V30 1951 H 206.137 1.40459 6.32594 0
M  V30 1952 N 199.544 -1.57102 0.125237 0
M  V30 1953 C 200.96 -1.57915 -0.231322 0
M  V30 1954 C 201.16 -1.13833 -1.66266 0
M  V30 1955 O 200.216 -0.828581 -2.38518 0
M  V30 1956 C 201.529 -3.00699 0.00766489 0
M  V30 1957 C 203.077 -3.12947 -0.0577483 0
M  V30 1958 C 203.552 -4.57742 0.153626 0
M  V30 1959 N 205.043 -4.63092 0.0998073 0
M  V30 1960 C 205.778 -5.72905 0.238174 0
M  V30 1961 N 205.274 -6.91445 0.433057 0
M  V30 1962 N 207.067 -5.6182 0.177308 0
M  V30 1963 H 199.218 -1.84055 1.06007 0
M  V30 1964 H 201.481 -0.850905 0.417929 0
M  V30 1965 H 201.187 -3.3726 0.997431 0
M  V30 1966 H 201.061 -3.70236 -0.721452 0
M  V30 1967 H 203.448 -2.7624 -1.03804 0
M  V30 1968 H 203.529 -2.4594 0.70335 0
M  V30 1969 H 203.173 -4.95149 1.13092 0
M  V30 1970 H 203.103 -5.22848 -0.627534 0
M  V30 1971 H 205.594 -3.77871 -0.047051 0
M  V30 1972 H 205.907 -7.70985 0.529332 0
M  V30 1973 H 204.252 -6.93415 0.469109 0
M  V30 1974 H 207.443 -4.68093 0.0259748 0
M  V30 1975 H 207.616 -6.47357 0.288582 0
M  V30 1976 N 201.022 0.148545 -1.56898 0
M  V30 1977 C 201.955 1.21293 -1.93296 0
M  V30 1978 C 202.933 1.41637 -0.798599 0
M  V30 1979 O 204.117 1.56275 -1.05406 0
M  V30 1980 C 201.244 2.5721 -2.20365 0
M  V30 1981 C 200.29 2.53469 -3.4301 0
M  V30 1982 S 201.123 2.00315 -4.96623 0
M  V30 1983 C 202.279 3.37964 -5.26812 0
M  V30 1984 H 202.512 0.902393 -2.83274 0
M  V30 1985 H 200.045 0.354094 -1.50285 0
M  V30 1986 H 202.003 3.35427 -2.36641 0
M  V30 1987 H 200.664 2.85454 -1.31054 0
M  V30 1988 H 199.857 3.53518 -3.59223 0
M  V30 1989 H 199.459 1.83359 -3.25968 0
M  V30 1990 H 201.751 4.34066 -5.20185 0
M  V30 1991 H 202.694 3.26606 -6.28279 0
M  V30 1992 H 203.102 3.35028 -4.54331 0
M  V30 1993 N 202.5 1.5196 0.417844 0
M  V30 1994 C 203.916 1.40569 0.755816 0
M  V30 1995 C 204.116 0.503316 1.95113 0
M  V30 1996 O 203.172 -0.0341925 2.52477 0
M  V30 1997 C 204.485 2.82947 1.01791 0
M  V30 1998 C 206.033 2.92231 1.12116 0
M  V30 1999 C 206.508 4.35559 1.41608 0
M  V30 2000 N 207.999 4.38753 1.48491 0
M  V30 2001 C 208.734 5.46705 1.7292 0
M  V30 2002 N 208.23 6.64788 1.95011 0
M  V30 2003 N 210.023 5.34209 1.74863 0
M  V30 2004 H 202.174 2.09168 -0.369098 0
M  V30 2005 H 204.437 0.942409 -0.102809 0
M  V30 2006 H 204.143 3.5106 0.212081 0
M  V30 2007 H 204.017 3.23462 1.94042 0
M  V30 2008 H 206.404 2.24304 1.9176 0
M  V30 2009 H 206.485 2.55185 0.177225 0
M  V30 2010 H 206.129 5.04042 0.624848 0
M  V30 2011 H 206.059 4.70133 2.37239 0
M  V30 2012 H 208.55 3.5363 1.33244 0
M  V30 2013 H 208.863 7.42845 2.13076 0
M  V30 2014 H 207.208 6.67869 1.92293 0
M  V30 2015 H 210.399 4.40937 1.57137 0
M  V30 2016 H 210.572 6.18415 1.93563 0
M  V30 2017 N 203.978 -0.674533 1.42435 0
M  V30 2018 C 205.208 -1.46071 1.46105 0
M  V30 2019 C 205.616 -1.89067 0.0709605 0
M  V30 2020 O 204.959 -1.58731 -0.924677 0
M  V30 2021 C 205.021 -2.74145 2.32561 0
M  V30 2022 C 204.685 -2.53224 3.8043 0
M  V30 2023 C 205.682 -2.17809 4.72075 0
M  V30 2024 C 203.367 -2.6821 4.24698 0
M  V30 2025 C 205.361 -1.97648 6.05982 0
M  V30 2026 C 203.048 -2.47665 5.58664 0
M  V30 2027 C 204.046 -2.12437 6.49122 0
M  V30 2028 O 203.734 -1.9209 7.80613 0
M  V30 2029 H 203.466 -0.455959 0.499076 0
M  V30 2030 H 206.02 -0.836193 1.87609 0
M  V30 2031 H 204.25 -3.3908 1.85908 0
M  V30 2032 H 205.939 -3.36028 2.27683 0
M  V30 2033 H 206.705 -2.05826 4.39159 0
M  V30 2034 H 202.584 -2.94609 3.54579 0
M  V30 2035 H 206.128 -1.70075 6.7655 0
M  V30 2036 H 202.025 -2.59244 5.91154 0
M  V30 2037 H 202.793 -2.06686 7.91974 0
M  V30 2038 N 205.456 -1.28612 -0.910864 0
M  V30 2039 C 206.703 -1.15934 -1.66029 0
M  V30 2040 C 207.031 0.291483 -1.92303 0
M  V30 2041 O 206.286 1.22816 -1.52364 0
M  V30 2042 C 206.585 -1.90624 -3.0232 0
M  V30 2043 C 206.251 -3.40405 -2.95695 0
M  V30 2044 C 204.913 -3.81255 -2.93595 0
M  V30 2045 C 207.265 -4.359 -2.85728 0
M  V30 2046 C 204.593 -5.15936 -2.79334 0
M  V30 2047 C 206.945 -5.70657 -2.73007 0
M  V30 2048 C 205.609 -6.10779 -2.69267 0
M  V30 2049 H 204.879 -0.424234 -0.607541 0
M  V30 2050 H 207.526 -1.5942 -1.06101 0
M  V30 2051 H 205.831 -1.39696 -3.6605 0
M  V30 2052 H 207.528 -1.78228 -3.59215 0
M  V30 2053 H 204.118 -3.07927 -2.98125 0
M  V30 2054 H 208.302 -4.053 -2.86436 0
M  V30 2055 H 203.558 -5.46146 -2.74835 0
M  V30 2056 H 207.732 -6.44311 -2.64264 0
M  V30 2057 H 205.359 -7.1509 -2.57974 0
M  V30 2058 N 206.934 1.1197 -1.10907 0
M  V30 2059 C 208.211 1.79959 -0.766432 0
M  V30 2060 C 208.591 1.97466 0.746363 0
M  V30 2061 O 207.939 1.55491 1.67436 0
M  V30 2062 C 208.149 3.14009 -1.52314 0
M  V30 2063 C 209.497 3.89134 -1.69883 0
M  V30 2064 O 210.521 3.2368 -1.48692 0
M  V30 2065 O 209.38 5.06572 -2.05054 0
M  V30 2066 H 206.474 0.779208 -0.277062 0
M  V30 2067 H 209.02 1.18762 -1.21217 0
M  V30 2068 H 207.792 2.96587 -2.55249 0
M  V30 2069 H 207.415 3.82915 -1.07059 0
M  V30 2070 N 208.412 0.89855 1.29475 0
M  V30 2071 C 209.823 0.572537 1.77705 0
M  V30 2072 C 210.174 -0.911778 1.73727 0
M  V30 2073 O 209.299 -1.71288 1.32247 0
M  V30 2074 C 209.894 1.03252 3.22683 0
M  V30 2075 C 208.453 0.757687 3.68695 0
M  V30 2076 C 207.6 1.20787 2.49612 0
M  V30 2077 H 210.551 1.08139 1.16153 0
M  V30 2078 H 210.572 0.367307 3.78723 0
M  V30 2079 H 210.084 2.11285 3.25546 0
M  V30 2080 H 208.185 -0.310079 3.71308 0
M  V30 2081 H 208.298 1.35476 4.59547 0
M  V30 2082 H 206.662 0.626888 2.46865 0
M  V30 2083 H 207.445 2.29622 2.55203 0
M  V30 2084 N 209.89 -1.43072 0.660911 0
M  V30 2085 C 210.82 -2.33497 -0.0122829 0
M  V30 2086 C 211.801 -1.49903 -0.803925 0
M  V30 2087 O 212.986 -1.78546 -0.763864 0
M  V30 2088 C 210.116 -3.33363 -0.973994 0
M  V30 2089 C 209.07 -4.27003 -0.291928 0
M  V30 2090 C 208.396 -5.16967 -1.36562 0
M  V30 2091 C 209.696 -5.15816 0.820462 0
M  V30 2092 H 211.39 -2.90038 0.742873 0
M  V30 2093 H 208.936 -1.39461 0.358688 0
M  V30 2094 H 210.889 -3.95524 -1.45392 0
M  V30 2095 H 209.613 -2.75095 -1.7604 0
M  V30 2096 H 208.272 -3.66217 0.167623 0
M  V30 2097 H 207.92 -4.55034 -2.14366 0
M  V30 2098 H 207.62 -5.80441 -0.914454 0
M  V30 2099 H 209.144 -5.82003 -1.84675 0
M  V30 2100 H 210.558 -5.71742 0.422366 0
M  V30 2101 H 208.955 -5.8805 1.19656 0
M  V30 2102 H 210.025 -4.55045 1.67518 0
M  V30 2103 N 211.368 -0.403325 -1.52352 0
M  V30 2104 C 212.784 -0.0539281 -1.59509 0
M  V30 2105 C 212.984 1.43307 -1.41652 0
M  V30 2106 O 212.04 2.19924 -1.24056 0
M  V30 2107 C 213.353 -0.543654 -2.95745 0
M  V30 2108 C 214.901 -0.501125 -3.08962 0
M  V30 2109 C 215.376 -0.967267 -4.47669 0
M  V30 2110 N 216.867 -0.923849 -4.53893 0
M  V30 2111 C 217.602 -1.25578 -5.5948 0
M  V30 2112 N 217.098 -1.65889 -6.72646 0
M  V30 2113 N 218.891 -1.17613 -5.49658 0
M  V30 2114 H 211.042 -1.37123 -1.62206 0
M  V30 2115 H 213.305 -0.56294 -0.76276 0
M  V30 2116 H 213.011 -1.58275 -3.14073 0
M  V30 2117 H 212.885 0.0498042 -3.77167 0
M  V30 2118 H 215.272 0.528909 -2.90321 0
M  V30 2119 H 215.353 -1.13056 -2.2946 0
M  V30 2120 H 214.997 -1.9956 -4.67053 0
M  V30 2121 H 214.927 -0.314698 -5.25659 0
M  V30 2122 H 217.418 -0.627403 -3.72655 0
M  V30 2123 H 217.731 -1.89543 -7.49195 0
M  V30 2124 H 216.076 -1.69787 -6.73942 0
M  V30 2125 H 219.267 -0.860115 -4.6013 0
M  V30 2126 H 219.44 -1.43812 -6.3184 0
M  V30 2127 N 212.846 1.57033 -0.133567 0
M  V30 2128 C 213.794 2.17348 0.828412 0
M  V30 2129 C 214.788 1.12671 1.26498 0
M  V30 2130 O 215.994 1.30947 1.23502 0
M  V30 2131 H 212.369 0.695775 0.285309 0
M  V30 2132 H 214.34 2.96935 0.295372 0
M  V30 2133 C 213.089 2.79893 2.06289 0
M  V30 2134 H 212.412 3.60147 1.73592 0
M  V30 2135 H 213.852 3.25615 2.71572 0
M  V30 2136 C 212.311 1.77713 2.86216 0
M  V30 2137 O 212.841 1.23937 3.82103 0
M  V30 2138 N 211.047 1.47321 2.50489 0
M  V30 2139 H 210.594 1.91243 1.7258 0
M  V30 2140 H 210.552 0.79199 3.04261 0
M  V30 2141 N 214.325 -0.140222 1.56975 0
M  V30 2142 C 215.235 -1.19223 2.02047 0
M  V30 2143 C 216.251 -1.46612 0.937062 0
M  V30 2144 O 217.427 -1.58148 1.24704 0
M  V30 2145 C 214.492 -2.50414 2.39778 0
M  V30 2146 C 213.553 -2.30612 3.621 0
M  V30 2147 C 212.786 -3.55547 3.98023 0
M  V30 2148 O 213.009 -4.62004 3.34528 0
M  V30 2149 O 211.943 -3.47808 4.91237 0
M  V30 2150 H 215.769 -0.839559 2.91865 0
M  V30 2151 H 213.354 -0.349453 1.45256 0
M  V30 2152 H 215.236 -3.27747 2.64877 0
M  V30 2153 H 213.911 -2.85198 1.53114 0
M  V30 2154 H 212.818 -1.51207 3.4218 0
M  V30 2155 H 214.151 -2.00741 4.49404 0
M  V30 2156 N 215.803 -1.52179 -0.40978 0
M  V30 2157 C 217.033 -1.69807 -1.17682 0
M  V30 2158 C 217.441 -0.406908 -1.84773 0
M  V30 2159 O 216.784 0.626863 -1.72673 0
M  V30 2160 C 216.846 -2.77712 -2.2829 0
M  V30 2161 C 216.51 -4.19481 -1.81341 0
M  V30 2162 C 217.507 -5.03345 -1.30154 0
M  V30 2163 C 215.192 -4.65713 -1.88194 0
M  V30 2164 C 217.186 -6.31511 -0.864416 0
M  V30 2165 C 214.873 -5.93869 -1.44093 0
M  V30 2166 C 215.871 -6.76597 -0.933023 0
M  V30 2167 O 215.559 -8.02354 -0.49838 0
M  V30 2168 H 215.291 -0.572372 -0.359675 0
M  V30 2169 H 217.845 -1.99511 -0.488311 0
M  V30 2170 H 216.075 -2.43383 -3.00502 0
M  V30 2171 H 217.764 -2.83946 -2.90051 0
M  V30 2172 H 218.53 -4.68819 -1.24232 0
M  V30 2173 H 214.409 -4.01424 -2.26671 0
M  V30 2174 H 217.953 -6.96033 -0.467286 0
M  V30 2175 H 213.85 -6.27903 -1.49694 0
M  V30 2176 H 214.618 -8.16135 -0.621747 0
M  V30 2177 N 217.281 0.66697 -1.42791 0
M  V30 2178 C 218.528 1.42699 -1.43678 0
M  V30 2179 C 218.856 1.94419 -0.0560425 0
M  V30 2180 O 218.111 1.7182 0.936831 0
M  V30 2181 C 218.41 2.6349 -2.4147 0
M  V30 2182 C 218.076 2.30267 -3.8767 0
M  V30 2183 C 216.738 2.20918 -4.27491 0
M  V30 2184 C 219.09 2.03435 -4.79858 0
M  V30 2185 C 216.418 1.82873 -5.57471 0
M  V30 2186 C 218.77 1.66892 -6.10188 0
M  V30 2187 C 217.434 1.56058 -6.49001 0
M  V30 2188 H 216.704 0.522171 -0.525755 0
M  V30 2189 H 219.351 0.759785 -1.75783 0
M  V30 2190 H 217.656 3.35279 -2.0272 0
M  V30 2191 H 219.353 3.21684 -2.39417 0
M  V30 2192 H 215.943 2.38449 -3.56146 0
M  V30 2193 H 220.127 2.09586 -4.49875 0
M  V30 2194 H 215.383 1.7306 -5.86396 0
M  V30 2195 H 219.557 1.45157 -6.81104 0
M  V30 2196 H 217.184 1.26348 -7.49627 0
M  V30 2197 N 218.759 1.29093 0.90403 0
M  V30 2198 C 220.006 1.16813 1.65411 0
M  V30 2199 C 220.334 -0.28128 1.92455 0
M  V30 2200 O 219.589 -1.22006 1.53013 0
M  V30 2201 C 219.888 1.92224 3.01305 0
M  V30 2202 C 219.554 3.41968 2.93885 0
M  V30 2203 C 218.216 3.82807 2.91569 0
M  V30 2204 C 220.568 4.37409 2.83413 0
M  V30 2205 C 217.896 5.1741 2.76594 0
M  V30 2206 C 220.248 5.72097 2.69977 0
M  V30 2207 C 218.912 6.12199 2.66024 0
M  V30 2208 H 218.182 0.42745 0.605283 0
M  V30 2209 H 220.829 1.59981 1.05254 0
M  V30 2210 H 219.134 1.41635 3.65304 0
M  V30 2211 H 220.831 1.80131 3.58265 0
M  V30 2212 H 217.421 3.09504 2.96488 0
M  V30 2213 H 221.605 4.06813 2.84283 0
M  V30 2214 H 216.861 5.47596 2.71935 0
M  V30 2215 H 221.035 6.45704 2.60844 0
M  V30 2216 H 218.662 7.16448 2.54178 0
M  V30 2217 N 220.237 -1.11381 1.11499 0
M  V30 2218 C 221.514 -1.7955 0.775965 0
M  V30 2219 C 221.894 -1.97859 -0.73588 0
M  V30 2220 O 221.242 -1.56376 -1.66609 0
M  V30 2221 C 221.452 -3.13196 1.53977 0
M  V30 2222 C 222.8 -3.88227 1.71944 0
M  V30 2223 O 223.824 -3.22887 1.50407 0
M  V30 2224 O 222.683 -5.05477 2.07738 0
M  V30 2225 H 219.777 -0.777728 0.28119 0
M  V30 2226 H 222.323 -1.18118 1.21845 0
M  V30 2227 H 221.095 -2.95229 2.56818 0
M  V30 2228 H 220.718 -3.82342 1.09088 0
M  V30 2229 N 221.715 -0.905404 -1.28997 0
M  V30 2230 C 223.131 -0.60233 -1.47798 0
M  V30 2231 C 223.331 0.854645 -1.82478 0
M  V30 2232 O 222.387 1.63439 -1.92468 0
M  V30 2233 C 223.7 -1.53306 -2.58685 0
M  V30 2234 C 225.248 -1.53887 -2.72558 0
M  V30 2235 C 225.723 -2.45602 -3.86579 0
M  V30 2236 N 227.214 -2.43681 -3.93921 0
M  V30 2237 C 227.949 -3.11347 -4.81509 0
M  V30 2238 N 227.445 -3.88313 -5.73746 0
M  V30 2239 N 229.238 -3.00476 -4.75048 0
M  V30 2240 H 221.389 -1.84765 -1.04764 0
M  V30 2241 H 223.652 -0.792025 -0.520961 0
M  V30 2242 H 223.358 -2.57141 -2.39941 0
M  V30 2243 H 223.232 -1.25787 -3.55609 0
M  V30 2244 H 225.619 -0.507941 -2.90696 0
M  V30 2245 H 225.7 -1.85447 -1.76191 0
M  V30 2246 H 225.344 -3.48792 -3.69197 0
M  V30 2247 H 225.274 -2.11349 -4.82327 0
M  V30 2248 H 227.765 -1.87767 -3.27951 0
M  V30 2249 H 228.078 -4.36985 -6.37389 0
M  V30 2250 H 226.423 -3.92419 -5.73614 0
M  V30 2251 H 229.614 -2.39858 -4.01977 0
M  V30 2252 H 229.787 -3.53485 -5.43095 0
M  V30 2253 N 223.193 1.4272 -0.668489 0
M  V30 2254 C 224.141 2.32586 0.0254857 0
M  V30 2255 C 225.135 1.49471 0.797176 0
M  V30 2256 O 226.341 1.65583 0.705853 0
M  V30 2257 H 222.716 0.751514 0.0270339 0
M  V30 2258 H 224.687 2.88823 -0.749936 0
M  V30 2259 C 223.436 3.3397 0.967427 0
M  V30 2260 H 222.759 3.97961 0.383048 0
M  V30 2261 H 224.199 3.9945 1.42181 0
M  V30 2262 C 222.658 2.65744 2.0708 0
M  V30 2263 O 223.188 2.48454 3.15648 0
M  V30 2264 N 221.394 2.2487 1.8407 0
M  V30 2265 H 220.941 2.39132 0.95778 0
M  V30 2266 H 220.899 1.79552 2.58086 0
M  V30 2267 N 224.671 0.411399 1.52136 0
M  V30 2268 C 226.087 0.0623865 1.59478 0
M  V30 2269 C 226.287 -1.42554 1.4241 0
M  V30 2270 O 225.343 -2.19263 1.2522 0
M  V30 2271 C 226.656 0.559331 2.95452 0
M  V30 2272 C 228.204 0.517503 3.08692 0
M  V30 2273 C 228.679 0.990994 4.4715 0
M  V30 2274 N 230.17 0.947908 4.53397 0
M  V30 2275 C 230.905 1.28544 5.58806 0
M  V30 2276 N 230.401 1.69454 6.71757 0
M  V30 2277 N 232.194 1.20526 5.49026 0
M  V30 2278 H 224.345 1.37982 1.61477 0
M  V30 2279 H 226.608 0.566977 0.759764 0
M  V30 2280 H 226.314 1.59938 3.1323 0
M  V30 2281 H 226.188 -0.0298014 3.77188 0
M  V30 2282 H 228.575 -0.513505 2.90598 0
M  V30 2283 H 228.656 1.14272 2.28857 0
M  V30 2284 H 228.3 2.02034 4.65988 0
M  V30 2285 H 228.23 0.34257 5.25485 0
M  V30 2286 H 230.721 0.647157 3.72317 0
M  V30 2287 H 231.034 1.93513 7.48179 0
M  V30 2288 H 229.379 1.73359 6.73032 0
M  V30 2289 H 232.57 0.884505 4.59667 0
M  V30 2290 H 232.743 1.47161 6.31069 0
M  V30 2291 N 226.149 -1.5696 0.141893 0
M  V30 2292 C 227.56 -1.82797 -0.379776 0
M  V30 2293 C 227.911 -1.06033 -1.6508 0
M  V30 2294 O 227.036 -0.304011 -2.14254 0
M  V30 2295 C 227.631 -3.31578 -0.695802 0
M  V30 2296 C 226.19 -3.58014 -1.16201 0
M  V30 2297 C 225.337 -2.76699 -0.182455 0
M  V30 2298 H 228.288 -1.54406 0.366675 0
M  V30 2299 H 228.309 -3.47454 -1.55099 0
M  V30 2300 H 227.821 -3.87421 0.229449 0
M  V30 2301 H 225.922 -3.07553 -2.10338 0
M  V30 2302 H 226.035 -4.66501 -1.09151 0
M  V30 2303 H 224.399 -2.45618 -0.674072 0
M  V30 2304 H 225.182 -3.35311 0.736297 0
M  V30 2305 N 227.627 0.131896 -1.57047 0
M  V30 2306 C 228.852 0.860418 -1.8871 0
M  V30 2307 C 229.277 1.73251 -0.73251 0
M  V30 2308 O 228.635 1.785 0.317429 0
M  V30 2309 C 228.683 1.68047 -3.19049 0
M  V30 2310 O 227.787 2.7862 -3.04047 0
M  V30 2311 H 227.128 0.238743 -0.619595 0
M  V30 2312 H 229.658 0.118169 -2.04258 0
M  V30 2313 H 229.668 2.07238 -3.51449 0
M  V30 2314 H 228.343 1.04018 -4.02682 0
M  V30 2315 H 226.92 2.42726 -2.83088 0
M  V30 2316 N 229.106 1.52395 0.401703 0
M  V30 2317 C 230.353 1.66817 1.14796 0
M  V30 2318 C 230.681 0.401772 1.90305 0
M  V30 2319 O 229.936 -0.615487 1.85769 0
M  V30 2320 C 230.235 2.84578 2.16217 0
M  V30 2321 C 229.901 4.22513 1.5746 0
M  V30 2322 C 228.563 4.60029 1.41161 0
M  V30 2323 C 230.915 5.0844 1.14622 0
M  V30 2324 C 228.243 5.81144 0.80552 0
M  V30 2325 C 230.595 6.30167 0.55428 0
M  V30 2326 C 229.259 6.66426 0.378482 0
M  V30 2327 H 228.529 0.610428 0.420069 0
M  V30 2328 H 231.176 1.86512 0.434212 0
M  V30 2329 H 229.481 2.59248 2.93764 0
M  V30 2330 H 231.178 2.92933 2.73845 0
M  V30 2331 H 227.768 3.92953 1.71132 0
M  V30 2332 H 231.952 4.80034 1.26021 0
M  V30 2333 H 227.208 6.07855 0.657399 0
M  V30 2334 H 231.382 6.96071 0.213983 0
M  V30 2335 H 229.009 7.60143 -0.0932606 0
M  V30 2336 N 230.584 -0.659388 1.43143 0
M  V30 2337 C 231.861 -1.41627 1.34912 0
M  V30 2338 C 232.241 -2.11099 -0.00607785 0
M  V30 2339 O 231.589 -2.04353 -1.02236 0
M  V30 2340 C 231.799 -2.40604 2.52805 0
M  V30 2341 C 233.147 -3.04789 2.95616 0
M  V30 2342 O 234.171 -2.50932 2.52807 0
M  V30 2343 O 233.03 -4.02421 3.69756 0
M  V30 2344 H 230.124 -0.63246 0.532844 0
M  V30 2345 H 232.67 -0.686814 1.5518 0
M  V30 2346 H 231.442 -1.88174 3.43083 0
M  V30 2347 H 231.065 -3.21009 2.34604 0
M  V30 2348 N 232.062 -1.29571 -0.897171 0
M  V30 2349 C 233.025 -1.14913 -1.98312 0
M  V30 2350 C 234.025 -0.0838629 -1.60581 0
M  V30 2351 O 235.215 -0.331006 -1.71026 0
M  V30 2352 C 232.347 -0.757835 -3.3237 0
M  V30 2353 H 233.54 -2.11377 -2.12743 0
M  V30 2354 H 231.093 -1.12793 -1.08201 0
M  V30 2355 H 231.828 0.206837 -3.2364 0
M  V30 2356 H 231.613 -1.52755 -3.61121 0
M  V30 2357 H 233.103 -0.678408 -4.12053 0
M  V30 2358 N 233.54 1.10788 -1.12088 0
M  V30 2359 C 234.789 1.82036 -0.868659 0
M  V30 2360 C 235.102 1.85929 0.607426 0
M  V30 2361 O 236.308 2.53346 0.97613 0
M  V30 2362 C 234.764 3.26951 -1.50435 0
M  V30 2363 C 234.372 3.31367 -3.01496 0
M  V30 2364 C 236.116 4.03053 -1.33225 0
M  V30 2365 C 234.023 4.7072 -3.58017 0
M  V30 2366 H 232.953 0.682108 -0.321318 0
M  V30 2367 H 235.604 1.24618 -1.34694 0
M  V30 2368 H 233.986 3.84343 -0.953735 0
M  V30 2369 H 235.16 2.83819 -3.6302 0
M  V30 2370 H 233.475 2.6875 -3.18061 0
M  V30 2371 H 236.072 5.05981 -1.72878 0
M  V30 2372 H 236.415 4.15387 -0.275529 0
M  V30 2373 H 236.948 3.52066 -1.85188 0
M  V30 2374 H 233.687 4.63585 -4.63432 0
M  V30 2375 H 233.207 5.1865 -3.01268 0
M  V30 2376 H 234.886 5.39685 -3.56859 0
M  V30 2377 N 235.018 0.912232 1.28515 0
M  V30 2378 C 235.948 0.416403 2.29757 0
M  V30 2379 C 236.929 -0.515194 1.6211 0
M  V30 2380 O 238.114 -0.423253 1.89532 0
M  V30 2381 C 235.244 -0.34572 3.45575 0
M  V30 2382 C 234.198 0.496599 4.25109 0
M  V30 2383 C 233.524 -0.393771 5.33248 0
M  V30 2384 C 234.824 1.75307 4.92001 0
M  V30 2385 H 236.518 1.26249 2.7148 0
M  V30 2386 H 234.064 0.608515 1.30511 0
M  V30 2387 H 236.017 -0.703422 4.15488 0
M  V30 2388 H 234.741 -1.2257 3.02728 0
M  V30 2389 H 233.4 0.8368 3.56922 0
M  V30 2390 H 233.048 -1.27225 4.86644 0
M  V30 2391 H 232.748 0.166209 5.87365 0
M  V30 2392 H 234.272 -0.747389 6.06009 0
M  V30 2393 H 235.686 1.46437 5.54283 0
M  V30 2394 H 234.083 2.25534 5.56106 0
M  V30 2395 H 235.153 2.48176 4.16577 0
M  V30 2396 N 236.496 -1.42363 0.676048 0
M  V30 2397 C 237.726 -2.05561 0.206967 0
M  V30 2398 C 238.134 -1.50887 -1.14148 0
M  V30 2399 O 237.477 -0.643933 -1.72044 0
M  V30 2400 C 237.539 -3.5944 0.0659508 0
M  V30 2401 C 237.203 -4.36812 1.34331 0
M  V30 2402 C 238.2 -4.67383 2.27704 0
M  V30 2403 C 235.885 -4.76429 1.59125 0
M  V30 2404 C 237.879 -5.36509 3.44147 0
M  V30 2405 C 235.566 -5.45294 2.75857 0
M  V30 2406 C 236.564 -5.75259 3.68193 0
M  V30 2407 O 236.252 -6.42712 4.82883 0
M  V30 2408 H 235.984 -0.668872 0.0979084 0
M  V30 2409 H 238.538 -1.83467 0.923531 0
M  V30 2410 H 236.768 -3.80197 -0.706204 0
M  V30 2411 H 238.457 -4.0427 -0.363418 0
M  V30 2412 H 239.223 -4.37275 2.09799 0
M  V30 2413 H 235.102 -4.52498 0.881258 0
M  V30 2414 H 238.646 -5.59814 4.16238 0
M  V30 2415 H 234.543 -5.7482 2.93688 0
M  V30 2416 H 235.311 -6.61204 4.82444 0
M  V30 2417 N 237.974 -0.419461 -1.51915 0
M  V30 2418 C 239.204 0.151915 -2.06041 0
M  V30 2419 C 239.612 1.38539 -1.28855 0
M  V30 2420 O 238.955 1.80592 -0.336463 0
M  V30 2421 C 239.017 0.557119 -3.55157 0
M  V30 2422 C 238.681 -0.567054 -4.53468 0
M  V30 2423 C 239.678 -1.43379 -4.99738 0
M  V30 2424 C 237.363 -0.742693 -4.96779 0
M  V30 2425 C 239.357 -2.46102 -5.87973 0
M  V30 2426 C 237.044 -1.77322 -5.84808 0
M  V30 2427 C 238.042 -2.63078 -6.30301 0
M  V30 2428 O 237.73 -3.64364 -7.16585 0
M  V30 2429 H 237.462 0.0193293 -0.675724 0
M  V30 2430 H 240.016 -0.592073 -1.96682 0
M  V30 2431 H 238.246 1.35355 -3.62238 0
M  V30 2432 H 239.935 1.05759 -3.9188 0
M  V30 2433 H 240.701 -1.30954 -4.66986 0
M  V30 2434 H 236.58 -0.0848307 -4.60922 0
M  V30 2435 H 240.124 -3.13071 -6.23404 0
M  V30 2436 H 236.021 -1.89773 -6.16974 0
M  V30 2437 H 236.789 -3.60731 -7.34721 0
M  V30 2438 N 239.452 1.56882 -0.150215 0
M  V30 2439 C 240.682 2.00302 0.506213 0
M  V30 2440 C 241.09 1.02934 1.58749 0
M  V30 2441 O 240.433 0.0188384 1.8369 0
M  V30 2442 C 240.495 3.40156 1.16337 0
M  V30 2443 C 240.159 4.56439 0.226311 0
M  V30 2444 C 241.156 5.17012 -0.547265 0
M  V30 2445 C 238.841 5.02136 0.128279 0
M  V30 2446 C 240.835 6.21693 -1.40629 0
M  V30 2447 C 238.522 6.06672 -0.734345 0
M  V30 2448 C 239.52 6.6632 -1.50023 0
M  V30 2449 O 239.208 7.68831 -2.34848 0
M  V30 2450 H 238.94 0.662182 0.135984 0
M  V30 2451 H 241.494 2.03961 -0.242746 0
M  V30 2452 H 239.724 3.33346 1.96004 0
M  V30 2453 H 241.413 3.67663 1.71985 0
M  V30 2454 H 242.179 4.82603 -0.48158 0
M  V30 2455 H 238.058 4.55435 0.714157 0
M  V30 2456 H 241.602 6.68179 -2.00455 0
M  V30 2457 H 237.499 6.40507 -0.801309 0
M  V30 2458 H 238.267 7.86065 -2.28131 0
M  V30 2459 N 240.93 -0.123565 1.57115 0
M  V30 2460 C 241.862 -1.17739 1.96648 0
M  V30 2461 C 242.875 -1.37906 0.865201 0
M  V30 2462 O 244.064 -1.37062 1.14351 0
M  V30 2463 C 241.164 -2.53821 2.24562 0
M  V30 2464 C 240.337 -2.54317 3.55867 0
M  V30 2465 C 239.396 -3.72112 3.72047 0
M  V30 2466 O 238.422 -3.55907 4.44206 0
M  V30 2467 N 239.624 -4.90498 3.10471 0
M  V30 2468 H 242.389 -0.841147 2.87654 0
M  V30 2469 H 239.95 -0.31289 1.58848 0
M  V30 2470 H 241.942 -3.31175 2.32606 0
M  V30 2471 H 240.512 -2.79645 1.39705 0
M  V30 2472 H 239.732 -1.62711 3.59053 0
M  V30 2473 H 241.02 -2.51701 4.42181 0
M  V30 2474 H 240.418 -5.06567 2.51806 0
M  V30 2475 H 238.975 -5.65544 3.24043 0
M  V30 2476 N 242.408 -1.52605 -0.393616 0
M  V30 2477 C 243.633 -1.71592 -1.16495 0
M  V30 2478 C 244.058 -0.43133 -1.83088 0
M  V30 2479 O 243.416 0.612523 -1.7064 0
M  V30 2480 C 243.464 -2.86318 -2.19213 0
M  V30 2481 O 242.568 -2.52969 -3.257 0
M  V30 2482 H 241.909 -0.570734 -0.33935 0
M  V30 2483 H 244.439 -1.99377 -0.459324 0
M  V30 2484 H 244.449 -3.1168 -2.63286 0
M  V30 2485 H 243.124 -3.79511 -1.7013 0
M  V30 2486 H 241.701 -2.38332 -2.86797 0
M  V30 2487 N 243.887 0.651787 -1.4349 0
M  V30 2488 C 245.135 1.40888 -1.44897 0
M  V30 2489 C 245.456 1.94856 -0.0749086 0
M  V30 2490 O 244.726 1.74518 0.889956 0
M  V30 2491 H 243.306 0.522887 -0.533478 0
M  V30 2492 H 245.968 0.768609 -1.79104 0
M  V30 2493 H 245.064 2.25052 -2.16236 0
M  V30 2494 N 245.365 1.30045 0.890287 0
M  V30 2495 C 246.613 1.18327 1.63839 0
M  V30 2496 C 246.934 -0.263455 1.93212 0
M  V30 2497 O 246.204 -1.17856 1.56482 0
M  V30 2498 H 244.784 0.434933 0.607324 0
M  V30 2499 H 247.446 1.631 1.06698 0
M  V30 2500 H 246.542 1.74024 2.59079 0
M  V30 2501 N 246.843 -1.10192 1.12674 0
M  V30 2502 C 248.259 -1.34235 0.863317 0
M  V30 2503 C 248.459 -1.95062 -0.505277 0
M  V30 2504 O 247.515 -2.19192 -1.25345 0
M  V30 2505 C 248.828 -2.2616 1.98172 0
M  V30 2506 C 250.376 -2.3969 2.0129 0
M  V30 2507 C 250.851 -3.34946 3.1237 0
M  V30 2508 N 252.342 -3.42515 3.11829 0
M  V30 2509 C 253.077 -4.16199 3.94419 0
M  V30 2510 N 252.573 -4.92747 4.87004 0
M  V30 2511 N 254.366 -4.11843 3.82547 0
M  V30 2512 H 246.517 -0.690798 2.00853 0
M  V30 2513 H 248.78 -0.366774 0.874174 0
M  V30 2514 H 248.486 -1.8868 2.96804 0
M  V30 2515 H 248.36 -3.26488 1.88906 0
M  V30 2516 H 250.747 -2.76438 1.03276 0
M  V30 2517 H 250.828 -1.39169 2.14629 0
M  V30 2518 H 250.472 -2.98923 4.10619 0
M  V30 2519 H 250.402 -4.35353 2.96269 0
M  V30 2520 H 252.893 -2.87926 2.44759 0
M  V30 2521 H 253.206 -5.46376 5.46528 0
M  V30 2522 H 251.551 -4.91862 4.91016 0
M  V30 2523 H 254.742 -3.51136 3.0955 0
M  V30 2524 H 254.915 -4.69007 4.47142 0
M  V30 2525 N 248.321 -0.919034 -1.28029 0
M  V30 2526 C 249.57 -0.550802 -1.94034 0
M  V30 2527 C 249.883 0.910877 -1.73096 0
M  V30 2528 O 251.089 1.3875 -2.33368 0
M  V30 2529 C 249.545 -0.934249 -3.47563 0
M  V30 2530 C 249.153 -2.41602 -3.7727 0
M  V30 2531 C 250.897 -0.636854 -4.19696 0
M  V30 2532 C 248.804 -2.73932 -5.24133 0
M  V30 2533 H 247.734 -0.202273 -0.726362 0
M  V30 2534 H 250.385 -1.11867 -1.45458 0
M  V30 2535 H 248.767 -0.295115 -3.94899 0
M  V30 2536 H 249.941 -3.10233 -3.40723 0
M  V30 2537 H 248.256 -2.68441 -3.18321 0
M  V30 2538 H 250.853 -0.855005 -5.2782 0
M  V30 2539 H 251.196 0.425575 -4.14119 0
M  V30 2540 H 251.729 -1.23469 -3.78154 0
M  V30 2541 H 248.468 -3.79049 -5.34792 0
M  V30 2542 H 247.988 -2.09942 -5.61858 0
M  V30 2543 H 249.667 -2.61215 -5.91925 0
M  V30 2544 N 249.799 1.42003 -0.683588 0
M  V30 2545 C 251.215 1.55625 -0.353976 0
M  V30 2546 C 251.415 1.66151 1.14 0
M  V30 2547 O 250.471 1.63329 1.92561 0
M  V30 2548 C 251.784 2.80171 -1.092 0
M  V30 2549 C 253.332 2.93954 -1.07518 0
M  V30 2550 C 253.807 4.21372 -1.79471 0
M  V30 2551 N 255.298 4.28303 -1.76381 0
M  V30 2552 C 256.033 5.25729 -2.28904 0
M  V30 2553 N 255.529 6.29254 -2.89846 0
M  V30 2554 N 257.322 5.17586 -2.19228 0
M  V30 2555 H 249.473 1.33415 -1.6527 0
M  V30 2556 H 251.736 0.64282 -0.696769 0
M  V30 2557 H 251.442 2.78561 -2.14701 0
M  V30 2558 H 251.316 3.7133 -0.662862 0
M  V30 2559 H 253.703 2.95086 -0.028475 0
M  V30 2560 H 253.784 2.04002 -1.54328 0
M  V30 2561 H 253.428 4.21001 -2.84114 0
M  V30 2562 H 253.358 5.10275 -1.30104 0
M  V30 2563 H 255.849 3.54119 -1.31939 0
M  V30 2564 H 256.162 6.99964 -3.27522 0
M  V30 2565 H 254.507 6.29791 -2.93919 0
M  V30 2566 H 257.698 4.35631 -1.71299 0
M  V30 2567 H 257.871 5.93348 -2.60466 0
M  V30 2568 N 251.277 0.427512 1.51691 0
M  V30 2569 C 252.693 0.0792977 1.59403 0
M  V30 2570 C 252.893 -1.41035 1.43914 0
M  V30 2571 O 251.949 -2.17922 1.27539 0
M  V30 2572 C 253.262 0.590636 2.94842 0
M  V30 2573 C 254.81 0.550215 3.08126 0
M  V30 2574 C 255.285 1.03836 4.46074 0
M  V30 2575 N 256.776 0.995943 4.52366 0
M  V30 2576 C 257.511 1.34463 5.57411 0
M  V30 2577 N 257.007 1.76569 6.69922 0
M  V30 2578 N 258.8 1.26343 5.47717 0
M  V30 2579 H 250.951 1.39687 1.60004 0
M  V30 2580 H 253.214 0.575003 0.753708 0
M  V30 2581 H 252.92 1.63251 3.11516 0
M  V30 2582 H 252.794 0.0102061 3.77199 0
M  V30 2583 H 255.181 -0.482654 2.91126 0
M  V30 2584 H 255.262 1.16693 2.27632 0
M  V30 2585 H 254.906 2.06965 4.63819 0
M  V30 2586 H 254.836 0.398286 5.25092 0
M  V30 2587 H 257.327 0.68661 3.7161 0
M  V30 2588 H 257.64 2.01438 7.46085 0
M  V30 2589 H 255.985 1.80488 6.71155 0
M  V30 2590 H 259.176 0.933209 4.58703 0
M  V30 2591 H 259.349 1.53846 6.29472 0
M  V30 2592 N 252.755 -1.56801 0.158532 0
M  V30 2593 C 254.166 -1.83189 -0.360366 0
M  V30 2594 C 254.517 -1.07778 -1.63946 0
M  V30 2595 O 253.642 -0.326718 -2.13919 0
M  V30 2596 C 254.237 -3.32297 -0.660595 0
M  V30 2597 C 252.796 -3.59227 -1.12398 0
M  V30 2598 C 251.943 -2.76877 -0.153097 0
M  V30 2599 H 254.894 -1.54008 0.383031 0
M  V30 2600 H 254.915 -3.4908 -1.51405 0
M  V30 2601 H 254.427 -3.87156 0.270527 0
M  V30 2602 H 252.528 -3.09766 -2.07064 0
M  V30 2603 H 252.641 -4.67632 -1.04197 0
M  V30 2604 H 251.005 -2.46319 -0.647983 0
M  V30 2605 H 251.788 -3.34511 0.77182 0
M  V30 2606 N 254.233 0.115231 -1.57178 0
M  V30 2607 C 255.479 0.82357 -1.85325 0
M  V30 2608 C 255.812 1.79349 -0.744814 0
M  V30 2609 O 255.087 1.92899 0.249024 0
M  V30 2610 C 255.37 1.57014 -3.24066 0
M  V30 2611 C 255.223 0.619565 -4.45513 0
M  V30 2612 C 256.542 2.52545 -3.60429 0
M  V30 2613 H 253.661 0.297948 -0.674089 0
M  V30 2614 H 256.303 0.0877138 -1.89797 0
M  V30 2615 H 254.453 2.19742 -3.20383 0
M  V30 2616 H 256.125 0.000837639 -4.613 0
M  V30 2617 H 254.368 -0.0686174 -4.33746 0
M  V30 2618 H 255.039 1.17866 -5.3927 0
M  V30 2619 H 257.515 1.9992 -3.64926 0
M  V30 2620 H 256.391 3.01811 -4.58477 0
M  V30 2621 H 256.652 3.35383 -2.88047 0
M  V30 2622 N 255.711 1.52812 0.385517 0
M  V30 2623 C 256.659 1.78482 1.49155 0
M  V30 2624 C 257.653 0.652914 1.56312 0
M  V30 2625 O 258.859 0.835464 1.59436 0
M  V30 2626 H 255.234 0.5648 0.496493 0
M  V30 2627 H 257.205 2.71095 1.24699 0
M  V30 2628 C 255.954 1.97378 2.86247 0
M  V30 2629 H 255.277 2.83907 2.81491 0
M  V30 2630 H 256.717 2.19327 3.62866 0
M  V30 2631 C 255.176 0.74728 3.28508 0
M  V30 2632 O 255.706 -0.0736232 4.01633 0
M  V30 2633 N 253.912 0.576396 2.84826 0
M  V30 2634 H 253.459 1.24555 2.25486 0
M  V30 2635 H 253.417 -0.24288 3.1346 0
M  V30 2636 N 257.189 -0.644168 1.43834 0
M  V30 2637 C 258.435 -1.40603 1.46146 0
M  V30 2638 C 258.768 -1.93997 0.0887717 0
M  V30 2639 O 258.043 -1.72854 -0.891724 0
M  V30 2640 C 258.326 -2.58086 2.51124 0
M  V30 2641 C 258.179 -2.10126 3.97702 0
M  V30 2642 C 259.498 -3.60291 2.52742 0
M  V30 2643 H 256.617 -0.509905 0.532134 0
M  V30 2644 H 259.259 -0.729502 1.75437 0
M  V30 2645 H 257.409 -3.15801 2.26278 0
M  V30 2646 H 259.081 -1.57342 4.33637 0
M  V30 2647 H 257.324 -1.41419 4.10101 0
M  V30 2648 H 257.995 -2.94649 4.66783 0
M  V30 2649 H 260.471 -3.12352 2.7491 0
M  V30 2650 H 259.347 -4.40032 3.28121 0
M  V30 2651 H 259.608 -4.1349 1.56455 0
M  V30 2652 N 258.668 -1.30515 -0.883378 0
M  V30 2653 C 260.079 -1.17509 -1.45081 0
M  V30 2654 C 260.43 0.223605 -1.94922 0
M  V30 2655 O 259.555 1.12041 -1.85137 0
M  V30 2656 C 260.15 -2.12715 -2.63701 0
M  V30 2657 C 258.709 -2.03682 -3.16529 0
M  V30 2658 C 257.856 -2.02706 -1.89224 0
M  V30 2659 H 260.807 -1.42762 -0.693165 0
M  V30 2660 H 260.828 -1.70891 -3.39965 0
M  V30 2661 H 260.34 -3.14505 -2.27395 0
M  V30 2662 H 258.441 -1.05039 -3.57488 0
M  V30 2663 H 258.554 -2.92146 -3.7972 0
M  V30 2664 H 256.918 -1.4753 -2.07622 0
M  V30 2665 H 257.701 -3.06229 -1.55174 0
M  V30 2666 N 260.146 1.09593 -1.13257 0
M  V30 2667 C 261.395 1.81105 -0.887917 0
M  V30 2668 C 261.708 1.86563 0.587672 0
M  V30 2669 O 262.914 2.54367 0.949204 0
M  V30 2670 C 261.37 3.25338 -1.53895 0
M  V30 2671 C 260.978 3.28151 -3.04994 0
M  V30 2672 C 262.722 4.01617 -1.37492 0
M  V30 2673 C 260.629 4.66897 -3.6299 0
M  V30 2674 H 259.559 0.678661 -0.328534 0
M  V30 2675 H 262.21 1.23183 -1.36008 0
M  V30 2676 H 260.592 3.8331 -0.994446 0
M  V30 2677 H 261.766 2.79953 -3.66009 0
M  V30 2678 H 260.081 2.65361 -3.20893 0
M  V30 2679 H 262.678 5.04119 -1.78235 0
M  V30 2680 H 263.021 4.15072 -0.31957 0
M  V30 2681 H 263.554 3.50082 -1.88912 0
M  V30 2682 H 260.293 4.58643 -4.68323 0
M  V30 2683 H 259.813 5.15426 -3.06752 0
M  V30 2684 H 261.492 5.3587 -3.62563 0
M  V30 2685 N 261.624 0.925811 1.2754 0
M  V30 2686 C 262.901 0.483726 1.89524 0
M  V30 2687 C 263.281 -1.03809 1.83812 0
M  V30 2688 O 262.629 -1.89143 1.28207 0
M  V30 2689 C 262.839 1.02769 3.33526 0
M  V30 2690 C 264.187 1.08703 4.10449 0
M  V30 2691 O 265.211 0.977175 3.42534 0
M  V30 2692 O 264.07 1.25599 5.31871 0
M  V30 2693 H 261.164 0.15529 0.812289 0
M  V30 2694 H 263.71 1.01738 1.35822 0
M  V30 2695 H 262.482 2.07155 3.31967 0
M  V30 2696 H 262.105 0.475567 3.94746 0
M  V30 2697 N 263.102 -1.41638 0.69111 0
M  V30 2698 C 264.351 -2.00526 0.217318 0
M  V30 2699 C 264.664 -1.55353 -1.18848 0
M  V30 2700 O 265.87 -2.06769 -1.75951 0
M  V30 2701 C 264.326 -3.58313 0.337639 0
M  V30 2702 C 263.934 -4.12469 1.74852 0
M  V30 2703 C 265.678 -4.24431 -0.0766066 0
M  V30 2704 C 263.585 -5.62675 1.82074 0
M  V30 2705 H 262.515 -0.750008 0.0774893 0
M  V30 2706 H 265.166 -1.6217 0.858661 0
M  V30 2707 H 263.548 -3.9425 -0.371879 0
M  V30 2708 H 264.722 -3.8796 2.48644 0
M  V30 2709 H 263.037 -3.58861 2.11205 0
M  V30 2710 H 265.634 -5.34683 -0.0430284 0
M  V30 2711 H 265.977 -4.01101 -1.1146 0
M  V30 2712 H 266.51 -3.93512 0.582476 0
M  V30 2713 H 263.249 -5.90826 2.83911 0
M  V30 2714 H 262.769 -5.89124 1.12661 0
M  V30 2715 H 264.448 -6.27371 1.58159 0
M  V30 2716 N 264.58 -0.43555 -1.51462 0
M  V30 2717 C 265.827 0.131514 -2.02072 0
M  V30 2718 C 266.155 1.42868 -1.31981 0
M  V30 2719 O 265.41 1.91076 -0.422883 0
M  V30 2720 C 265.709 0.39942 -3.55161 0
M  V30 2721 C 265.375 -0.81172 -4.43533 0
M  V30 2722 C 264.037 -1.14387 -4.67407 0
M  V30 2723 C 266.389 -1.61976 -4.95392 0
M  V30 2724 C 263.717 -2.28477 -5.40384 0
M  V30 2725 C 266.069 -2.75164 -5.6962 0
M  V30 2726 C 264.733 -3.08835 -5.91758 0
M  V30 2727 H 264.003 0.0481244 -0.739436 0
M  V30 2728 H 266.65 -0.58238 -1.8243 0
M  V30 2729 H 264.955 1.19519 -3.73125 0
M  V30 2730 H 266.652 0.85157 -3.91854 0
M  V30 2731 H 263.242 -0.542898 -4.25148 0
M  V30 2732 H 267.426 -1.37637 -4.76833 0
M  V30 2733 H 262.682 -2.5488 -5.55739 0
M  V30 2734 H 266.856 -3.38147 -6.08793 0
M  V30 2735 H 264.483 -3.97353 -6.48086 0
M  V30 2736 N 266.058 1.56714 -0.166846 0
M  V30 2737 C 267.283 2.01557 0.488833 0
M  V30 2738 C 267.708 1.0463 1.56314 0
M  V30 2739 O 267.066 0.0251304 1.81283 0
M  V30 2740 C 267.114 3.4503 1.04818 0
M  V30 2741 O 266.218 3.51163 2.16236 0
M  V30 2742 H 265.559 0.653516 0.117526 0
M  V30 2743 H 268.089 2.02818 -0.269421 0
M  V30 2744 H 268.099 3.84243 1.37191 0
M  V30 2745 H 266.774 4.15077 0.261572 0
M  V30 2746 H 265.351 3.23807 1.84942 0
M  V30 2747 N 267.536 -0.106894 1.57237 0
M  V30 2748 C 268.446 -1.14911 2.0453 0
M  V30 2749 C 269.462 -1.44592 0.96795 0
M  V30 2750 O 270.638 -1.55468 1.2803 0
M  V30 2751 C 267.703 -2.45272 2.45036 0
M  V30 2752 C 266.764 -2.22879 3.66911 0
M  V30 2753 C 265.997 -3.47024 4.05475 0
M  V30 2754 O 266.22 -4.54804 3.44252 0
M  V30 2755 O 265.154 -3.3731 4.98504 0
M  V30 2756 H 268.98 -0.777461 2.9358 0
M  V30 2757 H 266.565 -0.318563 1.45964 0
M  V30 2758 H 268.447 -3.22055 2.71769 0
M  V30 2759 H 267.122 -2.81886 1.59129 0
M  V30 2760 H 266.029 -1.43915 3.45311 0
M  V30 2761 H 267.362 -1.91163 4.53561 0
M  V30 2762 N 269.014 -1.53014 -0.377408 0
M  V30 2763 C 269.924 -1.81557 -1.48574 0
M  V30 2764 C 270.94 -0.703102 -1.59162 0
M  V30 2765 O 272.116 -0.99192 -1.75279 0
M  V30 2766 C 269.181 -1.9889 -2.83978 0
M  V30 2767 C 268.242 -3.22801 -2.83016 0
M  V30 2768 C 267.475 -3.39298 -4.11962 0
M  V30 2769 O 267.698 -2.60345 -5.0752 0
M  V30 2770 O 266.632 -4.32604 -4.18494 0
M  V30 2771 H 270.458 -2.75695 -1.27382 0
M  V30 2772 H 268.043 -1.38248 -0.566373 0
M  V30 2773 H 269.925 -2.11931 -3.6423 0
M  V30 2774 H 268.6 -1.07942 -3.05172 0
M  V30 2775 H 267.507 -3.15193 -2.01505 0
M  V30 2776 H 268.84 -4.13632 -2.66775 0
M  V30 2777 N 270.492 0.636531 -1.44174 0
M  V30 2778 C 271.741 1.39213 -1.45954 0
M  V30 2779 C 272.054 1.95374 -0.0939119 0
M  V30 2780 O 273.26 2.71498 0.0107767 0
M  V30 2781 C 271.716 2.52025 -2.56927 0
M  V30 2782 C 271.324 2.024 -3.99673 0
M  V30 2783 C 273.068 3.29269 -2.67922 0
M  V30 2784 C 270.975 3.12521 -5.0208 0
M  V30 2785 H 269.905 0.523132 -0.542999 0
M  V30 2786 H 272.556 0.685349 -1.70221 0
M  V30 2787 H 270.938 3.25253 -2.25891 0
M  V30 2788 H 272.112 1.36073 -4.40251 0
M  V30 2789 H 270.427 1.37987 -3.92872 0
M  V30 2790 H 273.024 4.11352 -3.41605 0
M  V30 2791 H 273.367 3.78397 -1.73555 0
M  V30 2792 H 273.9 2.63129 -2.98342 0
M  V30 2793 H 270.639 2.68343 -5.98057 0
M  V30 2794 H 270.159 3.77507 -4.66099 0
M  V30 2795 H 271.838 3.77385 -5.25538 0
M  V30 2796 N 271.97 1.30982 0.876444 0
M  V30 2797 C 273.386 1.09498 1.16113 0
M  V30 2798 C 273.586 -0.13875 2.01022 0
M  V30 2799 O 272.642 -0.829935 2.38471 0
M  V30 2800 C 273.955 2.36308 1.85954 0
M  V30 2801 C 275.503 2.41856 1.98683 0
M  V30 2802 C 275.978 3.6853 2.71937 0
M  V30 2803 N 277.469 3.69387 2.79477 0
M  V30 2804 C 278.204 4.64096 3.36753 0
M  V30 2805 N 277.7 5.69155 3.95012 0
M  V30 2806 N 279.493 4.51626 3.3465 0
M  V30 2807 H 271.644 2.10118 0.310494 0
M  V30 2808 H 273.907 0.926634 0.200131 0
M  V30 2809 H 273.613 3.26388 1.31011 0
M  V30 2810 H 273.487 2.4561 2.86278 0
M  V30 2811 H 275.874 1.52249 2.52793 0
M  V30 2812 H 275.955 2.36523 0.9742 0
M  V30 2813 H 275.599 4.58499 2.18496 0
M  V30 2814 H 275.529 3.71127 3.73593 0
M  V30 2815 H 278.02 2.93438 2.38123 0
M  V30 2816 H 278.333 6.3751 4.36808 0
M  V30 2817 H 276.678 5.72937 3.93406 0
M  V30 2818 H 279.869 3.68728 2.8837 0
M  V30 2819 H 280.042 5.25614 3.7899 0
M  V30 2820 N 273.449 -1.08991 1.13837 0
M  V30 2821 C 274.696 -1.81258 0.902882 0
M  V30 2822 C 275.024 -1.85936 -0.570803 0
M  V30 2823 O 274.279 -1.3267 -1.43865 0
M  V30 2824 C 274.578 -3.27042 1.44147 0
M  V30 2825 C 274.244 -3.4249 2.93276 0
M  V30 2826 C 272.906 -3.46414 3.33992 0
M  V30 2827 C 275.258 -3.4666 3.892 0
M  V30 2828 C 272.586 -3.52091 4.69307 0
M  V30 2829 C 274.938 -3.53872 5.24364 0
M  V30 2830 C 273.602 -3.56066 5.646 0
M  V30 2831 H 272.872 -0.663268 0.330388 0
M  V30 2832 H 275.519 -1.28368 1.42105 0
M  V30 2833 H 273.824 -3.82599 0.844097 0
M  V30 2834 H 275.521 -3.81499 1.23528 0
M  V30 2835 H 272.111 -3.40124 2.60794 0
M  V30 2836 H 276.295 -3.42865 3.58828 0
M  V30 2837 H 271.551 -3.52079 4.9985 0
M  V30 2838 H 275.725 -3.56043 5.98503 0
M  V30 2839 H 273.352 -3.60218 6.69438 0
M  V30 2840 N 274.927 -0.932562 -1.27047 0
M  V30 2841 C 276.157 -0.591173 -1.97961 0
M  V30 2842 C 276.565 0.836219 -1.69717 0
M  V30 2843 O 275.908 1.56801 -0.957036 0
M  V30 2844 C 275.97 -0.743082 -3.51736 0
M  V30 2845 C 275.634 -2.1435 -4.03613 0
M  V30 2846 C 276.631 -3.11815 -4.16014 0
M  V30 2847 C 274.316 -2.46175 -4.37839 0
M  V30 2848 C 276.31 -4.39211 -4.61923 0
M  V30 2849 C 273.997 -3.73806 -4.83438 0
M  V30 2850 C 274.995 -4.70137 -4.95439 0
M  V30 2851 O 274.683 -5.95496 -5.40037 0
M  V30 2852 H 274.415 -0.222375 -0.638377 0
M  V30 2853 H 276.969 -1.25317 -1.62742 0
M  V30 2854 H 275.199 -0.0239739 -3.86693 0
M  V30 2855 H 276.888 -0.40603 -4.03864 0
M  V30 2856 H 277.654 -2.88549 -3.89826 0
M  V30 2857 H 273.533 -1.71936 -4.27737 0
M  V30 2858 H 277.077 -5.14404 -4.71205 0
M  V30 2859 H 272.974 -3.96888 -5.09068 0
M  V30 2860 H 273.742 -5.98554 -5.58279 0
M  V30 2861 N 276.405 1.4127 -0.698611 0
M  V30 2862 C 277.337 2.292 0.00399731 0
M  V30 2863 C 278.35 1.44944 0.741279 0
M  V30 2864 O 279.539 1.68416 0.591477 0
M  V30 2865 C 276.639 3.22875 1.02979 0
M  V30 2866 C 275.812 4.35904 0.36151 0
M  V30 2867 C 274.871 5.10134 1.29033 0
M  V30 2868 O 273.897 5.63809 0.781562 0
M  V30 2869 N 275.099 5.17885 2.6225 0
M  V30 2870 H 277.864 2.9014 -0.750921 0
M  V30 2871 H 275.425 1.52455 -0.544882 0
M  V30 2872 H 277.417 3.69404 1.65296 0
M  V30 2873 H 275.987 2.63221 1.68622 0
M  V30 2874 H 275.207 3.91719 -0.441584 0
M  V30 2875 H 276.495 5.08696 -0.103055 0
M  V30 2876 H 275.893 4.7573 3.061 0
M  V30 2877 H 274.45 5.6798 3.19754 0
M  V30 2878 N 277.883 0.443576 1.51229 0
M  V30 2879 C 278.813 -0.355142 2.30783 0
M  V30 2880 C 279.794 -1.0154 1.36468 0
M  V30 2881 O 280.979 -1.01785 1.65389 0
M  V30 2882 C 278.109 -1.45312 3.15439 0
M  V30 2883 C 277.063 -0.916002 4.18083 0
M  V30 2884 C 276.389 -2.1102 4.91299 0
M  V30 2885 C 277.689 0.0538602 5.22272 0
M  V30 2886 H 279.383 0.308767 2.97804 0
M  V30 2887 H 276.929 0.149937 1.43217 0
M  V30 2888 H 278.882 -2.01914 3.69876 0
M  V30 2889 H 277.606 -2.14541 2.46252 0
M  V30 2890 H 276.265 -0.372145 3.64706 0
M  V30 2891 H 275.913 -2.78882 4.18609 0
M  V30 2892 H 275.613 -1.75717 5.60712 0
M  V30 2893 H 277.137 -2.68164 5.48562 0
M  V30 2894 H 278.551 -0.422069 5.71744 0
M  V30 2895 H 276.948 0.319776 5.99247 0
M  V30 2896 H 278.018 0.98858 4.74716 0
M  V30 2897 N 279.361 -1.56624 0.175154 0
M  V30 2898 C 280.609 -1.96609 -0.467885 0
M  V30 2899 C 280.93 -1.06238 -1.63519 0
M  V30 2900 O 280.2 -0.129523 -1.95471 0
M  V30 2901 H 278.78 -0.726008 -0.175845 0
M  V30 2902 H 281.442 -1.93195 0.257234 0
M  V30 2903 H 280.538 -3.00989 -0.825342 0
M  V30 2904 N 280.839 0.0985539 -1.57292 0
M  V30 2905 C 281.749 1.13824 -2.05137 0
M  V30 2906 C 282.765 1.44076 -0.975604 0
M  V30 2907 O 283.941 1.54786 -1.28853 0
M  V30 2908 C 281.006 2.43969 -2.46333 0
M  V30 2909 C 280.067 2.2093 -3.68087 0
M  V30 2910 C 279.3 3.44869 -4.0731 0
M  V30 2911 O 279.523 4.52972 -3.46659 0
M  V30 2912 O 278.457 3.34661 -5.00285 0
M  V30 2913 H 282.283 0.761881 -2.93988 0
M  V30 2914 H 279.868 0.310818 -1.46131 0
M  V30 2915 H 281.75 3.20609 -2.73473 0
M  V30 2916 H 280.425 2.81038 -1.60621 0
M  V30 2917 H 279.332 1.42081 -3.46069 0
M  V30 2918 H 280.665 1.88755 -4.54568 0
M  V30 2919 N 282.317 1.53212 0.369288 0
M  V30 2920 C 283.227 1.82342 1.47609 0
M  V30 2921 C 284.243 0.711532 1.58787 0
M  V30 2922 O 285.419 1.0012 1.74751 0
M  V30 2923 C 282.484 2.00393 2.8292 0
M  V30 2924 C 281.545 3.24297 2.81301 0
M  V30 2925 C 280.778 3.41478 4.10157 0
M  V30 2926 O 281.001 2.63033 5.06132 0
M  V30 2927 O 279.935 4.34817 4.16194 0
M  V30 2928 H 283.761 2.76366 1.25918 0
M  V30 2929 H 281.346 1.38547 0.559034 0
M  V30 2930 H 283.228 2.13859 3.63101 0
M  V30 2931 H 281.903 1.09559 3.04596 0
M  V30 2932 H 280.81 3.16257 1.99831 0
M  V30 2933 H 282.143 4.15041 2.64578 0
M  V30 2934 N 283.795 -0.628877 1.44509 0
M  V30 2935 C 284.758 -1.72263 1.51188 0
M  V30 2936 C 285.758 -1.55907 0.39367 0
M  V30 2937 O 286.948 -1.61361 0.656377 0
M  V30 2938 C 284.08 -3.11365 1.38798 0
M  V30 2939 H 285.273 -1.67714 2.4862 0
M  V30 2940 H 282.826 -0.842737 1.31634 0
M  V30 2941 H 283.561 -3.21507 0.424693 0
M  V30 2942 H 283.346 -3.24644 2.19884 0
M  V30 2943 H 284.836 -3.91075 1.46458 0
M  V30 2944 N 285.273 -1.31445 -0.869486 0
M  V30 2945 C 286.206 -1.13465 -1.97992 0
M  V30 2946 C 287.184 -0.0380291 -1.62556 0
M  V30 2947 O 288.368 -0.194544 -1.87493 0
M  V30 2948 C 285.495 -0.733822 -3.30655 0
M  V30 2949 C 284.541 -1.83356 -3.85075 0
M  V30 2950 S 285.374 -3.43909 -4.10472 0
M  V30 2951 C 286.53 -3.05763 -5.46132 0
M  V30 2952 H 286.763 -2.07471 -2.1294 0
M  V30 2953 H 284.296 -1.15936 -1.01972 0
M  V30 2954 H 286.254 -0.509306 -4.07328 0
M  V30 2955 H 284.915 0.187123 -3.13542 0
M  V30 2956 H 284.108 -1.50574 -4.80982 0
M  V30 2957 H 283.71 -2.01315 -3.15195 0
M  V30 2958 H 286.002 -2.54686 -6.27807 0
M  V30 2959 H 286.945 -4.00635 -5.83864 0
M  V30 2960 H 287.353 -2.43192 -5.09429 0
M  V30 2961 N 286.751 1.08385 -1.14413 0
M  V30 2962 C 287.661 2.18856 -0.844951 0
M  V30 2963 C 288.677 1.73121 0.174668 0
M  V30 2964 O 289.853 2.014 0.00312857 0
M  V30 2965 C 286.918 3.45155 -0.32696 0
M  V30 2966 C 285.979 4.05513 -1.40916 0
M  V30 2967 C 285.212 5.25784 -0.915793 0
M  V30 2968 O 285.435 5.69884 0.242651 0
M  V30 2969 O 284.369 5.77545 -1.69487 0
M  V30 2970 H 288.195 2.46919 -1.76818 0
M  V30 2971 H 285.78 1.17524 -0.922411 0
M  V30 2972 H 287.662 4.21377 -0.0440211 0
M  V30 2973 H 286.337 3.18668 0.568539 0
M  V30 2974 H 285.244 3.30879 -1.74556 0
M  V30 2975 H 286.577 4.3625 -2.27919 0
M  V30 2976 N 288.23 0.939286 1.26551 0
M  V30 2977 C 289.177 0.446088 2.26448 0
M  V30 2978 C 290.147 -0.493234 1.58608 0
M  V30 2979 O 291.332 -0.409857 1.86346 0
M  V30 2980 C 288.472 -0.284375 3.43926 0
M  V30 2981 C 287.585 0.690399 4.26448 0
M  V30 2982 C 286.72 -0.0610712 5.31165 0
M  V30 2983 C 285.759 0.905649 6.05363 0
M  V30 2984 N 284.896 0.186055 7.01853 0
M  V30 2985 H 289.736 1.30291 2.68008 0
M  V30 2986 H 287.273 0.65371 1.31776 0
M  V30 2987 H 289.231 -0.724313 4.10864 0
M  V30 2988 H 287.861 -1.10535 3.03285 0
M  V30 2989 H 286.913 1.24885 3.59316 0
M  V30 2990 H 288.225 1.42873 4.779 0
M  V30 2991 H 287.379 -0.56038 6.04106 0
M  V30 2992 H 286.118 -0.832297 4.80546 0
M  V30 2993 H 285.123 1.4161 5.3125 0
M  V30 2994 H 286.348 1.67685 6.58072 0
M  V30 2995 H 284.294 -0.566714 6.53548 0
M  V30 2996 H 284.211 0.863752 7.51049 0
M  V30 2997 H 285.479 -0.292221 7.78952 0
M  V30 2998 N 289.708 -1.40897 0.706093 0
M  V30 2999 C 290.955 -2.01054 0.241531 0
M  V30 3000 C 291.283 -1.55956 -1.16223 0
M  V30 3001 O 290.538 -0.766336 -1.80072 0
M  V30 3002 C 290.837 -3.5646 0.259099 0
M  V30 3003 C 290.503 -4.21106 1.61184 0
M  V30 3004 C 289.165 -4.38479 1.98216 0
M  V30 3005 C 291.517 -4.57256 2.50132 0
M  V30 3006 C 288.845 -4.89282 3.2376 0
M  V30 3007 C 291.197 -5.09454 3.7502 0
M  V30 3008 C 289.861 -5.25037 4.12181 0
M  V30 3009 H 289.131 -0.73571 0.0883825 0
M  V30 3010 H 291.778 -1.68645 0.907257 0
M  V30 3011 H 290.083 -3.88721 -0.490189 0
M  V30 3012 H 291.78 -4.00826 -0.11804 0
M  V30 3013 H 288.37 -4.07966 1.31384 0
M  V30 3014 H 292.554 -4.43479 2.228 0
M  V30 3015 H 287.81 -4.99531 3.52532 0
M  V30 3016 H 291.984 -5.36404 4.44121 0
M  V30 3017 H 289.611 -5.64164 5.09532 0
M  V30 3018 N 291.186 -0.45159 -1.50991 0
M  V30 3019 C 292.602 -0.104647 -1.59257 0
M  V30 3020 C 292.802 1.38728 -1.4614 0
M  V30 3021 O 291.858 2.15866 -1.30989 0
M  V30 3022 C 293.171 -0.637468 -2.93865 0
M  V30 3023 C 294.719 -0.599166 -3.07212 0
M  V30 3024 C 295.194 -1.1092 -4.44366 0
M  V30 3025 N 296.685 -1.06778 -4.50725 0
M  V30 3026 C 297.42 -1.43314 -5.55201 0
M  V30 3027 N 296.916 -1.87204 -6.67028 0
M  V30 3028 N 298.709 -1.3504 -5.45638 0
M  V30 3029 H 290.86 -1.42214 -1.57762 0
M  V30 3030 H 293.123 -0.586921 -0.744465 0
M  V30 3031 H 292.829 -1.68187 -3.08879 0
M  V30 3032 H 292.703 -0.0702139 -3.77135 0
M  V30 3033 H 295.09 0.436277 -2.91857 0
M  V30 3034 H 295.171 -1.20299 -2.25747 0
M  V30 3035 H 294.815 -2.14318 -4.60467 0
M  V30 3036 H 294.745 -0.481773 -5.24392 0
M  V30 3037 H 297.236 -0.745643 -3.70471 0
M  V30 3038 H 297.549 -2.13282 -7.42786 0
M  V30 3039 H 295.894 -1.91142 -6.68199 0
M  V30 3040 H 299.085 -1.00607 -4.57161 0
M  V30 3041 H 299.258 -1.63841 -6.26945 0
M  V30 3042 N 292.664 1.56529 -0.183458 0
M  V30 3043 C 293.574 2.22144 0.754272 0
M  V30 3044 C 294.59 1.21684 1.24374 0
M  V30 3045 O 295.766 1.54385 1.29333 0
M  V30 3046 C 292.831 2.85884 1.96141 0
M  V30 3047 C 291.892 4.01579 1.51765 0
M  V30 3048 C 291.125 4.6227 2.66725 0
M  V30 3049 O 291.348 4.21865 3.83909 0
M  V30 3050 O 290.282 5.51936 2.40104 0
M  V30 3051 H 294.108 3.02861 0.225527 0
M  V30 3052 H 291.693 1.49331 0.0453032 0
M  V30 3053 H 293.575 3.26253 2.66715 0
M  V30 3054 H 292.25 2.08154 2.47899 0
M  V30 3055 H 291.157 3.65856 0.781049 0
M  V30 3056 H 292.49 4.80938 1.04686 0
M  V30 3057 N 294.142 -0.090211 1.57342 0
M  V30 3058 C 295.419 -0.824761 1.77361 0
M  V30 3059 C 295.799 -1.96698 0.76637 0
M  V30 3060 O 295.147 -2.27586 -0.204179 0
M  V30 3061 C 295.357 -1.31481 3.23286 0
M  V30 3062 C 296.705 -1.75563 3.86604 0
M  V30 3063 O 297.729 -1.41093 3.27065 0
M  V30 3064 O 296.588 -2.39317 4.91314 0
M  V30 3065 H 293.682 -0.393776 0.727234 0
M  V30 3066 H 296.228 -0.0717138 1.69548 0
M  V30 3067 H 295 -0.496671 3.88135 0
M  V30 3068 H 294.623 -2.12973 3.35751 0
M  V30 3069 N 295.62 -1.53406 -0.361157 0
M  V30 3070 C 296.53 -1.83122 -1.4664 0
M  V30 3071 C 297.546 -0.719943 -1.58407 0
M  V30 3072 O 298.722 -1.01046 -1.74218 0
M  V30 3073 C 295.787 -2.01891 -2.81853 0
M  V30 3074 C 294.848 -3.25784 -2.79577 0
M  V30 3075 C 294.081 -3.43648 -4.0834 0
M  V30 3076 O 294.304 -2.65714 -5.0473 0
M  V30 3077 O 293.238 -4.37018 -4.13883 0
M  V30 3078 H 297.064 -2.7703 -1.24451 0
M  V30 3079 H 294.649 -1.38841 -0.551678 0
M  V30 3080 H 296.531 -2.15782 -3.61962 0
M  V30 3081 H 295.206 -1.11173 -3.0401 0
M  V30 3082 H 294.113 -3.17312 -1.98151 0
M  V30 3083 H 295.446 -4.16439 -2.62373 0
M  V30 3084 N 297.098 0.621204 -1.44841 0
M  V30 3085 C 298.346 1.37783 -1.47852 0
M  V30 3086 C 298.667 1.94653 -0.116224 0
M  V30 3087 O 297.937 1.76367 0.852737 0
M  V30 3088 H 296.517 0.511453 -0.544449 0
M  V30 3089 H 299.179 0.730446 -1.80694 0
M  V30 3090 H 298.275 2.20414 -2.20961 0
M  V30 3091 N 298.576 1.31904 0.862503 0
M  V30 3092 C 299.823 1.22017 1.61611 0
M  V30 3093 C 300.151 -0.21991 1.93253 0
M  V30 3094 O 299.406 -1.17076 1.56817 0
M  V30 3095 C 299.705 2.01713 2.95037 0
M  V30 3096 C 299.371 3.51145 2.82857 0
M  V30 3097 C 298.033 3.91889 2.79243 0
M  V30 3098 C 300.385 4.46204 2.69353 0
M  V30 3099 C 297.713 5.25947 2.59993 0
M  V30 3100 C 300.065 5.80397 2.5164 0
M  V30 3101 C 298.729 6.20352 2.46413 0
M  V30 3102 H 297.999 0.44649 0.591378 0
M  V30 3103 H 300.646 1.63248 1.00111 0
M  V30 3104 H 298.951 1.53185 3.60613 0
M  V30 3105 H 300.648 1.91437 3.52353 0
M  V30 3106 H 297.238 3.1878 2.86491 0
M  V30 3107 H 301.422 4.15652 2.71196 0
M  V30 3108 H 296.678 5.5597 2.54376 0
M  V30 3109 H 300.852 6.53676 2.40169 0
M  V30 3110 H 298.479 7.24172 2.31256 0
M  V30 3111 N 300.054 -1.07777 1.14986 0
M  V30 3112 C 300.984 -2.16865 0.865557 0
M  V30 3113 C 301.965 -1.69123 -0.182083 0
M  V30 3114 O 303.15 -1.94164 -0.0373815 0
M  V30 3115 C 300.28 -3.45539 0.349313 0
M  V30 3116 C 299.234 -4.06708 1.33313 0
M  V30 3117 C 298.56 -5.30411 0.675918 0
M  V30 3118 C 299.86 -4.47241 2.69764 0
M  V30 3119 H 301.554 -2.40905 1.77778 0
M  V30 3120 H 299.1 -1.15781 0.856203 0
M  V30 3121 H 301.053 -4.21174 0.137983 0
M  V30 3122 H 299.777 -3.21072 -0.598362 0
M  V30 3123 H 298.436 -3.33112 1.53075 0
M  V30 3124 H 298.084 -5.02232 -0.277767 0
M  V30 3125 H 297.784 -5.72293 1.33244 0
M  V30 3126 H 299.308 -6.08755 0.474262 0
M  V30 3127 H 300.722 -5.14025 2.53873 0
M  V30 3128 H 299.119 -5.00062 3.3175 0
M  V30 3129 H 300.189 -3.58818 3.26156 0
M  V30 3130 N 301.532 -0.945985 -1.26051 0
M  V30 3131 C 302.948 -0.649045 -1.45807 0
M  V30 3132 C 303.148 0.796158 -1.85104 0
M  V30 3133 O 302.204 1.57233 -1.97571 0
M  V30 3134 C 303.517 -1.61458 -2.53677 0
M  V30 3135 C 305.065 -1.62481 -2.67524 0
M  V30 3136 C 305.54 -2.57776 -3.7857 0
M  V30 3137 N 307.031 -2.5609 -3.85969 0
M  V30 3138 C 307.766 -3.26508 -4.7136 0
M  V30 3139 N 307.262 -4.0637 -5.61102 0
M  V30 3140 N 309.055 -3.15437 -4.65248 0
M  V30 3141 H 301.206 -1.88005 -0.988328 0
M  V30 3142 H 303.469 -0.808198 -0.4955 0
M  V30 3143 H 303.175 -2.64644 -2.31638 0
M  V30 3144 H 303.049 -1.37036 -3.51427 0
M  V30 3145 H 305.436 -0.600167 -2.88933 0
M  V30 3146 H 305.517 -1.90958 -1.70202 0
M  V30 3147 H 305.161 -3.60361 -3.57913 0
M  V30 3148 H 305.091 -2.26587 -4.75359 0
M  V30 3149 H 307.582 -1.98105 -3.21812 0
M  V30 3150 H 307.895 -4.57042 -6.23164 0
M  V30 3151 H 306.24 -4.10469 -5.60839 0
M  V30 3152 H 309.431 -2.52525 -3.94143 0
M  V30 3153 H 309.604 -3.70584 -5.31575 0
M  V30 3154 N 303.011 1.40521 -0.713556 0
M  V30 3155 C 303.921 2.34522 -0.0606667 0
M  V30 3156 C 304.937 1.57193 0.74607 0
M  V30 3157 O 306.113 1.89591 0.679493 0
M  V30 3158 C 303.178 3.36081 0.851491 0
M  V30 3159 C 302.239 4.29286 0.0349339 0
M  V30 3160 C 301.472 5.25994 0.903649 0
M  V30 3161 O 301.695 5.28616 2.14292 0
M  V30 3162 O 300.629 6.00918 0.343723 0
M  V30 3163 H 304.455 2.91968 -0.835972 0
M  V30 3164 H 302.04 1.41681 -0.47402 0
M  V30 3165 H 303.922 3.98369 1.37404 0
M  V30 3166 H 302.597 2.81052 1.60598 0
M  V30 3167 H 301.504 3.70289 -0.532633 0
M  V30 3168 H 302.837 4.87462 -0.681287 0
M  V30 3169 N 304.489 0.459591 1.5075 0
M  V30 3170 C 305.399 -0.34613 2.32033 0
M  V30 3171 C 306.415 -1.00686 1.41909 0
M  V30 3172 O 307.591 -0.997361 1.7497 0
M  V30 3173 C 304.656 -1.42029 3.16273 0
M  V30 3174 C 303.717 -0.777362 4.22203 0
M  V30 3175 C 302.95 -1.80034 5.02418 0
M  V30 3176 O 303.173 -3.02544 4.83553 0
M  V30 3177 O 302.107 -1.37853 5.85901 0
M  V30 3178 H 305.933 0.318054 3.0203 0
M  V30 3179 H 303.518 0.221663 1.47746 0
M  V30 3180 H 305.4 -2.04275 3.68578 0
M  V30 3181 H 304.075 -2.06815 2.49016 0
M  V30 3182 H 302.982 -0.116256 3.73919 0
M  V30 3183 H 304.315 -0.172634 4.91897 0
M  V30 3184 N 305.967 -1.56429 0.191757 0
M  V30 3185 C 306.877 -2.22541 -0.742481 0
M  V30 3186 C 307.893 -1.22342 -1.23727 0
M  V30 3187 O 309.069 -1.55069 -1.28513 0
M  V30 3188 C 306.134 -2.8692 -1.94623 0
M  V30 3189 C 305.195 -4.02378 -1.49633 0
M  V30 3190 C 304.428 -4.63678 -2.6427 0
M  V30 3191 O 304.651 -4.23895 -3.81666 0
M  V30 3192 O 303.585 -5.53202 -2.37174 0
M  V30 3193 H 307.411 -3.02977 -0.209462 0
M  V30 3194 H 304.996 -1.49353 -0.0373832 0
M  V30 3195 H 306.878 -3.27663 -2.64982 0
M  V30 3196 H 305.553 -2.09466 -2.46791 0
M  V30 3197 H 304.46 -3.66265 -0.761636 0
M  V30 3198 H 305.793 -4.81487 -1.02134 0
M  V30 3199 N 307.445 0.0818655 -1.57387 0
M  V30 3200 C 308.861 0.436412 -1.53517 0
M  V30 3201 C 309.061 1.79758 -0.910459 0
M  V30 3202 O 308.117 2.47324 -0.508636 0
M  V30 3203 C 309.43 0.386734 -2.98203 0
M  V30 3204 C 310.978 0.467644 -3.09487 0
M  V30 3205 C 311.453 0.447978 -4.55804 0
M  V30 3206 N 312.944 0.508348 -4.60402 0
M  V30 3207 C 313.679 0.515184 -5.71081 0
M  V30 3208 N 313.175 0.477435 -6.91153 0
M  V30 3209 N 314.968 0.560988 -5.59294 0
M  V30 3210 H 307.119 -0.809546 -1.96367 0
M  V30 3211 H 309.382 -0.302733 -0.898363 0
M  V30 3212 H 309.088 -0.546539 -3.47427 0
M  V30 3213 H 308.962 1.20075 -3.57578 0
M  V30 3214 H 311.349 1.39134 -2.60242 0
M  V30 3215 H 311.43 -0.374753 -2.5304 0
M  V30 3216 H 311.074 -0.471826 -5.05704 0
M  V30 3217 H 311.004 1.30777 -5.10103 0
M  V30 3218 H 313.495 0.54218 -3.7399 0
M  V30 3219 H 313.808 0.486299 -7.71268 0
M  V30 3220 H 312.153 0.444278 -6.93579 0
M  V30 3221 H 315.344 0.5881 -4.64391 0
M  V30 3222 H 315.517 0.562846 -6.45551 0
M  V30 3223 N 308.923 1.53595 0.353017 0
M  V30 3224 C 310.334 1.61937 0.929153 0
M  V30 3225 C 310.685 0.494686 1.89861 0
M  V30 3226 O 309.81 -0.377017 2.1309 0
M  V30 3227 C 310.405 2.93526 1.69199 0
M  V30 3228 C 308.964 3.04161 2.21727 0
M  V30 3229 C 308.111 2.57322 1.03348 0
M  V30 3230 H 311.062 1.58155 0.131431 0
M  V30 3231 H 311.083 2.82034 2.55416 0
M  V30 3232 H 310.595 3.75362 0.986144 0
M  V30 3233 H 308.696 2.26938 2.95516 0
M  V30 3234 H 308.809 4.09465 2.48748 0
M  V30 3235 H 307.173 2.12499 1.40414 0
M  V30 3236 H 307.956 3.41588 0.342428 0
M  V30 3237 N 310.401 -0.613514 1.45168 0
M  V30 3238 C 311.331 -1.7354 1.56225 0
M  V30 3239 C 312.312 -1.64981 0.41414 0
M  V30 3240 O 313.497 -1.83472 0.636526 0
M  V30 3241 C 310.627 -3.12128 1.52295 0
M  V30 3242 C 309.581 -3.35491 2.65762 0
M  V30 3243 C 308.907 -4.74291 2.46885 0
M  V30 3244 C 310.207 -3.26325 4.0781 0
M  V30 3245 H 311.901 -1.64543 2.50132 0
M  V30 3246 H 309.447 -0.790185 1.20383 0
M  V30 3247 H 311.4 -3.90404 1.58628 0
M  V30 3248 H 310.124 -3.2195 0.549139 0
M  V30 3249 H 308.783 -2.59603 2.58847 0
M  V30 3250 H 308.431 -4.80839 1.47657 0
M  V30 3251 H 308.131 -4.9088 3.22972 0
M  V30 3252 H 309.655 -5.54775 2.55063 0
M  V30 3253 H 311.069 -3.94483 4.16 0
M  V30 3254 H 309.466 -3.54445 4.8424 0
M  V30 3255 H 310.536 -2.23855 4.30136 0
M  V30 3256 N 311.879 -1.3236 -0.855495 0
M  V30 3257 C 313.29 -1.2056 -1.42556 0
M  V30 3258 C 313.641 0.182209 -1.95352 0
M  V30 3259 O 312.766 1.08088 -1.87472 0
M  V30 3260 C 313.361 -2.1826 -2.59129 0
M  V30 3261 C 311.92 -2.10351 -3.12137 0
M  V30 3262 C 311.067 -2.06674 -1.84882 0
M  V30 3263 H 314.018 -1.442 -0.662727 0
M  V30 3264 H 314.039 -1.78064 -3.36264 0
M  V30 3265 H 313.551 -3.19257 -2.20673 0
M  V30 3266 H 311.652 -1.12599 -3.55179 0
M  V30 3267 H 311.765 -3.00135 -3.73438 0
M  V30 3268 H 310.129 -1.51901 -2.04446 0
M  V30 3269 H 310.912 -3.09451 -1.48643 0
M  V30 3270 N 313.357 1.07166 -1.15556 0
M  V30 3271 C 314.773 1.31899 -0.898603 0
M  V30 3272 C 314.973 1.96333 0.453383 0
M  V30 3273 O 314.029 2.22438 1.19489 0
M  V30 3274 C 315.342 2.20826 -2.04099 0
M  V30 3275 C 316.89 2.34269 -2.07574 0
M  V30 3276 C 317.365 3.26546 -3.21141 0
M  V30 3277 N 318.856 3.34127 -3.20801 0
M  V30 3278 C 319.591 4.05595 -4.05315 0
M  V30 3279 N 319.087 4.79661 -4.99897 0
M  V30 3280 N 320.88 4.01555 -3.93332 0
M  V30 3281 H 313.031 0.637302 -2.02613 0
M  V30 3282 H 315.294 0.343468 -0.883591 0
M  V30 3283 H 315 1.80744 -3.01703 0
M  V30 3284 H 314.874 3.21364 -1.97496 0
M  V30 3285 H 317.261 2.73603 -1.10568 0
M  V30 3286 H 317.342 1.33429 -2.18244 0
M  V30 3287 H 316.986 2.87931 -4.184 0
M  V30 3288 H 316.916 4.27345 -3.07708 0
M  V30 3289 H 319.407 2.81336 -2.52306 0
M  V30 3290 H 319.72 5.31694 -5.60822 0
M  V30 3291 H 318.065 4.78671 -5.03884 0
M  V30 3292 H 321.256 3.42806 -3.18751 0
M  V30 3293 H 321.429 4.56987 -4.5942 0
M  V30 3294 N 314.835 0.952656 1.25548 0
M  V30 3295 C 316.251 0.656769 1.4546 0
M  V30 3296 C 316.451 -0.78633 1.85524 0
M  V30 3297 O 315.507 -1.56183 1.98402 0
M  V30 3298 C 316.82 1.62801 2.52817 0
M  V30 3299 C 318.368 1.63897 2.66659 0
M  V30 3300 C 318.843 2.5978 3.77198 0
M  V30 3301 N 320.334 2.58133 3.84606 0
M  V30 3302 C 321.069 3.29003 4.69621 0
M  V30 3303 N 320.565 4.09339 5.58939 0
M  V30 3304 N 322.358 3.179 4.63569 0
M  V30 3305 H 314.509 1.88526 0.978344 0
M  V30 3306 H 316.772 0.810815 0.491206 0
M  V30 3307 H 316.478 2.65869 2.30232 0
M  V30 3308 H 316.352 1.38898 3.50695 0
M  V30 3309 H 318.739 0.615481 2.8861 0
M  V30 3310 H 318.82 1.91858 1.69187 0
M  V30 3311 H 318.464 3.62254 3.55997 0
M  V30 3312 H 318.394 2.29105 4.7415 0
M  V30 3313 H 320.885 1.99809 3.20757 0
M  V30 3314 H 321.198 4.6034 6.20731 0
M  V30 3315 H 319.543 4.13438 5.58654 0
M  V30 3316 H 322.734 2.54612 3.92798 0
M  V30 3317 H 322.907 3.73398 5.29602 0
M  V30 3318 N 316.313 -1.40141 0.720998 0
M  V30 3319 C 317.59 -1.94677 0.189757 0
M  V30 3320 C 317.97 -1.65879 -1.30566 0
M  V30 3321 O 317.318 -0.979391 -2.06447 0
M  V30 3322 C 317.528 -3.45279 0.508304 0
M  V30 3323 C 318.876 -4.22209 0.449934 0
M  V30 3324 O 319.9 -3.53413 0.444677 0
M  V30 3325 O 318.759 -5.44788 0.432189 0
M  V30 3326 H 315.853 -0.826459 0.0299026 0
M  V30 3327 H 318.399 -1.49719 0.7989 0
M  V30 3328 H 317.171 -3.59619 1.54239 0
M  V30 3329 H 316.794 -3.97386 -0.130525 0
M  V30 3330 N 317.792 -0.46758 -1.50504 0
M  V30 3331 C 319.039 0.0886219 -2.02306 0
M  V30 3332 C 319.367 1.40037 -1.34981 0
M  V30 3333 O 318.622 1.90136 -0.463318 0
M  V30 3334 C 318.921 0.323995 -3.55928 0
M  V30 3335 C 318.587 -0.905618 -4.41712 0
M  V30 3336 C 317.249 -1.24275 -4.64875 0
M  V30 3337 C 319.601 -1.72448 -4.91845 0
M  V30 3338 C 316.929 -2.39888 -5.35417 0
M  V30 3339 C 319.281 -2.87185 -5.63656 0
M  V30 3340 C 317.945 -3.21317 -5.85074 0
M  V30 3341 H 317.215 0.0324291 -0.74029 0
M  V30 3342 H 319.862 -0.620945 -1.81153 0
M  V30 3343 H 318.167 1.11577 -3.75577 0
M  V30 3344 H 319.864 0.76826 -3.93572 0
M  V30 3345 H 316.454 -0.632956 -4.239 0
M  V30 3346 H 320.638 -1.4772 -4.73806 0
M  V30 3347 H 315.894 -2.66611 -5.50208 0
M  V30 3348 H 320.068 -3.50985 -6.01484 0
M  V30 3349 H 317.695 -4.1101 -6.39511 0
M  V30 3350 N 319.27 1.56325 -0.20005 0
M  V30 3351 C 320.202 2.16555 0.750771 0
M  V30 3352 C 321.215 1.12871 1.1732 0
M  V30 3353 O 322.404 1.39943 1.10807 0
M  V30 3354 C 319.504 2.71684 2.02586 0
M  V30 3355 C 318.677 4.00321 1.76244 0
M  V30 3356 C 317.736 4.40227 2.88248 0
M  V30 3357 O 316.762 5.07552 2.57642 0
M  V30 3358 N 317.964 4.04138 4.16717 0
M  V30 3359 H 320.729 2.98772 0.235685 0
M  V30 3360 H 318.29 1.6189 -0.0182594 0
M  V30 3361 H 320.282 2.95363 2.76664 0
M  V30 3362 H 318.852 1.93893 2.45202 0
M  V30 3363 H 318.072 3.84723 0.85919 0
M  V30 3364 H 319.36 4.84279 1.56048 0
M  V30 3365 H 318.758 3.49993 4.44434 0
M  V30 3366 H 317.315 4.32756 4.87407 0
M  V30 3367 N 320.748 -0.0735177 1.57428 0
M  V30 3368 C 322.164 -0.428264 1.53747 0
M  V30 3369 C 322.364 -1.79272 0.91998 0
M  V30 3370 O 321.42 -2.47051 0.521745 0
M  V30 3371 C 322.733 -0.370914 2.98404 0
M  V30 3372 C 324.281 -0.451224 3.0973 0
M  V30 3373 C 324.756 -0.4238 4.56035 0
M  V30 3374 N 326.247 -0.483925 4.60665 0
M  V30 3375 C 326.982 -0.484891 5.71346 0
M  V30 3376 N 326.478 -0.440775 6.91396 0
M  V30 3377 N 328.271 -0.531319 5.59583 0
M  V30 3378 H 320.422 0.819949 1.95935 0
M  V30 3379 H 322.685 0.307493 0.896745 0
M  V30 3380 H 322.391 0.564956 3.47133 0
M  V30 3381 H 322.265 -1.18176 3.5821 0
M  V30 3382 H 324.652 -1.37752 2.60976 0
M  V30 3383 H 324.733 0.388167 2.52838 0
M  V30 3384 H 324.377 0.498638 5.05446 0
M  V30 3385 H 324.307 -1.2807 5.10789 0
M  V30 3386 H 326.798 -0.522338 3.74273 0
M  V30 3387 H 327.111 -0.44539 7.71515 0
M  V30 3388 H 325.456 -0.40749 6.93804 0
M  V30 3389 H 328.647 -0.563464 4.64696 0
M  V30 3390 H 328.82 -0.528603 6.4584 0
M  V30 3391 N 322.226 -1.5378 -0.344866 0
M  V30 3392 C 323.158 -1.77988 -1.44406 0
M  V30 3393 C 324.171 -0.661138 -1.48771 0
M  V30 3394 O 325.36 -0.937842 -1.51877 0
M  V30 3395 C 322.46 -1.86345 -2.8307 0
M  V30 3396 C 321.633 -3.16256 -3.0216 0
M  V30 3397 C 320.692 -3.15588 -4.21059 0
M  V30 3398 O 319.718 -3.89314 -4.15239 0
M  V30 3399 N 320.92 -2.37864 -5.29529 0
M  V30 3400 H 323.685 -2.72839 -1.24012 0
M  V30 3401 H 321.246 -1.52814 -0.534737 0
M  V30 3402 H 323.238 -1.83351 -3.60783 0
M  V30 3403 H 321.808 -0.986858 -2.96614 0
M  V30 3404 H 321.028 -3.32385 -2.11929 0
M  V30 3405 H 322.316 -4.0207 -3.11797 0
M  V30 3406 H 321.714 -1.77514 -5.37127 0
M  V30 3407 H 320.271 -2.40668 -6.05741 0
M  V30 3408 N 323.704 0.605807 -1.45491 0
M  V30 3409 C 324.95 1.36679 -1.49823 0
M  V30 3410 C 325.283 1.93693 -0.140175 0
M  V30 3411 O 324.558 1.75158 0.845581 0
M  V30 3412 C 324.841 2.51337 -2.57879 0
M  V30 3413 C 324.694 1.99508 -4.03134 0
M  V30 3414 C 326.013 3.53463 -2.62205 0
M  V30 3415 H 323.132 0.495617 -0.545466 0
M  V30 3416 H 325.774 0.682732 -1.7731 0
M  V30 3417 H 323.924 3.09691 -2.34571 0
M  V30 3418 H 325.596 1.45789 -4.37656 0
M  V30 3419 H 323.839 1.30496 -4.13707 0
M  V30 3420 H 324.51 2.82169 -4.74431 0
M  V30 3421 H 326.986 3.04953 -2.83095 0
M  V30 3422 H 325.862 4.31178 -3.39672 0
M  V30 3423 H 326.123 4.09197 -1.67363 0
M  V30 3424 N 325.182 1.32811 0.848464 0
M  V30 3425 C 326.428 1.24917 1.60522 0
M  V30 3426 C 326.783 -0.185761 1.91501 0
M  V30 3427 O 326.076 -1.12524 1.55077 0
M  V30 3428 C 326.27 2.04831 2.92881 0
M  V30 3429 C 326.099 3.55949 2.74828 0
M  V30 3430 C 324.869 4.25277 2.72887 0
M  V30 3431 C 327.067 4.50476 2.48145 0
M  V30 3432 N 325.049 5.62408 2.46111 0
M  V30 3433 C 326.42 5.75427 2.30832 0
M  V30 3434 C 328.475 4.39665 2.33664 0
M  V30 3435 C 327.178 6.90789 2.00508 0
M  V30 3436 C 329.204 5.54833 2.04731 0
M  V30 3437 C 328.566 6.78787 1.88223 0
M  V30 3438 H 324.665 0.512279 0.590842 0
M  V30 3439 H 327.249 1.67246 0.996839 0
M  V30 3440 H 325.42 1.64837 3.51686 0
M  V30 3441 H 327.152 1.88782 3.57971 0
M  V30 3442 H 323.907 3.77456 2.86049 0
M  V30 3443 H 324.331 6.3467 2.35634 0
M  V30 3444 H 328.973 3.44477 2.45144 0
M  V30 3445 H 326.691 7.85984 1.87765 0
M  V30 3446 H 330.277 5.48398 1.94295 0
M  V30 3447 H 329.157 7.66396 1.66155 0
M  V30 3448 N 326.66 -1.06551 1.16123 0
M  V30 3449 C 327.59 -2.15935 0.88851 0
M  V30 3450 C 328.571 -1.69306 -0.164135 0
M  V30 3451 O 329.756 -1.94193 -0.0167857 0
M  V30 3452 C 326.886 -3.45149 0.385942 0
M  V30 3453 C 325.84 -4.05271 1.3762 0
M  V30 3454 C 325.166 -5.29664 0.732137 0
M  V30 3455 C 326.466 -4.44355 2.74493 0
M  V30 3456 H 328.16 -2.39006 1.80323 0
M  V30 3457 H 325.706 -1.14866 0.868435 0
M  V30 3458 H 327.659 -4.21004 0.182647 0
M  V30 3459 H 326.383 -3.21689 -0.564274 0
M  V30 3460 H 325.042 -3.3147 1.56599 0
M  V30 3461 H 324.69 -5.02499 -0.224483 0
M  V30 3462 H 324.39 -5.70848 1.39307 0
M  V30 3463 H 325.914 -6.08218 0.538802 0
M  V30 3464 H 327.328 -5.11303 2.59311 0
M  V30 3465 H 325.725 -4.96515 3.37035 0
M  V30 3466 H 326.795 -3.55339 3.29943 0
M  V30 3467 N 328.138 -0.959301 -1.25041 0
M  V30 3468 C 329.068 -0.501388 -2.28053 0
M  V30 3469 C 330.049 0.454673 -1.63911 0
M  V30 3470 O 331.234 0.352618 -1.90972 0
M  V30 3471 C 328.364 0.217224 -3.4662 0
M  V30 3472 C 327.318 -0.654034 -4.22973 0
M  V30 3473 C 326.644 0.195589 -5.34342 0
M  V30 3474 C 327.944 -1.93447 -4.85155 0
M  V30 3475 H 329.638 -1.36238 -2.66608 0
M  V30 3476 H 327.184 -0.656534 -1.28163 0
M  V30 3477 H 329.137 0.548732 -4.17812 0
M  V30 3478 H 327.861 1.1125 -3.07068 0
M  V30 3479 H 326.52 -0.968693 -3.5357 0
M  V30 3480 H 326.168 1.09076 -4.91031 0
M  V30 3481 H 325.868 -0.384091 -5.86343 0
M  V30 3482 H 327.392 0.521958 -6.08365 0
M  V30 3483 H 328.806 -1.66908 -5.48466 0
M  V30 3484 H 327.203 -2.46018 -5.47353 0
M  V30 3485 H 328.273 -2.63466 -4.07079 0
M  V30 3486 N 329.616 1.39756 -0.72842 0
M  V30 3487 C 330.863 2.00645 -0.273487 0
M  V30 3488 C 331.191 1.57786 1.13727 0
M  V30 3489 O 330.446 0.794886 1.7883 0
M  V30 3490 C 330.745 3.56002 -0.315776 0
M  V30 3491 C 330.411 4.18489 -1.67863 0
M  V30 3492 C 329.073 4.3527 -2.05166 0
M  V30 3493 C 331.425 4.53219 -2.57375 0
M  V30 3494 C 328.753 4.84069 -3.31503 0
M  V30 3495 C 331.105 5.03423 -3.83077 0
M  V30 3496 C 329.769 5.18413 -4.20481 0
M  V30 3497 H 329.039 0.734211 -0.100076 0
M  V30 3498 H 331.686 1.6718 -0.933972 0
M  V30 3499 H 329.991 3.89452 0.428285 0
M  V30 3500 H 331.688 4.00963 0.0542575 0
M  V30 3501 H 328.278 4.05824 -1.37858 0
M  V30 3502 H 332.462 4.39878 -2.29827 0
M  V30 3503 H 327.718 4.93859 -3.60435 0
M  V30 3504 H 331.892 5.2927 -4.52599 0
M  V30 3505 H 329.519 5.55987 -5.18443 0
M  V30 3506 N 331.094 0.475555 1.50254 0
M  V30 3507 C 332.004 -0.321501 2.32387 0
M  V30 3508 C 333.02 -0.991755 1.42969 0
M  V30 3509 O 334.196 -0.978747 1.76018 0
M  V30 3510 C 331.261 -1.38667 3.17762 0
M  V30 3511 C 330.322 -0.732538 4.23004 0
M  V30 3512 C 329.555 -1.74695 5.04299 0
M  V30 3513 O 329.778 -2.97399 4.86734 0
M  V30 3514 O 328.712 -1.31631 5.8733 0
M  V30 3515 H 332.538 0.350071 3.01676 0
M  V30 3516 H 330.123 0.237321 1.47503 0
M  V30 3517 H 332.005 -2.00354 3.70724 0
M  V30 3518 H 330.68 -2.04163 2.51196 0
M  V30 3519 H 329.587 -0.0765902 3.74022 0
M  V30 3520 H 330.92 -0.120452 4.92053 0
M  V30 3521 N 332.573 -1.56217 0.208337 0
M  V30 3522 C 333.803 -2.02043 -0.431523 0
M  V30 3523 C 334.211 -1.08755 -1.54819 0
M  V30 3524 O 333.554 -0.0870009 -1.83494 0
M  V30 3525 C 333.616 -3.44239 -1.03633 0
M  V30 3526 C 333.28 -4.56965 -0.0567502 0
M  V30 3527 C 334.277 -5.14624 0.738773 0
M  V30 3528 C 331.962 -5.02266 0.0581736 0
M  V30 3529 C 333.956 -6.16045 1.63605 0
M  V30 3530 C 331.643 -6.03528 0.959001 0
M  V30 3531 C 332.641 -6.60293 1.7465 0
M  V30 3532 O 332.329 -7.59586 2.6322 0
M  V30 3533 H 332.061 -0.666772 -0.111313 0
M  V30 3534 H 334.615 -2.02919 0.318277 0
M  V30 3535 H 332.845 -3.40391 -1.83497 0
M  V30 3536 H 334.534 -3.73793 -1.58221 0
M  V30 3537 H 335.3 -4.80483 0.660364 0
M  V30 3538 H 331.179 -4.57771 -0.544633 0
M  V30 3539 H 334.723 -6.60279 2.25116 0
M  V30 3540 H 330.62 -6.37092 1.03848 0
M  V30 3541 H 331.388 -7.77057 2.57148 0
M  V30 3542 N 334.051 0.0651679 -1.57465 0
M  V30 3543 C 335.462 0.616213 -1.76238 0
M  V30 3544 C 335.813 1.7756 -0.834689 0
M  V30 3545 O 334.938 2.1639 -0.0204156 0
M  V30 3546 C 335.533 1.12462 -3.1959 0
M  V30 3547 C 334.092 1.62147 -3.39684 0
M  V30 3548 C 333.239 0.543739 -2.71917 0
M  V30 3549 H 336.19 -0.161022 -1.57881 0
M  V30 3550 H 336.211 1.99324 -3.24114 0
M  V30 3551 H 335.723 0.280592 -3.87084 0
M  V30 3552 H 333.824 2.48854 -2.77313 0
M  V30 3553 H 333.937 1.69385 -4.48158 0
M  V30 3554 H 332.301 0.990352 -2.34657 0
M  V30 3555 H 333.084 -0.290216 -3.42071 0
M  V30 3556 N 335.529 1.53961 0.336706 0
M  V30 3557 C 336.439 1.85432 1.43708 0
M  V30 3558 C 337.455 0.745053 1.57242 0
M  V30 3559 O 338.631 1.03804 1.72588 0
M  V30 3560 C 335.696 2.06349 2.78605 0
M  V30 3561 C 334.757 3.30191 2.74358 0
M  V30 3562 C 333.99 3.50101 4.02822 0
M  V30 3563 O 334.213 2.7371 5.00439 0
M  V30 3564 O 333.147 4.43547 4.06878 0
M  V30 3565 H 336.973 2.78975 1.20028 0
M  V30 3566 H 334.558 1.39701 0.52952 0
M  V30 3567 H 336.44 2.21513 3.58483 0
M  V30 3568 H 335.115 1.15995 3.02203 0
M  V30 3569 H 334.022 3.20425 1.93078 0
M  V30 3570 H 335.355 4.2056 2.55715 0
M  V30 3571 N 337.007 -0.598083 1.45811 0
M  V30 3572 C 338.232 -1.3881 1.54099 0
M  V30 3573 C 338.657 -1.8726 0.177578 0
M  V30 3574 O 338.015 -1.6069 -0.839541 0
M  V30 3575 C 338.063 -2.56217 2.53743 0
M  V30 3576 O 337.167 -3.5716 2.06182 0
M  V30 3577 H 336.508 -0.414024 0.519115 0
M  V30 3578 H 339.038 -0.726971 1.91249 0
M  V30 3579 H 339.048 -3.03337 2.72856 0
M  V30 3580 H 337.723 -2.20303 3.5276 0
M  V30 3581 H 336.3 -3.16624 1.96987 0
M  V30 3582 N 338.485 -1.33259 -0.841409 0
M  V30 3583 C 339.71 -1.2775 -1.63385 0
M  V30 3584 C 340.135 0.149188 -1.87507 0
M  V30 3585 O 339.493 1.10498 -1.43736 0
M  V30 3586 C 339.541 -2.05571 -2.96265 0
M  V30 3587 O 338.645 -1.41257 -3.87453 0
M  V30 3588 H 337.986 -0.439627 -0.497618 0
M  V30 3589 H 340.516 -1.75782 -1.04699 0
M  V30 3590 H 340.526 -2.16241 -3.45982 0
M  V30 3591 H 339.201 -3.09309 -2.7803 0
M  V30 3592 H 337.778 -1.39217 -3.45938 0
M  V30 3593 N 339.963 1.05934 -1.16686 0
M  V30 3594 C 341.211 1.78447 -0.948744 0
M  V30 3595 C 341.532 1.87813 0.524523 0
M  V30 3596 O 340.802 1.38945 1.38098 0
M  V30 3597 H 339.382 0.660971 -0.348033 0
M  V30 3598 H 342.044 1.27947 -1.47022 0
M  V30 3599 H 341.14 2.80394 -1.37061 0
M  V30 3600 N 341.441 0.965919 1.2453 0
M  V30 3601 C 342.852 0.665929 1.7442 0
M  V30 3602 C 343.203 -0.818407 1.78316 0
M  V30 3603 O 342.328 -1.64037 1.41141 0
M  V30 3604 C 342.923 1.20211 3.16757 0
M  V30 3605 C 341.482 0.952059 3.6416 0
M  V30 3606 C 340.629 1.33848 2.42858 0
M  V30 3607 H 343.58 1.14144 1.10258 0
M  V30 3608 H 343.601 0.567544 3.76244 0
M  V30 3609 H 343.113 2.28244 3.13889 0
M  V30 3610 H 341.214 -0.112821 3.72429 0
M  V30 3611 H 341.327 1.59645 4.51719 0
M  V30 3612 H 339.691 0.756864 2.43195 0
M  V30 3613 H 340.474 2.42827 2.42673 0
M  V30 3614 N 342.919 -1.39368 0.735821 0
M  V30 3615 C 343.882 -2.2896 0.104874 0
M  V30 3616 C 344.882 -1.46347 -0.666274 0
M  V30 3617 O 346.072 -1.67014 -0.49517 0
M  V30 3618 C 343.204 -3.29857 -0.860656 0
M  V30 3619 H 344.397 -2.86259 0.894205 0
M  V30 3620 H 341.95 -1.48029 0.501704 0
M  V30 3621 H 342.685 -2.77615 -1.67631 0
M  V30 3622 H 342.47 -3.9087 -0.310327 0
M  V30 3623 H 343.96 -3.96893 -1.29867 0
M  V30 3624 N 344.397 -0.483516 -1.5 0
M  V30 3625 C 345.813 -0.138404 -1.58999 0
M  V30 3626 C 346.013 1.35597 -1.4905 0
M  V30 3627 O 345.069 2.13039 -1.35539 0
M  V30 3628 C 346.382 -0.699658 -2.92447 0
M  V30 3629 C 347.93 -0.664195 -3.05872 0
M  V30 3630 C 348.405 -1.20321 -4.41913 0
M  V30 3631 N 349.896 -1.16315 -4.48358 0
M  V30 3632 C 350.631 -1.55058 -5.52037 0
M  V30 3633 N 350.127 -2.01311 -6.62907 0
M  V30 3634 N 351.92 -1.46584 -5.42651 0
M  V30 3635 H 344.071 -1.45529 -1.5471 0
M  V30 3636 H 346.334 -0.60258 -0.731848 0
M  V30 3637 H 346.04 -1.747 -3.05242 0
M  V30 3638 H 345.914 -0.150194 -3.76901 0
M  V30 3639 H 348.301 0.374272 -2.92717 0
M  V30 3640 H 348.382 -1.25061 -2.23144 0
M  V30 3641 H 348.026 -2.24037 -4.55818 0
M  V30 3642 H 347.956 -0.592896 -5.23252 0
M  V30 3643 H 350.447 -0.824058 -3.68806 0
M  V30 3644 H 350.76 -2.2899 -7.38095 0
M  V30 3645 H 349.105 -2.05273 -6.63994 0
M  V30 3646 H 352.296 -1.10281 -4.54924 0
M  V30 3647 H 352.469 -1.77103 -6.23329 0
M  V30 3648 N 345.875 1.56104 -0.216619 0
M  V30 3649 C 347.123 1.97781 0.415593 0
M  V30 3650 C 347.444 1.10536 1.60645 0
M  V30 3651 O 346.714 0.181303 1.95059 0
M  V30 3652 H 345.294 0.730415 0.156534 0
M  V30 3653 H 347.956 1.92445 -0.308366 0
M  V30 3654 H 347.052 3.03072 0.74525 0
M  V30 3655 N 347.353 -0.0568162 1.57498 0
M  V30 3656 C 348.602 -0.752001 1.87157 0
M  V30 3657 C 348.915 -1.77978 0.811375 0
M  V30 3658 O 350.121 -2.52559 0.996293 0
M  V30 3659 C 348.577 -1.38844 3.3204 0
M  V30 3660 C 348.185 -0.398456 4.46225 0
M  V30 3661 C 349.929 -2.06512 3.70882 0
M  V30 3662 C 347.836 -1.04166 5.82154 0
M  V30 3663 H 346.766 -0.28461 0.698222 0
M  V30 3664 H 349.417 -0.00561272 1.83499 0
M  V30 3665 H 347.799 -2.1836 3.30356 0
M  V30 3666 H 348.973 0.367977 4.59328 0
M  V30 3667 H 347.288 0.174592 4.16034 0
M  V30 3668 H 349.885 -2.55437 4.6974 0
M  V30 3669 H 350.228 -2.87117 3.01445 0
M  V30 3670 H 350.761 -1.33808 3.7462 0
M  V30 3671 H 347.5 -0.275614 6.5492 0
M  V30 3672 H 347.02 -1.7786 5.72823 0
M  V30 3673 H 348.699 -1.55715 6.27982 0
M  V30 3674 N 348.832 -1.54138 -0.328536 0
M  V30 3675 C 349.795 -1.82462 -1.38709 0
M  V30 3676 C 350.795 -0.696229 -1.44946 0
M  V30 3677 O 351.985 -0.964535 -1.4506 0
M  V30 3678 C 349.117 -1.98018 -2.77492 0
M  V30 3679 H 350.31 -2.77037 -1.14851 0
M  V30 3680 H 347.863 -1.45779 -0.563751 0
M  V30 3681 H 348.598 -1.05637 -3.06613 0
M  V30 3682 H 348.383 -2.80124 -2.74359 0
M  V30 3683 H 349.873 -2.21396 -3.54081 0
M  V30 3684 N 350.31 0.590341 -1.46126 0
M  V30 3685 C 351.559 1.34499 -1.50309 0
M  V30 3686 C 351.872 1.94977 -0.156021 0
M  V30 3687 O 353.078 2.71395 -0.0756037 0
M  V30 3688 C 351.534 2.43723 -2.64815 0
M  V30 3689 C 351.142 1.89582 -4.0591 0
M  V30 3690 C 352.886 3.20579 -2.78262 0
M  V30 3691 C 350.793 2.9639 -5.11769 0
M  V30 3692 H 349.723 0.505593 -0.559368 0
M  V30 3693 H 352.374 0.630848 -1.72315 0
M  V30 3694 H 350.756 3.17902 -2.36124 0
M  V30 3695 H 351.93 1.21997 -4.44357 0
M  V30 3696 H 350.245 1.25418 -3.97063 0
M  V30 3697 H 352.842 4.00276 -3.54519 0
M  V30 3698 H 353.185 3.72684 -1.85505 0
M  V30 3699 H 353.718 2.53505 -3.06562 0
M  V30 3700 H 350.457 2.49181 -6.06291 0
M  V30 3701 H 349.977 3.62487 -4.77873 0
M  V30 3702 H 351.656 3.60474 -5.37278 0
M  V30 3703 N 351.788 1.33704 0.83433 0
M  V30 3704 C 353.034 1.25603 1.59222 0
M  V30 3705 C 353.367 -0.176659 1.93395 0
M  V30 3706 O 352.642 -1.11915 1.59076 0
M  V30 3707 C 352.925 2.13576 2.89926 0
M  V30 3708 C 352.778 3.65326 2.62406 0
M  V30 3709 C 354.097 2.01238 3.91397 0
M  V30 3710 H 351.216 0.457613 0.577719 0
M  V30 3711 H 353.858 1.63848 0.961972 0
M  V30 3712 H 352.008 1.8109 3.43713 0
M  V30 3713 H 353.68 4.08124 2.15017 0
M  V30 3714 H 351.923 3.8698 1.96033 0
M  V30 3715 H 352.594 4.22232 3.55562 0
M  V30 3716 H 355.07 2.29738 3.46929 0
M  V30 3717 H 353.946 2.65036 4.80673 0
M  V30 3718 H 354.207 0.985951 4.30966 0
M  V30 3719 N 353.266 -1.05314 1.17247 0
M  V30 3720 C 354.491 -1.82509 0.985148 0
M  V30 3721 C 354.916 -1.82343 -0.461788 0
M  V30 3722 O 354.274 -1.23151 -1.33055 0
M  V30 3723 C 354.322 -3.26566 1.52929 0
M  V30 3724 O 353.426 -4.05666 0.742225 0
M  V30 3725 H 352.767 -0.564347 0.349869 0
M  V30 3726 H 355.297 -1.32718 1.55715 0
M  V30 3727 H 355.307 -3.77369 1.55103 0
M  V30 3728 H 353.982 -3.26001 2.58256 0
M  V30 3729 H 352.559 -3.64397 0.791794 0
M  V30 3730 N 354.744 -0.972509 -1.24016 0
M  V30 3731 C 355.99 -0.637978 -1.92504 0
M  V30 3732 C 356.323 0.825383 -1.75787 0
M  V30 3733 O 355.598 1.59442 -1.11393 0
M  V30 3734 C 355.881 -1.01942 -3.45369 0
M  V30 3735 C 355.734 -2.53983 -3.71231 0
M  V30 3736 C 357.053 -0.55751 -4.36555 0
M  V30 3737 H 354.172 -0.233248 -0.699117 0
M  V30 3738 H 356.814 -1.21238 -1.46292 0
M  V30 3739 H 354.964 -0.530656 -3.84859 0
M  V30 3740 H 356.636 -3.10374 -3.41271 0
M  V30 3741 H 354.879 -2.96968 -3.16216 0
M  V30 3742 H 355.55 -2.75723 -4.78206 0
M  V30 3743 H 358.026 -0.977029 -4.04467 0
M  V30 3744 H 356.902 -0.85292 -5.42233 0
M  V30 3745 H 357.163 0.542328 -4.38761 0
M  V30 3746 N 356.222 1.38976 -0.743202 0
M  V30 3747 C 357.152 2.33171 -0.123873 0
M  V30 3748 C 358.133 1.54336 0.71516 0
M  V30 3749 O 359.318 1.82696 0.658467 0
M  V30 3750 C 356.448 3.38474 0.777978 0
M  V30 3751 C 355.402 4.27979 0.0424758 0
M  V30 3752 C 354.728 5.2405 1.06189 0
M  V30 3753 C 356.028 5.10155 -1.1198 0
M  V30 3754 H 357.722 2.85213 -0.910709 0
M  V30 3755 H 355.268 1.37133 -0.439388 0
M  V30 3756 H 357.221 4.03328 1.22084 0
M  V30 3757 H 355.945 2.84891 1.59702 0
M  V30 3758 H 354.604 3.64616 -0.380853 0
M  V30 3759 H 354.252 4.66758 1.87472 0
M  V30 3760 H 353.952 5.84785 0.574485 0
M  V30 3761 H 355.476 5.9178 1.50428 0
M  V30 3762 H 356.89 5.68307 -0.75499 0
M  V30 3763 H 355.287 5.80073 -1.53738 0
M  V30 3764 H 356.357 4.44504 -1.93764 0
M  V30 3765 N 357.7 0.491464 1.49741 0
M  V30 3766 C 358.946 -0.0565092 2.02721 0
M  V30 3767 C 359.279 -1.37522 1.37118 0
M  V30 3768 O 358.554 -1.87866 0.503645 0
M  V30 3769 C 358.837 -0.219051 3.59433 0
M  V30 3770 C 358.69 1.12211 4.35579 0
M  V30 3771 C 360.009 -0.964157 4.29409 0
M  V30 3772 H 357.128 -0.0190627 0.736753 0
M  V30 3773 H 359.77 0.641021 1.7886 0
M  V30 3774 H 357.92 -0.813165 3.79895 0
M  V30 3775 H 359.592 1.75437 4.26637 0
M  V30 3776 H 357.835 1.71377 3.98513 0
M  V30 3777 H 358.506 0.961794 5.43556 0
M  V30 3778 H 360.982 -0.460378 4.13545 0
M  V30 3779 H 359.858 -1.04671 5.38828 0
M  V30 3780 H 360.119 -2.00563 3.93988 0
M  V30 3781 N 359.178 -1.55987 0.224894 0
M  V30 3782 C 360.427 -1.97566 -0.406273 0
M  V30 3783 C 360.74 -1.11569 -1.6066 0
M  V30 3784 O 361.946 -1.43062 -2.3075 0
M  V30 3785 C 360.402 -3.51474 -0.774207 0
M  V30 3786 C 360.01 -4.46179 0.403496 0
M  V30 3787 C 361.754 -4.01758 -1.37079 0
M  V30 3788 C 359.661 -5.91399 0.0129412 0
M  V30 3789 H 358.591 -0.737777 -0.155565 0
M  V30 3790 H 361.242 -1.80659 0.321635 0
M  V30 3791 H 359.624 -3.63994 -1.55963 0
M  V30 3792 H 360.798 -4.45409 1.18101 0
M  V30 3793 H 359.113 -4.06255 0.913536 0
M  V30 3794 H 361.71 -5.07756 -1.67596 0
M  V30 3795 H 362.053 -3.47805 -2.28773 0
M  V30 3796 H 362.586 -3.92475 -0.648733 0
M  V30 3797 H 359.325 -6.49341 0.896451 0
M  V30 3798 H 358.845 -5.95356 -0.728821 0
M  V30 3799 H 360.524 -6.45683 -0.412582 0
M  V30 3800 N 360.656 0.0484629 -1.57525 0
M  V30 3801 C 361.586 1.0549 -2.08313 0
M  V30 3802 C 362.567 1.38929 -0.981463 0
M  V30 3803 O 363.752 1.48151 -1.25558 0
M  V30 3804 C 360.882 2.36162 -2.54646 0
M  V30 3805 C 359.836 2.17016 -3.68901 0
M  V30 3806 C 359.162 3.53278 -4.01371 0
M  V30 3807 C 360.462 1.57219 -4.98076 0
M  V30 3808 H 362.156 0.632195 -2.92649 0
M  V30 3809 H 359.702 0.302654 -1.40784 0
M  V30 3810 H 361.655 3.06882 -2.88793 0
M  V30 3811 H 360.379 2.80456 -1.67368 0
M  V30 3812 H 359.038 1.48733 -3.35073 0
M  V30 3813 H 358.686 3.95185 -3.11188 0
M  V30 3814 H 358.386 3.41299 -4.78318 0
M  V30 3815 H 359.91 4.25391 -4.38035 0
M  V30 3816 H 361.324 2.17832 -5.30304 0
M  V30 3817 H 359.721 1.55871 -5.79503 0
M  V30 3818 H 360.791 0.535956 -4.81929 0
M  V30 3819 N 362.134 1.5431 0.320358 0
M  V30 3820 C 363.383 1.7188 1.05546 0
M  V30 3821 C 363.696 0.501143 1.89071 0
M  V30 3822 O 364.902 0.558258 2.65699 0
M  V30 3823 C 363.358 3.04025 1.92605 0
M  V30 3824 C 362.966 4.33207 1.14176 0
M  V30 3825 C 364.71 3.30959 2.65832 0
M  V30 3826 C 362.617 5.56412 2.00399 0
M  V30 3827 H 361.547 0.640547 0.397763 0
M  V30 3828 H 364.198 1.80802 0.313522 0
M  V30 3829 H 362.58 2.89019 2.7071 0
M  V30 3830 H 363.754 4.58989 0.40819 0
M  V30 3831 H 362.069 4.13062 0.526165 0
M  V30 3832 H 364.666 4.20203 3.30656 0
M  V30 3833 H 365.009 2.48979 3.33639 0
M  V30 3834 H 365.542 3.46847 1.94787 0
M  V30 3835 H 362.281 6.41004 1.37094 0
M  V30 3836 H 361.801 5.34844 2.7148 0
M  V30 3837 H 363.48 5.92938 2.58908 0
M  V30 3838 N 363.613 -0.582584 1.46437 0
M  V30 3839 C 364.838 -1.37168 1.55563 0
M  V30 3840 C 365.263 -1.87061 0.19743 0
M  V30 3841 O 364.621 -1.61572 -0.822451 0
M  V30 3842 C 364.669 -2.53511 2.56446 0
M  V30 3843 O 363.773 -3.54953 2.09958 0
M  V30 3844 H 363.114 -0.408494 0.523477 0
M  V30 3845 H 365.644 -0.706646 1.9201 0
M  V30 3846 H 365.654 -3.00426 2.76058 0
M  V30 3847 H 364.329 -2.16549 3.55076 0
M  V30 3848 H 362.906 -3.14516 2.00334 0
M  V30 3849 N 365.091 -1.34144 -0.827227 0
M  V30 3850 C 366.34 -1.25602 -1.5782 0
M  V30 3851 C 366.653 0.173445 -1.94829 0
M  V30 3852 O 367.859 0.380984 -2.68814 0
M  V30 3853 C 366.315 -2.20151 -2.84713 0
M  V30 3854 C 365.923 -3.68331 -2.55021 0
M  V30 3855 C 367.667 -2.20508 -3.62735 0
M  V30 3856 C 365.574 -4.54762 -3.78082 0
M  V30 3857 H 364.504 -0.466573 -0.592306 0
M  V30 3858 H 367.155 -1.59283 -0.911116 0
M  V30 3859 H 365.537 -1.79417 -3.53023 0
M  V30 3860 H 366.711 -4.17577 -1.94849 0
M  V30 3861 H 365.026 -3.7038 -1.90283 0
M  V30 3862 H 367.623 -2.82306 -4.54101 0
M  V30 3863 H 367.966 -1.20322 -3.98533 0
M  V30 3864 H 368.499 -2.59664 -3.01362 0
M  V30 3865 H 365.238 -5.55867 -3.47407 0
M  V30 3866 H 364.758 -4.10254 -4.37552 0
M  V30 3867 H 366.437 -4.69153 -4.45538 0
M  V30 3868 N 366.569 1.04691 -1.17803 0
M  V30 3869 C 367.815 1.78045 -0.970969 0
M  V30 3870 C 368.148 1.87686 0.498751 0
M  V30 3871 O 367.423 1.38035 1.37027 0
M  V30 3872 C 367.706 3.2166 -1.61884 0
M  V30 3873 C 367.559 3.20001 -3.161 0
M  V30 3874 C 368.878 4.1962 -1.3269 0
M  V30 3875 H 365.997 0.64633 -0.354155 0
M  V30 3876 H 368.639 1.22333 -1.45378 0
M  V30 3877 H 366.789 3.69232 -1.20831 0
M  V30 3878 H 368.461 2.80467 -3.66246 0
M  V30 3879 H 366.704 2.58203 -3.48588 0
M  V30 3880 H 367.375 4.21386 -3.56564 0
M  V30 3881 H 369.851 3.80567 -1.68249 0
M  V30 3882 H 368.727 5.18339 -1.80599 0
M  V30 3883 H 368.988 4.414 -0.248622 0
M  V30 3884 N 368.047 0.979072 1.23499 0
M  V30 3885 C 369.296 0.642751 1.91185 0
M  V30 3886 C 369.609 -0.827253 1.77245 0
M  V30 3887 O 370.815 -1.27458 2.39722 0
M  V30 3888 C 369.271 1.09901 3.42709 0
M  V30 3889 C 368.879 2.59327 3.65313 0
M  V30 3890 C 370.623 0.836371 4.16179 0
M  V30 3891 C 368.53 2.98627 5.10467 0
M  V30 3892 H 367.46 0.236698 0.715884 0
M  V30 3893 H 370.111 1.1868 1.39955 0
M  V30 3894 H 368.493 0.48319 3.93041 0
M  V30 3895 H 369.667 3.26136 3.25533 0
M  V30 3896 H 367.982 2.83323 3.05151 0
M  V30 3897 H 370.579 1.10586 5.23139 0
M  V30 3898 H 370.922 -0.227509 4.15678 0
M  V30 3899 H 371.455 1.41371 3.71832 0
M  V30 3900 H 368.194 4.04133 5.16098 0
M  V30 3901 H 367.714 2.3651 5.51201 0
M  V30 3902 H 369.393 2.89159 5.78788 0
M  V30 3903 N 369.525 -1.3858 0.750561 0
M  V30 3904 C 370.772 -2.00184 0.305373 0
M  V30 3905 C 371.1 -1.59575 -1.11203 0
M  V30 3906 O 370.355 -0.823236 -1.77542 0
M  V30 3907 C 370.654 -3.55455 0.372373 0
M  V30 3908 C 370.32 -4.15765 1.745 0
M  V30 3909 C 368.982 -4.31951 2.12065 0
M  V30 3910 C 371.334 -4.49067 2.64553 0
M  V30 3911 C 368.662 -4.78734 3.39162 0
M  V30 3912 C 371.014 -4.97265 3.91038 0
M  V30 3913 C 369.678 -5.11658 4.28676 0
M  V30 3914 H 368.948 -0.732526 0.111744 0
M  V30 3915 H 371.595 -1.65673 0.960451 0
M  V30 3916 H 369.9 -3.90084 -0.366272 0
M  V30 3917 H 371.597 -4.00999 0.00953918 0
M  V30 3918 H 368.187 -4.03579 1.44297 0
M  V30 3919 H 372.371 -4.36166 2.36796 0
M  V30 3920 H 367.627 -4.88062 3.68246 0
M  V30 3921 H 371.801 -5.22003 4.60962 0
M  V30 3922 H 369.428 -5.47668 5.27222 0
M  V30 3923 N 371.003 -0.499398 -1.49478 0
M  V30 3924 C 372.243 0.0440751 -2.04352 0
M  V30 3925 C 372.607 1.34423 -1.37093 0
M  V30 3926 O 373.808 1.97184 -1.82679 0
M  V30 3927 C 372.079 0.194918 -3.56868 0
M  V30 3928 S 373.638 0.69287 -4.33295 0
M  V30 3929 H 370.456 0.00253458 -0.710995 0
M  V30 3930 H 373.058 -0.673 -1.83551 0
M  V30 3931 H 371.762 -0.756672 -4.03364 0
M  V30 3932 H 371.293 0.93728 -3.82071 0
M  V30 3933 H 373.308 1.96226 -4.55752 0
M  V30 3934 N 372.481 1.55866 -0.233164 0
M  V30 3935 C 373.411 2.23783 0.666599 0
M  V30 3936 C 374.392 1.21343 1.19205 0
M  V30 3937 O 375.577 1.4996 1.23392 0
M  V30 3938 C 372.707 2.92671 1.86978 0
M  V30 3939 C 371.661 4.01682 1.47768 0
M  V30 3940 C 370.987 4.57926 2.76058 0
M  V30 3941 C 372.287 5.18126 0.658993 0
M  V30 3942 H 373.981 2.99232 0.100306 0
M  V30 3943 H 371.527 1.43924 0.046804 0
M  V30 3944 H 373.48 3.3888 2.50476 0
M  V30 3945 H 372.204 2.14688 2.46123 0
M  V30 3946 H 370.863 3.56222 0.866106 0
M  V30 3947 H 370.511 3.76659 3.33372 0
M  V30 3948 H 370.211 5.31505 2.50552 0
M  V30 3949 H 371.735 5.06859 3.40479 0
M  V30 3950 H 373.149 5.60644 1.19795 0
M  V30 3951 H 371.546 5.98009 0.500552 0
M  V30 3952 H 372.616 4.83763 -0.331856 0
M  V30 3953 N 373.959 -0.0401083 1.57549 0
M  V30 3954 C 374.869 -1.06133 2.0922 0
M  V30 3955 C 375.885 -1.40356 1.0284 0
M  V30 3956 O 377.061 -1.49897 1.34509 0
M  V30 3957 C 374.126 -2.34658 2.55218 0
M  V30 3958 C 373.187 -2.07117 3.76033 0
M  V30 3959 C 372.42 -3.29514 4.19829 0
M  V30 3960 O 372.643 -4.39794 3.63232 0
M  V30 3961 O 371.577 -3.15863 5.12362 0
M  V30 3962 H 375.403 -0.652244 2.96613 0
M  V30 3963 H 372.988 -0.256368 1.47184 0
M  V30 3964 H 374.87 -3.10239 2.85184 0
M  V30 3965 H 373.545 -2.74883 1.70941 0
M  V30 3966 H 372.452 -1.29139 3.51104 0
M  V30 3967 H 373.785 -1.71754 4.61261 0
M  V30 3968 N 375.437 -1.54477 -0.31217 0
M  V30 3969 C 376.665 -1.77205 -1.068 0
M  V30 3970 C 377.08 -0.526114 -1.81321 0
M  V30 3971 O 376.437 0.503647 -1.75413 0
M  V30 3972 C 376.488 -2.97253 -2.05725 0
M  V30 3973 O 376.209 -4.1703 -1.34228 0
M  V30 3974 C 377.71 -3.32281 -2.93435 0
M  V30 3975 H 374.93 -0.591287 -0.317208 0
M  V30 3976 H 377.474 -2.01398 -0.354834 0
M  V30 3977 H 375.629 -2.753 -2.72559 0
M  V30 3978 H 376.043 -4.84636 -2.00571 0
M  V30 3979 H 377.517 -4.19551 -3.58721 0
M  V30 3980 H 377.994 -2.49945 -3.61143 0
M  V30 3981 H 378.6 -3.56353 -2.32147 0
M  V30 3982 N 376.915 0.57481 -1.46744 0
M  V30 3983 C 377.845 1.69337 -1.60771 0
M  V30 3984 C 378.826 1.63825 -0.457736 0
M  V30 3985 O 380.011 1.8172 -0.684947 0
M  V30 3986 C 377.141 3.0798 -1.60517 0
M  V30 3987 C 376.095 3.28327 -2.74564 0
M  V30 3988 C 375.421 4.67578 -2.59373 0
M  V30 3989 C 376.721 3.15398 -4.16319 0
M  V30 3990 H 378.415 1.57853 -2.54407 0
M  V30 3991 H 375.961 0.75799 -1.22436 0
M  V30 3992 H 377.914 3.86061 -1.68923 0
M  V30 3993 H 376.638 3.20381 -0.634305 0
M  V30 3994 H 375.297 2.52649 -2.65639 0
M  V30 3995 H 374.945 4.76755 -1.60353 0
M  V30 3996 H 374.645 4.82144 -3.35873 0
M  V30 3997 H 376.169 5.47817 -2.69682 0
M  V30 3998 H 377.583 3.83315 -4.26313 0
M  V30 3999 H 375.98 3.41482 -4.93468 0
M  V30 4000 H 377.05 2.12372 -4.3592 0
M  V30 4001 N 378.394 1.34581 0.820102 0
M  V30 4002 C 379.805 1.24298 1.39309 0
M  V30 4003 C 380.156 -0.130351 1.95767 0
M  V30 4004 O 379.281 -1.0308 1.90272 0
M  V30 4005 C 379.876 2.25054 2.53251 0
M  V30 4006 C 378.435 2.18552 3.0645 0
M  V30 4007 C 377.582 2.11503 1.79337 0
M  V30 4008 H 380.533 1.45906 0.624262 0
M  V30 4009 H 380.554 1.86917 3.31425 0
M  V30 4010 H 380.066 3.24996 2.1213 0
M  V30 4011 H 378.167 1.21976 3.52069 0
M  V30 4012 H 378.28 3.0993 3.65349 0
M  V30 4013 H 376.644 1.57268 2.00347 0
M  V30 4014 H 377.427 3.13284 1.40386 0
M  V30 4015 N 379.872 -1.04064 1.18357 0
M  V30 4016 C 380.782 -2.15569 0.925596 0
M  V30 4017 C 381.798 -1.7365 -0.110295 0
M  V30 4018 O 382.974 -2.01273 0.0716218 0
M  V30 4019 C 380.039 -3.43704 0.454836 0
M  V30 4020 C 379.1 -4.00004 1.55869 0
M  V30 4021 C 378.333 -5.22023 1.1103 0
M  V30 4022 O 378.556 -5.70392 -0.0309756 0
M  V30 4023 O 377.49 -5.70856 1.90805 0
M  V30 4024 H 381.316 -2.40187 1.8586 0
M  V30 4025 H 378.901 -1.1402 0.965394 0
M  V30 4026 H 380.783 -4.20923 0.200382 0
M  V30 4027 H 379.458 -3.20559 -0.449876 0
M  V30 4028 H 378.365 -3.24172 1.86716 0
M  V30 4029 H 379.698 -4.2749 2.43953 0
M  V30 4030 N 381.35 -0.985608 -1.22978 0
M  V30 4031 C 382.597 -0.657386 -1.91532 0
M  V30 4032 C 382.925 0.809707 -1.76845 0
M  V30 4033 O 382.18 1.60021 -1.12658 0
M  V30 4034 C 382.479 -1.00014 -3.43121 0
M  V30 4035 C 382.145 -2.4583 -3.77993 0
M  V30 4036 C 380.807 -2.85679 -3.87222 0
M  V30 4037 C 383.159 -3.40378 -3.94705 0
M  V30 4038 C 380.487 -4.19081 -4.10595 0
M  V30 4039 C 382.839 -4.73429 -4.1958 0
M  V30 4040 C 381.503 -5.1303 -4.27032 0
M  V30 4041 H 380.773 -0.240555 -0.700867 0
M  V30 4042 H 383.42 -1.24044 -1.45895 0
M  V30 4043 H 381.725 -0.335072 -3.90365 0
M  V30 4044 H 383.422 -0.724322 -3.94404 0
M  V30 4045 H 380.012 -2.13939 -3.71387 0
M  V30 4046 H 384.196 -3.10766 -3.8696 0
M  V30 4047 H 379.452 -4.49362 -4.14589 0
M  V30 4048 H 383.626 -5.46644 -4.31455 0
M  V30 4049 H 381.253 -6.16418 -4.44896 0
M  V30 4050 N 382.828 1.3818 -0.7579 0
M  V30 4051 C 384.244 1.5353 -0.435972 0
M  V30 4052 C 384.444 1.71961 1.05032 0
M  V30 4053 O 383.5 1.73307 1.83633 0
M  V30 4054 C 384.813 2.73989 -1.23898 0
M  V30 4055 C 386.361 2.87841 -1.22949 0
M  V30 4056 C 386.836 4.11266 -2.01554 0
M  V30 4057 N 388.327 4.18352 -1.98837 0
M  V30 4058 C 389.062 5.12856 -2.5645 0
M  V30 4059 N 388.558 6.13005 -3.22794 0
M  V30 4060 N 390.351 5.05238 -2.46356 0
M  V30 4061 H 382.502 1.24467 -1.7211 0
M  V30 4062 H 384.765 0.604982 -0.729864 0
M  V30 4063 H 384.471 2.66789 -2.29165 0
M  V30 4064 H 384.345 3.67294 -0.858764 0
M  V30 4065 H 386.732 2.9452 -0.184854 0
M  V30 4066 H 386.813 1.95534 -1.64924 0
M  V30 4067 H 386.457 4.05349 -3.06031 0
M  V30 4068 H 386.387 5.02661 -1.5697 0
M  V30 4069 H 388.878 3.46628 -1.50524 0
M  V30 4070 H 389.191 6.81619 -3.64165 0
M  V30 4071 H 387.536 6.13325 -3.2689 0
M  V30 4072 H 390.727 4.25938 -1.9415 0
M  V30 4073 H 390.9 5.78707 -2.91552 0
M  V30 4074 N 384.306 0.507319 1.49211 0
M  V30 4075 C 385.583 -0.0982702 1.95353 0
M  V30 4076 C 385.963 -1.53516 1.449 0
M  V30 4077 O 385.311 -2.18594 0.66551 0
M  V30 4078 C 385.521 -0.00440283 3.49 0
M  V30 4079 C 386.869 -0.175147 4.24239 0
M  V30 4080 O 387.893 -0.0792891 3.56112 0
M  V30 4081 O 386.752 -0.37276 5.45227 0
M  V30 4082 H 383.846 -0.0918236 0.821887 0
M  V30 4083 H 386.392 0.570307 1.5983 0
M  V30 4084 H 385.164 0.997402 3.78375 0
M  V30 4085 H 384.787 -0.712845 3.91158 0
M  V30 4086 N 385.784 -1.5574 0.241426 0
M  V30 4087 C 386.694 -2.2479 -0.671305 0
M  V30 4088 C 387.71 -1.26217 -1.19772 0
M  V30 4089 O 388.886 -1.59079 -1.23514 0
M  V30 4090 C 385.951 -2.92966 -1.85396 0
M  V30 4091 C 385.012 -4.06935 -1.36756 0
M  V30 4092 C 384.245 -4.71851 -2.49384 0
M  V30 4093 O 384.468 -4.35823 -3.67987 0
M  V30 4094 O 383.402 -5.60467 -2.19454 0
M  V30 4095 H 387.228 -3.0349 -0.112966 0
M  V30 4096 H 384.813 -1.49397 0.0101513 0
M  V30 4097 H 386.695 -3.35927 -2.54423 0
M  V30 4098 H 385.37 -2.17211 -2.40002 0
M  V30 4099 H 384.277 -3.68503 -0.644726 0
M  V30 4100 H 385.61 -4.84492 -0.867647 0
M  V30 4101 N 387.262 0.0317525 -1.57568 0
M  V30 4102 C 388.209 1.0332 -2.06382 0
M  V30 4103 C 389.179 1.36082 -0.952414 0
M  V30 4104 O 390.364 1.46466 -1.2228 0
M  V30 4105 C 387.504 2.32989 -2.54578 0
M  V30 4106 C 386.617 2.0641 -3.79498 0
M  V30 4107 C 385.752 3.2993 -4.16317 0
M  V30 4108 C 384.791 2.98893 -5.34162 0
M  V30 4109 N 383.928 4.14857 -5.66426 0
M  V30 4110 H 388.768 0.609982 -2.9169 0
M  V30 4111 H 386.305 0.289573 -1.44222 0
M  V30 4112 H 388.263 3.0875 -2.80587 0
M  V30 4113 H 386.893 2.73039 -1.7219 0
M  V30 4114 H 385.945 1.21158 -3.6059 0
M  V30 4115 H 387.257 1.79513 -4.65378 0
M  V30 4116 H 386.411 4.1406 -4.4344 0
M  V30 4117 H 385.15 3.59938 -3.29083 0
M  V30 4118 H 384.155 2.13164 -5.06795 0
M  V30 4119 H 385.38 2.70165 -6.23047 0
M  V30 4120 H 383.326 4.44821 -4.82151 0
M  V30 4121 H 383.243 3.91374 -6.4681 0
M  V30 4122 H 384.511 4.99868 -5.98124 0
M  V30 4123 N 388.74 1.54641 0.303973 0
M  V30 4124 C 390.017 1.64455 1.05896 0
M  V30 4125 C 390.397 0.490923 2.05312 0
M  V30 4126 O 389.745 -0.512685 2.22674 0
M  V30 4127 C 389.955 3.02331 1.74347 0
M  V30 4128 C 391.303 3.59045 2.26653 0
M  V30 4129 O 392.327 3.04764 1.84384 0
M  V30 4130 O 391.186 4.54081 3.04093 0
M  V30 4131 H 388.28 0.666729 0.489287 0
M  V30 4132 H 390.826 1.66986 0.302298 0
M  V30 4133 H 389.598 3.77734 1.02142 0
M  V30 4134 H 389.221 3.03565 2.56777 0
M  V30 4135 N 390.218 -0.567019 1.47046 0
M  V30 4136 C 391.448 -1.34831 1.56538 0
M  V30 4137 C 391.856 -1.8802 0.21101 0
M  V30 4138 O 391.199 -1.65152 -0.804387 0
M  V30 4139 C 391.261 -2.56139 2.52256 0
M  V30 4140 C 390.925 -2.24307 3.98165 0
M  V30 4141 C 391.922 -1.82192 4.86931 0
M  V30 4142 C 389.607 -2.35968 4.43423 0
M  V30 4143 C 391.601 -1.52153 6.18973 0
M  V30 4144 C 389.288 -2.05542 5.75496 0
M  V30 4145 C 390.286 -1.63701 6.63092 0
M  V30 4146 O 389.974 -1.33657 7.92711 0
M  V30 4147 H 389.706 -0.417683 0.531523 0
M  V30 4148 H 392.26 -0.694726 1.93294 0
M  V30 4149 H 390.49 -3.24356 2.10548 0
M  V30 4150 H 392.179 -3.18214 2.51982 0
M  V30 4151 H 392.945 -1.72684 4.53217 0
M  V30 4152 H 388.824 -2.67495 3.75456 0
M  V30 4153 H 392.368 -1.19421 6.87302 0
M  V30 4154 H 388.265 -2.14679 6.08755 0
M  V30 4155 H 389.033 -1.4737 8.05124 0
M  V30 4156 N 391.696 -1.35014 -0.812953 0
M  V30 4157 C 393.107 -1.25035 -1.38648 0
M  V30 4158 C 393.458 0.119967 -1.95833 0
M  V30 4159 O 392.583 1.02069 -1.90816 0
M  V30 4160 C 393.178 -2.26394 -2.52054 0
M  V30 4161 C 391.737 -2.20175 -3.05287 0
M  V30 4162 C 390.884 -2.12451 -1.78213 0
M  V30 4163 H 393.835 -1.46235 -0.616516 0
M  V30 4164 H 393.856 -1.88672 -3.30429 0
M  V30 4165 H 393.368 -3.26116 -2.10404 0
M  V30 4166 H 391.469 -1.23841 -3.51417 0
M  V30 4167 H 391.582 -3.11863 -3.63701 0
M  V30 4168 H 389.946 -1.58328 -1.9951 0
M  V30 4169 H 390.729 -3.14024 -1.38723 0
M  V30 4170 N 393.175 1.03435 -1.18907 0
M  V30 4171 C 394.138 2.09756 -0.923844 0
M  V30 4172 C 395.138 1.60528 0.093416 0
M  V30 4173 O 396.328 1.73631 -0.140727 0
M  V30 4174 C 393.46 3.38692 -0.387354 0
M  V30 4175 H 394.653 2.34719 -1.86674 0
M  V30 4176 H 392.206 1.19959 -1.00197 0
M  V30 4177 H 392.941 3.19396 0.561845 0
M  V30 4178 H 392.726 3.75742 -1.12074 0
M  V30 4179 H 394.216 4.17016 -0.220694 0
M  V30 4180 N 394.653 0.992116 1.22453 0
M  V30 4181 C 395.878 0.685644 1.95739 0
M  V30 4182 C 396.303 -0.743 1.72804 0
M  V30 4183 O 395.661 -1.50778 1.00676 0
M  V30 4184 C 395.709 0.996293 3.46564 0
M  V30 4185 O 394.813 0.0945512 4.12292 0
M  V30 4186 H 394.154 0.256694 0.612376 0
M  V30 4187 H 396.684 1.32888 1.5557 0
M  V30 4188 H 396.694 0.93781 3.97076 0
M  V30 4189 H 395.369 2.03733 3.62582 0
M  V30 4190 H 393.946 0.208451 3.72317 0
M  V30 4191 N 396.131 -1.37776 0.765217 0
M  V30 4192 C 397.359 -2.04124 0.337767 0
M  V30 4193 C 397.774 -1.57715 -1.03785 0
M  V30 4194 O 397.131 -0.755447 -1.6613 0
M  V30 4195 C 397.182 -3.59658 0.364442 0
M  V30 4196 O 396.903 -4.04367 1.68579 0
M  V30 4197 C 398.404 -4.43236 -0.0754221 0
M  V30 4198 H 395.624 -0.655696 0.142491 0
M  V30 4199 H 398.168 -1.76238 1.03732 0
M  V30 4200 H 396.323 -3.86339 -0.286471 0
M  V30 4201 H 396.737 -4.98857 1.61993 0
M  V30 4202 H 398.211 -5.52 -0.00560067 0
M  V30 4203 H 398.688 -4.2455 -1.12491 0
M  V30 4204 H 399.294 -4.21767 0.547055 0
M  V30 4205 N 397.609 -0.515225 -1.4894 0
M  V30 4206 C 398.834 0.022727 -2.07388 0
M  V30 4207 C 399.259 1.2876 -1.37122 0
M  V30 4208 O 398.617 1.76067 -0.432431 0
M  V30 4209 C 398.665 0.244869 -3.59768 0
M  V30 4210 O 397.769 1.31667 -3.90817 0
M  V30 4211 H 397.11 -0.0325506 -0.663202 0
M  V30 4212 H 399.64 -0.718918 -1.91553 0
M  V30 4213 H 399.65 0.47205 -4.0526 0
M  V30 4214 H 398.325 -0.679194 -4.10317 0
M  V30 4215 H 396.902 1.07331 -3.5712 0
M  V30 4216 N 399.087 1.5561 -0.249682 0
M  V30 4217 C 400.019 2.18834 0.681496 0
M  V30 4218 C 401.032 1.16546 1.1367 0
M  V30 4219 O 402.221 1.43397 1.06299 0
M  V30 4220 C 399.321 2.77992 1.9384 0
M  V30 4221 C 398.494 4.05725 1.63419 0
M  V30 4222 C 397.553 4.49174 2.74096 0
M  V30 4223 O 396.579 5.15492 2.41364 0
M  V30 4224 N 397.781 4.17191 4.03649 0
M  V30 4225 H 400.546 2.9937 0.140514 0
M  V30 4226 H 398.107 1.6175 -0.0697541 0
M  V30 4227 H 400.099 3.04015 2.67127 0
M  V30 4228 H 398.669 2.01596 2.38909 0
M  V30 4229 H 397.889 3.87261 0.736358 0
M  V30 4230 H 399.177 4.88999 1.40562 0
M  V30 4231 H 398.575 3.63955 4.33074 0
M  V30 4232 H 397.132 4.48043 4.73393 0
M  V30 4233 N 400.565 -0.0233959 1.57583 0
M  V30 4234 C 401.842 -0.748794 1.807 0
M  V30 4235 C 402.222 -1.9327 0.849106 0
M  V30 4236 O 401.57 -2.28247 -0.107468 0
M  V30 4237 C 401.78 -1.17651 3.28571 0
M  V30 4238 C 403.128 -1.59008 3.93702 0
M  V30 4239 O 404.152 -1.27094 3.32755 0
M  V30 4240 O 403.011 -2.18264 5.01022 0
M  V30 4241 H 400.105 -0.362578 0.743281 0
M  V30 4242 H 402.651 0.000261958 1.697 0
M  V30 4243 H 401.423 -0.331603 3.89892 0
M  V30 4244 H 401.046 -1.98541 3.44481 0
M  V30 4245 N 402.043 -1.548 -0.295768 0
M  V30 4246 C 403.268 -1.78653 -1.05346 0
M  V30 4247 C 403.693 -0.546894 -1.79974 0
M  V30 4248 O 403.051 0.502763 -1.7419 0
M  V30 4249 C 403.099 -2.99679 -2.00561 0
M  V30 4250 O 402.203 -2.7317 -3.08953 0
M  V30 4251 H 401.544 -0.59116 -0.302367 0
M  V30 4252 H 404.074 -2.01895 -0.331598 0
M  V30 4253 H 404.084 -3.27793 -2.42932 0
M  V30 4254 H 402.759 -3.89562 -1.4565 0
M  V30 4255 H 401.336 -2.56089 -2.71059 0
M  V30 4256 N 403.521 0.559213 -1.47345 0
M  V30 4257 C 404.768 1.31648 -1.53867 0
M  V30 4258 C 405.096 1.93468 -0.200104 0
M  V30 4259 O 404.351 1.78295 0.806799 0
M  V30 4260 C 404.65 2.44853 -2.6035 0
M  V30 4261 C 404.316 2.00876 -4.03683 0
M  V30 4262 C 402.978 1.88599 -4.42701 0
M  V30 4263 C 405.33 1.67279 -4.93626 0
M  V30 4264 C 402.658 1.41017 -5.69501 0
M  V30 4265 C 405.01 1.21169 -6.20887 0
M  V30 4266 C 403.674 1.07487 -6.58789 0
M  V30 4267 H 402.944 0.481734 -0.56304 0
M  V30 4268 H 405.591 0.627301 -1.80934 0
M  V30 4269 H 403.896 3.19318 -2.27032 0
M  V30 4270 H 405.593 3.03039 -2.62619 0
M  V30 4271 H 402.183 2.11374 -3.72853 0
M  V30 4272 H 406.367 1.75638 -4.64182 0
M  V30 4273 H 401.623 1.29086 -5.97618 0
M  V30 4274 H 405.797 0.942345 -6.89995 0
M  V30 4275 H 403.424 0.703946 -7.56934 0
M  V30 4276 N 404.999 1.35443 0.805782 0
M  V30 4277 C 405.909 1.30546 1.94923 0
M  V30 4278 C 406.925 0.210233 1.72725 0
M  V30 4279 O 408.101 0.43975 1.9654 0
M  V30 4280 C 405.166 1.07782 3.29521 0
M  V30 4281 C 404.227 2.26625 3.64609 0
M  V30 4282 C 403.46 2.04938 4.92784 0
M  V30 4283 O 403.683 1.01624 5.61274 0
M  V30 4284 O 402.617 2.9232 5.26149 0
M  V30 4285 H 406.443 2.26779 2.02002 0
M  V30 4286 H 404.028 1.15823 0.943682 0
M  V30 4287 H 405.91 0.969392 4.10098 0
M  V30 4288 H 404.585 0.146003 3.23371 0
M  V30 4289 H 403.492 2.43033 2.84404 0
M  V30 4290 H 404.825 3.18257 3.75464 0
M  V30 4291 N 406.477 -1.02803 1.19454 0
M  V30 4292 C 407.44 -2.09264 0.934955 0
M  V30 4293 C 408.44 -1.60576 -0.0849015 0
M  V30 4294 O 409.63 -1.73554 0.149933 0
M  V30 4295 C 406.762 -3.38482 0.40531 0
M  V30 4296 H 407.955 -2.33726 1.87916 0
M  V30 4297 H 405.508 -1.19426 1.00832 0
M  V30 4298 H 406.243 -3.19689 -0.544899 0
M  V30 4299 H 406.028 -3.75142 1.14065 0
M  V30 4300 H 407.518 -4.16894 0.242806 0
M  V30 4301 N 407.956 -0.998596 -1.21925 0
M  V30 4302 C 408.919 -0.558679 -2.22287 0
M  V30 4303 C 409.919 0.361525 -1.56683 0
M  V30 4304 O 411.109 0.152695 -1.73529 0
M  V30 4305 C 408.241 0.18661 -3.40389 0
M  V30 4306 H 409.434 -1.4463 -2.62721 0
M  V30 4307 H 406.987 -0.786413 -1.35075 0
M  V30 4308 H 407.722 1.08996 -3.05435 0
M  V30 4309 H 407.507 -0.474188 -3.89222 0
M  V30 4310 H 408.997 0.482367 -4.14805 0
M  V30 4311 N 409.434 1.37368 -0.772513 0
M  V30 4312 C 410.682 1.99279 -0.336516 0
M  V30 4313 C 411.003 1.6163 1.09091 0
M  V30 4314 O 410.273 0.882109 1.74916 0
M  V30 4315 H 408.853 0.737063 -0.121435 0
M  V30 4316 H 411.515 1.67836 -0.990809 0
M  V30 4317 H 410.611 3.09332 -0.414763 0
M  V30 4318 N 410.912 0.523116 1.48665 0
M  V30 4319 C 411.86 -0.256859 2.31177 0
M  V30 4320 C 412.854 -0.94199 1.40794 0
M  V30 4321 O 414.06 -0.867157 1.57735 0
M  V30 4322 H 410.435 -0.1017 0.745091 0
M  V30 4323 H 412.406 0.458739 2.94853 0
M  V30 4324 C 411.155 -1.29503 3.22683 0
M  V30 4325 H 410.478 -0.777248 3.92172 0
M  V30 4326 H 411.918 -1.81233 3.83315 0
M  V30 4327 C 410.377 -2.32501 2.43813 0
M  V30 4328 O 410.907 -3.3881 2.15803 0
M  V30 4329 N 409.113 -2.05538 2.05432 0
M  V30 4330 H 408.66 -1.19104 2.28412 0
M  V30 4331 H 408.618 -2.74676 1.52973 0
M  V30 4332 N 412.39 -1.55475 0.257931 0
M  V30 4333 C 413.615 -2.04064 -0.370488 0
M  V30 4334 C 414.04 -1.13565 -1.49948 0
M  V30 4335 O 413.398 -0.130781 -1.80828 0
M  V30 4336 C 413.446 -3.50554 -0.845237 0
M  V30 4337 O 412.55 -3.63173 -1.95394 0
M  V30 4338 H 411.891 -0.659257 -0.0792243 0
M  V30 4339 H 414.421 -2.00903 0.387212 0
M  V30 4340 H 414.431 -3.91588 -1.14555 0
M  V30 4341 H 413.106 -4.15896 -0.0191259 0
M  V30 4342 H 411.683 -3.34039 -1.65748 0
M  V30 4343 N 413.868 0.0150385 -1.57593 0
M  V30 4344 C 415.096 0.714395 -1.94175 0
M  V30 4345 C 415.511 1.68135 -0.858841 0
M  V30 4346 O 414.868 1.81766 0.163567 0
M  V30 4347 C 414.919 1.45933 -3.30735 0
M  V30 4348 O 414.64 0.531167 -4.34868 0
M  V30 4349 C 416.141 2.25456 -3.81686 0
M  V30 4350 H 413.361 0.199923 -0.640525 0
M  V30 4351 H 415.905 -0.0316096 -2.04476 0
M  V30 4352 H 414.06 2.15709 -3.21789 0
M  V30 4353 H 414.474 1.05509 -5.13778 0
M  V30 4354 H 415.948 2.731 -4.79709 0
M  V30 4355 H 416.425 3.07485 -3.13607 0
M  V30 4356 H 417.031 1.60727 -3.9376 0
M  V30 4357 N 415.346 1.54954 0.287554 0
M  V30 4358 C 416.571 1.79209 1.04397 0
M  V30 4359 C 416.996 0.556431 1.79682 0
M  V30 4360 O 416.354 -0.493518 1.74454 0
M  V30 4361 C 416.402 3.00739 1.98969 0
M  V30 4362 O 415.506 2.74805 3.075 0
M  V30 4363 H 414.847 0.592755 0.299227 0
M  V30 4364 H 417.377 2.02068 0.320886 0
M  V30 4365 H 417.387 3.29077 2.4119 0
M  V30 4366 H 416.062 3.90329 1.43582 0
M  V30 4367 H 414.639 2.57523 2.69697 0
M  V30 4368 N 416.824 -0.551391 1.4764 0
M  V30 4369 C 418.072 -1.30572 1.54258 0
M  V30 4370 C 418.393 -1.93877 0.208963 0
M  V30 4371 O 417.663 -1.80234 -0.767619 0
M  V30 4372 H 416.243 -0.484894 0.568231 0
M  V30 4373 H 418.905 -0.643402 1.83974 0
M  V30 4374 H 418.001 -2.09621 2.31226 0
M  V30 4375 N 418.302 -1.35869 -0.798587 0
M  V30 4376 C 419.527 -1.32883 -1.59238 0
M  V30 4377 C 419.952 0.0894587 -1.87887 0
M  V30 4378 O 419.31 1.05869 -1.47178 0
M  V30 4379 C 419.358 -2.14892 -2.89575 0
M  V30 4380 O 418.462 -1.53512 -3.82763 0
M  V30 4381 H 417.803 -0.455236 -0.48338 0
M  V30 4382 H 420.333 -1.79024 -0.990539 0
M  V30 4383 H 420.343 -2.27139 -3.38928 0
M  V30 4384 H 419.018 -3.17998 -2.68049 0
M  V30 4385 H 417.595 -1.50153 -3.41334 0
M  V30 4386 N 419.78 1.02168 -1.19998 0
M  V30 4387 C 421.196 1.27969 -0.953737 0
M  V30 4388 C 421.396 1.98079 0.369703 0
M  V30 4389 O 420.452 2.27306 1.09947 0
M  V30 4390 C 421.765 2.11971 -2.13281 0
M  V30 4391 C 423.313 2.25255 -2.17323 0
M  V30 4392 C 423.788 3.12632 -3.34702 0
M  V30 4393 N 425.279 3.2022 -3.34684 0
M  V30 4394 C 426.014 3.88039 -4.22153 0
M  V30 4395 N 425.51 4.58027 -5.19791 0
M  V30 4396 N 427.303 3.84511 -4.10009 0
M  V30 4397 H 419.454 0.550794 -2.05134 0
M  V30 4398 H 421.717 0.305683 -0.897364 0
M  V30 4399 H 421.423 1.67785 -3.09097 0
M  V30 4400 H 421.297 3.12699 -2.10949 0
M  V30 4401 H 423.684 2.68667 -1.22073 0
M  V30 4402 H 423.765 1.24053 -2.23706 0
M  V30 4403 H 423.409 2.69926 -4.30235 0
M  V30 4404 H 423.339 4.13909 -3.25556 0
M  V30 4405 H 425.83 2.70382 -2.64012 0
M  V30 4406 H 426.143 5.07429 -5.82868 0
M  V30 4407 H 424.488 4.56869 -5.23733 0
M  V30 4408 H 427.679 3.28978 -3.33003 0
M  V30 4409 H 427.852 4.3709 -4.78389 0
M  V30 4410 N 421.258 1.00505 1.21394 0
M  V30 4411 C 422.221 0.570459 2.21987 0
M  V30 4412 C 423.221 -0.353211 1.56873 0
M  V30 4413 O 424.411 -0.14349 1.73608 0
M  V30 4414 C 421.543 -0.168555 3.40483 0
M  V30 4415 H 422.736 1.46021 2.6195 0
M  V30 4416 H 420.289 0.793565 1.34656 0
M  V30 4417 H 421.024 -1.07374 3.06009 0
M  V30 4418 H 420.809 0.494823 3.88965 0
M  V30 4419 H 422.299 -0.460362 4.15055 0
M  V30 4420 N 422.737 -1.36956 0.779787 0
M  V30 4421 C 423.985 -1.99097 0.347079 0
M  V30 4422 C 424.306 -1.62206 -1.08232 0
M  V30 4423 O 423.576 -0.891373 -1.74446 0
M  V30 4424 H 422.156 -0.736409 0.125342 0
M  V30 4425 H 424.818 -1.67308 0.999696 0
M  V30 4426 H 423.914 -3.09107 0.431162 0
M  V30 4427 N 424.215 -0.530993 -1.48385 0
M  V30 4428 C 425.178 0.220497 -2.28137 0
M  V30 4429 C 426.178 0.866851 -1.35434 0
M  V30 4430 O 427.368 0.726746 -1.58316 0
M  V30 4431 C 424.5 1.31921 -3.1434 0
M  V30 4432 H 425.693 -0.479714 -2.96038 0
M  V30 4433 H 423.246 -0.286968 -1.53643 0
M  V30 4434 H 423.981 2.05264 -2.51072 0
M  V30 4435 H 423.766 0.86085 -3.82533 0
M  V30 4436 H 425.256 1.84776 -3.74497 0
M  V30 4437 N 425.693 1.55336 -0.266172 0
M  V30 4438 C 426.918 2.04258 0.359661 0
M  V30 4439 C 427.343 1.14359 1.49344 0
M  V30 4440 O 426.701 0.140369 1.80756 0
M  V30 4441 C 426.749 3.50997 0.826635 0
M  V30 4442 O 425.853 3.64204 1.93466 0
M  V30 4443 H 425.194 0.659668 0.075727 0
M  V30 4444 H 427.724 2.00694 -0.39786 0
M  V30 4445 H 427.734 3.9219 1.12477 0
M  V30 4446 H 426.409 4.159 -0.00293032 0
M  V30 4447 H 424.986 3.34913 1.63974 0
M  V30 4448 N 427.171 -0.0066808 1.57599 0
M  V30 4449 C 428.396 -0.707738 1.94951 0
M  V30 4450 C 428.821 -1.66882 0.867868 0
M  V30 4451 O 428.179 -1.80457 -0.17458 0
M  V30 4452 C 428.227 -1.42162 3.31394 0
M  V30 4453 O 427.331 -2.53578 3.25226 0
M  V30 4454 H 426.672 -0.188752 0.636607 0
M  V30 4455 H 429.202 0.0445193 2.04552 0
M  V30 4456 H 429.212 -1.78655 3.66806 0
M  V30 4457 H 427.887 -0.716903 4.09675 0
M  V30 4458 H 426.464 -2.19463 3.01481 0
M  V30 4459 N 428.649 -1.55105 -0.279332 0
M  V30 4460 C 429.896 -1.75412 -1.01177 0
M  V30 4461 C 430.224 -0.551728 -1.86511 0
M  V30 4462 O 429.479 0.465919 -1.90073 0
M  V30 4463 C 429.778 -3.0086 -1.92919 0
M  V30 4464 C 429.444 -4.33689 -1.23387 0
M  V30 4465 C 428.106 -4.69792 -1.04159 0
M  V30 4466 C 430.458 -5.15941 -0.738562 0
M  V30 4467 C 427.786 -5.85707 -0.341166 0
M  V30 4468 C 430.138 -6.32579 -0.0517636 0
M  V30 4469 C 428.802 -6.67326 0.152292 0
M  V30 4470 H 428.072 -0.641879 -0.370233 0
M  V30 4471 H 430.719 -1.89373 -0.284627 0
M  V30 4472 H 429.024 -2.81773 -2.72234 0
M  V30 4473 H 430.721 -3.13768 -2.49701 0
M  V30 4474 H 427.311 -4.05309 -1.39364 0
M  V30 4475 H 431.495 -4.8853 -0.874764 0
M  V30 4476 H 426.751 -6.11157 -0.172287 0
M  V30 4477 H 430.925 -6.9557 0.339828 0
M  V30 4478 H 428.552 -7.56998 0.697014 0
M  V30 4479 N 430.127 0.543554 -1.4793 0
M  V30 4480 C 431.352 1.32995 -1.59145 0
M  V30 4481 C 431.777 1.86472 -0.246956 0
M  V30 4482 O 431.135 1.63696 0.779324 0
M  V30 4483 C 431.183 2.46623 -2.63077 0
M  V30 4484 O 430.287 3.49261 -2.19295 0
M  V30 4485 H 429.628 0.394472 -0.534124 0
M  V30 4486 H 432.158 0.655489 -1.93816 0
M  V30 4487 H 432.168 2.93001 -2.83926 0
M  V30 4488 H 430.843 2.07059 -3.60693 0
M  V30 4489 H 429.42 3.09094 -2.08603 0
M  V30 4490 N 431.605 1.3629 0.791371 0
M  V30 4491 C 432.882 1.20962 1.53712 0
M  V30 4492 C 433.262 -0.205021 2.10102 0
M  V30 4493 O 432.61 -1.21042 1.93807 0
M  V30 4494 C 432.82 2.29002 2.63361 0
M  V30 4495 C 434.168 2.65572 3.31295 0
M  V30 4496 O 435.192 2.2803 2.73643 0
M  V30 4497 O 434.051 3.3018 4.35481 0
M  V30 4498 H 431.145 0.47086 0.679867 0
M  V30 4499 H 433.691 1.48016 0.830021 0
M  V30 4500 H 432.463 3.2382 2.19674 0
M  V30 4501 H 432.086 2.03303 3.41692 0
M  V30 4502 N 433.083 -1.0153 1.20538 0
M  V30 4503 C 434.494 -1.56598 1.01657 0
M  V30 4504 C 434.845 -1.91505 -0.426668 0
M  V30 4505 O 433.97 -1.72375 -1.30827 0
M  V30 4506 C 434.565 -2.84542 1.83905 0
M  V30 4507 C 433.124 -3.36133 1.69386 0
M  V30 4508 C 432.271 -2.09427 1.81757 0
M  V30 4509 H 435.222 -0.838974 1.34711 0
M  V30 4510 H 435.243 -3.56004 1.34319 0
M  V30 4511 H 434.755 -2.59105 2.8894 0
M  V30 4512 H 432.856 -3.66528 0.669933 0
M  V30 4513 H 432.969 -4.08248 2.50739 0
M  V30 4514 H 431.333 -2.21941 1.24957 0
M  V30 4515 H 432.116 -1.86414 2.88279 0
M  V30 4516 N 434.561 -1.01147 -1.20859 0
M  V30 4517 C 435.808 -0.697865 -1.90095 0
M  V30 4518 C 436.136 0.772014 -1.78522 0
M  V30 4519 O 435.391 1.57595 -1.16027 0
M  V30 4520 C 435.69 -1.0727 -3.40922 0
M  V30 4521 C 435.356 -2.53792 -3.72693 0
M  V30 4522 C 434.018 -2.93829 -3.81075 0
M  V30 4523 C 436.37 -3.48674 -3.87397 0
M  V30 4524 C 433.698 -4.27696 -4.01613 0
M  V30 4525 C 436.05 -4.82223 -4.09444 0
M  V30 4526 C 434.714 -5.21973 -4.16054 0
M  V30 4527 H 433.984 -0.255367 -0.695607 0
M  V30 4528 H 436.631 -1.27111 -1.43231 0
M  V30 4529 H 434.936 -0.417799 -3.89566 0
M  V30 4530 H 436.633 -0.807818 -3.92779 0
M  V30 4531 H 433.223 -2.21768 -3.66765 0
M  V30 4532 H 437.407 -3.18904 -3.80281 0
M  V30 4533 H 432.663 -4.58055 -4.04964 0
M  V30 4534 H 436.837 -5.55672 -4.19763 0
M  V30 4535 H 434.464 -6.25717 -4.31721 0
M  V30 4536 N 436.039 1.36541 -0.78704 0
M  V30 4537 C 437.286 1.99304 -0.358341 0
M  V30 4538 C 437.614 1.62467 1.06933 0
M  V30 4539 O 436.869 0.870019 1.75297 0
M  V30 4540 C 437.168 3.54343 -0.466485 0
M  V30 4541 C 436.834 4.10993 -1.85461 0
M  V30 4542 C 435.496 4.26177 -2.23443 0
M  V30 4543 C 437.848 4.41895 -2.76366 0
M  V30 4544 C 435.176 4.69573 -3.51736 0
M  V30 4545 C 437.528 4.86722 -4.04084 0
M  V30 4546 C 436.192 5.00112 -4.42091 0
M  V30 4547 H 435.462 0.729306 -0.131126 0
M  V30 4548 H 438.109 1.63068 -1.00404 0
M  V30 4549 H 436.414 3.90918 0.262719 0
M  V30 4550 H 438.111 4.00833 -0.115854 0
M  V30 4551 H 434.701 3.99612 -1.54946 0
M  V30 4552 H 438.885 4.29735 -2.48277 0
M  V30 4553 H 434.141 4.78127 -3.81057 0
M  V30 4554 H 438.315 5.09598 -4.7464 0
M  V30 4555 H 435.942 5.33498 -5.41557 0
M  V30 4556 N 437.518 0.538854 1.48102 0
M  V30 4557 C 438.764 0.00801365 2.02798 0
M  V30 4558 C 439.097 -1.3309 1.41424 0
M  V30 4559 O 438.372 -1.86169 0.563158 0
M  V30 4560 C 438.655 -0.104589 3.59948 0
M  V30 4561 C 438.508 1.26012 4.31788 0
M  V30 4562 C 439.827 -0.827055 4.32259 0
M  V30 4563 H 436.946 0.00438624 0.736987 0
M  V30 4564 H 439.588 0.6976 1.7673 0
M  V30 4565 H 437.738 -0.691893 3.82289 0
M  V30 4566 H 439.41 1.88922 4.2084 0
M  V30 4567 H 437.653 1.83968 3.92859 0
M  V30 4568 H 438.324 1.13424 5.40221 0
M  V30 4569 H 440.8 -0.328578 4.14801 0
M  V30 4570 H 439.676 -0.87476 5.41885 0
M  V30 4571 H 439.937 -1.87927 4.0017 0
M  V30 4572 N 438.996 -1.55193 0.274407 0
M  V30 4573 C 440.242 -1.99877 -0.343086 0
M  V30 4574 C 440.575 -1.16256 -1.55558 0
M  V30 4575 O 439.85 -0.232462 -1.93106 0
M  V30 4576 C 440.133 -3.52706 -0.725965 0
M  V30 4577 C 439.986 -4.47081 0.493818 0
M  V30 4578 C 441.305 -4.11422 -1.56268 0
M  V30 4579 H 438.424 -0.726625 -0.123229 0
M  V30 4580 H 441.066 -1.86136 0.38121 0
M  V30 4581 H 439.216 -3.64546 -1.34307 0
M  V30 4582 H 440.888 -4.47186 1.13237 0
M  V30 4583 H 439.131 -4.1877 1.13201 0
M  V30 4584 H 439.802 -5.51699 0.18217 0
M  V30 4585 H 442.278 -4.02855 -1.04151 0
M  V30 4586 H 441.154 -5.18568 -1.79939 0
M  V30 4587 H 441.415 -3.61607 -2.54348 0
M  V30 4588 N 440.474 -0.00167713 -1.576 0
M  V30 4589 C 441.384 1.00548 -2.1196 0
M  V30 4590 C 442.4 1.3758 -1.06526 0
M  V30 4591 O 443.576 1.46278 -1.38436 0
M  V30 4592 C 440.641 2.27809 -2.6135 0
M  V30 4593 C 439.702 1.97074 -3.81393 0
M  V30 4594 C 438.935 3.18267 -4.28417 0
M  V30 4595 O 439.158 4.30009 -3.74765 0
M  V30 4596 O 438.092 3.02167 -5.20556 0
M  V30 4597 H 441.918 0.573373 -2.98238 0
M  V30 4598 H 439.503 0.217255 -1.47812 0
M  V30 4599 H 441.385 3.02568 -2.93309 0
M  V30 4600 H 440.06 2.70254 -1.78169 0
M  V30 4601 H 438.967 1.19785 -3.54404 0
M  V30 4602 H 440.3 1.59464 -4.65652 0
M  V30 4603 N 441.952 1.55251 0.271103 0
M  V30 4604 C 443.18 1.79974 1.02064 0
M  V30 4605 C 443.595 0.574003 1.79863 0
M  V30 4606 O 442.952 -0.456962 1.76686 0
M  V30 4607 C 443.003 3.02603 1.97772 0
M  V30 4608 O 442.724 4.20443 1.23124 0
M  V30 4609 C 444.225 3.39944 2.84522 0
M  V30 4610 H 441.445 0.599489 0.301419 0
M  V30 4611 H 443.989 2.02268 0.301313 0
M  V30 4612 H 442.144 2.8243 2.65165 0
M  V30 4613 H 442.558 4.89783 1.87651 0
M  V30 4614 H 444.032 4.28915 3.47471 0
M  V30 4615 H 444.509 2.59432 3.54389 0
M  V30 4616 H 445.115 3.62383 2.22618 0
M  V30 4617 N 443.43 -0.535701 1.48216 0
M  V30 4618 C 444.36 -1.65014 1.65204 0
M  V30 4619 C 445.341 -1.62554 0.501011 0
M  V30 4620 O 446.526 -1.7984 0.732886 0
M  V30 4621 C 443.656 -3.03616 1.68626 0
M  V30 4622 C 442.61 -3.20932 2.83172 0
M  V30 4623 C 441.936 -4.60537 2.71679 0
M  V30 4624 C 443.236 -3.04249 4.24535 0
M  V30 4625 H 444.93 -1.51053 2.58502 0
M  V30 4626 H 442.476 -0.725262 1.24402 0
M  V30 4627 H 444.429 -3.81446 1.79099 0
M  V30 4628 H 443.153 -3.18587 0.719026 0
M  V30 4629 H 441.812 -2.45517 2.72244 0
M  V30 4630 H 441.46 -4.72336 1.72937 0
M  V30 4631 H 441.16 -4.73069 3.48538 0
M  V30 4632 H 442.684 -5.40475 2.84112 0
M  V30 4633 H 444.098 -3.71877 4.36326 0
M  V30 4634 H 442.495 -3.28278 5.02348 0
M  V30 4635 H 443.565 -2.00739 4.41397 0
M  V30 4636 N 444.908 -1.36708 -0.784132 0
M  V30 4637 C 446.148 -1.32618 -1.55537 0
M  V30 4638 C 446.512 0.0920681 -1.91779 0
M  V30 4639 O 447.713 0.257573 -2.67563 0
M  V30 4640 C 445.984 -2.22788 -2.79464 0
M  V30 4641 S 447.543 -2.36432 -3.69656 0
M  V30 4642 H 444.361 -0.470973 -0.53264 0
M  V30 4643 H 446.963 -1.72333 -0.92312 0
M  V30 4644 H 445.667 -3.24774 -2.50899 0
M  V30 4645 H 445.198 -1.84112 -3.47658 0
M  V30 4646 H 447.213 -1.56573 -4.7085 0
M  V30 4647 N 446.386 1.0089 -1.21074 0
M  V30 4648 C 447.635 1.74019 -1.01981 0
M  V30 4649 C 447.948 1.90408 0.447665 0
M  V30 4650 O 449.154 2.60707 0.757906 0
M  V30 4651 C 447.61 3.13026 -1.77603 0
M  V30 4652 C 447.218 3.04623 -3.28495 0
M  V30 4653 C 448.962 3.90312 -1.66904 0
M  V30 4654 C 446.869 4.38685 -3.96623 0
M  V30 4655 H 445.799 0.652422 -0.377971 0
M  V30 4656 H 448.45 1.12755 -1.44771 0
M  V30 4657 H 446.832 3.74878 -1.27604 0
M  V30 4658 H 448.006 2.52032 -3.85767 0
M  V30 4659 H 446.321 2.40827 -3.39693 0
M  V30 4660 H 448.918 4.8951 -2.15138 0
M  V30 4661 H 449.261 4.11558 -0.62658 0
M  V30 4662 H 449.794 3.35104 -2.14359 0
M  V30 4663 H 446.533 4.22641 -5.01054 0
M  V30 4664 H 446.053 4.91252 -3.4414 0
M  V30 4665 H 447.732 5.075 -4.01314 0
M  V30 4666 N 447.864 1.01787 1.20321 0
M  V30 4667 C 449.113 0.703249 1.89043 0
M  V30 4668 C 449.426 -0.770445 1.79787 0
M  V30 4669 O 450.632 -1.19767 2.43656 0
M  V30 4670 C 449.088 1.20749 3.3904 0
M  V30 4671 C 448.696 2.70817 3.56878 0
M  V30 4672 C 450.44 0.968352 4.13308 0
M  V30 4673 C 448.347 3.14716 5.00708 0
M  V30 4674 H 447.277 0.259354 0.707991 0
M  V30 4675 H 449.928 1.23072 1.36108 0
M  V30 4676 H 448.31 0.607989 3.91305 0
M  V30 4677 H 449.484 3.36327 3.14993 0
M  V30 4678 H 447.799 2.92888 2.95983 0
M  V30 4679 H 450.396 1.27173 5.19356 0
M  V30 4680 H 450.739 -0.095149 4.16191 0
M  V30 4681 H 451.272 1.53129 3.67146 0
M  V30 4682 H 448.011 4.20347 5.02979 0
M  V30 4683 H 447.531 2.53927 5.43398 0
M  V30 4684 H 449.21 3.07426 5.69296 0
M  V30 4685 N 449.342 -1.36122 0.79427 0
M  V30 4686 C 450.588 -1.99846 0.378542 0
M  V30 4687 C 450.943 -1.61898 -1.03955 0
M  V30 4688 O 450.236 -0.866013 -1.70912 0
M  V30 4689 C 450.43 -3.5409 0.48527 0
M  V30 4690 C 450.259 -4.0702 1.91219 0
M  V30 4691 C 449.029 -4.36944 2.53787 0
M  V30 4692 C 451.227 -4.26435 2.87502 0
M  V30 4693 N 449.209 -4.75727 3.88017 0
M  V30 4694 C 450.58 -4.68077 4.06576 0
M  V30 4695 C 452.635 -4.08616 2.84495 0
M  V30 4696 C 451.338 -4.93765 5.23057 0
M  V30 4697 C 453.364 -4.35453 4.00169 0
M  V30 4698 C 452.726 -4.77355 5.17988 0
M  V30 4699 H 448.825 -0.759549 0.186034 0
M  V30 4700 H 451.409 -1.65043 1.0329 0
M  V30 4701 H 449.58 -3.88151 -0.139023 0
M  V30 4702 H 451.312 -4.04675 0.0453192 0
M  V30 4703 H 448.067 -4.26822 2.05231 0
M  V30 4704 H 448.491 -4.99396 4.57092 0
M  V30 4705 H 453.133 -3.75373 1.94564 0
M  V30 4706 H 450.851 -5.25887 6.1357 0
M  V30 4707 H 454.437 -4.2323 3.99208 0
M  V30 4708 H 453.317 -4.97718 6.06008 0
M  V30 4709 N 450.82 -0.546701 -1.47814 0
M  V30 4710 C 452.067 -0.0187407 -2.02491 0
M  V30 4711 C 452.395 1.32685 -1.42215 0
M  V30 4712 O 451.65 1.87413 -0.563454 0
M  V30 4713 C 451.949 0.134869 -3.57145 0
M  V30 4714 C 451.615 -1.13849 -4.3629 0
M  V30 4715 C 450.277 -1.48743 -4.57634 0
M  V30 4716 C 452.629 -1.98277 -4.82012 0
M  V30 4717 C 449.957 -2.67932 -5.21948 0
M  V30 4718 C 452.309 -3.16659 -5.4764 0
M  V30 4719 C 450.973 -3.51879 -5.67219 0
M  V30 4720 H 450.243 -0.0068577 -0.740968 0
M  V30 4721 H 452.89 -0.716097 -1.77607 0
M  V30 4722 H 451.195 0.915118 -3.80963 0
M  V30 4723 H 452.892 0.558556 -3.97091 0
M  V30 4724 H 449.482 -0.856767 -4.19949 0
M  V30 4725 H 453.666 -1.72628 -4.6531 0
M  V30 4726 H 448.922 -2.95401 -5.35302 0
M  V30 4727 H 453.096 -3.82374 -5.82033 0
M  V30 4728 H 450.723 -4.44331 -6.16825 0
M  V30 4729 N 452.299 1.55045 -0.282633 0
M  V30 4730 C 453.524 2.04628 0.337977 0
M  V30 4731 C 453.949 1.15937 1.48123 0
M  V30 4732 O 453.307 0.159532 1.80597 0
M  V30 4733 C 453.355 3.51854 0.78936 0
M  V30 4734 O 452.459 3.66236 1.89592 0
M  V30 4735 H 451.8 0.660434 0.0687261 0
M  V30 4736 H 454.33 2.00261 -0.419124 0
M  V30 4737 H 454.34 3.93361 1.08311 0
M  V30 4738 H 453.015 4.15873 -0.0470419 0
M  V30 4739 H 451.592 3.36633 1.60413 0
M  V30 4740 N 453.777 0.010035 1.57597 0
M  V30 4741 C 455.024 -0.6727 1.91 0
M  V30 4742 C 455.352 -1.73219 0.884614 0
M  V30 4743 O 454.607 -1.95395 -0.109215 0
M  V30 4744 C 454.906 -1.34434 3.31153 0
M  V30 4745 C 454.572 -0.417083 4.48967 0
M  V30 4746 C 453.234 -0.161809 4.80928 0
M  V30 4747 C 455.586 0.220753 5.20732 0
M  V30 4748 C 452.914 0.739426 5.82022 0
M  V30 4749 C 455.266 1.10993 6.22787 0
M  V30 4750 C 453.93 1.37428 6.532 0
M  V30 4751 H 453.2 -0.246158 0.698918 0
M  V30 4752 H 455.847 0.0677145 1.9138 0
M  V30 4753 H 454.152 -2.15905 3.26944 0
M  V30 4754 H 455.849 -1.87883 3.54261 0
M  V30 4755 H 452.439 -0.626217 4.24001 0
M  V30 4756 H 456.623 0.0365643 4.96287 0
M  V30 4757 H 451.879 0.952139 6.03941 0
M  V30 4758 H 456.053 1.61046 6.77523 0
M  V30 4759 H 453.68 2.0743 7.31353 0
M  V30 4760 N 455.255 -1.55392 -0.262866 0
M  V30 4761 C 456.165 -1.92077 -1.34698 0
M  V30 4762 C 457.181 -0.819227 -1.53508 0
M  V30 4763 O 458.357 -1.11921 -1.67439 0
M  V30 4764 C 455.422 -2.19407 -2.68443 0
M  V30 4765 C 454.483 -3.42905 -2.58292 0
M  V30 4766 C 453.716 -3.68921 -3.85659 0
M  V30 4767 O 453.939 -2.97275 -4.8681 0
M  V30 4768 O 452.873 -4.62455 -3.85252 0
M  V30 4769 H 456.699 -2.84384 -1.06581 0
M  V30 4770 H 454.284 -1.42069 -0.462264 0
M  V30 4771 H 456.166 -2.38365 -3.47506 0
M  V30 4772 H 454.841 -1.30282 -2.96325 0
M  V30 4773 H 453.748 -3.29272 -1.7757 0
M  V30 4774 H 455.081 -4.32282 -2.35358 0
M  V30 4775 N 456.733 0.527833 -1.48498 0
M  V30 4776 C 457.663 1.64136 -1.66077 0
M  V30 4777 C 458.644 1.62286 -0.509625 0
M  V30 4778 O 459.829 1.79449 -0.742413 0
M  V30 4779 C 456.959 3.02717 -1.70234 0
M  V30 4780 C 455.913 3.19426 -2.8487 0
M  V30 4781 C 455.239 4.5909 -2.74118 0
M  V30 4782 C 456.539 3.01993 -4.26142 0
M  V30 4783 H 458.233 1.4968 -2.593 0
M  V30 4784 H 455.779 0.718654 -1.24785 0
M  V30 4785 H 457.732 3.80491 -1.8112 0
M  V30 4786 H 456.456 3.18201 -0.735911 0
M  V30 4787 H 455.115 2.4407 -2.73542 0
M  V30 4788 H 454.763 4.71413 -1.7544 0
M  V30 4789 H 454.463 4.71214 -3.51042 0
M  V30 4790 H 455.987 5.3896 -2.86974 0
M  V30 4791 H 457.401 3.69558 -4.38292 0
M  V30 4792 H 455.798 3.2561 -5.04082 0
M  V30 4793 H 456.868 1.98396 -4.42456 0
M  V30 4794 N 458.211 1.37122 0.776871 0
M  V30 4795 C 459.141 1.35164 1.90402 0
M  V30 4796 C 460.122 0.221069 1.68657 0
M  V30 4797 O 461.307 0.420642 1.8959 0
M  V30 4798 C 458.437 1.15274 3.27611 0
M  V30 4799 C 457.391 2.25289 3.63908 0
M  V30 4800 C 456.717 1.90527 4.99603 0
M  V30 4801 C 458.017 3.67446 3.71188 0
M  V30 4802 H 459.711 2.29482 1.92297 0
M  V30 4803 H 457.257 1.10465 0.923773 0
M  V30 4804 H 459.21 1.12536 4.06096 0
M  V30 4805 H 457.934 0.174102 3.26136 0
M  V30 4806 H 456.593 2.27174 2.87728 0
M  V30 4807 H 456.241 0.91206 4.94662 0
M  V30 4808 H 455.941 2.64193 5.24858 0
M  V30 4809 H 457.465 1.89367 5.80493 0
M  V30 4810 H 458.879 3.67719 4.39836 0
M  V30 4811 H 457.276 4.40123 4.07936 0
M  V30 4812 H 458.346 4.01443 2.71977 0
M  V30 4813 N 459.689 -1.00246 1.21608 0
M  V30 4814 C 460.935 -1.74319 1.03638 0
M  V30 4815 C 461.268 -1.89408 -0.428749 0
M  V30 4816 O 460.543 -1.43026 -1.3181 0
M  V30 4817 C 460.826 -3.15431 1.73711 0
M  V30 4818 C 460.679 -3.08049 3.27759 0
M  V30 4819 C 461.998 -4.14407 1.48173 0
M  V30 4820 H 459.117 -0.632741 0.377899 0
M  V30 4821 H 461.759 -1.16853 1.49818 0
M  V30 4822 H 459.909 -3.64493 1.34452 0
M  V30 4823 H 461.581 -2.66681 3.76403 0
M  V30 4824 H 459.824 -2.45088 3.57931 0
M  V30 4825 H 460.495 -4.07862 3.71958 0
M  V30 4826 H 462.971 -3.74061 1.82258 0
M  V30 4827 H 461.847 -5.11279 1.99713 0
M  V30 4828 H 462.108 -4.40174 0.412273 0
M  V30 4829 N 461.167 -1.02423 -1.1978 0
M  V30 4830 C 462.583 -0.740459 -1.41384 0
M  V30 4831 C 462.783 0.676827 -1.89793 0
M  V30 4832 O 461.839 1.4435 -2.0717 0
M  V30 4833 C 463.152 -1.77264 -2.42895 0
M  V30 4834 C 464.7 -1.79165 -2.56649 0
M  V30 4835 C 465.175 -2.8133 -3.6141 0
M  V30 4836 N 466.666 -2.80118 -3.68901 0
M  V30 4837 C 467.401 -3.55824 -4.49641 0
M  V30 4838 N 466.897 -4.41231 -5.34123 0
M  V30 4839 N 468.69 -3.44387 -4.44246 0
M  V30 4840 H 460.841 -1.9391 -0.866764 0
M  V30 4841 H 463.104 -0.838074 -0.443098 0
M  V30 4842 H 462.81 -2.7884 -2.14339 0
M  V30 4843 H 462.684 -1.59108 -3.42001 0
M  V30 4844 H 465.071 -0.782702 -2.84531 0
M  V30 4845 H 465.152 -2.01396 -1.57713 0
M  V30 4846 H 464.796 -3.82394 -3.34271 0
M  V30 4847 H 464.726 -2.56359 -4.59986 0
M  V30 4848 H 467.217 -2.1817 -3.08562 0
M  V30 4849 H 467.53 -4.95747 -5.92836 0
M  V30 4850 H 465.875 -4.45306 -5.33599 0
M  V30 4851 H 469.066 -2.7708 -3.77285 0
M  V30 4852 H 469.239 -4.0364 -5.06931 0
M  V30 4853 N 462.645 1.35699 -0.801477 0
M  V30 4854 C 463.892 1.98913 -0.379459 0
M  V30 4855 C 464.22 1.63592 1.05204 0
M  V30 4856 O 463.475 0.888563 1.74365 0
M  V30 4857 C 463.774 3.53828 -0.504041 0
M  V30 4858 C 463.44 4.09002 -1.8981 0
M  V30 4859 C 462.102 4.23783 -2.27951 0
M  V30 4860 C 464.454 4.38939 -2.81038 0
M  V30 4861 C 461.782 4.65816 -3.56696 0
M  V30 4862 C 464.134 4.82409 -4.09224 0
M  V30 4863 C 462.798 4.95395 -4.4737 0
M  V30 4864 H 462.068 0.727874 -0.138854 0
M  V30 4865 H 464.715 1.61994 -1.02128 0
M  V30 4866 H 463.02 3.91175 0.221242 0
M  V30 4867 H 464.717 4.00687 -0.158361 0
M  V30 4868 H 461.307 3.97946 -1.59176 0
M  V30 4869 H 465.491 4.27077 -2.52821 0
M  V30 4870 H 460.747 4.74059 -3.86106 0
M  V30 4871 H 464.921 5.04535 -4.80018 0
M  V30 4872 H 462.548 5.27724 -5.47185 0
M  V30 4873 N 464.123 0.554532 1.47522 0
M  V30 4874 C 465.37 0.029479 2.02479 0
M  V30 4875 C 465.698 -1.31929 1.42916 0
M  V30 4876 O 464.953 -1.87112 0.573385 0
M  V30 4877 C 465.252 -0.115927 3.57212 0
M  V30 4878 C 464.918 1.16161 4.3568 0
M  V30 4879 C 463.58 1.51168 4.56839 0
M  V30 4880 C 465.932 2.0083 4.80954 0
M  V30 4881 C 463.26 2.70696 5.2052 0
M  V30 4882 C 465.612 3.19559 5.45953 0
M  V30 4883 C 464.276 3.54882 5.65345 0
M  V30 4884 H 463.546 0.0107871 0.740921 0
M  V30 4885 H 466.193 0.725506 1.77225 0
M  V30 4886 H 464.498 -0.894902 3.81443 0
M  V30 4887 H 466.195 -0.53749 3.97381 0
M  V30 4888 H 462.785 0.879026 4.19489 0
M  V30 4889 H 466.969 1.75093 4.64388 0
M  V30 4890 H 462.225 2.98236 5.33728 0
M  V30 4891 H 466.399 3.85456 5.79997 0
M  V30 4892 H 464.026 4.47596 6.1446 0
M  V30 4893 N 465.601 -1.54893 0.290851 0
M  V30 4894 C 466.564 -2.21824 -0.576784 0
M  V30 4895 C 467.564 -1.20104 -1.06919 0
M  V30 4896 O 468.754 -1.44906 -0.966843 0
M  V30 4897 C 465.886 -2.89662 -1.79747 0
M  V30 4898 H 467.079 -2.99899 0.00784051 0
M  V30 4899 H 464.632 -1.56245 0.0415934 0
M  V30 4900 H 465.367 -2.15639 -2.42219 0
M  V30 4901 H 465.152 -3.64219 -1.45214 0
M  V30 4902 H 466.642 -3.4075 -2.4141 0
M  V30 4903 N 467.08 -0.0183926 -1.57589 0
M  V30 4904 C 468.32 0.666846 -1.93216 0
M  V30 4905 C 468.684 1.69905 -0.894215 0
M  V30 4906 O 469.885 2.436 -1.13633 0
M  V30 4907 C 468.156 1.27684 -3.33814 0
M  V30 4908 S 469.715 1.98464 -3.91353 0
M  V30 4909 H 466.533 0.219826 -0.676164 0
M  V30 4910 H 469.135 -0.0794893 -1.95338 0
M  V30 4911 H 467.839 0.513006 -4.07181 0
M  V30 4912 H 467.37 2.06071 -3.3511 0
M  V30 4913 H 469.385 3.26189 -3.73918 0
M  V30 4914 N 468.558 1.5553 0.254621 0
M  V30 4915 C 469.969 1.67518 0.824286 0
M  V30 4916 C 470.32 0.614429 1.86331 0
M  V30 4917 O 469.445 -0.240736 2.15057 0
M  V30 4918 C 470.04 3.03692 1.50189 0
M  V30 4919 C 468.599 3.17646 2.01935 0
M  V30 4920 C 467.746 2.63373 0.867746 0
M  V30 4921 H 470.697 1.58671 0.0305843 0
M  V30 4922 H 470.718 2.97706 2.36962 0
M  V30 4923 H 470.23 3.80874 0.745431 0
M  V30 4924 H 468.331 2.45273 2.80485 0
M  V30 4925 H 468.444 4.24455 2.22204 0
M  V30 4926 H 466.808 2.20999 1.26616 0
M  V30 4927 H 467.591 3.43074 0.124498 0
M  V30 4928 N 470.036 -0.519951 1.48776 0
M  V30 4929 C 471.261 -1.30447 1.6124 0
M  V30 4930 C 471.686 -1.86055 0.276591 0
M  V30 4931 O 471.044 -1.64915 -0.753183 0
M  V30 4932 C 471.092 -2.42406 2.66967 0
M  V30 4933 O 470.196 -3.45728 2.24824 0
M  V30 4934 H 469.537 -0.385924 0.540332 0
M  V30 4935 H 472.067 -0.624572 1.94834 0
M  V30 4936 H 472.077 -2.88447 2.88552 0
M  V30 4937 H 470.752 -2.01294 3.63941 0
M  V30 4938 H 469.329 -3.05737 2.13494 0
M  V30 4939 N 471.514 -1.37532 -0.769588 0
M  V30 4940 C 472.461 -1.3347 -1.88293 0
M  V30 4941 C 473.431 -0.199891 -1.64893 0
M  V30 4942 O 474.616 -0.389594 -1.8678 0
M  V30 4943 C 471.756 -1.14968 -3.25387 0
M  V30 4944 C 470.869 -2.37698 -3.60727 0
M  V30 4945 C 470.004 -2.12051 -4.8704 0
M  V30 4946 C 469.043 -3.30636 -5.15117 0
M  V30 4947 N 468.18 -3.04527 -6.3262 0
M  V30 4948 H 473.02 -2.28658 -1.911 0
M  V30 4949 H 470.557 -1.13622 -0.934257 0
M  V30 4950 H 472.515 -1.02261 -4.04473 0
M  V30 4951 H 471.145 -0.234263 -3.21949 0
M  V30 4952 H 470.197 -2.61137 -2.76608 0
M  V30 4953 H 471.509 -3.26131 -3.77413 0
M  V30 4954 H 470.663 -1.96388 -5.74035 0
M  V30 4955 H 469.402 -1.20959 -4.72462 0
M  V30 4956 H 468.407 -3.46836 -4.26597 0
M  V30 4957 H 469.632 -4.22582 -5.31603 0
M  V30 4958 H 467.578 -2.16067 -6.19396 0
M  V30 4959 H 467.495 -3.86503 -6.49732 0
M  V30 4960 H 468.763 -2.92485 -7.22546 0
M  V30 4961 N 472.992 0.995999 -1.22138 0
M  V30 4962 C 473.955 2.06711 -0.990109 0
M  V30 4963 C 474.955 1.60744 0.0422978 0
M  V30 4964 O 476.145 1.73095 -0.195895 0
M  V30 4965 C 473.277 3.37288 -0.49491 0
M  V30 4966 H 474.47 2.28661 -1.94047 0
M  V30 4967 H 472.023 1.16711 -1.03963 0
M  V30 4968 H 472.758 3.21022 0.459948 0
M  V30 4969 H 472.543 3.71986 -1.23971 0
M  V30 4970 H 474.033 4.16103 -0.353253 0
M  V30 4971 N 474.47 1.03057 1.19235 0
M  V30 4972 C 475.698 0.747697 1.92917 0
M  V30 4973 C 476.113 -0.69372 1.75593 0
M  V30 4974 O 475.47 -1.47191 1.07894 0
M  V30 4975 C 475.521 1.09159 3.44625 0
M  V30 4976 O 475.242 2.47641 3.61394 0
M  V30 4977 C 476.743 0.831763 4.35427 0
M  V30 4978 H 473.963 0.273453 0.612751 0
M  V30 4979 H 476.507 1.37552 1.51327 0
M  V30 4980 H 474.662 0.508919 3.84043 0
M  V30 4981 H 475.076 2.60499 4.55237 0
M  V30 4982 H 476.55 1.12233 5.4047 0
M  V30 4983 H 477.027 -0.233769 4.38577 0
M  V30 4984 H 477.633 1.39725 4.01693 0
M  V30 4985 N 475.948 -1.35272 0.808662 0
M  V30 4986 C 477.195 -1.98709 0.390003 0
M  V30 4987 C 477.523 -1.64148 -1.04335 0
M  V30 4988 O 476.778 -0.897797 -1.73891 0
M  V30 4989 C 477.077 -3.53556 0.522798 0
M  V30 4990 C 476.743 -4.0799 1.91977 0
M  V30 4991 C 475.405 -4.22568 2.30195 0
M  V30 4992 C 477.757 -4.37442 2.83361 0
M  V30 4993 C 475.085 -4.63918 3.59162 0
M  V30 4994 C 477.437 -4.80232 4.11776 0
M  V30 4995 C 476.101 -4.93016 4.49991 0
M  V30 4996 H 475.371 -0.727127 0.142712 0
M  V30 4997 H 478.018 -1.6145 1.02985 0
M  V30 4998 H 476.323 -3.91287 -0.200494 0
M  V30 4999 H 478.02 -4.00598 0.179608 0
M  V30 5000 H 474.61 -3.97096 1.61284 0
M  V30 5001 H 478.794 -4.25731 2.55083 0
M  V30 5002 H 474.05 -4.72005 3.88615 0
M  V30 5003 H 478.224 -5.01982 4.82687 0
M  V30 5004 H 475.851 -5.24814 5.49976 0
M  V30 5005 N 477.426 -0.562348 -1.47226 0
M  V30 5006 C 478.651 -0.0432632 -2.07355 0
M  V30 5007 C 479.076 1.24332 -1.41149 0
M  V30 5008 O 478.434 1.74603 -0.488226 0
M  V30 5009 C 478.482 0.130288 -3.60365 0
M  V30 5010 O 477.586 1.19166 -3.94808 0
M  V30 5011 H 476.927 -0.0536334 -0.66183 0
M  V30 5012 H 479.457 -0.779495 -1.89169 0
M  V30 5013 H 479.467 0.342881 -4.06557 0
M  V30 5014 H 478.142 -0.809389 -4.07948 0
M  V30 5015 H 476.719 0.959153 -3.60354 0
M  V30 5016 N 478.904 1.54736 -0.299062 0
M  V30 5017 C 480.32 1.59507 0.0543849 0
M  V30 5018 C 480.52 1.31606 1.52585 0
M  V30 5019 O 479.576 1.08853 2.27832 0
M  V30 5020 C 480.889 2.98751 -0.34181 0
M  V30 5021 C 482.437 3.1165 -0.290414 0
M  V30 5022 C 482.912 4.53199 -0.661402 0
M  V30 5023 N 484.403 4.59114 -0.613863 0
M  V30 5024 C 485.138 5.66709 -0.873417 0
M  V30 5025 N 484.634 6.82349 -1.19884 0
M  V30 5026 N 486.427 5.56369 -0.800608 0
M  V30 5027 H 478.578 1.71133 -1.25806 0
M  V30 5028 H 480.841 0.799186 -0.509908 0
M  V30 5029 H 480.547 3.24085 -1.36608 0
M  V30 5030 H 480.421 3.75961 0.305508 0
M  V30 5031 H 482.808 2.86066 0.724605 0
M  V30 5032 H 482.889 2.366 -0.972327 0
M  V30 5033 H 482.533 4.79513 -1.67422 0
M  V30 5034 H 482.463 5.26583 0.0425612 0
M  V30 5035 H 484.954 3.76053 -0.3732 0
M  V30 5036 H 485.267 7.60326 -1.38291 0
M  V30 5037 H 483.612 6.83906 -1.23685 0
M  V30 5038 H 486.803 4.64904 -0.546045 0
M  V30 5039 H 486.976 6.40139 -1.00626 0
M  V30 5040 N 480.382 0.0267497 1.57577 0
M  V30 5041 C 481.33 -0.973923 2.11229 0
M  V30 5042 C 482.324 -1.33849 1.03831 0
M  V30 5043 O 483.53 -1.321 1.22269 0
M  V30 5044 H 479.905 -0.331844 0.674821 0
M  V30 5045 H 481.876 -0.496092 2.94247 0
M  V30 5046 C 480.625 -2.24798 2.65257 0
M  V30 5047 H 479.948 -1.9762 3.47543 0
M  V30 5048 H 481.388 -2.93031 3.06445 0
M  V30 5049 C 479.847 -2.97611 1.57891 0
M  V30 5050 O 480.377 -3.89629 0.97735 0
M  V30 5051 N 478.583 -2.59905 1.29992 0
M  V30 5052 H 478.13 -1.85154 1.79097 0
M  V30 5053 H 478.088 -3.08932 0.583798 0
M  V30 5054 N 481.861 -1.55662 -0.24637 0
M  V30 5055 C 483.11 -1.7672 -0.972254 0
M  V30 5056 C 483.423 -0.59078 -1.86465 0
M  V30 5057 O 484.629 -0.684391 -2.62732 0
M  V30 5058 C 483.085 -3.12869 -1.7788 0
M  V30 5059 C 482.693 -4.38161 -0.933768 0
M  V30 5060 C 484.437 -3.43265 -2.49738 0
M  V30 5061 C 482.344 -5.6534 -1.73623 0
M  V30 5062 H 481.274 -0.658795 -0.366749 0
M  V30 5063 H 483.925 -1.82092 -0.226902 0
M  V30 5064 H 482.307 -3.01606 -2.56612 0
M  V30 5065 H 483.481 -4.60413 -0.188736 0
M  V30 5066 H 481.796 -4.15102 -0.328488 0
M  V30 5067 H 484.393 -4.35501 -3.10231 0
M  V30 5068 H 484.736 -2.64614 -3.2138 0
M  V30 5069 H 485.269 -3.55746 -1.78016 0
M  V30 5070 H 482.008 -6.46814 -1.06354 0
M  V30 5071 H 481.528 -5.47188 -2.45653 0
M  V30 5072 H 483.207 -6.04616 -2.30323 0
M  V30 5073 N 483.339 0.512053 -1.4905 0
M  V30 5074 C 484.272 1.63209 -1.59493 0
M  V30 5075 C 485.25 1.56407 -0.444481 0
M  V30 5076 O 486.434 1.76623 -0.658535 0
M  V30 5077 C 483.561 3.01685 -1.53961 0
M  V30 5078 C 482.607 3.26786 -2.74068 0
M  V30 5079 S 483.44 3.11107 -4.35859 0
M  V30 5080 C 484.596 4.51997 -4.32954 0
M  V30 5081 H 484.829 1.54104 -2.54243 0
M  V30 5082 H 482.362 0.696382 -1.37804 0
M  V30 5083 H 484.32 3.81538 -1.51455 0
M  V30 5084 H 482.981 3.08215 -0.605178 0
M  V30 5085 H 482.174 4.27849 -2.66386 0
M  V30 5086 H 481.776 2.54635 -2.73928 0
M  V30 5087 H 484.068 5.43871 -4.03993 0
M  V30 5088 H 485.011 4.64731 -5.34257 0
M  V30 5089 H 485.419 4.32159 -3.63178 0
M  V30 5090 N 484.817 1.37938 0.762283 0
M  V30 5091 C 485.765 1.34569 1.89721 0
M  V30 5092 C 486.759 0.232929 1.67791 0
M  V30 5093 O 487.965 0.401485 1.75465 0
M  V30 5094 H 484.34 0.419594 0.624055 0
M  V30 5095 H 486.311 2.30357 1.8968 0
M  V30 5096 C 485.06 1.17898 3.27101 0
M  V30 5097 H 484.383 2.02781 3.44558 0
M  V30 5098 H 485.823 1.19593 4.06784 0
M  V30 5099 C 484.282 -0.114728 3.36705 0
M  V30 5100 O 484.812 -1.0949 3.8649 0
M  V30 5101 N 483.018 -0.16863 2.9011 0
M  V30 5102 H 482.565 0.62967 2.49786 0
M  V30 5103 H 482.523 -1.03383 2.96916 0
M  V30 5104 N 486.295 -0.989507 1.22664 0
M  V30 5105 C 487.225 -2.09847 1.02404 0
M  V30 5106 C 488.206 -1.70007 -0.0561303 0
M  V30 5107 O 489.391 -1.93906 0.106748 0
M  V30 5108 C 486.521 -3.41996 0.604663 0
M  V30 5109 C 485.475 -3.95699 1.63115 0
M  V30 5110 C 484.801 -5.23936 1.0675 0
M  V30 5111 C 486.101 -4.25999 3.02196 0
M  V30 5112 H 487.795 -2.27054 1.95158 0
M  V30 5113 H 485.341 -1.09111 0.939727 0
M  V30 5114 H 487.294 -4.1899 0.45002 0
M  V30 5115 H 486.018 -3.24626 -0.35855 0
M  V30 5116 H 484.677 -3.2084 1.77362 0
M  V30 5117 H 484.325 -5.02909 0.0955422 0
M  V30 5118 H 484.025 -5.60833 1.75328 0
M  V30 5119 H 485.549 -6.0356 0.924516 0
M  V30 5120 H 486.963 -4.93777 2.91303 0
M  V30 5121 H 485.36 -4.74076 3.67929 0
M  V30 5122 H 486.43 -3.33636 3.51873 0
M  V30 5123 N 487.773 -1.03688 -1.18687 0
M  V30 5124 C 489.022 -0.733235 -1.879 0
M  V30 5125 C 489.335 0.741745 -1.8099 0
M  V30 5126 O 490.541 1.15875 -2.4553 0
M  V30 5127 C 488.997 -1.26127 -3.37076 0
M  V30 5128 C 488.605 -2.76461 -3.52524 0
M  V30 5129 C 490.349 -1.03398 -4.11715 0
M  V30 5130 C 488.256 -3.22642 -4.95637 0
M  V30 5131 H 487.186 -0.270584 -0.703776 0
M  V30 5132 H 489.837 -1.25222 -1.34133 0
M  V30 5133 H 488.219 -0.670165 -3.90288 0
M  V30 5134 H 489.393 -3.41296 -3.09602 0
M  V30 5135 H 487.708 -2.97559 -2.91286 0
M  V30 5136 H 490.305 -1.3542 -5.17267 0
M  V30 5137 H 490.648 0.0289246 -4.1629 0
M  V30 5138 H 491.181 -1.5895 -3.64664 0
M  V30 5139 H 487.92 -4.28296 -4.96228 0
M  V30 5140 H 487.44 -2.62539 -5.39289 0
M  V30 5141 H 489.119 -3.16444 -5.64333 0
M  V30 5142 N 489.251 1.34841 -0.815825 0
M  V30 5143 C 490.528 1.92908 -0.323416 0
M  V30 5144 C 490.908 1.74479 1.18828 0
M  V30 5145 O 490.256 1.11928 1.99209 0
M  V30 5146 C 490.466 3.40957 -0.744952 0
M  V30 5147 C 491.814 4.18107 -0.739716 0
M  V30 5148 O 492.838 3.49511 -0.68708 0
M  V30 5149 O 491.697 5.40517 -0.806456 0
M  V30 5150 H 488.791 0.822436 -0.0867646 0
M  V30 5151 H 491.337 1.4386 -0.90014 0
M  V30 5152 H 490.109 3.4814 -1.78646 0
M  V30 5153 H 489.732 3.97341 -0.143535 0
M  V30 5154 N 490.729 0.570148 1.46925 0
M  V30 5155 C 491.978 0.0487352 2.01641 0
M  V30 5156 C 492.291 -1.31433 1.44861 0
M  V30 5157 O 493.497 -1.92638 1.91318 0
M  V30 5158 C 491.953 0.0365817 3.59881 0
M  V30 5159 C 491.561 1.39719 4.25655 0
M  V30 5160 C 493.305 -0.431545 4.22301 0
M  V30 5161 C 491.212 1.34345 5.75939 0
M  V30 5162 H 490.142 0.0144492 0.753862 0
M  V30 5163 H 492.793 0.719928 1.68788 0
M  V30 5164 H 491.175 -0.700522 3.89755 0
M  V30 5165 H 492.349 2.15303 4.07408 0
M  V30 5166 H 490.664 1.80431 3.75278 0
M  V30 5167 H 493.261 -0.490354 5.32447 0
M  V30 5168 H 493.604 -1.44638 3.90366 0
M  V30 5169 H 494.137 0.251102 3.97007 0
M  V30 5170 H 490.876 2.33469 6.12513 0
M  V30 5171 H 490.396 0.629615 5.96486 0
M  V30 5172 H 492.075 1.051 6.38407 0
M  V30 5173 N 492.207 -1.54576 0.307264 0
M  V30 5174 C 493.453 -2.0056 -0.300612 0
M  V30 5175 C 493.786 -1.1953 -1.53057 0
M  V30 5176 O 493.061 -0.27337 -1.92569 0
M  V30 5177 C 493.344 -3.54167 -0.650987 0
M  V30 5178 C 493.197 -4.45933 0.588539 0
M  V30 5179 C 494.516 -4.14645 -1.47506 0
M  V30 5180 H 491.635 -0.729075 -0.107788 0
M  V30 5181 H 494.277 -1.85286 0.420606 0
M  V30 5182 H 492.427 -3.67313 -1.26544 0
M  V30 5183 H 494.099 -4.44683 1.22697 0
M  V30 5184 H 492.342 -4.16274 1.22058 0
M  V30 5185 H 493.013 -5.51189 0.299153 0
M  V30 5186 H 495.489 -4.04973 -0.955821 0
M  V30 5187 H 494.365 -5.22269 -1.68899 0
M  V30 5188 H 494.626 -3.66921 -2.4662 0
M  V30 5189 N 493.685 -0.035106 -1.57561 0
M  V30 5190 C 494.648 0.929819 -2.09492 0
M  V30 5191 C 495.648 1.25026 -1.01119 0
M  V30 5192 O 496.838 1.18961 -1.27255 0
M  V30 5193 C 493.97 2.24457 -2.56577 0
M  V30 5194 H 495.163 0.479935 -2.96035 0
M  V30 5195 H 492.716 0.213033 -1.54841 0
M  V30 5196 H 493.451 2.74061 -1.73382 0
M  V30 5197 H 493.236 2.02508 -3.35757 0
M  V30 5198 H 494.726 2.93607 -2.96959 0
M  V30 5199 N 495.163 1.55791 0.238111 0
M  V30 5200 C 496.412 1.77234 0.962868 0
M  V30 5201 C 496.725 0.600661 1.86149 0
M  V30 5202 O 497.931 0.698315 2.62366 0
M  V30 5203 C 496.387 3.13808 1.76218 0
M  V30 5204 C 495.995 4.3865 0.910518 0
M  V30 5205 C 497.739 3.44585 2.47914 0
M  V30 5206 C 495.646 5.66252 1.70623 0
M  V30 5207 H 494.576 0.660731 0.36325 0
M  V30 5208 H 497.227 1.8221 0.217242 0
M  V30 5209 H 495.609 3.02963 2.55009 0
M  V30 5210 H 496.783 4.60507 0.164316 0
M  V30 5211 H 495.098 4.15271 0.30647 0
M  V30 5212 H 497.695 4.3714 3.07917 0
M  V30 5213 H 498.038 2.66314 3.19973 0
M  V30 5214 H 498.571 3.56685 1.76127 0
M  V30 5215 H 495.31 6.47369 1.02923 0
M  V30 5216 H 494.83 5.48483 2.42748 0
M  V30 5217 H 496.509 6.05829 2.27114 0
M  V30 5218 N 496.642 -0.504142 1.49319 0
M  V30 5219 C 497.891 -1.25507 1.57895 0
M  V30 5220 C 498.204 -1.93735 0.269433 0
M  V30 5221 O 499.41 -2.70492 0.233706 0
M  V30 5222 C 497.866 -2.27869 2.78574 0
M  V30 5223 C 497.474 -1.65594 4.16272 0
M  V30 5224 C 499.218 -3.0381 2.96479 0
M  V30 5225 C 497.125 -2.66048 5.28178 0
M  V30 5226 H 496.055 -0.47212 0.587894 0
M  V30 5227 H 498.706 -0.52931 1.757 0
M  V30 5228 H 497.088 -3.03594 2.54257 0
M  V30 5229 H 498.262 -0.958826 4.50714 0
M  V30 5230 H 496.577 -1.02055 4.037 0
M  V30 5231 H 499.174 -3.78925 3.77253 0
M  V30 5232 H 499.517 -3.61235 2.06918 0
M  V30 5233 H 500.05 -2.352 3.20821 0
M  V30 5234 H 496.789 -2.13408 6.19788 0
M  V30 5235 H 496.309 -3.34009 4.98195 0
M  V30 5236 H 497.988 -3.28536 5.57381 0
M  V30 5237 N 498.12 -1.38341 -0.754957 0
M  V30 5238 C 499.531 -1.30803 -1.3322 0
M  V30 5239 C 499.882 0.0368 -1.96165 0
M  V30 5240 O 499.007 0.938844 -1.94974 0
M  V30 5241 C 499.602 -2.3688 -2.42225 0
M  V30 5242 C 498.161 -2.32925 -2.95674 0
M  V30 5243 C 497.308 -2.19819 -1.69042 0
M  V30 5244 H 500.259 -1.48719 -0.553937 0
M  V30 5245 H 500.28 -2.02517 -3.22129 0
M  V30 5246 H 499.792 -3.34747 -1.96383 0
M  V30 5247 H 497.893 -1.38635 -3.45848 0
M  V30 5248 H 498.006 -3.27008 -3.50146 0
M  V30 5249 H 496.37 -1.66648 -1.92615 0
M  V30 5250 H 497.153 -3.19625 -1.25279 0
M  V30 5251 N 499.598 0.982988 -1.23187 0
M  V30 5252 C 500.828 1.75666 -1.08743 0
M  V30 5253 C 501.236 1.85662 0.364195 0
M  V30 5254 O 500.579 1.33317 1.26382 0
M  V30 5255 C 500.641 3.20144 -1.63549 0
M  V30 5256 C 500.305 3.33665 -3.12277 0
M  V30 5257 C 501.302 3.20194 -4.096 0
M  V30 5258 C 498.987 3.58397 -3.51933 0
M  V30 5259 C 500.981 3.31256 -5.44563 0
M  V30 5260 C 498.668 3.69098 -4.87042 0
M  V30 5261 C 499.666 3.55537 -5.83166 0
M  V30 5262 O 499.354 3.65864 -7.1582 0
M  V30 5263 H 499.086 0.558194 -0.381307 0
M  V30 5264 H 501.64 1.24387 -1.63454 0
M  V30 5265 H 499.87 3.72659 -1.03256 0
M  V30 5266 H 501.559 3.79262 -1.4462 0
M  V30 5267 H 502.325 3.00987 -3.80305 0
M  V30 5268 H 498.204 3.68025 -2.77631 0
M  V30 5269 H 501.748 3.20588 -6.19572 0
M  V30 5270 H 497.645 3.87814 -5.16014 0
M  V30 5271 H 498.413 3.82675 -7.23534 0
M  V30 5272 N 501.076 1.04316 1.18135 0
M  V30 5273 C 502.323 0.74802 1.88178 0
M  V30 5274 C 502.651 -0.72441 1.80506 0
M  V30 5275 O 501.906 -1.54463 1.20165 0
M  V30 5276 C 502.205 1.16271 3.37958 0
M  V30 5277 C 501.871 2.63585 3.65833 0
M  V30 5278 C 500.533 3.03829 3.73151 0
M  V30 5279 C 502.885 3.58822 3.78016 0
M  V30 5280 C 500.213 4.38194 3.90132 0
M  V30 5281 C 502.565 4.92909 3.96514 0
M  V30 5282 C 501.229 5.3282 4.02068 0
M  V30 5283 H 500.499 0.27372 0.688592 0
M  V30 5284 H 503.146 1.30863 1.39811 0
M  V30 5285 H 501.451 0.520938 3.88321 0
M  V30 5286 H 503.148 0.911672 3.90499 0
M  V30 5287 H 499.738 2.31414 3.60757 0
M  V30 5288 H 503.922 3.28875 3.71692 0
M  V30 5289 H 499.178 4.68631 3.92677 0
M  V30 5290 H 503.352 5.66606 4.04883 0
M  V30 5291 H 500.979 6.36943 4.14979 0
M  V30 5292 N 502.554 -1.34406 0.822964 0
M  V30 5293 C 503.803 -1.97542 0.407458 0
M  V30 5294 C 504.116 -1.65973 -1.035 0
M  V30 5295 O 505.322 -2.22598 -1.55442 0
M  V30 5296 C 503.778 -3.53463 0.677623 0
M  V30 5297 C 503.386 -3.93925 2.1337 0
M  V30 5298 C 505.13 -4.23229 0.328284 0
M  V30 5299 C 503.037 -5.42759 2.34876 0
M  V30 5300 H 501.967 -0.739207 0.148623 0
M  V30 5301 H 504.618 -1.53248 1.00932 0
M  V30 5302 H 503 -3.96 0.00558965 0
M  V30 5303 H 504.174 -3.62494 2.8449 0
M  V30 5304 H 502.489 -3.37097 2.44448 0
M  V30 5305 H 505.086 -5.32659 0.466794 0
M  V30 5306 H 505.429 -4.09899 -0.727224 0
M  V30 5307 H 505.962 -3.86169 0.954896 0
M  V30 5308 H 502.701 -5.61075 3.38932 0
M  V30 5309 H 502.221 -5.75704 1.68299 0
M  V30 5310 H 503.9 -6.0944 2.17236 0
M  V30 5311 N 504.032 -0.577932 -1.46621 0
M  V30 5312 C 505.26 -0.0671642 -2.06791 0
M  V30 5313 C 505.675 1.23571 -1.42743 0
M  V30 5314 O 505.032 1.74602 -0.531062 0
M  V30 5315 C 505.083 0.110357 -3.61332 0
M  V30 5316 O 504.804 -1.14095 -4.22982 0
M  V30 5317 C 506.305 0.656025 -4.38419 0
M  V30 5318 H 503.525 -0.0552732 -0.66872 0
M  V30 5319 H 506.069 -0.797242 -1.8832 0
M  V30 5320 H 504.224 0.790637 -3.79246 0
M  V30 5321 H 504.638 -0.951742 -5.15793 0
M  V30 5322 H 506.112 0.729438 -5.47159 0
M  V30 5323 H 506.589 1.67195 -4.06131 0
M  V30 5324 H 507.195 0.0107692 -4.25299 0
M  V30 5325 N 505.51 1.54411 -0.315457 0
M  V30 5326 C 506.44 2.27002 0.547039 0
M  V30 5327 C 507.421 1.27492 1.12605 0
M  V30 5328 O 508.606 1.5629 1.15269 0
M  V30 5329 C 505.736 3.02171 1.71201 0
M  V30 5330 C 504.69 4.0895 1.26268 0
M  V30 5331 C 504.016 4.71915 2.51396 0
M  V30 5332 C 505.316 5.20891 0.383419 0
M  V30 5333 H 507.01 2.99343 -0.0584517 0
M  V30 5334 H 504.556 1.4397 -0.0295527 0
M  V30 5335 H 506.509 3.51681 2.32161 0
M  V30 5336 H 505.233 2.27433 2.34397 0
M  V30 5337 H 503.892 3.60312 0.676062 0
M  V30 5338 H 503.54 3.93801 3.12937 0
M  V30 5339 H 503.24 5.44039 2.22026 0
M  V30 5340 H 504.764 5.24195 3.13133 0
M  V30 5341 H 506.178 5.66206 0.899082 0
M  V30 5342 H 504.575 5.99821 0.182857 0
M  V30 5343 H 505.645 4.81324 -0.587821 0
M  V30 5344 N 506.988 0.0434614 1.5754 0
M  V30 5345 C 508.236 -0.630786 1.92004 0
M  V30 5346 C 508.557 -1.71836 0.921807 0
M  V30 5347 O 507.827 -1.9587 -0.034522 0
M  V30 5348 H 506.407 -0.235988 0.708745 0
M  V30 5349 H 509.069 0.0946462 1.9467 0
M  V30 5350 H 508.165 -1.07434 2.93026 0
M  V30 5351 N 508.466 -1.55915 -0.229846 0
M  V30 5352 C 509.694 -1.82617 -0.972562 0
M  V30 5353 C 510.109 -0.621488 -1.78278 0
M  V30 5354 O 509.466 0.409956 -1.77836 0
M  V30 5355 C 509.517 -3.0774 -1.89679 0
M  V30 5356 O 509.238 -4.23559 -1.11934 0
M  V30 5357 C 510.739 -3.47368 -2.75409 0
M  V30 5358 H 507.959 -0.60727 -0.285419 0
M  V30 5359 H 510.503 -2.02996 -0.247579 0
M  V30 5360 H 508.658 -2.89361 -2.57583 0
M  V30 5361 H 509.072 -4.94586 -1.74599 0
M  V30 5362 H 510.546 -4.37977 -3.35977 0
M  V30 5363 H 511.023 -2.68737 -3.47386 0
M  V30 5364 H 511.629 -3.68158 -2.12931 0
M  V30 5365 N 509.944 0.496216 -1.49584 0
M  V30 5366 C 510.854 1.62352 -1.69349 0
M  V30 5367 C 511.87 1.64184 -0.576147 0
M  V30 5368 O 513.046 1.82517 -0.85144 0
M  V30 5369 C 510.111 2.98698 -1.76013 0
M  V30 5370 C 509.172 3.07454 -2.99617 0
M  V30 5371 C 508.405 4.37296 -3.05953 0
M  V30 5372 O 508.628 5.2637 -2.19752 0
M  V30 5373 O 507.562 4.51124 -3.9846 0
M  V30 5374 H 511.388 1.48606 -2.64859 0
M  V30 5375 H 508.973 0.673022 -1.33382 0
M  V30 5376 H 510.855 3.79725 -1.82721 0
M  V30 5377 H 509.53 3.12696 -0.836828 0
M  V30 5378 H 508.437 2.25597 -2.98424 0
M  V30 5379 H 509.77 2.98385 -3.91443 0
M  V30 5380 N 511.423 1.38739 0.74761 0
M  V30 5381 C 512.353 1.39173 1.87492 0
M  V30 5382 C 513.334 0.256794 1.6815 0
M  V30 5383 O 514.519 0.460762 1.88655 0
M  V30 5384 C 511.649 1.22197 3.25093 0
M  V30 5385 C 510.603 2.32957 3.59047 0
M  V30 5386 C 509.929 2.01082 4.95449 0
M  V30 5387 C 511.229 3.75237 3.6331 0
M  V30 5388 H 512.923 2.3351 1.87386 0
M  V30 5389 H 510.469 1.12399 0.900134 0
M  V30 5390 H 512.422 1.21124 4.03617 0
M  V30 5391 H 511.146 0.243241 3.25693 0
M  V30 5392 H 509.805 2.33226 2.82845 0
M  V30 5393 H 509.453 1.01678 4.92616 0
M  V30 5394 H 509.153 2.75267 5.19136 0
M  V30 5395 H 510.677 2.01638 5.76346 0
M  V30 5396 H 512.091 3.76966 4.31937 0
M  V30 5397 H 510.488 4.48677 3.98509 0
M  V30 5398 H 511.558 4.07122 2.634 0
M  V30 5399 N 512.901 -0.976442 1.23707 0
M  V30 5400 C 513.864 -2.0511 1.02287 0
M  V30 5401 C 514.864 -1.60791 -0.0167195 0
M  V30 5402 O 516.054 -1.72761 0.223408 0
M  V30 5403 C 513.186 -3.36458 0.548507 0
M  V30 5404 H 514.379 -2.25545 1.9766 0
M  V30 5405 H 511.932 -1.15042 1.05806 0
M  V30 5406 H 512.667 -3.21713 -0.408818 0
M  V30 5407 H 512.452 -3.69967 1.29874 0
M  V30 5408 H 513.942 -4.15489 0.419406 0
M  V30 5409 N 514.379 -1.04941 -1.1758 0
M  V30 5410 C 515.289 -0.658826 -2.25159 0
M  V30 5411 C 516.305 0.318941 -1.71052 0
M  V30 5412 O 517.481 0.171669 -2.00667 0
M  V30 5413 C 514.546 -0.0369522 -3.4668 0
M  V30 5414 C 513.607 -1.06484 -4.15884 0
M  V30 5415 C 512.84 -0.472551 -5.31604 0
M  V30 5416 O 513.063 0.718736 -5.65854 0
M  V30 5417 O 511.997 -1.20557 -5.89703 0
M  V30 5418 H 515.823 -1.55533 -2.60851 0
M  V30 5419 H 513.408 -0.820819 -1.24832 0
M  V30 5420 H 515.29 0.308784 -4.20267 0
M  V30 5421 H 513.965 0.833238 -3.12792 0
M  V30 5422 H 512.872 -1.46253 -3.44327 0
M  V30 5423 H 514.205 -1.9061 -4.53794 0
M  V30 5424 N 515.857 1.33968 -0.830081 0
M  V30 5425 C 517.273 1.51003 -0.516742 0
M  V30 5426 C 517.473 1.77286 0.957694 0
M  V30 5427 O 516.529 1.82797 1.74188 0
M  V30 5428 C 517.842 2.67036 -1.38247 0
M  V30 5429 C 519.39 2.80919 -1.38034 0
M  V30 5430 C 519.865 4.00004 -2.23071 0
M  V30 5431 N 521.356 4.07224 -2.20733 0
M  V30 5432 C 522.091 4.98541 -2.83275 0
M  V30 5433 N 521.587 5.95033 -3.54835 0
M  V30 5434 N 523.38 4.91469 -2.72791 0
M  V30 5435 H 515.531 1.15168 -1.78466 0
M  V30 5436 H 517.794 0.565443 -0.760906 0
M  V30 5437 H 517.5 2.54266 -2.42985 0
M  V30 5438 H 517.374 3.62226 -1.05225 0
M  V30 5439 H 519.761 2.93127 -0.340713 0
M  V30 5440 H 519.842 1.86517 -1.75057 0
M  V30 5441 H 519.486 3.88557 -3.27087 0
M  V30 5442 H 519.416 4.93634 -1.83394 0
M  V30 5443 H 521.907 3.38162 -1.68687 0
M  V30 5444 H 522.22 6.61357 -3.99784 0
M  V30 5445 H 520.565 5.95135 -3.58942 0
M  V30 5446 H 523.756 4.15048 -2.16456 0
M  V30 5447 H 523.929 5.62439 -3.21818 0
M  V30 5448 N 517.335 0.585699 1.46312 0
M  V30 5449 C 518.267 -0.183687 2.28463 0
M  V30 5450 C 519.28 -0.85264 1.38686 0
M  V30 5451 O 520.469 -0.721701 1.6326 0
M  V30 5452 C 517.569 -1.27977 3.13808 0
M  V30 5453 C 516.742 -0.702164 4.31727 0
M  V30 5454 C 515.801 -1.68633 4.98447 0
M  V30 5455 O 514.827 -1.22121 5.55945 0
M  V30 5456 N 516.029 -3.02047 4.95729 0
M  V30 5457 H 518.794 0.521127 2.95134 0
M  V30 5458 H 516.355 0.423673 1.56258 0
M  V30 5459 H 518.347 -1.9375 3.55307 0
M  V30 5460 H 516.917 -1.8874 2.4919 0
M  V30 5461 H 516.137 0.1331 3.93975 0
M  V30 5462 H 517.425 -0.296101 5.07938 0
M  V30 5463 H 516.823 -3.42457 4.50266 0
M  V30 5464 H 515.38 -3.63301 5.41161 0
M  V30 5465 N 518.813 -1.54241 0.323641 0
M  V30 5466 C 520.061 -2.00174 -0.278359 0
M  V30 5467 C 520.382 -1.2134 -1.52648 0
M  V30 5468 O 519.652 -0.315244 -1.93347 0
M  V30 5469 H 518.232 -0.739463 -0.105845 0
M  V30 5470 H 520.894 -1.89864 0.440204 0
M  V30 5471 H 519.99 -3.07486 -0.5347 0
M  V30 5472 N 520.291 -0.0518155 -1.57515 0
M  V30 5473 C 521.239 0.940195 -2.12751 0
M  V30 5474 C 522.233 1.3218 -1.05948 0
M  V30 5475 O 523.439 1.30138 -1.24355 0
M  V30 5476 H 519.814 0.321066 -0.680015 0
M  V30 5477 H 521.785 0.449217 -2.94999 0
M  V30 5478 C 520.534 2.2055 -2.68799 0
M  V30 5479 H 519.857 1.92066 -3.50643 0
M  V30 5480 H 521.297 2.88119 -3.11068 0
M  V30 5481 C 519.756 2.95061 -1.62605 0
M  V30 5482 O 520.286 3.88025 -1.03921 0
M  V30 5483 N 518.492 2.57804 -1.34111 0
M  V30 5484 H 518.039 1.82281 -1.8202 0
M  V30 5485 H 517.997 3.07964 -0.632872 0
M  V30 5486 N 521.769 1.56035 0.221574 0
M  V30 5487 C 523.017 1.78693 0.944102 0
M  V30 5488 C 523.338 0.620317 1.8487 0
M  V30 5489 O 522.608 -0.362784 1.92512 0
M  V30 5490 H 521.188 0.659082 0.351597 0
M  V30 5491 H 523.85 1.93497 0.233435 0
M  V30 5492 H 522.946 2.70837 1.55093 0
M  V30 5493 N 523.247 -0.488276 1.49845 0
M  V30 5494 C 524.179 -1.60539 1.63584 0
M  V30 5495 C 525.192 -1.5434 0.517972 0
M  V30 5496 O 526.381 -1.60041 0.790516 0
M  V30 5497 C 523.481 -2.99374 1.58835 0
M  V30 5498 C 522.654 -3.30624 2.86368 0
M  V30 5499 C 521.713 -4.4893 2.74496 0
M  V30 5500 O 520.739 -4.50085 3.48443 0
M  V30 5501 N 521.941 -5.49591 1.86894 0
M  V30 5502 H 524.706 -1.49176 2.59936 0
M  V30 5503 H 522.267 -0.67639 1.47094 0
M  V30 5504 H 524.259 -3.76459 1.48529 0
M  V30 5505 H 522.829 -3.04595 0.702892 0
M  V30 5506 H 522.049 -2.42314 3.1093 0
M  V30 5507 H 523.337 -3.48305 3.70892 0
M  V30 5508 H 522.735 -5.51467 1.26097 0
M  V30 5509 H 521.292 -6.25728 1.82503 0
M  V30 5510 N 524.725 -1.39134 -0.740242 0
M  V30 5511 C 525.657 -1.33332 -1.86428 0
M  V30 5512 C 526.67 -0.243042 -1.60976 0
M  V30 5513 O 527.859 -0.501608 -1.71307 0
M  V30 5514 C 524.959 -1.04626 -3.22346 0
M  V30 5515 C 524.132 -2.24826 -3.75196 0
M  V30 5516 C 523.191 -1.92659 -4.89662 0
M  V30 5517 O 522.217 -2.6529 -5.03597 0
M  V30 5518 N 523.419 -0.889575 -5.73643 0
M  V30 5519 H 526.184 -2.30196 -1.91911 0
M  V30 5520 H 523.745 -1.33168 -0.920756 0
M  V30 5521 H 525.737 -0.811347 -3.96484 0
M  V30 5522 H 524.307 -0.165129 -3.12164 0
M  V30 5523 H 523.527 -2.64301 -2.9247 0
M  V30 5524 H 524.815 -3.05015 -4.07239 0
M  V30 5525 H 524.213 -0.287529 -5.64969 0
M  V30 5526 H 522.77 -0.714557 -6.47871 0
M  V30 5527 N 526.204 0.969867 -1.24223 0
M  V30 5528 C 527.167 2.04564 -1.03373 0
M  V30 5529 C 528.167 1.60798 0.00819206 0
M  V30 5530 O 529.357 1.72641 -0.232567 0
M  V30 5531 C 526.489 3.36163 -0.566343 0
M  V30 5532 H 527.682 2.24494 -1.98853 0
M  V30 5533 H 525.235 1.1448 -1.06415 0
M  V30 5534 H 525.97 3.21925 0.391751 0
M  V30 5535 H 525.755 3.69273 -1.31834 0
M  V30 5536 H 527.245 4.1526 -0.441435 0
M  V30 5537 N 527.682 1.05563 1.17022 0
M  V30 5538 C 528.615 0.604197 2.20056 0
M  V30 5539 C 529.593 -0.369169 1.58354 0
M  V30 5540 O 530.777 -0.279898 1.8641 0
M  V30 5541 C 527.904 -0.115265 3.38504 0
M  V30 5542 C 526.95 0.813698 4.18666 0
M  V30 5543 S 527.783 2.30492 4.83357 0
M  V30 5544 C 528.939 1.59674 6.0519 0
M  V30 5545 H 529.172 1.47713 2.58008 0
M  V30 5546 H 526.705 0.867932 1.27696 0
M  V30 5547 H 528.663 -0.524162 4.0714 0
M  V30 5548 H 527.324 -0.964284 2.98932 0
M  V30 5549 H 526.517 0.256736 5.03346 0
M  V30 5550 H 526.119 1.16213 3.55486 0
M  V30 5551 H 528.411 0.898164 6.7152 0
M  V30 5552 H 529.354 2.42115 6.65422 0
M  V30 5553 H 529.762 1.08252 5.54023 0
M  V30 5554 N 529.16 -1.33526 0.837174 0
M  V30 5555 C 530.385 -2.0258 0.444545 0
M  V30 5556 C 530.81 -1.6258 -0.946006 0
M  V30 5557 O 530.168 -0.817548 -1.6182 0
M  V30 5558 C 530.216 -3.5605 0.571006 0
M  V30 5559 O 529.32 -4.10422 -0.403431 0
M  V30 5560 H 528.661 -0.638866 0.180958 0
M  V30 5561 H 531.191 -1.70462 1.13154 0
M  V30 5562 H 531.201 -4.05488 0.452024 0
M  V30 5563 H 529.876 -3.84509 1.58512 0
M  V30 5564 H 528.453 -3.72113 -0.242147 0
M  V30 5565 N 530.638 -0.59345 -1.46 0
M  V30 5566 C 531.568 0.121192 -2.33185 0
M  V30 5567 C 532.549 0.872977 -1.4599 0
M  V30 5568 O 533.734 0.846321 -1.74789 0
M  V30 5569 C 530.864 1.12844 -3.28456 0
M  V30 5570 C 529.818 0.4908 -4.25177 0
M  V30 5571 C 529.144 1.60529 -5.10034 0
M  V30 5572 C 530.444 -0.578949 -5.19081 0
M  V30 5573 H 532.138 -0.606767 -2.93187 0
M  V30 5574 H 529.684 -0.293242 -1.40983 0
M  V30 5575 H 531.637 1.63684 -3.88311 0
M  V30 5576 H 530.361 1.88681 -2.66584 0
M  V30 5577 H 529.02 0.00339328 -3.666 0
M  V30 5578 H 528.668 2.35359 -4.44539 0
M  V30 5579 H 528.368 1.18422 -5.75543 0
M  V30 5580 H 529.892 2.11623 -5.72755 0
M  V30 5581 H 531.306 -0.155199 -5.7309 0
M  V30 5582 H 529.703 -0.920947 -5.92991 0
M  V30 5583 H 530.773 -1.46109 -4.62364 0
M  V30 5584 N 532.116 1.54067 -0.331816 0
M  V30 5585 C 533.079 2.23275 0.517768 0
M  V30 5586 C 534.079 1.22897 1.03697 0
M  V30 5587 O 535.269 1.47419 0.928084 0
M  V30 5588 C 532.401 2.94326 1.72004 0
M  V30 5589 H 533.594 2.99773 -0.0873507 0
M  V30 5590 H 531.147 1.56079 -0.0830042 0
M  V30 5591 H 531.882 2.21986 2.36417 0
M  V30 5592 H 531.667 3.67941 1.35507 0
M  V30 5593 H 533.157 3.47031 2.32291 0
M  V30 5594 N 533.594 0.0601682 1.57485 0
M  V30 5595 C 534.843 -0.611101 1.9222 0
M  V30 5596 C 535.156 -1.71469 0.941159 0
M  V30 5597 O 536.362 -2.44473 1.18089 0
M  V30 5598 C 534.818 -1.13832 3.41424 0
M  V30 5599 C 534.426 -0.0663596 4.47951 0
M  V30 5600 C 536.17 -1.78432 3.85178 0
M  V30 5601 C 534.077 -0.606965 5.88277 0
M  V30 5602 H 533.007 -0.232033 0.71741 0
M  V30 5603 H 535.658 0.130518 1.83035 0
M  V30 5604 H 534.04 -1.93254 3.45643 0
M  V30 5605 H 535.214 0.707682 4.55333 0
M  V30 5606 H 533.529 0.482715 4.13593 0
M  V30 5607 H 536.126 -2.1989 4.87394 0
M  V30 5608 H 536.469 -2.63966 3.21913 0
M  V30 5609 H 537.002 -1.05651 3.83514 0
M  V30 5610 H 533.741 0.21095 6.5516 0
M  V30 5611 H 533.261 -1.34879 5.84438 0
M  V30 5612 H 534.94 -1.08704 6.37803 0
M  V30 5613 N 535.072 -1.5615 -0.213296 0
M  V30 5614 C 536.002 -1.96109 -1.26742 0
M  V30 5615 C 536.983 -0.830448 -1.48451 0
M  V30 5616 O 538.168 -1.09339 -1.60495 0
M  V30 5617 C 535.298 -2.28492 -2.61551 0
M  V30 5618 C 534.252 -3.44124 -2.54485 0
M  V30 5619 C 533.578 -3.62134 -3.93399 0
M  V30 5620 C 534.878 -4.78855 -2.08556 0
M  V30 5621 H 536.572 -2.84412 -0.935434 0
M  V30 5622 H 534.118 -1.36836 -0.44854 0
M  V30 5623 H 536.071 -2.55039 -3.3546 0
M  V30 5624 H 534.795 -1.37052 -2.96453 0
M  V30 5625 H 533.454 -3.17639 -1.83033 0
M  V30 5626 H 533.102 -2.68055 -4.25623 0
M  V30 5627 H 532.802 -4.39913 -3.89551 0
M  V30 5628 H 534.326 -3.91038 -4.68958 0
M  V30 5629 H 535.74 -5.04552 -2.72213 0
M  V30 5630 H 534.137 -5.59975 -2.1575 0
M  V30 5631 H 535.207 -4.73657 -1.03811 0
M  V30 5632 N 536.55 0.480323 -1.50102 0
M  V30 5633 C 537.966 0.813295 -1.37323 0
M  V30 5634 C 538.166 1.97027 -0.422206 0
M  V30 5635 O 537.222 2.5212 0.138563 0
M  V30 5636 C 538.535 1.13404 -2.78496 0
M  V30 5637 C 540.083 1.24104 -2.87345 0
M  V30 5638 C 540.558 1.59497 -4.29331 0
M  V30 5639 N 542.049 1.66507 -4.32238 0
M  V30 5640 C 542.784 1.95378 -5.39087 0
M  V30 5641 N 542.28 2.22333 -6.56155 0
M  V30 5642 N 544.073 1.96803 -5.26522 0
M  V30 5643 H 536.224 -0.282291 -2.10516 0
M  V30 5644 H 538.487 -0.063752 -0.945854 0
M  V30 5645 H 538.193 0.357064 -3.49883 0
M  V30 5646 H 538.067 2.07251 -3.15162 0
M  V30 5647 H 540.454 2.00871 -2.16183 0
M  V30 5648 H 540.535 0.282593 -2.54234 0
M  V30 5649 H 540.179 0.832736 -5.01027 0
M  V30 5650 H 540.109 2.56477 -4.59921 0
M  V30 5651 H 542.6 1.47753 -3.47818 0
M  V30 5652 H 542.913 2.43611 -7.33399 0
M  V30 5653 H 541.258 2.19745 -6.59346 0
M  V30 5654 H 544.449 1.75235 -4.34062 0
M  V30 5655 H 544.622 2.18969 -6.09883 0
M  V30 5656 N 538.028 1.39524 0.732853 0
M  V30 5657 C 539.274 1.37068 1.49467 0
M  V30 5658 C 539.607 -0.0327166 1.94172 0
M  V30 5659 O 538.882 -0.998071 1.66939 0
M  V30 5660 C 539.165 2.34494 2.73285 0
M  V30 5661 C 539.018 3.83784 2.34585 0
M  V30 5662 C 540.337 2.29717 3.75391 0
M  V30 5663 H 537.456 0.499206 0.542183 0
M  V30 5664 H 540.098 1.70532 0.837783 0
M  V30 5665 H 538.248 2.06087 3.29333 0
M  V30 5666 H 539.92 4.22949 1.84151 0
M  V30 5667 H 538.163 4.00455 1.66787 0
M  V30 5668 H 538.834 4.47444 3.23262 0
M  V30 5669 H 541.31 2.54839 3.28932 0
M  V30 5670 H 540.186 2.99962 4.59689 0
M  V30 5671 H 540.447 1.30291 4.22465 0
M  V30 5672 N 539.506 -0.963266 1.24736 0
M  V30 5673 C 540.755 -1.70115 1.08369 0
M  V30 5674 C 541.068 -1.91939 -0.376688 0
M  V30 5675 O 542.274 -2.6334 -0.660624 0
M  V30 5676 C 540.73 -3.06218 1.89099 0
M  V30 5677 C 540.338 -2.92221 3.39574 0
M  V30 5678 C 542.082 -3.83848 1.81275 0
M  V30 5679 C 539.989 -4.23662 4.12631 0
M  V30 5680 H 538.919 -0.637944 0.401924 0
M  V30 5681 H 541.57 -1.07304 1.48856 0
M  V30 5682 H 539.952 -3.69884 1.41429 0
M  V30 5683 H 541.126 -2.37541 3.94856 0
M  V30 5684 H 539.441 -2.28054 3.48397 0
M  V30 5685 H 542.038 -4.81188 2.33158 0
M  V30 5686 H 542.381 -4.08949 0.778895 0
M  V30 5687 H 542.914 -3.26918 2.26649 0
M  V30 5688 H 539.653 -4.03753 5.16395 0
M  V30 5689 H 539.173 -4.78141 3.62135 0
M  V30 5690 H 540.852 -4.92256 4.19873 0
M  V30 5691 N 540.985 -1.06182 -1.16461 0
M  V30 5692 C 542.401 -0.785065 -1.38956 0
M  V30 5693 C 542.601 0.616103 -1.9185 0
M  V30 5694 O 541.657 1.37686 -2.11657 0
M  V30 5695 C 542.97 -1.84902 -2.37132 0
M  V30 5696 C 544.518 -1.8724 -2.50819 0
M  V30 5697 C 544.993 -2.92686 -3.52277 0
M  V30 5698 N 546.484 -2.91712 -3.59803 0
M  V30 5699 C 547.219 -3.69949 -4.38093 0
M  V30 5700 N 546.715 -4.58 -5.19815 0
M  V30 5701 N 548.508 -3.58346 -4.33064 0
M  V30 5702 H 540.659 -1.96569 -0.804634 0
M  V30 5703 H 542.922 -0.851747 -0.416211 0
M  V30 5704 H 542.628 -2.85518 -2.0536 0
M  V30 5705 H 542.502 -1.69908 -3.36766 0
M  V30 5706 H 544.889 -0.872827 -2.81897 0
M  V30 5707 H 544.97 -2.06311 -1.51226 0
M  V30 5708 H 544.614 -3.92835 -3.21937 0
M  V30 5709 H 544.544 -2.70864 -4.51598 0
M  V30 5710 H 547.035 -2.27876 -3.01464 0
M  V30 5711 H 547.348 -5.14357 -5.76764 0
M  V30 5712 H 545.693 -4.62056 -5.19162 0
M  V30 5713 H 548.884 -2.88943 -3.68279 0
M  V30 5714 H 549.057 -4.19563 -4.93833 0
M  V30 5715 N 542.463 1.3308 -0.844243 0
M  V30 5716 C 543.393 2.3161 -0.296493 0
M  V30 5717 C 544.374 1.59215 0.598707 0
M  V30 5718 O 545.559 1.87077 0.521134 0
M  V30 5719 C 542.689 3.43313 0.524762 0
M  V30 5720 C 541.643 4.27115 -0.275106 0
M  V30 5721 C 540.969 5.30483 0.670236 0
M  V30 5722 C 542.269 5.00443 -1.49514 0
M  V30 5723 H 543.963 2.77672 -1.11976 0
M  V30 5724 H 541.509 1.33496 -0.539899 0
M  V30 5725 H 543.462 4.11273 0.918298 0
M  V30 5726 H 542.186 2.95952 1.3813 0
M  V30 5727 H 540.845 3.60787 -0.650267 0
M  V30 5728 H 540.493 4.79379 1.52332 0
M  V30 5729 H 540.193 5.87435 0.139123 0
M  V30 5730 H 541.717 6.01308 1.06117 0
M  V30 5731 H 543.131 5.61141 -1.17447 0
M  V30 5732 H 541.528 5.67071 -1.96343 0
M  V30 5733 H 542.598 4.28906 -2.26202 0
M  V30 5734 N 543.941 0.601185 1.45683 0
M  V30 5735 C 545.187 0.0940202 2.02582 0
M  V30 5736 C 545.52 -1.26972 1.46941 0
M  V30 5737 O 544.795 -1.83613 0.641612 0
M  V30 5738 C 545.078 0.0481715 3.60068 0
M  V30 5739 C 544.931 1.44212 4.26055 0
M  V30 5740 C 546.25 -0.642975 4.35378 0
M  V30 5741 H 543.369 0.0356404 0.736138 0
M  V30 5742 H 546.011 0.771929 1.73612 0
M  V30 5743 H 544.161 -0.529128 3.8488 0
M  V30 5744 H 545.833 2.06601 4.12449 0
M  V30 5745 H 544.076 2.00465 3.84703 0
M  V30 5746 H 544.747 1.36234 5.34925 0
M  V30 5747 H 547.223 -0.152351 4.15821 0
M  V30 5748 H 546.099 -0.644141 5.45107 0
M  V30 5749 H 546.36 -1.70785 4.0778 0
M  V30 5750 N 545.419 -1.53889 0.339982 0
M  V30 5751 C 546.835 -1.59595 -0.0120752 0
M  V30 5752 C 547.035 -1.35605 -1.49042 0
M  V30 5753 O 546.091 -1.14856 -2.24865 0
M  V30 5754 C 547.404 -2.9774 0.420898 0
M  V30 5755 C 548.952 -3.1077 0.37294 0
M  V30 5756 C 549.427 -4.51286 0.781327 0
M  V30 5757 N 550.918 -4.57325 0.735374 0
M  V30 5758 C 551.653 -5.64194 1.02336 0
M  V30 5759 N 551.149 -6.7893 1.37933 0
M  V30 5760 N 552.942 -5.54051 0.947838 0
M  V30 5761 H 545.093 -1.67738 1.30299 0
M  V30 5762 H 547.356 -0.785385 0.530918 0
M  V30 5763 H 547.062 -3.20349 1.45152 0
M  V30 5764 H 546.936 -3.76639 -0.205721 0
M  V30 5765 H 549.323 -2.87886 -0.648505 0
M  V30 5766 H 549.404 -2.33939 1.03472 0
M  V30 5767 H 549.048 -4.74905 1.80077 0
M  V30 5768 H 548.978 -5.26511 0.0970679 0
M  V30 5769 H 551.469 -3.74931 0.472773 0
M  V30 5770 H 551.782 -7.56392 1.58402 0
M  V30 5771 H 550.127 -6.80386 1.41774 0
M  V30 5772 H 553.318 -4.63293 0.669115 0
M  V30 5773 H 553.491 -6.37246 1.17563 0
M  V30 5774 N 546.897 -0.0685191 -1.57451 0
M  V30 5775 C 548.143 0.602239 -1.93652 0
M  V30 5776 C 548.476 1.6946 -0.948526 0
M  V30 5777 O 547.751 1.94487 0.022782 0
M  V30 5778 C 548.034 1.18223 -3.4014 0
M  V30 5779 C 547.887 0.0967431 -4.49696 0
M  V30 5780 C 549.206 2.08872 -3.87377 0
M  V30 5781 H 546.325 0.217453 -0.70419 0
M  V30 5782 H 548.967 -0.133821 -1.89528 0
M  V30 5783 H 547.117 1.80953 -3.43785 0
M  V30 5784 H 548.789 -0.536155 -4.58174 0
M  V30 5785 H 547.032 -0.573063 -4.29998 0
M  V30 5786 H 547.703 0.542894 -5.49324 0
M  V30 5787 H 550.179 1.56081 -3.85717 0
M  V30 5788 H 549.055 2.46389 -4.90493 0
M  V30 5789 H 549.316 2.99572 -3.25129 0
M  V30 5790 N 548.375 1.56261 0.205012 0
M  V30 5791 C 549.622 1.8004 0.926927 0
M  V30 5792 C 549.95 0.640086 1.83666 0
M  V30 5793 O 549.205 -0.374702 1.92079 0
M  V30 5794 C 549.504 3.09722 1.78345 0
M  V30 5795 C 549.17 4.39082 1.02555 0
M  V30 5796 C 547.832 4.74226 0.816256 0
M  V30 5797 C 550.184 5.18877 0.491559 0
M  V30 5798 C 547.512 5.86668 0.0613287 0
M  V30 5799 C 549.864 6.32105 -0.250107 0
M  V30 5800 C 548.528 6.6584 -0.470508 0
M  V30 5801 H 547.798 0.658812 0.339187 0
M  V30 5802 H 550.445 1.90515 0.19395 0
M  V30 5803 H 548.75 2.9444 2.5848 0
M  V30 5804 H 550.447 3.25324 2.34446 0
M  V30 5805 H 547.037 4.11497 1.19868 0
M  V30 5806 H 551.221 4.92147 0.640684 0
M  V30 5807 H 546.477 6.11283 -0.119501 0
M  V30 5808 H 550.651 6.93157 -0.671307 0
M  V30 5809 H 548.278 7.5281 -1.05739 0
M  V30 5810 N 549.853 -0.472356 1.50355 0
M  V30 5811 C 551.269 -0.806001 1.37753 0
M  V30 5812 C 551.469 -1.968 0.432649 0
M  V30 5813 O 550.525 -2.52189 -0.12519 0
M  V30 5814 C 551.838 -1.11926 2.79093 0
M  V30 5815 C 553.386 -1.22579 2.87999 0
M  V30 5816 C 553.861 -1.57218 4.3017 0
M  V30 5817 N 555.352 -1.64212 4.33115 0
M  V30 5818 C 556.087 -1.92517 5.40116 0
M  V30 5819 N 555.583 -2.1885 6.57325 0
M  V30 5820 N 557.376 -1.94008 5.27558 0
M  V30 5821 H 549.527 0.293451 2.10363 0
M  V30 5822 H 551.79 0.0687672 0.945503 0
M  V30 5823 H 551.496 -0.338504 3.50067 0
M  V30 5824 H 551.37 -2.05577 3.16256 0
M  V30 5825 H 553.757 -1.99722 2.17245 0
M  V30 5826 H 553.838 -0.269107 2.54381 0
M  V30 5827 H 553.482 -0.806154 5.01461 0
M  V30 5828 H 553.412 -2.54034 4.61275 0
M  V30 5829 H 555.903 -1.45906 3.48597 0
M  V30 5830 H 556.216 -2.39718 7.3468 0
M  V30 5831 H 554.561 -2.16245 6.60502 0
M  V30 5832 H 557.752 -1.72931 4.34986 0
M  V30 5833 H 557.925 -2.15731 6.11035 0
M  V30 5834 N 551.331 -1.39911 -0.725443 0
M  V30 5835 C 552.58 -1.36963 -1.48068 0
M  V30 5836 C 552.893 0.0284478 -1.95579 0
M  V30 5837 O 554.099 0.180535 -2.70899 0
M  V30 5838 C 552.555 -2.40664 -2.67598 0
M  V30 5839 C 552.163 -3.86234 -2.26997 0
M  V30 5840 C 553.907 -2.46807 -3.45379 0
M  V30 5841 C 551.814 -4.81554 -3.43307 0
M  V30 5842 H 550.744 -0.509223 -0.556065 0
M  V30 5843 H 553.395 -1.65602 -0.790454 0
M  V30 5844 H 551.777 -2.05109 -3.38742 0
M  V30 5845 H 552.951 -4.3088 -1.63337 0
M  V30 5846 H 551.266 -3.83475 -1.62284 0
M  V30 5847 H 553.863 -3.15213 -4.31909 0
M  V30 5848 H 554.206 -1.49552 -3.8851 0
M  V30 5849 H 554.739 -2.81303 -2.81271 0
M  V30 5850 H 551.478 -5.80106 -3.05217 0
M  V30 5851 H 550.998 -4.4158 -4.05915 0
M  V30 5852 H 552.677 -5.0091 -4.0951 0
M  V30 5853 N 552.809 0.956637 -1.25245 0
M  V30 5854 C 554.056 1.701 -1.09874 0
M  V30 5855 C 554.384 1.91128 0.36062 0
M  V30 5856 O 553.639 1.47837 1.28229 0
M  V30 5857 C 553.938 3.08996 -1.79601 0
M  V30 5858 C 553.604 3.07774 -3.29523 0
M  V30 5859 C 552.266 3.07149 -3.70423 0
M  V30 5860 C 554.618 3.01257 -4.25316 0
M  V30 5861 C 551.946 2.97752 -5.0553 0
M  V30 5862 C 554.298 2.93403 -5.60444 0
M  V30 5863 C 552.962 2.91111 -6.00675 0
M  V30 5864 H 552.232 0.62244 -0.402056 0
M  V30 5865 H 554.879 1.1178 -1.55491 0
M  V30 5866 H 553.184 3.70848 -1.26408 0
M  V30 5867 H 554.881 3.65407 -1.65162 0
M  V30 5868 H 551.471 3.09032 -2.9698 0
M  V30 5869 H 555.655 3.00861 -3.9471 0
M  V30 5870 H 550.911 2.94346 -5.35883 0
M  V30 5871 H 555.085 2.87321 -6.34366 0
M  V30 5872 H 552.712 2.83586 -7.05325 0
M  V30 5873 N 554.287 1.06798 1.15896 0
M  V30 5874 C 555.234 0.683314 2.20453 0
M  V30 5875 C 556.204 -0.32255 1.62938 0
M  V30 5876 O 557.389 -0.210276 1.89638 0
M  V30 5877 C 554.529 0.0813266 3.45004 0
M  V30 5878 C 553.642 1.13799 4.16742 0
M  V30 5879 C 552.777 0.501598 5.28826 0
M  V30 5880 C 551.816 1.54144 5.92373 0
M  V30 5881 N 550.953 0.928038 6.9594 0
M  V30 5882 H 555.793 1.57932 2.52708 0
M  V30 5883 H 553.33 0.789544 1.24115 0
M  V30 5884 H 555.288 -0.285274 4.16224 0
M  V30 5885 H 553.918 -0.77806 3.13283 0
M  V30 5886 H 552.97 1.62223 3.44075 0
M  V30 5887 H 554.282 1.92664 4.60089 0
M  V30 5888 H 553.436 0.0823162 6.06644 0
M  V30 5889 H 552.175 -0.318883 4.86656 0
M  V30 5890 H 551.18 1.97056 5.13273 0
M  V30 5891 H 552.405 2.3641 6.36621 0
M  V30 5892 H 550.351 0.12836 6.55874 0
M  V30 5893 H 550.268 1.65401 7.37685 0
M  V30 5894 H 551.536 0.534071 7.77668 0
M  V30 5895 N 555.766 -1.3263 0.851289 0
M  V30 5896 C 556.696 -2.31449 0.308771 0
M  V30 5897 C 557.677 -1.59531 -0.590255 0
M  V30 5898 O 558.862 -1.87351 -0.511205 0
M  V30 5899 C 555.992 -3.43586 -0.506548 0
M  V30 5900 C 554.946 -4.26963 0.297753 0
M  V30 5901 C 554.272 -5.30831 -0.642094 0
M  V30 5902 C 555.572 -4.99643 1.52166 0
M  V30 5903 H 557.266 -2.77074 1.13447 0
M  V30 5904 H 554.812 -1.33207 0.546971 0
M  V30 5905 H 556.765 -4.11754 -0.896474 0
M  V30 5906 H 555.489 -2.96681 -1.36558 0
M  V30 5907 H 554.148 -3.60437 0.669391 0
M  V30 5908 H 553.796 -4.8018 -1.49788 0
M  V30 5909 H 553.496 -5.87501 -0.107968 0
M  V30 5910 H 555.02 -6.01862 -1.02927 0
M  V30 5911 H 556.434 -5.6051 1.20421 0
M  V30 5912 H 554.831 -5.66022 1.99347 0
M  V30 5913 H 555.901 -4.27701 2.28474 0
M  V30 5914 N 557.244 -0.608902 -1.45362 0
M  V30 5915 C 558.469 -0.10921 -2.07112 0
M  V30 5916 C 558.894 1.19779 -1.45033 0
M  V30 5917 O 558.252 1.72961 -0.543527 0
M  V30 5918 C 558.3 0.0155745 -3.60597 0
M  V30 5919 O 557.404 1.06546 -3.98399 0
M  V30 5920 H 556.745 -0.0746619 -0.659789 0
M  V30 5921 H 559.275 -0.839283 -1.86594 0
M  V30 5922 H 559.285 0.213364 -4.07442 0
M  V30 5923 H 557.96 -0.938765 -4.05167 0
M  V30 5924 H 556.537 0.844024 -3.63223 0
M  V30 5925 N 558.722 1.53707 -0.348139 0
M  V30 5926 C 560.138 1.596 0.00361134 0
M  V30 5927 C 560.338 1.36394 1.4832 0
M  V30 5928 O 559.394 1.16046 2.24253 0
M  V30 5929 C 560.707 2.97512 -0.436682 0
M  V30 5930 C 562.255 3.10568 -0.389416 0
M  V30 5931 C 562.73 4.50866 -0.805249 0
M  V30 5932 N 564.221 4.56929 -0.759616 0
M  V30 5933 C 564.956 5.63643 -1.05327 0
M  V30 5934 N 564.452 6.78189 -1.41531 0
M  V30 5935 N 566.245 5.5354 -0.977207 0
M  V30 5936 H 558.396 1.67044 -1.31187 0
M  V30 5937 H 560.659 0.782559 -0.535075 0
M  V30 5938 H 560.365 3.19575 -1.46849 0
M  V30 5939 H 560.239 3.76742 0.185744 0
M  V30 5940 H 562.626 2.88226 0.633228 0
M  V30 5941 H 562.707 2.33387 -1.04711 0
M  V30 5942 H 562.351 4.73943 -1.82593 0
M  V30 5943 H 562.281 5.26452 -0.124989 0
M  V30 5944 H 564.772 3.74675 -0.49265 0
M  V30 5945 H 565.085 7.55541 -1.62411 0
M  V30 5946 H 563.43 6.79624 -1.45381 0
M  V30 5947 H 566.621 4.62932 -0.693675 0
M  V30 5948 H 566.794 6.36614 -1.2094 0
M  V30 5949 N 560.2 0.0768682 1.57412 0
M  V30 5950 C 561.15 -0.898795 2.09537 0
M  V30 5951 C 562.134 -1.25556 1.0062 0
M  V30 5952 O 563.326 -1.23369 1.26921 0
M  V30 5953 C 560.455 -2.16453 2.66464 0
M  V30 5954 C 559.541 -1.83401 3.82393 0
M  V30 5955 N 559.932 -1.20823 4.91157 0
M  V30 5956 C 558.23 -2.13121 3.91785 0
M  V30 5957 C 558.931 -1.05976 5.71965 0
M  V30 5958 N 557.907 -1.57113 5.204 0
M  V30 5959 H 561.709 -0.410718 2.91016 0
M  V30 5960 H 559.223 -0.126878 1.61904 0
M  V30 5961 H 561.22 -2.87274 3.02125 0
M  V30 5962 H 559.88 -2.65844 1.86433 0
M  V30 5963 H 560.891 -0.877249 5.10416 0
M  V30 5964 H 557.568 -2.64854 3.22736 0
M  V30 5965 H 558.958 -0.571809 6.69462 0
M  V30 5966 N 561.678 -1.56367 -0.196722 0
M  V30 5967 C 562.903 -1.84991 -0.937714 0
M  V30 5968 C 563.328 -0.660244 -1.76132 0
M  V30 5969 O 562.686 0.390967 -1.77034 0
M  V30 5970 C 562.734 -3.11828 -1.81096 0
M  V30 5971 O 561.838 -2.92266 -2.90955 0
M  V30 5972 H 561.179 -0.609193 -0.264159 0
M  V30 5973 H 563.709 -2.03595 -0.202529 0
M  V30 5974 H 563.719 -3.42579 -2.21594 0
M  V30 5975 H 562.394 -3.98037 -1.2058 0
M  V30 5976 H 560.971 -2.72809 -2.54224 0
M  V30 5977 N 563.156 0.464375 -1.50603 0
M  V30 5978 C 564.103 1.56152 -1.69956 0
M  V30 5979 C 565.073 1.57046 -0.54091 0
M  V30 5980 O 566.258 1.74473 -0.772258 0
M  V30 5981 C 563.398 2.94079 -1.80586 0
M  V30 5982 C 562.511 3.02923 -3.07996 0
M  V30 5983 C 561.646 4.31806 -3.09382 0
M  V30 5984 C 560.685 4.34417 -4.31218 0
M  V30 5985 N 559.822 5.54782 -4.30304 0
M  V30 5986 H 564.662 1.38955 -2.6362 0
M  V30 5987 H 562.199 0.675482 -1.30674 0
M  V30 5988 H 564.157 3.74073 -1.8473 0
M  V30 5989 H 562.787 3.09896 -0.903556 0
M  V30 5990 H 561.839 2.1576 -3.13292 0
M  V30 5991 H 563.151 3.00712 -3.97962 0
M  V30 5992 H 562.305 5.20153 -3.12292 0
M  V30 5993 H 561.044 4.36636 -2.17257 0
M  V30 5994 H 560.049 3.44467 -4.28512 0
M  V30 5995 H 561.274 4.31273 -5.24576 0
M  V30 5996 H 559.22 5.60384 -3.41037 0
M  V30 5997 H 559.137 5.54339 -5.14047 0
M  V30 5998 H 560.405 6.45235 -4.3737 0
M  V30 5999 N 564.634 1.40294 0.718013 0
M  V30 6000 C 565.882 1.38167 1.47494 0
M  V30 6001 C 566.203 -0.01607 1.94993 0
M  V30 6002 O 565.473 -0.970396 1.70177 0
M  V30 6003 H 564.053 0.508505 0.547203 0
M  V30 6004 H 566.715 1.75324 0.851322 0
M  V30 6005 H 565.811 2.05503 2.34894 0
M  V30 6006 N 566.112 -0.949982 1.2575 0
M  V30 6007 C 567.042 -2.06483 1.09028 0
M  V30 6008 C 568.023 -1.701 -0.00201532 0
M  V30 6009 O 569.208 -1.93469 0.168383 0
M  V30 6010 C 566.338 -3.39899 0.71316 0
M  V30 6011 C 565.292 -3.90309 1.75621 0
M  V30 6012 C 564.618 -5.20274 1.23365 0
M  V30 6013 C 565.918 -4.16169 3.15596 0
M  V30 6014 H 567.612 -2.20731 2.02283 0
M  V30 6015 H 565.158 -1.06066 0.973964 0
M  V30 6016 H 567.111 -4.17346 0.58309 0
M  V30 6017 H 565.835 -3.25602 -0.255091 0
M  V30 6018 H 564.494 -3.15035 1.8748 0
M  V30 6019 H 564.142 -5.02351 0.255491 0
M  V30 6020 H 563.842 -5.54971 1.93082 0
M  V30 6021 H 565.366 -6.00314 1.11607 0
M  V30 6022 H 566.78 -4.84259 3.06864 0
M  V30 6023 H 565.177 -4.62131 3.82825 0
M  V30 6024 H 566.247 -3.22273 3.6231 0
M  V30 6025 N 567.59 -1.07411 -1.15328 0
M  V30 6026 C 568.522 -0.652924 -2.19703 0
M  V30 6027 C 569.535 0.294869 -1.60107 0
M  V30 6028 O 570.724 0.0840932 -1.78302 0
M  V30 6029 C 567.824 0.061434 -3.38844 0
M  V30 6030 C 566.997 -0.902696 -4.27984 0
M  V30 6031 C 566.056 -0.225521 -5.25717 0
M  V30 6032 O 565.082 -0.86676 -5.62562 0
M  V30 6033 N 566.284 1.02858 -5.71315 0
M  V30 6034 H 569.049 -1.55081 -2.56457 0
M  V30 6035 H 566.61 -0.958883 -1.30449 0
M  V30 6036 H 568.602 0.525145 -4.01278 0
M  V30 6037 H 567.172 0.861269 -3.00501 0
M  V30 6038 H 566.392 -1.54551 -3.6264 0
M  V30 6039 H 567.68 -1.55636 -4.84412 0
M  V30 6040 H 567.078 1.56948 -5.43492 0
M  V30 6041 H 565.635 1.43596 -6.35786 0
M  V30 6042 N 569.068 1.32177 -0.85831 0
M  V30 6043 C 570.317 1.96392 -0.459689 0
M  V30 6044 C 570.63 1.68659 0.990632 0
M  V30 6045 O 571.836 2.26641 1.49485 0
M  V30 6046 C 570.292 3.51542 -0.7711 0
M  V30 6047 C 569.9 3.8813 -2.2374 0
M  V30 6048 C 571.644 4.2221 -0.44038 0
M  V30 6049 C 569.551 5.36341 -2.49183 0
M  V30 6050 H 568.481 0.735007 -0.168169 0
M  V30 6051 H 571.132 1.50518 -1.0496 0
M  V30 6052 H 569.514 3.95846 -0.11058 0
M  V30 6053 H 570.688 3.54824 -2.94001 0
M  V30 6054 H 569.003 3.30497 -2.533 0
M  V30 6055 H 571.6 5.31234 -0.607855 0
M  V30 6056 H 571.943 4.11683 0.618291 0
M  V30 6057 H 572.476 3.83502 -1.05695 0
M  V30 6058 H 569.215 5.51892 -3.53689 0
M  V30 6059 H 568.735 5.7104 -1.83504 0
M  V30 6060 H 570.414 6.03466 -2.33318 0
M  V30 6061 N 570.547 0.616602 1.45037 0
M  V30 6062 C 571.477 -0.0840787 2.33349 0
M  V30 6063 C 572.458 -0.849641 1.4736 0
M  V30 6064 O 573.643 -0.818407 1.76113 0
M  V30 6065 C 570.773 -1.07604 3.3021 0
M  V30 6066 C 569.727 -0.423096 4.25904 0
M  V30 6067 C 569.053 -1.52394 5.12523 0
M  V30 6068 C 570.353 0.661457 5.18095 0
M  V30 6069 H 572.047 0.653333 2.92185 0
M  V30 6070 H 569.593 0.315634 1.40498 0
M  V30 6071 H 571.546 -1.57485 3.90866 0
M  V30 6072 H 570.27 -1.84416 2.69552 0
M  V30 6073 H 568.929 0.05493 3.66559 0
M  V30 6074 H 568.577 -2.28257 4.48227 0
M  V30 6075 H 568.277 -1.09251 5.77354 0
M  V30 6076 H 569.801 -2.02485 5.76049 0
M  V30 6077 H 571.215 0.246353 5.7277 0
M  V30 6078 H 569.612 1.01517 5.91451 0
M  V30 6079 H 570.682 1.53446 4.59981 0
M  V30 6080 N 572.025 -1.5352 0.356285 0
M  V30 6081 C 573.273 -2.00719 -0.235837 0
M  V30 6082 C 573.594 -1.24551 -1.5004 0
M  V30 6083 O 572.864 -0.356185 -1.92635 0
M  V30 6084 H 571.444 -0.741542 -0.0901366 0
M  V30 6085 H 574.106 -1.88887 0.480378 0
M  V30 6086 H 573.202 -3.08551 -0.469357 0
M  V30 6087 N 573.503 -0.0852151 -1.57369 0
M  V30 6088 C 574.435 0.907099 -2.10486 0
M  V30 6089 C 575.448 1.25259 -1.03991 0
M  V30 6090 O 576.637 1.20743 -1.31467 0
M  V30 6091 C 573.737 2.21908 -2.56145 0
M  V30 6092 C 572.91 2.05042 -3.86363 0
M  V30 6093 C 571.969 3.19664 -4.17973 0
M  V30 6094 O 570.995 2.94062 -4.87356 0
M  V30 6095 N 572.197 4.45151 -3.72587 0
M  V30 6096 H 574.962 0.453505 -2.96249 0
M  V30 6097 H 572.523 0.100157 -1.6159 0
M  V30 6098 H 574.515 2.97519 -2.74343 0
M  V30 6099 H 573.085 2.58723 -1.75446 0
M  V30 6100 H 572.305 1.13819 -3.77411 0
M  V30 6101 H 573.593 1.91039 -4.71574 0
M  V30 6102 H 572.991 4.68834 -3.16561 0
M  V30 6103 H 571.548 5.17744 -3.9596 0
M  V30 6104 N 574.981 1.5647 0.188427 0
M  V30 6105 C 576.209 1.85131 0.923803 0
M  V30 6106 C 576.624 0.668537 1.76567 0
M  V30 6107 O 575.981 -0.362662 1.7886 0
M  V30 6108 C 576.032 3.12661 1.81453 0
M  V30 6109 O 575.753 4.26378 1.00665 0
M  V30 6110 C 577.254 3.54548 2.66103 0
M  V30 6111 H 574.474 0.614624 0.269218 0
M  V30 6112 H 577.018 2.03581 0.193671 0
M  V30 6113 H 575.173 2.96088 2.49821 0
M  V30 6114 H 575.587 4.99041 1.61425 0
M  V30 6115 H 577.061 4.4673 3.24247 0
M  V30 6116 H 577.538 2.77853 3.40139 0
M  V30 6117 H 578.144 3.73674 2.03096 0
M  V30 6118 N 576.459 -0.456382 1.50847 0
M  V30 6119 C 577.389 -1.56025 1.73719 0
M  V30 6120 C 578.37 -1.5967 0.586473 0
M  V30 6121 O 579.555 -1.75702 0.827185 0
M  V30 6122 C 576.685 -2.94251 1.84483 0
M  V30 6123 C 575.639 -3.05471 2.99786 0
M  V30 6124 C 574.965 -4.45489 2.95709 0
M  V30 6125 C 576.265 -2.81318 4.40065 0
M  V30 6126 H 577.959 -1.37138 2.66146 0
M  V30 6127 H 575.505 -0.658299 1.28072 0
M  V30 6128 H 577.458 -3.71417 1.99067 0
M  V30 6129 H 576.182 -3.14328 0.886891 0
M  V30 6130 H 574.841 -2.30741 2.84876 0
M  V30 6131 H 574.489 -4.62505 1.97732 0
M  V30 6132 H 574.189 -4.53929 3.73125 0
M  V30 6133 H 575.713 -5.24655 3.12362 0
M  V30 6134 H 577.127 -3.48226 4.55425 0
M  V30 6135 H 575.524 -3.01188 5.19043 0
M  V30 6136 H 576.594 -1.7706 4.51418 0
M  V30 6137 N 577.937 -1.40673 -0.710563 0
M  V30 6138 C 578.884 -1.41336 -1.82463 0
M  V30 6139 C 579.854 -0.269648 -1.63897 0
M  V30 6140 O 581.039 -0.468463 -1.8496 0
M  V30 6141 C 578.179 -1.28665 -3.20218 0
M  V30 6142 C 577.292 -2.52784 -3.5032 0
M  V30 6143 C 576.427 -2.32517 -4.77608 0
M  V30 6144 C 575.466 -3.52187 -5.0063 0
M  V30 6145 N 574.603 -3.31084 -6.19135 0
M  V30 6146 H 579.443 -2.36558 -1.8123 0
M  V30 6147 H 576.98 -1.17483 -0.885226 0
M  V30 6148 H 578.938 -1.19324 -3.99772 0
M  V30 6149 H 577.568 -0.370602 -3.20666 0
M  V30 6150 H 576.62 -2.72634 -2.65283 0
M  V30 6151 H 577.932 -3.41845 -3.63241 0
M  V30 6152 H 577.086 -2.20558 -5.65189 0
M  V30 6153 H 575.825 -1.40889 -4.66906 0
M  V30 6154 H 574.83 -3.64617 -4.11502 0
M  V30 6155 H 576.055 -4.44749 -5.13201 0
M  V30 6156 H 574.001 -2.42143 -6.09674 0
M  V30 6157 H 573.918 -4.13713 -6.32754 0
M  V30 6158 H 575.186 -3.22868 -7.0949 0
M  V30 6159 N 579.415 0.9433 -1.26252 0
M  V30 6160 C 580.378 2.02326 -1.07689 0
M  V30 6161 C 581.378 1.60779 -0.0259174 0
M  V30 6162 O 582.568 1.72108 -0.269134 0
M  V30 6163 C 579.7 3.34886 -0.63752 0
M  V30 6164 H 580.893 2.20225 -2.0357 0
M  V30 6165 H 578.446 1.12197 -1.08819 0
M  V30 6166 H 579.181 3.22684 0.323377 0
M  V30 6167 H 578.966 3.66393 -1.39637 0
M  V30 6168 H 580.456 4.14231 -0.529418 0
M  V30 6169 N 580.893 1.08022 1.14757 0
M  V30 6170 C 582.118 0.82895 1.90114 0
M  V30 6171 C 582.543 -0.612772 1.77839 0
M  V30 6172 O 581.901 -1.42895 1.11583 0
M  V30 6173 C 581.949 1.25062 3.38219 0
M  V30 6174 O 581.053 0.400119 4.10454 0
M  V30 6175 H 580.394 0.301412 0.591648 0
M  V30 6176 H 582.924 1.44062 1.45284 0
M  V30 6177 H 582.934 1.22977 3.89025 0
M  V30 6178 H 581.609 2.30067 3.46471 0
M  V30 6179 H 580.186 0.484052 3.69745 0
M  V30 6180 N 582.371 -1.3172 0.865308 0
M  V30 6181 C 583.304 -2.26687 0.262376 0
M  V30 6182 C 584.282 -1.50894 -0.605787 0
M  V30 6183 O 585.466 -1.79982 -0.56024 0
M  V30 6184 C 582.593 -3.3281 -0.628915 0
M  V30 6185 C 581.639 -4.26172 0.167278 0
M  V30 6186 S 582.472 -5.12797 1.54272 0
M  V30 6187 C 583.628 -6.22438 0.657427 0
M  V30 6188 H 583.861 -2.77478 1.0674 0
M  V30 6189 H 581.394 -1.39414 0.663555 0
M  V30 6190 H 583.352 -3.94426 -1.13747 0
M  V30 6191 H 582.013 -2.80782 -1.40785 0
M  V30 6192 H 581.206 -5.01392 -0.51203 0
M  V30 6193 H 580.808 -3.69029 0.607777 0
M  V30 6194 H 583.1 -6.77368 -0.133925 0
M  V30 6195 H 584.043 -6.9451 1.38061 0
M  V30 6196 H 584.451 -5.64043 0.227044 0
M  V30 6197 N 583.85 -0.624285 -1.44708 0
M  V30 6198 C 585.266 -0.289322 -1.56956 0
M  V30 6199 C 585.466 1.20773 -1.61295 0
M  V30 6200 O 584.522 1.9915 -1.55227 0
M  V30 6201 C 585.835 -0.975215 -2.84447 0
M  V30 6202 C 587.383 -0.952709 -2.98148 0
M  V30 6203 C 587.858 -1.61893 -4.28433 0
M  V30 6204 N 589.349 -1.5852 -4.35231 0
M  V30 6205 C 590.084 -2.06969 -5.34744 0
M  V30 6206 N 589.58 -2.63579 -6.40701 0
M  V30 6207 N 591.373 -1.97638 -5.26209 0
M  V30 6208 H 583.524 -1.59612 -1.40135 0
M  V30 6209 H 585.787 -0.669592 -0.671081 0
M  V30 6210 H 585.493 -2.02999 -2.87201 0
M  V30 6211 H 585.367 -0.508749 -3.73753 0
M  V30 6212 H 587.754 0.093568 -2.94952 0
M  V30 6213 H 587.835 -1.4576 -2.10209 0
M  V30 6214 H 587.479 -2.66463 -4.32389 0
M  V30 6215 H 587.409 -1.08893 -5.15218 0
M  V30 6216 H 589.899 -1.17183 -3.59272 0
M  V30 6217 H 590.213 -2.98298 -7.12908 0
M  V30 6218 H 588.558 -2.67626 -6.41406 0
M  V30 6219 H 591.749 -1.5314 -4.42341 0
M  V30 6220 H 591.922 -2.35708 -6.03611 0
M  V30 6221 N 585.328 1.53329 -0.364422 0
M  V30 6222 C 586.238 2.29414 0.490552 0
M  V30 6223 C 587.254 1.35335 1.09363 0
M  V30 6224 O 588.43 1.68391 1.10483 0
M  V30 6225 C 585.495 3.06772 1.61529 0
M  V30 6226 C 584.556 4.16516 1.03986 0
M  V30 6227 C 583.789 4.90176 2.111 0
M  V30 6228 O 584.012 4.63687 3.32191 0
M  V30 6229 O 582.946 5.76134 1.74222 0
M  V30 6230 H 586.772 3.03428 -0.12856 0
M  V30 6231 H 584.357 1.48843 -0.128837 0
M  V30 6232 H 586.239 3.55082 2.26924 0
M  V30 6233 H 584.914 2.35596 2.21983 0
M  V30 6234 H 583.821 3.7246 0.349856 0
M  V30 6235 H 585.154 4.89855 0.4799 0
M  V30 6236 N 586.806 0.0935595 1.57322 0
M  V30 6237 C 587.736 -0.863062 2.16964 0
M  V30 6238 C 588.717 -1.29528 1.10256 0
M  V30 6239 O 589.902 -1.36245 1.38387 0
M  V30 6240 C 587.032 -2.12276 2.74875 0
M  V30 6241 C 585.986 -1.82921 3.86942 0
M  V30 6242 C 585.312 -3.15707 4.31548 0
M  V30 6243 C 586.612 -1.11737 5.10208 0
M  V30 6244 H 588.306 -0.366145 2.97153 0
M  V30 6245 H 585.852 -0.174673 1.42937 0
M  V30 6246 H 587.805 -2.79634 3.1525 0
M  V30 6247 H 586.529 -2.64248 1.91938 0
M  V30 6248 H 585.188 -1.17961 3.47103 0
M  V30 6249 H 584.836 -3.65563 3.45504 0
M  V30 6250 H 584.536 -2.96849 5.07104 0
M  V30 6251 H 586.06 -3.84226 4.74555 0
M  V30 6252 H 587.474 -1.69203 5.47762 0
M  V30 6253 H 585.871 -1.03064 5.91183 0
M  V30 6254 H 586.941 -0.0998818 4.84797 0
M  V30 6255 N 588.284 -1.56567 -0.180126 0
M  V30 6256 C 589.532 -1.81133 -0.896392 0
M  V30 6257 C 589.853 -0.669114 -1.83161 0
M  V30 6258 O 589.123 0.311616 -1.93406 0
M  V30 6259 H 587.703 -0.668172 -0.333999 0
M  V30 6260 H 590.365 -1.94048 -0.182051 0
M  V30 6261 H 589.461 -2.74854 -1.47857 0
M  V30 6262 N 589.762 0.448376 -1.51087 0
M  V30 6263 C 590.692 1.55102 -1.74544 0
M  V30 6264 C 591.673 1.59357 -0.594932 0
M  V30 6265 O 592.858 1.75261 -0.836491 0
M  V30 6266 C 589.988 2.93268 -1.86041 0
M  V30 6267 C 588.942 3.03877 -3.01402 0
M  V30 6268 C 588.268 4.43914 -2.98068 0
M  V30 6269 C 589.568 2.7898 -4.41551 0
M  V30 6270 H 591.262 1.35724 -2.66869 0
M  V30 6271 H 588.808 0.651498 -1.28419 0
M  V30 6272 H 590.761 3.70356 -2.01034 0
M  V30 6273 H 589.485 3.13853 -0.903548 0
M  V30 6274 H 588.144 2.29227 -2.86096 0
M  V30 6275 H 587.792 4.6145 -2.00182 0
M  V30 6276 H 587.492 4.51944 -3.75527 0
M  V30 6277 H 589.016 5.22991 -3.1514 0
M  V30 6278 H 590.43 3.45805 -4.57265 0
M  V30 6279 H 588.827 2.98431 -5.20633 0
M  V30 6280 H 589.897 1.74663 -4.5235 0
M  V30 6281 N 591.24 1.41047 0.703093 0
M  V30 6282 C 592.17 1.45067 1.82969 0
M  V30 6283 C 593.151 0.31016 1.67248 0
M  V30 6284 O 594.336 0.520548 1.87093 0
M  V30 6285 C 591.466 1.32478 3.2104 0
M  V30 6286 C 590.42 2.44262 3.51454 0
M  V30 6287 C 589.746 2.16742 4.88801 0
M  V30 6288 C 591.046 3.86606 3.51189 0
M  V30 6289 H 592.74 2.39353 1.79863 0
M  V30 6290 H 590.286 1.15206 0.863919 0
M  V30 6291 H 592.239 1.33904 3.99559 0
M  V30 6292 H 590.963 0.346735 3.24754 0
M  V30 6293 H 589.622 2.42107 2.75282 0
M  V30 6294 H 589.27 1.17299 4.89132 0
M  V30 6295 H 588.97 2.91643 5.10116 0
M  V30 6296 H 590.494 2.19872 5.69639 0
M  V30 6297 H 591.908 3.90517 4.19725 0
M  V30 6298 H 590.305 4.61128 3.84033 0
M  V30 6299 H 591.375 4.15296 2.50315 0
M  V30 6300 N 592.718 -0.936591 1.26751 0
M  V30 6301 C 593.967 -1.67778 1.11953 0
M  V30 6302 C 594.28 -1.92694 -0.33589 0
M  V30 6303 O 595.486 -2.64682 -0.604618 0
M  V30 6304 C 593.942 -3.02138 1.95551 0
M  V30 6305 C 593.55 -2.84953 3.45696 0
M  V30 6306 C 595.294 -3.79917 1.89377 0
M  V30 6307 C 593.201 -4.14814 4.21525 0
M  V30 6308 H 592.131 -0.629275 0.415366 0
M  V30 6309 H 594.782 -1.04122 1.51099 0
M  V30 6310 H 593.164 -3.668 1.49243 0
M  V30 6311 H 594.338 -2.29112 3.99805 0
M  V30 6312 H 592.653 -2.20612 3.53156 0
M  V30 6313 H 595.25 -4.76134 2.43312 0
M  V30 6314 H 595.593 -4.07204 0.865464 0
M  V30 6315 H 596.126 -3.22037 2.33532 0
M  V30 6316 H 592.865 -3.92709 5.24843 0
M  V30 6317 H 592.385 -4.70352 3.72195 0
M  V30 6318 H 594.064 -4.83239 4.3022 0
M  V30 6319 N 594.196 -1.08629 -1.14182 0
M  V30 6320 C 595.443 -0.817345 -1.85272 0
M  V30 6321 C 595.771 0.656917 -1.83071 0
M  V30 6322 O 595.026 1.49897 -1.25815 0
M  V30 6323 C 595.325 -1.28734 -3.3341 0
M  V30 6324 C 594.991 -2.76981 -3.55798 0
M  V30 6325 C 593.653 -3.17469 -3.61617 0
M  V30 6326 C 596.005 -3.72605 -3.64438 0
M  V30 6327 C 593.333 -4.52371 -3.736 0
M  V30 6328 C 595.685 -5.07286 -3.77947 0
M  V30 6329 C 594.349 -5.47376 -3.82016 0
M  V30 6330 H 593.619 -0.299088 -0.677958 0
M  V30 6331 H 596.266 -1.35962 -1.34857 0
M  V30 6332 H 594.571 -0.664702 -3.8612 0
M  V30 6333 H 596.268 -1.05598 -3.86846 0
M  V30 6334 H 592.858 -2.44644 -3.51919 0
M  V30 6335 H 597.042 -3.42443 -3.5923 0
M  V30 6336 H 592.298 -4.82882 -3.75013 0
M  V30 6337 H 596.472 -5.81243 -3.83575 0
M  V30 6338 H 594.099 -6.51906 -3.91054 0
M  V30 6339 N 595.674 1.31259 -0.872281 0
M  V30 6340 C 596.921 1.96622 -0.484365 0
M  V30 6341 C 597.249 1.68939 0.963841 0
M  V30 6342 O 596.504 0.97974 1.6941 0
M  V30 6343 C 596.803 3.50659 -0.690889 0
M  V30 6344 C 596.469 3.98366 -2.11224 0
M  V30 6345 C 595.131 4.11104 -2.50094 0
M  V30 6346 C 597.483 4.23425 -3.0391 0
M  V30 6347 C 594.811 4.46254 -3.80887 0
M  V30 6348 C 597.163 4.60039 -4.3422 0
M  V30 6349 C 595.827 4.70984 -4.73001 0
M  V30 6350 H 595.097 0.71949 -0.177242 0
M  V30 6351 H 597.744 1.56353 -1.10571 0
M  V30 6352 H 596.049 3.91798 0.0135782 0
M  V30 6353 H 597.746 3.99284 -0.370534 0
M  V30 6354 H 594.336 3.88949 -1.80047 0
M  V30 6355 H 598.52 4.13075 -2.75104 0
M  V30 6356 H 593.776 4.52926 -4.10692 0
M  V30 6357 H 597.95 4.78381 -5.06088 0
M  V30 6358 H 595.577 4.97977 -5.7439 0
M  V30 6359 N 597.152 0.631951 1.44375 0
M  V30 6360 C 598.082 -0.0593243 2.33425 0
M  V30 6361 C 599.063 -0.833964 1.48253 0
M  V30 6362 O 600.248 -0.799682 1.76971 0
M  V30 6363 C 597.378 -1.04096 3.31333 0
M  V30 6364 C 596.332 -0.377899 4.26328 0
M  V30 6365 C 595.658 -1.4695 5.14111 0
M  V30 6366 C 596.958 0.716371 5.17364 0
M  V30 6367 H 598.652 0.684287 2.91475 0
M  V30 6368 H 596.198 0.330518 1.40156 0
M  V30 6369 H 598.151 -1.53331 3.92514 0
M  V30 6370 H 596.875 -1.81547 2.71493 0
M  V30 6371 H 595.534 0.0938054 3.6648 0
M  V30 6372 H 595.182 -2.2349 4.50623 0
M  V30 6373 H 594.882 -1.03121 5.78481 0
M  V30 6374 H 596.406 -1.96363 5.78164 0
M  V30 6375 H 597.82 0.307089 5.72477 0
M  V30 6376 H 596.217 1.07784 5.90341 0
M  V30 6377 H 597.287 1.58316 4.58327 0
M  V30 6378 N 598.631 -1.53133 0.372548 0
M  V30 6379 C 599.878 -2.01356 -0.214959 0
M  V30 6380 C 600.206 -1.2596 -1.48204 0
M  V30 6381 O 599.461 -0.343511 -1.92662 0
M  V30 6382 C 599.76 -3.53206 -0.545938 0
M  V30 6383 C 599.426 -4.46511 0.627624 0
M  V30 6384 C 598.088 -4.71737 0.949615 0
M  V30 6385 C 600.44 -5.01666 1.41353 0
M  V30 6386 C 597.768 -5.4937 2.05936 0
M  V30 6387 C 600.12 -5.80511 2.51375 0
M  V30 6388 C 598.784 -6.04022 2.84101 0
M  V30 6389 H 598.054 -0.736813 -0.078659 0
M  V30 6390 H 600.701 -1.84682 0.506447 0
M  V30 6391 H 599.006 -3.67864 -1.34845 0
M  V30 6392 H 600.703 -3.87997 -1.01287 0
M  V30 6393 H 597.293 -4.27029 0.366635 0
M  V30 6394 H 601.477 -4.82117 1.17802 0
M  V30 6395 H 596.733 -5.65803 2.31682 0
M  V30 6396 H 600.907 -6.22255 3.12684 0
M  V30 6397 H 598.534 -6.63962 3.70214 0
M  V30 6398 N 600.109 -0.101901 -1.5727 0
M  V30 6399 C 601.358 0.559922 -1.93772 0
M  V30 6400 C 601.671 1.68913 -0.98629 0
M  V30 6401 O 602.877 2.41256 -1.24529 0
M  V30 6402 C 601.333 1.04739 -3.44322 0
M  V30 6403 C 600.941 -0.05243 -4.47969 0
M  V30 6404 C 602.685 1.68157 -3.89774 0
M  V30 6405 C 600.592 0.450781 -5.8968 0
M  V30 6406 H 599.522 0.212931 -0.723309 0
M  V30 6407 H 602.173 -0.179001 -1.82625 0
M  V30 6408 H 600.555 1.84021 -3.50645 0
M  V30 6409 H 601.729 -0.828157 -4.53297 0
M  V30 6410 H 600.044 -0.592202 -4.12167 0
M  V30 6411 H 602.641 2.0689 -4.93052 0
M  V30 6412 H 602.984 2.55338 -3.28798 0
M  V30 6413 H 603.517 0.954453 -3.8618 0
M  V30 6414 H 600.256 -0.38458 -6.54371 0
M  V30 6415 H 599.776 1.19336 -5.87809 0
M  V30 6416 H 601.455 0.917555 -6.40461 0
M  V30 6417 N 601.587 1.56661 0.17182 0
M  V30 6418 C 602.835 1.81606 0.886774 0
M  V30 6419 C 603.156 0.678818 1.82803 0
M  V30 6420 O 602.426 -0.301354 1.93568 0
M  V30 6421 H 601.006 0.669934 0.330451 0
M  V30 6422 H 603.668 1.94142 0.171757 0
M  V30 6423 H 602.764 2.75634 1.46398 0
M  V30 6424 N 603.065 -0.440357 1.51323 0
M  V30 6425 C 604.311 -1.19181 1.64085 0
M  V30 6426 C 604.644 -1.90936 0.354575 0
M  V30 6427 O 603.919 -1.8347 -0.645675 0
M  V30 6428 C 604.202 -2.2112 2.84215 0
M  V30 6429 C 604.055 -1.53468 4.22809 0
M  V30 6430 C 605.374 -3.22133 2.99864 0
M  V30 6431 H 602.493 -0.431924 0.597169 0
M  V30 6432 H 605.135 -0.481443 1.83799 0
M  V30 6433 H 603.285 -2.81703 2.67537 0
M  V30 6434 H 604.957 -0.962455 4.51148 0
M  V30 6435 H 603.2 -0.837086 4.25647 0
M  V30 6436 H 603.871 -2.27694 5.02852 0
M  V30 6437 H 606.347 -2.71601 3.15233 0
M  V30 6438 H 605.223 -3.90756 3.85488 0
M  V30 6439 H 605.484 -3.88061 2.11804 0
M  V30 6440 N 604.543 -1.41418 -0.695603 0
M  V30 6441 C 605.792 -1.40073 -1.4513 0
M  V30 6442 C 606.105 -0.0130439 -1.95596 0
M  V30 6443 O 607.311 0.123032 -2.71221 0
M  V30 6444 C 605.767 -2.46286 -2.62433 0
M  V30 6445 C 605.375 -3.90962 -2.18753 0
M  V30 6446 C 607.119 -2.54077 -3.40066 0
M  V30 6447 C 605.026 -4.88728 -3.33015 0
M  V30 6448 H 603.956 -0.520903 -0.545138 0
M  V30 6449 H 606.607 -1.67242 -0.75515 0
M  V30 6450 H 604.989 -2.12248 -3.34315 0
M  V30 6451 H 606.163 -4.34248 -1.54161 0
M  V30 6452 H 604.478 -3.86831 -1.54114 0
M  V30 6453 H 607.075 -3.24303 -4.25125 0
M  V30 6454 H 607.418 -1.5776 -3.8525 0
M  V30 6455 H 607.951 -2.87206 -2.75241 0
M  V30 6456 H 604.69 -5.86449 -2.92844 0
M  V30 6457 H 604.21 -4.50091 -3.96457 0
M  V30 6458 H 605.889 -5.09483 -3.98793 0
M  V30 6459 N 606.021 0.929856 -1.27246 0
M  V30 6460 C 606.951 2.04722 -1.12299 0
M  V30 6461 C 607.932 1.70082 -0.0250464 0
M  V30 6462 O 609.117 1.93176 -0.199141 0
M  V30 6463 C 606.247 3.38721 -0.767145 0
M  V30 6464 C 605.201 3.87466 -1.81808 0
M  V30 6465 C 604.527 5.18246 -1.31626 0
M  V30 6466 C 605.827 4.11095 -3.22177 0
M  V30 6467 H 607.521 2.17485 -2.05769 0
M  V30 6468 H 605.067 1.04503 -0.990715 0
M  V30 6469 H 607.02 4.16366 -0.649413 0
M  V30 6470 H 605.744 3.25967 0.203259 0
M  V30 6471 H 604.403 3.12012 -1.92468 0
M  V30 6472 H 604.051 5.01881 -0.335378 0
M  V30 6473 H 603.751 5.51829 -2.01887 0
M  V30 6474 H 605.275 5.98462 -1.21143 0
M  V30 6475 H 606.689 4.79316 -3.1453 0
M  V30 6476 H 605.086 4.55982 -3.90129 0
M  V30 6477 H 606.156 3.16468 -3.67391 0
M  V30 6478 N 607.499 1.09233 1.13605 0
M  V30 6479 C 608.746 0.827159 1.84836 0
M  V30 6480 C 609.074 -0.647199 1.83416 0
M  V30 6481 O 608.329 -1.49228 1.26608 0
M  V30 6482 C 608.628 1.305 3.32723 0
M  V30 6483 C 608.294 2.78864 3.54325 0
M  V30 6484 C 606.956 3.19382 3.59928 0
M  V30 6485 C 609.308 3.74532 3.62457 0
M  V30 6486 C 606.636 4.54346 3.71196 0
M  V30 6487 C 608.988 5.09283 3.75252 0
M  V30 6488 C 607.652 5.49394 3.79108 0
M  V30 6489 H 606.922 0.302679 0.676363 0
M  V30 6490 H 609.569 1.36676 1.34134 0
M  V30 6491 H 607.874 0.68517 3.85762 0
M  V30 6492 H 609.571 1.07648 3.86281 0
M  V30 6493 H 606.161 2.46507 3.50617 0
M  V30 6494 H 610.345 3.44343 3.57409 0
M  V30 6495 H 605.601 4.84864 3.72447 0
M  V30 6496 H 609.775 5.83269 3.80487 0
M  V30 6497 H 607.402 6.5397 3.87591 0
M  V30 6498 N 608.977 -1.30795 0.87923 0
M  V30 6499 C 610.202 -2.01063 0.508769 0
M  V30 6500 C 610.627 -1.65508 -0.893803 0
M  V30 6501 O 609.985 -0.868616 -1.59138 0
M  V30 6502 C 610.033 -3.54054 0.683991 0
M  V30 6503 O 609.137 -4.11498 -0.272654 0
M  V30 6504 H 608.478 -0.632786 0.201191 0
M  V30 6505 H 611.008 -1.66776 1.18519 0
M  V30 6506 H 611.018 -4.03845 0.580798 0
M  V30 6507 H 609.693 -3.79271 1.70665 0
M  V30 6508 H 608.27 -3.72695 -0.12364 0
M  V30 6509 N 610.455 -0.639598 -1.44038 0
M  V30 6510 C 611.68 -0.153117 -2.06834 0
M  V30 6511 C 612.105 1.16676 -1.47541 0
M  V30 6512 O 611.463 1.71769 -0.580093 0
M  V30 6513 C 611.511 -0.0609169 -3.60549 0
M  V30 6514 O 610.615 0.98071 -4.00569 0
M  V30 6515 H 609.956 -0.0886402 -0.658057 0
M  V30 6516 H 612.486 -0.878674 -1.84771 0
M  V30 6517 H 612.496 0.126892 -4.07803 0
M  V30 6518 H 611.171 -1.0245 -4.03084 0
M  V30 6519 H 609.748 0.766789 -3.64931 0
M  V30 6520 N 611.933 1.52934 -0.380664 0
M  V30 6521 C 612.896 2.24809 0.446473 0
M  V30 6522 C 613.896 1.26133 0.997347 0
M  V30 6523 O 615.086 1.50297 0.880714 0
M  V30 6524 C 612.218 2.99649 1.62553 0
M  V30 6525 H 613.411 2.99343 -0.182677 0
M  V30 6526 H 610.964 1.55736 -0.132618 0
M  V30 6527 H 611.699 2.29395 2.29235 0
M  V30 6528 H 611.484 3.72066 1.23732 0
M  V30 6529 H 612.974 3.54246 2.21133 0
M  V30 6530 N 613.412 0.11024 1.57214 0
M  V30 6531 C 614.658 -0.550684 1.9518 0
M  V30 6532 C 614.991 -1.66885 0.993122 0
M  V30 6533 O 614.266 -1.94479 0.0287907 0
M  V30 6534 C 614.549 -1.09163 3.43155 0
M  V30 6535 C 614.402 0.0225198 4.49794 0
M  V30 6536 C 615.721 -1.98527 3.92778 0
M  V30 6537 H 612.84 -0.198706 0.709708 0
M  V30 6538 H 615.482 0.184024 1.89107 0
M  V30 6539 H 613.632 -1.71775 3.48462 0
M  V30 6540 H 615.304 0.657443 4.56591 0
M  V30 6541 H 613.547 0.686868 4.28328 0
M  V30 6542 H 614.218 -0.39706 5.5057 0
M  V30 6543 H 616.694 -1.458 3.8972 0
M  V30 6544 H 615.57 -2.33298 4.96853 0
M  V30 6545 H 615.831 -2.90846 3.32958 0
M  V30 6546 N 614.89 -1.56749 -0.16351 0
M  V30 6547 C 616.12 -1.86307 -0.892936 0
M  V30 6548 C 616.528 -0.6945 -1.75992 0
M  V30 6549 O 615.871 0.345384 -1.80424 0
M  V30 6550 C 615.933 -3.10372 -1.81409 0
M  V30 6551 C 615.597 -4.42913 -1.12593 0
M  V30 6552 C 616.594 -5.17608 -0.487661 0
M  V30 6553 C 614.279 -4.89646 -1.12035 0
M  V30 6554 C 616.273 -6.3723 0.14699 0
M  V30 6555 C 613.96 -6.09197 -0.481883 0
M  V30 6556 C 614.958 -6.82834 0.150678 0
M  V30 6557 O 614.646 -8.00116 0.779065 0
M  V30 6558 H 614.378 -0.622126 -0.264452 0
M  V30 6559 H 616.932 -2.04728 -0.166063 0
M  V30 6560 H 615.162 -2.87917 -2.58148 0
M  V30 6561 H 616.851 -3.26312 -2.41403 0
M  V30 6562 H 617.617 -4.8258 -0.483888 0
M  V30 6563 H 613.496 -4.32265 -1.60212 0
M  V30 6564 H 617.04 -6.94646 0.641325 0
M  V30 6565 H 612.937 -6.43688 -0.483266 0
M  V30 6566 H 613.705 -8.15678 0.679089 0
M  V30 6567 N 616.368 0.432326 -1.51554 0
M  V30 6568 C 617.615 1.18134 -1.64471 0
M  V30 6569 C 617.943 1.91076 -0.363349 0
M  V30 6570 O 617.198 1.84492 0.65279 0
M  V30 6571 C 617.497 2.21907 -2.80164 0
M  V30 6572 C 617.163 1.65941 -4.19255 0
M  V30 6573 C 615.825 1.50401 -4.57092 0
M  V30 6574 C 618.177 1.24843 -5.06027 0
M  V30 6575 C 615.505 0.922443 -5.79403 0
M  V30 6576 C 617.857 0.68113 -6.28922 0
M  V30 6577 C 616.521 0.512673 -6.65528 0
M  V30 6578 H 615.791 0.432283 -0.601841 0
M  V30 6579 H 618.438 0.471701 -1.856 0
M  V30 6580 H 616.743 2.98928 -2.53277 0
M  V30 6581 H 618.44 2.79691 -2.87357 0
M  V30 6582 H 615.03 1.79014 -3.89425 0
M  V30 6583 H 619.214 1.35667 -4.77397 0
M  V30 6584 H 614.47 0.779733 -6.06408 0
M  V30 6585 H 618.644 0.35418 -6.95499 0
M  V30 6586 H 616.271 0.0599084 -7.60176 0
M  V30 6587 N 617.846 1.41785 0.688094 0
M  V30 6588 C 618.809 1.43936 1.78368 0
M  V30 6589 C 619.809 0.328866 1.57401 0
M  V30 6590 O 620.999 0.589093 1.63937 0
M  V30 6591 C 618.131 1.25804 3.16838 0
M  V30 6592 H 619.324 2.41472 1.77852 0
M  V30 6593 H 616.877 1.28037 0.896448 0
M  V30 6594 H 617.612 0.291386 3.22988 0
M  V30 6595 H 617.397 2.06272 3.33458 0
M  V30 6596 H 618.887 1.30162 3.96797 0
M  V30 6597 N 619.324 -0.923095 1.27737 0
M  V30 6598 C 620.234 -2.05765 1.12685 0
M  V30 6599 C 621.25 -1.73911 0.0557197 0
M  V30 6600 O 622.426 -1.99674 0.263137 0
M  V30 6601 C 619.491 -3.37804 0.780363 0
M  V30 6602 C 618.552 -3.83326 1.93286 0
M  V30 6603 C 617.785 -5.09064 1.60281 0
M  V30 6604 O 618.008 -5.6809 0.512828 0
M  V30 6605 O 616.942 -5.50071 2.44347 0
M  V30 6606 H 620.768 -2.21378 2.07907 0
M  V30 6607 H 618.353 -1.04299 1.06968 0
M  V30 6608 H 620.235 -4.17097 0.600668 0
M  V30 6609 H 618.91 -3.23387 -0.142291 0
M  V30 6610 H 617.817 -3.049 2.16764 0
M  V30 6611 H 619.15 -4.02292 2.83588 0
M  V30 6612 N 620.802 -1.09834 -1.13024 0
M  V30 6613 C 621.765 -0.745058 -2.16752 0
M  V30 6614 C 622.765 0.227435 -1.59183 0
M  V30 6615 O 623.955 0.0050786 -1.74199 0
M  V30 6616 C 621.087 -0.102543 -3.40746 0
M  V30 6617 H 622.28 -1.66375 -2.49518 0
M  V30 6618 H 619.833 -0.898061 -1.27924 0
M  V30 6619 H 620.568 0.827177 -3.13573 0
M  V30 6620 H 620.353 -0.80235 -3.83803 0
M  V30 6621 H 621.843 0.129082 -4.174 0
M  V30 6622 N 622.28 1.30327 -0.886154 0
M  V30 6623 C 623.557 1.90922 -0.425217 0
M  V30 6624 C 623.937 1.80533 1.09413 0
M  V30 6625 O 623.285 1.2233 1.92996 0
M  V30 6626 C 623.495 3.36529 -0.924638 0
M  V30 6627 C 624.843 4.13598 -0.960305 0
M  V30 6628 O 625.867 3.45377 -0.871382 0
M  V30 6629 O 624.726 5.35482 -1.09184 0
M  V30 6630 H 621.82 0.81668 -0.130238 0
M  V30 6631 H 624.366 1.38886 -0.975132 0
M  V30 6632 H 623.138 3.38181 -1.96849 0
M  V30 6633 H 622.761 3.96021 -0.353955 0
M  V30 6634 N 623.758 0.647228 1.43697 0
M  V30 6635 C 625.035 0.0883758 1.954 0
M  V30 6636 C 625.415 -1.39006 1.58873 0
M  V30 6637 O 624.763 -2.11255 0.87083 0
M  V30 6638 C 624.973 0.328263 3.47453 0
M  V30 6639 C 626.321 0.230009 4.23977 0
M  V30 6640 O 627.345 0.260496 3.55246 0
M  V30 6641 O 626.204 0.148615 5.46298 0
M  V30 6642 H 623.298 -0.0130683 0.826897 0
M  V30 6643 H 625.844 0.72005 1.53666 0
M  V30 6644 H 624.616 1.3535 3.67146 0
M  V30 6645 H 624.239 -0.336772 3.96171 0
M  V30 6646 N 625.236 -1.5273 0.388769 0
M  V30 6647 C 626.647 -1.86505 -0.0853788 0
M  V30 6648 C 626.998 -1.30847 -1.46197 0
M  V30 6649 O 626.123 -0.639609 -2.06732 0
M  V30 6650 C 626.718 -3.38414 -0.161703 0
M  V30 6651 C 625.277 -3.71902 -0.580144 0
M  V30 6652 C 624.424 -2.76095 0.258218 0
M  V30 6653 H 627.375 -1.46647 0.606665 0
M  V30 6654 H 627.396 -3.67638 -0.980936 0
M  V30 6655 H 626.908 -3.78893 0.840333 0
M  V30 6656 H 625.009 -3.36992 -1.58957 0
M  V30 6657 H 625.122 -4.77902 -0.338663 0
M  V30 6658 H 623.486 -2.53195 -0.276432 0
M  V30 6659 H 624.269 -3.19411 1.25822 0
M  V30 6660 N 626.714 -0.118576 -1.57153 0
M  V30 6661 C 627.942 0.54726 -1.99531 0
M  V30 6662 C 628.357 1.60251 -0.998246 0
M  V30 6663 O 627.714 1.82498 0.00893106 0
M  V30 6664 C 627.765 1.17378 -3.41913 0
M  V30 6665 O 627.486 0.160703 -4.37805 0
M  V30 6666 C 628.987 1.92297 -3.9942 0
M  V30 6667 H 626.207 0.144919 -0.655164 0
M  V30 6668 H 628.751 -0.20479 -2.03472 0
M  V30 6669 H 626.906 1.87661 -3.38913 0
M  V30 6670 H 627.32 0.61586 -5.20872 0
M  V30 6671 H 628.794 2.31462 -5.01128 0
M  V30 6672 H 629.271 2.79801 -3.38538 0
M  V30 6673 H 629.877 1.26777 -4.05965 0
M  V30 6674 N 628.193 1.56834 0.155195 0
M  V30 6675 C 629.418 1.87412 0.888337 0
M  V30 6676 C 629.843 0.70671 1.74319 0
M  V30 6677 O 629.201 -0.343892 1.78009 0
M  V30 6678 C 629.249 3.1652 1.72765 0
M  V30 6679 O 628.353 2.99877 2.83103 0
M  V30 6680 H 627.694 0.615983 0.247914 0
M  V30 6681 H 630.224 2.04061 0.148478 0
M  V30 6682 H 630.234 3.48334 2.12433 0
M  V30 6683 H 628.909 4.01094 1.09985 0
M  V30 6684 H 627.486 2.79453 2.46902 0
M  V30 6685 N 629.671 -0.424282 1.51781 0
M  V30 6686 C 630.919 -1.17028 1.64769 0
M  V30 6687 C 631.24 -1.91409 0.372523 0
M  V30 6688 O 630.51 -1.86091 -0.612108 0
M  V30 6689 H 629.09 -0.434992 0.607282 0
M  V30 6690 H 631.752 -0.485169 1.88765 0
M  V30 6691 H 630.848 -1.8927 2.4816 0
M  V30 6692 N 631.149 -1.42148 -0.680565 0
M  V30 6693 C 632.396 -1.4231 -1.44063 0
M  V30 6694 C 632.724 -0.037488 -1.94464 0
M  V30 6695 O 631.979 0.953184 -1.70918 0
M  V30 6696 C 632.278 -2.38945 -2.65782 0
M  V30 6697 C 631.944 -3.85455 -2.33956 0
M  V30 6698 C 630.606 -4.25364 -2.24987 0
M  V30 6699 C 632.958 -4.77895 -2.08004 0
M  V30 6700 C 630.286 -5.55701 -1.88184 0
M  V30 6701 C 632.638 -6.08568 -1.72706 0
M  V30 6702 C 631.302 -6.47482 -1.62244 0
M  V30 6703 H 630.572 -0.520748 -0.527164 0
M  V30 6704 H 633.219 -1.7505 -0.776524 0
M  V30 6705 H 631.524 -1.99511 -3.37198 0
M  V30 6706 H 633.221 -2.36336 -3.23954 0
M  V30 6707 H 629.811 -3.53855 -2.41836 0
M  V30 6708 H 633.995 -4.47854 -2.1387 0
M  V30 6709 H 629.251 -5.84718 -1.78648 0
M  V30 6710 H 633.425 -6.79688 -1.5165 0
M  V30 6711 H 631.052 -7.48387 -1.33496 0
M  V30 6712 N 632.627 0.916307 -1.28225 0
M  V30 6713 C 633.852 1.7043 -1.18188 0
M  V30 6714 C 634.277 1.86346 0.256274 0
M  V30 6715 O 633.635 1.37175 1.18544 0
M  V30 6716 C 633.683 3.07546 -1.88275 0
M  V30 6717 O 632.787 3.94904 -1.18848 0
M  V30 6718 H 632.128 0.521967 -0.410423 0
M  V30 6719 H 634.658 1.14589 -1.69501 0
M  V30 6720 H 634.668 3.57793 -1.96082 0
M  V30 6721 H 633.343 2.95279 -2.92887 0
M  V30 6722 H 631.92 3.53339 -1.19187 0
M  V30 6723 N 634.105 1.10431 1.1244 0
M  V30 6724 C 635.33 0.869089 1.88313 0
M  V30 6725 C 635.755 -0.574912 1.79099 0
M  V30 6726 O 635.113 -1.40496 1.14589 0
M  V30 6727 C 635.161 1.32208 3.3549 0
M  V30 6728 O 634.265 0.487092 4.09513 0
M  V30 6729 H 633.606 0.313894 0.585121 0
M  V30 6730 H 636.136 1.47111 1.42195 0
M  V30 6731 H 636.146 1.31201 3.86329 0
M  V30 6732 H 634.821 2.37364 3.41513 0
M  V30 6733 H 633.398 0.562372 3.68635 0
M  V30 6734 N 635.583 -1.29855 0.893053 0
M  V30 6735 C 636.832 -1.95104 0.511597 0
M  V30 6736 C 637.145 -1.71226 -0.945567 0
M  V30 6737 O 638.351 -2.30525 -1.43424 0
M  V30 6738 C 636.807 -3.49374 0.864034 0
M  V30 6739 C 636.415 -3.82061 2.33952 0
M  V30 6740 C 638.159 -4.20894 0.552167 0
M  V30 6741 C 636.066 -5.29546 2.63316 0
M  V30 6742 H 634.996 -0.73029 0.187597 0
M  V30 6743 H 637.647 -1.47682 1.08914 0
M  V30 6744 H 636.029 -3.95413 0.215493 0
M  V30 6745 H 637.203 -3.46904 3.03305 0
M  V30 6746 H 635.518 -3.23665 2.61973 0
M  V30 6747 H 638.115 -5.29435 0.748489 0
M  V30 6748 H 638.458 -4.13178 -0.508924 0
M  V30 6749 H 638.991 -3.80564 1.15825 0
M  V30 6750 H 635.73 -5.4232 3.68197 0
M  V30 6751 H 635.25 -5.65974 1.9858 0
M  V30 6752 H 636.929 -5.97068 2.49236 0
M  V30 6753 N 637.061 -0.65484 -1.43351 0
M  V30 6754 C 638.472 -0.248506 -1.85039 0
M  V30 6755 C 638.823 1.20526 -1.54816 0
M  V30 6756 O 637.948 1.92016 -0.99794 0
M  V30 6757 C 638.543 -0.444241 -3.35875 0
M  V30 6758 C 637.102 -0.0922108 -3.76287 0
M  V30 6759 C 636.249 -0.746327 -2.67068 0
M  V30 6760 H 639.2 -0.8584 -1.33481 0
M  V30 6761 H 639.221 0.309762 -3.79237 0
M  V30 6762 H 638.733 -1.50239 -3.5784 0
M  V30 6763 H 636.834 0.96328 -3.59933 0
M  V30 6764 H 636.947 -0.518807 -4.76283 0
M  V30 6765 H 635.311 -0.179416 -2.54067 0
M  V30 6766 H 636.094 -1.80754 -2.91861 0
M  V30 6767 N 638.539 1.52521 -0.396863 0
M  V30 6768 C 639.816 1.94112 0.240842 0
M  V30 6769 C 640.196 1.33288 1.637 0
M  V30 6770 O 639.544 0.503901 2.22875 0
M  V30 6771 C 639.754 3.48033 0.259567 0
M  V30 6772 C 641.102 4.21822 0.484866 0
M  V30 6773 O 642.126 3.54579 0.339453 0
M  V30 6774 O 640.985 5.41042 0.770412 0
M  V30 6775 H 638.079 0.812973 0.151671 0
M  V30 6776 H 640.625 1.63572 -0.451918 0
M  V30 6777 H 639.397 3.84655 -0.718078 0
M  V30 6778 H 639.02 3.84899 0.996937 0
M  V30 6779 N 640.017 0.126909 1.57088 0
M  V30 6780 C 640.98 -0.806097 2.14557 0
M  V30 6781 C 641.98 -1.18918 1.08236 0
M  V30 6782 O 643.17 -1.11339 1.33975 0
M  V30 6783 C 640.302 -2.09116 2.69227 0
M  V30 6784 H 641.495 -0.306522 2.98329 0
M  V30 6785 H 639.048 -0.122393 1.5582 0
M  V30 6786 H 639.783 -2.63486 1.89065 0
M  V30 6787 H 639.568 -1.82588 3.46993 0
M  V30 6788 H 641.058 -2.75794 3.13572 0
M  V30 6789 N 641.495 -1.56914 -0.146875 0
M  V30 6790 C 642.742 -1.83356 -0.859467 0
M  V30 6791 C 643.07 -0.707811 -1.81164 0
M  V30 6792 O 642.325 0.303155 -1.93338 0
M  V30 6793 C 642.624 -3.16128 -1.66727 0
M  V30 6794 C 642.29 -4.42586 -0.861881 0
M  V30 6795 C 640.952 -4.76929 -0.639687 0
M  V30 6796 C 643.304 -5.20344 -0.298643 0
M  V30 6797 C 640.632 -5.86491 0.156451 0
M  V30 6798 C 642.984 -6.30742 0.484536 0
M  V30 6799 C 641.648 -6.63635 0.717306 0
M  V30 6800 H 640.918 -0.670947 -0.314501 0
M  V30 6801 H 643.565 -1.91104 -0.123108 0
M  V30 6802 H 641.87 -3.03831 -2.47374 0
M  V30 6803 H 643.567 -3.33802 -2.2221 0
M  V30 6804 H 640.157 -4.15662 -1.04513 0
M  V30 6805 H 644.341 -4.94186 -0.457585 0
M  V30 6806 H 639.597 -6.10419 0.346292 0
M  V30 6807 H 643.771 -6.90188 0.928105 0
M  V30 6808 H 641.398 -7.48367 1.33607 0
M  V30 6809 N 642.974 0.416227 -1.52004 0
M  V30 6810 C 644.22 1.16233 -1.66917 0
M  V30 6811 C 644.575 1.8839 -0.390763 0
M  V30 6812 O 643.868 1.81479 0.614478 0
M  V30 6813 C 644.062 2.18923 -2.82502 0
M  V30 6814 C 643.891 1.56849 -4.2146 0
M  V30 6815 C 642.661 1.34426 -4.87091 0
M  V30 6816 C 644.859 1.03322 -5.03815 0
M  V30 6817 N 642.841 0.681703 -6.10103 0
M  V30 6818 C 644.212 0.497165 -6.18003 0
M  V30 6819 C 646.267 0.926997 -4.89194 0
M  V30 6820 C 644.97 -0.134687 -7.19174 0
M  V30 6821 C 646.996 0.309009 -5.90592 0
M  V30 6822 C 646.358 -0.216399 -7.04068 0
M  V30 6823 H 642.457 0.412252 -0.664509 0
M  V30 6824 H 645.041 0.455758 -1.89291 0
M  V30 6825 H 643.212 2.86946 -2.61756 0
M  V30 6826 H 644.944 2.85844 -2.86488 0
M  V30 6827 H 641.699 1.61183 -4.45328 0
M  V30 6828 H 642.123 0.367256 -6.76003 0
M  V30 6829 H 646.765 1.31904 -4.01698 0
M  V30 6830 H 644.483 -0.538811 -8.06302 0
M  V30 6831 H 648.069 0.228438 -5.81351 0
M  V30 6832 H 646.949 -0.687064 -7.81184 0
M  V30 6833 N 644.452 1.42507 0.673017 0
M  V30 6834 C 645.698 1.44282 1.43367 0
M  V30 6835 C 646.053 0.0588239 1.9231 0
M  V30 6836 O 645.346 -0.919288 1.68106 0
M  V30 6837 C 645.54 2.40351 2.64511 0
M  V30 6838 C 645.369 3.87955 2.27423 0
M  V30 6839 C 644.139 4.56476 2.16697 0
M  V30 6840 C 646.337 4.7833 1.88957 0
M  V30 6841 N 644.319 5.89099 1.72731 0
M  V30 6842 C 645.69 6.00073 1.55923 0
M  V30 6843 C 647.745 4.65769 1.75965 0
M  V30 6844 C 646.448 7.10652 1.112 0
M  V30 6845 C 648.474 5.76332 1.32647 0
M  V30 6846 C 647.836 6.97188 1.00538 0
M  V30 6847 H 643.935 0.583134 0.521036 0
M  V30 6848 H 646.519 1.78547 0.776481 0
M  V30 6849 H 644.69 2.08145 3.27918 0
M  V30 6850 H 646.422 2.32694 3.31113 0
M  V30 6851 H 643.177 4.10712 2.35823 0
M  V30 6852 H 643.601 6.59446 1.53166 0
M  V30 6853 H 648.243 3.72808 1.99435 0
M  V30 6854 H 645.961 8.0346 0.864768 0
M  V30 6855 H 649.547 5.68625 1.23112 0
M  V30 6856 H 648.427 7.81287 0.675283 0
M  V30 6857 N 645.93 -0.909495 1.28709 0
M  V30 6858 C 646.893 -1.99399 1.13016 0
M  V30 6859 C 647.893 -1.60654 0.068536 0
M  V30 6860 O 649.083 -1.71334 0.314671 0
M  V30 6861 C 646.215 -3.33078 0.726085 0
M  V30 6862 H 647.408 -2.14751 2.09338 0
M  V30 6863 H 644.961 -1.09272 1.11756 0
M  V30 6864 H 645.696 -3.23428 -0.23771 0
M  V30 6865 H 645.481 -3.62562 1.49302 0
M  V30 6866 H 646.971 -4.12681 0.639058 0
M  V30 6867 N 647.408 -1.11026 -1.11852 0
M  V30 6868 C 648.654 -0.857729 -1.83768 0
M  V30 6869 C 648.987 0.615143 -1.842 0
M  V30 6870 O 648.262 1.45391 -1.29196 0
M  V30 6871 C 648.545 -1.41453 -3.31154 0
M  V30 6872 C 648.398 -2.95471 -3.39142 0
M  V30 6873 C 649.717 -1.0619 -4.27097 0
M  V30 6874 H 646.836 -0.313044 -0.667212 0
M  V30 6875 H 649.478 -1.37443 -1.31185 0
M  V30 6876 H 647.628 -0.975052 -3.76065 0
M  V30 6877 H 649.3 -3.4799 -3.02821 0
M  V30 6878 H 647.543 -3.31759 -2.79497 0
M  V30 6879 H 648.214 -3.29515 -4.42859 0
M  V30 6880 H 650.69 -1.44122 -3.90344 0
M  V30 6881 H 649.566 -1.47832 -5.28618 0
M  V30 6882 H 649.827 0.0278912 -4.42091 0
M  V30 6883 N 648.886 1.2938 -0.899927 0
M  V30 6884 C 650.132 1.9584 -0.526742 0
M  V30 6885 C 650.465 1.70774 0.924651 0
M  V30 6886 O 649.74 1.02084 1.65557 0
M  V30 6887 C 650.023 3.50638 -0.820062 0
M  V30 6888 C 649.876 3.85161 -2.32317 0
M  V30 6889 C 651.195 4.3903 -0.30671 0
M  V30 6890 H 648.314 0.711322 -0.192848 0
M  V30 6891 H 650.956 1.52992 -1.12665 0
M  V30 6892 H 649.106 3.87265 -0.309491 0
M  V30 6893 H 650.778 3.58477 -2.9033 0
M  V30 6894 H 649.021 3.32696 -2.78381 0
M  V30 6895 H 649.692 4.93204 -2.47898 0
M  V30 6896 H 652.168 4.09396 -0.743908 0
M  V30 6897 H 651.044 5.46226 -0.541144 0
M  V30 6898 H 651.305 4.34937 0.792588 0
M  V30 6899 N 650.364 0.662433 1.43002 0
M  V30 6900 C 651.592 0.187615 2.06048 0
M  V30 6901 C 652.007 -1.15039 1.49705 0
M  V30 6902 O 651.364 -1.71209 0.631956 0
M  V30 6903 C 651.415 0.100498 3.6136 0
M  V30 6904 O 651.136 1.38562 4.15611 0
M  V30 6905 C 652.637 -0.399298 4.41498 0
M  V30 6906 H 649.857 0.0941675 0.664359 0
M  V30 6907 H 652.401 0.905681 1.83351 0
M  V30 6908 H 650.556 -0.568181 3.83211 0
M  V30 6909 H 650.97 1.25084 5.09366 0
M  V30 6910 H 652.444 -0.409187 5.50481 0
M  V30 6911 H 652.921 -1.43232 4.15188 0
M  V30 6912 H 653.527 0.23721 4.24638 0
M  V30 6913 N 651.842 -1.52309 0.404946 0
M  V30 6914 C 652.775 -2.23369 -0.467087 0
M  V30 6915 C 653.753 -1.24034 -1.0514 0
M  V30 6916 O 654.937 -1.53071 -1.10006 0
M  V30 6917 C 652.064 -2.95906 -1.64795 0
M  V30 6918 C 651.11 -4.09637 -1.18743 0
M  V30 6919 S 651.943 -5.35273 -0.156022 0
M  V30 6920 C 653.099 -6.11337 -1.34231 0
M  V30 6921 H 653.332 -2.96987 0.136294 0
M  V30 6922 H 650.865 -1.53236 0.189219 0
M  V30 6923 H 652.823 -3.38304 -2.3251 0
M  V30 6924 H 651.484 -2.21937 -2.22267 0
M  V30 6925 H 650.677 -4.59549 -2.06955 0
M  V30 6926 H 650.279 -3.69333 -0.588981 0
M  V30 6927 H 652.571 -6.38458 -2.26665 0
M  V30 6928 H 653.514 -7.02563 -0.883804 0
M  V30 6929 H 653.922 -5.42338 -1.56621 0
M  V30 6930 N 653.32 -0.135238 -1.57019 0
M  V30 6931 C 654.548 0.526066 -2.001 0
M  V30 6932 C 654.963 1.59184 -1.01519 0
M  V30 6933 O 654.32 1.82497 -0.0104258 0
M  V30 6934 C 654.371 1.13744 -3.43139 0
M  V30 6935 O 654.092 0.114259 -4.37951 0
M  V30 6936 C 655.593 1.8805 -4.01438 0
M  V30 6937 H 652.813 0.137962 -0.656664 0
M  V30 6938 H 655.357 -0.226359 -2.03243 0
M  V30 6939 H 653.512 1.84056 -3.40885 0
M  V30 6940 H 653.926 0.56058 -5.21496 0
M  V30 6941 H 655.4 2.26133 -5.03555 0
M  V30 6942 H 655.877 2.76194 -3.41487 0
M  V30 6943 H 656.483 1.22464 -4.07287 0
M  V30 6944 N 654.798 1.5699 0.138552 0
M  V30 6945 C 656.026 1.87976 0.864437 0
M  V30 6946 C 656.441 0.724372 1.74351 0
M  V30 6947 O 655.798 -0.305575 1.79924 0
M  V30 6948 C 655.849 3.18276 1.71414 0
M  V30 6949 O 655.57 4.29365 0.870487 0
M  V30 6950 C 657.071 3.62834 2.54688 0
M  V30 6951 H 654.291 0.622878 0.249528 0
M  V30 6952 H 656.835 2.04094 0.128805 0
M  V30 6953 H 654.99 3.03886 2.40274 0
M  V30 6954 H 655.404 5.03924 1.45466 0
M  V30 6955 H 656.878 4.5682 3.0987 0
M  V30 6956 H 657.355 2.88533 3.31127 0
M  V30 6957 H 657.961 3.79946 1.91105 0
M  V30 6958 N 656.276 -0.40816 1.52223 0
M  V30 6959 C 657.522 -1.15673 1.66576 0
M  V30 6960 C 657.855 -1.90141 0.394996 0
M  V30 6961 O 657.13 -1.84798 -0.606613 0
M  V30 6962 C 657.413 -2.15042 2.88841 0
M  V30 6963 C 657.266 -1.44465 4.25969 0
M  V30 6964 C 658.585 -3.15699 3.0663 0
M  V30 6965 H 655.704 -0.41916 0.606196 0
M  V30 6966 H 658.346 -0.442348 1.84779 0
M  V30 6967 H 656.496 -2.75964 2.73452 0
M  V30 6968 H 658.168 -0.866544 4.53088 0
M  V30 6969 H 656.411 -0.746612 4.27327 0
M  V30 6970 H 657.082 -2.16976 5.07568 0
M  V30 6971 H 659.558 -2.64854 3.20923 0
M  V30 6972 H 658.434 -3.82491 3.9369 0
M  V30 6973 H 658.695 -3.83481 2.19987 0
M  V30 6974 N 657.755 -1.42862 -0.66545 0
M  V30 6975 C 659.003 -1.43546 -1.42264 0
M  V30 6976 C 659.324 -0.0563116 -1.94919 0
M  V30 6977 O 658.594 0.906568 -1.73661 0
M  V30 6978 H 657.174 -0.528464 -0.527953 0
M  V30 6979 H 659.836 -1.78363 -0.785665 0
M  V30 6980 H 658.932 -2.14079 -2.27105 0
M  V30 6981 N 659.233 0.902656 -1.29189 0
M  V30 6982 C 660.463 1.68394 -1.19695 0
M  V30 6983 C 660.871 1.87602 0.245384 0
M  V30 6984 O 660.214 1.41084 1.17648 0
M  V30 6985 C 660.276 3.09094 -1.83578 0
M  V30 6986 C 659.94 3.1313 -3.32864 0
M  V30 6987 C 660.937 2.93497 -4.29134 0
M  V30 6988 C 658.622 3.3529 -3.74013 0
M  V30 6989 C 660.616 2.95953 -5.64527 0
M  V30 6990 C 658.303 3.37377 -5.09529 0
M  V30 6991 C 659.301 3.1773 -6.04596 0
M  V30 6992 O 658.989 3.196 -7.37639 0
M  V30 6993 H 658.721 0.532815 -0.416034 0
M  V30 6994 H 661.275 1.1374 -1.71033 0
M  V30 6995 H 659.505 3.65338 -1.26747 0
M  V30 6996 H 661.194 3.69297 -1.68447 0
M  V30 6997 H 661.96 2.76192 -3.98677 0
M  V30 6998 H 657.839 3.49623 -3.00474 0
M  V30 6999 H 661.383 2.80536 -6.38706 0
M  V30 7000 H 657.28 3.54213 -5.39633 0
M  V30 7001 H 658.048 3.35887 -7.46406 0
M  V30 7002 N 660.711 1.11618 1.11262 0
M  V30 7003 C 661.959 0.864469 1.82678 0
M  V30 7004 C 662.28 -0.611564 1.85162 0
M  V30 7005 O 661.55 -1.44429 1.32352 0
M  V30 7006 H 660.13 0.316821 0.676486 0
M  V30 7007 H 662.792 1.40894 1.34666 0
M  V30 7008 H 661.888 1.23832 2.86482 0
M  V30 7009 N 662.189 -1.289 0.906776 0
M  V30 7010 C 663.466 -1.90221 0.455537 0
M  V30 7011 C 663.846 -1.82251 -1.06527 0
M  V30 7012 O 663.194 -1.25385 -1.91026 0
M  V30 7013 C 663.404 -3.35015 0.97806 0
M  V30 7014 C 664.752 -4.12018 1.02598 0
M  V30 7015 O 665.776 -3.43947 0.926218 0
M  V30 7016 O 664.635 -5.33677 1.17689 0
M  V30 7017 H 661.729 -0.814505 0.143214 0
M  V30 7018 H 664.275 -1.37317 0.997104 0
M  V30 7019 H 663.047 -3.35006 2.02204 0
M  V30 7020 H 662.67 -3.95408 0.416914 0
M  V30 7021 N 663.667 -0.670007 -1.42649 0
M  V30 7022 C 664.6 0.0613623 -2.28117 0
M  V30 7023 C 665.578 0.813414 -1.40792 0
M  V30 7024 O 666.762 0.809529 -1.70232 0
M  V30 7025 C 663.889 1.09399 -3.20546 0
M  V30 7026 C 662.935 0.438064 -4.24244 0
M  V30 7027 S 663.768 -0.800808 -5.29478 0
M  V30 7028 C 664.924 0.23086 -6.25474 0
M  V30 7029 H 665.157 -0.663606 -2.89799 0
M  V30 7030 H 662.69 -0.45939 -1.47407 0
M  V30 7031 H 664.648 1.68469 -3.74337 0
M  V30 7032 H 663.309 1.79137 -2.58009 0
M  V30 7033 H 662.502 1.21707 -4.89084 0
M  V30 7034 H 662.104 -0.0789346 -3.73917 0
M  V30 7035 H 664.396 1.09204 -6.68641 0
M  V30 7036 H 665.339 -0.382945 -7.07064 0
M  V30 7037 H 665.747 0.574191 -5.61572 0
M  V30 7038 N 665.145 1.52092 -0.413018 0
M  V30 7039 C 666.095 2.23947 0.427993 0
M  V30 7040 C 667.079 1.25229 1.01027 0
M  V30 7041 O 668.271 1.50448 0.932444 0
M  V30 7042 C 665.4 3.0672 1.542 0
M  V30 7043 C 664.486 4.12851 0.970307 0
M  V30 7044 N 664.877 5.05644 0.125611 0
M  V30 7045 C 663.175 4.28404 1.24042 0
M  V30 7046 C 663.876 5.8138 -0.192876 0
M  V30 7047 N 662.852 5.41996 0.417273 0
M  V30 7048 H 666.654 2.93048 -0.223628 0
M  V30 7049 H 664.168 1.60852 -0.223664 0
M  V30 7050 H 666.165 3.56754 2.15714 0
M  V30 7051 H 664.825 2.39159 2.19621 0
M  V30 7052 H 665.836 5.17348 -0.238995 0
M  V30 7053 H 662.513 3.72071 1.89391 0
M  V30 7054 H 663.903 6.66129 -0.878762 0
M  V30 7055 N 666.623 0.143563 1.56945 0
M  V30 7056 C 668.034 -0.37783 1.82837 0
M  V30 7057 C 668.385 -1.64967 1.06209 0
M  V30 7058 O 667.51 -2.14221 0.306291 0
M  V30 7059 C 668.105 -0.692274 3.31652 0
M  V30 7060 C 666.664 -1.1582 3.58138 0
M  V30 7061 C 665.811 -0.17951 2.76718 0
M  V30 7062 H 668.762 0.368317 1.54367 0
M  V30 7063 H 668.783 -1.54729 3.47619 0
M  V30 7064 H 668.295 0.233572 3.87397 0
M  V30 7065 H 666.396 -2.10011 3.07776 0
M  V30 7066 H 666.509 -1.08655 4.66616 0
M  V30 7067 H 664.873 -0.671458 2.4569 0
M  V30 7068 H 665.656 0.739865 3.35233 0
M  V30 7069 N 668.101 -1.57061 -0.130224 0
M  V30 7070 C 669.347 -1.8453 -0.841216 0
M  V30 7071 C 669.68 -0.727666 -1.80052 0
M  V30 7072 O 668.955 0.267419 -1.92653 0
M  V30 7073 C 669.238 -3.22553 -1.60099 0
M  V30 7074 C 669.091 -4.44901 -0.662048 0
M  V30 7075 C 670.41 -3.58003 -2.55973 0
M  V30 7076 H 667.529 -0.671215 -0.304366 0
M  V30 7077 H 670.171 -1.89705 -0.105821 0
M  V30 7078 H 668.321 -3.18272 -2.22789 0
M  V30 7079 H 669.993 -4.61278 -0.0448559 0
M  V30 7080 H 668.236 -4.33791 0.0272253 0
M  V30 7081 H 668.907 -5.3812 -1.23006 0
M  V30 7082 H 671.383 -3.63002 -2.03393 0
M  V30 7083 H 670.259 -4.55576 -3.06172 0
M  V30 7084 H 670.52 -2.84833 -3.38116 0
M  V30 7085 N 669.579 0.400081 -1.52437 0
M  V30 7086 C 670.807 1.16768 -1.70801 0
M  V30 7087 C 671.222 1.84036 -0.421462 0
M  V30 7088 O 670.579 1.72242 0.603228 0
M  V30 7089 C 670.63 2.22403 -2.8499 0
M  V30 7090 O 670.351 1.57879 -4.08663 0
M  V30 7091 C 671.852 3.11974 -3.1494 0
M  V30 7092 H 669.072 0.350533 -0.57216 0
M  V30 7093 H 671.616 0.469534 -1.99037 0
M  V30 7094 H 669.771 2.87871 -2.59247 0
M  V30 7095 H 670.185 2.27982 -4.7236 0
M  V30 7096 H 671.659 3.82148 -3.9833 0
M  V30 7097 H 672.136 3.74858 -2.28863 0
M  V30 7098 H 672.742 2.52165 -3.42481 0
M  V30 7099 N 671.057 1.43213 0.657864 0
M  V30 7100 C 672.306 1.43871 1.41365 0
M  V30 7101 C 672.619 0.064898 1.95492 0
M  V30 7102 O 673.825 -0.0510796 2.71452 0
M  V30 7103 C 672.281 2.53158 2.55811 0
M  V30 7104 C 671.889 3.96624 2.08311 0
M  V30 7105 C 673.633 2.63004 3.3321 0
M  V30 7106 C 671.54 4.97385 3.1994 0
M  V30 7107 H 670.47 0.535174 0.531136 0
M  V30 7108 H 673.121 1.69185 0.710543 0
M  V30 7109 H 671.503 2.21037 3.2857 0
M  V30 7110 H 672.677 4.38182 1.42593 0
M  V30 7111 H 670.992 3.90781 1.43804 0
M  V30 7112 H 673.589 3.3546 4.16378 0
M  V30 7113 H 673.932 1.67918 3.80932 0
M  V30 7114 H 674.465 2.94403 2.67529 0
M  V30 7115 H 671.204 5.94007 2.77192 0
M  V30 7116 H 670.724 4.60444 3.84385 0
M  V30 7117 H 672.403 5.19877 3.85145 0
M  V30 7118 N 672.536 -0.895792 1.29666 0
M  V30 7119 C 673.784 -1.64339 1.17631 0
M  V30 7120 C 674.105 -1.93099 -0.271643 0
M  V30 7121 O 673.375 -1.55981 -1.18518 0
M  V30 7122 H 671.955 -0.609162 0.432354 0
M  V30 7123 H 674.617 -1.07389 1.62646 0
M  V30 7124 H 673.713 -2.59815 1.72924 0
M  V30 7125 N 674.014 -1.12206 -1.10668 0
M  V30 7126 C 675.262 -0.874144 -1.82217 0
M  V30 7127 C 675.583 0.601736 -1.85484 0
M  V30 7128 O 674.853 1.43725 -1.33116 0
M  V30 7129 H 673.433 -0.320404 -0.674797 0
M  V30 7130 H 676.095 -1.41606 -1.33917 0
M  V30 7131 H 675.191 -1.25349 -2.85822 0
M  V30 7132 N 675.492 1.28418 -0.913599 0
M  V30 7133 C 676.439 2.27301 -0.400373 0
M  V30 7134 C 677.409 1.57582 0.52509 0
M  V30 7135 O 678.594 1.85482 0.447318 0
M  V30 7136 C 675.734 3.43284 0.35361 0
M  V30 7137 C 674.847 4.27752 -0.604341 0
M  V30 7138 C 673.982 5.30934 0.168075 0
M  V30 7139 C 673.021 6.07065 -0.783499 0
M  V30 7140 N 672.158 7.02086 -0.0446112 0
M  V30 7141 H 676.998 2.70579 -1.24865 0
M  V30 7142 H 674.535 1.33067 -0.627028 0
M  V30 7143 H 676.493 4.09322 0.806945 0
M  V30 7144 H 675.123 3.00997 1.16623 0
M  V30 7145 H 674.175 3.61759 -1.17621 0
M  V30 7146 H 675.487 4.80682 -1.33216 0
M  V30 7147 H 674.641 6.02855 0.681979 0
M  V30 7148 H 673.38 4.78771 0.928947 0
M  V30 7149 H 672.385 5.33995 -1.30878 0
M  V30 7150 H 673.61 6.61317 -1.54392 0
M  V30 7151 H 671.556 6.52273 0.698272 0
M  V30 7152 H 671.473 7.52637 -0.712258 0
M  V30 7153 H 672.741 7.78205 0.449102 0
M  V30 7154 N 676.97 0.677563 1.42291 0
M  V30 7155 C 678.219 0.198173 2.00724 0
M  V30 7156 C 678.532 -1.20325 1.54211 0
M  V30 7157 O 679.738 -1.77916 2.05081 0
M  V30 7158 C 678.194 0.303432 3.58619 0
M  V30 7159 C 677.802 1.70909 4.14119 0
M  V30 7160 C 679.546 -0.117103 4.24338 0
M  V30 7161 C 677.453 1.76696 5.64387 0
M  V30 7162 H 676.383 0.070329 0.750713 0
M  V30 7163 H 679.034 0.843147 1.62982 0
M  V30 7164 H 677.416 -0.409482 3.93877 0
M  V30 7165 H 678.59 2.44931 3.90315 0
M  V30 7166 H 676.905 2.07771 3.6086 0
M  V30 7167 H 679.502 -0.0940471 5.34617 0
M  V30 7168 H 679.845 -1.15283 4.00019 0
M  V30 7169 H 680.378 0.5449 3.9405 0
M  V30 7170 H 677.117 2.7826 5.93508 0
M  V30 7171 H 676.637 1.07034 5.90173 0
M  V30 7172 H 678.316 1.52166 6.28852 0
M  V30 7173 N 678.448 -1.51871 0.421078 0
M  V30 7174 C 679.694 -2.02237 -0.151014 0
M  V30 7175 C 680.027 -1.30554 -1.43768 0
M  V30 7176 O 679.302 -0.41546 -1.90011 0
M  V30 7177 C 679.585 -3.5802 -0.386482 0
M  V30 7178 C 679.438 -4.40339 0.9177 0
M  V30 7179 C 680.757 -4.24444 -1.16342 0
M  V30 7180 H 677.876 -0.735062 -0.0534102 0
M  V30 7181 H 680.518 -1.81656 0.556888 0
M  V30 7182 H 678.668 -3.75688 -0.989494 0
M  V30 7183 H 680.34 -4.34357 1.55344 0
M  V30 7184 H 678.583 -4.06073 1.526 0
M  V30 7185 H 679.254 -5.47451 0.707187 0
M  V30 7186 H 681.73 -4.10948 -0.652788 0
M  V30 7187 H 680.606 -5.33358 -1.29693 0
M  V30 7188 H 680.867 -3.84204 -2.18724 0
M  V30 7189 N 679.926 -0.151884 -1.56866 0
M  V30 7190 C 681.174 0.497021 -1.95893 0
M  V30 7191 C 681.495 1.65078 -1.03799 0
M  V30 7192 O 680.765 1.95642 -0.10049 0
M  V30 7193 H 679.345 0.186603 -0.723318 0
M  V30 7194 H 682.007 -0.228525 -1.93556 0
M  V30 7195 H 681.103 0.869933 -2.99731 0
M  V30 7196 N 681.404 1.57128 0.121893 0
M  V30 7197 C 682.629 1.89254 0.848385 0
M  V30 7198 C 683.054 0.743527 1.72781 0
M  V30 7199 O 682.412 -0.306056 1.78698 0
M  V30 7200 C 682.46 3.20113 1.66012 0
M  V30 7201 O 681.564 3.05815 2.76679 0
M  V30 7202 H 680.905 0.621103 0.234793 0
M  V30 7203 H 683.435 2.0433 0.10516 0
M  V30 7204 H 683.445 3.52761 2.04996 0
M  V30 7205 H 682.12 4.03336 1.01452 0
M  V30 7206 H 680.697 2.84627 2.40918 0
M  V30 7207 N 682.882 -0.391992 1.52647 0
M  V30 7208 C 683.812 -1.48517 1.8018 0
M  V30 7209 C 684.793 -1.57039 0.653667 0
M  V30 7210 O 685.978 -1.72036 0.900962 0
M  V30 7211 C 683.108 -2.86161 1.96797 0
M  V30 7212 C 682.062 -2.92481 3.12472 0
M  V30 7213 C 681.388 -4.32546 3.14338 0
M  V30 7214 C 682.688 -2.624 4.51601 0
M  V30 7215 H 684.382 -1.25726 2.71723 0
M  V30 7216 H 681.928 -0.603387 1.30749 0
M  V30 7217 H 683.881 -3.62639 2.14641 0
M  V30 7218 H 682.605 -3.10283 1.01941 0
M  V30 7219 H 681.264 -2.18451 2.94406 0
M  V30 7220 H 680.912 -4.53703 2.1717 0
M  V30 7221 H 680.612 -4.37695 3.92042 0
M  V30 7222 H 682.136 -5.10934 3.34333 0
M  V30 7223 H 683.55 -3.28596 4.69785 0
M  V30 7224 H 681.947 -2.78903 5.3135 0
M  V30 7225 H 683.017 -1.57754 4.58521 0
M  V30 7226 N 684.36 -1.4356 -0.65026 0
M  V30 7227 C 685.6 -1.46839 -1.42188 0
M  V30 7228 C 685.964 -0.0911433 -1.91784 0
M  V30 7229 O 687.165 0.00137545 -2.688 0
M  V30 7230 C 685.436 -2.48411 -2.56957 0
M  V30 7231 S 686.995 -2.70589 -3.45438 0
M  V30 7232 H 683.813 -0.519596 -0.485325 0
M  V30 7233 H 686.415 -1.80347 -0.75466 0
M  V30 7234 H 685.119 -3.47209 -2.18801 0
M  V30 7235 H 684.65 -2.16411 -3.28527 0
M  V30 7236 H 686.665 -2.00738 -4.53782 0
M  V30 7237 N 685.838 0.888903 -1.30139 0
M  V30 7238 C 686.801 1.97576 -1.16174 0
M  V30 7239 C 687.801 1.60525 -0.094086 0
M  V30 7240 O 688.991 1.70812 -0.341889 0
M  V30 7241 C 686.123 3.3188 -0.778983 0
M  V30 7242 H 687.316 2.11393 -2.12728 0
M  V30 7243 H 684.869 1.0748 -1.1348 0
M  V30 7244 H 685.604 3.23765 0.186225 0
M  V30 7245 H 685.389 3.60141 -1.55051 0
M  V30 7246 H 686.879 4.11612 -0.704631 0
M  V30 7247 N 687.317 1.12792 1.10072 0
M  V30 7248 C 688.566 0.880232 1.81479 0
M  V30 7249 C 688.879 -0.595575 1.86312 0
M  V30 7250 O 690.085 -0.959979 2.53962 0
M  V30 7251 C 688.541 1.52514 3.25987 0
M  V30 7252 C 688.149 3.036 3.29441 0
M  V30 7253 C 689.893 1.35788 4.02196 0
M  V30 7254 C 687.8 3.61007 4.68431 0
M  V30 7255 H 686.73 0.325654 0.680048 0
M  V30 7256 H 689.381 1.35485 1.23758 0
M  V30 7257 H 687.763 0.978188 3.83728 0
M  V30 7258 H 688.937 3.64819 2.81502 0
M  V30 7259 H 687.252 3.19765 2.66719 0
M  V30 7260 H 689.849 1.76096 5.0487 0
M  V30 7261 H 690.192 0.301972 4.15203 0
M  V30 7262 H 690.725 1.87426 3.50879 0
M  V30 7263 H 687.464 4.66375 4.60625 0
M  V30 7264 H 686.984 3.04564 5.16721 0
M  V30 7265 H 688.663 3.60289 5.37402 0
M  V30 7266 N 688.795 -1.27931 0.920396 0
M  V30 7267 C 689.758 -2.25345 0.41858 0
M  V30 7268 C 690.758 -1.54116 -0.458798 0
M  V30 7269 O 691.948 -1.72235 -0.260912 0
M  V30 7270 C 689.08 -3.38556 -0.399104 0
M  V30 7271 H 690.273 -2.71251 1.27918 0
M  V30 7272 H 687.826 -1.39728 0.700406 0
M  V30 7273 H 688.561 -2.98021 -1.27882 0
M  V30 7274 H 688.346 -3.91426 0.229863 0
M  V30 7275 H 689.836 -4.10976 -0.740817 0
M  V30 7276 N 690.273 -0.685099 -1.4193 0
M  V30 7277 C 691.521 -0.21124 -2.00993 0
M  V30 7278 C 691.842 1.18985 -1.54491 0
M  V30 7279 O 691.112 1.8009 -0.771 0
M  V30 7280 H 689.692 -0.0751059 -0.743215 0
M  V30 7281 H 692.354 -0.883915 -1.73704 0
M  V30 7282 H 691.45 -0.220513 -3.1132 0
M  V30 7283 N 691.751 1.51645 -0.429126 0
M  V30 7284 C 692.997 2.02314 0.140286 0
M  V30 7285 C 693.33 1.31314 1.43074 0
M  V30 7286 O 692.605 0.425531 1.89788 0
M  V30 7287 C 692.888 3.5822 0.36749 0
M  V30 7288 C 692.741 4.39846 -0.941039 0
M  V30 7289 C 694.06 4.25055 1.14089 0
M  V30 7290 H 691.179 0.735335 0.0495112 0
M  V30 7291 H 693.821 1.81358 -0.566514 0
M  V30 7292 H 691.971 3.76207 0.969556 0
M  V30 7293 H 693.643 4.33527 -1.57646 0
M  V30 7294 H 691.886 4.05259 -1.54751 0
M  V30 7295 H 692.557 5.47069 -0.73621 0
M  V30 7296 H 695.033 4.11288 0.630986 0
M  V30 7297 H 693.909 5.34038 1.26863 0
M  V30 7298 H 694.17 3.85358 2.16683 0
M  V30 7299 N 693.229 0.160201 1.56784 0
M  V30 7300 C 694.159 -0.770264 2.2043 0
M  V30 7301 C 695.14 -1.24736 1.15651 0
M  V30 7302 O 696.325 -1.30253 1.44041 0
M  V30 7303 C 693.455 -2.00427 2.83631 0
M  V30 7304 C 692.409 -1.66345 3.94352 0
M  V30 7305 C 691.735 -2.97119 4.4455 0
M  V30 7306 C 693.035 -0.899972 5.14488 0
M  V30 7307 H 694.729 -0.239783 2.98438 0
M  V30 7308 H 692.275 -0.113891 1.43549 0
M  V30 7309 H 694.228 -2.66012 3.26827 0
M  V30 7310 H 692.952 -2.5587 2.02973 0
M  V30 7311 H 691.611 -1.03133 3.51794 0
M  V30 7312 H 691.259 -3.5058 3.60698 0
M  V30 7313 H 690.959 -2.75073 5.19238 0
M  V30 7314 H 692.483 -3.63753 4.90425 0
M  V30 7315 H 693.897 -1.45818 5.54446 0
M  V30 7316 H 692.294 -0.778968 5.95023 0
M  V30 7317 H 693.364 0.105827 4.84785 0
M  V30 7318 N 694.707 -1.5719 -0.113559 0
M  V30 7319 C 695.935 -1.89328 -0.834422 0
M  V30 7320 C 696.35 -0.752018 -1.73177 0
M  V30 7321 O 695.707 0.276912 -1.80387 0
M  V30 7322 C 695.758 -3.20962 -1.66329 0
M  V30 7323 O 695.479 -4.30695 -0.802069 0
M  V30 7324 C 696.98 -3.6684 -2.48884 0
M  V30 7325 H 694.2 -0.626769 -0.239587 0
M  V30 7326 H 696.744 -2.04273 -0.0963195 0
M  V30 7327 H 694.899 -3.0767 -2.35409 0
M  V30 7328 H 695.313 -5.06175 -1.37431 0
M  V30 7329 H 696.787 -4.61692 -3.02563 0
M  V30 7330 H 697.264 -2.93765 -3.26495 0
M  V30 7331 H 697.87 -3.82938 -1.85036 0
M  V30 7332 N 696.185 0.383891 -1.52853 0
M  V30 7333 C 697.434 1.12563 -1.67369 0
M  V30 7334 C 697.747 1.90982 -0.422533 0
M  V30 7335 O 698.953 2.6778 -0.447914 0
M  V30 7336 C 697.409 2.05011 -2.95801 0
M  V30 7337 C 697.017 1.31991 -4.28115 0
M  V30 7338 C 698.761 2.79289 -3.19684 0
M  V30 7339 C 696.668 2.23235 -5.4765 0
M  V30 7340 H 695.598 0.42391 -0.623552 0
M  V30 7341 H 698.249 0.388016 -1.79351 0
M  V30 7342 H 696.631 2.82429 -2.77578 0
M  V30 7343 H 697.805 0.597633 -4.56908 0
M  V30 7344 H 696.12 0.696517 -4.10533 0
M  V30 7345 H 698.717 3.47749 -4.06171 0
M  V30 7346 H 699.06 3.43649 -2.3497 0
M  V30 7347 H 699.593 2.08962 -3.38496 0
M  V30 7348 H 696.332 1.63482 -6.34786 0
M  V30 7349 H 695.852 2.93364 -5.23161 0
M  V30 7350 H 697.531 2.83205 -5.81725 0
M  V30 7351 N 697.663 1.43903 0.642637 0
M  V30 7352 C 698.626 1.49538 1.73698 0
M  V30 7353 C 699.626 0.378776 1.56275 0
M  V30 7354 O 700.816 0.64095 1.6198 0
M  V30 7355 C 697.948 1.35821 3.12675 0
M  V30 7356 H 699.141 2.47008 1.70079 0
M  V30 7357 H 696.694 1.30824 0.85526 0
M  V30 7358 H 697.429 0.393994 3.21898 0
M  V30 7359 H 697.214 2.16776 3.26727 0
M  V30 7360 H 698.704 1.4272 3.92455 0
M  V30 7361 N 699.141 -0.881989 1.30609 0
M  V30 7362 C 700.071 -2.00413 1.1982 0
M  V30 7363 C 701.052 -1.69871 0.0881538 0
M  V30 7364 O 702.237 -1.92304 0.2707 0
M  V30 7365 C 699.367 -3.35641 0.89233 0
M  V30 7366 C 698.321 -3.80451 1.96064 0
M  V30 7367 C 697.647 -5.13003 1.5077 0
M  V30 7368 C 698.947 -3.98855 3.37213 0
M  V30 7369 H 700.641 -2.09698 2.13699 0
M  V30 7370 H 698.187 -1.00754 1.02882 0
M  V30 7371 H 700.14 -4.13669 0.803497 0
M  V30 7372 H 698.864 -3.26497 -0.0821381 0
M  V30 7373 H 697.523 -3.04654 2.03916 0
M  V30 7374 H 697.171 -5.0029 0.521417 0
M  V30 7375 H 696.871 -5.43956 2.22229 0
M  V30 7376 H 698.395 -5.93554 1.43271 0
M  V30 7377 H 699.809 -4.67312 3.32103 0
M  V30 7378 H 698.206 -4.41188 4.06784 0
M  V30 7379 H 699.276 -3.02614 3.78883 0
M  V30 7380 N 700.619 -1.13374 -1.09472 0
M  V30 7381 C 702.03 -0.90801 -1.63132 0
M  V30 7382 C 702.381 0.555576 -1.8817 0
M  V30 7383 O 701.506 1.42218 -1.63104 0
M  V30 7384 C 702.101 -1.64182 -2.96361 0
M  V30 7385 C 700.66 -1.46197 -3.46848 0
M  V30 7386 C 699.807 -1.67134 -2.21273 0
M  V30 7387 H 702.758 -1.2871 -0.928411 0
M  V30 7388 H 702.779 -1.09863 -3.64294 0
M  V30 7389 H 702.291 -2.707 -2.78106 0
M  V30 7390 H 700.392 -0.419788 -3.70228 0
M  V30 7391 H 700.505 -2.22472 -4.24315 0
M  V30 7392 H 698.869 -1.09616 -2.29905 0
M  V30 7393 H 699.652 -2.74971 -2.05538 0
M  V30 7394 N 702.098 1.27442 -0.927168 0
M  V30 7395 C 703.344 1.94679 -0.568164 0
M  V30 7396 C 703.677 1.72697 0.888219 0
M  V30 7397 O 702.952 1.05573 1.63354 0
M  V30 7398 C 703.235 3.4882 -0.894253 0
M  V30 7399 C 703.088 3.80146 -2.40435 0
M  V30 7400 C 704.407 4.38281 -0.399766 0
M  V30 7401 H 701.526 0.707071 -0.207892 0
M  V30 7402 H 704.168 1.50568 -1.15885 0
M  V30 7403 H 702.318 3.86522 -0.391566 0
M  V30 7404 H 703.99 3.52238 -2.97869 0
M  V30 7405 H 702.233 3.26716 -2.85375 0
M  V30 7406 H 702.904 4.87835 -2.58304 0
M  V30 7407 H 705.38 4.07726 -0.83058 0
M  V30 7408 H 704.256 5.44955 -0.656885 0
M  V30 7409 H 704.517 4.36521 0.700153 0
M  V30 7410 N 703.576 0.692616 1.41565 0
M  V30 7411 C 704.987 0.297478 1.84315 0
M  V30 7412 C 705.338 -1.16379 1.57957 0
M  V30 7413 O 704.463 -1.89303 1.0485 0
M  V30 7414 C 705.058 0.533136 3.34579 0
M  V30 7415 C 703.617 0.191944 3.7591 0
M  V30 7416 C 702.764 0.816873 2.64995 0
M  V30 7417 H 705.715 0.893488 1.31158 0
M  V30 7418 H 705.736 -0.209105 3.79925 0
M  V30 7419 H 705.248 1.59674 3.53731 0
M  V30 7420 H 703.349 -0.867512 3.6236 0
M  V30 7421 H 703.462 0.644902 4.7474 0
M  V30 7422 H 701.826 0.246715 2.53502 0
M  V30 7423 H 702.609 1.88429 2.86966 0
M  V30 7424 N 705.054 -1.51416 0.437162 0
M  V30 7425 C 706.3 -2.02386 -0.129555 0
M  V30 7426 C 706.633 -1.32071 -1.42376 0
M  V30 7427 O 705.908 -0.43559 -1.8956 0
M  V30 7428 C 706.191 -3.5841 -0.348487 0
M  V30 7429 C 706.044 -4.39341 0.964352 0
M  V30 7430 C 707.363 -4.25654 -1.11834 0
M  V30 7431 H 704.482 -0.735587 -0.0456109 0
M  V30 7432 H 707.124 -1.81055 0.576124 0
M  V30 7433 H 705.274 -3.76716 -0.949592 0
M  V30 7434 H 706.946 -4.32685 1.59942 0
M  V30 7435 H 705.189 -4.04432 1.56898 0
M  V30 7436 H 705.86 -5.4667 0.765212 0
M  V30 7437 H 708.336 -4.11617 -0.609165 0
M  V30 7438 H 707.212 -5.34704 -1.24029 0
M  V30 7439 H 707.473 -3.86502 -2.14636 0
M  V30 7440 N 706.532 -0.168513 -1.56696 0
M  V30 7441 C 707.781 0.477233 -1.95973 0
M  V30 7442 C 708.094 1.64578 -1.05704 0
M  V30 7443 O 709.3 2.35758 -1.3465 0
M  V30 7444 C 707.756 0.900413 -3.48455 0
M  V30 7445 C 707.364 -0.242382 -4.47344 0
M  V30 7446 C 709.108 1.51474 -3.96555 0
M  V30 7447 C 707.015 0.200272 -5.91061 0
M  V30 7448 H 705.945 0.182061 -0.73169 0
M  V30 7449 H 708.596 -0.256297 -1.81701 0
M  V30 7450 H 706.978 1.68984 -3.58135 0
M  V30 7451 H 708.152 -1.01967 -4.49377 0
M  V30 7452 H 706.467 -0.766484 -4.09285 0
M  V30 7453 H 709.064 1.85792 -5.01384 0
M  V30 7454 H 709.407 2.41163 -3.39332 0
M  V30 7455 H 709.94 0.789802 -3.89881 0
M  V30 7456 H 706.679 -0.661775 -6.52151 0
M  V30 7457 H 706.199 0.942979 -5.92341 0
M  V30 7458 H 707.878 0.645088 -6.43776 0
M  V30 7459 N 708.01 1.57248 0.105221 0
M  V30 7460 C 709.256 1.85845 0.811753 0
M  V30 7461 C 709.589 0.756219 1.78871 0
M  V30 7462 O 708.864 -0.236736 1.93054 0
M  V30 7463 C 709.147 3.25059 1.54947 0
M  V30 7464 C 709 4.45898 0.591185 0
M  V30 7465 C 710.319 3.6203 2.50245 0
M  V30 7466 H 707.438 0.675973 0.293649 0
M  V30 7467 H 710.08 1.89849 0.0756269 0
M  V30 7468 H 708.23 3.21776 2.17698 0
M  V30 7469 H 709.902 4.61291 -0.0285352 0
M  V30 7470 H 708.145 4.33693 -0.0962343 0
M  V30 7471 H 708.816 5.40009 1.1443 0
M  V30 7472 H 711.292 3.66192 1.97593 0
M  V30 7473 H 710.168 4.60389 2.98886 0
M  V30 7474 H 710.429 2.90176 3.33542 0
M  V30 7475 N 709.488 -0.375779 1.53054 0
M  V30 7476 C 710.713 -1.14484 1.7294 0
M  V30 7477 C 711.138 -1.82572 0.452668 0
M  V30 7478 O 710.496 -1.71343 -0.592567 0
M  V30 7479 C 710.544 -2.15857 2.88857 0
M  V30 7480 O 709.648 -3.22725 2.56753 0
M  V30 7481 H 708.989 -0.332666 0.574656 0
M  V30 7482 H 711.519 -0.436025 1.999 0
M  V30 7483 H 711.529 -2.59631 3.14731 0
M  V30 7484 H 710.204 -1.65689 3.81471 0
M  V30 7485 H 708.781 -2.83996 2.41663 0
M  V30 7486 N 710.966 -1.44241 -0.634997 0
M  V30 7487 C 711.914 -1.51103 -1.76835 0
M  V30 7488 C 712.908 -0.383051 -1.65012 0
M  V30 7489 O 714.114 -0.557832 -1.71138 0
M  V30 7490 H 710.489 -0.474076 -0.583743 0
M  V30 7491 H 712.46 -2.46499 -1.68169 0
M  V30 7492 C 711.209 -1.4687 -3.15158 0
M  V30 7493 H 710.532 -2.32979 -3.24901 0
M  V30 7494 H 711.972 -1.55731 -3.94365 0
M  V30 7495 C 710.431 -0.188884 -3.3637 0
M  V30 7496 O 710.961 0.742487 -3.94778 0
M  V30 7497 N 709.167 -0.0932516 -2.9045 0
M  V30 7498 H 708.714 -0.852004 -2.43102 0
M  V30 7499 H 708.672 0.762308 -3.05018 0
M  V30 7500 N 712.444 0.87505 -1.31075 0
M  V30 7501 C 713.691 1.62768 -1.20469 0
M  V30 7502 C 714.019 1.93034 0.23834 0
M  V30 7503 O 713.274 1.55693 1.18567 0
M  V30 7504 C 713.573 2.96948 -1.98888 0
M  V30 7505 C 713.239 2.86195 -3.4843 0
M  V30 7506 C 711.901 2.82969 -3.89207 0
M  V30 7507 C 714.253 2.73599 -4.43614 0
M  V30 7508 C 711.581 2.64999 -5.23443 0
M  V30 7509 C 713.933 2.57166 -5.77969 0
M  V30 7510 C 712.597 2.52321 -6.17973 0
M  V30 7511 H 711.867 0.595611 -0.440827 0
M  V30 7512 H 714.514 1.01665 -1.62285 0
M  V30 7513 H 712.819 3.62058 -1.49737 0
M  V30 7514 H 714.516 3.54164 -1.88067 0
M  V30 7515 H 711.106 2.8952 -3.16032 0
M  V30 7516 H 715.29 2.7515 -4.13045 0
M  V30 7517 H 710.546 2.5967 -5.53517 0
M  V30 7518 H 714.72 2.46396 -6.51354 0
M  V30 7519 H 712.347 2.38156 -7.21932 0
M  V30 7520 N 713.922 1.13953 1.08869 0
M  V30 7521 C 714.87 0.817664 2.17754 0
M  V30 7522 C 715.864 -0.202444 1.68186 0
M  V30 7523 O 717.07 -0.0590159 1.79903 0
M  V30 7524 H 713.445 0.246671 0.710392 0
M  V30 7525 H 715.416 1.74401 2.4213 0
M  V30 7526 C 714.165 0.3063 3.46348 0
M  V30 7527 H 713.488 1.08259 3.84864 0
M  V30 7528 H 714.928 0.119584 4.23831 0
M  V30 7529 C 713.387 -0.969158 3.22659 0
M  V30 7530 O 713.917 -2.04386 3.45817 0
M  V30 7531 N 712.123 -0.902516 2.7623 0
M  V30 7532 H 711.67 -0.027801 2.57585 0
M  V30 7533 H 711.628 -1.75649 2.60758 0
M  V30 7534 N 715.4 -1.26948 0.933913 0
M  V30 7535 C 716.63 -1.97898 0.593279 0
M  V30 7536 C 717.038 -1.69806 -0.834412 0
M  V30 7537 O 716.381 -0.958704 -1.56699 0
M  V30 7538 C 716.443 -3.51657 0.746825 0
M  V30 7539 C 716.107 -4.03384 2.14779 0
M  V30 7540 C 717.104 -4.15682 3.12257 0
M  V30 7541 C 714.789 -4.37577 2.46641 0
M  V30 7542 C 716.783 -4.61455 4.39702 0
M  V30 7543 C 714.47 -4.8304 3.7432 0
M  V30 7544 C 715.468 -4.94939 4.70664 0
M  V30 7545 O 715.156 -5.39403 5.96071 0
M  V30 7546 H 714.888 -0.63814 0.223055 0
M  V30 7547 H 717.442 -1.62608 1.2549 0
M  V30 7548 H 715.672 -3.8669 0.0280889 0
M  V30 7549 H 717.361 -4.03821 0.410328 0
M  V30 7550 H 718.127 -3.89519 2.88964 0
M  V30 7551 H 714.006 -4.27554 1.72391 0
M  V30 7552 H 717.55 -4.70658 5.14905 0
M  V30 7553 H 713.447 -5.08646 3.97429 0
M  V30 7554 H 714.215 -5.57641 5.99148 0
M  V30 7555 N 716.879 -0.700114 -1.41195 0
M  V30 7556 C 718.126 -0.233006 -2.01155 0
M  V30 7557 C 718.454 1.16883 -1.55462 0
M  V30 7558 O 717.709 1.80395 -0.758695 0
M  V30 7559 C 718.008 -0.243986 -3.56566 0
M  V30 7560 C 717.674 -1.59397 -4.21786 0
M  V30 7561 C 716.336 -1.96355 -4.39316 0
M  V30 7562 C 718.688 -2.48192 -4.58312 0
M  V30 7563 C 716.016 -3.21683 -4.9065 0
M  V30 7564 C 718.368 -3.72857 -5.11039 0
M  V30 7565 C 717.032 -4.09951 -5.26779 0
M  V30 7566 H 716.302 -0.085263 -0.736078 0
M  V30 7567 H 718.949 -0.9001 -1.69028 0
M  V30 7568 H 717.254 0.506663 -3.8851 0
M  V30 7569 H 718.951 0.135031 -4.00773 0
M  V30 7570 H 715.541 -1.29654 -4.08519 0
M  V30 7571 H 719.725 -2.20918 -4.4442 0
M  V30 7572 H 714.981 -3.50412 -5.01021 0
M  V30 7573 H 719.155 -4.41844 -5.38282 0
M  V30 7574 H 716.782 -5.07136 -5.66319 0
M  V30 7575 N 718.357 1.51182 -0.445186 0
M  V30 7576 C 719.587 2.06269 0.116922 0
M  V30 7577 C 719.995 1.31188 1.36332 0
M  V30 7578 O 719.338 0.367067 1.79995 0
M  V30 7579 C 719.4 3.56051 0.496757 0
M  V30 7580 C 719.064 4.52441 -0.64394 0
M  V30 7581 C 720.061 4.97233 -1.5184 0
M  V30 7582 C 717.746 4.95447 -0.826905 0
M  V30 7583 C 719.74 5.83712 -2.56046 0
M  V30 7584 C 717.427 5.81714 -1.87222 0
M  V30 7585 C 718.425 6.25745 -2.73738 0
M  V30 7586 O 718.113 7.10298 -3.76474 0
M  V30 7587 H 717.845 0.675954 0.00785733 0
M  V30 7588 H 720.399 1.95648 -0.625371 0
M  V30 7589 H 718.629 3.64483 1.29187 0
M  V30 7590 H 720.318 3.93618 0.990928 0
M  V30 7591 H 721.084 4.64696 -1.38862 0
M  V30 7592 H 716.963 4.60712 -0.163052 0
M  V30 7593 H 720.507 6.18 -3.23607 0
M  V30 7594 H 716.404 6.13664 -2.00218 0
M  V30 7595 H 717.172 7.28493 -3.73149 0
M  V30 7596 N 719.835 0.176821 1.56605 0
M  V30 7597 C 720.785 -0.763718 2.14829 0
M  V30 7598 C 721.769 -1.18903 1.08401 0
M  V30 7599 O 722.961 -1.15048 1.3451 0
M  V30 7600 C 720.09 -1.99069 2.7969 0
M  V30 7601 C 719.176 -1.58711 3.93283 0
M  V30 7602 N 719.567 -0.893423 4.97847 0
M  V30 7603 C 717.865 -1.87774 4.04545 0
M  V30 7604 C 718.566 -0.693866 5.77547 0
M  V30 7605 N 717.542 -1.23699 5.29339 0
M  V30 7606 H 721.344 -0.224811 2.93039 0
M  V30 7607 H 718.858 -0.0236563 1.62383 0
M  V30 7608 H 720.855 -2.67478 3.19783 0
M  V30 7609 H 719.515 -2.53449 2.02962 0
M  V30 7610 H 720.526 -0.550868 5.14962 0
M  V30 7611 H 717.203 -2.43793 3.38927 0
M  V30 7612 H 718.593 -0.144899 6.71744 0
M  V30 7613 N 721.313 -1.57302 -0.09688 0
M  V30 7614 C 722.729 -1.53094 -0.451041 0
M  V30 7615 C 722.929 -0.893265 -1.80618 0
M  V30 7616 O 721.985 -0.485013 -2.47798 0
M  V30 7617 C 723.298 -2.9782 -0.415172 0
M  V30 7618 C 724.846 -3.09026 -0.497155 0
M  V30 7619 C 725.321 -4.55356 -0.491452 0
M  V30 7620 N 726.812 -4.59896 -0.552258 0
M  V30 7621 C 727.547 -5.70563 -0.569654 0
M  V30 7622 N 727.043 -6.90666 -0.543365 0
M  V30 7623 N 728.836 -5.58733 -0.614331 0
M  V30 7624 H 720.987 -1.97131 0.790771 0
M  V30 7625 H 723.25 -0.901211 0.294147 0
M  V30 7626 H 722.956 -3.47933 0.513362 0
M  V30 7627 H 722.83 -3.56416 -1.23481 0
M  V30 7628 H 725.217 -2.58902 -1.41611 0
M  V30 7629 H 725.298 -2.53386 0.35059 0
M  V30 7630 H 724.942 -5.06131 0.423549 0
M  V30 7631 H 724.872 -5.08832 -1.35639 0
M  V30 7632 H 727.363 -3.73456 -0.577842 0
M  V30 7633 H 727.676 -7.70769 -0.559873 0
M  V30 7634 H 726.021 -6.93123 -0.510441 0
M  V30 7635 H 729.212 -4.63809 -0.632387 0
M  V30 7636 H 729.385 -6.44984 -0.62442 0
M  V30 7637 N 722.791 0.367657 -1.53252 0
M  V30 7638 C 723.701 1.47415 -1.82499 0
M  V30 7639 C 724.717 1.58711 -0.713222 0
M  V30 7640 O 725.893 1.74644 -1.00306 0
M  V30 7641 C 722.958 2.82706 -2.00694 0
M  V30 7642 C 722.019 2.80955 -3.24596 0
M  V30 7643 C 721.252 4.09793 -3.41914 0
M  V30 7644 O 721.475 5.05852 -2.63572 0
M  V30 7645 O 720.409 4.15731 -4.3526 0
M  V30 7646 H 724.235 1.25624 -2.765 0
M  V30 7647 H 721.82 0.557559 -1.38606 0
M  V30 7648 H 723.702 3.62873 -2.14246 0
M  V30 7649 H 722.377 3.04479 -1.09883 0
M  V30 7650 H 721.284 1.99494 -3.16469 0
M  V30 7651 H 722.617 2.64136 -4.15323 0
M  V30 7652 N 724.269 1.44576 0.627338 0
M  V30 7653 C 725.497 1.51048 1.41394 0
M  V30 7654 C 725.912 0.136568 1.88305 0
M  V30 7655 O 725.269 -0.858251 1.6106 0
M  V30 7656 C 725.32 2.47837 2.63172 0
M  V30 7657 O 725.041 3.79887 2.18215 0
M  V30 7658 C 726.542 2.63811 3.56257 0
M  V30 7659 H 723.762 0.512171 0.4335 0
M  V30 7660 H 726.306 1.89576 0.766878 0
M  V30 7661 H 724.461 2.12433 3.23961 0
M  V30 7662 H 724.875 4.32177 2.97192 0
M  V30 7663 H 726.349 3.35554 4.38301 0
M  V30 7664 H 726.826 1.69169 4.05313 0
M  V30 7665 H 727.432 3.0013 3.01333 0
M  V30 7666 N 725.747 -0.868086 1.31537 0
M  V30 7667 C 726.657 -2.00801 1.21311 0
M  V30 7668 C 727.673 -1.73518 0.129431 0
M  V30 7669 O 728.849 -1.98378 0.347588 0
M  V30 7670 C 725.914 -3.3419 0.922935 0
M  V30 7671 C 724.975 -3.74783 2.0937 0
M  V30 7672 C 724.208 -5.01807 1.81728 0
M  V30 7673 O 724.431 -5.65404 0.753313 0
M  V30 7674 O 723.365 -5.39213 2.67457 0
M  V30 7675 H 727.191 -2.12361 2.17109 0
M  V30 7676 H 724.776 -0.996684 1.11295 0
M  V30 7677 H 726.658 -4.14174 0.777033 0
M  V30 7678 H 725.333 -3.237 -0.00500301 0
M  V30 7679 H 724.24 -2.95432 2.29501 0
M  V30 7680 H 725.573 -3.89902 3.00396 0
M  V30 7681 N 727.225 -1.14528 -1.08264 0
M  V30 7682 C 728.473 -0.912599 -1.80322 0
M  V30 7683 C 728.794 0.562256 -1.86718 0
M  V30 7684 O 728.064 1.40869 -1.36135 0
M  V30 7685 H 726.644 -0.334645 -0.667849 0
M  V30 7686 H 729.306 -1.44415 -1.30883 0
M  V30 7687 H 728.402 -1.31384 -2.83098 0
M  V30 7688 N 728.703 1.26451 -0.940633 0
M  V30 7689 C 729.613 2.30128 -0.455881 0
M  V30 7690 C 730.629 1.67536 0.469867 0
M  V30 7691 O 731.805 1.98344 0.349529 0
M  V30 7692 C 728.87 3.45634 0.271648 0
M  V30 7693 C 727.931 4.23709 -0.690594 0
M  V30 7694 C 727.164 5.337 0.00231047 0
M  V30 7695 O 727.387 5.57215 1.21935 0
M  V30 7696 O 726.321 5.98091 -0.676111 0
M  V30 7697 H 730.147 2.73655 -1.31707 0
M  V30 7698 H 727.732 1.3164 -0.706497 0
M  V30 7699 H 729.614 4.15853 0.681486 0
M  V30 7700 H 728.289 3.04138 1.10824 0
M  V30 7701 H 727.196 3.55974 -1.15037 0
M  V30 7702 H 728.529 4.68953 -1.49478 0
M  V30 7703 N 730.181 0.707592 1.40822 0
M  V30 7704 C 731.091 0.0507246 2.34545 0
M  V30 7705 C 732.107 -0.752727 1.56876 0
M  V30 7706 O 733.283 -0.687524 1.89302 0
M  V30 7707 C 730.348 -0.865731 3.35717 0
M  V30 7708 C 729.409 -0.0531313 4.29267 0
M  V30 7709 C 728.642 -0.925939 5.25606 0
M  V30 7710 O 728.865 -2.16531 5.27703 0
M  V30 7711 O 727.799 -0.369194 6.00767 0
M  V30 7712 H 731.625 0.823587 2.9232 0
M  V30 7713 H 729.21 0.46801 1.4188 0
M  V30 7714 H 731.092 -1.39091 3.97783 0
M  V30 7715 H 729.767 -1.61788 2.80368 0
M  V30 7716 H 728.674 0.516931 3.70511 0
M  V30 7717 H 730.007 0.660617 4.87747 0
M  V30 7718 N 731.66 -1.50943 0.453197 0
M  V30 7719 C 732.592 -2.25922 -0.38623 0
M  V30 7720 C 733.605 -1.3055 -0.972652 0
M  V30 7721 O 734.794 -1.56191 -0.864097 0
M  V30 7722 C 731.894 -3.01176 -1.5539 0
M  V30 7723 C 731.067 -4.23768 -1.0835 0
M  V30 7724 C 730.126 -4.81466 -2.12313 0
M  V30 7725 O 729.152 -5.42875 -1.71101 0
M  V30 7726 N 730.354 -4.66889 -3.44956 0
M  V30 7727 H 733.119 -2.98601 0.256468 0
M  V30 7728 H 730.68 -1.59408 0.282965 0
M  V30 7729 H 732.672 -3.36659 -2.24594 0
M  V30 7730 H 731.242 -2.31409 -2.10163 0
M  V30 7731 H 730.462 -3.93597 -0.217961 0
M  V30 7732 H 731.75 -5.03289 -0.746857 0
M  V30 7733 H 731.148 -4.18011 -3.81161 0
M  V30 7734 H 729.705 -5.06691 -4.1001 0
M  V30 7735 N 733.138 -0.185124 -1.56509 0
M  V30 7736 C 734.363 0.465278 -2.02114 0
M  V30 7737 C 734.788 1.55083 -1.06447 0
M  V30 7738 O 734.146 1.81241 -0.0462852 0
M  V30 7739 C 734.194 1.00784 -3.46229 0
M  V30 7740 O 733.298 2.12123 -3.53663 0
M  V30 7741 H 732.639 0.109891 -0.654843 0
M  V30 7742 H 735.169 -0.293072 -2.0249 0
M  V30 7743 H 735.179 1.32697 -3.85818 0
M  V30 7744 H 733.854 0.213113 -4.15354 0
M  V30 7745 H 732.431 1.8115 -3.25943 0
M  V30 7746 N 734.616 1.57351 0.0885366 0
M  V30 7747 C 735.548 1.99221 1.13329 0
M  V30 7748 C 736.561 0.895705 1.35945 0
M  V30 7749 O 737.75 1.17376 1.34481 0
M  V30 7750 C 734.85 2.3016 2.48756 0
M  V30 7751 C 734.023 3.61444 2.46327 0
M  V30 7752 C 733.082 3.80244 3.63732 0
M  V30 7753 O 732.108 4.52024 3.45924 0
M  V30 7754 N 733.31 3.2132 4.8346 0
M  V30 7755 H 736.075 2.89456 0.776862 0
M  V30 7756 H 733.636 1.59505 0.277428 0
M  V30 7757 H 735.628 2.39925 3.25911 0
M  V30 7758 H 734.198 1.459 2.76464 0
M  V30 7759 H 733.418 3.62588 1.54673 0
M  V30 7760 H 734.706 4.47678 2.41789 0
M  V30 7761 H 734.104 2.63028 5.00832 0
M  V30 7762 H 732.661 3.3656 5.58185 0
M  V30 7763 N 736.094 -0.359525 1.53444 0
M  V30 7764 C 737.324 -1.12036 1.73585 0
M  V30 7765 C 737.732 -1.83335 0.467438 0
M  V30 7766 O 737.075 -1.74641 -0.569753 0
M  V30 7767 C 737.137 -2.19036 2.85068 0
M  V30 7768 C 736.801 -1.67451 4.25217 0
M  V30 7769 C 737.798 -1.13534 5.07352 0
M  V30 7770 C 735.483 -1.72781 4.71648 0
M  V30 7771 C 737.477 -0.656321 6.34012 0
M  V30 7772 C 735.164 -1.2449 5.98285 0
M  V30 7773 C 736.162 -0.710068 6.79299 0
M  V30 7774 O 735.85 -0.234314 8.03558 0
M  V30 7775 H 735.582 -0.340662 0.583888 0
M  V30 7776 H 738.136 -0.422452 2.01009 0
M  V30 7777 H 736.366 -2.92338 2.53131 0
M  V30 7778 H 738.055 -2.80559 2.93328 0
M  V30 7779 H 738.821 -1.08751 4.7265 0
M  V30 7780 H 734.7 -2.13351 4.08659 0
M  V30 7781 H 738.244 -0.238193 6.97193 0
M  V30 7782 H 734.141 -1.28969 6.32485 0
M  V30 7783 H 734.909 -0.353084 8.17738 0
M  V30 7784 N 737.572 -1.44907 -0.619662 0
M  V30 7785 C 738.505 -1.47133 -1.74434 0
M  V30 7786 C 739.483 -0.328933 -1.59238 0
M  V30 7787 O 740.667 -0.527632 -1.80965 0
M  V30 7788 C 737.794 -1.31491 -3.12134 0
M  V30 7789 C 736.84 -2.49441 -3.4595 0
M  V30 7790 S 737.673 -4.11945 -3.42142 0
M  V30 7791 C 738.829 -3.98747 -4.82443 0
M  V30 7792 H 739.062 -2.42295 -1.7228 0
M  V30 7793 H 736.595 -1.32343 -0.795276 0
M  V30 7794 H 738.553 -1.23153 -3.91591 0
M  V30 7795 H 737.214 -0.378203 -3.11815 0
M  V30 7796 H 736.407 -2.3439 -4.46181 0
M  V30 7797 H 736.009 -2.54577 -2.73982 0
M  V30 7798 H 738.301 -3.63145 -5.71954 0
M  V30 7799 H 739.244 -4.98848 -5.0255 0
M  V30 7800 H 739.652 -3.30608 -4.57557 0
M  V30 7801 N 739.05 0.861098 -1.31996 0
M  V30 7802 C 740 1.95703 -1.1698 0
M  V30 7803 C 740.984 1.60709 -0.0784201 0
M  V30 7804 O 742.176 1.74365 -0.304262 0
M  V30 7805 C 739.305 3.31606 -0.888388 0
M  V30 7806 C 738.391 3.7284 -2.02117 0
M  V30 7807 N 738.782 3.85957 -3.26911 0
M  V30 7808 C 737.08 4.02419 -1.92289 0
M  V30 7809 C 737.781 4.21333 -4.01065 0
M  V30 7810 N 736.757 4.32502 -3.29307 0
M  V30 7811 H 740.559 2.03968 -2.11599 0
M  V30 7812 H 738.073 1.05245 -1.23682 0
M  V30 7813 H 740.07 4.09881 -0.761782 0
M  V30 7814 H 738.73 3.24662 0.0494898 0
M  V30 7815 H 739.741 3.70449 -3.61923 0
M  V30 7816 H 736.418 4.03814 -1.06022 0
M  V30 7817 H 737.808 4.39005 -5.08649 0
M  V30 7818 N 740.528 1.15101 1.07655 0
M  V30 7819 C 741.774 0.925343 1.80458 0
M  V30 7820 C 742.107 -0.546354 1.86356 0
M  V30 7821 O 741.382 -1.40496 1.34503 0
M  V30 7822 C 741.665 1.53646 3.25676 0
M  V30 7823 C 741.518 3.07854 3.27942 0
M  V30 7824 C 742.837 1.21968 4.22861 0
M  V30 7825 H 739.956 0.337592 0.655134 0
M  V30 7826 H 742.598 1.42217 1.25993 0
M  V30 7827 H 740.748 1.11395 3.72187 0
M  V30 7828 H 742.42 3.58989 2.89697 0
M  V30 7829 H 740.663 3.41904 2.66991 0
M  V30 7830 H 741.334 3.45725 4.30324 0
M  V30 7831 H 743.81 1.5851 3.84726 0
M  V30 7832 H 742.686 1.67349 5.22767 0
M  V30 7833 H 742.947 0.136207 4.4189 0
M  V30 7834 N 742.006 -1.2595 0.947325 0
M  V30 7835 C 743.254 -1.93081 0.596996 0
M  V30 7836 C 743.575 -1.74632 -0.867672 0
M  V30 7837 O 742.845 -1.1056 -1.6172 0
M  V30 7838 H 741.425 -0.714542 0.217805 0
M  V30 7839 H 744.087 -1.53265 1.20398 0
M  V30 7840 H 743.183 -3.01134 0.82004 0
M  V30 7841 N 743.484 -0.715051 -1.40445 0
M  V30 7842 C 744.709 -0.26254 -2.05732 0
M  V30 7843 C 745.134 1.08691 -1.53519 0
M  V30 7844 O 744.492 1.68453 -0.670328 0
M  V30 7845 C 744.54 -0.25195 -3.59719 0
M  V30 7846 O 743.644 0.766998 -4.05205 0
M  V30 7847 H 742.985 -0.123398 -0.652433 0
M  V30 7848 H 745.515 -0.975382 -1.79854 0
M  V30 7849 H 745.525 -0.0894537 -4.07902 0
M  V30 7850 H 744.2 -1.23672 -3.97087 0
M  V30 7851 H 742.777 0.572269 -3.68483 0
M  V30 7852 N 744.962 1.50701 -0.461195 0
M  V30 7853 C 746.202 2.04174 0.0960673 0
M  V30 7854 C 746.566 1.33628 1.37868 0
M  V30 7855 O 747.767 1.77602 2.0177 0
M  V30 7856 C 746.038 3.56256 0.285676 0
M  V30 7857 S 747.597 4.31392 0.802917 0
M  V30 7858 H 744.415 0.710701 0.0206282 0
M  V30 7859 H 747.017 1.85204 -0.62607 0
M  V30 7860 H 745.721 4.05159 -0.653773 0
M  V30 7861 H 745.252 3.79562 1.03421 0
M  V30 7862 H 747.267 4.50611 2.07761 0
M  V30 7863 N 746.441 0.193421 1.56409 0
M  V30 7864 C 747.373 -0.759944 2.16235 0
M  V30 7865 C 748.386 -1.17797 1.12373 0
M  V30 7866 O 749.575 -1.11399 1.39472 0
M  V30 7867 C 746.675 -2.03735 2.70823 0
M  V30 7868 C 745.848 -1.77939 3.9957 0
M  V30 7869 C 744.907 -2.90111 4.39001 0
M  V30 7870 O 743.933 -2.59791 5.06456 0
M  V30 7871 N 745.135 -4.18426 4.02368 0
M  V30 7872 H 747.9 -0.248348 2.98669 0
M  V30 7873 H 745.461 0.0113966 1.61896 0
M  V30 7874 H 747.453 -2.77914 2.94187 0
M  V30 7875 H 746.023 -2.46022 1.92852 0
M  V30 7876 H 745.243 -0.875491 3.84355 0
M  V30 7877 H 746.531 -1.58099 4.83614 0
M  V30 7878 H 745.929 -4.45913 3.48106 0
M  V30 7879 H 744.486 -4.89237 4.30686 0
M  V30 7880 N 747.919 -1.57396 -0.0801906 0
M  V30 7881 C 748.869 -1.9955 -1.10289 0
M  V30 7882 C 749.853 -0.876234 -1.34948 0
M  V30 7883 O 751.045 -1.14012 -1.35389 0
M  V30 7884 C 748.174 -2.43596 -2.419 0
M  V30 7885 C 747.26 -3.6224 -2.20551 0
M  V30 7886 N 747.651 -4.76693 -1.69109 0
M  V30 7887 C 745.949 -3.68627 -2.51059 0
M  V30 7888 C 746.65 -5.58577 -1.62379 0
M  V30 7889 N 745.626 -5.02178 -2.0813 0
M  V30 7890 H 749.428 -2.85483 -0.698335 0
M  V30 7891 H 746.942 -1.59837 -0.287395 0
M  V30 7892 H 748.939 -2.72031 -3.15919 0
M  V30 7893 H 747.599 -1.59047 -2.8308 0
M  V30 7894 H 748.61 -4.9915 -1.38092 0
M  V30 7895 H 745.287 -2.94772 -2.95661 0
M  V30 7896 H 746.677 -6.60447 -1.2353 0
M  V30 7897 N 749.397 0.351382 -1.53633 0
M  V30 7898 C 750.327 1.43688 -1.84055 0
M  V30 7899 C 751.308 1.55251 -0.695073 0
M  V30 7900 O 752.493 1.69587 -0.946257 0
M  V30 7901 C 749.623 2.80843 -2.04315 0
M  V30 7902 C 748.577 2.84094 -3.20117 0
M  V30 7903 C 747.903 4.2406 -3.25696 0
M  V30 7904 C 749.203 2.50334 -4.58399 0
M  V30 7905 H 750.897 1.18478 -2.74961 0
M  V30 7906 H 748.443 0.568509 -1.32303 0
M  V30 7907 H 750.396 3.56821 -2.2418 0
M  V30 7908 H 749.12 3.07471 -1.10132 0
M  V30 7909 H 747.779 2.10568 -3.00094 0
M  V30 7910 H 747.427 4.47785 -2.29123 0
M  V30 7911 H 747.127 4.27147 -4.03509 0
M  V30 7912 H 748.651 5.0189 -3.47762 0
M  V30 7913 H 750.065 3.16025 -4.78332 0
M  V30 7914 H 748.462 2.64717 -5.38558 0
M  V30 7915 H 749.532 1.45542 -4.62543 0
M  V30 7916 N 750.875 1.45233 0.611969 0
M  V30 7917 C 752.1 1.52767 1.40274 0
M  V30 7918 C 752.525 0.159701 1.87421 0
M  V30 7919 O 751.883 -0.854837 1.59882 0
M  V30 7920 C 751.931 2.51286 2.58626 0
M  V30 7921 O 751.035 2.02764 3.59111 0
M  V30 7922 H 750.376 0.515141 0.418958 0
M  V30 7923 H 752.906 1.90547 0.745188 0
M  V30 7924 H 752.916 2.69949 3.05927 0
M  V30 7925 H 751.591 3.50641 2.23659 0
M  V30 7926 H 750.168 1.93957 3.18489 0
M  V30 7927 N 752.353 -0.854086 1.3245 0
M  V30 7928 C 753.578 -1.64597 1.26185 0
M  V30 7929 C 754.003 -1.87357 -0.167074 0
M  V30 7930 O 753.361 -1.42675 -1.11864 0
M  V30 7931 C 753.409 -2.98213 2.02734 0
M  V30 7932 O 752.513 -3.88784 1.37554 0
M  V30 7933 H 751.854 -0.50179 0.434859 0
M  V30 7934 H 754.384 -1.06372 1.74775 0
M  V30 7935 H 754.394 -3.4803 2.1293 0
M  V30 7936 H 753.069 -2.80969 3.06642 0
M  V30 7937 H 751.646 -3.4725 1.3591 0
M  V30 7938 N 753.831 -1.1567 -1.07043 0
M  V30 7939 C 755.056 -0.957946 -1.83952 0
M  V30 7940 C 755.481 0.488807 -1.81638 0
M  V30 7941 O 754.839 1.34869 -1.21162 0
M  V30 7942 C 754.887 -1.48064 -3.288 0
M  V30 7943 O 753.991 -0.681921 -4.06723 0
M  V30 7944 H 753.332 -0.341453 -0.569479 0
M  V30 7945 H 755.862 -1.53728 -1.35015 0
M  V30 7946 H 755.872 -1.49484 -3.7963 0
M  V30 7947 H 754.547 -2.53388 -3.29799 0
M  V30 7948 H 753.124 -0.737612 -3.65532 0
M  V30 7949 N 755.309 1.25446 -0.953992 0
M  V30 7950 C 756.272 2.24156 -0.478179 0
M  V30 7951 C 757.272 1.55278 0.417776 0
M  V30 7952 O 758.462 1.72866 0.215155 0
M  V30 7953 C 755.594 3.39495 0.309202 0
M  V30 7954 H 756.787 2.67764 -1.35064 0
M  V30 7955 H 754.34 1.37822 -0.737206 0
M  V30 7956 H 755.075 3.01307 1.19936 0
M  V30 7957 H 754.86 3.90679 -0.333562 0
M  V30 7958 H 756.35 4.12796 0.631594 0
M  V30 7959 N 756.787 0.722489 1.40064 0
M  V30 7960 C 757.697 0.0755984 2.34478 0
M  V30 7961 C 758.713 -0.736046 1.57665 0
M  V30 7962 O 759.889 -0.667407 1.9002 0
M  V30 7963 C 756.954 -0.830075 3.36616 0
M  V30 7964 C 756.015 -0.00759884 4.29299 0
M  V30 7965 C 755.248 -0.870139 5.26559 0
M  V30 7966 O 755.471 -2.10921 5.2997 0
M  V30 7967 O 754.405 -0.305454 6.01124 0
M  V30 7968 H 758.231 0.854545 2.9143 0
M  V30 7969 H 755.816 0.483032 1.41376 0
M  V30 7970 H 757.698 -1.34864 3.99236 0
M  V30 7971 H 756.373 -1.58805 2.82069 0
M  V30 7972 H 755.28 0.556199 3.69942 0
M  V30 7973 H 756.613 0.712312 4.87018 0
M  V30 7974 N 758.265 -1.50454 0.469181 0
M  V30 7975 C 759.175 -2.32248 -0.331349 0
M  V30 7976 C 760.191 -1.42548 -0.997807 0
M  V30 7977 O 761.367 -1.75602 -0.9862 0
M  V30 7978 C 758.432 -3.17171 -1.40012 0
M  V30 7979 C 757.493 -4.2269 -0.750463 0
M  V30 7980 C 756.726 -5.03554 -1.76831 0
M  V30 7981 O 756.949 -4.85469 -2.99459 0
M  V30 7982 O 755.883 -5.86767 -1.3412 0
M  V30 7983 H 759.709 -3.01821 0.337279 0
M  V30 7984 H 757.294 -1.47602 0.231066 0
M  V30 7985 H 759.176 -3.69871 -2.01924 0
M  V30 7986 H 757.851 -2.50328 -2.05226 0
M  V30 7987 H 756.758 -3.73986 -0.0924446 0
M  V30 7988 H 758.091 -4.91997 -0.14131 0
M  V30 7989 N 759.743 -0.201713 -1.56304 0
M  V30 7990 C 760.673 0.71155 -2.22394 0
M  V30 7991 C 761.654 1.21625 -1.18917 0
M  V30 7992 O 762.839 1.26388 -1.47444 0
M  V30 7993 C 759.969 1.92837 -2.88845 0
M  V30 7994 C 758.923 1.55831 -3.98623 0
M  V30 7995 C 758.249 2.85228 -4.52271 0
M  V30 7996 C 759.549 0.763249 -5.16693 0
M  V30 7997 H 761.243 0.160573 -2.98969 0
M  V30 7998 H 758.789 0.0757916 -1.438 0
M  V30 7999 H 760.742 2.57253 -3.33764 0
M  V30 8000 H 759.466 2.50398 -2.09686 0
M  V30 8001 H 758.125 0.9377 -3.54405 0
M  V30 8002 H 757.773 3.40893 -3.69866 0
M  V30 8003 H 757.473 2.6121 -5.26349 0
M  V30 8004 H 758.997 3.50622 -4.99897 0
M  V30 8005 H 760.411 1.31066 -5.58117 0
M  V30 8006 H 758.808 0.620935 -5.96879 0
M  V30 8007 H 759.878 -0.234322 -4.84334 0
M  V30 8008 N 761.222 1.57436 0.0718424 0
M  V30 8009 C 762.638 1.53792 0.426628 0
M  V30 8010 C 762.838 0.921887 1.79174 0
M  V30 8011 O 761.894 0.524374 2.46995 0
M  V30 8012 C 763.207 2.98443 0.367739 0
M  V30 8013 C 764.755 3.09778 0.447928 0
M  V30 8014 C 765.23 4.5608 0.418946 0
M  V30 8015 N 766.721 4.60716 0.479022 0
M  V30 8016 C 767.456 5.71397 0.47881 0
M  V30 8017 N 766.952 6.91443 0.433417 0
M  V30 8018 N 768.745 5.59639 0.525364 0
M  V30 8019 H 760.896 1.95848 -0.822033 0
M  V30 8020 H 763.159 0.896418 -0.308447 0
M  V30 8021 H 762.865 3.47072 -0.56865 0
M  V30 8022 H 762.739 3.58335 1.17795 0
M  V30 8023 H 765.126 2.61122 1.37474 0
M  V30 8024 H 765.207 2.52796 -0.390857 0
M  V30 8025 H 764.851 5.05393 -0.504016 0
M  V30 8026 H 764.781 5.10925 1.27526 0
M  V30 8027 H 767.272 3.74328 0.518355 0
M  V30 8028 H 767.585 7.71562 0.43718 0
M  V30 8029 H 765.93 6.93847 0.400106 0
M  V30 8030 H 769.121 4.64756 0.558519 0
M  V30 8031 H 769.294 6.45896 0.52173 0
M  V30 8032 N 762.7 -0.34323 1.53817 0
M  V30 8033 C 763.647 -1.42153 1.81827 0
M  V30 8034 C 764.617 -1.52251 0.663996 0
M  V30 8035 O 765.802 -1.67784 0.908461 0
M  V30 8036 C 762.942 -2.78799 2.03384 0
M  V30 8037 C 762.055 -2.7749 3.31094 0
M  V30 8038 C 761.19 -4.05856 3.42717 0
M  V30 8039 C 760.229 -3.98776 4.64375 0
M  V30 8040 N 759.366 -5.18833 4.73029 0
M  V30 8041 H 764.206 -1.17567 2.73829 0
M  V30 8042 H 761.743 -0.569506 1.35628 0
M  V30 8043 H 763.701 -3.58211 2.13872 0
M  V30 8044 H 762.331 -3.01736 1.14696 0
M  V30 8045 H 761.383 -1.90182 3.29446 0
M  V30 8046 H 762.695 -2.68137 4.206 0
M  V30 8047 H 761.849 -4.93691 3.52638 0
M  V30 8048 H 760.588 -4.1799 2.51267 0
M  V30 8049 H 759.593 -3.09325 4.5453 0
M  V30 8050 H 760.818 -3.88224 5.57189 0
M  V30 8051 H 758.764 -5.31511 3.84489 0
M  V30 8052 H 758.681 -5.11737 5.56472 0
M  V30 8053 H 759.949 -6.08439 4.87261 0
M  V30 8054 N 764.178 -1.45556 -0.604258 0
M  V30 8055 C 765.141 -1.54091 -1.69672 0
M  V30 8056 C 766.141 -0.420076 -1.55216 0
M  V30 8057 O 767.331 -0.683671 -1.60224 0
M  V30 8058 C 764.463 -1.44063 -3.08964 0
M  V30 8059 H 765.656 -2.51431 -1.6347 0
M  V30 8060 H 763.209 -1.33046 -0.820273 0
M  V30 8061 H 763.944 -0.479201 -3.2074 0
M  V30 8062 H 763.729 -2.25362 -3.20865 0
M  V30 8063 H 765.219 -1.53075 -3.88533 0
M  V30 8064 N 765.656 0.84705 -1.32902 0
M  V30 8065 C 767.072 1.13645 -1.12058 0
M  V30 8066 C 767.272 2.01281 0.093937 0
M  V30 8067 O 766.328 2.4026 0.776608 0
M  V30 8068 C 767.641 1.80644 -2.40392 0
M  V30 8069 C 769.189 1.93246 -2.46221 0
M  V30 8070 C 769.664 2.6366 -3.74496 0
M  V30 8071 N 771.155 2.71179 -3.75521 0
M  V30 8072 C 771.89 3.26332 -4.71482 0
M  V30 8073 N 771.386 3.82236 -5.77813 0
M  V30 8074 N 773.179 3.24507 -4.58968 0
M  V30 8075 H 765.33 0.263612 -2.10758 0
M  V30 8076 H 767.593 0.17944 -0.930863 0
M  V30 8077 H 767.299 1.23708 -3.29225 0
M  V30 8078 H 767.173 2.80736 -2.51926 0
M  V30 8079 H 769.56 2.49338 -1.57843 0
M  V30 8080 H 769.641 0.921272 -2.38634 0
M  V30 8081 H 769.285 2.08229 -4.63253 0
M  V30 8082 H 769.215 3.65234 -3.79357 0
M  V30 8083 H 771.706 2.31527 -2.9867 0
M  V30 8084 H 772.019 4.22499 -6.47082 0
M  V30 8085 H 770.364 3.80546 -5.81558 0
M  V30 8086 H 773.555 2.80085 -3.7506 0
M  V30 8087 H 773.728 3.67188 -5.33926 0
M  V30 8088 N 767.134 1.16236 1.06428 0
M  V30 8089 C 768.359 0.967688 1.83441 0
M  V30 8090 C 768.784 -0.479167 1.81894 0
M  V30 8091 O 768.142 -1.34224 1.21875 0
M  V30 8092 C 768.19 1.49806 3.2801 0
M  V30 8093 O 767.294 0.703481 4.06356 0
M  V30 8094 H 766.635 0.344468 0.56766 0
M  V30 8095 H 769.165 1.54442 1.34197 0
M  V30 8096 H 769.175 1.51495 3.78831 0
M  V30 8097 H 767.85 2.55133 3.2845 0
M  V30 8098 H 766.427 0.756986 3.65136 0
M  V30 8099 N 768.612 -1.24939 0.960631 0
M  V30 8100 C 769.56 -2.27659 0.47686 0
M  V30 8101 C 770.554 -1.63148 -0.455961 0
M  V30 8102 O 771.76 -1.76911 -0.332029 0
M  V30 8103 H 768.135 -0.739651 0.135723 0
M  V30 8104 H 770.106 -2.65844 1.35534 0
M  V30 8105 C 768.855 -3.46976 -0.224191 0
M  V30 8106 H 768.178 -3.96854 0.484471 0
M  V30 8107 H 769.618 -4.20717 -0.526615 0
M  V30 8108 C 768.077 -3.04159 -1.44876 0
M  V30 8109 O 768.607 -3.10697 -2.54618 0
M  V30 8110 N 766.813 -2.59284 -1.31226 0
M  V30 8111 H 766.36 -2.54164 -0.419361 0
M  V30 8112 H 766.318 -2.31 -2.13275 0
M  V30 8113 N 770.09 -0.729906 -1.39679 0
M  V30 8114 C 771.315 -0.284345 -2.05442 0
M  V30 8115 C 771.74 1.07056 -1.54663 0
M  V30 8116 O 771.098 1.67732 -0.688157 0
M  V30 8117 C 771.146 -0.290089 -3.59431 0
M  V30 8118 O 770.25 0.723978 -4.05995 0
M  V30 8119 H 769.591 -0.130311 -0.651088 0
M  V30 8120 H 772.121 -0.994403 -1.78809 0
M  V30 8121 H 772.131 -0.132712 -4.07784 0
M  V30 8122 H 770.806 -1.27877 -3.95753 0
M  V30 8123 H 769.383 0.533154 -3.69069 0
M  V30 8124 N 771.568 1.50203 -0.477153 0
M  V30 8125 C 772.796 2.0677 0.0732489 0
M  V30 8126 C 773.211 1.34033 1.32968 0
M  V30 8127 O 772.568 0.411412 1.77802 0
M  V30 8128 C 772.619 3.59751 0.35518 0
M  V30 8129 O 772.34 4.29747 -0.851425 0
M  V30 8130 C 773.841 4.3296 0.951877 0
M  V30 8131 H 771.061 0.670929 -0.00978923 0
M  V30 8132 H 773.605 1.93293 -0.667676 0
M  V30 8133 H 771.76 3.7301 1.04605 0
M  V30 8134 H 772.174 5.2106 -0.599708 0
M  V30 8135 H 773.648 5.40952 1.09888 0
M  V30 8136 H 774.125 3.93856 1.94356 0
M  V30 8137 H 774.731 4.24246 0.299208 0
M  V30 8138 N 773.046 0.209999 1.56195 0
M  V30 8139 C 773.976 -0.699746 2.22769 0
M  V30 8140 C 774.957 -1.20993 1.1956 0
M  V30 8141 O 776.142 -1.25605 1.48112 0
M  V30 8142 C 773.272 -1.91302 2.89863 0
M  V30 8143 C 772.226 -1.53715 3.99444 0
M  V30 8144 C 771.552 -2.82826 4.53777 0
M  V30 8145 C 772.852 -0.735836 5.17091 0
M  V30 8146 H 774.546 -0.144716 2.9905 0
M  V30 8147 H 772.092 -0.0681645 1.43839 0
M  V30 8148 H 774.045 -2.5548 3.35124 0
M  V30 8149 H 772.769 -2.49283 2.11011 0
M  V30 8150 H 771.428 -0.918892 3.54897 0
M  V30 8151 H 771.076 -3.38927 3.71669 0
M  V30 8152 H 770.776 -2.58415 5.27727 0
M  V30 8153 H 772.3 -3.47966 5.01749 0
M  V30 8154 H 773.714 -1.28105 5.58804 0
M  V30 8155 H 772.111 -0.589272 5.972 0
M  V30 8156 H 773.181 0.260004 4.84202 0
M  V30 8157 N 774.524 -1.57472 -0.0634922 0
M  V30 8158 C 775.749 -1.92273 -0.77756 0
M  V30 8159 C 776.174 -0.807141 -1.69902 0
M  V30 8160 O 775.532 0.239523 -1.79711 0
M  V30 8161 C 775.58 -3.26054 -1.54017 0
M  V30 8162 O 774.684 -3.15873 -2.65138 0
M  V30 8163 H 774.025 -0.629389 -0.211579 0
M  V30 8164 H 776.555 -2.04579 -0.0292523 0
M  V30 8165 H 776.565 -3.60127 -1.91763 0
M  V30 8166 H 775.24 -4.06824 -0.864128 0
M  V30 8167 H 773.817 -2.93373 -2.30189 0
M  V30 8168 N 776.003 0.335068 -1.53997 0
M  V30 8169 C 776.95 1.41187 -1.82579 0
M  V30 8170 C 777.92 1.51897 -0.672061 0
M  V30 8171 O 779.105 1.673 -0.917346 0
M  V30 8172 C 776.245 2.77717 -2.0486 0
M  V30 8173 C 775.358 2.7573 -3.32561 0
M  V30 8174 C 774.493 4.04032 -3.44864 0
M  V30 8175 C 773.532 3.96308 -4.66483 0
M  V30 8176 N 772.669 5.16317 -4.75774 0
M  V30 8177 H 777.509 1.16113 -2.74448 0
M  V30 8178 H 775.046 0.562305 -1.35928 0
M  V30 8179 H 777.004 3.57071 -2.15768 0
M  V30 8180 H 775.634 3.01124 -1.16294 0
M  V30 8181 H 774.686 1.88432 -3.3045 0
M  V30 8182 H 775.998 2.65902 -4.22016 0
M  V30 8183 H 775.152 4.91814 -3.55251 0
M  V30 8184 H 773.891 4.16652 -2.53481 0
M  V30 8185 H 772.896 3.06911 -4.56164 0
M  V30 8186 H 774.121 3.85263 -5.5924 0
M  V30 8187 H 772.067 5.29464 -3.87303 0
M  V30 8188 H 771.984 5.08779 -5.59178 0
M  V30 8189 H 773.252 6.05846 -4.9048 0
M  V30 8190 N 777.481 1.45874 0.596531 0
M  V30 8191 C 778.706 1.54247 1.38646 0
M  V30 8192 C 779.131 0.179571 1.87241 0
M  V30 8193 O 778.489 -0.837831 1.6078 0
M  V30 8194 C 778.537 2.54015 2.55946 0
M  V30 8195 O 777.641 2.06561 3.5694 0
M  V30 8196 H 776.982 0.519555 0.413471 0
M  V30 8197 H 779.512 1.91327 0.724936 0
M  V30 8198 H 779.522 2.73179 3.03047 0
M  V30 8199 H 778.197 3.52994 2.19928 0
M  V30 8200 H 776.774 1.97324 3.16414 0
M  V30 8201 N 778.959 -0.83999 1.33349 0
M  V30 8202 C 779.869 -1.98182 1.25543 0
M  V30 8203 C 780.885 -1.73204 0.166208 0
M  V30 8204 O 782.061 -1.97596 0.389589 0
M  V30 8205 C 779.126 -3.32157 0.993614 0
M  V30 8206 C 778.187 -3.70258 2.17273 0
M  V30 8207 C 777.42 -4.9784 1.92331 0
M  V30 8208 O 777.643 -5.63679 0.873074 0
M  V30 8209 O 776.577 -5.33418 2.78835 0
M  V30 8210 H 780.403 -2.07708 2.21565 0
M  V30 8211 H 777.988 -0.972852 1.13384 0
M  V30 8212 H 779.87 -4.12433 0.864711 0
M  V30 8213 H 778.545 -3.23637 0.0636596 0
M  V30 8214 H 777.452 -2.90497 2.35716 0
M  V30 8215 H 778.785 -3.83442 3.08598 0
M  V30 8216 N 780.437 -1.16799 -1.0581 0
M  V30 8217 C 781.667 -0.975454 -1.82122 0
M  V30 8218 C 782.075 0.479584 -1.83021 0
M  V30 8219 O 781.418 1.34471 -1.25153 0
M  V30 8220 C 781.48 -1.43209 -3.29744 0
M  V30 8221 C 781.144 -2.908 -3.5254 0
M  V30 8222 C 782.141 -3.88775 -3.45181 0
M  V30 8223 C 779.826 -3.28832 -3.79703 0
M  V30 8224 C 781.82 -5.22782 -3.64661 0
M  V30 8225 C 779.507 -4.63007 -3.98832 0
M  V30 8226 C 780.505 -5.59791 -3.91309 0
M  V30 8227 O 780.193 -6.9154 -4.09911 0
M  V30 8228 H 779.925 -0.345655 -0.580947 0
M  V30 8229 H 782.479 -1.55355 -1.34365 0
M  V30 8230 H 780.709 -0.797504 -3.78387 0
M  V30 8231 H 782.398 -1.2062 -3.87564 0
M  V30 8232 H 783.164 -3.60738 -3.2418 0
M  V30 8233 H 779.043 -2.54073 -3.84666 0
M  V30 8234 H 782.587 -5.98312 -3.58705 0
M  V30 8235 H 778.484 -4.90752 -4.19324 0
M  V30 8236 H 779.252 -6.98188 -4.27172 0
M  V30 8237 N 781.915 1.24427 -0.967243 0
M  V30 8238 C 782.848 2.23885 -0.441683 0
M  V30 8239 C 783.826 1.55231 0.483963 0
M  V30 8240 O 785.01 1.83865 0.415445 0
M  V30 8241 C 782.137 3.36755 0.362458 0
M  V30 8242 C 781.183 4.23495 -0.505407 0
M  V30 8243 S 782.016 4.98916 -1.94534 0
M  V30 8244 C 783.172 6.15245 -1.14997 0
M  V30 8245 H 783.405 2.68118 -1.28453 0
M  V30 8246 H 780.938 1.337 -0.772243 0
M  V30 8247 H 782.896 4.02218 0.820445 0
M  V30 8248 H 781.557 2.91081 1.18027 0
M  V30 8249 H 780.75 5.03876 0.111979 0
M  V30 8250 H 780.352 3.63032 -0.899104 0
M  V30 8251 H 782.644 6.7629 -0.404769 0
M  V30 8252 H 783.587 6.81343 -1.92814 0
M  V30 8253 H 783.995 5.60455 -0.674543 0
M  V30 8254 N 783.393 0.737304 1.3929 0
M  V30 8255 C 784.639 0.286681 2.00763 0
M  V30 8256 C 784.972 -1.12388 1.58375 0
M  V30 8257 O 784.247 -1.76661 0.813699 0
M  V30 8258 C 784.53 0.391147 3.57969 0
M  V30 8259 C 784.383 1.84165 4.1037 0
M  V30 8260 C 785.702 -0.225072 4.39524 0
M  V30 8261 H 782.821 0.105642 0.729389 0
M  V30 8262 H 785.463 0.933892 1.65464 0
M  V30 8263 H 783.613 -0.159875 3.88171 0
M  V30 8264 H 785.285 2.44972 3.90879 0
M  V30 8265 H 783.528 2.3622 3.63844 0
M  V30 8266 H 784.199 1.866 5.19504 0
M  V30 8267 H 786.675 0.244677 4.1538 0
M  V30 8268 H 785.551 -0.121646 5.48765 0
M  V30 8269 H 785.812 -1.31141 4.22202 0
M  V30 8270 N 784.871 -1.49948 0.485112 0
M  V30 8271 C 786.12 -2.01589 -0.066765 0
M  V30 8272 C 786.433 -1.371 -1.39509 0
M  V30 8273 O 787.639 -1.79978 -2.03274 0
M  V30 8274 C 786.095 -3.59501 -0.169476 0
M  V30 8275 C 785.703 -4.32955 1.15126 0
M  V30 8276 C 787.447 -4.19138 -0.672564 0
M  V30 8277 C 785.354 -5.82684 1.01158 0
M  V30 8278 H 784.284 -0.753453 -0.0287259 0
M  V30 8279 H 786.935 -1.72632 0.622132 0
M  V30 8280 H 785.317 -3.85106 -0.922471 0
M  V30 8281 H 786.491 -4.19064 1.9163 0
M  V30 8282 H 784.806 -3.84991 1.58654 0
M  V30 8283 H 787.403 -5.28767 -0.794325 0
M  V30 8284 H 787.746 -3.81447 -1.66745 0
M  V30 8285 H 788.279 -3.97793 0.0234415 0
M  V30 8286 H 785.018 -6.24873 1.98025 0
M  V30 8287 H 784.538 -5.99112 0.287151 0
M  V30 8288 H 786.217 -6.43376 0.683847 0
M  V30 8289 N 786.349 -0.21828 -1.56081 0
M  V30 8290 C 787.259 0.704602 -2.23769 0
M  V30 8291 C 788.275 1.21633 -1.24425 0
M  V30 8292 O 789.451 1.25862 -1.57228 0
M  V30 8293 C 786.516 1.89725 -2.90182 0
M  V30 8294 C 785.577 1.42782 -4.0486 0
M  V30 8295 C 784.81 2.56361 -4.68097 0
M  V30 8296 O 785.033 3.74417 -4.30312 0
M  V30 8297 O 783.967 2.2775 -5.57148 0
M  V30 8298 H 787.793 0.158007 -3.03289 0
M  V30 8299 H 785.378 0.0120279 -1.49395 0
M  V30 8300 H 787.26 2.59382 -3.32113 0
M  V30 8301 H 785.935 2.432 -2.13624 0
M  V30 8302 H 784.842 0.699359 -3.67505 0
M  V30 8303 H 786.175 0.939474 -4.83151 0
M  V30 8304 N 787.827 1.57504 0.0551401 0
M  V30 8305 C 788.737 2.08198 1.08124 0
M  V30 8306 C 789.753 1.01496 1.41331 0
M  V30 8307 O 790.929 1.33073 1.51174 0
M  V30 8308 C 787.994 2.52968 2.37083 0
M  V30 8309 C 787.055 3.7404 2.10696 0
M  V30 8310 C 786.288 4.16665 3.33505 0
M  V30 8311 O 786.511 3.59019 4.4324 0
M  V30 8312 O 785.445 5.09324 3.20737 0
M  V30 8313 H 789.271 2.95977 0.680518 0
M  V30 8314 H 786.856 1.46933 0.270401 0
M  V30 8315 H 788.738 2.82211 3.12946 0
M  V30 8316 H 787.413 1.6831 2.76502 0
M  V30 8317 H 786.32 3.49855 1.32484 0
M  V30 8318 H 787.653 4.59601 1.76148 0
M  V30 8319 N 789.305 -0.326896 1.54172 0
M  V30 8320 C 790.553 -1.06313 1.71878 0
M  V30 8321 C 790.874 -1.88652 0.493498 0
M  V30 8322 O 790.144 -1.89608 -0.492522 0
M  V30 8323 H 788.724 -0.39549 0.633716 0
M  V30 8324 H 791.386 -0.364139 1.91468 0
M  V30 8325 H 790.482 -1.73105 2.59694 0
M  V30 8326 N 790.784 -1.46188 -0.588786 0
M  V30 8327 C 792.032 -1.50885 -1.34455 0
M  V30 8328 C 792.353 -0.159555 -1.94346 0
M  V30 8329 O 791.623 0.813239 -1.78222 0
M  V30 8330 H 790.203 -0.555707 -0.499198 0
M  V30 8331 H 792.865 -1.82277 -0.690014 0
M  V30 8332 H 791.961 -2.25816 -2.15438 0
M  V30 8333 N 792.262 0.832906 -1.33792 0
M  V30 8334 C 793.195 1.94788 -1.18882 0
M  V30 8335 C 794.173 1.62389 -0.0828426 0
M  V30 8336 O 795.357 1.86886 -0.246175 0
M  V30 8337 C 792.484 3.28506 -0.824728 0
M  V30 8338 C 791.53 3.79872 -1.93905 0
M  V30 8339 S 792.363 4.00832 -3.55097 0
M  V30 8340 C 793.519 5.37492 -3.20708 0
M  V30 8341 H 793.752 2.07137 -2.13264 0
M  V30 8342 H 791.285 0.987362 -1.18704 0
M  V30 8343 H 793.243 4.05769 -0.621442 0
M  V30 8344 H 791.904 3.13939 0.100587 0
M  V30 8345 H 791.097 4.76647 -1.6378 0
M  V30 8346 H 790.699 3.09524 -2.09931 0
M  V30 8347 H 792.991 6.20544 -2.71903 0
M  V30 8348 H 793.934 5.72593 -4.16584 0
M  V30 8349 H 794.342 5.02529 -2.57148 0
M  V30 8350 N 793.74 1.17359 1.05189 0
M  V30 8351 C 794.688 0.886527 2.15043 0
M  V30 8352 C 795.682 -0.148834 1.68745 0
M  V30 8353 O 796.888 -0.00175123 1.8 0
M  V30 8354 H 793.263 0.269147 0.702185 0
M  V30 8355 H 795.234 1.82016 2.36459 0
M  V30 8356 C 793.983 0.416333 3.45198 0
M  V30 8357 H 793.306 1.20449 3.81225 0
M  V30 8358 H 794.746 0.254362 4.23236 0
M  V30 8359 C 793.205 -0.866016 3.25579 0
M  V30 8360 O 793.735 -1.9328 3.52144 0
M  V30 8361 N 791.941 -0.814179 2.78961 0
M  V30 8362 H 791.488 0.0541618 2.57543 0
M  V30 8363 H 791.446 -1.67264 2.66214 0
M  V30 8364 N 795.218 -1.23913 0.973828 0
M  V30 8365 C 796.168 -2.22892 0.479933 0
M  V30 8366 C 797.152 -1.54726 -0.441434 0
M  V30 8367 O 798.344 -1.74908 -0.271358 0
M  V30 8368 C 795.473 -3.42577 -0.222702 0
M  V30 8369 C 794.559 -4.17981 0.717851 0
M  V30 8370 N 794.95 -4.7045 1.8577 0
M  V30 8371 C 793.248 -4.42841 0.529858 0
M  V30 8372 C 793.949 -5.27751 2.44651 0
M  V30 8373 N 792.925 -5.15302 1.73104 0
M  V30 8374 H 796.727 -2.61083 1.34956 0
M  V30 8375 H 794.241 -1.39368 0.83368 0
M  V30 8376 H 796.238 -4.1265 -0.593793 0
M  V30 8377 H 794.898 -3.05904 -1.0887 0
M  V30 8378 H 795.909 -4.66997 2.23908 0
M  V30 8379 H 792.586 -4.1648 -0.291664 0
M  V30 8380 H 793.976 -5.79011 3.40875 0
M  V30 8381 N 796.696 -0.74468 -1.38897 0
M  V30 8382 C 797.921 -0.306119 -2.05128 0
M  V30 8383 C 798.346 1.0541 -1.55789 0
M  V30 8384 O 797.704 1.66993 -0.705909 0
M  V30 8385 C 797.752 -0.328195 -3.59103 0
M  V30 8386 O 796.856 0.680876 -4.06741 0
M  V30 8387 H 796.197 -0.137209 -0.649669 0
M  V30 8388 H 798.727 -1.01331 -1.77745 0
M  V30 8389 H 798.737 -0.175956 -4.0762 0
M  V30 8390 H 797.412 -1.32067 -3.94374 0
M  V30 8391 H 795.989 0.49398 -3.69614 0
M  V30 8392 N 798.174 1.49689 -0.493057 0
M  V30 8393 C 799.137 2.27502 0.278485 0
M  V30 8394 C 800.137 1.33184 0.901037 0
M  V30 8395 O 801.327 1.56415 0.766801 0
M  V30 8396 C 798.459 3.10881 1.39878 0
M  V30 8397 H 799.652 2.97163 -0.404219 0
M  V30 8398 H 797.205 1.54324 -0.247774 0
M  V30 8399 H 797.94 2.45767 2.11587 0
M  V30 8400 H 797.725 3.80219 0.957924 0
M  V30 8401 H 799.215 3.69673 1.94247 0
M  V30 8402 N 799.652 0.226554 1.55963 0
M  V30 8403 C 800.899 -0.403789 1.98433 0
M  V30 8404 C 801.227 -1.59416 1.1143 0
M  V30 8405 O 800.482 -1.95042 0.160389 0
M  V30 8406 C 800.781 -0.87642 3.46488 0
M  V30 8407 C 800.447 0.203973 4.50438 0
M  V30 8408 C 799.109 0.500754 4.78587 0
M  V30 8409 C 801.461 0.934396 5.12756 0
M  V30 8410 C 798.789 1.53239 5.66334 0
M  V30 8411 C 801.141 1.9554 6.0162 0
M  V30 8412 C 799.805 2.25905 6.28111 0
M  V30 8413 H 799.075 -0.147757 0.726119 0
M  V30 8414 H 801.722 0.330121 1.88633 0
M  V30 8415 H 800.027 -1.68918 3.53517 0
M  V30 8416 H 801.724 -1.37407 3.76723 0
M  V30 8417 H 798.314 -0.0374917 4.28584 0
M  V30 8418 H 802.498 0.718355 4.91074 0
M  V30 8419 H 797.754 1.77321 5.85122 0
M  V30 8420 H 801.928 2.52642 6.48957 0
M  V30 8421 H 799.555 3.05985 6.959 0
M  V30 8422 N 801.13 -1.57531 -0.0467866 0
M  V30 8423 C 802.541 -1.76945 -0.595603 0
M  V30 8424 C 802.892 -0.855354 -1.76573 0
M  V30 8425 O 802.017 -0.045668 -2.16352 0
M  V30 8426 C 802.612 -3.20881 -1.08725 0
M  V30 8427 C 801.171 -3.41553 -1.58172 0
M  V30 8428 C 800.318 -2.72533 -0.511968 0
M  V30 8429 H 803.269 -1.57682 0.179436 0
M  V30 8430 H 803.29 -3.26419 -1.95528 0
M  V30 8431 H 802.802 -3.87385 -0.235398 0
M  V30 8432 H 800.903 -2.80199 -2.456 0
M  V30 8433 H 801.016 -4.50104 -1.64143 0
M  V30 8434 H 799.38 -2.35797 -0.962899 0
M  V30 8435 H 800.163 -3.41709 0.330117 0
M  V30 8436 N 802.608 0.318715 -1.54344 0
M  V30 8437 C 803.54 1.41364 -1.80413 0
M  V30 8438 C 804.553 1.47627 -0.686294 0
M  V30 8439 O 805.742 1.50264 -0.963486 0
M  V30 8440 C 802.842 2.79867 -1.91123 0
M  V30 8441 C 802.015 2.96749 -3.21339 0
M  V30 8442 C 801.074 4.15642 -3.22689 0
M  V30 8443 O 800.1 4.08571 -3.96306 0
M  V30 8444 N 801.302 5.25416 -2.46817 0
M  V30 8445 H 804.067 1.19363 -2.74905 0
M  V30 8446 H 801.628 0.508722 -1.537 0
M  V30 8447 H 803.62 3.57619 -1.89448 0
M  V30 8448 H 802.19 2.94896 -1.03706 0
M  V30 8449 H 801.41 2.06257 -3.35934 0
M  V30 8450 H 802.698 3.04927 -4.07304 0
M  V30 8451 H 802.096 5.34037 -1.86605 0
M  V30 8452 H 800.653 6.01569 -2.50915 0
M  V30 8453 N 804.086 1.46499 0.581025 0
M  V30 8454 C 805.314 1.5547 1.36517 0
M  V30 8455 C 805.729 0.196407 1.87776 0
M  V30 8456 O 805.086 -0.806577 1.63709 0
M  V30 8457 C 805.137 2.56084 2.55154 0
M  V30 8458 O 804.858 3.86637 2.06018 0
M  V30 8459 C 806.359 2.75011 3.47683 0
M  V30 8460 H 803.579 0.525703 0.416986 0
M  V30 8461 H 806.123 1.9192 0.706177 0
M  V30 8462 H 804.278 2.22633 3.17039 0
M  V30 8463 H 804.692 4.41413 2.83292 0
M  V30 8464 H 806.166 3.49329 4.27403 0
M  V30 8465 H 806.643 1.81978 3.99726 0
M  V30 8466 H 807.249 3.09565 2.91632 0
M  V30 8467 N 805.565 -0.825799 1.34232 0
M  V30 8468 C 806.976 -1.39835 1.23706 0
M  V30 8469 C 807.327 -1.95709 -0.138649 0
M  V30 8470 O 806.452 -1.89833 -1.03886 0
M  V30 8471 C 807.047 -2.54203 2.23978 0
M  V30 8472 C 805.606 -3.07374 2.17251 0
M  V30 8473 C 804.753 -1.80232 2.10741 0
M  V30 8474 H 807.704 -0.630442 1.4564 0
M  V30 8475 H 807.725 -3.32214 1.8551 0
M  V30 8476 H 807.237 -2.13506 3.24094 0
M  V30 8477 H 805.338 -3.52583 1.20483 0
M  V30 8478 H 805.451 -3.6666 3.08379 0
M  V30 8479 H 803.815 -2.01012 1.56417 0
M  V30 8480 H 804.598 -1.41713 3.12686 0
M  V30 8481 N 807.043 -1.17915 -1.04565 0
M  V30 8482 C 808.29 -0.971424 -1.77678 0
M  V30 8483 C 808.618 0.499401 -1.87979 0
M  V30 8484 O 807.873 1.38695 -1.38066 0
M  V30 8485 C 808.172 -1.56528 -3.213 0
M  V30 8486 C 807.838 -3.06138 -3.31044 0
M  V30 8487 C 806.5 -3.46974 -3.33411 0
M  V30 8488 C 808.852 -4.02151 -3.31548 0
M  V30 8489 C 806.18 -4.82406 -3.33918 0
M  V30 8490 C 808.532 -5.37492 -3.33595 0
M  V30 8491 C 807.196 -5.77782 -3.34251 0
M  V30 8492 H 806.466 -0.355469 -0.650171 0
M  V30 8493 H 809.113 -1.46902 -1.22849 0
M  V30 8494 H 807.418 -0.98955 -3.79098 0
M  V30 8495 H 809.115 -1.38003 -3.76505 0
M  V30 8496 H 805.705 -2.73589 -3.29919 0
M  V30 8497 H 809.889 -3.71656 -3.28916 0
M  V30 8498 H 805.145 -5.12927 -3.3274 0
M  V30 8499 H 809.319 -6.1166 -3.32934 0
M  V30 8500 H 806.946 -6.82702 -3.34397 0
M  V30 8501 N 808.521 1.23394 -0.980386 0
M  V30 8502 C 809.468 2.24859 -0.520298 0
M  V30 8503 C 810.438 1.60144 0.440821 0
M  V30 8504 O 811.623 1.87593 0.348369 0
M  V30 8505 C 808.763 3.44675 0.171145 0
M  V30 8506 C 807.876 4.23947 -0.830233 0
M  V30 8507 C 807.011 5.31079 -0.113597 0
M  V30 8508 C 806.05 6.02058 -1.10419 0
M  V30 8509 N 805.187 7.00862 -0.416709 0
M  V30 8510 H 810.027 2.63579 -1.39032 0
M  V30 8511 H 807.564 1.29556 -0.696682 0
M  V30 8512 H 809.522 4.13024 0.588838 0
M  V30 8513 H 808.152 3.06755 1.00504 0
M  V30 8514 H 807.204 3.55016 -1.36631 0
M  V30 8515 H 808.516 4.72945 -1.58508 0
M  V30 8516 H 807.67 6.05622 0.36146 0
M  V30 8517 H 806.409 4.83022 0.673854 0
M  V30 8518 H 805.414 5.26307 -1.59 0
M  V30 8519 H 806.639 6.52203 -1.8923 0
M  V30 8520 H 804.585 6.55057 0.351535 0
M  V30 8521 H 804.502 7.47804 -1.11021 0
M  V30 8522 H 805.77 7.79492 0.0359606 0
M  V30 8523 N 809.999 0.752036 1.385 0
M  V30 8524 C 811.227 0.318274 2.04437 0
M  V30 8525 C 811.642 -1.05285 1.56718 0
M  V30 8526 O 810.999 -1.66844 0.73956 0
M  V30 8527 C 811.05 0.330106 3.5999 0
M  V30 8528 O 810.771 1.64712 4.05957 0
M  V30 8529 C 812.272 -0.117713 4.43144 0
M  V30 8530 H 809.492 0.136228 0.657026 0
M  V30 8531 H 812.036 1.02045 1.7722 0
M  V30 8532 H 810.191 -0.323323 3.86048 0
M  V30 8533 H 810.605 1.57225 5.0038 0
M  V30 8534 H 812.079 -0.0582735 5.51969 0
M  V30 8535 H 812.556 -1.16538 4.23457 0
M  V30 8536 H 813.162 0.506784 4.2227 0
M  V30 8537 N 811.477 -1.49425 0.500989 0
M  V30 8538 C 812.725 -2.02053 -0.0434495 0
M  V30 8539 C 813.046 -1.38285 -1.37486 0
M  V30 8540 O 812.316 -0.538171 -1.88363 0
M  V30 8541 H 810.896 -0.746757 -0.0190469 0
M  V30 8542 H 813.558 -1.83449 0.658227 0
M  V30 8543 H 812.654 -3.11619 -0.173129 0
M  V30 8544 N 812.955 -0.234822 -1.55841 0
M  V30 8545 C 813.903 0.686145 -2.22249 0
M  V30 8546 C 814.897 1.18948 -1.20614 0
M  V30 8547 O 816.103 1.14777 -1.38659 0
M  V30 8548 H 812.478 0.239724 -0.712767 0
M  V30 8549 H 814.449 0.102762 -2.98223 0
M  V30 8550 C 813.198 1.8776 -2.92646 0
M  V30 8551 H 812.521 1.49943 -3.70617 0
M  V30 8552 H 813.961 2.4995 -3.42493 0
M  V30 8553 C 812.42 2.74127 -1.95847 0
M  V30 8554 O 812.95 3.7329 -1.48384 0
M  V30 8555 N 811.156 2.4044 -1.63209 0
M  V30 8556 H 810.703 1.59854 -2.02001 0
M  V30 8557 H 810.661 2.98504 -0.987063 0
M  V30 8558 N 814.433 1.57553 0.0384317 0
M  V30 8559 C 815.658 1.93485 0.746872 0
M  V30 8560 C 816.083 0.834069 1.68597 0
M  V30 8561 O 815.441 -0.210902 1.80069 0
M  V30 8562 C 815.489 3.28463 1.4881 0
M  V30 8563 O 814.593 3.20051 2.60079 0
M  V30 8564 H 813.934 0.632675 0.201539 0
M  V30 8565 H 816.464 2.046 -0.00329815 0
M  V30 8566 H 816.474 3.63132 1.86009 0
M  V30 8567 H 815.149 4.08147 0.799297 0
M  V30 8568 H 813.726 2.96998 2.25492 0
M  V30 8569 N 815.911 -0.310526 1.54511 0
M  V30 8570 C 817.139 -1.06611 1.77318 0
M  V30 8571 C 817.554 -1.81265 0.528043 0
M  V30 8572 O 816.911 -1.75466 -0.50178 0
M  V30 8573 C 816.962 -2.05409 2.97472 0
M  V30 8574 O 816.683 -1.33785 4.17173 0
M  V30 8575 C 818.184 -2.93082 3.32593 0
M  V30 8576 H 815.404 -0.316578 0.591624 0
M  V30 8577 H 817.948 -0.352691 2.01436 0
M  V30 8578 H 816.103 -2.72266 2.7559 0
M  V30 8579 H 816.517 -2.00055 4.84849 0
M  V30 8580 H 817.991 -3.58274 4.19933 0
M  V30 8581 H 818.468 -3.60877 2.50329 0
M  V30 8582 H 819.074 -2.31768 3.566 0
M  V30 8583 N 817.389 -1.46805 -0.573248 0
M  V30 8584 C 818.352 -1.57655 -1.66366 0
M  V30 8585 C 819.352 -0.452905 -1.5429 0
M  V30 8586 O 820.542 -0.717502 -1.58737 0
M  V30 8587 C 817.674 -1.50584 -3.05839 0
M  V30 8588 H 818.867 -2.54842 -1.581 0
M  V30 8589 H 816.42 -1.34756 -0.791868 0
M  V30 8590 H 817.155 -0.547127 -3.19651 0
M  V30 8591 H 816.94 -2.32118 -3.16012 0
M  V30 8592 H 818.43 -1.61282 -3.85199 0
M  V30 8593 N 818.867 0.818669 -1.34668 0
M  V30 8594 C 820.095 1.60674 -1.30351 0
M  V30 8595 C 820.51 1.88408 0.121546 0
M  V30 8596 O 819.867 1.47849 1.06991 0
M  V30 8597 C 819.918 2.94516 -2.09625 0
M  V30 8598 O 819.639 2.6799 -3.46573 0
M  V30 8599 C 821.14 3.8891 -2.12754 0
M  V30 8600 H 818.36 0.499306 -0.448258 0
M  V30 8601 H 820.904 1.01828 -1.77345 0
M  V30 8602 H 819.059 3.49908 -1.66262 0
M  V30 8603 H 819.473 3.53361 -3.87603 0
M  V30 8604 H 820.947 4.79972 -2.72637 0
M  V30 8605 H 821.424 4.24599 -1.12306 0
M  V30 8606 H 822.03 3.39453 -2.56225 0
M  V30 8607 N 820.346 1.18468 1.03938 0
M  V30 8608 C 821.586 0.991823 1.78724 0
M  V30 8609 C 821.95 -0.470115 1.86156 0
M  V30 8610 O 823.151 -0.782451 2.5716 0
M  V30 8611 C 821.422 1.63018 3.18056 0
M  V30 8612 S 822.981 1.58527 4.09163 0
M  V30 8613 H 819.799 0.356137 0.615376 0
M  V30 8614 H 822.401 1.50634 1.24618 0
M  V30 8615 H 821.105 2.68642 3.10258 0
M  V30 8616 H 820.636 1.11601 3.77238 0
M  V30 8617 H 822.651 0.602059 4.92534 0
M  V30 8618 N 821.824 -1.22873 0.986916 0
M  V30 8619 C 823.052 -1.95487 0.677663 0
M  V30 8620 C 823.467 -1.72978 -0.756572 0
M  V30 8621 O 822.824 -1.02517 -1.50985 0
M  V30 8622 C 822.875 -3.48337 0.966638 0
M  V30 8623 O 822.596 -3.70087 2.34451 0
M  V30 8624 C 824.097 -4.38142 0.674248 0
M  V30 8625 H 821.317 -0.622211 0.251185 0
M  V30 8626 H 823.861 -1.56187 1.32007 0
M  V30 8627 H 822.016 -3.85628 0.370137 0
M  V30 8628 H 822.43 -4.64332 2.43918 0
M  V30 8629 H 823.904 -5.44165 0.926759 0
M  V30 8630 H 824.381 -4.3745 -0.391728 0
M  V30 8631 H 824.987 -4.06469 1.25152 0
M  V30 8632 N 823.302 -0.75937 -1.38099 0
M  V30 8633 C 824.53 -0.329111 -2.04266 0
M  V30 8634 C 824.945 1.04453 -1.57274 0
M  V30 8635 O 824.302 1.66449 -0.748397 0
M  V30 8636 C 824.353 -0.349192 -3.5981 0
M  V30 8637 O 824.074 -1.66863 -4.05078 0
M  V30 8638 C 825.575 0.0942106 -4.432 0
M  V30 8639 H 822.795 -0.13971 -0.656294 0
M  V30 8640 H 825.339 -1.02984 -1.76677 0
M  V30 8641 H 823.494 0.302846 -3.86214 0
M  V30 8642 H 823.908 -1.59877 -4.9954 0
M  V30 8643 H 825.382 0.0290004 -5.51992 0
M  V30 8644 H 825.859 1.1429 -4.24069 0
M  V30 8645 H 826.465 -0.529171 -4.21995 0
M  V30 8646 N 824.78 1.49157 -0.508906 0
M  V30 8647 C 825.728 2.30922 0.278906 0
M  V30 8648 C 826.722 1.39889 0.955382 0
M  V30 8649 O 827.928 1.56901 0.882169 0
M  V30 8650 H 824.303 0.744087 0.108805 0
M  V30 8651 H 826.274 2.95277 -0.430583 0
M  V30 8652 C 825.023 3.21432 1.32576 0
M  V30 8653 H 824.346 3.91413 0.814634 0
M  V30 8654 H 825.786 3.81568 1.84882 0
M  V30 8655 C 824.245 2.41583 2.34817 0
M  V30 8656 O 824.775 2.1256 3.40854 0
M  V30 8657 N 822.981 2.03462 2.07489 0
M  V30 8658 H 822.528 2.27265 1.21278 0
M  V30 8659 H 822.486 1.50345 2.76123 0
M  V30 8660 N 826.258 0.243083 1.55714 0
M  V30 8661 C 827.206 -0.674349 2.2261 0
M  V30 8662 C 828.2 -1.18307 1.21243 0
M  V30 8663 O 829.406 -1.1404 1.39265 0
M  V30 8664 H 825.781 -0.235941 0.714028 0
M  V30 8665 H 827.752 -0.0869446 2.98273 0
M  V30 8666 C 826.501 -1.86206 2.93637 0
M  V30 8667 H 825.824 -1.47975 3.71407 0
M  V30 8668 H 827.264 -2.4813 3.43813 0
M  V30 8669 C 825.723 -2.73084 1.97298 0
M  V30 8670 O 826.253 -3.72497 1.50361 0
M  V30 8671 N 824.459 -2.39571 1.64482 0
M  V30 8672 H 824.006 -1.5878 2.02846 0
M  V30 8673 H 823.964 -2.97976 1.00288 0
M  V30 8674 N 827.736 -1.57571 -0.0300757 0
M  V30 8675 C 828.684 -2.0758 -1.04944 0
M  V30 8676 C 829.678 -0.989384 -1.37505 0
M  V30 8677 O 830.884 -1.17427 -1.36422 0
M  V30 8678 H 827.259 -0.662419 -0.355956 0
M  V30 8679 H 829.23 -2.92268 -0.601848 0
M  V30 8680 C 827.979 -2.5698 -2.34215 0
M  V30 8681 H 827.302 -3.40193 -2.10021 0
M  V30 8682 H 828.742 -2.95682 -3.03888 0
M  V30 8683 C 827.201 -1.47059 -3.03109 0
M  V30 8684 O 827.731 -0.83625 -3.92899 0
M  V30 8685 N 825.937 -1.20538 -2.64422 0
M  V30 8686 H 825.484 -1.72305 -1.9149 0
M  V30 8687 H 825.442 -0.472045 -3.10836 0
M  V30 8688 N 829.214 0.302327 -1.54673 0
M  V30 8689 C 830.625 0.875409 -1.64904 0
M  V30 8690 C 830.976 1.88132 -0.55684 0
M  V30 8691 O 830.101 2.14215 0.306754 0
M  V30 8692 C 830.696 1.59457 -2.9893 0
M  V30 8693 C 829.255 2.11607 -3.11287 0
M  V30 8694 C 828.402 0.948324 -2.6058 0
M  V30 8695 H 831.353 0.079362 -1.58501 0
M  V30 8696 H 831.374 2.46005 -2.90279 0
M  V30 8697 H 830.886 0.8622 -3.78402 0
M  V30 8698 H 828.987 2.87895 -2.36532 0
M  V30 8699 H 829.1 2.35151 -4.17422 0
M  V30 8700 H 827.464 1.33352 -2.17001 0
M  V30 8701 H 828.247 0.229936 -3.42529 0
M  V30 8702 N 830.692 1.47107 0.565454 0
M  V30 8703 C 831.64 1.59368 1.69424 0
M  V30 8704 C 832.634 0.461344 1.62997 0
M  V30 8705 O 833.84 0.638849 1.68282 0
M  V30 8706 H 830.215 0.501387 0.560459 0
M  V30 8707 H 832.186 2.54242 1.56217 0
M  V30 8708 C 830.935 1.61739 3.07792 0
M  V30 8709 H 830.258 2.48215 3.13416 0
M  V30 8710 H 831.698 1.7437 3.86486 0
M  V30 8711 C 830.157 0.349156 3.35086 0
M  V30 8712 O 830.687 -0.553287 3.97871 0
M  V30 8713 N 828.893 0.231723 2.89675 0
M  V30 8714 H 828.44 0.967021 2.3876 0
M  V30 8715 H 828.398 -0.615911 3.08308 0
M  V30 8716 N 832.17 -0.811516 1.35101 0
M  V30 8717 C 833.395 -1.60499 1.31358 0
M  V30 8718 C 833.82 -1.87793 -0.107383 0
M  V30 8719 O 833.178 -1.46161 -1.07268 0
M  V30 8720 C 833.226 -2.91612 2.12119 0
M  V30 8721 O 832.33 -3.84211 1.49853 0
M  V30 8722 H 831.671 -0.487702 0.450603 0
M  V30 8723 H 834.201 -1.00758 1.7807 0
M  V30 8724 H 834.211 -3.4108 2.23894 0
M  V30 8725 H 832.886 -2.71071 3.15426 0
M  V30 8726 H 831.463 -3.42751 1.46889 0
M  V30 8727 N 833.648 -1.19017 -1.03309 0
M  V30 8728 C 834.888 -1.00129 -1.78195 0
M  V30 8729 C 835.252 0.460236 -1.86402 0
M  V30 8730 O 836.453 0.768802 -2.57571 0
M  V30 8731 C 834.724 -1.64703 -3.17187 0
M  V30 8732 S 836.283 -1.60695 -4.08317 0
M  V30 8733 H 833.101 -0.359395 -0.613479 0
M  V30 8734 H 835.703 -1.51293 -1.23818 0
M  V30 8735 H 834.407 -2.70283 -3.08829 0
M  V30 8736 H 833.938 -1.136 -3.76641 0
M  V30 8737 H 835.953 -0.628171 -4.92208 0
M  V30 8738 N 835.127 1.22348 -0.993418 0
M  V30 8739 C 836.373 1.91393 -0.67056 0
M  V30 8740 C 836.706 1.77163 0.795428 0
M  V30 8741 O 835.981 1.14084 1.57528 0
M  V30 8742 C 836.264 3.43589 -1.0779 0
M  V30 8743 C 836.117 3.66867 -2.60248 0
M  V30 8744 C 837.436 4.35545 -0.631527 0
M  V30 8745 H 834.555 0.695057 -0.24508 0
M  V30 8746 H 837.197 1.44213 -1.23703 0
M  V30 8747 H 835.347 3.83903 -0.595902 0
M  V30 8748 H 837.019 3.35954 -3.16121 0
M  V30 8749 H 835.262 3.1113 -3.02293 0
M  V30 8750 H 835.933 4.73457 -2.838 0
M  V30 8751 H 838.409 4.0275 -1.04554 0
M  V30 8752 H 837.285 5.40707 -0.944831 0
M  V30 8753 H 837.546 4.39618 0.467779 0
M  V30 8754 N 836.605 0.766683 1.37694 0
M  V30 8755 C 837.553 0.137269 2.32195 0
M  V30 8756 C 838.547 -0.69067 1.54681 0
M  V30 8757 O 839.753 -0.588299 1.70115 0
M  V30 8758 H 836.128 0.0256003 0.751564 0
M  V30 8759 H 838.099 0.950129 2.82869 0
M  V30 8760 C 836.848 -0.731446 3.39919 0
M  V30 8761 H 836.171 -0.103738 3.99665 0
M  V30 8762 H 837.611 -1.13891 4.08417 0
M  V30 8763 C 836.07 -1.87984 2.79578 0
M  V30 8764 O 836.6 -2.97496 2.69924 0
M  V30 8765 N 834.806 -1.6789 2.37195 0
M  V30 8766 H 834.353 -0.788162 2.45246 0
M  V30 8767 H 834.311 -2.44894 1.97165 0
M  V30 8768 N 838.083 -1.48885 0.516809 0
M  V30 8769 C 839.332 -2.01686 -0.0239899 0
M  V30 8770 C 839.645 -1.40029 -1.3657 0
M  V30 8771 O 840.851 -1.84249 -1.9941 0
M  V30 8772 C 839.307 -3.59779 -0.0931825 0
M  V30 8773 C 838.915 -4.30416 1.24283 0
M  V30 8774 C 840.659 -4.20471 -0.583507 0
M  V30 8775 C 838.566 -5.80408 1.13494 0
M  V30 8776 H 837.496 -0.753892 -0.0127376 0
M  V30 8777 H 840.147 -1.71273 0.65861 0
M  V30 8778 H 838.529 -3.86976 -0.840577 0
M  V30 8779 H 839.703 -4.14905 2.00476 0
M  V30 8780 H 838.018 -3.81539 1.66785 0
M  V30 8781 H 840.615 -5.30333 -0.681987 0
M  V30 8782 H 840.958 -3.84898 -1.58617 0
M  V30 8783 H 841.491 -3.97654 0.107814 0
M  V30 8784 H 838.23 -6.20532 2.11235 0
M  V30 8785 H 837.75 -5.98368 0.414167 0
M  V30 8786 H 839.429 -6.41781 0.820162 0
M  V30 8787 N 839.561 -0.251338 -1.55583 0
M  V30 8788 C 840.508 0.646337 -2.21565 0
M  V30 8789 C 841.478 1.16796 -1.18102 0
M  V30 8790 O 842.663 1.22162 -1.46564 0
M  V30 8791 C 839.803 1.83557 -2.92234 0
M  V30 8792 C 838.916 1.35006 -4.10363 0
M  V30 8793 C 838.051 2.4992 -4.68736 0
M  V30 8794 C 837.09 1.98253 -5.79105 0
M  V30 8795 N 836.227 3.06551 -6.31642 0
M  V30 8796 H 841.067 0.0769881 -2.97901 0
M  V30 8797 H 838.604 0.026238 -1.47077 0
M  V30 8798 H 840.562 2.53425 -3.31408 0
M  V30 8799 H 839.192 2.37733 -2.18364 0
M  V30 8800 H 838.244 0.545274 -3.76472 0
M  V30 8801 H 839.556 0.931435 -4.90026 0
M  V30 8802 H 838.71 3.27823 -5.10507 0
M  V30 8803 H 837.449 2.95086 -3.88298 0
M  V30 8804 H 836.454 1.18822 -5.36807 0
M  V30 8805 H 837.679 1.54051 -6.61396 0
M  V30 8806 H 835.625 3.51143 -5.54107 0
M  V30 8807 H 835.542 2.69033 -7.06511 0
M  V30 8808 H 836.81 3.84499 -6.78071 0
M  V30 8809 N 841.039 1.57585 0.0217189 0
M  V30 8810 C 841.986 2.07036 1.02004 0
M  V30 8811 C 842.956 0.96106 1.35473 0
M  V30 8812 O 844.141 1.23211 1.45684 0
M  V30 8813 C 841.281 2.56056 2.31364 0
M  V30 8814 C 840.394 3.80805 2.03989 0
M  V30 8815 C 839.529 4.18409 3.27272 0
M  V30 8816 C 838.568 5.36055 2.95486 0
M  V30 8817 N 837.705 5.69056 4.11242 0
M  V30 8818 H 842.545 2.92073 0.591396 0
M  V30 8819 H 840.082 1.44403 0.280384 0
M  V30 8820 H 842.04 2.82548 3.06957 0
M  V30 8821 H 840.67 1.73925 2.71937 0
M  V30 8822 H 839.722 3.61354 1.1886 0
M  V30 8823 H 841.034 4.66512 1.76546 0
M  V30 8824 H 840.188 4.46068 4.11228 0
M  V30 8825 H 838.927 3.31369 3.57835 0
M  V30 8826 H 837.932 5.08142 2.09933 0
M  V30 8827 H 839.157 6.24755 2.66193 0
M  V30 8828 H 837.103 4.84974 4.41742 0
M  V30 8829 H 837.02 6.49288 3.87247 0
M  V30 8830 H 838.288 6.01295 4.96049 0
M  V30 8831 N 842.517 -0.29412 1.54831 0
M  V30 8832 C 843.766 -1.02614 1.73647 0
M  V30 8833 C 844.079 -1.88193 0.533162 0
M  V30 8834 O 845.285 -2.64713 0.603275 0
M  V30 8835 C 843.741 -1.87417 3.07251 0
M  V30 8836 C 843.349 -1.06806 4.35082 0
M  V30 8837 C 845.093 -2.60176 3.35423 0
M  V30 8838 C 843 -1.90926 5.59733 0
M  V30 8839 H 841.93 -0.386834 0.647206 0
M  V30 8840 H 844.581 -0.282789 1.81308 0
M  V30 8841 H 842.963 -2.65765 2.93572 0
M  V30 8842 H 844.137 -0.330226 4.59615 0
M  V30 8843 H 842.452 -0.455979 4.13896 0
M  V30 8844 H 845.049 -3.23476 4.25755 0
M  V30 8845 H 845.392 -3.29365 2.54606 0
M  V30 8846 H 845.925 -1.88871 3.50103 0
M  V30 8847 H 842.664 -1.26194 6.43238 0
M  V30 8848 H 842.184 -2.62363 5.39375 0
M  V30 8849 H 843.863 -2.48807 5.97247 0
M  V30 8850 N 843.995 -1.47404 -0.557645 0
M  V30 8851 C 845.242 -1.54007 -1.31484 0
M  V30 8852 C 845.57 -0.202162 -1.93447 0
M  V30 8853 O 844.825 0.804901 -1.78381 0
M  V30 8854 C 845.124 -2.6061 -2.44575 0
M  V30 8855 C 844.79 -4.03896 -2.00446 0
M  V30 8856 C 843.452 -4.42901 -1.88127 0
M  V30 8857 C 845.804 -4.93804 -1.66754 0
M  V30 8858 C 843.132 -5.6965 -1.40411 0
M  V30 8859 C 845.484 -6.21016 -1.20509 0
M  V30 8860 C 844.148 -6.58903 -1.06786 0
M  V30 8861 H 843.418 -0.563552 -0.481134 0
M  V30 8862 H 846.065 -1.81001 -0.625375 0
M  V30 8863 H 844.37 -2.27371 -3.19076 0
M  V30 8864 H 846.067 -2.62941 -3.02759 0
M  V30 8865 H 842.657 -3.73077 -2.10977 0
M  V30 8866 H 846.841 -4.64369 -1.75144 0
M  V30 8867 H 842.097 -5.97755 -1.2845 0
M  V30 8868 H 846.271 -6.90095 -0.935001 0
M  V30 8869 H 843.898 -7.57008 -0.695891 0
M  V30 8870 N 845.473 0.80434 -1.35529 0
M  V30 8871 C 846.701 1.59283 -1.32048 0
M  V30 8872 C 847.116 1.88527 0.101556 0
M  V30 8873 O 846.473 1.48975 1.05417 0
M  V30 8874 C 846.524 2.92276 -2.12737 0
M  V30 8875 O 846.245 2.64299 -3.49396 0
M  V30 8876 C 847.746 3.86631 -2.16867 0
M  V30 8877 H 844.966 0.494523 -0.453528 0
M  V30 8878 H 847.51 0.999415 -1.78415 0
M  V30 8879 H 845.665 3.48125 -1.69964 0
M  V30 8880 H 846.079 3.4923 -3.91329 0
M  V30 8881 H 847.553 4.77053 -2.77712 0
M  V30 8882 H 848.03 4.23384 -1.16803 0
M  V30 8883 H 848.636 3.36717 -2.59811 0
M  V30 8884 N 846.951 1.19563 1.02676 0
M  V30 8885 C 848.228 0.908857 1.73203 0
M  V30 8886 C 848.608 -0.584928 2.02834 0
M  V30 8887 O 847.956 -1.54372 1.68469 0
M  V30 8888 C 848.166 1.77105 3.00724 0
M  V30 8889 C 849.514 2.00667 3.7419 0
M  V30 8890 O 850.538 1.74274 3.10656 0
M  V30 8891 O 849.397 2.4518 4.88415 0
M  V30 8892 H 846.491 0.338909 0.754367 0
M  V30 8893 H 849.037 1.30387 1.08616 0
M  V30 8894 H 847.809 2.78303 2.7507 0
M  V30 8895 H 847.432 1.37546 3.73051 0
M  V30 8896 N 848.429 -1.21819 0.999893 0
M  V30 8897 C 849.675 -1.91035 0.680701 0
M  V30 8898 C 850.008 -1.77582 -0.786021 0
M  V30 8899 O 849.283 -1.14917 -1.56921 0
M  V30 8900 C 849.566 -3.43013 1.0961 0
M  V30 8901 C 849.419 -3.65481 2.6219 0
M  V30 8902 C 850.738 -4.35204 0.654616 0
M  V30 8903 H 847.857 -0.693748 0.248763 0
M  V30 8904 H 850.499 -1.43555 1.24466 0
M  V30 8905 H 848.649 -3.83581 0.616253 0
M  V30 8906 H 850.321 -3.34273 3.17899 0
M  V30 8907 H 848.564 -3.09522 3.03938 0
M  V30 8908 H 849.235 -4.71945 2.86307 0
M  V30 8909 H 851.711 -4.0219 1.06688 0
M  V30 8910 H 850.587 -5.40198 0.973492 0
M  V30 8911 H 850.848 -4.3986 -0.444458 0
M  V30 8912 O 849.946 -0.910688 -1.33374 0
M  V30 8913 H 850.637 -0.526159 -1.86417 0
M  V30 END ATOM
M  V30 BEGIN BOND
M  V30 END BOND
M  V30 END CTAB
M  END
$$$$
