drugbank_target|P00138 Cytochrome c' (DB03088)
 OpenBabel12092120263D

  0  0  0     0  0            999 V3000
M  V30 BEGIN CTAB
M  V30 COUNTS 1915 1935 0 0 0
M  V30 BEGIN ATOM
M  V30 1 H -0.908 1.98254 -0.117106 0
M  V30 2 N 0 1.576 0 0
M  V30 3 C 0.932 2.05273 1.01958 0
M  V30 4 C 1.945 0.970662 1.30698 0
M  V30 5 O 3.134 1.24746 1.27674 0
M  V30 6 C 0.234 2.43771 2.35433 0
M  V30 7 C -0.593 3.74711 2.25633 0
M  V30 8 C -1.534 4.00077 3.41796 0
M  V30 9 O -2.508 4.70743 3.19984 0
M  V30 10 N -1.306 3.47973 4.64645 0
M  V30 11 H 1.459 2.93363 0.613025 0
M  V30 12 H -0.98 1.60812 0.187383 0
M  V30 13 H 1.012 2.57855 3.11918 0
M  V30 14 H -0.418 1.612 2.67831 0
M  V30 15 H -1.198 3.70705 1.34059 0
M  V30 16 H 0.09 4.60554 2.16258 0
M  V30 17 H -0.512 2.90748 4.85265 0
M  V30 18 H -1.955 3.67386 5.38396 0
M  V30 19 N 1.4781 -0.272755 1.55222 0
M  V30 20 C 2.7251 -1.00433 1.7584 0
M  V30 21 C 3.0531 -1.86275 0.559629 0
M  V30 22 O 2.3081 -1.90269 -0.457857 0
M  V30 23 C 2.6071 -1.91642 3.01675 0
M  V30 24 C 2.2731 -1.21548 4.34208 0
M  V30 25 C 0.9351 -1.02166 4.70229 0
M  V30 26 C 3.2871 -0.716684 5.16249 0
M  V30 27 C 0.6151 -0.316334 5.85847 0
M  V30 28 C 2.9671 -0.0249476 6.32595 0
M  V30 29 C 1.6311 0.180579 6.67256 0
M  V30 30 H 0.9011 -0.367509 0.643443 0
M  V30 31 H 3.5481 -0.276596 1.89492 0
M  V30 32 H 1.8531 -2.71037 2.82924 0
M  V30 33 H 3.5501 -2.48369 3.14824 0
M  V30 34 H 0.1401 -1.37645 4.05896 0
M  V30 35 H 4.3241 -0.854047 4.88896 0
M  V30 36 H -0.4199 -0.146378 6.11225 0
M  V30 37 H 3.7541 0.369311 6.9542 0
M  V30 38 H 1.3811 0.729098 7.56696 0
M  V30 39 N 2.9562 -1.48159 -0.537278 0
M  V30 40 C 3.9192 -1.61665 -1.62472 0
M  V30 41 C 4.9192 -0.490395 -1.5314 0
M  V30 42 O 6.1092 -0.755998 -1.5694 0
M  V30 43 C 3.2412 -1.57997 -3.02076 0
M  V30 44 H 4.4342 -2.58621 -1.51839 0
M  V30 45 H 1.9872 -1.36647 -0.758771 0
M  V30 46 H 2.7222 -0.624913 -3.18222 0
M  V30 47 H 2.5072 -2.39755 -3.10258 0
M  V30 48 H 3.9972 -1.70627 -3.81151 0
M  V30 49 N 4.4343 0.785586 -1.36625 0
M  V30 50 C 5.3813 1.89838 -1.31264 0
M  V30 51 C 6.3513 1.65115 -0.180633 0
M  V30 52 O 7.5363 1.87222 -0.36777 0
M  V30 53 C 4.6763 3.26706 -1.11163 0
M  V30 54 C 3.7893 3.63476 -2.33472 0
M  V30 55 C 2.9243 4.89481 -2.06353 0
M  V30 56 C 1.9633 5.18941 -3.24602 0
M  V30 57 N 1.1003 6.36131 -2.97123 0
M  V30 58 H 5.9403 1.93756 -2.26413 0
M  V30 59 H 3.4773 0.947454 -1.12524 0
M  V30 60 H 5.4353 4.05639 -0.975337 0
M  V30 61 H 4.0653 3.222 -0.196674 0
M  V30 62 H 3.1173 2.79636 -2.57891 0
M  V30 63 H 4.4293 3.81193 -3.21704 0
M  V30 64 H 3.5833 5.76288 -1.89675 0
M  V30 65 H 2.3223 4.73841 -1.15437 0
M  V30 66 H 1.3273 4.30615 -3.41834 0
M  V30 67 H 2.5523 5.36498 -4.16349 0
M  V30 68 H 0.4983 6.21875 -2.08823 0
M  V30 69 H 0.4153 6.54198 -3.78894 0
M  V30 70 H 1.6833 7.2591 -2.84033 0
M  V30 71 N 5.9124 1.20967 1.01018 0
M  V30 72 C 7.3234 1.02319 1.56165 0
M  V30 73 C 7.6744 -0.418546 1.91684 0
M  V30 74 O 6.7994 -1.30096 1.72928 0
M  V30 75 C 7.3944 1.85109 2.8376 0
M  V30 76 C 5.9534 1.70809 3.35412 0
M  V30 77 C 5.1004 1.82643 2.08655 0
M  V30 78 H 8.0514 1.35065 0.833255 0
M  V30 79 H 8.0724 1.35827 3.55431 0
M  V30 80 H 7.5844 2.90035 2.57878 0
M  V30 81 H 5.6854 0.685464 3.66241 0
M  V30 82 H 5.7984 2.52467 4.07182 0
M  V30 83 H 4.1624 1.25896 2.21409 0
M  V30 84 H 4.9454 2.89066 1.85191 0
M  V30 85 N 7.3905 -1.2043 1.01659 0
M  V30 86 C 8.3005 -2.2689 0.596484 0
M  V30 87 C 9.3165 -1.70107 -0.36599 0
M  V30 88 O 10.4925 -2.00117 -0.226942 0
M  V30 89 C 7.5575 -3.4665 -0.0586659 0
M  V30 90 C 6.6185 -4.18662 0.949751 0
M  V30 91 C 5.8515 -5.32705 0.32577 0
M  V30 92 O 6.0745 -5.63656 -0.874509 0
M  V30 93 O 5.0085 -5.92803 1.04249 0
M  V30 94 H 8.8345 -2.65041 1.4828 0
M  V30 95 H 6.4195 -1.27048 0.786082 0
M  V30 96 H 8.3015 -4.19256 -0.424564 0
M  V30 97 H 6.9765 -3.10375 -0.91918 0
M  V30 98 H 5.8835 -3.48229 1.36702 0
M  V30 99 H 7.2165 -4.58878 1.78023 0
M  V30 100 N 8.8686 -0.792821 -1.36206 0
M  V30 101 C 10.1456 -0.290627 -1.93429 0
M  V30 102 C 10.5256 1.21773 -1.72437 0
M  V30 103 O 9.8736 2.0108 -1.08531 0
M  V30 104 C 10.0836 -0.686973 -3.42172 0
M  V30 105 C 11.4316 -0.668643 -4.19302 0
M  V30 106 O 12.4556 -0.627658 -3.50626 0
M  V30 107 O 11.3146 -0.714597 -5.41808 0
M  V30 108 H 8.4086 -0.0727927 -0.82379 0
M  V30 109 H 10.9546 -0.875593 -1.45367 0
M  V30 110 H 9.7266 -1.72711 -3.51122 0
M  V30 111 H 9.3496 -0.0760733 -3.97527 0
M  V30 112 N 10.3467 1.47872 -0.545128 0
M  V30 113 C 11.3097 2.28337 0.198717 0
M  V30 114 C 12.3097 1.36255 0.853888 0
M  V30 115 O 13.4997 1.59003 0.711606 0
M  V30 116 C 10.6317 3.15585 1.28915 0
M  V30 117 H 11.8247 2.95567 -0.507941 0
M  V30 118 H 9.3777 1.53362 -0.301616 0
M  V30 119 H 10.1127 2.53019 2.02859 0
M  V30 120 H 9.8977 3.83337 0.824309 0
M  V30 121 H 11.3877 3.76243 1.81194 0
M  V30 122 N 11.8248 0.280983 1.55075 0
M  V30 123 C 13.0708 -0.33461 2.00021 0
M  V30 124 C 13.4038 -1.55063 1.16915 0
M  V30 125 O 12.6788 -1.93006 0.240646 0
M  V30 126 C 12.9618 -0.711007 3.53011 0
M  V30 127 C 12.8148 0.512766 4.46868 0
M  V30 128 C 14.1338 -1.54522 4.12081 0
M  V30 129 H 11.2528 -0.120147 0.727141 0
M  V30 130 H 13.8948 0.389097 1.85973 0
M  V30 131 H 12.0448 -1.32761 3.65112 0
M  V30 132 H 13.7168 1.15131 4.46702 0
M  V30 133 H 11.9598 1.14975 4.18286 0
M  V30 134 H 12.6308 0.205556 5.51617 0
M  V30 135 H 15.1068 -1.02442 4.03293 0
M  V30 136 H 13.9828 -1.77739 5.19327 0
M  V30 137 H 14.2438 -2.52813 3.62682 0
M  V30 138 N 13.3029 -1.57598 0.00835791 0
M  V30 139 C 14.2499 -2.08945 -0.980346 0
M  V30 140 C 15.2199 -0.986738 -1.33614 0
M  V30 141 O 16.4049 -1.25968 -1.43306 0
M  V30 142 C 13.5449 -2.60425 -2.26435 0
M  V30 143 C 12.6579 -3.84628 -1.96685 0
M  V30 144 C 11.7929 -4.24579 -3.19228 0
M  V30 145 C 10.8319 -5.41596 -2.85202 0
M  V30 146 N 9.9689 -5.768 -4.00307 0
M  V30 147 H 14.8089 -2.93148 -0.535551 0
M  V30 148 H 12.3459 -1.44912 -0.252776 0
M  V30 149 H 14.3039 -2.88354 -3.01509 0
M  V30 150 H 12.9339 -1.79083 -2.68568 0
M  V30 151 H 11.9859 -3.63556 -1.11942 0
M  V30 152 H 13.2979 -4.69796 -1.67611 0
M  V30 153 H 12.4519 -4.53834 -4.02641 0
M  V30 154 H 11.1909 -3.38137 -3.51447 0
M  V30 155 H 10.1959 -5.12056 -2.00198 0
M  V30 156 H 11.4209 -6.29721 -2.54222 0
M  V30 157 H 9.3669 -4.93316 -4.32407 0
M  V30 158 H 9.2839 -6.5656 -3.74786 0
M  V30 159 H 10.5519 -6.10652 -4.84484 0
M  V30 160 N 14.781 0.264519 -1.55364 0
M  V30 161 C 16.011 1.01153 -1.80143 0
M  V30 162 C 16.419 1.80115 -0.579253 0
M  V30 163 O 15.762 1.77813 0.46132 0
M  V30 164 C 15.824 2.01098 -2.97993 0
M  V30 165 C 15.488 1.40995 -4.34706 0
M  V30 166 C 16.485 0.821316 -5.13372 0
M  V30 167 C 14.17 1.43461 -4.81378 0
M  V30 168 C 16.164 0.265339 -6.36847 0
M  V30 169 C 13.851 0.874771 -6.04807 0
M  V30 170 C 14.849 0.291146 -6.82379 0
M  V30 171 O 14.537 -0.260093 -8.03479 0
M  V30 172 H 14.269 0.304125 -0.603725 0
M  V30 173 H 16.823 0.298089 -2.03225 0
M  V30 174 H 15.053 2.76224 -2.70623 0
M  V30 175 H 16.742 2.61997 -3.1002 0
M  V30 176 H 17.508 0.794903 -4.78442 0
M  V30 177 H 13.387 1.87826 -4.21002 0
M  V30 178 H 16.931 -0.190837 -6.97339 0
M  V30 179 H 12.828 0.898452 -6.39217 0
M  V30 180 H 13.596 -0.150265 -8.18362 0
M  V30 181 N 16.2591 1.48442 0.529413 0
M  V30 182 C 17.6751 1.34575 0.858004 0
M  V30 183 C 17.8751 0.3572 1.98309 0
M  V30 184 O 16.9311 -0.221379 2.51528 0
M  V30 185 C 18.2441 2.74617 1.22499 0
M  V30 186 C 19.7921 2.83109 1.33484 0
M  V30 187 C 20.2671 4.23854 1.73526 0
M  V30 188 N 21.7581 4.2653 1.80628 0
M  V30 189 C 22.4931 5.32372 2.12997 0
M  V30 190 N 21.9891 6.48491 2.43786 0
M  V30 191 N 23.7821 5.19766 2.14008 0
M  V30 192 H 15.9331 2.1133 -0.212925 0
M  V30 193 H 18.1961 0.947439 -0.0326199 0
M  V30 194 H 17.9021 3.4852 0.471905 0
M  V30 195 H 17.7761 3.08177 2.17501 0
M  V30 196 H 20.1631 2.09462 2.0787 0
M  V30 197 H 20.2441 2.53168 0.366027 0
M  V30 198 H 19.8881 4.98018 0.997013 0
M  V30 199 H 19.8181 4.5124 2.71459 0
M  V30 200 H 22.3091 3.42772 1.59108 0
M  V30 201 H 22.6221 7.24993 2.67592 0
M  V30 202 H 20.9671 6.51765 2.41304 0
M  V30 203 H 24.1581 4.28066 1.89412 0
M  V30 204 H 24.3311 6.02354 2.38902 0
M  V30 205 N 17.7372 -0.778329 1.37039 0
M  V30 206 C 18.6692 -1.90034 1.2814 0
M  V30 207 C 19.6822 -1.61585 0.198558 0
M  V30 208 O 20.8712 -1.72625 0.454175 0
M  V30 209 C 17.9712 -3.25108 0.956968 0
M  V30 210 C 17.1442 -3.81253 2.14394 0
M  V30 211 C 16.2032 -4.94789 1.79082 0
M  V30 212 O 15.2292 -5.10721 2.51301 0
M  V30 213 N 16.4312 -5.75878 0.731043 0
M  V30 214 H 19.1962 -1.98186 2.24816 0
M  V30 215 H 16.7572 -0.957129 1.30578 0
M  V30 216 H 18.7492 -3.9857 0.701701 0
M  V30 217 H 17.3192 -3.125 0.0789812 0
M  V30 218 H 16.5392 -2.99647 2.56135 0
M  V30 219 H 17.8272 -4.15495 2.93668 0
M  V30 220 H 17.2252 -5.65547 0.131618 0
M  V30 221 H 15.7822 -6.49596 0.535622 0
M  V30 222 N 19.2153 -1.21501 -1.00376 0
M  V30 223 C 20.4403 -1.05977 -1.78279 0
M  V30 224 C 20.8653 0.385994 -1.84097 0
M  V30 225 O 20.2233 1.27849 -1.28547 0
M  V30 226 C 20.2713 -1.66302 -3.19963 0
M  V30 227 O 19.3753 -0.909333 -4.0225 0
M  V30 228 H 18.7163 -0.372906 -0.549397 0
M  V30 229 H 21.2463 -1.6107 -1.26165 0
M  V30 230 H 21.2563 -1.70574 -3.70632 0
M  V30 231 H 19.9313 -2.71515 -3.15043 0
M  V30 232 H 18.5083 -0.941795 -3.60811 0
M  V30 233 N 20.6934 1.19889 -1.02296 0
M  V30 234 C 21.6564 2.21116 -0.603351 0
M  V30 235 C 22.6564 1.5738 0.329884 0
M  V30 236 O 23.8464 1.73802 0.117702 0
M  V30 237 C 20.9784 3.40696 0.117992 0
M  V30 238 H 22.1714 2.59754 -1.49893 0
M  V30 239 H 19.7244 1.33463 -0.813468 0
M  V30 240 H 20.4594 3.07569 1.0282 0
M  V30 241 H 20.2444 3.88188 -0.552511 0
M  V30 242 H 21.7344 4.15692 0.398696 0
M  V30 243 N 22.1715 0.800033 1.35784 0
M  V30 244 C 23.1015 0.220184 2.3246 0
M  V30 245 C 24.0825 -0.65073 1.57161 0
M  V30 246 O 25.2675 -0.582359 1.85263 0
M  V30 247 C 22.3975 -0.637353 3.41402 0
M  V30 248 C 21.3515 0.134531 4.27789 0
M  V30 249 C 20.6775 -0.844285 5.27992 0
M  V30 250 C 21.9775 1.32979 5.05088 0
M  V30 251 H 23.6715 1.02787 2.81203 0
M  V30 252 H 21.2175 0.495717 1.35199 0
M  V30 253 H 23.1705 -1.05302 4.08031 0
M  V30 254 H 21.8945 -1.47785 2.91251 0
M  V30 255 H 20.5535 0.531296 3.6273 0
M  V30 256 H 20.2015 -1.68011 4.74111 0
M  V30 257 H 19.9015 -0.332184 5.8666 0
M  V30 258 H 21.4255 -1.2583 5.97494 0
M  V30 259 H 22.8395 0.98934 5.64699 0
M  V30 260 H 21.2365 1.77593 5.7322 0
M  V30 261 H 22.3065 2.11978 4.36111 0
M  V30 262 N 23.6496 -1.47581 0.552962 0
M  V30 263 C 24.8776 -2.06875 0.0320556 0
M  V30 264 C 25.2926 -1.40625 -1.25976 0
M  V30 265 O 24.6496 -0.501349 -1.75479 0
M  V30 266 C 24.7006 -3.61092 -0.17167 0
M  V30 267 O 24.4216 -4.24858 1.06899 0
M  V30 268 C 25.9226 -4.37242 -0.730344 0
M  V30 269 H 23.1426 -0.669561 0.043915 0
M  V30 270 H 25.6866 -1.89646 0.765163 0
M  V30 271 H 23.8416 -3.7785 -0.854894 0
M  V30 272 H 24.2556 -5.17334 0.864059 0
M  V30 273 H 25.7296 -5.45842 -0.822203 0
M  V30 274 H 26.2066 -4.03235 -1.74064 0
M  V30 275 H 26.8126 -4.25219 -0.0829543 0
M  V30 276 N 25.1277 -0.289203 -1.54924 0
M  V30 277 C 26.0577 0.58549 -2.2604 0
M  V30 278 C 27.0387 1.14753 -1.25562 0
M  V30 279 O 28.2237 1.17906 -1.54311 0
M  V30 280 C 25.3537 1.76305 -2.99222 0
M  V30 281 C 24.3077 1.33191 -4.06748 0
M  V30 282 C 23.6337 2.5937 -4.6758 0
M  V30 283 C 24.9337 0.471775 -5.20165 0
M  V30 284 H 26.6277 -0.00763532 -2.99399 0
M  V30 285 H 24.1737 -0.00511229 -1.43999 0
M  V30 286 H 26.1267 2.38097 -3.47689 0
M  V30 287 H 24.8507 2.38223 -2.23422 0
M  V30 288 H 23.5097 0.737121 -3.59113 0
M  V30 289 H 23.1577 3.19576 -3.88433 0
M  V30 290 H 22.8577 2.31228 -5.40192 0
M  V30 291 H 24.3817 3.21985 -5.18804 0
M  V30 292 H 25.7957 0.995056 -5.64599 0
M  V30 293 H 24.1927 0.284639 -5.99425 0
M  V30 294 H 25.2627 -0.506041 -4.82252 0
M  V30 295 N 26.6058 1.57591 -0.0167156 0
M  V30 296 C 27.5388 2.04944 1.00366 0
M  V30 297 C 28.5168 0.942648 1.32487 0
M  V30 298 O 29.7008 1.21205 1.44367 0
M  V30 299 C 26.8278 2.46109 2.32697 0
M  V30 300 C 25.8738 3.67686 2.16123 0
M  V30 301 S 26.7068 5.14882 1.47161 0
M  V30 302 C 27.8628 5.59332 2.80888 0
M  V30 303 H 28.0958 2.91172 0.600528 0
M  V30 304 H 25.6288 1.53168 0.194632 0
M  V30 305 H 27.5868 2.70493 3.08778 0
M  V30 306 H 26.2478 1.6025 2.70146 0
M  V30 307 H 25.4408 3.94296 3.13922 0
M  V30 308 H 25.0428 3.43391 1.48185 0
M  V30 309 H 27.3348 5.62814 3.77156 0
M  V30 310 H 28.2778 6.5905 2.58958 0
M  V30 311 H 28.6858 4.86942 2.85565 0
M  V30 312 N 28.0839 -0.256276 1.55502 0
M  V30 313 C 29.0469 -1.30047 1.88734 0
M  V30 314 C 30.0469 -1.4154 0.763086 0
M  V30 315 O 31.2369 -1.40403 1.03115 0
M  V30 316 C 28.3689 -2.67953 2.10747 0
M  V30 317 H 29.5619 -1.01802 2.82093 0
M  V30 318 H 27.1149 -0.495134 1.4825 0
M  V30 319 H 27.8499 -3.01351 1.19825 0
M  V30 320 H 27.6349 -2.60993 2.92617 0
M  V30 321 H 29.1249 -3.43368 2.37673 0
M  V30 322 N 29.562 -1.4872 -0.521534 0
M  V30 323 C 30.787 -1.61101 -1.30618 0
M  V30 324 C 31.212 -0.274611 -1.86085 0
M  V30 325 O 30.57 0.754937 -1.64834 0
M  V30 326 C 30.618 -2.66709 -2.4269 0
M  V30 327 O 29.722 -2.24456 -3.45967 0
M  V30 328 H 29.063 -0.539921 -0.386499 0
M  V30 329 H 31.593 -1.94767 -0.626645 0
M  V30 330 H 31.603 -2.88245 -2.88754 0
M  V30 331 H 30.278 -3.63727 -2.01682 0
M  V30 332 H 28.855 -2.13168 -3.05964 0
M  V30 333 N 31.0401 0.771051 -1.3745 0
M  V30 334 C 31.9901 1.87456 -1.29785 0
M  V30 335 C 32.9741 1.59827 -0.185541 0
M  V30 336 O 34.1661 1.71945 -0.419997 0
M  V30 337 C 31.2951 3.24935 -1.1078 0
M  V30 338 C 30.3811 3.58514 -2.26558 0
M  V30 339 N 30.7721 3.6327 -3.5195 0
M  V30 340 C 29.0701 3.88683 -2.18727 0
M  V30 341 C 29.7711 3.93616 -4.283 0
M  V30 342 N 28.7471 4.09551 -3.57448 0
M  V30 343 H 32.5491 1.89386 -2.24745 0
M  V30 344 H 30.0631 0.967531 -1.30432 0
M  V30 345 H 32.0601 4.03881 -1.03374 0
M  V30 346 H 30.7201 3.24268 -0.16738 0
M  V30 347 H 31.7311 3.45458 -3.85848 0
M  V30 348 H 28.4081 3.95834 -1.32746 0
M  V30 349 H 29.7981 4.04066 -5.36824 0
M  V30 350 N 32.5182 1.22032 0.997298 0
M  V30 351 C 33.7652 1.04222 1.73621 0
M  V30 352 C 34.0932 -0.423264 1.89839 0
M  V30 353 O 33.3482 -1.3302 1.43542 0
M  V30 354 C 33.6472 1.69345 3.14733 0
M  V30 355 C 33.3132 3.19226 3.18442 0
M  V30 356 C 31.9752 3.60124 3.19161 0
M  V30 357 C 34.3272 4.15181 3.15078 0
M  V30 358 C 31.6552 4.95467 3.14212 0
M  V30 359 C 34.0072 5.50495 3.1167 0
M  V30 360 C 32.6712 5.90779 3.10703 0
M  V30 361 H 31.9412 0.381374 0.635323 0
M  V30 362 H 34.5882 1.51732 1.16831 0
M  V30 363 H 32.8932 1.14147 3.74803 0
M  V30 364 H 34.5902 1.53059 3.7064 0
M  V30 365 H 31.1802 2.86659 3.18629 0
M  V30 366 H 35.3642 3.84605 3.13676 0
M  V30 367 H 30.6202 5.25916 3.11805 0
M  V30 368 H 34.7942 6.24576 3.08022 0
M  V30 369 H 32.4212 6.9562 3.06622 0
M  V30 370 N 33.9963 -1.19345 1.0293 0
M  V30 371 C 35.2443 -1.88665 0.724574 0
M  V30 372 C 35.5653 -1.80036 -0.749144 0
M  V30 373 O 34.8353 -1.2111 -1.53978 0
M  V30 374 H 33.4153 -0.698406 0.265025 0
M  V30 375 H 36.0773 -1.44885 1.30362 0
M  V30 376 H 35.1733 -2.94987 1.01926 0
M  V30 377 N 35.4744 -0.807222 -1.35358 0
M  V30 378 C 36.8904 -0.491038 -1.51858 0
M  V30 379 C 37.0904 0.987648 -1.75635 0
M  V30 380 O 36.1464 1.77265 -1.79815 0
M  V30 381 C 37.4594 -1.33695 -2.69344 0
M  V30 382 C 39.0074 -1.33246 -2.83222 0
M  V30 383 C 39.4824 -2.1625 -4.03733 0
M  V30 384 N 40.9734 -2.1379 -4.10911 0
M  V30 385 C 41.7084 -2.74772 -5.03277 0
M  V30 386 N 41.2044 -3.44684 -6.0097 0
M  V30 387 N 42.9974 -2.6441 -4.96028 0
M  V30 388 H 35.1484 -1.76485 -1.18181 0
M  V30 389 H 37.4114 -0.751199 -0.578276 0
M  V30 390 H 37.1174 -2.38634 -2.58354 0
M  V30 391 H 36.9914 -0.990618 -3.6396 0
M  V30 392 H 39.3784 -0.290911 -2.93663 0
M  V30 393 H 39.4594 -1.71866 -1.89461 0
M  V30 394 H 39.1034 -3.20445 -3.94052 0
M  V30 395 H 39.0334 -1.74989 -4.96675 0
M  V30 396 H 41.5244 -1.62923 -3.40976 0
M  V30 397 H 41.8374 -3.88501 -6.68047 0
M  V30 398 H 40.1824 -3.48788 -6.01142 0
M  V30 399 H 43.3734 -2.0938 -4.18662 0
M  V30 400 H 43.5464 -3.12225 -5.6782 0
M  V30 401 N 36.9525 1.47285 -0.560781 0
M  V30 402 C 37.8855 2.27009 0.232821 0
M  V30 403 C 38.8635 1.34273 0.917039 0
M  V30 404 O 40.0475 1.63659 0.935315 0
M  V30 405 C 37.1745 3.11406 1.33206 0
M  V30 406 C 36.2205 4.19746 0.756019 0
M  V30 407 S 37.0535 5.34003 -0.400165 0
M  V30 408 C 38.2095 6.21964 0.700805 0
M  V30 409 H 38.4425 2.93971 -0.443683 0
M  V30 410 H 35.9755 1.50446 -0.347181 0
M  V30 411 H 37.9335 3.60601 1.96156 0
M  V30 412 H 36.5945 2.438 1.98041 0
M  V30 413 H 35.7875 4.78541 1.5816 0
M  V30 414 H 35.3895 3.73451 0.202619 0
M  V30 415 H 37.6815 6.58529 1.59202 0
M  V30 416 H 38.6245 7.07941 0.150126 0
M  V30 417 H 39.0325 5.5566 0.995083 0
M  V30 418 N 38.4306 0.297415 1.54768 0
M  V30 419 C 39.6586 -0.315623 2.04478 0
M  V30 420 C 40.0736 -1.47792 1.17486 0
M  V30 421 O 39.4306 -1.81404 0.19971 0
M  V30 422 C 39.4816 -0.7753 3.53088 0
M  V30 423 O 39.2026 0.340732 4.36773 0
M  V30 424 C 40.7036 -1.45386 4.18781 0
M  V30 425 H 37.9236 -0.0690887 0.667434 0
M  V30 426 H 40.4676 0.436003 1.99798 0
M  V30 427 H 38.6226 -1.47696 3.58141 0
M  V30 428 H 39.0366 -0.0165035 5.24497 0
M  V30 429 H 40.5106 -1.72669 5.24299 0
M  V30 430 H 40.9876 -2.39275 3.68299 0
M  V30 431 H 41.5936 -0.795475 4.17795 0
M  V30 432 N 39.9087 -1.5758 0.0250728 0
M  V30 433 C 41.3197 -1.79476 -0.514323 0
M  V30 434 C 41.6707 -0.934956 -1.72491 0
M  V30 435 O 40.7957 -0.144245 -2.15919 0
M  V30 436 C 41.3907 -3.25503 -0.939842 0
M  V30 437 C 39.9497 -3.48408 -1.42438 0
M  V30 438 C 39.0967 -2.74583 -0.387201 0
M  V30 439 H 42.0477 -1.567 0.25113 0
M  V30 440 H 42.0687 -3.34992 -1.80445 0
M  V30 441 H 41.5807 -3.88056 -0.0585628 0
M  V30 442 H 39.6817 -2.91103 -2.32572 0
M  V30 443 H 39.7947 -4.57119 -1.43455 0
M  V30 444 H 38.1587 -2.39942 -0.854409 0
M  V30 445 H 38.9417 -3.39849 0.485543 0
M  V30 446 N 41.3868 0.248026 -1.55636 0
M  V30 447 C 42.6328 0.97767 -1.77678 0
M  V30 448 C 42.9658 1.85016 -0.590135 0
M  V30 449 O 42.2408 1.90095 0.411611 0
M  V30 450 C 42.5238 1.83914 -3.09593 0
M  V30 451 C 42.3768 0.99491 -4.38659 0
M  V30 452 C 43.6958 2.82183 -3.37729 0
M  V30 453 H 40.8148 0.354005 -0.646413 0
M  V30 454 H 43.4568 0.248253 -1.88371 0
M  V30 455 H 41.6068 2.46104 -3.00608 0
M  V30 456 H 43.2788 0.391789 -4.59633 0
M  V30 457 H 41.5218 0.299231 -4.32767 0
M  V30 458 H 42.1928 1.63145 -5.2734 0
M  V30 459 H 44.6688 2.30129 -3.4667 0
M  V30 460 H 43.5448 3.39582 -4.31249 0
M  V30 461 H 43.8058 3.58588 -2.58586 0
M  V30 462 N 42.8649 1.48995 0.513639 0
M  V30 463 C 44.1109 1.58076 1.27042 0
M  V30 464 C 44.4439 0.261026 1.92438 0
M  V30 465 O 43.7189 -0.734393 1.80103 0
M  V30 466 C 44.0019 2.73091 2.34719 0
M  V30 467 C 43.8549 4.14821 1.73907 0
M  V30 468 C 45.1739 2.83796 3.36375 0
M  V30 469 H 42.2929 0.575391 0.460536 0
M  V30 470 H 44.9349 1.81232 0.570516 0
M  V30 471 H 43.0849 2.53479 2.94416 0
M  V30 472 H 44.7569 4.45917 1.18135 0
M  V30 473 H 42.9999 4.21058 1.0437 0
M  V30 474 H 43.6709 4.91147 2.51949 0
M  V30 475 H 46.1469 3.01611 2.86653 0
M  V30 476 H 45.0229 3.65971 4.09093 0
M  V30 477 H 45.2839 1.92624 3.9793 0
M  V30 478 N 44.343 -0.763751 1.37857 0
M  V30 479 C 45.29 -1.87726 1.34267 0
M  V30 480 C 46.26 -1.64807 0.206879 0
M  V30 481 O 47.445 -1.86613 0.397508 0
M  V30 482 C 44.585 -3.24896 1.16346 0
M  V30 483 C 43.698 -3.59716 2.39225 0
M  V30 484 C 42.833 -4.86137 2.14114 0
M  V30 485 C 41.872 -5.13711 3.32817 0
M  V30 486 N 41.009 -6.31323 3.07206 0
M  V30 487 H 45.849 -1.90129 2.29466 0
M  V30 488 H 43.386 -0.929433 1.14017 0
M  V30 489 H 45.344 -4.04036 1.03975 0
M  V30 490 H 43.974 -3.21847 0.247909 0
M  V30 491 H 43.026 -2.75498 2.62307 0
M  V30 492 H 44.338 -3.76027 3.27728 0
M  V30 493 H 43.492 -5.73198 1.9882 0
M  V30 494 H 42.231 -4.71945 1.22961 0
M  V30 495 H 41.236 -4.25123 3.48641 0
M  V30 496 H 42.461 -5.29807 4.24832 0
M  V30 497 H 40.407 -6.18474 2.1869 0
M  V30 498 H 40.324 -6.48087 3.89254 0
M  V30 499 H 41.592 -7.213 2.95546 0
M  V30 500 N 45.8211 -1.22559 -0.990812 0
M  V30 501 C 47.0691 -1.04933 -1.72724 0
M  V30 502 C 47.3901 0.416158 -1.90508 0
M  V30 503 O 46.6601 1.29918 -1.46622 0
M  V30 504 H 45.2401 -0.385296 -0.639965 0
M  V30 505 H 47.9021 -1.54105 -1.19322 0
M  V30 506 H 46.9981 -1.52886 -2.72089 0
M  V30 507 N 47.2992 1.18797 -1.03562 0
M  V30 508 C 48.2312 2.21731 -0.580337 0
M  V30 509 C 49.2442 1.59051 0.347349 0
M  V30 510 O 50.4332 1.77929 0.142669 0
M  V30 511 C 47.5332 3.38459 0.172805 0
M  V30 512 C 46.7062 4.3072 -0.761496 0
M  V30 513 C 45.7652 5.26174 -0.0525547 0
M  V30 514 O 44.7912 5.65108 -0.681333 0
M  V30 515 N 45.9932 5.67624 1.21586 0
M  V30 516 H 48.7582 2.61417 -1.46565 0
M  V30 517 H 46.3192 1.33531 -0.915476 0
M  V30 518 H 48.3112 3.99335 0.656793 0
M  V30 519 H 46.8812 2.97507 0.959602 0
M  V30 520 H 46.1012 3.67525 -1.42544 0
M  V30 521 H 47.3892 4.89267 -1.39626 0
M  V30 522 H 46.7872 5.38038 1.74732 0
M  V30 523 H 45.3442 6.30721 1.64421 0
M  V30 524 N 48.7773 0.814389 1.34928 0
M  V30 525 C 49.7403 0.235759 2.27984 0
M  V30 526 C 50.7403 -0.581412 1.49921 0
M  V30 527 O 51.9303 -0.398758 1.69575 0
M  V30 528 C 49.0623 -0.670433 3.34242 0
M  V30 529 H 50.2553 1.05659 2.80671 0
M  V30 530 H 47.8083 0.585614 1.44915 0
M  V30 531 H 48.5433 -1.51466 2.86755 0
M  V30 532 H 48.3283 -0.0860822 3.92005 0
M  V30 533 H 49.8183 -1.06935 4.03676 0
M  V30 534 N 50.2554 -1.46986 0.568584 0
M  V30 535 C 51.6664 -1.86188 0.138219 0
M  V30 536 C 52.0174 -1.47388 -1.29504 0
M  V30 537 O 51.1424 -0.88219 -1.97602 0
M  V30 538 C 51.7374 -3.3792 0.244065 0
M  V30 539 C 50.2964 -3.76171 -0.131335 0
M  V30 540 C 49.4434 -2.71027 0.586465 0
M  V30 541 H 52.3944 -1.38342 0.777645 0
M  V30 542 H 52.4154 -3.76729 -0.534351 0
M  V30 543 H 51.9274 -3.66128 1.28731 0
M  V30 544 H 50.0284 -3.5358 -1.17526 0
M  V30 545 H 50.1414 -4.78523 0.235146 0
M  V30 546 H 48.5054 -2.54684 0.0282722 0
M  V30 547 H 49.2884 -3.02077 1.63109 0
M  V30 548 N 51.7335 -0.305618 -1.54608 0
M  V30 549 C 52.9635 0.304333 -2.04346 0
M  V30 550 C 53.3715 1.47715 -1.18224 0
M  V30 551 O 52.7145 1.82591 -0.201577 0
M  V30 552 C 52.7765 0.819031 -3.50046 0
M  V30 553 C 52.4405 -0.22912 -4.56425 0
M  V30 554 C 53.4375 -1.05914 -5.08997 0
M  V30 555 C 51.1225 -0.372148 -5.0092 0
M  V30 556 C 53.1165 -2.01809 -6.04609 0
M  V30 557 C 50.8035 -1.33454 -5.9635 0
M  V30 558 C 51.8015 -2.15599 -6.48079 0
M  V30 559 O 51.4895 -3.10205 -7.41639 0
M  V30 560 H 51.2215 0.0693996 -0.672428 0
M  V30 561 H 53.7755 -0.444548 -2.00532 0
M  V30 562 H 52.0055 1.61852 -3.51199 0
M  V30 563 H 53.6945 1.34537 -3.82955 0
M  V30 564 H 54.4605 -0.959538 -4.75413 0
M  V30 565 H 50.3395 0.257304 -4.60281 0
M  V30 566 H 53.8835 -2.65966 -6.44909 0
M  V30 567 H 49.7805 -1.43485 -6.29351 0
M  V30 568 H 50.5485 -3.05237 -7.59455 0
M  V30 569 N 53.2116 1.57565 -0.0334293 0
M  V30 570 C 54.4886 1.83282 0.683163 0
M  V30 571 C 54.8686 0.91823 1.90084 0
M  V30 572 O 54.2166 -0.025113 2.28486 0
M  V30 573 C 54.4266 3.32599 1.0573 0
M  V30 574 C 55.7746 3.99179 1.44711 0
M  V30 575 O 56.7986 3.3712 1.15015 0
M  V30 576 O 55.6576 5.08565 2.0006 0
M  V30 577 H 52.7516 0.755869 0.335546 0
M  V30 578 H 55.2976 1.69589 -0.0614402 0
M  V30 579 H 54.0696 3.90834 0.190828 0
M  V30 580 H 53.6926 3.51415 1.85993 0
M  V30 581 N 54.6897 -0.239769 1.55765 0
M  V30 582 C 55.6527 -1.28038 1.90103 0
M  V30 583 C 56.6527 -1.40723 0.778055 0
M  V30 584 O 57.8427 -1.39301 1.04599 0
M  V30 585 C 54.9747 -2.65702 2.13577 0
M  V30 586 H 56.1677 -0.988048 2.83157 0
M  V30 587 H 53.7207 -0.479382 1.48767 0
M  V30 588 H 54.4557 -3.00063 1.23015 0
M  V30 589 H 54.2407 -2.57875 2.95369 0
M  V30 590 H 55.7307 -3.40828 2.41301 0
M  V30 591 N 56.1678 -1.49265 -0.50573 0
M  V30 592 C 57.1308 -1.65075 -1.59006 0
M  V30 593 C 58.1308 -0.522768 -1.52065 0
M  V30 594 O 59.3208 -0.789117 -1.55302 0
M  V30 595 C 56.4528 -1.64369 -2.98656 0
M  V30 596 H 57.6458 -2.61784 -1.46319 0
M  V30 597 H 55.1988 -1.38226 -0.729616 0
M  V30 598 H 55.9338 -0.692272 -3.16825 0
M  V30 599 H 55.7188 -2.46282 -3.05103 0
M  V30 600 H 57.2088 -1.78674 -3.77446 0
M  V30 601 N 57.6459 0.756429 -1.3826 0
M  V30 602 C 58.5779 1.87971 -1.31147 0
M  V30 603 C 59.5909 1.61248 -0.224239 0
M  V30 604 O 60.7799 1.71881 -0.481581 0
M  V30 605 C 57.8799 3.23545 -1.00857 0
M  V30 606 C 57.0529 3.77794 -2.20432 0
M  V30 607 C 56.1119 4.91877 -1.86931 0
M  V30 608 O 55.1379 5.06659 -2.59395 0
M  V30 609 N 56.3399 5.74643 -0.822568 0
M  V30 610 H 59.1049 1.94585 -2.2794 0
M  V30 611 H 56.6659 0.936234 -1.32084 0
M  V30 612 H 58.6579 3.97403 -0.765021 0
M  V30 613 H 57.2279 3.12335 -0.128687 0
M  V30 614 H 56.4479 2.95534 -2.6087 0
M  V30 615 H 57.7359 4.10771 -3.00241 0
M  V30 616 H 57.1339 5.65266 -0.221575 0
M  V30 617 H 55.6909 6.48661 -0.638899 0
M  V30 618 N 59.124 1.23083 0.984299 0
M  V30 619 C 60.373 1.05466 1.71929 0
M  V30 620 C 60.686 -0.409211 1.91272 0
M  V30 621 O 61.892 -0.705226 2.62181 0
M  V30 622 C 60.348 1.83874 3.09384 0
M  V30 623 C 59.956 3.34566 2.97943 0
M  V30 624 C 61.7 1.74734 3.8687 0
M  V30 625 C 59.607 4.05381 4.30605 0
M  V30 626 H 58.537 0.391039 0.644674 0
M  V30 627 H 61.188 1.47013 1.09815 0
M  V30 628 H 59.57 1.35131 3.72231 0
M  V30 629 H 60.744 3.90767 2.44209 0
M  V30 630 H 59.059 3.44476 2.33934 0
M  V30 631 H 61.656 2.24957 4.85076 0
M  V30 632 H 61.999 0.709372 4.10212 0
M  V30 633 H 62.532 2.21067 3.30717 0
M  V30 634 H 59.271 5.09467 4.1246 0
M  V30 635 H 58.791 3.53967 4.84218 0
M  V30 636 H 60.47 4.11458 4.99311 0
M  V30 637 N 60.6021 -1.18246 1.0419 0
M  V30 638 C 61.5491 -2.2192 0.634037 0
M  V30 639 C 62.5191 -1.62179 -0.358765 0
M  V30 640 O 63.7041 -1.89122 -0.252466 0
M  V30 641 C 60.8441 -3.451 0.00445535 0
M  V30 642 C 59.9571 -4.19174 1.04487 0
M  V30 643 C 59.0921 -5.29813 0.383676 0
M  V30 644 C 58.1311 -5.9566 1.4091 0
M  V30 645 N 57.2681 -6.97834 0.772784 0
M  V30 646 H 62.1081 -2.56164 1.52263 0
M  V30 647 H 59.6451 -1.25843 0.761701 0
M  V30 648 H 61.6031 -4.15485 -0.377919 0
M  V30 649 H 60.2331 -3.11472 -0.847652 0
M  V30 650 H 59.2851 -3.47604 1.54518 0
M  V30 651 H 60.5971 -4.64267 1.82368 0
M  V30 652 H 59.7511 -6.06677 -0.0528366 0
M  V30 653 H 58.4901 -4.85825 -0.427208 0
M  V30 654 H 57.4951 -5.17535 1.85574 0
M  V30 655 H 58.7201 -6.4173 2.22171 0
M  V30 656 H 56.6661 -6.55998 -0.0177708 0
M  V30 657 H 56.5831 -7.41186 1.48928 0
M  V30 658 H 57.8511 -7.78665 0.36071 0
M  V30 659 N 62.0802 -0.821533 -1.34494 0
M  V30 660 C 63.0432 -0.247847 -2.27856 0
M  V30 661 C 64.0432 0.573453 -1.50227 0
M  V30 662 O 65.2332 0.389759 -1.69784 0
M  V30 663 C 62.3652 0.652698 -3.34593 0
M  V30 664 H 63.5582 -1.07146 -2.80107 0
M  V30 665 H 61.1112 -0.593291 -1.44602 0
M  V30 666 H 61.8462 1.49943 -2.87555 0
M  V30 667 H 61.6312 0.065292 -3.92046 0
M  V30 668 H 63.1212 1.04793 -4.04238 0
M  V30 669 N 63.5583 1.46682 -0.576371 0
M  V30 670 C 64.5063 2.31953 0.17335 0
M  V30 671 C 65.5003 1.44098 0.89062 0
M  V30 672 O 66.7063 1.60759 0.809728 0
M  V30 673 H 63.0813 0.748273 0.0747727 0
M  V30 674 H 65.0523 2.93007 -0.564738 0
M  V30 675 C 63.8013 3.27142 1.17786 0
M  V30 676 H 63.1243 3.94719 0.635361 0
M  V30 677 H 64.5643 3.896 1.67296 0
M  V30 678 C 63.0233 2.52036 2.23561 0
M  V30 679 O 63.5533 2.27877 3.3081 0
M  V30 680 N 61.7593 2.12709 1.97998 0
M  V30 681 H 61.3063 2.32557 1.10792 0
M  V30 682 H 61.2643 1.62776 2.68982 0
M  V30 683 N 65.0364 0.313813 1.54444 0
M  V30 684 C 66.2824 -0.292108 2.00685 0
M  V30 685 C 66.6154 -1.52548 1.20177 0
M  V30 686 O 65.8904 -1.92452 0.281531 0
M  V30 687 C 66.1734 -0.635968 3.5444 0
M  V30 688 C 66.0264 0.607437 4.4568 0
M  V30 689 C 67.3454 -1.45747 4.15266 0
M  V30 690 H 64.4644 -0.104697 0.729526 0
M  V30 691 H 67.1064 0.428457 1.85106 0
M  V30 692 H 65.2564 -1.24986 3.67846 0
M  V30 693 H 66.9284 1.24581 4.44159 0
M  V30 694 H 65.1714 1.23822 4.15753 0
M  V30 695 H 65.8424 0.322515 5.51057 0
M  V30 696 H 68.3184 -0.938645 4.05375 0
M  V30 697 H 67.1944 -1.66683 5.2298 0
M  V30 698 H 67.4554 -2.45063 3.67963 0
M  V30 699 N 66.5145 -1.57545 0.0417849 0
M  V30 700 C 67.4245 -2.14451 -0.951213 0
M  V30 701 C 68.4405 -1.09992 -1.34825 0
M  V30 702 O 69.6165 -1.42114 -1.42708 0
M  V30 703 C 66.6815 -2.67063 -2.21084 0
M  V30 704 C 65.7425 -3.86284 -1.87304 0
M  V30 705 C 64.9755 -4.36378 -3.07261 0
M  V30 706 O 65.1985 -3.85587 -4.20332 0
M  V30 707 O 64.1325 -5.28077 -2.88822 0
M  V30 708 H 67.9585 -2.99601 -0.497287 0
M  V30 709 H 65.5435 -1.48317 -0.179567 0
M  V30 710 H 67.4255 -3.00914 -2.95006 0
M  V30 711 H 66.1005 -1.84989 -2.65633 0
M  V30 712 H 65.0075 -3.57338 -1.10727 0
M  V30 713 H 66.3405 -4.6956 -1.47562 0
M  V30 714 N 67.9926 0.231505 -1.5589 0
M  V30 715 C 69.2386 0.95877 -1.78705 0
M  V30 716 C 69.5716 1.8438 -0.609725 0
M  V30 717 O 68.8466 1.90521 0.391426 0
M  V30 718 C 69.1296 1.8062 -3.11526 0
M  V30 719 C 68.9826 0.948328 -4.39689 0
M  V30 720 C 70.3016 2.78585 -3.40703 0
M  V30 721 H 67.4206 0.347129 -0.650131 0
M  V30 722 H 70.0626 0.228259 -1.88624 0
M  V30 723 H 68.2126 2.42902 -3.03201 0
M  V30 724 H 69.8846 0.343016 -4.60023 0
M  V30 725 H 68.1276 0.253314 -4.3306 0
M  V30 726 H 68.7986 1.57543 -5.29041 0
M  V30 727 H 71.2746 2.26439 -3.49091 0
M  V30 728 H 70.1506 3.34988 -4.34826 0
M  V30 729 H 70.4116 3.55825 -2.62375 0
M  V30 730 N 69.4707 1.49531 0.497807 0
M  V30 731 C 70.4007 1.6935 1.60757 0
M  V30 732 C 71.3817 0.542218 1.61227 0
M  V30 733 O 72.5667 0.778417 1.77917 0
M  V30 734 C 69.6967 1.76298 2.99226 0
M  V30 735 C 68.6507 2.91248 3.13622 0
M  V30 736 C 67.9767 2.83312 4.53474 0
M  V30 737 C 69.2767 4.3214 2.93346 0
M  V30 738 H 70.9707 2.62263 1.44425 0
M  V30 739 H 68.5167 1.26208 0.693367 0
M  V30 740 H 70.4697 1.88749 3.76765 0
M  V30 741 H 69.1937 0.799871 3.16654 0
M  V30 742 H 67.8527 2.78404 2.38509 0
M  V30 743 H 67.5007 1.84902 4.67782 0
M  V30 744 H 67.2007 3.60465 4.64046 0
M  V30 745 H 68.7247 2.97775 5.33069 0
M  V30 746 H 70.1387 4.45649 3.60652 0
M  V30 747 H 68.5357 5.1054 3.15387 0
M  V30 748 H 69.6057 4.46363 1.89441 0
M  V30 749 N 70.9488 -0.749086 1.3866 0
M  V30 750 C 71.8958 -1.86291 1.36251 0
M  V30 751 C 72.8658 -1.64578 0.224347 0
M  V30 752 O 74.0508 -1.86181 0.417279 0
M  V30 753 C 71.1908 -3.23644 1.19786 0
M  V30 754 C 70.3038 -3.57158 2.43027 0
M  V30 755 C 69.4388 -4.83838 2.19258 0
M  V30 756 C 68.4778 -5.10152 3.38247 0
M  V30 757 N 67.6148 -6.28029 3.13884 0
M  V30 758 H 72.4548 -1.87685 2.3147 0
M  V30 759 H 69.9918 -0.917287 1.14997 0
M  V30 760 H 71.9498 -4.0291 1.08254 0
M  V30 761 H 70.5798 -3.21566 0.282031 0
M  V30 762 H 69.6318 -2.72701 2.65214 0
M  V30 763 H 70.9438 -3.7253 3.31697 0
M  V30 764 H 70.0978 -5.71057 2.04888 0
M  V30 765 H 68.8368 -4.70614 1.2796 0
M  V30 766 H 67.8418 -4.21401 3.53131 0
M  V30 767 H 69.0668 -5.25271 4.30427 0
M  V30 768 H 67.0128 -6.1612 2.25238 0
M  V30 769 H 66.9298 -6.43922 3.96106 0
M  V30 770 H 68.1978 -7.18124 3.03179 0
M  V30 771 N 72.4269 -1.23603 -0.977757 0
M  V30 772 C 73.6549 -1.09646 -1.75458 0
M  V30 773 C 74.0699 0.351859 -1.85492 0
M  V30 774 O 73.4269 1.24327 -1.336 0
M  V30 775 C 73.4779 -1.71895 -3.18016 0
M  V30 776 O 73.1989 -3.11063 -3.08498 0
M  V30 777 C 74.6999 -1.63415 -4.12081 0
M  V30 778 H 71.9199 -0.38359 -0.550545 0
M  V30 779 H 74.4639 -1.63507 -1.22824 0
M  V30 780 H 72.6189 -1.22061 -3.67668 0
M  V30 781 H 73.0329 -3.41305 -3.9826 0
M  V30 782 H 74.5069 -2.11669 -5.09804 0
M  V30 783 H 74.9839 -0.593462 -4.35172 0
M  V30 784 H 75.5899 -2.12628 -3.68334 0
M  V30 785 N 73.905 1.17692 -1.04816 0
M  V30 786 C 74.835 2.23777 -0.666791 0
M  V30 787 C 75.816 1.66796 0.33361 0
M  V30 788 O 77.001 1.93039 0.212042 0
M  V30 789 C 74.131 3.47281 -0.0367933 0
M  V30 790 C 73.085 4.17059 -0.961546 0
M  V30 791 C 72.411 5.34342 -0.195626 0
M  V30 792 C 73.711 4.69713 -2.28402 0
M  V30 793 H 75.405 2.55933 -1.55367 0
M  V30 794 H 72.951 1.23019 -0.748484 0
M  V30 795 H 74.904 4.20706 0.241775 0
M  V30 796 H 73.628 3.14381 0.885004 0
M  V30 797 H 72.287 3.45541 -1.22462 0
M  V30 798 H 71.935 4.97692 0.728816 0
M  V30 799 H 71.635 5.81966 -0.811775 0
M  V30 800 H 73.159 6.10553 0.0757473 0
M  V30 801 H 74.573 5.34794 -2.06563 0
M  V30 802 H 72.97 5.279 -2.8538 0
M  V30 803 H 74.04 3.86726 -2.92525 0
M  V30 804 N 75.3831 0.828654 1.34056 0
M  V30 805 C 76.6081 0.431637 2.02859 0
M  V30 806 C 77.0331 -0.956339 1.61975 0
M  V30 807 O 76.3911 -1.62338 0.807228 0
M  V30 808 C 76.4391 0.548323 3.56407 0
M  V30 809 O 75.5431 -0.429556 4.10157 0
M  V30 810 H 74.8841 0.176886 0.640006 0
M  V30 811 H 77.4141 1.12066 1.71179 0
M  V30 812 H 77.4241 0.426196 4.05768 0
M  V30 813 H 76.0991 1.5606 3.8551 0
M  V30 814 H 74.6761 -0.265836 3.71951 0
M  V30 815 N 76.8612 -1.46375 0.584142 0
M  V30 816 C 77.8242 -2.28784 -0.138108 0
M  V30 817 C 78.8242 -1.38471 -0.817462 0
M  V30 818 O 80.0142 -1.60833 -0.669199 0
M  V30 819 C 77.1462 -3.18892 -1.20503 0
M  V30 820 H 78.3392 -2.94117 0.586127 0
M  V30 821 H 75.8922 -1.52509 0.342171 0
M  V30 822 H 76.6272 -2.58309 -1.96079 0
M  V30 823 H 76.4122 -3.85388 -0.722384 0
M  V30 824 H 77.9022 -3.80914 -1.71155 0
M  V30 825 N 78.3393 -0.321999 -1.54275 0
M  V30 826 C 79.2693 0.537411 -2.27231 0
M  V30 827 C 80.2503 1.12064 -1.27968 0
M  V30 828 O 81.4353 1.14606 -1.56777 0
M  V30 829 C 78.5653 1.69919 -3.02894 0
M  V30 830 C 77.5193 1.24534 -4.09482 0
M  V30 831 C 76.8453 2.49394 -4.72977 0
M  V30 832 C 78.1453 0.361335 -5.21049 0
M  V30 833 H 79.8393 -0.0711406 -2.99315 0
M  V30 834 H 77.3853 -0.0356555 -1.43956 0
M  V30 835 H 79.3383 2.30668 -3.52662 0
M  V30 836 H 78.0623 2.33431 -2.28424 0
M  V30 837 H 76.7213 0.660782 -3.60596 0
M  V30 838 H 76.3693 3.11265 -3.95124 0
M  V30 839 H 76.0693 2.19718 -5.44975 0
M  V30 840 H 77.5933 3.10908 -5.25517 0
M  V30 841 H 79.0073 0.875072 -5.66582 0
M  V30 842 H 77.4043 0.157428 -5.99893 0
M  V30 843 H 78.4743 -0.60822 -4.8107 0
M  V30 844 N 79.8174 1.5752 -0.0501392 0
M  V30 845 C 81.2284 1.80271 0.485705 0
M  V30 846 C 81.5794 0.96228 1.70981 0
M  V30 847 O 80.7044 0.178578 2.15662 0
M  V30 848 C 81.2994 3.26957 0.887938 0
M  V30 849 C 79.8584 3.5063 1.36877 0
M  V30 850 C 79.0054 2.75165 0.343468 0
M  V30 851 H 81.9564 1.56281 -0.276028 0
M  V30 852 H 81.9774 3.37821 1.75093 0
M  V30 853 H 81.4894 3.881 -0.0031809 0
M  V30 854 H 79.5904 2.94766 2.27911 0
M  V30 855 H 79.7034 4.59343 1.36164 0
M  V30 856 H 78.0674 2.4127 0.816128 0
M  V30 857 H 78.8504 3.39034 -0.539548 0
M  V30 858 N 81.2955 -0.223234 1.56011 0
M  V30 859 C 82.5415 -0.944891 1.8012 0
M  V30 860 C 82.8965 -1.82039 0.622862 0
M  V30 861 O 82.1895 -1.8773 -0.383143 0
M  V30 862 C 82.3835 -1.81948 3.0762 0
M  V30 863 C 82.2125 -1.03014 4.37742 0
M  V30 864 C 80.9825 -0.72574 5.00061 0
M  V30 865 C 83.1805 -0.396256 5.12771 0
M  V30 866 N 81.1625 0.0851816 6.13841 0
M  V30 867 C 82.5335 0.278137 6.19376 0
M  V30 868 C 84.5885 -0.309117 4.9694 0
M  V30 869 C 83.2915 1.03133 7.11868 0
M  V30 870 C 85.3175 0.430607 5.8983 0
M  V30 871 C 84.6795 1.09355 6.9586 0
M  V30 872 H 80.7785 -0.326081 0.710771 0
M  V30 873 H 83.3625 -0.215914 1.93499 0
M  V30 874 H 81.5335 -2.52029 2.95527 0
M  V30 875 H 83.2655 -2.47848 3.19927 0
M  V30 876 H 80.0205 -1.04335 4.61964 0
M  V30 877 H 80.4445 0.479428 6.753 0
M  V30 878 H 85.0865 -0.807313 4.15021 0
M  V30 879 H 82.8045 1.54105 7.9327 0
M  V30 880 H 86.3905 0.499012 5.79656 0
M  V30 881 H 85.2705 1.65679 7.66499 0
M  V30 882 N 82.7736 -1.49793 -0.48987 0
M  V30 883 C 83.7366 -1.66752 -1.57246 0
M  V30 884 C 84.7366 -0.538867 -1.51502 0
M  V30 885 O 85.9266 -0.805545 -1.54456 0
M  V30 886 C 83.0586 -1.67528 -2.96896 0
M  V30 887 H 84.2516 -2.63321 -1.43534 0
M  V30 888 H 81.8046 -1.38992 -0.714914 0
M  V30 889 H 82.5396 -0.725837 -3.16073 0
M  V30 890 H 82.3246 -2.49504 -3.02473 0
M  V30 891 H 83.8146 -1.82667 -3.7553 0
M  V30 892 N 84.2517 0.741722 -1.39055 0
M  V30 893 C 85.2147 1.83733 -1.37021 0
M  V30 894 C 86.2147 1.58542 -0.268534 0
M  V30 895 O 87.4047 1.66067 -0.526076 0
M  V30 896 C 84.5367 3.2141 -1.13617 0
M  V30 897 H 85.7297 1.86941 -2.34506 0
M  V30 898 H 83.2827 0.944676 -1.24521 0
M  V30 899 H 84.0177 3.23865 -0.167863 0
M  V30 900 H 83.8027 3.4109 -1.93391 0
M  V30 901 H 85.2927 4.01477 -1.14918 0
M  V30 902 N 85.7298 1.2412 0.971189 0
M  V30 903 C 86.9768 1.07881 1.71371 0
M  V30 904 C 87.3048 -0.382901 1.90694 0
M  V30 905 O 86.5598 -1.29945 1.46331 0
M  V30 906 C 86.8588 1.75983 3.11071 0
M  V30 907 C 86.5248 3.25909 3.11599 0
M  V30 908 C 85.1868 3.66813 3.11451 0
M  V30 909 C 87.5388 4.21771 3.062 0
M  V30 910 C 84.8668 5.02021 3.03631 0
M  V30 911 C 87.2188 5.56982 2.99923 0
M  V30 912 C 85.8828 5.97237 2.98102 0
M  V30 913 H 85.1528 0.394764 0.62709 0
M  V30 914 H 87.7998 1.54176 1.13587 0
M  V30 915 H 86.1048 1.22072 3.72298 0
M  V30 916 H 87.8018 1.60887 3.6731 0
M  V30 917 H 84.3918 2.93353 3.12477 0
M  V30 918 H 88.5758 3.91172 3.05447 0
M  V30 919 H 83.8318 5.32411 3.0058 0
M  V30 920 H 88.0058 6.30969 2.94704 0
M  V30 921 H 85.6328 7.01967 2.91798 0
M  V30 922 N 87.2079 -1.17134 1.05439 0
M  V30 923 C 88.4559 -1.87085 0.764429 0
M  V30 924 C 88.7769 -1.81584 -0.710787 0
M  V30 925 O 88.0469 -1.24349 -1.51374 0
M  V30 926 H 86.6269 -0.692627 0.279779 0
M  V30 927 H 89.2889 -1.42087 1.33406 0
M  V30 928 H 88.3849 -2.92759 1.0816 0
M  V30 929 N 88.686 -0.835752 -1.33615 0
M  V30 930 C 90.097 -0.487099 -1.80234 0
M  V30 931 C 90.448 0.993627 -1.69179 0
M  V30 932 O 89.573 1.77403 -1.23924 0
M  V30 933 C 90.168 -0.877385 -3.27242 0
M  V30 934 C 88.727 -0.580915 -3.7189 0
M  V30 935 C 87.874 -1.0874 -2.5509 0
M  V30 936 H 90.825 -1.02474 -1.2118 0
M  V30 937 H 90.846 -0.186195 -3.80044 0
M  V30 938 H 90.358 -1.95512 -3.35256 0
M  V30 939 H 88.459 0.486881 -3.69405 0
M  V30 940 H 88.572 -1.13396 -4.65487 0
M  V30 941 H 86.936 -0.508392 -2.49575 0
M  V30 942 H 87.719 -2.17184 -2.65868 0
M  V30 943 N 90.1641 1.46063 -0.591896 0
M  V30 944 C 91.4121 2.01938 -0.0808391 0
M  V30 945 C 91.7331 1.46475 1.28725 0
M  V30 946 O 91.0031 0.652944 1.84698 0
M  V30 947 H 89.5831 0.746516 -0.0268938 0
M  V30 948 H 92.2451 1.79055 -0.769752 0
M  V30 949 H 91.3411 3.12094 -0.0187578 0
M  V30 950 N 91.6422 0.330177 1.54103 0
M  V30 951 C 92.8702 -0.272179 2.05102 0
M  V30 952 C 93.2852 -1.45267 1.20595 0
M  V30 953 O 92.6422 -1.8094 0.238144 0
M  V30 954 C 92.6932 -0.70023 3.54653 0
M  V30 955 O 92.4142 0.433301 4.35952 0
M  V30 956 C 93.9152 -1.3647 4.21771 0
M  V30 957 H 91.1352 -0.0549159 0.668749 0
M  V30 958 H 93.6792 0.478285 1.98828 0
M  V30 959 H 91.8342 -1.40066 3.61193 0
M  V30 960 H 92.2482 0.0947539 5.24414 0
M  V30 961 H 93.7222 -1.61509 5.27843 0
M  V30 962 H 94.1992 -2.31409 3.73292 0
M  V30 963 H 94.8052 -0.706675 4.19388 0
M  V30 964 N 93.1203 -1.57491 0.0584922 0
M  V30 965 C 94.0303 -2.15448 -0.928414 0
M  V30 966 C 95.0463 -1.11416 -1.3365 0
M  V30 967 O 96.2223 -1.4362 -1.41193 0
M  V30 968 C 93.2873 -2.69393 -2.18239 0
M  V30 969 C 92.3483 -3.88249 -1.83196 0
M  V30 970 C 91.5813 -4.39613 -3.02616 0
M  V30 971 O 91.8043 -3.90023 -4.16219 0
M  V30 972 O 90.7383 -5.31111 -2.83204 0
M  V30 973 H 94.5643 -3.00112 -0.465483 0
M  V30 974 H 92.1493 -1.48499 -0.163826 0
M  V30 975 H 94.0313 -3.04026 -2.91798 0
M  V30 976 H 92.7063 -1.87796 -2.63656 0
M  V30 977 H 91.6133 -3.58492 -1.06931 0
M  V30 978 H 92.9463 -4.71098 -1.42573 0
M  V30 979 N 94.5984 0.214957 -1.56127 0
M  V30 980 C 95.8464 0.936518 -1.79091 0
M  V30 981 C 96.1674 1.84606 -0.628148 0
M  V30 982 O 95.4374 1.92664 0.35462 0
M  V30 983 H 94.0174 0.3488 -0.660566 0
M  V30 984 H 96.6794 0.22523 -1.93594 0
M  V30 985 H 95.7754 1.53943 -2.71492 0
M  V30 986 N 96.0765 1.50051 0.48192 0
M  V30 987 C 97.3245 1.60181 1.23234 0
M  V30 988 C 97.6455 0.299176 1.92691 0
M  V30 989 O 96.9155 -0.682708 1.83619 0
M  V30 990 H 95.4955 0.590232 0.457859 0
M  V30 991 H 98.1575 1.86775 0.556881 0
M  V30 992 H 97.2535 2.40753 1.98607 0
M  V30 993 N 97.5546 -0.734337 1.39446 0
M  V30 994 C 98.8316 -1.48579 1.27215 0
M  V30 995 C 99.2116 -2.1077 -0.117968 0
M  V30 996 O 98.5596 -1.98646 -1.12924 0
M  V30 997 C 98.7696 -2.53667 2.39696 0
M  V30 998 C 100.118 -3.20031 2.79044 0
M  V30 999 O 101.142 -2.6398 2.39151 0
M  V30 1000 O 100.001 -4.21455 3.47905 0
M  V30 1001 H 97.0946 -0.659816 0.49857 0
M  V30 1002 H 99.6406 -0.768106 1.51322 0
M  V30 1003 H 98.4126 -2.06096 3.32626 0
M  V30 1004 H 98.0356 -3.32994 2.17258 0
M  V30 1005 N 99.0327 -1.24633 -0.964593 0
M  V30 1006 C 99.9957 -1.0424 -2.04124 0
M  V30 1007 C 100.996 0.00137563 -1.608 0
M  V30 1008 O 102.186 -0.239883 -1.7254 0
M  V30 1009 C 99.3177 -0.580588 -3.3592 0
M  V30 1010 H 100.511 -1.99803 -2.23649 0
M  V30 1011 H 98.0637 -1.06899 -1.14027 0
M  V30 1012 H 98.7987 0.3781 -3.22088 0
M  V30 1013 H 98.5837 -1.33398 -3.6871 0
M  V30 1014 H 100.074 -0.459034 -4.15069 0
M  V30 1015 N 100.511 1.16574 -1.06058 0
M  V30 1016 C 101.927 1.3904 -0.783585 0
M  V30 1017 C 102.127 1.91784 0.618145 0
M  V30 1018 O 101.183 2.11511 1.37911 0
M  V30 1019 C 102.496 2.37329 -1.84649 0
M  V30 1020 C 104.044 2.51018 -1.86973 0
M  V30 1021 C 104.519 3.52588 -2.92311 0
M  V30 1022 N 106.01 3.60113 -2.91329 0
M  V30 1023 C 106.745 4.38486 -3.69482 0
M  V30 1024 N 106.241 5.20302 -4.57447 0
M  V30 1025 N 108.034 4.33446 -3.57885 0
M  V30 1026 H 100.185 0.806725 -1.96483 0
M  V30 1027 H 102.448 0.417117 -0.851303 0
M  V30 1028 H 102.154 2.05663 -2.85299 0
M  V30 1029 H 102.028 3.36946 -1.6955 0
M  V30 1030 H 104.415 2.81989 -0.869827 0
M  V30 1031 H 104.496 1.51445 -2.0615 0
M  V30 1032 H 104.14 3.22354 -3.92492 0
M  V30 1033 H 104.07 4.51886 -2.70383 0
M  V30 1034 H 106.561 3.01707 -2.27555 0
M  V30 1035 H 106.874 5.77311 -5.13743 0
M  V30 1036 H 105.219 5.19653 -4.61503 0
M  V30 1037 H 108.41 3.68586 -2.88551 0
M  V30 1038 H 108.583 4.94279 -4.19037 0
M  V30 1039 N 101.989 0.842826 1.3317 0
M  V30 1040 C 103.4 0.496651 1.79973 0
M  V30 1041 C 103.751 -0.984641 1.69703 0
M  V30 1042 O 102.876 -1.76743 1.24863 0
M  V30 1043 C 103.471 0.894727 3.26772 0
M  V30 1044 C 102.03 0.600629 3.71577 0
M  V30 1045 C 101.177 1.10091 2.5451 0
M  V30 1046 H 104.128 1.03116 1.20635 0
M  V30 1047 H 104.149 0.206347 3.7994 0
M  V30 1048 H 103.661 1.97287 3.34215 0
M  V30 1049 H 101.762 -0.467284 3.69658 0
M  V30 1050 H 101.875 1.15863 4.64879 0
M  V30 1051 H 100.239 0.52162 2.49301 0
M  V30 1052 H 101.022 2.18591 2.64713 0
M  V30 1053 N 103.467 -1.45747 0.599634 0
M  V30 1054 C 104.377 -2.34262 -0.125888 0
M  V30 1055 C 105.393 -1.50768 -0.868625 0
M  V30 1056 O 106.569 -1.83592 -0.828003 0
M  V30 1057 C 103.634 -3.28252 -1.11587 0
M  V30 1058 C 102.695 -4.27651 -0.375956 0
M  V30 1059 C 101.928 -5.1715 -1.31877 0
M  V30 1060 O 102.151 -5.09916 -2.55621 0
M  V30 1061 O 101.085 -5.96286 -0.820157 0
M  V30 1062 H 104.911 -2.97688 0.601315 0
M  V30 1063 H 102.496 -1.44999 0.359934 0
M  V30 1064 H 104.378 -3.86191 -1.68626 0
M  V30 1065 H 103.053 -2.67401 -1.82424 0
M  V30 1066 H 101.96 -3.7335 0.236698 0
M  V30 1067 H 103.293 -4.91334 0.29177 0
M  V30 1068 N 104.945 -0.338344 -1.53925 0
M  V30 1069 C 106.194 0.260732 -2.00008 0
M  V30 1070 C 106.507 1.52073 -1.23017 0
M  V30 1071 O 107.713 2.19672 -1.5955 0
M  V30 1072 C 106.169 0.51515 -3.56194 0
M  V30 1073 C 105.777 -0.728645 -4.42035 0
M  V30 1074 C 107.521 1.07337 -4.10706 0
M  V30 1075 C 105.428 -0.445315 -5.89721 0
M  V30 1076 H 104.358 0.101205 -0.747177 0
M  V30 1077 H 107.009 -0.452866 -1.77824 0
M  V30 1078 H 105.391 1.28932 -3.74423 0
M  V30 1079 H 106.565 -1.50352 -4.35581 0
M  V30 1080 H 104.88 -1.20813 -3.98489 0
M  V30 1081 H 107.477 1.30022 -5.18651 0
M  V30 1082 H 107.82 2.0273 -3.63602 0
M  V30 1083 H 108.353 0.360034 -3.96167 0
M  V30 1084 H 105.092 -1.36883 -6.41049 0
M  V30 1085 H 104.612 0.291569 -5.99091 0
M  V30 1086 H 106.291 -0.0606218 -6.46972 0
M  V30 1087 N 106.423 1.57458 -0.0668435 0
M  V30 1088 C 107.669 1.94401 0.598316 0
M  V30 1089 C 108.024 0.946335 1.67518 0
M  V30 1090 O 107.317 -0.0321442 1.91573 0
M  V30 1091 C 107.511 3.35784 1.22409 0
M  V30 1092 C 107.34 4.49212 0.209367 0
M  V30 1093 C 106.11 5.04887 -0.204218 0
M  V30 1094 C 108.308 5.11335 -0.551431 0
M  V30 1095 N 106.29 6.01854 -1.21016 0
M  V30 1096 C 107.661 6.03754 -1.41 0
M  V30 1097 C 109.716 4.94173 -0.608038 0
M  V30 1098 C 108.419 6.80854 -2.32013 0
M  V30 1099 C 110.445 5.71912 -1.50566 0
M  V30 1100 C 109.807 6.63976 -2.35191 0
M  V30 1101 H 105.906 0.758538 0.190114 0
M  V30 1102 H 108.49 1.94175 -0.142832 0
M  V30 1103 H 106.661 3.36757 1.93518 0
M  V30 1104 H 108.393 3.59976 1.84931 0
M  V30 1105 H 105.148 4.73266 0.177908 0
M  V30 1106 H 105.572 6.55035 -1.71049 0
M  V30 1107 H 110.214 4.22788 0.032022 0
M  V30 1108 H 107.932 7.5152 -2.97057 0
M  V30 1109 H 111.518 5.60656 -1.55423 0
M  V30 1110 H 110.398 7.2308 -3.03522 0
M  V30 1111 N 107.901 -0.206675 1.56239 0
M  V30 1112 C 109.126 -0.949474 1.8439 0
M  V30 1113 C 109.551 -1.76549 0.649016 0
M  V30 1114 O 108.909 -1.76782 -0.402231 0
M  V30 1115 C 108.957 -1.83078 3.10668 0
M  V30 1116 O 108.061 -2.9281 2.90407 0
M  V30 1117 H 107.402 -0.268033 0.607499 0
M  V30 1118 H 109.932 -0.215488 2.03462 0
M  V30 1119 H 109.942 -2.2377 3.41161 0
M  V30 1120 H 108.617 -1.23112 3.97261 0
M  V30 1121 H 107.194 -2.55956 2.71184 0
M  V30 1122 N 109.379 -1.50304 -0.473955 0
M  V30 1123 C 110.656 -1.51667 -1.23518 0
M  V30 1124 C 111.036 -0.259701 -2.09496 0
M  V30 1125 O 110.384 0.756986 -2.15597 0
M  V30 1126 C 110.594 -2.81082 -2.06868 0
M  V30 1127 C 111.942 -3.31631 -2.65153 0
M  V30 1128 O 112.966 -2.82384 -2.17113 0
M  V30 1129 O 111.825 -4.17471 -3.52675 0
M  V30 1130 H 108.919 -0.60822 -0.560355 0
M  V30 1131 H 111.465 -1.62592 -0.486011 0
M  V30 1132 H 110.237 -3.64041 -1.4349 0
M  V30 1133 H 109.86 -2.73146 -2.88924 0
M  V30 1134 N 110.857 0.726932 -1.39834 0
M  V30 1135 C 111.82 1.82269 -1.38962 0
M  V30 1136 C 112.82 1.58248 -0.285334 0
M  V30 1137 O 114.01 1.65499 -0.54366 0
M  V30 1138 C 111.142 3.20186 -1.17019 0
M  V30 1139 H 112.335 1.84443 -2.36476 0
M  V30 1140 H 109.888 0.931416 -1.25516 0
M  V30 1141 H 110.623 3.23669 -0.202204 0
M  V30 1142 H 110.408 3.3902 -1.96998 0
M  V30 1143 H 111.898 4.00235 -1.1917 0
M  V30 1144 N 112.336 1.25143 0.95797 0
M  V30 1145 C 113.299 1.05321 2.03569 0
M  V30 1146 C 114.299 0.007152 1.60798 0
M  V30 1147 O 115.489 0.24903 1.72411 0
M  V30 1148 C 112.621 0.598394 3.35607 0
M  V30 1149 H 113.814 2.00986 2.22586 0
M  V30 1150 H 111.367 1.07502 1.13459 0
M  V30 1151 H 112.102 -0.361014 3.22284 0
M  V30 1152 H 111.887 1.35351 3.67998 0
M  V30 1153 H 113.377 0.48104 4.1482 0
M  V30 1154 N 113.814 -1.1601 1.06675 0
M  V30 1155 C 115.039 -1.91068 0.806706 0
M  V30 1156 C 115.464 -1.77112 -0.633485 0
M  V30 1157 O 114.822 -1.09908 -1.44187 0
M  V30 1158 C 114.87 -3.39655 1.21106 0
M  V30 1159 O 113.974 -4.10893 0.352189 0
M  V30 1160 H 113.315 -0.595125 0.294486 0
M  V30 1161 H 115.845 -1.46955 1.42356 0
M  V30 1162 H 115.855 -3.90434 1.18428 0
M  V30 1163 H 114.53 -3.49132 2.26008 0
M  V30 1164 H 113.107 -3.70285 0.440868 0
M  V30 1165 N 115.292 -0.849877 -1.32721 0
M  V30 1166 C 116.539 -0.450923 -1.97416 0
M  V30 1167 C 116.867 0.992376 -1.67279 0
M  V30 1168 O 116.122 1.71048 -0.950845 0
M  V30 1169 C 116.421 -0.631272 -3.51781 0
M  V30 1170 C 116.087 -2.04432 -4.01894 0
M  V30 1171 C 114.749 -2.4308 -4.1529 0
M  V30 1172 C 117.101 -2.96679 -4.28522 0
M  V30 1173 C 114.429 -3.73257 -4.52654 0
M  V30 1174 C 116.781 -4.26349 -4.67343 0
M  V30 1175 C 115.445 -4.64939 -4.78945 0
M  V30 1176 H 114.715 -0.165004 -0.722395 0
M  V30 1177 H 117.362 -1.07901 -1.58207 0
M  V30 1178 H 115.667 0.0800767 -3.91718 0
M  V30 1179 H 117.364 -0.302709 -3.99856 0
M  V30 1180 H 113.954 -1.73419 -3.91949 0
M  V30 1181 H 118.138 -2.68054 -4.17685 0
M  V30 1182 H 113.394 -4.02946 -4.59831 0
M  V30 1183 H 117.568 -4.97895 -4.86902 0
M  V30 1184 H 115.195 -5.65855 -5.07654 0
M  V30 1185 N 116.77 1.45427 -0.607355 0
M  V30 1186 C 117.717 2.3053 0.111625 0
M  V30 1187 C 118.687 1.4209 0.860216 0
M  V30 1188 O 119.872 1.71019 0.845998 0
M  V30 1189 C 117.012 3.26992 1.10319 0
M  V30 1190 C 116.125 4.30535 0.355493 0
M  V30 1191 C 115.26 5.14105 1.33676 0
M  V30 1192 C 114.299 6.09376 0.576862 0
M  V30 1193 N 113.436 6.85727 1.5074 0
M  V30 1194 H 118.276 2.91477 -0.620093 0
M  V30 1195 H 115.813 1.43631 -0.317594 0
M  V30 1196 H 117.771 3.81385 1.6912 0
M  V30 1197 H 116.401 2.67799 1.80232 0
M  V30 1198 H 115.453 3.78805 -0.348023 0
M  V30 1199 H 116.765 4.98235 -0.237423 0
M  V30 1200 H 115.919 5.72897 1.99684 0
M  V30 1201 H 114.658 4.46423 1.9636 0
M  V30 1202 H 113.663 5.49715 -0.0968519 0
M  V30 1203 H 114.888 6.79085 -0.0449341 0
M  V30 1204 H 112.834 6.20735 2.12189 0
M  V30 1205 H 112.751 7.49778 0.967913 0
M  V30 1206 H 114.019 7.4906 2.15706 0
M  V30 1207 N 118.248 0.346503 1.53744 0
M  V30 1208 C 119.18 -0.543316 2.22667 0
M  V30 1209 C 120.193 -1.06159 1.23427 0
M  V30 1210 O 121.382 -0.971235 1.49764 0
M  V30 1211 C 118.482 -1.76076 2.89569 0
M  V30 1212 C 117.655 -1.37727 4.15151 0
M  V30 1213 C 116.714 -2.45471 4.65436 0
M  V30 1214 O 115.74 -2.08655 5.29577 0
M  V30 1215 N 116.942 -3.7677 4.41616 0
M  V30 1216 H 119.707 0.0469703 2.99663 0
M  V30 1217 H 117.268 0.170766 1.60997 0
M  V30 1218 H 119.26 -2.47593 3.20125 0
M  V30 1219 H 117.83 -2.25835 2.16142 0
M  V30 1220 H 117.05 -0.492746 3.91108 0
M  V30 1221 H 118.338 -1.09708 4.96832 0
M  V30 1222 H 117.736 -4.09467 3.90325 0
M  V30 1223 H 116.293 -4.44448 4.7677 0
M  V30 1224 N 119.726 -1.57421 0.075193 0
M  V30 1225 C 120.673 -2.12915 -0.890843 0
M  V30 1226 C 121.643 -1.04252 -1.29309 0
M  V30 1227 O 122.828 -1.31933 -1.37834 0
M  V30 1228 C 119.968 -2.69795 -2.15186 0
M  V30 1229 C 119.081 -3.92624 -1.80194 0
M  V30 1230 C 118.216 -4.37736 -3.00933 0
M  V30 1231 C 117.255 -5.53205 -2.61974 0
M  V30 1232 N 116.392 -5.9326 -3.75483 0
M  V30 1233 H 121.232 -2.95156 -0.410735 0
M  V30 1234 H 118.769 -1.45854 -0.191086 0
M  V30 1235 H 120.727 -3.00883 -2.89008 0
M  V30 1236 H 119.357 -1.90313 -2.60731 0
M  V30 1237 H 118.409 -3.67977 -0.964218 0
M  V30 1238 H 119.721 -4.76482 -1.47534 0
M  V30 1239 H 118.875 -4.70503 -3.8303 0
M  V30 1240 H 117.614 -3.52739 -3.36789 0
M  V30 1241 H 116.619 -5.20086 -1.783 0
M  V30 1242 H 117.844 -6.39936 -2.27284 0
M  V30 1243 H 115.79 -5.11212 -4.11094 0
M  V30 1244 H 115.707 -6.71865 -3.46602 0
M  V30 1245 H 116.975 -6.30651 -4.58148 0
M  V30 1246 N 121.204 0.198386 -1.56346 0
M  V30 1247 C 122.136 1.26987 -1.90806 0
M  V30 1248 C 123.149 1.41877 -0.798419 0
M  V30 1249 O 124.338 1.42362 -1.07682 0
M  V30 1250 C 121.438 2.64246 -2.12196 0
M  V30 1251 C 120.611 2.71007 -3.43328 0
M  V30 1252 C 119.67 3.89439 -3.5387 0
M  V30 1253 O 118.696 3.76695 -4.26719 0
M  V30 1254 N 119.898 5.04752 -2.86715 0
M  V30 1255 H 122.663 0.977433 -2.83313 0
M  V30 1256 H 120.224 0.388322 -1.57174 0
M  V30 1257 H 122.216 3.41896 -2.1654 0
M  V30 1258 H 120.786 2.85992 -1.26204 0
M  V30 1259 H 120.006 1.79657 -3.50881 0
M  V30 1260 H 121.294 2.72512 -4.29668 0
M  V30 1261 H 120.692 5.18004 -2.2735 0
M  V30 1262 H 119.249 5.8036 -2.96691 0
M  V30 1263 N 122.682 1.50554 0.465978 0
M  V30 1264 C 123.614 1.65949 1.58093 0
M  V30 1265 C 124.627 0.540827 1.53554 0
M  V30 1266 O 125.816 0.814187 1.5885 0
M  V30 1267 C 122.916 1.63261 2.96983 0
M  V30 1268 C 122.089 2.91245 3.26336 0
M  V30 1269 C 121.148 2.8113 4.44806 0
M  V30 1270 O 120.174 3.55086 4.44862 0
M  V30 1271 N 121.376 1.95032 5.46756 0
M  V30 1272 H 124.141 2.62122 1.45301 0
M  V30 1273 H 121.702 1.48082 0.65448 0
M  V30 1274 H 123.694 1.54101 3.74212 0
M  V30 1275 H 122.264 0.748032 3.03518 0
M  V30 1276 H 121.484 3.14493 2.37672 0
M  V30 1277 H 122.772 3.76022 3.42761 0
M  V30 1278 H 122.17 1.3427 5.49534 0
M  V30 1279 H 120.727 1.91772 6.2295 0
M  V30 1280 N 124.16 -0.719506 1.40217 0
M  V30 1281 C 125.123 -1.8153 1.39927 0
M  V30 1282 C 126.123 -1.58095 0.293723 0
M  V30 1283 O 127.313 -1.65209 0.552429 0
M  V30 1284 C 124.445 -3.19561 1.18716 0
M  V30 1285 H 125.638 -1.83186 2.37451 0
M  V30 1286 H 123.191 -0.924746 1.26008 0
M  V30 1287 H 123.926 -3.23557 0.219366 0
M  V30 1288 H 123.711 -3.3797 1.98793 0
M  V30 1289 H 125.201 -3.99598 1.21291 0
M  V30 1290 N 125.638 -1.25649 -0.95132 0
M  V30 1291 C 126.885 -1.10594 -1.69633 0
M  V30 1292 C 127.213 0.352515 -1.91279 0
M  V30 1293 O 126.468 1.27601 -1.4838 0
M  V30 1294 C 126.767 -1.80909 -3.08231 0
M  V30 1295 C 126.433 -3.30825 -3.06375 0
M  V30 1296 C 125.095 -3.71722 -3.05576 0
M  V30 1297 C 127.447 -4.26589 -2.99452 0
M  V30 1298 C 124.775 -5.06788 -2.95606 0
M  V30 1299 C 127.127 -5.61683 -2.91024 0
M  V30 1300 C 125.791 -6.01904 -2.88562 0
M  V30 1301 H 125.061 -0.404691 -0.620731 0
M  V30 1302 H 127.708 -1.55964 -1.11119 0
M  V30 1303 H 126.013 -1.27979 -3.70309 0
M  V30 1304 H 127.71 -1.6671 -3.64704 0
M  V30 1305 H 124.3 -2.98287 -3.07771 0
M  V30 1306 H 128.484 -3.95982 -2.99185 0
M  V30 1307 H 123.74 -5.37126 -2.92071 0
M  V30 1308 H 127.914 -6.35578 -2.84629 0
M  V30 1309 H 125.541 -7.06521 -2.80593 0
M  V30 1310 N 127.117 1.15442 -1.07289 0
M  V30 1311 C 128.049 2.19773 -0.650585 0
M  V30 1312 C 129.062 1.60076 0.296572 0
M  V30 1313 O 130.251 1.78293 0.0859905 0
M  V30 1314 C 127.351 3.38838 0.0650398 0
M  V30 1315 C 126.524 4.2808 -0.898141 0
M  V30 1316 C 125.583 5.2574 -0.219926 0
M  V30 1317 O 124.609 5.62654 -0.860773 0
M  V30 1318 N 125.811 5.71205 1.03466 0
M  V30 1319 H 128.576 2.56622 -1.54808 0
M  V30 1320 H 126.137 1.30551 -0.957494 0
M  V30 1321 H 128.129 4.01222 0.529415 0
M  V30 1322 H 126.699 3.00409 0.864466 0
M  V30 1323 H 125.919 3.62804 -1.54165 0
M  V30 1324 H 127.207 4.84577 -1.5512 0
M  V30 1325 H 126.605 5.43325 1.57526 0
M  V30 1326 H 125.162 6.35633 1.44272 0
M  V30 1327 N 128.595 0.856903 1.32268 0
M  V30 1328 C 129.872 0.382583 1.91822 0
M  V30 1329 C 130.252 -1.13407 1.78051 0
M  V30 1330 O 129.6 -1.95673 1.18001 0
M  V30 1331 C 129.81 0.849446 3.38505 0
M  V30 1332 C 131.158 0.867936 4.15634 0
M  V30 1333 O 132.182 0.794232 3.47232 0
M  V30 1334 O 131.041 0.972286 5.37781 0
M  V30 1335 H 128.135 0.112014 0.819379 0
M  V30 1336 H 130.681 0.943952 1.41024 0
M  V30 1337 H 129.453 1.89267 3.42482 0
M  V30 1338 H 129.076 0.265652 3.96712 0
M  V30 1339 N 130.073 -1.45103 0.615059 0
M  V30 1340 C 131.021 -2.32331 -0.111791 0
M  V30 1341 C 132.015 -1.46409 -0.852102 0
M  V30 1342 O 133.221 -1.62849 -0.766821 0
M  V30 1343 H 129.596 -0.749993 -0.0549072 0
M  V30 1344 H 131.567 -2.91407 0.642225 0
M  V30 1345 C 130.316 -3.3015 -1.09071 0
M  V30 1346 H 129.639 -3.96265 -0.530485 0
M  V30 1347 H 131.079 -3.93898 -1.56908 0
M  V30 1348 C 129.538 -2.57875 -2.168 0
M  V30 1349 O 130.068 -2.36567 -3.24652 0
M  V30 1350 N 128.274 -2.17884 -1.92289 0
M  V30 1351 H 127.821 -2.35413 -1.04587 0
M  V30 1352 H 127.779 -1.6985 -2.64572 0
M  V30 1353 N 131.551 -0.354651 -1.53558 0
M  V30 1354 C 132.8 0.239504 -2.00273 0
M  V30 1355 C 133.113 1.50759 -1.24623 0
M  V30 1356 O 134.319 2.17968 -1.61871 0
M  V30 1357 C 132.775 0.477341 -3.5672 0
M  V30 1358 C 132.383 -0.775488 -4.41237 0
M  V30 1359 C 134.127 1.02975 -4.11821 0
M  V30 1360 C 132.034 -0.507838 -5.89216 0
M  V30 1361 H 130.964 0.0932743 -0.748208 0
M  V30 1362 H 133.615 -0.471701 -1.77334 0
M  V30 1363 H 131.997 1.24953 -3.7577 0
M  V30 1364 H 133.171 -1.54963 -4.33962 0
M  V30 1365 H 131.486 -1.25033 -3.97185 0
M  V30 1366 H 134.083 1.24513 -5.2 0
M  V30 1367 H 134.426 1.98862 -3.65731 0
M  V30 1368 H 134.959 0.317994 -3.96527 0
M  V30 1369 H 131.698 -1.43674 -6.39561 0
M  V30 1370 H 131.218 0.228011 -5.99366 0
M  V30 1371 H 132.897 -0.129238 -6.46871 0
M  V30 1372 N 133.029 1.57378 -0.0835403 0
M  V30 1373 C 134.275 1.94217 0.583733 0
M  V30 1374 C 134.608 0.964653 1.68547 0
M  V30 1375 O 133.883 -0.00422258 1.945 0
M  V30 1376 C 134.166 3.41253 1.14972 0
M  V30 1377 C 134.019 4.49768 0.0538277 0
M  V30 1378 C 135.338 3.89352 2.05166 0
M  V30 1379 H 132.457 0.706233 0.210724 0
M  V30 1380 H 135.099 1.89392 -0.1519 0
M  V30 1381 H 133.249 3.45496 1.77665 0
M  V30 1382 H 134.921 4.57641 -0.579851 0
M  V30 1383 H 133.164 4.29432 -0.614068 0
M  V30 1384 H 133.835 5.49817 0.490452 0
M  V30 1385 H 136.311 3.87189 1.52393 0
M  V30 1386 H 135.187 4.92822 2.41698 0
M  V30 1387 H 135.448 3.27973 2.96456 0
M  V30 1388 N 134.507 -0.190092 1.56449 0
M  V30 1389 C 135.454 -1.23557 1.94942 0
M  V30 1390 C 136.424 -1.44972 0.810696 0
M  V30 1391 O 137.609 -1.58023 1.06927 0
M  V30 1392 C 134.749 -2.57416 2.2985 0
M  V30 1393 C 133.862 -2.43537 3.5681 0
M  V30 1394 C 132.997 -3.70134 3.81017 0
M  V30 1395 C 132.036 -3.51109 5.01387 0
M  V30 1396 N 131.173 -4.6973 5.21822 0
M  V30 1397 H 136.013 -0.900304 2.84075 0
M  V30 1398 H 133.55 -0.43318 1.40577 0
M  V30 1399 H 135.508 -3.35409 2.48106 0
M  V30 1400 H 134.138 -2.88975 1.43852 0
M  V30 1401 H 133.19 -1.56816 3.46573 0
M  V30 1402 H 134.502 -2.25415 4.4496 0
M  V30 1403 H 133.656 -4.56566 3.9954 0
M  V30 1404 H 132.395 -3.91215 2.91207 0
M  V30 1405 H 131.4 -2.63063 4.82782 0
M  V30 1406 H 132.625 -3.31468 5.9271 0
M  V30 1407 H 130.571 -4.91065 4.34961 0
M  V30 1408 H 130.488 -4.54452 6.0416 0
M  V30 1409 H 131.756 -5.57499 5.44808 0
M  V30 1410 N 135.985 -1.50799 -0.457987 0
M  V30 1411 C 136.915 -1.73553 -1.5621 0
M  V30 1412 C 137.896 -0.584774 -1.59732 0
M  V30 1413 O 139.081 -0.825314 -1.7579 0
M  V30 1414 C 136.211 -1.84169 -2.94447 0
M  V30 1415 C 135.165 -2.99461 -3.0579 0
M  V30 1416 C 134.491 -2.95235 -4.45803 0
M  V30 1417 C 135.791 -4.39766 -2.81786 0
M  V30 1418 H 137.485 -2.66 -1.37421 0
M  V30 1419 H 135.031 -1.28002 -0.659662 0
M  V30 1420 H 136.984 -1.98672 -3.71628 0
M  V30 1421 H 135.708 -0.883545 -3.14422 0
M  V30 1422 H 134.367 -2.8463 -2.31044 0
M  V30 1423 H 134.015 -1.97239 -4.62715 0
M  V30 1424 H 133.715 -3.72642 -4.54326 0
M  V30 1425 H 135.239 -3.11803 -5.24987 0
M  V30 1426 H 136.653 -4.55054 -3.4871 0
M  V30 1427 H 135.05 -5.18722 -3.0174 0
M  V30 1428 H 136.12 -4.51229 -1.7754 0
M  V30 1429 N 137.463 0.71206 -1.40597 0
M  V30 1430 C 138.688 1.50617 -1.42581 0
M  V30 1431 C 139.113 1.88079 -0.0282102 0
M  V30 1432 O 138.471 1.53511 0.964579 0
M  V30 1433 C 138.519 2.7557 -2.3258 0
M  V30 1434 O 137.623 3.72414 -1.77148 0
M  V30 1435 H 136.964 0.453966 -0.484573 0
M  V30 1436 H 139.494 0.876649 -1.84868 0
M  V30 1437 H 139.504 3.2406 -2.47889 0
M  V30 1438 H 138.179 2.47639 -3.34138 0
M  V30 1439 H 136.756 3.31276 -1.71204 0
M  V30 1440 N 138.941 1.26152 0.944643 0
M  V30 1441 C 139.904 1.07474 2.0244 0
M  V30 1442 C 140.904 0.0242064 1.60782 0
M  V30 1443 O 142.094 0.267302 1.72137 0
M  V30 1444 C 139.226 0.633956 3.34953 0
M  V30 1445 H 140.419 2.03336 2.20442 0
M  V30 1446 H 137.972 1.087 1.12312 0
M  V30 1447 H 138.707 -0.326811 3.22649 0
M  V30 1448 H 138.492 1.39247 3.66542 0
M  V30 1449 H 139.982 0.52501 4.14287 0
M  V30 1450 N 140.419 -1.14872 1.07899 0
M  V30 1451 C 141.382 -2.17986 0.708161 0
M  V30 1452 C 142.382 -1.58775 -0.25442 0
M  V30 1453 O 143.572 -1.74166 -0.034645 0
M  V30 1454 C 140.704 -3.40871 0.0446929 0
M  V30 1455 H 141.897 -2.52306 1.62116 0
M  V30 1456 H 139.45 -1.2943 0.876218 0
M  V30 1457 H 140.185 -3.12124 -0.880281 0
M  V30 1458 H 139.97 -3.8511 0.737091 0
M  V30 1459 H 141.46 -4.17121 -0.19991 0
M  V30 1460 N 141.898 -0.863906 -1.31812 0
M  V30 1461 C 142.861 -0.320212 -2.26952 0
M  V30 1462 C 143.861 0.525369 -1.51975 0
M  V30 1463 O 145.051 0.335547 -1.70938 0
M  V30 1464 C 142.183 0.545919 -3.365 0
M  V30 1465 H 143.376 -1.16004 -2.76556 0
M  V30 1466 H 140.929 -0.638995 -1.42641 0
M  V30 1467 H 141.664 1.40718 -2.92179 0
M  V30 1468 H 141.449 -0.0594674 -3.92055 0
M  V30 1469 H 142.939 0.918796 -4.07367 0
M  V30 1470 N 143.376 1.44774 -0.622745 0
M  V30 1471 C 144.653 1.95522 -0.0551974 0
M  V30 1472 C 145.033 1.5649 1.41683 0
M  V30 1473 O 144.381 0.834848 2.12703 0
M  V30 1474 C 144.591 3.4796 -0.269242 0
M  V30 1475 C 145.939 4.24306 -0.158014 0
M  V30 1476 O 146.963 3.55637 -0.200162 0
M  V30 1477 O 145.822 5.46471 -0.0558693 0
M  V30 1478 H 142.916 0.826556 0.0271015 0
M  V30 1479 H 145.462 1.54866 -0.693864 0
M  V30 1480 H 144.234 3.6939 -1.29099 0
M  V30 1481 H 143.857 3.95543 0.403966 0
M  V30 1482 N 144.854 0.36279 1.53368 0
M  V30 1483 C 145.817 -0.472679 2.24273 0
M  V30 1484 C 146.817 -1.012 1.24961 0
M  V30 1485 O 148.007 -0.898194 1.49259 0
M  V30 1486 C 145.139 -1.66039 2.97731 0
M  V30 1487 H 146.332 0.14773 2.99536 0
M  V30 1488 H 143.885 0.114434 1.55881 0
M  V30 1489 H 144.62 -2.31896 2.26704 0
M  V30 1490 H 144.405 -1.28066 3.70596 0
M  V30 1491 H 145.895 -2.25252 3.51641 0
M  V30 1492 N 146.332 -1.57332 0.0918853 0
M  V30 1493 C 147.58 -1.93853 -0.571446 0
M  V30 1494 C 147.901 -0.974212 -1.6892 0
M  V30 1495 O 147.171 -0.0257254 -1.95883 0
M  V30 1496 H 145.751 -0.715666 -0.214082 0
M  V30 1497 H 148.413 -1.94287 0.154464 0
M  V30 1498 H 147.509 -2.96191 -0.983729 0
M  V30 1499 N 147.81 0.181792 -1.56548 0
M  V30 1500 C 149.087 0.926765 -1.72251 0
M  V30 1501 C 149.467 2.00831 -0.650386 0
M  V30 1502 O 148.815 2.26008 0.336521 0
M  V30 1503 C 149.025 1.50106 -3.1507 0
M  V30 1504 C 150.373 1.97805 -3.75711 0
M  V30 1505 O 151.397 1.59922 -3.18282 0
M  V30 1506 O 150.256 2.67555 -4.76525 0
M  V30 1507 H 147.35 0.435506 -0.703039 0
M  V30 1508 H 149.896 0.170443 -1.68842 0
M  V30 1509 H 148.668 0.72212 -3.84579 0
M  V30 1510 H 148.291 2.32186 -3.22763 0
M  V30 1511 N 149.288 1.51039 0.449983 0
M  V30 1512 C 150.218 1.74379 1.55288 0
M  V30 1513 C 151.199 0.593236 1.5942 0
M  V30 1514 O 152.384 0.834625 1.7535 0
M  V30 1515 C 149.514 1.85728 2.93466 0
M  V30 1516 C 148.468 3.01078 3.04197 0
M  V30 1517 C 147.794 2.97595 4.44231 0
M  V30 1518 C 149.094 4.41254 2.7945 0
M  V30 1519 H 150.788 2.66725 1.36008 0
M  V30 1520 H 148.334 1.2835 0.652864 0
M  V30 1521 H 150.287 2.0064 3.70569 0
M  V30 1522 H 149.011 0.900207 3.13949 0
M  V30 1523 H 147.67 2.85851 2.29531 0
M  V30 1524 H 147.318 1.99691 4.61663 0
M  V30 1525 H 147.018 3.75046 4.52343 0
M  V30 1526 H 148.542 3.14583 5.23326 0
M  V30 1527 H 149.956 4.56897 3.46292 0
M  V30 1528 H 148.353 5.20315 2.98985 0
M  V30 1529 H 149.423 4.52164 1.75144 0
M  V30 1530 N 150.766 -0.704594 1.40972 0
M  V30 1531 C 152.043 -1.45847 1.30338 0
M  V30 1532 C 152.423 -2.10973 -0.0732344 0
M  V30 1533 O 151.771 -2.00997 -1.08685 0
M  V30 1534 C 151.981 -2.48525 2.45023 0
M  V30 1535 C 153.329 -3.1404 2.8577 0
M  V30 1536 O 154.353 -2.58848 2.44696 0
M  V30 1537 O 153.212 -4.13981 3.56766 0
M  V30 1538 H 150.306 -0.649092 0.512454 0
M  V30 1539 H 152.852 -0.735836 1.52917 0
M  V30 1540 H 151.624 -1.98994 3.36923 0
M  V30 1541 H 151.247 -3.2831 2.24272 0
M  V30 1542 N 152.244 -1.26651 -0.937939 0
M  V30 1543 C 153.191 -1.0849 -2.03712 0
M  V30 1544 C 154.161 0.011033 -1.66096 0
M  V30 1545 O 155.346 -0.149353 -1.90215 0
M  V30 1546 C 152.486 -0.72735 -3.37348 0
M  V30 1547 C 151.599 -1.89986 -3.87981 0
M  V30 1548 C 150.734 -1.48513 -5.10017 0
M  V30 1549 C 149.773 -2.62575 -5.5292 0
M  V30 1550 N 148.91 -2.21762 -6.66158 0
M  V30 1551 H 153.75 -2.02551 -2.18579 0
M  V30 1552 H 151.287 -1.00844 -1.07093 0
M  V30 1553 H 153.245 -0.50092 -4.14182 0
M  V30 1554 H 151.875 0.176298 -3.22318 0
M  V30 1555 H 150.927 -2.23913 -3.07518 0
M  V30 1556 H 152.239 -2.75586 -4.15757 0
M  V30 1557 H 151.393 -1.21934 -5.94321 0
M  V30 1558 H 150.132 -0.60009 -4.83994 0
M  V30 1559 H 149.137 -2.8988 -4.67172 0
M  V30 1560 H 150.362 -3.51685 -5.80943 0
M  V30 1561 H 148.308 -1.35696 -6.41812 0
M  V30 1562 H 148.225 -3.00903 -6.93537 0
M  V30 1563 H 149.493 -1.98403 -7.53828 0
M  V30 1564 N 153.722 1.14298 -1.08507 0
M  V30 1565 C 154.652 2.21542 -0.737646 0
M  V30 1566 C 155.633 1.67773 0.280377 0
M  V30 1567 O 156.818 1.93616 0.150521 0
M  V30 1568 C 153.948 3.46988 -0.147259 0
M  V30 1569 C 152.902 4.13789 -1.09374 0
M  V30 1570 C 152.228 5.33449 -0.365524 0
M  V30 1571 C 153.528 4.62208 -2.4323 0
M  V30 1572 H 155.222 2.5086 -1.6343 0
M  V30 1573 H 152.768 1.20576 -0.787243 0
M  V30 1574 H 154.721 4.21262 0.107808 0
M  V30 1575 H 153.445 3.17037 0.784538 0
M  V30 1576 H 152.104 3.4147 -1.33393 0
M  V30 1577 H 151.752 4.99759 0.57011 0
M  V30 1578 H 151.452 5.79088 -0.996512 0
M  V30 1579 H 152.976 6.10485 -0.118534 0
M  V30 1580 H 154.39 5.27952 -2.23472 0
M  V30 1581 H 152.787 5.18553 -3.02031 0
M  V30 1582 H 153.857 3.77224 -3.04681 0
M  V30 1583 N 155.201 0.870884 1.31352 0
M  V30 1584 C 156.617 0.562932 1.49343 0
M  V30 1585 C 156.817 -0.902725 1.80148 0
M  V30 1586 O 155.873 -1.68484 1.88067 0
M  V30 1587 C 157.186 1.46393 2.62659 0
M  V30 1588 C 158.734 1.46607 2.76542 0
M  V30 1589 C 159.209 2.35266 3.92955 0
M  V30 1590 N 160.7 2.33151 4.00243 0
M  V30 1591 C 161.435 2.98471 4.89594 0
M  V30 1592 N 160.931 3.72964 5.8384 0
M  V30 1593 N 162.724 2.87775 4.82848 0
M  V30 1594 H 154.875 1.81923 1.09626 0
M  V30 1595 H 157.138 0.777934 0.541777 0
M  V30 1596 H 156.844 2.50689 2.46674 0
M  V30 1597 H 156.718 1.16314 3.58819 0
M  V30 1598 H 159.105 0.43069 2.9194 0
M  V30 1599 H 159.186 1.8071 1.81046 0
M  V30 1600 H 158.83 3.38881 3.78315 0
M  V30 1601 H 158.76 1.98487 4.87761 0
M  V30 1602 H 161.251 1.79006 3.32814 0
M  V30 1603 H 161.564 4.19932 6.4875 0
M  V30 1604 H 159.909 3.77073 5.83816 0
M  V30 1605 H 163.1 2.29116 4.08195 0
M  V30 1606 H 163.273 3.38961 5.52277 0
M  V30 1607 N 156.679 -1.44442 0.630414 0
M  V30 1608 C 157.642 -2.29107 -0.0652523 0
M  V30 1609 C 158.642 -1.41002 -0.772995 0
M  V30 1610 O 159.832 -1.62881 -0.617692 0
M  V30 1611 C 156.964 -3.22564 -1.10296 0
M  V30 1612 H 158.157 -2.92103 0.679401 0
M  V30 1613 H 155.71 -1.51343 0.390517 0
M  V30 1614 H 156.445 -2.64416 -1.87762 0
M  V30 1615 H 156.23 -3.87491 -0.59941 0
M  V30 1616 H 157.72 -3.86167 -1.5895 0
M  V30 1617 N 158.157 -0.370918 -1.53173 0
M  V30 1618 C 159.12 0.460778 -2.24521 0
M  V30 1619 C 160.12 1.00536 -1.25496 0
M  V30 1620 O 161.31 0.890266 -1.49733 0
M  V30 1621 C 158.442 1.64457 -2.98608 0
M  V30 1622 H 159.635 -0.163613 -2.99453 0
M  V30 1623 H 157.188 -0.122699 -1.55818 0
M  V30 1624 H 157.923 2.30691 -2.2793 0
M  V30 1625 H 157.708 1.26099 -3.7127 0
M  V30 1626 H 159.198 2.23384 -3.5283 0
M  V30 1627 N 159.635 1.57281 -0.100228 0
M  V30 1628 C 160.882 1.94537 0.562268 0
M  V30 1629 C 161.21 0.982315 1.67871 0
M  V30 1630 O 160.465 0.00280936 1.957 0
M  V30 1631 C 160.764 3.38305 1.15259 0
M  V30 1632 C 160.43 4.50618 0.159409 0
M  V30 1633 C 159.092 4.81066 -0.113741 0
M  V30 1634 C 161.444 5.18615 -0.518461 0
M  V30 1635 C 158.772 5.76835 -1.07137 0
M  V30 1636 C 161.124 6.15412 -1.46459 0
M  V30 1637 C 159.788 6.44262 -1.74592 0
M  V30 1638 H 159.058 0.711863 0.205748 0
M  V30 1639 H 161.705 1.90679 -0.17715 0
M  V30 1640 H 160.01 3.38766 1.96836 0
M  V30 1641 H 161.707 3.64435 1.67297 0
M  V30 1642 H 158.297 4.2689 0.382491 0
M  V30 1643 H 162.481 4.95264 -0.320581 0
M  V30 1644 H 157.737 5.975 -1.29628 0
M  V30 1645 H 161.911 6.67194 -1.99564 0
M  V30 1646 H 159.538 7.1828 -2.48953 0
M  V30 1647 N 161.113 -0.173488 1.56642 0
M  V30 1648 C 162.361 -0.888706 1.81512 0
M  V30 1649 C 162.682 -1.82875 0.676872 0
M  V30 1650 O 161.952 -1.93536 -0.303414 0
M  V30 1651 H 160.532 -0.331164 0.669582 0
M  V30 1652 H 163.194 -0.173823 1.94123 0
M  V30 1653 H 162.29 -1.46691 2.75478 0
M  V30 1654 N 162.591 -1.51276 -0.441967 0
M  V30 1655 C 163.868 -1.54252 -1.20273 0
M  V30 1656 C 164.248 -0.30408 -2.08898 0
M  V30 1657 O 163.596 0.711084 -2.17154 0
M  V30 1658 C 163.806 -2.85406 -2.00859 0
M  V30 1659 C 165.154 -3.37181 -2.58059 0
M  V30 1660 O 166.178 -2.86925 -2.11074 0
M  V30 1661 O 165.037 -4.24858 -3.43741 0
M  V30 1662 H 162.131 -0.619969 -0.547328 0
M  V30 1663 H 164.677 -1.63586 -0.451413 0
M  V30 1664 H 163.449 -3.67003 -1.35736 0
M  V30 1665 H 163.072 -2.79213 -2.83065 0
M  V30 1666 N 164.069 0.697108 -1.41344 0
M  V30 1667 C 165.315 1.4593 -1.40827 0
M  V30 1668 C 165.648 1.94193 -0.0167098 0
M  V30 1669 O 164.923 1.69425 0.955263 0
M  V30 1670 C 165.206 2.67229 -2.41373 0
M  V30 1671 C 165.059 2.24741 -3.8963 0
M  V30 1672 C 166.378 3.69423 -2.39196 0
M  V30 1673 H 163.497 0.529303 -0.512842 0
M  V30 1674 H 166.139 0.794112 -1.72609 0
M  V30 1675 H 164.289 3.23982 -2.14401 0
M  V30 1676 H 165.961 1.73327 -4.27499 0
M  V30 1677 H 164.204 1.56542 -4.0457 0
M  V30 1678 H 164.875 3.1177 -4.55525 0
M  V30 1679 H 167.351 3.2234 -2.63128 0
M  V30 1680 H 166.227 4.51907 -3.11563 0
M  V30 1681 H 166.488 4.19012 -1.41001 0
M  V30 1682 N 165.547 1.27147 0.931209 0
M  V30 1683 C 166.795 1.13055 1.6752 0
M  V30 1684 C 167.116 -0.324791 1.92276 0
M  V30 1685 O 166.386 -1.22775 1.52654 0
M  V30 1686 H 164.966 0.415391 0.620854 0
M  V30 1687 H 167.628 1.59623 1.11833 0
M  V30 1688 H 166.724 1.65694 2.64485 0
M  V30 1689 N 167.025 -1.13721 1.09112 0
M  V30 1690 C 167.988 -2.17222 0.731241 0
M  V30 1691 C 168.988 -1.59035 -0.237566 0
M  V30 1692 O 170.178 -1.74192 -0.0161704 0
M  V30 1693 C 167.31 -3.40804 0.0808443 0
M  V30 1694 H 168.503 -2.50573 1.64783 0
M  V30 1695 H 166.056 -1.28493 0.889897 0
M  V30 1696 H 166.791 -3.1304 -0.847127 0
M  V30 1697 H 166.576 -3.84306 0.777896 0
M  V30 1698 H 168.066 -4.1731 -0.155657 0
M  V30 1699 N 168.503 -0.877838 -1.30888 0
M  V30 1700 C 169.728 -0.506629 -2.01117 0
M  V30 1701 C 170.153 0.895564 -1.65412 0
M  V30 1702 O 169.511 1.5923 -0.866922 0
M  V30 1703 C 169.559 -0.680223 -3.54126 0
M  V30 1704 O 168.663 0.277033 -4.11468 0
M  V30 1705 H 168.004 -0.200518 -0.633 0
M  V30 1706 H 170.534 -1.18342 -1.66902 0
M  V30 1707 H 170.544 -0.5765 -4.03907 0
M  V30 1708 H 169.219 -1.70261 -3.79452 0
M  V30 1709 H 167.796 0.127606 -3.72682 0
M  V30 1710 N 169.982 1.44106 -0.638065 0
M  V30 1711 C 171.222 2.03858 -0.148733 0
M  V30 1712 C 171.586 1.49153 1.20903 0
M  V30 1713 O 172.787 2.00452 1.79088 0
M  V30 1714 C 171.058 3.57117 -0.142314 0
M  V30 1715 S 172.617 4.37897 0.281385 0
M  V30 1716 H 169.435 0.708069 -0.0644912 0
M  V30 1717 H 172.037 1.7639 -0.843009 0
M  V30 1718 H 170.741 3.94436 -1.13349 0
M  V30 1719 H 170.272 3.89205 0.572988 0
M  V30 1720 H 172.287 4.72218 1.52395 0
M  V30 1721 N 171.46 0.379036 1.52974 0
M  V30 1722 C 172.407 -0.461048 2.26148 0
M  V30 1723 C 173.377 -1.06637 1.27349 0
M  V30 1724 O 174.562 -1.09633 1.56157 0
M  V30 1725 C 171.702 -1.58782 3.06402 0
M  V30 1726 C 170.815 -1.00636 4.20115 0
M  V30 1727 C 169.95 -2.10334 4.87784 0
M  V30 1728 C 168.989 -1.49724 5.93506 0
M  V30 1729 N 168.126 -2.5331 6.54812 0
M  V30 1730 H 172.966 0.169429 2.97518 0
M  V30 1731 H 170.503 0.0953806 1.4679 0
M  V30 1732 H 172.461 -2.25174 3.51215 0
M  V30 1733 H 171.091 -2.18876 2.37261 0
M  V30 1734 H 170.143 -0.232332 3.7969 0
M  V30 1735 H 171.455 -0.523343 4.96047 0
M  V30 1736 H 170.609 -2.84519 5.35849 0
M  V30 1737 H 169.348 -2.61992 4.11353 0
M  V30 1738 H 168.353 -0.740598 5.44789 0
M  V30 1739 H 169.578 -0.988732 6.71864 0
M  V30 1740 H 167.524 -3.04156 5.81227 0
M  V30 1741 H 167.441 -2.09734 7.26325 0
M  V30 1742 H 168.709 -3.27155 7.07524 0
M  V30 1743 N 172.938 -1.57226 0.108567 0
M  V30 1744 C 173.901 -2.13602 -0.831082 0
M  V30 1745 C 174.901 -1.06841 -1.20173 0
M  V30 1746 O 176.091 -1.32666 -1.12895 0
M  V30 1747 C 173.223 -2.66769 -2.12243 0
M  V30 1748 H 174.416 -2.97951 -0.341317 0
M  V30 1749 H 171.969 -1.55667 -0.14057 0
M  V30 1750 H 172.704 -1.85977 -2.65675 0
M  V30 1751 H 172.489 -3.44839 -1.86625 0
M  V30 1752 H 173.979 -3.10332 -2.79435 0
M  V30 1753 N 174.416 0.165178 -1.56732 0
M  V30 1754 C 175.656 0.887231 -1.8414 0
M  V30 1755 C 176.02 1.79159 -0.690353 0
M  V30 1756 O 177.221 2.55172 -0.845032 0
M  V30 1757 C 175.492 1.65674 -3.16681 0
M  V30 1758 S 177.051 2.42671 -3.6559 0
M  V30 1759 H 173.869 0.297042 -0.645978 0
M  V30 1760 H 176.471 0.148439 -1.94936 0
M  V30 1761 H 175.175 0.983507 -3.98441 0
M  V30 1762 H 174.706 2.43679 -3.08843 0
M  V30 1763 H 176.721 3.67499 -3.33406 0
M  V30 1764 N 175.894 1.51508 0.433938 0
M  V30 1765 C 176.844 1.69451 1.52546 0
M  V30 1766 C 177.828 0.548474 1.51263 0
M  V30 1767 O 179.02 0.804529 1.57659 0
M  V30 1768 C 176.149 1.82604 2.90707 0
M  V30 1769 C 175.235 3.03002 2.96733 0
M  V30 1770 N 175.626 4.26121 2.72496 0
M  V30 1771 C 173.924 3.02327 3.27894 0
M  V30 1772 C 174.625 5.07407 2.84452 0
M  V30 1773 N 173.601 4.42126 3.16269 0
M  V30 1774 H 177.403 2.62305 1.32564 0
M  V30 1775 H 174.917 1.49202 0.641297 0
M  V30 1776 H 176.914 1.93569 3.69238 0
M  V30 1777 H 175.574 0.909339 3.11707 0
M  V30 1778 H 176.585 4.55009 2.4736 0
M  V30 1779 H 173.262 2.20301 3.54646 0
M  V30 1780 H 174.652 6.15422 2.69639 0
M  V30 1781 N 177.372 -0.689602 1.41712 0
M  V30 1782 C 178.649 -1.44457 1.31877 0
M  V30 1783 C 179.029 -2.11039 -0.0508537 0
M  V30 1784 O 178.377 -2.02138 -1.06547 0
M  V30 1785 C 178.587 -2.45913 2.47645 0
M  V30 1786 C 179.935 -3.10991 2.89084 0
M  V30 1787 O 180.959 -2.56238 2.47428 0
M  V30 1788 O 179.818 -4.10174 3.61137 0
M  V30 1789 H 176.912 -0.64362 0.519309 0
M  V30 1790 H 179.458 -0.719576 1.53689 0
M  V30 1791 H 178.23 -1.95409 3.39015 0
M  V30 1792 H 177.853 -3.25913 2.27742 0
M  V30 1793 N 178.85 -1.27639 -0.924453 0
M  V30 1794 C 179.813 -1.10681 -2.00705 0
M  V30 1795 C 180.813 -0.0497823 -1.60723 0
M  V30 1796 O 182.003 -0.294654 -1.7169 0
M  V30 1797 C 179.135 -0.687164 -3.33902 0
M  V30 1798 H 180.328 -2.06817 -2.17179 0
M  V30 1799 H 177.881 -1.10473 -1.10569 0
M  V30 1800 H 178.616 0.275439 -3.23128 0
M  V30 1801 H 178.401 -1.45061 -3.6428 0
M  V30 1802 H 179.891 -0.590853 -4.13399 0
M  V30 1803 N 180.328 1.1314 -1.09713 0
M  V30 1804 C 181.558 1.88048 -0.855656 0
M  V30 1805 C 181.966 1.79537 0.596919 0
M  V30 1806 O 181.309 1.16196 1.42282 0
M  V30 1807 C 181.371 3.38314 -1.21589 0
M  V30 1808 C 181.035 3.70605 -2.67397 0
M  V30 1809 C 182.032 3.69596 -3.65643 0
M  V30 1810 C 179.717 4.0017 -3.03593 0
M  V30 1811 C 181.711 3.977 -4.9811 0
M  V30 1812 C 179.398 4.27935 -4.36251 0
M  V30 1813 C 180.396 4.26685 -5.33318 0
M  V30 1814 O 180.084 4.53767 -6.63589 0
M  V30 1815 H 179.816 0.60208 -0.307368 0
M  V30 1816 H 182.37 1.44128 -1.46343 0
M  V30 1817 H 180.6 3.82752 -0.551177 0
M  V30 1818 H 182.289 3.94552 -0.953083 0
M  V30 1819 H 183.055 3.46826 -3.39023 0
M  V30 1820 H 178.934 4.00289 -2.2867 0
M  V30 1821 H 182.478 3.9664 -5.73866 0
M  V30 1822 H 178.375 4.50178 -4.62613 0
M  V30 1823 H 179.143 4.71422 -6.69107 0
M  V30 1824 N 181.806 0.884767 1.30421 0
M  V30 1825 C 183.222 0.57874 1.48737 0
M  V30 1826 C 183.422 -0.883567 1.81095 0
M  V30 1827 O 182.478 -1.6648 1.89844 0
M  V30 1828 C 183.791 1.49171 2.61091 0
M  V30 1829 C 185.339 1.49532 2.74971 0
M  V30 1830 C 185.814 2.39421 3.90438 0
M  V30 1831 N 187.305 2.37383 3.97748 0
M  V30 1832 C 188.04 3.03647 4.86401 0
M  V30 1833 N 187.536 3.79136 5.79852 0
M  V30 1834 N 189.329 2.9288 4.79768 0
M  V30 1835 H 181.48 1.83075 1.0769 0
M  V30 1836 H 183.743 0.783637 0.533495 0
M  V30 1837 H 183.449 2.53291 2.44001 0
M  V30 1838 H 183.323 1.20113 3.57565 0
M  V30 1839 H 185.71 0.46163 2.91467 0
M  V30 1840 H 185.791 1.8262 1.79119 0
M  V30 1841 H 185.435 3.42874 3.74699 0
M  V30 1842 H 185.365 2.03649 4.85628 0
M  V30 1843 H 187.856 1.82525 3.30897 0
M  V30 1844 H 188.169 4.26789 6.4426 0
M  V30 1845 H 186.514 3.83243 5.79784 0
M  V30 1846 H 189.705 2.33433 4.05742 0
M  V30 1847 H 189.878 3.448 5.4865 0
M  V30 1848 N 183.284 -1.43765 0.645699 0
M  V30 1849 C 184.231 -2.30745 -0.0504648 0
M  V30 1850 C 185.201 -1.4432 -0.822241 0
M  V30 1851 O 186.386 -1.73202 -0.800358 0
M  V30 1852 C 183.526 -3.29802 -1.0161 0
M  V30 1853 C 182.639 -4.31326 -0.241219 0
M  V30 1854 C 181.774 -5.17469 -1.19998 0
M  V30 1855 C 180.813 -6.10691 -0.415094 0
M  V30 1856 N 179.95 -6.89483 -1.32506 0
M  V30 1857 H 184.79 -2.8973 0.697155 0
M  V30 1858 H 182.327 -1.42738 0.355563 0
M  V30 1859 H 184.285 -3.85734 -1.58949 0
M  V30 1860 H 182.915 -2.72483 -1.73069 0
M  V30 1861 H 181.967 -3.77749 0.448334 0
M  V30 1862 H 183.279 -4.9743 0.369437 0
M  V30 1863 H 182.433 -5.7799 -1.84424 0
M  V30 1864 H 181.172 -4.51473 -1.84455 0
M  V30 1865 H 180.177 -5.49265 0.242565 0
M  V30 1866 H 181.402 -6.78727 0.224966 0
M  V30 1867 H 179.348 -6.26142 -1.95657 0
M  V30 1868 H 179.265 -7.52081 -0.768783 0
M  V30 1869 H 180.533 -7.54516 -1.9577 0
M  V30 1870 N 184.763 -0.387143 -1.52771 0
M  V30 1871 C 185.71 0.449048 -2.26389 0
M  V30 1872 C 186.68 1.05961 -1.27912 0
M  V30 1873 O 187.865 1.08804 -1.56737 0
M  V30 1874 C 185.005 1.57155 -3.0724 0
M  V30 1875 C 184.118 0.984066 -4.20643 0
M  V30 1876 C 183.253 2.07745 -4.88892 0
M  V30 1877 C 182.292 1.46574 -5.94292 0
M  V30 1878 N 181.429 2.49834 -6.56146 0
M  V30 1879 H 186.269 -0.185205 -2.97424 0
M  V30 1880 H 183.806 -0.103164 -1.46738 0
M  V30 1881 H 185.764 2.23309 -3.52405 0
M  V30 1882 H 184.394 2.17615 -2.38419 0
M  V30 1883 H 183.446 0.212193 -3.79808 0
M  V30 1884 H 184.758 0.497029 -4.96318 0
M  V30 1885 H 183.912 2.81673 -5.3735 0
M  V30 1886 H 182.651 2.59807 -4.12737 0
M  V30 1887 H 181.656 0.711696 -5.45174 0
M  V30 1888 H 182.881 0.953088 -6.72379 0
M  V30 1889 H 180.827 3.0107 -5.82832 0
M  V30 1890 H 180.744 2.05879 -7.27427 0
M  V30 1891 H 182.012 3.23399 -7.09249 0
M  V30 1892 N 186.241 1.57166 -0.116904 0
M  V30 1893 C 187.188 2.15202 0.83408 0
M  V30 1894 C 188.158 1.07644 1.26499 0
M  V30 1895 O 189.343 1.35541 1.34288 0
M  V30 1896 C 186.483 2.75405 2.07957 0
M  V30 1897 C 185.596 3.97264 1.69721 0
M  V30 1898 C 184.731 4.45561 2.89221 0
M  V30 1899 C 183.77 5.59956 2.47215 0
M  V30 1900 N 182.907 6.03006 3.59622 0
M  V30 1901 H 187.747 2.96141 0.332335 0
M  V30 1902 H 185.284 1.46309 0.152349 0
M  V30 1903 H 187.242 3.08439 2.80929 0
M  V30 1904 H 185.872 1.97159 2.55594 0
M  V30 1905 H 184.924 3.70404 0.866316 0
M  V30 1906 H 186.236 4.80226 1.34849 0
M  V30 1907 H 185.39 4.80493 3.7042 0
M  V30 1908 H 184.129 3.61544 3.27318 0
M  V30 1909 H 183.134 5.2463 1.64448 0
M  V30 1910 H 184.359 6.45738 2.10238 0
M  V30 1911 H 182.305 5.21931 3.97396 0
M  V30 1912 H 182.222 6.80819 3.28667 0
M  V30 1913 H 183.49 6.42576 4.41267 0
M  V30 1914 O 187.758 -0.0225413 1.61484 0
M  V30 1915 H 188.449 -0.642234 1.82743 0
M  V30 END ATOM
M  V30 BEGIN BOND
M  V30 END BOND
M  V30 END CTAB
M  END
$$$$
