drugbank_target|P08048 Zinc finger Y-chromosomal protein (DB02884; DB05483)
 OpenBabel12092120253D

  0  0  0     0  0            999 V3000
M  V30 BEGIN CTAB
M  V30 COUNTS 12433 12565 0 0 0
M  V30 BEGIN ATOM
M  V30 1 H -0.908 1.98254 -0.117106 0
M  V30 2 N 0 1.576 0 0
M  V30 3 C 0.933 2.03868 1.02534 0
M  V30 4 C 1.911 0.928543 1.3348 0
M  V30 5 O 3.095 1.19667 1.45644 0
M  V30 6 C 0.222 2.43627 2.35294 0
M  V30 7 C -0.732 3.65373 2.2001 0
M  V30 8 S 0.101 5.13292 1.52614 0
M  V30 9 C 1.257 5.56322 2.86805 0
M  V30 10 H 1.49 2.90518 0.631377 0
M  V30 11 H -0.977 1.52953 0.210867 0
M  V30 12 H 0.981 2.67203 3.11629 0
M  V30 13 H -0.358 1.57376 2.7183 0
M  V30 14 H -1.165 3.90944 3.18086 0
M  V30 15 H -1.563 3.418 1.51819 0
M  V30 16 H 0.729 5.58782 3.83104 0
M  V30 17 H 1.672 6.56266 2.65933 0
M  V30 18 H 2.08 4.83886 2.90714 0
M  V30 19 N 1.4781 -0.272755 1.55222 0
M  V30 20 C 2.7551 -1.02562 1.66555 0
M  V30 21 C 3.1351 -2.04282 0.532189 0
M  V30 22 O 2.4831 -2.23662 -0.467717 0
M  V30 23 C 2.6931 -1.6822 3.05782 0
M  V30 24 C 4.0411 -2.19373 3.63539 0
M  V30 25 O 5.0651 -1.78206 3.08417 0
M  V30 26 O 3.9241 -2.94883 4.60115 0
M  V30 27 H 1.0181 -0.475755 0.676451 0
M  V30 28 H 3.5641 -0.268593 1.67561 0
M  V30 29 H 2.3361 -0.945112 3.79715 0
M  V30 30 H 1.9591 -2.50609 3.08676 0
M  V30 31 N 2.9562 -1.48159 -0.537278 0
M  V30 32 C 3.8662 -1.64807 -1.6696 0
M  V30 33 C 4.8822 -0.530651 -1.65711 0
M  V30 34 O 6.0582 -0.800784 -1.84796 0
M  V30 35 C 3.1232 -1.67708 -3.03438 0
M  V30 36 C 2.1842 -2.91025 -3.156 0
M  V30 37 C 1.4172 -2.93778 -4.45567 0
M  V30 38 O 1.6402 -2.05153 -5.3223 0
M  V30 39 O 0.5742 -3.85868 -4.61941 0
M  V30 40 H 4.4002 -2.6066 -1.55853 0
M  V30 41 H 1.9852 -1.31475 -0.709549 0
M  V30 42 H 3.8672 -1.7218 -3.84619 0
M  V30 43 H 2.5422 -0.750278 -3.14885 0
M  V30 44 H 1.4492 -2.92089 -2.33741 0
M  V30 45 H 2.7822 -3.83065 -3.09066 0
M  V30 46 N 4.4343 0.785586 -1.36625 0
M  V30 47 C 5.7113 1.53198 -1.21613 0
M  V30 48 C 6.0913 2.10187 0.196113 0
M  V30 49 O 5.4393 1.94318 1.20219 0
M  V30 50 C 5.6493 2.62388 -2.30116 0
M  V30 51 C 6.9973 3.30167 -2.66974 0
M  V30 52 O 8.0213 2.72674 -2.29188 0
M  V30 53 O 6.8803 4.34077 -3.32023 0
M  V30 54 H 3.9743 0.677865 -0.473738 0
M  V30 55 H 6.5203 0.823739 -1.48367 0
M  V30 56 H 5.2923 2.18299 -3.24748 0
M  V30 57 H 4.9153 3.40827 -2.0475 0
M  V30 58 N 5.9124 1.20967 1.01018 0
M  V30 59 C 6.8224 0.980157 2.13143 0
M  V30 60 C 7.8384 -0.0660665 1.73875 0
M  V30 61 O 9.0144 0.122821 2.01025 0
M  V30 62 C 6.0794 0.54216 3.42435 0
M  V30 63 C 5.1404 1.65999 3.95908 0
M  V30 64 C 4.3734 1.2428 5.19028 0
M  V30 65 O 4.5964 0.114196 5.70286 0
M  V30 66 O 3.5304 2.05271 5.65816 0
M  V30 67 H 7.3564 1.91913 2.35379 0
M  V30 68 H 4.9414 0.994099 1.11526 0
M  V30 69 H 6.8234 0.30744 4.20277 0
M  V30 70 H 5.4984 -0.36815 3.216 0
M  V30 71 H 4.4054 1.94906 3.19316 0
M  V30 72 H 5.7384 2.54753 4.21143 0
M  V30 73 N 7.3905 -1.2043 1.01659 0
M  V30 74 C 8.6375 -1.89797 0.705917 0
M  V30 75 C 8.9655 -1.78848 -0.764439 0
M  V30 76 O 8.2205 -1.16694 -1.57102 0
M  V30 77 C 8.5195 -3.40464 1.08714 0
M  V30 78 C 8.1855 -3.71614 2.5537 0
M  V30 79 C 6.8475 -3.79826 2.95441 0
M  V30 80 C 9.1995 -3.85915 3.50313 0
M  V30 81 C 6.5275 -3.99797 4.29394 0
M  V30 82 C 8.8795 -4.07396 4.83954 0
M  V30 83 C 7.5435 -4.13837 5.23732 0
M  V30 84 H 6.8135 -0.694518 0.258313 0
M  V30 85 H 9.4605 -1.42691 1.27717 0
M  V30 86 H 7.7655 -3.89385 0.434309 0
M  V30 87 H 9.4625 -3.92433 0.824461 0
M  V30 88 H 6.0525 -3.65822 2.23321 0
M  V30 89 H 10.2365 -3.78926 3.20513 0
M  V30 90 H 5.4925 -4.03018 4.59768 0
M  V30 91 H 9.6665 -4.17404 5.57447 0
M  V30 92 H 7.2935 -4.29064 6.27541 0
M  V30 93 N 8.8686 -0.792821 -1.36206 0
M  V30 94 C 9.7786 -0.194808 -2.3379 0
M  V30 95 C 10.7946 0.654869 -1.61206 0
M  V30 96 O 11.9706 0.569856 -1.9317 0
M  V30 97 C 9.0356 0.657721 -3.40404 0
M  V30 98 C 8.0966 -0.210849 -4.28782 0
M  V30 99 C 7.3296 0.601086 -5.30304 0
M  V30 100 O 7.5526 1.83682 -5.40016 0
M  V30 101 O 6.4866 -0.000808277 -6.019 0
M  V30 102 H 10.3126 -1.00172 -2.86704 0
M  V30 103 H 7.8976 -0.554341 -1.38735 0
M  V30 104 H 9.7796 1.14375 -4.05581 0
M  V30 105 H 8.4546 1.44247 -2.89784 0
M  V30 106 H 7.3616 -0.743714 -3.66633 0
M  V30 107 H 8.6946 -0.959195 -4.82763 0
M  V30 108 N 10.3467 1.47872 -0.545128 0
M  V30 109 C 11.2767 2.32661 0.197793 0
M  V30 110 C 12.2577 1.43041 0.920504 0
M  V30 111 O 13.4427 1.71912 0.90333 0
M  V30 112 C 10.5727 3.24569 1.23582 0
M  V30 113 C 9.5267 4.23333 0.630323 0
M  V30 114 C 8.8527 5.0448 1.77211 0
M  V30 115 C 10.1527 5.20704 -0.407974 0
M  V30 116 H 11.8467 2.95024 -0.510045 0
M  V30 117 H 9.3927 1.4187 -0.246731 0
M  V30 118 H 11.3457 3.8272 1.76362 0
M  V30 119 H 10.0697 2.60236 1.97344 0
M  V30 120 H 8.7287 3.6639 0.123922 0
M  V30 121 H 8.3767 4.36561 2.49847 0
M  V30 122 H 8.0767 5.71339 1.37281 0
M  V30 123 H 9.6007 5.65487 2.3034 0
M  V30 124 H 11.0147 5.7329 0.033305 0
M  V30 125 H 9.4117 5.95699 -0.725486 0
M  V30 126 H 10.4817 4.66917 -1.30828 0
M  V30 127 N 11.8248 0.280983 1.55075 0
M  V30 128 C 12.7568 -0.637268 2.20163 0
M  V30 129 C 13.7698 -1.11298 1.18813 0
M  V30 130 O 14.9588 -1.03388 1.4551 0
M  V30 131 C 12.0588 -1.88199 2.81841 0
M  V30 132 C 11.2318 -1.55211 4.08936 0
M  V30 133 C 10.2908 -2.64991 4.54606 0
M  V30 134 O 9.3168 -2.30929 5.2025 0
M  V30 135 N 10.5188 -3.95161 4.25238 0
M  V30 136 H 13.2838 -0.0801694 2.99593 0
M  V30 137 H 10.8448 0.102329 1.61576 0
M  V30 138 H 12.8368 -2.60948 3.09335 0
M  V30 139 H 11.4068 -2.34799 2.06369 0
M  V30 140 H 10.6268 -0.658185 3.88666 0
M  V30 141 H 11.9148 -1.30681 4.91732 0
M  V30 142 H 11.3128 -4.25653 3.72607 0
M  V30 143 H 9.8698 -4.6427 4.5749 0
M  V30 144 N 13.3029 -1.57598 0.00835791 0
M  V30 145 C 14.7139 -1.7892 -0.53333 0
M  V30 146 C 15.0649 -0.916609 -1.73473 0
M  V30 147 O 14.1899 -0.121336 -2.1606 0
M  V30 148 C 14.7849 -3.24488 -0.974313 0
M  V30 149 C 13.3439 -3.46878 -1.46125 0
M  V30 150 C 12.4909 -2.74157 -0.416302 0
M  V30 151 H 15.4419 -1.56958 0.234495 0
M  V30 152 H 15.4629 -3.3306 -1.83988 0
M  V30 153 H 14.9749 -3.87972 -0.099718 0
M  V30 154 H 13.0759 -2.8862 -2.35646 0
M  V30 155 H 13.1889 -4.55572 -1.48295 0
M  V30 156 H 11.5529 -2.39022 -0.87981 0
M  V30 157 H 12.3359 -3.40345 0.44947 0
M  V30 158 N 14.781 0.264519 -1.55364 0
M  V30 159 C 15.713 1.34965 -1.85248 0
M  V30 160 C 16.726 1.45136 -0.737525 0
M  V30 161 O 17.915 1.46801 -1.01547 0
M  V30 162 C 15.015 2.73008 -2.00797 0
M  V30 163 C 14.188 2.85324 -3.31525 0
M  V30 164 C 13.247 4.04097 -3.37034 0
M  V30 165 O 12.273 3.94455 -4.10358 0
M  V30 166 N 13.475 5.16458 -2.65049 0
M  V30 167 H 16.24 1.09672 -2.78913 0
M  V30 168 H 13.801 0.454635 -1.55386 0
M  V30 169 H 15.793 3.50772 -2.01844 0
M  V30 170 H 14.363 2.91087 -1.1396 0
M  V30 171 H 13.583 1.94377 -3.42945 0
M  V30 172 H 14.871 2.9049 -4.17724 0
M  V30 173 H 14.269 5.27181 -2.05175 0
M  V30 174 H 12.826 5.92422 -2.71809 0
M  V30 175 N 16.2591 1.48442 0.529413 0
M  V30 176 C 17.1691 1.6569 1.66084 0
M  V30 177 C 18.1851 0.539432 1.65427 0
M  V30 178 O 19.3611 0.810572 1.84368 0
M  V30 179 C 16.4261 1.69315 3.02545 0
M  V30 180 C 15.4871 2.92694 3.14052 0
M  V30 181 C 14.7201 2.96137 4.44003 0
M  V30 182 O 14.9431 2.07973 5.31134 0
M  V30 183 O 13.8771 3.88312 4.59888 0
M  V30 184 H 17.7031 2.61483 1.54469 0
M  V30 185 H 15.2881 1.3185 0.702567 0
M  V30 186 H 17.1701 1.74217 3.83701 0
M  V30 187 H 15.8451 0.766966 3.14483 0
M  V30 188 H 14.7521 2.93324 2.32189 0
M  V30 189 H 16.0851 3.84699 3.0703 0
M  V30 190 N 17.7372 -0.778329 1.37039 0
M  V30 191 C 19.1482 -1.35421 1.28523 0
M  V30 192 C 19.4992 -1.96075 -0.0700901 0
M  V30 193 O 18.6242 -1.93352 -0.971801 0
M  V30 194 C 19.2192 -2.46211 2.32735 0
M  V30 195 C 17.7782 -2.99585 2.27873 0
M  V30 196 C 16.9252 -1.72748 2.16918 0
M  V30 197 H 19.8762 -0.5791 1.47757 0
M  V30 198 H 19.8972 -3.2552 1.9702 0
M  V30 199 H 19.4092 -2.02036 3.31365 0
M  V30 200 H 17.5102 -3.48152 1.32745 0
M  V30 201 H 17.6232 -3.55646 3.21018 0
M  V30 202 H 15.9872 -1.95416 1.63354 0
M  V30 203 H 16.7702 -1.30686 3.17452 0
M  V30 204 N 19.2153 -1.21501 -1.00376 0
M  V30 205 C 20.1633 -0.972442 -2.11297 0
M  V30 206 C 21.1573 0.080731 -1.69208 0
M  V30 207 O 22.3633 -0.0707666 -1.79861 0
M  V30 208 H 18.7383 -0.297218 -0.690772 0
M  V30 209 H 20.7093 -1.91394 -2.28934 0
M  V30 210 C 19.4583 -0.555065 -3.43241 0
M  V30 211 H 18.7813 -1.35709 -3.76062 0
M  V30 212 H 20.2213 -0.424664 -4.21868 0
M  V30 213 C 18.6803 0.734147 -3.28804 0
M  V30 214 O 19.2103 1.78937 -3.59645 0
M  V30 215 N 17.4163 0.701133 -2.82015 0
M  V30 216 H 16.9633 -0.157874 -2.57116 0
M  V30 217 H 16.9213 1.56403 -2.72737 0
M  V30 218 N 20.6934 1.19889 -1.02296 0
M  V30 219 C 21.9184 1.9393 -0.735237 0
M  V30 220 C 22.3434 1.74639 0.698782 0
M  V30 221 O 21.7014 1.04481 1.48167 0
M  V30 222 C 21.7494 3.43916 -1.08417 0
M  V30 223 O 20.8534 4.11917 -0.199446 0
M  V30 224 H 20.1944 0.605645 -0.272196 0
M  V30 225 H 22.7244 1.52137 -1.36804 0
M  V30 226 H 22.7344 3.9456 -1.03856 0
M  V30 227 H 21.4094 3.5728 -2.12894 0
M  V30 228 H 19.9864 3.71666 -0.303136 0
M  V30 229 N 22.1715 0.800033 1.35784 0
M  V30 230 C 23.4185 0.377342 1.98953 0
M  V30 231 C 23.7465 -1.05378 1.6348 0
M  V30 232 O 23.0015 -1.74459 0.886707 0
M  V30 233 C 23.3005 0.500276 3.53881 0
M  V30 234 C 22.9665 1.89375 4.09204 0
M  V30 235 C 21.6285 2.27499 4.24025 0
M  V30 236 C 23.9805 2.8057 4.39238 0
M  V30 237 C 21.3085 3.562 4.66195 0
M  V30 238 C 23.6605 4.0871 4.82844 0
M  V30 239 C 22.3245 4.46843 4.95871 0
M  V30 240 H 21.5945 0.138079 0.728021 0
M  V30 241 H 24.2415 1.01955 1.62103 0
M  V30 242 H 22.5465 -0.225405 3.91151 0
M  V30 243 H 24.2435 0.154097 4.00704 0
M  V30 244 H 20.8335 1.58753 3.98115 0
M  V30 245 H 25.0175 2.52367 4.27346 0
M  V30 246 H 20.2735 3.85602 4.74469 0
M  V30 247 H 24.4475 4.79481 5.05046 0
M  V30 248 H 22.0745 5.46623 5.28306 0
M  V30 249 N 23.6496 -1.47581 0.552962 0
M  V30 250 C 24.8966 -2.02482 0.0273243 0
M  V30 251 C 25.2246 -1.42776 -1.32081 0
M  V30 252 O 24.4796 -0.571393 -1.87173 0
M  V30 253 C 24.7786 -3.57199 -0.119728 0
M  V30 254 C 24.4446 -4.35804 1.15697 0
M  V30 255 C 23.1066 -4.57 1.50681 0
M  V30 256 C 25.4586 -4.81167 2.00319 0
M  V30 257 C 22.7866 -5.20807 2.70142 0
M  V30 258 C 25.1386 -5.46293 3.18978 0
M  V30 259 C 23.8026 -5.65722 3.54281 0
M  V30 260 H 23.0726 -0.740933 0.00999866 0
M  V30 261 H 25.7196 -1.77302 0.72362 0
M  V30 262 H 24.0246 -3.81348 -0.89896 0
M  V30 263 H 25.7216 -3.97324 -0.541718 0
M  V30 264 H 22.3116 -4.19582 0.874561 0
M  V30 265 H 26.4956 -4.64574 1.74599 0
M  V30 266 H 21.7516 -5.34045 2.97668 0
M  V30 267 H 25.9256 -5.80407 3.84838 0
M  V30 268 H 23.5526 -6.14936 4.46942 0
M  V30 269 N 25.1277 -0.289203 -1.54924 0
M  V30 270 C 26.4047 0.376032 -1.91951 0
M  V30 271 C 26.7847 1.72622 -1.21511 0
M  V30 272 O 26.1327 2.25853 -0.346767 0
M  V30 273 C 26.3427 0.502378 -3.45365 0
M  V30 274 C 27.6907 0.778741 -4.17398 0
M  V30 275 O 28.7147 0.586647 -3.51336 0
M  V30 276 O 27.5737 1.14698 -5.34328 0
M  V30 277 H 24.6677 0.208167 -0.800372 0
M  V30 278 H 27.2137 -0.336394 -1.66332 0
M  V30 279 H 25.9857 -0.447255 -3.88736 0
M  V30 280 H 25.6087 1.26373 -3.76982 0
M  V30 281 N 26.6058 1.57591 -0.0167156 0
M  V30 282 C 27.8538 1.90906 0.663285 0
M  V30 283 C 28.1748 0.892509 1.73376 0
M  V30 284 O 27.4448 -0.0677623 1.95783 0
M  V30 285 H 26.0248 0.704637 0.247983 0
M  V30 286 H 28.6868 1.94803 -0.0615909 0
M  V30 287 H 27.7828 2.9116 1.12393 0
M  V30 288 N 28.0839 -0.256276 1.55502 0
M  V30 289 C 29.3329 -0.983486 1.76098 0
M  V30 290 C 29.6459 -1.86837 0.578896 0
M  V30 291 O 30.8519 -2.63163 0.667648 0
M  V30 292 C 29.3079 -1.79868 3.1173 0
M  V30 293 C 28.9159 -0.961648 4.37557 0
M  V30 294 C 30.6599 -2.51919 3.41668 0
M  V30 295 C 28.5669 -1.77219 5.64223 0
M  V30 296 H 27.4969 -0.370936 0.656447 0
M  V30 297 H 30.1479 -0.238492 1.81944 0
M  V30 298 H 28.5299 -2.58527 2.99966 0
M  V30 299 H 29.7039 -0.218048 4.60284 0
M  V30 300 H 28.0189 -0.354913 4.14885 0
M  V30 301 H 30.6159 -3.12998 4.33516 0
M  V30 302 H 30.9589 -3.23059 2.62562 0
M  V30 303 H 31.4919 -1.80278 3.54605 0
M  V30 304 H 28.2309 -1.10471 6.46124 0
M  V30 305 H 27.7509 -2.49132 5.45613 0
M  V30 306 H 29.4299 -2.34169 6.03137 0
M  V30 307 N 29.562 -1.4872 -0.521534 0
M  V30 308 C 30.81 -1.56857 -1.27437 0
M  V30 309 C 31.131 -0.247982 -1.93417 0
M  V30 310 O 30.401 0.731151 -1.81744 0
M  V30 311 H 28.981 -0.577885 -0.473347 0
M  V30 312 H 31.643 -1.85233 -0.606205 0
M  V30 313 H 30.739 -2.35402 -2.0492 0
M  V30 314 N 31.0401 0.771051 -1.3745 0
M  V30 315 C 32.0031 1.86598 -1.33093 0
M  V30 316 C 33.0031 1.59076 -0.234845 0
M  V30 317 O 34.1931 1.67145 -0.490732 0
M  V30 318 C 31.3251 3.23747 -1.06773 0
M  V30 319 H 32.5181 1.91873 -2.30488 0
M  V30 320 H 30.0711 0.970876 -1.2249 0
M  V30 321 H 30.8061 3.24148 -0.099129 0
M  V30 322 H 30.5911 3.45115 -1.86112 0
M  V30 323 H 32.0811 4.03824 -1.06377 0
M  V30 324 N 32.5182 1.22032 0.997298 0
M  V30 325 C 33.7952 0.950823 1.70935 0
M  V30 326 C 34.1752 -0.535292 2.042 0
M  V30 327 O 33.5232 -1.50217 1.72183 0
M  V30 328 C 33.7332 1.84386 2.96315 0
M  V30 329 C 35.0812 2.09732 3.69185 0
M  V30 330 O 36.1052 1.81798 3.06314 0
M  V30 331 O 34.9642 2.57018 4.82291 0
M  V30 332 H 32.0582 0.357204 0.745878 0
M  V30 333 H 34.6042 1.32997 1.05404 0
M  V30 334 H 33.3762 2.84928 2.68201 0
M  V30 335 H 32.9992 1.46602 3.69586 0
M  V30 336 N 33.9963 -1.19345 1.0293 0
M  V30 337 C 34.9593 -2.20793 0.615069 0
M  V30 338 C 35.9593 -1.57553 -0.321533 0
M  V30 339 O 37.1493 -1.73862 -0.108483 0
M  V30 340 C 34.2813 -3.40754 -0.0999222 0
M  V30 341 H 35.4743 -2.58955 1.51269 0
M  V30 342 H 33.0273 -1.3303 0.820534 0
M  V30 343 H 33.7623 -3.0811 -1.01187 0
M  V30 344 H 33.5473 -3.87889 0.57309 0
M  V30 345 H 35.0373 -4.15898 -0.376645 0
M  V30 346 N 35.4744 -0.807222 -1.35358 0
M  V30 347 C 36.7024 -0.400377 -2.02989 0
M  V30 348 C 37.1174 0.988859 -1.60832 0
M  V30 349 O 36.4744 1.63729 -0.806175 0
M  V30 350 C 36.5254 -0.474867 -3.58368 0
M  V30 351 O 36.2464 -1.80933 -3.98992 0
M  V30 352 C 37.7474 -0.0609112 -4.43258 0
M  V30 353 H 34.9674 -0.162587 -0.651004 0
M  V30 354 H 37.5114 -1.09102 -1.72965 0
M  V30 355 H 35.6664 0.167534 -3.87038 0
M  V30 356 H 36.0804 -1.77256 -4.9364 0
M  V30 357 H 37.5544 -0.164145 -5.51756 0
M  V30 358 H 38.0314 0.993831 -4.27808 0
M  V30 359 H 38.6374 -0.676492 -4.19885 0
M  V30 360 N 36.9525 1.47285 -0.560781 0
M  V30 361 C 37.9025 2.27073 0.205384 0
M  V30 362 C 38.8865 1.34569 0.882044 0
M  V30 363 O 40.0785 1.58899 0.77976 0
M  V30 364 C 37.2075 3.20414 1.23247 0
M  V30 365 C 36.2935 4.20399 0.559041 0
M  V30 366 N 36.6845 5.04423 -0.372927 0
M  V30 367 C 34.9825 4.38536 0.812522 0
M  V30 368 C 35.6835 5.76655 -0.764446 0
M  V30 369 N 34.6595 5.43471 -0.11848 0
M  V30 370 H 38.4615 2.89422 -0.511117 0
M  V30 371 H 35.9755 1.57868 -0.380975 0
M  V30 372 H 37.9725 3.76262 1.79534 0
M  V30 373 H 36.6325 2.59623 1.95002 0
M  V30 374 H 37.6435 5.1248 -0.747287 0
M  V30 375 H 34.3205 3.88913 1.51832 0
M  V30 376 H 35.7105 6.54238 -1.53045 0
M  V30 377 N 38.4306 0.297415 1.54768 0
M  V30 378 C 39.3636 -0.622188 2.19554 0
M  V30 379 C 40.3416 -1.13558 1.16376 0
M  V30 380 O 41.5256 -1.20444 1.45002 0
M  V30 381 C 38.6526 -1.8509 2.83653 0
M  V30 382 C 37.6986 -1.47106 4.00328 0
M  V30 383 S 38.5316 -0.53006 5.3287 0
M  V30 384 C 39.6876 -1.76665 6.0045 0
M  V30 385 H 39.9206 -0.0717806 2.97213 0
M  V30 386 H 37.4536 0.0815678 1.54184 0
M  V30 387 H 39.4116 -2.55605 3.21211 0
M  V30 388 H 38.0726 -2.37247 2.05846 0
M  V30 389 H 37.2656 -2.38594 4.43947 0
M  V30 390 H 36.8676 -0.845885 3.64309 0
M  V30 391 H 39.1596 -2.7077 6.21039 0
M  V30 392 H 40.1026 -1.37308 6.9466 0
M  V30 393 H 40.5106 -1.94174 5.30054 0
M  V30 394 N 39.9087 -1.5758 0.0250728 0
M  V30 395 C 41.1857 -1.82917 -0.692873 0
M  V30 396 C 41.5657 -0.908137 -1.90568 0
M  V30 397 O 40.9137 0.0372298 -2.2847 0
M  V30 398 C 41.1237 -3.32034 -1.07492 0
M  V30 399 C 42.4717 -3.98406 -1.46826 0
M  V30 400 O 43.4957 -3.36505 -1.16801 0
M  V30 401 O 42.3547 -5.07497 -2.02754 0
M  V30 402 H 39.4487 -0.754079 -0.33955 0
M  V30 403 H 41.9947 -1.69619 0.0524456 0
M  V30 404 H 40.7667 -3.90728 -0.211552 0
M  V30 405 H 40.3897 -3.50424 -1.87854 0
M  V30 406 N 41.3868 0.248026 -1.55636 0
M  V30 407 C 42.6348 0.974295 -1.77065 0
M  V30 408 C 42.9558 1.85897 -0.588849 0
M  V30 409 O 42.2258 1.91868 0.395407 0
M  V30 410 H 40.8058 0.362733 -0.653019 0
M  V30 411 H 43.4678 0.266244 -1.93073 0
M  V30 412 H 42.5638 1.59667 -2.68166 0
M  V30 413 N 42.8649 1.48995 0.513639 0
M  V30 414 C 44.1419 1.48338 1.27495 0
M  V30 415 C 44.5219 0.204065 2.10111 0
M  V30 416 O 43.8699 -0.813881 2.13514 0
M  V30 417 C 44.0799 2.75498 2.14247 0
M  V30 418 C 45.4279 3.24484 2.73852 0
M  V30 419 O 46.4519 2.76528 2.24523 0
M  V30 420 O 45.3109 4.07974 3.6362 0
M  V30 421 H 42.4049 0.593149 0.576284 0
M  V30 422 H 44.9509 1.61246 0.528948 0
M  V30 423 H 43.7229 3.60109 1.53092 0
M  V30 424 H 43.3459 2.6539 2.96064 0
M  V30 425 N 44.343 -0.763751 1.37857 0
M  V30 426 C 45.275 -1.88664 1.30148 0
M  V30 427 C 46.288 -1.61365 0.215685 0
M  V30 428 O 47.477 -1.72134 0.472459 0
M  V30 429 C 44.577 -3.24075 0.991396 0
M  V30 430 C 43.75 -3.78958 2.18426 0
M  V30 431 C 42.809 -4.92862 1.8432 0
M  V30 432 O 41.835 -5.08027 2.56704 0
M  V30 433 N 43.037 -5.75071 0.792081 0
M  V30 434 H 45.802 -1.95791 2.26905 0
M  V30 435 H 43.363 -0.943226 1.31586 0
M  V30 436 H 45.355 -3.97804 0.743935 0
M  V30 437 H 43.925 -3.12399 0.112122 0
M  V30 438 H 43.145 -2.96913 2.59299 0
M  V30 439 H 44.433 -4.12357 2.98058 0
M  V30 440 H 43.831 -5.65375 0.191595 0
M  V30 441 H 42.388 -6.48991 0.60449 0
M  V30 442 N 45.8211 -1.22559 -0.990812 0
M  V30 443 C 47.0701 -1.04553 -1.72486 0
M  V30 444 C 47.3831 0.419349 -1.91052 0
M  V30 445 O 48.5891 0.719121 -2.61803 0
M  V30 446 C 47.0451 -1.82231 -3.10355 0
M  V30 447 C 46.6531 -3.32981 -2.99713 0
M  V30 448 C 48.3971 -1.7268 -3.87791 0
M  V30 449 C 46.3041 -4.03091 -4.32748 0
M  V30 450 H 45.2341 -0.387614 -0.646739 0
M  V30 451 H 47.8851 -1.46429 -1.10593 0
M  V30 452 H 46.2671 -1.33155 -3.72942 0
M  V30 453 H 47.4411 -3.89466 -2.46278 0
M  V30 454 H 45.7561 -3.43231 -2.35758 0
M  V30 455 H 48.3531 -2.22381 -4.86262 0
M  V30 456 H 48.6961 -0.687607 -4.10582 0
M  V30 457 H 49.2291 -2.1931 -3.31885 0
M  V30 458 H 45.9681 -5.07273 -4.15156 0
M  V30 459 H 45.4881 -3.51394 -4.86089 0
M  V30 460 H 47.1671 -4.08804 -5.01486 0
M  V30 461 N 47.2992 1.18797 -1.03562 0
M  V30 462 C 48.5452 1.8893 -0.737113 0
M  V30 463 C 48.8782 1.79837 0.732956 0
M  V30 464 O 48.1532 1.19525 1.5344 0
M  V30 465 C 48.4362 3.39607 -1.19745 0
M  V30 466 C 48.2892 3.57537 -2.72924 0
M  V30 467 C 49.6082 4.33069 -0.783526 0
M  V30 468 H 46.7272 0.686057 -0.269249 0
M  V30 469 H 49.3692 1.39797 -1.28673 0
M  V30 470 H 47.5192 3.81583 -0.729855 0
M  V30 471 H 49.1912 3.24688 -3.27682 0
M  V30 472 H 47.4342 3.00363 -3.12993 0
M  V30 473 H 48.1052 4.63238 -3.00191 0
M  V30 474 H 50.5812 3.98846 -1.18581 0
M  V30 475 H 49.4572 5.3707 -1.13343 0
M  V30 476 H 49.7182 4.40986 0.313681 0
M  V30 477 N 48.7773 0.814389 1.34928 0
M  V30 478 C 50.0233 0.399013 1.98836 0
M  V30 479 C 50.3563 -1.03314 1.64438 0
M  V30 480 O 49.6313 -1.71811 0.911659 0
M  V30 481 C 49.9143 0.591629 3.55207 0
M  V30 482 C 49.7673 2.06928 3.99376 0
M  V30 483 C 51.0863 0.022199 4.40094 0
M  V30 484 H 48.2053 0.146451 0.722303 0
M  V30 485 H 50.8473 1.02537 1.59957 0
M  V30 486 H 48.9973 0.0584441 3.88456 0
M  V30 487 H 50.6693 2.66544 3.76499 0
M  V30 488 H 48.9123 2.56287 3.49999 0
M  V30 489 H 49.5833 2.1549 5.08201 0
M  V30 490 H 52.0593 0.477643 4.13349 0
M  V30 491 H 50.9353 0.186832 5.48582 0
M  V30 492 H 51.1963 -1.07215 4.28902 0
M  V30 493 N 50.2554 -1.46986 0.568584 0
M  V30 494 C 51.1654 -2.33942 -0.17555 0
M  V30 495 C 52.1814 -1.48891 -0.90041 0
M  V30 496 O 53.3574 -1.81794 -0.86676 0
M  V30 497 C 50.4224 -3.25811 -1.18524 0
M  V30 498 C 49.4834 -4.26757 -0.466582 0
M  V30 499 C 48.7164 -5.14236 -1.42817 0
M  V30 500 O 48.9394 -5.04379 -2.66379 0
M  V30 501 O 47.8734 -5.94412 -0.946453 0
M  V30 502 H 51.6994 -2.98896 0.538036 0
M  V30 503 H 49.2844 -1.4573 0.329097 0
M  V30 504 H 51.1664 -3.82527 -1.76779 0
M  V30 505 H 49.8414 -2.63471 -1.88055 0
M  V30 506 H 48.7484 -3.73769 0.157451 0
M  V30 507 H 50.0814 -4.91843 0.187485 0
M  V30 508 N 51.7335 -0.305618 -1.54608 0
M  V30 509 C 52.9825 0.303098 -1.9941 0
M  V30 510 C 53.2955 1.54648 -1.19764 0
M  V30 511 O 54.5015 2.23007 -1.54855 0
M  V30 512 C 52.9575 0.590588 -3.55021 0
M  V30 513 C 52.5655 -0.634719 -4.43481 0
M  V30 514 C 54.3095 1.16025 -4.08336 0
M  V30 515 C 52.2165 -0.320126 -5.90533 0
M  V30 516 H 51.1465 0.117031 -0.744862 0
M  V30 517 H 53.7975 -0.415045 -1.78745 0
M  V30 518 H 52.1795 1.36845 -3.71604 0
M  V30 519 H 53.3535 -1.41079 -4.38672 0
M  V30 520 H 51.6685 -1.12333 -4.00962 0
M  V30 521 H 54.2655 1.40994 -5.15776 0
M  V30 522 H 54.6085 2.10397 -3.5922 0
M  V30 523 H 55.1415 0.443985 -3.95315 0
M  V30 524 H 51.8805 -1.23254 -6.43808 0
M  V30 525 H 51.4005 0.418579 -5.98338 0
M  V30 526 H 53.0795 0.0766241 -6.46955 0
M  V30 527 N 53.2116 1.57565 -0.0334293 0
M  V30 528 C 54.1436 2.0739 0.975811 0
M  V30 529 C 55.1566 0.998166 1.2861 0
M  V30 530 O 56.3456 1.27426 1.25 0
M  V30 531 C 53.4456 2.4871 2.30209 0
M  V30 532 C 52.6186 3.79413 2.17634 0
M  V30 533 C 51.6776 4.07237 3.33233 0
M  V30 534 O 50.7036 4.77425 3.09927 0
M  V30 535 N 51.9056 3.5775 4.5716 0
M  V30 536 H 54.6706 2.94598 0.55066 0
M  V30 537 H 52.2316 1.61173 0.15323 0
M  V30 538 H 54.2236 2.64413 3.06378 0
M  V30 539 H 52.7936 1.66845 2.64351 0
M  V30 540 H 52.0136 3.73465 1.26165 0
M  V30 541 H 53.3016 4.65038 2.0644 0
M  V30 542 H 52.6996 3.00976 4.78989 0
M  V30 543 H 51.2566 3.78724 5.30482 0
M  V30 544 N 54.6897 -0.239769 1.55765 0
M  V30 545 C 55.5997 -1.31831 1.94056 0
M  V30 546 C 56.6157 -1.52275 0.841925 0
M  V30 547 O 57.7917 -1.65759 1.14394 0
M  V30 548 C 54.8567 -2.65156 2.23368 0
M  V30 549 C 53.9177 -2.53173 3.46701 0
M  V30 550 C 53.1507 -3.8014 3.74606 0
M  V30 551 O 53.3737 -4.82343 3.04469 0
M  V30 552 O 52.3077 -3.78344 4.68123 0
M  V30 553 H 56.1337 -1.02347 2.85935 0
M  V30 554 H 53.7187 -0.441123 1.42739 0
M  V30 555 H 55.6007 -3.43929 2.43497 0
M  V30 556 H 54.2757 -2.94358 1.34666 0
M  V30 557 H 53.1827 -1.72662 3.31871 0
M  V30 558 H 54.5157 -2.28915 4.35728 0
M  V30 559 N 56.1678 -1.49265 -0.50573 0
M  V30 560 C 57.1308 -1.65075 -1.59006 0
M  V30 561 C 58.1308 -0.522768 -1.52065 0
M  V30 562 O 59.3208 -0.789117 -1.55302 0
M  V30 563 C 56.4528 -1.64369 -2.98656 0
M  V30 564 H 57.6458 -2.61784 -1.46319 0
M  V30 565 H 55.1988 -1.38226 -0.729616 0
M  V30 566 H 55.9338 -0.692272 -3.16825 0
M  V30 567 H 55.7188 -2.46282 -3.05103 0
M  V30 568 H 57.2088 -1.78674 -3.77446 0
M  V30 569 N 57.6459 0.756429 -1.3826 0
M  V30 570 C 58.8919 1.51772 -1.34511 0
M  V30 571 C 59.2249 1.94089 0.0656691 0
M  V30 572 O 58.4999 1.65221 1.02626 0
M  V30 573 C 58.7829 2.77226 -2.29821 0
M  V30 574 C 58.6359 2.41065 -3.79747 0
M  V30 575 C 59.9549 3.79236 -2.23312 0
M  V30 576 H 57.0739 0.550578 -0.489931 0
M  V30 577 H 59.7159 0.866607 -1.69086 0
M  V30 578 H 57.8659 3.32784 -2.00467 0
M  V30 579 H 59.5379 1.91303 -4.19763 0
M  V30 580 H 57.7809 1.7356 -3.97567 0
M  V30 581 H 58.4519 3.3081 -4.41892 0
M  V30 582 H 60.9279 3.3321 -2.49219 0
M  V30 583 H 59.8039 4.64714 -2.92116 0
M  V30 584 H 60.0649 4.24615 -1.23102 0
M  V30 585 N 59.124 1.23083 0.984299 0
M  V30 586 C 60.371 1.06057 1.72505 0
M  V30 587 C 60.699 -0.403105 1.90277 0
M  V30 588 O 59.954 -1.3149 1.44944 0
M  V30 589 C 60.253 1.72673 3.1292 0
M  V30 590 C 59.919 3.22586 3.15038 0
M  V30 591 C 58.581 3.63489 3.15324 0
M  V30 592 C 60.933 4.185 3.10657 0
M  V30 593 C 58.261 4.98772 3.08939 0
M  V30 594 C 60.613 5.53769 3.05814 0
M  V30 595 C 59.277 5.94041 3.04419 0
M  V30 596 H 58.547 0.388091 0.631242 0
M  V30 597 H 61.194 1.52963 1.15215 0
M  V30 598 H 59.499 1.18116 3.73572 0
M  V30 599 H 61.196 1.56982 3.68996 0
M  V30 600 H 57.786 2.90022 3.15571 0
M  V30 601 H 61.97 3.87911 3.09579 0
M  V30 602 H 57.226 5.29193 3.0621 0
M  V30 603 H 61.4 6.27808 3.0138 0
M  V30 604 H 59.027 6.98833 2.99227 0
M  V30 605 N 60.6021 -1.18246 1.0419 0
M  V30 606 C 61.8481 -1.88536 0.747122 0
M  V30 607 C 62.1811 -1.80223 -0.723409 0
M  V30 608 O 61.4561 -1.20337 -1.52804 0
M  V30 609 C 61.7391 -3.38968 1.21544 0
M  V30 610 C 61.5921 -3.56084 2.74816 0
M  V30 611 C 62.9111 -4.32648 0.806482 0
M  V30 612 H 60.0301 -0.684619 0.272883 0
M  V30 613 H 62.6721 -1.39113 1.29413 0
M  V30 614 H 60.8221 -3.8119 0.750081 0
M  V30 615 H 62.4941 -3.22946 3.29399 0
M  V30 616 H 60.7371 -2.98699 3.14582 0
M  V30 617 H 61.4081 -4.61639 3.02644 0
M  V30 618 H 63.8841 -3.98211 1.20695 0
M  V30 619 H 62.7601 -5.36462 1.1619 0
M  V30 620 H 63.0211 -4.41146 -0.29029 0
M  V30 621 N 62.0802 -0.821533 -1.34494 0
M  V30 622 C 63.3052 -0.420873 -2.03085 0
M  V30 623 C 63.7302 0.964915 -1.61465 0
M  V30 624 O 63.0882 1.62763 -0.798607 0
M  V30 625 C 63.1362 -0.529414 -3.56693 0
M  V30 626 O 62.2402 0.451302 -4.09923 0
M  V30 627 H 61.5812 -0.173489 -0.640935 0
M  V30 628 H 64.1112 -1.11157 -1.71771 0
M  V30 629 H 64.1212 -0.404671 -4.05988 0
M  V30 630 H 62.7962 -1.54014 -3.86332 0
M  V30 631 H 61.3732 0.285558 -3.71805 0
M  V30 632 N 63.5583 1.46682 -0.576371 0
M  V30 633 C 64.5063 2.31953 0.17335 0
M  V30 634 C 65.5003 1.44098 0.89062 0
M  V30 635 O 66.7063 1.60759 0.809728 0
M  V30 636 H 63.0813 0.748273 0.0747727 0
M  V30 637 H 65.0523 2.93007 -0.564738 0
M  V30 638 C 63.8013 3.27142 1.17786 0
M  V30 639 H 63.1243 3.94719 0.635361 0
M  V30 640 H 64.5643 3.896 1.67296 0
M  V30 641 C 63.0233 2.52036 2.23561 0
M  V30 642 O 63.5533 2.27877 3.3081 0
M  V30 643 N 61.7593 2.12709 1.97998 0
M  V30 644 H 61.3063 2.32557 1.10792 0
M  V30 645 H 61.2643 1.62776 2.68982 0
M  V30 646 N 65.0364 0.313813 1.54444 0
M  V30 647 C 66.2854 -0.292519 1.99568 0
M  V30 648 C 66.5984 -1.54011 1.20582 0
M  V30 649 O 67.8044 -2.22183 1.56035 0
M  V30 650 C 66.2604 -0.571752 3.55329 0
M  V30 651 C 65.8684 0.658229 4.43138 0
M  V30 652 C 67.6124 -1.13857 4.08946 0
M  V30 653 C 65.5194 0.351439 5.90355 0
M  V30 654 H 64.4494 -0.113079 0.745472 0
M  V30 655 H 67.1004 0.424518 1.78522 0
M  V30 656 H 65.4824 -1.34872 3.72325 0
M  V30 657 H 66.6564 1.43403 4.37918 0
M  V30 658 H 64.9714 1.14458 4.0036 0
M  V30 659 H 67.5684 -1.38257 5.16516 0
M  V30 660 H 67.9114 -2.08489 3.6033 0
M  V30 661 H 68.4444 -0.423015 3.95544 0
M  V30 662 H 65.1834 1.26667 6.43145 0
M  V30 663 H 64.7034 -0.386842 5.98551 0
M  V30 664 H 66.3824 -0.0423134 6.46986 0
M  V30 665 N 66.5145 -1.57545 0.0417849 0
M  V30 666 C 67.7605 -1.92601 -0.635021 0
M  V30 667 C 68.0935 -0.919627 -1.71045 0
M  V30 668 O 67.3685 0.0557892 -1.9442 0
M  V30 669 C 67.6515 -3.38085 -1.23979 0
M  V30 670 C 67.5045 -4.49467 -0.173057 0
M  V30 671 C 68.8235 -3.83776 -2.15416 0
M  V30 672 H 65.9425 -0.700397 -0.229374 0
M  V30 673 H 68.5845 -1.89728 0.101633 0
M  V30 674 H 66.7345 -3.40664 -1.86762 0
M  V30 675 H 68.4065 -4.59018 0.458312 0
M  V30 676 H 66.6495 -4.30909 0.499996 0
M  V30 677 H 67.3205 -5.48323 -0.636054 0
M  V30 678 H 69.7965 -3.83013 -1.62605 0
M  V30 679 H 68.6725 -4.8624 -2.54679 0
M  V30 680 H 68.9335 -3.19998 -3.05047 0
M  V30 681 N 67.9926 0.231505 -1.5589 0
M  V30 682 C 69.2696 0.981096 -1.69215 0
M  V30 683 C 69.6496 2.02799 -0.586164 0
M  V30 684 O 68.9976 2.24823 0.408253 0
M  V30 685 C 69.2076 1.60054 -3.10135 0
M  V30 686 C 70.5556 2.09658 -3.69227 0
M  V30 687 O 71.5796 1.69967 -3.13033 0
M  V30 688 O 70.4386 2.8258 -4.67772 0
M  V30 689 H 67.5326 0.457653 -0.688827 0
M  V30 690 H 70.0786 0.224073 -1.68214 0
M  V30 691 H 68.8506 0.844105 -3.82087 0
M  V30 692 H 68.4736 2.42336 -3.15212 0
M  V30 693 N 69.4707 1.49531 0.497807 0
M  V30 694 C 70.6957 1.63159 1.28039 0
M  V30 695 C 71.1207 0.30418 1.85624 0
M  V30 696 O 70.4787 -0.728618 1.66015 0
M  V30 697 C 70.5267 2.70537 2.38416 0
M  V30 698 O 69.6307 2.29931 3.42353 0
M  V30 699 H 68.9717 0.546001 0.377861 0
M  V30 700 H 71.5017 1.9574 0.59558 0
M  V30 701 H 71.5117 2.92802 2.84132 0
M  V30 702 H 70.1867 3.6689 1.95869 0
M  V30 703 H 68.7637 2.18009 3.02533 0
M  V30 704 N 70.9488 -0.749086 1.3866 0
M  V30 705 C 72.2258 -1.4992 1.25632 0
M  V30 706 C 72.6058 -2.10633 -0.140317 0
M  V30 707 O 71.9538 -1.97437 -1.15025 0
M  V30 708 C 72.1638 -2.56195 2.36992 0
M  V30 709 C 73.5118 -3.22972 2.75634 0
M  V30 710 O 74.5358 -2.66502 2.36337 0
M  V30 711 O 73.3948 -4.25122 3.43415 0
M  V30 712 H 70.4888 -0.665067 0.491544 0
M  V30 713 H 73.0348 -0.784113 1.50498 0
M  V30 714 H 71.8068 -2.09612 3.30422 0
M  V30 715 H 71.4298 -3.35279 2.13714 0
M  V30 716 N 72.4269 -1.23603 -0.977757 0
M  V30 717 C 73.6759 -1.06377 -1.71368 0
M  V30 718 C 73.9889 0.399062 -1.91486 0
M  V30 719 O 75.1949 0.691312 -2.62551 0
M  V30 720 C 73.6509 -1.85512 -3.08404 0
M  V30 721 C 73.2589 -3.36141 -2.96164 0
M  V30 722 C 75.0029 -1.76783 -3.85938 0
M  V30 723 C 72.9099 -4.07659 -4.28449 0
M  V30 724 H 71.8399 -0.394452 -0.642591 0
M  V30 725 H 74.4909 -1.47594 -1.09034 0
M  V30 726 H 72.8729 -1.37103 -3.71509 0
M  V30 727 H 74.0469 -3.92056 -2.42133 0
M  V30 728 H 72.3619 -3.45712 -2.32104 0
M  V30 729 H 74.9589 -2.27526 -4.83876 0
M  V30 730 H 75.3019 -0.731116 -4.0983 0
M  V30 731 H 75.8349 -2.22818 -3.2954 0
M  V30 732 H 72.5739 -5.11648 -4.09752 0
M  V30 733 H 72.0939 -3.5653 -4.82334 0
M  V30 734 H 73.7729 -4.141 -4.97122 0
M  V30 735 N 73.905 1.17692 -1.04816 0
M  V30 736 C 75.133 1.91786 -0.776254 0
M  V30 737 C 75.548 1.76604 0.667577 0
M  V30 738 O 74.905 1.10067 1.45573 0
M  V30 739 C 74.956 3.42967 -1.14263 0
M  V30 740 O 74.677 3.57678 -2.52978 0
M  V30 741 C 76.178 4.34144 -0.896311 0
M  V30 742 H 73.398 0.608624 -0.282519 0
M  V30 743 H 75.942 1.49268 -1.39783 0
M  V30 744 H 74.097 3.83245 -0.565874 0
M  V30 745 H 74.511 4.51319 -2.67229 0
M  V30 746 H 75.985 5.38744 -1.20244 0
M  V30 747 H 76.462 4.38876 0.168636 0
M  V30 748 H 77.068 3.99574 -1.45672 0
M  V30 749 N 75.3831 0.828654 1.34056 0
M  V30 750 C 76.6291 0.42008 1.98402 0
M  V30 751 C 76.9621 -1.01564 1.65525 0
M  V30 752 O 76.2371 -1.70834 0.929831 0
M  V30 753 C 76.5201 0.62927 3.54559 0
M  V30 754 C 76.3731 2.11152 3.97159 0
M  V30 755 C 77.6921 0.0688756 4.40046 0
M  V30 756 H 74.8111 0.154104 0.720709 0
M  V30 757 H 77.4531 1.04228 1.5886 0
M  V30 758 H 75.6031 0.0996418 3.88372 0
M  V30 759 H 77.2751 2.70522 3.73651 0
M  V30 760 H 75.5181 2.59985 3.47261 0
M  V30 761 H 76.1891 2.20868 5.05887 0
M  V30 762 H 78.6651 0.521458 4.1282 0
M  V30 763 H 77.5411 0.245006 5.48353 0
M  V30 764 H 77.8021 -1.0266 4.30015 0
M  V30 765 N 76.8612 -1.46375 0.584142 0
M  V30 766 C 77.8112 -2.27371 -0.169232 0
M  V30 767 C 78.7952 -1.35955 -0.860523 0
M  V30 768 O 79.9872 -1.60119 -0.754382 0
M  V30 769 C 77.1162 -3.22334 -1.18134 0
M  V30 770 C 76.2022 -4.21235 -0.492088 0
M  V30 771 N 76.5932 -5.03766 0.453129 0
M  V30 772 C 74.8912 -4.39773 -0.742652 0
M  V30 773 C 75.5922 -5.75366 0.85609 0
M  V30 774 N 74.5682 -5.43214 0.204926 0
M  V30 775 H 78.3702 -2.88572 0.557097 0
M  V30 776 H 75.8842 -1.57242 0.406042 0
M  V30 777 H 77.8812 -3.79071 -1.73525 0
M  V30 778 H 76.5412 -2.62693 -1.90847 0
M  V30 779 H 77.5522 -5.11227 0.828723 0
M  V30 780 H 74.2292 -3.91279 -1.45625 0
M  V30 781 H 75.6192 -6.5172 1.63434 0
M  V30 782 N 78.3393 -0.321999 -1.54275 0
M  V30 783 C 79.2873 0.560206 -2.25753 0
M  V30 784 C 80.2813 1.11984 -1.27106 0
M  V30 785 O 81.4873 1.06806 -1.44888 0
M  V30 786 H 77.8623 0.199304 -0.725108 0
M  V30 787 H 79.8333 -0.0649365 -2.98329 0
M  V30 788 C 78.5823 1.71023 -3.02731 0
M  V30 789 H 77.9053 1.28885 -3.78456 0
M  V30 790 H 79.3453 2.30314 -3.55993 0
M  V30 791 C 77.8043 2.62692 -2.10938 0
M  V30 792 O 78.3343 3.64364 -1.6912 0
M  V30 793 N 76.5403 2.30891 -1.76459 0
M  V30 794 H 76.0873 1.48253 -2.10663 0
M  V30 795 H 76.0453 2.92487 -1.1532 0
M  V30 796 N 79.8174 1.5752 -0.0501392 0
M  V30 797 C 81.0644 1.9265 0.623874 0
M  V30 798 C 81.3924 0.928411 1.70912 0
M  V30 799 O 80.6474 -0.0594525 1.9561 0
M  V30 800 C 80.9464 3.34467 1.25963 0
M  V30 801 C 80.6124 4.49883 0.302689 0
M  V30 802 C 79.2744 4.81184 0.0393636 0
M  V30 803 C 81.6264 5.20002 -0.353205 0
M  V30 804 C 78.9544 5.79951 -0.887308 0
M  V30 805 C 81.3064 6.1976 -1.26806 0
M  V30 806 C 79.9704 6.49491 -1.54007 0
M  V30 807 H 79.2404 0.704957 0.228292 0
M  V30 808 H 81.8874 1.91146 -0.116398 0
M  V30 809 H 80.1924 3.32333 2.07514 0
M  V30 810 H 81.8894 3.58928 1.78806 0
M  V30 811 H 78.4794 4.25457 0.518109 0
M  V30 812 H 82.6634 4.96033 -0.162854 0
M  V30 813 H 77.9194 6.01322 -1.10553 0
M  V30 814 H 82.0934 6.73205 -1.78236 0
M  V30 815 H 79.7204 7.25837 -2.25976 0
M  V30 816 N 81.2955 -0.223234 1.56011 0
M  V30 817 C 82.5415 -0.949279 1.79211 0
M  V30 818 C 82.8745 -1.84054 0.619494 0
M  V30 819 O 82.1495 -1.90726 -0.381317 0
M  V30 820 C 82.4325 -1.78965 3.12479 0
M  V30 821 C 82.2855 -0.924997 4.40186 0
M  V30 822 C 83.6045 -2.76774 3.42175 0
M  V30 823 H 80.7235 -0.343676 0.651963 0
M  V30 824 H 83.3655 -0.218253 1.88742 0
M  V30 825 H 81.5155 -2.41291 3.04485 0
M  V30 826 H 83.1875 -0.318615 4.60198 0
M  V30 827 H 81.4305 -0.230344 4.33188 0
M  V30 828 H 82.1015 -1.54735 5.29869 0
M  V30 829 H 84.5775 -2.24584 3.50287 0
M  V30 830 H 83.4535 -3.32678 4.36597 0
M  V30 831 H 83.7145 -3.54429 2.64258 0
M  V30 832 N 82.7736 -1.49793 -0.48987 0
M  V30 833 C 84.1846 -1.52914 -1.07118 0
M  V30 834 C 84.5356 -0.321738 -1.93544 0
M  V30 835 O 83.6606 0.567338 -2.08831 0
M  V30 836 C 84.2556 -2.771 -1.94938 0
M  V30 837 C 82.8146 -2.82963 -2.48212 0
M  V30 838 C 81.9616 -2.46972 -1.26096 0
M  V30 839 H 84.9126 -1.56329 -0.273289 0
M  V30 840 H 84.9336 -2.57892 -2.79771 0
M  V30 841 H 84.4456 -3.64959 -1.32009 0
M  V30 842 H 82.5466 -1.99411 -3.14748 0
M  V30 843 H 82.6596 -3.85406 -2.84603 0
M  V30 844 H 81.0236 -1.98994 -1.58976 0
M  V30 845 H 81.8066 -3.37118 -0.648581 0
M  V30 846 N 84.2517 0.741722 -1.39055 0
M  V30 847 C 85.5287 1.49252 -1.26425 0
M  V30 848 C 85.9087 2.10705 0.129144 0
M  V30 849 O 85.2567 1.98045 1.13976 0
M  V30 850 C 85.4667 2.54934 -2.38347 0
M  V30 851 C 86.8147 3.21506 -2.77343 0
M  V30 852 O 87.8387 2.65245 -2.37747 0
M  V30 853 O 86.6977 4.23294 -3.45665 0
M  V30 854 H 83.7917 0.662451 -0.495064 0
M  V30 855 H 86.3377 0.776121 -1.50912 0
M  V30 856 H 85.1097 2.07857 -3.31529 0
M  V30 857 H 84.7327 3.34141 -2.15489 0
M  V30 858 N 85.7298 1.2412 0.971189 0
M  V30 859 C 87.0068 0.986867 1.6888 0
M  V30 860 C 87.3868 -0.491857 2.0529 0
M  V30 861 O 86.7348 -1.46531 1.75331 0
M  V30 862 C 86.9448 1.9063 2.92338 0
M  V30 863 C 88.2928 2.17515 3.64654 0
M  V30 864 O 89.3168 1.88254 3.02388 0
M  V30 865 O 88.1758 2.6719 4.7673 0
M  V30 866 H 85.2698 0.372944 0.738134 0
M  V30 867 H 87.8158 1.35203 1.02559 0
M  V30 868 H 86.5878 2.90552 2.62097 0
M  V30 869 H 86.2108 1.54408 3.66393 0
M  V30 870 N 87.2079 -1.17134 1.05439 0
M  V30 871 C 88.6189 -1.69084 0.791676 0
M  V30 872 C 88.9699 -1.83822 -0.685839 0
M  V30 873 O 88.0949 -1.52757 -1.53278 0
M  V30 874 C 88.6899 -3.07119 1.4305 0
M  V30 875 C 87.2489 -3.56225 1.21577 0
M  V30 876 C 86.3959 -2.32421 1.51247 0
M  V30 877 H 89.3469 -1.01617 1.219 0
M  V30 878 H 89.3679 -3.71087 0.84112 0
M  V30 879 H 88.8799 -2.9636 2.50584 0
M  V30 880 H 86.9809 -3.72257 0.159787 0
M  V30 881 H 87.0939 -4.38837 1.92246 0
M  V30 882 H 85.4579 -2.3701 0.932653 0
M  V30 883 H 86.2409 -2.24268 2.5992 0
M  V30 884 N 88.686 -0.835752 -1.33615 0
M  V30 885 C 89.963 -0.352017 -1.92406 0
M  V30 886 C 90.343 1.16225 -1.76224 0
M  V30 887 O 89.691 1.97526 -1.14873 0
M  V30 888 C 89.901 -0.795485 -3.39813 0
M  V30 889 C 91.249 -0.801703 -4.16963 0
M  V30 890 O 92.273 -0.738889 -3.48452 0
M  V30 891 O 91.132 -0.886607 -5.3926 0
M  V30 892 H 88.226 -0.0989641 -0.821057 0
M  V30 893 H 90.772 -0.921397 -1.42507 0
M  V30 894 H 89.544 -1.83795 -3.45449 0
M  V30 895 H 89.167 -0.202505 -3.97084 0
M  V30 896 N 90.1641 1.46063 -0.591896 0
M  V30 897 C 91.3891 2.07226 -0.0850314 0
M  V30 898 C 91.8141 1.43625 1.21463 0
M  V30 899 O 91.1721 0.523305 1.73583 0
M  V30 900 C 91.2201 3.60554 0.0576567 0
M  V30 901 O 90.3241 3.97128 1.11188 0
M  V30 902 H 89.6651 0.660615 -0.0669568 0
M  V30 903 H 92.1951 1.8756 -0.81745 0
M  V30 904 H 92.2051 4.07165 0.2609 0
M  V30 905 H 90.8801 4.06235 -0.891416 0
M  V30 906 H 89.4571 3.62213 0.886356 0
M  V30 907 N 91.6422 0.330177 1.54103 0
M  V30 908 C 92.8882 -0.270806 2.00984 0
M  V30 909 C 93.2212 -1.51265 1.21789 0
M  V30 910 O 92.4962 -1.92142 0.301927 0
M  V30 911 C 92.7792 -0.598339 3.55094 0
M  V30 912 C 92.6322 0.654674 4.4501 0
M  V30 913 C 93.9512 -1.41334 4.16789 0
M  V30 914 H 91.0702 -0.0969531 0.730595 0
M  V30 915 H 93.7122 0.448066 1.84641 0
M  V30 916 H 91.8622 -1.21078 3.69151 0
M  V30 917 H 93.5342 1.29285 4.42813 0
M  V30 918 H 91.7772 1.28224 4.14416 0
M  V30 919 H 92.4482 0.380944 5.50684 0
M  V30 920 H 94.9242 -0.895597 4.06347 0
M  V30 921 H 93.8002 -1.61127 5.24718 0
M  V30 922 H 94.0612 -2.41146 3.70541 0
M  V30 923 N 93.1203 -1.57491 0.0584922 0
M  V30 924 C 94.3663 -1.93264 -0.614558 0
M  V30 925 C 94.6993 -0.937717 -1.7006 0
M  V30 926 O 93.9743 0.0351652 -1.94468 0
M  V30 927 C 94.2573 -3.3938 -1.20386 0
M  V30 928 C 94.1103 -4.49625 -0.125375 0
M  V30 929 C 95.4293 -3.86039 -2.11334 0
M  V30 930 H 92.5483 -0.702791 -0.221933 0
M  V30 931 H 95.1903 -1.8961 0.12175 0
M  V30 932 H 93.3403 -3.42626 -1.83139 0
M  V30 933 H 95.0123 -4.58506 0.506971 0
M  V30 934 H 93.2553 -4.30354 0.545672 0
M  V30 935 H 93.9263 -5.48967 -0.577861 0
M  V30 936 H 96.4023 -3.84716 -1.58534 0
M  V30 937 H 95.2783 -4.88914 -2.49507 0
M  V30 938 H 95.5393 -3.23215 -3.01636 0
M  V30 939 N 94.5984 0.214957 -1.56127 0
M  V30 940 C 95.8474 0.936451 -1.78643 0
M  V30 941 C 96.1604 1.85237 -0.628229 0
M  V30 942 O 97.3664 2.613 -0.737186 0
M  V30 943 C 95.8224 1.7154 -3.16389 0
M  V30 944 C 95.4304 0.845299 -4.39953 0
M  V30 945 C 97.1744 2.42772 -3.48227 0
M  V30 946 C 95.0814 1.62198 -5.68723 0
M  V30 947 H 94.0114 0.353401 -0.666051 0
M  V30 948 H 96.6624 0.190169 -1.82512 0
M  V30 949 H 95.0444 2.50484 -3.06715 0
M  V30 950 H 96.2184 0.0959353 -4.607 0
M  V30 951 H 94.5334 0.244789 -4.1568 0
M  V30 952 H 97.1304 3.01394 -4.41663 0
M  V30 953 H 97.4734 3.15984 -2.71035 0
M  V30 954 H 98.0064 1.70813 -3.5926 0
M  V30 955 H 94.7454 0.933011 -6.48826 0
M  V30 956 H 94.2654 2.34579 -5.52026 0
M  V30 957 H 95.9444 2.18095 -6.09133 0
M  V30 958 N 96.0765 1.50051 0.48192 0
M  V30 959 C 97.0085 1.64263 1.59844 0
M  V30 960 C 98.0215 0.52451 1.54119 0
M  V30 961 O 99.2105 0.797293 1.59704 0
M  V30 962 C 96.3105 1.60102 2.98698 0
M  V30 963 C 95.4835 2.87767 3.29407 0
M  V30 964 C 94.5425 2.76397 4.47762 0
M  V30 965 O 93.5685 3.50348 4.48603 0
M  V30 966 N 94.7705 1.89222 5.48794 0
M  V30 967 H 97.5355 2.60566 1.48073 0
M  V30 968 H 95.0965 1.47379 0.670149 0
M  V30 969 H 97.0885 1.50123 3.75826 0
M  V30 970 H 95.6585 0.715798 3.04294 0
M  V30 971 H 94.8785 3.11954 2.40994 0
M  V30 972 H 96.1665 3.72365 3.4673 0
M  V30 973 H 95.5645 1.28434 5.50928 0
M  V30 974 H 94.1215 1.85154 6.24949 0
M  V30 975 N 97.5546 -0.734337 1.39446 0
M  V30 976 C 98.8316 -1.48579 1.27215 0
M  V30 977 C 99.2116 -2.1077 -0.117968 0
M  V30 978 O 98.5596 -1.98646 -1.12924 0
M  V30 979 C 98.7696 -2.53667 2.39696 0
M  V30 980 C 100.118 -3.20031 2.79044 0
M  V30 981 O 101.142 -2.6398 2.39151 0
M  V30 982 O 100.001 -4.21455 3.47905 0
M  V30 983 H 97.0946 -0.659816 0.49857 0
M  V30 984 H 99.6406 -0.768106 1.51322 0
M  V30 985 H 98.4126 -2.06096 3.32626 0
M  V30 986 H 98.0356 -3.32994 2.17258 0
M  V30 987 N 99.0327 -1.24633 -0.964593 0
M  V30 988 C 100.279 -1.08949 -1.71049 0
M  V30 989 C 100.612 0.370302 -1.90637 0
M  V30 990 O 99.8867 1.27349 -1.47011 0
M  V30 991 C 100.17 -1.83329 -3.0994 0
M  V30 992 C 100.023 -3.37077 -2.97824 0
M  V30 993 C 101.342 -1.60846 -4.09654 0
M  V30 994 H 98.4607 -0.397178 -0.620821 0
M  V30 995 H 101.103 -1.5334 -1.12191 0
M  V30 996 H 99.2527 -1.45597 -3.60186 0
M  V30 997 H 100.925 -3.84425 -2.5498 0
M  V30 998 H 99.1677 -3.65298 -2.33965 0
M  V30 999 H 99.8387 -3.84324 -3.96231 0
M  V30 1000 H 102.315 -1.93674 -3.68279 0
M  V30 1001 H 101.191 -2.1534 -5.04896 0
M  V30 1002 H 101.452 -0.547434 -4.38698 0
M  V30 1003 N 100.511 1.16574 -1.06058 0
M  V30 1004 C 101.757 1.87324 -0.777022 0
M  V30 1005 C 102.09 1.81351 0.694645 0
M  V30 1006 O 101.365 1.22753 1.50871 0
M  V30 1007 C 101.648 3.36991 -1.26922 0
M  V30 1008 C 101.501 3.51667 -2.80447 0
M  V30 1009 C 102.82 4.3131 -0.87521 0
M  V30 1010 H 99.9388 0.680191 -0.28374 0
M  V30 1011 H 102.581 1.37036 -1.3161 0
M  V30 1012 H 100.731 3.79949 -0.81063 0
M  V30 1013 H 102.403 3.17664 -3.34495 0
M  V30 1014 H 100.646 2.93656 -3.19294 0
M  V30 1015 H 101.317 4.56766 -3.0995 0
M  V30 1016 H 103.793 3.9624 -1.27014 0
M  V30 1017 H 102.669 5.34545 -1.2471 0
M  V30 1018 H 102.93 4.41552 0.220071 0
M  V30 1019 N 101.989 0.842826 1.3317 0
M  V30 1020 C 102.899 0.281444 2.32906 0
M  V30 1021 C 103.915 -0.594587 1.63526 0
M  V30 1022 O 105.091 -0.49777 1.95152 0
M  V30 1023 C 102.156 -0.530929 3.42611 0
M  V30 1024 C 101.217 0.369843 4.27704 0
M  V30 1025 C 100.45 -0.403853 5.3217 0
M  V30 1026 O 100.673 -1.63513 5.46461 0
M  V30 1027 O 99.6069 0.224199 6.01482 0
M  V30 1028 H 103.433 1.10744 2.82789 0
M  V30 1029 H 101.018 0.60545 1.36582 0
M  V30 1030 H 102.9 -0.992437 4.09547 0
M  V30 1031 H 101.575 -1.33392 2.94938 0
M  V30 1032 H 100.482 0.879275 3.6362 0
M  V30 1033 H 101.815 1.13771 4.78871 0
M  V30 1034 N 103.467 -1.45747 0.599634 0
M  V30 1035 C 104.744 -1.95585 0.0240846 0
M  V30 1036 C 105.124 -1.54217 -1.44154 0
M  V30 1037 O 104.472 -0.800903 -2.14004 0
M  V30 1038 C 104.682 -3.48344 0.21385 0
M  V30 1039 C 106.03 -4.24504 0.0904902 0
M  V30 1040 O 107.054 -3.55911 0.143558 0
M  V30 1041 O 105.913 -5.46491 -0.0310766 0
M  V30 1042 H 103.007 -0.82602 -0.0402478 0
M  V30 1043 H 105.553 -1.55951 0.669139 0
M  V30 1044 H 104.325 -3.71397 1.23206 0
M  V30 1045 H 103.948 -3.9485 -0.466842 0
M  V30 1046 N 104.945 -0.338344 -1.53925 0
M  V30 1047 C 106.191 0.260143 -2.01125 0
M  V30 1048 C 106.524 1.50617 -1.22589 0
M  V30 1049 O 105.799 1.91979 -0.312113 0
M  V30 1050 C 106.082 0.579499 -3.55407 0
M  V30 1051 C 105.935 -0.678264 -4.44657 0
M  V30 1052 C 107.254 1.39122 -4.17532 0
M  V30 1053 H 104.373 0.0930772 -0.731099 0
M  V30 1054 H 107.015 -0.457852 -1.84401 0
M  V30 1055 H 105.165 1.19118 -3.69788 0
M  V30 1056 H 106.837 -1.31631 -4.42121 0
M  V30 1057 H 105.08 -1.3042 -4.13731 0
M  V30 1058 H 105.751 -0.410143 -5.50474 0
M  V30 1059 H 108.227 0.874035 -4.06817 0
M  V30 1060 H 107.103 1.58342 -5.25565 0
M  V30 1061 H 107.364 2.39178 -3.71815 0
M  V30 1062 N 106.423 1.57458 -0.0668435 0
M  V30 1063 C 107.669 1.93587 0.6043 0
M  V30 1064 C 108.002 0.946722 1.69561 0
M  V30 1065 O 107.277 -0.0248516 1.94484 0
M  V30 1066 C 107.56 3.40014 1.18585 0
M  V30 1067 C 107.413 4.49685 0.101529 0
M  V30 1068 C 108.732 3.87154 2.09284 0
M  V30 1069 H 105.851 0.703958 0.218202 0
M  V30 1070 H 108.493 1.89542 -0.131804 0
M  V30 1071 H 106.643 3.43592 1.81319 0
M  V30 1072 H 108.315 4.5823 -0.531279 0
M  V30 1073 H 106.558 4.30059 -0.568487 0
M  V30 1074 H 107.229 5.49266 0.54874 0
M  V30 1075 H 109.705 3.85551 1.56491 0
M  V30 1076 H 108.581 4.90231 2.46911 0
M  V30 1077 H 108.842 3.2481 2.99918 0
M  V30 1078 N 107.901 -0.206675 1.56239 0
M  V30 1079 C 109.15 -0.926964 1.79138 0
M  V30 1080 C 109.463 -1.84901 0.638043 0
M  V30 1081 O 110.669 -2.60906 0.751033 0
M  V30 1082 C 109.125 -1.6986 3.17294 0
M  V30 1083 C 108.733 -0.821956 4.40395 0
M  V30 1084 C 110.477 -2.40922 3.4951 0
M  V30 1085 C 108.384 -1.59179 5.69575 0
M  V30 1086 H 107.314 -0.349864 0.667915 0
M  V30 1087 H 109.965 -0.180487 1.8261 0
M  V30 1088 H 108.347 -2.48853 3.08039 0
M  V30 1089 H 109.521 -0.0715019 4.60745 0
M  V30 1090 H 107.836 -0.222741 4.15804 0
M  V30 1091 H 110.433 -2.99047 4.43255 0
M  V30 1092 H 110.776 -3.14542 2.72707 0
M  V30 1093 H 111.309 -1.68905 3.60161 0
M  V30 1094 H 108.048 -0.898589 6.49312 0
M  V30 1095 H 107.568 -2.31648 5.53262 0
M  V30 1096 H 109.247 -2.14862 6.10281 0
M  V30 1097 N 109.379 -1.50304 -0.473955 0
M  V30 1098 C 110.289 -1.7174 -1.5982 0
M  V30 1099 C 111.305 -0.600457 -1.63311 0
M  V30 1100 O 112.481 -0.878441 -1.81233 0
M  V30 1101 C 109.546 -1.80427 -2.96052 0
M  V30 1102 C 108.607 -3.04148 -3.02972 0
M  V30 1103 C 107.84 -3.12411 -4.32706 0
M  V30 1104 O 108.063 -2.27542 -5.23049 0
M  V30 1105 O 106.997 -4.05113 -4.45159 0
M  V30 1106 H 110.823 -2.67035 -1.44657 0
M  V30 1107 H 108.408 -1.34366 -0.653148 0
M  V30 1108 H 110.29 -1.88338 -3.7697 0
M  V30 1109 H 108.965 -0.883156 -3.11419 0
M  V30 1110 H 107.872 -3.0174 -2.21142 0
M  V30 1111 H 109.205 -3.95829 -2.92541 0
M  V30 1112 N 110.857 0.726932 -1.39834 0
M  V30 1113 C 111.767 1.87131 -1.41489 0
M  V30 1114 C 112.783 1.71239 -0.308757 0
M  V30 1115 O 113.959 1.93701 -0.551529 0
M  V30 1116 C 111.024 3.22811 -1.26468 0
M  V30 1117 C 110.085 3.51039 -2.47124 0
M  V30 1118 C 109.318 4.80245 -2.3281 0
M  V30 1119 O 109.541 5.54537 -1.33585 0
M  V30 1120 O 108.475 5.08554 -3.21957 0
M  V30 1121 H 112.301 1.8869 -2.3797 0
M  V30 1122 H 109.886 0.875837 -1.21035 0
M  V30 1123 H 111.768 4.03877 -1.20255 0
M  V30 1124 H 110.443 3.22005 -0.330862 0
M  V30 1125 H 109.35 2.70027 -2.58914 0
M  V30 1126 H 110.683 3.56632 -3.39227 0
M  V30 1127 N 112.336 1.25143 0.95797 0
M  V30 1128 C 113.613 1.00472 1.67823 0
M  V30 1129 C 113.993 -0.470056 2.058 0
M  V30 1130 O 113.341 -1.44663 1.76875 0
M  V30 1131 C 113.551 1.9372 2.90299 0
M  V30 1132 C 114.899 2.21371 3.62326 0
M  V30 1133 O 115.923 1.91451 3.00375 0
M  V30 1134 O 114.782 2.72231 4.7387 0
M  V30 1135 H 111.876 0.380752 0.734137 0
M  V30 1136 H 114.422 1.36283 1.01119 0
M  V30 1137 H 113.194 2.93316 2.59001 0
M  V30 1138 H 112.817 1.58286 3.64735 0
M  V30 1139 N 113.814 -1.1601 1.06675 0
M  V30 1140 C 115.06 -1.86909 0.786945 0
M  V30 1141 C 115.393 -1.81717 -0.685018 0
M  V30 1142 O 114.668 -1.23551 -1.50218 0
M  V30 1143 C 114.951 -3.36313 1.28707 0
M  V30 1144 C 114.804 -3.50175 2.82308 0
M  V30 1145 C 116.123 -4.3084 0.898071 0
M  V30 1146 H 113.242 -0.678677 0.287343 0
M  V30 1147 H 115.884 -1.36336 1.32334 0
M  V30 1148 H 114.034 -3.79513 0.830768 0
M  V30 1149 H 115.706 -3.15886 3.36175 0
M  V30 1150 H 113.949 -2.91959 3.20847 0
M  V30 1151 H 114.62 -4.55116 3.12368 0
M  V30 1152 H 117.096 -3.95561 1.29114 0
M  V30 1153 H 115.972 -5.33876 1.27543 0
M  V30 1154 H 116.233 -4.41662 -0.196651 0
M  V30 1155 N 115.292 -0.849877 -1.32721 0
M  V30 1156 C 116.224 -0.248332 -2.27851 0
M  V30 1157 C 117.237 0.577218 -1.52224 0
M  V30 1158 O 118.426 0.402489 -1.73903 0
M  V30 1159 C 115.526 0.668107 -3.32249 0
M  V30 1160 C 114.699 -0.120534 -4.37234 0
M  V30 1161 C 113.758 0.720932 -5.21238 0
M  V30 1162 O 112.784 0.156166 -5.68986 0
M  V30 1163 N 113.986 2.03647 -5.43607 0
M  V30 1164 H 116.751 -1.06575 -2.80111 0
M  V30 1165 H 114.312 -0.709395 -1.45531 0
M  V30 1166 H 116.304 1.23627 -3.85355 0
M  V30 1167 H 114.874 1.38621 -2.80184 0
M  V30 1168 H 114.094 -0.870108 -3.84477 0
M  V30 1169 H 115.382 -0.662406 -5.0447 0
M  V30 1170 H 114.78 2.51871 -5.06535 0
M  V30 1171 H 113.337 2.55287 -5.99727 0
M  V30 1172 N 116.77 1.45427 -0.607355 0
M  V30 1173 C 118.01 2.04128 -0.105458 0
M  V30 1174 C 118.374 1.46555 1.24039 0
M  V30 1175 O 119.575 1.96608 1.833 0
M  V30 1176 C 117.846 3.57338 -0.0665324 0
M  V30 1177 S 119.405 4.37201 0.374207 0
M  V30 1178 H 116.223 0.709278 -0.0494575 0
M  V30 1179 H 118.825 1.78139 -0.805404 0
M  V30 1180 H 117.529 3.96752 -1.04957 0
M  V30 1181 H 117.06 3.87902 0.655415 0
M  V30 1182 H 119.075 4.6888 1.62377 0
M  V30 1183 N 118.248 0.346503 1.53744 0
M  V30 1184 C 119.473 -0.253074 2.0585 0
M  V30 1185 C 119.898 -1.43202 1.21962 0
M  V30 1186 O 119.256 -1.79783 0.234073 0
M  V30 1187 C 119.304 -0.643193 3.54817 0
M  V30 1188 O 118.408 -1.74286 3.73762 0
M  V30 1189 H 117.749 -0.0413583 0.662711 0
M  V30 1190 H 120.279 0.501574 1.98357 0
M  V30 1191 H 120.289 -0.919526 3.97503 0
M  V30 1192 H 118.964 0.218966 4.15323 0
M  V30 1193 H 117.541 -1.46356 3.42979 0
M  V30 1194 N 119.726 -1.57421 0.075193 0
M  V30 1195 C 121.003 -1.85029 -0.634329 0
M  V30 1196 C 121.383 -0.968305 -1.87582 0
M  V30 1197 O 120.731 -0.0354749 -2.28472 0
M  V30 1198 C 120.941 -3.35286 -0.968742 0
M  V30 1199 C 122.289 -4.02875 -1.34077 0
M  V30 1200 O 123.313 -3.40051 -1.06037 0
M  V30 1201 O 122.172 -5.13691 -1.86506 0
M  V30 1202 H 119.266 -0.7645 -0.315387 0
M  V30 1203 H 121.812 -1.69366 0.106382 0
M  V30 1204 H 120.584 -3.91203 -0.0871376 0
M  V30 1205 H 120.207 -3.56223 -1.7661 0
M  V30 1206 N 121.204 0.198386 -1.56346 0
M  V30 1207 C 122.453 0.917451 -1.79627 0
M  V30 1208 C 122.766 1.8456 -0.64784 0
M  V30 1209 O 123.972 2.60504 -0.764859 0
M  V30 1210 C 122.428 1.68175 -3.18191 0
M  V30 1211 C 122.036 0.798589 -4.40825 0
M  V30 1212 C 123.78 2.39065 -3.50782 0
M  V30 1213 C 121.687 1.56157 -5.70411 0
M  V30 1214 H 120.617 0.346317 -0.669762 0
M  V30 1215 H 123.268 0.170801 -1.82703 0
M  V30 1216 H 121.65 2.47216 -3.09354 0
M  V30 1217 H 122.824 0.0470665 -4.60776 0
M  V30 1218 H 121.139 0.200686 -4.15916 0
M  V30 1219 H 123.736 2.96692 -4.44835 0
M  V30 1220 H 124.079 3.13091 -2.74371 0
M  V30 1221 H 124.612 1.66993 -3.61052 0
M  V30 1222 H 121.351 0.864142 -6.49779 0
M  V30 1223 H 120.871 2.2871 -5.54483 0
M  V30 1224 H 122.55 2.11622 -6.11412 0
M  V30 1225 N 122.682 1.50554 0.465978 0
M  V30 1226 C 123.612 1.72722 1.57128 0
M  V30 1227 C 124.593 0.576294 1.6004 0
M  V30 1228 O 125.778 0.81598 1.76225 0
M  V30 1229 C 122.908 1.82605 2.95419 0
M  V30 1230 C 121.862 2.97835 3.07373 0
M  V30 1231 C 121.188 2.92867 4.47363 0
M  V30 1232 C 122.488 4.38265 2.84114 0
M  V30 1233 H 124.182 2.65267 1.38829 0
M  V30 1234 H 121.728 1.2765 0.666441 0
M  V30 1235 H 123.681 1.96698 3.72677 0
M  V30 1236 H 122.405 0.866858 3.14886 0
M  V30 1237 H 121.064 2.83401 2.3255 0
M  V30 1238 H 120.712 1.94783 4.63755 0
M  V30 1239 H 120.412 3.70227 4.56296 0
M  V30 1240 H 121.936 3.09015 5.26633 0
M  V30 1241 H 123.35 4.53198 3.51118 0
M  V30 1242 H 121.747 5.17115 3.04487 0
M  V30 1243 H 122.817 4.50281 1.7993 0
M  V30 1244 N 124.16 -0.719506 1.40217 0
M  V30 1245 C 125.07 -1.86378 1.42479 0
M  V30 1246 C 126.086 -1.71073 0.317834 0
M  V30 1247 O 127.262 -1.93406 0.561794 0
M  V30 1248 C 124.327 -3.22136 1.28178 0
M  V30 1249 C 123.388 -3.49723 2.48982 0
M  V30 1250 C 122.621 -4.79004 2.35353 0
M  V30 1251 O 122.844 -5.53821 1.36524 0
M  V30 1252 O 121.778 -5.06839 3.2465 0
M  V30 1253 H 125.604 -1.87425 2.38968 0
M  V30 1254 H 123.189 -0.869405 1.21498 0
M  V30 1255 H 125.071 -4.03234 1.22395 0
M  V30 1256 H 123.746 -3.21825 0.347934 0
M  V30 1257 H 122.653 -2.6865 2.60342 0
M  V30 1258 H 123.986 -3.54828 3.41113 0
M  V30 1259 N 125.638 -1.25649 -0.95132 0
M  V30 1260 C 126.548 -1.08073 -2.08224 0
M  V30 1261 C 127.564 -0.0169666 -1.73992 0
M  V30 1262 O 128.74 -0.218593 -2.0021 0
M  V30 1263 C 125.805 -0.704922 -3.39458 0
M  V30 1264 C 124.866 -1.84699 -3.87537 0
M  V30 1265 C 124.099 -1.48902 -5.12508 0
M  V30 1266 O 124.322 -0.386156 -5.69091 0
M  V30 1267 O 123.256 -2.32033 -5.55378 0
M  V30 1268 H 127.082 -2.02924 -2.25954 0
M  V30 1269 H 124.667 -1.04618 -1.06656 0
M  V30 1270 H 126.549 -0.507609 -4.18332 0
M  V30 1271 H 125.224 0.214291 -3.2299 0
M  V30 1272 H 124.131 -2.09919 -3.09653 0
M  V30 1273 H 125.464 -2.74557 -4.08509 0
M  V30 1274 N 127.117 1.15442 -1.07289 0
M  V30 1275 C 128.08 2.18358 -0.696591 0
M  V30 1276 C 129.08 1.58637 0.262837 0
M  V30 1277 O 130.27 1.74145 0.0438809 0
M  V30 1278 C 127.402 3.4089 -0.0266151 0
M  V30 1279 H 128.595 2.53162 -1.60776 0
M  V30 1280 H 126.148 1.29893 -0.869342 0
M  V30 1281 H 126.883 3.11653 0.896822 0
M  V30 1282 H 126.668 3.85495 -0.716657 0
M  V30 1283 H 128.158 4.17009 0.222028 0
M  V30 1284 N 128.595 0.856903 1.32268 0
M  V30 1285 C 129.872 0.382583 1.91822 0
M  V30 1286 C 130.252 -1.13407 1.78051 0
M  V30 1287 O 129.6 -1.95673 1.18001 0
M  V30 1288 C 129.81 0.849446 3.38505 0
M  V30 1289 C 131.158 0.867936 4.15634 0
M  V30 1290 O 132.182 0.794232 3.47232 0
M  V30 1291 O 131.041 0.972286 5.37781 0
M  V30 1292 H 128.135 0.112014 0.819379 0
M  V30 1293 H 130.681 0.943952 1.41024 0
M  V30 1294 H 129.453 1.89267 3.42482 0
M  V30 1295 H 129.076 0.265652 3.96712 0
M  V30 1296 N 130.073 -1.45103 0.615059 0
M  V30 1297 C 131.319 -2.02483 0.113347 0
M  V30 1298 C 131.652 -1.48146 -1.25564 0
M  V30 1299 O 130.927 -0.659104 -1.82992 0
M  V30 1300 C 131.21 -3.60005 0.0825278 0
M  V30 1301 C 131.063 -4.2466 1.48271 0
M  V30 1302 C 132.382 -4.35972 -0.601401 0
M  V30 1303 H 129.501 -0.735764 0.0426632 0
M  V30 1304 H 132.143 -1.72868 0.788461 0
M  V30 1305 H 130.293 -3.85367 -0.492378 0
M  V30 1306 H 131.965 -4.10458 2.10527 0
M  V30 1307 H 130.208 -3.82772 2.04127 0
M  V30 1308 H 130.879 -5.336 1.41332 0
M  V30 1309 H 133.355 -4.15947 -0.112666 0
M  V30 1310 H 132.231 -5.45697 -0.592097 0
M  V30 1311 H 132.492 -4.09391 -1.66887 0
M  V30 1312 N 131.551 -0.354651 -1.53558 0
M  V30 1313 C 132.776 0.242153 -2.05981 0
M  V30 1314 C 133.201 1.42553 -1.2272 0
M  V30 1315 O 132.559 1.79656 -0.243604 0
M  V30 1316 C 132.607 0.624367 -3.55154 0
M  V30 1317 O 131.711 1.72301 -3.74681 0
M  V30 1318 H 131.052 0.0378432 -0.662921 0
M  V30 1319 H 133.582 -0.512087 -1.98088 0
M  V30 1320 H 133.592 0.898433 -3.97985 0
M  V30 1321 H 132.267 -0.240989 -4.15201 0
M  V30 1322 H 130.844 1.44535 -3.4375 0
M  V30 1323 N 133.029 1.57378 -0.0835403 0
M  V30 1324 C 133.939 2.16897 0.894021 0
M  V30 1325 C 134.955 1.13528 1.31861 0
M  V30 1326 O 136.131 1.45848 1.3889 0
M  V30 1327 C 133.196 2.72831 2.13925 0
M  V30 1328 C 132.257 3.91115 1.76997 0
M  V30 1329 C 131.49 4.44371 2.95584 0
M  V30 1330 O 131.713 3.96596 4.09961 0
M  V30 1331 O 130.647 5.35549 2.74719 0
M  V30 1332 H 134.473 3.00814 0.417679 0
M  V30 1333 H 132.058 1.48741 0.140181 0
M  V30 1334 H 133.94 3.0863 2.86924 0
M  V30 1335 H 132.615 1.91967 2.60635 0
M  V30 1336 H 131.522 3.60148 1.01214 0
M  V30 1337 H 132.855 4.73307 1.3506 0
M  V30 1338 N 134.507 -0.190092 1.56449 0
M  V30 1339 C 135.455 -1.25501 1.95837 0
M  V30 1340 C 136.449 -1.4685 0.844485 0
M  V30 1341 O 137.655 -1.47651 1.02952 0
M  V30 1342 H 134.03 -0.421447 0.622805 0
M  V30 1343 H 136.001 -0.895821 2.84636 0
M  V30 1344 C 134.75 -2.59124 2.31841 0
M  V30 1345 H 134.073 -2.43514 3.17082 0
M  V30 1346 H 135.513 -3.32371 2.6326 0
M  V30 1347 C 133.972 -3.16488 1.15486 0
M  V30 1348 O 134.502 -3.99365 0.432535 0
M  V30 1349 N 132.708 -2.75305 0.930349 0
M  V30 1350 H 132.255 -2.08013 1.51948 0
M  V30 1351 H 132.213 -3.14024 0.153634 0
M  V30 1352 N 135.985 -1.50799 -0.457987 0
M  V30 1353 C 137.231 -1.62683 -1.21088 0
M  V30 1354 C 137.564 -0.332268 -1.91336 0
M  V30 1355 O 136.839 0.667043 -1.82704 0
M  V30 1356 C 137.122 -2.81615 -2.24422 0
M  V30 1357 C 136.975 -4.20989 -1.58392 0
M  V30 1358 C 138.294 -2.96085 -3.2561 0
M  V30 1359 H 135.413 -0.592087 -0.438864 0
M  V30 1360 H 138.055 -1.83225 -0.50286 0
M  V30 1361 H 136.205 -2.64231 -2.84806 0
M  V30 1362 H 137.877 -4.49994 -1.01504 0
M  V30 1363 H 136.12 -4.24641 -0.886704 0
M  V30 1364 H 136.791 -5.0016 -2.33547 0
M  V30 1365 H 139.267 -3.12042 -2.75262 0
M  V30 1366 H 138.143 -3.80902 -3.95228 0
M  V30 1367 H 138.404 -2.0726 -3.90507 0
M  V30 1368 N 137.463 0.71206 -1.40597 0
M  V30 1369 C 138.712 1.46754 -1.38369 0
M  V30 1370 C 139.025 1.95598 0.0097839 0
M  V30 1371 O 140.231 2.71059 0.154677 0
M  V30 1372 C 138.687 2.65289 -2.43207 0
M  V30 1373 C 138.295 2.23301 -3.88382 0
M  V30 1374 C 140.039 3.43008 -2.50091 0
M  V30 1375 C 137.946 3.38696 -4.84808 0
M  V30 1376 H 136.876 0.55118 -0.514506 0
M  V30 1377 H 139.527 0.774616 -1.66349 0
M  V30 1378 H 137.909 3.36769 -2.08332 0
M  V30 1379 H 139.083 1.59218 -4.32419 0
M  V30 1380 H 137.398 1.58618 -3.85006 0
M  V30 1381 H 139.995 4.28881 -3.1932 0
M  V30 1382 H 140.338 3.87065 -1.53253 0
M  V30 1383 H 140.871 2.78574 -2.83974 0
M  V30 1384 H 137.61 2.99668 -5.82992 0
M  V30 1385 H 137.13 4.01683 -4.45433 0
M  V30 1386 H 138.809 4.04712 -5.04794 0
M  V30 1387 N 138.941 1.26152 0.944643 0
M  V30 1388 C 140.19 1.10883 1.68487 0
M  V30 1389 C 140.503 -0.348153 1.92477 0
M  V30 1390 O 141.709 -0.621459 2.64292 0
M  V30 1391 C 140.165 1.93624 3.03377 0
M  V30 1392 C 139.773 3.43875 2.87148 0
M  V30 1393 C 141.517 1.86954 3.81115 0
M  V30 1394 C 139.424 4.18875 4.1749 0
M  V30 1395 H 138.354 0.41135 0.631907 0
M  V30 1396 H 141.005 1.50433 1.05082 0
M  V30 1397 H 139.387 1.46904 3.67743 0
M  V30 1398 H 140.561 3.98338 2.31653 0
M  V30 1399 H 138.876 3.51744 2.22856 0
M  V30 1400 H 141.473 2.40275 4.77673 0
M  V30 1401 H 141.816 0.839518 4.07747 0
M  V30 1402 H 142.349 2.31477 3.23517 0
M  V30 1403 H 139.088 5.22332 3.96043 0
M  V30 1404 H 138.608 3.69193 4.72712 0
M  V30 1405 H 140.287 4.27134 4.85968 0
M  V30 1406 N 140.419 -1.14872 1.07899 0
M  V30 1407 C 141.83 -1.67367 0.827363 0
M  V30 1408 C 142.181 -1.85236 -0.646693 0
M  V30 1409 O 141.306 -1.55974 -1.50004 0
M  V30 1410 C 141.901 -3.04016 1.49532 0
M  V30 1411 C 140.46 -3.53566 1.29106 0
M  V30 1412 C 139.607 -2.29161 1.56143 0
M  V30 1413 H 142.558 -0.990083 1.24028 0
M  V30 1414 H 142.579 -3.69219 0.919643 0
M  V30 1415 H 142.091 -2.90978 2.56814 0
M  V30 1416 H 140.192 -3.71835 0.238713 0
M  V30 1417 H 140.305 -4.34661 2.01511 0
M  V30 1418 H 138.669 -2.34978 0.982717 0
M  V30 1419 H 139.452 -2.18705 2.64619 0
M  V30 1420 N 141.898 -0.863906 -1.31812 0
M  V30 1421 C 142.808 -0.318461 -2.32428 0
M  V30 1422 C 143.824 0.568496 -1.64451 0
M  V30 1423 O 145 0.46666 -1.95919 0
M  V30 1424 C 142.065 0.476355 -3.43412 0
M  V30 1425 C 141.126 -0.43784 -4.27061 0
M  V30 1426 C 140.359 0.319138 -5.32745 0
M  V30 1427 O 140.582 1.54799 -5.48993 0
M  V30 1428 O 139.516 -0.319861 -6.01049 0
M  V30 1429 H 143.342 -1.15229 -2.80991 0
M  V30 1430 H 140.927 -0.627103 -1.35602 0
M  V30 1431 H 142.809 0.927156 -4.11074 0
M  V30 1432 H 141.484 1.28683 -2.97022 0
M  V30 1433 H 140.391 -0.937013 -3.62175 0
M  V30 1434 H 141.724 -1.21375 -4.77 0
M  V30 1435 N 143.376 1.44774 -0.622745 0
M  V30 1436 C 144.308 2.28856 0.125485 0
M  V30 1437 C 145.321 1.40811 0.817069 0
M  V30 1438 O 146.51 1.65044 0.679918 0
M  V30 1439 C 143.61 3.16963 1.19949 0
M  V30 1440 C 142.783 4.33374 0.592064 0
M  V30 1441 C 141.842 5.02577 1.55893 0
M  V30 1442 O 140.868 5.58873 1.07933 0
M  V30 1443 N 142.07 5.03256 2.89334 0
M  V30 1444 H 144.835 2.93713 -0.596068 0
M  V30 1445 H 142.396 1.55129 -0.463303 0
M  V30 1446 H 144.388 3.60123 1.84644 0
M  V30 1447 H 142.958 2.53913 1.82337 0
M  V30 1448 H 142.178 3.93509 -0.233322 0
M  V30 1449 H 143.466 5.08527 0.166738 0
M  V30 1450 H 142.864 4.58836 3.30887 0
M  V30 1451 H 141.421 5.50232 3.49412 0
M  V30 1452 N 144.854 0.36279 1.53368 0
M  V30 1453 C 146.1 -0.228113 2.01513 0
M  V30 1454 C 146.433 -1.48648 1.2497 0
M  V30 1455 O 145.708 -1.91459 0.342616 0
M  V30 1456 C 145.991 -0.522884 3.56284 0
M  V30 1457 C 145.844 0.74892 4.43521 0
M  V30 1458 C 147.163 -1.32461 4.19693 0
M  V30 1459 H 144.282 -0.0814343 0.732487 0
M  V30 1460 H 146.924 0.48713 1.83649 0
M  V30 1461 H 145.074 -1.1322 3.71636 0
M  V30 1462 H 146.746 1.38648 4.39971 0
M  V30 1463 H 144.989 1.36986 4.11603 0
M  V30 1464 H 145.66 0.497667 5.49752 0
M  V30 1465 H 148.136 -0.809203 4.08156 0
M  V30 1466 H 147.012 -1.49961 5.28018 0
M  V30 1467 H 147.273 -2.33232 3.75573 0
M  V30 1468 N 146.332 -1.57332 0.0918853 0
M  V30 1469 C 147.262 -2.16872 -0.865371 0
M  V30 1470 C 148.243 -1.10118 -1.29646 0
M  V30 1471 O 149.428 -1.38242 -1.36392 0
M  V30 1472 C 146.558 -2.74649 -2.12569 0
M  V30 1473 C 145.512 -3.86747 -1.83333 0
M  V30 1474 C 144.838 -4.31212 -3.16166 0
M  V30 1475 C 146.138 -5.10089 -1.1228 0
M  V30 1476 H 147.832 -2.97114 -0.369307 0
M  V30 1477 H 145.378 -1.42918 -0.176194 0
M  V30 1478 H 147.331 -3.14952 -2.7997 0
M  V30 1479 H 146.055 -1.91657 -2.64452 0
M  V30 1480 H 144.714 -3.46978 -1.18331 0
M  V30 1481 H 144.362 -3.45115 -3.6593 0
M  V30 1482 H 144.062 -5.06788 -2.97388 0
M  V30 1483 H 145.586 -4.74146 -3.84731 0
M  V30 1484 H 147 -5.47582 -1.69785 0
M  V30 1485 H 145.397 -5.91073 -1.03693 0
M  V30 1486 H 146.467 -4.84786 -0.105041 0
M  V30 1487 N 147.81 0.181792 -1.56548 0
M  V30 1488 C 149.087 0.926765 -1.72251 0
M  V30 1489 C 149.467 2.00831 -0.650386 0
M  V30 1490 O 148.815 2.26008 0.336521 0
M  V30 1491 C 149.025 1.50106 -3.1507 0
M  V30 1492 C 150.373 1.97805 -3.75711 0
M  V30 1493 O 151.397 1.59922 -3.18282 0
M  V30 1494 O 150.256 2.67555 -4.76525 0
M  V30 1495 H 147.35 0.435506 -0.703039 0
M  V30 1496 H 149.896 0.170443 -1.68842 0
M  V30 1497 H 148.668 0.72212 -3.84579 0
M  V30 1498 H 148.291 2.32186 -3.22763 0
M  V30 1499 N 149.288 1.51039 0.449983 0
M  V30 1500 C 150.513 1.6715 1.22783 0
M  V30 1501 C 150.938 0.363081 1.84563 0
M  V30 1502 O 150.296 -0.675433 1.68249 0
M  V30 1503 C 150.344 2.77985 2.29689 0
M  V30 1504 O 149.448 2.40707 3.34864 0
M  V30 1505 H 148.789 0.557746 0.360299 0
M  V30 1506 H 151.319 1.97535 0.533005 0
M  V30 1507 H 151.329 3.01693 2.74673 0
M  V30 1508 H 150.004 3.72935 1.84098 0
M  V30 1509 H 148.581 2.27523 2.95445 0
M  V30 1510 N 150.766 -0.704594 1.40972 0
M  V30 1511 C 152.043 -1.45847 1.30338 0
M  V30 1512 C 152.423 -2.10973 -0.0732344 0
M  V30 1513 O 151.771 -2.00997 -1.08685 0
M  V30 1514 C 151.981 -2.48525 2.45023 0
M  V30 1515 C 153.329 -3.1404 2.8577 0
M  V30 1516 O 154.353 -2.58848 2.44696 0
M  V30 1517 O 153.212 -4.13981 3.56766 0
M  V30 1518 H 150.306 -0.649092 0.512454 0
M  V30 1519 H 152.852 -0.735836 1.52917 0
M  V30 1520 H 151.624 -1.98994 3.36923 0
M  V30 1521 H 151.247 -3.2831 2.24272 0
M  V30 1522 N 152.244 -1.26651 -0.937939 0
M  V30 1523 C 153.49 -1.12553 -1.687 0
M  V30 1524 C 153.823 0.329782 -1.91379 0
M  V30 1525 O 153.098 1.24202 -1.4968 0
M  V30 1526 C 153.381 -1.89862 -3.05981 0
M  V30 1527 C 153.234 -3.43318 -2.90607 0
M  V30 1528 C 154.553 -1.69499 -4.0615 0
M  V30 1529 H 151.672 -0.410257 -0.612257 0
M  V30 1530 H 154.314 -1.55685 -1.08913 0
M  V30 1531 H 152.464 -1.53204 -3.57017 0
M  V30 1532 H 154.136 -3.89747 -2.46769 0
M  V30 1533 H 152.379 -3.70179 -2.26164 0
M  V30 1534 H 153.05 -3.92642 -3.8799 0
M  V30 1535 H 155.526 -2.01442 -3.64088 0
M  V30 1536 H 154.402 -2.26002 -5.00214 0
M  V30 1537 H 154.663 -0.640365 -4.37438 0
M  V30 1538 N 153.722 1.14298 -1.08507 0
M  V30 1539 C 154.95 1.89219 -0.836876 0
M  V30 1540 C 155.365 1.78638 0.611054 0
M  V30 1541 O 154.722 1.14643 1.41998 0
M  V30 1542 C 154.773 3.39158 -1.25116 0
M  V30 1543 O 154.494 3.49449 -2.64229 0
M  V30 1544 C 155.995 4.31073 -1.03398 0
M  V30 1545 H 153.215 0.599328 -0.301739 0
M  V30 1546 H 155.759 1.44746 -1.44461 0
M  V30 1547 H 153.914 3.81251 -0.687514 0
M  V30 1548 H 154.328 4.42589 -2.81452 0
M  V30 1549 H 155.802 5.34646 -1.37323 0
M  V30 1550 H 156.279 4.3919 0.0289259 0
M  V30 1551 H 156.885 3.94738 -1.58311 0
M  V30 1552 N 155.201 0.870884 1.31352 0
M  V30 1553 C 156.111 0.330783 2.32256 0
M  V30 1554 C 157.127 -0.559767 1.6475 0
M  V30 1555 O 158.303 -0.456263 1.96164 0
M  V30 1556 C 155.368 -0.458137 3.4366 0
M  V30 1557 C 154.429 0.460482 4.26823 0
M  V30 1558 C 153.662 -0.290881 5.32907 0
M  V30 1559 O 153.885 -1.51885 5.49806 0
M  V30 1560 O 152.819 0.351732 6.00871 0
M  V30 1561 H 156.645 1.16718 2.80376 0
M  V30 1562 H 154.23 0.634285 1.35267 0
M  V30 1563 H 156.112 -0.905343 4.1156 0
M  V30 1564 H 154.787 -1.27106 2.97701 0
M  V30 1565 H 153.694 0.956207 3.61673 0
M  V30 1566 H 155.027 1.23903 4.7635 0
M  V30 1567 N 156.679 -1.44442 0.630414 0
M  V30 1568 C 157.589 -2.34476 -0.0761693 0
M  V30 1569 C 158.605 -1.52576 -0.836449 0
M  V30 1570 O 159.781 -1.85307 -0.788874 0
M  V30 1571 C 156.846 -3.30545 -1.04599 0
M  V30 1572 C 155.907 -4.28352 -0.28516 0
M  V30 1573 C 155.14 -5.19831 -1.20878 0
M  V30 1574 O 155.363 -5.15223 -2.44747 0
M  V30 1575 O 154.297 -5.97892 -0.693491 0
M  V30 1576 H 158.123 -2.96345 0.664324 0
M  V30 1577 H 155.708 -1.44203 0.39061 0
M  V30 1578 H 157.59 -3.89681 -1.60396 0
M  V30 1579 H 156.265 -2.7121 -1.76711 0
M  V30 1580 H 155.172 -3.72764 0.315837 0
M  V30 1581 H 156.505 -4.90605 0.395924 0
M  V30 1582 N 158.157 -0.370918 -1.53173 0
M  V30 1583 C 159.403 0.217423 -2.01631 0
M  V30 1584 C 159.736 1.47983 -1.25756 0
M  V30 1585 O 159.011 1.91274 -0.352764 0
M  V30 1586 C 159.294 0.503982 -3.56556 0
M  V30 1587 C 159.147 -0.77243 -4.43118 0
M  V30 1588 C 160.466 1.30234 -4.20389 0
M  V30 1589 H 157.585 0.0775486 -0.732909 0
M  V30 1590 H 160.227 -0.496863 -1.83388 0
M  V30 1591 H 158.377 1.11248 -3.72231 0
M  V30 1592 H 160.049 -1.4098 -4.39229 0
M  V30 1593 H 158.292 -1.39167 -4.10871 0
M  V30 1594 H 158.963 -0.526815 -5.4948 0
M  V30 1595 H 161.439 0.787546 -4.08579 0
M  V30 1596 H 160.315 1.47158 -5.28806 0
M  V30 1597 H 160.576 2.31237 -3.76805 0
M  V30 1598 N 159.635 1.57281 -0.100228 0
M  V30 1599 C 160.86 1.99302 0.573881 0
M  V30 1600 C 161.285 0.979059 1.60611 0
M  V30 1601 O 160.643 -0.0517803 1.81226 0
M  V30 1602 C 160.691 3.40274 1.19358 0
M  V30 1603 O 159.795 3.41676 2.30935 0
M  V30 1604 H 159.136 0.647944 0.145138 0
M  V30 1605 H 161.666 2.03779 -0.183156 0
M  V30 1606 H 161.676 3.78078 1.53365 0
M  V30 1607 H 160.351 4.13594 0.437385 0
M  V30 1608 H 158.928 3.15672 1.98509 0
M  V30 1609 N 161.113 -0.173488 1.56642 0
M  V30 1610 C 162.043 -1.2171 1.99271 0
M  V30 1611 C 163.024 -1.46289 0.867959 0
M  V30 1612 O 164.209 -1.5766 1.13388 0
M  V30 1613 C 161.339 -2.55651 2.35074 0
M  V30 1614 C 160.293 -2.45645 3.50489 0
M  V30 1615 C 159.619 -3.84056 3.72028 0
M  V30 1616 C 160.919 -1.96302 4.84007 0
M  V30 1617 H 162.613 -0.86275 2.867 0
M  V30 1618 H 160.159 -0.413571 1.37933 0
M  V30 1619 H 162.112 -3.2886 2.63494 0
M  V30 1620 H 160.836 -2.92869 1.44552 0
M  V30 1621 H 159.495 -1.7489 3.22194 0
M  V30 1622 H 159.143 -4.18664 2.788 0
M  V30 1623 H 158.843 -3.7823 4.49684 0
M  V30 1624 H 160.367 -4.58854 4.02846 0
M  V30 1625 H 161.781 -2.59284 5.11317 0
M  V30 1626 H 160.178 -2.01429 5.65284 0
M  V30 1627 H 161.248 -0.917226 4.76146 0
M  V30 1628 N 162.591 -1.51276 -0.441967 0
M  V30 1629 C 164.002 -1.56244 -1.02199 0
M  V30 1630 C 164.353 -0.383149 -1.92422 0
M  V30 1631 O 163.478 0.500613 -2.1053 0
M  V30 1632 C 164.073 -2.83162 -1.86024 0
M  V30 1633 C 162.632 -2.90716 -2.39084 0
M  V30 1634 C 161.779 -2.50858 -1.18175 0
M  V30 1635 H 164.73 -1.5712 -0.223416 0
M  V30 1636 H 164.751 -2.66663 -2.71425 0
M  V30 1637 H 164.263 -3.68974 -1.20331 0
M  V30 1638 H 162.364 -2.09323 -3.08244 0
M  V30 1639 H 162.477 -3.94266 -2.72198 0
M  V30 1640 H 160.841 -2.03951 -1.52565 0
M  V30 1641 H 161.624 -3.3901 -0.541001 0
M  V30 1642 N 164.069 0.697108 -1.41344 0
M  V30 1643 C 165.019 1.80313 -1.39539 0
M  V30 1644 C 166.003 1.58618 -0.270001 0
M  V30 1645 O 167.195 1.69477 -0.510551 0
M  V30 1646 C 164.324 3.18606 -1.27848 0
M  V30 1647 C 163.41 3.46001 -2.45244 0
M  V30 1648 N 163.801 3.44103 -3.70711 0
M  V30 1649 C 162.099 3.76542 -2.39023 0
M  V30 1650 C 162.8 3.7036 -4.48563 0
M  V30 1651 N 161.776 3.90027 -3.78655 0
M  V30 1652 H 165.578 1.77207 -2.34468 0
M  V30 1653 H 163.092 0.897031 -1.35378 0
M  V30 1654 H 165.089 3.97833 -1.24637 0
M  V30 1655 H 163.749 3.22925 -0.339032 0
M  V30 1656 H 164.76 3.2452 -4.03618 0
M  V30 1657 H 161.437 3.88241 -1.53542 0
M  V30 1658 H 162.827 3.75042 -5.57488 0
M  V30 1659 N 165.547 1.27147 0.931209 0
M  V30 1660 C 166.787 1.14511 1.69312 0
M  V30 1661 C 167.151 -0.304638 1.89568 0
M  V30 1662 O 168.352 -0.553343 2.63043 0
M  V30 1663 C 166.623 1.90349 3.02493 0
M  V30 1664 S 168.182 1.93884 3.93642 0
M  V30 1665 H 165 0.408858 0.581684 0
M  V30 1666 H 167.602 1.61006 1.10893 0
M  V30 1667 H 166.306 2.94877 2.85439 0
M  V30 1668 H 165.837 1.44333 3.65966 0
M  V30 1669 H 167.852 1.03273 4.85334 0
M  V30 1670 N 167.025 -1.13721 1.09112 0
M  V30 1671 C 168.253 -1.88773 0.846899 0
M  V30 1672 C 168.668 -1.7896 -0.601572 0
M  V30 1673 O 168.025 -1.15394 -1.41388 0
M  V30 1674 C 168.076 -3.3849 1.26913 0
M  V30 1675 O 167.797 -3.48043 2.66079 0
M  V30 1676 C 169.298 -4.30518 1.05682 0
M  V30 1677 H 166.518 -0.59772 0.304914 0
M  V30 1678 H 169.062 -1.43977 1.45227 0
M  V30 1679 H 167.217 -3.80881 0.707723 0
M  V30 1680 H 167.631 -4.4109 2.83795 0
M  V30 1681 H 169.105 -5.3391 1.40156 0
M  V30 1682 H 169.582 -4.392 -0.00563416 0
M  V30 1683 H 170.188 -3.93893 1.60402 0
M  V30 1684 N 168.503 -0.877838 -1.30888 0
M  V30 1685 C 169.749 -0.493426 -1.96706 0
M  V30 1686 C 170.082 0.953504 -1.6918 0
M  V30 1687 O 169.357 1.67266 -0.992594 0
M  V30 1688 C 169.64 -0.760429 -3.51979 0
M  V30 1689 C 169.493 -2.25747 -3.89048 0
M  V30 1690 C 170.812 -0.232148 -4.39487 0
M  V30 1691 H 167.931 -0.180746 -0.714493 0
M  V30 1692 H 170.573 -1.10052 -1.54882 0
M  V30 1693 H 168.723 -0.243715 -3.87735 0
M  V30 1694 H 170.395 -2.84204 -3.63354 0
M  V30 1695 H 168.638 -2.72694 -3.37373 0
M  V30 1696 H 169.309 -2.39491 -4.97341 0
M  V30 1697 H 171.785 -0.674314 -4.106 0
M  V30 1698 H 170.661 -0.448355 -5.47066 0
M  V30 1699 H 170.922 0.866297 -4.33529 0
M  V30 1700 N 169.982 1.44106 -0.638065 0
M  V30 1701 C 171.393 1.85316 -0.226894 0
M  V30 1702 C 171.744 1.53399 1.22324 0
M  V30 1703 O 170.869 0.975463 1.93167 0
M  V30 1704 C 171.464 3.3637 -0.405013 0
M  V30 1705 C 170.023 3.76369 -0.0482902 0
M  V30 1706 C 169.17 2.67921 -0.715108 0
M  V30 1707 H 172.121 1.34474 -0.842764 0
M  V30 1708 H 172.142 3.7885 0.354 0
M  V30 1709 H 171.654 3.59569 -1.46053 0
M  V30 1710 H 169.755 3.58784 1.00522 0
M  V30 1711 H 169.868 4.76856 -0.463187 0
M  V30 1712 H 168.232 2.54259 -0.149753 0
M  V30 1713 H 169.015 2.93951 -1.77335 0
M  V30 1714 N 171.46 0.379036 1.52974 0
M  V30 1715 C 172.737 -0.263479 1.93817 0
M  V30 1716 C 173.117 -1.65244 1.31368 0
M  V30 1717 O 172.465 -2.23448 0.477856 0
M  V30 1718 C 172.675 -0.300166 3.47707 0
M  V30 1719 C 174.023 -0.534061 4.21228 0
M  V30 1720 O 175.047 -0.38081 3.54159 0
M  V30 1721 O 173.906 -0.833501 5.40106 0
M  V30 1722 H 171 -0.161149 0.811147 0
M  V30 1723 H 173.546 0.432798 1.64088 0
M  V30 1724 H 172.318 0.673138 3.85467 0
M  V30 1725 H 171.941 -1.04179 3.83709 0
M  V30 1726 N 172.938 -1.57226 0.108567 0
M  V30 1727 C 174.215 -1.86333 -0.594939 0
M  V30 1728 C 174.595 -1.00788 -1.85486 0
M  V30 1729 O 173.943 -0.0839293 -2.28346 0
M  V30 1730 C 174.153 -3.37265 -0.897405 0
M  V30 1731 C 175.501 -4.05629 -1.25501 0
M  V30 1732 O 176.525 -3.42224 -0.987998 0
M  V30 1733 O 175.384 -5.17531 -1.75567 0
M  V30 1734 H 172.478 -0.771018 -0.2991 0
M  V30 1735 H 175.024 -1.69102 0.142283 0
M  V30 1736 H 173.796 -3.913 -0.00413806 0
M  V30 1737 H 173.419 -3.59889 -1.69014 0
M  V30 1738 N 174.416 0.165178 -1.56732 0
M  V30 1739 C 175.662 0.882112 -1.82611 0
M  V30 1740 C 175.995 1.81628 -0.687378 0
M  V30 1741 O 175.27 1.92009 0.310267 0
M  V30 1742 C 175.553 1.67245 -3.18906 0
M  V30 1743 C 175.406 0.760987 -4.43316 0
M  V30 1744 C 176.725 2.63884 -3.52212 0
M  V30 1745 H 173.844 0.319242 -0.664269 0
M  V30 1746 H 176.486 0.148052 -1.89422 0
M  V30 1747 H 174.636 2.29824 -3.1323 0
M  V30 1748 H 176.308 0.147596 -4.61064 0
M  V30 1749 H 174.551 0.0694102 -4.33744 0
M  V30 1750 H 175.222 1.34962 -5.35247 0
M  V30 1751 H 177.698 2.11429 -3.58381 0
M  V30 1752 H 176.574 3.16245 -4.48643 0
M  V30 1753 H 176.835 3.44377 -2.77231 0
M  V30 1754 N 175.894 1.51508 0.433938 0
M  V30 1755 C 176.824 1.76016 1.53429 0
M  V30 1756 C 177.805 0.610112 1.58782 0
M  V30 1757 O 178.99 0.853177 1.74455 0
M  V30 1758 C 176.12 1.88831 2.9148 0
M  V30 1759 C 175.074 3.04288 3.00987 0
M  V30 1760 C 174.4 3.0229 4.4105 0
M  V30 1761 C 175.7 4.44193 2.74754 0
M  V30 1762 H 177.394 2.68152 1.33171 0
M  V30 1763 H 174.94 1.29035 0.639214 0
M  V30 1764 H 176.893 2.04559 3.6842 0
M  V30 1765 H 175.617 0.933455 3.12976 0
M  V30 1766 H 174.276 2.8827 2.26486 0
M  V30 1767 H 173.924 2.04576 4.59519 0
M  V30 1768 H 173.624 3.79822 4.4834 0
M  V30 1769 H 175.148 3.20116 5.1996 0
M  V30 1770 H 176.562 4.60544 3.41426 0
M  V30 1771 H 174.959 5.23457 2.9345 0
M  V30 1772 H 176.029 4.53996 1.70339 0
M  V30 1773 N 177.372 -0.689602 1.41712 0
M  V30 1774 C 178.335 -1.78521 1.43746 0
M  V30 1775 C 179.335 -1.57436 0.327191 0
M  V30 1776 O 180.525 -1.64 0.587348 0
M  V30 1777 C 177.657 -3.16971 1.25467 0
M  V30 1778 H 178.85 -1.78108 2.41283 0
M  V30 1779 H 176.403 -0.89781 1.27942 0
M  V30 1780 H 177.138 -3.23019 0.287948 0
M  V30 1781 H 176.923 -3.33678 2.05917 0
M  V30 1782 H 178.413 -3.96935 1.2974 0
M  V30 1783 N 178.85 -1.27639 -0.924453 0
M  V30 1784 C 180.075 -1.17101 -1.71179 0
M  V30 1785 C 180.5 0.268134 -1.86179 0
M  V30 1786 O 179.858 1.19415 -1.36418 0
M  V30 1787 C 179.906 -1.86313 -3.08739 0
M  V30 1788 O 179.01 -1.16331 -3.95652 0
M  V30 1789 H 178.351 -0.407091 -0.524569 0
M  V30 1790 H 180.881 -1.68767 -1.15666 0
M  V30 1791 H 180.891 -1.938 -3.59034 0
M  V30 1792 H 179.566 -2.91001 -2.97138 0
M  V30 1793 H 178.143 -1.16935 -3.54091 0
M  V30 1794 N 180.328 1.1314 -1.09713 0
M  V30 1795 C 181.605 1.80762 -0.747302 0
M  V30 1796 C 181.985 1.96663 0.767265 0
M  V30 1797 O 181.333 1.53706 1.69076 0
M  V30 1798 C 181.543 3.15606 -1.48975 0
M  V30 1799 C 182.891 3.90914 -1.65746 0
M  V30 1800 O 183.915 3.25239 -1.45251 0
M  V30 1801 O 182.774 5.08718 -1.9967 0
M  V30 1802 H 179.868 0.782103 -0.268782 0
M  V30 1803 H 182.414 1.20041 -1.19951 0
M  V30 1804 H 181.186 2.99278 -2.52088 0
M  V30 1805 H 180.809 3.84029 -1.02991 0
M  V30 1806 N 181.806 0.884767 1.30421 0
M  V30 1807 C 183.055 0.499164 1.95426 0
M  V30 1808 C 183.368 -0.95645 1.70621 0
M  V30 1809 O 184.574 -1.44889 2.29607 0
M  V30 1810 C 183.03 0.84177 3.49917 0
M  V30 1811 C 182.638 2.31514 3.83543 0
M  V30 1812 C 184.382 0.525355 4.21237 0
M  V30 1813 C 182.289 2.59939 5.31212 0
M  V30 1814 H 181.219 0.182944 0.73147 0
M  V30 1815 H 183.87 1.07971 1.48373 0
M  V30 1816 H 182.252 0.190311 3.95542 0
M  V30 1817 H 183.426 3.0109 3.48829 0
M  V30 1818 H 181.741 2.59907 3.25326 0
M  V30 1819 H 184.338 0.714762 5.29901 0
M  V30 1820 H 184.681 -0.535222 4.12845 0
M  V30 1821 H 185.214 1.134 3.81294 0
M  V30 1822 H 181.953 3.64736 5.44654 0
M  V30 1823 H 181.473 1.94972 5.67227 0
M  V30 1824 H 183.152 2.45429 5.98643 0
M  V30 1825 N 183.284 -1.43765 0.645699 0
M  V30 1826 C 184.512 -2.06253 0.163556 0
M  V30 1827 C 184.927 -1.48352 -1.16778 0
M  V30 1828 O 184.284 -0.611932 -1.71935 0
M  V30 1829 C 184.335 -3.61453 0.0583186 0
M  V30 1830 O 184.056 -4.172 1.33702 0
M  V30 1831 C 185.557 -4.41002 -0.450795 0
M  V30 1832 H 182.777 -0.665413 0.0864077 0
M  V30 1833 H 185.321 -1.84396 0.884222 0
M  V30 1834 H 183.476 -3.82522 -0.612865 0
M  V30 1835 H 183.89 -5.10791 1.19131 0
M  V30 1836 H 185.364 -5.49966 -0.473403 0
M  V30 1837 H 185.841 -4.13488 -1.48068 0
M  V30 1838 H 186.447 -4.24886 0.187637 0
M  V30 1839 N 184.763 -0.387143 -1.52771 0
M  V30 1840 C 185.988 0.198407 -2.06449 0
M  V30 1841 C 186.413 1.39918 -1.25716 0
M  V30 1842 O 185.771 1.79099 -0.281657 0
M  V30 1843 C 185.819 0.548893 -3.56398 0
M  V30 1844 O 184.923 1.64315 -3.78252 0
M  V30 1845 H 184.264 0.0237731 -0.663574 0
M  V30 1846 H 186.794 -0.553989 -1.96957 0
M  V30 1847 H 186.804 0.813812 -3.99801 0
M  V30 1848 H 185.479 -0.329005 -4.14597 0
M  V30 1849 H 184.056 1.37211 -3.46738 0
M  V30 1850 N 186.241 1.57166 -0.116904 0
M  V30 1851 C 187.469 1.99473 0.549383 0
M  V30 1852 C 187.884 0.996541 1.60357 0
M  V30 1853 O 187.241 -0.0108731 1.82497 0
M  V30 1854 C 187.292 3.41788 1.17741 0
M  V30 1855 O 187.013 4.37788 0.165362 0
M  V30 1856 C 188.514 3.99216 1.92722 0
M  V30 1857 H 185.734 0.655009 0.145616 0
M  V30 1858 H 188.278 2.03494 -0.202625 0
M  V30 1859 H 186.433 3.38713 1.88021 0
M  V30 1860 H 186.847 5.20806 0.621403 0
M  V30 1861 H 188.321 5.00882 2.31995 0
M  V30 1862 H 188.798 3.3824 2.80161 0
M  V30 1863 H 189.404 4.0583 1.27209 0
M  V30 1864 N 187.719 -0.156864 1.56817 0
M  V30 1865 C 188.944 -0.890331 1.87318 0
M  V30 1866 C 189.369 -1.74394 0.704855 0
M  V30 1867 O 188.727 -1.77972 -0.345786 0
M  V30 1868 C 188.775 -1.73102 3.16336 0
M  V30 1869 O 187.879 -2.83422 2.99576 0
M  V30 1870 H 187.22 -0.24857 0.615718 0
M  V30 1871 H 189.75 -0.150649 2.04045 0
M  V30 1872 H 189.76 -2.12803 3.48107 0
M  V30 1873 H 188.435 -1.10412 4.00976 0
M  V30 1874 H 187.012 -2.47199 2.7919 0
M  V30 1875 N 189.197 -1.51736 -0.425897 0
M  V30 1876 C 190.13 -1.68574 -1.53812 0
M  V30 1877 C 191.108 -0.53328 -1.53606 0
M  V30 1878 O 192.292 -0.758555 -1.72564 0
M  V30 1879 C 189.419 -1.70977 -2.92377 0
M  V30 1880 C 188.465 -2.92324 -3.10563 0
M  V30 1881 S 189.298 -4.52952 -2.85648 0
M  V30 1882 C 190.454 -4.58117 -4.26474 0
M  V30 1883 H 190.687 -2.62647 -1.39298 0
M  V30 1884 H 188.22 -1.41564 -0.616361 0
M  V30 1885 H 190.178 -1.73047 -3.72243 0
M  V30 1886 H 188.839 -0.78061 -3.04245 0
M  V30 1887 H 188.032 -2.90439 -4.11899 0
M  V30 1888 H 187.634 -2.88055 -2.38538 0
M  V30 1889 H 189.926 -4.34462 -5.19855 0
M  V30 1890 H 190.869 -5.59983 -4.33388 0
M  V30 1891 H 191.277 -3.8732 -4.10662 0
M  V30 1892 N 190.675 0.682077 -1.42076 0
M  V30 1893 C 191.9 1.47558 -1.45744 0
M  V30 1894 C 192.325 1.87977 -0.0680981 0
M  V30 1895 O 191.683 1.55522 0.9318 0
M  V30 1896 C 191.731 2.70575 -2.38373 0
M  V30 1897 O 190.835 3.68573 -1.85007 0
M  V30 1898 H 190.176 0.443585 -0.494093 0
M  V30 1899 H 192.706 0.837238 -1.86686 0
M  V30 1900 H 192.716 3.18729 -2.54707 0
M  V30 1901 H 191.391 2.40495 -3.39315 0
M  V30 1902 H 189.968 3.2757 -1.78192 0
M  V30 1903 N 192.153 1.28127 0.917671 0
M  V30 1904 C 193.086 1.06039 2.02067 0
M  V30 1905 C 194.064 -0.0223285 1.62585 0
M  V30 1906 O 195.248 0.124823 1.88086 0
M  V30 1907 C 192.375 0.610596 3.33151 0
M  V30 1908 C 191.421 1.68937 3.91615 0
M  V30 1909 S 192.254 3.28437 4.22953 0
M  V30 1910 C 193.41 2.85283 5.57103 0
M  V30 1911 H 193.643 1.99425 2.20493 0
M  V30 1912 H 191.176 1.12071 1.06205 0
M  V30 1913 H 193.134 0.357778 4.08938 0
M  V30 1914 H 191.795 -0.303364 3.12632 0
M  V30 1915 H 190.988 1.32619 4.86239 0
M  V30 1916 H 190.59 1.89478 3.2245 0
M  V30 1917 H 192.882 2.3121 6.36827 0
M  V30 1918 H 193.825 3.7869 5.98331 0
M  V30 1919 H 194.233 2.24118 5.18104 0
M  V30 1920 N 193.631 -1.12557 1.10312 0
M  V30 1921 C 195.042 -1.65574 0.862678 0
M  V30 1922 C 195.393 -1.86566 -0.607256 0
M  V30 1923 O 194.518 -1.59121 -1.46662 0
M  V30 1924 C 195.113 -3.00776 1.55947 0
M  V30 1925 C 193.672 -3.50748 1.36576 0
M  V30 1926 C 192.819 -2.25797 1.60968 0
M  V30 1927 H 195.77 -0.963552 1.26101 0
M  V30 1928 H 195.791 -3.67185 0.997753 0
M  V30 1929 H 195.303 -2.85465 2.62928 0
M  V30 1930 H 193.404 -3.71245 0.317531 0
M  V30 1931 H 193.517 -4.30289 2.10686 0
M  V30 1932 H 191.881 -2.32841 1.03234 0
M  V30 1933 H 192.664 -2.13043 2.69198 0
M  V30 1934 N 195.109 -0.891671 -1.2995 0
M  V30 1935 C 196.019 -0.367691 -2.31701 0
M  V30 1936 C 197.035 0.533486 -1.6562 0
M  V30 1937 O 198.211 0.424997 -1.96865 0
M  V30 1938 C 195.276 0.403406 -3.44345 0
M  V30 1939 C 194.337 -0.528328 -4.26037 0
M  V30 1940 C 193.57 0.206063 -5.33302 0
M  V30 1941 O 193.793 1.43119 -5.52153 0
M  V30 1942 O 192.727 -0.447281 -6.00236 0
M  V30 1943 H 196.553 -1.21163 -2.78484 0
M  V30 1944 H 194.138 -0.655725 -1.34241 0
M  V30 1945 H 196.02 0.839753 -4.12948 0
M  V30 1946 H 194.695 1.22354 -2.99685 0
M  V30 1947 H 193.602 -1.01362 -3.60106 0
M  V30 1948 H 194.935 -1.31465 -4.74318 0
M  V30 1949 N 196.587 1.43421 -0.653314 0
M  V30 1950 C 197.537 2.2792 0.060558 0
M  V30 1951 C 198.521 1.39906 0.794677 0
M  V30 1952 O 199.713 1.63536 0.677128 0
M  V30 1953 C 196.842 3.27603 1.0262 0
M  V30 1954 C 195.928 4.23104 0.290551 0
M  V30 1955 N 196.319 5.01031 -0.692967 0
M  V30 1956 C 194.617 4.42816 0.531984 0
M  V30 1957 C 195.318 5.70626 -1.12963 0
M  V30 1958 N 194.294 5.41617 -0.463867 0
M  V30 1959 H 198.096 2.85585 -0.694143 0
M  V30 1960 H 195.61 1.55126 -0.480602 0
M  V30 1961 H 197.607 3.86918 1.55242 0
M  V30 1962 H 196.267 2.71499 1.78096 0
M  V30 1963 H 197.278 5.0669 -1.07169 0
M  V30 1964 H 193.955 3.97782 1.26791 0
M  V30 1965 H 195.345 6.4318 -1.94343 0
M  V30 1966 N 198.065 0.39524 1.52563 0
M  V30 1967 C 199.311 -0.185318 2.01952 0
M  V30 1968 C 199.644 -1.45964 1.28095 0
M  V30 1969 O 198.919 -1.90689 0.38315 0
M  V30 1970 C 199.202 -0.447193 3.57312 0
M  V30 1971 C 199.055 0.842828 4.41833 0
M  V30 1972 C 200.374 -1.23529 4.22408 0
M  V30 1973 H 197.493 -0.0658788 0.73405 0
M  V30 1974 H 200.135 0.525975 1.82575 0
M  V30 1975 H 198.285 -1.05312 3.73954 0
M  V30 1976 H 199.957 1.4795 4.36931 0
M  V30 1977 H 198.2 1.45686 4.08605 0
M  V30 1978 H 198.871 0.614165 5.48573 0
M  V30 1979 H 201.347 -0.722445 4.0978 0
M  V30 1980 H 200.223 -1.38727 5.3108 0
M  V30 1981 H 200.484 -2.25213 3.80436 0
M  V30 1982 N 199.544 -1.57102 0.125237 0
M  V30 1983 C 200.474 -2.18659 -0.819174 0
M  V30 1984 C 201.455 -1.12843 -1.27281 0
M  V30 1985 O 202.64 -1.41104 -1.33429 0
M  V30 1986 C 199.77 -2.79096 -2.06695 0
M  V30 1987 C 198.724 -3.90548 -1.75088 0
M  V30 1988 C 198.05 -4.37821 -3.06948 0
M  V30 1989 C 199.35 -5.12356 -1.01435 0
M  V30 1990 H 201.044 -2.9783 -0.306202 0
M  V30 1991 H 198.59 -1.4326 -0.145839 0
M  V30 1992 H 200.543 -3.2082 -2.73226 0
M  V30 1993 H 199.267 -1.97223 -2.60328 0
M  V30 1994 H 197.926 -3.49409 -1.10944 0
M  V30 1995 H 197.574 -3.52799 -3.58527 0
M  V30 1996 H 197.274 -5.12982 -2.86571 0
M  V30 1997 H 198.798 -4.822 -3.74587 0
M  V30 1998 H 200.212 -5.5106 -1.58132 0
M  V30 1999 H 198.609 -5.9314 -0.911319 0
M  V30 2000 H 199.679 -4.849 -0.00218681 0
M  V30 2001 N 201.022 0.148545 -1.56898 0
M  V30 2002 C 202.25 0.876389 -1.87422 0
M  V30 2003 C 202.665 1.74809 -0.713256 0
M  V30 2004 O 202.022 1.79725 0.317025 0
M  V30 2005 C 202.073 1.73438 -3.17178 0
M  V30 2006 O 201.794 0.897809 -4.28802 0
M  V30 2007 C 203.295 2.56993 -3.61205 0
M  V30 2008 H 200.515 0.253489 -0.621277 0
M  V30 2009 H 203.059 0.141798 -2.04008 0
M  V30 2010 H 201.214 2.42205 -3.0235 0
M  V30 2011 H 201.628 1.48672 -5.02988 0
M  V30 2012 H 203.102 3.12773 -4.54838 0
M  V30 2013 H 203.579 3.32958 -2.86419 0
M  V30 2014 H 204.185 1.9352 -3.78722 0
M  V30 2015 N 202.5 1.5196 0.417844 0
M  V30 2016 C 203.725 1.69717 1.1921 0
M  V30 2017 C 204.15 0.402148 1.83751 0
M  V30 2018 O 203.508 -0.639593 1.69643 0
M  V30 2019 C 203.556 2.82794 2.2374 0
M  V30 2020 O 202.66 2.47756 3.29683 0
M  V30 2021 H 202.001 0.565263 0.348387 0
M  V30 2022 H 204.531 1.98621 0.490985 0
M  V30 2023 H 204.541 3.07452 2.68212 0
M  V30 2024 H 203.216 3.76756 1.76146 0
M  V30 2025 H 201.793 2.33739 2.90552 0
M  V30 2026 N 203.978 -0.674533 1.42435 0
M  V30 2027 C 204.888 -1.81751 1.48337 0
M  V30 2028 C 205.904 -1.69975 0.372099 0
M  V30 2029 O 207.08 -1.91521 0.62304 0
M  V30 2030 C 204.145 -3.17895 1.38361 0
M  V30 2031 C 203.206 -3.41625 2.59982 0
M  V30 2032 C 202.439 -4.71274 2.50473 0
M  V30 2033 O 202.662 -5.49197 1.54075 0
M  V30 2034 O 201.596 -4.96254 3.4061 0
M  V30 2035 H 205.422 -1.79728 2.44809 0
M  V30 2036 H 203.007 -0.830312 1.24202 0
M  V30 2037 H 204.889 -3.99136 1.35161 0
M  V30 2038 H 203.564 -3.20555 0.450144 0
M  V30 2039 H 202.471 -2.60231 2.68757 0
M  V30 2040 H 203.804 -3.43796 3.52229 0
M  V30 2041 N 205.456 -1.28612 -0.910864 0
M  V30 2042 C 206.681 -1.1891 -1.69927 0
M  V30 2043 C 207.106 0.248372 -1.86453 0
M  V30 2044 O 206.464 1.17961 -1.37676 0
M  V30 2045 C 206.512 -1.89578 -3.06745 0
M  V30 2046 O 205.616 -1.20521 -3.94396 0
M  V30 2047 H 204.957 -0.412632 -0.520222 0
M  V30 2048 H 207.487 -1.69985 -1.1387 0
M  V30 2049 H 207.497 -1.97597 -3.56958 0
M  V30 2050 H 206.172 -2.94136 -2.94035 0
M  V30 2051 H 204.749 -1.20684 -3.52831 0
M  V30 2052 N 206.934 1.1197 -1.10907 0
M  V30 2053 C 207.867 2.16998 -0.706192 0
M  V30 2054 C 208.845 1.59903 0.294897 0
M  V30 2055 O 210.029 1.87513 0.192636 0
M  V30 2056 C 207.156 3.38673 -0.0427664 0
M  V30 2057 C 206.202 4.14414 -1.00811 0
M  V30 2058 S 207.035 4.72079 -2.52789 0
M  V30 2059 C 208.191 5.97083 -1.87731 0
M  V30 2060 H 208.424 2.50837 -1.59587 0
M  V30 2061 H 205.957 1.23508 -0.926555 0
M  V30 2062 H 207.915 4.09142 0.333668 0
M  V30 2063 H 206.576 3.03105 0.823788 0
M  V30 2064 H 205.769 5.016 -0.491259 0
M  V30 2065 H 205.371 3.49678 -1.3267 0
M  V30 2066 H 207.663 6.66599 -1.21044 0
M  V30 2067 H 208.606 6.53403 -2.72892 0
M  V30 2068 H 209.014 5.4837 -1.33979 0
M  V30 2069 N 208.412 0.89855 1.29475 0
M  V30 2070 C 209.362 0.346767 2.25348 0
M  V30 2071 C 210.346 -0.532509 1.51833 0
M  V30 2072 O 211.538 -0.374714 1.72988 0
M  V30 2073 C 208.667 -0.425681 3.40651 0
M  V30 2074 C 207.753 0.46845 4.21505 0
M  V30 2075 N 208.144 1.57514 4.80648 0
M  V30 2076 C 206.442 0.26603 4.45206 0
M  V30 2077 C 207.143 2.12889 5.41344 0
M  V30 2078 N 206.119 1.42208 5.24669 0
M  V30 2079 H 209.921 1.19219 2.68634 0
M  V30 2080 H 207.435 0.749473 1.44072 0
M  V30 2081 H 209.432 -0.837716 4.08397 0
M  V30 2082 H 208.092 -1.26838 2.98902 0
M  V30 2083 H 209.103 1.95789 4.79465 0
M  V30 2084 H 205.78 -0.538394 4.14014 0
M  V30 2085 H 207.17 3.05901 5.98226 0
M  V30 2086 N 209.89 -1.43072 0.660911 0
M  V30 2087 C 211.136 -2.0202 0.177708 0
M  V30 2088 C 211.469 -1.52066 -1.20787 0
M  V30 2089 O 210.744 -0.716987 -1.80802 0
M  V30 2090 C 211.027 -3.59561 0.197019 0
M  V30 2091 C 210.88 -4.19727 1.61706 0
M  V30 2092 C 212.199 -4.37664 -0.462396 0
M  V30 2093 H 209.318 -0.734034 0.0660494 0
M  V30 2094 H 211.96 -1.70272 0.843058 0
M  V30 2095 H 210.11 -3.86739 -0.369527 0
M  V30 2096 H 211.782 -4.03553 2.23479 0
M  V30 2097 H 210.025 -3.76084 2.16201 0
M  V30 2098 H 210.696 -5.28834 1.58237 0
M  V30 2099 H 213.172 -4.16095 0.0197215 0
M  V30 2100 H 212.048 -5.47305 -0.418188 0
M  V30 2101 H 212.309 -4.14493 -1.53778 0
M  V30 2102 N 211.368 -0.403325 -1.52352 0
M  V30 2103 C 212.608 0.173946 -2.03659 0
M  V30 2104 C 212.972 1.42869 -1.28267 0
M  V30 2105 O 214.173 2.08403 -1.69769 0
M  V30 2106 C 212.444 0.421478 -3.54906 0
M  V30 2107 S 214.003 0.967027 -4.28012 0
M  V30 2108 H 210.821 0.0477461 -0.709395 0
M  V30 2109 H 213.423 -0.554906 -1.87459 0
M  V30 2110 H 212.127 -0.498616 -4.0736 0
M  V30 2111 H 211.658 1.17837 -3.75337 0
M  V30 2112 H 213.673 2.24812 -4.4235 0
M  V30 2113 N 212.846 1.57033 -0.133567 0
M  V30 2114 C 214.123 1.87256 0.56522 0
M  V30 2115 C 214.503 1.03726 1.83859 0
M  V30 2116 O 213.851 0.120247 2.28183 0
M  V30 2117 C 214.061 3.3865 0.843636 0
M  V30 2118 C 215.409 4.07574 1.19032 0
M  V30 2119 O 216.433 3.43752 0.933429 0
M  V30 2120 O 215.292 5.20259 1.67312 0
M  V30 2121 H 212.386 0.775678 0.286796 0
M  V30 2122 H 214.932 1.68855 -0.169168 0
M  V30 2123 H 213.704 3.91257 -0.0581149 0
M  V30 2124 H 213.327 3.62532 1.63268 0
M  V30 2125 N 214.325 -0.140222 1.56975 0
M  V30 2126 C 215.574 -0.850152 1.82908 0
M  V30 2127 C 215.887 -1.82028 0.715892 0
M  V30 2128 O 217.093 -2.57485 0.861016 0
M  V30 2129 C 215.549 -1.5625 3.24213 0
M  V30 2130 C 215.157 -0.63443 4.43485 0
M  V30 2131 C 216.901 -2.25881 3.59413 0
M  V30 2132 C 214.808 -1.34879 5.75814 0
M  V30 2133 H 213.738 -0.321221 0.682153 0
M  V30 2134 H 216.389 -0.102874 1.83211 0
M  V30 2135 H 214.771 -2.35565 3.18316 0
M  V30 2136 H 215.945 0.12398 4.60633 0
M  V30 2137 H 214.26 -0.0461836 4.16374 0
M  V30 2138 H 216.857 -2.79978 4.5554 0
M  V30 2139 H 217.2 -3.02693 2.85802 0
M  V30 2140 H 217.733 -1.53477 3.67001 0
M  V30 2141 H 214.472 -0.622385 6.52539 0
M  V30 2142 H 213.992 -2.07974 5.6259 0
M  V30 2143 H 215.671 -1.88784 6.18845 0
M  V30 2144 N 215.803 -1.52179 -0.40978 0
M  V30 2145 C 217.051 -1.65878 -1.15451 0
M  V30 2146 C 217.372 -0.390771 -1.91044 0
M  V30 2147 O 216.642 0.594323 -1.86667 0
M  V30 2148 H 215.222 -0.611405 -0.429177 0
M  V30 2149 H 217.884 -1.89219 -0.467134 0
M  V30 2150 H 216.98 -2.49954 -1.86894 0
M  V30 2151 N 217.281 0.66697 -1.42791 0
M  V30 2152 C 218.231 1.77313 -1.43332 0
M  V30 2153 C 219.215 1.5801 -0.303586 0
M  V30 2154 O 220.407 1.68356 -0.546385 0
M  V30 2155 C 217.536 3.15822 -1.34578 0
M  V30 2156 C 216.622 3.40721 -2.52528 0
M  V30 2157 N 217.013 3.36162 -3.77927 0
M  V30 2158 C 215.311 3.71387 -2.46956 0
M  V30 2159 C 216.012 3.60762 -4.56318 0
M  V30 2160 N 214.988 3.81908 -3.86843 0
M  V30 2161 H 218.79 1.72193 -2.38174 0
M  V30 2162 H 216.304 0.868114 -1.3725 0
M  V30 2163 H 218.301 3.951 -1.33048 0
M  V30 2164 H 216.961 3.22133 -0.407453 0
M  V30 2165 H 217.972 3.15885 -4.10411 0
M  V30 2166 H 214.649 3.84897 -1.61743 0
M  V30 2167 H 216.039 3.63132 -5.65318 0
M  V30 2168 N 218.759 1.29093 0.90403 0
M  V30 2169 C 220.005 1.16986 1.65656 0
M  V30 2170 C 220.338 -0.278925 1.92186 0
M  V30 2171 O 219.613 -1.2019 1.5292 0
M  V30 2172 C 219.896 1.97908 3.0084 0
M  V30 2173 C 219.749 3.50903 2.81403 0
M  V30 2174 C 221.068 1.80208 4.01513 0
M  V30 2175 H 218.187 0.426346 0.601164 0
M  V30 2176 H 220.829 1.58518 1.04747 0
M  V30 2177 H 218.979 1.62616 3.52829 0
M  V30 2178 H 220.651 3.96153 2.36348 0
M  V30 2179 H 218.894 3.76045 2.1627 0
M  V30 2180 H 219.565 4.02791 3.77443 0
M  V30 2181 H 222.041 2.11025 3.58619 0
M  V30 2182 H 220.917 2.39184 4.94047 0
M  V30 2183 H 221.178 0.756119 4.35586 0
M  V30 2184 N 220.237 -1.11381 1.11499 0
M  V30 2185 C 221.147 -2.21019 0.786628 0
M  V30 2186 C 222.163 -1.72597 -0.220507 0
M  V30 2187 O 223.339 -2.01321 -0.0565251 0
M  V30 2188 C 220.404 -3.459 0.235333 0
M  V30 2189 C 219.465 -4.09107 1.30115 0
M  V30 2190 C 218.698 -5.28027 0.776068 0
M  V30 2191 O 218.921 -5.6904 -0.393661 0
M  V30 2192 O 217.855 -5.81835 1.54114 0
M  V30 2193 H 221.681 -2.51521 1.70209 0
M  V30 2194 H 219.266 -1.19928 0.890928 0
M  V30 2195 H 221.148 -4.21346 -0.067715 0
M  V30 2196 H 219.823 -3.17049 -0.652828 0
M  V30 2197 H 218.73 -3.35391 1.65722 0
M  V30 2198 H 220.063 -4.42139 2.16273 0
M  V30 2199 N 221.715 -0.905404 -1.28997 0
M  V30 2200 C 222.665 -0.358713 -2.25161 0
M  V30 2201 C 223.649 0.524449 -1.52113 0
M  V30 2202 O 224.841 0.365534 -1.73184 0
M  V30 2203 C 221.97 0.407609 -3.40872 0
M  V30 2204 C 221.056 -0.490797 -4.21251 0
M  V30 2205 N 221.447 -1.60061 -4.79806 0
M  V30 2206 C 219.745 -0.289636 -4.45059 0
M  V30 2207 C 220.446 -2.15757 -5.40207 0
M  V30 2208 N 219.422 -1.44988 -5.23908 0
M  V30 2209 H 223.224 -1.20642 -2.67998 0
M  V30 2210 H 220.738 -0.757103 -1.43672 0
M  V30 2211 H 222.735 0.816046 -4.08835 0
M  V30 2212 H 221.395 1.25251 -2.9957 0
M  V30 2213 H 222.406 -1.98329 -4.7842 0
M  V30 2214 H 219.083 0.51643 -4.14294 0
M  V30 2215 H 220.473 -3.09069 -5.96595 0
M  V30 2216 N 223.193 1.4272 -0.668489 0
M  V30 2217 C 224.126 2.28111 0.0637898 0
M  V30 2218 C 225.104 1.40705 0.814912 0
M  V30 2219 O 226.288 1.70146 0.81134 0
M  V30 2220 C 223.415 3.20429 1.0974 0
M  V30 2221 C 222.461 4.24197 0.442579 0
M  V30 2222 S 223.294 5.29563 -0.795173 0
M  V30 2223 C 224.45 6.25449 0.237516 0
M  V30 2224 H 224.683 2.8987 -0.660521 0
M  V30 2225 H 222.216 1.47456 -0.457821 0
M  V30 2226 H 224.174 3.74158 1.68868 0
M  V30 2227 H 222.835 2.57818 1.79411 0
M  V30 2228 H 222.028 4.88954 1.22227 0
M  V30 2229 H 221.63 3.73925 -0.0749554 0
M  V30 2230 H 223.922 6.68524 1.09915 0
M  V30 2231 H 224.865 7.07104 -0.375421 0
M  V30 2232 H 225.273 5.61511 0.580167 0
M  V30 2233 N 224.671 0.411399 1.52136 0
M  V30 2234 C 225.917 -0.163888 2.02137 0
M  V30 2235 C 226.25 -1.44597 1.29636 0
M  V30 2236 O 225.525 -1.90272 0.403353 0
M  V30 2237 C 225.808 -0.40927 3.57767 0
M  V30 2238 C 225.661 0.889643 4.40914 0
M  V30 2239 C 226.98 -1.19042 4.23694 0
M  V30 2240 H 224.099 -0.0580896 0.734707 0
M  V30 2241 H 226.741 0.54531 1.82007 0
M  V30 2242 H 224.891 -1.0134 3.7505 0
M  V30 2243 H 226.563 1.52575 4.35337 0
M  V30 2244 H 224.806 1.50011 4.07037 0
M  V30 2245 H 225.477 0.672314 5.4789 0
M  V30 2246 H 227.953 -0.678942 4.10524 0
M  V30 2247 H 226.829 -1.33086 5.32522 0
M  V30 2248 H 227.09 -2.21166 3.82803 0
M  V30 2249 N 226.149 -1.5696 0.141893 0
M  V30 2250 C 227.099 -2.13074 -0.811383 0
M  V30 2251 C 228.083 -1.05726 -1.21288 0
M  V30 2252 O 229.275 -1.31914 -1.18015 0
M  V30 2253 C 226.404 -2.75186 -2.0525 0
M  V30 2254 C 225.49 -3.8965 -1.67432 0
M  V30 2255 N 225.881 -4.95733 -1.0041 0
M  V30 2256 C 224.179 -4.00262 -1.96739 0
M  V30 2257 C 224.88 -5.75858 -0.822345 0
M  V30 2258 N 223.856 -5.26452 -1.3546 0
M  V30 2259 H 227.658 -2.92465 -0.290031 0
M  V30 2260 H 225.172 -1.6229 -0.0598218 0
M  V30 2261 H 227.169 -3.13745 -2.74535 0
M  V30 2262 H 225.829 -1.97266 -2.57907 0
M  V30 2263 H 226.84 -5.13607 -0.665441 0
M  V30 2264 H 223.517 -3.33412 -2.51282 0
M  V30 2265 H 224.907 -6.71254 -0.294496 0
M  V30 2266 N 227.627 0.131896 -1.57047 0
M  V30 2267 C 228.904 0.871495 -1.75112 0
M  V30 2268 C 229.284 1.9866 -0.713949 0
M  V30 2269 O 228.632 2.26965 0.264447 0
M  V30 2270 C 228.842 1.40007 -3.19686 0
M  V30 2271 C 230.19 1.85752 -3.81813 0
M  V30 2272 O 231.214 1.49715 -3.23209 0
M  V30 2273 O 230.073 2.5226 -4.84796 0
M  V30 2274 H 227.167 0.412919 -0.716538 0
M  V30 2275 H 229.713 0.116641 -1.69299 0
M  V30 2276 H 228.485 0.599404 -3.86682 0
M  V30 2277 H 228.108 2.218 -3.29986 0
M  V30 2278 N 229.106 1.52395 0.401703 0
M  V30 2279 C 230.331 1.70972 1.17403 0
M  V30 2280 C 230.756 0.421615 1.83314 0
M  V30 2281 O 230.114 -0.621564 1.70312 0
M  V30 2282 C 230.162 2.85151 2.20728 0
M  V30 2283 O 229.266 2.51238 3.27037 0
M  V30 2284 H 228.607 0.568927 0.342372 0
M  V30 2285 H 231.137 1.99131 0.469891 0
M  V30 2286 H 231.147 3.10279 2.64936 0
M  V30 2287 H 229.822 3.78603 1.7214 0
M  V30 2288 H 228.399 2.36808 2.88057 0
M  V30 2289 N 230.584 -0.659388 1.43143 0
M  V30 2290 C 231.83 -1.42145 1.44647 0
M  V30 2291 C 232.163 -1.9408 0.0681907 0
M  V30 2292 O 231.438 -1.71899 -0.910007 0
M  V30 2293 C 231.721 -2.60735 2.48373 0
M  V30 2294 C 231.574 -2.14332 3.95451 0
M  V30 2295 C 232.893 -3.62951 2.48906 0
M  V30 2296 H 230.012 -0.51552 0.526696 0
M  V30 2297 H 232.654 -0.748069 1.74654 0
M  V30 2298 H 230.804 -3.18184 2.22916 0
M  V30 2299 H 232.476 -1.61932 4.31944 0
M  V30 2300 H 230.719 -1.4576 4.08578 0
M  V30 2301 H 231.39 -2.99583 4.63631 0
M  V30 2302 H 233.866 -3.1525 2.71582 0
M  V30 2303 H 232.742 -4.43487 3.23435 0
M  V30 2304 H 233.003 -4.15126 1.52061 0
M  V30 2305 N 232.062 -1.29571 -0.897171 0
M  V30 2306 C 233.308 -1.17863 -1.65034 0
M  V30 2307 C 233.641 0.268729 -1.92332 0
M  V30 2308 O 232.916 1.19378 -1.53555 0
M  V30 2309 C 233.199 -1.995 -2.99786 0
M  V30 2310 C 233.052 -3.5239 -2.79538 0
M  V30 2311 C 234.371 -1.82335 -4.00552 0
M  V30 2312 H 231.49 -0.429528 -0.598895 0
M  V30 2313 H 234.132 -1.59072 -1.03905 0
M  V30 2314 H 232.282 -1.64485 -3.51962 0
M  V30 2315 H 233.954 -3.97401 -2.34244 0
M  V30 2316 H 232.197 -3.77187 -2.14273 0
M  V30 2317 H 232.868 -4.04787 -3.75302 0
M  V30 2318 H 235.344 -2.12924 -3.57495 0
M  V30 2319 H 234.22 -2.41801 -4.92771 0
M  V30 2320 H 234.481 -0.779209 -4.35179 0
M  V30 2321 N 233.54 1.10788 -1.12088 0
M  V30 2322 C 234.45 2.20599 -0.798338 0
M  V30 2323 C 235.466 1.72712 0.21135 0
M  V30 2324 O 236.642 2.01348 0.0458477 0
M  V30 2325 C 233.707 3.45771 -0.253674 0
M  V30 2326 C 232.768 4.08411 -1.32283 0
M  V30 2327 C 232.001 5.27608 -0.80406 0
M  V30 2328 O 232.224 5.69241 0.363478 0
M  V30 2329 O 231.158 5.8101 -1.57198 0
M  V30 2330 H 234.984 2.50614 -1.7154 0
M  V30 2331 H 232.569 1.19454 -0.897275 0
M  V30 2332 H 234.451 4.21376 0.0453691 0
M  V30 2333 H 233.126 3.1739 0.636005 0
M  V30 2334 H 232.033 3.34507 -1.67499 0
M  V30 2335 H 233.366 4.40986 -2.18614 0
M  V30 2336 N 235.018 0.912232 1.28515 0
M  V30 2337 C 235.981 0.404223 2.25607 0
M  V30 2338 C 236.981 -0.468602 1.53821 0
M  V30 2339 O 238.171 -0.271873 1.72065 0
M  V30 2340 C 235.303 -0.420653 3.38295 0
M  V30 2341 H 236.496 1.26188 2.7206 0
M  V30 2342 H 234.049 0.691495 1.40171 0
M  V30 2343 H 234.784 -1.29777 2.97201 0
M  V30 2344 H 234.569 0.204935 3.91564 0
M  V30 2345 H 236.059 -0.766971 4.10496 0
M  V30 2346 N 236.496 -1.42363 0.676048 0
M  V30 2347 C 237.406 -2.346 -0.00153389 0
M  V30 2348 C 238.422 -1.5516 -0.787485 0
M  V30 2349 O 239.598 -1.87723 -0.729521 0
M  V30 2350 C 236.663 -3.33705 -0.940298 0
M  V30 2351 C 235.724 -4.29042 -0.148739 0
M  V30 2352 C 234.957 -5.23413 -1.04279 0
M  V30 2353 O 235.18 -5.22749 -2.28232 0
M  V30 2354 O 234.114 -5.99795 -0.502925 0
M  V30 2355 H 237.94 -2.94082 0.758268 0
M  V30 2356 H 235.525 -1.42888 0.436289 0
M  V30 2357 H 237.407 -3.94586 -1.47917 0
M  V30 2358 H 236.082 -2.76695 -1.67993 0
M  V30 2359 H 234.989 -3.71571 0.43427 0
M  V30 2360 H 236.322 -4.89097 0.551805 0
M  V30 2361 N 237.974 -0.419461 -1.51915 0
M  V30 2362 C 239.223 0.154346 -2.01109 0
M  V30 2363 C 239.536 1.45338 -1.30905 0
M  V30 2364 O 240.742 2.10906 -1.7097 0
M  V30 2365 C 239.198 0.325615 -3.58424 0
M  V30 2366 C 238.806 -0.961934 -4.37551 0
M  V30 2367 C 240.55 0.854155 -4.15818 0
M  V30 2368 C 238.457 -0.757287 -5.86531 0
M  V30 2369 H 237.387 0.0614563 -0.751491 0
M  V30 2370 H 240.038 -0.54649 -1.75173 0
M  V30 2371 H 238.42 1.08903 -3.80731 0
M  V30 2372 H 239.594 -1.7323 -4.26999 0
M  V30 2373 H 237.909 -1.41766 -3.91524 0
M  V30 2374 H 240.506 1.02346 -5.24814 0
M  V30 2375 H 240.849 1.83172 -3.73837 0
M  V30 2376 H 241.382 0.149528 -3.97519 0
M  V30 2377 H 238.121 -1.70671 -6.32892 0
M  V30 2378 H 237.641 -0.0264061 -5.99794 0
M  V30 2379 H 239.32 -0.403482 -6.45741 0
M  V30 2380 N 239.452 1.56882 -0.150215 0
M  V30 2381 C 240.701 1.95403 0.500071 0
M  V30 2382 C 241.014 1.03777 1.658 0
M  V30 2383 O 242.22 1.31889 2.37313 0
M  V30 2384 C 240.676 3.4738 0.941018 0
M  V30 2385 C 240.284 4.47596 -0.190158 0
M  V30 2386 C 242.028 3.9476 1.56091 0
M  V30 2387 C 239.935 5.90787 0.269237 0
M  V30 2388 H 238.865 0.729515 0.190588 0
M  V30 2389 H 241.516 1.81988 -0.235074 0
M  V30 2390 H 239.898 3.56138 1.73152 0
M  V30 2391 H 241.072 4.50536 -0.967157 0
M  V30 2392 H 239.387 4.10151 -0.718666 0
M  V30 2393 H 241.984 4.99181 1.9163 0
M  V30 2394 H 242.327 3.36494 2.45107 0
M  V30 2395 H 242.86 3.88932 0.835249 0
M  V30 2396 H 239.599 6.52879 -0.585621 0
M  V30 2397 H 239.119 5.912 1.01204 0
M  V30 2398 H 240.798 6.42979 0.720176 0
M  V30 2399 N 240.93 -0.123565 1.57115 0
M  V30 2400 C 242.158 -0.846461 1.88793 0
M  V30 2401 C 242.573 -1.73652 0.740976 0
M  V30 2402 O 241.93 -1.80207 -0.288393 0
M  V30 2403 C 241.981 -1.6837 3.19897 0
M  V30 2404 O 241.702 -0.829477 4.30176 0
M  V30 2405 C 243.203 -2.51214 3.65248 0
M  V30 2406 H 240.423 -0.243573 0.625231 0
M  V30 2407 H 242.967 -0.109324 2.04208 0
M  V30 2408 H 241.122 -2.37364 3.06165 0
M  V30 2409 H 241.536 -1.40651 5.0529 0
M  V30 2410 H 243.01 -3.05497 4.59756 0
M  V30 2411 H 243.487 -3.28359 2.9168 0
M  V30 2412 H 244.093 -1.8747 3.81752 0
M  V30 2413 N 242.408 -1.52605 -0.393616 0
M  V30 2414 C 243.685 -1.58001 -1.15304 0
M  V30 2415 C 244.065 -0.370385 -2.07825 0
M  V30 2416 O 243.413 0.641638 -2.19306 0
M  V30 2417 C 243.623 -2.91652 -1.91677 0
M  V30 2418 C 244.971 -3.4522 -2.47201 0
M  V30 2419 O 245.995 -2.93495 -2.01839 0
M  V30 2420 O 244.854 -4.35579 -3.3005 0
M  V30 2421 H 241.948 -0.637068 -0.527327 0
M  V30 2422 H 244.494 -1.64939 -0.399141 0
M  V30 2423 H 243.266 -3.71136 -1.23992 0
M  V30 2424 H 242.889 -2.88077 -2.74039 0
M  V30 2425 N 243.887 0.651787 -1.4349 0
M  V30 2426 C 245.298 1.233 -1.40193 0
M  V30 2427 C 245.649 1.9591 -0.106727 0
M  V30 2428 O 244.774 2.01316 0.793773 0
M  V30 2429 C 245.369 2.24257 -2.53957 0
M  V30 2430 C 243.928 2.77852 -2.5392 0
M  V30 2431 C 243.075 1.52517 -2.3159 0
M  V30 2432 H 246.026 0.443717 -1.52371 0
M  V30 2433 H 246.047 3.0646 -2.25528 0
M  V30 2434 H 245.559 1.71382 -3.4821 0
M  V30 2435 H 243.66 3.34786 -1.63551 0
M  V30 2436 H 243.773 3.25299 -3.51735 0
M  V30 2437 H 242.137 1.79915 -1.80285 0
M  V30 2438 H 242.92 1.01574 -3.27929 0
M  V30 2439 N 245.365 1.30045 0.890287 0
M  V30 2440 C 246.295 1.18541 2.01172 0
M  V30 2441 C 247.276 0.0773356 1.69924 0
M  V30 2442 O 248.461 0.25845 1.92473 0
M  V30 2443 C 245.591 0.870941 3.36202 0
M  V30 2444 C 244.545 1.93637 3.81692 0
M  V30 2445 C 243.871 1.475 5.13953 0
M  V30 2446 C 245.171 3.34666 4.00994 0
M  V30 2447 H 246.865 2.12359 2.11054 0
M  V30 2448 H 244.411 1.02238 1.01407 0
M  V30 2449 H 246.364 0.777141 4.14172 0
M  V30 2450 H 245.088 -0.102926 3.26438 0
M  V30 2451 H 243.747 2.01972 3.05946 0
M  V30 2452 H 243.395 0.489551 5.00612 0
M  V30 2453 H 243.095 2.1876 5.4536 0
M  V30 2454 H 244.619 1.39489 5.94454 0
M  V30 2455 H 246.033 3.2912 4.69417 0
M  V30 2456 H 244.43 4.03966 4.43769 0
M  V30 2457 H 245.5 3.76949 3.05021 0
M  V30 2458 N 246.843 -1.10192 1.12674 0
M  V30 2459 C 248.071 -1.85983 0.906527 0
M  V30 2460 C 248.486 -1.80783 -0.544333 0
M  V30 2461 O 247.843 -1.19834 -1.37645 0
M  V30 2462 C 247.894 -3.34281 1.37618 0
M  V30 2463 O 247.615 -3.39401 2.77017 0
M  V30 2464 C 249.116 -4.26938 1.19325 0
M  V30 2465 H 246.336 -0.587716 0.323775 0
M  V30 2466 H 248.88 -1.39284 1.49734 0
M  V30 2467 H 247.035 -3.78436 0.828539 0
M  V30 2468 H 247.449 -4.31838 2.97684 0
M  V30 2469 H 248.923 -5.29181 1.57071 0
M  V30 2470 H 249.4 -4.38995 0.134097 0
M  V30 2471 H 250.006 -3.8859 1.72852 0
M  V30 2472 N 248.321 -0.919034 -1.28029 0
M  V30 2473 C 249.546 -0.570357 -1.99403 0
M  V30 2474 C 249.971 0.842486 -1.68178 0
M  V30 2475 O 249.329 1.56391 -0.917141 0
M  V30 2476 C 249.377 -0.792541 -3.51783 0
M  V30 2477 O 248.481 0.145988 -4.12142 0
M  V30 2478 H 247.822 -0.220555 -0.6263 0
M  V30 2479 H 250.352 -1.23592 -1.63053 0
M  V30 2480 H 250.362 -0.704708 -4.01868 0
M  V30 2481 H 249.037 -1.82247 -3.73844 0
M  V30 2482 H 247.614 0.00897528 -3.72899 0
M  V30 2483 N 249.799 1.42003 -0.683588 0
M  V30 2484 C 251.076 1.95112 -0.138075 0
M  V30 2485 C 251.456 1.62359 1.34918 0
M  V30 2486 O 250.804 0.924311 2.08971 0
M  V30 2487 C 251.014 3.46505 -0.416581 0
M  V30 2488 C 252.362 4.23254 -0.337834 0
M  V30 2489 O 253.386 3.54468 -0.35082 0
M  V30 2490 O 252.245 5.45743 -0.287596 0
M  V30 2491 H 249.339 0.826961 -0.00797996 0
M  V30 2492 H 251.885 1.51784 -0.758924 0
M  V30 2493 H 250.657 3.63582 -1.4465 0
M  V30 2494 H 250.28 3.969 0.235839 0
M  V30 2495 N 251.277 0.427512 1.51691 0
M  V30 2496 C 252.526 -0.143679 2.01188 0
M  V30 2497 C 252.839 -1.44642 1.31674 0
M  V30 2498 O 254.045 -2.09997 1.72086 0
M  V30 2499 C 252.501 -0.306602 3.58592 0
M  V30 2500 C 252.109 0.985125 4.37035 0
M  V30 2501 C 253.853 -0.832091 4.16265 0
M  V30 2502 C 251.76 0.788382 5.86122 0
M  V30 2503 H 250.69 -0.0574701 0.751807 0
M  V30 2504 H 253.341 0.555772 1.74881 0
M  V30 2505 H 251.723 -1.06882 3.81303 0
M  V30 2506 H 252.897 1.75492 4.26074 0
M  V30 2507 H 251.212 1.4384 3.90767 0
M  V30 2508 H 253.809 -0.995617 5.25349 0
M  V30 2509 H 254.152 -1.81186 3.74803 0
M  V30 2510 H 254.685 -0.128444 3.97593 0
M  V30 2511 H 251.424 1.74025 6.31978 0
M  V30 2512 H 250.944 0.0582143 5.99772 0
M  V30 2513 H 252.623 0.437722 6.45518 0
M  V30 2514 N 252.755 -1.56801 0.158532 0
M  V30 2515 C 254.001 -1.96781 -0.490405 0
M  V30 2516 C 254.334 -1.04397 -1.63753 0
M  V30 2517 O 253.609 -0.0885805 -1.94298 0
M  V30 2518 C 253.892 -3.4635 -0.985594 0
M  V30 2519 C 253.745 -4.49512 0.160824 0
M  V30 2520 C 255.064 -3.98697 -1.86355 0
M  V30 2521 H 252.183 -0.715482 -0.176788 0
M  V30 2522 H 254.825 -1.88451 0.242088 0
M  V30 2523 H 252.975 -3.53579 -1.60978 0
M  V30 2524 H 254.647 -4.54353 0.797537 0
M  V30 2525 H 252.89 -4.26013 0.818256 0
M  V30 2526 H 253.561 -5.51531 -0.227569 0
M  V30 2527 H 256.037 -3.94019 -1.33746 0
M  V30 2528 H 254.913 -5.03792 -2.17909 0
M  V30 2529 H 255.174 -3.41744 -2.8047 0
M  V30 2530 N 254.233 0.115231 -1.57178 0
M  V30 2531 C 255.458 0.840354 -1.89612 0
M  V30 2532 C 255.883 1.72464 -0.750845 0
M  V30 2533 O 255.241 1.78826 0.298478 0
M  V30 2534 C 255.289 1.64654 -3.20814 0
M  V30 2535 O 254.393 2.7538 -3.06985 0
M  V30 2536 H 253.734 0.232158 -0.622092 0
M  V30 2537 H 256.264 0.0964977 -2.04372 0
M  V30 2538 H 256.274 2.03499 -3.53627 0
M  V30 2539 H 254.949 0.997416 -4.03763 0
M  V30 2540 H 253.526 2.3971 -2.85646 0
M  V30 2541 N 255.711 1.52812 0.385517 0
M  V30 2542 C 256.621 1.80766 1.49535 0
M  V30 2543 C 257.637 0.694651 1.59532 0
M  V30 2544 O 258.813 0.982611 1.75803 0
M  V30 2545 C 255.878 1.97381 2.85029 0
M  V30 2546 C 254.939 3.21295 2.84724 0
M  V30 2547 C 254.172 3.37108 4.13756 0
M  V30 2548 O 254.395 2.5765 5.08893 0
M  V30 2549 O 253.329 4.30378 4.20783 0
M  V30 2550 H 257.155 2.75015 1.28842 0
M  V30 2551 H 254.74 1.37946 0.573697 0
M  V30 2552 H 256.622 2.09996 3.65349 0
M  V30 2553 H 255.297 1.06322 3.05741 0
M  V30 2554 H 254.204 3.1412 2.03174 0
M  V30 2555 H 255.537 4.12212 2.68965 0
M  V30 2556 N 257.189 -0.644168 1.43834 0
M  V30 2557 C 258.099 -1.78563 1.52159 0
M  V30 2558 C 259.115 -1.69147 0.408069 0
M  V30 2559 O 260.291 -1.90156 0.663524 0
M  V30 2560 C 257.356 -3.14888 1.45073 0
M  V30 2561 C 256.417 -3.36034 2.6717 0
M  V30 2562 C 255.65 -4.65855 2.60413 0
M  V30 2563 O 255.873 -5.45805 1.65689 0
M  V30 2564 O 254.807 -4.88918 3.5106 0
M  V30 2565 H 258.633 -1.74494 2.48567 0
M  V30 2566 H 256.218 -0.80378 1.25935 0
M  V30 2567 H 258.1 -3.96179 1.43597 0
M  V30 2568 H 256.775 -3.19528 0.518037 0
M  V30 2569 H 255.682 -2.54472 2.74217 0
M  V30 2570 H 257.015 -3.36247 3.59442 0
M  V30 2571 N 258.668 -1.30515 -0.883378 0
M  V30 2572 C 259.914 -1.19607 -1.63774 0
M  V30 2573 C 260.247 0.248314 -1.92606 0
M  V30 2574 O 259.522 1.17742 -1.54813 0
M  V30 2575 C 259.805 -2.02669 -2.97653 0
M  V30 2576 C 259.658 -3.55335 -2.75784 0
M  V30 2577 C 260.977 -1.86573 -3.98596 0
M  V30 2578 H 258.096 -0.435856 -0.594305 0
M  V30 2579 H 260.738 -1.60165 -1.02212 0
M  V30 2580 H 258.888 -1.68208 -3.50197 0
M  V30 2581 H 260.56 -3.99863 -2.30016 0
M  V30 2582 H 258.803 -3.79438 -2.1026 0
M  V30 2583 H 259.474 -4.08745 -3.70988 0
M  V30 2584 H 261.95 -2.16703 -3.55217 0
M  V30 2585 H 260.826 -2.47014 -4.90179 0
M  V30 2586 H 261.087 -0.825321 -4.34328 0
M  V30 2587 N 260.146 1.09593 -1.13257 0
M  V30 2588 C 261.076 2.18214 -0.830946 0
M  V30 2589 C 262.057 1.68812 0.208966 0
M  V30 2590 O 263.242 1.9408 0.0682666 0
M  V30 2591 C 260.372 3.46051 -0.294296 0
M  V30 2592 C 259.326 4.08778 -1.26826 0
M  V30 2593 C 258.652 5.31419 -0.591449 0
M  V30 2594 C 259.952 4.51476 -2.62615 0
M  V30 2595 H 261.646 2.43703 -1.73923 0
M  V30 2596 H 259.192 1.17128 -0.837675 0
M  V30 2597 H 261.145 4.2134 -0.0709606 0
M  V30 2598 H 259.869 3.20079 0.649366 0
M  V30 2599 H 258.528 3.35505 -1.47756 0
M  V30 2600 H 258.176 5.01727 0.357633 0
M  V30 2601 H 257.876 5.74341 -1.24123 0
M  V30 2602 H 259.4 6.09433 -0.377355 0
M  V30 2603 H 260.814 5.17999 -2.45663 0
M  V30 2604 H 259.211 5.05277 -3.23752 0
M  V30 2605 H 260.281 3.63962 -3.20406 0
M  V30 2606 N 261.624 0.925811 1.2754 0
M  V30 2607 C 262.87 0.566092 1.94739 0
M  V30 2608 C 263.203 -0.890057 1.72603 0
M  V30 2609 O 262.478 -1.63467 1.05399 0
M  V30 2610 C 262.761 0.89054 3.48915 0
M  V30 2611 C 262.614 2.4003 3.80402 0
M  V30 2612 C 263.933 0.395101 4.38323 0
M  V30 2613 H 261.052 0.20714 0.707292 0
M  V30 2614 H 263.694 1.15725 1.50691 0
M  V30 2615 H 261.844 0.387452 3.86563 0
M  V30 2616 H 263.516 2.97494 3.52555 0
M  V30 2617 H 261.759 2.85028 3.2702 0
M  V30 2618 H 262.43 2.57785 4.8811 0
M  V30 2619 H 264.906 0.826241 4.07814 0
M  V30 2620 H 263.782 0.651086 5.45025 0
M  V30 2621 H 264.043 -0.704798 4.36446 0
M  V30 2622 N 263.102 -1.41638 0.69111 0
M  V30 2623 C 264.065 -2.29178 0.0319786 0
M  V30 2624 C 265.065 -1.44153 -0.712496 0
M  V30 2625 O 266.255 -1.65354 -0.548053 0
M  V30 2626 C 263.387 -3.26952 -0.965161 0
M  V30 2627 H 264.58 -2.88959 0.802681 0
M  V30 2628 H 262.133 -1.4955 0.454356 0
M  V30 2629 H 262.868 -2.72142 -1.76378 0
M  V30 2630 H 262.653 -3.89685 -0.434522 0
M  V30 2631 H 264.143 -3.92561 -1.42428 0
M  V30 2632 N 264.58 -0.43555 -1.51462 0
M  V30 2633 C 265.857 0.191364 -1.94662 0
M  V30 2634 C 266.237 1.60254 -1.37411 0
M  V30 2635 O 265.585 2.2152 -0.560458 0
M  V30 2636 C 265.795 0.17091 -3.48581 0
M  V30 2637 C 267.143 0.377357 -4.2292 0
M  V30 2638 O 268.167 0.249104 -3.55328 0
M  V30 2639 O 267.026 0.63247 -5.42828 0
M  V30 2640 H 264.12 0.130932 -0.816569 0
M  V30 2641 H 266.666 -0.4934 -1.62369 0
M  V30 2642 H 265.438 -0.815738 -3.82703 0
M  V30 2643 H 265.061 0.898659 -3.87311 0
M  V30 2644 N 266.058 1.56714 -0.166846 0
M  V30 2645 C 267.298 1.98641 0.481763 0
M  V30 2646 C 267.662 1.05038 1.6072 0
M  V30 2647 O 268.863 1.36087 2.31805 0
M  V30 2648 C 267.134 3.44362 0.956517 0
M  V30 2649 S 268.693 4.08317 1.60694 0
M  V30 2650 H 265.511 0.693873 0.155116 0
M  V30 2651 H 268.113 1.93719 -0.263251 0
M  V30 2652 H 266.817 4.10204 0.126936 0
M  V30 2653 H 266.348 3.53041 1.73568 0
M  V30 2654 H 268.363 4.02999 2.89494 0
M  V30 2655 N 267.536 -0.106894 1.57237 0
M  V30 2656 C 268.499 -1.11466 2.0027 0
M  V30 2657 C 269.499 -1.33623 0.894519 0
M  V30 2658 O 270.689 -1.29935 1.16028 0
M  V30 2659 C 267.821 -2.46646 2.35327 0
M  V30 2660 H 269.014 -0.744516 2.90512 0
M  V30 2661 H 266.567 -0.351576 1.52295 0
M  V30 2662 H 267.302 -2.88558 1.48003 0
M  V30 2663 H 267.087 -2.31915 3.16161 0
M  V30 2664 H 268.577 -3.19151 2.69318 0
M  V30 2665 N 269.014 -1.53014 -0.377408 0
M  V30 2666 C 270.425 -1.60438 -0.954798 0
M  V30 2667 C 270.776 -0.464418 -1.90624 0
M  V30 2668 O 269.901 0.41087 -2.12464 0
M  V30 2669 C 270.496 -2.90797 -1.73847 0
M  V30 2670 C 269.055 -3.00595 -2.26538 0
M  V30 2671 C 268.202 -2.55645 -1.07429 0
M  V30 2672 H 271.153 -1.57926 -0.156575 0
M  V30 2673 H 271.174 -2.77935 -2.5987 0
M  V30 2674 H 270.686 -3.73746 -1.04574 0
M  V30 2675 H 268.787 -2.22208 -2.99089 0
M  V30 2676 H 268.9 -4.05456 -2.5523 0
M  V30 2677 H 267.264 -2.10239 -1.43777 0
M  V30 2678 H 268.047 -3.41 -0.396728 0
M  V30 2679 N 270.492 0.636531 -1.44174 0
M  V30 2680 C 271.402 1.77754 -1.53103 0
M  V30 2681 C 272.418 1.68928 -0.417034 0
M  V30 2682 O 273.594 1.89801 -0.6736 0
M  V30 2683 C 270.659 3.14115 -1.46741 0
M  V30 2684 C 269.72 3.34612 -2.68948 0
M  V30 2685 C 268.953 4.64467 -2.6288 0
M  V30 2686 O 269.176 5.44919 -1.68581 0
M  V30 2687 O 268.11 4.87049 -3.53648 0
M  V30 2688 H 271.936 1.73174 -2.49489 0
M  V30 2689 H 269.521 0.79709 -1.2636 0
M  V30 2690 H 271.403 3.95412 -1.45696 0
M  V30 2691 H 270.078 3.19249 -0.534975 0
M  V30 2692 H 268.985 2.53014 -2.75562 0
M  V30 2693 H 270.318 3.34336 -3.61221 0
M  V30 2694 N 271.97 1.30982 0.876444 0
M  V30 2695 C 272.933 1.18054 1.96459 0
M  V30 2696 C 273.933 0.109399 1.60427 0
M  V30 2697 O 275.123 0.358173 1.70478 0
M  V30 2698 C 272.255 0.810616 3.31122 0
M  V30 2699 H 273.448 2.14735 2.09354 0
M  V30 2700 H 271.001 1.145 1.06392 0
M  V30 2701 H 271.736 -0.155322 3.23928 0
M  V30 2702 H 271.521 1.58481 3.58645 0
M  V30 2703 H 273.011 0.743876 4.10921 0
M  V30 2704 N 273.449 -1.08991 1.13837 0
M  V30 2705 C 274.695 -1.81526 0.90422 0
M  V30 2706 C 275.028 -1.85706 -0.568066 0
M  V30 2707 O 274.303 -1.32855 -1.42056 0
M  V30 2708 C 274.586 -3.27447 1.49835 0
M  V30 2709 C 274.439 -3.31512 3.04006 0
M  V30 2710 C 275.758 -4.24256 1.17025 0
M  V30 2711 H 272.877 -0.659029 0.329923 0
M  V30 2712 H 275.519 -1.27644 1.40737 0
M  V30 2713 H 273.669 -3.73462 1.07044 0
M  V30 2714 H 275.341 -2.93867 3.55584 0
M  V30 2715 H 273.584 -2.70963 3.38765 0
M  V30 2716 H 274.255 -4.34329 3.40679 0
M  V30 2717 H 276.731 -3.86549 1.54009 0
M  V30 2718 H 275.607 -5.24684 1.61237 0
M  V30 2719 H 275.868 -4.42019 0.0846274 0
M  V30 2720 N 274.927 -0.932562 -1.27047 0
M  V30 2721 C 276.176 -0.571351 -1.93439 0
M  V30 2722 C 276.489 0.892467 -1.74053 0
M  V30 2723 O 277.695 1.36267 -2.34826 0
M  V30 2724 C 276.151 -0.97106 -3.46552 0
M  V30 2725 C 275.759 -2.4559 -3.74686 0
M  V30 2726 C 277.503 -0.681333 -4.18997 0
M  V30 2727 C 275.41 -2.79475 -5.21198 0
M  V30 2728 H 274.34 -0.209966 -0.724176 0
M  V30 2729 H 276.991 -1.13403 -1.44263 0
M  V30 2730 H 275.373 -0.336983 -3.94564 0
M  V30 2731 H 276.547 -3.13829 -3.37414 0
M  V30 2732 H 274.862 -2.71802 -3.15456 0
M  V30 2733 H 277.459 -0.910939 -5.26883 0
M  V30 2734 H 277.802 0.381628 -4.14547 0
M  V30 2735 H 278.335 -1.27473 -3.76823 0
M  V30 2736 H 275.074 -3.847 -5.30741 0
M  V30 2737 H 274.594 -2.1589 -5.596 0
M  V30 2738 H 276.273 -2.67478 -5.89122 0
M  V30 2739 N 276.405 1.4127 -0.698611 0
M  V30 2740 C 277.682 1.94955 -0.158762 0
M  V30 2741 C 278.062 1.63781 1.33188 0
M  V30 2742 O 277.41 0.946423 2.07979 0
M  V30 2743 C 277.62 3.46044 -0.453309 0
M  V30 2744 C 278.968 4.22872 -0.382707 0
M  V30 2745 O 279.992 3.54076 -0.388396 0
M  V30 2746 O 278.851 5.45407 -0.345463 0
M  V30 2747 H 275.945 0.82683 -0.0167505 0
M  V30 2748 H 278.491 1.50971 -0.77498 0
M  V30 2749 H 277.263 3.62028 -1.48498 0
M  V30 2750 H 276.886 3.97128 0.19373 0
M  V30 2751 N 277.883 0.443576 1.51229 0
M  V30 2752 C 278.846 -0.353132 2.26463 0
M  V30 2753 C 279.846 -0.944338 1.3015 0
M  V30 2754 O 281.036 -0.817813 1.5381 0
M  V30 2755 C 278.168 -1.50023 3.06114 0
M  V30 2756 H 279.361 0.3063 2.98332 0
M  V30 2757 H 276.914 0.196902 1.55055 0
M  V30 2758 H 277.649 -2.19553 2.38677 0
M  V30 2759 H 277.434 -1.08241 3.76864 0
M  V30 2760 H 278.924 -2.06296 3.63087 0
M  V30 2761 N 279.361 -1.56624 0.175154 0
M  V30 2762 C 280.586 -2.01813 -0.478137 0
M  V30 2763 C 281.011 -1.05457 -1.55757 0
M  V30 2764 O 280.369 -0.0347439 -1.81267 0
M  V30 2765 C 280.417 -3.45581 -1.02987 0
M  V30 2766 O 279.521 -3.52305 -2.14371 0
M  V30 2767 H 278.862 -0.65413 -0.114059 0
M  V30 2768 H 281.392 -2.02673 0.280173 0
M  V30 2769 H 281.402 -3.84965 -1.35151 0
M  V30 2770 H 280.077 -4.1521 -0.239556 0
M  V30 2771 H 278.654 -3.24783 -1.83222 0
M  V30 2772 N 280.839 0.0985539 -1.57292 0
M  V30 2773 C 282.087 0.801092 -1.85545 0
M  V30 2774 C 282.408 1.79438 -0.763353 0
M  V30 2775 O 281.678 1.94763 0.21073 0
M  V30 2776 H 280.258 0.29884 -0.684619 0
M  V30 2777 H 282.92 0.0810064 -1.94732 0
M  V30 2778 H 282.016 1.3338 -2.82163 0
M  V30 2779 N 282.317 1.53212 0.369288 0
M  V30 2780 C 283.566 1.68436 1.10961 0
M  V30 2781 C 283.879 0.440738 1.9057 0
M  V30 2782 O 285.085 0.473446 2.6734 0
M  V30 2783 C 283.541 2.97744 2.0218 0
M  V30 2784 C 283.149 4.29355 1.279 0
M  V30 2785 C 284.893 3.22334 2.76226 0
M  V30 2786 C 282.8 5.49755 2.17999 0
M  V30 2787 H 281.73 0.627568 0.41794 0
M  V30 2788 H 284.381 1.79713 0.370884 0
M  V30 2789 H 282.763 2.8026 2.79768 0
M  V30 2790 H 283.937 4.57458 0.554007 0
M  V30 2791 H 282.252 4.11179 0.657311 0
M  V30 2792 H 284.849 4.09471 3.43857 0
M  V30 2793 H 285.192 2.38238 3.41392 0
M  V30 2794 H 285.725 3.40475 2.05723 0
M  V30 2795 H 282.464 6.36318 1.57417 0
M  V30 2796 H 281.984 5.25937 2.88359 0
M  V30 2797 H 283.663 5.84401 2.77641 0
M  V30 2798 N 283.795 -0.628877 1.44509 0
M  V30 2799 C 285.02 -1.42048 1.5112 0
M  V30 2800 C 285.445 -1.87594 0.137818 0
M  V30 2801 O 284.803 -1.58873 -0.873437 0
M  V30 2802 C 284.851 -2.61541 2.48251 0
M  V30 2803 O 283.955 -3.61453 1.98559 0
M  V30 2804 H 283.296 -0.424942 0.510216 0
M  V30 2805 H 285.826 -0.767374 1.89664 0
M  V30 2806 H 285.836 -3.09057 2.66361 0
M  V30 2807 H 284.511 -2.27736 3.48007 0
M  V30 2808 H 283.088 -3.20731 1.90227 0
M  V30 2809 N 285.273 -1.31445 -0.869486 0
M  V30 2810 C 286.519 -1.21337 -1.62496 0
M  V30 2811 C 286.852 0.227872 -1.92858 0
M  V30 2812 O 286.127 1.16094 -1.56053 0
M  V30 2813 C 286.41 -2.05814 -2.95487 0
M  V30 2814 C 286.263 -3.5824 -2.72 0
M  V30 2815 C 287.582 -1.9079 -3.96594 0
M  V30 2816 H 284.701 -0.442135 -0.589649 0
M  V30 2817 H 287.343 -1.6124 -1.00507 0
M  V30 2818 H 285.493 -1.71913 -3.48394 0
M  V30 2819 H 287.165 -4.0228 -2.25762 0
M  V30 2820 H 285.408 -3.81647 -2.06224 0
M  V30 2821 H 286.079 -4.12657 -3.66631 0
M  V30 2822 H 288.555 -2.20459 -3.52898 0
M  V30 2823 H 287.431 -2.52199 -4.87531 0
M  V30 2824 H 287.692 -0.871341 -4.33428 0
M  V30 2825 N 286.751 1.08385 -1.14413 0
M  V30 2826 C 288.028 1.77429 -0.823297 0
M  V30 2827 C 288.408 1.9974 0.683163 0
M  V30 2828 O 287.756 1.60739 1.62405 0
M  V30 2829 C 287.966 3.09004 -1.62227 0
M  V30 2830 C 289.314 3.83532 -1.82177 0
M  V30 2831 O 290.338 3.18786 -1.58915 0
M  V30 2832 O 289.197 4.99792 -2.21067 0
M  V30 2833 H 286.291 0.769999 -0.301712 0
M  V30 2834 H 288.837 1.14846 -1.24934 0
M  V30 2835 H 287.609 2.88316 -2.64555 0
M  V30 2836 H 287.232 3.79316 -1.19187 0
M  V30 2837 N 288.23 0.939286 1.26551 0
M  V30 2838 C 289.162 0.404704 2.25599 0
M  V30 2839 C 290.175 -0.470983 1.55838 0
M  V30 2840 O 291.364 -0.281734 1.76263 0
M  V30 2841 C 288.464 -0.43764 3.36062 0
M  V30 2842 C 287.637 0.421449 4.35365 0
M  V30 2843 C 286.696 -0.36015 5.24966 0
M  V30 2844 O 285.722 0.236167 5.6871 0
M  V30 2845 N 286.924 -1.65715 5.56344 0
M  V30 2846 H 289.689 1.25618 2.72103 0
M  V30 2847 H 287.25 0.807963 1.40298 0
M  V30 2848 H 289.242 -0.967866 3.92956 0
M  V30 2849 H 287.812 -1.18991 2.89067 0
M  V30 2850 H 287.032 1.1329 3.7757 0
M  V30 2851 H 288.32 1.00835 4.98708 0
M  V30 2852 H 287.718 -2.16378 5.22682 0
M  V30 2853 H 286.275 -2.13366 6.15888 0
M  V30 2854 N 289.708 -1.40897 0.706093 0
M  V30 2855 C 290.64 -2.29199 0.00815776 0
M  V30 2856 C 291.653 -1.45336 -0.733582 0
M  V30 2857 O 292.842 -1.68727 -0.582537 0
M  V30 2858 C 289.942 -3.23417 -1.01265 0
M  V30 2859 C 289.115 -4.36089 -0.338387 0
M  V30 2860 C 288.174 -5.10811 -1.26326 0
M  V30 2861 O 287.2 -5.64215 -0.751651 0
M  V30 2862 N 288.402 -5.19269 -2.595 0
M  V30 2863 H 291.167 -2.89738 0.766297 0
M  V30 2864 H 288.728 -1.52164 0.55296 0
M  V30 2865 H 290.72 -3.70276 -1.63334 0
M  V30 2866 H 289.29 -2.64112 -1.67223 0
M  V30 2867 H 288.51 -3.91479 0.462352 0
M  V30 2868 H 289.798 -5.08634 0.130031 0
M  V30 2869 H 289.196 -4.77347 -3.03573 0
M  V30 2870 H 287.753 -5.69667 -3.16737 0
M  V30 2871 N 291.186 -0.45159 -1.50991 0
M  V30 2872 C 292.463 0.170707 -1.94854 0
M  V30 2873 C 292.843 1.58788 -1.39103 0
M  V30 2874 O 292.191 2.20913 -0.583921 0
M  V30 2875 C 292.401 0.133929 -3.48743 0
M  V30 2876 C 293.749 0.33248 -4.23296 0
M  V30 2877 O 294.773 0.211403 -3.55572 0
M  V30 2878 O 293.632 0.57486 -5.43468 0
M  V30 2879 H 290.726 0.122264 -0.817912 0
M  V30 2880 H 293.272 -0.510594 -1.61836 0
M  V30 2881 H 292.044 -0.856283 -3.81816 0
M  V30 2882 H 291.667 0.857529 -3.88242 0
M  V30 2883 N 292.664 1.56529 -0.183458 0
M  V30 2884 C 293.612 2.19873 0.758845 0
M  V30 2885 C 294.606 1.16638 1.22849 0
M  V30 2886 O 295.812 1.3481 1.19274 0
M  V30 2887 H 292.187 0.7045 0.263029 0
M  V30 2888 H 294.158 2.97724 0.200755 0
M  V30 2889 C 292.907 2.86314 1.9728 0
M  V30 2890 H 292.23 3.65487 1.62047 0
M  V30 2891 H 293.67 3.3409 2.61075 0
M  V30 2892 C 292.129 1.86729 2.80418 0
M  V30 2893 O 292.659 1.36031 3.77966 0
M  V30 2894 N 290.865 1.55216 2.45675 0
M  V30 2895 H 290.412 1.96636 1.66409 0
M  V30 2896 H 290.37 0.888388 3.01588 0
M  V30 2897 N 294.142 -0.090211 1.57342 0
M  V30 2898 C 295.419 -0.824761 1.77361 0
M  V30 2899 C 295.799 -1.96698 0.76637 0
M  V30 2900 O 295.147 -2.27586 -0.204179 0
M  V30 2901 C 295.357 -1.31481 3.23286 0
M  V30 2902 C 296.705 -1.75563 3.86604 0
M  V30 2903 O 297.729 -1.41093 3.27065 0
M  V30 2904 O 296.588 -2.39317 4.91314 0
M  V30 2905 H 293.682 -0.393776 0.727234 0
M  V30 2906 H 296.228 -0.0717138 1.69548 0
M  V30 2907 H 295 -0.496671 3.88135 0
M  V30 2908 H 294.623 -2.12973 3.35751 0
M  V30 2909 N 295.62 -1.53406 -0.361157 0
M  V30 2910 C 296.567 -1.80156 -1.44265 0
M  V30 2911 C 297.537 -0.646183 -1.53015 0
M  V30 2912 O 298.722 -0.888818 -1.68833 0
M  V30 2913 C 295.862 -2.00116 -2.81154 0
M  V30 2914 C 294.975 -3.27833 -2.81335 0
M  V30 2915 C 294.11 -3.37957 -4.09828 0
M  V30 2916 C 293.149 -4.59689 -4.04168 0
M  V30 2917 N 292.286 -4.66942 -5.24318 0
M  V30 2918 H 297.126 -2.72438 -1.20754 0
M  V30 2919 H 294.663 -1.34954 -0.585296 0
M  V30 2920 H 296.621 -2.09677 -3.60682 0
M  V30 2921 H 295.251 -1.11167 -3.03054 0
M  V30 2922 H 294.303 -3.27204 -1.94014 0
M  V30 2923 H 295.615 -4.17442 -2.73027 0
M  V30 2924 H 294.769 -3.46853 -4.97773 0
M  V30 2925 H 293.508 -2.46372 -4.20894 0
M  V30 2926 H 292.513 -4.50889 -3.14609 0
M  V30 2927 H 293.738 -5.5262 -3.947 0
M  V30 2928 H 291.684 -3.7826 -5.35962 0
M  V30 2929 H 291.601 -5.50462 -5.18197 0
M  V30 2930 H 292.869 -4.80127 -6.14084 0
M  V30 2931 N 297.098 0.621204 -1.44841 0
M  V30 2932 C 298.061 1.71459 -1.521 0
M  V30 2933 C 299.061 1.55696 -0.401933 0
M  V30 2934 O 300.251 1.61011 -0.664925 0
M  V30 2935 C 297.383 3.10624 -1.40447 0
M  V30 2936 H 298.576 1.66394 -2.49506 0
M  V30 2937 H 296.129 0.835745 -1.3208 0
M  V30 2938 H 296.864 3.21277 -0.441737 0
M  V30 2939 H 296.649 3.23473 -2.21602 0
M  V30 2940 H 298.139 3.90293 -1.4853 0
M  V30 2941 N 298.576 1.31904 0.862503 0
M  V30 2942 C 299.801 1.25135 1.65397 0
M  V30 2943 C 300.226 -0.179 1.87246 0
M  V30 2944 O 299.584 -1.1277 1.4196 0
M  V30 2945 C 299.632 2.00832 2.99498 0
M  V30 2946 O 298.736 1.35075 3.89652 0
M  V30 2947 H 298.077 0.431655 0.504549 0
M  V30 2948 H 300.607 1.74094 1.07483 0
M  V30 2949 H 300.617 2.10709 3.49379 0
M  V30 2950 H 299.292 3.04847 2.82916 0
M  V30 2951 H 297.869 1.33696 3.48109 0
M  V30 2952 N 300.054 -1.07777 1.14986 0
M  V30 2953 C 301.294 -1.81888 0.932527 0
M  V30 2954 C 301.658 -1.84509 -0.531064 0
M  V30 2955 O 302.859 -2.54448 -0.866577 0
M  V30 2956 C 301.13 -3.23244 1.52473 0
M  V30 2957 S 302.689 -4.14154 1.44989 0
M  V30 2958 H 299.507 -0.626752 0.335712 0
M  V30 2959 H 302.109 -1.29503 1.46455 0
M  V30 2960 H 300.813 -3.18922 2.58296 0
M  V30 2961 H 300.344 -3.80704 0.991381 0
M  V30 2962 H 302.359 -4.94247 0.439799 0
M  V30 2963 N 301.532 -0.945985 -1.26051 0
M  V30 2964 C 302.442 -0.465633 -2.29933 0
M  V30 2965 C 303.458 0.462761 -1.67733 0
M  V30 2966 O 304.634 0.341118 -1.9849 0
M  V30 2967 C 301.699 0.256994 -3.45746 0
M  V30 2968 C 300.76 -0.708549 -4.23412 0
M  V30 2969 C 299.993 -0.0203135 -5.33696 0
M  V30 2970 O 300.216 1.19571 -5.57726 0
M  V30 2971 O 299.15 -0.701459 -5.97799 0
M  V30 2972 H 302.976 -1.32866 -2.73094 0
M  V30 2973 H 300.561 -0.712071 -1.31339 0
M  V30 2974 H 302.443 0.663852 -4.16138 0
M  V30 2975 H 301.118 1.09533 -3.04605 0
M  V30 2976 H 300.025 -1.16545 -3.55483 0
M  V30 2977 H 301.358 -1.51465 -4.68315 0
M  V30 2978 N 303.011 1.40521 -0.713556 0
M  V30 2979 C 304.288 1.94775 -0.17943 0
M  V30 2980 C 304.668 1.65184 1.31444 0
M  V30 2981 O 304.016 0.968429 2.06963 0
M  V30 2982 C 304.226 3.45543 -0.489986 0
M  V30 2983 C 305.574 4.22442 -0.427536 0
M  V30 2984 O 306.598 3.53644 -0.425929 0
M  V30 2985 O 305.457 5.4501 -0.403292 0
M  V30 2986 H 302.551 0.826606 -0.0255192 0
M  V30 2987 H 305.097 1.5014 -0.790949 0
M  V30 2988 H 303.869 3.60432 -1.5233 0
M  V30 2989 H 303.492 3.97311 0.151598 0
M  V30 2990 N 304.489 0.459591 1.5075 0
M  V30 2991 C 305.719 -0.0972338 2.06371 0
M  V30 2992 C 306.127 -1.35074 1.32483 0
M  V30 2993 O 305.47 -1.79637 0.384226 0
M  V30 2994 C 305.532 -0.462759 3.56509 0
M  V30 2995 C 305.196 0.687084 4.51805 0
M  V30 2996 C 306.193 1.56578 4.95761 0
M  V30 2997 C 303.878 0.874144 4.94635 0
M  V30 2998 C 305.872 2.61604 5.81242 0
M  V30 2999 C 303.559 1.92765 5.79901 0
M  V30 3000 C 304.557 2.79697 6.23104 0
M  V30 3001 O 304.245 3.83235 7.06673 0
M  V30 3002 H 303.977 -0.00140687 0.675999 0
M  V30 3003 H 306.531 0.644011 1.95043 0
M  V30 3004 H 304.761 -1.25703 3.65699 0
M  V30 3005 H 306.45 -0.953323 3.94546 0
M  V30 3006 H 307.216 1.4329 4.6335 0
M  V30 3007 H 303.095 0.207006 4.60535 0
M  V30 3008 H 306.639 3.29489 6.14884 0
M  V30 3009 H 302.536 2.06064 6.11725 0
M  V30 3010 H 303.304 3.80084 7.24899 0
M  V30 3011 N 305.967 -1.56429 0.191757 0
M  V30 3012 C 306.897 -2.21937 -0.725696 0
M  V30 3013 C 307.878 -1.1814 -1.2238 0
M  V30 3014 O 309.063 -1.46636 -1.27325 0
M  V30 3015 C 306.193 -2.87611 -1.94672 0
M  V30 3016 C 305.147 -3.97623 -1.58366 0
M  V30 3017 C 304.473 -4.50446 -2.88102 0
M  V30 3018 C 305.773 -5.16197 -0.796133 0
M  V30 3019 H 307.467 -2.98861 -0.179606 0
M  V30 3020 H 305.013 -1.43749 -0.0849464 0
M  V30 3021 H 306.966 -3.3212 -2.59373 0
M  V30 3022 H 305.69 -2.08087 -2.51728 0
M  V30 3023 H 304.349 -3.53801 -0.960247 0
M  V30 3024 H 303.997 -3.67688 -3.43241 0
M  V30 3025 H 303.697 -5.24675 -2.64556 0
M  V30 3026 H 305.221 -4.97654 -3.53798 0
M  V30 3027 H 306.635 -5.57271 -1.34618 0
M  V30 3028 H 305.032 -5.96471 -0.658928 0
M  V30 3029 H 306.102 -4.84473 0.203478 0
M  V30 3030 N 307.445 0.0818655 -1.57387 0
M  V30 3031 C 308.378 1.12986 -1.98266 0
M  V30 3032 C 309.356 1.38123 -0.857954 0
M  V30 3033 O 310.54 1.51663 -1.1194 0
M  V30 3034 C 307.667 2.47632 -2.31076 0
M  V30 3035 C 306.713 2.38693 -3.53452 0
M  V30 3036 S 307.546 1.79071 -5.04672 0
M  V30 3037 C 308.702 3.15316 -5.40673 0
M  V30 3038 H 308.935 0.781435 -2.86846 0
M  V30 3039 H 306.468 0.290034 -1.51651 0
M  V30 3040 H 308.426 3.25089 -2.50654 0
M  V30 3041 H 307.087 2.79638 -1.43043 0
M  V30 3042 H 306.28 3.37964 -3.73893 0
M  V30 3043 H 305.882 1.69369 -3.33452 0
M  V30 3044 H 308.174 4.11613 -5.38127 0
M  V30 3045 H 309.117 2.99664 -6.41566 0
M  V30 3046 H 309.525 3.15457 -4.68132 0
M  V30 3047 N 308.923 1.53595 0.353017 0
M  V30 3048 C 310.172 1.69603 1.09168 0
M  V30 3049 C 310.485 0.460925 1.90092 0
M  V30 3050 O 311.691 0.501774 2.66823 0
M  V30 3051 C 310.147 2.99872 1.9901 0
M  V30 3052 C 309.755 4.30687 1.23339 0
M  V30 3053 C 311.499 3.25246 2.72792 0
M  V30 3054 C 309.406 5.52036 2.12156 0
M  V30 3055 H 308.336 0.631966 0.411261 0
M  V30 3056 H 310.987 1.80096 0.351802 0
M  V30 3057 H 309.369 2.83212 2.7678 0
M  V30 3058 H 310.543 4.58019 0.505456 0
M  V30 3059 H 308.858 4.11853 0.613663 0
M  V30 3060 H 311.455 4.13095 3.39495 0
M  V30 3061 H 311.798 2.41846 3.38846 0
M  V30 3062 H 312.331 3.42638 2.021 0
M  V30 3063 H 309.07 6.37951 1.50659 0
M  V30 3064 H 308.59 5.28966 2.82764 0
M  V30 3065 H 310.269 5.87313 2.71427 0
M  V30 3066 N 310.401 -0.613514 1.45168 0
M  V30 3067 C 311.626 -1.40437 1.52618 0
M  V30 3068 C 312.051 -1.87438 0.157707 0
M  V30 3069 O 311.409 -1.59791 -0.856537 0
M  V30 3070 C 311.457 -2.58894 2.51011 0
M  V30 3071 O 310.561 -3.59326 2.02382 0
M  V30 3072 H 309.902 -0.419506 0.514695 0
M  V30 3073 H 312.432 -0.747215 1.90467 0
M  V30 3074 H 312.442 -3.06214 2.69624 0
M  V30 3075 H 311.117 -2.24032 3.50403 0
M  V30 3076 H 309.694 -3.18695 1.93618 0
M  V30 3077 N 311.879 -1.3236 -0.855495 0
M  V30 3078 C 312.809 -1.23833 -1.97958 0
M  V30 3079 C 313.79 -0.122361 -1.69659 0
M  V30 3080 O 314.975 -0.30939 -1.9172 0
M  V30 3081 C 312.105 -0.959772 -3.33775 0
M  V30 3082 C 311.059 -2.03689 -3.76424 0
M  V30 3083 C 310.385 -1.61075 -5.09862 0
M  V30 3084 C 311.685 -3.4518 -3.9198 0
M  V30 3085 H 313.379 -2.1788 -2.0535 0
M  V30 3086 H 310.925 -1.04891 -0.986605 0
M  V30 3087 H 312.878 -0.886678 -4.11966 0
M  V30 3088 H 311.602 0.0163404 -3.26596 0
M  V30 3089 H 310.261 -2.10012 -3.00484 0
M  V30 3090 H 309.909 -0.622107 -4.99138 0
M  V30 3091 H 309.609 -2.33143 -5.39368 0
M  V30 3092 H 311.133 -1.55201 -5.90546 0
M  V30 3093 H 312.547 -3.4145 -4.60526 0
M  V30 3094 H 310.944 -4.1559 -4.32903 0
M  V30 3095 H 312.014 -3.84903 -2.94919 0
M  V30 3096 N 313.357 1.07166 -1.15556 0
M  V30 3097 C 314.634 1.76546 -0.842069 0
M  V30 3098 C 315.014 2.00453 0.661939 0
M  V30 3099 O 314.362 1.62452 1.60691 0
M  V30 3100 C 314.572 3.07266 -1.65495 0
M  V30 3101 C 315.92 3.81578 -1.86234 0
M  V30 3102 O 316.944 3.17083 -1.62287 0
M  V30 3103 O 315.803 4.97419 -2.26355 0
M  V30 3104 H 312.897 0.766756 -0.309862 0
M  V30 3105 H 315.443 1.13514 -1.26145 0
M  V30 3106 H 314.215 2.85494 -2.67598 0
M  V30 3107 H 313.838 3.7803 -1.23203 0
M  V30 3108 N 314.835 0.952656 1.25548 0
M  V30 3109 C 316.112 0.523818 1.88456 0
M  V30 3110 C 316.492 -0.998871 1.85973 0
M  V30 3111 O 315.84 -1.86381 1.3219 0
M  V30 3112 C 316.05 1.0982 3.31271 0
M  V30 3113 C 317.398 1.17385 4.08051 0
M  V30 3114 O 318.422 1.04961 3.40384 0
M  V30 3115 O 317.281 1.36852 5.29088 0
M  V30 3116 H 314.375 0.172485 0.808813 0
M  V30 3117 H 316.921 1.04596 1.33633 0
M  V30 3118 H 315.693 2.1415 3.27499 0
M  V30 3119 H 315.316 0.559191 3.93648 0
M  V30 3120 N 316.313 -1.40141 0.720998 0
M  V30 3121 C 317.276 -2.29058 0.0805834 0
M  V30 3122 C 318.276 -1.45632 -0.681758 0
M  V30 3123 O 319.466 -1.6648 -0.512856 0
M  V30 3124 C 316.598 -3.28925 -0.895593 0
M  V30 3125 H 317.791 -2.87191 0.863793 0
M  V30 3126 H 315.344 -1.48553 0.485975 0
M  V30 3127 H 316.079 -2.75822 -1.70566 0
M  V30 3128 H 315.864 -3.90519 -0.351766 0
M  V30 3129 H 317.354 -3.95494 -1.34069 0
M  V30 3130 N 317.792 -0.46758 -1.50504 0
M  V30 3131 C 319.04 0.0884469 -2.01906 0
M  V30 3132 C 319.361 1.40532 -1.35188 0
M  V30 3133 O 318.631 1.89515 -0.496079 0
M  V30 3134 H 317.211 0.0356765 -0.746148 0
M  V30 3135 H 319.873 -0.6172 -1.84869 0
M  V30 3136 H 318.969 0.2425 -3.11156 0
M  V30 3137 N 319.27 1.56325 -0.20005 0
M  V30 3138 C 320.217 2.1932 0.718833 0
M  V30 3139 C 321.187 1.14198 1.20615 0
M  V30 3140 O 322.372 1.42469 1.26914 0
M  V30 3141 C 319.512 2.86041 1.93066 0
M  V30 3142 C 318.625 4.05702 1.48425 0
M  V30 3143 C 317.76 4.60266 2.65196 0
M  V30 3144 C 316.799 5.72273 2.17185 0
M  V30 3145 N 315.936 6.21221 3.27152 0
M  V30 3146 H 320.776 2.97486 0.17489 0
M  V30 3147 H 318.313 1.46911 0.0745794 0
M  V30 3148 H 320.271 3.22897 2.64184 0
M  V30 3149 H 318.901 2.1043 2.44783 0
M  V30 3150 H 317.953 3.74475 0.668755 0
M  V30 3151 H 319.265 4.86699 1.09204 0
M  V30 3152 H 318.419 4.99453 3.4443 0
M  V30 3153 H 317.158 3.78386 3.07693 0
M  V30 3154 H 316.163 5.3261 1.36407 0
M  V30 3155 H 317.388 6.55974 1.75713 0
M  V30 3156 H 315.334 5.42263 3.69171 0
M  V30 3157 H 315.251 6.97284 2.92116 0
M  V30 3158 H 316.519 6.65063 4.06585 0
M  V30 3159 N 320.748 -0.0735177 1.57428 0
M  V30 3160 C 321.997 -0.771809 1.86349 0
M  V30 3161 C 322.31 -1.78828 0.792452 0
M  V30 3162 O 323.516 -2.53602 0.96945 0
M  V30 3163 C 321.972 -1.42358 3.30548 0
M  V30 3164 C 321.58 -0.445761 4.45777 0
M  V30 3165 C 323.324 -2.10434 3.6867 0
M  V30 3166 C 321.231 -1.10335 5.81016 0
M  V30 3167 H 320.161 -0.291999 0.695164 0
M  V30 3168 H 322.812 -0.0250749 1.83483 0
M  V30 3169 H 321.194 -2.21852 3.28021 0
M  V30 3170 H 322.368 0.319239 4.59693 0
M  V30 3171 H 320.683 0.130457 4.16196 0
M  V30 3172 H 323.28 -2.60405 4.67004 0
M  V30 3173 H 323.623 -2.90298 2.98383 0
M  V30 3174 H 324.156 -1.37773 3.7318 0
M  V30 3175 H 320.895 -0.345061 6.54591 0
M  V30 3176 H 320.415 -1.83925 5.70904 0
M  V30 3177 H 322.094 -1.62367 6.26295 0
M  V30 3178 N 322.226 -1.5378 -0.344866 0
M  V30 3179 C 323.136 -1.84667 -1.4469 0
M  V30 3180 C 324.152 -0.736704 -1.57635 0
M  V30 3181 O 325.328 -1.02888 -1.73136 0
M  V30 3182 C 322.393 -2.04869 -2.79696 0
M  V30 3183 C 321.454 -3.28731 -2.76106 0
M  V30 3184 C 320.687 -3.4796 -4.04673 0
M  V30 3185 O 320.91 -2.71052 -5.01883 0
M  V30 3186 O 319.844 -4.41383 -4.09224 0
M  V30 3187 H 323.67 -2.78334 -1.21506 0
M  V30 3188 H 321.255 -1.39418 -0.536921 0
M  V30 3189 H 323.137 -2.19609 -3.59652 0
M  V30 3190 H 321.812 -1.14391 -3.02814 0
M  V30 3191 H 320.719 -3.19396 -1.94774 0
M  V30 3192 H 322.052 -4.19198 -2.57941 0
M  V30 3193 N 323.704 0.605807 -1.45491 0
M  V30 3194 C 324.654 1.71074 -1.50724 0
M  V30 3195 C 325.638 1.5658 -0.37033 0
M  V30 3196 O 326.83 1.65887 -0.617299 0
M  V30 3197 C 323.959 3.0983 -1.47852 0
M  V30 3198 C 323.045 3.29704 -2.66751 0
M  V30 3199 N 323.436 3.19831 -3.91844 0
M  V30 3200 C 321.734 3.60579 -2.62486 0
M  V30 3201 C 322.435 3.41083 -4.71208 0
M  V30 3202 N 321.411 3.65157 -4.02693 0
M  V30 3203 H 325.213 1.61937 -2.45263 0
M  V30 3204 H 322.727 0.80912 -1.40808 0
M  V30 3205 H 324.724 3.89101 -1.49686 0
M  V30 3206 H 323.384 3.20115 -0.543714 0
M  V30 3207 H 324.395 2.98194 -4.23439 0
M  V30 3208 H 321.072 3.7769 -1.77922 0
M  V30 3209 H 322.462 3.38828 -5.80211 0
M  V30 3210 N 325.182 1.32811 0.848464 0
M  V30 3211 C 326.459 1.14334 1.58704 0
M  V30 3212 C 326.839 -0.293948 2.09043 0
M  V30 3213 O 326.187 -1.29153 1.88499 0
M  V30 3214 C 326.397 2.17626 2.72837 0
M  V30 3215 C 327.745 2.51282 3.42261 0
M  V30 3216 O 328.769 2.16219 2.83068 0
M  V30 3217 O 327.628 3.11413 4.49093 0
M  V30 3218 H 324.722 0.441601 0.699226 0
M  V30 3219 H 327.268 1.44362 0.892053 0
M  V30 3220 H 326.04 3.14211 2.3321 0
M  V30 3221 H 325.663 1.88628 3.50008 0
M  V30 3222 N 326.66 -1.06551 1.16123 0
M  V30 3223 C 327.908 -1.78947 0.939267 0
M  V30 3224 C 328.229 -1.87532 -0.534476 0
M  V30 3225 O 327.499 -1.38211 -1.38833 0
M  V30 3226 H 326.079 -0.662807 0.344523 0
M  V30 3227 H 328.741 -1.28725 1.46342 0
M  V30 3228 H 327.837 -2.81117 1.35572 0
M  V30 3229 N 328.138 -0.959301 -1.25041 0
M  V30 3230 C 329.363 -0.633507 -1.97488 0
M  V30 3231 C 329.788 0.788555 -1.70773 0
M  V30 3232 O 329.146 1.53394 -0.966431 0
M  V30 3233 C 329.194 -0.904057 -3.49083 0
M  V30 3234 O 328.298 0.0147939 -4.12397 0
M  V30 3235 H 327.639 -0.240368 -0.618966 0
M  V30 3236 H 330.169 -1.28717 -1.59038 0
M  V30 3237 H 330.179 -0.832203 -3.99423 0
M  V30 3238 H 328.854 -1.94048 -3.67856 0
M  V30 3239 H 327.431 -0.109664 -3.72739 0
M  V30 3240 N 329.616 1.39756 -0.72842 0
M  V30 3241 C 330.844 2.04948 -0.283528 0
M  V30 3242 C 331.259 1.54908 1.0793 0
M  V30 3243 O 330.616 0.711135 1.68075 0
M  V30 3244 C 330.667 3.60498 -0.268957 0
M  V30 3245 O 330.388 4.08695 -1.57798 0
M  V30 3246 C 331.889 4.4288 0.192912 0
M  V30 3247 H 329.109 0.659243 -0.125056 0
M  V30 3248 H 331.653 1.78927 -0.990226 0
M  V30 3249 H 329.808 3.85444 0.388801 0
M  V30 3250 H 330.222 5.02977 -1.48709 0
M  V30 3251 H 331.696 5.51791 0.151952 0
M  V30 3252 H 332.173 4.21418 1.23708 0
M  V30 3253 H 332.779 4.23069 -0.435039 0
M  V30 3254 N 331.094 0.475555 1.50254 0
M  V30 3255 C 332.342 -0.077738 2.0195 0
M  V30 3256 C 332.663 -1.39813 1.35931 0
M  V30 3257 O 331.933 -1.89249 0.506123 0
M  V30 3258 H 330.513 -0.031719 0.746326 0
M  V30 3259 H 333.175 0.626995 1.84539 0
M  V30 3260 H 332.271 -0.225995 3.11281 0
M  V30 3261 N 332.573 -1.56217 0.208337 0
M  V30 3262 C 333.819 -1.98242 -0.427552 0
M  V30 3263 C 334.152 -1.09554 -1.60348 0
M  V30 3264 O 333.427 -0.15035 -1.93918 0
M  V30 3265 C 333.71 -3.4931 -0.874907 0
M  V30 3266 C 333.563 -4.48773 0.303751 0
M  V30 3267 C 334.882 -4.04424 -1.73577 0
M  V30 3268 H 332.001 -0.720744 -0.153936 0
M  V30 3269 H 334.643 -1.87586 0.30192 0
M  V30 3270 H 332.793 -3.58522 -1.49648 0
M  V30 3271 H 334.465 -4.51586 0.941682 0
M  V30 3272 H 332.708 -4.23194 0.953375 0
M  V30 3273 H 333.379 -5.51976 -0.0519883 0
M  V30 3274 H 335.855 -3.98075 -1.21143 0
M  V30 3275 H 334.731 -5.1047 -2.01771 0
M  V30 3276 H 334.992 -3.50494 -2.69456 0
M  V30 3277 N 334.051 0.0651679 -1.57465 0
M  V30 3278 C 335.279 0.775808 -1.91804 0
M  V30 3279 C 335.694 1.70782 -0.804916 0
M  V30 3280 O 335.051 1.81153 0.221311 0
M  V30 3281 C 335.102 1.56381 -3.25925 0
M  V30 3282 O 334.823 0.669248 -4.32958 0
M  V30 3283 C 336.324 2.37485 -3.7432 0
M  V30 3284 H 333.544 0.2202 -0.63384 0
M  V30 3285 H 336.088 0.0334587 -2.04473 0
M  V30 3286 H 334.243 2.25837 -3.14764 0
M  V30 3287 H 334.657 1.21801 -5.10162 0
M  V30 3288 H 336.131 2.88223 -4.70778 0
M  V30 3289 H 336.608 3.17307 -3.03666 0
M  V30 3290 H 337.214 1.73173 -3.88447 0
M  V30 3291 N 335.529 1.53961 0.336706 0
M  V30 3292 C 336.778 1.70751 1.07363 0
M  V30 3293 C 337.091 0.481061 1.89592 0
M  V30 3294 O 338.297 0.530046 2.66276 0
M  V30 3295 C 336.753 3.01965 1.95818 0
M  V30 3296 C 336.361 4.31971 1.18764 0
M  V30 3297 C 338.105 3.28121 2.69327 0
M  V30 3298 C 336.012 5.54255 2.06289 0
M  V30 3299 H 334.942 0.636292 0.404535 0
M  V30 3300 H 337.593 1.80459 0.332681 0
M  V30 3301 H 335.975 2.86132 2.7376 0
M  V30 3302 H 337.149 4.5853 0.456849 0
M  V30 3303 H 335.464 4.12481 0.569946 0
M  V30 3304 H 338.061 4.16673 3.35094 0
M  V30 3305 H 338.404 2.45426 3.36261 0
M  V30 3306 H 338.937 3.44762 1.98454 0
M  V30 3307 H 335.676 6.39513 1.43885 0
M  V30 3308 H 335.196 5.31935 2.77138 0
M  V30 3309 H 336.875 5.90159 2.65182 0
M  V30 3310 N 337.007 -0.598083 1.45811 0
M  V30 3311 C 338.284 -1.35777 1.40797 0
M  V30 3312 C 338.664 -2.10935 0.083462 0
M  V30 3313 O 338.012 -2.08505 -0.934763 0
M  V30 3314 C 338.222 -2.29666 2.62783 0
M  V30 3315 C 339.57 -2.91977 3.08277 0
M  V30 3316 O 340.594 -2.39984 2.63223 0
M  V30 3317 O 339.453 -3.86376 3.86491 0
M  V30 3318 H 336.547 -0.609291 0.55919 0
M  V30 3319 H 339.093 -0.620379 1.57954 0
M  V30 3320 H 337.865 -1.73454 3.50756 0
M  V30 3321 H 337.488 -3.1077 2.48008 0
M  V30 3322 N 338.485 -1.33259 -0.841409 0
M  V30 3323 C 339.448 -1.23221 -1.9326 0
M  V30 3324 C 340.448 -0.151895 -1.60081 0
M  V30 3325 O 341.638 -0.403246 -1.69468 0
M  V30 3326 C 338.77 -0.898123 -3.28856 0
M  V30 3327 H 339.963 -2.2021 -2.03587 0
M  V30 3328 H 337.516 -1.17281 -1.03319 0
M  V30 3329 H 338.251 0.0693841 -3.24226 0
M  V30 3330 H 338.036 -1.67934 -3.54317 0
M  V30 3331 H 339.526 -0.852563 -4.08805 0
M  V30 3332 N 339.963 1.05934 -1.16686 0
M  V30 3333 C 340.873 2.17014 -0.891183 0
M  V30 3334 C 341.889 1.73453 0.137907 0
M  V30 3335 O 343.065 2.01361 -0.039592 0
M  V30 3336 C 340.13 3.44384 -0.400099 0
M  V30 3337 C 339.191 4.02433 -1.49486 0
M  V30 3338 C 338.424 5.23723 -1.02711 0
M  V30 3339 O 338.647 5.7027 0.121716 0
M  V30 3340 O 337.581 5.7382 -1.81699 0
M  V30 3341 H 341.407 2.43113 -1.82015 0
M  V30 3342 H 338.992 1.15541 -0.947132 0
M  V30 3343 H 340.874 4.21189 -0.133392 0
M  V30 3344 H 339.549 3.19802 0.500817 0
M  V30 3345 H 338.456 3.27102 -1.81535 0
M  V30 3346 H 339.789 4.31317 -2.37121 0
M  V30 3347 N 341.441 0.965919 1.2453 0
M  V30 3348 C 342.666 0.643971 1.97149 0
M  V30 3349 C 343.091 -0.779487 1.71189 0
M  V30 3350 O 342.449 -1.5288 0.974553 0
M  V30 3351 C 342.497 0.922557 3.48599 0
M  V30 3352 O 341.601 0.00707672 4.12399 0
M  V30 3353 H 340.942 0.243647 0.617683 0
M  V30 3354 H 343.472 1.29558 1.58353 0
M  V30 3355 H 343.482 0.853373 3.98976 0
M  V30 3356 H 342.157 1.95996 3.66822 0
M  V30 3357 H 340.734 0.12943 3.72675 0
M  V30 3358 N 342.919 -1.39368 0.735821 0
M  V30 3359 C 343.829 -2.34395 0.0979693 0
M  V30 3360 C 344.845 -1.58361 -0.720968 0
M  V30 3361 O 346.021 -1.90648 -0.649245 0
M  V30 3362 C 343.086 -3.37393 -0.797916 0
M  V30 3363 C 342.147 -4.29287 0.0333662 0
M  V30 3364 C 341.38 -5.27365 -0.819854 0
M  V30 3365 O 341.603 -5.31959 -2.05855 0
M  V30 3366 O 340.537 -6.01389 -0.248079 0
M  V30 3367 H 344.363 -2.90601 0.882315 0
M  V30 3368 H 341.948 -1.40909 0.4965 0
M  V30 3369 H 343.83 -4.00505 -1.31048 0
M  V30 3370 H 342.505 -2.83571 -1.56106 0
M  V30 3371 H 341.412 -3.69395 0.591475 0
M  V30 3372 H 342.745 -4.86317 0.758752 0
M  V30 3373 N 344.397 -0.483516 -1.5 0
M  V30 3374 C 345.33 0.350427 -2.25493 0
M  V30 3375 C 346.308 0.985549 -1.29328 0
M  V30 3376 O 347.492 1.01906 -1.58579 0
M  V30 3377 C 344.619 1.49202 -3.04066 0
M  V30 3378 C 343.665 0.973036 -4.15252 0
M  V30 3379 S 344.498 -0.122237 -5.3536 0
M  V30 3380 C 345.654 1.02294 -6.17484 0
M  V30 3381 H 345.887 -0.290381 -2.95878 0
M  V30 3382 H 343.42 -0.268562 -1.52046 0
M  V30 3383 H 345.378 2.14623 -3.49925 0
M  V30 3384 H 344.039 2.10438 -2.33183 0
M  V30 3385 H 343.232 1.82804 -4.69679 0
M  V30 3386 H 342.834 0.396335 -3.71894 0
M  V30 3387 H 345.126 1.93195 -6.49371 0
M  V30 3388 H 346.069 0.517664 -7.06205 0
M  V30 3389 H 346.477 1.28238 -5.49741 0
M  V30 3390 N 345.875 1.56104 -0.216619 0
M  V30 3391 C 347.152 1.89988 0.465165 0
M  V30 3392 C 347.532 1.13326 1.78102 0
M  V30 3393 O 346.88 0.241033 2.27225 0
M  V30 3394 C 347.09 3.42646 0.662939 0
M  V30 3395 C 348.438 4.13311 0.972602 0
M  V30 3396 O 349.462 3.48217 0.749901 0
M  V30 3397 O 348.321 5.28396 1.39499 0
M  V30 3398 H 345.415 0.78979 0.245276 0
M  V30 3399 H 347.961 1.67721 -0.258436 0
M  V30 3400 H 346.733 3.90399 -0.26543 0
M  V30 3401 H 346.356 3.70677 1.43821 0
M  V30 3402 N 347.353 -0.0568162 1.57498 0
M  V30 3403 C 348.764 -0.606858 1.76562 0
M  V30 3404 C 349.115 -1.77114 0.844094 0
M  V30 3405 O 348.24 -2.16376 0.0318911 0
M  V30 3406 C 348.835 -1.10766 3.20182 0
M  V30 3407 C 347.394 -1.60344 3.40539 0
M  V30 3408 C 346.541 -0.529311 2.72201 0
M  V30 3409 H 349.492 0.169393 1.57793 0
M  V30 3410 H 349.513 -1.97602 3.25167 0
M  V30 3411 H 349.025 -0.26006 3.87228 0
M  V30 3412 H 347.126 -2.47379 2.78629 0
M  V30 3413 H 347.239 -1.67006 4.4905 0
M  V30 3414 H 345.603 -0.977893 2.35179 0
M  V30 3415 H 346.386 0.308352 3.41912 0
M  V30 3416 N 348.832 -1.54138 -0.328536 0
M  V30 3417 C 350.072 -1.73827 -1.07534 0
M  V30 3418 C 350.436 -0.498777 -1.85408 0
M  V30 3419 O 351.637 -0.572937 -2.62623 0
M  V30 3420 C 349.908 -2.97573 -1.97952 0
M  V30 3421 S 351.467 -3.38143 -2.79652 0
M  V30 3422 H 348.285 -0.611287 -0.36311 0
M  V30 3423 H 350.887 -1.92306 -0.351931 0
M  V30 3424 H 349.591 -3.85939 -1.39569 0
M  V30 3425 H 349.122 -2.81603 -2.74706 0
M  V30 3426 H 351.137 -2.93052 -4.00418 0
M  V30 3427 N 350.31 0.590341 -1.46126 0
M  V30 3428 C 351.257 1.69994 -1.56111 0
M  V30 3429 C 352.227 1.61065 -0.405867 0
M  V30 3430 O 353.412 1.8039 -0.621613 0
M  V30 3431 C 350.552 3.08326 -1.55013 0
M  V30 3432 C 349.665 3.27936 -2.81215 0
M  V30 3433 C 348.8 4.56473 -2.71673 0
M  V30 3434 C 347.839 4.694 -3.92849 0
M  V30 3435 N 346.976 5.89254 -3.81738 0
M  V30 3436 H 351.816 1.60797 -2.50895 0
M  V30 3437 H 349.353 0.783799 -1.24479 0
M  V30 3438 H 351.311 3.88383 -1.52362 0
M  V30 3439 H 349.941 3.16439 -0.637667 0
M  V30 3440 H 348.993 2.41536 -2.93879 0
M  V30 3441 H 350.305 3.33357 -3.71045 0
M  V30 3442 H 349.459 5.44748 -2.67085 0
M  V30 3443 H 348.198 4.53477 -1.7947 0
M  V30 3444 H 347.203 3.79544 -3.97777 0
M  V30 3445 H 348.428 4.7418 -4.86138 0
M  V30 3446 H 346.374 5.87271 -2.92317 0
M  V30 3447 H 346.291 5.95911 -4.65217 0
M  V30 3448 H 347.559 6.79981 -3.81112 0
M  V30 3449 N 351.788 1.33704 0.83433 0
M  V30 3450 C 353.034 1.25603 1.59222 0
M  V30 3451 C 353.367 -0.176659 1.93395 0
M  V30 3452 O 352.642 -1.11915 1.59076 0
M  V30 3453 C 352.925 2.13576 2.89926 0
M  V30 3454 C 352.778 3.65326 2.62406 0
M  V30 3455 C 354.097 2.01238 3.91397 0
M  V30 3456 H 351.216 0.457613 0.577719 0
M  V30 3457 H 353.858 1.63848 0.961972 0
M  V30 3458 H 352.008 1.8109 3.43713 0
M  V30 3459 H 353.68 4.08124 2.15017 0
M  V30 3460 H 351.923 3.8698 1.96033 0
M  V30 3461 H 352.594 4.22232 3.55562 0
M  V30 3462 H 355.07 2.29738 3.46929 0
M  V30 3463 H 353.946 2.65036 4.80673 0
M  V30 3464 H 354.207 0.985951 4.30966 0
M  V30 3465 N 353.266 -1.05314 1.17247 0
M  V30 3466 C 354.543 -1.75184 0.87005 0
M  V30 3467 C 354.923 -2.01481 -0.629965 0
M  V30 3468 O 354.271 -1.64988 -1.58086 0
M  V30 3469 C 354.481 -3.04594 1.70363 0
M  V30 3470 C 355.829 -3.78567 1.92281 0
M  V30 3471 O 356.853 -3.14461 1.67311 0
M  V30 3472 O 355.712 -4.93755 2.3424 0
M  V30 3473 H 352.806 -0.761729 0.322021 0
M  V30 3474 H 355.352 -1.11493 1.27935 0
M  V30 3475 H 354.124 -2.81201 2.72106 0
M  V30 3476 H 353.747 -3.76022 1.29202 0
M  V30 3477 N 354.744 -0.972509 -1.24016 0
M  V30 3478 C 355.969 -0.654417 -1.96805 0
M  V30 3479 C 356.394 0.770398 -1.716 0
M  V30 3480 O 355.752 1.52361 -0.982647 0
M  V30 3481 C 355.8 -0.941031 -3.48105 0
M  V30 3482 O 354.904 -0.0289472 -4.1239 0
M  V30 3483 H 354.245 -0.24692 -0.616382 0
M  V30 3484 H 356.775 -1.30396 -1.57664 0
M  V30 3485 H 356.785 -0.87452 -3.98517 0
M  V30 3486 H 355.46 -1.97939 -3.65777 0
M  V30 3487 H 354.037 -0.149192 -3.72601 0
M  V30 3488 N 356.222 1.38976 -0.743202 0
M  V30 3489 C 357.45 2.04636 -0.30525 0
M  V30 3490 C 357.865 1.56044 1.06281 0
M  V30 3491 O 357.222 0.728921 1.67311 0
M  V30 3492 C 357.273 3.60193 -0.307177 0
M  V30 3493 O 356.994 4.06998 -1.62124 0
M  V30 3494 C 358.495 4.4306 0.145928 0
M  V30 3495 H 355.715 0.65788 -0.132041 0
M  V30 3496 H 358.259 1.77866 -1.00915 0
M  V30 3497 H 356.414 3.85835 0.347898 0
M  V30 3498 H 356.828 5.01371 -1.54036 0
M  V30 3499 H 358.302 5.51921 0.0934183 0
M  V30 3500 H 358.779 4.22706 1.19231 0
M  V30 3501 H 359.385 4.22584 -0.479886 0
M  V30 3502 N 357.7 0.491464 1.49741 0
M  V30 3503 C 358.94 -0.0549118 2.04326 0
M  V30 3504 C 359.304 -1.35148 1.36378 0
M  V30 3505 O 360.505 -1.9815 1.81631 0
M  V30 3506 C 358.776 -0.213841 3.5676 0
M  V30 3507 S 360.335 -0.715839 4.32922 0
M  V30 3508 H 357.153 -0.00630513 0.710972 0
M  V30 3509 H 359.755 0.663257 1.83905 0
M  V30 3510 H 358.459 0.73527 4.0376 0
M  V30 3511 H 357.99 -0.957529 3.81569 0
M  V30 3512 H 360.005 -1.9864 4.54705 0
M  V30 3513 N 359.178 -1.55987 0.224894 0
M  V30 3514 C 360.589 -1.84553 -0.282345 0
M  V30 3515 C 360.94 -1.14634 -1.59227 0
M  V30 3516 O 360.065 -0.417155 -2.12341 0
M  V30 3517 C 360.66 -3.348 -0.519062 0
M  V30 3518 C 359.219 -3.63671 -0.970604 0
M  V30 3519 C 358.366 -2.77277 -0.0355261 0
M  V30 3520 H 361.317 -1.52245 0.448006 0
M  V30 3521 H 361.338 -3.55187 -1.36463 0
M  V30 3522 H 360.85 -3.8566 0.43449 0
M  V30 3523 H 358.951 -3.1827 -1.9374 0
M  V30 3524 H 359.064 -4.71631 -0.842698 0
M  V30 3525 H 357.428 -2.48846 -0.542927 0
M  V30 3526 H 358.211 -3.30937 0.913003 0
M  V30 3527 N 360.656 0.0484629 -1.57525 0
M  V30 3528 C 361.566 1.07241 -2.08654 0
M  V30 3529 C 362.582 1.409 -1.02095 0
M  V30 3530 O 363.758 1.50609 -1.33712 0
M  V30 3531 C 360.823 2.36008 -2.5397 0
M  V30 3532 C 359.884 2.09108 -3.7493 0
M  V30 3533 C 359.117 3.31736 -4.18075 0
M  V30 3534 O 359.34 4.41714 -3.60895 0
M  V30 3535 O 358.274 3.18576 -5.10679 0
M  V30 3536 H 362.1 0.667965 -2.96263 0
M  V30 3537 H 359.685 0.26417 -1.47046 0
M  V30 3538 H 361.567 3.11747 -2.83535 0
M  V30 3539 H 360.242 2.75786 -1.69481 0
M  V30 3540 H 359.149 1.31 -3.50414 0
M  V30 3541 H 360.482 1.74198 -4.60343 0
M  V30 3542 N 362.134 1.5431 0.320358 0
M  V30 3543 C 363.38 1.72924 1.05949 0
M  V30 3544 C 363.713 0.503185 1.87568 0
M  V30 3545 O 362.988 -0.499839 1.87968 0
M  V30 3546 C 363.271 3.00676 1.98156 0
M  V30 3547 C 363.124 4.3354 1.19845 0
M  V30 3548 C 364.443 3.24198 2.9763 0
M  V30 3549 H 361.562 0.629195 0.383774 0
M  V30 3550 H 364.204 1.87008 0.335854 0
M  V30 3551 H 362.354 2.888 2.59859 0
M  V30 3552 H 364.026 4.57305 0.605773 0
M  V30 3553 H 362.269 4.309 0.500784 0
M  V30 3554 H 362.94 5.19156 1.87567 0
M  V30 3555 H 365.416 3.35557 2.4605 0
M  V30 3556 H 364.292 4.14938 3.59329 0
M  V30 3557 H 364.553 2.41577 3.7026 0
M  V30 3558 N 363.613 -0.582584 1.46437 0
M  V30 3559 C 364.862 -1.337 1.5102 0
M  V30 3560 C 365.175 -1.94891 0.166359 0
M  V30 3561 O 366.381 -2.71351 0.0899954 0
M  V30 3562 C 364.837 -2.42315 2.66104 0
M  V30 3563 C 364.445 -1.87427 4.06909 0
M  V30 3564 C 366.189 -3.19099 2.79958 0
M  V30 3565 C 364.096 -2.93672 5.13333 0
M  V30 3566 H 363.026 -0.502619 0.562041 0
M  V30 3567 H 365.677 -0.621701 1.72647 0
M  V30 3568 H 364.059 -3.16645 2.37807 0
M  V30 3569 H 365.233 -1.19639 4.44998 0
M  V30 3570 H 363.548 -1.2331 3.97723 0
M  V30 3571 H 366.145 -3.9839 3.56636 0
M  V30 3572 H 366.488 -3.71695 1.87479 0
M  V30 3573 H 367.021 -2.51875 3.07902 0
M  V30 3574 H 363.76 -2.45962 6.07604 0
M  V30 3575 H 363.28 -3.59948 4.79789 0
M  V30 3576 H 364.959 -3.5762 5.39182 0
M  V30 3577 N 365.091 -1.34144 -0.827227 0
M  V30 3578 C 366.038 -1.25364 -1.93785 0
M  V30 3579 C 367.008 -0.129774 -1.65592 0
M  V30 3580 O 368.193 -0.310024 -1.88264 0
M  V30 3581 C 365.333 -1.01064 -3.2997 0
M  V30 3582 C 364.446 -2.22185 -3.70484 0
M  V30 3583 C 363.581 -1.91203 -4.95595 0
M  V30 3584 C 362.62 -3.08491 -5.28677 0
M  V30 3585 N 361.757 -2.77421 -6.44967 0
M  V30 3586 H 366.597 -2.20347 -2.00627 0
M  V30 3587 H 364.134 -1.09558 -0.981608 0
M  V30 3588 H 366.092 -0.850139 -4.08446 0
M  V30 3589 H 364.722 -0.0975026 -3.22653 0
M  V30 3590 H 363.774 -2.4917 -2.87434 0
M  V30 3591 H 365.086 -3.0983 -3.90905 0
M  V30 3592 H 364.24 -1.71864 -5.81848 0
M  V30 3593 H 362.979 -1.00812 -4.77167 0
M  V30 3594 H 361.984 -3.28431 -4.40923 0
M  V30 3595 H 363.209 -3.99655 -5.49047 0
M  V30 3596 H 361.155 -1.89601 -6.28003 0
M  V30 3597 H 361.072 -3.58598 -6.6554 0
M  V30 3598 H 362.34 -2.61577 -7.34301 0
M  V30 3599 N 366.569 1.04691 -1.17803 0
M  V30 3600 C 367.815 1.78045 -0.970969 0
M  V30 3601 C 368.148 1.87686 0.498751 0
M  V30 3602 O 367.423 1.38035 1.37027 0
M  V30 3603 C 367.706 3.2166 -1.61884 0
M  V30 3604 C 367.559 3.20001 -3.161 0
M  V30 3605 C 368.878 4.1962 -1.3269 0
M  V30 3606 H 365.997 0.64633 -0.354155 0
M  V30 3607 H 368.639 1.22333 -1.45378 0
M  V30 3608 H 366.789 3.69232 -1.20831 0
M  V30 3609 H 368.461 2.80467 -3.66246 0
M  V30 3610 H 366.704 2.58203 -3.48588 0
M  V30 3611 H 367.375 4.21386 -3.56564 0
M  V30 3612 H 369.851 3.80567 -1.68249 0
M  V30 3613 H 368.727 5.18339 -1.80599 0
M  V30 3614 H 368.988 4.414 -0.248622 0
M  V30 3615 N 368.047 0.979072 1.23499 0
M  V30 3616 C 369.277 0.664237 1.95631 0
M  V30 3617 C 369.685 -0.772653 1.72704 0
M  V30 3618 O 369.028 -1.53141 1.01457 0
M  V30 3619 C 369.09 0.873115 3.48736 0
M  V30 3620 C 368.754 2.29182 3.95379 0
M  V30 3621 C 369.751 3.2704 4.04155 0
M  V30 3622 C 367.436 2.62256 4.28401 0
M  V30 3623 C 369.43 4.56052 4.45304 0
M  V30 3624 C 367.117 3.91491 4.69231 0
M  V30 3625 C 368.115 4.88201 4.77649 0
M  V30 3626 O 367.803 6.15129 5.17563 0
M  V30 3627 H 367.535 0.245915 0.629684 0
M  V30 3628 H 370.089 1.3127 1.57979 0
M  V30 3629 H 368.319 0.167476 3.86337 0
M  V30 3630 H 370.008 0.555642 4.02079 0
M  V30 3631 H 370.774 3.02819 3.78848 0
M  V30 3632 H 366.653 1.87692 4.21061 0
M  V30 3633 H 370.197 5.31538 4.51789 0
M  V30 3634 H 366.094 4.15508 4.93987 0
M  V30 3635 H 366.862 6.18862 5.35679 0
M  V30 3636 N 369.525 -1.3858 0.750561 0
M  V30 3637 C 370.774 -1.99424 0.302172 0
M  V30 3638 C 371.087 -1.60254 -1.12152 0
M  V30 3639 O 372.293 -2.14046 -1.67023 0
M  V30 3640 C 370.749 -3.56558 0.489307 0
M  V30 3641 C 370.357 -4.04682 1.92189 0
M  V30 3642 C 372.101 -4.24374 0.103478 0
M  V30 3643 C 370.008 -5.54446 2.05775 0
M  V30 3644 H 368.938 -0.746046 0.10923 0
M  V30 3645 H 371.589 -1.58383 0.92667 0
M  V30 3646 H 369.971 -3.95472 -0.204329 0
M  V30 3647 H 371.145 -3.77065 2.64875 0
M  V30 3648 H 369.46 -3.4958 2.26236 0
M  V30 3649 H 372.057 -5.34384 0.183787 0
M  V30 3650 H 372.4 -4.05468 -0.943481 0
M  V30 3651 H 372.933 -3.90688 0.748854 0
M  V30 3652 H 369.672 -5.78252 3.08714 0
M  V30 3653 H 369.192 -5.83816 1.37546 0
M  V30 3654 H 370.871 -6.20099 1.84626 0
M  V30 3655 N 371.003 -0.499398 -1.49478 0
M  V30 3656 C 372.25 0.0456899 -2.02448 0
M  V30 3657 C 372.578 1.37142 -1.37921 0
M  V30 3658 O 371.833 1.89111 -0.503544 0
M  V30 3659 C 372.132 0.248424 -3.56536 0
M  V30 3660 C 371.798 -0.999107 -4.39692 0
M  V30 3661 C 370.46 -1.34108 -4.62135 0
M  V30 3662 C 372.812 -1.82842 -4.88076 0
M  V30 3663 C 370.14 -2.51191 -5.30208 0
M  V30 3664 C 372.492 -2.99076 -5.57437 0
M  V30 3665 C 371.156 -3.33655 -5.78127 0
M  V30 3666 H 370.426 0.0167191 -0.740811 0
M  V30 3667 H 373.073 -0.65923 -1.79795 0
M  V30 3668 H 371.378 1.03586 -3.77859 0
M  V30 3669 H 373.075 0.684605 -3.95113 0
M  V30 3670 H 369.665 -0.722729 -4.22463 0
M  V30 3671 H 373.849 -1.57737 -4.70566 0
M  V30 3672 H 369.105 -2.78221 -5.44429 0
M  V30 3673 H 373.279 -3.63664 -5.93904 0
M  V30 3674 H 370.906 -4.24483 -6.30649 0
M  V30 3675 N 372.481 1.55866 -0.233164 0
M  V30 3676 C 373.428 2.20796 0.67215 0
M  V30 3677 C 374.398 1.16731 1.18166 0
M  V30 3678 O 375.583 1.45129 1.23864 0
M  V30 3679 C 372.723 2.90072 1.86955 0
M  V30 3680 C 371.836 4.08759 1.39786 0
M  V30 3681 C 370.971 4.65787 2.55374 0
M  V30 3682 C 370.01 5.76752 2.04998 0
M  V30 3683 N 369.147 6.28021 3.13901 0
M  V30 3684 H 373.987 2.9779 0.111749 0
M  V30 3685 H 371.524 1.47036 0.0434007 0
M  V30 3686 H 373.482 3.28428 2.57276 0
M  V30 3687 H 372.112 2.15575 2.40265 0
M  V30 3688 H 371.164 3.7581 0.589173 0
M  V30 3689 H 372.476 4.88906 0.98856 0
M  V30 3690 H 371.63 5.06646 3.33758 0
M  V30 3691 H 370.369 3.84828 2.99598 0
M  V30 3692 H 369.374 5.35383 1.25079 0
M  V30 3693 H 370.599 6.59553 1.61759 0
M  V30 3694 H 368.545 5.49971 3.57586 0
M  V30 3695 H 368.462 7.03323 2.7726 0
M  V30 3696 H 369.73 6.73538 3.92386 0
M  V30 3697 N 373.959 -0.0401083 1.57549 0
M  V30 3698 C 374.922 -1.02871 2.04817 0
M  V30 3699 C 375.922 -1.29708 0.950388 0
M  V30 3700 O 377.112 -1.24897 1.21435 0
M  V30 3701 C 374.244 -2.36443 2.45576 0
M  V30 3702 H 375.437 -0.620631 2.93408 0
M  V30 3703 H 372.99 -0.286667 1.53649 0
M  V30 3704 H 373.725 -2.82021 1.60108 0
M  V30 3705 H 373.51 -2.18296 3.25713 0
M  V30 3706 H 375 -3.07441 2.82612 0
M  V30 3707 N 375.437 -1.54477 -0.31217 0
M  V30 3708 C 376.714 -1.63891 -1.06767 0
M  V30 3709 C 377.094 -0.480028 -2.0557 0
M  V30 3710 O 376.442 0.524487 -2.22399 0
M  V30 3711 C 376.652 -3.01402 -1.75948 0
M  V30 3712 C 378 -3.57838 -2.28554 0
M  V30 3713 O 379.024 -3.03782 -1.85998 0
M  V30 3714 O 377.883 -4.52462 -3.06497 0
M  V30 3715 H 374.977 -0.664125 -0.492816 0
M  V30 3716 H 377.523 -1.66823 -0.311149 0
M  V30 3717 H 376.295 -3.77187 -1.04144 0
M  V30 3718 H 375.918 -3.02199 -2.58383 0
M  V30 3719 N 376.915 0.57481 -1.46744 0
M  V30 3720 C 378.326 1.15695 -1.46532 0
M  V30 3721 C 378.677 1.95068 -0.210425 0
M  V30 3722 O 377.802 2.05241 0.685944 0
M  V30 3723 C 378.397 2.1048 -2.65487 0
M  V30 3724 C 376.956 2.64002 -2.68291 0
M  V30 3725 C 376.103 1.40026 -2.39349 0
M  V30 3726 H 379.054 0.362325 -1.54509 0
M  V30 3727 H 379.075 2.94074 -2.41455 0
M  V30 3728 H 378.587 1.52683 -3.56805 0
M  V30 3729 H 376.688 3.25646 -1.81067 0
M  V30 3730 H 376.801 3.06197 -3.68483 0
M  V30 3731 H 375.165 1.70106 -1.89568 0
M  V30 3732 H 375.948 0.840485 -3.32852 0
M  V30 3733 N 378.394 1.34581 0.820102 0
M  V30 3734 C 379.642 1.26845 1.57336 0
M  V30 3735 C 379.963 -0.160667 1.94337 0
M  V30 3736 O 379.233 -1.09396 1.6251 0
M  V30 3737 H 377.813 0.466514 0.583415 0
M  V30 3738 H 380.475 1.68526 0.979027 0
M  V30 3739 H 379.571 1.87513 2.4949 0
M  V30 3740 N 379.872 -1.04064 1.18357 0
M  V30 3741 C 380.782 -2.15569 0.925596 0
M  V30 3742 C 381.798 -1.7365 -0.110295 0
M  V30 3743 O 382.974 -2.01273 0.0716218 0
M  V30 3744 C 380.039 -3.43704 0.454836 0
M  V30 3745 C 379.1 -4.00004 1.55869 0
M  V30 3746 C 378.333 -5.22023 1.1103 0
M  V30 3747 O 378.556 -5.70392 -0.0309756 0
M  V30 3748 O 377.49 -5.70856 1.90805 0
M  V30 3749 H 381.316 -2.40187 1.8586 0
M  V30 3750 H 378.901 -1.1402 0.965394 0
M  V30 3751 H 380.783 -4.20923 0.200382 0
M  V30 3752 H 379.458 -3.20559 -0.449876 0
M  V30 3753 H 378.365 -3.24172 1.86716 0
M  V30 3754 H 379.698 -4.2749 2.43953 0
M  V30 3755 N 381.35 -0.985608 -1.22978 0
M  V30 3756 C 382.627 -0.573599 -1.87001 0
M  V30 3757 C 383.007 0.949213 -1.88555 0
M  V30 3758 O 382.355 1.82811 -1.37086 0
M  V30 3759 C 382.565 -1.18564 -3.28243 0
M  V30 3760 C 383.913 -1.28163 -4.04796 0
M  V30 3761 O 384.937 -1.13949 -3.37482 0
M  V30 3762 O 383.796 -1.50832 -5.25273 0
M  V30 3763 H 380.89 -0.193868 -0.803955 0
M  V30 3764 H 383.436 -1.08102 -1.30813 0
M  V30 3765 H 382.208 -2.22758 -3.21706 0
M  V30 3766 H 381.831 -0.663363 -3.92027 0
M  V30 3767 N 382.828 1.3818 -0.7579 0
M  V30 3768 C 384.105 1.94106 -0.241306 0
M  V30 3769 C 384.485 1.69282 1.26122 0
M  V30 3770 O 383.833 1.03378 2.03777 0
M  V30 3771 C 384.043 3.43809 -0.59967 0
M  V30 3772 C 385.391 4.20868 -0.561717 0
M  V30 3773 O 386.415 3.5211 -0.538222 0
M  V30 3774 O 385.274 5.43451 -0.576478 0
M  V30 3775 H 382.368 0.825376 -0.0518042 0
M  V30 3776 H 384.914 1.47548 -0.838315 0
M  V30 3777 H 383.686 3.55403 -1.6372 0
M  V30 3778 H 383.309 3.97592 0.0251197 0
M  V30 3779 N 384.306 0.507319 1.49211 0
M  V30 3780 C 385.236 -0.256939 2.32082 0
M  V30 3781 C 386.217 -0.956609 1.40652 0
M  V30 3782 O 387.402 -0.946788 1.69557 0
M  V30 3783 C 384.532 -1.31802 3.21318 0
M  V30 3784 C 383.486 -0.737855 4.21592 0
M  V30 3785 C 382.812 -1.89992 4.99807 0
M  V30 3786 C 384.112 0.275325 5.21574 0
M  V30 3787 H 385.806 0.434798 2.96226 0
M  V30 3788 H 383.352 0.210546 1.42452 0
M  V30 3789 H 385.305 -1.86045 3.78107 0
M  V30 3790 H 384.029 -2.03903 2.5513 0
M  V30 3791 H 382.688 -0.217126 3.65956 0
M  V30 3792 H 382.336 -2.60877 4.30061 0
M  V30 3793 H 382.036 -1.51777 5.6766 0
M  V30 3794 H 383.56 -2.44657 5.59442 0
M  V30 3795 H 384.974 -0.179193 5.7302 0
M  V30 3796 H 383.371 0.573649 5.97352 0
M  V30 3797 H 384.441 1.18903 4.70096 0
M  V30 3798 N 385.784 -1.5574 0.241426 0
M  V30 3799 C 387.032 -1.98417 -0.384075 0
M  V30 3800 C 387.353 -1.13078 -1.58866 0
M  V30 3801 O 386.623 -0.212312 -1.94746 0
M  V30 3802 H 385.203 -0.732813 -0.144894 0
M  V30 3803 H 387.865 -1.9193 0.338943 0
M  V30 3804 H 386.961 -3.04219 -0.696939 0
M  V30 3805 N 387.262 0.0317525 -1.57568 0
M  V30 3806 C 388.51 0.721676 -1.88776 0
M  V30 3807 C 388.831 1.76039 -0.838772 0
M  V30 3808 O 388.101 1.95482 0.127935 0
M  V30 3809 H 386.681 0.269534 -0.696678 0
M  V30 3810 H 389.343 -0.00165879 -1.949 0
M  V30 3811 H 388.439 1.21293 -2.87566 0
M  V30 3812 N 388.74 1.54641 0.303973 0
M  V30 3813 C 389.968 1.77768 1.05858 0
M  V30 3814 C 390.383 0.535722 1.8104 0
M  V30 3815 O 389.74 -0.494337 1.75677 0
M  V30 3816 C 389.791 2.9834 2.04146 0
M  V30 3817 O 389.512 4.17736 1.32015 0
M  V30 3818 C 391.013 3.33832 2.91669 0
M  V30 3819 H 388.233 0.592961 0.314067 0
M  V30 3820 H 390.777 2.01583 0.344149 0
M  V30 3821 H 388.932 2.76742 2.71096 0
M  V30 3822 H 389.346 4.85693 1.97998 0
M  V30 3823 H 390.82 4.21448 3.56491 0
M  V30 3824 H 391.297 2.51857 3.59812 0
M  V30 3825 H 391.903 3.57579 2.30254 0
M  V30 3826 N 390.218 -0.567019 1.47046 0
M  V30 3827 C 391.464 -1.32658 1.53394 0
M  V30 3828 C 391.797 -1.93254 0.19148 0
M  V30 3829 O 391.072 -1.77338 -0.798844 0
M  V30 3830 C 391.355 -2.44412 2.64452 0
M  V30 3831 C 391.208 -1.88749 4.08282 0
M  V30 3832 C 392.527 -3.46387 2.71485 0
M  V30 3833 H 389.646 -0.48098 0.558415 0
M  V30 3834 H 392.288 -0.635481 1.79058 0
M  V30 3835 H 390.438 -3.03363 2.427 0
M  V30 3836 H 392.11 -1.34134 4.41368 0
M  V30 3837 H 390.353 -1.19481 4.17021 0
M  V30 3838 H 391.024 -2.69491 4.81745 0
M  V30 3839 H 393.5 -2.9734 2.91081 0
M  V30 3840 H 392.376 -4.2202 3.50985 0
M  V30 3841 H 392.637 -4.04616 1.78153 0
M  V30 3842 N 391.696 -1.35014 -0.812953 0
M  V30 3843 C 392.973 -1.18502 -1.55617 0
M  V30 3844 C 393.353 0.238421 -2.09749 0
M  V30 3845 O 392.701 1.2411 -1.91857 0
M  V30 3846 C 392.911 -2.24783 -2.66971 0
M  V30 3847 C 394.259 -2.60268 -3.35478 0
M  V30 3848 O 395.283 -2.23648 -2.77236 0
M  V30 3849 O 394.142 -3.2321 -4.40678 0
M  V30 3850 H 391.236 -0.459984 -0.687272 0
M  V30 3851 H 393.782 -1.46677 -0.853464 0
M  V30 3852 H 392.554 -3.20284 -2.24798 0
M  V30 3853 H 392.177 -1.97841 -3.44884 0
M  V30 3854 N 393.175 1.03435 -1.18907 0
M  V30 3855 C 394.424 1.76143 -0.982669 0
M  V30 3856 C 394.737 1.89416 0.487953 0
M  V30 3857 O 395.943 2.59041 0.813036 0
M  V30 3858 C 394.399 3.16722 -1.70924 0
M  V30 3859 C 394.007 3.11522 -3.21959 0
M  V30 3860 C 395.751 3.93764 -1.58588 0
M  V30 3861 C 393.658 4.46999 -3.87228 0
M  V30 3862 H 392.588 0.660292 -0.364047 0
M  V30 3863 H 395.239 1.158 -1.42347 0
M  V30 3864 H 393.621 3.775 -1.19623 0
M  V30 3865 H 394.795 2.60158 -3.80335 0
M  V30 3866 H 393.11 2.47978 -3.34508 0
M  V30 3867 H 395.707 4.93963 -2.04707 0
M  V30 3868 H 396.05 4.12794 -0.539142 0
M  V30 3869 H 396.583 3.39576 -2.07203 0
M  V30 3870 H 393.322 4.33174 -4.91976 0
M  V30 3871 H 392.842 4.98441 -3.33642 0
M  V30 3872 H 394.521 5.15898 -3.90459 0
M  V30 3873 N 394.653 0.992116 1.22453 0
M  V30 3874 C 395.899 0.668523 1.91464 0
M  V30 3875 C 396.232 -0.797313 1.77078 0
M  V30 3876 O 395.507 -1.5765 1.13916 0
M  V30 3877 C 395.79 1.07424 3.43703 0
M  V30 3878 C 395.643 2.59857 3.67143 0
M  V30 3879 C 396.962 0.626891 4.35612 0
M  V30 3880 H 394.081 0.244341 0.695318 0
M  V30 3881 H 396.723 1.2355 1.44345 0
M  V30 3882 H 394.873 0.591816 3.83966 0
M  V30 3883 H 396.545 3.15764 3.3629 0
M  V30 3884 H 394.788 3.01961 3.11451 0
M  V30 3885 H 395.459 2.83296 4.73759 0
M  V30 3886 H 397.935 1.04125 4.02861 0
M  V30 3887 H 396.811 0.939076 5.40807 0
M  V30 3888 H 397.072 -0.472457 4.39568 0
M  V30 3889 N 396.131 -1.37776 0.765217 0
M  V30 3890 C 397.041 -2.34135 0.147666 0
M  V30 3891 C 398.057 -1.59854 -0.687215 0
M  V30 3892 O 399.233 -1.91983 -0.608659 0
M  V30 3893 C 396.298 -3.3901 -0.72617 0
M  V30 3894 C 395.359 -4.2912 0.124417 0
M  V30 3895 C 394.592 -5.28986 -0.707807 0
M  V30 3896 O 394.815 -5.36205 -1.94525 0
M  V30 3897 O 393.749 -6.01779 -0.12046 0
M  V30 3898 H 397.575 -2.88664 0.943758 0
M  V30 3899 H 395.16 -1.39824 0.526277 0
M  V30 3900 H 397.042 -4.03195 -1.22524 0
M  V30 3901 H 395.717 -2.86819 -1.50056 0
M  V30 3902 H 394.624 -3.68057 0.669696 0
M  V30 3903 H 395.957 -4.84598 0.861736 0
M  V30 3904 N 397.609 -0.515225 -1.4894 0
M  V30 3905 C 398.834 0.022727 -2.07388 0
M  V30 3906 C 399.259 1.2876 -1.37122 0
M  V30 3907 O 398.617 1.76067 -0.432431 0
M  V30 3908 C 398.665 0.244869 -3.59768 0
M  V30 3909 O 397.769 1.31667 -3.90817 0
M  V30 3910 H 397.11 -0.0325506 -0.663202 0
M  V30 3911 H 399.64 -0.718918 -1.91553 0
M  V30 3912 H 399.65 0.47205 -4.0526 0
M  V30 3913 H 398.325 -0.679194 -4.10317 0
M  V30 3914 H 396.902 1.07331 -3.5712 0
M  V30 3915 N 399.087 1.5561 -0.249682 0
M  V30 3916 C 399.997 2.25143 0.659375 0
M  V30 3917 C 401.013 1.2685 1.19101 0
M  V30 3918 O 402.189 1.59732 1.22669 0
M  V30 3919 C 399.254 2.93945 1.8384 0
M  V30 3920 C 398.315 4.07655 1.34596 0
M  V30 3921 C 397.548 4.73167 2.46878 0
M  V30 3922 O 397.771 4.37768 3.65671 0
M  V30 3923 O 396.705 5.61623 2.16478 0
M  V30 3924 H 400.531 3.03545 0.0968698 0
M  V30 3925 H 398.116 1.49389 -0.018074 0
M  V30 3926 H 399.998 3.37271 2.52638 0
M  V30 3927 H 398.673 2.18481 2.38847 0
M  V30 3928 H 397.58 3.68839 0.625174 0
M  V30 3929 H 398.913 4.84946 0.841941 0
M  V30 3930 N 400.565 -0.0233959 1.57583 0
M  V30 3931 C 401.976 -0.56927 1.77809 0
M  V30 3932 C 402.327 -1.75284 0.881472 0
M  V30 3933 O 401.452 -2.1626 0.0777805 0
M  V30 3934 C 402.047 -1.03949 3.22459 0
M  V30 3935 C 400.606 -1.53084 3.43864 0
M  V30 3936 C 399.753 -0.471454 2.73263 0
M  V30 3937 H 402.704 0.202825 1.57399 0
M  V30 3938 H 402.725 -1.90661 3.29285 0
M  V30 3939 H 402.237 -0.177865 3.87692 0
M  V30 3940 H 400.338 -2.41414 2.83814 0
M  V30 3941 H 400.451 -1.57443 4.52491 0
M  V30 3942 H 398.815 -0.927788 2.37201 0
M  V30 3943 H 399.598 0.380808 3.41181 0
M  V30 3944 N 402.043 -1.548 -0.295768 0
M  V30 3945 C 402.953 -1.89177 -1.38742 0
M  V30 3946 C 403.969 -0.786481 -1.55211 0
M  V30 3947 O 405.145 -1.08344 -1.69775 0
M  V30 3948 C 402.21 -2.13663 -2.73036 0
M  V30 3949 C 401.271 -3.37349 -2.65508 0
M  V30 3950 C 400.504 -3.60658 -3.93398 0
M  V30 3951 O 400.727 -2.86882 -4.93006 0
M  V30 3952 O 399.661 -4.54179 -3.94975 0
M  V30 3953 H 403.487 -2.82059 -1.12589 0
M  V30 3954 H 401.072 -1.41056 -0.492295 0
M  V30 3955 H 402.954 -2.3094 -3.52484 0
M  V30 3956 H 401.629 -1.23967 -2.99022 0
M  V30 3957 H 400.536 -3.25431 -1.84514 0
M  V30 3958 H 401.869 -4.27192 -2.44474 0
M  V30 3959 N 403.521 0.559213 -1.47345 0
M  V30 3960 C 404.469 1.68747 -1.60085 0
M  V30 3961 C 405.463 1.628 -0.46825 0
M  V30 3962 O 406.669 1.68009 -0.645977 0
M  V30 3963 H 403.044 0.558329 -0.503759 0
M  V30 3964 H 405.015 1.55138 -2.54902 0
M  V30 3965 C 403.764 3.07103 -1.63042 0
M  V30 3966 H 403.087 3.12361 -2.49541 0
M  V30 3967 H 404.527 3.85743 -1.76006 0
M  V30 3968 C 402.986 3.34935 -0.363357 0
M  V30 3969 O 403.516 3.98102 0.536416 0
M  V30 3970 N 401.722 2.89574 -0.244 0
M  V30 3971 H 401.269 2.38348 -0.977133 0
M  V30 3972 H 401.227 3.08566 0.602836 0
M  V30 3973 N 404.999 1.35443 0.805782 0
M  V30 3974 C 406.276 1.19325 1.54987 0
M  V30 3975 C 406.656 -0.227294 2.09873 0
M  V30 3976 O 406.004 -1.2309 1.92512 0
M  V30 3977 C 406.214 2.26196 2.65775 0
M  V30 3978 C 407.562 2.62043 3.34094 0
M  V30 3979 O 408.586 2.25115 2.76046 0
M  V30 3980 O 407.445 3.25542 4.38958 0
M  V30 3981 H 404.539 0.463623 0.684823 0
M  V30 3982 H 407.085 1.47127 0.845674 0
M  V30 3983 H 405.857 3.21471 2.23096 0
M  V30 3984 H 405.48 1.99667 3.43829 0
M  V30 3985 N 406.477 -1.02803 1.19454 0
M  V30 3986 C 407.427 -2.0945 0.900827 0
M  V30 3987 C 408.411 -1.60335 -0.134715 0
M  V30 3988 O 409.603 -1.76857 0.0710924 0
M  V30 3989 C 406.732 -3.4044 0.442229 0
M  V30 3990 C 405.818 -3.96286 1.51056 0
M  V30 3991 N 406.209 -4.25785 2.73021 0
M  V30 3992 C 404.507 -4.24307 1.37404 0
M  V30 3993 C 405.208 -4.70654 3.41848 0
M  V30 3994 N 404.184 -4.72238 2.69243 0
M  V30 3995 H 407.986 -2.3015 1.82779 0
M  V30 3996 H 405.5 -1.20672 1.08683 0
M  V30 3997 H 407.497 -4.16354 0.21326 0
M  V30 3998 H 406.157 -3.21159 -0.478238 0
M  V30 3999 H 407.168 -4.15041 3.09776 0
M  V30 4000 H 403.845 -4.14285 0.517103 0
M  V30 4001 H 405.235 -5.02392 4.46152 0
M  V30 4002 N 407.956 -0.998596 -1.21925 0
M  V30 4003 C 409.204 -0.676325 -1.90448 0
M  V30 4004 C 409.525 0.794719 -1.78071 0
M  V30 4005 O 408.795 1.5701 -1.17152 0
M  V30 4006 H 407.375 -0.247165 -0.704925 0
M  V30 4007 H 410.037 -1.26633 -1.48156 0
M  V30 4008 H 409.133 -0.943858 -2.97486 0
M  V30 4009 N 409.434 1.37368 -0.772513 0
M  V30 4010 C 410.68 1.99969 -0.337681 0
M  V30 4011 C 411.013 1.61184 1.08321 0
M  V30 4012 O 410.288 0.858395 1.74533 0
M  V30 4013 C 410.571 3.56858 -0.482121 0
M  V30 4014 C 410.424 4.0555 -1.94549 0
M  V30 4015 C 411.743 4.39955 0.113143 0
M  V30 4016 H 408.862 0.726464 -0.124171 0
M  V30 4017 H 411.504 1.63034 -0.975699 0
M  V30 4018 H 409.654 3.88452 0.0610361 0
M  V30 4019 H 411.326 3.84518 -2.54841 0
M  V30 4020 H 409.569 3.57715 -2.45403 0
M  V30 4021 H 410.24 5.14587 -1.9976 0
M  V30 4022 H 412.716 4.14623 -0.35031 0
M  V30 4023 H 411.592 5.48897 -0.0180514 0
M  V30 4024 H 411.853 4.25403 1.20354 0
M  V30 4025 N 410.912 0.523116 1.48665 0
M  V30 4026 C 411.822 -0.247406 2.33292 0
M  V30 4027 C 412.838 -0.945769 1.46052 0
M  V30 4028 O 414.014 -0.922253 1.79043 0
M  V30 4029 C 411.079 -1.28487 3.22012 0
M  V30 4030 C 410.14 -0.597592 4.2512 0
M  V30 4031 C 409.373 -1.58563 5.09601 0
M  V30 4032 O 409.596 -2.81763 4.95949 0
M  V30 4033 O 408.53 -1.12879 5.91221 0
M  V30 4034 H 412.356 0.445869 3.00409 0
M  V30 4035 H 409.941 0.284128 1.46673 0
M  V30 4036 H 411.823 -1.88459 3.7691 0
M  V30 4037 H 410.498 -1.96068 2.57564 0
M  V30 4038 H 409.405 0.0424407 3.74076 0
M  V30 4039 H 410.738 0.0361517 4.92187 0
M  V30 4040 N 412.39 -1.55475 0.257931 0
M  V30 4041 C 413.32 -2.24815 -0.630912 0
M  V30 4042 C 414.301 -1.23224 -1.17259 0
M  V30 4043 O 415.486 -1.51904 -1.20991 0
M  V30 4044 C 412.616 -2.95609 -1.82298 0
M  V30 4045 C 411.57 -4.03982 -1.41359 0
M  V30 4046 C 410.896 -4.6226 -2.68738 0
M  V30 4047 C 412.196 -5.19109 -0.57648 0
M  V30 4048 H 413.89 -2.99354 -0.0526878 0
M  V30 4049 H 411.436 -1.4398 -0.023901 0
M  V30 4050 H 413.389 -3.42822 -2.45054 0
M  V30 4051 H 412.113 -2.18577 -2.42676 0
M  V30 4052 H 410.772 -3.57555 -0.809324 0
M  V30 4053 H 410.42 -3.81915 -3.27338 0
M  V30 4054 H 410.12 -5.35424 -2.42065 0
M  V30 4055 H 411.644 -5.12212 -3.32372 0
M  V30 4056 H 413.058 -5.62479 -1.10861 0
M  V30 4057 H 411.455 -5.98729 -0.405351 0
M  V30 4058 H 412.525 -4.83174 0.408776 0
M  V30 4059 N 413.868 0.0150385 -1.57593 0
M  V30 4060 C 414.798 1.01047 -2.10503 0
M  V30 4061 C 415.779 1.36816 -1.01071 0
M  V30 4062 O 416.964 1.45455 -1.28672 0
M  V30 4063 C 414.094 2.30708 -2.59598 0
M  V30 4064 C 413.048 2.09142 -3.73421 0
M  V30 4065 C 412.374 3.44685 -4.08774 0
M  V30 4066 C 413.674 1.46619 -5.01298 0
M  V30 4067 H 415.368 0.569978 -2.93925 0
M  V30 4068 H 412.914 0.272724 -1.41394 0
M  V30 4069 H 414.867 3.00687 -2.95238 0
M  V30 4070 H 413.591 2.76843 -1.73279 0
M  V30 4071 H 412.25 1.41592 -3.38153 0
M  V30 4072 H 411.898 3.88495 -3.195 0
M  V30 4073 H 411.598 3.31077 -4.8545 0
M  V30 4074 H 413.122 4.16004 -4.4696 0
M  V30 4075 H 414.536 2.06535 -5.34805 0
M  V30 4076 H 412.933 1.43544 -5.82679 0
M  V30 4077 H 414.003 0.433611 -4.82957 0
M  V30 4078 N 415.346 1.54954 0.287554 0
M  V30 4079 C 416.623 1.65569 1.04146 0
M  V30 4080 C 417.003 0.512672 2.0478 0
M  V30 4081 O 416.351 -0.489038 2.23205 0
M  V30 4082 C 416.561 3.04163 1.71131 0
M  V30 4083 C 417.909 3.61429 2.22832 0
M  V30 4084 O 418.933 3.06702 1.81141 0
M  V30 4085 O 417.792 4.57281 2.9926 0
M  V30 4086 H 414.886 0.671881 0.482188 0
M  V30 4087 H 417.432 1.67297 0.28457 0
M  V30 4088 H 416.204 3.78796 0.981303 0
M  V30 4089 H 415.827 3.06271 2.53543 0
M  V30 4090 N 416.824 -0.551391 1.4764 0
M  V30 4091 C 417.756 -1.67333 1.56628 0
M  V30 4092 C 418.769 -1.56398 0.452045 0
M  V30 4093 O 419.958 -1.6325 0.721926 0
M  V30 4094 C 417.058 -3.05841 1.45994 0
M  V30 4095 C 416.231 -3.42472 2.72088 0
M  V30 4096 C 415.29 -4.60168 2.55209 0
M  V30 4097 O 414.316 -4.64458 3.2904 0
M  V30 4098 N 415.518 -5.57024 1.63416 0
M  V30 4099 H 418.283 -1.60066 2.53375 0
M  V30 4100 H 415.844 -0.738169 1.44093 0
M  V30 4101 H 417.836 -3.8242 1.32428 0
M  V30 4102 H 416.406 -3.07302 0.573071 0
M  V30 4103 H 415.626 -2.55284 3.00373 0
M  V30 4104 H 416.914 -3.63723 3.55785 0
M  V30 4105 H 416.312 -5.56319 1.02594 0
M  V30 4106 H 414.869 -6.32906 1.558 0
M  V30 4107 N 418.302 -1.35869 -0.798587 0
M  V30 4108 C 419.25 -1.29491 -1.93222 0
M  V30 4109 C 420.244 -0.18836 -1.6835 0
M  V30 4110 O 421.45 -0.354822 -1.76468 0
M  V30 4111 H 417.825 -0.402901 -0.63496 0
M  V30 4112 H 419.796 -2.25247 -1.9572 0
M  V30 4113 C 418.545 -1.09184 -3.30112 0
M  V30 4114 H 417.868 -1.93574 -3.49813 0
M  V30 4115 H 419.308 -1.08766 -4.09812 0
M  V30 4116 C 417.767 0.203959 -3.36282 0
M  V30 4117 O 418.297 1.19699 -3.83451 0
M  V30 4118 N 416.503 0.245488 -2.89561 0
M  V30 4119 H 416.05 -0.563223 -2.51367 0
M  V30 4120 H 416.008 1.11219 -2.94071 0
M  V30 4121 N 419.78 1.02168 -1.19998 0
M  V30 4122 C 421.005 1.79833 -1.03319 0
M  V30 4123 C 421.43 1.83504 0.413281 0
M  V30 4124 O 420.788 1.26635 1.29743 0
M  V30 4125 C 420.836 3.22396 -1.61533 0
M  V30 4126 O 419.94 4.03555 -0.849519 0
M  V30 4127 H 419.281 0.554872 -0.364709 0
M  V30 4128 H 421.811 1.28542 -1.59179 0
M  V30 4129 H 421.821 3.73124 -1.65054 0
M  V30 4130 H 420.496 3.19039 -2.66809 0
M  V30 4131 H 419.073 3.62169 -0.888129 0
M  V30 4132 N 421.258 1.00505 1.21394 0
M  V30 4133 C 422.483 0.706367 1.95001 0
M  V30 4134 C 422.908 -0.72463 1.73582 0
M  V30 4135 O 422.266 -1.49702 1.0227 0
M  V30 4136 C 422.314 1.03299 3.45487 0
M  V30 4137 O 421.418 0.138275 4.12168 0
M  V30 4138 H 420.759 0.263175 0.609619 0
M  V30 4139 H 423.289 1.34531 1.54151 0
M  V30 4140 H 423.299 0.979872 3.96059 0
M  V30 4141 H 421.974 2.07567 3.60401 0
M  V30 4142 H 420.551 0.247928 3.72075 0
M  V30 4143 N 422.737 -1.36956 0.779787 0
M  V30 4144 C 423.986 -1.98738 0.344405 0
M  V30 4145 C 424.299 -1.62596 -1.08728 0
M  V30 4146 O 425.505 -2.1754 -1.62445 0
M  V30 4147 C 423.961 -3.5544 0.564829 0
M  V30 4148 C 423.569 -4.00514 2.0073 0
M  V30 4149 C 425.313 -4.24059 0.193471 0
M  V30 4150 C 423.22 -5.49957 2.17489 0
M  V30 4151 H 422.15 -0.743561 0.12503 0
M  V30 4152 H 424.801 -1.56381 0.960057 0
M  V30 4153 H 423.183 -3.95817 -0.120397 0
M  V30 4154 H 424.357 -3.71362 2.72814 0
M  V30 4155 H 422.672 -3.44703 2.336 0
M  V30 4156 H 425.269 -5.33874 0.297097 0
M  V30 4157 H 425.612 -4.07378 -0.857263 0
M  V30 4158 H 426.145 -3.89012 0.831556 0
M  V30 4159 H 422.884 -5.71574 3.2091 0
M  V30 4160 H 422.404 -5.80767 1.49899 0
M  V30 4161 H 424.083 -6.16043 1.97738 0
M  V30 4162 N 424.215 -0.530993 -1.48385 0
M  V30 4163 C 425.631 -0.188919 -1.58478 0
M  V30 4164 C 425.831 1.30786 -1.53288 0
M  V30 4165 O 424.887 2.08619 -1.42248 0
M  V30 4166 C 426.2 -0.792343 -2.90073 0
M  V30 4167 C 427.748 -0.76117 -3.03604 0
M  V30 4168 C 428.223 -1.34319 -4.37861 0
M  V30 4169 N 429.714 -1.3052 -4.44431 0
M  V30 4170 C 430.449 -1.72543 -5.46824 0
M  V30 4171 N 429.945 -2.22299 -6.56167 0
M  V30 4172 N 431.738 -1.63773 -5.37712 0
M  V30 4173 H 423.889 -1.50377 -1.50002 0
M  V30 4174 H 426.152 -0.625559 -0.712306 0
M  V30 4175 H 425.858 -1.84323 -2.99529 0
M  V30 4176 H 425.732 -0.270026 -3.76232 0
M  V30 4177 H 428.119 0.280957 -2.93759 0
M  V30 4178 H 428.2 -1.32097 -2.19053 0
M  V30 4179 H 427.844 -2.38425 -4.4846 0
M  V30 4180 H 427.774 -0.759064 -5.21101 0
M  V30 4181 H 430.265 -0.940973 -3.65997 0
M  V30 4182 H 430.578 -2.52356 -7.30436 0
M  V30 4183 H 428.923 -2.26293 -6.57127 0
M  V30 4184 H 432.114 -1.24698 -4.51185 0
M  V30 4185 H 432.287 -1.96844 -6.17379 0
M  V30 4186 N 425.693 1.55336 -0.266172 0
M  V30 4187 C 426.939 1.99692 0.353681 0
M  V30 4188 C 427.272 1.1543 1.56172 0
M  V30 4189 O 426.547 0.222218 1.93226 0
M  V30 4190 C 426.83 3.52316 0.74466 0
M  V30 4191 C 426.683 4.47337 -0.470101 0
M  V30 4192 C 428.002 4.10588 1.58447 0
M  V30 4193 H 425.121 0.725961 0.12708 0
M  V30 4194 H 427.763 1.86336 -0.371333 0
M  V30 4195 H 425.913 3.63829 1.36239 0
M  V30 4196 H 427.585 4.4778 -1.10864 0
M  V30 4197 H 425.828 4.19364 -1.10978 0
M  V30 4198 H 426.499 5.51788 -0.15291 0
M  V30 4199 H 428.975 4.02297 1.06286 0
M  V30 4200 H 427.851 5.17607 1.82686 0
M  V30 4201 H 428.112 3.60253 2.56262 0
M  V30 4202 N 427.171 -0.0066808 1.57599 0
M  V30 4203 C 428.582 -0.550379 1.78403 0
M  V30 4204 C 428.933 -1.74339 0.900014 0
M  V30 4205 O 428.058 -2.16166 0.100713 0
M  V30 4206 C 428.653 -1.00523 3.23544 0
M  V30 4207 C 427.212 -1.49428 3.45468 0
M  V30 4208 C 426.359 -0.442444 2.73748 0
M  V30 4209 H 429.31 0.219508 1.57175 0
M  V30 4210 H 429.331 -1.87157 3.31289 0
M  V30 4211 H 428.843 -0.136735 3.87859 0
M  V30 4212 H 426.944 -2.3839 2.86358 0
M  V30 4213 H 427.057 -1.52635 4.54136 0
M  V30 4214 H 425.421 -0.902578 2.38171 0
M  V30 4215 H 426.204 0.416973 3.40758 0
M  V30 4216 N 428.649 -1.55105 -0.279332 0
M  V30 4217 C 430.065 -1.46803 -0.626187 0
M  V30 4218 C 430.265 -0.676939 -1.89789 0
M  V30 4219 O 429.321 -0.19326 -2.51759 0
M  V30 4220 C 430.634 -2.90962 -0.759034 0
M  V30 4221 C 432.182 -3.01138 -0.853504 0
M  V30 4222 C 432.657 -4.46539 -1.01818 0
M  V30 4223 N 434.148 -4.50341 -1.08386 0
M  V30 4224 C 434.883 -5.60053 -1.22996 0
M  V30 4225 N 434.379 -6.79645 -1.34366 0
M  V30 4226 N 436.172 -5.47783 -1.26056 0
M  V30 4227 H 428.323 -2.04996 0.555921 0
M  V30 4228 H 430.586 -0.929325 0.187239 0
M  V30 4229 H 430.292 -3.51544 0.104852 0
M  V30 4230 H 430.166 -3.39619 -1.64131 0
M  V30 4231 H 432.553 -2.40658 -1.70786 0
M  V30 4232 H 432.634 -2.55745 0.0532466 0
M  V30 4233 H 432.278 -5.0762 -0.168504 0
M  V30 4234 H 432.208 -4.89583 -1.93948 0
M  V30 4235 H 434.699 -3.64191 -1.00864 0
M  V30 4236 H 435.012 -7.59012 -1.4533 0
M  V30 4237 H 433.357 -6.82469 -1.31382 0
M  V30 4238 H 436.548 -4.53294 -1.168 0
M  V30 4239 H 436.721 -6.33331 -1.37098 0
M  V30 4240 N 430.127 0.543554 -1.4793 0
M  V30 4241 C 431.037 1.67657 -1.64098 0
M  V30 4242 C 432.053 1.65934 -0.523622 0
M  V30 4243 O 433.229 1.85133 -0.792943 0
M  V30 4244 C 430.294 3.04146 -1.66421 0
M  V30 4245 C 429.355 3.16831 -2.89684 0
M  V30 4246 C 428.588 4.46809 -2.91886 0
M  V30 4247 O 428.811 5.33095 -2.02895 0
M  V30 4248 O 427.745 4.63573 -3.83906 0
M  V30 4249 H 431.571 1.56957 -2.59997 0
M  V30 4250 H 429.156 0.715116 -1.31173 0
M  V30 4251 H 431.038 3.85346 -1.70548 0
M  V30 4252 H 429.713 3.152 -0.736923 0
M  V30 4253 H 428.62 2.34977 -2.91095 0
M  V30 4254 H 429.953 3.10687 -3.81752 0
M  V30 4255 N 431.605 1.3629 0.791371 0
M  V30 4256 C 432.552 1.30458 1.90393 0
M  V30 4257 C 433.522 0.173632 1.6519 0
M  V30 4258 O 434.707 0.35983 1.87376 0
M  V30 4259 C 431.847 1.09777 3.27174 0
M  V30 4260 C 430.96 2.31929 3.64462 0
M  V30 4261 C 430.095 2.04276 4.90352 0
M  V30 4262 C 429.134 3.224 5.20312 0
M  V30 4263 N 428.271 2.94424 6.37385 0
M  V30 4264 H 433.111 2.25589 1.94714 0
M  V30 4265 H 430.648 1.12122 0.952216 0
M  V30 4266 H 432.606 0.958133 4.06049 0
M  V30 4267 H 431.236 0.183014 3.22281 0
M  V30 4268 H 430.288 2.56703 2.80727 0
M  V30 4269 H 431.6 3.20085 3.82553 0
M  V30 4270 H 430.754 1.87231 5.77087 0
M  V30 4271 H 429.493 1.13428 4.74326 0
M  V30 4272 H 428.498 3.40005 4.32061 0
M  V30 4273 H 429.723 4.14071 5.38258 0
M  V30 4274 H 427.669 2.06185 6.22755 0
M  V30 4275 H 427.586 3.76118 6.55798 0
M  V30 4276 H 428.854 2.80953 7.27108 0
M  V30 4277 N 433.083 -1.0153 1.20538 0
M  V30 4278 C 434.016 -2.09759 0.898695 0
M  V30 4279 C 434.994 -1.61909 -0.149733 0
M  V30 4280 O 436.178 -1.88486 -0.0230293 0
M  V30 4281 C 433.305 -3.36913 0.347512 0
M  V30 4282 C 432.351 -4.03655 1.37713 0
M  V30 4283 S 433.184 -4.47402 2.94265 0
M  V30 4284 C 434.34 -5.77756 2.40726 0
M  V30 4285 H 434.573 -2.3545 1.81523 0
M  V30 4286 H 432.106 -1.14665 1.03399 0
M  V30 4287 H 434.064 -4.10484 0.0360518 0
M  V30 4288 H 432.725 -3.09291 -0.547546 0
M  V30 4289 H 431.918 -4.9514 0.940872 0
M  V30 4290 H 431.52 -3.36313 1.63614 0
M  V30 4291 H 433.812 -6.52994 1.80569 0
M  V30 4292 H 434.755 -6.2618 3.30612 0
M  V30 4293 H 435.163 -5.34081 1.82806 0
M  V30 4294 N 434.561 -1.01147 -1.20859 0
M  V30 4295 C 435.807 -0.698899 -1.90377 0
M  V30 4296 C 436.14 0.76904 -1.78324 0
M  V30 4297 O 435.415 1.55817 -1.16409 0
M  V30 4298 C 435.698 -1.12878 -3.41951 0
M  V30 4299 C 435.551 -2.65665 -3.62963 0
M  V30 4300 C 436.87 -0.696114 -4.3456 0
M  V30 4301 H 433.989 -0.255372 -0.691342 0
M  V30 4302 H 436.631 -1.25831 -1.42361 0
M  V30 4303 H 434.781 -0.652827 -3.82976 0
M  V30 4304 H 436.453 -3.21074 -3.31224 0
M  V30 4305 H 434.696 -3.06878 -3.06608 0
M  V30 4306 H 435.367 -2.90797 -4.69192 0
M  V30 4307 H 437.843 -1.10521 -4.01154 0
M  V30 4308 H 436.719 -1.025 -5.39245 0
M  V30 4309 H 436.98 0.402465 -4.40264 0
M  V30 4310 N 436.039 1.36541 -0.78704 0
M  V30 4311 C 437.269 2.03266 -0.369662 0
M  V30 4312 C 437.677 1.59481 1.01796 0
M  V30 4313 O 437.02 0.778612 1.66383 0
M  V30 4314 C 437.082 3.57779 -0.351371 0
M  V30 4315 C 436.746 4.24756 -1.68617 0
M  V30 4316 C 437.743 4.47811 -2.64124 0
M  V30 4317 C 435.428 4.62277 -1.96481 0
M  V30 4318 C 437.422 5.07464 -3.85693 0
M  V30 4319 C 435.109 5.21649 -3.18317 0
M  V30 4320 C 436.107 5.44182 -4.12741 0
M  V30 4321 O 435.795 6.02307 -5.32429 0
M  V30 4322 H 435.527 0.658977 -0.150751 0
M  V30 4323 H 438.081 1.75548 -1.0664 0
M  V30 4324 H 436.311 3.84606 0.401847 0
M  V30 4325 H 438 4.05879 0.0410147 0
M  V30 4326 H 438.766 4.19221 -2.43883 0
M  V30 4327 H 434.645 4.44065 -1.23805 0
M  V30 4328 H 438.189 5.24968 -4.59407 0
M  V30 4329 H 434.086 5.49664 -3.38437 0
M  V30 4330 H 434.854 6.20775 -5.33461 0
M  V30 4331 N 437.518 0.538854 1.48102 0
M  V30 4332 C 438.451 -0.266495 2.26639 0
M  V30 4333 C 439.429 -0.93687 1.32897 0
M  V30 4334 O 440.613 -0.959507 1.62252 0
M  V30 4335 C 437.74 -1.37814 3.09394 0
M  V30 4336 C 436.786 -0.818247 4.18577 0
M  V30 4337 S 437.619 0.320848 5.34538 0
M  V30 4338 C 438.775 -0.793059 6.20855 0
M  V30 4339 H 439.008 0.399994 2.94597 0
M  V30 4340 H 436.541 0.324808 1.50945 0
M  V30 4341 H 438.499 -2.01488 3.57649 0
M  V30 4342 H 437.16 -2.01639 2.40833 0
M  V30 4343 H 436.353 -1.65247 4.7614 0
M  V30 4344 H 435.955 -0.258036 3.73109 0
M  V30 4345 H 438.247 -1.68961 6.56093 0
M  V30 4346 H 439.19 -0.255204 7.0764 0
M  V30 4347 H 439.598 -1.07746 5.54122 0
M  V30 4348 N 438.996 -1.55193 0.274407 0
M  V30 4349 C 440.224 -2.03987 -0.345943 0
M  V30 4350 C 440.639 -1.15279 -1.4952 0
M  V30 4351 O 439.996 -0.172759 -1.8168 0
M  V30 4352 C 440.047 -3.51898 -0.827631 0
M  V30 4353 O 439.768 -4.37231 0.275855 0
M  V30 4354 C 441.269 -4.16577 -1.51587 0
M  V30 4355 H 438.489 -0.666335 -0.0789892 0
M  V30 4356 H 441.033 -2.00423 0.406294 0
M  V30 4357 H 439.188 -3.55909 -1.52996 0
M  V30 4358 H 439.602 -5.24415 -0.0943638 0
M  V30 4359 H 441.076 -5.21678 -1.80433 0
M  V30 4360 H 441.553 -3.64707 -2.44716 0
M  V30 4361 H 442.159 -4.16568 -0.857409 0
M  V30 4362 N 440.474 -0.00167713 -1.576 0
M  V30 4363 C 441.72 0.683832 -1.90923 0
M  V30 4364 C 442.053 1.7333 -0.875799 0
M  V30 4365 O 441.328 1.94215 0.10525 0
M  V30 4366 C 441.611 1.32543 -3.3482 0
M  V30 4367 C 441.464 0.287387 -4.48881 0
M  V30 4368 C 442.783 2.25114 -3.78169 0
M  V30 4369 H 439.902 0.247125 -0.694333 0
M  V30 4370 H 442.544 -0.0533149 -1.89925 0
M  V30 4371 H 440.694 1.95372 -3.35801 0
M  V30 4372 H 442.366 -0.341346 -4.60035 0
M  V30 4373 H 440.609 -0.39017 -4.32042 0
M  V30 4374 H 441.28 0.775393 -5.46527 0
M  V30 4375 H 443.756 1.723 -3.7875 0
M  V30 4376 H 442.632 2.66971 -4.79602 0
M  V30 4377 H 442.893 3.13092 -3.12131 0
M  V30 4378 N 441.952 1.55251 0.271103 0
M  V30 4379 C 442.9 1.89054 1.35504 0
M  V30 4380 C 443.894 0.767064 1.51038 0
M  V30 4381 O 445.1 0.951429 1.528 0
M  V30 4382 H 441.475 0.600072 0.45323 0
M  V30 4383 H 443.446 2.79598 1.04247 0
M  V30 4384 C 442.195 2.18068 2.70817 0
M  V30 4385 H 441.518 3.04005 2.59656 0
M  V30 4386 H 442.958 2.4564 3.45597 0
M  V30 4387 C 441.417 0.988901 3.2206 0
M  V30 4388 O 441.947 0.224501 4.01072 0
M  V30 4389 N 440.153 0.786085 2.79766 0
M  V30 4390 H 439.7 1.40937 2.15626 0
M  V30 4391 H 439.658 -0.00969349 3.14399 0
M  V30 4392 N 443.43 -0.535701 1.48216 0
M  V30 4393 C 444.707 -1.29683 1.46429 0
M  V30 4394 C 445.087 -2.10391 0.172852 0
M  V30 4395 O 444.435 -2.12282 -0.845488 0
M  V30 4396 C 444.645 -2.18313 2.72287 0
M  V30 4397 C 445.993 -2.78639 3.20383 0
M  V30 4398 O 447.017 -2.28604 2.73164 0
M  V30 4399 O 445.876 -3.69636 4.02531 0
M  V30 4400 H 442.97 -0.585026 0.584529 0
M  V30 4401 H 445.516 -0.552827 1.60443 0
M  V30 4402 H 444.288 -1.58421 3.57797 0
M  V30 4403 H 443.911 -2.99971 2.60966 0
M  V30 4404 N 444.908 -1.36708 -0.784132 0
M  V30 4405 C 446.133 -1.34565 -1.5782 0
M  V30 4406 C 446.558 0.0695257 -1.87971 0
M  V30 4407 O 445.916 1.04302 -1.48293 0
M  V30 4408 C 445.964 -2.17952 -2.87279 0
M  V30 4409 O 445.068 -1.57563 -3.81114 0
M  V30 4410 H 444.409 -0.460337 -0.478524 0
M  V30 4411 H 446.939 -1.80064 -0.971495 0
M  V30 4412 H 446.949 -2.30721 -3.365 0
M  V30 4413 H 445.624 -3.20823 -2.64661 0
M  V30 4414 H 444.201 -1.53764 -3.39722 0
M  V30 4415 N 446.386 1.0089 -1.21074 0
M  V30 4416 C 447.318 2.09737 -0.924291 0
M  V30 4417 C 448.331 1.62546 0.0909809 0
M  V30 4418 O 449.52 1.77942 -0.141021 0
M  V30 4419 C 446.62 3.36922 -0.36559 0
M  V30 4420 C 445.793 4.13216 -1.43426 0
M  V30 4421 C 444.852 5.18696 -0.885496 0
M  V30 4422 O 443.878 5.47176 -1.56801 0
M  V30 4423 N 445.08 5.79718 0.301227 0
M  V30 4424 H 447.845 2.34895 -1.8613 0
M  V30 4425 H 445.406 1.17341 -1.11546 0
M  V30 4426 H 447.398 4.04697 0.0158407 0
M  V30 4427 H 445.968 3.08952 0.476149 0
M  V30 4428 H 445.188 3.40301 -1.9897 0
M  V30 4429 H 446.476 4.60967 -2.15376 0
M  V30 4430 H 445.874 5.58926 0.872849 0
M  V30 4431 H 444.431 6.48804 0.624211 0
M  V30 4432 N 447.864 1.01787 1.20321 0
M  V30 4433 C 448.796 0.547357 2.22568 0
M  V30 4434 C 449.809 -0.370922 1.58518 0
M  V30 4435 O 450.998 -0.169067 1.77698 0
M  V30 4436 C 448.098 -0.223031 3.38165 0
M  V30 4437 C 447.271 0.697472 4.31803 0
M  V30 4438 C 446.33 -0.025562 5.26194 0
M  V30 4439 O 445.356 0.597367 5.66057 0
M  V30 4440 N 446.558 -1.29999 5.65757 0
M  V30 4441 H 449.323 1.42668 2.63564 0
M  V30 4442 H 446.884 0.895552 1.34876 0
M  V30 4443 H 448.876 -0.716002 3.98316 0
M  V30 4444 H 447.446 -1.00366 2.9605 0
M  V30 4445 H 446.666 1.37073 3.69601 0
M  V30 4446 H 447.954 1.32347 4.91286 0
M  V30 4447 H 447.352 -1.827 5.35385 0
M  V30 4448 H 445.909 -1.73766 6.28211 0
M  V30 4449 N 449.342 -1.36122 0.79427 0
M  V30 4450 C 450.252 -2.33769 0.197296 0
M  V30 4451 C 451.268 -1.61276 -0.653153 0
M  V30 4452 O 452.444 -1.9323 -0.5678 0
M  V30 4453 C 449.509 -3.40474 -0.654098 0
M  V30 4454 C 448.57 -4.28759 0.215411 0
M  V30 4455 C 447.803 -5.30368 -0.595443 0
M  V30 4456 O 448.026 -5.40211 -1.83107 0
M  V30 4457 O 446.96 -6.019 0.00721351 0
M  V30 4458 H 450.786 -2.86597 1.00478 0
M  V30 4459 H 448.371 -1.38676 0.555818 0
M  V30 4460 H 450.253 -4.05703 -1.13944 0
M  V30 4461 H 448.928 -2.89937 -1.43938 0
M  V30 4462 H 447.835 -3.66554 0.747615 0
M  V30 4463 H 449.168 -4.82661 0.964332 0
M  V30 4464 N 450.82 -0.546701 -1.47814 0
M  V30 4465 C 452.097 0.0464413 -1.95545 0
M  V30 4466 C 452.477 1.4962 -1.48919 0
M  V30 4467 O 451.825 2.16752 -0.723232 0
M  V30 4468 C 452.035 -0.0881298 -3.48889 0
M  V30 4469 C 453.383 0.0626059 -4.24554 0
M  V30 4470 O 454.407 -0.0151555 -3.56197 0
M  V30 4471 O 453.266 0.228071 -5.46024 0
M  V30 4472 H 450.36 0.0700004 -0.824032 0
M  V30 4473 H 452.906 -0.612482 -1.58262 0
M  V30 4474 H 451.678 -1.09737 -3.75597 0
M  V30 4475 H 451.301 0.608886 -3.9291 0
M  V30 4476 N 452.299 1.55045 -0.282633 0
M  V30 4477 C 453.209 2.26491 0.61147 0
M  V30 4478 C 454.225 1.29348 1.16384 0
M  V30 4479 O 455.401 1.62298 1.19253 0
M  V30 4480 C 452.466 2.97779 1.77563 0
M  V30 4481 C 451.527 4.10418 1.25919 0
M  V30 4482 C 450.76 4.78297 2.36786 0
M  V30 4483 O 450.983 4.45426 3.56303 0
M  V30 4484 O 449.917 5.66089 2.04517 0
M  V30 4485 H 453.743 3.03683 0.0324615 0
M  V30 4486 H 451.328 1.49317 -0.0497576 0
M  V30 4487 H 453.21 3.42554 2.45427 0
M  V30 4488 H 451.885 2.23498 2.34159 0
M  V30 4489 H 450.792 3.70082 0.546797 0
M  V30 4490 H 452.125 4.86622 0.738887 0
M  V30 4491 N 453.777 0.010035 1.57597 0
M  V30 4492 C 455.054 -0.710296 1.82248 0
M  V30 4493 C 455.434 -1.91426 0.889911 0
M  V30 4494 O 454.782 -2.28424 -0.0590292 0
M  V30 4495 C 454.992 -1.10655 3.30993 0
M  V30 4496 C 456.34 -1.50621 3.96987 0
M  V30 4497 O 457.364 -1.20007 3.35375 0
M  V30 4498 O 456.223 -2.07587 5.05539 0
M  V30 4499 H 453.317 -0.34673 0.750804 0
M  V30 4500 H 455.863 0.0362578 1.69661 0
M  V30 4501 H 454.635 -0.248826 3.90508 0
M  V30 4502 H 454.258 -1.91189 3.48615 0
M  V30 4503 N 455.255 -1.55392 -0.262866 0
M  V30 4504 C 456.185 -1.91978 -1.32917 0
M  V30 4505 C 457.166 -0.7828 -1.51017 0
M  V30 4506 O 458.351 -1.04178 -1.63892 0
M  V30 4507 C 455.481 -2.20055 -2.68687 0
M  V30 4508 C 454.435 -3.35854 -2.65304 0
M  V30 4509 C 453.761 -3.49435 -4.04721 0
M  V30 4510 C 455.061 -4.71977 -2.23685 0
M  V30 4511 H 456.755 -2.81292 -1.02544 0
M  V30 4512 H 454.301 -1.3534 -0.491846 0
M  V30 4513 H 456.254 -2.44237 -3.43404 0
M  V30 4514 H 454.978 -1.27551 -3.00663 0
M  V30 4515 H 453.637 -3.11655 -1.93045 0
M  V30 4516 H 453.285 -2.54379 -4.33936 0
M  V30 4517 H 452.985 -4.27297 -4.0335 0
M  V30 4518 H 454.509 -3.7592 -4.81161 0
M  V30 4519 H 455.923 -4.95637 -2.88127 0
M  V30 4520 H 454.32 -5.52828 -2.33456 0
M  V30 4521 H 455.39 -4.70115 -1.18827 0
M  V30 4522 N 456.733 0.527833 -1.48498 0
M  V30 4523 C 457.681 1.65313 -1.63628 0
M  V30 4524 C 458.675 1.6177 -0.502676 0
M  V30 4525 O 459.881 1.66601 -0.681469 0
M  V30 4526 H 456.256 0.547518 -0.515488 0
M  V30 4527 H 458.227 1.49696 -2.58135 0
M  V30 4528 C 456.976 3.03576 -1.6952 0
M  V30 4529 H 456.299 3.06997 -2.56111 0
M  V30 4530 H 457.739 3.81923 -1.84149 0
M  V30 4531 C 456.198 3.34089 -0.43432 0
M  V30 4532 O 456.728 3.99151 0.451852 0
M  V30 4533 N 454.934 2.88991 -0.305368 0
M  V30 4534 H 454.481 2.36222 -1.02747 0
M  V30 4535 H 454.439 3.09776 0.537249 0
M  V30 4536 N 458.211 1.37122 0.776871 0
M  V30 4537 C 459.457 1.32243 1.53752 0
M  V30 4538 C 459.79 -0.0944745 1.9397 0
M  V30 4539 O 459.065 -1.05068 1.6368 0
M  V30 4540 C 459.348 2.25681 2.80607 0
M  V30 4541 C 459.201 3.76127 2.46676 0
M  V30 4542 C 460.52 2.17657 3.82509 0
M  V30 4543 H 457.639 0.481704 0.557791 0
M  V30 4544 H 460.281 1.6778 0.891612 0
M  V30 4545 H 458.431 1.95505 3.35723 0
M  V30 4546 H 460.103 4.16877 1.97513 0
M  V30 4547 H 458.346 3.94946 1.79443 0
M  V30 4548 H 459.017 4.36933 3.37333 0
M  V30 4549 H 461.493 2.44245 3.36873 0
M  V30 4550 H 460.369 2.85185 4.69 0
M  V30 4551 H 460.63 1.16785 4.26396 0
M  V30 4552 N 459.689 -1.00246 1.21608 0
M  V30 4553 C 460.652 -2.07233 0.979133 0
M  V30 4554 C 461.652 -1.6072 -0.0508219 0
M  V30 4555 O 462.842 -1.73196 0.186712 0
M  V30 4556 C 459.974 -3.37546 0.477016 0
M  V30 4557 H 461.167 -2.29687 1.92831 0
M  V30 4558 H 458.72 -1.17261 1.03342 0
M  V30 4559 H 459.455 -3.20773 -0.476966 0
M  V30 4560 H 459.24 -3.72638 1.21997 0
M  V30 4561 H 460.73 -4.16285 0.331181 0
M  V30 4562 N 461.167 -1.02423 -1.1978 0
M  V30 4563 C 462.077 -0.610919 -2.26506 0
M  V30 4564 C 463.093 0.355152 -1.70337 0
M  V30 4565 O 464.269 0.214195 -2.00258 0
M  V30 4566 C 461.334 0.0365921 -3.46681 0
M  V30 4567 C 460.395 -0.976389 -4.18049 0
M  V30 4568 C 459.628 -0.359683 -5.32487 0
M  V30 4569 O 459.851 0.838601 -5.64202 0
M  V30 4570 O 458.785 -1.08022 -5.92127 0
M  V30 4571 H 462.611 -1.49965 -2.64091 0
M  V30 4572 H 460.196 -0.794156 -1.26545 0
M  V30 4573 H 462.078 0.39786 -4.19518 0
M  V30 4574 H 460.753 0.899398 -3.10954 0
M  V30 4575 H 459.66 -1.38916 -3.47352 0
M  V30 4576 H 460.993 -1.80941 -4.57735 0
M  V30 4577 N 462.645 1.35699 -0.801477 0
M  V30 4578 C 463.894 1.98165 -0.375979 0
M  V30 4579 C 464.207 1.64306 1.06127 0
M  V30 4580 O 465.413 2.20097 1.58964 0
M  V30 4581 C 463.869 3.54497 -0.621305 0
M  V30 4582 C 463.477 3.9727 -2.07076 0
M  V30 4583 C 465.221 4.23697 -0.26091 0
M  V30 4584 C 463.128 5.46427 -2.26211 0
M  V30 4585 H 462.058 0.741478 -0.136844 0
M  V30 4586 H 464.709 1.54834 -0.984814 0
M  V30 4587 H 463.091 3.95958 0.0574112 0
M  V30 4588 H 464.265 3.66974 -2.78687 0
M  V30 4589 H 462.58 3.40943 -2.39054 0
M  V30 4590 H 465.177 5.33334 -0.381994 0
M  V30 4591 H 465.52 4.0869 0.792344 0
M  V30 4592 H 466.053 3.87639 -0.893339 0
M  V30 4593 H 462.792 5.66396 -3.29963 0
M  V30 4594 H 462.312 5.78309 -1.59119 0
M  V30 4595 H 463.991 6.12819 -2.07513 0
M  V30 4596 N 464.123 0.554532 1.47522 0
M  V30 4597 C 465.086 -0.184174 2.28459 0
M  V30 4598 C 466.086 -0.845195 1.36796 0
M  V30 4599 O 467.276 -0.701467 1.59452 0
M  V30 4600 C 464.408 -1.26903 3.16399 0
M  V30 4601 H 465.601 0.526751 2.95238 0
M  V30 4602 H 463.154 0.311375 1.53167 0
M  V30 4603 H 463.889 -2.01244 2.54306 0
M  V30 4604 H 463.674 -0.799883 3.83854 0
M  V30 4605 H 465.164 -1.78794 3.77389 0
M  V30 4606 N 465.601 -1.54893 0.290851 0
M  V30 4607 C 466.878 -1.91991 -0.373989 0
M  V30 4608 C 467.258 -1.21694 -1.72493 0
M  V30 4609 O 466.606 -0.34917 -2.25816 0
M  V30 4610 C 466.816 -3.45419 -0.498703 0
M  V30 4611 C 468.164 -4.1748 -0.774298 0
M  V30 4612 O 469.188 -3.51398 -0.582908 0
M  V30 4613 O 468.047 -5.3445 -1.14129 0
M  V30 4614 H 465.141 -0.800593 -0.207315 0
M  V30 4615 H 467.687 -1.66297 0.338164 0
M  V30 4616 H 466.459 -3.88688 0.451392 0
M  V30 4617 H 466.082 -3.77117 -1.25972 0
M  V30 4618 N 467.08 -0.0183926 -1.57589 0
M  V30 4619 C 467.99 0.982943 -2.13015 0
M  V30 4620 C 469.006 1.36443 -1.07979 0
M  V30 4621 O 470.182 1.44802 -1.3998 0
M  V30 4622 C 467.247 2.25024 -2.63752 0
M  V30 4623 C 466.308 1.93018 -3.83461 0
M  V30 4624 C 465.541 3.13706 -4.31769 0
M  V30 4625 O 465.764 4.2601 -3.79305 0
M  V30 4626 O 464.698 2.96629 -5.23732 0
M  V30 4627 H 468.524 0.541709 -2.9883 0
M  V30 4628 H 466.109 0.201565 -1.48034 0
M  V30 4629 H 467.991 2.99441 -2.96502 0
M  V30 4630 H 466.666 2.68349 -1.81026 0
M  V30 4631 H 465.573 1.16019 -3.55655 0
M  V30 4632 H 466.906 1.54516 -4.67317 0
M  V30 4633 N 468.558 1.5553 0.254621 0
M  V30 4634 C 469.804 1.77262 0.985193 0
M  V30 4635 C 470.137 0.582286 1.85265 0
M  V30 4636 O 469.412 -0.419666 1.89919 0
M  V30 4637 C 469.695 3.0881 1.85225 0
M  V30 4638 C 469.548 4.38233 1.0135 0
M  V30 4639 C 470.867 3.3653 2.83612 0
M  V30 4640 H 467.986 0.644906 0.356742 0
M  V30 4641 H 470.628 1.88264 0.256236 0
M  V30 4642 H 468.778 2.99562 2.47376 0
M  V30 4643 H 470.45 4.59463 0.411269 0
M  V30 4644 H 468.693 4.32636 0.317574 0
M  V30 4645 H 469.364 5.26644 1.65379 0
M  V30 4646 H 471.84 3.45691 2.31596 0
M  V30 4647 H 470.716 4.29805 3.41407 0
M  V30 4648 H 470.977 2.57064 3.59681 0
M  V30 4649 N 470.036 -0.519951 1.48776 0
M  V30 4650 C 471.266 -1.29783 1.60748 0
M  V30 4651 C 471.674 -1.87253 0.27072 0
M  V30 4652 O 471.017 -1.67628 -0.751438 0
M  V30 4653 C 471.079 -2.47984 2.60277 0
M  V30 4654 C 470.743 -2.11526 4.051 0
M  V30 4655 C 471.74 -1.66608 4.92481 0
M  V30 4656 C 469.425 -2.21742 4.50706 0
M  V30 4657 C 471.419 -1.32384 6.23501 0
M  V30 4658 C 469.106 -1.87129 5.81744 0
M  V30 4659 C 470.104 -1.42523 6.67964 0
M  V30 4660 O 469.792 -1.0837 7.96562 0
M  V30 4661 H 469.524 -0.400562 0.544542 0
M  V30 4662 H 472.078 -0.632879 1.95407 0
M  V30 4663 H 470.308 -3.17493 2.2076 0
M  V30 4664 H 471.997 -3.10036 2.61978 0
M  V30 4665 H 472.763 -1.58178 4.58481 0
M  V30 4666 H 468.642 -2.55415 3.83776 0
M  V30 4667 H 472.186 -0.974949 6.90754 0
M  V30 4668 H 468.083 -1.95204 6.15277 0
M  V30 4669 H 468.851 -1.21681 8.09405 0
M  V30 4670 N 471.514 -1.37532 -0.769588 0
M  V30 4671 C 472.447 -1.27839 -1.8903 0
M  V30 4672 C 473.425 -0.158504 -1.61826 0
M  V30 4673 O 474.609 -0.333086 -1.85534 0
M  V30 4674 C 471.736 -0.977072 -3.24301 0
M  V30 4675 C 470.782 -2.11414 -3.70414 0
M  V30 4676 S 471.615 -3.73409 -3.83831 0
M  V30 4677 C 472.771 -3.45432 -5.21946 0
M  V30 4678 H 473.004 -2.22694 -1.96963 0
M  V30 4679 H 470.537 -1.2318 -0.930914 0
M  V30 4680 H 472.495 -0.810049 -4.02428 0
M  V30 4681 H 471.156 -0.0459701 -3.14066 0
M  V30 4682 H 470.349 -1.85837 -4.68488 0
M  V30 4683 H 469.951 -2.24141 -2.99394 0
M  V30 4684 H 472.243 -3.00554 -6.07185 0
M  V30 4685 H 473.186 -4.42841 -5.52537 0
M  V30 4686 H 473.594 -2.80311 -4.89986 0
M  V30 4687 N 472.992 0.995999 -1.22138 0
M  V30 4688 C 473.902 2.11985 -1.00496 0
M  V30 4689 C 474.918 1.7394 0.0457701 0
M  V30 4690 O 476.094 2.00868 -0.146273 0
M  V30 4691 C 473.159 3.41779 -0.582086 0
M  V30 4692 C 472.22 3.93943 -1.70608 0
M  V30 4693 C 471.453 5.17542 -1.30328 0
M  V30 4694 O 471.676 5.70114 -0.180743 0
M  V30 4695 O 470.61 5.63382 -2.11861 0
M  V30 4696 H 474.436 2.33123 -1.94647 0
M  V30 4697 H 472.021 1.10358 -1.00705 0
M  V30 4698 H 473.903 4.1989 -0.356467 0
M  V30 4699 H 472.578 3.22007 0.330592 0
M  V30 4700 H 471.485 3.17019 -1.98619 0
M  V30 4701 H 472.818 4.18141 -2.59651 0
M  V30 4702 N 474.47 1.03057 1.19235 0
M  V30 4703 C 475.716 0.729098 1.89241 0
M  V30 4704 C 476.049 -0.740573 1.79525 0
M  V30 4705 O 475.324 -1.53946 1.18874 0
M  V30 4706 C 475.607 1.18304 3.40112 0
M  V30 4707 C 475.46 2.71406 3.5869 0
M  V30 4708 C 476.779 0.765161 4.33397 0
M  V30 4709 H 473.898 0.266338 0.687192 0
M  V30 4710 H 476.54 1.28079 1.40341 0
M  V30 4711 H 474.69 0.713672 3.81889 0
M  V30 4712 H 476.362 3.26303 3.26074 0
M  V30 4713 H 474.605 3.11717 3.01687 0
M  V30 4714 H 475.276 2.98225 4.64506 0
M  V30 4715 H 477.752 1.16889 3.99345 0
M  V30 4716 H 476.628 1.11065 5.37546 0
M  V30 4717 H 476.889 -0.332372 4.40849 0
M  V30 4718 N 475.948 -1.35272 0.808662 0
M  V30 4719 C 477.197 -1.97963 0.386483 0
M  V30 4720 C 477.51 -1.64866 -1.05255 0
M  V30 4721 O 478.716 -2.20937 -1.57794 0
M  V30 4722 C 477.172 -3.54162 0.640096 0
M  V30 4723 C 476.78 -3.96166 2.0918 0
M  V30 4724 C 478.524 -4.23553 0.283376 0
M  V30 4725 C 476.431 -5.4522 2.29106 0
M  V30 4726 H 475.361 -0.740742 0.140774 0
M  V30 4727 H 478.012 -1.5431 0.993012 0
M  V30 4728 H 476.394 -3.95983 -0.0364117 0
M  V30 4729 H 477.568 -3.65491 2.80629 0
M  V30 4730 H 475.883 -3.3967 2.40859 0
M  V30 4731 H 478.48 -5.33124 0.410273 0
M  V30 4732 H 478.823 -4.09105 -0.770659 0
M  V30 4733 H 479.356 -3.8716 0.913884 0
M  V30 4734 H 476.095 -5.64638 3.32962 0
M  V30 4735 H 475.615 -5.77457 1.62184 0
M  V30 4736 H 477.294 -6.1171 2.1076 0
M  V30 4737 N 477.426 -0.562348 -1.47226 0
M  V30 4738 C 478.672 -0.0402761 -2.0276 0
M  V30 4739 C 479.005 1.30823 -1.43523 0
M  V30 4740 O 478.28 1.85249 -0.592705 0
M  V30 4741 C 478.563 0.047311 -3.60069 0
M  V30 4742 C 478.416 -1.32865 -4.29729 0
M  V30 4743 C 479.735 0.758182 -4.3352 0
M  V30 4744 H 476.854 -0.0161105 -0.736824 0
M  V30 4745 H 479.496 -0.725628 -1.75598 0
M  V30 4746 H 477.646 0.630986 -3.83342 0
M  V30 4747 H 479.318 -1.95593 -4.17781 0
M  V30 4748 H 477.561 -1.90195 -3.89882 0
M  V30 4749 H 478.232 -1.22004 -5.38349 0
M  V30 4750 H 480.708 0.262546 -4.15271 0
M  V30 4751 H 479.584 0.78844 -5.43208 0
M  V30 4752 H 479.845 1.81537 -4.03109 0
M  V30 4753 N 478.904 1.54736 -0.299062 0
M  V30 4754 C 480.152 1.99706 0.31017 0
M  V30 4755 C 480.473 1.18896 1.54559 0
M  V30 4756 O 479.743 0.284445 1.93824 0
M  V30 4757 H 478.323 0.737686 0.117596 0
M  V30 4758 H 480.985 1.9054 -0.409943 0
M  V30 4759 H 480.081 3.06596 0.58355 0
M  V30 4760 N 480.382 0.0267497 1.57577 0
M  V30 4761 C 481.292 -0.971633 2.13533 0
M  V30 4762 C 482.308 -1.35868 1.08701 0
M  V30 4763 O 483.484 -1.44058 1.40746 0
M  V30 4764 C 480.549 -2.23622 2.64941 0
M  V30 4765 C 479.61 -1.90982 3.8448 0
M  V30 4766 C 478.843 -3.11411 4.33427 0
M  V30 4767 O 479.066 -4.23992 3.81558 0
M  V30 4768 O 478 -2.93848 5.25297 0
M  V30 4769 H 481.826 -0.525853 2.99113 0
M  V30 4770 H 479.411 -0.193712 1.48139 0
M  V30 4771 H 481.293 -2.97864 2.98086 0
M  V30 4772 H 479.968 -2.67386 1.82446 0
M  V30 4773 H 478.875 -1.14132 3.56265 0
M  V30 4774 H 480.208 -1.52036 4.6813 0
M  V30 4775 N 481.861 -1.55662 -0.24637 0
M  V30 4776 C 482.771 -1.93495 -1.32653 0
M  V30 4777 C 483.787 -0.835462 -1.5263 0
M  V30 4778 O 484.963 -1.1369 -1.66242 0
M  V30 4779 C 482.028 -2.22242 -2.66101 0
M  V30 4780 C 481.089 -3.45625 -2.54641 0
M  V30 4781 C 480.322 -3.72991 -3.81724 0
M  V30 4782 O 480.545 -3.02421 -4.8363 0
M  V30 4783 O 479.479 -4.66515 -3.80325 0
M  V30 4784 H 483.305 -2.85498 -1.03559 0
M  V30 4785 H 480.89 -1.42551 -0.44717 0
M  V30 4786 H 482.772 -2.42037 -3.44958 0
M  V30 4787 H 481.447 -1.33417 -2.94926 0
M  V30 4788 H 480.354 -3.31136 -1.74067 0
M  V30 4789 H 481.687 -4.34754 -2.3076 0
M  V30 4790 N 483.339 0.512053 -1.4905 0
M  V30 4791 C 484.616 1.27337 -1.48474 0
M  V30 4792 C 484.996 2.1009 -0.206301 0
M  V30 4793 O 484.344 2.136 0.811609 0
M  V30 4794 C 484.554 2.13954 -2.75726 0
M  V30 4795 C 485.902 2.73507 -3.24776 0
M  V30 4796 O 486.926 2.24229 -2.76767 0
M  V30 4797 O 485.785 3.63186 -4.08361 0
M  V30 4798 H 482.879 0.575652 -0.593762 0
M  V30 4799 H 485.425 0.527232 -1.61302 0
M  V30 4800 H 484.197 1.52709 -3.60272 0
M  V30 4801 H 483.82 2.95782 -2.65705 0
M  V30 4802 N 484.817 1.37938 0.762283 0
M  V30 4803 C 485.78 1.34279 1.85747 0
M  V30 4804 C 486.78 0.244969 1.58923 0
M  V30 4805 O 487.97 0.501365 1.66829 0
M  V30 4806 C 485.102 1.08833 3.23061 0
M  V30 4807 H 486.295 2.31705 1.90401 0
M  V30 4808 H 483.848 1.23105 0.963057 0
M  V30 4809 H 484.583 0.119767 3.24079 0
M  V30 4810 H 484.368 1.88306 3.43923 0
M  V30 4811 H 485.858 1.08946 4.03138 0
M  V30 4812 N 486.295 -0.989507 1.22664 0
M  V30 4813 C 487.258 -2.06183 1.00106 0
M  V30 4814 C 488.258 -1.60765 -0.0337726 0
M  V30 4815 O 489.448 -1.72989 0.205072 0
M  V30 4816 C 486.58 -3.37021 0.51279 0
M  V30 4817 H 487.773 -2.27629 1.95256 0
M  V30 4818 H 485.326 -1.16158 1.0458 0
M  V30 4819 H 486.061 -3.21261 -0.442917 0
M  V30 4820 H 485.846 -3.71323 1.25942 0
M  V30 4821 H 487.336 -4.1591 0.375315 0
M  V30 4822 N 487.773 -1.03688 -1.18687 0
M  V30 4823 C 489.019 -0.739123 -1.88851 0
M  V30 4824 C 489.352 0.731042 -1.79915 0
M  V30 4825 O 488.627 1.53313 -1.19688 0
M  V30 4826 C 488.91 -1.20106 -3.3948 0
M  V30 4827 C 488.763 -2.73304 -3.57246 0
M  V30 4828 C 490.082 -0.788134 -4.32986 0
M  V30 4829 H 487.201 -0.269978 -0.68577 0
M  V30 4830 H 489.843 -1.28822 -1.3966 0
M  V30 4831 H 487.993 -0.733915 -3.81505 0
M  V30 4832 H 489.665 -3.28027 -3.24339 0
M  V30 4833 H 487.908 -3.13313 -3.00029 0
M  V30 4834 H 488.579 -3.00684 -4.62918 0
M  V30 4835 H 491.055 -1.19005 -3.98719 0
M  V30 4836 H 489.931 -1.13915 -5.36949 0
M  V30 4837 H 490.192 0.308988 -4.41019 0
M  V30 4838 N 489.251 1.34841 -0.815825 0
M  V30 4839 C 490.214 2.27959 -0.238185 0
M  V30 4840 C 491.214 1.49983 0.579816 0
M  V30 4841 O 492.404 1.69617 0.396953 0
M  V30 4842 C 489.536 3.34314 0.666876 0
M  V30 4843 H 490.729 2.80558 -1.05958 0
M  V30 4844 H 488.282 1.44852 -0.587156 0
M  V30 4845 H 489.017 2.86916 1.5116 0
M  V30 4846 H 488.802 3.92014 0.0819106 0
M  V30 4847 H 490.292 4.0379 1.06506 0
M  V30 4848 N 490.729 0.570148 1.46925 0
M  V30 4849 C 491.692 -0.159933 2.28641 0
M  V30 4850 C 492.692 -0.830638 1.37685 0
M  V30 4851 O 493.882 -0.684516 1.60187 0
M  V30 4852 C 491.014 -1.2354 3.17727 0
M  V30 4853 H 492.207 0.558035 2.94662 0
M  V30 4854 H 489.76 0.327603 1.52828 0
M  V30 4855 H 490.495 -1.98535 2.56426 0
M  V30 4856 H 490.28 -0.759125 3.84681 0
M  V30 4857 H 491.77 -1.74782 3.79264 0
M  V30 4858 N 492.207 -1.54576 0.307264 0
M  V30 4859 C 493.17 -2.22423 -0.553224 0
M  V30 4860 C 494.17 -1.21231 -1.05639 0
M  V30 4861 O 495.36 -1.45923 -0.951419 0
M  V30 4862 C 492.492 -2.91552 -1.76664 0
M  V30 4863 H 493.685 -2.99874 0.0396484 0
M  V30 4864 H 491.238 -1.56192 0.0581629 0
M  V30 4865 H 491.973 -2.18196 -2.39918 0
M  V30 4866 H 491.758 -3.65738 -1.41343 0
M  V30 4867 H 493.248 -3.43292 -2.37783 0
M  V30 4868 N 493.685 -0.035106 -1.57561 0
M  V30 4869 C 494.648 0.929819 -2.09492 0
M  V30 4870 C 495.648 1.25026 -1.01119 0
M  V30 4871 O 496.838 1.18961 -1.27255 0
M  V30 4872 C 493.97 2.24457 -2.56577 0
M  V30 4873 H 495.163 0.479935 -2.96035 0
M  V30 4874 H 492.716 0.213033 -1.54841 0
M  V30 4875 H 493.451 2.74061 -1.73382 0
M  V30 4876 H 493.236 2.02508 -3.35757 0
M  V30 4877 H 494.726 2.93607 -2.96959 0
M  V30 4878 N 495.163 1.55791 0.238111 0
M  V30 4879 C 496.126 1.90239 1.27835 0
M  V30 4880 C 497.126 0.779552 1.4064 0
M  V30 4881 O 498.316 1.04747 1.3919 0
M  V30 4882 C 495.448 2.13859 2.65475 0
M  V30 4883 H 496.641 2.83262 0.985034 0
M  V30 4884 H 494.194 1.48818 0.477799 0
M  V30 4885 H 494.929 1.23334 2.99932 0
M  V30 4886 H 494.714 2.95643 2.57561 0
M  V30 4887 H 496.204 2.41664 3.40571 0
M  V30 4888 N 496.642 -0.504142 1.49319 0
M  V30 4889 C 497.605 -1.5883 1.65244 0
M  V30 4890 C 498.605 -1.52009 0.524386 0
M  V30 4891 O 499.795 -1.55218 0.79077 0
M  V30 4892 C 496.927 -2.98481 1.64687 0
M  V30 4893 H 498.12 -1.4604 2.61939 0
M  V30 4894 H 495.673 -0.728144 1.38303 0
M  V30 4895 H 496.408 -3.16751 0.695644 0
M  V30 4896 H 496.193 -3.0484 2.46607 0
M  V30 4897 H 497.683 -3.77256 1.79075 0
M  V30 4898 N 498.12 -1.38341 -0.754957 0
M  V30 4899 C 499.366 -1.34672 -1.51628 0
M  V30 4900 C 499.699 0.0636036 -1.94096 0
M  V30 4901 O 498.974 1.0245 -1.6533 0
M  V30 4902 C 499.257 -2.30116 -2.76981 0
M  V30 4903 C 499.11 -3.80003 -2.4066 0
M  V30 4904 C 500.429 -2.23715 -3.78998 0
M  V30 4905 H 497.548 -0.490517 -0.550056 0
M  V30 4906 H 500.19 -1.69178 -0.864807 0
M  V30 4907 H 498.34 -2.00821 -3.3257 0
M  V30 4908 H 500.012 -4.19966 -1.90856 0
M  V30 4909 H 498.255 -3.97751 -1.73137 0
M  V30 4910 H 498.926 -4.42244 -3.30339 0
M  V30 4911 H 501.402 -2.49574 -3.32945 0
M  V30 4912 H 500.278 -2.9261 -4.64403 0
M  V30 4913 H 500.539 -1.23554 -4.24484 0
M  V30 4914 N 499.598 0.982988 -1.23187 0
M  V30 4915 C 500.548 2.05962 -0.977942 0
M  V30 4916 C 501.532 1.60725 0.0751148 0
M  V30 4917 O 502.724 1.76471 -0.136683 0
M  V30 4918 C 499.853 3.38564 -0.568276 0
M  V30 4919 C 498.939 3.90407 -1.6566 0
M  V30 4920 N 499.33 4.15359 -2.88635 0
M  V30 4921 C 497.628 4.18915 -1.53058 0
M  V30 4922 C 498.329 4.57642 -3.5908 0
M  V30 4923 N 497.305 4.6192 -2.86584 0
M  V30 4924 H 501.107 2.23208 -1.91195 0
M  V30 4925 H 498.621 1.16555 -1.13087 0
M  V30 4926 H 500.618 4.15276 -0.36764 0
M  V30 4927 H 499.278 3.22712 0.358713 0
M  V30 4928 H 500.289 4.03258 -3.24966 0
M  V30 4929 H 496.966 4.12081 -0.670506 0
M  V30 4930 H 498.356 4.85488 -4.6449 0
M  V30 4931 N 501.076 1.04316 1.18135 0
M  V30 4932 C 501.986 0.646876 2.25505 0
M  V30 4933 C 503.002 -0.328008 1.7088 0
M  V30 4934 O 504.178 -0.182309 2.00573 0
M  V30 4935 C 501.243 0.0185664 3.46695 0
M  V30 4936 C 500.304 1.04277 4.16443 0
M  V30 4937 C 499.537 0.444352 5.31847 0
M  V30 4938 O 499.76 -0.748735 5.65465 0
M  V30 4939 O 498.694 1.17428 5.90334 0
M  V30 4940 H 502.52 1.54147 2.61672 0
M  V30 4941 H 500.105 0.814188 1.25265 0
M  V30 4942 H 501.987 -0.331068 4.20097 0
M  V30 4943 H 500.662 -0.849814 3.12346 0
M  V30 4944 H 499.569 1.44425 3.45098 0
M  V30 4945 H 500.902 1.882 4.54798 0
M  V30 4946 N 502.554 -1.34406 0.822964 0
M  V30 4947 C 503.486 -2.28305 0.202375 0
M  V30 4948 C 504.499 -1.5103 -0.60777 0
M  V30 4949 O 505.688 -1.73057 -0.437444 0
M  V30 4950 C 502.788 -3.30836 -0.734911 0
M  V30 4951 C 501.961 -4.37388 0.0324177 0
M  V30 4952 C 501.02 -5.1968 -0.825803 0
M  V30 4953 O 500.046 -5.68556 -0.270771 0
M  V30 4954 N 501.248 -5.39393 -2.14558 0
M  V30 4955 H 504.013 -2.82201 1.00909 0
M  V30 4956 H 501.574 -1.4693 0.67993 0
M  V30 4957 H 503.566 -3.82786 -1.31365 0
M  V30 4958 H 502.136 -2.77334 -1.44238 0
M  V30 4959 H 501.356 -3.86152 0.792469 0
M  V30 4960 H 502.644 -5.05702 0.560633 0
M  V30 4961 H 502.042 -5.01357 -2.62025 0
M  V30 4962 H 500.599 -5.94461 -2.67318 0
M  V30 4963 N 504.032 -0.577932 -1.46621 0
M  V30 4964 C 504.964 0.195801 -2.28362 0
M  V30 4965 C 505.977 0.859983 -1.38232 0
M  V30 4966 O 507.166 0.730349 -1.62875 0
M  V30 4967 C 504.266 1.29639 -3.13124 0
M  V30 4968 C 503.439 0.725049 -4.31349 0
M  V30 4969 C 502.498 1.71274 -4.97546 0
M  V30 4970 O 501.524 1.25067 -5.5529 0
M  V30 4971 N 502.726 3.04672 -4.94121 0
M  V30 4972 H 505.491 -0.505468 -2.95407 0
M  V30 4973 H 503.052 -0.415381 -1.56481 0
M  V30 4974 H 505.044 1.95631 -3.54275 0
M  V30 4975 H 503.614 1.90059 -2.48186 0
M  V30 4976 H 502.834 -0.112205 -3.9404 0
M  V30 4977 H 504.122 0.323034 -5.07774 0
M  V30 4978 H 503.52 3.4484 -4.48444 0
M  V30 4979 H 502.077 3.66166 -5.39227 0
M  V30 4980 N 505.51 1.54411 -0.315457 0
M  V30 4981 C 506.759 1.99599 0.290395 0
M  V30 4982 C 507.072 1.20746 1.53882 0
M  V30 4983 O 508.278 1.56272 2.22017 0
M  V30 4984 C 506.734 3.5539 0.56797 0
M  V30 4985 C 506.342 4.43068 -0.662945 0
M  V30 4986 C 508.086 4.09067 1.13422 0
M  V30 4987 C 505.993 5.90317 -0.357722 0
M  V30 4988 H 504.923 0.745592 0.112286 0
M  V30 4989 H 507.574 1.78477 -0.426418 0
M  V30 4990 H 505.956 3.72468 1.34476 0
M  V30 4991 H 507.13 4.37765 -1.43869 0
M  V30 4992 H 505.445 4.00238 -1.14884 0
M  V30 4993 H 508.042 5.16663 1.37707 0
M  V30 4994 H 508.385 3.60552 2.08106 0
M  V30 4995 H 508.918 3.95589 0.418805 0
M  V30 4996 H 505.657 6.4301 -1.27351 0
M  V30 4997 H 505.177 5.98592 0.380472 0
M  V30 4998 H 506.856 6.4699 0.0354284 0
M  V30 4999 N 506.988 0.0434614 1.5754 0
M  V30 5000 C 508.265 -0.671479 1.83713 0
M  V30 5001 C 508.645 -1.89495 0.930315 0
M  V30 5002 O 507.993 -2.28498 -0.0105639 0
M  V30 5003 C 508.203 -1.0361 3.33266 0
M  V30 5004 C 509.551 -1.42167 4.00092 0
M  V30 5005 O 510.575 -1.12866 3.37846 0
M  V30 5006 O 509.434 -1.96817 5.09829 0
M  V30 5007 H 506.528 -0.330726 0.75799 0
M  V30 5008 H 509.074 0.0722373 1.69546 0
M  V30 5009 H 507.846 -0.165938 3.90948 0
M  V30 5010 H 507.469 -1.83751 3.52592 0
M  V30 5011 N 508.466 -1.55915 -0.229846 0
M  V30 5012 C 509.376 -1.94891 -1.30593 0
M  V30 5013 C 510.392 -0.851604 -1.51736 0
M  V30 5014 O 511.568 -1.15447 -1.65027 0
M  V30 5015 C 508.633 -2.25052 -2.63728 0
M  V30 5016 C 507.694 -3.48306 -2.5096 0
M  V30 5017 C 506.927 -3.77019 -3.77747 0
M  V30 5018 O 507.15 -3.07534 -4.80395 0
M  V30 5019 O 506.084 -4.70523 -3.75356 0
M  V30 5020 H 509.91 -2.86581 -1.00525 0
M  V30 5021 H 507.495 -1.43017 -0.432025 0
M  V30 5022 H 509.377 -2.45682 -3.42372 0
M  V30 5023 H 508.052 -1.36538 -2.93495 0
M  V30 5024 H 506.959 -3.32964 -1.70546 0
M  V30 5025 H 508.292 -4.37177 -2.26136 0
M  V30 5026 N 509.944 0.496216 -1.49584 0
M  V30 5027 C 511.221 1.25755 -1.49816 0
M  V30 5028 C 511.601 2.09859 -0.228572 0
M  V30 5029 O 510.949 2.14449 0.788908 0
M  V30 5030 C 511.159 2.11017 -2.7798 0
M  V30 5031 C 512.507 2.70047 -3.27658 0
M  V30 5032 O 513.531 2.21281 -2.79129 0
M  V30 5033 O 512.39 3.58834 -4.1219 0
M  V30 5034 H 509.484 0.569322 -0.599834 0
M  V30 5035 H 512.03 0.510094 -1.61852 0
M  V30 5036 H 510.802 1.48879 -3.61871 0
M  V30 5037 H 510.425 2.92947 -2.68827 0
M  V30 5038 N 511.423 1.38739 0.74761 0
M  V30 5039 C 512.333 1.38696 1.89211 0
M  V30 5040 C 513.349 0.283303 1.71678 0
M  V30 5041 O 514.525 0.522713 1.94498 0
M  V30 5042 C 511.59 1.21662 3.24653 0
M  V30 5043 C 510.651 2.41886 3.54669 0
M  V30 5044 C 509.884 2.25655 4.83648 0
M  V30 5045 O 510.107 1.25339 5.56459 0
M  V30 5046 O 509.041 3.14372 5.13277 0
M  V30 5047 H 512.867 2.35143 1.92202 0
M  V30 5048 H 510.452 1.19721 0.893708 0
M  V30 5049 H 512.334 1.14246 4.05618 0
M  V30 5050 H 511.009 0.283024 3.2246 0
M  V30 5051 H 509.916 2.54877 2.73841 0
M  V30 5052 H 511.249 3.33895 3.61628 0
M  V30 5053 N 512.901 -0.976442 1.23707 0
M  V30 5054 C 513.834 -2.06793 0.964973 0
M  V30 5055 C 514.812 -1.62304 -0.0981472 0
M  V30 5056 O 515.996 -1.88464 0.0369477 0
M  V30 5057 C 513.123 -3.35636 0.454522 0
M  V30 5058 C 512.169 -3.99069 1.50485 0
M  V30 5059 S 513.002 -4.37814 3.0835 0
M  V30 5060 C 514.158 -5.69805 2.58985 0
M  V30 5061 H 514.391 -2.29556 1.88922 0
M  V30 5062 H 511.924 -1.11317 1.06995 0
M  V30 5063 H 513.882 -4.10162 0.166626 0
M  V30 5064 H 512.543 -3.10876 -0.448871 0
M  V30 5065 H 511.736 -4.91896 1.09792 0
M  V30 5066 H 511.338 -3.30938 1.7423 0
M  V30 5067 H 513.63 -6.46919 2.01252 0
M  V30 5068 H 514.573 -6.15345 3.50366 0
M  V30 5069 H 514.981 -5.27994 1.99705 0
M  V30 5070 N 514.379 -1.04941 -1.1758 0
M  V30 5071 C 515.326 -0.648155 -2.21512 0
M  V30 5072 C 516.296 0.348431 -1.62404 0
M  V30 5073 O 517.481 0.240419 -1.89279 0
M  V30 5074 C 514.621 -0.0264291 -3.4509 0
M  V30 5075 C 513.734 -1.07154 -4.185 0
M  V30 5076 C 512.869 -0.417403 -5.29558 0
M  V30 5077 C 511.908 -1.447 -5.94751 0
M  V30 5078 N 511.045 -0.817203 -6.97328 0
M  V30 5079 H 515.885 -1.53891 -2.55189 0
M  V30 5080 H 513.422 -0.769699 -1.25356 0
M  V30 5081 H 515.38 0.351456 -4.15717 0
M  V30 5082 H 514.01 0.827802 -3.12005 0
M  V30 5083 H 513.062 -1.56728 -3.46613 0
M  V30 5084 H 514.374 -1.8532 -4.63096 0
M  V30 5085 H 513.528 0.0142061 -6.06698 0
M  V30 5086 H 512.267 0.396265 -4.86087 0
M  V30 5087 H 511.272 -1.88865 -5.16343 0
M  V30 5088 H 512.497 -2.26252 -6.40302 0
M  V30 5089 H 510.443 -0.0239995 -6.55996 0
M  V30 5090 H 510.36 -1.53644 -7.40223 0
M  V30 5091 H 511.628 -0.410283 -7.7842 0
M  V30 5092 N 515.857 1.33968 -0.830081 0
M  V30 5093 C 517.085 2.0228 -0.434773 0
M  V30 5094 C 517.5 1.62487 0.961419 0
M  V30 5095 O 516.857 0.833849 1.62337 0
M  V30 5096 C 516.908 3.5751 -0.535625 0
M  V30 5097 O 516.629 3.95864 -1.87679 0
M  V30 5098 C 518.13 4.43091 -0.136137 0
M  V30 5099 H 515.35 0.648151 -0.173613 0
M  V30 5100 H 517.894 1.71089 -1.12022 0
M  V30 5101 H 516.049 3.87266 0.101817 0
M  V30 5102 H 516.463 4.9056 -1.85609 0
M  V30 5103 H 517.937 5.51398 -0.257772 0
M  V30 5104 H 518.414 4.29433 0.921076 0
M  V30 5105 H 519.02 4.18677 -0.747662 0
M  V30 5106 N 517.335 0.585699 1.46312 0
M  V30 5107 C 518.582 0.0724211 2.0237 0
M  V30 5108 C 518.91 -1.28868 1.45683 0
M  V30 5109 O 518.165 -1.85853 0.612945 0
M  V30 5110 C 518.464 -0.0401312 3.57377 0
M  V30 5111 C 518.13 1.25376 4.33119 0
M  V30 5112 C 516.792 1.60824 4.5353 0
M  V30 5113 C 519.144 2.10987 4.76586 0
M  V30 5114 C 516.472 2.81676 5.14661 0
M  V30 5115 C 518.824 3.31068 5.39052 0
M  V30 5116 C 517.488 3.66794 5.5769 0
M  V30 5117 H 516.758 0.0265007 0.740526 0
M  V30 5118 H 519.405 0.762935 1.75646 0
M  V30 5119 H 517.71 -0.813791 3.83255 0
M  V30 5120 H 519.407 -0.453078 3.98432 0
M  V30 5121 H 515.997 0.967808 4.1753 0
M  V30 5122 H 520.181 1.84904 4.60569 0
M  V30 5123 H 515.437 3.0949 5.27282 0
M  V30 5124 H 519.611 3.97672 5.71691 0
M  V30 5125 H 517.238 4.60529 6.04828 0
M  V30 5126 N 518.813 -1.54241 0.323641 0
M  V30 5127 C 520.059 -2.00867 -0.279323 0
M  V30 5128 C 520.392 -1.21146 -1.5178 0
M  V30 5129 O 519.667 -0.29378 -1.92269 0
M  V30 5130 C 519.95 -3.54837 -0.613387 0
M  V30 5131 C 519.803 -4.45284 0.635803 0
M  V30 5132 C 521.122 -4.16186 -1.43099 0
M  V30 5133 H 518.241 -0.730177 -0.100049 0
M  V30 5134 H 520.883 -1.84829 0.440235 0
M  V30 5135 H 519.033 -3.68634 -1.22641 0
M  V30 5136 H 520.705 -4.43357 1.27406 0
M  V30 5137 H 518.948 -4.14956 1.26466 0
M  V30 5138 H 519.619 -5.5084 0.357597 0
M  V30 5139 H 522.095 -4.05964 -0.912814 0
M  V30 5140 H 520.971 -5.24031 -1.6335 0
M  V30 5141 H 521.232 -3.69516 -2.42715 0
M  V30 5142 N 520.291 -0.0518155 -1.57515 0
M  V30 5143 C 521.702 0.483787 -1.80323 0
M  V30 5144 C 522.053 1.70879 -0.964099 0
M  V30 5145 O 521.178 2.15643 -0.180872 0
M  V30 5146 C 521.773 0.884459 -3.27052 0
M  V30 5147 C 520.332 1.36504 -3.50776 0
M  V30 5148 C 519.479 0.340539 -2.75201 0
M  V30 5149 H 522.43 -0.277691 -1.56252 0
M  V30 5150 H 522.451 1.74733 -3.38007 0
M  V30 5151 H 521.963 -0.00731093 -3.88099 0
M  V30 5152 H 520.064 2.27598 -2.95009 0
M  V30 5153 H 520.177 1.35675 -4.59488 0
M  V30 5154 H 518.541 0.81356 -2.41357 0
M  V30 5155 H 519.324 -0.543156 -3.38976 0
M  V30 5156 N 521.769 1.56035 0.221574 0
M  V30 5157 C 523.018 1.78245 0.944016 0
M  V30 5158 C 523.331 0.620371 1.85501 0
M  V30 5159 O 524.537 0.726103 2.6161 0
M  V30 5160 C 522.993 3.15659 1.7288 0
M  V30 5161 C 522.601 4.39591 0.863942 0
M  V30 5162 C 524.345 3.47195 2.44246 0
M  V30 5163 C 522.252 5.6803 1.64607 0
M  V30 5164 H 521.182 0.664547 0.356222 0
M  V30 5165 H 523.833 1.8243 0.197904 0
M  V30 5166 H 522.215 3.0565 2.51781 0
M  V30 5167 H 523.389 4.60655 0.115464 0
M  V30 5168 H 521.704 4.15572 0.262407 0
M  V30 5169 H 524.301 4.40381 3.03263 0
M  V30 5170 H 524.644 2.69693 3.1713 0
M  V30 5171 H 525.177 3.58533 1.72334 0
M  V30 5172 H 521.916 6.48425 0.960507 0
M  V30 5173 H 521.436 5.51027 2.36917 0
M  V30 5174 H 523.115 6.08203 2.20675 0
M  V30 5175 N 523.247 -0.488276 1.49845 0
M  V30 5176 C 524.21 -1.57069 1.66919 0
M  V30 5177 C 525.21 -1.51445 0.540479 0
M  V30 5178 O 526.4 -1.5437 0.807188 0
M  V30 5179 C 523.532 -2.96718 1.67844 0
M  V30 5180 H 524.725 -1.43254 2.63474 0
M  V30 5181 H 522.278 -0.713435 1.39068 0
M  V30 5182 H 523.013 -3.15996 0.7292 0
M  V30 5183 H 522.798 -3.02208 2.49826 0
M  V30 5184 H 524.288 -3.75335 1.83066 0
M  V30 5185 N 524.725 -1.39134 -0.740242 0
M  V30 5186 C 525.971 -1.37278 -1.50088 0
M  V30 5187 C 526.326 0.0329967 -1.92372 0
M  V30 5188 O 525.619 0.998447 -1.63529 0
M  V30 5189 C 525.813 -2.27457 -2.75678 0
M  V30 5190 C 525.642 -3.76662 -2.45674 0
M  V30 5191 C 524.412 -4.45617 -2.38229 0
M  V30 5192 C 526.61 -4.6877 -2.11563 0
M  V30 5193 N 524.592 -5.80187 -2.00641 0
M  V30 5194 C 525.963 -5.91951 -1.84376 0
M  V30 5195 C 528.018 -4.56843 -1.97987 0
M  V30 5196 C 526.721 -7.04538 -1.4498 0
M  V30 5197 C 528.747 -5.69347 -1.59994 0
M  V30 5198 C 528.109 -6.91597 -1.33687 0
M  V30 5199 H 524.208 -0.557611 -0.548265 0
M  V30 5200 H 526.792 -1.74638 -0.860784 0
M  V30 5201 H 524.963 -1.92263 -3.37475 0
M  V30 5202 H 526.695 -2.16631 -3.41838 0
M  V30 5203 H 523.45 -3.98993 -2.5515 0
M  V30 5204 H 523.874 -6.51387 -1.84454 0
M  V30 5205 H 528.516 -3.62868 -2.16995 0
M  V30 5206 H 526.234 -7.98419 -1.24712 0
M  V30 5207 H 529.82 -5.62104 -1.50102 0
M  V30 5208 H 528.7 -7.77176 -1.04728 0
M  V30 5209 N 526.204 0.969867 -1.24223 0
M  V30 5210 C 527.167 2.04564 -1.03373 0
M  V30 5211 C 528.167 1.60798 0.00819206 0
M  V30 5212 O 529.357 1.72641 -0.232567 0
M  V30 5213 C 526.489 3.36163 -0.566343 0
M  V30 5214 H 527.682 2.24494 -1.98853 0
M  V30 5215 H 525.235 1.1448 -1.06415 0
M  V30 5216 H 525.97 3.21925 0.391751 0
M  V30 5217 H 525.755 3.69273 -1.31834 0
M  V30 5218 H 527.245 4.1526 -0.441435 0
M  V30 5219 N 527.682 1.05563 1.17022 0
M  V30 5220 C 528.645 0.664098 2.19368 0
M  V30 5221 C 529.645 -0.286358 1.5823 0
M  V30 5222 O 530.835 -0.069728 1.7406 0
M  V30 5223 C 527.967 -0.0239932 3.40892 0
M  V30 5224 H 529.16 1.57 2.55521 0
M  V30 5225 H 526.713 0.849964 1.31169 0
M  V30 5226 H 527.448 -0.942988 3.10287 0
M  V30 5227 H 527.233 0.659351 3.86516 0
M  V30 5228 H 528.723 -0.283909 4.16634 0
M  V30 5229 N 529.16 -1.33526 0.837174 0
M  V30 5230 C 530.123 -2.27551 0.274421 0
M  V30 5231 C 531.123 -1.50886 -0.555881 0
M  V30 5232 O 532.313 -1.70227 -0.369918 0
M  V30 5233 C 529.445 -3.35332 -0.613605 0
M  V30 5234 H 530.638 -2.78837 1.10408 0
M  V30 5235 H 528.191 -1.439 0.610126 0
M  V30 5236 H 528.926 -2.89285 -1.46577 0
M  V30 5237 H 528.711 -3.92095 -0.0195341 0
M  V30 5238 H 530.201 -4.05433 -1.00068 0
M  V30 5239 N 530.638 -0.59345 -1.46 0
M  V30 5240 C 531.868 -0.0889642 -2.06408 0
M  V30 5241 C 532.276 1.22597 -1.44106 0
M  V30 5242 O 531.619 1.75448 -0.544398 0
M  V30 5243 C 531.681 0.139902 -3.59228 0
M  V30 5244 C 531.345 -1.09107 -4.43784 0
M  V30 5245 C 532.342 -2.00577 -4.79651 0
M  V30 5246 C 530.027 -1.31593 -4.84756 0
M  V30 5247 C 532.021 -3.12873 -5.55328 0
M  V30 5248 C 529.708 -2.44192 -5.60191 0
M  V30 5249 C 530.706 -3.34661 -5.95392 0
M  V30 5250 O 530.394 -4.45302 -6.69299 0
M  V30 5251 H 530.126 -0.0594613 -0.67338 0
M  V30 5252 H 532.68 -0.817 -1.88452 0
M  V30 5253 H 530.91 0.922672 -3.75531 0
M  V30 5254 H 532.599 0.594228 -4.01527 0
M  V30 5255 H 533.365 -1.84425 -4.48567 0
M  V30 5256 H 529.244 -0.620801 -4.56801 0
M  V30 5257 H 532.788 -3.83511 -5.82722 0
M  V30 5258 H 528.685 -2.60303 -5.90688 0
M  V30 5259 H 529.453 -4.43805 -6.87735 0
M  V30 5260 N 532.116 1.54067 -0.331816 0
M  V30 5261 C 533.364 2.00319 0.267739 0
M  V30 5262 C 533.685 1.22148 1.52003 0
M  V30 5263 O 532.955 0.325494 1.93177 0
M  V30 5264 H 531.535 0.740014 0.101922 0
M  V30 5265 H 534.197 1.89628 -0.450267 0
M  V30 5266 H 533.293 3.07765 0.518385 0
M  V30 5267 N 533.594 0.0601682 1.57485 0
M  V30 5268 C 534.542 -0.928899 2.13247 0
M  V30 5269 C 535.536 -1.31616 1.06647 0
M  V30 5270 O 536.742 -1.29476 1.25043 0
M  V30 5271 H 533.117 -0.317455 0.681708 0
M  V30 5272 H 535.088 -0.433566 2.95233 0
M  V30 5273 C 533.837 -2.19121 2.69965 0
M  V30 5274 H 533.16 -1.90204 3.51657 0
M  V30 5275 H 534.6 -2.86465 3.12592 0
M  V30 5276 C 533.059 -2.94195 1.64168 0
M  V30 5277 O 533.589 -3.87468 1.05978 0
M  V30 5278 N 531.795 -2.57089 1.35476 0
M  V30 5279 H 531.342 -1.81314 1.82984 0
M  V30 5280 H 531.3 -3.07624 0.649196 0
M  V30 5281 N 535.072 -1.5615 -0.213296 0
M  V30 5282 C 536.02 -1.93953 -1.28394 0
M  V30 5283 C 537.014 -0.822592 -1.48087 0
M  V30 5284 O 538.22 -1.00748 -1.49164 0
M  V30 5285 H 534.595 -0.61648 -0.430646 0
M  V30 5286 H 536.566 -2.83275 -0.937977 0
M  V30 5287 C 535.315 -2.27969 -2.62537 0
M  V30 5288 H 534.638 -3.13432 -2.48194 0
M  V30 5289 H 536.078 -2.58297 -3.36242 0
M  V30 5290 C 534.537 -1.10775 -3.18167 0
M  V30 5291 O 535.067 -0.373201 -3.99963 0
M  V30 5292 N 533.273 -0.889377 -2.76656 0
M  V30 5293 H 532.82 -1.48843 -2.10246 0
M  V30 5294 H 532.778 -0.107 -3.14218 0
M  V30 5295 N 536.55 0.480323 -1.50102 0
M  V30 5296 C 537.775 1.26126 -1.64642 0
M  V30 5297 C 538.2 1.85257 -0.325823 0
M  V30 5298 O 537.558 1.66854 0.709194 0
M  V30 5299 C 537.606 2.35243 -2.73301 0
M  V30 5300 O 536.71 3.39646 -2.33911 0
M  V30 5301 H 536.051 0.371463 -0.550374 0
M  V30 5302 H 538.581 0.572696 -1.96421 0
M  V30 5303 H 538.591 2.80695 -2.96098 0
M  V30 5304 H 537.266 1.91574 -3.6915 0
M  V30 5305 H 535.843 2.99969 -2.21525 0
M  V30 5306 N 538.028 1.39524 0.732853 0
M  V30 5307 C 539.305 1.27373 1.48444 0
M  V30 5308 C 539.685 -0.115725 2.10783 0
M  V30 5309 O 539.033 -1.12713 1.98766 0
M  V30 5310 C 539.243 2.39966 2.53412 0
M  V30 5311 C 540.591 2.79384 3.19733 0
M  V30 5312 O 541.615 2.39431 2.63725 0
M  V30 5313 O 540.474 3.48353 4.21085 0
M  V30 5314 H 537.568 0.499272 0.659285 0
M  V30 5315 H 540.114 1.51403 0.766496 0
M  V30 5316 H 538.886 3.32845 2.05742 0
M  V30 5317 H 538.509 2.17612 3.32762 0
M  V30 5318 N 539.506 -0.963266 1.24736 0
M  V30 5319 C 540.754 -1.70343 1.08755 0
M  V30 5320 C 541.075 -1.91387 -0.373619 0
M  V30 5321 O 540.345 -1.4948 -1.2662 0
M  V30 5322 H 538.925 -0.631224 0.399456 0
M  V30 5323 H 541.587 -1.15859 1.56725 0
M  V30 5324 H 540.683 -2.68616 1.58909 0
M  V30 5325 N 540.985 -1.06182 -1.16461 0
M  V30 5326 C 542.234 -0.772927 -1.86303 0
M  V30 5327 C 542.547 0.703187 -1.82523 0
M  V30 5328 O 543.753 1.10641 -2.47933 0
M  V30 5329 C 542.209 -1.33249 -3.34324 0
M  V30 5330 C 541.817 -2.83876 -3.46581 0
M  V30 5331 C 543.561 -1.12108 -4.09429 0
M  V30 5332 C 541.468 -3.33082 -4.88682 0
M  V30 5333 H 540.398 -0.285452 -0.697878 0
M  V30 5334 H 543.049 -1.28039 -1.31447 0
M  V30 5335 H 541.431 -0.7528 -3.88779 0
M  V30 5336 H 542.605 -3.47786 -3.02293 0
M  V30 5337 H 540.92 -3.03671 -2.84909 0
M  V30 5338 H 543.517 -1.46361 -5.14279 0
M  V30 5339 H 543.86 -0.0593832 -4.16258 0
M  V30 5340 H 544.393 -1.6665 -3.6121 0
M  V30 5341 H 541.132 -4.38726 -4.87032 0
M  V30 5342 H 540.652 -2.73919 -5.33599 0
M  V30 5343 H 542.331 -3.28344 -5.57494 0
M  V30 5344 N 542.463 1.3308 -0.844243 0
M  V30 5345 C 543.373 2.32876 -0.283922 0
M  V30 5346 C 544.389 1.63589 0.592846 0
M  V30 5347 O 545.565 1.95205 0.495693 0
M  V30 5348 C 542.63 3.42667 0.527283 0
M  V30 5349 C 541.691 4.27664 -0.374394 0
M  V30 5350 C 540.924 5.32212 0.39819 0
M  V30 5351 O 541.147 5.46635 1.62932 0
M  V30 5352 O 540.081 6.01458 -0.2306 0
M  V30 5353 H 543.907 2.82671 -1.11045 0
M  V30 5354 H 541.492 1.36518 -0.606903 0
M  V30 5355 H 543.374 4.09652 0.988078 0
M  V30 5356 H 542.049 2.95079 1.33078 0
M  V30 5357 H 540.956 3.63526 -0.883144 0
M  V30 5358 H 542.289 4.78749 -1.1428 0
M  V30 5359 N 543.941 0.601185 1.45683 0
M  V30 5360 C 544.889 -0.133955 2.32214 0
M  V30 5361 C 545.883 -0.866034 1.45589 0
M  V30 5362 O 547.089 -0.782326 1.6211 0
M  V30 5363 H 543.464 -0.0620613 0.749435 0
M  V30 5364 H 545.435 0.614389 2.92007 0
M  V30 5365 C 544.184 -1.12216 3.29094 0
M  V30 5366 H 543.507 -0.568273 3.95741 0
M  V30 5367 H 544.947 -1.60659 3.92383 0
M  V30 5368 C 543.406 -2.19251 2.55794 0
M  V30 5369 O 543.936 -3.26894 2.33459 0
M  V30 5370 N 542.142 -1.9436 2.16039 0
M  V30 5371 H 541.689 -1.06829 2.34404 0
M  V30 5372 H 541.647 -2.66181 1.67318 0
M  V30 5373 N 545.419 -1.53889 0.339982 0
M  V30 5374 C 546.835 -1.59595 -0.0120752 0
M  V30 5375 C 547.035 -1.35605 -1.49042 0
M  V30 5376 O 546.091 -1.14856 -2.24865 0
M  V30 5377 C 547.404 -2.9774 0.420898 0
M  V30 5378 C 548.952 -3.1077 0.37294 0
M  V30 5379 C 549.427 -4.51286 0.781327 0
M  V30 5380 N 550.918 -4.57325 0.735374 0
M  V30 5381 C 551.653 -5.64194 1.02336 0
M  V30 5382 N 551.149 -6.7893 1.37933 0
M  V30 5383 N 552.942 -5.54051 0.947838 0
M  V30 5384 H 545.093 -1.67738 1.30299 0
M  V30 5385 H 547.356 -0.785385 0.530918 0
M  V30 5386 H 547.062 -3.20349 1.45152 0
M  V30 5387 H 546.936 -3.76639 -0.205721 0
M  V30 5388 H 549.323 -2.87886 -0.648505 0
M  V30 5389 H 549.404 -2.33939 1.03472 0
M  V30 5390 H 549.048 -4.74905 1.80077 0
M  V30 5391 H 548.978 -5.26511 0.0970679 0
M  V30 5392 H 551.469 -3.74931 0.472773 0
M  V30 5393 H 551.782 -7.56392 1.58402 0
M  V30 5394 H 550.127 -6.80386 1.41774 0
M  V30 5395 H 553.318 -4.63293 0.669115 0
M  V30 5396 H 553.491 -6.37246 1.17563 0
M  V30 5397 N 546.897 -0.0685191 -1.57451 0
M  V30 5398 C 547.845 0.917577 -2.13736 0
M  V30 5399 C 548.839 1.31049 -1.07344 0
M  V30 5400 O 550.045 1.28811 -1.25728 0
M  V30 5401 H 546.42 0.313835 -0.683382 0
M  V30 5402 H 548.391 0.417903 -2.95459 0
M  V30 5403 C 547.14 2.17686 -2.71123 0
M  V30 5404 H 546.463 1.88336 -3.52661 0
M  V30 5405 H 547.903 2.84803 -3.14107 0
M  V30 5406 C 546.362 2.9332 -1.65726 0
M  V30 5407 O 546.892 3.86901 -1.08031 0
M  V30 5408 N 545.098 2.56367 -1.36837 0
M  V30 5409 H 544.645 1.80341 -1.83943 0
M  V30 5410 H 544.603 3.07276 -0.665501 0
M  V30 5411 N 548.375 1.56261 0.205012 0
M  V30 5412 C 549.623 1.79684 0.925096 0
M  V30 5413 C 549.944 0.63989 1.84202 0
M  V30 5414 O 549.214 -0.342345 1.92885 0
M  V30 5415 H 547.794 0.662774 0.344587 0
M  V30 5416 H 550.456 1.93734 0.212899 0
M  V30 5417 H 549.552 2.72467 1.52211 0
M  V30 5418 N 549.853 -0.472356 1.50355 0
M  V30 5419 C 551.081 -1.24784 1.65035 0
M  V30 5420 C 551.496 -1.85837 0.333176 0
M  V30 5421 O 550.853 -1.69168 -0.68472 0
M  V30 5422 C 550.904 -2.35747 2.74054 0
M  V30 5423 O 550.625 -1.77197 4.00665 0
M  V30 5424 C 552.126 -3.26645 2.99696 0
M  V30 5425 H 549.346 -0.377432 0.554785 0
M  V30 5426 H 551.89 -0.563962 1.9657 0
M  V30 5427 H 550.045 -2.99912 2.45217 0
M  V30 5428 H 550.459 -2.5026 4.60945 0
M  V30 5429 H 551.933 -4.00718 3.79644 0
M  V30 5430 H 552.41 -3.8535 2.10718 0
M  V30 5431 H 553.016 -2.68218 3.3006 0
M  V30 5432 N 551.331 -1.39911 -0.725443 0
M  V30 5433 C 552.294 -1.39156 -1.82121 0
M  V30 5434 C 553.294 -0.287018 -1.58218 0
M  V30 5435 O 554.484 -0.545421 -1.65441 0
M  V30 5436 C 551.616 -1.1736 -3.20062 0
M  V30 5437 H 552.809 -2.36672 -1.84191 0
M  V30 5438 H 550.362 -1.25615 -0.930079 0
M  V30 5439 H 551.097 -0.205648 -3.23647 0
M  V30 5440 H 550.882 -1.97358 -3.3881 0
M  V30 5441 H 552.372 -1.19596 -4.00108 0
M  V30 5442 N 552.809 0.956637 -1.25245 0
M  V30 5443 C 554.034 1.74104 -1.12706 0
M  V30 5444 C 554.459 1.85436 0.315429 0
M  V30 5445 O 553.817 1.33334 1.22848 0
M  V30 5446 C 553.865 3.1338 -1.78396 0
M  V30 5447 O 552.969 3.98485 -1.06224 0
M  V30 5448 H 552.31 0.53476 -0.393609 0
M  V30 5449 H 554.84 1.19924 -1.65769 0
M  V30 5450 H 554.85 3.6385 -1.846 0
M  V30 5451 H 553.525 3.04448 -2.83345 0
M  V30 5452 H 552.102 3.56952 -1.07886 0
M  V30 5453 N 554.287 1.06798 1.15896 0
M  V30 5454 C 555.25 0.687328 2.18651 0
M  V30 5455 C 556.25 -0.269559 1.58524 0
M  V30 5456 O 557.44 -0.0512627 1.74125 0
M  V30 5457 C 554.572 0.0121642 3.40898 0
M  V30 5458 H 555.765 1.59701 2.53842 0
M  V30 5459 H 553.318 0.863828 1.3026 0
M  V30 5460 H 554.053 -0.910025 3.1127 0
M  V30 5461 H 553.838 0.700309 3.85795 0
M  V30 5462 H 555.328 -0.239703 4.16911 0
M  V30 5463 N 555.766 -1.3263 0.851289 0
M  V30 5464 C 556.696 -2.31449 0.308771 0
M  V30 5465 C 557.677 -1.59531 -0.590255 0
M  V30 5466 O 558.862 -1.87351 -0.511205 0
M  V30 5467 C 555.992 -3.43586 -0.506548 0
M  V30 5468 C 554.946 -4.26963 0.297753 0
M  V30 5469 C 554.272 -5.30831 -0.642094 0
M  V30 5470 C 555.572 -4.99643 1.52166 0
M  V30 5471 H 557.266 -2.77074 1.13447 0
M  V30 5472 H 554.812 -1.33207 0.546971 0
M  V30 5473 H 556.765 -4.11754 -0.896474 0
M  V30 5474 H 555.489 -2.96681 -1.36558 0
M  V30 5475 H 554.148 -3.60437 0.669391 0
M  V30 5476 H 553.796 -4.8018 -1.49788 0
M  V30 5477 H 553.496 -5.87501 -0.107968 0
M  V30 5478 H 555.02 -6.01862 -1.02927 0
M  V30 5479 H 556.434 -5.6051 1.20421 0
M  V30 5480 H 554.831 -5.66022 1.99347 0
M  V30 5481 H 555.901 -4.27701 2.28474 0
M  V30 5482 N 557.244 -0.608902 -1.45362 0
M  V30 5483 C 558.174 0.0964526 -2.33301 0
M  V30 5484 C 559.155 0.857444 -1.46908 0
M  V30 5485 O 560.34 0.827735 -1.75676 0
M  V30 5486 C 557.47 1.09354 -3.29635 0
M  V30 5487 C 556.424 0.445676 -4.25673 0
M  V30 5488 C 555.75 1.5511 -5.11708 0
M  V30 5489 C 557.05 -0.633972 -5.18438 0
M  V30 5490 H 558.744 -0.637829 -2.92527 0
M  V30 5491 H 556.29 -0.308178 -1.40664 0
M  V30 5492 H 558.243 1.59556 -3.90025 0
M  V30 5493 H 556.967 1.85843 -2.6857 0
M  V30 5494 H 555.626 -0.0354897 -3.66583 0
M  V30 5495 H 555.274 2.30631 -4.4701 0
M  V30 5496 H 554.974 1.12311 -5.76767 0
M  V30 5497 H 556.498 2.05537 -5.74967 0
M  V30 5498 H 557.912 -0.215974 -5.72893 0
M  V30 5499 H 556.309 -0.983789 -5.91981 0
M  V30 5500 H 557.379 -1.51005 -4.60788 0
M  V30 5501 N 558.722 1.53707 -0.348139 0
M  V30 5502 C 559.672 2.2193 0.522592 0
M  V30 5503 C 560.656 1.20831 1.06248 0
M  V30 5504 O 561.848 1.46357 0.995415 0
M  V30 5505 C 558.977 2.99904 1.6707 0
M  V30 5506 C 558.063 4.08364 1.14454 0
M  V30 5507 N 558.454 5.04656 0.339958 0
M  V30 5508 C 556.752 4.22757 1.421 0
M  V30 5509 C 557.453 5.81675 0.0538806 0
M  V30 5510 N 556.429 5.39739 0.646776 0
M  V30 5511 H 560.231 2.93733 -0.099135 0
M  V30 5512 H 557.745 1.61656 -0.15524 0
M  V30 5513 H 559.742 3.47284 2.30651 0
M  V30 5514 H 558.402 2.29629 2.29566 0
M  V30 5515 H 559.413 5.17896 -0.0193552 0
M  V30 5516 H 556.09 3.63704 2.05002 0
M  V30 5517 H 557.48 6.69256 -0.595443 0
M  V30 5518 N 560.2 0.0768682 1.57412 0
M  V30 5519 C 561.449 -0.590679 1.92857 0
M  V30 5520 C 561.762 -1.70461 0.959293 0
M  V30 5521 O 562.968 -2.43207 1.20675 0
M  V30 5522 C 561.424 -1.10204 3.42612 0
M  V30 5523 C 561.032 -0.0188447 4.47996 0
M  V30 5524 C 562.776 -1.74336 3.87049 0
M  V30 5525 C 560.683 -0.544536 5.88888 0
M  V30 5526 H 559.613 -0.224411 0.71983 0
M  V30 5527 H 562.264 0.149924 1.82887 0
M  V30 5528 H 560.646 -1.89577 3.47673 0
M  V30 5529 H 561.82 0.755936 4.54557 0
M  V30 5530 H 560.135 0.526555 4.13057 0
M  V30 5531 H 562.732 -2.14708 4.89699 0
M  V30 5532 H 563.075 -2.60537 3.24694 0
M  V30 5533 H 563.608 -1.01577 3.84613 0
M  V30 5534 H 560.347 0.280426 6.549 0
M  V30 5535 H 559.867 -1.28673 5.85836 0
M  V30 5536 H 561.546 -1.01933 6.3892 0
M  V30 5537 N 561.678 -1.56367 -0.196722 0
M  V30 5538 C 562.955 -1.71359 -0.943159 0
M  V30 5539 C 563.335 -0.631192 -2.01443 0
M  V30 5540 O 562.683 0.358071 -2.25677 0
M  V30 5541 C 562.893 -3.13623 -1.53106 0
M  V30 5542 C 564.241 -3.73806 -2.01381 0
M  V30 5543 O 565.265 -3.16742 -1.62951 0
M  V30 5544 O 564.124 -4.73951 -2.7209 0
M  V30 5545 H 561.218 -0.698851 -0.442195 0
M  V30 5546 H 563.764 -1.68672 -0.186547 0
M  V30 5547 H 562.536 -3.83873 -0.758785 0
M  V30 5548 H 562.159 -3.20532 -2.35255 0
M  V30 5549 N 563.156 0.464375 -1.50603 0
M  V30 5550 C 564.066 1.58723 -1.72754 0
M  V30 5551 C 565.082 1.62925 -0.610844 0
M  V30 5552 O 566.258 1.8067 -0.889963 0
M  V30 5553 C 563.323 2.94897 -1.82309 0
M  V30 5554 C 562.384 3.0103 -3.06071 0
M  V30 5555 C 561.617 4.30708 -3.1516 0
M  V30 5556 O 561.84 5.2159 -2.30868 0
M  V30 5557 O 560.774 4.42571 -4.0794 0
M  V30 5558 H 564.6 1.42954 -2.67951 0
M  V30 5559 H 562.185 0.644579 -1.3478 0
M  V30 5560 H 564.067 3.75764 -1.90735 0
M  V30 5561 H 562.742 3.10851 -0.902967 0
M  V30 5562 H 561.649 2.19217 -3.03142 0
M  V30 5563 H 562.982 2.90014 -3.97684 0
M  V30 5564 N 564.634 1.40294 0.718013 0
M  V30 5565 C 565.859 1.41941 1.5122 0
M  V30 5566 C 566.284 0.0202371 1.88089 0
M  V30 5567 O 565.642 -0.971078 1.53101 0
M  V30 5568 C 565.69 2.3141 2.76554 0
M  V30 5569 O 564.794 1.75567 3.73162 0
M  V30 5570 H 564.135 0.482644 0.456016 0
M  V30 5571 H 566.665 1.84494 0.884478 0
M  V30 5572 H 566.675 2.46513 3.25108 0
M  V30 5573 H 565.35 3.33085 2.49053 0
M  V30 5574 H 563.927 1.69798 3.31999 0
M  V30 5575 N 566.112 -0.949982 1.2575 0
M  V30 5576 C 567.075 -2.02894 1.06615 0
M  V30 5577 C 568.075 -1.60791 0.0173905 0
M  V30 5578 O 569.265 -1.72249 0.260003 0
M  V30 5579 C 566.397 -3.35219 0.619751 0
M  V30 5580 H 567.59 -2.21302 2.02399 0
M  V30 5581 H 565.143 -1.12772 1.08223 0
M  V30 5582 H 565.878 -3.22508 -0.340486 0
M  V30 5583 H 565.663 -3.67129 1.37692 0
M  V30 5584 H 567.153 -4.14505 0.507443 0
M  V30 5585 N 567.59 -1.07411 -1.15328 0
M  V30 5586 C 568.838 -0.796073 -1.85761 0
M  V30 5587 C 569.159 0.679864 -1.82764 0
M  V30 5588 O 568.429 1.49242 -1.269 0
M  V30 5589 H 567.009 -0.291495 -0.687779 0
M  V30 5590 H 569.671 -1.35799 -1.39802 0
M  V30 5591 H 568.767 -1.13114 -2.90881 0
M  V30 5592 N 569.068 1.32177 -0.85831 0
M  V30 5593 C 569.998 2.31282 -0.321041 0
M  V30 5594 C 570.979 1.59841 0.581786 0
M  V30 5595 O 572.164 1.87619 0.501262 0
M  V30 5596 C 569.294 3.4385 0.48832 0
M  V30 5597 C 568.248 4.26799 -0.320391 0
M  V30 5598 C 567.574 5.31164 0.613934 0
M  V30 5599 C 568.874 4.98829 -1.54813 0
M  V30 5600 H 570.568 2.76469 -1.14915 0
M  V30 5601 H 568.114 1.32916 -0.554028 0
M  V30 5602 H 570.067 4.12224 0.874626 0
M  V30 5603 H 568.791 2.97401 1.34983 0
M  V30 5604 H 567.45 3.60077 -0.688497 0
M  V30 5605 H 567.098 4.80967 1.47239 0
M  V30 5606 H 566.798 5.8755 0.0768097 0
M  V30 5607 H 568.322 6.024 0.997336 0
M  V30 5608 H 569.736 5.59864 -1.23392 0
M  V30 5609 H 568.133 5.64957 -2.02346 0
M  V30 5610 H 569.203 4.26483 -2.30739 0
M  V30 5611 N 570.547 0.616602 1.45037 0
M  V30 5612 C 571.795 0.115103 2.01772 0
M  V30 5613 C 572.116 -1.2622 1.48639 0
M  V30 5614 O 571.386 -1.83563 0.684199 0
M  V30 5615 H 569.966 0.0395607 0.745952 0
M  V30 5616 H 572.628 0.800032 1.77723 0
M  V30 5617 H 571.724 0.0717274 3.12018 0
M  V30 5618 N 572.025 -1.5352 0.356285 0
M  V30 5619 C 573.441 -1.59599 0.00485267 0
M  V30 5620 C 573.641 -1.37179 -1.47595 0
M  V30 5621 O 572.697 -1.17234 -2.23635 0
M  V30 5622 C 574.01 -2.97277 0.452454 0
M  V30 5623 C 575.558 -3.10357 0.405881 0
M  V30 5624 C 576.033 -4.50432 0.829148 0
M  V30 5625 N 577.524 -4.5652 0.783838 0
M  V30 5626 C 578.259 -5.63077 1.08315 0
M  V30 5627 N 577.755 -6.77429 1.45126 0
M  V30 5628 N 579.548 -5.53014 1.00655 0
M  V30 5629 H 571.699 -1.66346 1.32071 0
M  V30 5630 H 573.962 -0.77971 0.539218 0
M  V30 5631 H 573.668 -3.18792 1.48542 0
M  V30 5632 H 573.542 -3.76836 -0.165762 0
M  V30 5633 H 575.929 -2.88558 -0.617934 0
M  V30 5634 H 576.01 -2.32828 1.05947 0
M  V30 5635 H 575.654 -4.72968 1.85103 0
M  V30 5636 H 575.584 -5.26378 0.152906 0
M  V30 5637 H 578.075 -3.74408 0.512513 0
M  V30 5638 H 578.388 -7.54669 1.66415 0
M  V30 5639 H 576.733 -6.78844 1.48983 0
M  V30 5640 H 579.924 -4.62557 0.718215 0
M  V30 5641 H 580.097 -6.35964 1.24315 0
M  V30 5642 N 573.503 -0.0852151 -1.57369 0
M  V30 5643 C 574.433 0.874556 -2.16503 0
M  V30 5644 C 575.414 1.30111 -1.09568 0
M  V30 5645 O 576.599 1.36977 -1.37662 0
M  V30 5646 C 573.729 2.13731 -2.73745 0
M  V30 5647 C 572.683 1.84971 -3.85966 0
M  V30 5648 C 572.009 3.17991 -4.29867 0
M  V30 5649 C 573.309 1.14442 -5.09608 0
M  V30 5650 H 575.003 0.381899 -2.96954 0
M  V30 5651 H 572.549 0.18225 -1.42842 0
M  V30 5652 H 574.502 2.81302 -3.13763 0
M  V30 5653 H 573.226 2.65263 -1.90534 0
M  V30 5654 H 571.885 1.19801 -3.46473 0
M  V30 5655 H 571.533 3.6739 -3.4356 0
M  V30 5656 H 571.233 2.99534 -5.05523 0
M  V30 5657 H 572.757 3.86737 -4.72511 0
M  V30 5658 H 574.171 1.72105 -5.46857 0
M  V30 5659 H 572.568 1.06197 -5.90629 0
M  V30 5660 H 573.638 0.12559 -4.84737 0
M  V30 5661 N 574.981 1.5647 0.188427 0
M  V30 5662 C 575.944 1.9421 1.21718 0
M  V30 5663 C 576.944 0.823901 1.38089 0
M  V30 5664 O 578.134 1.09122 1.35787 0
M  V30 5665 C 575.266 2.22197 2.58537 0
M  V30 5666 H 576.459 2.86252 0.894418 0
M  V30 5667 H 574.012 1.50263 0.430211 0
M  V30 5668 H 574.747 1.32814 2.95856 0
M  V30 5669 H 574.532 3.03688 2.48025 0
M  V30 5670 H 576.022 2.52376 3.3271 0
M  V30 5671 N 576.459 -0.456382 1.50847 0
M  V30 5672 C 577.406 -1.55249 1.70782 0
M  V30 5673 C 578.376 -1.56757 0.549231 0
M  V30 5674 O 579.561 -1.74061 0.7815 0
M  V30 5675 C 576.701 -2.93118 1.82143 0
M  V30 5676 C 575.814 -3.01285 3.09598 0
M  V30 5677 C 574.949 -4.30159 3.11667 0
M  V30 5678 C 573.988 -4.32124 4.33515 0
M  V30 5679 N 573.125 -5.52492 4.3324 0
M  V30 5680 H 577.965 -1.37555 2.64353 0
M  V30 5681 H 575.502 -0.668543 1.3103 0
M  V30 5682 H 577.46 -3.73088 1.86711 0
M  V30 5683 H 576.09 -3.09413 0.919978 0
M  V30 5684 H 575.142 -2.14096 3.14431 0
M  V30 5685 H 576.454 -2.98597 3.99551 0
M  V30 5686 H 575.608 -5.18489 3.15046 0
M  V30 5687 H 574.347 -4.35477 2.1957 0
M  V30 5688 H 573.352 -3.42189 4.30333 0
M  V30 5689 H 574.577 -4.28485 5.26856 0
M  V30 5690 H 572.523 -5.58567 3.44004 0
M  V30 5691 H 572.44 -5.51605 5.16979 0
M  V30 5692 H 573.708 -6.42906 4.40786 0
M  V30 5693 N 577.937 -1.40673 -0.710563 0
M  V30 5694 C 578.869 -1.37256 -1.83558 0
M  V30 5695 C 579.882 -0.277133 -1.60424 0
M  V30 5696 O 581.071 -0.537831 -1.70205 0
M  V30 5697 C 578.171 -1.1144 -3.20054 0
M  V30 5698 C 577.344 -2.32734 -3.70342 0
M  V30 5699 C 576.403 -2.03002 -4.85465 0
M  V30 5700 O 575.429 -2.75912 -4.97857 0
M  V30 5701 N 576.631 -1.01105 -5.71627 0
M  V30 5702 H 579.396 -2.34215 -1.86985 0
M  V30 5703 H 576.957 -1.35091 -0.892301 0
M  V30 5704 H 578.949 -0.895265 -3.94673 0
M  V30 5705 H 577.519 -0.231307 -3.11743 0
M  V30 5706 H 576.739 -2.70446 -2.86798 0
M  V30 5707 H 578.027 -3.13584 -4.00678 0
M  V30 5708 H 577.425 -0.407303 -5.64232 0
M  V30 5709 H 575.982 -0.85182 -6.4621 0
M  V30 5710 N 579.415 0.9433 -1.26252 0
M  V30 5711 C 580.362 2.0417 -1.07625 0
M  V30 5712 C 581.332 1.6609 0.0180738 0
M  V30 5713 O 582.517 1.90276 -0.141289 0
M  V30 5714 C 579.657 3.37653 -0.713043 0
M  V30 5715 C 578.77 3.88783 -1.8834 0
M  V30 5716 C 577.905 5.10642 -1.4635 0
M  V30 5717 C 576.944 5.54028 -2.60229 0
M  V30 5718 N 576.081 6.67092 -2.18936 0
M  V30 5719 H 580.921 2.19436 -2.01623 0
M  V30 5720 H 578.458 1.07519 -1.00389 0
M  V30 5721 H 580.416 4.14391 -0.483358 0
M  V30 5722 H 579.046 3.22241 0.18996 0
M  V30 5723 H 578.098 3.08464 -2.22608 0
M  V30 5724 H 579.41 4.16922 -2.73821 0
M  V30 5725 H 578.564 5.94832 -1.19414 0
M  V30 5726 H 577.303 4.84244 -0.579568 0
M  V30 5727 H 576.308 4.68396 -2.87898 0
M  V30 5728 H 577.533 5.82429 -3.49219 0
M  V30 5729 H 575.479 6.42381 -1.32974 0
M  V30 5730 H 575.396 6.94806 -2.97961 0
M  V30 5731 H 576.664 7.54662 -1.95206 0
M  V30 5732 N 580.893 1.08022 1.14757 0
M  V30 5733 C 582.304 0.829144 1.67279 0
M  V30 5734 C 582.655 -0.644721 1.85305 0
M  V30 5735 O 581.78 -1.49838 1.56133 0
M  V30 5736 C 582.375 1.49855 3.03857 0
M  V30 5737 C 580.934 1.29482 3.53428 0
M  V30 5738 C 580.081 1.56386 2.28995 0
M  V30 5739 H 583.032 1.24134 0.988762 0
M  V30 5740 H 583.053 0.923572 3.69121 0
M  V30 5741 H 582.565 2.57123 2.90705 0
M  V30 5742 H 580.666 0.242669 3.71809 0
M  V30 5743 H 580.779 2.01974 4.34446 0
M  V30 5744 H 579.143 0.985217 2.34874 0
M  V30 5745 H 579.926 2.64851 2.18423 0
M  V30 5746 N 582.371 -1.3172 0.865308 0
M  V30 5747 C 583.318 -2.2863 0.315736 0
M  V30 5748 C 584.288 -1.55524 -0.583213 0
M  V30 5749 O 585.473 -1.83694 -0.51585 0
M  V30 5750 C 582.613 -3.41735 -0.480773 0
M  V30 5751 C 581.726 -4.297 0.445167 0
M  V30 5752 C 580.861 -5.29944 -0.365012 0
M  V30 5753 C 579.9 -6.09554 0.557651 0
M  V30 5754 N 579.037 -7.01768 -0.215994 0
M  V30 5755 H 583.877 -2.75026 1.14736 0
M  V30 5756 H 581.414 -1.35302 0.577209 0
M  V30 5757 H 583.372 -4.06045 -0.958306 0
M  V30 5758 H 582.002 -2.96461 -1.27714 0
M  V30 5759 H 581.054 -3.65875 1.04113 0
M  V30 5760 H 582.366 -4.85295 1.15284 0
M  V30 5761 H 581.52 -5.99908 -0.905255 0
M  V30 5762 H 580.259 -4.74994 -1.106 0
M  V30 5763 H 579.264 -5.38485 1.10969 0
M  V30 5764 H 580.489 -6.66591 1.29742 0
M  V30 5765 H 578.435 -6.49232 -0.939878 0
M  V30 5766 H 578.352 -7.54762 0.432431 0
M  V30 5767 H 579.62 -7.76002 -0.737618 0
M  V30 5768 N 583.85 -0.624285 -1.44708 0
M  V30 5769 C 584.797 0.0847135 -2.30644 0
M  V30 5770 C 585.767 0.843575 -1.43084 0
M  V30 5771 O 586.952 0.825982 -1.71995 0
M  V30 5772 C 584.091 1.06495 -3.28257 0
M  V30 5773 C 583.205 0.305224 -4.3092 0
M  V30 5774 C 582.34 1.27667 -5.1563 0
M  V30 5775 C 581.379 0.505706 -6.10007 0
M  V30 5776 N 580.516 1.42727 -6.8744 0
M  V30 5777 H 585.356 -0.654068 -2.90733 0
M  V30 5778 H 582.893 -0.334334 -1.4325 0
M  V30 5779 H 584.851 1.64658 -3.83332 0
M  V30 5780 H 583.481 1.77094 -2.69884 0
M  V30 5781 H 582.533 -0.392207 -3.78373 0
M  V30 5782 H 583.845 -0.295553 -4.97924 0
M  V30 5783 H 582.999 1.92984 -5.75189 0
M  V30 5784 H 581.738 1.91137 -4.48685 0
M  V30 5785 H 580.743 -0.160999 -5.49564 0
M  V30 5786 H 581.968 -0.124183 -6.78986 0
M  V30 5787 H 579.913 2.04931 -6.23169 0
M  V30 5788 H 579.831 0.880345 -7.50857 0
M  V30 5789 H 581.099 2.0695 -7.51526 0
M  V30 5790 N 585.328 1.53329 -0.364422 0
M  V30 5791 C 586.275 2.25698 0.482607 0
M  V30 5792 C 587.245 1.26325 1.07848 0
M  V30 5793 O 588.43 1.55104 1.11119 0
M  V30 5794 C 585.57 3.04873 1.61699 0
M  V30 5795 C 584.683 4.19135 1.0464 0
M  V30 5796 C 583.818 4.85754 2.14979 0
M  V30 5797 C 582.857 5.9205 1.5538 0
M  V30 5798 N 581.994 6.52365 2.59547 0
M  V30 5799 H 586.834 2.97666 -0.141032 0
M  V30 5800 H 584.371 1.46875 -0.0813692 0
M  V30 5801 H 586.329 3.49051 2.28516 0
M  V30 5802 H 584.959 2.35162 2.2113 0
M  V30 5803 H 584.011 3.79451 0.268553 0
M  V30 5804 H 585.323 4.95525 0.570653 0
M  V30 5805 H 584.477 5.3311 2.89619 0
M  V30 5806 H 583.216 4.08834 2.65906 0
M  V30 5807 H 582.221 5.44058 0.792549 0
M  V30 5808 H 583.446 6.7089 1.0528 0
M  V30 5809 H 581.392 5.78298 3.09689 0
M  V30 5810 H 581.309 7.2429 2.16655 0
M  V30 5811 H 582.577 7.0437 3.33892 0
M  V30 5812 N 586.806 0.0935595 1.57322 0
M  V30 5813 C 588.222 -0.263091 1.57417 0
M  V30 5814 C 588.422 -1.68526 1.1046 0
M  V30 5815 O 587.478 -2.40139 0.780357 0
M  V30 5816 C 588.791 -0.0529201 3.00653 0
M  V30 5817 C 590.339 -0.120788 3.12767 0
M  V30 5818 C 590.814 0.0613707 4.57959 0
M  V30 5819 N 592.305 0.00648534 4.632 0
M  V30 5820 C 593.04 0.122699 5.73269 0
M  V30 5821 N 592.536 0.29366 6.92177 0
M  V30 5822 N 594.329 0.0640787 5.62063 0
M  V30 5823 H 586.48 1.02277 1.86154 0
M  V30 5824 H 588.743 0.4007 0.859153 0
M  V30 5825 H 588.449 0.929279 3.39201 0
M  V30 5826 H 588.323 -0.795899 3.68708 0
M  V30 5827 H 590.71 -1.09349 2.74093 0
M  V30 5828 H 590.791 0.653656 2.47307 0
M  V30 5829 H 590.435 1.03093 4.97327 0
M  V30 5830 H 590.365 -0.732748 5.21477 0
M  V30 5831 H 592.856 -0.123173 3.77699 0
M  V30 5832 H 593.169 0.37389 7.71895 0
M  V30 5833 H 591.514 0.329307 6.94219 0
M  V30 5834 H 594.705 -0.0683396 4.6805 0
M  V30 5835 H 594.878 0.158097 6.47807 0
M  V30 5836 N 588.284 -1.56567 -0.180126 0
M  V30 5837 C 589.7 -1.50488 -0.531559 0
M  V30 5838 C 589.9 -0.796267 -1.851 0
M  V30 5839 O 588.956 -0.352978 -2.50021 0
M  V30 5840 C 590.269 -2.95201 -0.572456 0
M  V30 5841 C 591.817 -3.05957 -0.660264 0
M  V30 5842 C 592.292 -4.5211 -0.732135 0
M  V30 5843 N 593.783 -4.56322 -0.795262 0
M  V30 5844 C 594.518 -5.66742 -0.871296 0
M  V30 5845 N 594.014 -6.86815 -0.908708 0
M  V30 5846 N 595.807 -5.54691 -0.909639 0
M  V30 5847 H 587.958 -2.01045 0.685165 0
M  V30 5848 H 590.221 -0.915536 0.245962 0
M  V30 5849 H 589.927 -3.50165 0.328208 0
M  V30 5850 H 589.801 -3.49369 -1.422 0
M  V30 5851 H 592.188 -2.51032 -1.55136 0
M  V30 5852 H 592.269 -2.54888 0.215783 0
M  V30 5853 H 591.913 -5.07664 0.154664 0
M  V30 5854 H 591.843 -5.00926 -1.6242 0
M  V30 5855 H 594.334 -3.69868 -0.77499 0
M  V30 5856 H 594.647 -7.66718 -0.967654 0
M  V30 5857 H 592.992 -6.89443 -0.877132 0
M  V30 5858 H 596.183 -4.59804 -0.877353 0
M  V30 5859 H 596.356 -6.40768 -0.965434 0
M  V30 5860 N 589.762 0.448376 -1.51087 0
M  V30 5861 C 591.173 1.0286 -1.5581 0
M  V30 5862 C 591.524 1.92583 -0.374989 0
M  V30 5863 O 590.649 2.10316 0.509533 0
M  V30 5864 C 591.244 1.87223 -2.8237 0
M  V30 5865 C 589.803 2.40314 -2.897 0
M  V30 5866 C 588.95 1.19238 -2.50355 0
M  V30 5867 H 591.901 0.230075 -1.57023 0
M  V30 5868 H 591.922 2.72553 -2.6551 0
M  V30 5869 H 591.434 1.21894 -3.68461 0
M  V30 5870 H 589.535 3.09129 -2.08014 0
M  V30 5871 H 589.648 2.73866 -3.93108 0
M  V30 5872 H 588.012 1.53428 -2.03303 0
M  V30 5873 H 588.795 0.555367 -3.38778 0
M  V30 5874 N 591.24 1.41047 0.703093 0
M  V30 5875 C 592.517 1.30493 1.45708 0
M  V30 5876 C 592.897 -0.0709892 2.10981 0
M  V30 5877 O 592.245 -1.08471 2.01113 0
M  V30 5878 C 592.455 2.45287 2.48265 0
M  V30 5879 C 593.803 2.86104 3.13735 0
M  V30 5880 O 594.827 2.44971 2.58587 0
M  V30 5881 O 593.686 3.57206 4.13601 0
M  V30 5882 H 590.78 0.513144 0.648546 0
M  V30 5883 H 593.326 1.52995 0.734208 0
M  V30 5884 H 592.098 3.37135 1.98635 0
M  V30 5885 H 591.721 2.24622 3.28071 0
M  V30 5886 N 592.718 -0.936591 1.26751 0
M  V30 5887 C 593.943 -1.72288 1.15462 0
M  V30 5888 C 594.368 -1.85915 -0.285887 0
M  V30 5889 O 593.726 -1.35272 -1.20711 0
M  V30 5890 C 593.774 -3.10503 1.83359 0
M  V30 5891 O 592.878 -3.96745 1.1255 0
M  V30 5892 H 592.219 -0.52843 0.402067 0
M  V30 5893 H 594.749 -1.17271 1.67656 0
M  V30 5894 H 594.759 -3.60867 1.90365 0
M  V30 5895 H 593.434 -2.99901 2.88153 0
M  V30 5896 H 592.011 -3.55191 1.13551 0
M  V30 5897 N 594.196 -1.08629 -1.14182 0
M  V30 5898 C 595.612 -0.814363 -1.3726 0
M  V30 5899 C 595.812 0.575271 -1.93114 0
M  V30 5900 O 594.868 1.33165 -2.1453 0
M  V30 5901 C 596.181 -1.8989 -2.33157 0
M  V30 5902 C 597.729 -1.92518 -2.46791 0
M  V30 5903 C 598.204 -3.00092 -3.45989 0
M  V30 5904 N 599.695 -2.99279 -3.53534 0
M  V30 5905 C 600.43 -3.79158 -4.30147 0
M  V30 5906 N 599.926 -4.68923 -5.09983 0
M  V30 5907 N 601.719 -3.67451 -4.25366 0
M  V30 5908 H 593.87 -1.98232 -0.762758 0
M  V30 5909 H 596.133 -0.860383 -0.398051 0
M  V30 5910 H 595.839 -2.89809 -1.99257 0
M  V30 5911 H 595.713 -1.77013 -3.33086 0
M  V30 5912 H 598.1 -0.932425 -2.79982 0
M  V30 5913 H 598.181 -2.09473 -1.46816 0
M  V30 5914 H 597.825 -3.99575 -3.13532 0
M  V30 5915 H 597.755 -2.80382 -4.45751 0
M  V30 5916 H 600.246 -2.3422 -2.96563 0
M  V30 5917 H 600.559 -5.26475 -5.65724 0
M  V30 5918 H 598.904 -4.72964 -5.09244 0
M  V30 5919 H 602.095 -2.9669 -3.62067 0
M  V30 5920 H 602.268 -4.29944 -4.84822 0
M  V30 5921 N 595.674 1.31259 -0.872281 0
M  V30 5922 C 596.606 2.27396 -0.28697 0
M  V30 5923 C 597.619 1.53181 0.551297 0
M  V30 5924 O 598.808 1.74561 0.372914 0
M  V30 5925 C 595.908 3.33335 0.611617 0
M  V30 5926 C 595.081 4.36966 -0.194729 0
M  V30 5927 C 594.14 5.22387 0.632358 0
M  V30 5928 O 593.166 5.69169 0.0595691 0
M  V30 5929 N 594.368 5.46985 1.94391 0
M  V30 5930 H 597.133 2.78261 -1.11314 0
M  V30 5931 H 594.694 1.44306 -0.733994 0
M  V30 5932 H 596.686 3.87398 1.17068 0
M  V30 5933 H 595.256 2.82496 1.33846 0
M  V30 5934 H 594.476 3.82945 -0.935241 0
M  V30 5935 H 595.764 5.03273 -0.747935 0
M  V30 5936 H 595.162 5.10737 2.43237 0
M  V30 5937 H 593.719 6.03973 2.45071 0
M  V30 5938 N 597.152 0.631951 1.44375 0
M  V30 5939 C 598.382 0.143658 2.061 0
M  V30 5940 C 598.79 -1.18733 1.47306 0
M  V30 5941 O 598.133 -1.73943 0.590724 0
M  V30 5942 C 598.195 -0.0446102 3.59472 0
M  V30 5943 C 597.859 1.20835 4.40736 0
M  V30 5944 C 598.856 2.13224 4.74164 0
M  V30 5945 C 596.541 1.44399 4.81097 0
M  V30 5946 C 598.535 3.27487 5.46838 0
M  V30 5947 C 596.222 2.58959 5.53519 0
M  V30 5948 C 597.22 3.50329 5.86309 0
M  V30 5949 O 596.908 4.62891 6.57257 0
M  V30 5950 H 596.64 0.0772939 0.671567 0
M  V30 5951 H 599.194 0.866677 1.8622 0
M  V30 5952 H 597.424 -0.822783 3.77845 0
M  V30 5953 H 599.113 -0.487561 4.02961 0
M  V30 5954 H 599.879 1.96253 4.4352 0
M  V30 5955 H 595.758 0.741696 4.54994 0
M  V30 5956 H 599.302 3.98826 5.72349 0
M  V30 5957 H 595.199 2.75873 5.83579 0
M  V30 5958 H 595.967 4.61883 6.75726 0
M  V30 5959 N 598.631 -1.53133 0.372548 0
M  V30 5960 C 599.563 -2.23557 -0.505444 0
M  V30 5961 C 600.576 -1.25211 -1.04049 0
M  V30 5962 O 601.765 -1.51391 -0.945675 0
M  V30 5963 C 598.865 -2.92516 -1.71136 0
M  V30 5964 C 598.038 -4.17428 -1.30661 0
M  V30 5965 C 597.097 -4.69535 -2.37536 0
M  V30 5966 O 596.123 -5.33042 -1.99637 0
M  V30 5967 N 597.325 -4.47947 -3.6922 0
M  V30 5968 H 600.09 -2.9954 0.0978259 0
M  V30 5969 H 597.651 -1.60684 0.198068 0
M  V30 5970 H 599.643 -3.24281 -2.42124 0
M  V30 5971 H 598.213 -2.19944 -2.22134 0
M  V30 5972 H 597.433 -3.91888 -0.426292 0
M  V30 5973 H 598.721 -4.98622 -1.01259 0
M  V30 5974 H 598.119 -3.97219 -4.02783 0
M  V30 5975 H 596.676 -4.84245 -4.36292 0
M  V30 5976 N 600.109 -0.101901 -1.5727 0
M  V30 5977 C 601.337 0.568392 -1.98939 0
M  V30 5978 C 601.752 1.61301 -0.981194 0
M  V30 5979 O 601.109 1.82478 0.0282869 0
M  V30 5980 C 601.16 1.20997 -3.40649 0
M  V30 5981 O 600.881 0.207129 -4.3761 0
M  V30 5982 C 602.382 1.96523 -3.97358 0
M  V30 5983 H 599.602 0.15186 -0.65359 0
M  V30 5984 H 602.146 -0.183198 -2.03678 0
M  V30 5985 H 600.301 1.91245 -3.36904 0
M  V30 5986 H 600.715 0.671071 -5.20189 0
M  V30 5987 H 602.189 2.36764 -4.98645 0
M  V30 5988 H 602.666 2.83376 -3.35552 0
M  V30 5989 H 603.272 1.31076 -4.04598 0
M  V30 5990 N 601.587 1.56661 0.17182 0
M  V30 5991 C 602.55 1.9549 1.19651 0
M  V30 5992 C 603.55 0.838501 1.37207 0
M  V30 5993 O 604.74 1.10556 1.34622 0
M  V30 5994 C 601.872 2.24927 2.56166 0
M  V30 5995 H 603.065 2.87184 0.864007 0
M  V30 5996 H 600.618 1.50711 0.41425 0
M  V30 5997 H 601.353 1.35944 2.94431 0
M  V30 5998 H 601.138 3.06301 2.4479 0
M  V30 5999 H 602.628 2.55891 3.30014 0
M  V30 6000 N 603.065 -0.440357 1.51323 0
M  V30 6001 C 604.314 -1.18697 1.63076 0
M  V30 6002 C 604.627 -1.92418 0.35136 0
M  V30 6003 O 605.833 -2.69258 0.348221 0
M  V30 6004 C 604.289 -2.15849 2.87988 0
M  V30 6005 C 603.897 -1.47789 4.22921 0
M  V30 6006 C 605.641 -2.90962 3.09098 0
M  V30 6007 C 603.548 -2.43407 5.38987 0
M  V30 6008 H 602.478 -0.44676 0.607389 0
M  V30 6009 H 605.129 -0.454313 1.77787 0
M  V30 6010 H 603.511 -2.92537 2.66905 0
M  V30 6011 H 604.685 -0.7668 4.54375 0
M  V30 6012 H 603 -0.848404 4.07665 0
M  V30 6013 H 605.597 -3.62584 3.92985 0
M  V30 6014 H 605.94 -3.52133 2.22053 0
M  V30 6015 H 606.473 -2.21381 3.30507 0
M  V30 6016 H 603.212 -1.86929 6.28282 0
M  V30 6017 H 602.732 -3.12579 5.11913 0
M  V30 6018 H 604.411 -3.046 5.70813 0
M  V30 6019 N 604.543 -1.41418 -0.695603 0
M  V30 6020 C 605.792 -1.40073 -1.4513 0
M  V30 6021 C 606.105 -0.0130439 -1.95596 0
M  V30 6022 O 607.311 0.123032 -2.71221 0
M  V30 6023 C 605.767 -2.46286 -2.62433 0
M  V30 6024 C 605.375 -3.90962 -2.18753 0
M  V30 6025 C 607.119 -2.54077 -3.40066 0
M  V30 6026 C 605.026 -4.88728 -3.33015 0
M  V30 6027 H 603.956 -0.520903 -0.545138 0
M  V30 6028 H 606.607 -1.67242 -0.75515 0
M  V30 6029 H 604.989 -2.12248 -3.34315 0
M  V30 6030 H 606.163 -4.34248 -1.54161 0
M  V30 6031 H 604.478 -3.86831 -1.54114 0
M  V30 6032 H 607.075 -3.24303 -4.25125 0
M  V30 6033 H 607.418 -1.5776 -3.8525 0
M  V30 6034 H 607.951 -2.87206 -2.75241 0
M  V30 6035 H 604.69 -5.86449 -2.92844 0
M  V30 6036 H 604.21 -4.50091 -3.96457 0
M  V30 6037 H 605.889 -5.09483 -3.98793 0
M  V30 6038 N 606.021 0.929856 -1.27246 0
M  V30 6039 C 607.27 1.67182 -1.12842 0
M  V30 6040 C 607.583 1.9287 0.325666 0
M  V30 6041 O 608.789 2.64999 0.590572 0
M  V30 6042 C 607.245 3.01097 -1.97151 0
M  V30 6043 C 606.853 2.83115 -3.47203 0
M  V30 6044 C 608.597 3.78907 -1.91389 0
M  V30 6045 C 606.504 4.12573 -4.23719 0
M  V30 6046 H 605.434 0.627064 -0.418697 0
M  V30 6047 H 608.085 1.0332 -1.51649 0
M  V30 6048 H 606.467 3.66004 -1.51186 0
M  V30 6049 H 607.641 2.26989 -4.01015 0
M  V30 6050 H 605.956 2.18736 -3.54321 0
M  V30 6051 H 608.553 4.74837 -2.45834 0
M  V30 6052 H 608.896 4.0674 -0.887047 0
M  V30 6053 H 609.429 3.20794 -2.35237 0
M  V30 6054 H 606.168 3.8992 -5.26918 0
M  V30 6055 H 605.688 4.68371 -3.74685 0
M  V30 6056 H 607.367 4.8095 -4.32777 0
M  V30 6057 N 607.499 1.09233 1.13605 0
M  V30 6058 C 608.747 0.825525 1.84471 0
M  V30 6059 C 609.068 -0.650702 1.83823 0
M  V30 6060 O 608.338 -1.47204 1.29259 0
M  V30 6061 H 606.918 0.3024 0.683054 0
M  V30 6062 H 609.58 1.38006 1.37624 0
M  V30 6063 H 608.676 1.17727 2.89045 0
M  V30 6064 N 608.977 -1.30795 0.87923 0
M  V30 6065 C 610.388 -1.78535 0.546093 0
M  V30 6066 C 610.739 -1.72354 -0.937467 0
M  V30 6067 O 609.864 -1.2969 -1.73233 0
M  V30 6068 C 610.459 -3.24181 0.9845 0
M  V30 6069 C 609.018 -3.69779 0.702871 0
M  V30 6070 C 608.165 -2.51377 1.17068 0
M  V30 6071 H 611.116 -1.17746 1.06403 0
M  V30 6072 H 611.137 -3.79227 0.311045 0
M  V30 6073 H 610.649 -3.28647 2.06429 0
M  V30 6074 H 608.75 -3.70806 -0.365166 0
M  V30 6075 H 608.863 -4.61507 1.28639 0
M  V30 6076 H 607.227 -2.47768 0.590172 0
M  V30 6077 H 608.01 -2.58584 2.25808 0
M  V30 6078 N 610.455 -0.639598 -1.44038 0
M  V30 6079 C 611.732 -0.078012 -1.95444 0
M  V30 6080 C 612.112 1.39847 -1.58133 0
M  V30 6081 O 611.46 2.11714 -0.859614 0
M  V30 6082 C 611.67 -0.309832 -3.47622 0
M  V30 6083 C 613.018 -0.207521 -4.24093 0
M  V30 6084 O 614.042 -0.241653 -3.55379 0
M  V30 6085 O 612.901 -0.119641 -5.46369 0
M  V30 6086 H 609.995 0.0174534 -0.826816 0
M  V30 6087 H 612.541 -0.711891 -1.54046 0
M  V30 6088 H 611.313 -1.33401 -3.67858 0
M  V30 6089 H 610.936 0.357777 -3.95987 0
M  V30 6090 N 611.933 1.52934 -0.380664 0
M  V30 6091 C 613.181 2.01069 0.203874 0
M  V30 6092 C 613.502 1.26922 1.4804 0
M  V30 6093 O 612.772 0.386787 1.92044 0
M  V30 6094 H 611.352 0.742882 0.0783279 0
M  V30 6095 H 614.014 1.88099 -0.510368 0
M  V30 6096 H 613.11 3.09258 0.42021 0
M  V30 6097 N 613.412 0.11024 1.57214 0
M  V30 6098 C 614.362 -0.854147 2.11396 0
M  V30 6099 C 615.346 -1.23394 1.03261 0
M  V30 6100 O 616.538 -1.20649 1.2951 0
M  V30 6101 C 613.667 -2.10752 2.70995 0
M  V30 6102 C 612.753 -1.75249 3.86198 0
M  V30 6103 N 613.144 -1.10377 4.9361 0
M  V30 6104 C 611.442 -2.04763 3.96217 0
M  V30 6105 C 612.143 -0.938199 5.74084 0
M  V30 6106 N 611.119 -1.46039 5.23616 0
M  V30 6107 H 614.921 -0.348897 2.91822 0
M  V30 6108 H 612.435 -0.0925071 1.62136 0
M  V30 6109 H 614.432 -2.80801 3.0815 0
M  V30 6110 H 613.092 -2.61829 1.9203 0
M  V30 6111 H 614.103 -0.768785 5.12162 0
M  V30 6112 H 610.78 -2.57948 3.28282 0
M  V30 6113 H 612.17 -0.429678 6.70525 0
M  V30 6114 N 614.89 -1.56749 -0.16351 0
M  V30 6115 C 616.301 -1.72039 -0.725216 0
M  V30 6116 C 616.652 -0.72202 -1.82432 0
M  V30 6117 O 615.777 0.114942 -2.16095 0
M  V30 6118 C 616.372 -3.11932 -1.32227 0
M  V30 6119 C 614.931 -3.28879 -1.83072 0
M  V30 6120 C 614.078 -2.67984 -0.712716 0
M  V30 6121 H 617.029 -1.58579 0.0619772 0
M  V30 6122 H 617.05 -3.11015 -2.19202 0
M  V30 6123 H 616.562 -3.84572 -0.522103 0
M  V30 6124 H 614.663 -2.61209 -2.65708 0
M  V30 6125 H 614.776 -4.36688 -1.97079 0
M  V30 6126 H 613.14 -2.28005 -1.13515 0
M  V30 6127 H 613.923 -3.43216 0.0757361 0
M  V30 6128 N 616.368 0.432326 -1.51554 0
M  V30 6129 C 617.298 1.53242 -1.76179 0
M  V30 6130 C 618.279 1.58717 -0.611801 0
M  V30 6131 O 619.464 1.74364 -0.855033 0
M  V30 6132 C 616.594 2.91278 -1.89141 0
M  V30 6133 C 615.548 3.00663 -3.04608 0
M  V30 6134 C 614.874 4.40728 -3.02759 0
M  V30 6135 C 616.174 2.74281 -4.44485 0
M  V30 6136 H 617.868 1.32886 -2.68294 0
M  V30 6137 H 615.414 0.637841 -1.29103 0
M  V30 6138 H 617.367 3.68203 -2.04951 0
M  V30 6139 H 616.091 3.12877 -0.936785 0
M  V30 6140 H 614.75 2.26179 -2.88511 0
M  V30 6141 H 614.398 4.59301 -2.05065 0
M  V30 6142 H 614.098 4.47936 -3.80299 0
M  V30 6143 H 615.622 5.19619 -3.20669 0
M  V30 6144 H 617.036 3.40936 -4.60907 0
M  V30 6145 H 615.433 2.92893 -5.23769 0
M  V30 6146 H 616.503 1.69856 -4.54177 0
M  V30 6147 N 617.846 1.41785 0.688094 0
M  V30 6148 C 619.074 1.44915 1.47673 0
M  V30 6149 C 619.489 0.0565786 1.88715 0
M  V30 6150 O 618.846 -0.92579 1.57275 0
M  V30 6151 C 618.897 2.36452 2.73446 0
M  V30 6152 O 618.618 3.7029 2.34131 0
M  V30 6153 C 620.119 2.48463 3.67125 0
M  V30 6154 H 617.339 0.493324 0.454832 0
M  V30 6155 H 619.883 1.86153 0.846594 0
M  V30 6156 H 618.038 1.98502 3.3268 0
M  V30 6157 H 618.452 4.19183 3.15255 0
M  V30 6158 H 619.926 3.16662 4.52138 0
M  V30 6159 H 620.403 1.51826 4.12123 0
M  V30 6160 H 621.009 2.8708 3.13792 0
M  V30 6161 N 619.324 -0.923095 1.27737 0
M  V30 6162 C 620.57 -1.67375 1.14514 0
M  V30 6163 C 620.903 -1.91751 -0.307424 0
M  V30 6164 O 620.178 -1.51119 -1.22447 0
M  V30 6165 C 620.461 -3.03745 1.9342 0
M  V30 6166 C 620.314 -2.86581 3.46686 0
M  V30 6167 C 621.633 -4.04144 1.74228 0
M  V30 6168 H 618.752 -0.607427 0.417374 0
M  V30 6169 H 621.394 -1.07089 1.56946 0
M  V30 6170 H 619.544 -3.55204 1.5736 0
M  V30 6171 H 621.216 -2.42203 3.92601 0
M  V30 6172 H 619.459 -2.21829 3.72793 0
M  V30 6173 H 620.13 -3.83381 3.97143 0
M  V30 6174 H 622.606 -3.61712 2.05678 0
M  V30 6175 H 621.482 -4.97543 2.31824 0
M  V30 6176 H 621.743 -4.36661 0.691373 0
M  V30 6177 N 620.802 -1.09834 -1.13024 0
M  V30 6178 C 622.032 -0.857657 -1.87957 0
M  V30 6179 C 622.44 0.595008 -1.796 0
M  V30 6180 O 621.783 1.42158 -1.16347 0
M  V30 6181 C 621.845 -1.21949 -3.38185 0
M  V30 6182 C 621.509 -2.67791 -3.7032 0
M  V30 6183 C 622.506 -3.66036 -3.69207 0
M  V30 6184 C 620.191 -3.04019 -3.99847 0
M  V30 6185 C 622.185 -4.98533 -3.9717 0
M  V30 6186 C 619.872 -4.36706 -4.27471 0
M  V30 6187 C 620.87 -5.33772 -4.26118 0
M  V30 6188 O 620.558 -6.64072 -4.53061 0
M  V30 6189 H 620.29 -0.308009 -0.601753 0
M  V30 6190 H 622.844 -1.46496 -1.43973 0
M  V30 6191 H 621.074 -0.555249 -3.82693 0
M  V30 6192 H 622.763 -0.957281 -3.9445 0
M  V30 6193 H 623.529 -3.39392 -3.46465 0
M  V30 6194 H 619.408 -2.29096 -4.00045 0
M  V30 6195 H 622.952 -5.74288 -3.96029 0
M  V30 6196 H 618.849 -4.63091 -4.49685 0
M  V30 6197 H 619.617 -6.69608 -4.7071 0
M  V30 6198 N 622.28 1.30327 -0.886154 0
M  V30 6199 C 623.691 1.78243 -0.555554 0
M  V30 6200 C 624.042 1.72849 0.928314 0
M  V30 6201 O 623.167 1.30607 1.72542 0
M  V30 6202 C 623.762 3.23654 -1.00168 0
M  V30 6203 C 622.321 3.69401 -0.722471 0
M  V30 6204 C 621.468 2.50753 -1.18399 0
M  V30 6205 H 624.419 1.1718 -1.07026 0
M  V30 6206 H 624.44 3.79056 -0.331152 0
M  V30 6207 H 623.952 3.27548 -2.08169 0
M  V30 6208 H 622.053 3.70995 0.345496 0
M  V30 6209 H 622.166 4.60818 -1.31085 0
M  V30 6210 H 620.53 2.47452 -0.603303 0
M  V30 6211 H 621.313 2.57383 -2.27176 0
M  V30 6212 N 623.758 0.647228 1.43697 0
M  V30 6213 C 624.998 0.16171 2.03759 0
M  V30 6214 C 625.362 -1.19951 1.49919 0
M  V30 6215 O 626.563 -1.77808 2.01588 0
M  V30 6216 C 624.834 0.16505 3.57019 0
M  V30 6217 S 626.393 -0.253497 4.38067 0
M  V30 6218 H 623.211 0.0689985 0.707644 0
M  V30 6219 H 625.813 0.854224 1.7585 0
M  V30 6220 H 624.517 1.15858 3.93707 0
M  V30 6221 H 624.048 -0.548194 3.89562 0
M  V30 6222 H 626.063 -1.49385 4.73179 0
M  V30 6223 N 625.236 -1.5273 0.388769 0
M  V30 6224 C 626.169 -2.22861 -0.490752 0
M  V30 6225 C 627.147 -1.22912 -1.06449 0
M  V30 6226 O 628.331 -1.51896 -1.11624 0
M  V30 6227 C 625.458 -2.94141 -1.67925 0
M  V30 6228 C 624.504 -4.08355 -1.23081 0
M  V30 6229 S 625.337 -5.35077 -0.212786 0
M  V30 6230 C 626.493 -6.09879 -1.40708 0
M  V30 6231 H 626.726 -2.97115 0.104787 0
M  V30 6232 H 624.259 -1.53428 0.172956 0
M  V30 6233 H 626.217 -3.35818 -2.36085 0
M  V30 6234 H 624.878 -2.19568 -2.24608 0
M  V30 6235 H 624.071 -4.57328 -2.11818 0
M  V30 6236 H 623.673 -3.68688 -0.628121 0
M  V30 6237 H 625.965 -6.36018 -2.33424 0
M  V30 6238 H 626.908 -7.01586 -0.958271 0
M  V30 6239 H 627.316 -5.40646 -1.62364 0
M  V30 6240 N 626.714 -0.118576 -1.57153 0
M  V30 6241 C 627.963 0.539339 -1.94355 0
M  V30 6242 C 628.276 1.67858 -1.00415 0
M  V30 6243 O 629.482 2.39922 -1.27081 0
M  V30 6244 C 627.938 1.01082 -3.45414 0
M  V30 6245 C 627.546 -0.0999402 -4.47889 0
M  V30 6246 C 629.29 1.64013 -3.91535 0
M  V30 6247 C 627.197 0.388212 -5.90124 0
M  V30 6248 H 626.127 0.205247 -0.725527 0
M  V30 6249 H 628.778 -0.19836 -1.82425 0
M  V30 6250 H 627.16 1.80292 -3.52577 0
M  V30 6251 H 628.334 -0.876189 -4.52393 0
M  V30 6252 H 626.649 -0.635885 -4.11516 0
M  V30 6253 H 629.246 2.01649 -4.95219 0
M  V30 6254 H 629.589 2.51836 -3.31488 0
M  V30 6255 H 630.122 0.913439 -3.87171 0
M  V30 6256 H 626.861 -0.453963 -6.53926 0
M  V30 6257 H 626.381 1.13095 -5.89041 0
M  V30 6258 H 628.06 0.849574 -6.41398 0
M  V30 6259 N 628.193 1.56834 0.155195 0
M  V30 6260 C 629.433 1.84701 0.875488 0
M  V30 6261 C 629.797 0.701747 1.78716 0
M  V30 6262 O 630.998 0.861263 2.54629 0
M  V30 6263 C 629.269 3.1773 1.63654 0
M  V30 6264 S 630.828 3.67128 2.40338 0
M  V30 6265 H 627.646 0.647856 0.292923 0
M  V30 6266 H 630.248 1.95026 0.136024 0
M  V30 6267 H 628.952 3.99059 0.958117 0
M  V30 6268 H 628.483 3.10388 2.41708 0
M  V30 6269 H 630.498 3.35739 3.65368 0
M  V30 6270 N 629.671 -0.424282 1.51781 0
M  V30 6271 C 630.919 -1.17028 1.64769 0
M  V30 6272 C 631.24 -1.91409 0.372523 0
M  V30 6273 O 630.51 -1.86091 -0.612108 0
M  V30 6274 H 629.09 -0.434992 0.607282 0
M  V30 6275 H 631.752 -0.485169 1.88765 0
M  V30 6276 H 630.848 -1.8927 2.4816 0
M  V30 6277 N 631.149 -1.42148 -0.680565 0
M  V30 6278 C 632.096 -1.45175 -1.79424 0
M  V30 6279 C 633.066 -0.304352 -1.63288 0
M  V30 6280 O 634.251 -0.507591 -1.83924 0
M  V30 6281 C 631.391 -1.35429 -3.17416 0
M  V30 6282 C 630.504 -2.60158 -3.4488 0
M  V30 6283 C 629.639 -2.42596 -4.72568 0
M  V30 6284 C 628.678 -3.62727 -4.93047 0
M  V30 6285 N 627.815 -3.44143 -6.11973 0
M  V30 6286 H 632.655 -2.40349 -1.76172 0
M  V30 6287 H 630.192 -1.19334 -0.860107 0
M  V30 6288 H 632.15 -1.27777 -3.97151 0
M  V30 6289 H 630.78 -0.438536 -3.19807 0
M  V30 6290 H 629.832 -2.78199 -2.5944 0
M  V30 6291 H 631.144 -3.49473 -3.55908 0
M  V30 6292 H 630.298 -2.32497 -5.60384 0
M  V30 6293 H 629.037 -1.50761 -4.63813 0
M  V30 6294 H 628.042 -3.73264 -4.03676 0
M  V30 6295 H 629.267 -4.55534 -5.03652 0
M  V30 6296 H 627.213 -2.5502 -6.04401 0
M  V30 6297 H 627.13 -4.27041 -6.23836 0
M  V30 6298 H 628.398 -3.37845 -7.02482 0
M  V30 6299 N 632.627 0.916307 -1.28225 0
M  V30 6300 C 633.574 2.01841 -1.11932 0
M  V30 6301 C 634.544 1.66091 -0.0171604 0
M  V30 6302 O 635.729 1.89934 -0.181617 0
M  V30 6303 C 632.869 3.36065 -0.784504 0
M  V30 6304 C 631.982 3.847 -1.96544 0
M  V30 6305 C 631.117 5.07423 -1.57149 0
M  V30 6306 C 630.156 5.48384 -2.71922 0
M  V30 6307 N 629.293 6.62298 -2.33037 0
M  V30 6308 H 634.133 2.1511 -2.06232 0
M  V30 6309 H 631.67 1.05366 -1.02647 0
M  V30 6310 H 633.628 4.13272 -0.571148 0
M  V30 6311 H 632.258 3.22571 0.121565 0
M  V30 6312 H 631.31 3.03673 -2.291 0
M  V30 6313 H 632.622 4.1102 -2.82603 0
M  V30 6314 H 631.776 5.92165 -1.32004 0
M  V30 6315 H 630.515 4.82906 -0.682153 0
M  V30 6316 H 629.52 4.62184 -2.97768 0
M  V30 6317 H 630.745 5.7489 -3.61494 0
M  V30 6318 H 628.691 6.39416 -1.4657 0
M  V30 6319 H 628.608 6.8833 -3.12631 0
M  V30 6320 H 629.876 7.50352 -2.11169 0
M  V30 6321 N 634.105 1.10431 1.1244 0
M  V30 6322 C 635.352 0.846717 1.83948 0
M  V30 6323 C 635.68 -0.627709 1.84093 0
M  V30 6324 O 634.935 -1.47876 1.28184 0
M  V30 6325 C 635.234 1.34022 3.3132 0
M  V30 6326 C 634.9 2.82606 3.51347 0
M  V30 6327 C 633.562 3.23182 3.56521 0
M  V30 6328 C 635.914 3.78356 3.58464 0
M  V30 6329 C 633.242 4.58258 3.66356 0
M  V30 6330 C 635.594 5.13234 3.69829 0
M  V30 6331 C 634.258 5.53384 3.73259 0
M  V30 6332 H 633.528 0.309836 0.673114 0
M  V30 6333 H 636.175 1.38091 1.32677 0
M  V30 6334 H 634.48 0.726047 3.85014 0
M  V30 6335 H 636.177 1.11739 3.85118 0
M  V30 6336 H 632.767 2.50212 3.47983 0
M  V30 6337 H 636.951 3.48115 3.53737 0
M  V30 6338 H 632.207 4.88787 3.67284 0
M  V30 6339 H 636.381 5.87272 3.74279 0
M  V30 6340 H 634.008 6.58045 3.80633 0
M  V30 6341 N 635.583 -1.29855 0.893053 0
M  V30 6342 C 636.53 -2.27909 0.364161 0
M  V30 6343 C 637.5 -1.56726 -0.550093 0
M  V30 6344 O 638.685 -1.84747 -0.47677 0
M  V30 6345 C 635.825 -3.42678 -0.408178 0
M  V30 6346 C 634.938 -4.28659 0.536212 0
M  V30 6347 C 634.073 -5.30599 -0.252521 0
M  V30 6348 C 633.112 -6.08234 0.686822 0
M  V30 6349 N 632.249 -7.02068 -0.0670902 0
M  V30 6350 H 637.089 -2.72531 1.20544 0
M  V30 6351 H 634.626 -1.34047 0.605779 0
M  V30 6352 H 636.584 -4.07986 -0.871962 0
M  V30 6353 H 635.214 -2.99103 -1.21397 0
M  V30 6354 H 634.266 -3.63584 1.1185 0
M  V30 6355 H 635.578 -4.8274 1.25552 0
M  V30 6356 H 634.732 -6.01694 -0.777801 0
M  V30 6357 H 633.471 -4.77233 -1.005 0
M  V30 6358 H 632.476 -5.3601 1.22366 0
M  V30 6359 H 633.701 -6.63689 1.43852 0
M  V30 6360 H 631.647 -6.5108 -0.801955 0
M  V30 6361 H 631.564 -7.53675 0.59243 0
M  V30 6362 H 632.832 -7.77392 -0.572851 0
M  V30 6363 N 637.061 -0.65484 -1.43351 0
M  V30 6364 C 638.286 -0.175046 -2.0666 0
M  V30 6365 C 638.711 1.15104 -1.4877 0
M  V30 6366 O 638.069 1.71144 -0.598279 0
M  V30 6367 C 638.117 -0.0991544 -3.60464 0
M  V30 6368 O 637.221 0.938169 -4.01587 0
M  V30 6369 H 636.562 -0.0956148 -0.65708 0
M  V30 6370 H 639.092 -0.898222 -1.83829 0
M  V30 6371 H 639.102 0.083632 -4.07914 0
M  V30 6372 H 637.777 -1.06719 -4.01975 0
M  V30 6373 H 636.354 0.72804 -3.65724 0
M  V30 6374 N 638.539 1.52521 -0.396863 0
M  V30 6375 C 639.955 1.5953 -0.0471659 0
M  V30 6376 C 640.155 1.41044 1.43906 0
M  V30 6377 O 639.211 1.23122 2.20448 0
M  V30 6378 C 640.524 2.95972 -0.531113 0
M  V30 6379 C 642.072 3.09172 -0.488024 0
M  V30 6380 C 642.547 4.48075 -0.948281 0
M  V30 6381 N 644.038 4.54281 -0.9046 0
M  V30 6382 C 644.773 5.60007 -1.23205 0
M  V30 6383 N 644.269 6.73343 -1.63036 0
M  V30 6384 N 646.062 5.50151 -1.15282 0
M  V30 6385 H 638.213 1.62786 -1.36435 0
M  V30 6386 H 640.476 0.76514 -0.559701 0
M  V30 6387 H 640.182 3.14741 -1.56942 0
M  V30 6388 H 640.056 3.77143 0.0657922 0
M  V30 6389 H 642.443 2.90095 0.541211 0
M  V30 6390 H 642.524 2.29937 -1.12083 0
M  V30 6391 H 642.168 4.67894 -1.97578 0
M  V30 6392 H 642.098 5.25788 -0.292412 0
M  V30 6393 H 644.589 3.72918 -0.6116 0
M  V30 6394 H 644.902 7.49992 -1.86365 0
M  V30 6395 H 643.247 6.74655 -1.66929 0
M  V30 6396 H 646.438 4.6049 -0.840602 0
M  V30 6397 H 646.611 6.32444 -1.41133 0
M  V30 6398 N 640.017 0.126909 1.57088 0
M  V30 6399 C 641.265 -0.528123 1.95078 0
M  V30 6400 C 641.586 -1.66708 1.0116 0
M  V30 6401 O 640.856 -1.95777 0.0693527 0
M  V30 6402 H 639.436 -0.198087 0.720257 0
M  V30 6403 H 642.098 0.197703 1.93895 0
M  V30 6404 H 641.194 -0.917507 2.98309 0
M  V30 6405 N 641.495 -1.56914 -0.146875 0
M  V30 6406 C 642.742 -1.83356 -0.859467 0
M  V30 6407 C 643.07 -0.707811 -1.81164 0
M  V30 6408 O 642.325 0.303155 -1.93338 0
M  V30 6409 C 642.624 -3.16128 -1.66727 0
M  V30 6410 C 642.29 -4.42586 -0.861881 0
M  V30 6411 C 640.952 -4.76929 -0.639687 0
M  V30 6412 C 643.304 -5.20344 -0.298643 0
M  V30 6413 C 640.632 -5.86491 0.156451 0
M  V30 6414 C 642.984 -6.30742 0.484536 0
M  V30 6415 C 641.648 -6.63635 0.717306 0
M  V30 6416 H 640.918 -0.670947 -0.314501 0
M  V30 6417 H 643.565 -1.91104 -0.123108 0
M  V30 6418 H 641.87 -3.03831 -2.47374 0
M  V30 6419 H 643.567 -3.33802 -2.2221 0
M  V30 6420 H 640.157 -4.15662 -1.04513 0
M  V30 6421 H 644.341 -4.94186 -0.457585 0
M  V30 6422 H 639.597 -6.10419 0.346292 0
M  V30 6423 H 643.771 -6.90188 0.928105 0
M  V30 6424 H 641.398 -7.48367 1.33607 0
M  V30 6425 N 642.974 0.416227 -1.52004 0
M  V30 6426 C 643.904 1.51365 -1.77795 0
M  V30 6427 C 644.885 1.58059 -0.628601 0
M  V30 6428 O 646.07 1.73447 -0.873478 0
M  V30 6429 C 643.2 2.89256 -1.92219 0
M  V30 6430 C 642.154 2.97415 -3.0778 0
M  V30 6431 C 641.48 4.37492 -3.07417 0
M  V30 6432 C 642.78 2.69551 -4.47369 0
M  V30 6433 H 644.474 1.30033 -2.69688 0
M  V30 6434 H 642.02 0.624112 -1.29772 0
M  V30 6435 H 643.973 3.66008 -2.08845 0
M  V30 6436 H 642.697 3.11866 -0.969917 0
M  V30 6437 H 641.356 2.23107 -2.90893 0
M  V30 6438 H 641.004 4.571 -2.09925 0
M  V30 6439 H 640.704 4.43877 -3.85029 0
M  V30 6440 H 642.228 5.16188 -3.26162 0
M  V30 6441 H 643.642 3.36028 -4.64497 0
M  V30 6442 H 642.039 2.87321 -5.26846 0
M  V30 6443 H 643.109 1.65029 -4.55953 0
M  V30 6444 N 644.452 1.42507 0.673017 0
M  V30 6445 C 645.399 1.46124 1.78651 0
M  V30 6446 C 646.369 0.313007 1.63124 0
M  V30 6447 O 647.554 0.517337 1.83653 0
M  V30 6448 C 644.694 1.3711 3.16694 0
M  V30 6449 C 643.807 2.61983 3.43495 0
M  V30 6450 C 642.942 2.45098 4.71275 0
M  V30 6451 C 641.981 3.65336 4.91117 0
M  V30 6452 N 641.118 3.47383 6.10139 0
M  V30 6453 H 645.958 2.4128 1.74895 0
M  V30 6454 H 643.495 1.19788 0.853766 0
M  V30 6455 H 645.453 1.29881 3.96468 0
M  V30 6456 H 644.083 0.45549 3.1957 0
M  V30 6457 H 643.135 2.79571 2.57961 0
M  V30 6458 H 644.447 3.51355 3.5405 0
M  V30 6459 H 643.601 2.35466 5.59143 0
M  V30 6460 H 642.34 1.53219 4.63007 0
M  V30 6461 H 641.345 3.754 4.0169 0
M  V30 6462 H 642.57 4.58199 5.01229 0
M  V30 6463 H 640.516 2.58222 6.0304 0
M  V30 6464 H 640.433 4.30344 6.21563 0
M  V30 6465 H 641.701 3.41565 7.00681 0
M  V30 6466 N 645.93 -0.909495 1.28709 0
M  V30 6467 C 647.346 -1.18862 1.06508 0
M  V30 6468 C 647.546 -2.00604 -0.189864 0
M  V30 6469 O 646.602 -2.36281 -0.890355 0
M  V30 6470 C 647.915 -1.91908 2.31499 0
M  V30 6471 C 649.463 -2.04773 2.36721 0
M  V30 6472 C 649.938 -2.81228 3.6149 0
M  V30 6473 N 651.429 -2.88787 3.62155 0
M  V30 6474 C 652.164 -3.48455 4.55375 0
M  V30 6475 N 651.66 -4.09369 5.58918 0
M  V30 6476 N 653.453 -3.46035 4.42963 0
M  V30 6477 H 645.604 -0.363867 2.0926 0
M  V30 6478 H 647.867 -0.223649 0.921241 0
M  V30 6479 H 647.573 -1.39275 3.22948 0
M  V30 6480 H 647.447 -2.92436 2.38245 0
M  V30 6481 H 649.834 -2.56585 1.45767 0
M  V30 6482 H 649.915 -1.03408 2.33967 0
M  V30 6483 H 649.559 -2.30094 4.5279 0
M  V30 6484 H 649.489 -3.82917 3.61499 0
M  V30 6485 H 651.98 -2.45514 2.87283 0
M  V30 6486 H 652.293 -4.52891 6.26187 0
M  V30 6487 H 650.638 -4.0786 5.62739 0
M  V30 6488 H 653.829 -2.9766 3.6127 0
M  V30 6489 H 654.002 -3.92244 5.15799 0
M  V30 6490 N 647.408 -1.11026 -1.11852 0
M  V30 6491 C 648.358 -0.733836 -2.15868 0
M  V30 6492 C 649.342 0.26001 -1.58785 0
M  V30 6493 O 650.534 0.0677901 -1.7687 0
M  V30 6494 C 647.663 -0.173948 -3.42859 0
M  V30 6495 C 646.749 -1.1952 -4.0691 0
M  V30 6496 N 647.14 -2.38797 -4.45881 0
M  V30 6497 C 645.438 -1.03714 -4.33773 0
M  V30 6498 C 646.139 -3.03894 -4.96007 0
M  V30 6499 N 645.115 -2.31389 -4.91894 0
M  V30 6500 H 648.917 -1.64171 -2.43773 0
M  V30 6501 H 646.431 -0.988877 -1.28822 0
M  V30 6502 H 648.428 0.113836 -4.16745 0
M  V30 6503 H 647.088 0.728568 -3.16421 0
M  V30 6504 H 648.099 -2.76281 -4.38051 0
M  V30 6505 H 644.776 -0.190694 -4.17064 0
M  V30 6506 H 646.166 -4.05389 -5.35826 0
M  V30 6507 N 648.886 1.2938 -0.899927 0
M  V30 6508 C 649.819 2.25911 -0.322386 0
M  V30 6509 C 650.797 1.52447 0.565567 0
M  V30 6510 O 651.981 1.81404 0.512324 0
M  V30 6511 C 649.108 3.3436 0.540455 0
M  V30 6512 C 648.154 4.25579 -0.280211 0
M  V30 6513 S 648.987 5.08526 -1.67814 0
M  V30 6514 C 650.143 6.20476 -0.822224 0
M  V30 6515 H 650.376 2.7455 -1.1406 0
M  V30 6516 H 647.909 1.37606 -0.700285 0
M  V30 6517 H 649.867 3.97303 1.0325 0
M  V30 6518 H 648.528 2.84416 1.33291 0
M  V30 6519 H 647.721 5.02574 0.378915 0
M  V30 6520 H 647.323 3.67287 -0.705405 0
M  V30 6521 H 649.615 6.77485 -0.0457138 0
M  V30 6522 H 650.558 6.90606 -1.56426 0
M  V30 6523 H 650.966 5.63243 -0.37651 0
M  V30 6524 N 650.364 0.662433 1.43002 0
M  V30 6525 C 651.311 -0.0235324 2.30788 0
M  V30 6526 C 652.281 -0.805342 1.4527 0
M  V30 6527 O 653.466 -0.78009 1.74124 0
M  V30 6528 C 650.606 -0.977545 3.30965 0
M  V30 6529 C 649.719 -0.190865 4.31578 0
M  V30 6530 C 648.854 -1.13951 5.18834 0
M  V30 6531 C 647.893 -0.343796 6.11134 0
M  V30 6532 N 647.03 -1.2445 6.90982 0
M  V30 6533 H 651.87 0.730921 2.88897 0
M  V30 6534 H 649.407 0.372197 1.42313 0
M  V30 6535 H 651.365 -1.54437 3.87563 0
M  V30 6536 H 649.995 -1.69877 2.74484 0
M  V30 6537 H 649.047 0.492388 3.772 0
M  V30 6538 H 650.359 0.427464 4.96965 0
M  V30 6539 H 649.513 -1.77666 5.80103 0
M  V30 6540 H 648.252 -1.79174 4.53595 0
M  V30 6541 H 647.257 0.30665 5.48944 0
M  V30 6542 H 648.482 0.304161 6.78419 0
M  V30 6543 H 646.428 -1.88336 6.28383 0
M  V30 6544 H 646.345 -0.680959 7.52927 0
M  V30 6545 H 647.613 -1.86952 7.56749 0
M  V30 6546 N 651.842 -1.52309 0.404946 0
M  V30 6547 C 652.79 -2.28452 -0.437321 0
M  V30 6548 C 653.784 -1.32975 -1.04948 0
M  V30 6549 O 654.99 -1.50451 -0.988159 0
M  V30 6550 H 651.365 -0.734824 -0.159805 0
M  V30 6551 H 653.336 -2.97542 0.22615 0
M  V30 6552 C 652.085 -3.11536 -1.54404 0
M  V30 6553 H 651.408 -3.84871 -1.08233 0
M  V30 6554 H 652.848 -3.67926 -2.10729 0
M  V30 6555 C 651.307 -2.24833 -2.50902 0
M  V30 6556 O 651.837 -1.88574 -3.54687 0
M  V30 6557 N 650.043 -1.88685 -2.21012 0
M  V30 6558 H 649.59 -2.18371 -1.36646 0
M  V30 6559 H 649.548 -1.30966 -2.85824 0
M  V30 6560 N 653.32 -0.135238 -1.57019 0
M  V30 6561 C 654.27 0.820408 -2.12728 0
M  V30 6562 C 655.254 1.21735 -1.05211 0
M  V30 6563 O 656.446 1.18574 -1.31413 0
M  V30 6564 C 653.575 2.06414 -2.74314 0
M  V30 6565 C 652.661 1.69083 -3.88937 0
M  V30 6566 N 653.052 1.0251 -4.95303 0
M  V30 6567 C 651.35 1.98434 -3.99425 0
M  V30 6568 C 652.051 0.846749 -5.75504 0
M  V30 6569 N 651.027 1.3769 -5.25873 0
M  V30 6570 H 654.829 0.302426 -2.9234 0
M  V30 6571 H 652.343 0.0667009 -1.62263 0
M  V30 6572 H 654.34 2.75863 -3.12579 0
M  V30 6573 H 653 2.58741 -1.96171 0
M  V30 6574 H 654.011 0.687207 -5.1332 0
M  V30 6575 H 650.688 2.52693 -3.32344 0
M  V30 6576 H 652.078 0.322949 -6.71123 0
M  V30 6577 N 654.798 1.5699 0.138552 0
M  V30 6578 C 656.209 1.73171 0.697754 0
M  V30 6579 C 656.56 0.750952 1.8126 0
M  V30 6580 O 655.685 -0.080549 2.1625 0
M  V30 6581 C 656.28 3.13996 1.27248 0
M  V30 6582 C 654.839 3.3175 1.77816 0
M  V30 6583 C 653.986 2.69084 0.669991 0
M  V30 6584 H 656.937 1.5846 -0.0871979 0
M  V30 6585 H 656.958 3.14463 2.14227 0
M  V30 6586 H 656.47 3.85354 0.460855 0
M  V30 6587 H 654.571 2.65403 2.61519 0
M  V30 6588 H 654.684 4.39768 1.90107 0
M  V30 6589 H 653.048 2.29782 1.09874 0
M  V30 6590 H 653.831 3.43053 -0.130329 0
M  V30 6591 N 656.276 -0.40816 1.52223 0
M  V30 6592 C 657.186 -1.52202 1.78526 0
M  V30 6593 C 658.202 -1.60546 0.670892 0
M  V30 6594 O 659.378 -1.77242 0.956404 0
M  V30 6595 C 656.443 -2.87928 1.93128 0
M  V30 6596 C 655.504 -2.89463 3.17033 0
M  V30 6597 C 654.737 -4.18715 3.30929 0
M  V30 6598 O 654.96 -5.12662 2.50067 0
M  V30 6599 O 653.894 -4.27125 4.24084 0
M  V30 6600 H 657.72 -1.32911 2.73072 0
M  V30 6601 H 655.305 -0.594112 1.37079 0
M  V30 6602 H 657.187 -3.68426 2.04549 0
M  V30 6603 H 655.862 -3.07285 1.01772 0
M  V30 6604 H 654.769 -2.07815 3.11069 0
M  V30 6605 H 656.102 -2.75055 4.08174 0
M  V30 6606 N 657.755 -1.42862 -0.66545 0
M  V30 6607 C 658.705 -1.43521 -1.7716 0
M  V30 6608 C 659.689 -0.305267 -1.57978 0
M  V30 6609 O 660.881 -0.548176 -1.68297 0
M  V30 6610 C 658.01 -1.34914 -3.15679 0
M  V30 6611 C 657.096 -2.5289 -3.40452 0
M  V30 6612 N 657.487 -3.78284 -3.3576 0
M  V30 6613 C 655.785 -2.47351 -3.71124 0
M  V30 6614 C 656.486 -4.56701 -3.60276 0
M  V30 6615 N 655.462 -3.87249 -3.81496 0
M  V30 6616 H 659.264 -2.38357 -1.7194 0
M  V30 6617 H 656.778 -1.37342 -0.866653 0
M  V30 6618 H 658.775 -1.33468 -3.94958 0
M  V30 6619 H 657.435 -0.410881 -3.2209 0
M  V30 6620 H 658.446 -4.10746 -3.15448 0
M  V30 6621 H 655.123 -1.62152 -3.84725 0
M  V30 6622 H 656.513 -5.65704 -3.6253 0
M  V30 6623 N 659.233 0.902656 -1.29189 0
M  V30 6624 C 660.163 2.02294 -1.16616 0
M  V30 6625 C 661.144 1.6999 -0.0611175 0
M  V30 6626 O 662.329 1.9271 -0.240072 0
M  V30 6627 C 659.459 3.37018 -0.83882 0
M  V30 6628 C 658.413 3.83522 -1.89986 0
M  V30 6629 C 657.739 5.15337 -1.42589 0
M  V30 6630 C 659.039 4.04169 -3.30824 0
M  V30 6631 H 660.733 2.13071 -2.10336 0
M  V30 6632 H 658.279 1.02378 -1.01266 0
M  V30 6633 H 660.232 4.14895 -0.737584 0
M  V30 6634 H 658.956 3.26325 0.134071 0
M  V30 6635 H 657.615 3.07859 -1.99043 0
M  V30 6636 H 657.263 5.01056 -0.441759 0
M  V30 6637 H 656.963 5.47423 -2.13547 0
M  V30 6638 H 658.487 5.95758 -1.3381 0
M  V30 6639 H 659.901 4.72537 -3.24626 0
M  V30 6640 H 658.298 4.47604 -3.99713 0
M  V30 6641 H 659.368 3.08604 -3.74021 0
M  V30 6642 N 660.711 1.11618 1.11262 0
M  V30 6643 C 661.674 0.779447 2.15539 0
M  V30 6644 C 662.674 -0.202081 1.59525 0
M  V30 6645 O 663.864 0.0226356 1.74185 0
M  V30 6646 C 660.996 0.15674 3.40539 0
M  V30 6647 H 662.189 1.70324 2.4684 0
M  V30 6648 H 659.742 0.918298 1.26479 0
M  V30 6649 H 660.477 -0.777186 3.1485 0
M  V30 6650 H 660.262 0.863308 3.82478 0
M  V30 6651 H 661.752 -0.062661 4.17553 0
M  V30 6652 N 662.189 -1.289 0.906776 0
M  V30 6653 C 663.136 -2.2751 0.388313 0
M  V30 6654 C 664.106 -1.57301 -0.533439 0
M  V30 6655 O 665.291 -1.85243 -0.457148 0
M  V30 6656 C 662.431 -3.43091 -0.37181 0
M  V30 6657 C 661.544 -4.28066 0.581647 0
M  V30 6658 C 660.679 -5.30837 -0.19623 0
M  V30 6659 C 659.718 -6.07472 0.751294 0
M  V30 6660 N 658.855 -7.021 0.00737727 0
M  V30 6661 H 663.695 -2.71237 1.23428 0
M  V30 6662 H 661.232 -1.33397 0.619962 0
M  V30 6663 H 663.19 -4.08888 -0.828641 0
M  V30 6664 H 661.82 -3.00374 -1.18218 0
M  V30 6665 H 660.872 -3.62378 1.157 0
M  V30 6666 H 662.184 -4.81382 1.30665 0
M  V30 6667 H 661.338 -6.02485 -0.71394 0
M  V30 6668 H 660.077 -4.78272 -0.954324 0
M  V30 6669 H 659.082 -5.34682 1.28044 0
M  V30 6670 H 660.307 -6.62126 1.50883 0
M  V30 6671 H 658.253 -6.51894 -0.732854 0
M  V30 6672 H 658.17 -7.53004 0.672334 0
M  V30 6673 H 659.438 -7.77956 -0.490365 0
M  V30 6674 N 663.667 -0.670007 -1.42649 0
M  V30 6675 C 664.614 0.0112928 -2.30797 0
M  V30 6676 C 665.584 0.797627 -1.45695 0
M  V30 6677 O 666.769 0.770845 -1.74535 0
M  V30 6678 C 663.909 0.95998 -3.31479 0
M  V30 6679 C 663.022 0.167975 -4.31673 0
M  V30 6680 C 662.157 1.11198 -5.19431 0
M  V30 6681 C 661.196 0.311381 -6.11307 0
M  V30 6682 N 660.333 1.20784 -6.91633 0
M  V30 6683 H 665.173 -0.746231 -2.88505 0
M  V30 6684 H 662.71 -0.379739 -1.42114 0
M  V30 6685 H 664.668 1.52379 -3.88377 0
M  V30 6686 H 663.298 1.68419 -2.75382 0
M  V30 6687 H 662.35 -0.512385 -3.76933 0
M  V30 6688 H 663.662 -0.453814 -4.96731 0
M  V30 6689 H 662.816 1.74587 -5.81037 0
M  V30 6690 H 661.555 1.76766 -4.54538 0
M  V30 6691 H 660.56 -0.335758 -5.48774 0
M  V30 6692 H 661.785 -0.340135 -6.78248 0
M  V30 6693 H 659.731 1.85001 -6.29373 0
M  V30 6694 H 659.648 0.64102 -7.53277 0
M  V30 6695 H 660.916 1.82936 -7.5773 0
M  V30 6696 N 665.145 1.52092 -0.413018 0
M  V30 6697 C 666.092 2.27119 0.410558 0
M  V30 6698 C 667.062 1.29692 1.03774 0
M  V30 6699 O 668.247 1.58561 1.06128 0
M  V30 6700 C 665.387 3.09863 1.51918 0
M  V30 6701 C 664.5 4.22252 0.912528 0
M  V30 6702 C 663.635 4.92348 1.99417 0
M  V30 6703 C 662.674 5.96694 1.36466 0
M  V30 6704 N 661.811 6.60292 2.38661 0
M  V30 6705 H 666.651 2.97067 -0.235661 0
M  V30 6706 H 664.188 1.46542 -0.128055 0
M  V30 6707 H 666.146 3.56144 2.17295 0
M  V30 6708 H 664.776 2.42078 2.13537 0
M  V30 6709 H 663.828 3.80113 0.147697 0
M  V30 6710 H 665.14 4.9709 0.412717 0
M  V30 6711 H 664.294 5.42054 2.72512 0
M  V30 6712 H 663.033 4.17087 2.52764 0
M  V30 6713 H 662.038 5.46304 0.61906 0
M  V30 6714 H 663.263 6.73899 0.838827 0
M  V30 6715 H 661.209 5.87858 2.91134 0
M  V30 6716 H 661.126 7.30816 1.93503 0
M  V30 6717 H 662.394 7.14635 3.11314 0
M  V30 6718 N 666.623 0.143563 1.56945 0
M  V30 6719 C 667.853 -0.514699 2.00086 0
M  V30 6720 C 668.261 -1.59184 1.0226 0
M  V30 6721 O 667.604 -1.83697 0.0110514 0
M  V30 6722 C 667.666 -1.17778 3.39659 0
M  V30 6723 C 667.33 -0.245657 4.56339 0
M  V30 6724 C 668.327 0.525343 5.17239 0
M  V30 6725 C 666.012 -0.149564 5.02077 0
M  V30 6726 C 668.006 1.37992 6.22284 0
M  V30 6727 C 665.693 0.708621 6.06978 0
M  V30 6728 C 666.691 1.47197 6.6695 0
M  V30 6729 O 666.379 2.31586 7.6982 0
M  V30 6730 H 666.111 -0.138789 0.661599 0
M  V30 6731 H 668.665 0.234098 2.04062 0
M  V30 6732 H 666.895 -1.97415 3.32512 0
M  V30 6733 H 668.584 -1.73542 3.6693 0
M  V30 6734 H 669.35 0.461118 4.82803 0
M  V30 6735 H 665.229 -0.733457 4.55128 0
M  V30 6736 H 668.773 1.97621 6.69023 0
M  V30 6737 H 664.67 0.77415 6.40841 0
M  V30 6738 H 665.438 2.24796 7.87025 0
M  V30 6739 N 668.101 -1.57061 -0.130224 0
M  V30 6740 C 669.051 -1.95941 -1.16582 0
M  V30 6741 C 670.035 -0.832858 -1.37667 0
M  V30 6742 O 671.227 -1.09647 -1.38948 0
M  V30 6743 C 668.356 -2.35777 -2.49528 0
M  V30 6744 C 667.442 -3.5504 -2.31964 0
M  V30 6745 N 667.833 -4.71071 -1.84189 0
M  V30 6746 C 666.131 -3.60453 -2.62659 0
M  V30 6747 C 666.832 -5.53128 -1.80068 0
M  V30 6748 N 665.808 -4.95303 -2.24001 0
M  V30 6749 H 669.61 -2.83117 -0.788806 0
M  V30 6750 H 667.124 -1.58842 -0.3381 0
M  V30 6751 H 669.121 -2.61843 -3.24413 0
M  V30 6752 H 667.781 -1.49961 -2.87996 0
M  V30 6753 H 668.792 -4.94504 -1.53903 0
M  V30 6754 H 665.469 -2.85217 -3.0489 0
M  V30 6755 H 666.859 -6.56182 -1.4448 0
M  V30 6756 N 669.579 0.400081 -1.52437 0
M  V30 6757 C 670.819 1.15526 -1.68622 0
M  V30 6758 C 671.183 1.87533 -0.411744 0
M  V30 6759 O 672.384 2.6501 -0.449804 0
M  V30 6760 C 670.655 2.11618 -2.88015 0
M  V30 6761 S 672.214 2.95121 -3.24729 0
M  V30 6762 H 669.032 0.39123 -0.593683 0
M  V30 6763 H 671.634 0.441255 -1.90455 0
M  V30 6764 H 670.338 1.5742 -3.79008 0
M  V30 6765 H 669.869 2.87544 -2.68481 0
M  V30 6766 H 671.884 4.13653 -2.74055 0
M  V30 6767 N 671.057 1.43213 0.657864 0
M  V30 6768 C 672.285 1.48015 1.44566 0
M  V30 6769 C 672.7 0.0965951 1.88553 0
M  V30 6770 O 672.057 -0.892221 1.59203 0
M  V30 6771 C 672.108 2.42199 2.68369 0
M  V30 6772 O 671.829 3.75173 2.26223 0
M  V30 6773 C 673.33 2.56195 3.61772 0
M  V30 6774 H 670.55 0.502861 0.444266 0
M  V30 6775 H 673.094 1.87907 0.806917 0
M  V30 6776 H 671.249 2.05514 3.28394 0
M  V30 6777 H 671.663 4.25776 3.06293 0
M  V30 6778 H 673.137 3.26182 4.4532 0
M  V30 6779 H 673.614 1.60534 4.0881 0
M  V30 6780 H 674.22 2.93671 3.07632 0
M  V30 6781 N 672.536 -0.895792 1.29666 0
M  V30 6782 C 673.813 -1.62723 1.08538 0
M  V30 6783 C 674.193 -2.07848 -0.369119 0
M  V30 6784 O 673.541 -1.8372 -1.35864 0
M  V30 6785 C 673.751 -2.80505 2.07648 0
M  V30 6786 C 675.099 -3.51098 2.3878 0
M  V30 6787 O 676.123 -2.90679 2.05874 0
M  V30 6788 O 674.982 -4.60028 2.9502 0
M  V30 6789 H 672.076 -0.714692 0.416106 0
M  V30 6790 H 674.622 -0.943517 1.41053 0
M  V30 6791 H 673.394 -2.44386 3.05599 0
M  V30 6792 H 673.017 -3.5658 1.75887 0
M  V30 6793 N 674.014 -1.12206 -1.10668 0
M  V30 6794 C 675.254 -0.885935 -1.84202 0
M  V30 6795 C 675.618 0.577849 -1.83098 0
M  V30 6796 O 676.819 0.931051 -2.5216 0
M  V30 6797 C 675.09 -1.44197 -3.2702 0
M  V30 6798 S 676.649 -1.34402 -4.1771 0
M  V30 6799 H 673.467 -0.319653 -0.635093 0
M  V30 6800 H 676.069 -1.43112 -1.33189 0
M  V30 6801 H 674.773 -2.50096 -3.25392 0
M  V30 6802 H 674.304 -0.894173 -3.83103 0
M  V30 6803 H 676.319 -0.313873 -4.95206 0
M  V30 6804 N 675.492 1.28418 -0.913599 0
M  V30 6805 C 676.769 1.89977 -0.465619 0
M  V30 6806 C 677.149 1.82813 1.05559 0
M  V30 6807 O 676.497 1.26397 1.90358 0
M  V30 6808 C 676.707 3.34492 -0.995813 0
M  V30 6809 C 678.055 4.11468 -1.04782 0
M  V30 6810 O 679.079 3.43451 -0.944445 0
M  V30 6811 O 677.938 5.33046 -1.20518 0
M  V30 6812 H 675.032 0.813734 -0.147532 0
M  V30 6813 H 677.578 1.36786 -1.00437 0
M  V30 6814 H 676.35 3.33929 -2.03978 0
M  V30 6815 H 675.973 3.95181 -0.437878 0
M  V30 6816 N 676.97 0.677563 1.42291 0
M  V30 6817 C 678.2 0.209155 2.05539 0
M  V30 6818 C 678.608 -1.13987 1.51009 0
M  V30 6819 O 677.951 -1.71976 0.645764 0
M  V30 6820 C 678.013 0.0697758 3.59432 0
M  V30 6821 C 677.677 1.34795 4.36668 0
M  V30 6822 C 678.674 2.28201 4.67141 0
M  V30 6823 C 676.359 1.59632 4.76259 0
M  V30 6824 C 678.353 3.44718 5.36142 0
M  V30 6825 C 676.04 2.76437 5.45 0
M  V30 6826 C 677.038 3.68805 5.74867 0
M  V30 6827 O 676.726 4.83567 6.42198 0
M  V30 6828 H 676.458 0.0986202 0.668768 0
M  V30 6829 H 679.012 0.925483 1.83368 0
M  V30 6830 H 677.242 -0.702157 3.80272 0
M  V30 6831 H 678.931 -0.359115 4.04308 0
M  V30 6832 H 679.697 2.10264 4.37052 0
M  V30 6833 H 675.576 0.886073 4.52404 0
M  V30 6834 H 679.12 4.16833 5.59371 0
M  V30 6835 H 675.017 2.94299 5.74507 0
M  V30 6836 H 675.785 4.83147 6.6069 0
M  V30 6837 N 678.448 -1.51871 0.421078 0
M  V30 6838 C 679.676 -2.06356 -0.14994 0
M  V30 6839 C 680.091 -1.29006 -1.37851 0
M  V30 6840 O 679.448 -0.345139 -1.79207 0
M  V30 6841 C 679.499 -3.58185 -0.488454 0
M  V30 6842 O 679.22 -4.32611 0.691341 0
M  V30 6843 C 680.721 -4.29129 -1.11191 0
M  V30 6844 H 677.941 -0.67083 -0.0151186 0
M  V30 6845 H 680.485 -1.95638 0.595476 0
M  V30 6846 H 678.64 -3.68871 -1.18376 0
M  V30 6847 H 679.054 -5.22927 0.405906 0
M  V30 6848 H 680.528 -5.36501 -1.29889 0
M  V30 6849 H 681.005 -3.86371 -2.0884 0
M  V30 6850 H 681.611 -4.22843 -0.456458 0
M  V30 6851 N 679.926 -0.151884 -1.56866 0
M  V30 6852 C 681.154 0.504813 -2.00647 0
M  V30 6853 C 681.569 1.58098 -1.03201 0
M  V30 6854 O 680.926 1.82476 -0.0297814 0
M  V30 6855 C 680.977 1.10099 -3.44326 0
M  V30 6856 O 680.698 0.0678021 -4.38048 0
M  V30 6857 C 682.199 1.83782 -4.03409 0
M  V30 6858 H 679.419 0.130989 -0.65809 0
M  V30 6859 H 681.963 -0.247903 -2.02992 0
M  V30 6860 H 680.118 1.8043 -3.42817 0
M  V30 6861 H 680.532 0.505237 -5.22061 0
M  V30 6862 H 682.006 2.2078 -5.05925 0
M  V30 6863 H 682.483 2.72557 -3.44397 0
M  V30 6864 H 683.089 1.18138 -4.08563 0
M  V30 6865 N 681.404 1.57128 0.121893 0
M  V30 6866 C 682.352 2.01109 1.16868 0
M  V30 6867 C 683.346 0.907532 1.43039 0
M  V30 6868 O 684.552 1.09274 1.43036 0
M  V30 6869 H 680.927 0.640539 0.393971 0
M  V30 6870 H 682.898 2.88261 0.771224 0
M  V30 6871 C 681.647 2.42887 2.48799 0
M  V30 6872 H 680.97 3.2737 2.29498 0
M  V30 6873 H 682.41 2.77461 3.20611 0
M  V30 6874 C 680.869 1.29137 3.11168 0
M  V30 6875 O 681.399 0.605756 3.97106 0
M  V30 6876 N 679.605 1.04916 2.71 0
M  V30 6877 H 679.152 1.60848 2.01211 0
M  V30 6878 H 679.11 0.290016 3.1306 0
M  V30 6879 N 682.882 -0.391992 1.52647 0
M  V30 6880 C 683.829 -1.47866 1.77213 0
M  V30 6881 C 684.799 -1.54286 0.615223 0
M  V30 6882 O 685.984 -1.7059 0.854622 0
M  V30 6883 C 683.124 -2.85129 1.94411 0
M  V30 6884 C 682.237 -2.87883 3.22098 0
M  V30 6885 C 681.372 -4.16553 3.29631 0
M  V30 6886 C 680.411 -4.13348 4.51453 0
M  V30 6887 N 679.548 -5.33619 4.56284 0
M  V30 6888 H 684.388 -1.26219 2.6995 0
M  V30 6889 H 681.925 -0.612367 1.33748 0
M  V30 6890 H 683.883 -3.64833 2.02367 0
M  V30 6891 H 682.513 -3.05232 1.05038 0
M  V30 6892 H 681.565 -2.00567 3.23229 0
M  V30 6893 H 682.877 -2.81382 4.11856 0
M  V30 6894 H 682.031 -5.0466 3.36753 0
M  V30 6895 H 680.77 -4.25773 2.37842 0
M  V30 6896 H 679.775 -3.23629 4.44459 0
M  V30 6897 H 681 -4.05754 5.44555 0
M  V30 6898 H 678.946 -5.43474 3.67385 0
M  V30 6899 H 678.863 -5.29182 5.3991 0
M  V30 6900 H 680.131 -6.23632 4.67657 0
M  V30 6901 N 684.36 -1.4356 -0.65026 0
M  V30 6902 C 685.307 -1.48948 -1.76304 0
M  V30 6903 C 686.277 -0.338919 -1.62605 0
M  V30 6904 O 687.462 -0.54649 -1.82806 0
M  V30 6905 C 684.602 -1.42131 -3.14472 0
M  V30 6906 C 683.715 -2.67415 -3.39284 0
M  V30 6907 C 682.85 -2.52565 -4.67316 0
M  V30 6908 C 681.889 -3.73103 -4.85243 0
M  V30 6909 N 681.026 -3.57046 -6.04535 0
M  V30 6910 H 685.866 -2.44032 -1.71034 0
M  V30 6911 H 683.403 -1.21131 -0.834601 0
M  V30 6912 H 685.361 -1.36172 -3.94351 0
M  V30 6913 H 683.991 -0.506273 -3.18805 0
M  V30 6914 H 683.043 -2.8364 -2.53481 0
M  V30 6915 H 684.355 -3.56943 -3.48415 0
M  V30 6916 H 683.509 -2.44331 -5.55326 0
M  V30 6917 H 682.248 -1.60566 -4.60511 0
M  V30 6918 H 681.253 -3.81743 -3.95667 0
M  V30 6919 H 682.478 -4.66115 -4.93876 0
M  V30 6920 H 680.424 -2.67783 -5.98856 0
M  V30 6921 H 680.341 -4.40178 -6.14638 0
M  V30 6922 H 681.609 -3.52669 -6.95158 0
M  V30 6923 N 685.838 0.888903 -1.30139 0
M  V30 6924 C 687.087 1.63507 -1.18103 0
M  V30 6925 C 687.4 1.93808 0.264141 0
M  V30 6926 O 688.606 2.66744 0.505966 0
M  V30 6927 C 687.062 2.94673 -2.0663 0
M  V30 6928 C 686.67 2.71926 -3.56034 0
M  V30 6929 C 688.414 3.72626 -2.03346 0
M  V30 6930 C 686.321 3.98884 -4.3663 0
M  V30 6931 H 685.251 0.613426 -0.438435 0
M  V30 6932 H 687.902 0.984427 -1.54859 0
M  V30 6933 H 686.284 3.61009 -1.62754 0
M  V30 6934 H 687.458 2.14116 -4.08033 0
M  V30 6935 H 685.773 2.07353 -3.61101 0
M  V30 6936 H 688.37 4.66775 -2.60816 0
M  V30 6937 H 688.713 4.03712 -1.016 0
M  V30 6938 H 689.246 3.13147 -2.45324 0
M  V30 6939 H 685.985 3.72959 -5.39056 0
M  V30 6940 H 685.505 4.56214 -3.89396 0
M  V30 6941 H 687.184 4.66938 -4.47859 0
M  V30 6942 N 687.317 1.12792 1.10072 0
M  V30 6943 C 688.542 0.908838 1.86427 0
M  V30 6944 C 688.967 -0.536793 1.80278 0
M  V30 6945 O 688.325 -1.38033 1.17543 0
M  V30 6946 C 688.373 1.39295 3.3261 0
M  V30 6947 O 687.477 0.573846 4.08388 0
M  V30 6948 H 686.818 0.326234 0.578331 0
M  V30 6949 H 689.348 1.50094 1.39043 0
M  V30 6950 H 689.358 1.39366 3.83459 0
M  V30 6951 H 688.033 2.44555 3.36401 0
M  V30 6952 H 686.61 0.640438 3.67359 0
M  V30 6953 N 688.795 -1.27931 0.920396 0
M  V30 6954 C 689.725 -2.29487 0.431024 0
M  V30 6955 C 690.706 -1.62435 -0.504861 0
M  V30 6956 O 691.891 -1.89797 -0.411176 0
M  V30 6957 C 689.021 -3.45788 -0.323709 0
M  V30 6958 C 687.975 -4.24784 0.523658 0
M  V30 6959 C 687.301 -5.33488 -0.359809 0
M  V30 6960 C 688.601 -4.90874 1.78437 0
M  V30 6961 H 690.295 -2.70671 1.27975 0
M  V30 6962 H 687.841 -1.30121 0.616813 0
M  V30 6963 H 689.794 -4.15927 -0.676952 0
M  V30 6964 H 688.518 -3.03502 -1.2064 0
M  V30 6965 H 687.177 -3.56382 0.85951 0
M  V30 6966 H 686.825 -4.87445 -1.24124 0
M  V30 6967 H 686.525 -5.87247 0.203605 0
M  V30 6968 H 688.049 -6.06472 -0.708787 0
M  V30 6969 H 689.463 -5.53339 1.49963 0
M  V30 6970 H 687.86 -5.54659 2.29071 0
M  V30 6971 H 688.93 -4.14988 2.50824 0
M  V30 6972 N 690.273 -0.685099 -1.4193 0
M  V30 6973 C 691.223 0.00977295 -2.27998 0
M  V30 6974 C 692.207 0.763315 -1.41641 0
M  V30 6975 O 693.399 0.640532 -1.65004 0
M  V30 6976 C 690.528 0.952972 -3.29808 0
M  V30 6977 C 689.614 0.196231 -4.23646 0
M  V30 6978 N 690.005 -0.804401 -4.99363 0
M  V30 6979 C 688.303 0.433213 -4.43891 0
M  V30 6980 C 689.004 -1.25646 -5.67968 0
M  V30 6981 N 687.98 -0.5844 -5.4045 0
M  V30 6982 H 691.782 -0.757586 -2.83968 0
M  V30 6983 H 689.296 -0.515037 -1.54017 0
M  V30 6984 H 691.293 1.46585 -3.9028 0
M  V30 6985 H 689.953 1.72004 -2.75399 0
M  V30 6986 H 690.964 -1.18429 -5.04177 0
M  V30 6987 H 687.641 1.17899 -4.00507 0
M  V30 6988 H 689.031 -2.08622 -6.38691 0
M  V30 6989 N 691.751 1.51645 -0.429126 0
M  V30 6990 C 692.699 2.29119 0.400921 0
M  V30 6991 C 693.693 1.34628 1.02819 0
M  V30 6992 O 694.899 1.52004 0.964098 0
M  V30 6993 H 691.274 0.737273 0.148095 0
M  V30 6994 H 693.245 2.97144 -0.273457 0
M  V30 6995 C 691.994 3.13953 1.49429 0
M  V30 6996 H 691.317 3.86544 1.02097 0
M  V30 6997 H 692.757 3.71232 2.04849 0
M  V30 6998 C 691.216 2.28796 2.47293 0
M  V30 6999 O 691.746 1.94193 3.51642 0
M  V30 7000 N 689.952 1.92177 2.17982 0
M  V30 7001 H 689.499 2.20517 1.33154 0
M  V30 7002 H 689.457 1.35497 2.83704 0
M  V30 7003 N 693.229 0.160201 1.56784 0
M  V30 7004 C 694.179 -0.786461 2.14007 0
M  V30 7005 C 695.163 -1.20046 1.07134 0
M  V30 7006 O 696.355 -1.16468 1.33283 0
M  V30 7007 C 693.484 -2.02024 2.77563 0
M  V30 7008 C 692.57 -1.62874 3.91578 0
M  V30 7009 N 692.961 -0.946176 4.96871 0
M  V30 7010 C 691.259 -1.92054 4.02531 0
M  V30 7011 C 691.96 -0.755084 5.76778 0
M  V30 7012 N 690.936 -1.29307 5.27997 0
M  V30 7013 H 694.738 -0.255879 2.92784 0
M  V30 7014 H 692.252 -0.0408778 1.62349 0
M  V30 7015 H 694.249 -2.70855 3.16928 0
M  V30 7016 H 692.909 -2.55587 2.00263 0
M  V30 7017 H 693.92 -0.605455 5.14349 0
M  V30 7018 H 690.597 -2.47374 3.36322 0
M  V30 7019 H 691.987 -0.216138 6.71552 0
M  V30 7020 N 694.707 -1.5719 -0.113559 0
M  V30 7021 C 695.637 -2.03772 -1.14013 0
M  V30 7022 C 696.618 -0.923176 -1.42869 0
M  V30 7023 O 697.803 -1.19325 -1.53216 0
M  V30 7024 C 694.933 -2.44663 -2.4649 0
M  V30 7025 C 693.887 -3.59612 -2.32085 0
M  V30 7026 C 693.213 -3.8642 -3.69573 0
M  V30 7027 C 694.513 -4.91149 -1.7768 0
M  V30 7028 H 696.207 -2.89785 -0.752665 0
M  V30 7029 H 693.753 -1.39412 -0.360609 0
M  V30 7030 H 695.706 -2.75857 -3.18561 0
M  V30 7031 H 694.43 -1.55628 -2.87137 0
M  V30 7032 H 693.089 -3.28636 -1.62461 0
M  V30 7033 H 692.737 -2.94581 -4.07715 0
M  V30 7034 H 692.437 -4.63797 -3.60786 0
M  V30 7035 H 693.961 -4.2007 -4.4314 0
M  V30 7036 H 695.375 -5.20843 -2.39574 0
M  V30 7037 H 693.772 -5.72562 -1.79701 0
M  V30 7038 H 694.842 -4.79301 -0.734776 0
M  V30 7039 N 696.185 0.383891 -1.52853 0
M  V30 7040 C 697.095 1.49343 -1.80925 0
M  V30 7041 C 698.111 1.59458 -0.696348 0
M  V30 7042 O 699.287 1.75698 -0.984481 0
M  V30 7043 C 696.352 2.84819 -1.97684 0
M  V30 7044 C 695.413 2.84382 -3.21598 0
M  V30 7045 C 694.646 4.13397 -3.37548 0
M  V30 7046 O 694.869 5.08619 -2.58192 0
M  V30 7047 O 693.803 4.20325 -4.30826 0
M  V30 7048 H 697.629 1.2855 -2.75152 0
M  V30 7049 H 695.214 0.572229 -1.38007 0
M  V30 7050 H 697.096 3.65125 -2.10385 0
M  V30 7051 H 695.771 3.05627 -1.06647 0
M  V30 7052 H 694.678 2.0284 -3.14336 0
M  V30 7053 H 696.011 2.68526 -4.12498 0
M  V30 7054 N 697.663 1.43903 0.642637 0
M  V30 7055 C 698.888 1.49758 1.43483 0
M  V30 7056 C 699.313 0.119911 1.87717 0
M  V30 7057 O 698.671 -0.888558 1.58033 0
M  V30 7058 C 698.719 2.45744 2.63898 0
M  V30 7059 O 697.823 1.95101 3.63331 0
M  V30 7060 H 697.164 0.506138 0.429791 0
M  V30 7061 H 699.694 1.88923 0.785438 0
M  V30 7062 H 699.704 2.63399 3.11584 0
M  V30 7063 H 698.379 3.45818 2.31046 0
M  V30 7064 H 696.956 1.87158 3.22531 0
M  V30 7065 N 699.141 -0.881989 1.30609 0
M  V30 7066 C 700.091 -1.97539 1.13852 0
M  V30 7067 C 701.075 -1.60813 0.0528428 0
M  V30 7068 O 702.267 -1.74827 0.276484 0
M  V30 7069 C 699.396 -3.32977 0.835519 0
M  V30 7070 C 698.482 -3.76008 1.96159 0
M  V30 7071 N 698.873 -3.91109 3.20729 0
M  V30 7072 C 697.171 -4.05427 1.85863 0
M  V30 7073 C 697.872 -4.27661 3.94311 0
M  V30 7074 N 696.848 -4.37686 3.22385 0
M  V30 7075 H 700.65 -2.07309 2.08327 0
M  V30 7076 H 698.164 -1.072 1.21992 0
M  V30 7077 H 700.161 -4.11041 0.696477 0
M  V30 7078 H 698.821 -3.24542 -0.101135 0
M  V30 7079 H 699.832 -3.7616 3.55984 0
M  V30 7080 H 696.509 -4.05449 0.995847 0
M  V30 7081 H 697.899 -4.47042 5.01601 0
M  V30 7082 N 700.619 -1.13374 -1.09472 0
M  V30 7083 C 701.566 -0.810682 -2.16094 0
M  V30 7084 C 702.536 0.227003 -1.64541 0
M  V30 7085 O 703.721 0.0993538 -1.90541 0
M  V30 7086 C 700.861 -0.282336 -3.43943 0
M  V30 7087 C 699.974 -1.37902 -4.09398 0
M  V30 7088 C 699.109 -0.809066 -5.25002 0
M  V30 7089 C 698.148 -1.88419 -5.82379 0
M  V30 7090 N 697.285 -1.33221 -6.89345 0
M  V30 7091 H 702.125 -1.72397 -2.43071 0
M  V30 7092 H 699.662 -0.860564 -1.19301 0
M  V30 7093 H 701.62 0.0421189 -4.17179 0
M  V30 7094 H 700.25 0.594083 -3.17286 0
M  V30 7095 H 699.302 -1.82008 -3.34032 0
M  V30 7096 H 700.614 -2.19161 -4.48074 0
M  V30 7097 H 699.768 -0.435867 -6.05132 0
M  V30 7098 H 698.507 0.0346058 -4.87688 0
M  V30 7099 H 697.512 -2.26646 -5.00911 0
M  V30 7100 H 698.737 -2.73125 -6.21755 0
M  V30 7101 H 696.683 -0.510535 -6.5401 0
M  V30 7102 H 696.6 -2.08129 -7.26786 0
M  V30 7103 H 697.868 -0.986565 -7.73232 0
M  V30 7104 N 702.098 1.27442 -0.927168 0
M  V30 7105 C 703.028 2.29256 -0.443188 0
M  V30 7106 C 704.009 1.62701 0.49624 0
M  V30 7107 O 705.194 1.90013 0.401105 0
M  V30 7108 C 702.324 3.45955 0.305366 0
M  V30 7109 C 701.278 4.24501 -0.546178 0
M  V30 7110 C 700.604 5.33671 0.331512 0
M  V30 7111 C 701.904 4.89921 -1.81037 0
M  V30 7112 H 703.598 2.69988 -1.29409 0
M  V30 7113 H 701.144 1.29792 -0.623705 0
M  V30 7114 H 703.097 4.1628 0.654885 0
M  V30 7115 H 701.821 3.04138 1.19029 0
M  V30 7116 H 700.48 3.55921 -0.878398 0
M  V30 7117 H 700.128 4.88096 1.21537 0
M  V30 7118 H 699.828 5.87131 -0.234746 0
M  V30 7119 H 701.352 6.0684 0.676614 0
M  V30 7120 H 702.766 5.52536 -1.52895 0
M  V30 7121 H 701.163 5.53436 -2.32009 0
M  V30 7122 H 702.233 4.13652 -2.53021 0
M  V30 7123 N 703.576 0.692616 1.41565 0
M  V30 7124 C 704.804 0.231279 2.05603 0
M  V30 7125 C 705.219 -1.11837 1.52111 0
M  V30 7126 O 704.576 -1.6983 0.66813 0
M  V30 7127 C 704.627 0.177125 3.61066 0
M  V30 7128 O 704.348 1.47346 4.12578 0
M  V30 7129 C 705.849 -0.30556 4.42246 0
M  V30 7130 H 703.069 0.108238 0.662213 0
M  V30 7131 H 705.613 0.944369 1.81389 0
M  V30 7132 H 703.768 -0.486769 3.8433 0
M  V30 7133 H 704.182 1.35861 5.06599 0
M  V30 7134 H 705.656 -0.29233 5.51225 0
M  V30 7135 H 706.133 -1.34393 4.18133 0
M  V30 7136 H 706.739 0.327229 4.24039 0
M  V30 7137 N 705.054 -1.51416 0.437162 0
M  V30 7138 C 706.279 -2.0699 -0.130424 0
M  V30 7139 C 706.704 -1.30249 -1.35709 0
M  V30 7140 O 706.062 -0.340388 -1.78076 0
M  V30 7141 C 706.11 -3.5801 -0.43142 0
M  V30 7142 O 705.214 -3.8345 -1.5179 0
M  V30 7143 H 704.555 -0.663997 -0.00194339 0
M  V30 7144 H 707.085 -1.95029 0.618445 0
M  V30 7145 H 707.095 -4.02261 -0.681926 0
M  V30 7146 H 705.77 -4.13291 0.465137 0
M  V30 7147 H 704.347 -3.51062 -1.25737 0
M  V30 7148 N 706.532 -0.168513 -1.56696 0
M  V30 7149 C 707.479 0.762875 -2.17828 0
M  V30 7150 C 708.449 1.22892 -1.11745 0
M  V30 7151 O 709.634 1.29759 -1.39883 0
M  V30 7152 C 706.774 1.9879 -2.82093 0
M  V30 7153 C 705.887 1.56568 -4.02629 0
M  V30 7154 C 705.022 2.74416 -4.54829 0
M  V30 7155 C 704.061 2.28671 -5.67782 0
M  V30 7156 N 703.198 3.39602 -6.14504 0
M  V30 7157 H 708.038 0.23479 -2.97074 0
M  V30 7158 H 705.575 0.104163 -1.46731 0
M  V30 7159 H 707.533 2.70636 -3.17509 0
M  V30 7160 H 706.163 2.48973 -2.05456 0
M  V30 7161 H 705.215 0.744067 -3.73052 0
M  V30 7162 H 706.527 1.18988 -4.844 0
M  V30 7163 H 705.681 3.54423 -4.92412 0
M  V30 7164 H 704.42 3.15254 -3.7211 0
M  V30 7165 H 703.425 1.4711 -5.29753 0
M  V30 7166 H 704.65 1.88894 -6.52301 0
M  V30 7167 H 702.596 3.80021 -5.34715 0
M  V30 7168 H 702.513 3.06105 -6.91257 0
M  V30 7169 H 703.781 4.19902 -6.56737 0
M  V30 7170 N 708.01 1.57248 0.105221 0
M  V30 7171 C 708.973 2.00388 1.11252 0
M  V30 7172 C 709.973 0.89594 1.33527 0
M  V30 7173 O 711.163 1.16166 1.29811 0
M  V30 7174 C 708.295 2.35589 2.46395 0
M  V30 7175 H 709.488 2.90591 0.741424 0
M  V30 7176 H 707.041 1.52332 0.349956 0
M  V30 7177 H 707.776 1.4831 2.884 0
M  V30 7178 H 707.561 3.16408 2.31578 0
M  V30 7179 H 709.051 2.69658 3.18864 0
M  V30 7180 N 709.488 -0.375779 1.53054 0
M  V30 7181 C 710.398 -1.48381 1.81715 0
M  V30 7182 C 711.414 -1.59087 0.704795 0
M  V30 7183 O 712.59 -1.75174 0.993785 0
M  V30 7184 C 709.655 -2.83767 1.99192 0
M  V30 7185 C 708.716 -2.82673 3.23102 0
M  V30 7186 C 707.949 -4.11601 3.39736 0
M  V30 7187 O 708.172 -5.07243 2.60885 0
M  V30 7188 O 707.106 -4.18034 4.33049 0
M  V30 7189 H 710.932 -1.27089 2.7583 0
M  V30 7190 H 708.517 -0.564902 1.38308 0
M  V30 7191 H 710.399 -3.64004 2.12318 0
M  V30 7192 H 709.074 -3.05057 1.08267 0
M  V30 7193 H 707.981 -2.0117 3.15407 0
M  V30 7194 H 709.314 -2.66335 4.13916 0
M  V30 7195 N 710.966 -1.44241 -0.634997 0
M  V30 7196 C 711.913 -1.5081 -1.74714 0
M  V30 7197 C 712.883 -0.356147 -1.62237 0
M  V30 7198 O 714.068 -0.565848 -1.82216 0
M  V30 7199 C 711.208 -1.45458 -3.12947 0
M  V30 7200 C 710.321 -2.70998 -3.36428 0
M  V30 7201 C 709.456 -2.57507 -4.64611 0
M  V30 7202 C 708.495 -3.78229 -4.81258 0
M  V30 7203 N 707.632 -3.63438 -6.00714 0
M  V30 7204 H 712.472 -2.45832 -1.68436 0
M  V30 7205 H 710.009 -1.2201 -0.821706 0
M  V30 7206 H 711.967 -1.40347 -3.92885 0
M  V30 7207 H 710.597 -0.540058 -3.1825 0
M  V30 7208 H 709.649 -2.86312 -2.50458 0
M  V30 7209 H 710.961 -3.60619 -3.44609 0
M  V30 7210 H 710.115 -2.50207 -5.52703 0
M  V30 7211 H 708.854 -1.65441 -4.58782 0
M  V30 7212 H 707.859 -3.85918 -3.91596 0
M  V30 7213 H 709.084 -4.71327 -4.88904 0
M  V30 7214 H 707.03 -2.7412 -5.95982 0
M  V30 7215 H 706.947 -4.46672 -6.09934 0
M  V30 7216 H 708.215 -3.60022 -6.91378 0
M  V30 7217 N 712.444 0.87505 -1.31075 0
M  V30 7218 C 713.407 1.96333 -1.18263 0
M  V30 7219 C 714.407 1.60416 -0.111106 0
M  V30 7220 O 715.597 1.7044 -0.359987 0
M  V30 7221 C 712.729 3.31036 -0.81414 0
M  V30 7222 H 713.922 2.09125 -2.14958 0
M  V30 7223 H 711.475 1.06271 -1.14614 0
M  V30 7224 H 712.21 3.23944 0.151875 0
M  V30 7225 H 711.995 3.58476 -1.58862 0
M  V30 7226 H 713.485 4.10842 -0.748249 0
M  V30 7227 N 713.922 1.13953 1.08869 0
M  V30 7228 C 715.171 0.899431 1.80536 0
M  V30 7229 C 715.484 -0.575781 1.86933 0
M  V30 7230 O 716.69 -0.932988 2.54966 0
M  V30 7231 C 715.146 1.55963 3.24351 0
M  V30 7232 C 714.754 3.07077 3.26202 0
M  V30 7233 C 716.498 1.40046 4.00733 0
M  V30 7234 C 714.405 3.65955 4.64576 0
M  V30 7235 H 713.335 0.332849 0.676556 0
M  V30 7236 H 715.986 1.3679 1.22314 0
M  V30 7237 H 714.368 1.01883 3.82669 0
M  V30 7238 H 715.542 3.67785 2.77617 0
M  V30 7239 H 713.857 3.22576 2.63312 0
M  V30 7240 H 716.454 1.81441 5.02974 0
M  V30 7241 H 716.797 0.345993 4.1486 0
M  V30 7242 H 717.33 1.91137 3.48872 0
M  V30 7243 H 714.069 4.71234 4.55652 0
M  V30 7244 H 713.589 3.10027 5.13462 0
M  V30 7245 H 715.268 3.65968 5.33551 0
M  V30 7246 N 715.4 -1.26948 0.933913 0
M  V30 7247 C 716.31 -2.30366 0.443671 0
M  V30 7248 C 717.326 -1.67284 -0.478745 0
M  V30 7249 O 718.502 -1.98156 -0.360043 0
M  V30 7250 C 715.567 -3.45485 -0.289974 0
M  V30 7251 C 714.628 -4.24069 0.668114 0
M  V30 7252 C 713.861 -5.33691 -0.0306138 0
M  V30 7253 O 714.084 -5.5656 -1.24888 0
M  V30 7254 O 713.018 -5.98441 0.644384 0
M  V30 7255 H 716.844 -2.74349 1.30254 0
M  V30 7256 H 714.429 -1.32012 0.699506 0
M  V30 7257 H 716.311 -4.15486 -0.70353 0
M  V30 7258 H 714.986 -3.03546 -1.12435 0
M  V30 7259 H 713.893 -3.56579 1.13147 0
M  V30 7260 H 715.226 -4.69739 1.46989 0
M  V30 7261 N 716.879 -0.700114 -1.41195 0
M  V30 7262 C 718.119 -0.237223 -2.03019 0
M  V30 7263 C 718.483 1.14304 -1.54268 0
M  V30 7264 O 719.684 1.70204 -2.08048 0
M  V30 7265 C 717.955 -0.297442 -3.5616 0
M  V30 7266 S 719.514 0.0907367 -4.38706 0
M  V30 7267 H 716.332 -0.0952147 -0.704596 0
M  V30 7268 H 718.934 -0.918901 -1.72559 0
M  V30 7269 H 717.638 -1.30391 -3.89135 0
M  V30 7270 H 717.169 0.403233 -3.91328 0
M  V30 7271 H 719.184 1.31721 -4.78397 0
M  V30 7272 N 718.357 1.51182 -0.445186 0
M  V30 7273 C 719.634 1.9478 0.178965 0
M  V30 7274 C 720.014 1.38428 1.59376 0
M  V30 7275 O 719.362 0.574552 2.21159 0
M  V30 7276 C 719.572 3.48683 0.148711 0
M  V30 7277 C 720.92 4.23152 0.35042 0
M  V30 7278 O 721.944 3.55479 0.226474 0
M  V30 7279 O 720.803 5.4322 0.597893 0
M  V30 7280 H 717.897 0.817387 0.12573 0
M  V30 7281 H 720.443 1.62051 -0.503729 0
M  V30 7282 H 719.215 3.82176 -0.84009 0
M  V30 7283 H 718.838 3.87875 0.873979 0
M  V30 7284 N 719.835 0.176821 1.56605 0
M  V30 7285 C 720.745 -0.763682 2.21822 0
M  V30 7286 C 721.761 -1.24889 1.21156 0
M  V30 7287 O 722.937 -1.29987 1.53836 0
M  V30 7288 C 720.002 -1.97352 2.8505 0
M  V30 7289 C 719.063 -1.53466 4.00932 0
M  V30 7290 C 718.296 -2.68682 4.61135 0
M  V30 7291 O 718.519 -3.85694 4.20234 0
M  V30 7292 O 717.453 -2.42442 5.50913 0
M  V30 7293 H 721.279 -0.238363 3.02763 0
M  V30 7294 H 718.864 -0.0516331 1.49311 0
M  V30 7295 H 720.746 -2.68096 3.25119 0
M  V30 7296 H 719.421 -2.48779 2.07101 0
M  V30 7297 H 718.328 -0.796551 3.65521 0
M  V30 7298 H 719.661 -1.06724 4.8049 0
M  V30 7299 N 721.313 -1.57302 -0.09688 0
M  V30 7300 C 722.553 -1.87823 -0.806334 0
M  V30 7301 C 722.917 -0.767593 -1.75989 0
M  V30 7302 O 724.118 -0.955173 -2.51257 0
M  V30 7303 C 722.389 -3.23585 -1.51749 0
M  V30 7304 S 723.948 -3.75795 -2.26547 0
M  V30 7305 H 720.766 -0.658281 -0.268676 0
M  V30 7306 H 723.368 -1.95397 -0.0635476 0
M  V30 7307 H 722.072 -4.0234 -0.809348 0
M  V30 7308 H 721.603 -3.19145 -2.30021 0
M  V30 7309 H 723.618 -3.49068 -3.52656 0
M  V30 7310 N 722.791 0.367657 -1.53252 0
M  V30 7311 C 724.039 1.10832 -1.68999 0
M  V30 7312 C 724.36 1.89894 -0.443306 0
M  V30 7313 O 723.63 1.88235 0.54262 0
M  V30 7314 H 722.21 0.412153 -0.623008 0
M  V30 7315 H 724.872 0.414775 -1.90435 0
M  V30 7316 H 723.968 1.7993 -2.55013 0
M  V30 7317 N 724.269 1.44576 0.627338 0
M  V30 7318 C 725.216 1.51734 1.73912 0
M  V30 7319 C 726.186 0.364745 1.62046 0
M  V30 7320 O 727.371 0.575503 1.81914 0
M  V30 7321 C 724.511 1.47116 3.12171 0
M  V30 7322 C 723.624 2.72778 3.34986 0
M  V30 7323 C 722.759 2.59968 4.63239 0
M  V30 7324 C 721.798 3.80776 4.79245 0
M  V30 7325 N 720.935 3.66618 5.98778 0
M  V30 7326 H 725.775 2.46722 1.6713 0
M  V30 7327 H 723.312 1.22444 0.815224 0
M  V30 7328 H 725.27 1.42429 3.92135 0
M  V30 7329 H 723.9 0.556928 3.17959 0
M  V30 7330 H 722.952 2.87637 2.48936 0
M  V30 7331 H 724.264 3.62441 3.42692 0
M  V30 7332 H 723.418 2.53135 5.51369 0
M  V30 7333 H 722.157 1.67872 4.57898 0
M  V30 7334 H 721.162 3.87989 3.89544 0
M  V30 7335 H 722.387 4.73913 4.86398 0
M  V30 7336 H 720.333 2.77277 5.9452 0
M  V30 7337 H 720.25 4.499 6.07557 0
M  V30 7338 H 721.518 3.63684 6.89459 0
M  V30 7339 N 725.747 -0.868086 1.31537 0
M  V30 7340 C 726.697 -1.96321 1.1594 0
M  V30 7341 C 727.681 -1.60748 0.0698962 0
M  V30 7342 O 728.873 -1.74524 0.295011 0
M  V30 7343 C 726.002 -3.32073 0.870789 0
M  V30 7344 C 725.088 -3.73907 2.00136 0
M  V30 7345 N 725.479 -3.87685 3.24859 0
M  V30 7346 C 723.777 -4.03433 1.90152 0
M  V30 7347 C 724.478 -4.23454 3.98825 0
M  V30 7348 N 723.454 -4.34242 3.27009 0
M  V30 7349 H 727.256 -2.05088 2.10514 0
M  V30 7350 H 724.77 -1.059 1.23122 0
M  V30 7351 H 726.767 -4.10279 0.740034 0
M  V30 7352 H 725.427 -3.24631 -0.0667068 0
M  V30 7353 H 726.438 -3.72363 3.59953 0
M  V30 7354 H 723.115 -4.0437 1.03879 0
M  V30 7355 H 724.505 -4.41696 5.06314 0
M  V30 7356 N 727.225 -1.14528 -1.08264 0
M  V30 7357 C 728.472 -0.914405 -1.80679 0
M  V30 7358 C 728.8 0.558952 -1.86295 0
M  V30 7359 O 728.055 1.43017 -1.33584 0
M  V30 7360 C 728.354 -1.46226 -3.26117 0
M  V30 7361 C 728.02 -2.95451 -3.40616 0
M  V30 7362 C 726.682 -3.36191 -3.4428 0
M  V30 7363 C 729.034 -3.91399 -3.44175 0
M  V30 7364 C 726.362 -4.71539 -3.49096 0
M  V30 7365 C 728.714 -5.26606 -3.50526 0
M  V30 7366 C 727.378 -5.66856 -3.52464 0
M  V30 7367 H 726.648 -0.334604 -0.661151 0
M  V30 7368 H 729.295 -1.4292 -1.27461 0
M  V30 7369 H 727.6 -0.868442 -3.82054 0
M  V30 7370 H 729.297 -1.25955 -3.80705 0
M  V30 7371 H 725.887 -2.62955 -3.38456 0
M  V30 7372 H 730.071 -3.61004 -3.40573 0
M  V30 7373 H 725.327 -5.02082 -3.4889 0
M  V30 7374 H 729.501 -6.00758 -3.52225 0
M  V30 7375 H 727.128 -6.71718 -3.55948 0
M  V30 7376 N 728.703 1.26451 -0.940633 0
M  V30 7377 C 729.928 1.98407 -0.60412 0
M  V30 7378 C 730.353 1.69584 0.81382 0
M  V30 7379 O 729.711 0.943553 1.54812 0
M  V30 7380 C 729.759 3.50387 -0.852136 0
M  V30 7381 O 728.863 4.1233 0.076013 0
M  V30 7382 H 728.204 0.622466 -0.231153 0
M  V30 7383 H 730.734 1.60932 -1.26342 0
M  V30 7384 H 730.744 4.00614 -0.772816 0
M  V30 7385 H 729.419 3.70696 -1.88566 0
M  V30 7386 H 727.996 3.7286 -0.0543187 0
M  V30 7387 N 730.181 0.707592 1.40822 0
M  V30 7388 C 731.131 0.0265008 2.27985 0
M  V30 7389 C 732.115 -0.740685 1.42838 0
M  V30 7390 O 733.307 -0.6142 1.66002 0
M  V30 7391 C 730.436 -0.900382 3.31282 0
M  V30 7392 C 729.522 -0.128807 4.23904 0
M  V30 7393 N 729.913 0.883744 4.9802 0
M  V30 7394 C 728.211 -0.362539 4.44524 0
M  V30 7395 C 728.912 1.34666 5.65898 0
M  V30 7396 N 727.888 0.670306 5.39451 0
M  V30 7397 H 731.69 0.802667 2.82727 0
M  V30 7398 H 729.204 0.539475 1.53178 0
M  V30 7399 H 731.201 -1.40357 3.92563 0
M  V30 7400 H 729.861 -1.67601 2.781 0
M  V30 7401 H 730.872 1.26435 5.0223 0
M  V30 7402 H 727.549 -1.11512 4.02332 0
M  V30 7403 H 728.939 2.18756 6.35292 0
M  V30 7404 N 731.66 -1.50943 0.453197 0
M  V30 7405 C 732.623 -2.26684 -0.338705 0
M  V30 7406 C 733.623 -1.30748 -0.936032 0
M  V30 7407 O 734.813 -1.54327 -0.808002 0
M  V30 7408 C 731.945 -3.07063 -1.48071 0
M  V30 7409 H 733.138 -2.98131 0.325289 0
M  V30 7410 H 730.691 -1.54926 0.206771 0
M  V30 7411 H 731.426 -2.4007 -2.18029 0
M  V30 7412 H 731.211 -3.77545 -1.0584 0
M  V30 7413 H 732.701 -3.64393 -2.0398 0
M  V30 7414 N 733.138 -0.185124 -1.56509 0
M  V30 7415 C 734.386 0.455357 -1.96903 0
M  V30 7416 C 734.707 1.62839 -1.07277 0
M  V30 7417 O 733.977 1.95385 -0.141966 0
M  V30 7418 H 732.557 0.171218 -0.727113 0
M  V30 7419 H 735.219 -0.26953 -1.93027 0
M  V30 7420 H 734.315 0.80616 -3.01509 0
M  V30 7421 N 734.616 1.57351 0.0885366 0
M  V30 7422 C 735.579 2.01557 1.09121 0
M  V30 7423 C 736.579 0.910052 1.3257 0
M  V30 7424 O 737.769 1.17537 1.28572 0
M  V30 7425 C 734.901 2.38189 2.43883 0
M  V30 7426 H 736.094 2.91361 0.710562 0
M  V30 7427 H 733.647 1.52694 0.333779 0
M  V30 7428 H 734.382 1.5136 2.86811 0
M  V30 7429 H 734.167 3.18846 2.28209 0
M  V30 7430 H 735.657 2.73025 3.15986 0
M  V30 7431 N 736.094 -0.359525 1.53444 0
M  V30 7432 C 737.024 -1.44662 1.8329 0
M  V30 7433 C 738.005 -1.55617 0.68683 0
M  V30 7434 O 739.19 -1.70086 0.93725 0
M  V30 7435 C 736.32 -2.81923 2.02822 0
M  V30 7436 C 735.274 -2.85787 3.18606 0
M  V30 7437 C 734.6 -4.25781 3.23442 0
M  V30 7438 C 735.9 -2.52762 4.57065 0
M  V30 7439 H 737.594 -1.19934 2.74329 0
M  V30 7440 H 735.14 -0.575517 1.31999 0
M  V30 7441 H 737.093 -3.58005 2.22285 0
M  V30 7442 H 735.817 -3.08051 1.085 0
M  V30 7443 H 734.476 -2.12157 2.98973 0
M  V30 7444 H 734.124 -4.48994 2.26745 0
M  V30 7445 H 733.824 -4.29281 4.01238 0
M  V30 7446 H 735.348 -5.03727 3.45096 0
M  V30 7447 H 736.762 -3.18557 4.76649 0
M  V30 7448 H 735.159 -2.67569 5.37147 0
M  V30 7449 H 736.229 -1.47993 4.61764 0
M  V30 7450 N 737.572 -1.44907 -0.619662 0
M  V30 7451 C 738.819 -1.48292 -1.37898 0
M  V30 7452 C 739.147 -0.119933 -1.9413 0
M  V30 7453 O 738.402 0.879834 -1.74807 0
M  V30 7454 C 738.701 -2.50002 -2.55409 0
M  V30 7455 C 738.367 -3.95031 -2.17397 0
M  V30 7456 C 737.029 -4.34524 -2.06743 0
M  V30 7457 C 739.381 -4.86287 -1.87548 0
M  V30 7458 C 736.709 -5.63183 -1.64445 0
M  V30 7459 C 739.061 -6.15346 -1.4674 0
M  V30 7460 C 737.725 -6.53781 -1.34636 0
M  V30 7461 H 736.995 -0.542638 -0.504603 0
M  V30 7462 H 739.642 -1.78186 -0.701581 0
M  V30 7463 H 737.947 -2.13634 -3.28433 0
M  V30 7464 H 739.644 -2.49864 -3.13639 0
M  V30 7465 H 736.234 -3.63793 -2.26611 0
M  V30 7466 H 740.418 -4.56522 -1.94682 0
M  V30 7467 H 735.674 -5.91769 -1.53687 0
M  V30 7468 H 739.848 -6.85508 -1.22685 0
M  V30 7469 H 737.475 -7.53375 -1.01634 0
M  V30 7470 N 739.05 0.861098 -1.31996 0
M  V30 7471 C 740.278 1.6474 -1.25173 0
M  V30 7472 C 740.693 1.87926 0.181425 0
M  V30 7473 O 740.05 1.4437 1.1164 0
M  V30 7474 C 740.101 3.01036 -2.0015 0
M  V30 7475 O 739.822 2.7888 -3.37872 0
M  V30 7476 C 741.323 3.95481 -2.00273 0
M  V30 7477 H 738.543 0.513314 -0.432146 0
M  V30 7478 H 741.087 1.07419 -1.74016 0
M  V30 7479 H 739.242 3.55021 -1.55046 0
M  V30 7480 H 739.656 3.65514 -3.76165 0
M  V30 7481 H 741.13 4.88403 -2.57229 0
M  V30 7482 H 741.607 4.27957 -0.987407 0
M  V30 7483 H 742.213 3.47433 -2.45296 0
M  V30 7484 N 740.528 1.15101 1.07655 0
M  V30 7485 C 741.478 0.813448 2.12995 0
M  V30 7486 C 742.462 -0.200899 1.59641 0
M  V30 7487 O 743.654 -0.00209918 1.77 0
M  V30 7488 C 740.783 0.301078 3.41977 0
M  V30 7489 C 739.869 1.3454 4.02194 0
M  V30 7490 N 740.26 2.55181 4.36711 0
M  V30 7491 C 738.558 1.19742 4.29625 0
M  V30 7492 C 739.259 3.22094 4.84387 0
M  V30 7493 N 738.235 2.49486 4.82968 0
M  V30 7494 H 742.037 1.73105 2.37511 0
M  V30 7495 H 739.551 1.03601 1.25063 0
M  V30 7496 H 741.548 0.040914 4.1688 0
M  V30 7497 H 740.208 -0.610629 3.18907 0
M  V30 7498 H 741.219 2.92349 4.27496 0
M  V30 7499 H 737.896 0.345353 4.16069 0
M  V30 7500 H 739.286 4.24996 5.20411 0
M  V30 7501 N 742.006 -1.2595 0.947325 0
M  V30 7502 C 742.953 -2.26159 0.460497 0
M  V30 7503 C 743.923 -1.58919 -0.483125 0
M  V30 7504 O 745.108 -1.86603 -0.397983 0
M  V30 7505 C 742.248 -3.441 -0.26247 0
M  V30 7506 C 741.361 -4.25999 0.717539 0
M  V30 7507 C 740.496 -5.31193 -0.0272486 0
M  V30 7508 C 739.535 -6.04774 0.944177 0
M  V30 7509 N 738.672 -7.01721 0.230741 0
M  V30 7510 H 743.512 -2.67173 1.31995 0
M  V30 7511 H 741.049 -1.31358 0.662088 0
M  V30 7512 H 743.007 -4.11317 -0.698137 0
M  V30 7513 H 741.637 -3.03983 -1.08602 0
M  V30 7514 H 740.689 -3.58513 1.27171 0
M  V30 7515 H 742.001 -4.76981 1.45913 0
M  V30 7516 H 741.155 -6.04451 -0.521903 0
M  V30 7517 H 739.894 -4.81066 -0.801682 0
M  V30 7518 H 738.899 -5.30338 1.4499 0
M  V30 7519 H 740.124 -6.56991 1.71872 0
M  V30 7520 H 738.07 -6.53895 -0.525088 0
M  V30 7521 H 737.987 -7.50484 0.911556 0
M  V30 7522 H 739.255 -7.79122 -0.242616 0
M  V30 7523 N 743.484 -0.715051 -1.40445 0
M  V30 7524 C 744.417 -0.0112426 -2.28197 0
M  V30 7525 C 745.395 0.768211 -1.43308 0
M  V30 7526 O 746.579 0.754961 -1.72721 0
M  V30 7527 C 743.706 0.991453 -3.23864 0
M  V30 7528 C 742.752 0.302873 -4.25423 0
M  V30 7529 S 743.585 -0.968852 -5.26663 0
M  V30 7530 C 744.741 0.0317538 -6.25892 0
M  V30 7531 H 744.974 -0.755467 -2.87541 0
M  V30 7532 H 742.507 -0.506054 -1.45871 0
M  V30 7533 H 744.465 1.56475 -3.79507 0
M  V30 7534 H 743.126 1.70838 -2.63578 0
M  V30 7535 H 742.319 1.06086 -4.92709 0
M  V30 7536 H 741.921 -0.197853 -3.73476 0
M  V30 7537 H 744.213 0.878764 -6.71777 0
M  V30 7538 H 745.156 -0.607698 -7.05488 0
M  V30 7539 H 745.564 0.39524 -5.63115 0
M  V30 7540 N 744.962 1.50701 -0.461195 0
M  V30 7541 C 746.208 2.02566 0.0973411 0
M  V30 7542 C 746.541 1.3432 1.40257 0
M  V30 7543 O 745.816 0.465692 1.88843 0
M  V30 7544 C 746.099 3.58919 0.291423 0
M  V30 7545 C 745.952 4.37751 -1.03413 0
M  V30 7546 C 747.271 4.27379 1.05048 0
M  V30 7547 H 744.39 0.73622 0.0339026 0
M  V30 7548 H 747.032 1.80115 -0.604855 0
M  V30 7549 H 745.182 3.78179 0.889539 0
M  V30 7550 H 746.854 4.30085 -1.66806 0
M  V30 7551 H 745.097 4.01885 -1.63313 0
M  V30 7552 H 745.768 5.45384 -0.852085 0
M  V30 7553 H 748.244 4.12534 0.543603 0
M  V30 7554 H 747.12 5.36609 1.15506 0
M  V30 7555 H 747.381 3.89868 2.0846 0
M  V30 7556 N 746.441 0.193421 1.56409 0
M  V30 7557 C 747.391 -0.74089 2.15627 0
M  V30 7558 C 748.375 -1.17747 1.09656 0
M  V30 7559 O 749.567 -1.13615 1.35723 0
M  V30 7560 C 746.696 -1.96091 2.81786 0
M  V30 7561 C 745.782 -1.54531 3.94944 0
M  V30 7562 N 746.173 -0.840569 4.98767 0
M  V30 7563 C 744.471 -1.83473 4.06514 0
M  V30 7564 C 745.172 -0.632571 5.7825 0
M  V30 7565 N 744.148 -1.18078 5.30621 0
M  V30 7566 H 747.95 -0.193718 2.93261 0
M  V30 7567 H 745.464 -0.00643211 1.62399 0
M  V30 7568 H 747.461 -2.64071 3.22602 0
M  V30 7569 H 746.121 -2.51282 2.05639 0
M  V30 7570 H 747.132 -0.496218 5.15517 0
M  V30 7571 H 743.809 -2.40184 3.41493 0
M  V30 7572 H 745.199 -0.0736433 6.7186 0
M  V30 7573 N 747.919 -1.57396 -0.0801906 0
M  V30 7574 C 748.866 -2.03107 -1.09618 0
M  V30 7575 C 749.836 -0.910118 -1.38946 0
M  V30 7576 O 751.021 -1.17719 -1.50156 0
M  V30 7577 C 748.161 -2.47293 -2.40708 0
M  V30 7578 C 747.274 -3.72972 -2.17982 0
M  V30 7579 C 746.409 -4.05975 -3.42576 0
M  V30 7580 C 745.448 -5.24719 -3.15177 0
M  V30 7581 N 744.585 -5.53401 -4.32078 0
M  V30 7582 H 749.425 -2.89677 -0.69939 0
M  V30 7583 H 746.962 -1.43263 -0.333785 0
M  V30 7584 H 748.92 -2.7096 -3.17232 0
M  V30 7585 H 747.55 -1.63713 -2.78205 0
M  V30 7586 H 746.602 -3.56693 -1.32189 0
M  V30 7587 H 747.914 -4.59638 -1.93738 0
M  V30 7588 H 747.068 -4.30498 -4.275 0
M  V30 7589 H 745.807 -3.17859 -3.69887 0
M  V30 7590 H 744.812 -5 -2.28648 0
M  V30 7591 H 746.037 -6.14445 -2.89197 0
M  V30 7592 H 743.983 -4.68245 -4.59437 0
M  V30 7593 H 743.9 -6.34469 -4.11078 0
M  V30 7594 H 745.168 -5.8247 -5.18024 0
M  V30 7595 N 749.397 0.351382 -1.53633 0
M  V30 7596 C 750.307 1.45471 -1.84052 0
M  V30 7597 C 751.323 1.57945 -0.730015 0
M  V30 7598 O 752.499 1.73571 -1.02153 0
M  V30 7599 C 749.564 2.80562 -2.03681 0
M  V30 7600 C 748.625 2.77497 -3.27558 0
M  V30 7601 C 747.858 4.06144 -3.46241 0
M  V30 7602 O 748.081 5.03028 -2.68922 0
M  V30 7603 O 747.015 4.11092 -4.39645 0
M  V30 7604 H 750.841 1.22684 -2.77817 0
M  V30 7605 H 748.426 0.542827 -1.3919 0
M  V30 7606 H 750.308 3.6058 -2.18082 0
M  V30 7607 H 748.983 3.03296 -1.13106 0
M  V30 7608 H 747.89 1.96126 -3.18568 0
M  V30 7609 H 749.223 2.59716 -4.18101 0
M  V30 7610 N 750.875 1.45233 0.611969 0
M  V30 7611 C 751.822 1.5357 1.72293 0
M  V30 7612 C 752.792 0.381912 1.6165 0
M  V30 7613 O 753.977 0.594765 1.81293 0
M  V30 7614 C 751.117 1.50419 3.10593 0
M  V30 7615 C 750.23 2.76316 3.32074 0
M  V30 7616 C 749.365 2.64866 4.60456 0
M  V30 7617 C 748.404 3.85838 4.7518 0
M  V30 7618 N 747.541 3.72949 5.94856 0
M  V30 7619 H 752.381 2.4848 1.64504 0
M  V30 7620 H 749.918 1.23302 0.802191 0
M  V30 7621 H 751.876 1.4658 3.90602 0
M  V30 7622 H 750.506 0.590621 3.17351 0
M  V30 7623 H 749.558 2.90261 2.45872 0
M  V30 7624 H 750.87 3.66055 3.38829 0
M  V30 7625 H 750.024 2.58969 5.48653 0
M  V30 7626 H 748.763 1.72719 4.56092 0
M  V30 7627 H 747.768 3.92099 3.85407 0
M  V30 7628 H 748.993 4.79045 4.81344 0
M  V30 7629 H 746.939 2.83567 5.91545 0
M  V30 7630 H 746.856 4.56319 6.02751 0
M  V30 7631 H 748.124 3.70976 6.85563 0
M  V30 7632 N 752.353 -0.854086 1.3245 0
M  V30 7633 C 753.601 -1.60513 1.228 0
M  V30 7634 C 753.922 -1.93865 -0.210073 0
M  V30 7635 O 753.192 -1.59673 -1.13496 0
M  V30 7636 H 751.772 -0.595099 0.451516 0
M  V30 7637 H 754.434 -1.0216 1.6598 0
M  V30 7638 H 753.53 -2.54182 1.81102 0
M  V30 7639 N 753.831 -1.1567 -1.07043 0
M  V30 7640 C 754.794 -0.858906 -2.12498 0
M  V30 7641 C 755.794 0.142735 -1.60165 0
M  V30 7642 O 756.984 -0.0872678 -1.73981 0
M  V30 7643 C 754.116 -0.283021 -3.39723 0
M  V30 7644 H 755.309 -1.79368 -2.40348 0
M  V30 7645 H 752.862 -0.964608 -1.22984 0
M  V30 7646 H 753.597 0.659796 -3.17517 0
M  V30 7647 H 753.382 -1.00467 -3.7901 0
M  V30 7648 H 754.872 -0.0923543 -4.17498 0
M  V30 7649 N 755.309 1.25446 -0.953992 0
M  V30 7650 C 756.257 2.27909 -0.46478 0
M  V30 7651 C 757.251 1.62904 0.464607 0
M  V30 7652 O 758.457 1.76733 0.341407 0
M  V30 7653 H 754.832 0.74036 -0.131798 0
M  V30 7654 H 756.803 2.66559 -1.34122 0
M  V30 7655 C 755.552 3.46853 0.242589 0
M  V30 7656 H 754.875 3.97105 -0.463418 0
M  V30 7657 H 756.315 4.20432 0.548919 0
M  V30 7658 C 754.774 3.03386 1.46487 0
M  V30 7659 O 755.304 3.09342 2.56262 0
M  V30 7660 N 753.51 2.58584 1.32599 0
M  V30 7661 H 753.057 2.53938 0.432834 0
M  V30 7662 H 753.015 2.29866 2.14497 0
M  V30 7663 N 756.787 0.722489 1.40064 0
M  V30 7664 C 757.734 0.0743738 2.3068 0
M  V30 7665 C 758.704 -0.743004 1.48555 0
M  V30 7666 O 759.889 -0.705536 1.77276 0
M  V30 7667 C 757.029 -0.836292 3.34814 0
M  V30 7668 C 756.142 -0.00764663 4.31999 0
M  V30 7669 C 755.277 -0.918428 5.232 0
M  V30 7670 C 754.316 -0.0842838 6.12042 0
M  V30 7671 N 753.453 -0.950316 6.95639 0
M  V30 7672 H 758.293 0.852794 2.85537 0
M  V30 7673 H 755.83 0.432222 1.40607 0
M  V30 7674 H 757.788 -1.3786 3.93765 0
M  V30 7675 H 756.418 -1.58082 2.81443 0
M  V30 7676 H 755.47 0.651928 3.74772 0
M  V30 7677 H 756.782 0.63786 4.94705 0
M  V30 7678 H 755.936 -1.52902 5.87116 0
M  V30 7679 H 754.675 -1.59774 4.60786 0
M  V30 7680 H 753.68 0.5392 5.4715 0
M  V30 7681 H 754.905 0.591628 6.76518 0
M  V30 7682 H 752.851 -1.61515 6.35806 0
M  V30 7683 H 752.768 -0.361004 7.55138 0
M  V30 7684 H 754.036 -1.54687 7.63997 0
M  V30 7685 N 758.265 -1.50454 0.469181 0
M  V30 7686 C 759.198 -2.25149 -0.371928 0
M  V30 7687 C 760.176 -1.28382 -0.997845 0
M  V30 7688 O 761.36 -1.57599 -1.03415 0
M  V30 7689 C 758.487 -3.02629 -1.52097 0
M  V30 7690 C 757.533 -4.14305 -1.01262 0
M  V30 7691 S 758.366 -5.35453 0.0711459 0
M  V30 7692 C 759.522 -6.1648 -1.08181 0
M  V30 7693 H 759.755 -2.96142 0.262134 0
M  V30 7694 H 757.288 -1.52296 0.254042 0
M  V30 7695 H 759.246 -3.47861 -2.17952 0
M  V30 7696 H 757.907 -2.31165 -2.12654 0
M  V30 7697 H 757.1 -4.67913 -1.87278 0
M  V30 7698 H 756.702 -3.71499 -0.431804 0
M  V30 7699 H 758.994 -6.47497 -1.99382 0
M  V30 7700 H 759.937 -7.05679 -0.585028 0
M  V30 7701 H 760.345 -5.48492 -1.33478 0
M  V30 7702 N 759.743 -0.201713 -1.56304 0
M  V30 7703 C 760.693 0.729444 -2.16016 0
M  V30 7704 C 761.677 1.17164 -1.10279 0
M  V30 7705 O 762.869 1.12893 -1.36324 0
M  V30 7706 C 759.998 1.94594 -2.82822 0
M  V30 7707 C 759.084 1.52434 -3.95758 0
M  V30 7708 N 759.475 0.814106 -4.99205 0
M  V30 7709 C 757.773 1.81314 -4.07481 0
M  V30 7710 C 758.474 0.601896 -5.78578 0
M  V30 7711 N 757.45 1.15263 -5.3124 0
M  V30 7712 H 761.252 0.178163 -2.93359 0
M  V30 7713 H 758.766 -0.00218038 -1.624 0
M  V30 7714 H 760.763 2.62357 -3.23998 0
M  V30 7715 H 759.423 2.50188 -2.06969 0
M  V30 7716 H 760.434 0.468872 -5.15773 0
M  V30 7717 H 757.111 2.3837 -3.42762 0
M  V30 7718 H 758.501 0.0380119 -6.71889 0
M  V30 7719 N 761.222 1.57436 0.0718424 0
M  V30 7720 C 762.169 2.03686 1.08539 0
M  V30 7721 C 763.139 0.917474 1.38462 0
M  V30 7722 O 764.324 1.18513 1.4953 0
M  V30 7723 C 761.464 2.48566 2.39393 0
M  V30 7724 C 760.577 3.74122 2.16001 0
M  V30 7725 C 759.712 4.07786 3.40418 0
M  V30 7726 C 758.751 5.26383 3.1239 0
M  V30 7727 N 757.888 5.55685 4.29138 0
M  V30 7728 H 762.728 2.90043 0.684018 0
M  V30 7729 H 760.265 1.43438 0.326183 0
M  V30 7730 H 762.223 2.72639 3.15791 0
M  V30 7731 H 760.853 1.65186 2.77333 0
M  V30 7732 H 759.905 3.57389 1.30296 0
M  V30 7733 H 761.217 4.60659 1.91298 0
M  V30 7734 H 760.371 4.32759 4.25211 0
M  V30 7735 H 759.11 3.19817 3.68197 0
M  V30 7736 H 758.115 5.01206 2.25993 0
M  V30 7737 H 759.34 6.1597 2.85934 0
M  V30 7738 H 757.286 4.70675 4.56948 0
M  V30 7739 H 757.203 6.3664 4.07708 0
M  V30 7740 H 758.471 5.85209 5.14928 0
M  V30 7741 N 762.7 -0.34323 1.53817 0
M  V30 7742 C 763.94 -1.09188 1.72793 0
M  V30 7743 C 764.304 -1.85876 0.481062 0
M  V30 7744 O 765.505 -2.63158 0.547851 0
M  V30 7745 C 763.776 -2.00783 2.9567 0
M  V30 7746 S 765.335 -2.82866 3.35459 0
M  V30 7747 H 762.153 -0.368926 0.607795 0
M  V30 7748 H 764.755 -0.370265 1.91962 0
M  V30 7749 H 763.459 -1.43245 3.84589 0
M  V30 7750 H 762.99 -2.77381 2.78968 0
M  V30 7751 H 765.005 -4.03196 2.89218 0
M  V30 7752 N 764.178 -1.45556 -0.604258 0
M  V30 7753 C 765.125 -1.54482 -1.71476 0
M  V30 7754 C 766.095 -0.390479 -1.61445 0
M  V30 7755 O 767.28 -0.604371 -1.80975 0
M  V30 7756 C 764.42 -1.52064 -3.09791 0
M  V30 7757 C 763.533 -2.78073 -3.30604 0
M  V30 7758 C 762.668 -2.67304 -4.59044 0
M  V30 7759 C 761.707 -3.88352 -4.73127 0
M  V30 7760 N 760.844 -3.76098 -5.9287 0
M  V30 7761 H 765.684 -2.49349 -1.63184 0
M  V30 7762 H 763.221 -1.23725 -0.795641 0
M  V30 7763 H 765.179 -1.48649 -3.89819 0
M  V30 7764 H 763.809 -0.607442 -3.17033 0
M  V30 7765 H 762.861 -2.91561 -2.44329 0
M  V30 7766 H 764.173 -3.67847 -3.36883 0
M  V30 7767 H 763.327 -2.61875 -5.47272 0
M  V30 7768 H 762.066 -1.75135 -4.55169 0
M  V30 7769 H 761.071 -3.94137 -3.83322 0
M  V30 7770 H 762.296 -4.81591 -4.78797 0
M  V30 7771 H 760.242 -2.867 -5.90033 0
M  V30 7772 H 760.159 -4.59509 -6.00323 0
M  V30 7773 H 761.427 -3.74607 -6.83586 0
M  V30 7774 N 765.656 0.84705 -1.32902 0
M  V30 7775 C 766.903 1.60176 -1.23894 0
M  V30 7776 C 767.231 1.93496 0.197341 0
M  V30 7777 O 766.486 1.58173 1.15238 0
M  V30 7778 C 766.785 2.92663 -2.05142 0
M  V30 7779 C 766.451 2.7874 -3.54422 0
M  V30 7780 C 765.113 2.7465 -3.95121 0
M  V30 7781 C 767.465 2.64128 -4.49317 0
M  V30 7782 C 764.793 2.53837 -5.28946 0
M  V30 7783 C 767.145 2.44849 -5.83294 0
M  V30 7784 C 765.809 2.39156 -6.23186 0
M  V30 7785 H 765.079 0.586127 -0.453361 0
M  V30 7786 H 767.726 0.981994 -1.64405 0
M  V30 7787 H 766.031 3.588 -1.57383 0
M  V30 7788 H 767.728 3.50095 -1.95537 0
M  V30 7789 H 764.318 2.82751 -3.22102 0
M  V30 7790 H 768.502 2.66327 -4.18788 0
M  V30 7791 H 763.758 2.4787 -5.58901 0
M  V30 7792 H 767.932 2.32524 -6.56434 0
M  V30 7793 H 765.559 2.22789 -7.26821 0
M  V30 7794 N 767.134 1.16236 1.06428 0
M  V30 7795 C 768.374 0.95369 1.80787 0
M  V30 7796 C 768.738 -0.509495 1.85117 0
M  V30 7797 O 769.939 -0.836822 2.55442 0
M  V30 7798 C 768.21 1.56235 3.21443 0
M  V30 7799 S 769.769 1.49812 4.12434 0
M  V30 7800 H 766.587 0.343004 0.622792 0
M  V30 7801 H 769.189 1.47957 1.27785 0
M  V30 7802 H 767.893 2.62 3.15886 0
M  V30 7803 H 767.424 1.03574 3.79521 0
M  V30 7804 H 769.439 0.49745 4.937 0
M  V30 7805 N 768.612 -1.24939 0.960631 0
M  V30 7806 C 769.522 -2.29374 0.492435 0
M  V30 7807 C 770.538 -1.68262 -0.443154 0
M  V30 7808 O 771.714 -1.98875 -0.31793 0
M  V30 7809 C 768.779 -3.46023 -0.216626 0
M  V30 7810 C 767.84 -4.22557 0.757915 0
M  V30 7811 C 767.073 -5.33636 0.0825969 0
M  V30 7812 O 767.296 -5.59084 -1.13054 0
M  V30 7813 O 766.23 -5.96939 0.771177 0
M  V30 7814 H 770.056 -2.71525 1.36044 0
M  V30 7815 H 767.641 -1.30499 0.72735 0
M  V30 7816 H 769.523 -4.16885 -0.615241 0
M  V30 7817 H 768.198 -3.05862 -1.05971 0
M  V30 7818 H 767.105 -3.54099 1.20685 0
M  V30 7819 H 768.438 -4.66516 1.5692 0
M  V30 7820 N 770.09 -0.729906 -1.39679 0
M  V30 7821 C 771.32 -0.285295 -2.04621 0
M  V30 7822 C 771.728 1.08304 -1.55135 0
M  V30 7823 O 771.071 1.6946 -0.709146 0
M  V30 7824 C 771.133 -0.203129 -3.58926 0
M  V30 7825 C 770.797 -1.50909 -4.31365 0
M  V30 7826 C 771.794 -2.45381 -4.58349 0
M  V30 7827 C 769.479 -1.77198 -4.70007 0
M  V30 7828 C 771.473 -3.64379 -5.22979 0
M  V30 7829 C 769.16 -2.96474 -5.34365 0
M  V30 7830 C 770.158 -3.89886 -5.60783 0
M  V30 7831 O 769.846 -5.07069 -6.23808 0
M  V30 7832 H 769.578 -0.123373 -0.664647 0
M  V30 7833 H 772.132 -0.992901 -1.79807 0
M  V30 7834 H 770.362 0.560538 -3.82616 0
M  V30 7835 H 772.051 0.208811 -4.05363 0
M  V30 7836 H 772.817 -2.2634 -4.28947 0
M  V30 7837 H 768.696 -1.05337 -4.48804 0
M  V30 7838 H 772.24 -4.37307 -5.43515 0
M  V30 7839 H 768.137 -3.15419 -5.63188 0
M  V30 7840 H 768.905 -5.07335 -6.42303 0
M  V30 7841 N 771.568 1.50203 -0.477153 0
M  V30 7842 C 772.478 2.32421 0.319027 0
M  V30 7843 C 773.494 1.43075 0.990233 0
M  V30 7844 O 774.67 1.76123 0.976873 0
M  V30 7845 C 771.735 3.17909 1.38328 0
M  V30 7846 C 770.796 4.23082 0.728036 0
M  V30 7847 C 770.029 5.04484 1.74158 0
M  V30 7848 O 770.252 4.8705 2.96881 0
M  V30 7849 O 769.186 5.8747 1.31006 0
M  V30 7850 H 773.012 3.01638 -0.353281 0
M  V30 7851 H 770.597 1.47478 -0.238891 0
M  V30 7852 H 772.479 3.70937 1.9996 0
M  V30 7853 H 771.154 2.51413 2.03895 0
M  V30 7854 H 770.061 3.7403 0.07261 0
M  V30 7855 H 771.394 4.92065 0.115216 0
M  V30 7856 N 773.046 0.209999 1.56195 0
M  V30 7857 C 774.274 -0.429996 2.02382 0
M  V30 7858 C 774.689 -1.54159 1.08998 0
M  V30 7859 O 774.046 -1.82239 0.0974856 0
M  V30 7860 C 774.097 -0.972433 3.48175 0
M  V30 7861 O 773.818 0.0948231 4.37997 0
M  V30 7862 C 775.319 -1.68683 4.09952 0
M  V30 7863 H 772.539 -0.106475 0.662498 0
M  V30 7864 H 775.083 0.323072 2.01932 0
M  V30 7865 H 773.238 -1.67582 3.49278 0
M  V30 7866 H 773.652 -0.31113 5.23576 0
M  V30 7867 H 775.126 -2.01851 5.13771 0
M  V30 7868 H 775.603 -2.59587 3.54276 0
M  V30 7869 H 776.209 -1.02893 4.12666 0
M  V30 7870 N 774.524 -1.57472 -0.0634922 0
M  V30 7871 C 775.487 -2.03268 -1.059 0
M  V30 7872 C 776.487 -0.931028 -1.31105 0
M  V30 7873 O 777.677 -1.19567 -1.26686 0
M  V30 7874 C 774.809 -2.42039 -2.40062 0
M  V30 7875 H 776.002 -2.92454 -0.664119 0
M  V30 7876 H 773.555 -1.53206 -0.309444 0
M  V30 7877 H 774.29 -1.55904 -2.84367 0
M  V30 7878 H 774.075 -3.22437 -2.23108 0
M  V30 7879 H 775.565 -2.78017 -3.11603 0
M  V30 7880 N 776.003 0.335068 -1.53997 0
M  V30 7881 C 776.913 1.43511 -1.85585 0
M  V30 7882 C 777.929 1.57162 -0.746726 0
M  V30 7883 O 779.105 1.72477 -1.03988 0
M  V30 7884 C 776.17 2.78386 -2.06646 0
M  V30 7885 C 775.231 2.74007 -3.30483 0
M  V30 7886 C 774.464 4.02449 -3.50529 0
M  V30 7887 O 774.687 5.00147 -2.74242 0
M  V30 7888 O 773.621 4.06405 -4.4398 0
M  V30 7889 H 777.447 1.19731 -2.79102 0
M  V30 7890 H 775.032 0.528033 -1.39758 0
M  V30 7891 H 776.914 3.58247 -2.21894 0
M  V30 7892 H 775.589 3.0208 -1.16317 0
M  V30 7893 H 774.496 1.92736 -3.2063 0
M  V30 7894 H 775.829 2.55267 -4.20832 0
M  V30 7895 N 777.481 1.45874 0.596531 0
M  V30 7896 C 778.413 1.51408 1.7207 0
M  V30 7897 C 779.426 0.403738 1.57714 0
M  V30 7898 O 780.615 0.671384 1.65393 0
M  V30 7899 C 777.715 1.3652 3.10186 0
M  V30 7900 C 776.888 2.61428 3.50677 0
M  V30 7901 C 775.947 2.40937 4.67799 0
M  V30 7902 O 774.973 3.14602 4.74357 0
M  V30 7903 N 776.175 1.4621 5.61785 0
M  V30 7904 H 778.94 2.48333 1.67782 0
M  V30 7905 H 776.501 1.41755 0.782129 0
M  V30 7906 H 778.493 1.20606 3.86311 0
M  V30 7907 H 777.063 0.478302 3.08919 0
M  V30 7908 H 776.283 2.92381 2.644 0
M  V30 7909 H 777.571 3.44432 3.74491 0
M  V30 7910 H 776.969 0.854382 5.59211 0
M  V30 7911 H 775.526 1.36264 6.37397 0
M  V30 7912 N 778.959 -0.83999 1.33349 0
M  V30 7913 C 780.207 -1.59202 1.24496 0
M  V30 7914 C 780.528 -1.94077 -0.189499 0
M  V30 7915 O 779.798 -1.60868 -1.11796 0
M  V30 7916 H 778.378 -0.590276 0.457802 0
M  V30 7917 H 781.04 -1.00394 1.67054 0
M  V30 7918 H 780.136 -2.52247 1.83788 0
M  V30 7919 N 780.437 -1.16799 -1.0581 0
M  V30 7920 C 781.367 -0.902241 -2.15364 0
M  V30 7921 C 782.348 0.153351 -1.69407 0
M  V30 7922 O 783.533 0.00442032 -1.94199 0
M  V30 7923 C 780.663 -0.407911 -3.44896 0
M  V30 7924 C 779.617 -1.40197 -4.04387 0
M  V30 7925 C 778.943 -0.765848 -5.29187 0
M  V30 7926 C 780.243 -2.77316 -4.42598 0
M  V30 7927 H 781.937 -1.81841 -2.37853 0
M  V30 7928 H 779.483 -0.875731 -1.14311 0
M  V30 7929 H 781.436 -0.20945 -4.20879 0
M  V30 7930 H 780.16 0.54378 -3.22041 0
M  V30 7931 H 778.819 -1.58707 -3.30466 0
M  V30 7932 H 778.467 0.192482 -5.02632 0
M  V30 7933 H 778.167 -1.42939 -5.69949 0
M  V30 7934 H 779.691 -0.577519 -6.07863 0
M  V30 7935 H 781.105 -2.62561 -5.09642 0
M  V30 7936 H 779.502 -3.4019 -4.94359 0
M  V30 7937 H 780.572 -3.32199 -3.53231 0
M  V30 7938 N 781.915 1.24427 -0.967243 0
M  V30 7939 C 782.845 2.2773 -0.515899 0
M  V30 7940 C 783.826 1.64197 0.444227 0
M  V30 7941 O 785.011 1.91193 0.340451 0
M  V30 7942 C 782.141 3.46751 0.195149 0
M  V30 7943 C 781.095 4.22548 -0.680953 0
M  V30 7944 C 780.421 5.34456 0.161561 0
M  V30 7945 C 781.721 4.83914 -1.96532 0
M  V30 7946 H 783.415 2.65735 -1.37933 0
M  V30 7947 H 780.961 1.27742 -0.664681 0
M  V30 7948 H 782.914 4.18153 0.522117 0
M  V30 7949 H 781.638 3.07771 1.09292 0
M  V30 7950 H 780.297 3.52946 -0.991186 0
M  V30 7951 H 779.945 4.91716 1.05947 0
M  V30 7952 H 779.645 5.86087 -0.421418 0
M  V30 7953 H 781.169 6.08685 0.483211 0
M  V30 7954 H 782.583 5.47392 -1.70396 0
M  V30 7955 H 780.98 5.45775 -2.49499 0
M  V30 7956 H 782.05 4.05393 -2.66053 0
M  V30 7957 N 783.393 0.737304 1.3929 0
M  V30 7958 C 784.341 0.0879867 2.32434 0
M  V30 7959 C 785.335 -0.723324 1.53181 0
M  V30 7960 O 786.541 -0.624251 1.68829 0
M  V30 7961 H 782.916 0.00965277 0.751938 0
M  V30 7962 H 784.887 0.889915 2.84821 0
M  V30 7963 C 783.636 -0.803384 3.38291 0
M  V30 7964 H 782.959 -0.18849 3.99355 0
M  V30 7965 H 784.399 -1.22528 4.0591 0
M  V30 7966 C 782.858 -1.93872 2.75527 0
M  V30 7967 O 783.388 -3.03154 2.63553 0
M  V30 7968 N 781.594 -1.72883 2.3358 0
M  V30 7969 H 781.141 -0.840005 2.43519 0
M  V30 7970 H 781.099 -2.49021 1.91927 0
M  V30 7971 N 784.871 -1.49948 0.485112 0
M  V30 7972 C 786.287 -1.58984 0.140096 0
M  V30 7973 C 786.487 -1.49194 -1.35438 0
M  V30 7974 O 785.543 -1.35765 -2.12894 0
M  V30 7975 C 786.856 -2.92372 0.702769 0
M  V30 7976 C 788.404 -3.05801 0.66745 0
M  V30 7977 C 788.879 -4.41785 1.20791 0
M  V30 7978 N 790.37 -4.48234 1.16792 0
M  V30 7979 C 791.105 -5.51871 1.55646 0
M  V30 7980 N 790.601 -6.62692 2.02016 0
M  V30 7981 N 792.394 -5.42494 1.47161 0
M  V30 7982 H 784.545 -1.54555 1.45693 0
M  V30 7983 H 786.808 -0.731206 0.603359 0
M  V30 7984 H 786.514 -3.05056 1.75025 0
M  V30 7985 H 786.388 -3.76885 0.154205 0
M  V30 7986 H 788.775 -2.92757 -0.371157 0
M  V30 7987 H 788.856 -2.23011 1.25298 0
M  V30 7988 H 788.5 -4.55579 2.24522 0
M  V30 7989 H 788.43 -5.23188 0.598464 0
M  V30 7990 H 790.921 -3.68718 0.827982 0
M  V30 7991 H 791.234 -7.3785 2.29775 0
M  V30 7992 H 789.579 -6.63775 2.05979 0
M  V30 7993 H 792.77 -4.54806 1.10765 0
M  V30 7994 H 792.943 -6.2314 1.77766 0
M  V30 7995 N 786.349 -0.21828 -1.56081 0
M  V30 7996 C 787.299 0.706492 -2.16778 0
M  V30 7997 C 788.283 1.15987 -1.11516 0
M  V30 7998 O 789.475 1.11441 -1.37513 0
M  V30 7999 C 786.604 1.91583 -2.8487 0
M  V30 8000 C 785.69 1.48228 -3.97353 0
M  V30 8001 N 786.081 0.761113 -5.00041 0
M  V30 8002 C 784.379 1.76982 -4.09382 0
M  V30 8003 C 785.08 0.540496 -5.79184 0
M  V30 8004 N 784.056 1.09622 -5.32432 0
M  V30 8005 H 787.858 0.147038 -2.93532 0
M  V30 8006 H 785.372 -0.0194049 -1.62388 0
M  V30 8007 H 787.369 2.58906 -3.26762 0
M  V30 8008 H 786.029 2.47979 -2.09611 0
M  V30 8009 H 787.04 0.414141 -5.16241 0
M  V30 8010 H 783.717 2.34721 -3.45271 0
M  V30 8011 H 785.107 -0.0332531 -6.71892 0
M  V30 8012 N 787.827 1.57504 0.0551401 0
M  V30 8013 C 788.757 2.07864 1.06372 0
M  V30 8014 C 789.738 0.975565 1.39344 0
M  V30 8015 O 790.923 1.24929 1.48682 0
M  V30 8016 C 788.053 2.53643 2.3724 0
M  V30 8017 C 787.007 3.67978 2.18578 0
M  V30 8018 C 786.333 3.9987 3.54976 0
M  V30 8019 C 787.633 4.97405 1.59329 0
M  V30 8020 H 789.327 2.92379 0.644595 0
M  V30 8021 H 786.873 1.40654 0.308619 0
M  V30 8022 H 788.826 2.8749 3.08103 0
M  V30 8023 H 787.55 1.66177 2.81163 0
M  V30 8024 H 786.209 3.3444 1.50152 0
M  V30 8025 H 785.857 3.0951 3.965 0
M  V30 8026 H 785.557 4.76867 3.43324 0
M  V30 8027 H 787.081 4.36228 4.27244 0
M  V30 8028 H 788.495 5.29375 2.20078 0
M  V30 8029 H 786.892 5.78837 1.58327 0
M  V30 8030 H 787.962 4.81697 0.55638 0
M  V30 8031 N 789.305 -0.326896 1.54172 0
M  V30 8032 C 790.235 -1.40741 1.86317 0
M  V30 8033 C 791.216 -1.54125 0.719684 0
M  V30 8034 O 792.401 -1.6806 0.973117 0
M  V30 8035 C 789.531 -2.77557 2.08757 0
M  V30 8036 C 788.485 -2.78965 3.24596 0
M  V30 8037 C 787.811 -4.18824 3.32401 0
M  V30 8038 C 789.111 -2.4301 4.62324 0
M  V30 8039 H 790.805 -1.14088 2.76811 0
M  V30 8040 H 788.351 -0.547389 1.3319 0
M  V30 8041 H 790.304 -3.53209 2.29829 0
M  V30 8042 H 789.028 -3.0568 1.15009 0
M  V30 8043 H 787.687 -2.05767 3.03406 0
M  V30 8044 H 787.335 -4.44083 2.36218 0
M  V30 8045 H 787.035 -4.20673 4.10253 0
M  V30 8046 H 788.559 -4.96294 3.55703 0
M  V30 8047 H 789.973 -3.08375 4.83299 0
M  V30 8048 H 788.37 -2.56116 5.42701 0
M  V30 8049 H 789.44 -1.38165 4.64799 0
M  V30 8050 N 790.784 -1.46188 -0.588786 0
M  V30 8051 C 791.747 -1.55882 -1.68029 0
M  V30 8052 C 792.747 -0.436515 -1.54762 0
M  V30 8053 O 793.937 -0.700626 -1.59489 0
M  V30 8054 C 791.069 -1.47332 -3.07418 0
M  V30 8055 H 792.262 -2.5315 -1.60795 0
M  V30 8056 H 789.815 -1.33908 -0.806116 0
M  V30 8057 H 790.55 -0.513193 -3.20214 0
M  V30 8058 H 790.335 -2.28753 -3.18456 0
M  V30 8059 H 791.825 -1.57187 -3.86887 0
M  V30 8060 N 792.262 0.832906 -1.33792 0
M  V30 8061 C 793.508 1.59089 -1.25772 0
M  V30 8062 C 793.841 1.93414 0.174601 0
M  V30 8063 O 793.116 1.59195 1.11746 0
M  V30 8064 C 793.399 2.89699 -2.13885 0
M  V30 8065 C 793.252 2.62017 -3.65605 0
M  V30 8066 C 794.571 3.91182 -2.01654 0
M  V30 8067 H 791.69 0.577232 -0.458227 0
M  V30 8068 H 794.332 0.960227 -1.6395 0
M  V30 8069 H 792.482 3.4352 -1.81456 0
M  V30 8070 H 794.154 2.14582 -4.08353 0
M  V30 8071 H 792.397 1.95621 -3.87189 0
M  V30 8072 H 793.068 3.55112 -4.2261 0
M  V30 8073 H 795.544 3.46684 -2.30107 0
M  V30 8074 H 794.42 4.80391 -2.65548 0
M  V30 8075 H 794.681 4.30861 -0.990536 0
M  V30 8076 N 793.74 1.17359 1.05189 0
M  V30 8077 C 794.69 0.858445 2.11222 0
M  V30 8078 C 795.674 -0.166991 1.60031 0
M  V30 8079 O 796.866 0.0354456 1.76965 0
M  V30 8080 C 793.995 0.373549 3.41262 0
M  V30 8081 C 793.081 1.43041 3.99249 0
M  V30 8082 N 793.472 2.64387 4.312 0
M  V30 8083 C 791.77 1.28828 4.26989 0
M  V30 8084 C 792.471 3.32296 4.77446 0
M  V30 8085 N 791.447 2.59674 4.77567 0
M  V30 8086 H 795.249 1.78104 2.33786 0
M  V30 8087 H 792.763 1.0623 1.22837 0
M  V30 8088 H 794.76 0.129331 4.16699 0
M  V30 8089 H 793.42 -0.542847 3.2013 0
M  V30 8090 H 794.431 3.01351 4.21198 0
M  V30 8091 H 791.108 0.43353 4.15243 0
M  V30 8092 H 792.498 4.35939 5.11279 0
M  V30 8093 N 795.218 -1.23913 0.973828 0
M  V30 8094 C 796.443 -1.96735 0.656511 0
M  V30 8095 C 796.868 -1.71682 -0.768571 0
M  V30 8096 O 796.226 -0.984267 -1.52256 0
M  V30 8097 C 796.274 -3.48004 0.944735 0
M  V30 8098 O 795.378 -4.12387 0.0333357 0
M  V30 8099 H 794.719 -0.616119 0.247575 0
M  V30 8100 H 797.249 -1.57525 1.30564 0
M  V30 8101 H 797.259 -3.98424 0.87876 0
M  V30 8102 H 795.934 -3.65567 1.98328 0
M  V30 8103 H 794.511 -3.72585 0.153157 0
M  V30 8104 N 796.696 -0.74468 -1.38897 0
M  V30 8105 C 797.643 -0.111064 -2.30533 0
M  V30 8106 C 798.613 0.719276 -1.49719 0
M  V30 8107 O 799.798 0.677244 -1.78376 0
M  V30 8108 C 796.938 0.78292 -3.36102 0
M  V30 8109 C 796.051 -0.0610817 -4.31957 0
M  V30 8110 C 795.186 0.835075 -5.24595 0
M  V30 8111 C 794.225 -0.0130974 -6.12099 0
M  V30 8112 N 793.362 0.839525 -6.97063 0
M  V30 8113 H 798.202 -0.898113 -2.84144 0
M  V30 8114 H 795.739 -0.454537 -1.39901 0
M  V30 8115 H 797.697 1.31578 -3.95908 0
M  V30 8116 H 796.327 1.53585 -2.83922 0
M  V30 8117 H 795.379 -0.711469 -3.73687 0
M  V30 8118 H 796.691 -0.716482 -4.93627 0
M  V30 8119 H 795.845 1.43542 -5.89475 0
M  V30 8120 H 794.584 1.52423 -4.63269 0
M  V30 8121 H 793.589 -0.626179 -5.46223 0
M  V30 8122 H 794.814 -0.699181 -6.75491 0
M  V30 8123 H 792.76 1.5138 -6.38295 0
M  V30 8124 H 792.677 0.240823 -7.55616 0
M  V30 8125 H 793.945 1.42513 -7.66362 0
M  V30 8126 N 798.174 1.49689 -0.493057 0
M  V30 8127 C 799.122 2.30613 0.303383 0
M  V30 8128 C 800.116 1.38867 0.970165 0
M  V30 8129 O 801.322 1.55956 0.898761 0
M  V30 8130 H 797.697 0.742891 0.116691 0
M  V30 8131 H 799.668 2.95717 -0.39924 0
M  V30 8132 C 798.417 3.20008 1.35978 0
M  V30 8133 H 797.74 3.90526 0.856103 0
M  V30 8134 H 799.18 3.79586 1.88919 0
M  V30 8135 C 797.639 2.39079 2.37367 0
M  V30 8136 O 798.169 2.08933 3.43089 0
M  V30 8137 N 796.375 2.0125 2.09635 0
M  V30 8138 H 795.922 2.25966 1.23682 0
M  V30 8139 H 795.88 1.47408 2.77702 0
M  V30 8140 N 799.652 0.226554 1.55963 0
M  V30 8141 C 800.899 -0.403789 1.98433 0
M  V30 8142 C 801.227 -1.59416 1.1143 0
M  V30 8143 O 800.482 -1.95042 0.160389 0
M  V30 8144 C 800.781 -0.87642 3.46488 0
M  V30 8145 C 800.447 0.203973 4.50438 0
M  V30 8146 C 799.109 0.500754 4.78587 0
M  V30 8147 C 801.461 0.934396 5.12756 0
M  V30 8148 C 798.789 1.53239 5.66334 0
M  V30 8149 C 801.141 1.9554 6.0162 0
M  V30 8150 C 799.805 2.25905 6.28111 0
M  V30 8151 H 799.075 -0.147757 0.726119 0
M  V30 8152 H 801.722 0.330121 1.88633 0
M  V30 8153 H 800.027 -1.68918 3.53517 0
M  V30 8154 H 801.724 -1.37407 3.76723 0
M  V30 8155 H 798.314 -0.0374917 4.28584 0
M  V30 8156 H 802.498 0.718355 4.91074 0
M  V30 8157 H 797.754 1.77321 5.85122 0
M  V30 8158 H 801.928 2.52642 6.48957 0
M  V30 8159 H 799.555 3.05985 6.959 0
M  V30 8160 N 801.13 -1.57531 -0.0467866 0
M  V30 8161 C 802.541 -1.76945 -0.595603 0
M  V30 8162 C 802.892 -0.855354 -1.76573 0
M  V30 8163 O 802.017 -0.045668 -2.16352 0
M  V30 8164 C 802.612 -3.20881 -1.08725 0
M  V30 8165 C 801.171 -3.41553 -1.58172 0
M  V30 8166 C 800.318 -2.72533 -0.511968 0
M  V30 8167 H 803.269 -1.57682 0.179436 0
M  V30 8168 H 803.29 -3.26419 -1.95528 0
M  V30 8169 H 802.802 -3.87385 -0.235398 0
M  V30 8170 H 800.903 -2.80199 -2.456 0
M  V30 8171 H 801.016 -4.50104 -1.64143 0
M  V30 8172 H 799.38 -2.35797 -0.962899 0
M  V30 8173 H 800.163 -3.41709 0.330117 0
M  V30 8174 N 802.608 0.318715 -1.54344 0
M  V30 8175 C 803.558 1.39364 -1.80448 0
M  V30 8176 C 804.542 1.46708 -0.660728 0
M  V30 8177 O 805.734 1.51159 -0.920869 0
M  V30 8178 C 802.863 2.76144 -2.03959 0
M  V30 8179 C 801.949 2.73094 -3.24469 0
M  V30 8180 N 802.34 2.39663 -4.45416 0
M  V30 8181 C 800.638 3.04218 -3.2614 0
M  V30 8182 C 801.339 2.45469 -5.27371 0
M  V30 8183 N 800.315 2.82107 -4.64668 0
M  V30 8184 H 804.117 1.12453 -2.71535 0
M  V30 8185 H 801.631 0.527221 -1.53604 0
M  V30 8186 H 803.628 3.53627 -2.20802 0
M  V30 8187 H 802.288 3.03982 -1.14129 0
M  V30 8188 H 803.299 2.12424 -4.72331 0
M  V30 8189 H 799.976 3.37066 -2.4636 0
M  V30 8190 H 801.366 2.22571 -6.33965 0
M  V30 8191 N 804.086 1.46499 0.581025 0
M  V30 8192 C 805.335 1.51162 1.3354 0
M  V30 8193 C 805.648 0.168433 1.94873 0
M  V30 8194 O 806.854 0.092883 2.71341 0
M  V30 8195 C 805.31 2.66362 2.42032 0
M  V30 8196 C 804.918 4.07109 1.86994 0
M  V30 8197 C 806.662 2.80297 3.188 0
M  V30 8198 C 804.569 5.13645 2.93125 0
M  V30 8199 H 803.499 0.562576 0.502021 0
M  V30 8200 H 806.15 1.72713 0.619863 0
M  V30 8201 H 804.532 2.38143 3.16392 0
M  V30 8202 H 805.706 4.45125 1.19166 0
M  V30 8203 H 804.021 3.97854 1.22887 0
M  V30 8204 H 806.618 3.5706 3.9801 0
M  V30 8205 H 806.961 1.87875 3.71495 0
M  V30 8206 H 807.494 3.0817 2.51547 0
M  V30 8207 H 804.233 6.07866 2.45315 0
M  V30 8208 H 803.753 4.80172 3.59437 0
M  V30 8209 H 805.432 5.39562 3.57046 0
M  V30 8210 N 805.565 -0.825799 1.34232 0
M  V30 8211 C 806.805 -1.59541 1.27773 0
M  V30 8212 C 807.169 -1.91405 -0.150998 0
M  V30 8213 O 808.37 -2.66644 -0.339728 0
M  V30 8214 C 806.641 -2.86183 2.14089 0
M  V30 8215 S 808.2 -3.76751 2.24953 0
M  V30 8216 H 805.018 -0.546871 0.454371 0
M  V30 8217 H 807.62 -0.975677 1.69413 0
M  V30 8218 H 806.324 -2.60767 3.16905 0
M  V30 8219 H 805.855 -3.53155 1.73335 0
M  V30 8220 H 807.87 -4.75442 1.4202 0
M  V30 8221 N 807.043 -1.17915 -1.04565 0
M  V30 8222 C 808.289 -0.972863 -1.77942 0
M  V30 8223 C 808.622 0.496753 -1.87739 0
M  V30 8224 O 807.897 1.3688 -1.38181 0
M  V30 8225 C 808.18 -1.62227 -3.21488 0
M  V30 8226 C 808.033 -3.16441 -3.19664 0
M  V30 8227 C 809.352 -1.33137 -4.19479 0
M  V30 8228 H 806.471 -0.354843 -0.645953 0
M  V30 8229 H 809.113 -1.45508 -1.22178 0
M  V30 8230 H 807.263 -1.21224 -3.69103 0
M  V30 8231 H 808.935 -3.66544 -2.80077 0
M  V30 8232 H 807.178 -3.48863 -2.57832 0
M  V30 8233 H 807.849 -3.57012 -4.21006 0
M  V30 8234 H 810.325 -1.68654 -3.80388 0
M  V30 8235 H 809.201 -1.81151 -5.18146 0
M  V30 8236 H 809.462 -0.253319 -4.41374 0
M  V30 8237 N 808.521 1.23394 -0.980386 0
M  V30 8238 C 809.431 2.28561 -0.528864 0
M  V30 8239 C 810.447 1.68946 0.416329 0
M  V30 8240 O 811.623 1.99355 0.286251 0
M  V30 8241 C 808.688 3.46323 0.16155 0
M  V30 8242 C 807.749 4.21297 -0.825044 0
M  V30 8243 C 806.982 5.33437 -0.167483 0
M  V30 8244 O 807.205 5.60812 1.04146 0
M  V30 8245 O 806.139 5.95637 -0.866047 0
M  V30 8246 H 809.965 2.69326 -1.40346 0
M  V30 8247 H 807.55 1.29325 -0.748019 0
M  V30 8248 H 809.432 4.17811 0.548841 0
M  V30 8249 H 808.107 3.0751 1.01092 0
M  V30 8250 H 807.014 3.52134 -1.26303 0
M  V30 8251 H 808.347 4.6396 -1.64322 0
M  V30 8252 N 809.999 0.752036 1.385 0
M  V30 8253 C 811.239 0.312408 2.01998 0
M  V30 8254 C 811.603 -1.085 1.58404 0
M  V30 8255 O 812.804 -1.62365 2.14222 0
M  V30 8256 C 811.075 0.429423 3.54811 0
M  V30 8257 S 812.634 0.0721487 4.38741 0
M  V30 8258 H 809.452 0.1213 0.700576 0
M  V30 8259 H 812.054 0.982312 1.69029 0
M  V30 8260 H 810.758 1.44743 3.84028 0
M  V30 8261 H 810.289 -0.257716 3.92555 0
M  V30 8262 H 812.304 -1.13875 4.82957 0
M  V30 8263 N 811.477 -1.49425 0.500989 0
M  V30 8264 C 812.725 -2.02053 -0.0434495 0
M  V30 8265 C 813.046 -1.38285 -1.37486 0
M  V30 8266 O 812.316 -0.538171 -1.88363 0
M  V30 8267 H 810.896 -0.746757 -0.0190469 0
M  V30 8268 H 813.558 -1.83449 0.658227 0
M  V30 8269 H 812.654 -3.11619 -0.173129 0
M  V30 8270 N 812.955 -0.234822 -1.55841 0
M  V30 8271 C 813.902 0.6698 -2.20867 0
M  V30 8272 C 814.872 1.18042 -1.16856 0
M  V30 8273 O 816.057 1.23709 -1.45261 0
M  V30 8274 C 813.197 1.86646 -2.90271 0
M  V30 8275 C 812.31 1.39351 -4.08908 0
M  V30 8276 C 811.445 2.54878 -4.66059 0
M  V30 8277 C 810.484 2.04384 -5.76969 0
M  V30 8278 N 809.621 3.13233 -6.28355 0
M  V30 8279 H 814.461 0.10858 -2.97802 0
M  V30 8280 H 811.998 0.041836 -1.4704 0
M  V30 8281 H 813.956 2.56926 -3.28702 0
M  V30 8282 H 812.586 2.40035 -2.15831 0
M  V30 8283 H 811.638 0.585173 -3.75872 0
M  V30 8284 H 812.95 0.983356 -4.89011 0
M  V30 8285 H 812.104 3.33219 -5.07001 0
M  V30 8286 H 810.843 2.99188 -3.85146 0
M  V30 8287 H 809.848 1.24509 -5.35516 0
M  V30 8288 H 811.073 1.61057 -6.59725 0
M  V30 8289 H 809.019 3.57 -5.50352 0
M  V30 8290 H 808.936 2.76511 -7.03618 0
M  V30 8291 H 810.204 3.91669 -6.73955 0
M  V30 8292 N 814.433 1.57553 0.0384317 0
M  V30 8293 C 815.681 1.88468 0.729672 0
M  V30 8294 C 816.002 0.831302 1.76393 0
M  V30 8295 O 815.272 -0.13622 1.95426 0
M  V30 8296 H 813.852 0.695529 0.272485 0
M  V30 8297 H 816.514 1.94899 0.0066032 0
M  V30 8298 H 815.61 2.8705 1.22511 0
M  V30 8299 N 815.911 -0.310526 1.54511 0
M  V30 8300 C 817.158 -1.04691 1.73338 0
M  V30 8301 C 817.486 -1.87584 0.514038 0
M  V30 8302 O 816.741 -1.89096 -0.504119 0
M  V30 8303 C 817.04 -1.98942 2.96912 0
M  V30 8304 C 816.706 -1.321 4.31115 0
M  V30 8305 C 815.368 -1.13603 4.67598 0
M  V30 8306 C 817.72 -0.842362 5.14348 0
M  V30 8307 C 815.048 -0.459102 5.84901 0
M  V30 8308 C 817.4 -0.179202 6.32346 0
M  V30 8309 C 816.064 0.0178111 6.67498 0
M  V30 8310 H 815.334 -0.38309 0.634289 0
M  V30 8311 H 817.981 -0.322723 1.88761 0
M  V30 8312 H 816.286 -2.77856 2.76231 0
M  V30 8313 H 817.983 -2.55972 3.08674 0
M  V30 8314 H 814.573 -1.47502 4.02419 0
M  V30 8315 H 818.757 -0.973013 4.86668 0
M  V30 8316 H 814.013 -0.295385 6.10686 0
M  V30 8317 H 818.187 0.199619 6.96114 0
M  V30 8318 H 815.814 0.544356 7.58249 0
M  V30 8319 N 817.389 -1.46805 -0.573248 0
M  V30 8320 C 818.805 -1.31969 -0.897577 0
M  V30 8321 C 819.005 -0.298171 -1.99282 0
M  V30 8322 O 818.061 0.295953 -2.5076 0
M  V30 8323 C 819.374 -2.70859 -1.30598 0
M  V30 8324 C 820.922 -2.79022 -1.4183 0
M  V30 8325 C 821.397 -4.18516 -1.86033 0
M  V30 8326 N 822.888 -4.2098 -1.9321 0
M  V30 8327 C 823.623 -5.25814 -2.28707 0
M  V30 8328 N 823.119 -6.40968 -2.6293 0
M  V30 8329 N 824.912 -5.13184 -2.29343 0
M  V30 8330 H 817.063 -2.11869 0.150094 0
M  V30 8331 H 819.326 -0.947989 0.00447895 0
M  V30 8332 H 819.032 -3.46965 -0.575161 0
M  V30 8333 H 818.906 -3.01585 -2.26554 0
M  V30 8334 H 821.293 -2.03198 -2.13996 0
M  V30 8335 H 821.374 -2.51969 -0.441024 0
M  V30 8336 H 821.018 -4.94839 -1.14442 0
M  V30 8337 H 820.948 -4.42982 -2.84735 0
M  V30 8338 H 823.439 -3.37898 -1.69214 0
M  V30 8339 H 823.752 -7.16729 -2.88996 0
M  V30 8340 H 822.097 -6.44314 -2.60547 0
M  V30 8341 H 825.288 -4.22255 -2.02036 0
M  V30 8342 H 825.461 -5.94996 -2.56679 0
M  V30 8343 N 818.867 0.818669 -1.34668 0
M  V30 8344 C 819.817 1.91882 -1.23147 0
M  V30 8345 C 820.801 1.60378 -0.129509 0
M  V30 8346 O 821.993 1.73309 -0.359581 0
M  V30 8347 C 819.122 3.28612 -0.993436 0
M  V30 8348 C 818.208 3.66221 -2.13876 0
M  V30 8349 N 818.599 3.75361 -3.39024 0
M  V30 8350 C 816.897 3.96098 -2.04994 0
M  V30 8351 C 817.598 4.0836 -4.14266 0
M  V30 8352 N 816.574 4.21806 -3.429 0
M  V30 8353 H 820.376 1.97133 -2.17981 0
M  V30 8354 H 817.89 1.01257 -1.26967 0
M  V30 8355 H 819.887 4.0725 -0.891797 0
M  V30 8356 H 818.547 3.24655 -0.053824 0
M  V30 8357 H 819.558 3.58747 -3.73525 0
M  V30 8358 H 816.235 4.00236 -1.18816 0
M  V30 8359 H 817.625 4.226 -5.22359 0
M  V30 8360 N 820.346 1.18468 1.03938 0
M  V30 8361 C 821.757 0.984808 1.58614 0
M  V30 8362 C 822.108 -0.465165 1.90606 0
M  V30 8363 O 821.233 -1.34274 1.69704 0
M  V30 8364 C 821.828 1.78135 2.8819 0
M  V30 8365 C 820.387 1.62579 3.39478 0
M  V30 8366 C 819.534 1.77501 2.13046 0
M  V30 8367 H 822.485 1.32993 0.865944 0
M  V30 8368 H 822.506 1.27119 3.58638 0
M  V30 8369 H 822.018 2.83661 2.64874 0
M  V30 8370 H 820.119 0.59595 3.67803 0
M  V30 8371 H 820.232 2.42463 4.13217 0
M  V30 8372 H 818.596 1.2046 2.24414 0
M  V30 8373 H 819.379 2.84464 1.92185 0
M  V30 8374 N 821.824 -1.22873 0.986916 0
M  V30 8375 C 823.049 -1.96028 0.677341 0
M  V30 8376 C 823.474 -1.72487 -0.750319 0
M  V30 8377 O 822.832 -1.00036 -1.51203 0
M  V30 8378 C 822.88 -3.46983 0.981593 0
M  V30 8379 O 821.984 -4.12328 0.0770729 0
M  V30 8380 H 821.325 -0.613458 0.254096 0
M  V30 8381 H 823.855 -1.56132 1.32227 0
M  V30 8382 H 823.865 -3.9747 0.920969 0
M  V30 8383 H 822.54 -3.63442 2.02194 0
M  V30 8384 H 821.117 -3.72402 0.192666 0
M  V30 8385 N 823.302 -0.75937 -1.38099 0
M  V30 8386 C 824.212 -0.13774 -2.34195 0
M  V30 8387 C 825.228 0.693985 -1.59561 0
M  V30 8388 O 826.404 0.616792 -1.91723 0
M  V30 8389 C 823.469 0.740535 -3.38699 0
M  V30 8390 C 822.53 -0.106225 -4.29169 0
M  V30 8391 C 821.763 0.730225 -5.28681 0
M  V30 8392 O 821.986 1.96796 -5.35376 0
M  V30 8393 O 820.92 0.145969 -6.01723 0
M  V30 8394 H 824.746 -0.931512 -2.89061 0
M  V30 8395 H 822.331 -0.520345 -1.40046 0
M  V30 8396 H 824.213 1.24232 -4.02672 0
M  V30 8397 H 822.888 1.51271 -2.8618 0
M  V30 8398 H 821.795 -0.654088 -3.68337 0
M  V30 8399 H 823.128 -0.841186 -4.84959 0
M  V30 8400 N 824.78 1.49157 -0.508906 0
M  V30 8401 C 825.71 2.32109 0.254469 0
M  V30 8402 C 826.691 1.40754 0.955111 0
M  V30 8403 O 827.876 1.69658 0.944983 0
M  V30 8404 C 825.006 3.21458 1.3146 0
M  V30 8405 C 823.96 4.2167 0.733368 0
M  V30 8406 C 823.286 5.00009 1.8946 0
M  V30 8407 C 824.586 5.21544 -0.280875 0
M  V30 8408 H 826.28 2.9618 -0.43795 0
M  V30 8409 H 823.826 1.4243 -0.212062 0
M  V30 8410 H 825.779 3.78305 1.85643 0
M  V30 8411 H 824.503 2.55346 2.03632 0
M  V30 8412 H 823.162 3.65979 0.213231 0
M  V30 8413 H 822.81 4.30338 2.60419 0
M  V30 8414 H 822.51 5.67821 1.51173 0
M  V30 8415 H 824.034 5.59702 2.44061 0
M  V30 8416 H 825.448 5.73039 0.173095 0
M  V30 8417 H 823.845 5.97291 -0.580006 0
M  V30 8418 H 824.915 4.69969 -1.19404 0
M  V30 8419 N 826.258 0.243083 1.55714 0
M  V30 8420 C 827.674 -0.111853 1.59208 0
M  V30 8421 C 827.874 -1.5723 1.2602 0
M  V30 8422 O 826.93 -2.31608 1.00569 0
M  V30 8423 C 828.243 0.233885 2.99789 0
M  V30 8424 C 829.791 0.177873 3.12494 0
M  V30 8425 C 830.266 0.49759 4.55289 0
M  V30 8426 N 831.757 0.447949 4.61029 0
M  V30 8427 C 832.492 0.668545 5.69489 0
M  V30 8428 N 831.988 0.952064 6.86227 0
M  V30 8429 N 833.781 0.599512 5.58894 0
M  V30 8430 H 825.932 1.19554 1.75558 0
M  V30 8431 H 828.195 0.480765 0.817049 0
M  V30 8432 H 827.901 1.24835 3.28799 0
M  V30 8433 H 827.775 -0.440846 3.74615 0
M  V30 8434 H 830.162 -0.827263 2.83267 0
M  V30 8435 H 830.243 0.886399 2.39951 0
M  V30 8436 H 829.887 1.50026 4.85237 0
M  V30 8437 H 829.817 -0.232371 5.26087 0
M  V30 8438 H 832.308 0.237388 3.77154 0
M  V30 8439 H 832.621 1.10791 7.64817 0
M  V30 8440 H 830.966 0.989496 6.8792 0
M  V30 8441 H 834.157 0.378088 4.66571 0
M  V30 8442 H 834.33 0.774828 6.43351 0
M  V30 8443 N 827.736 -1.57571 -0.0300757 0
M  V30 8444 C 828.683 -2.06492 -1.03101 0
M  V30 8445 C 829.653 -0.953862 -1.3598 0
M  V30 8446 O 830.838 -1.22436 -1.46335 0
M  V30 8447 C 827.978 -2.54826 -2.32718 0
M  V30 8448 C 827.091 -3.79718 -2.06006 0
M  V30 8449 C 826.226 -4.16668 -3.29487 0
M  V30 8450 C 825.265 -5.3448 -2.98324 0
M  V30 8451 N 824.402 -5.66867 -4.14254 0
M  V30 8452 H 829.242 -2.91755 -0.606877 0
M  V30 8453 H 826.779 -1.44252 -0.288038 0
M  V30 8454 H 828.737 -2.80916 -3.08451 0
M  V30 8455 H 827.367 -1.72481 -2.72856 0
M  V30 8456 H 826.419 -3.60718 -1.20774 0
M  V30 8457 H 827.731 -4.65569 -1.79017 0
M  V30 8458 H 826.885 -4.43881 -4.13588 0
M  V30 8459 H 825.624 -3.29466 -3.59588 0
M  V30 8460 H 824.629 -5.07021 -2.12625 0
M  V30 8461 H 825.854 -6.23334 -2.69502 0
M  V30 8462 H 823.8 -4.82625 -4.44308 0
M  V30 8463 H 823.717 -6.47226 -3.90685 0
M  V30 8464 H 824.985 -5.98656 -4.99231 0
M  V30 8465 N 829.214 0.302327 -1.54673 0
M  V30 8466 C 830.164 1.37443 -1.81916 0
M  V30 8467 C 831.148 1.45999 -0.676251 0
M  V30 8468 O 832.34 1.50174 -0.93685 0
M  V30 8469 C 829.469 2.73966 -2.06876 0
M  V30 8470 C 828.555 2.69637 -3.27348 0
M  V30 8471 N 828.946 2.34926 -4.47933 0
M  V30 8472 C 827.244 3.00742 -3.29348 0
M  V30 8473 C 827.945 2.39862 -5.29944 0
M  V30 8474 N 826.921 2.77163 -4.67634 0
M  V30 8475 H 830.723 1.09567 -2.72713 0
M  V30 8476 H 828.237 0.5109 -1.54154 0
M  V30 8477 H 830.234 3.51265 -2.2454 0
M  V30 8478 H 828.894 3.02754 -1.17346 0
M  V30 8479 H 829.905 2.07403 -4.74557 0
M  V30 8480 H 826.582 3.34434 -2.49921 0
M  V30 8481 H 827.972 2.15835 -6.3629 0
M  V30 8482 N 830.692 1.47107 0.565454 0
M  V30 8483 C 831.625 1.53505 1.68853 0
M  V30 8484 C 832.603 0.387806 1.57908 0
M  V30 8485 O 833.787 0.594433 1.78882 0
M  V30 8486 C 830.914 1.42985 3.07039 0
M  V30 8487 C 829.96 2.62109 3.36454 0
M  V30 8488 S 830.793 4.2436 3.26617 0
M  V30 8489 C 831.949 4.16378 4.67312 0
M  V30 8490 H 832.182 2.48522 1.63169 0
M  V30 8491 H 829.715 1.35204 0.745609 0
M  V30 8492 H 831.673 1.37602 3.8675 0
M  V30 8493 H 830.334 0.493671 3.10196 0
M  V30 8494 H 829.527 2.50788 4.37174 0
M  V30 8495 H 829.129 2.64571 2.64345 0
M  V30 8496 H 831.421 3.84123 5.58082 0
M  V30 8497 H 832.364 5.17156 4.83689 0
M  V30 8498 H 832.772 3.47363 4.44971 0
M  V30 8499 N 832.17 -0.811516 1.35101 0
M  V30 8500 C 833.586 -1.10634 1.15031 0
M  V30 8501 C 833.786 -2.01459 -0.0405379 0
M  V30 8502 O 832.842 -2.42235 -0.712635 0
M  V30 8503 C 834.155 -1.74207 2.45097 0
M  V30 8504 C 835.703 -1.8665 2.51258 0
M  V30 8505 C 836.178 -2.53638 3.81355 0
M  V30 8506 N 837.669 -2.61128 3.82579 0
M  V30 8507 C 838.404 -3.13717 4.79968 0
M  V30 8508 N 837.9 -3.66782 5.87744 0
M  V30 8509 N 839.693 -3.12224 4.67411 0
M  V30 8510 H 831.844 -0.207641 2.11383 0
M  V30 8511 H 834.107 -0.154697 0.935293 0
M  V30 8512 H 833.813 -1.14936 3.32389 0
M  V30 8513 H 833.687 -2.73958 2.59281 0
M  V30 8514 H 836.074 -2.45066 1.64398 0
M  V30 8515 H 836.155 -0.857678 2.40993 0
M  V30 8516 H 835.799 -1.95873 4.68611 0
M  V30 8517 H 835.729 -3.55047 3.88907 0
M  V30 8518 H 838.22 -2.23527 3.04703 0
M  V30 8519 H 838.533 -4.05194 6.58056 0
M  V30 8520 H 836.878 -3.64994 5.91443 0
M  V30 8521 H 840.069 -2.70042 3.82354 0
M  V30 8522 H 840.242 -3.52903 5.43474 0
M  V30 8523 N 833.648 -1.19017 -1.03309 0
M  V30 8524 C 834.897 -0.984542 -1.76039 0
M  V30 8525 C 835.21 0.485937 -1.89468 0
M  V30 8526 O 836.416 0.810278 -2.59127 0
M  V30 8527 C 834.872 -1.71261 -3.1654 0
M  V30 8528 C 834.48 -3.22291 -3.11179 0
M  V30 8529 C 836.224 -1.59007 -3.93595 0
M  V30 8530 C 834.131 -3.87704 -4.46587 0
M  V30 8531 H 833.061 -0.364749 -0.659905 0
M  V30 8532 H 835.712 -1.4247 -1.15649 0
M  V30 8533 H 834.094 -1.20025 -3.77373 0
M  V30 8534 H 835.268 -3.80611 -2.59753 0
M  V30 8535 H 833.583 -3.34772 -2.47622 0
M  V30 8536 H 836.18 -2.05232 -4.93745 0
M  V30 8537 H 836.523 -0.543534 -4.12736 0
M  V30 8538 H 837.056 -2.07564 -3.39355 0
M  V30 8539 H 833.795 -4.92437 -4.3265 0
M  V30 8540 H 833.315 -3.34172 -4.98085 0
M  V30 8541 H 834.994 -3.91008 -5.15482 0
M  V30 8542 N 835.127 1.22348 -0.993418 0
M  V30 8543 C 836.077 2.221 -0.515333 0
M  V30 8544 C 837.061 1.55409 0.416762 0
M  V30 8545 O 838.253 1.75317 0.243497 0
M  V30 8546 C 835.382 3.42888 0.168173 0
M  V30 8547 C 834.468 4.16786 -0.784257 0
M  V30 8548 N 834.859 4.67435 -1.93231 0
M  V30 8549 C 833.157 4.41942 -0.600243 0
M  V30 8550 C 833.858 5.23792 -2.53016 0
M  V30 8551 N 832.834 5.12483 -1.8128 0
M  V30 8552 H 836.636 2.58902 -1.39093 0
M  V30 8553 H 834.15 1.38024 -0.855747 0
M  V30 8554 H 836.147 4.13542 0.528069 0
M  V30 8555 H 834.807 3.07598 1.03989 0
M  V30 8556 H 835.818 4.63375 -2.31309 0
M  V30 8557 H 832.495 4.16891 0.225369 0
M  V30 8558 H 833.885 5.73515 -3.50043 0
M  V30 8559 N 836.605 0.766683 1.37694 0
M  V30 8560 C 837.833 0.339939 2.04088 0
M  V30 8561 C 838.248 -1.03617 1.57826 0
M  V30 8562 O 837.605 -1.6605 0.757214 0
M  V30 8563 C 837.656 0.368269 3.59619 0
M  V30 8564 O 837.377 1.69009 4.04188 0
M  V30 8565 C 838.878 -0.0707053 4.43244 0
M  V30 8566 H 836.098 0.143189 0.655544 0
M  V30 8567 H 838.642 1.03919 1.76128 0
M  V30 8568 H 836.797 -0.282359 3.8637 0
M  V30 8569 H 837.211 1.62523 4.98685 0
M  V30 8570 H 838.685 0.000273538 5.52 0
M  V30 8571 H 839.162 -1.1204 4.24669 0
M  V30 8572 H 839.768 0.551543 4.21709 0
M  V30 8573 N 838.083 -1.48885 0.516809 0
M  V30 8574 C 839.331 -2.02088 -0.0220166 0
M  V30 8575 C 839.652 -1.39735 -1.36011 0
M  V30 8576 O 838.922 -0.558119 -1.87781 0
M  V30 8577 H 837.502 -0.746917 -0.0111255 0
M  V30 8578 H 840.164 -1.8274 0.677647 0
M  V30 8579 H 839.26 -3.11786 -0.140067 0
M  V30 8580 N 839.561 -0.251338 -1.55583 0
M  V30 8581 C 840.471 0.656978 -2.25213 0
M  V30 8582 C 841.487 1.18966 -1.26977 0
M  V30 8583 O 842.663 1.22499 -1.59862 0
M  V30 8584 C 839.728 1.83527 -2.94141 0
M  V30 8585 C 838.789 1.34162 -4.07798 0
M  V30 8586 C 838.022 2.46375 -4.73429 0
M  V30 8587 O 838.245 3.65205 -4.38157 0
M  V30 8588 O 837.179 2.15881 -5.61853 0
M  V30 8589 H 841.005 0.0936395 -3.03556 0
M  V30 8590 H 838.59 -0.0196638 -1.49387 0
M  V30 8591 H 840.472 2.52279 -3.3754 0
M  V30 8592 H 839.147 2.38614 -2.18735 0
M  V30 8593 H 838.054 0.621249 -3.68906 0
M  V30 8594 H 839.387 0.836779 -4.85035 0
M  V30 8595 N 841.039 1.57585 0.0217189 0
M  V30 8596 C 841.986 2.07036 1.02004 0
M  V30 8597 C 842.956 0.96106 1.35473 0
M  V30 8598 O 844.141 1.23211 1.45684 0
M  V30 8599 C 841.281 2.56056 2.31364 0
M  V30 8600 C 840.394 3.80805 2.03989 0
M  V30 8601 C 839.529 4.18409 3.27272 0
M  V30 8602 C 838.568 5.36055 2.95486 0
M  V30 8603 N 837.705 5.69056 4.11242 0
M  V30 8604 H 842.545 2.92073 0.591396 0
M  V30 8605 H 840.082 1.44403 0.280384 0
M  V30 8606 H 842.04 2.82548 3.06957 0
M  V30 8607 H 840.67 1.73925 2.71937 0
M  V30 8608 H 839.722 3.61354 1.1886 0
M  V30 8609 H 841.034 4.66512 1.76546 0
M  V30 8610 H 840.188 4.46068 4.11228 0
M  V30 8611 H 838.927 3.31369 3.57835 0
M  V30 8612 H 837.932 5.08142 2.09933 0
M  V30 8613 H 839.157 6.24755 2.66193 0
M  V30 8614 H 837.103 4.84974 4.41742 0
M  V30 8615 H 837.02 6.49288 3.87247 0
M  V30 8616 H 838.288 6.01295 4.96049 0
M  V30 8617 N 842.517 -0.29412 1.54831 0
M  V30 8618 C 843.928 -0.866651 1.65366 0
M  V30 8619 C 844.279 -1.87834 0.56681 0
M  V30 8620 O 843.404 -2.14374 -0.295389 0
M  V30 8621 C 843.999 -1.57869 2.99771 0
M  V30 8622 C 842.558 -2.09954 3.12404 0
M  V30 8623 C 841.705 -0.934492 2.6108 0
M  V30 8624 H 844.656 -0.0709551 1.58541 0
M  V30 8625 H 844.677 -2.44462 2.91579 0
M  V30 8626 H 844.189 -0.84212 3.78853 0
M  V30 8627 H 842.29 -2.86637 2.38055 0
M  V30 8628 H 842.403 -2.32934 4.18663 0
M  V30 8629 H 840.767 -1.32199 2.17705 0
M  V30 8630 H 841.55 -0.211768 3.42646 0
M  V30 8631 N 843.995 -1.47404 -0.557645 0
M  V30 8632 C 845.225 -1.57393 -1.33832 0
M  V30 8633 C 845.633 -0.222978 -1.87881 0
M  V30 8634 O 844.976 0.793854 -1.65661 0
M  V30 8635 C 845.038 -2.53882 -2.54528 0
M  V30 8636 C 844.702 -3.99585 -2.21767 0
M  V30 8637 C 845.699 -4.88082 -1.79087 0
M  V30 8638 C 843.384 -4.44917 -2.3314 0
M  V30 8639 C 845.378 -6.1993 -1.48209 0
M  V30 8640 C 843.065 -5.76793 -2.01874 0
M  V30 8641 C 844.063 -6.64121 -1.59476 0
M  V30 8642 O 843.751 -7.93546 -1.28607 0
M  V30 8643 H 843.483 -0.534172 -0.41429 0
M  V30 8644 H 846.037 -1.93733 -0.682404 0
M  V30 8645 H 844.267 -2.12609 -3.23009 0
M  V30 8646 H 845.956 -2.54003 -3.16603 0
M  V30 8647 H 846.722 -4.54307 -1.69794 0
M  V30 8648 H 842.601 -3.77152 -2.65099 0
M  V30 8649 H 846.145 -6.88049 -1.15043 0
M  V30 8650 H 842.042 -6.1011 -2.10799 0
M  V30 8651 H 842.81 -8.06046 -1.42241 0
M  V30 8652 N 845.473 0.80434 -1.35529 0
M  V30 8653 C 846.405 1.92445 -1.2449 0
M  V30 8654 C 847.418 1.61934 -0.167685 0
M  V30 8655 O 848.607 1.73461 -0.42115 0
M  V30 8656 C 845.707 3.26875 -0.894751 0
M  V30 8657 C 844.88 3.85275 -2.07079 0
M  V30 8658 C 843.939 4.98116 -1.69607 0
M  V30 8659 O 842.965 5.15424 -2.41509 0
M  V30 8660 N 844.167 5.77169 -0.621012 0
M  V30 8661 H 846.932 2.02441 -2.20993 0
M  V30 8662 H 844.493 0.981874 -1.28728 0
M  V30 8663 H 846.485 3.99837 -0.625511 0
M  V30 8664 H 845.055 3.12594 -0.0193306 0
M  V30 8665 H 844.275 3.0448 -2.5037 0
M  V30 8666 H 845.563 4.21024 -2.85685 0
M  V30 8667 H 844.961 5.65695 -0.0236679 0
M  V30 8668 H 843.518 6.50499 -0.411558 0
M  V30 8669 N 846.951 1.19563 1.02676 0
M  V30 8670 C 848.191 1.01072 1.77662 0
M  V30 8671 C 848.555 -0.450344 1.86644 0
M  V30 8672 O 849.756 -0.755132 2.57975 0
M  V30 8673 C 848.027 1.66383 3.16309 0
M  V30 8674 S 849.586 1.62858 4.07459 0
M  V30 8675 H 846.404 0.362644 0.611564 0
M  V30 8676 H 849.006 1.51947 1.23014 0
M  V30 8677 H 847.71 2.71917 3.07391 0
M  V30 8678 H 847.241 1.15596 3.76033 0
M  V30 8679 H 849.256 0.654265 4.91868 0
M  V30 8680 N 848.429 -1.21819 0.999893 0
M  V30 8681 C 849.361 -2.23356 0.514256 0
M  V30 8682 C 850.374 -1.5795 -0.394413 0
M  V30 8683 O 851.563 -1.77427 -0.195428 0
M  V30 8684 C 848.663 -3.37797 -0.273207 0
M  V30 8685 C 847.836 -4.32791 0.633293 0
M  V30 8686 C 846.895 -5.26098 -0.103673 0
M  V30 8687 O 845.921 -5.66881 0.513269 0
M  V30 8688 N 847.123 -5.63764 -1.38383 0
M  V30 8689 H 849.888 -2.65653 1.3874 0
M  V30 8690 H 847.449 -1.3619 0.875431 0
M  V30 8691 H 849.441 -3.97209 -0.775053 0
M  V30 8692 H 848.011 -2.94527 -1.0475 0
M  V30 8693 H 847.231 -3.71595 1.31571 0
M  V30 8694 H 848.519 -4.93196 1.25039 0
M  V30 8695 H 847.917 -5.32614 -1.90627 0
M  V30 8696 H 846.474 -6.25562 -1.83073 0
M  V30 8697 N 849.908 -0.773975 -1.37286 0
M  V30 8698 C 851.138 -0.350249 -2.03609 0
M  V30 8699 C 851.546 1.03313 -1.58502 0
M  V30 8700 O 850.889 1.67118 -0.7627 0
M  V30 8701 C 850.951 -0.317215 -3.58098 0
M  V30 8702 C 850.615 -1.64556 -4.26345 0
M  V30 8703 C 851.612 -2.59839 -4.50311 0
M  V30 8704 C 849.297 -1.92061 -4.64131 0
M  V30 8705 C 851.291 -3.80833 -5.11122 0
M  V30 8706 C 848.978 -3.13325 -5.24663 0
M  V30 8707 C 849.976 -4.0753 -5.48095 0
M  V30 8708 O 849.664 -5.26658 -6.0736 0
M  V30 8709 H 849.396 -0.144456 -0.660385 0
M  V30 8710 H 851.95 -1.0496 -1.76557 0
M  V30 8711 H 850.18 0.438528 -3.84205 0
M  V30 8712 H 851.869 0.0797428 -4.05822 0
M  V30 8713 H 852.635 -2.39872 -4.21529 0
M  V30 8714 H 848.514 -1.19562 -4.45226 0
M  V30 8715 H 852.058 -4.54377 -5.29327 0
M  V30 8716 H 847.955 -3.33177 -5.52869 0
M  V30 8717 H 848.723 -5.27513 -6.25837 0
M  V30 8718 N 851.386 1.48609 -0.524698 0
M  V30 8719 C 852.626 2.04398 0.00938367 0
M  V30 8720 C 852.99 1.39355 1.32077 0
M  V30 8721 O 854.191 1.86 1.94055 0
M  V30 8722 C 852.462 3.57148 0.134318 0
M  V30 8723 S 854.021 4.34409 0.619227 0
M  V30 8724 H 850.839 0.710936 -0.00953362 0
M  V30 8725 H 853.441 1.82382 -0.704058 0
M  V30 8726 H 852.145 4.02022 -0.825027 0
M  V30 8727 H 851.676 3.83607 0.872296 0
M  V30 8728 H 853.691 4.59017 1.88462 0
M  V30 8729 N 852.864 0.259585 1.55447 0
M  V30 8730 C 853.774 -0.645026 2.25558 0
M  V30 8731 C 854.79 -1.18291 1.27606 0
M  V30 8732 O 855.966 -1.21649 1.6051 0
M  V30 8733 C 853.031 -1.81964 2.9511 0
M  V30 8734 C 852.092 -1.31997 4.08504 0
M  V30 8735 C 851.325 -2.43861 4.74729 0
M  V30 8736 O 851.548 -3.62876 4.40088 0
M  V30 8737 O 850.482 -2.12898 5.6299 0
M  V30 8738 H 854.308 -0.0775399 3.03601 0
M  V30 8739 H 851.893 0.0275859 1.49375 0
M  V30 8740 H 853.775 -2.50485 3.38873 0
M  V30 8741 H 852.45 -2.37451 2.19997 0
M  V30 8742 H 851.357 -0.601676 3.6923 0
M  V30 8743 H 852.69 -0.811045 4.85472 0
M  V30 8744 N 854.342 -1.57594 -0.0133615 0
M  V30 8745 C 855.572 -1.93969 -0.711295 0
M  V30 8746 C 855.98 -0.859084 -1.68572 0
M  V30 8747 O 855.323 0.171842 -1.82894 0
M  V30 8748 C 855.385 -3.2625 -1.51001 0
M  V30 8749 C 855.049 -4.51628 -0.698645 0
M  V30 8750 C 856.046 -5.19899 0.00791185 0
M  V30 8751 C 853.731 -4.98095 -0.648553 0
M  V30 8752 C 855.725 -6.32928 0.753691 0
M  V30 8753 C 853.412 -6.11017 0.10096 0
M  V30 8754 C 854.41 -6.78289 0.800828 0
M  V30 8755 O 854.098 -7.89048 1.53814 0
M  V30 8756 H 853.83 -0.6445 -0.203951 0
M  V30 8757 H 856.384 -2.05378 0.0298267 0
M  V30 8758 H 854.614 -3.11211 -2.29531 0
M  V30 8759 H 856.303 -3.47835 -2.09202 0
M  V30 8760 H 857.069 -4.84995 -0.0217192 0
M  V30 8761 H 852.948 -4.45568 -1.18282 0
M  V30 8762 H 856.492 -6.85371 1.3005 0
M  V30 8763 H 852.389 -6.45364 0.132459 0
M  V30 8764 H 853.157 -8.05492 1.45345 0
M  V30 8765 N 855.82 0.285905 -1.54985 0
M  V30 8766 C 857.236 0.632405 -1.46536 0
M  V30 8767 C 857.436 1.90074 -0.668888 0
M  V30 8768 O 856.492 2.51839 -0.182586 0
M  V30 8769 C 857.805 0.771361 -2.90638 0
M  V30 8770 C 859.353 0.866262 -3.00774 0
M  V30 8771 C 859.828 1.0371 -4.46103 0
M  V30 8772 N 861.319 1.10294 -4.49877 0
M  V30 8773 C 862.054 1.25369 -5.59527 0
M  V30 8774 N 861.55 1.37246 -6.7907 0
M  V30 8775 N 863.343 1.28377 -5.47244 0
M  V30 8776 H 855.494 -0.547226 -2.0523 0
M  V30 8777 H 857.757 -0.183298 -0.930111 0
M  V30 8778 H 857.463 -0.0899485 -3.51585 0
M  V30 8779 H 857.337 1.65569 -3.3892 0
M  V30 8780 H 859.724 1.71805 -2.39931 0
M  V30 8781 H 859.805 -0.0424049 -2.55765 0
M  V30 8782 H 859.449 0.190021 -5.07544 0
M  V30 8783 H 859.379 1.96022 -4.88757 0
M  V30 8784 H 861.87 1.02407 -3.6376 0
M  V30 8785 H 862.183 1.48546 -7.58389 0
M  V30 8786 H 860.528 1.34274 -6.81906 0
M  V30 8787 H 863.719 1.1872 -4.52795 0
M  V30 8788 H 863.892 1.39782 -6.32744 0
M  V30 8789 N 857.298 1.47698 0.54982 0
M  V30 8790 C 858.523 1.58579 1.33669 0
M  V30 8791 C 858.948 0.239049 1.86575 0
M  V30 8792 O 858.306 -0.786256 1.63364 0
M  V30 8793 C 858.354 2.62029 2.47736 0
M  V30 8794 O 857.458 2.17813 3.50188 0
M  V30 8795 H 856.799 0.532447 0.396732 0
M  V30 8796 H 859.329 1.93536 0.6637 0
M  V30 8797 H 859.339 2.82682 2.94202 0
M  V30 8798 H 858.014 3.59812 2.08586 0
M  V30 8799 H 856.591 2.07291 3.09976 0
M  V30 8800 N 858.776 -0.797141 1.35954 0
M  V30 8801 C 859.739 -1.89104 1.29508 0
M  V30 8802 C 860.739 -1.59495 0.204444 0
M  V30 8803 O 861.929 -1.68051 0.458746 0
M  V30 8804 C 859.061 -3.25726 1.00576 0
M  V30 8805 H 860.254 -1.96237 2.26785 0
M  V30 8806 H 857.807 -0.994075 1.20614 0
M  V30 8807 H 858.542 -3.24279 0.0372519 0
M  V30 8808 H 858.327 -3.48604 1.79492 0
M  V30 8809 H 859.817 -4.0578 0.986508 0
M  V30 8810 N 860.254 -1.20106 -1.0204 0
M  V30 8811 C 861.531 -0.918029 -1.72718 0
M  V30 8812 C 861.911 0.574163 -2.03142 0
M  V30 8813 O 861.259 1.53476 -1.69285 0
M  V30 8814 C 861.469 -1.78698 -2.9978 0
M  V30 8815 C 862.817 -2.02648 -3.7312 0
M  V30 8816 O 863.841 -1.75919 -3.09727 0
M  V30 8817 O 862.7 -2.47767 -4.87107 0
M  V30 8818 H 859.794 -0.342904 -0.752559 0
M  V30 8819 H 862.34 -1.30961 -1.07923 0
M  V30 8820 H 861.112 -2.79757 -2.7359 0
M  V30 8821 H 860.735 -1.39522 -3.72316 0
M  V30 8822 N 861.732 1.21287 -1.00634 0
M  V30 8823 C 862.957 1.94925 -0.708441 0
M  V30 8824 C 863.382 1.73659 0.722783 0
M  V30 8825 O 862.74 1.02429 1.49593 0
M  V30 8826 C 862.788 3.45377 -1.03667 0
M  V30 8827 O 861.892 4.12153 -0.142661 0
M  V30 8828 H 861.233 0.609338 -0.263824 0
M  V30 8829 H 863.763 1.54008 -1.34695 0
M  V30 8830 H 863.773 3.95954 -0.984086 0
M  V30 8831 H 862.448 3.6018 -2.0795 0
M  V30 8832 H 861.025 3.72048 -0.251888 0
M  V30 8833 N 863.21 0.781244 1.36873 0
M  V30 8834 C 864.435 0.360398 2.04245 0
M  V30 8835 C 864.86 -1.01242 1.58529 0
M  V30 8836 O 864.218 -1.65063 0.749936 0
M  V30 8837 C 864.266 0.42329 3.58107 0
M  V30 8838 O 863.37 -0.572796 4.08403 0
M  V30 8839 H 862.711 0.154386 0.645803 0
M  V30 8840 H 865.241 1.06008 1.74996 0
M  V30 8841 H 865.251 0.283967 4.07011 0
M  V30 8842 H 863.926 1.42477 3.90734 0
M  V30 8843 H 862.503 -0.395809 3.70793 0
M  V30 8844 N 864.689 -1.48329 0.532571 0
M  V30 8845 C 865.637 -2.31336 -0.242133 0
M  V30 8846 C 866.631 -1.41391 -0.933006 0
M  V30 8847 O 867.837 -1.58284 -0.857096 0
M  V30 8848 H 864.212 -0.745724 -0.0969536 0
M  V30 8849 H 866.183 -2.94555 0.477504 0
M  V30 8850 C 864.932 -3.23501 -1.27446 0
M  V30 8851 H 864.255 -3.92659 -0.752261 0
M  V30 8852 H 865.695 -3.84461 -1.78789 0
M  V30 8853 C 864.154 -2.45288 -2.30944 0
M  V30 8854 O 864.684 -2.17955 -3.37429 0
M  V30 8855 N 862.89 -2.06737 -2.04226 0
M  V30 8856 H 862.437 -2.29166 -1.17647 0
M  V30 8857 H 862.395 -1.54719 -2.73696 0
M  V30 8858 N 866.167 -0.267825 -1.55308 0
M  V30 8859 C 867.097 0.616585 -2.25212 0
M  V30 8860 C 868.078 1.16472 -1.23969 0
M  V30 8861 O 869.263 1.20021 -1.52672 0
M  V30 8862 C 866.393 1.80412 -2.96764 0
M  V30 8863 C 865.347 1.38784 -4.04874 0
M  V30 8864 C 864.673 2.65789 -4.63961 0
M  V30 8865 C 865.973 0.543415 -5.19465 0
M  V30 8866 H 867.667 0.0336257 -2.99381 0
M  V30 8867 H 865.213 0.0147328 -1.43992 0
M  V30 8868 H 867.166 2.42866 -3.44375 0
M  V30 8869 H 865.89 2.4128 -2.20118 0
M  V30 8870 H 864.549 0.786541 -3.58063 0
M  V30 8871 H 864.197 3.24899 -3.83992 0
M  V30 8872 H 863.897 2.38651 -5.36954 0
M  V30 8873 H 865.421 3.29104 -5.14318 0
M  V30 8874 H 866.835 1.07277 -5.63174 0
M  V30 8875 H 865.232 0.367219 -5.98975 0
M  V30 8876 H 866.302 -0.439534 -4.82904 0
M  V30 8877 N 867.645 1.57599 0.00500368 0
M  V30 8878 C 868.592 2.08106 0.998025 0
M  V30 8879 C 869.562 0.975374 1.34446 0
M  V30 8880 O 870.747 1.24749 1.44369 0
M  V30 8881 C 867.887 2.58496 2.28635 0
M  V30 8882 C 867 3.82947 1.99939 0
M  V30 8883 C 866.135 4.21857 3.22816 0
M  V30 8884 C 865.174 5.39159 2.89783 0
M  V30 8885 N 864.311 5.73386 4.05183 0
M  V30 8886 H 869.151 2.92684 0.560385 0
M  V30 8887 H 866.688 1.44692 0.265053 0
M  V30 8888 H 868.646 2.85787 3.03943 0
M  V30 8889 H 867.276 1.768 2.70077 0
M  V30 8890 H 866.328 3.62594 1.1502 0
M  V30 8891 H 867.64 4.68358 1.71588 0
M  V30 8892 H 866.794 4.50404 4.06474 0
M  V30 8893 H 865.533 3.35145 3.54301 0
M  V30 8894 H 864.538 5.1034 2.04532 0
M  V30 8895 H 865.763 6.27543 2.59551 0
M  V30 8896 H 863.709 4.89632 4.36574 0
M  V30 8897 H 863.626 6.53359 3.80339 0
M  V30 8898 H 864.894 6.06522 4.89644 0
M  V30 8899 N 869.123 -0.277682 1.55134 0
M  V30 8900 C 870.351 -1.02826 1.7954 0
M  V30 8901 C 870.766 -1.80105 0.566373 0
M  V30 8902 O 870.123 -1.76491 -0.464448 0
M  V30 8903 C 870.174 -1.99053 3.01762 0
M  V30 8904 O 869.895 -1.24906 4.19917 0
M  V30 8905 C 871.396 -2.85961 3.38735 0
M  V30 8906 H 868.616 -0.303958 0.598206 0
M  V30 8907 H 871.16 -0.309884 2.02138 0
M  V30 8908 H 869.315 -2.66359 2.81303 0
M  V30 8909 H 869.729 -1.89725 4.88983 0
M  V30 8910 H 871.203 -3.49286 4.27438 0
M  V30 8911 H 871.68 -3.55486 2.57928 0
M  V30 8912 H 872.286 -2.24152 3.61436 0
M  V30 8913 N 870.601 -1.47988 -0.541979 0
M  V30 8914 C 871.551 -1.58019 -1.64359 0
M  V30 8915 C 872.535 -0.438056 -1.54822 0
M  V30 8916 O 873.727 -0.688837 -1.63046 0
M  V30 8917 C 870.856 -1.61182 -3.03109 0
M  V30 8918 C 869.942 -2.80834 -3.17794 0
M  V30 8919 N 870.333 -4.05379 -3.02492 0
M  V30 8920 C 868.631 -2.77914 -3.48826 0
M  V30 8921 C 869.332 -4.85592 -3.20274 0
M  V30 8922 N 868.308 -4.18188 -3.47304 0
M  V30 8923 H 872.11 -2.52071 -1.5112 0
M  V30 8924 H 869.624 -1.44193 -0.747137 0
M  V30 8925 H 871.621 -1.66461 -3.82226 0
M  V30 8926 H 870.281 -0.682375 -3.17449 0
M  V30 8927 H 871.292 -4.36003 -2.79503 0
M  V30 8928 H 867.969 -1.94174 -3.69598 0
M  V30 8929 H 869.359 -5.94394 -3.13282 0
M  V30 8930 N 872.079 0.78992 -1.36375 0
M  V30 8931 C 873.328 1.54296 -1.29906 0
M  V30 8932 C 873.641 1.95234 0.119651 0
M  V30 8933 O 874.847 2.69762 0.306708 0
M  V30 8934 C 873.303 2.78533 -2.27919 0
M  V30 8935 C 872.911 2.44767 -3.75224 0
M  V30 8936 C 874.655 3.56516 -2.30427 0
M  V30 8937 C 872.562 3.65397 -4.65015 0
M  V30 8938 H 871.492 0.579214 -0.482729 0
M  V30 8939 H 874.143 0.866845 -1.61735 0
M  V30 8940 H 872.525 3.47941 -1.89084 0
M  V30 8941 H 873.699 1.83259 -4.22792 0
M  V30 8942 H 872.014 1.79996 -3.75487 0
M  V30 8943 H 874.611 4.46143 -2.94722 0
M  V30 8944 H 874.954 3.95063 -1.31266 0
M  V30 8945 H 875.487 2.94087 -2.67876 0
M  V30 8946 H 872.226 3.31946 -5.65236 0
M  V30 8947 H 871.746 4.26072 -4.22164 0
M  V30 8948 H 873.425 4.32431 -4.81261 0
M  V30 8949 N 873.557 1.20646 1.01402 0
M  V30 8950 C 874.504 0.957618 2.09996 0
M  V30 8951 C 875.474 -0.113115 1.65714 0
M  V30 8952 O 876.659 0.032142 1.90773 0
M  V30 8953 C 873.799 0.5186 3.41181 0
M  V30 8954 C 872.912 1.65777 3.98926 0
M  V30 8955 C 872.047 1.16881 5.18182 0
M  V30 8956 C 871.086 2.2809 5.68015 0
M  V30 8957 N 870.223 1.80392 6.7853 0
M  V30 8958 H 875.063 1.88732 2.30617 0
M  V30 8959 H 872.6 0.940703 1.13089 0
M  V30 8960 H 874.558 0.245367 4.16478 0
M  V30 8961 H 873.188 -0.3741 3.20625 0
M  V30 8962 H 872.24 2.04586 3.207 0
M  V30 8963 H 873.552 2.49507 4.31912 0
M  V30 8964 H 872.706 0.851694 6.00692 0
M  V30 8965 H 871.445 0.301434 4.86768 0
M  V30 8966 H 870.45 2.60614 4.84108 0
M  V30 8967 H 871.675 3.15308 6.01463 0
M  V30 8968 H 869.621 0.959856 6.4894 0
M  V30 8969 H 869.538 2.57701 7.10722 0
M  V30 8970 H 870.806 1.51688 7.64598 0
M  V30 8971 N 875.035 -1.20752 1.01276 0
M  V30 8972 C 876.263 -1.94006 0.718976 0
M  V30 8973 C 876.678 -1.74544 -0.719711 0
M  V30 8974 O 876.035 -1.05697 -1.48776 0
M  V30 8975 C 876.086 -3.46208 1.04031 0
M  V30 8976 O 875.807 -3.65031 2.42248 0
M  V30 8977 C 877.308 -4.36614 0.767032 0
M  V30 8978 H 874.528 -0.616743 0.264327 0
M  V30 8979 H 877.072 -1.53352 1.3529 0
M  V30 8980 H 875.227 -3.84756 0.451852 0
M  V30 8981 H 875.641 -4.59054 2.53712 0
M  V30 8982 H 877.115 -5.42076 1.04198 0
M  V30 8983 H 877.592 -4.38182 -0.298851 0
M  V30 8984 H 878.198 -4.03723 1.33746 0
M  V30 8985 N 876.513 -0.788492 -1.36457 0
M  V30 8986 C 877.46 -0.18435 -2.30063 0
M  V30 8987 C 878.43 0.67128 -1.51931 0
M  V30 8988 O 879.615 0.620152 -1.8044 0
M  V30 8989 C 876.755 0.675596 -3.38422 0
M  V30 8990 C 875.868 -0.198475 -4.31544 0
M  V30 8991 C 875.003 0.667757 -5.26986 0
M  V30 8992 C 874.042 -0.207825 -6.11747 0
M  V30 8993 N 873.179 0.617335 -6.99381 0
M  V30 8994 H 878.019 -0.988056 -2.81143 0
M  V30 8995 H 875.556 -0.498815 -1.38384 0
M  V30 8996 H 877.514 1.18916 -3.99894 0
M  V30 8997 H 876.144 1.44474 -2.88664 0
M  V30 8998 H 875.196 -0.829995 -3.71235 0
M  V30 8999 H 876.508 -0.873163 -4.91098 0
M  V30 9000 H 875.662 1.24716 -5.93743 0
M  V30 9001 H 874.401 1.37607 -4.67884 0
M  V30 9002 H 873.406 -0.799638 -5.43954 0
M  V30 9003 H 874.631 -0.913729 -6.72925 0
M  V30 9004 H 872.577 1.30996 -6.42788 0
M  V30 9005 H 872.494 0.000307255 -7.56 0
M  V30 9006 H 873.762 1.1806 -7.70508 0
M  V30 9007 N 877.991 1.48044 -0.54043 0
M  V30 9008 C 878.941 2.26768 0.236657 0
M  V30 9009 C 879.925 1.33341 0.900505 0
M  V30 9010 O 881.117 1.57809 0.801584 0
M  V30 9011 C 878.246 3.18685 1.27651 0
M  V30 9012 C 877.332 4.19589 0.616923 0
M  V30 9013 N 877.723 5.04889 -0.303377 0
M  V30 9014 C 876.021 4.37375 0.872879 0
M  V30 9015 C 876.722 5.77654 -0.684905 0
M  V30 9016 N 875.698 5.43583 -0.0435728 0
M  V30 9017 H 879.5 2.90098 -0.471183 0
M  V30 9018 H 877.014 1.58378 -0.359183 0
M  V30 9019 H 879.011 3.73752 1.84702 0
M  V30 9020 H 877.671 2.56911 1.98562 0
M  V30 9021 H 878.682 5.13461 -0.676591 0
M  V30 9022 H 875.359 3.86784 1.57177 0
M  V30 9023 H 876.749 6.56285 -1.44015 0
M  V30 9024 N 879.47 0.276058 1.55163 0
M  V30 9025 C 880.695 -0.346648 2.04483 0
M  V30 9026 C 881.12 -1.48613 1.15308 0
M  V30 9027 O 880.478 -1.80663 0.151875 0
M  V30 9028 C 880.526 -0.804268 3.51517 0
M  V30 9029 O 879.63 -1.91143 3.65429 0
M  V30 9030 H 878.971 -0.0715251 0.660136 0
M  V30 9031 H 881.501 0.410631 2.00437 0
M  V30 9032 H 881.511 -1.09977 3.92898 0
M  V30 9033 H 880.186 0.0294123 4.1589 0
M  V30 9034 H 878.763 -1.61839 3.3595 0
M  V30 9035 N 880.948 -1.576 0.00335426 0
M  V30 9036 C 881.895 -2.08632 -0.986975 0
M  V30 9037 C 882.865 -0.982491 -1.33927 0
M  V30 9038 O 884.05 -1.25513 -1.43705 0
M  V30 9039 C 881.19 -2.59705 -2.27261 0
M  V30 9040 C 880.303 -3.84002 -1.97905 0
M  V30 9041 C 879.438 -4.23563 -3.20574 0
M  V30 9042 C 878.477 -5.40688 -2.8692 0
M  V30 9043 N 877.614 -5.75526 -4.02136 0
M  V30 9044 H 882.454 -2.92977 -0.544855 0
M  V30 9045 H 879.991 -1.44831 -0.257376 0
M  V30 9046 H 881.949 -2.87395 -3.02423 0
M  V30 9047 H 880.579 -1.7823 -2.69136 0
M  V30 9048 H 879.631 -3.63199 -1.13096 0
M  V30 9049 H 880.943 -4.69261 -1.69102 0
M  V30 9050 H 880.097 -4.52554 -4.04079 0
M  V30 9051 H 878.836 -3.37019 -3.52518 0
M  V30 9052 H 877.841 -5.11417 -2.01822 0
M  V30 9053 H 879.066 -6.2891 -2.5622 0
M  V30 9054 H 877.012 -4.9194 -4.33971 0
M  V30 9055 H 876.929 -6.55367 -3.76869 0
M  V30 9056 H 878.197 -6.0911 -4.8642 0
M  V30 9057 N 882.426 0.269451 -1.5528 0
M  V30 9058 C 883.336 1.35511 -1.91505 0
M  V30 9059 C 884.352 1.53854 -0.812712 0
M  V30 9060 O 885.528 1.67912 -1.1121 0
M  V30 9061 C 882.593 2.6937 -2.18267 0
M  V30 9062 C 881.654 2.59743 -3.41807 0
M  V30 9063 C 880.887 3.87219 -3.67283 0
M  V30 9064 O 881.11 4.88066 -2.95208 0
M  V30 9065 O 880.044 3.87209 -4.60818 0
M  V30 9066 H 883.87 1.07785 -2.8393 0
M  V30 9067 H 881.455 0.468282 -1.41871 0
M  V30 9068 H 883.337 3.48513 -2.36889 0
M  V30 9069 H 882.012 2.96874 -1.29024 0
M  V30 9070 H 880.919 1.78964 -3.28516 0
M  V30 9071 H 882.252 2.37188 -4.3128 0
M  V30 9072 N 883.904 1.48273 0.534124 0
M  V30 9073 C 884.837 1.57053 1.65559 0
M  V30 9074 C 885.815 0.421213 1.5705 0
M  V30 9075 O 886.999 0.632242 1.77581 0
M  V30 9076 C 884.126 1.49465 3.03937 0
M  V30 9077 C 883.172 2.69186 3.30819 0
M  V30 9078 S 884.005 4.31192 3.17543 0
M  V30 9079 C 885.161 4.26197 4.58375 0
M  V30 9080 H 885.394 2.51927 1.57861 0
M  V30 9081 H 882.927 1.36755 0.716763 0
M  V30 9082 H 884.885 1.45775 3.83745 0
M  V30 9083 H 883.546 0.559357 3.09079 0
M  V30 9084 H 882.739 2.60005 4.31756 0
M  V30 9085 H 882.341 2.70118 2.58674 0
M  V30 9086 H 884.633 3.95874 5.49809 0
M  V30 9087 H 885.576 5.27299 4.72611 0
M  V30 9088 H 885.984 3.56723 4.37503 0
M  V30 9089 N 885.382 -0.782676 1.36792 0
M  V30 9090 C 886.793 -1.35828 1.28092 0
M  V30 9091 C 887.144 -1.96052 -0.076315 0
M  V30 9092 O 886.269 -1.93042 -0.977935 0
M  V30 9093 C 886.864 -2.46949 2.31952 0
M  V30 9094 C 885.423 -3.00307 2.2692 0
M  V30 9095 C 884.57 -1.73436 2.16368 0
M  V30 9096 H 887.521 -0.583788 1.47572 0
M  V30 9097 H 887.542 -3.26144 1.95986 0
M  V30 9098 H 887.054 -2.03087 3.30722 0
M  V30 9099 H 885.155 -3.48571 1.31639 0
M  V30 9100 H 885.268 -3.56663 3.19887 0
M  V30 9101 H 883.632 -1.95934 1.62733 0
M  V30 9102 H 884.415 -1.31693 3.17036 0
M  V30 9103 N 886.86 -1.21182 -1.00761 0
M  V30 9104 C 888.107 -1.02746 -1.74498 0
M  V30 9105 C 888.435 0.439344 -1.89473 0
M  V30 9106 O 887.69 1.34232 -1.42409 0
M  V30 9107 C 887.989 -1.6667 -3.16158 0
M  V30 9108 C 887.655 -3.16515 -3.21137 0
M  V30 9109 C 886.317 -3.57405 -3.22203 0
M  V30 9110 C 888.669 -4.12495 -3.18587 0
M  V30 9111 C 885.997 -4.92786 -3.18401 0
M  V30 9112 C 888.349 -5.47833 -3.16326 0
M  V30 9113 C 887.013 -5.88124 -3.157 0
M  V30 9114 H 886.283 -0.375974 -0.638533 0
M  V30 9115 H 888.93 -1.50736 -1.18114 0
M  V30 9116 H 887.235 -1.10966 -3.75758 0
M  V30 9117 H 888.932 -1.49911 -3.71924 0
M  V30 9118 H 885.522 -2.83947 -3.21048 0
M  V30 9119 H 889.706 -3.81932 -3.16925 0
M  V30 9120 H 884.962 -5.23253 -3.16253 0
M  V30 9121 H 889.136 -6.21942 -3.13306 0
M  V30 9122 H 886.763 -6.92995 -3.12508 0
M  V30 9123 N 888.338 1.20213 -1.01915 0
M  V30 9124 C 889.285 2.2309 -0.591571 0
M  V30 9125 C 890.255 1.61465 0.389649 0
M  V30 9126 O 891.44 1.88606 0.288511 0
M  V30 9127 C 888.58 3.45045 0.0614028 0
M  V30 9128 C 887.693 4.21091 -0.964688 0
M  V30 9129 C 886.828 5.30448 -0.282499 0
M  V30 9130 C 885.867 5.98241 -1.29517 0
M  V30 9131 N 885.004 6.99182 -0.639472 0
M  V30 9132 H 889.844 2.59023 -1.47347 0
M  V30 9133 H 887.381 1.27274 -0.737547 0
M  V30 9134 H 889.339 4.14688 0.45714 0
M  V30 9135 H 887.969 3.09797 0.906937 0
M  V30 9136 H 887.021 3.50489 -1.47857 0
M  V30 9137 H 888.333 4.67662 -1.73475 0
M  V30 9138 H 887.487 6.06466 0.168603 0
M  V30 9139 H 886.226 4.84922 0.519843 0
M  V30 9140 H 885.231 5.20982 -1.75663 0
M  V30 9141 H 886.456 6.45853 -2.09884 0
M  V30 9142 H 884.402 6.55844 0.142955 0
M  V30 9143 H 884.319 7.43893 -1.34756 0
M  V30 9144 H 885.587 7.79212 -0.212047 0
M  V30 9145 N 889.816 0.795718 1.36037 0
M  V30 9146 C 891.056 0.376514 2.00902 0
M  V30 9147 C 891.42 -1.03405 1.61776 0
M  V30 9148 O 892.621 -1.55468 2.19279 0
M  V30 9149 C 890.892 0.542086 3.53265 0
M  V30 9150 S 892.451 0.211694 4.38289 0
M  V30 9151 H 889.269 0.143527 0.696363 0
M  V30 9152 H 891.871 1.03559 1.65819 0
M  V30 9153 H 890.575 1.56888 3.79229 0
M  V30 9154 H 890.106 -0.132698 3.93176 0
M  V30 9155 H 892.121 -0.98452 4.86335 0
M  V30 9156 N 891.294 -1.47756 0.548274 0
M  V30 9157 C 892.571 -1.9555 -0.0443603 0
M  V30 9158 C 892.951 -1.49079 -1.49462 0
M  V30 9159 O 892.299 -0.725538 -2.16675 0
M  V30 9160 C 892.509 -3.48879 0.0918425 0
M  V30 9161 C 893.857 -4.2456 -0.0580879 0
M  V30 9162 O 894.881 -3.56195 0.018946 0
M  V30 9163 O 893.74 -5.46048 -0.222261 0
M  V30 9164 H 890.834 -0.824106 -0.0691235 0
M  V30 9165 H 893.38 -1.58196 0.614166 0
M  V30 9166 H 892.152 -3.7548 1.10137 0
M  V30 9167 H 891.775 -3.92975 -0.604704 0
M  V30 9168 N 892.772 -0.284283 -1.55015 0
M  V30 9169 C 894.021 0.33055 -1.98973 0
M  V30 9170 C 894.334 1.56284 -1.17621 0
M  V30 9171 O 895.54 2.2512 -1.51767 0
M  V30 9172 C 893.996 0.639457 -3.54174 0
M  V30 9173 C 893.604 -0.573543 -4.44313 0
M  V30 9174 C 895.348 1.21641 -4.06699 0
M  V30 9175 C 893.255 -0.238715 -5.90918 0
M  V30 9176 H 892.185 0.127285 -0.743179 0
M  V30 9177 H 894.836 -0.390372 -1.793 0
M  V30 9178 H 893.218 1.41953 -3.69683 0
M  V30 9179 H 894.392 -1.3502 -4.40575 0
M  V30 9180 H 892.707 -1.06797 -4.02472 0
M  V30 9181 H 895.304 1.48088 -5.13784 0
M  V30 9182 H 895.647 2.15328 -3.56286 0
M  V30 9183 H 896.18 0.498422 -3.94665 0
M  V30 9184 H 892.919 -1.1437 -6.45445 0
M  V30 9185 H 892.439 0.500997 -5.97704 0
M  V30 9186 H 894.118 0.165774 -6.46788 0
M  V30 9187 N 894.251 1.57596 -0.0117121 0
M  V30 9188 C 895.491 1.92932 0.675031 0
M  V30 9189 C 895.855 0.887004 1.70283 0
M  V30 9190 O 897.056 1.12599 2.4408 0
M  V30 9191 C 895.327 3.3327 1.29098 0
M  V30 9192 S 896.886 3.90509 2.00121 0
M  V30 9193 H 893.704 0.675226 0.22269 0
M  V30 9194 H 896.306 1.9537 -0.071208 0
M  V30 9195 H 895.01 4.0696 0.530262 0
M  V30 9196 H 894.541 3.34233 2.0749 0
M  V30 9197 H 896.556 3.72532 3.27771 0
M  V30 9198 N 895.729 -0.261212 1.5542 0
M  V30 9199 C 896.659 -1.32712 1.92119 0
M  V30 9200 C 897.64 -1.50934 0.784406 0
M  V30 9201 O 898.825 -1.63781 1.04352 0
M  V30 9202 C 895.955 -2.68453 2.20341 0
M  V30 9203 C 894.909 -2.64947 3.36136 0
M  V30 9204 C 894.235 -4.04349 3.49865 0
M  V30 9205 C 895.535 -2.23182 4.72215 0
M  V30 9206 H 897.229 -1.02245 2.81401 0
M  V30 9207 H 894.775 -0.490406 1.35392 0
M  V30 9208 H 896.728 -3.43144 2.44603 0
M  V30 9209 H 895.452 -3.00527 1.27871 0
M  V30 9210 H 894.111 -1.92714 3.11861 0
M  V30 9211 H 893.759 -4.33665 2.5484 0
M  V30 9212 H 893.459 -4.02895 4.27726 0
M  V30 9213 H 894.983 -4.80761 3.76432 0
M  V30 9214 H 896.397 -2.87599 4.95943 0
M  V30 9215 H 894.794 -2.32867 5.53076 0
M  V30 9216 H 895.864 -1.18327 4.70241 0
M  V30 9217 N 897.207 -1.48554 -0.526253 0
M  V30 9218 C 898.137 -1.66252 -1.63959 0
M  V30 9219 C 899.118 -0.511351 -1.62232 0
M  V30 9220 O 900.303 -0.744322 -1.7937 0
M  V30 9221 C 897.433 -1.70556 -3.02536 0
M  V30 9222 C 896.387 -2.8521 -3.19123 0
M  V30 9223 C 895.713 -2.74606 -4.58798 0
M  V30 9224 C 897.013 -4.26463 -3.0154 0
M  V30 9225 H 898.707 -2.59459 -1.49404 0
M  V30 9226 H 896.253 -1.24862 -0.717326 0
M  V30 9227 H 898.206 -1.81524 -3.80298 0
M  V30 9228 H 896.93 -0.739297 -3.18123 0
M  V30 9229 H 895.589 -2.73802 -2.43779 0
M  V30 9230 H 895.237 -1.75941 -4.71226 0
M  V30 9231 H 894.937 -3.51544 -4.70841 0
M  V30 9232 H 896.461 -2.87548 -5.38655 0
M  V30 9233 H 897.875 -4.38685 -3.69091 0
M  V30 9234 H 896.272 -5.04428 -3.25073 0
M  V30 9235 H 897.342 -4.42667 -1.97925 0
M  V30 9236 N 898.685 0.775411 -1.37205 0
M  V30 9237 C 899.913 1.56446 -1.35397 0
M  V30 9238 C 900.328 1.887 0.0615437 0
M  V30 9239 O 899.685 1.51178 1.02233 0
M  V30 9240 C 899.736 2.87697 -2.18889 0
M  V30 9241 O 899.457 2.56828 -3.54924 0
M  V30 9242 C 900.958 3.81944 -2.25019 0
M  V30 9243 H 898.178 0.484792 -0.463916 0
M  V30 9244 H 900.722 0.961346 -1.80495 0
M  V30 9245 H 898.877 3.44442 -1.7731 0
M  V30 9246 H 899.291 3.40851 -3.98649 0
M  V30 9247 H 900.765 4.71055 -2.87769 0
M  V30 9248 H 901.242 4.20811 -1.25757 0
M  V30 9249 H 901.848 3.3113 -2.66895 0
M  V30 9250 N 900.163 1.21714 1.00117 0
M  V30 9251 C 901.41 1.0367 1.73951 0
M  V30 9252 C 901.738 -0.429289 1.89703 0
M  V30 9253 O 900.993 -1.33475 1.43119 0
M  V30 9254 C 901.292 1.68345 3.15269 0
M  V30 9255 C 900.958 3.18214 3.19454 0
M  V30 9256 C 899.62 3.59109 3.20303 0
M  V30 9257 C 901.972 4.14179 3.16394 0
M  V30 9258 C 899.3 4.94467 3.15783 0
M  V30 9259 C 901.652 5.49502 3.13416 0
M  V30 9260 C 900.316 5.8979 3.12577 0
M  V30 9261 H 899.586 0.379355 0.63653 0
M  V30 9262 H 902.233 1.51361 1.17312 0
M  V30 9263 H 900.538 1.12957 3.75164 0
M  V30 9264 H 902.235 1.51882 3.71124 0
M  V30 9265 H 898.825 2.85646 3.19538 0
M  V30 9266 H 903.009 3.83607 3.14895 0
M  V30 9267 H 898.265 5.24923 3.13473 0
M  V30 9268 H 902.439 6.23595 3.10003 0
M  V30 9269 H 900.066 6.94643 3.08829 0
M  V30 9270 N 901.641 -1.19671 1.02551 0
M  V30 9271 C 902.866 -1.93774 0.739363 0
M  V30 9272 C 903.291 -1.74787 -0.695064 0
M  V30 9273 O 902.649 -1.04796 -1.47944 0
M  V30 9274 C 902.697 -3.43684 1.09149 0
M  V30 9275 O 901.801 -4.11874 0.208213 0
M  V30 9276 H 901.142 -0.605064 0.273484 0
M  V30 9277 H 903.672 -1.51846 1.37128 0
M  V30 9278 H 903.682 -3.94339 1.04695 0
M  V30 9279 H 902.357 -3.56826 2.13654 0
M  V30 9280 H 900.934 -3.716 0.311045 0
M  V30 9281 N 903.119 -0.802921 -1.35613 0
M  V30 9282 C 904.396 -0.304993 -1.93208 0
M  V30 9283 C 904.776 1.20488 -1.73337 0
M  V30 9284 O 904.124 2.00268 -1.10022 0
M  V30 9285 C 904.334 -0.712383 -3.41652 0
M  V30 9286 C 905.682 -0.699785 -4.18794 0
M  V30 9287 O 906.706 -0.653698 -3.5015 0
M  V30 9288 O 905.565 -0.754842 -5.41262 0
M  V30 9289 H 902.659 -0.0789127 -0.823226 0
M  V30 9290 H 905.205 -0.886372 -1.44712 0
M  V30 9291 H 903.977 -1.75316 -3.49829 0
M  V30 9292 H 903.6 -0.105614 -3.9746 0
M  V30 9293 N 904.597 1.47463 -0.556102 0
M  V30 9294 C 905.825 2.06868 -0.0364585 0
M  V30 9295 C 906.24 1.40893 1.25677 0
M  V30 9296 O 905.597 0.505083 1.75371 0
M  V30 9297 C 905.648 3.61128 0.163984 0
M  V30 9298 O 905.369 4.24629 -1.07803 0
M  V30 9299 C 906.87 4.37397 0.721036 0
M  V30 9300 H 904.09 0.669466 -0.0453399 0
M  V30 9301 H 906.634 1.89482 -0.769198 0
M  V30 9302 H 904.789 3.78031 0.84685 0
M  V30 9303 H 905.203 5.17149 -0.875067 0
M  V30 9304 H 906.677 5.46016 0.810584 0
M  V30 9305 H 907.154 4.03604 1.73206 0
M  V30 9306 H 907.76 4.25236 0.073904 0
M  V30 9307 N 906.075 0.2925 1.54862 0
M  V30 9308 C 907.022 -0.587365 2.23201 0
M  V30 9309 C 907.992 -1.13623 1.21157 0
M  V30 9310 O 909.177 -1.18233 1.49752 0
M  V30 9311 C 906.317 -1.75745 2.96998 0
M  V30 9312 C 905.43 -1.24078 4.13798 0
M  V30 9313 C 904.565 -2.37405 4.75197 0
M  V30 9314 C 903.604 -1.82829 5.84157 0
M  V30 9315 N 902.741 -2.89696 6.39547 0
M  V30 9316 H 907.581 0.00202207 2.98 0
M  V30 9317 H 905.118 0.012766 1.47094 0
M  V30 9318 H 907.076 -2.44549 3.38011 0
M  V30 9319 H 905.706 -2.3186 2.24591 0
M  V30 9320 H 904.758 -0.445268 3.77785 0
M  V30 9321 H 906.07 -0.801186 4.92324 0
M  V30 9322 H 905.224 -3.14172 5.19019 0
M  V30 9323 H 903.963 -2.84688 3.95985 0
M  V30 9324 H 902.968 -1.04548 5.39768 0
M  V30 9325 H 904.193 -1.36461 6.65248 0
M  V30 9326 H 902.139 -3.36328 5.63222 0
M  V30 9327 H 902.056 -2.50206 7.13395 0
M  V30 9328 H 903.324 -3.66386 6.88027 0
M  V30 9329 N 907.553 -1.57587 0.0200696 0
M  V30 9330 C 908.463 -2.13119 -0.980676 0
M  V30 9331 C 909.479 -1.08124 -1.36328 0
M  V30 9332 O 910.655 -1.40134 -1.44653 0
M  V30 9333 C 907.72 -2.63991 -2.24743 0
M  V30 9334 C 906.781 -3.83667 -1.9261 0
M  V30 9335 C 906.014 -4.32103 -3.13246 0
M  V30 9336 O 906.237 -3.79758 -4.25606 0
M  V30 9337 O 905.171 -5.24047 -2.96072 0
M  V30 9338 H 908.997 -2.98887 -0.538528 0
M  V30 9339 H 906.582 -1.48055 -0.19999 0
M  V30 9340 H 908.464 -2.9682 -2.99125 0
M  V30 9341 H 907.139 -1.81311 -2.68157 0
M  V30 9342 H 906.046 -3.55778 -1.15641 0
M  V30 9343 H 907.379 -4.67482 -1.54019 0
M  V30 9344 N 909.032 0.252966 -1.55557 0
M  V30 9345 C 910.278 0.983306 -1.77367 0
M  V30 9346 C 910.611 1.85203 -0.584258 0
M  V30 9347 O 909.886 1.89963 0.417644 0
M  V30 9348 C 910.169 1.84896 -3.09007 0
M  V30 9349 C 910.022 1.00883 -4.38341 0
M  V30 9350 C 911.341 2.83254 -3.36831 0
M  V30 9351 H 908.46 0.356056 -0.645286 0
M  V30 9352 H 911.102 0.254232 -1.88291 0
M  V30 9353 H 909.252 2.47058 -2.99825 0
M  V30 9354 H 910.924 0.40638 -4.59507 0
M  V30 9355 H 909.167 0.31297 -4.3267 0
M  V30 9356 H 909.838 1.64818 -5.2682 0
M  V30 9357 H 912.314 2.31228 -3.45937 0
M  V30 9358 H 911.19 3.40949 -4.30169 0
M  V30 9359 H 911.451 3.59407 -2.57447 0
M  V30 9360 N 910.51 1.48831 0.518367 0
M  V30 9361 C 911.442 1.60317 1.63802 0
M  V30 9362 C 912.455 0.486771 1.55352 0
M  V30 9363 O 913.644 0.758111 1.61601 0
M  V30 9364 C 910.744 1.52771 3.02513 0
M  V30 9365 C 909.917 2.79649 3.36326 0
M  V30 9366 C 908.976 2.65396 4.54369 0
M  V30 9367 O 908.002 3.39304 4.57013 0
M  V30 9368 N 909.204 1.75784 5.53245 0
M  V30 9369 H 911.969 2.56878 1.54383 0
M  V30 9370 H 909.53 1.45701 0.705889 0
M  V30 9371 H 911.522 1.40914 3.79375 0
M  V30 9372 H 910.092 0.641381 3.05949 0
M  V30 9373 H 909.312 3.05985 2.48529 0
M  V30 9374 H 910.6 3.63799 3.55707 0
M  V30 9375 H 909.998 1.14961 5.53896 0
M  V30 9376 H 908.555 1.69859 6.29278 0
M  V30 9377 N 911.988 -0.768124 1.37614 0
M  V30 9378 C 912.92 -1.89076 1.29548 0
M  V30 9379 C 913.933 -1.61433 0.21056 0
M  V30 9380 O 915.122 -1.72283 0.466992 0
M  V30 9381 C 912.222 -3.24388 0.981102 0
M  V30 9382 C 911.395 -3.79649 2.17222 0
M  V30 9383 C 910.454 -4.93444 1.82754 0
M  V30 9384 O 909.48 -5.0884 2.5509 0
M  V30 9385 N 910.682 -5.75319 0.773819 0
M  V30 9386 H 913.447 -1.9651 2.26283 0
M  V30 9387 H 911.008 -0.947399 1.31286 0
M  V30 9388 H 913 -3.98038 0.731301 0
M  V30 9389 H 911.57 -3.12433 0.102203 0
M  V30 9390 H 910.79 -2.97735 2.58355 0
M  V30 9391 H 912.078 -4.13302 2.96748 0
M  V30 9392 H 911.476 -5.65433 0.173644 0
M  V30 9393 H 910.033 -6.4918 0.583882 0
M  V30 9394 N 913.466 -1.22244 -0.994698 0
M  V30 9395 C 914.416 -0.958244 -2.06886 0
M  V30 9396 C 915.4 0.0904481 -1.60646 0
M  V30 9397 O 916.592 -0.119837 -1.76594 0
M  V30 9398 C 913.721 -0.535944 -3.39091 0
M  V30 9399 C 912.807 -1.61927 -3.9197 0
M  V30 9400 N 913.198 -2.84659 -4.18094 0
M  V30 9401 C 911.496 -1.49053 -4.20356 0
M  V30 9402 C 912.197 -3.54697 -4.61048 0
M  V30 9403 N 911.173 -2.82164 -4.64634 0
M  V30 9404 H 914.975 -1.89056 -2.25022 0
M  V30 9405 H 912.489 -1.1197 -1.17629 0
M  V30 9406 H 914.486 -0.327997 -4.15608 0
M  V30 9407 H 913.146 0.38949 -3.22355 0
M  V30 9408 H 914.157 -3.21104 -4.06341 0
M  V30 9409 H 910.834 -0.631154 -4.12702 0
M  V30 9410 H 912.224 -4.59837 -4.89898 0
M  V30 9411 N 914.944 1.19125 -1.03184 0
M  V30 9412 C 916.172 1.92838 -0.74975 0
M  V30 9413 C 916.587 1.75667 0.691851 0
M  V30 9414 O 915.944 1.0805 1.47076 0
M  V30 9415 C 915.995 3.44509 -1.09525 0
M  V30 9416 O 915.716 3.6113 -2.48025 0
M  V30 9417 C 917.217 4.35338 -0.836397 0
M  V30 9418 H 914.437 0.61246 -0.274105 0
M  V30 9419 H 916.981 1.5118 -1.37712 0
M  V30 9420 H 915.136 3.83988 -0.513006 0
M  V30 9421 H 915.55 4.54959 -2.60984 0
M  V30 9422 H 917.024 5.4035 -1.12808 0
M  V30 9423 H 917.501 4.38602 0.229102 0
M  V30 9424 H 918.107 4.01544 -1.40152 0
M  V30 9425 N 916.422 0.810101 1.35185 0
M  V30 9426 C 917.352 0.237453 2.32289 0
M  V30 9427 C 918.333 -0.639032 1.5764 0
M  V30 9428 O 919.518 -0.568575 1.8569 0
M  V30 9429 C 916.648 -0.611964 3.41866 0
M  V30 9430 C 915.602 0.166318 4.27677 0
M  V30 9431 C 914.928 -0.805024 5.28605 0
M  V30 9432 C 916.228 1.36729 5.04086 0
M  V30 9433 H 917.922 1.04874 2.80432 0
M  V30 9434 H 915.468 0.505751 1.34826 0
M  V30 9435 H 917.421 -1.02267 4.08802 0
M  V30 9436 H 916.145 -1.45617 2.92341 0
M  V30 9437 H 914.804 0.558238 3.62325 0
M  V30 9438 H 914.452 -1.64483 4.75347 0
M  V30 9439 H 914.152 -0.288577 5.86891 0
M  V30 9440 H 915.676 -1.21386 5.98413 0
M  V30 9441 H 917.09 1.03128 5.63948 0
M  V30 9442 H 915.487 1.81848 5.71884 0
M  V30 9443 H 916.557 2.15214 4.34524 0
M  V30 9444 N 917.9 -1.47166 0.563914 0
M  V30 9445 C 919.146 -2.02756 0.0424338 0
M  V30 9446 C 919.479 -1.43662 -1.3067 0
M  V30 9447 O 918.754 -0.594676 -1.85186 0
M  V30 9448 C 919.037 -3.60074 -0.0434793 0
M  V30 9449 C 918.89 -4.29587 1.33323 0
M  V30 9450 C 920.209 -4.336 -0.753568 0
M  V30 9451 H 917.328 -0.736806 0.0168946 0
M  V30 9452 H 919.97 -1.75521 0.727496 0
M  V30 9453 H 918.12 -3.83409 -0.626906 0
M  V30 9454 H 919.792 -4.17573 1.96037 0
M  V30 9455 H 918.035 -3.8968 1.9061 0
M  V30 9456 H 918.706 -5.38218 1.22576 0
M  V30 9457 H 921.182 -4.15299 -0.258126 0
M  V30 9458 H 920.058 -5.43291 -0.782659 0
M  V30 9459 H 920.319 -4.03302 -1.81108 0
M  V30 9460 N 919.378 -0.300708 -1.54705 0
M  V30 9461 C 920.328 0.590589 -2.20218 0
M  V30 9462 C 921.312 1.09913 -1.17507 0
M  V30 9463 O 922.504 1.03995 -1.43227 0
M  V30 9464 C 919.633 1.76214 -2.94625 0
M  V30 9465 C 918.719 1.26957 -4.04651 0
M  V30 9466 N 919.11 0.494982 -5.03372 0
M  V30 9467 C 917.408 1.55033 -4.18188 0
M  V30 9468 C 918.109 0.232724 -5.81234 0
M  V30 9469 N 917.085 0.812443 -5.37494 0
M  V30 9470 H 920.887 -0.00876354 -2.93899 0
M  V30 9471 H 918.401 -0.105456 -1.62057 0
M  V30 9472 H 920.398 2.41221 -3.40027 0
M  V30 9473 H 919.058 2.36519 -2.22461 0
M  V30 9474 H 920.069 0.13991 -5.17711 0
M  V30 9475 H 916.746 2.16089 -3.57228 0
M  V30 9476 H 918.136 -0.389362 -6.70771 0
M  V30 9477 N 920.856 1.57574 -0.0284266 0
M  V30 9478 C 921.788 2.07079 0.982391 0
M  V30 9479 C 922.801 0.994078 1.28926 0
M  V30 9480 O 923.99 1.27028 1.25404 0
M  V30 9481 C 921.09 2.47978 2.30998 0
M  V30 9482 C 920.263 3.7872 2.18838 0
M  V30 9483 C 919.322 4.06177 3.34524 0
M  V30 9484 O 918.348 4.76438 3.11441 0
M  V30 9485 N 919.55 3.56297 4.58293 0
M  V30 9486 H 922.315 2.94421 0.560011 0
M  V30 9487 H 919.876 1.61124 0.158347 0
M  V30 9488 H 921.868 2.63439 3.07216 0
M  V30 9489 H 920.438 1.66005 2.64879 0
M  V30 9490 H 919.658 3.73062 1.27351 0
M  V30 9491 H 920.946 4.6438 2.07915 0
M  V30 9492 H 920.344 2.99453 4.79942 0
M  V30 9493 H 918.901 3.77038 5.31682 0
M  V30 9494 N 922.334 -0.244713 1.55689 0
M  V30 9495 C 923.244 -1.32447 1.93636 0
M  V30 9496 C 924.26 -1.52541 0.837086 0
M  V30 9497 O 925.436 -1.66121 1.13867 0
M  V30 9498 C 922.501 -2.65864 2.22525 0
M  V30 9499 C 921.562 -2.54273 3.45896 0
M  V30 9500 C 920.795 -3.81327 3.73397 0
M  V30 9501 O 921.018 -4.83307 3.02936 0
M  V30 9502 O 919.952 -3.79829 4.66919 0
M  V30 9503 H 923.778 -1.03255 2.85608 0
M  V30 9504 H 921.363 -0.445652 1.42598 0
M  V30 9505 H 923.245 -3.447 2.42404 0
M  V30 9506 H 921.92 -2.94784 1.33731 0
M  V30 9507 H 920.827 -1.73715 3.31321 0
M  V30 9508 H 922.16 -2.30297 4.34999 0
M  V30 9509 N 923.813 -1.49104 -0.510467 0
M  V30 9510 C 925.038 -1.62068 -1.29417 0
M  V30 9511 C 925.463 -0.288432 -1.85875 0
M  V30 9512 O 924.821 0.742667 -1.65391 0
M  V30 9513 C 924.869 -2.68506 -2.40701 0
M  V30 9514 O 923.973 -2.27021 -3.4429 0
M  V30 9515 H 923.314 -0.542778 -0.382476 0
M  V30 9516 H 925.844 -1.95228 -0.612154 0
M  V30 9517 H 925.854 -2.90383 -2.86604 0
M  V30 9518 H 924.529 -3.65216 -1.98973 0
M  V30 9519 H 923.106 -2.15436 -3.04371 0
M  V30 9520 N 925.291 0.760815 -1.38019 0
M  V30 9521 C 926.238 1.8744 -1.34666 0
M  V30 9522 C 927.208 1.64762 -0.210386 0
M  V30 9523 O 928.393 1.86528 -0.401479 0
M  V30 9524 C 925.533 3.24648 -1.17037 0
M  V30 9525 C 924.646 3.59206 -2.3999 0
M  V30 9526 C 923.781 4.8568 -2.15148 0
M  V30 9527 C 922.82 5.13002 -3.3391 0
M  V30 9528 N 921.957 6.30668 -3.08549 0
M  V30 9529 H 926.797 1.8964 -2.29871 0
M  V30 9530 H 924.334 0.927004 -1.14215 0
M  V30 9531 H 926.292 4.03814 -1.04834 0
M  V30 9532 H 924.922 3.21793 -0.254758 0
M  V30 9533 H 923.974 2.74939 -2.62893 0
M  V30 9534 H 925.286 3.75328 -3.28527 0
M  V30 9535 H 924.44 5.72773 -2.00039 0
M  V30 9536 H 923.179 4.71682 -1.23965 0
M  V30 9537 H 922.184 4.2438 -3.49545 0
M  V30 9538 H 923.409 5.28901 -4.25958 0
M  V30 9539 H 921.355 6.18008 -2.20006 0
M  V30 9540 H 921.272 6.47257 -3.90633 0
M  V30 9541 H 922.54 7.20669 -2.9708 0
M  V30 9542 N 926.769 1.22769 0.988202 0
M  V30 9543 C 927.997 1.08155 1.76381 0
M  V30 9544 C 928.412 -0.367573 1.85187 0
M  V30 9545 O 927.769 -1.25455 1.32541 0
M  V30 9546 C 927.82 1.69193 3.19462 0
M  V30 9547 O 927.541 3.08437 3.11125 0
M  V30 9548 C 929.042 1.59915 4.13451 0
M  V30 9549 H 926.262 0.378908 0.553778 0
M  V30 9550 H 928.806 1.6246 1.24206 0
M  V30 9551 H 926.961 1.18939 3.6869 0
M  V30 9552 H 927.375 3.37916 4.0114 0
M  V30 9553 H 928.849 2.07339 5.1158 0
M  V30 9554 H 929.326 0.556546 4.3566 0
M  V30 9555 H 929.932 2.09497 3.70123 0
M  V30 9556 N 928.247 -1.18576 1.03814 0
M  V30 9557 C 929.197 -2.20034 0.597409 0
M  V30 9558 C 930.181 -1.56849 -0.358796 0
M  V30 9559 O 931.373 -1.761 -0.178262 0
M  V30 9560 C 928.502 -3.43276 -0.0407965 0
M  V30 9561 C 927.588 -4.13588 0.938404 0
M  V30 9562 N 927.979 -4.59941 2.10447 0
M  V30 9563 C 926.277 -4.3941 0.763853 0
M  V30 9564 C 926.978 -5.1404 2.72282 0
M  V30 9565 N 925.954 -5.05401 2.00176 0
M  V30 9566 H 929.756 -2.53562 1.48606 0
M  V30 9567 H 927.27 -1.34753 0.906384 0
M  V30 9568 H 929.267 -4.15217 -0.374222 0
M  V30 9569 H 927.927 -3.11245 -0.925014 0
M  V30 9570 H 928.938 -4.54471 2.48347 0
M  V30 9571 H 925.615 -4.1744 -0.0704869 0
M  V30 9572 H 927.005 -5.60128 3.71088 0
M  V30 9573 N 929.725 -0.817259 -1.34754 0
M  V30 9574 C 930.657 -0.192695 -2.28389 0
M  V30 9575 C 931.67 0.614167 -1.50771 0
M  V30 9576 O 932.859 0.444776 -1.7287 0
M  V30 9577 C 929.959 0.748929 -3.30521 0
M  V30 9578 C 929.132 -0.0138762 -4.37398 0
M  V30 9579 C 928.191 0.847825 -5.19325 0
M  V30 9580 O 927.217 0.29487 -5.68436 0
M  V30 9581 N 928.419 2.16843 -5.38479 0
M  V30 9582 H 931.184 -0.997122 -2.82626 0
M  V30 9583 H 928.745 -0.673696 -1.47217 0
M  V30 9584 H 930.737 1.32987 -3.82226 0
M  V30 9585 H 929.307 1.45412 -2.7672 0
M  V30 9586 H 928.527 -0.776093 -3.86485 0
M  V30 9587 H 929.815 -0.539191 -5.05935 0
M  V30 9588 H 929.213 2.64148 -5.00242 0
M  V30 9589 H 927.77 2.69835 -5.93323 0
M  V30 9590 N 931.203 1.46865 -0.571711 0
M  V30 9591 C 932.443 2.04324 -0.0556487 0
M  V30 9592 C 932.807 1.43486 1.27576 0
M  V30 9593 O 934.008 1.92079 1.8804 0
M  V30 9594 C 932.279 3.57394 0.0206263 0
M  V30 9595 S 933.838 4.36159 0.480709 0
M  V30 9596 H 930.656 0.710273 -0.0321467 0
M  V30 9597 H 933.258 1.8005 -0.761725 0
M  V30 9598 H 931.962 3.99193 -0.952509 0
M  V30 9599 H 931.493 3.86188 0.749812 0
M  V30 9600 H 933.508 4.6478 1.73763 0
M  V30 9601 N 932.681 0.308908 1.54543 0
M  V30 9602 C 933.611 -0.556657 2.26768 0
M  V30 9603 C 934.592 -1.13145 1.27013 0
M  V30 9604 O 935.777 -1.15931 1.558 0
M  V30 9605 C 932.907 -1.72481 3.01443 0
M  V30 9606 C 931.861 -1.28001 4.08411 0
M  V30 9607 C 931.187 -2.53395 4.70845 0
M  V30 9608 C 932.487 -0.405497 5.20724 0
M  V30 9609 H 934.181 0.0457618 2.99365 0
M  V30 9610 H 931.727 0.0234495 1.43981 0
M  V30 9611 H 933.68 -2.3365 3.50693 0
M  V30 9612 H 932.404 -2.35359 2.26437 0
M  V30 9613 H 931.063 -0.69133 3.60022 0
M  V30 9614 H 930.711 -3.14604 3.92471 0
M  V30 9615 H 930.411 -2.2433 5.43093 0
M  V30 9616 H 931.935 -3.15352 5.22863 0
M  V30 9617 H 933.349 -0.923076 5.6582 0
M  V30 9618 H 931.746 -0.208282 5.99738 0
M  V30 9619 H 932.816 0.567412 4.81569 0
M  V30 9620 N 934.159 -1.57557 0.0367827 0
M  V30 9621 C 935.109 -2.07182 -0.95183 0
M  V30 9622 C 936.093 -0.973921 -1.28076 0
M  V30 9623 O 937.285 -1.23741 -1.26559 0
M  V30 9624 C 934.414 -2.60869 -2.23164 0
M  V30 9625 C 933.5 -3.77602 -1.93074 0
M  V30 9626 N 933.891 -4.87923 -1.33283 0
M  V30 9627 C 932.189 -3.86234 -2.23023 0
M  V30 9628 C 932.89 -5.69083 -1.20498 0
M  V30 9629 N 931.866 -5.16233 -1.70306 0
M  V30 9630 H 935.668 -2.89876 -0.484647 0
M  V30 9631 H 933.182 -1.61528 -0.16804 0
M  V30 9632 H 935.179 -2.94716 -2.9487 0
M  V30 9633 H 933.839 -1.79607 -2.70502 0
M  V30 9634 H 934.85 -5.08018 -1.00686 0
M  V30 9635 H 931.527 -3.15891 -2.72981 0
M  V30 9636 H 932.917 -6.6779 -0.741999 0
M  V30 9637 N 935.637 0.236453 -1.55816 0
M  V30 9638 C 936.877 0.970249 -1.79904 0
M  V30 9639 C 937.241 1.8212 -0.607965 0
M  V30 9640 O 938.442 2.58759 -0.727833 0
M  V30 9641 C 936.713 1.79938 -3.088 0
M  V30 9642 S 938.272 2.59084 -3.54148 0
M  V30 9643 H 935.09 0.32618 -0.631765 0
M  V30 9644 H 937.692 0.237147 -1.94056 0
M  V30 9645 H 936.396 1.16412 -3.93544 0
M  V30 9646 H 935.927 2.57504 -2.97414 0
M  V30 9647 H 937.942 3.82315 -3.16306 0
M  V30 9648 N 937.115 1.49373 0.502552 0
M  V30 9649 C 938.392 1.49282 1.26389 0
M  V30 9650 C 938.772 0.219674 2.09954 0
M  V30 9651 O 938.12 -0.797991 2.14113 0
M  V30 9652 C 938.33 2.77083 2.12194 0
M  V30 9653 C 939.678 3.26511 2.71433 0
M  V30 9654 O 940.702 2.78189 2.22462 0
M  V30 9655 O 939.561 4.10665 3.60578 0
M  V30 9656 H 936.655 0.597415 0.57186 0
M  V30 9657 H 939.201 1.61634 0.516951 0
M  V30 9658 H 937.973 3.61237 1.50411 0
M  V30 9659 H 937.596 2.67583 2.94084 0
M  V30 9660 N 938.594 -0.753485 1.38421 0
M  V30 9661 C 939.544 -1.85788 1.32162 0
M  V30 9662 C 940.528 -1.59577 0.20588 0
M  V30 9663 O 941.72 -1.71396 0.44186 0
M  V30 9664 C 938.849 -3.23498 1.14909 0
M  V30 9665 C 937.935 -3.556 2.31105 0
M  V30 9666 N 938.326 -3.58759 3.56547 0
M  V30 9667 C 936.624 -3.85866 2.23659 0
M  V30 9668 C 937.325 -3.8813 4.33278 0
M  V30 9669 N 936.301 -4.04966 3.62635 0
M  V30 9670 H 940.103 -1.86509 2.27138 0
M  V30 9671 H 937.617 -0.950843 1.31654 0
M  V30 9672 H 939.614 -4.02531 1.08509 0
M  V30 9673 H 938.274 -3.24029 0.20866 0
M  V30 9674 H 939.285 -3.40517 3.90216 0
M  V30 9675 H 935.962 -3.94112 1.37776 0
M  V30 9676 H 937.352 -3.97197 5.41926 0
M  V30 9677 N 940.072 -1.23292 -0.981677 0
M  V30 9678 C 941.019 -1.01296 -2.07383 0
M  V30 9679 C 941.989 0.069139 -1.65956 0
M  V30 9680 O 943.174 -0.0827108 -1.90621 0
M  V30 9681 C 940.314 -0.608876 -3.39686 0
M  V30 9682 C 939.427 -1.76296 -3.9439 0
M  V30 9683 C 938.562 -1.30578 -5.14901 0
M  V30 9684 C 937.601 -2.4307 -5.61768 0
M  V30 9685 N 936.738 -1.98319 -6.73509 0
M  V30 9686 H 941.578 -1.9478 -2.25532 0
M  V30 9687 H 939.115 -0.970356 -1.10555 0
M  V30 9688 H 941.073 -0.355702 -4.15681 0
M  V30 9689 H 939.703 0.288961 -3.21504 0
M  V30 9690 H 938.755 -2.13017 -3.15163 0
M  V30 9691 H 940.067 -2.60871 -4.25145 0
M  V30 9692 H 939.221 -1.01066 -5.98223 0
M  V30 9693 H 937.96 -0.430386 -4.85797 0
M  V30 9694 H 936.965 -2.73358 -4.77028 0
M  V30 9695 H 938.19 -3.31144 -5.92892 0
M  V30 9696 H 936.136 -1.13157 -6.46167 0
M  V30 9697 H 936.053 -2.76454 -7.0364 0
M  V30 9698 H 937.321 -1.71907 -7.60308 0
M  V30 9699 N 941.55 1.18024 -1.04442 0
M  V30 9700 C 942.775 1.92573 -0.770097 0
M  V30 9701 C 943.2 1.75871 0.667169 0
M  V30 9702 O 942.558 1.07136 1.46258 0
M  V30 9703 C 942.606 3.41904 -1.14602 0
M  V30 9704 O 941.71 4.11491 -0.273712 0
M  V30 9705 H 941.051 0.600636 -0.283076 0
M  V30 9706 H 943.581 1.49645 -1.39526 0
M  V30 9707 H 943.591 3.92623 -1.10956 0
M  V30 9708 H 942.266 3.53382 -2.19304 0
M  V30 9709 H 940.843 3.71059 -0.370124 0
M  V30 9710 N 943.028 0.824394 1.34319 0
M  V30 9711 C 944.253 0.425194 2.02995 0
M  V30 9712 C 944.678 -0.961476 1.6167 0
M  V30 9713 O 944.036 -1.62593 0.80207 0
M  V30 9714 C 944.084 0.537004 3.56579 0
M  V30 9715 O 943.188 -0.442576 4.10018 0
M  V30 9716 H 942.529 0.174853 0.640564 0
M  V30 9717 H 945.059 1.11522 1.71534 0
M  V30 9718 H 945.069 0.413311 4.05901 0
M  V30 9719 H 943.744 1.54836 3.86004 0
M  V30 9720 H 942.321 -0.277644 3.71865 0
M  V30 9721 N 944.506 -1.46559 0.579492 0
M  V30 9722 C 945.454 -2.3199 -0.168413 0
M  V30 9723 C 946.448 -1.44288 -0.887551 0
M  V30 9724 O 947.654 -1.60931 -0.806305 0
M  V30 9725 H 944.029 -0.748431 -0.0731799 0
M  V30 9726 H 946 -2.92886 0.570973 0
M  V30 9727 C 944.749 -3.27392 -1.1709 0
M  V30 9728 H 944.072 -3.94853 -0.626958 0
M  V30 9729 H 945.512 -3.89955 -1.66467 0
M  V30 9730 C 943.971 -2.52511 -2.23024 0
M  V30 9731 O 944.501 -2.2858 -3.30324 0
M  V30 9732 N 942.707 -2.1313 -1.97545 0
M  V30 9733 H 942.254 -2.32793 -1.10297 0
M  V30 9734 H 942.212 -1.63348 -2.68635 0
M  V30 9735 N 945.984 -0.3171 -1.54377 0
M  V30 9736 C 947.209 0.292311 -2.0533 0
M  V30 9737 C 947.634 1.45503 -1.19207 0
M  V30 9738 O 946.992 1.80197 -0.199721 0
M  V30 9739 C 947.04 0.710787 -3.53525 0
M  V30 9740 O 946.144 1.81387 -3.70368 0
M  V30 9741 H 945.485 0.0539976 -0.661801 0
M  V30 9742 H 948.015 -0.463629 -1.99278 0
M  V30 9743 H 948.025 0.995216 -3.95676 0
M  V30 9744 H 946.7 -0.139668 -4.15665 0
M  V30 9745 H 945.277 1.52875 -3.40123 0
M  V30 9746 N 947.462 1.57535 -0.0451378 0
M  V30 9747 C 948.687 1.97172 0.64326 0
M  V30 9748 C 949.112 0.922266 1.63939 0
M  V30 9749 O 948.47 -0.115155 1.80934 0
M  V30 9750 C 948.518 3.35889 1.3119 0
M  V30 9751 O 947.622 3.33387 2.42748 0
M  V30 9752 H 946.963 0.642469 0.167719 0
M  V30 9753 H 949.493 2.04295 -0.111747 0
M  V30 9754 H 949.503 3.72481 1.66499 0
M  V30 9755 H 948.178 4.1181 0.581823 0
M  V30 9756 H 946.755 3.08533 2.09432 0
M  V30 9757 N 948.94 -0.228186 1.55939 0
M  V30 9758 C 950.217 -0.977492 1.69424 0
M  V30 9759 C 950.597 -2.02674 0.590479 0
M  V30 9760 O 949.945 -2.2491 -0.403467 0
M  V30 9761 C 950.155 -1.59394 3.10475 0
M  V30 9762 C 951.503 -2.08871 3.69673 0
M  V30 9763 O 952.527 -1.693 3.13394 0
M  V30 9764 O 951.386 -2.81584 4.68372 0
M  V30 9765 H 948.48 -0.456185 0.6898 0
M  V30 9766 H 951.026 -0.220492 1.68261 0
M  V30 9767 H 949.798 -0.835971 3.82266 0
M  V30 9768 H 949.421 -2.41665 3.15727 0
M  V30 9769 N 950.418 -1.49637 -0.494624 0
M  V30 9770 C 951.348 -1.69692 -1.60396 0
M  V30 9771 C 952.329 -0.545648 -1.61111 0
M  V30 9772 O 953.514 -0.782202 -1.77751 0
M  V30 9773 C 950.644 -1.76934 -2.9885 0
M  V30 9774 C 949.598 -2.91915 -3.13001 0
M  V30 9775 C 948.924 -2.84276 -4.5287 0
M  V30 9776 C 950.224 -4.32764 -2.92426 0
M  V30 9777 H 951.918 -2.6257 -1.43866 0
M  V30 9778 H 949.464 -1.26355 -0.690679 0
M  V30 9779 H 951.417 -1.8955 -3.76362 0
M  V30 9780 H 950.141 -0.806609 -3.16483 0
M  V30 9781 H 948.8 -2.78911 -2.37916 0
M  V30 9782 H 948.448 -1.85897 -4.67388 0
M  V30 9783 H 948.148 -3.61452 -4.63278 0
M  V30 9784 H 949.672 -2.98909 -5.32434 0
M  V30 9785 H 951.086 -4.46415 -3.59703 0
M  V30 9786 H 949.483 -5.1121 -3.143 0
M  V30 9787 H 950.553 -4.46765 -1.88491 0
M  V30 9788 N 951.896 0.746133 -1.38819 0
M  V30 9789 C 952.843 1.86001 -1.36647 0
M  V30 9790 C 953.813 1.6453 -0.227849 0
M  V30 9791 O 954.998 1.86092 -0.421241 0
M  V30 9792 C 952.138 3.23388 -1.20474 0
M  V30 9793 C 951.251 3.5664 -2.43786 0
M  V30 9794 C 950.386 4.8337 -2.20287 0
M  V30 9795 C 949.425 5.09431 -3.39332 0
M  V30 9796 N 948.562 6.2736 -3.1522 0
M  V30 9797 H 953.402 1.87192 -2.31869 0
M  V30 9798 H 950.939 0.914838 -1.15192 0
M  V30 9799 H 952.897 4.02679 -1.09112 0
M  V30 9800 H 951.527 3.21505 -0.288874 0
M  V30 9801 H 950.579 2.72135 -2.65794 0
M  V30 9802 H 951.891 3.71823 -3.3249 0
M  V30 9803 H 951.045 5.70619 -2.06103 0
M  V30 9804 H 949.784 4.70341 -1.28961 0
M  V30 9805 H 948.789 4.20648 -3.54027 0
M  V30 9806 H 950.014 5.24354 -4.31544 0
M  V30 9807 H 947.96 6.15639 -2.26549 0
M  V30 9808 H 947.877 6.43078 -3.97476 0
M  V30 9809 H 949.145 7.17477 -3.04707 0
M  V30 9810 N 953.375 1.23811 0.975125 0
M  V30 9811 C 954.791 1.0019 1.24234 0
M  V30 9812 C 954.991 -0.293811 1.99346 0
M  V30 9813 O 954.047 -1.01189 2.31337 0
M  V30 9814 C 955.36 2.21218 2.03674 0
M  V30 9815 C 956.908 2.25764 2.16793 0
M  V30 9816 C 957.383 3.46394 2.99626 0
M  V30 9817 N 958.874 3.46665 3.07209 0
M  V30 9818 C 959.609 4.3666 3.71639 0
M  V30 9819 N 959.105 5.36899 4.37849 0
M  V30 9820 N 960.898 4.2439 3.68578 0
M  V30 9821 H 953.049 2.07087 0.472076 0
M  V30 9822 H 955.312 0.90838 0.271201 0
M  V30 9823 H 955.018 3.15277 1.55862 0
M  V30 9824 H 954.892 2.22733 3.04417 0
M  V30 9825 H 957.279 1.32242 2.63811 0
M  V30 9826 H 957.36 2.28279 1.15422 0
M  V30 9827 H 957.004 4.40227 2.53304 0
M  V30 9828 H 956.934 3.41121 4.01178 0
M  V30 9829 H 959.425 2.74142 2.60105 0
M  V30 9830 H 959.738 6.01816 4.84807 0
M  V30 9831 H 958.083 5.40793 4.36541 0
M  V30 9832 H 961.274 3.4532 3.16025 0
M  V30 9833 H 961.447 4.94727 4.18508 0
M  V30 9834 N 954.853 -1.17469 1.05066 0
M  V30 9835 C 955.803 -2.19388 0.620713 0
M  V30 9836 C 956.787 -1.5722 -0.34214 0
M  V30 9837 O 957.979 -1.76279 -0.159574 0
M  V30 9838 C 955.108 -3.433 -0.00438518 0
M  V30 9839 C 954.194 -4.12569 0.982218 0
M  V30 9840 N 954.585 -4.57683 2.15313 0
M  V30 9841 C 952.883 -4.38575 0.810416 0
M  V30 9842 C 953.584 -5.11124 2.77719 0
M  V30 9843 N 952.56 -5.0325 2.05525 0
M  V30 9844 H 956.362 -2.51971 1.51287 0
M  V30 9845 H 953.876 -1.33784 0.920625 0
M  V30 9846 H 955.873 -4.15591 -0.330161 0
M  V30 9847 H 954.533 -3.12209 -0.89195 0
M  V30 9848 H 955.544 -4.51812 2.53154 0
M  V30 9849 H 952.221 -4.17492 -0.0262078 0
M  V30 9850 H 953.611 -5.56161 3.77008 0
M  V30 9851 N 956.331 -0.831506 -1.3388 0
M  V30 9852 C 957.577 -0.424302 -1.98312 0
M  V30 9853 C 957.91 1.01211 -1.65741 0
M  V30 9854 O 957.185 1.70636 -0.933464 0
M  V30 9855 C 957.468 -0.636815 -3.54424 0
M  V30 9856 C 957.321 -2.11997 -3.96708 0
M  V30 9857 C 958.64 -0.0782411 -4.4003 0
M  V30 9858 H 955.759 -0.155637 -0.720379 0
M  V30 9859 H 958.401 -1.04566 -1.58638 0
M  V30 9860 H 956.551 -0.107907 -3.8835 0
M  V30 9861 H 958.223 -2.71317 -3.73075 0
M  V30 9862 H 956.466 -2.60723 -3.46707 0
M  V30 9863 H 957.137 -2.21944 -5.05416 0
M  V30 9864 H 959.613 -0.530243 -4.12708 0
M  V30 9865 H 958.489 -0.256676 -5.483 0
M  V30 9866 H 958.75 1.01745 -4.30233 0
M  V30 9867 N 957.809 1.4625 -0.587256 0
M  V30 9868 C 959.058 2.01571 -0.0722643 0
M  V30 9869 C 959.371 1.46385 1.29733 0
M  V30 9870 O 960.577 1.93554 1.90392 0
M  V30 9871 C 959.033 3.59814 -0.078579 0
M  V30 9872 C 958.641 4.23996 -1.44678 0
M  V30 9873 C 960.385 4.22776 0.382231 0
M  V30 9874 C 958.292 5.74332 -1.41057 0
M  V30 9875 H 957.222 0.753642 -0.0232461 0
M  V30 9876 H 959.873 1.67936 -0.739577 0
M  V30 9877 H 958.255 3.90546 0.654988 0
M  V30 9878 H 959.429 4.04867 -2.20043 0
M  V30 9879 H 957.744 3.73147 -1.84799 0
M  V30 9880 H 960.341 5.32983 0.428182 0
M  V30 9881 H 960.684 3.92027 1.40072 0
M  V30 9882 H 961.217 3.96687 -0.297417 0
M  V30 9883 H 957.956 6.09747 -2.40601 0
M  V30 9884 H 957.476 5.95711 -0.699185 0
M  V30 9885 H 959.155 6.37137 -1.12543 0
M  V30 9886 N 959.287 0.325282 1.54207 0
M  V30 9887 C 960.512 -0.281418 2.05482 0
M  V30 9888 C 960.937 -1.44869 1.19977 0
M  V30 9889 O 960.295 -1.80088 0.209275 0
M  V30 9890 C 960.343 -0.692029 3.53897 0
M  V30 9891 O 959.447 -1.7942 3.71325 0
M  V30 9892 H 958.788 -0.0504872 0.662078 0
M  V30 9893 H 961.318 0.474191 1.99029 0
M  V30 9894 H 961.328 -0.974219 3.96198 0
M  V30 9895 H 960.003 0.161709 4.15586 0
M  V30 9896 H 958.58 -1.51069 3.40929 0
M  V30 9897 N 960.765 -1.57509 0.0534917 0
M  V30 9898 C 962.011 -1.93068 -0.62069 0
M  V30 9899 C 962.344 -0.932313 -1.70357 0
M  V30 9900 O 961.619 0.0413393 -1.94456 0
M  V30 9901 C 961.902 -3.38997 -1.21463 0
M  V30 9902 C 961.755 -4.49583 -0.13965 0
M  V30 9903 C 963.074 -3.85366 -2.12558 0
M  V30 9904 H 960.193 -0.702083 -0.224163 0
M  V30 9905 H 962.835 -1.89647 0.115729 0
M  V30 9906 H 960.985 -3.42043 -1.84226 0
M  V30 9907 H 962.657 -4.58664 0.492411 0
M  V30 9908 H 960.9 -4.30525 0.532006 0
M  V30 9909 H 961.571 -5.48781 -0.595287 0
M  V30 9910 H 964.047 -3.8421 -1.59755 0
M  V30 9911 H 962.923 -4.8812 -2.51058 0
M  V30 9912 H 963.184 -3.22256 -3.02661 0
M  V30 9913 N 962.243 0.219913 -1.56058 0
M  V30 9914 C 963.193 1.27606 -1.88946 0
M  V30 9915 C 964.177 1.42209 -0.752691 0
M  V30 9916 O 965.369 1.44996 -1.01514 0
M  V30 9917 C 962.498 2.62614 -2.21108 0
M  V30 9918 C 961.584 2.51906 -3.4118 0
M  V30 9919 N 961.975 2.10851 -4.59756 0
M  V30 9920 C 960.273 2.82861 -3.44827 0
M  V30 9921 C 960.974 2.11434 -5.41914 0
M  V30 9922 N 959.95 2.51985 -4.81669 0
M  V30 9923 H 963.752 0.94957 -2.78137 0
M  V30 9924 H 961.266 0.428468 -1.56646 0
M  V30 9925 H 963.263 3.38869 -2.42844 0
M  V30 9926 H 961.923 2.96108 -1.3323 0
M  V30 9927 H 962.934 1.81956 -4.84884 0
M  V30 9928 H 959.611 3.20716 -2.67297 0
M  V30 9929 H 961.001 1.81803 -6.46836 0
M  V30 9930 N 963.721 1.49897 0.486681 0
M  V30 9931 C 964.949 1.63837 1.26353 0
M  V30 9932 C 965.364 0.315428 1.86146 0
M  V30 9933 O 964.721 -0.700831 1.68507 0
M  V30 9934 C 964.772 2.71792 2.38351 0
M  V30 9935 O 964.493 3.98956 1.81013 0
M  V30 9936 C 965.994 2.96566 3.2949 0
M  V30 9937 H 963.214 0.551158 0.382709 0
M  V30 9938 H 965.758 1.96023 0.582694 0
M  V30 9939 H 963.913 2.42344 3.02238 0
M  V30 9940 H 964.327 4.58536 2.54647 0
M  V30 9941 H 965.801 3.75803 4.04322 0
M  V30 9942 H 966.278 2.07031 3.87343 0
M  V30 9943 H 966.884 3.27485 2.71355 0
M  V30 9944 N 965.199 -0.738761 1.39212 0
M  V30 9945 C 966.146 -1.85273 1.37631 0
M  V30 9946 C 967.116 -1.64407 0.236572 0
M  V30 9947 O 968.301 -1.85866 0.431104 0
M  V30 9948 C 965.441 -3.22745 1.22188 0
M  V30 9949 C 964.554 -3.55342 2.45674 0
M  V30 9950 C 963.689 -4.82195 2.22847 0
M  V30 9951 C 962.728 -5.07625 3.42029 0
M  V30 9952 N 961.865 -6.25679 3.18543 0
M  V30 9953 H 966.705 -1.85959 2.32859 0
M  V30 9954 H 964.242 -0.908716 1.15675 0
M  V30 9955 H 966.2 -4.02095 1.11245 0
M  V30 9956 H 964.83 -3.21347 0.30592 0
M  V30 9957 H 963.882 -2.70722 2.67233 0
M  V30 9958 H 965.194 -3.70054 3.34457 0
M  V30 9959 H 964.348 -5.69518 2.09126 0
M  V30 9960 H 963.087 -4.6965 1.31454 0
M  V30 9961 H 962.092 -4.18765 3.56253 0
M  V30 9962 H 963.317 -5.22058 4.34319 0
M  V30 9963 H 961.263 -6.14429 2.2981 0
M  V30 9964 H 961.18 -6.40961 4.0088 0
M  V30 9965 H 962.448 -7.15851 3.08508 0
M  V30 9966 N 966.677 -1.24326 -0.968545 0
M  V30 9967 C 967.954 -0.990459 -1.68669 0
M  V30 9968 C 968.334 0.487487 -2.05394 0
M  V30 9969 O 967.682 1.46158 -1.75642 0
M  V30 9970 C 967.892 -1.91251 -2.91931 0
M  V30 9971 C 969.24 -2.18291 -3.6419 0
M  V30 9972 O 970.264 -1.88897 -3.01987 0
M  V30 9973 O 969.123 -2.68204 -4.76161 0
M  V30 9974 H 966.217 -0.374515 -0.737338 0
M  V30 9975 H 968.763 -1.35421 -1.02271 0
M  V30 9976 H 967.535 -2.9111 -2.61478 0
M  V30 9977 H 967.158 -1.55188 -3.66064 0
M  V30 9978 N 968.156 1.1691 -1.05688 0
M  V30 9979 C 969.386 1.90927 -0.789339 0
M  V30 9980 C 969.794 1.77339 0.659369 0
M  V30 9981 O 969.137 1.11147 1.4626 0
M  V30 9982 C 969.199 3.42361 -1.09677 0
M  V30 9983 C 968.863 3.79733 -2.54267 0
M  V30 9984 C 969.86 3.82163 -3.52487 0
M  V30 9985 C 967.545 4.10547 -2.89406 0
M  V30 9986 C 969.539 4.14884 -4.8389 0
M  V30 9987 C 967.226 4.42936 -4.21011 0
M  V30 9988 C 968.224 4.45084 -5.18063 0
M  V30 9989 O 967.912 4.76707 -6.47307 0
M  V30 9990 H 967.644 0.612466 -0.286115 0
M  V30 9991 H 970.198 1.4916 -1.4121 0
M  V30 9992 H 968.428 3.84446 -0.416924 0
M  V30 9993 H 970.117 3.97645 -0.814456 0
M  V30 9994 H 970.883 3.58476 -3.26681 0
M  V30 9995 H 966.762 4.08044 -2.14525 0
M  V30 9996 H 970.306 4.16475 -5.59638 0
M  V30 9997 H 966.203 4.66088 -4.46579 0
M  V30 9998 H 966.971 4.94544 -6.52203 0
M  V30 9999 N 969.634 0.838594 1.33437 0
M  V30 10000 C 971.045 0.490934 1.8013 0
M  V30 10001 C 971.396 -0.990024 1.6939 0
M  V30 10002 O 970.521 -1.77139 1.24302 0
M  V30 10003 C 971.116 0.884347 3.27055 0
M  V30 10004 C 969.675 0.588829 3.71766 0
M  V30 10005 C 968.822 1.09282 2.54858 0
M  V30 10006 H 971.773 1.02732 1.20962 0
M  V30 10007 H 971.794 0.194283 3.80004 0
M  V30 10008 H 971.306 1.96225 3.34839 0
M  V30 10009 H 969.407 -0.479018 3.69508 0
M  V30 10010 H 969.52 1.14387 4.65245 0
M  V30 10011 H 967.884 0.513702 2.49466 0
M  V30 10012 H 968.667 2.1775 2.65405 0
M  V30 10013 N 971.112 -1.45937 0.595003 0
M  V30 10014 C 972.062 -2.27491 -0.152331 0
M  V30 10015 C 973.046 -1.36591 -0.850396 0
M  V30 10016 O 974.238 -1.60675 -0.742462 0
M  V30 10017 C 971.367 -3.23203 -1.15735 0
M  V30 10018 C 970.453 -4.2159 -0.46077 0
M  V30 10019 N 970.844 -5.03416 0.490555 0
M  V30 10020 C 969.142 -4.40313 -0.709949 0
M  V30 10021 C 969.843 -5.74714 0.898825 0
M  V30 10022 N 968.819 -5.43046 0.24529 0
M  V30 10023 H 972.621 -2.8815 0.578526 0
M  V30 10024 H 970.135 -1.56936 0.417716 0
M  V30 10025 H 972.132 -3.8035 -1.70704 0
M  V30 10026 H 970.792 -2.64104 -1.8889 0
M  V30 10027 H 971.803 -5.10597 0.866692 0
M  V30 10028 H 968.48 -3.92351 -1.42713 0
M  V30 10029 H 969.87 -6.50487 1.68273 0
M  V30 10030 N 972.59 -0.333456 -1.54032 0
M  V30 10031 C 973.537 0.527981 -2.2468 0
M  V30 10032 C 974.507 1.10371 -1.24127 0
M  V30 10033 O 975.692 1.14221 -1.52834 0
M  V30 10034 C 972.832 1.67808 -3.01553 0
M  V30 10035 C 971.945 1.13064 -4.16942 0
M  V30 10036 C 971.08 2.24722 -4.81325 0
M  V30 10037 C 970.119 1.67277 -5.88799 0
M  V30 10038 N 969.256 2.72638 -6.47003 0
M  V30 10039 H 974.096 -0.0810308 -2.9789 0
M  V30 10040 H 971.633 -0.051761 -1.47009 0
M  V30 10041 H 973.591 2.35502 -3.44376 0
M  V30 10042 H 972.221 2.25823 -2.30659 0
M  V30 10043 H 971.273 0.344948 -3.78833 0
M  V30 10044 H 972.585 0.670373 -4.94275 0
M  V30 10045 H 971.739 3.00301 -5.27166 0
M  V30 10046 H 970.478 2.74089 -4.03394 0
M  V30 10047 H 969.483 0.902002 -5.4235 0
M  V30 10048 H 970.708 1.18775 -6.68632 0
M  V30 10049 H 968.654 3.21277 -5.71941 0
M  V30 10050 H 968.571 2.31204 -7.19778 0
M  V30 10051 H 969.839 3.48015 -6.97499 0
M  V30 10052 N 974.068 1.57479 -0.061844 0
M  V30 10053 C 975.308 1.94982 0.613309 0
M  V30 10054 C 975.672 0.940729 1.67375 0
M  V30 10055 O 976.873 1.20307 2.40374 0
M  V30 10056 C 975.144 3.37208 1.18429 0
M  V30 10057 S 976.703 3.96678 1.87596 0
M  V30 10058 H 973.521 0.681969 0.201096 0
M  V30 10059 H 976.123 1.95045 -0.133328 0
M  V30 10060 H 974.827 4.08441 0.400522 0
M  V30 10061 H 974.358 3.40665 1.96751 0
M  V30 10062 H 976.373 3.82772 3.15754 0
M  V30 10063 N 975.546 -0.211634 1.56173 0
M  V30 10064 C 976.456 -1.2831 1.96402 0
M  V30 10065 C 977.472 -1.50731 0.869254 0
M  V30 10066 O 978.648 -1.63669 1.17365 0
M  V30 10067 C 975.713 -2.61084 2.28114 0
M  V30 10068 C 974.774 -2.46879 3.51211 0
M  V30 10069 C 974.007 -3.73321 3.81401 0
M  V30 10070 O 974.23 -4.76773 3.13119 0
M  V30 10071 O 973.164 -3.69839 4.74871 0
M  V30 10072 H 976.99 -0.971733 2.87734 0
M  V30 10073 H 974.575 -0.415305 1.43512 0
M  V30 10074 H 976.457 -3.39481 2.49661 0
M  V30 10075 H 975.132 -2.91881 1.39954 0
M  V30 10076 H 974.039 -1.66648 3.34932 0
M  V30 10077 H 975.372 -2.21018 4.39786 0
M  V30 10078 N 977.024 -1.50153 -0.478725 0
M  V30 10079 C 977.957 -1.63089 -1.59616 0
M  V30 10080 C 978.935 -0.479211 -1.55378 0
M  V30 10081 O 980.119 -0.697715 -1.75112 0
M  V30 10082 C 977.246 -1.60643 -2.9818 0
M  V30 10083 C 976.292 -2.81279 -3.206 0
M  V30 10084 S 977.125 -4.42681 -3.0132 0
M  V30 10085 C 978.281 -4.42915 -4.42241 0
M  V30 10086 H 978.514 -2.57612 -1.48402 0
M  V30 10087 H 976.047 -1.39321 -0.665513 0
M  V30 10088 H 978.005 -1.59917 -3.7807 0
M  V30 10089 H 976.666 -0.673684 -3.0679 0
M  V30 10090 H 975.859 -2.7585 -4.21809 0
M  V30 10091 H 975.461 -2.79533 -2.4847 0
M  V30 10092 H 977.753 -4.16007 -5.34737 0
M  V30 10093 H 978.696 -5.44477 -4.52715 0
M  V30 10094 H 979.104 -3.72715 -4.23962 0
M  V30 10095 N 978.502 0.731368 -1.39602 0
M  V30 10096 C 979.742 1.5036 -1.3846 0
M  V30 10097 C 980.106 1.91991 0.018784 0
M  V30 10098 O 981.307 2.68351 0.155236 0
M  V30 10099 C 979.578 2.70755 -2.33295 0
M  V30 10100 S 981.137 3.6036 -2.50372 0
M  V30 10101 H 977.955 0.514271 -0.490964 0
M  V30 10102 H 980.557 0.856654 -1.75732 0
M  V30 10103 H 979.261 2.38316 -3.34116 0
M  V30 10104 H 978.792 3.40376 -1.97251 0
M  V30 10105 H 980.807 4.64529 -1.74435 0
M  V30 10106 N 979.98 1.24838 0.961938 0
M  V30 10107 C 980.89 1.06304 2.09133 0
M  V30 10108 C 981.906 0.00221475 1.74 0
M  V30 10109 O 983.082 0.201611 2.00388 0
M  V30 10110 C 980.147 0.676117 3.40043 0
M  V30 10111 C 979.208 1.81407 3.89089 0
M  V30 10112 C 978.441 1.44551 5.13752 0
M  V30 10113 O 978.664 0.337894 5.69398 0
M  V30 10114 O 977.598 2.27316 5.57325 0
M  V30 10115 H 981.424 2.01001 2.27667 0
M  V30 10116 H 979.009 1.0371 1.07539 0
M  V30 10117 H 980.891 0.472124 4.18747 0
M  V30 10118 H 979.566 -0.241667 3.22797 0
M  V30 10119 H 978.473 2.07286 3.11421 0
M  V30 10120 H 979.806 2.71083 4.10822 0
M  V30 10121 N 981.458 -1.16348 1.06306 0
M  V30 10122 C 982.405 -2.20741 0.673962 0
M  V30 10123 C 983.375 -1.628 -0.329454 0
M  V30 10124 O 984.56 -1.89547 -0.218313 0
M  V30 10125 C 981.7 -3.45036 0.0667008 0
M  V30 10126 C 980.813 -4.17221 1.12031 0
M  V30 10127 C 979.948 -5.29034 0.479176 0
M  V30 10128 C 978.987 -5.93021 1.51631 0
M  V30 10129 N 978.124 -6.96327 0.898528 0
M  V30 10130 H 982.964 -2.53376 1.56859 0
M  V30 10131 H 980.501 -1.24449 0.784276 0
M  V30 10132 H 982.459 -4.16099 -0.302916 0
M  V30 10133 H 981.089 -3.1295 -0.791333 0
M  V30 10134 H 980.141 -3.4476 1.60763 0
M  V30 10135 H 981.453 -4.60902 1.90712 0
M  V30 10136 H 980.607 -6.06674 0.0565993 0
M  V30 10137 H 979.346 -4.86517 -0.33951 0
M  V30 10138 H 978.351 -5.14104 1.94878 0
M  V30 10139 H 979.576 -6.37618 2.3371 0
M  V30 10140 H 977.522 -6.55923 0.100555 0
M  V30 10141 H 977.439 -7.38379 1.62272 0
M  V30 10142 H 978.707 -7.77888 0.5011 0
M  V30 10143 N 982.937 -0.845659 -1.3299 0
M  V30 10144 C 984.185 -0.443774 -1.97168 0
M  V30 10145 C 984.506 1.00192 -1.67292 0
M  V30 10146 O 983.776 1.69891 -0.975397 0
M  V30 10147 H 982.356 -0.161111 -0.729419 0
M  V30 10148 H 985.018 -1.08011 -1.62233 0
M  V30 10149 H 984.114 -0.581414 -3.06637 0
M  V30 10150 N 984.415 1.45619 -0.602734 0
M  V30 10151 C 985.662 2.02272 -0.0960337 0
M  V30 10152 C 985.99 1.47177 1.27159 0
M  V30 10153 O 985.245 0.634593 1.85125 0
M  V30 10154 C 985.544 3.574 -0.00157909 0
M  V30 10155 C 985.21 4.31626 -1.30422 0
M  V30 10156 C 983.872 4.51622 -1.66106 0
M  V30 10157 C 986.224 4.74091 -2.16535 0
M  V30 10158 C 983.552 5.11338 -2.87663 0
M  V30 10159 C 985.904 5.35151 -3.37336 0
M  V30 10160 C 984.568 5.53371 -3.73278 0
M  V30 10161 H 983.838 0.740166 -0.0351412 0
M  V30 10162 H 986.485 1.74744 -0.783382 0
M  V30 10163 H 984.79 3.84179 0.769008 0
M  V30 10164 H 986.487 3.98934 0.406549 0
M  V30 10165 H 983.077 4.16372 -1.01647 0
M  V30 10166 H 987.261 4.5838 -1.90266 0
M  V30 10167 H 982.517 5.23634 -3.15622 0
M  V30 10168 H 986.691 5.67011 -4.04316 0
M  V30 10169 H 984.318 5.99412 -4.67556 0
M  V30 10170 N 985.893 0.34162 1.53853 0
M  V30 10171 C 986.843 -0.531995 2.21707 0
M  V30 10172 C 987.827 -1.06759 1.2038 0
M  V30 10173 O 989.019 -1.00161 1.45934 0
M  V30 10174 C 986.148 -1.6834 2.99193 0
M  V30 10175 C 985.234 -1.16184 4.07875 0
M  V30 10176 N 985.625 -0.361348 5.04508 0
M  V30 10177 C 983.923 -1.43891 4.22151 0
M  V30 10178 C 984.624 -0.0785378 5.81647 0
M  V30 10179 N 983.6 -0.669651 5.3946 0
M  V30 10180 H 987.402 0.0866825 2.93772 0
M  V30 10181 H 984.916 0.148386 1.61721 0
M  V30 10182 H 986.913 -2.32121 3.46303 0
M  V30 10183 H 985.573 -2.30538 2.28653 0
M  V30 10184 H 986.584 -0.00259906 5.179 0
M  V30 10185 H 983.261 -2.06542 3.62832 0
M  V30 10186 H 984.651 0.567068 6.69503 0
M  V30 10187 N 987.371 -1.57444 0.0701946 0
M  V30 10188 C 988.787 -1.57009 -0.286431 0
M  V30 10189 C 988.987 -1.07946 -1.70147 0
M  V30 10190 O 988.043 -0.744622 -2.41271 0
M  V30 10191 C 989.356 -3.00542 -0.0975466 0
M  V30 10192 C 990.904 -3.12553 -0.167205 0
M  V30 10193 C 991.379 -4.58 -0.00662047 0
M  V30 10194 N 992.87 -4.63158 -0.0622778 0
M  V30 10195 C 993.605 -5.73388 0.0375831 0
M  V30 10196 N 993.101 -6.92537 0.190873 0
M  V30 10197 N 994.894 -5.62097 -0.0193672 0
M  V30 10198 H 987.045 -1.87651 0.995023 0
M  V30 10199 H 989.308 -0.865006 0.387902 0
M  V30 10200 H 989.014 -3.40543 0.878822 0
M  V30 10201 H 988.888 -3.67485 -0.850547 0
M  V30 10202 H 991.275 -2.72439 -1.13406 0
M  V30 10203 H 991.356 -2.48251 0.616871 0
M  V30 10204 H 991 -4.98803 0.956992 0
M  V30 10205 H 990.93 -5.20332 -0.810081 0
M  V30 10206 H 993.421 -3.77475 -0.179229 0
M  V30 10207 H 993.734 -7.72365 0.25926 0
M  V30 10208 H 992.079 -6.94632 0.226214 0
M  V30 10209 H 995.27 -4.67897 -0.137815 0
M  V30 10210 H 995.443 -6.4797 0.0619121 0
M  V30 10211 N 988.849 0.203349 -1.56283 0
M  V30 10212 C 990.26 0.768764 -1.70138 0
M  V30 10213 C 990.611 1.8421 -0.675358 0
M  V30 10214 O 989.736 2.15732 0.1699 0
M  V30 10215 C 990.331 1.40123 -3.08466 0
M  V30 10216 C 988.89 1.91382 -3.24114 0
M  V30 10217 C 988.037 0.780685 -2.66084 0
M  V30 10218 H 990.988 -0.0215997 -1.58685 0
M  V30 10219 H 991.009 2.27046 -3.05336 0
M  V30 10220 H 990.521 0.619805 -3.83119 0
M  V30 10221 H 988.622 2.7227 -2.54362 0
M  V30 10222 H 988.735 2.08128 -4.31531 0
M  V30 10223 H 987.099 1.19281 -2.25042 0
M  V30 10224 H 987.882 0.0116351 -3.43298 0
M  V30 10225 N 990.327 1.50405 0.470755 0
M  V30 10226 C 991.552 1.65442 1.25075 0
M  V30 10227 C 991.977 0.337612 1.85045 0
M  V30 10228 O 991.335 -0.698555 1.67302 0
M  V30 10229 C 991.383 2.74793 2.33498 0
M  V30 10230 O 990.487 2.36069 3.3815 0
M  V30 10231 H 989.828 0.552728 0.367951 0
M  V30 10232 H 992.358 1.96782 0.560177 0
M  V30 10233 H 992.368 2.97879 2.78804 0
M  V30 10234 H 991.043 3.70363 1.8922 0
M  V30 10235 H 989.62 2.2343 2.98552 0
M  V30 10236 N 991.805 -0.723954 1.39988 0
M  V30 10237 C 992.715 -1.86829 1.41887 0
M  V30 10238 C 993.731 -1.71173 0.312401 0
M  V30 10239 O 994.907 -1.93583 0.555651 0
M  V30 10240 C 991.972 -3.22541 1.27154 0
M  V30 10241 C 991.033 -3.50512 2.47871 0
M  V30 10242 C 990.266 -4.79749 2.33831 0
M  V30 10243 O 990.489 -5.54251 1.34765 0
M  V30 10244 O 989.423 -5.07868 3.23039 0
M  V30 10245 H 993.249 -1.88183 2.38371 0
M  V30 10246 H 990.834 -0.873259 1.21221 0
M  V30 10247 H 992.716 -4.0362 1.21114 0
M  V30 10248 H 991.391 -3.21933 0.337715 0
M  V30 10249 H 990.298 -2.69475 2.59488 0
M  V30 10250 H 991.631 -3.55909 3.39985 0
M  V30 10251 N 993.283 -1.25346 -0.955304 0
M  V30 10252 C 994.213 -1.08152 -2.06943 0
M  V30 10253 C 995.194 0.00922598 -1.70097 0
M  V30 10254 O 996.379 -0.160181 -1.93538 0
M  V30 10255 C 993.509 -0.698745 -3.40198 0
M  V30 10256 C 992.463 -1.73965 -3.9105 0
M  V30 10257 C 991.789 -1.21158 -5.20792 0
M  V30 10258 C 993.089 -3.13829 -4.17503 0
M  V30 10259 H 994.783 -2.01345 -2.21586 0
M  V30 10260 H 992.329 -0.969459 -1.06478 0
M  V30 10261 H 994.282 -0.565394 -4.1759 0
M  V30 10262 H 993.006 0.268892 -3.25491 0
M  V30 10263 H 991.665 -1.86143 -3.15827 0
M  V30 10264 H 991.313 -0.234193 -5.02455 0
M  V30 10265 H 991.013 -1.90728 -5.55785 0
M  V30 10266 H 992.537 -1.09061 -6.00781 0
M  V30 10267 H 993.951 -3.04809 -4.85556 0
M  V30 10268 H 992.348 -3.80863 -4.63749 0
M  V30 10269 H 993.418 -3.6094 -3.23806 0
M  V30 10270 N 994.761 1.15782 -1.06922 0
M  V30 10271 C 995.708 2.2038 -0.685659 0
M  V30 10272 C 996.678 1.62972 0.320816 0
M  V30 10273 O 997.863 1.8966 0.208258 0
M  V30 10274 C 995.003 3.44995 -0.084998 0
M  V30 10275 C 994.116 4.16621 -1.14242 0
M  V30 10276 C 993.251 5.28773 -0.507226 0
M  V30 10277 C 992.29 5.92209 -1.54774 0
M  V30 10278 N 991.427 6.9584 -0.935443 0
M  V30 10279 H 996.267 2.5254 -1.58201 0
M  V30 10280 H 993.804 1.24031 -0.790864 0
M  V30 10281 H 995.762 4.16254 0.280845 0
M  V30 10282 H 994.392 3.13365 0.774725 0
M  V30 10283 H 993.444 3.43903 -1.62589 0
M  V30 10284 H 994.756 4.59884 -1.93154 0
M  V30 10285 H 993.91 6.06635 -0.0887719 0
M  V30 10286 H 992.649 4.8669 0.313704 0
M  V30 10287 H 991.654 5.13063 -1.97602 0
M  V30 10288 H 992.879 6.3637 -2.37088 0
M  V30 10289 H 990.825 6.5586 -0.135339 0
M  V30 10290 H 990.742 7.37508 -1.66186 0
M  V30 10291 H 992.01 7.77611 -0.542346 0
M  V30 10292 N 996.239 0.8527 1.3254 0
M  V30 10293 C 997.186 0.293905 2.28921 0
M  V30 10294 C 998.156 -0.598027 1.54961 0
M  V30 10295 O 999.341 -0.533355 1.83194 0
M  V30 10296 C 996.481 -0.513361 3.4126 0
M  V30 10297 C 995.594 0.404144 4.30105 0
M  V30 10298 C 994.729 -0.415564 5.29572 0
M  V30 10299 C 993.768 0.499461 6.10059 0
M  V30 10300 N 992.905 -0.282949 7.0153 0
M  V30 10301 H 997.745 1.12107 2.76109 0
M  V30 10302 H 995.282 0.564272 1.35847 0
M  V30 10303 H 997.24 -0.997008 4.05112 0
M  V30 10304 H 995.87 -1.30537 2.95229 0
M  V30 10305 H 994.922 1.00617 3.66852 0
M  V30 10306 H 996.234 1.10648 4.86373 0
M  V30 10307 H 995.388 -0.962458 5.99017 0
M  V30 10308 H 994.127 -1.15127 4.73917 0
M  V30 10309 H 993.132 1.05825 5.39519 0
M  V30 10310 H 994.357 1.23375 6.67799 0
M  V30 10311 H 992.303 -1.00179 6.48306 0
M  V30 10312 H 992.22 0.36039 7.55141 0
M  V30 10313 H 993.488 -0.811632 7.75263 0
M  V30 10314 N 997.718 -1.45297 0.610449 0
M  V30 10315 C 998.668 -2.27639 -0.128194 0
M  V30 10316 C 999.652 -1.37485 -0.835861 0
M  V30 10317 O 1000.84 -1.61454 -0.725378 0
M  V30 10318 C 997.973 -3.24413 -1.123 0
M  V30 10319 C 997.059 -4.22055 -0.416029 0
M  V30 10320 N 997.45 -5.02867 0.543921 0
M  V30 10321 C 995.748 -4.41041 -0.663208 0
M  V30 10322 C 996.449 -5.73728 0.959731 0
M  V30 10323 N 995.425 -5.42756 0.302873 0
M  V30 10324 H 999.227 -2.8752 0.609056 0
M  V30 10325 H 996.741 -1.56484 0.434338 0
M  V30 10326 H 998.738 -3.82139 -1.6666 0
M  V30 10327 H 997.398 -2.66092 -1.86078 0
M  V30 10328 H 998.409 -5.09649 0.920799 0
M  V30 10329 H 995.086 -3.93842 -1.38544 0
M  V30 10330 H 996.476 -6.48666 1.75163 0
M  V30 10331 N 999.196 -0.349774 -1.5367 0
M  V30 10332 C 1000.44 0.245189 -2.01312 0
M  V30 10333 C 1000.77 1.49702 -1.23705 0
M  V30 10334 O 1000.05 1.91742 -0.326371 0
M  V30 10335 C 1000.33 0.553071 -3.55827 0
M  V30 10336 C 1000.19 -0.71129 -4.4414 0
M  V30 10337 C 1001.5 1.36015 -4.18555 0
M  V30 10338 H 998.624 0.0876415 -0.73177 0
M  V30 10339 H 1001.27 -0.471543 -1.84056 0
M  V30 10340 H 999.416 1.16367 -3.70663 0
M  V30 10341 H 1001.09 -1.34913 -4.41131 0
M  V30 10342 H 999.331 -1.33491 -4.1275 0
M  V30 10343 H 1000 -0.45104 -5.50154 0
M  V30 10344 H 1002.48 0.843778 -4.07455 0
M  V30 10345 H 1001.35 1.54432 -5.26728 0
M  V30 10346 H 1001.61 2.36408 -3.73582 0
M  V30 10347 N 1000.67 1.57404 -0.0785433 0
M  V30 10348 C 1001.64 2.11977 0.871693 0
M  V30 10349 C 1002.64 1.04529 1.2219 0
M  V30 10350 O 1003.83 1.30488 1.15406 0
M  V30 10351 C 1000.96 2.6267 2.17296 0
M  V30 10352 H 1002.15 2.97246 0.398115 0
M  V30 10353 H 999.705 1.5537 0.170251 0
M  V30 10354 H 1000.44 1.80873 2.69175 0
M  V30 10355 H 1000.22 3.41214 1.93171 0
M  V30 10356 H 1001.71 3.04943 2.85306 0
M  V30 10357 N 1002.15 -0.195058 1.56388 0
M  V30 10358 C 1003.4 -0.9168 1.80894 0
M  V30 10359 C 1003.73 -1.82907 0.652592 0
M  V30 10360 O 1003.01 -1.91382 -0.346853 0
M  V30 10361 C 1003.29 -1.733 3.15657 0
M  V30 10362 C 1003.14 -0.845449 4.41783 0
M  V30 10363 C 1004.46 -2.70557 3.47112 0
M  V30 10364 H 1001.58 -0.331861 0.658056 0
M  V30 10365 H 1004.22 -0.184174 1.89105 0
M  V30 10366 H 1002.37 -2.3576 3.08787 0
M  V30 10367 H 1004.04 -0.235557 4.60698 0
M  V30 10368 H 1002.29 -0.152172 4.33533 0
M  V30 10369 H 1002.96 -1.45152 5.32574 0
M  V30 10370 H 1005.43 -2.1823 3.54281 0
M  V30 10371 H 1004.31 -3.24749 4.42526 0
M  V30 10372 H 1004.57 -3.49605 2.70608 0
M  V30 10373 N 1003.63 -1.50653 -0.462772 0
M  V30 10374 C 1004.58 -1.66509 -1.55752 0
M  V30 10375 C 1005.56 -0.519508 -1.52282 0
M  V30 10376 O 1006.76 -0.774296 -1.59166 0
M  V30 10377 C 1003.88 -1.77023 -2.94139 0
M  V30 10378 C 1002.97 -2.97284 -3.02461 0
M  V30 10379 N 1003.36 -4.20843 -2.80579 0
M  V30 10380 C 1001.66 -2.96014 -3.33604 0
M  V30 10381 C 1002.36 -5.01886 -2.94084 0
M  V30 10382 N 1001.34 -4.3601 -3.24648 0
M  V30 10383 H 1005.14 -2.59727 -1.37546 0
M  V30 10384 H 1002.65 -1.47951 -0.669653 0
M  V30 10385 H 1004.65 -1.86488 -3.72864 0
M  V30 10386 H 1003.31 -0.849688 -3.13385 0
M  V30 10387 H 1004.32 -4.50206 -2.55998 0
M  V30 10388 H 1001 -2.13493 -3.58786 0
M  V30 10389 H 1002.39 -6.10164 -2.81334 0
M  V30 10390 N 1005.11 0.71652 -1.4037 0
M  V30 10391 C 1006.06 1.8306 -1.40562 0
M  V30 10392 C 1007.03 1.64009 -0.262697 0
M  V30 10393 O 1008.21 1.85157 -0.460619 0
M  V30 10394 C 1005.35 3.2076 -1.27307 0
M  V30 10395 C 1004.46 3.51389 -2.51296 0
M  V30 10396 C 1003.6 4.78589 -2.30491 0
M  V30 10397 C 1002.64 5.02119 -3.50061 0
M  V30 10398 N 1001.77 6.20533 -3.28457 0
M  V30 10399 H 1006.61 1.82231 -2.35788 0
M  V30 10400 H 1004.15 0.890198 -1.17106 0
M  V30 10401 H 1006.11 4.00274 -1.17628 0
M  V30 10402 H 1004.74 3.2082 -0.357005 0
M  V30 10403 H 1003.79 2.66436 -2.71507 0
M  V30 10404 H 1005.1 3.64686 -3.40302 0
M  V30 10405 H 1004.26 5.66119 -2.1816 0
M  V30 10406 H 1003 4.67499 -1.38909 0
M  V30 10407 H 1002 4.13044 -3.6287 0
M  V30 10408 H 1003.23 5.15082 -4.42569 0
M  V30 10409 H 1001.17 6.10695 -2.39556 0
M  V30 10410 H 1001.09 6.34502 -4.11027 0
M  V30 10411 H 1002.36 7.10853 -3.19857 0
M  V30 10412 N 1006.59 1.25851 0.948643 0
M  V30 10413 C 1007.83 1.10735 1.69062 0
M  V30 10414 C 1008.16 -0.351257 1.9181 0
M  V30 10415 O 1007.43 -1.24867 1.50947 0
M  V30 10416 H 1006.01 0.406796 0.626519 0
M  V30 10417 H 1008.67 1.58066 1.14022 0
M  V30 10418 H 1007.76 1.62033 2.66743 0
M  V30 10419 N 1008.06 -1.15214 1.07534 0
M  V30 10420 C 1009.01 -2.20013 0.697337 0
M  V30 10421 C 1009.98 -1.6314 -0.312168 0
M  V30 10422 O 1011.17 -1.89768 -0.198196 0
M  V30 10423 C 1008.31 -3.44945 0.103293 0
M  V30 10424 C 1007.42 -4.16009 1.1645 0
M  V30 10425 C 1006.55 -5.28496 0.535261 0
M  V30 10426 C 1005.59 -5.9138 1.57912 0
M  V30 10427 N 1004.73 -6.95335 0.972332 0
M  V30 10428 H 1009.57 -2.51698 1.59538 0
M  V30 10429 H 1007.11 -1.2361 0.797431 0
M  V30 10430 H 1009.07 -4.16397 -0.258766 0
M  V30 10431 H 1007.7 -3.13772 -0.758096 0
M  V30 10432 H 1006.75 -3.43035 1.64411 0
M  V30 10433 H 1008.06 -4.58853 1.9559 0
M  V30 10434 H 1007.21 -6.06579 0.120942 0
M  V30 10435 H 1005.95 -4.8685 -0.287889 0
M  V30 10436 H 1004.96 -5.12008 2.0032 0
M  V30 10437 H 1006.18 -6.35103 2.40459 0
M  V30 10438 H 1004.13 -6.55779 0.170119 0
M  V30 10439 H 1004.05 -7.36616 1.70095 0
M  V30 10440 H 1005.31 -7.77312 0.583577 0
M  V30 10441 N 1009.54 -0.859717 -1.32086 0
M  V30 10442 C 1010.49 -0.306042 -2.28762 0
M  V30 10443 C 1011.46 0.589801 -1.55276 0
M  V30 10444 O 1012.64 0.523633 -1.83474 0
M  V30 10445 C 1009.78 0.495256 -3.41528 0
M  V30 10446 C 1008.9 -0.426947 -4.29885 0
M  V30 10447 C 1008.03 0.387474 -5.29785 0
M  V30 10448 C 1007.07 -0.531807 -6.09785 0
M  V30 10449 N 1006.21 0.245741 -7.0167 0
M  V30 10450 H 1011.05 -1.1357 -2.7551 0
M  V30 10451 H 1008.59 -0.571468 -1.35546 0
M  V30 10452 H 1010.54 0.97551 -4.05635 0
M  V30 10453 H 1009.17 1.28969 -2.95917 0
M  V30 10454 H 1008.23 -1.02561 -3.66313 0
M  V30 10455 H 1009.54 -1.13226 -4.85779 0
M  V30 10456 H 1008.69 0.930677 -5.99519 0
M  V30 10457 H 1007.43 1.12612 -4.74521 0
M  V30 10458 H 1006.44 -1.08685 -5.3895 0
M  V30 10459 H 1007.66 -1.26915 -6.67135 0
M  V30 10460 H 1005.61 0.967391 -6.48828 0
M  V30 10461 H 1005.52 -0.400432 -7.54939 0
M  V30 10462 H 1006.79 0.770507 -7.75683 0
M  V30 10463 N 1011.02 1.44971 -0.618145 0
M  V30 10464 C 1011.95 2.27748 0.143561 0
M  V30 10465 C 1012.93 1.37768 0.863642 0
M  V30 10466 O 1014.12 1.67203 0.870373 0
M  V30 10467 C 1011.24 3.16394 1.20883 0
M  V30 10468 C 1010.29 4.22389 0.590724 0
M  V30 10469 S 1011.12 5.32021 -0.609406 0
M  V30 10470 C 1012.28 6.24235 0.456199 0
M  V30 10471 H 1012.51 2.92003 -0.558699 0
M  V30 10472 H 1010.04 1.48968 -0.40595 0
M  V30 10473 H 1012 3.6802 1.81855 0
M  V30 10474 H 1010.66 2.51384 1.88322 0
M  V30 10475 H 1009.86 4.84379 1.3926 0
M  V30 10476 H 1009.46 3.73958 0.055917 0
M  V30 10477 H 1011.75 6.64269 1.33238 0
M  V30 10478 H 1012.69 7.07985 -0.127794 0
M  V30 10479 H 1013.1 5.59137 0.776269 0
M  V30 10480 N 1012.5 0.357919 1.53482 0
M  V30 10481 C 1013.45 -0.50845 2.22258 0
M  V30 10482 C 1014.43 -1.05476 1.21506 0
M  V30 10483 O 1015.62 -0.986075 1.46988 0
M  V30 10484 C 1012.75 -1.65157 3.00962 0
M  V30 10485 C 1011.84 -1.11851 4.09084 0
M  V30 10486 N 1012.23 -0.307818 5.04862 0
M  V30 10487 C 1010.53 -1.39405 4.23653 0
M  V30 10488 C 1011.23 -0.016842 5.81698 0
M  V30 10489 N 1010.21 -0.612396 5.40139 0
M  V30 10490 H 1014.01 0.117836 2.93664 0
M  V30 10491 H 1011.52 0.16553 1.61554 0
M  V30 10492 H 1013.52 -2.28435 3.48745 0
M  V30 10493 H 1012.18 -2.281 2.31086 0
M  V30 10494 H 1013.19 0.0523313 5.17874 0
M  V30 10495 H 1009.87 -2.02682 3.65002 0
M  V30 10496 H 1011.26 0.638046 6.68864 0
M  V30 10497 N 1013.98 -1.5736 0.0868897 0
M  V30 10498 C 1014.91 -2.10582 -0.904858 0
M  V30 10499 C 1015.92 -1.04124 -1.25148 0
M  V30 10500 O 1017.11 -1.31595 -1.20603 0
M  V30 10501 C 1014.21 -2.56381 -2.21635 0
M  V30 10502 C 1013.38 -3.86581 -2.04631 0
M  V30 10503 C 1012.44 -4.18313 -3.19219 0
M  V30 10504 O 1011.47 -4.87669 -2.93544 0
M  V30 10505 N 1012.67 -3.73061 -4.44754 0
M  V30 10506 H 1015.44 -2.96297 -0.450352 0
M  V30 10507 H 1013 -1.616 -0.0984376 0
M  V30 10508 H 1014.99 -2.7466 -2.97227 0
M  V30 10509 H 1013.56 -1.75721 -2.58536 0
M  V30 10510 H 1012.78 -3.77532 -1.13417 0
M  V30 10511 H 1014.07 -4.71777 -1.90537 0
M  V30 10512 H 1013.46 -3.1706 -4.68497 0
M  V30 10513 H 1012.02 -3.96511 -5.17322 0
M  V30 10514 N 1015.45 0.186762 -1.56489 0
M  V30 10515 C 1016.69 0.912523 -1.829 0
M  V30 10516 C 1017.06 1.80094 -0.665598 0
M  V30 10517 O 1018.26 2.56312 -0.809787 0
M  V30 10518 C 1016.53 1.70022 -3.14368 0
M  V30 10519 S 1018.09 2.47686 -3.62211 0
M  V30 10520 H 1014.91 0.305916 -0.641823 0
M  V30 10521 H 1017.51 0.175289 -1.94713 0
M  V30 10522 H 1016.21 1.03832 -3.97048 0
M  V30 10523 H 1015.74 2.47912 -3.05456 0
M  V30 10524 H 1017.76 3.72058 -3.28309 0
M  V30 10525 N 1016.93 1.50896 0.454776 0
M  V30 10526 C 1018.35 1.38684 0.78987 0
M  V30 10527 C 1018.55 0.455587 1.96282 0
M  V30 10528 O 1017.6 -0.0957503 2.52318 0
M  V30 10529 C 1018.92 2.80381 1.08661 0
M  V30 10530 C 1020.47 2.8941 1.19209 0
M  V30 10531 C 1020.94 4.31976 1.52187 0
M  V30 10532 N 1022.43 4.35002 1.59146 0
M  V30 10533 C 1023.17 5.42326 1.862 0
M  V30 10534 N 1022.66 6.59835 2.11164 0
M  V30 10535 N 1024.46 5.29786 1.87838 0
M  V30 10536 H 1016.61 2.10006 -0.317981 0
M  V30 10537 H 1018.87 0.944636 -0.0797969 0
M  V30 10538 H 1018.58 3.50438 0.297626 0
M  V30 10539 H 1018.45 3.18634 2.01872 0
M  V30 10540 H 1020.84 2.19561 1.97173 0
M  V30 10541 H 1020.92 2.54677 0.239401 0
M  V30 10542 H 1020.56 5.02368 0.747576 0
M  V30 10543 H 1020.49 4.64208 2.48633 0
M  V30 10544 H 1022.98 3.50276 1.41828 0
M  V30 10545 H 1023.3 7.37428 2.31128 0
M  V30 10546 H 1021.64 6.62981 2.08522 0
M  V30 10547 H 1024.83 4.36974 1.67843 0
M  V30 10548 H 1025 6.13511 2.08585 0
M  V30 10549 N 1018.41 -0.709066 1.40748 0
M  V30 10550 C 1019.36 -1.8149 1.38005 0
M  V30 10551 C 1020.34 -1.58842 0.256544 0
M  V30 10552 O 1021.54 -1.69904 0.496164 0
M  V30 10553 C 1018.67 -3.19678 1.25143 0
M  V30 10554 C 1017.75 -3.48067 2.42301 0
M  V30 10555 N 1018.14 -3.47234 3.6778 0
M  V30 10556 C 1016.44 -3.78555 2.35822 0
M  V30 10557 C 1017.14 -3.74149 4.45407 0
M  V30 10558 N 1016.12 -3.93224 3.75335 0
M  V30 10559 H 1019.92 -1.79188 2.32957 0
M  V30 10560 H 1017.43 -0.908477 1.34612 0
M  V30 10561 H 1019.43 -3.98875 1.2126 0
M  V30 10562 H 1018.09 -3.23201 0.311642 0
M  V30 10563 H 1019.1 -3.2793 4.00852 0
M  V30 10564 H 1015.78 -3.89529 1.50245 0
M  V30 10565 H 1017.17 -3.79755 5.54289 0
M  V30 10566 N 1019.89 -1.26353 -0.941956 0
M  V30 10567 C 1021.13 -1.13071 -1.70277 0
M  V30 10568 C 1021.49 0.320699 -1.89303 0
M  V30 10569 O 1022.69 0.575624 -2.62564 0
M  V30 10570 C 1020.97 -1.87777 -3.04096 0
M  V30 10571 S 1022.52 -1.9054 -3.95272 0
M  V30 10572 H 1019.34 -0.403912 -0.585129 0
M  V30 10573 H 1021.94 -1.6006 -1.12254 0
M  V30 10574 H 1020.65 -2.92447 -2.87929 0
M  V30 10575 H 1020.18 -1.41226 -3.67177 0
M  V30 10576 H 1022.19 -0.991548 -4.86192 0
M  V30 10577 N 1021.37 1.14642 -1.08144 0
M  V30 10578 C 1022.64 1.81774 -0.72232 0
M  V30 10579 C 1023.02 1.95587 0.794294 0
M  V30 10580 O 1022.37 1.51361 1.71178 0
M  V30 10581 C 1022.58 3.1763 -1.44611 0
M  V30 10582 C 1023.93 3.93161 -1.60343 0
M  V30 10583 O 1024.95 3.2721 -1.40755 0
M  V30 10584 O 1023.81 5.11422 -1.9264 0
M  V30 10585 H 1020.91 0.785733 -0.257978 0
M  V30 10586 H 1023.45 1.21683 -1.18285 0
M  V30 10587 H 1022.23 3.02723 -2.4794 0
M  V30 10588 H 1021.85 3.85412 -0.976892 0
M  V30 10589 N 1022.85 0.866709 1.31628 0
M  V30 10590 C 1024.09 0.476026 1.96825 0
M  V30 10591 C 1024.42 -0.970994 1.68529 0
M  V30 10592 O 1023.68 -1.69823 0.97255 0
M  V30 10593 C 1023.97 0.676018 3.50948 0
M  V30 10594 C 1023.64 2.09533 3.99258 0
M  V30 10595 C 1022.3 2.48349 4.1216 0
M  V30 10596 C 1024.65 3.02112 4.24709 0
M  V30 10597 C 1021.98 3.78991 4.47864 0
M  V30 10598 C 1024.33 4.32266 4.61875 0
M  V30 10599 C 1023 4.71 4.72985 0
M  V30 10600 H 1022.27 0.17419 0.720235 0
M  V30 10601 H 1024.92 1.09907 1.5682 0
M  V30 10602 H 1023.22 -0.0301867 3.91788 0
M  V30 10603 H 1024.92 0.353604 3.99438 0
M  V30 10604 H 1021.51 1.78396 3.89709 0
M  V30 10605 H 1025.69 2.73351 4.14238 0
M  V30 10606 H 1020.95 4.08769 4.54663 0
M  V30 10607 H 1025.12 5.04055 4.80522 0
M  V30 10608 H 1022.75 5.72273 5.00407 0
M  V30 10609 N 1024.32 -1.44642 0.625825 0
M  V30 10610 C 1025.27 -2.30653 -0.082259 0
M  V30 10611 C 1026.24 -1.43174 -0.842052 0
M  V30 10612 O 1027.43 -1.72082 -0.824151 0
M  V30 10613 C 1024.57 -3.2837 -1.06146 0
M  V30 10614 C 1023.68 -4.30953 -0.300638 0
M  V30 10615 C 1022.81 -5.15766 -1.27118 0
M  V30 10616 C 1021.85 -6.10061 -0.499215 0
M  V30 10617 N 1020.99 -6.87591 -1.41995 0
M  V30 10618 H 1025.83 -2.90664 0.657161 0
M  V30 10619 H 1023.37 -1.43215 0.335859 0
M  V30 10620 H 1025.32 -3.83507 -1.6425 0
M  V30 10621 H 1023.95 -2.70072 -1.76807 0
M  V30 10622 H 1023.01 -3.78331 0.396234 0
M  V30 10623 H 1024.32 -4.97892 0.300851 0
M  V30 10624 H 1023.47 -5.75394 -1.92372 0
M  V30 10625 H 1022.21 -4.48888 -1.9066 0
M  V30 10626 H 1021.22 -5.49547 0.166848 0
M  V30 10627 H 1022.44 -6.78973 0.131409 0
M  V30 10628 H 1020.39 -6.23387 -2.04267 0
M  V30 10629 H 1020.3 -7.5095 -0.872354 0
M  V30 10630 H 1021.57 -7.51746 -2.0615 0
M  V30 10631 N 1025.8 -0.366053 -1.5329 0
M  V30 10632 C 1027.05 0.224614 -2.00445 0
M  V30 10633 C 1027.36 1.49829 -1.2574 0
M  V30 10634 O 1028.57 2.16759 -1.63487 0
M  V30 10635 C 1027.03 0.450818 -3.57065 0
M  V30 10636 C 1026.63 -0.808257 -4.40649 0
M  V30 10637 C 1028.38 0.999116 -4.12575 0
M  V30 10638 C 1026.28 -0.551612 -5.88822 0
M  V30 10639 H 1025.21 0.0877114 -0.748881 0
M  V30 10640 H 1027.87 -0.484866 -1.76978 0
M  V30 10641 H 1026.25 1.22157 -3.76688 0
M  V30 10642 H 1027.42 -1.58184 -4.32798 0
M  V30 10643 H 1025.74 -1.27981 -3.96245 0
M  V30 10644 H 1028.33 1.20646 -5.20911 0
M  V30 10645 H 1028.68 1.96139 -3.67199 0
M  V30 10646 H 1029.21 0.288518 -3.96752 0
M  V30 10647 H 1025.95 -1.48423 -6.38475 0
M  V30 10648 H 1025.47 0.183462 -5.99519 0
M  V30 10649 H 1027.15 -0.177307 -6.46757 0
M  V30 10650 N 1027.28 1.57312 -0.0952337 0
M  V30 10651 C 1028.24 2.12889 0.849161 0
M  V30 10652 C 1029.24 1.05819 1.21075 0
M  V30 10653 O 1030.43 1.31704 1.14016 0
M  V30 10654 C 1027.56 2.6496 2.14498 0
M  V30 10655 H 1028.76 2.97651 0.366566 0
M  V30 10656 H 1026.31 1.55542 0.153762 0
M  V30 10657 H 1027.05 1.83718 2.67242 0
M  V30 10658 H 1026.83 3.43244 1.89542 0
M  V30 10659 H 1028.32 3.07952 2.82056 0
M  V30 10660 N 1028.76 -0.17846 1.56586 0
M  V30 10661 C 1030.03 -0.923096 1.72448 0
M  V30 10662 C 1030.41 -2.00692 0.654659 0
M  V30 10663 O 1029.76 -2.26079 -0.33171 0
M  V30 10664 C 1029.97 -1.49435 3.15389 0
M  V30 10665 C 1031.32 -1.97005 3.76131 0
M  V30 10666 O 1032.34 -1.59244 3.18622 0
M  V30 10667 O 1031.2 -2.66541 4.77094 0
M  V30 10668 H 1028.3 -0.434009 0.703964 0
M  V30 10669 H 1030.84 -0.16685 1.68878 0
M  V30 10670 H 1029.62 -0.713933 3.84732 0
M  V30 10671 H 1029.24 -2.31498 3.23256 0
M  V30 10672 N 1030.24 -1.51135 -0.446768 0
M  V30 10673 C 1031.65 -1.55919 -1.02694 0
M  V30 10674 C 1032 -0.377038 -1.92543 0
M  V30 10675 O 1031.12 0.507295 -2.1037 0
M  V30 10676 C 1031.72 -2.8257 -1.86922 0
M  V30 10677 C 1030.28 -2.89956 -2.40005 0
M  V30 10678 C 1029.42 -2.50482 -1.18971 0
M  V30 10679 H 1032.37 -1.57048 -0.228403 0
M  V30 10680 H 1032.4 -2.65799 -2.7227 0
M  V30 10681 H 1031.91 -3.6859 -1.21502 0
M  V30 10682 H 1030.01 -2.08343 -3.08907 0
M  V30 10683 H 1030.12 -3.93399 -2.73448 0
M  V30 10684 H 1028.49 -2.03466 -1.53211 0
M  V30 10685 H 1029.27 -3.38837 -0.551762 0
M  V30 10686 N 1031.71 0.701592 -1.41122 0
M  V30 10687 C 1032.96 1.4616 -1.40155 0
M  V30 10688 C 1033.29 1.94498 -0.00861553 0
M  V30 10689 O 1032.54 1.69484 0.978452 0
M  V30 10690 C 1032.84 2.693 -2.34973 0
M  V30 10691 C 1032.51 2.39652 -3.81939 0
M  V30 10692 C 1031.17 2.31277 -4.21977 0
M  V30 10693 C 1033.52 2.15076 -4.74755 0
M  V30 10694 C 1030.85 1.96413 -5.52846 0
M  V30 10695 C 1033.2 1.81722 -6.05937 0
M  V30 10696 C 1031.87 1.71838 -6.45002 0
M  V30 10697 H 1031.14 0.534837 -0.512865 0
M  V30 10698 H 1033.78 0.802425 -1.73878 0
M  V30 10699 H 1032.09 3.40123 -1.94484 0
M  V30 10700 H 1033.79 3.27427 -2.31501 0
M  V30 10701 H 1030.38 2.47063 -3.50226 0
M  V30 10702 H 1034.56 2.20495 -4.4463 0
M  V30 10703 H 1029.82 1.87308 -5.82001 0
M  V30 10704 H 1033.99 1.61723 -6.77362 0
M  V30 10705 H 1031.62 1.44591 -7.46323 0
M  V30 10706 N 1033.19 1.2685 0.935242 0
M  V30 10707 C 1034.44 1.12912 1.6846 0
M  V30 10708 C 1034.77 -0.325708 1.91449 0
M  V30 10709 O 1034.05 -1.23884 1.49944 0
M  V30 10710 C 1034.33 1.90513 3.05576 0
M  V30 10711 C 1034.18 3.43936 2.89876 0
M  V30 10712 C 1035.5 1.70363 4.05789 0
M  V30 10713 H 1032.62 0.411559 0.611382 0
M  V30 10714 H 1035.26 1.55917 1.08582 0
M  V30 10715 H 1033.41 1.53963 3.5669 0
M  V30 10716 H 1035.08 3.90272 2.45939 0
M  V30 10717 H 1033.33 3.70659 2.25376 0
M  V30 10718 H 1034 3.93467 3.87153 0
M  V30 10719 H 1036.47 2.02217 3.63659 0
M  V30 10720 H 1035.35 2.27066 4.99732 0
M  V30 10721 H 1035.61 0.649674 4.373 0
M  V30 10722 N 1034.67 -1.14067 1.0875 0
M  V30 10723 C 1035.6 -2.21385 0.74236 0
M  V30 10724 C 1036.58 -1.67833 -0.276805 0
M  V30 10725 O 1037.77 -1.93647 -0.1464 0
M  V30 10726 C 1034.9 -3.46956 0.154644 0
M  V30 10727 C 1033.85 -4.13555 1.10255 0
M  V30 10728 C 1033.18 -5.3337 0.376877 0
M  V30 10729 C 1034.48 -4.6169 2.44213 0
M  V30 10730 H 1036.17 -2.50512 1.63964 0
M  V30 10731 H 1033.72 -1.20408 0.789807 0
M  V30 10732 H 1035.67 -4.21284 -0.0988419 0
M  V30 10733 H 1034.39 -3.17203 -0.777789 0
M  V30 10734 H 1033.05 -3.41186 1.34119 0
M  V30 10735 H 1032.7 -4.99879 -0.559472 0
M  V30 10736 H 1032.4 -5.78875 1.00884 0
M  V30 10737 H 1033.92 -6.10458 0.131527 0
M  V30 10738 H 1035.34 -5.27475 2.24595 0
M  V30 10739 H 1033.74 -5.17909 3.03134 0
M  V30 10740 H 1034.81 -3.76574 3.05483 0
M  V30 10741 N 1036.15 -0.873678 -1.31166 0
M  V30 10742 C 1037.37 -0.500242 -2.01277 0
M  V30 10743 C 1037.8 0.900811 -1.65127 0
M  V30 10744 O 1037.16 1.59504 -0.861862 0
M  V30 10745 C 1037.2 -0.668976 -3.5434 0
M  V30 10746 O 1036.31 0.290096 -4.11378 0
M  V30 10747 H 1035.65 -0.198507 -0.633633 0
M  V30 10748 H 1038.18 -1.17811 -1.67277 0
M  V30 10749 H 1038.19 -0.563673 -4.04088 0
M  V30 10750 H 1036.86 -1.69055 -3.79991 0
M  V30 10751 H 1035.44 0.139437 -3.72639 0
M  V30 10752 N 1037.63 1.44308 -0.633487 0
M  V30 10753 C 1039.04 1.56768 -0.29931 0
M  V30 10754 C 1039.24 1.62061 1.19743 0
M  V30 10755 O 1038.3 1.56492 1.98158 0
M  V30 10756 C 1039.61 2.8382 -0.993307 0
M  V30 10757 C 1041.16 2.97536 -0.971674 0
M  V30 10758 C 1041.63 4.27393 -1.64618 0
M  V30 10759 N 1043.13 4.34212 -1.61288 0
M  V30 10760 C 1043.86 5.33415 -2.1037 0
M  V30 10761 N 1043.36 6.3901 -2.67653 0
M  V30 10762 N 1045.15 5.24939 -2.00985 0
M  V30 10763 H 1037.3 1.39115 -1.60501 0
M  V30 10764 H 1039.56 0.666804 -0.673852 0
M  V30 10765 H 1039.27 2.85902 -2.04823 0
M  V30 10766 H 1039.14 3.73422 -0.532537 0
M  V30 10767 H 1041.53 2.95005 0.0747854 0
M  V30 10768 H 1041.61 2.09276 -1.47096 0
M  V30 10769 H 1041.26 4.30683 -2.6921 0
M  V30 10770 H 1041.19 5.14515 -1.12171 0
M  V30 10771 H 1043.68 3.58519 -1.19468 0
M  V30 10772 H 1043.99 7.10994 -3.02831 0
M  V30 10773 H 1042.33 6.39689 -2.71705 0
M  V30 10774 H 1045.53 4.41357 -1.55953 0
M  V30 10775 H 1045.7 6.02097 -2.39547 0
M  V30 10776 N 1039.1 0.374177 1.53094 0
M  V30 10777 C 1040.05 -0.484848 2.22785 0
M  V30 10778 C 1041.04 -1.04181 1.22617 0
M  V30 10779 O 1042.23 -0.97043 1.48026 0
M  V30 10780 C 1039.36 -1.61956 3.02696 0
M  V30 10781 C 1038.45 -1.07506 4.10248 0
M  V30 10782 N 1038.84 -0.254253 5.05161 0
M  V30 10783 C 1037.13 -1.34904 4.25108 0
M  V30 10784 C 1037.84 0.0448558 5.81683 0
M  V30 10785 N 1036.81 -0.555073 5.40759 0
M  V30 10786 H 1040.61 0.148976 2.93522 0
M  V30 10787 H 1038.13 0.182656 1.6137 0
M  V30 10788 H 1040.12 -2.24723 3.51148 0
M  V30 10789 H 1038.78 -2.25636 2.33492 0
M  V30 10790 H 1039.8 0.107256 5.17789 0
M  V30 10791 H 1036.47 -1.98799 3.67131 0
M  V30 10792 H 1037.86 0.708952 6.68149 0
M  V30 10793 N 1040.58 -1.57259 0.103575 0
M  V30 10794 C 1041.83 -1.93832 -0.55786 0
M  V30 10795 C 1042.14 -0.988087 -1.68808 0
M  V30 10796 O 1043.35 -1.24786 -2.41124 0
M  V30 10797 C 1041.81 -3.44433 -1.04373 0
M  V30 10798 C 1041.41 -4.47963 0.0571971 0
M  V30 10799 C 1043.16 -3.89953 -1.67742 0
M  V30 10800 C 1041.07 -5.89727 -0.444505 0
M  V30 10801 H 1040 -0.723536 -0.212161 0
M  V30 10802 H 1042.65 -1.82606 0.180944 0
M  V30 10803 H 1041.03 -3.50841 -1.83648 0
M  V30 10804 H 1042.2 -4.53209 0.83298 0
M  V30 10805 H 1040.52 -4.12104 0.596588 0
M  V30 10806 H 1043.11 -4.93272 -2.06365 0
M  V30 10807 H 1043.46 -3.2907 -2.54988 0
M  V30 10808 H 1043.99 -3.86281 -0.950342 0
M  V30 10809 H 1040.73 -6.5433 0.391543 0
M  V30 10810 H 1040.25 -5.87935 -1.18711 0
M  V30 10811 H 1041.93 -6.40558 -0.910739 0
M  V30 10812 N 1042.06 0.170153 -1.56679 0
M  V30 10813 C 1042.99 1.21285 -1.9953 0
M  V30 10814 C 1043.97 1.46104 -0.871071 0
M  V30 10815 O 1045.16 1.57419 -1.13724 0
M  V30 10816 C 1042.29 2.5515 -2.35618 0
M  V30 10817 C 1041.24 2.44898 -3.51011 0
M  V30 10818 C 1040.57 3.83263 -3.72845 0
M  V30 10819 C 1041.87 1.95271 -4.84424 0
M  V30 10820 H 1043.56 0.856646 -2.86883 0
M  V30 10821 H 1041.11 0.410634 -1.38021 0
M  V30 10822 H 1043.06 3.28299 -2.64193 0
M  V30 10823 H 1041.78 2.92561 -1.45175 0
M  V30 10824 H 1040.44 1.74203 -3.22566 0
M  V30 10825 H 1040.09 4.18069 -2.79691 0
M  V30 10826 H 1039.79 3.77272 -4.50488 0
M  V30 10827 H 1041.31 4.57996 -4.03822 0
M  V30 10828 H 1042.73 2.58195 -5.11867 0
M  V30 10829 H 1041.13 2.00225 -5.65712 0
M  V30 10830 H 1042.2 0.90709 -4.7634 0
M  V30 10831 N 1043.54 1.5137 0.438746 0
M  V30 10832 C 1044.76 1.68058 1.21537 0
M  V30 10833 C 1045.19 0.376787 1.84288 0
M  V30 10834 O 1044.55 -0.662911 1.68746 0
M  V30 10835 C 1044.59 2.79684 2.27616 0
M  V30 10836 O 1043.7 2.43189 3.33066 0
M  V30 10837 H 1043.04 0.560408 0.356144 0
M  V30 10838 H 1045.57 1.97926 0.518311 0
M  V30 10839 H 1045.58 3.03726 2.72423 0
M  V30 10840 H 1044.25 3.74293 1.81321 0
M  V30 10841 H 1042.83 2.29713 2.93746 0
M  V30 10842 N 1045.02 -0.694098 1.41492 0
M  V30 10843 C 1046.26 -1.4563 1.41137 0
M  V30 10844 C 1046.6 -1.94189 0.0208428 0
M  V30 10845 O 1045.87 -1.69628 -0.951655 0
M  V30 10846 C 1046.15 -2.66714 2.41941 0
M  V30 10847 C 1046.01 -2.23912 3.90107 0
M  V30 10848 C 1047.33 -3.68913 2.39981 0
M  V30 10849 H 1044.44 -0.52821 0.513968 0
M  V30 10850 H 1047.09 -0.790437 1.72778 0
M  V30 10851 H 1045.24 -3.23525 2.1509 0
M  V30 10852 H 1046.91 -1.72417 4.27867 0
M  V30 10853 H 1045.15 -1.5568 4.04903 0
M  V30 10854 H 1045.82 -3.108 4.56188 0
M  V30 10855 H 1048.3 -3.21779 2.63813 0
M  V30 10856 H 1047.17 -4.51242 3.12524 0
M  V30 10857 H 1047.44 -4.18711 1.41892 0
M  V30 10858 N 1046.49 -1.27344 -0.928501 0
M  V30 10859 C 1047.44 -1.06656 -2.01515 0
M  V30 10860 C 1048.43 0.00516619 -1.60899 0
M  V30 10861 O 1049.62 -0.213277 -1.7571 0
M  V30 10862 C 1046.75 -0.714935 -3.35773 0
M  V30 10863 C 1045.84 -1.82476 -3.82836 0
M  V30 10864 N 1046.23 -3.06421 -4.02417 0
M  V30 10865 C 1044.52 -1.71126 -4.11864 0
M  V30 10866 C 1045.23 -3.78637 -4.41598 0
M  V30 10867 N 1044.2 -3.06396 -4.49024 0
M  V30 10868 H 1048 -2.00718 -2.14685 0
M  V30 10869 H 1045.52 -1.18048 -1.11528 0
M  V30 10870 H 1047.51 -0.54784 -4.13285 0
M  V30 10871 H 1046.17 0.218069 -3.23967 0
M  V30 10872 H 1047.19 -3.42191 -3.88749 0
M  V30 10873 H 1043.86 -0.849031 -4.08776 0
M  V30 10874 H 1045.25 -4.85159 -4.64834 0
M  V30 10875 N 1047.97 1.13488 -1.09353 0
M  V30 10876 C 1049.2 1.88592 -0.850915 0
M  V30 10877 C 1049.62 1.79087 0.597761 0
M  V30 10878 O 1048.97 1.15695 1.41142 0
M  V30 10879 C 1049.02 3.38219 -1.27633 0
M  V30 10880 O 1048.74 3.47476 -2.66819 0
M  V30 10881 C 1050.25 4.30293 -1.06598 0
M  V30 10882 H 1047.47 0.597069 -0.306185 0
M  V30 10883 H 1050.01 1.43668 -1.45533 0
M  V30 10884 H 1048.16 3.80729 -0.715828 0
M  V30 10885 H 1048.58 4.40485 -2.84733 0
M  V30 10886 H 1050.05 5.33611 -1.41293 0
M  V30 10887 H 1050.53 4.392 -0.0037135 0
M  V30 10888 H 1051.14 3.9355 -1.6124 0
M  V30 10889 N 1049.45 0.880621 1.30701 0
M  V30 10890 C 1050.4 0.342397 2.28246 0
M  V30 10891 C 1051.37 -0.565023 1.56194 0
M  V30 10892 O 1052.55 -0.494377 1.84284 0
M  V30 10893 C 1049.69 -0.440859 3.42272 0
M  V30 10894 C 1048.81 0.495284 4.29151 0
M  V30 10895 C 1047.94 -0.303141 5.30334 0
M  V30 10896 C 1046.98 0.628751 6.08862 0
M  V30 10897 N 1046.12 -0.13408 7.01972 0
M  V30 10898 H 1050.96 1.17938 2.73669 0
M  V30 10899 H 1048.49 0.59296 1.34619 0
M  V30 10900 H 1050.45 -0.910854 4.07135 0
M  V30 10901 H 1049.08 -1.24245 2.97931 0
M  V30 10902 H 1048.13 1.08376 3.64635 0
M  V30 10903 H 1049.45 1.2094 4.83916 0
M  V30 10904 H 1048.6 -0.835181 6.00924 0
M  V30 10905 H 1047.34 -1.05049 4.76252 0
M  V30 10906 H 1046.34 1.17246 5.37153 0
M  V30 10907 H 1047.57 1.37512 6.65032 0
M  V30 10908 H 1045.52 -0.864046 6.50285 0
M  V30 10909 H 1045.43 0.520486 7.54206 0
M  V30 10910 H 1046.7 -0.647005 7.7681 0
M  V30 10911 N 1050.93 -1.4397 0.641131 0
M  V30 10912 C 1052.21 -1.95436 0.0800918 0
M  V30 10913 C 1052.59 -1.58282 -1.39678 0
M  V30 10914 O 1051.93 -0.861867 -2.11623 0
M  V30 10915 C 1052.14 -3.47589 0.313531 0
M  V30 10916 C 1053.49 -4.2407 0.212034 0
M  V30 10917 O 1054.52 -3.55353 0.245434 0
M  V30 10918 O 1053.38 -5.46356 0.125455 0
M  V30 10919 H 1050.47 -0.826834 -0.0165735 0
M  V30 10920 H 1053.02 -1.5397 0.71353 0
M  V30 10921 H 1051.79 -3.67716 1.33793 0
M  V30 10922 H 1051.41 -3.96025 -0.353563 0
M  V30 10923 N 1052.41 -0.382291 -1.52893 0
M  V30 10924 C 1053.34 0.447829 -2.29165 0
M  V30 10925 C 1054.32 1.06956 -1.32267 0
M  V30 10926 O 1055.5 1.08365 -1.61154 0
M  V30 10927 C 1052.63 1.57902 -3.09329 0
M  V30 10928 C 1051.59 1.08369 -4.14053 0
M  V30 10929 C 1050.91 2.30641 -4.82399 0
M  V30 10930 C 1052.21 0.156591 -5.22065 0
M  V30 10931 H 1053.91 -0.188541 -2.98806 0
M  V30 10932 H 1051.45 -0.0921179 -1.43705 0
M  V30 10933 H 1053.41 2.16652 -3.61442 0
M  V30 10934 H 1052.13 2.24287 -2.37409 0
M  V30 10935 H 1050.79 0.518772 -3.62911 0
M  V30 10936 H 1050.44 2.9552 -4.07034 0
M  V30 10937 H 1050.14 1.98163 -5.53177 0
M  V30 10938 H 1051.66 2.90047 -5.37313 0
M  V30 10939 H 1053.08 0.652065 -5.6958 0
M  V30 10940 H 1051.47 -0.0780978 -6.00049 0
M  V30 10941 H 1052.54 -0.796529 -4.78313 0
M  V30 10942 N 1053.89 1.57202 -0.111913 0
M  V30 10943 C 1055.3 1.82039 0.414591 0
M  V30 10944 C 1055.65 1.02863 1.67074 0
M  V30 10945 O 1054.77 0.263068 2.14795 0
M  V30 10946 C 1055.37 3.3019 0.758953 0
M  V30 10947 C 1053.93 3.55732 1.23012 0
M  V30 10948 C 1053.07 2.76301 0.235226 0
M  V30 10949 H 1056.02 1.55078 -0.337142 0
M  V30 10950 H 1056.05 3.44431 1.61701 0
M  V30 10951 H 1055.56 3.87788 -0.155473 0
M  V30 10952 H 1053.66 3.03483 2.16169 0
M  V30 10953 H 1053.77 4.64333 1.18034 0
M  V30 10954 H 1052.14 2.44287 0.720822 0
M  V30 10955 H 1052.92 3.36655 -0.672173 0
M  V30 10956 N 1055.36 -0.161842 1.56767 0
M  V30 10957 C 1056.61 -0.876925 1.82527 0
M  V30 10958 C 1056.94 -1.81831 0.690492 0
M  V30 10959 O 1056.19 -1.9304 -0.32159 0
M  V30 10960 C 1056.49 -1.69736 3.14522 0
M  V30 10961 C 1056.16 -0.904075 4.41743 0
M  V30 10962 C 1054.82 -0.685168 4.76297 0
M  V30 10963 C 1057.17 -0.348282 5.20035 0
M  V30 10964 C 1054.5 0.10048 5.86614 0
M  V30 10965 C 1056.85 0.424327 6.31175 0
M  V30 10966 C 1055.52 0.653948 6.64289 0
M  V30 10967 H 1054.79 -0.320889 0.667915 0
M  V30 10968 H 1057.43 -0.141338 1.90978 0
M  V30 10969 H 1055.74 -2.50262 3.01456 0
M  V30 10970 H 1057.44 -2.25386 3.31666 0
M  V30 10971 H 1054.03 -1.08474 4.14646 0
M  V30 10972 H 1058.21 -0.504721 4.93727 0
M  V30 10973 H 1053.47 0.288029 6.10721 0
M  V30 10974 H 1057.64 0.862203 6.91042 0
M  V30 10975 H 1055.27 1.26459 7.49608 0
M  V30 10976 N 1056.84 -1.516 -0.430713 0
M  V30 10977 C 1058.26 -1.39923 -0.767706 0
M  V30 10978 C 1058.46 -0.486756 -1.95532 0
M  V30 10979 O 1057.51 0.0555965 -2.52439 0
M  V30 10980 C 1058.83 -2.82074 -1.04187 0
M  V30 10981 C 1060.37 -2.9127 -1.1459 0
M  V30 10982 C 1060.85 -4.34342 -1.45295 0
M  V30 10983 N 1062.34 -4.37479 -1.52206 0
M  V30 10984 C 1063.08 -5.45219 -1.77549 0
M  V30 10985 N 1062.57 -6.6311 -2.0064 0
M  V30 10986 N 1064.36 -5.32707 -1.79386 0
M  V30 10987 H 1056.52 -2.09474 0.351351 0
M  V30 10988 H 1058.78 -0.943247 0.0948151 0
M  V30 10989 H 1058.48 -3.50868 -0.241837 0
M  V30 10990 H 1058.36 -3.21805 -1.96777 0
M  V30 10991 H 1060.75 -2.2267 -1.93655 0
M  V30 10992 H 1060.83 -2.55026 -0.198854 0
M  V30 10993 H 1060.47 -5.03494 -0.667559 0
M  V30 10994 H 1060.4 -4.68105 -2.41217 0
M  V30 10995 H 1062.89 -3.52488 -1.36237 0
M  V30 10996 H 1063.2 -7.41012 -2.19366 0
M  V30 10997 H 1061.55 -6.66214 -1.97948 0
M  V30 10998 H 1064.74 -4.39589 -1.60869 0
M  V30 10999 H 1064.91 -6.16752 -1.98799 0
M  V30 11000 N 1058.32 0.686584 -1.41858 0
M  V30 11001 C 1059.56 1.45879 -1.43173 0
M  V30 11002 C 1059.92 1.91953 -0.0423059 0
M  V30 11003 O 1061.12 2.68709 0.069783 0
M  V30 11004 C 1059.4 2.63196 -2.41791 0
M  V30 11005 S 1060.95 3.52212 -2.6171 0
M  V30 11006 H 1057.77 0.498391 -0.507077 0
M  V30 11007 H 1060.37 0.800313 -1.78368 0
M  V30 11008 H 1059.08 2.27566 -3.41529 0
M  V30 11009 H 1058.61 3.33928 -2.0798 0
M  V30 11010 H 1060.62 4.58744 -1.89125 0
M  V30 11011 N 1059.8 1.27835 0.921735 0
M  V30 11012 C 1060.74 1.11075 2.02314 0
M  V30 11013 C 1061.71 0.0101195 1.66097 0
M  V30 11014 O 1062.9 0.173564 1.90009 0
M  V30 11015 C 1060.04 0.770251 3.36394 0
M  V30 11016 C 1059.15 1.94912 3.8553 0
M  V30 11017 C 1058.29 1.54996 5.08084 0
M  V30 11018 C 1057.33 2.69595 5.49531 0
M  V30 11019 N 1056.46 2.30227 6.6328 0
M  V30 11020 H 1061.3 2.05319 2.15982 0
M  V30 11021 H 1058.84 1.022 1.058 0
M  V30 11022 H 1060.8 0.553624 4.1351 0
M  V30 11023 H 1059.43 -0.135238 3.22517 0
M  V30 11024 H 1058.48 2.27811 3.04641 0
M  V30 11025 H 1059.79 2.80858 4.12214 0
M  V30 11026 H 1058.95 1.29493 5.9272 0
M  V30 11027 H 1057.69 0.661676 4.83191 0
M  V30 11028 H 1056.69 2.95806 4.63442 0
M  V30 11029 H 1057.92 3.59054 5.76417 0
M  V30 11030 H 1055.86 1.43858 6.40032 0
M  V30 11031 H 1055.78 3.09711 6.89649 0
M  V30 11032 H 1057.05 2.07987 7.5124 0
M  V30 11033 N 1061.28 -1.12907 1.09954 0
M  V30 11034 C 1062.69 -1.363 0.830326 0
M  V30 11035 C 1062.89 -1.93772 -0.552694 0
M  V30 11036 O 1061.95 -2.1607 -1.30652 0
M  V30 11037 C 1063.26 -2.30925 1.92598 0
M  V30 11038 C 1064.81 -2.44528 1.95385 0
M  V30 11039 C 1065.28 -3.42464 3.0411 0
M  V30 11040 N 1066.77 -3.50018 3.03384 0
M  V30 11041 C 1067.51 -4.25693 3.84152 0
M  V30 11042 N 1067.01 -5.04476 4.74843 0
M  V30 11043 N 1068.8 -4.21049 3.7239 0
M  V30 11044 H 1060.95 -0.739571 1.99108 0
M  V30 11045 H 1063.21 -0.387983 0.86497 0
M  V30 11046 H 1062.92 -1.95861 2.92115 0
M  V30 11047 H 1062.79 -3.30997 1.80889 0
M  V30 11048 H 1065.18 -2.78875 0.965037 0
M  V30 11049 H 1065.26 -1.44361 2.11172 0
M  V30 11050 H 1064.9 -3.08847 4.03207 0
M  V30 11051 H 1064.83 -4.42448 2.85565 0
M  V30 11052 H 1067.33 -2.93809 2.37665 0
M  V30 11053 H 1067.64 -5.59541 5.33042 0
M  V30 11054 H 1065.98 -5.0369 4.78875 0
M  V30 11055 H 1069.17 -3.5858 3.00895 0
M  V30 11056 H 1069.35 -4.79771 4.35572 0
M  V30 11057 N 1062.75 -0.88754 -1.30232 0
M  V30 11058 C 1063.99 -0.514017 -1.97831 0
M  V30 11059 C 1064.36 0.920151 -1.68515 0
M  V30 11060 O 1065.56 1.39993 -2.29468 0
M  V30 11061 C 1063.83 -0.784155 -3.48692 0
M  V30 11062 S 1065.39 -0.513119 -4.3579 0
M  V30 11063 H 1062.21 -0.191157 -0.684821 0
M  V30 11064 H 1064.81 -1.14736 -1.58291 0
M  V30 11065 H 1063.51 -1.82639 -3.6752 0
M  V30 11066 H 1063.04 -0.138468 -3.93156 0
M  V30 11067 H 1065.06 0.647155 -4.91962 0
M  V30 11068 N 1064.23 1.43628 -0.648757 0
M  V30 11069 C 1065.65 1.56442 -0.315921 0
M  V30 11070 C 1065.85 1.63322 1.18018 0
M  V30 11071 O 1064.9 1.58585 1.96487 0
M  V30 11072 C 1066.22 2.82751 -1.02335 0
M  V30 11073 C 1067.77 2.96488 -1.00318 0
M  V30 11074 C 1068.24 4.25623 -1.69142 0
M  V30 11075 N 1069.73 4.32477 -1.65885 0
M  V30 11076 C 1070.47 5.31154 -2.16016 0
M  V30 11077 N 1069.96 6.36135 -2.74415 0
M  V30 11078 N 1071.76 5.22778 -2.06541 0
M  V30 11079 H 1063.91 1.37405 -1.61968 0
M  V30 11080 H 1066.17 0.65962 -0.680886 0
M  V30 11081 H 1065.88 2.83714 -2.07844 0
M  V30 11082 H 1065.75 3.72836 -0.572114 0
M  V30 11083 H 1068.14 2.95068 0.0434919 0
M  V30 11084 H 1068.22 2.07704 -1.49307 0
M  V30 11085 H 1067.86 4.27804 -2.73763 0
M  V30 11086 H 1067.79 5.13296 -1.17622 0
M  V30 11087 H 1070.28 3.57232 -1.23264 0
M  V30 11088 H 1070.6 7.07743 -3.10355 0
M  V30 11089 H 1068.94 6.36771 -2.78474 0
M  V30 11090 H 1072.13 4.39678 -1.60625 0
M  V30 11091 H 1072.3 5.99523 -2.45919 0
M  V30 11092 N 1065.71 0.390394 1.52688 0
M  V30 11093 C 1066.66 -0.444229 2.26485 0
M  V30 11094 C 1067.63 -1.05688 1.28138 0
M  V30 11095 O 1068.81 -1.0847 1.56968 0
M  V30 11096 C 1065.95 -1.56501 3.07574 0
M  V30 11097 C 1065.07 -0.975111 4.20851 0
M  V30 11098 C 1064.2 -2.06704 4.89333 0
M  V30 11099 C 1063.24 -1.45309 5.94602 0
M  V30 11100 N 1062.38 -2.48437 6.56676 0
M  V30 11101 H 1067.22 0.191535 2.97384 0
M  V30 11102 H 1064.75 0.106287 1.46716 0
M  V30 11103 H 1066.71 -2.22558 3.52879 0
M  V30 11104 H 1065.34 -2.17107 2.38881 0
M  V30 11105 H 1064.39 -0.204109 3.79852 0
M  V30 11106 H 1065.71 -0.486465 4.96422 0
M  V30 11107 H 1064.86 -2.80528 5.37949 0
M  V30 11108 H 1063.6 -2.58928 4.13289 0
M  V30 11109 H 1062.6 -0.700091 5.45324 0
M  V30 11110 H 1063.83 -0.938775 6.7258 0
M  V30 11111 H 1061.77 -2.99829 5.83471 0
M  V30 11112 H 1061.69 -2.04331 7.27863 0
M  V30 11113 H 1062.96 -3.21888 7.09935 0
M  V30 11114 N 1067.19 -1.57141 0.120249 0
M  V30 11115 C 1068.44 -1.94852 -0.536387 0
M  V30 11116 C 1068.76 -1.00452 -1.67136 0
M  V30 11117 O 1068.03 -0.061053 -1.95805 0
M  V30 11118 H 1066.61 -0.719411 -0.201138 0
M  V30 11119 H 1069.27 -1.93977 0.189482 0
M  V30 11120 H 1068.37 -2.97917 -0.930145 0
M  V30 11121 N 1068.67 0.153526 -1.5685 0
M  V30 11122 C 1069.91 0.867232 -1.8299 0
M  V30 11123 C 1070.24 1.81462 -0.700125 0
M  V30 11124 O 1069.5 1.93207 0.311348 0
M  V30 11125 C 1069.8 1.68066 -3.15418 0
M  V30 11126 C 1069.46 0.880635 -4.42217 0
M  V30 11127 C 1068.12 0.659899 -4.76654 0
M  V30 11128 C 1070.48 0.320698 -5.20212 0
M  V30 11129 C 1067.8 -0.131588 -5.86552 0
M  V30 11130 C 1070.16 -0.457794 -6.30941 0
M  V30 11131 C 1068.82 -0.689168 -6.63933 0
M  V30 11132 H 1068.09 0.317343 -0.669608 0
M  V30 11133 H 1070.74 0.131208 -1.9105 0
M  V30 11134 H 1069.04 2.4866 -3.02779 0
M  V30 11135 H 1070.74 2.23623 -3.32857 0
M  V30 11136 H 1067.33 1.06274 -4.15215 0
M  V30 11137 H 1071.51 0.47853 -4.93988 0
M  V30 11138 H 1066.77 -0.320413 -6.1056 0
M  V30 11139 H 1070.94 -0.898839 -6.90575 0
M  V30 11140 H 1068.57 -1.30433 -7.48927 0
M  V30 11141 N 1070.14 1.51827 0.422667 0
M  V30 11142 C 1071.56 1.40328 0.760275 0
M  V30 11143 C 1071.76 0.497119 1.95272 0
M  V30 11144 O 1070.82 -0.0422083 2.52465 0
M  V30 11145 C 1072.13 2.82622 1.02689 0
M  V30 11146 C 1073.68 2.91874 1.13044 0
M  V30 11147 C 1074.15 4.35107 1.4299 0
M  V30 11148 N 1075.64 4.3828 1.49883 0
M  V30 11149 C 1076.38 5.46153 1.74655 0
M  V30 11150 N 1075.87 6.64165 1.9712 0
M  V30 11151 N 1077.67 5.33651 1.76558 0
M  V30 11152 H 1069.82 2.09285 -0.362455 0
M  V30 11153 H 1072.08 0.94273 -0.0998161 0
M  V30 11154 H 1071.79 3.50991 0.223226 0
M  V30 11155 H 1071.66 3.22844 1.95068 0
M  V30 11156 H 1074.05 2.23694 1.92471 0
M  V30 11157 H 1074.13 2.55128 0.185326 0
M  V30 11158 H 1073.77 5.03841 0.640848 0
M  V30 11159 H 1073.7 4.69377 2.38731 0
M  V30 11160 H 1076.19 3.53206 1.34366 0
M  V30 11161 H 1076.51 7.42165 2.15434 0
M  V30 11162 H 1074.85 6.67255 1.94413 0
M  V30 11163 H 1078.04 4.40436 1.58536 0
M  V30 11164 H 1078.22 6.17798 1.95525 0
M  V30 11165 N 1071.62 -0.679052 1.4222 0
M  V30 11166 C 1072.55 -1.80455 1.41311 0
M  V30 11167 C 1073.57 -1.59767 0.312799 0
M  V30 11168 O 1074.76 -1.68964 0.575612 0
M  V30 11169 C 1071.86 -3.17492 1.18541 0
M  V30 11170 C 1071.03 -3.65066 2.40926 0
M  V30 11171 C 1070.09 -4.80823 2.13765 0
M  V30 11172 O 1069.11 -4.91587 2.86934 0
M  V30 11173 N 1070.32 -5.69233 1.13813 0
M  V30 11174 H 1073.08 -1.81722 2.38322 0
M  V30 11175 H 1070.64 -0.861988 1.37045 0
M  V30 11176 H 1072.63 -3.92581 0.982958 0
M  V30 11177 H 1071.2 -3.1115 0.300691 0
M  V30 11178 H 1070.42 -2.80702 2.76767 0
M  V30 11179 H 1071.71 -3.93593 3.22431 0
M  V30 11180 H 1071.11 -5.63185 0.532887 0
M  V30 11181 H 1069.67 -6.44152 0.995554 0
M  V30 11182 N 1073.1 -1.28322 -0.914942 0
M  V30 11183 C 1074.03 -1.07947 -2.02188 0
M  V30 11184 C 1075.05 -0.0315743 -1.62769 0
M  V30 11185 O 1076.23 -0.274503 -1.76377 0
M  V30 11186 C 1073.33 -0.61805 -3.33217 0
M  V30 11187 C 1072.51 -1.74109 -4.01254 0
M  V30 11188 C 1071.57 -1.27325 -5.10563 0
M  V30 11189 O 1070.59 -1.97526 -5.33828 0
M  V30 11190 N 1071.79 -0.1358 -5.80341 0
M  V30 11191 H 1074.56 -2.03275 -2.20225 0
M  V30 11192 H 1072.12 -1.20059 -1.08616 0
M  V30 11193 H 1074.11 -0.288693 -4.03669 0
M  V30 11194 H 1072.68 0.242348 -3.11659 0
M  V30 11195 H 1071.9 -2.2401 -3.24366 0
M  V30 11196 H 1073.19 -2.49448 -4.43456 0
M  V30 11197 H 1072.59 0.449846 -5.63909 0
M  V30 11198 H 1071.15 0.134289 -6.51662 0
M  V30 11199 N 1074.58 1.12322 -1.10551 0
M  V30 11200 C 1075.53 2.20166 -0.750317 0
M  V30 11201 C 1076.52 1.67484 0.254066 0
M  V30 11202 O 1077.73 1.79637 0.114309 0
M  V30 11203 H 1074.1 0.717642 -0.22471 0
M  V30 11204 H 1076.07 2.47378 -1.66873 0
M  V30 11205 C 1074.82 3.47126 -0.199651 0
M  V30 11206 H 1074.14 3.88011 -0.963735 0
M  V30 11207 H 1075.58 4.23999 0.0108033 0
M  V30 11208 C 1074.04 3.19526 1.06792 0
M  V30 11209 O 1074.57 3.39368 2.14923 0
M  V30 11210 N 1072.78 2.73324 0.987032 0
M  V30 11211 H 1072.33 2.57378 0.106997 0
M  V30 11212 H 1072.28 2.55234 1.83584 0
M  V30 11213 N 1076.06 0.894434 1.2976 0
M  V30 11214 C 1076.97 0.372622 2.31622 0
M  V30 11215 C 1077.98 -0.52996 1.65733 0
M  V30 11216 O 1079.16 -0.420807 1.96955 0
M  V30 11217 C 1076.22 -0.396076 3.4443 0
M  V30 11218 C 1075.28 0.537394 4.25923 0
M  V30 11219 C 1074.52 -0.194713 5.33345 0
M  V30 11220 O 1074.74 -1.41943 5.52457 0
M  V30 11221 O 1073.67 0.460055 6.00139 0
M  V30 11222 H 1077.5 1.21756 2.78225 0
M  V30 11223 H 1075.09 0.65858 1.34101 0
M  V30 11224 H 1076.97 -0.830962 4.13126 0
M  V30 11225 H 1075.64 -1.21716 2.99945 0
M  V30 11226 H 1074.55 1.02129 3.5989 0
M  V30 11227 H 1075.88 1.32475 4.74037 0
M  V30 11228 N 1077.53 -1.43282 0.656365 0
M  V30 11229 C 1078.46 -2.33492 -0.0196962 0
M  V30 11230 C 1079.45 -1.49647 -0.80868 0
M  V30 11231 O 1080.63 -1.78303 -0.769529 0
M  V30 11232 C 1077.76 -3.33052 -0.984574 0
M  V30 11233 C 1076.71 -4.26908 -0.305483 0
M  V30 11234 C 1076.04 -5.16531 -1.38202 0
M  V30 11235 C 1077.34 -5.16073 0.804081 0
M  V30 11236 H 1079.03 -2.90272 0.733661 0
M  V30 11237 H 1076.58 -1.39574 0.354259 0
M  V30 11238 H 1078.53 -3.9506 -1.46647 0
M  V30 11239 H 1077.26 -2.74535 -1.76913 0
M  V30 11240 H 1075.92 -3.66268 0.155995 0
M  V30 11241 H 1075.56 -4.54351 -2.1581 0
M  V30 11242 H 1075.26 -5.80148 -0.932878 0
M  V30 11243 H 1076.79 -5.81414 -1.86522 0
M  V30 11244 H 1078.2 -5.71873 0.404212 0
M  V30 11245 H 1076.6 -5.88427 1.17789 0
M  V30 11246 H 1077.67 -4.55574 1.66073 0
M  V30 11247 N 1079.01 -0.398486 -1.52479 0
M  V30 11248 C 1079.96 0.432212 -2.26717 0
M  V30 11249 C 1080.93 1.05007 -1.28696 0
M  V30 11250 O 1082.12 1.07636 -1.57541 0
M  V30 11251 C 1079.26 1.54868 -3.08399 0
M  V30 11252 C 1078.37 0.952779 -4.21362 0
M  V30 11253 C 1077.5 2.04106 -4.90423 0
M  V30 11254 C 1076.54 1.42153 -5.95364 0
M  V30 11255 N 1075.68 2.44951 -6.57984 0
M  V30 11256 H 1080.52 -0.207303 -2.97278 0
M  V30 11257 H 1078.06 -0.114066 -1.46657 0
M  V30 11258 H 1080.01 2.20684 -3.54054 0
M  V30 11259 H 1078.64 2.15837 -2.4003 0
M  V30 11260 H 1077.7 0.183962 -3.79955 0
M  V30 11261 H 1079.01 0.460131 -4.96673 0
M  V30 11262 H 1078.16 2.77672 -5.39429 0
M  V30 11263 H 1076.9 2.56733 -4.14656 0
M  V30 11264 H 1075.91 0.671161 -5.45688 0
M  V30 11265 H 1077.13 0.903093 -6.73068 0
M  V30 11266 H 1075.08 2.9673 -5.85053 0
M  V30 11267 H 1074.99 2.00468 -7.28937 0
M  V30 11268 H 1076.26 3.18119 -7.11632 0
M  V30 11269 N 1080.49 1.57075 -0.12858 0
M  V30 11270 C 1081.44 2.15816 0.818064 0
M  V30 11271 C 1082.41 1.08581 1.25696 0
M  V30 11272 O 1083.59 1.36535 1.33277 0
M  V30 11273 C 1080.73 2.76943 2.05905 0
M  V30 11274 C 1079.85 3.98514 1.66764 0
M  V30 11275 C 1078.98 4.47698 2.85902 0
M  V30 11276 C 1078.02 5.61778 2.43047 0
M  V30 11277 N 1077.16 6.05662 3.5513 0
M  V30 11278 H 1082 2.9638 0.310318 0
M  V30 11279 H 1079.53 1.46418 0.141472 0
M  V30 11280 H 1081.49 3.10519 2.78629 0
M  V30 11281 H 1080.12 1.99053 2.54122 0
M  V30 11282 H 1079.17 3.71038 0.838766 0
M  V30 11283 H 1080.49 4.81215 1.31277 0
M  V30 11284 H 1079.64 4.83233 3.66839 0
M  V30 11285 H 1078.38 3.63967 3.24622 0
M  V30 11286 H 1077.38 5.25838 1.60544 0
M  V30 11287 H 1078.61 6.47282 2.05433 0
M  V30 11288 H 1076.56 5.2487 3.93506 0
M  V30 11289 H 1076.47 6.83242 3.23598 0
M  V30 11290 H 1077.74 6.45838 4.36479 0
M  V30 11291 N 1081.97 -0.145205 1.5693 0
M  V30 11292 C 1082.92 -1.18446 1.94819 0
M  V30 11293 C 1083.9 -1.38456 0.819684 0
M  V30 11294 O 1085.1 -1.39988 1.08316 0
M  V30 11295 C 1082.22 -2.51766 2.33385 0
M  V30 11296 C 1081.31 -2.35341 3.5281 0
M  V30 11297 N 1081.7 -1.88676 4.69292 0
M  V30 11298 C 1080 -2.66087 3.5793 0
M  V30 11299 C 1080.7 -1.85337 5.51385 0
M  V30 11300 N 1079.68 -2.28717 4.93142 0
M  V30 11301 H 1083.48 -0.815785 2.82351 0
M  V30 11302 H 1080.99 -0.353242 1.58512 0
M  V30 11303 H 1082.99 -3.26897 2.58735 0
M  V30 11304 H 1081.65 -2.89414 1.47206 0
M  V30 11305 H 1082.66 -1.58614 4.93013 0
M  V30 11306 H 1079.34 -3.07597 2.82294 0
M  V30 11307 H 1080.73 -1.50734 6.54774 0
M  V30 11308 N 1083.45 -1.52049 -0.414609 0
M  V30 11309 C 1084.38 -1.69712 -1.52555 0
M  V30 11310 C 1085.36 -0.544681 -1.53206 0
M  V30 11311 O 1086.54 -0.771358 -1.71995 0
M  V30 11312 C 1083.67 -1.73145 -2.91099 0
M  V30 11313 C 1082.72 -2.94624 -3.08382 0
M  V30 11314 S 1083.55 -4.55062 -2.82274 0
M  V30 11315 C 1084.7 -4.61274 -4.23057 0
M  V30 11316 H 1084.94 -2.63675 -1.37342 0
M  V30 11317 H 1082.47 -1.42018 -0.605824 0
M  V30 11318 H 1084.43 -1.75808 -3.70947 0
M  V30 11319 H 1083.09 -0.803198 -3.03657 0
M  V30 11320 H 1082.28 -2.93492 -4.0973 0
M  V30 11321 H 1081.88 -2.8982 -2.36391 0
M  V30 11322 H 1084.18 -4.38313 -5.16612 0
M  V30 11323 H 1085.12 -5.63188 -4.29214 0
M  V30 11324 H 1085.53 -3.90361 -4.07773 0
M  V30 11325 N 1084.93 0.6715 -1.42579 0
M  V30 11326 C 1085.87 1.78496 -1.46314 0
M  V30 11327 C 1086.84 1.63091 -0.314743 0
M  V30 11328 O 1088.03 1.83597 -0.519292 0
M  V30 11329 C 1085.17 3.16548 -1.37447 0
M  V30 11330 C 1084.28 3.43216 -2.62348 0
M  V30 11331 C 1083.42 4.71014 -2.456 0
M  V30 11332 C 1082.45 4.90728 -3.65859 0
M  V30 11333 N 1081.59 6.09769 -3.48032 0
M  V30 11334 H 1086.43 1.74638 -2.41466 0
M  V30 11335 H 1083.97 0.852491 -1.19879 0
M  V30 11336 H 1085.93 3.96329 -1.30303 0
M  V30 11337 H 1084.56 3.19522 -0.458891 0
M  V30 11338 H 1083.61 2.57664 -2.79846 0
M  V30 11339 H 1084.92 3.53675 -3.51732 0
M  V30 11340 H 1084.07 5.58892 -2.3606 0
M  V30 11341 H 1082.81 4.62843 -1.53712 0
M  V30 11342 H 1081.82 4.01291 -3.75827 0
M  V30 11343 H 1083.04 5.00741 -4.58732 0
M  V30 11344 H 1080.99 6.02765 -2.58864 0
M  V30 11345 H 1080.91 6.21104 -4.31005 0
M  V30 11346 H 1082.17 7.00317 -3.42311 0
M  V30 11347 N 1086.4 1.28806 0.908124 0
M  V30 11348 C 1087.63 1.19153 1.69146 0
M  V30 11349 C 1088.05 -0.249056 1.8715 0
M  V30 11350 O 1087.4 -1.16772 1.40251 0
M  V30 11351 C 1087.45 1.89167 3.08055 0
M  V30 11352 O 1087.18 3.27599 2.90879 0
M  V30 11353 C 1088.68 1.85886 4.02444 0
M  V30 11354 H 1085.9 0.413359 0.528559 0
M  V30 11355 H 1088.44 1.7003 1.13622 0
M  V30 11356 H 1086.6 1.42146 3.60379 0
M  V30 11357 H 1087.01 3.62743 3.78837 0
M  V30 11358 H 1088.48 2.39454 4.97359 0
M  V30 11359 H 1088.96 0.832483 4.31238 0
M  V30 11360 H 1089.57 2.32612 3.5605 0
M  V30 11361 N 1087.88 -1.11734 1.11145 0
M  V30 11362 C 1088.83 -2.15789 0.736133 0
M  V30 11363 C 1089.82 -1.58813 -0.25832 0
M  V30 11364 O 1091.01 -1.76877 -0.0659078 0
M  V30 11365 C 1088.14 -3.4284 0.177597 0
M  V30 11366 C 1087.22 -4.06783 1.19953 0
M  V30 11367 N 1087.61 -4.45626 2.39271 0
M  V30 11368 C 1085.91 -4.33663 1.04176 0
M  V30 11369 C 1086.61 -4.95684 3.04422 0
M  V30 11370 N 1085.59 -4.91648 2.31912 0
M  V30 11371 H 1089.39 -2.43598 1.6443 0
M  V30 11372 H 1086.9 -1.28716 0.990247 0
M  V30 11373 H 1088.9 -4.16756 -0.109402 0
M  V30 11374 H 1087.56 -3.16498 -0.725201 0
M  V30 11375 H 1088.57 -4.37757 2.76747 0
M  V30 11376 H 1085.25 -4.17044 0.195132 0
M  V30 11377 H 1086.64 -5.35394 4.05959 0
M  V30 11378 N 1089.36 -0.901303 -1.29284 0
M  V30 11379 C 1090.58 -0.542823 -2.0017 0
M  V30 11380 C 1091.01 0.865583 -1.67001 0
M  V30 11381 O 1090.37 1.5764 -0.895502 0
M  V30 11382 C 1090.42 -0.743987 -3.52842 0
M  V30 11383 O 1089.52 0.202771 -4.11901 0
M  V30 11384 H 1088.86 -0.211903 -0.62928 0
M  V30 11385 H 1091.39 -1.21333 -1.64741 0
M  V30 11386 H 1091.4 -0.64926 -4.02801 0
M  V30 11387 H 1090.08 -1.77077 -3.7632 0
M  V30 11388 H 1088.65 0.0603637 -3.72851 0
M  V30 11389 N 1090.84 1.42931 -0.663954 0
M  V30 11390 C 1092.09 2.01284 -0.181379 0
M  V30 11391 C 1092.41 1.52708 1.21265 0
M  V30 11392 O 1091.68 0.744181 1.81215 0
M  V30 11393 H 1090.26 0.744248 -0.0640646 0
M  V30 11394 H 1092.92 1.74997 -0.858031 0
M  V30 11395 H 1092.01 3.11613 -0.174273 0
M  V30 11396 N 1092.32 0.406567 1.52266 0
M  V30 11397 C 1093.73 0.0573228 1.59497 0
M  V30 11398 C 1093.93 -1.43005 1.41957 0
M  V30 11399 O 1092.99 -2.19659 1.24523 0
M  V30 11400 C 1094.3 0.549947 2.95628 0
M  V30 11401 C 1095.85 0.5077 3.08855 0
M  V30 11402 C 1096.32 0.976792 4.47463 0
M  V30 11403 N 1097.81 0.933508 4.53696 0
M  V30 11404 C 1098.55 1.26769 5.59211 0
M  V30 11405 N 1098.05 1.6732 6.72292 0
M  V30 11406 N 1099.84 1.18782 5.49406 0
M  V30 11407 H 1091.99 1.37468 1.61914 0
M  V30 11408 H 1094.25 0.564562 0.76156 0
M  V30 11409 H 1093.96 1.58943 3.13736 0
M  V30 11410 H 1093.83 -0.0417767 3.77177 0
M  V30 11411 H 1096.22 -0.522728 2.90433 0
M  V30 11412 H 1096.3 1.13545 2.29219 0
M  V30 11413 H 1095.94 2.00554 4.66627 0
M  V30 11414 H 1095.87 0.325885 5.25591 0
M  V30 11415 H 1098.37 0.635333 3.72521 0
M  V30 11416 H 1098.68 1.91137 7.4879 0
M  V30 11417 H 1097.02 1.71221 6.73579 0
M  V30 11418 H 1100.21 0.869906 4.59946 0
M  V30 11419 H 1100.39 1.45157 6.31533 0
M  V30 11420 N 1093.79 -1.57004 0.136909 0
M  V30 11421 C 1094.74 -2.16246 -0.806607 0
M  V30 11422 C 1095.71 -1.09246 -1.25118 0
M  V30 11423 O 1096.9 -1.3724 -1.32551 0
M  V30 11424 C 1094.04 -2.78031 -2.04433 0
M  V30 11425 C 1093.15 -3.99393 -1.64649 0
M  V30 11426 C 1092.28 -4.49208 -2.83524 0
M  V30 11427 C 1091.32 -5.63059 -2.40064 0
M  V30 11428 N 1090.46 -6.07537 -3.51913 0
M  V30 11429 H 1095.3 -2.9654 -0.294596 0
M  V30 11430 H 1092.84 -1.46491 -0.133705 0
M  V30 11431 H 1094.8 -3.11992 -2.76978 0
M  V30 11432 H 1093.43 -2.00398 -2.53062 0
M  V30 11433 H 1092.48 -3.71477 -0.819077 0
M  V30 11434 H 1093.79 -4.81904 -1.28723 0
M  V30 11435 H 1092.94 -4.85171 -3.64271 0
M  V30 11436 H 1091.68 -3.65683 -3.22688 0
M  V30 11437 H 1090.69 -5.26682 -1.57754 0
M  V30 11438 H 1091.91 -6.48362 -2.01997 0
M  V30 11439 H 1089.86 -5.2695 -3.90717 0
M  V30 11440 H 1089.78 -6.84949 -3.1997 0
M  V30 11441 H 1091.04 -6.48143 -4.33048 0
M  V30 11442 N 1095.27 0.136881 -1.57004 0
M  V30 11443 C 1096.52 0.849031 -1.84172 0
M  V30 11444 C 1096.85 1.80359 -0.720027 0
M  V30 11445 O 1096.13 1.92538 0.275584 0
M  V30 11446 C 1096.41 1.61465 -3.21871 0
M  V30 11447 C 1096.26 0.680902 -4.44616 0
M  V30 11448 C 1097.58 2.57488 -3.56914 0
M  V30 11449 H 1094.7 0.307209 -0.669919 0
M  V30 11450 H 1097.34 0.113862 -1.89659 0
M  V30 11451 H 1095.49 2.24137 -3.17325 0
M  V30 11452 H 1097.16 0.0644094 -4.61255 0
M  V30 11453 H 1095.41 -0.00883629 -4.33799 0
M  V30 11454 H 1096.08 1.25286 -5.37594 0
M  V30 11455 H 1098.55 2.0493 -3.62136 0
M  V30 11456 H 1097.43 3.08101 -4.54274 0
M  V30 11457 H 1097.69 3.39321 -2.83397 0
M  V30 11458 N 1096.75 1.52266 0.40654 0
M  V30 11459 C 1097.98 1.70057 1.1732 0
M  V30 11460 C 1098.39 0.41084 1.84686 0
M  V30 11461 O 1097.73 -0.623187 1.72806 0
M  V30 11462 C 1097.79 2.78197 2.27698 0
M  V30 11463 C 1097.46 4.19866 1.80447 0
M  V30 11464 C 1098.45 5.03621 1.29082 0
M  V30 11465 C 1096.14 4.66112 1.87202 0
M  V30 11466 C 1098.13 6.31694 0.850973 0
M  V30 11467 C 1095.82 5.94174 1.42829 0
M  V30 11468 C 1096.82 6.76794 0.918621 0
M  V30 11469 O 1096.51 8.02458 0.481302 0
M  V30 11470 H 1096.24 0.573137 0.358455 0
M  V30 11471 H 1098.79 1.99615 0.484064 0
M  V30 11472 H 1097.02 2.44022 2.99983 0
M  V30 11473 H 1098.71 2.84562 2.89446 0
M  V30 11474 H 1099.48 4.69083 1.23234 0
M  V30 11475 H 1095.36 4.01905 2.25816 0
M  V30 11476 H 1098.9 6.96131 0.452471 0
M  V30 11477 H 1094.8 6.2822 1.48358 0
M  V30 11478 H 1095.57 8.16266 0.604376 0
M  V30 11479 N 1098.23 -0.663929 1.42933 0
M  V30 11480 C 1099.16 -1.78946 1.43217 0
M  V30 11481 C 1100.17 -1.59426 0.329727 0
M  V30 11482 O 1101.36 -1.68344 0.5935 0
M  V30 11483 C 1098.46 -3.16217 1.21902 0
M  V30 11484 C 1097.64 -3.6249 2.44785 0
M  V30 11485 C 1096.69 -4.78529 2.18853 0
M  V30 11486 O 1095.72 -4.88516 2.92131 0
M  V30 11487 N 1096.92 -5.67994 1.19845 0
M  V30 11488 H 1099.69 -1.79184 2.40236 0
M  V30 11489 H 1097.25 -0.847404 1.37952 0
M  V30 11490 H 1099.24 -3.91517 1.02454 0
M  V30 11491 H 1097.81 -3.10814 0.333676 0
M  V30 11492 H 1097.03 -2.77751 2.79729 0
M  V30 11493 H 1098.32 -3.90151 3.26588 0
M  V30 11494 H 1097.72 -5.62588 0.59259 0
M  V30 11495 H 1096.27 -6.4306 1.06382 0
M  V30 11496 N 1099.71 -1.29285 -0.901281 0
M  V30 11497 C 1100.95 -1.18431 -1.66594 0
M  V30 11498 C 1101.31 0.260312 -1.90227 0
M  V30 11499 O 1102.51 0.4918 -2.64263 0
M  V30 11500 C 1100.78 -1.97357 -2.97968 0
M  V30 11501 S 1102.34 -2.03019 -3.8901 0
M  V30 11502 H 1099.16 -0.422323 -0.571983 0
M  V30 11503 H 1101.76 -1.63551 -1.07105 0
M  V30 11504 H 1100.47 -3.01459 -2.78479 0
M  V30 11505 H 1100 -1.52836 -3.62498 0
M  V30 11506 H 1102.01 -1.14572 -4.82791 0
M  V30 11507 N 1101.18 1.11143 -1.11736 0
M  V30 11508 C 1102.09 2.20851 -0.791331 0
M  V30 11509 C 1103.11 1.72644 0.216833 0
M  V30 11510 O 1104.29 2.01332 0.0522401 0
M  V30 11511 C 1101.35 3.4585 -0.242694 0
M  V30 11512 C 1100.41 4.08829 -1.30986 0
M  V30 11513 C 1099.65 5.27861 -0.787305 0
M  V30 11514 O 1099.87 5.69122 0.381549 0
M  V30 11515 O 1098.8 5.81506 -1.55352 0
M  V30 11516 H 1102.63 2.51158 -1.70744 0
M  V30 11517 H 1100.21 1.19739 -0.893478 0
M  V30 11518 H 1102.1 4.21359 0.0587472 0
M  V30 11519 H 1100.77 3.17187 0.646079 0
M  V30 11520 H 1099.68 3.35037 -1.66436 0
M  V30 11521 H 1101.01 4.41678 -2.17213 0
M  V30 11522 N 1102.66 0.908147 1.28804 0
M  V30 11523 C 1103.89 0.553287 1.99054 0
M  V30 11524 C 1104.3 -0.868455 1.68091 0
M  V30 11525 O 1103.64 -1.58599 0.926939 0
M  V30 11526 C 1103.71 0.675823 3.5309 0
M  V30 11527 C 1103.37 2.06608 4.0763 0
M  V30 11528 C 1104.37 3.03819 4.21889 0
M  V30 11529 C 1102.05 2.37775 4.42457 0
M  V30 11530 C 1104.05 4.30316 4.7022 0
M  V30 11531 C 1101.73 3.64512 4.90484 0
M  V30 11532 C 1102.73 4.60597 5.04321 0
M  V30 11533 O 1102.42 5.85082 5.51302 0
M  V30 11534 H 1102.15 0.210152 0.642504 0
M  V30 11535 H 1104.7 1.22188 1.65104 0
M  V30 11536 H 1102.93 -0.0498253 3.86668 0
M  V30 11537 H 1104.62 0.328884 4.04565 0
M  V30 11538 H 1105.39 2.81057 3.95262 0
M  V30 11539 H 1101.27 1.63742 4.3094 0
M  V30 11540 H 1104.81 5.05318 4.80936 0
M  V30 11541 H 1100.71 3.87101 5.1655 0
M  V30 11542 H 1101.48 5.87791 5.69599 0
M  V30 11543 N 1104.14 -1.42577 0.671525 0
M  V30 11544 C 1105.38 -2.03455 0.196271 0
M  V30 11545 C 1105.74 -1.51934 -1.17389 0
M  V30 11546 O 1106.95 -2.04577 -1.74361 0
M  V30 11547 C 1105.22 -3.56687 0.225624 0
M  V30 11548 S 1106.78 -4.38434 -0.179107 0
M  V30 11549 H 1103.59 -0.706371 0.0809995 0
M  V30 11550 H 1106.2 -1.74375 0.883948 0
M  V30 11551 H 1104.9 -3.91684 1.22524 0
M  V30 11552 H 1104.43 -3.90436 -0.481994 0
M  V30 11553 H 1106.45 -4.75646 -1.41332 0
M  V30 11554 N 1105.62 -0.414636 -1.52048 0
M  V30 11555 C 1106.53 0.414861 -2.30903 0
M  V30 11556 C 1107.54 1.04855 -1.38858 0
M  V30 11557 O 1108.72 1.04886 -1.71933 0
M  V30 11558 C 1105.79 1.51356 -3.11917 0
M  V30 11559 C 1104.85 0.902359 -4.19709 0
M  V30 11560 C 1104.08 1.9487 -4.96852 0
M  V30 11561 O 1104.3 3.16766 -4.74358 0
M  V30 11562 O 1103.24 1.55186 -5.8155 0
M  V30 11563 H 1107.06 -0.228251 -3.02841 0
M  V30 11564 H 1104.65 -0.177704 -1.48339 0
M  V30 11565 H 1106.53 2.15127 -3.62351 0
M  V30 11566 H 1105.2 2.14117 -2.42767 0
M  V30 11567 H 1104.11 0.22721 -3.73409 0
M  V30 11568 H 1105.44 0.318587 -4.91168 0
M  V30 11569 N 1107.1 1.56929 -0.145233 0
M  V30 11570 C 1108.33 2.00141 0.51257 0
M  V30 11571 C 1108.73 1.0243 1.59075 0
M  V30 11572 O 1108.08 0.0130063 1.83695 0
M  V30 11573 C 1108.14 3.39785 1.17417 0
M  V30 11574 C 1107.8 4.56365 0.240801 0
M  V30 11575 C 1108.8 5.17183 -0.530847 0
M  V30 11576 C 1106.49 5.02093 0.144221 0
M  V30 11577 C 1108.48 6.22136 -1.38654 0
M  V30 11578 C 1106.17 6.06902 -0.71508 0
M  V30 11579 C 1107.16 6.66793 -1.47907 0
M  V30 11580 O 1106.85 7.69573 -2.32405 0
M  V30 11581 H 1106.58 0.661747 0.138085 0
M  V30 11582 H 1109.14 2.04037 -0.236269 0
M  V30 11583 H 1107.37 3.32722 1.97061 0
M  V30 11584 H 1109.06 3.67115 1.73152 0
M  V30 11585 H 1109.82 4.82754 -0.466256 0
M  V30 11586 H 1105.7 4.55206 0.728613 0
M  V30 11587 H 1109.25 6.68812 -1.98333 0
M  V30 11588 H 1105.14 6.40758 -0.78097 0
M  V30 11589 H 1105.91 7.86786 -2.25634 0
M  V30 11590 N 1108.58 -0.128553 1.57075 0
M  V30 11591 C 1109.8 -0.8564 1.88893 0
M  V30 11592 C 1110.23 -1.73095 0.736196 0
M  V30 11593 O 1109.58 -1.78567 -0.313629 0
M  V30 11594 C 1109.63 -1.67368 3.19406 0
M  V30 11595 O 1108.74 -2.77973 3.04639 0
M  V30 11596 H 1108.08 -0.237424 0.620102 0
M  V30 11597 H 1110.61 -0.113821 2.04283 0
M  V30 11598 H 1110.62 -2.0649 3.51889 0
M  V30 11599 H 1109.29 -1.03161 4.02903 0
M  V30 11600 H 1107.87 -2.42123 2.83603 0
M  V30 11601 N 1110.05 -1.5248 -0.398459 0
M  V30 11602 C 1111.28 -1.70925 -1.16586 0
M  V30 11603 C 1111.7 -0.42342 -1.83991 0
M  V30 11604 O 1111.05 0.601395 -1.72306 0
M  V30 11605 C 1111.1 -2.85226 -2.22099 0
M  V30 11606 O 1110.83 -4.08831 -1.57444 0
M  V30 11607 C 1112.33 -3.15272 -3.11639 0
M  V30 11608 H 1109.55 -0.572533 -0.349924 0
M  V30 11609 H 1112.09 -1.99087 -0.467416 0
M  V30 11610 H 1110.25 -2.59553 -2.87595 0
M  V30 11611 H 1110.66 -4.72603 -2.2748 0
M  V30 11612 H 1112.13 -3.98737 -3.81724 0
M  V30 11613 H 1112.61 -2.29262 -3.74614 0
M  V30 11614 H 1113.22 -3.42749 -2.518 0
M  V30 11615 N 1111.53 0.65634 -1.43283 0
M  V30 11616 C 1112.76 1.44408 -1.48168 0
M  V30 11617 C 1113.17 1.88542 -0.0986016 0
M  V30 11618 O 1112.53 1.59298 0.890527 0
M  V30 11619 C 1112.58 2.68111 -2.42484 0
M  V30 11620 O 1112.3 2.25824 -3.75413 0
M  V30 11621 C 1113.8 3.61499 -2.56579 0
M  V30 11622 H 1111.02 0.443731 -0.503333 0
M  V30 11623 H 1113.57 0.804917 -1.87993 0
M  V30 11624 H 1111.72 3.28175 -2.05863 0
M  V30 11625 H 1112.14 3.05839 -4.26102 0
M  V30 11626 H 1113.61 4.44972 -3.26655 0
M  V30 11627 H 1114.09 4.08639 -1.60969 0
M  V30 11628 H 1114.69 3.07319 -2.93998 0
M  V30 11629 N 1113.01 1.29761 0.894412 0
M  V30 11630 C 1114.29 1.08711 1.62608 0
M  V30 11631 C 1114.67 -0.366907 2.07887 0
M  V30 11632 O 1114.01 -1.35669 1.83865 0
M  V30 11633 C 1114.22 2.07947 2.80284 0
M  V30 11634 C 1115.57 2.39153 3.50843 0
M  V30 11635 O 1116.6 2.06183 2.9046 0
M  V30 11636 O 1115.46 2.95509 4.59713 0
M  V30 11637 H 1112.55 0.416866 0.714249 0
M  V30 11638 H 1115.1 1.41153 0.942015 0
M  V30 11639 H 1113.87 3.05859 2.44061 0
M  V30 11640 H 1113.49 1.76266 3.56393 0
M  V30 11641 N 1114.49 -1.10549 1.12324 0
M  V30 11642 C 1115.45 -2.15039 0.793156 0
M  V30 11643 C 1116.45 -1.59651 -0.19192 0
M  V30 11644 O 1117.64 -1.74167 0.0337262 0
M  V30 11645 C 1114.77 -3.40433 0.17842 0
M  V30 11646 H 1115.97 -2.4575 1.71892 0
M  V30 11647 H 1113.52 -1.25892 0.926333 0
M  V30 11648 H 1114.25 -3.15338 -0.757122 0
M  V30 11649 H 1114.04 -3.81921 0.887645 0
M  V30 11650 H 1115.53 -4.17584 -0.0360724 0
M  V30 11651 N 1115.97 -0.914965 -1.28321 0
M  V30 11652 C 1117.19 -0.564023 -1.99583 0
M  V30 11653 C 1117.62 0.847821 -1.6791 0
M  V30 11654 O 1116.97 1.56682 -0.912171 0
M  V30 11655 C 1117.02 -0.781368 -3.52033 0
M  V30 11656 O 1116.13 0.159072 -4.12093 0
M  V30 11657 H 1115.47 -0.218565 -0.626997 0
M  V30 11658 H 1118 -1.23074 -1.63444 0
M  V30 11659 H 1118.01 -0.691946 -4.0209 0
M  V30 11660 H 1116.68 -1.81059 -3.7442 0
M  V30 11661 H 1115.26 0.0208145 -3.72894 0
M  V30 11662 N 1117.44 1.42219 -0.679077 0
M  V30 11663 C 1118.69 2.01081 -0.202718 0
M  V30 11664 C 1119.01 1.53986 1.19639 0
M  V30 11665 O 1118.28 0.763359 1.80415 0
M  V30 11666 H 1116.86 0.743526 -0.0719547 0
M  V30 11667 H 1119.52 1.74077 -0.876544 0
M  V30 11668 H 1118.62 3.11411 -0.207314 0
M  V30 11669 N 1118.92 0.422693 1.51826 0
M  V30 11670 C 1120.17 -0.148641 2.01954 0
M  V30 11671 C 1120.5 -1.43982 1.30765 0
M  V30 11672 O 1119.75 -1.91428 0.406668 0
M  V30 11673 C 1120.05 -0.429516 3.5481 0
M  V30 11674 C 1119.72 0.774088 4.44206 0
M  V30 11675 C 1118.38 1.1042 4.6836 0
M  V30 11676 C 1120.73 1.5777 4.96747 0
M  V30 11677 C 1118.06 2.23887 5.42302 0
M  V30 11678 C 1120.41 2.70325 5.71933 0
M  V30 11679 C 1119.07 3.03807 5.94355 0
M  V30 11680 H 1118.34 -0.0543917 0.739001 0
M  V30 11681 H 1120.99 0.566892 1.82917 0
M  V30 11682 H 1119.3 -1.22678 3.72099 0
M  V30 11683 H 1120.99 -0.884761 3.91118 0
M  V30 11684 H 1117.58 0.506834 4.25593 0
M  V30 11685 H 1121.77 1.33589 4.77983 0
M  V30 11686 H 1117.02 2.50159 5.5788 0
M  V30 11687 H 1121.2 3.32974 6.11638 0
M  V30 11688 H 1118.82 3.91844 6.51431 0
M  V30 11689 N 1120.4 -1.5685 0.153553 0
M  V30 11690 C 1121.35 -2.1709 -0.783626 0
M  V30 11691 C 1122.32 -1.10567 -1.23952 0
M  V30 11692 O 1123.5 -1.38638 -1.31088 0
M  V30 11693 C 1120.64 -2.80183 -2.01473 0
M  V30 11694 C 1119.75 -4.01117 -1.60403 0
M  V30 11695 C 1118.89 -4.5219 -2.78743 0
M  V30 11696 C 1117.93 -5.65574 -2.34079 0
M  V30 11697 N 1117.07 -6.11235 -3.4545 0
M  V30 11698 H 1121.91 -2.96836 -0.263127 0
M  V30 11699 H 1119.44 -1.46625 -0.11816 0
M  V30 11700 H 1121.4 -3.14912 -2.73654 0
M  V30 11701 H 1120.03 -2.03071 -2.50923 0
M  V30 11702 H 1119.08 -3.72325 -0.779631 0
M  V30 11703 H 1120.39 -4.83243 -1.23605 0
M  V30 11704 H 1119.55 -4.89008 -3.59105 0
M  V30 11705 H 1118.29 -3.69085 -3.18791 0
M  V30 11706 H 1117.29 -5.28326 -1.52158 0
M  V30 11707 H 1118.52 -6.50468 -1.95109 0
M  V30 11708 H 1116.46 -5.31064 -3.85106 0
M  V30 11709 H 1116.38 -6.88304 -3.12687 0
M  V30 11710 H 1117.65 -6.527 -4.26149 0
M  V30 11711 N 1121.88 0.120221 -1.57141 0
M  V30 11712 C 1123.29 0.473718 -1.52408 0
M  V30 11713 C 1123.49 1.81925 -0.866354 0
M  V30 11714 O 1122.55 2.48491 -0.448173 0
M  V30 11715 C 1123.86 0.459338 -2.97171 0
M  V30 11716 C 1125.41 0.542975 -3.08254 0
M  V30 11717 C 1125.89 0.558996 -4.54576 0
M  V30 11718 N 1127.38 0.620469 -4.59026 0
M  V30 11719 C 1128.11 0.654292 -5.69655 0
M  V30 11720 N 1127.61 0.645835 -6.89783 0
M  V30 11721 N 1129.4 0.697208 -5.57759 0
M  V30 11722 H 1121.55 -0.76142 -1.98283 0
M  V30 11723 H 1123.81 -0.280736 -0.905479 0
M  V30 11724 H 1123.52 -0.461654 -3.48657 0
M  V30 11725 H 1123.39 1.28759 -3.54543 0
M  V30 11726 H 1125.78 1.45439 -2.56772 0
M  V30 11727 H 1125.86 -0.312936 -2.53879 0
M  V30 11728 H 1125.51 -0.348367 -5.06704 0
M  V30 11729 H 1125.44 1.43177 -5.06762 0
M  V30 11730 H 1127.93 0.633218 -3.72557 0
M  V30 11731 H 1128.24 0.674233 -7.69853 0
M  V30 11732 H 1126.59 0.613279 -6.92289 0
M  V30 11733 H 1129.78 0.70117 -4.62819 0
M  V30 11734 H 1129.95 0.7201 -6.43986 0
M  V30 11735 N 1123.36 1.52689 0.390367 0
M  V30 11736 C 1124.31 1.73751 1.4763 0
M  V30 11737 C 1125.29 0.591572 1.4963 0
M  V30 11738 O 1126.48 0.849354 1.5529 0
M  V30 11739 C 1123.61 1.90855 2.85358 0
M  V30 11740 C 1122.7 3.11377 2.87933 0
M  V30 11741 N 1123.09 4.33751 2.6018 0
M  V30 11742 C 1121.39 3.11594 3.19101 0
M  V30 11743 C 1122.09 5.15346 2.69803 0
M  V30 11744 N 1121.06 4.51002 3.03476 0
M  V30 11745 H 1124.87 2.65994 1.24997 0
M  V30 11746 H 1122.38 1.50977 0.598301 0
M  V30 11747 H 1124.38 2.04065 3.63542 0
M  V30 11748 H 1123.04 0.998241 3.08974 0
M  V30 11749 H 1124.05 4.61907 2.34227 0
M  V30 11750 H 1120.72 2.30368 3.48191 0
M  V30 11751 H 1122.11 6.22892 2.51902 0
M  V30 11752 N 1124.83 -0.648732 1.43629 0
M  V30 11753 C 1126.08 -1.41066 1.45699 0
M  V30 11754 C 1126.41 -1.94024 0.082612 0
M  V30 11755 O 1125.69 -1.7257 -0.897207 0
M  V30 11756 C 1125.97 -2.58882 2.50304 0
M  V30 11757 C 1125.82 -2.11387 3.97033 0
M  V30 11758 C 1127.14 -3.61092 2.51597 0
M  V30 11759 H 1124.26 -0.511591 0.530512 0
M  V30 11760 H 1126.9 -0.735069 1.75205 0
M  V30 11761 H 1125.05 -3.16518 2.25274 0
M  V30 11762 H 1126.73 -1.58718 4.33136 0
M  V30 11763 H 1124.97 -1.4272 4.0965 0
M  V30 11764 H 1125.64 -2.96129 4.65845 0
M  V30 11765 H 1128.12 -3.13223 2.73917 0
M  V30 11766 H 1126.99 -4.41071 3.26722 0
M  V30 11767 H 1127.25 -4.13985 1.55141 0
M  V30 11768 N 1126.31 -1.30234 -0.887518 0
M  V30 11769 C 1127.56 -1.18277 -1.63381 0
M  V30 11770 C 1127.87 0.262079 -1.93836 0
M  V30 11771 O 1129.08 0.503127 -2.66797 0
M  V30 11772 C 1127.54 -2.06944 -2.94452 0
M  V30 11773 C 1127.14 -3.56323 -2.71547 0
M  V30 11774 C 1128.89 -2.03743 -3.7241 0
M  V30 11775 C 1126.8 -4.37054 -3.98419 0
M  V30 11776 H 1125.73 -0.439087 -0.612959 0
M  V30 11777 H 1128.38 -1.54964 -0.982779 0
M  V30 11778 H 1126.76 -1.63138 -3.60835 0
M  V30 11779 H 1127.93 -4.08261 -2.13681 0
M  V30 11780 H 1126.25 -3.61321 -2.06969 0
M  V30 11781 H 1128.84 -2.61312 -4.66497 0
M  V30 11782 H 1129.19 -1.02029 -4.03603 0
M  V30 11783 H 1129.72 -2.45657 -3.12886 0
M  V30 11784 H 1126.46 -5.39453 -3.72385 0
M  V30 11785 H 1125.98 -3.89881 -4.55799 0
M  V30 11786 H 1127.66 -4.48356 -4.66462 0
M  V30 11787 N 1127.79 1.09952 -1.12909 0
M  V30 11788 C 1129.02 1.8633 -0.910821 0
M  V30 11789 C 1129.44 1.80335 0.534874 0
M  V30 11790 O 1128.8 1.1769 1.37908 0
M  V30 11791 C 1128.85 3.32462 -1.39648 0
M  V30 11792 O 1127.95 4.08327 -0.578192 0
M  V30 11793 H 1127.29 0.577984 -0.32685 0
M  V30 11794 H 1129.82 1.38883 -1.50242 0
M  V30 11795 H 1129.83 3.83311 -1.39774 0
M  V30 11796 H 1128.51 3.36141 -2.44913 0
M  V30 11797 H 1127.08 3.67291 -0.644347 0
M  V30 11798 N 1129.27 0.921757 1.27833 0
M  V30 11799 C 1130.52 0.55493 1.93916 0
M  V30 11800 C 1130.83 -0.907191 1.7329 0
M  V30 11801 O 1132.04 -1.38253 2.33663 0
M  V30 11802 C 1130.49 0.941644 3.47363 0
M  V30 11803 C 1130.1 2.42404 3.76755 0
M  V30 11804 C 1131.84 0.645785 4.19559 0
M  V30 11805 C 1129.75 2.75046 5.23549 0
M  V30 11806 H 1128.68 0.203818 0.72593 0
M  V30 11807 H 1131.33 1.12176 1.4522 0
M  V30 11808 H 1129.71 0.303519 3.94835 0
M  V30 11809 H 1130.89 3.10957 3.40062 0
M  V30 11810 H 1129.2 2.69118 3.17749 0
M  V30 11811 H 1131.8 0.866237 5.27637 0
M  V30 11812 H 1132.14 -0.41676 4.14209 0
M  V30 11813 H 1132.68 1.24274 3.7789 0
M  V30 11814 H 1129.42 3.80186 5.33984 0
M  V30 11815 H 1128.94 2.11138 5.6141 0
M  V30 11816 H 1130.61 2.62474 5.91368 0
M  V30 11817 N 1130.75 -1.41857 0.686609 0
M  V30 11818 C 1131.7 -2.27999 -0.00734666 0
M  V30 11819 C 1132.68 -1.41723 -0.761808 0
M  V30 11820 O 1133.87 -1.65072 -0.638776 0
M  V30 11821 C 1131 -3.29909 -0.949462 0
M  V30 11822 C 1130.09 -4.23666 -0.191722 0
M  V30 11823 N 1130.48 -4.99277 0.809715 0
M  V30 11824 C 1128.78 -4.43937 -0.428489 0
M  V30 11825 C 1129.48 -5.67834 1.2625 0
M  V30 11826 N 1128.45 -5.40387 0.590151 0
M  V30 11827 H 1132.26 -2.83887 0.760608 0
M  V30 11828 H 1129.77 -1.53962 0.516676 0
M  V30 11829 H 1131.77 -3.90436 -1.46169 0
M  V30 11830 H 1130.43 -2.75582 -1.71711 0
M  V30 11831 H 1131.44 -5.04051 1.18966 0
M  V30 11832 H 1128.11 -4.00633 -1.17472 0
M  V30 11833 H 1129.5 -6.38469 2.09301 0
M  V30 11834 N 1132.22 -0.430739 -1.51599 0
M  V30 11835 C 1133.45 0.136797 -2.06447 0
M  V30 11836 C 1133.87 1.37027 -1.29881 0
M  V30 11837 O 1133.22 1.78983 -0.356543 0
M  V30 11838 C 1133.28 0.465637 -3.58489 0
M  V30 11839 O 1133 -0.718873 -4.32162 0
M  V30 11840 C 1134.5 1.08456 -4.29828 0
M  V30 11841 H 1131.72 0.0108468 -0.670912 0
M  V30 11842 H 1134.26 -0.607921 -1.95255 0
M  V30 11843 H 1132.42 1.16025 -3.69617 0
M  V30 11844 H 1132.83 -0.439195 -5.22658 0
M  V30 11845 H 1134.3 1.2647 -5.37317 0
M  V30 11846 H 1134.78 2.06376 -3.87693 0
M  V30 11847 H 1135.39 0.429525 -4.23125 0
M  V30 11848 N 1133.7 1.56767 -0.161869 0
M  V30 11849 C 1134.65 2.17502 0.772102 0
M  V30 11850 C 1135.62 1.11223 1.23364 0
M  V30 11851 O 1136.8 1.39332 1.30351 0
M  V30 11852 C 1133.94 2.81248 1.99984 0
M  V30 11853 C 1133.06 4.01962 1.58274 0
M  V30 11854 C 1132.19 4.53662 2.76341 0
M  V30 11855 C 1131.23 5.66807 2.31076 0
M  V30 11856 N 1130.37 6.13059 3.42203 0
M  V30 11857 H 1135.21 2.96971 0.247382 0
M  V30 11858 H 1132.75 1.46685 0.110382 0
M  V30 11859 H 1134.7 3.16359 2.7198 0
M  V30 11860 H 1133.33 2.04398 2.49842 0
M  V30 11861 H 1132.39 3.72733 0.759874 0
M  V30 11862 H 1133.7 4.83891 1.2104 0
M  V30 11863 H 1132.85 4.90905 3.56507 0
M  V30 11864 H 1131.59 3.7077 3.16829 0
M  V30 11865 H 1130.6 5.29125 1.49354 0
M  V30 11866 H 1131.82 6.51494 1.91657 0
M  V30 11867 H 1129.77 5.33099 3.82285 0
M  V30 11868 H 1129.68 6.89953 3.09033 0
M  V30 11869 H 1130.95 6.54951 4.22682 0
M  V30 11870 N 1135.18 -0.111886 1.57202 0
M  V30 11871 C 1136.46 -0.849125 1.76208 0
M  V30 11872 C 1136.84 -1.97735 0.73919 0
M  V30 11873 O 1136.19 -2.27283 -0.235523 0
M  V30 11874 C 1136.4 -1.35924 3.21443 0
M  V30 11875 C 1137.74 -1.80874 3.84148 0
M  V30 11876 O 1138.77 -1.45587 3.25089 0
M  V30 11877 O 1137.63 -2.46065 4.87969 0
M  V30 11878 H 1134.72 -0.403761 0.721738 0
M  V30 11879 H 1137.27 -0.0950726 1.69433 0
M  V30 11880 H 1136.04 -0.550113 3.87414 0
M  V30 11881 H 1135.66 -2.17579 3.32784 0
M  V30 11882 N 1136.66 -1.52894 -0.382264 0
M  V30 11883 C 1137.89 -1.71902 -1.146 0
M  V30 11884 C 1138.3 -0.44017 -1.84009 0
M  V30 11885 O 1137.64 0.595616 -1.73776 0
M  V30 11886 C 1137.7 -2.81785 -2.23244 0
M  V30 11887 C 1137.37 -4.22684 -1.73745 0
M  V30 11888 C 1138.36 -5.05611 -1.21054 0
M  V30 11889 C 1136.05 -4.69031 -1.79763 0
M  V30 11890 C 1138.04 -6.32968 -0.750368 0
M  V30 11891 C 1135.73 -5.96371 -1.33358 0
M  V30 11892 C 1136.73 -6.7817 -0.810832 0
M  V30 11893 O 1136.41 -8.03122 -0.353577 0
M  V30 11894 H 1136.15 -0.578767 -0.349292 0
M  V30 11895 H 1138.7 -2.00359 -0.452246 0
M  V30 11896 H 1136.93 -2.48764 -2.96063 0
M  V30 11897 H 1138.62 -2.89131 -2.84883 0
M  V30 11898 H 1139.39 -4.70984 -1.15755 0
M  V30 11899 H 1135.26 -4.05447 -2.19394 0
M  V30 11900 H 1138.81 -6.96763 -0.341666 0
M  V30 11901 H 1134.71 -6.30501 -1.38344 0
M  V30 11902 H 1135.47 -8.17124 -0.474439 0
M  V30 11903 N 1138.14 0.641106 -1.43971 0
M  V30 11904 C 1139.55 1.22254 -1.41106 0
M  V30 11905 C 1139.9 1.95825 -0.121284 0
M  V30 11906 O 1139.02 2.01901 0.77879 0
M  V30 11907 C 1139.62 2.22364 -2.55617 0
M  V30 11908 C 1138.18 2.75957 -2.55978 0
M  V30 11909 C 1137.33 1.50792 -2.32717 0
M  V30 11910 H 1140.28 0.432381 -1.52696 0
M  V30 11911 H 1140.3 3.04775 -2.27799 0
M  V30 11912 H 1139.81 1.68789 -3.49474 0
M  V30 11913 H 1137.91 3.33562 -1.66034 0
M  V30 11914 H 1138.02 3.22676 -3.54142 0
M  V30 11915 H 1136.39 1.7857 -1.81617 0
M  V30 11916 H 1137.17 0.991343 -3.28675 0
M  V30 11917 N 1139.62 1.30703 0.880598 0
M  V30 11918 C 1140.57 1.14062 1.97418 0
M  V30 11919 C 1141.55 0.0545541 1.60807 0
M  V30 11920 O 1142.74 0.278344 1.74798 0
M  V30 11921 C 1139.87 0.839062 3.32888 0
M  V30 11922 C 1138.96 1.96559 3.75799 0
M  V30 11923 N 1139.35 3.21145 3.90768 0
M  V30 11924 C 1137.65 1.86294 4.05229 0
M  V30 11925 C 1138.35 3.94766 4.27241 0
M  V30 11926 N 1137.32 3.2285 4.37343 0
M  V30 11927 H 1141.12 2.08548 2.07087 0
M  V30 11928 H 1138.64 1.22106 1.0707 0
M  V30 11929 H 1140.64 0.700851 4.10967 0
M  V30 11930 H 1139.3 -0.0976808 3.24553 0
M  V30 11931 H 1140.31 3.56384 3.75781 0
M  V30 11932 H 1136.98 1.00016 4.05343 0
M  V30 11933 H 1138.37 5.02076 4.46508 0
M  V30 11934 N 1141.09 -1.09351 1.1349 0
M  V30 11935 C 1142.51 -1.3359 0.873269 0
M  V30 11936 C 1142.71 -1.95432 -0.490767 0
M  V30 11937 O 1141.77 -2.20117 -1.23712 0
M  V30 11938 C 1143.08 -2.24681 1.99847 0
M  V30 11939 C 1144.63 -2.38188 2.03065 0
M  V30 11940 C 1145.1 -3.32615 3.14851 0
M  V30 11941 N 1146.59 -3.40188 3.14366 0
M  V30 11942 C 1147.33 -4.13256 3.97501 0
M  V30 11943 N 1146.82 -4.89114 4.90652 0
M  V30 11944 N 1148.62 -4.08988 3.85597 0
M  V30 11945 H 1140.77 -0.675852 2.0136 0
M  V30 11946 H 1143.03 -0.360268 0.876876 0
M  V30 11947 H 1142.74 -1.86469 2.98198 0
M  V30 11948 H 1142.61 -3.25075 1.91327 0
M  V30 11949 H 1145 -2.75663 1.05327 0
M  V30 11950 H 1145.08 -1.3757 2.15658 0
M  V30 11951 H 1144.72 -2.95863 4.12829 0
M  V30 11952 H 1144.65 -4.33139 2.99496 0
M  V30 11953 H 1147.14 -2.861 2.46892 0
M  V30 11954 H 1147.46 -5.423 5.50573 0
M  V30 11955 H 1145.8 -4.882 4.94657 0
M  V30 11956 H 1148.99 -3.48826 3.12151 0
M  V30 11957 H 1149.17 -4.65671 4.50615 0
M  V30 11958 N 1142.57 -0.928524 -1.27343 0
M  V30 11959 C 1143.81 -0.576696 -1.96096 0
M  V30 11960 C 1144.18 0.866074 -1.71357 0
M  V30 11961 O 1145.38 1.32621 -2.33805 0
M  V30 11962 C 1143.65 -0.894692 -3.4602 0
M  V30 11963 S 1145.21 -0.651503 -4.33936 0
M  V30 11964 H 1142.02 -0.212847 -0.678393 0
M  V30 11965 H 1144.63 -1.19714 -1.5456 0
M  V30 11966 H 1143.33 -1.94239 -3.61524 0
M  V30 11967 H 1142.86 -0.263478 -3.92517 0
M  V30 11968 H 1144.88 0.490314 -4.93772 0
M  V30 11969 N 1144.05 1.41491 -0.694123 0
M  V30 11970 C 1144.96 2.34583 -0.0283414 0
M  V30 11971 C 1145.98 1.5615 0.767662 0
M  V30 11972 O 1147.15 1.88637 0.705556 0
M  V30 11973 C 1144.22 3.34876 0.897726 0
M  V30 11974 C 1143.28 4.29197 0.0940905 0
M  V30 11975 C 1142.51 5.24699 0.976051 0
M  V30 11976 O 1142.73 5.25613 2.21556 0
M  V30 11977 O 1141.67 6.00387 0.426503 0
M  V30 11978 H 1145.49 2.93092 -0.795656 0
M  V30 11979 H 1143.08 1.4232 -0.45445 0
M  V30 11980 H 1144.96 3.96438 1.4288 0
M  V30 11981 H 1143.64 2.78812 1.64456 0
M  V30 11982 H 1142.54 3.70988 -0.481552 0
M  V30 11983 H 1143.88 4.88355 -0.614045 0
M  V30 11984 N 1145.53 0.438773 1.51369 0
M  V30 11985 C 1146.76 -0.125665 2.06217 0
M  V30 11986 C 1147.17 -1.36887 1.30609 0
M  V30 11987 O 1146.51 -1.80149 0.359433 0
M  V30 11988 C 1146.57 -0.511846 3.55838 0
M  V30 11989 C 1146.23 0.624755 4.52709 0
M  V30 11990 C 1147.23 1.49731 4.97872 0
M  V30 11991 C 1144.92 0.805895 4.95793 0
M  V30 11992 C 1146.91 2.53569 5.84792 0
M  V30 11993 C 1144.6 1.84755 5.82502 0
M  V30 11994 C 1145.6 2.71083 6.269 0
M  V30 11995 O 1145.28 3.7346 7.11887 0
M  V30 11996 H 1145.02 -0.0107227 0.675915 0
M  V30 11997 H 1147.57 0.617071 1.95912 0
M  V30 11998 H 1145.8 -1.30731 3.63932 0
M  V30 11999 H 1147.49 -1.0076 3.93195 0
M  V30 12000 H 1148.25 1.36891 4.65281 0
M  V30 12001 H 1144.13 0.14352 4.60777 0
M  V30 12002 H 1147.68 3.20984 6.19367 0
M  V30 12003 H 1143.57 1.97614 6.14507 0
M  V30 12004 H 1144.34 3.70058 7.30068 0
M  V30 12005 N 1147.01 -1.56678 0.170181 0
M  V30 12006 C 1148.25 -1.98743 -0.477534 0
M  V30 12007 C 1148.61 -1.0538 -1.60497 0
M  V30 12008 O 1149.81 -1.3658 -2.31515 0
M  V30 12009 C 1148.08 -3.44565 -0.949186 0
M  V30 12010 S 1149.64 -4.08658 -1.59824 0
M  V30 12011 H 1146.46 -0.694202 -0.153639 0
M  V30 12012 H 1149.06 -1.93663 0.267373 0
M  V30 12013 H 1147.76 -4.1023 -0.118205 0
M  V30 12014 H 1147.3 -3.53409 -1.72816 0
M  V30 12015 H 1149.31 -4.03614 -2.88635 0
M  V30 12016 N 1148.48 0.103547 -1.57259 0
M  V30 12017 C 1149.43 1.12621 -2.01458 0
M  V30 12018 C 1150.4 1.40282 -0.889391 0
M  V30 12019 O 1151.59 1.51887 -1.15477 0
M  V30 12020 C 1148.73 2.44352 -2.43692 0
M  V30 12021 C 1147.84 2.23495 -3.69695 0
M  V30 12022 C 1146.97 3.48565 -4.00844 0
M  V30 12023 C 1146.01 3.22932 -5.19982 0
M  V30 12024 N 1145.15 4.40246 -5.46926 0
M  V30 12025 H 1149.99 0.742315 -2.88606 0
M  V30 12026 H 1147.53 0.355016 -1.42752 0
M  V30 12027 H 1149.48 3.2122 -2.66221 0
M  V30 12028 H 1148.11 2.80605 -1.59565 0
M  V30 12029 H 1147.17 1.3747 -3.54692 0
M  V30 12030 H 1148.48 2.0054 -4.56711 0
M  V30 12031 H 1147.63 4.33844 -4.24104 0
M  V30 12032 H 1146.37 3.74565 -3.12333 0
M  V30 12033 H 1145.38 2.36045 -4.96551 0
M  V30 12034 H 1146.6 2.98286 -6.10084 0
M  V30 12035 H 1144.55 4.66338 -4.61373 0
M  V30 12036 H 1144.46 4.20452 -6.28296 0
M  V30 12037 H 1145.73 5.26614 -5.74716 0
M  V30 12038 N 1149.96 1.53094 0.37415 0
M  V30 12039 C 1150.91 1.78927 1.45787 0
M  V30 12040 C 1151.88 0.633187 1.53558 0
M  V30 12041 O 1153.06 0.874472 1.69581 0
M  V30 12042 C 1150.2 1.97726 2.8284 0
M  V30 12043 C 1149.32 3.25436 2.84104 0
M  V30 12044 C 1148.45 3.3447 4.12678 0
M  V30 12045 C 1147.49 4.56246 4.08051 0
M  V30 12046 N 1146.63 4.6248 5.28258 0
M  V30 12047 H 1151.47 2.71404 1.2306 0
M  V30 12048 H 1149 1.34453 0.596716 0
M  V30 12049 H 1150.96 2.06611 3.62447 0
M  V30 12050 H 1149.59 1.08593 3.03986 0
M  V30 12051 H 1148.64 3.25548 1.96781 0
M  V30 12052 H 1149.96 4.15112 2.76556 0
M  V30 12053 H 1149.11 3.4262 5.00696 0
M  V30 12054 H 1147.85 2.42795 4.22968 0
M  V30 12055 H 1146.85 4.48206 3.1842 0
M  V30 12056 H 1148.08 5.49254 3.99371 0
M  V30 12057 H 1146.03 3.73703 5.3915 0
M  V30 12058 H 1145.94 5.46049 5.22845 0
M  V30 12059 H 1147.21 4.74903 6.18132 0
M  V30 12060 N 1151.44 -0.633461 1.44309 0
M  V30 12061 C 1152.69 -1.39031 1.46679 0
M  V30 12062 C 1153.01 -1.94745 0.0997165 0
M  V30 12063 O 1152.28 -1.75637 -0.867659 0
M  V30 12064 H 1150.86 -0.516051 0.540093 0
M  V30 12065 H 1153.52 -0.745739 1.80069 0
M  V30 12066 H 1152.62 -2.2228 2.19085 0
M  V30 12067 N 1152.92 -1.31168 -0.873655 0
M  V30 12068 C 1154.17 -1.20642 -1.6264 0
M  V30 12069 C 1154.49 0.236286 -1.93059 0
M  V30 12070 O 1153.75 1.18401 -1.55819 0
M  V30 12071 C 1154.05 -1.99204 -2.96736 0
M  V30 12072 C 1153.71 -3.48734 -2.85824 0
M  V30 12073 C 1152.38 -3.89507 -2.82555 0
M  V30 12074 C 1154.73 -4.43905 -2.73127 0
M  V30 12075 C 1152.06 -5.23724 -2.64442 0
M  V30 12076 C 1154.41 -5.78242 -2.56551 0
M  V30 12077 C 1153.07 -6.18241 -2.51663 0
M  V30 12078 H 1152.34 -0.44146 -0.595142 0
M  V30 12079 H 1154.99 -1.62394 -1.01492 0
M  V30 12080 H 1153.29 -1.50122 -3.61899 0
M  V30 12081 H 1154.99 -1.88443 -3.53963 0
M  V30 12082 H 1151.58 -3.1634 -2.89184 0
M  V30 12083 H 1155.76 -4.13338 -2.7471 0
M  V30 12084 H 1151.02 -5.53794 -2.59081 0
M  V30 12085 H 1155.19 -6.51616 -2.45702 0
M  V30 12086 H 1152.82 -7.22185 -2.37387 0
M  V30 12087 N 1154.4 1.08748 -1.14068 0
M  V30 12088 C 1155.81 1.33125 -0.880341 0
M  V30 12089 C 1156.01 1.9569 0.480396 0
M  V30 12090 O 1155.07 2.2077 1.22543 0
M  V30 12091 C 1156.38 2.23618 -2.01036 0
M  V30 12092 C 1157.93 2.37108 -2.04326 0
M  V30 12093 C 1158.4 3.30941 -3.1661 0
M  V30 12094 N 1159.9 3.38517 -3.16166 0
M  V30 12095 C 1160.63 4.11142 -3.99687 0
M  V30 12096 N 1160.13 4.86505 -4.93239 0
M  V30 12097 N 1161.92 4.06938 -3.87761 0
M  V30 12098 H 1154.07 0.665164 -2.01716 0
M  V30 12099 H 1156.33 0.355612 -0.878774 0
M  V30 12100 H 1156.04 1.84885 -2.99183 0
M  V30 12101 H 1155.91 3.24056 -1.93049 0
M  V30 12102 H 1158.3 2.75101 -1.06787 0
M  V30 12103 H 1158.38 1.36424 -2.16384 0
M  V30 12104 H 1158.03 2.93669 -4.14392 0
M  V30 12105 H 1157.96 4.31545 -3.01789 0
M  V30 12106 H 1160.45 2.84786 -2.48405 0
M  V30 12107 H 1160.76 5.39372 -5.53441 0
M  V30 12108 H 1159.1 4.8557 -4.9724 0
M  V30 12109 H 1162.3 3.47166 -3.13996 0
M  V30 12110 H 1162.47 4.63275 -4.53079 0
M  V30 12111 N 1155.87 0.935264 1.26849 0
M  V30 12112 C 1157.29 0.636661 1.46352 0
M  V30 12113 C 1157.49 -0.811823 1.84423 0
M  V30 12114 O 1156.55 -1.58902 1.9623 0
M  V30 12115 C 1157.86 1.59301 2.55036 0
M  V30 12116 C 1159.41 1.60207 2.68892 0
M  V30 12117 C 1159.88 2.54558 3.80742 0
M  V30 12118 N 1161.37 2.52809 3.88126 0
M  V30 12119 C 1162.11 3.225 4.74111 0
M  V30 12120 N 1161.6 4.01598 5.64527 0
M  V30 12121 N 1163.4 3.11481 4.67906 0
M  V30 12122 H 1155.55 1.8716 1.00423 0
M  V30 12123 H 1157.81 0.803968 0.502334 0
M  V30 12124 H 1157.52 2.62671 2.33874 0
M  V30 12125 H 1157.39 1.34052 3.52576 0
M  V30 12126 H 1159.78 0.575649 2.89431 0
M  V30 12127 H 1159.86 1.89508 1.71815 0
M  V30 12128 H 1159.5 3.57314 3.60956 0
M  V30 12129 H 1159.43 2.22549 4.77263 0
M  V30 12130 H 1161.92 1.9537 3.2348 0
M  V30 12131 H 1162.24 4.51742 6.27016 0
M  V30 12132 H 1160.58 4.057 5.64298 0
M  V30 12133 H 1163.77 2.49175 3.9627 0
M  V30 12134 H 1163.95 3.66064 5.34697 0
M  V30 12135 N 1157.35 -1.41121 0.701616 0
M  V30 12136 C 1158.76 -1.84122 0.309208 0
M  V30 12137 C 1159.11 -1.58695 -1.15371 0
M  V30 12138 O 1158.24 -1.06053 -1.88631 0
M  V30 12139 C 1158.83 -3.34233 0.554429 0
M  V30 12140 C 1157.39 -3.7578 0.215876 0
M  V30 12141 C 1156.54 -2.6447 0.833729 0
M  V30 12142 H 1159.49 -1.30587 0.901822 0
M  V30 12143 H 1159.51 -3.8005 -0.18491 0
M  V30 12144 H 1159.02 -3.52707 1.61923 0
M  V30 12145 H 1157.13 -3.62905 -0.844421 0
M  V30 12146 H 1157.24 -4.74319 0.675118 0
M  V30 12147 H 1155.6 -2.5334 0.262851 0
M  V30 12148 H 1156.39 -2.85761 1.90252 0
M  V30 12149 N 1158.83 -0.446794 -1.51134 0
M  V30 12150 C 1160.06 0.117242 -2.07068 0
M  V30 12151 C 1160.48 1.34877 -1.3111 0
M  V30 12152 O 1159.84 1.77856 -0.35172 0
M  V30 12153 C 1159.89 0.408616 -3.58277 0
M  V30 12154 O 1158.99 1.49345 -3.84408 0
M  V30 12155 H 1158.33 -0.00228458 -0.663996 0
M  V30 12156 H 1160.86 -0.63085 -1.94632 0
M  V30 12157 H 1160.87 0.656298 -4.02687 0
M  V30 12158 H 1159.55 -0.491444 -4.12986 0
M  V30 12159 H 1158.12 1.23499 -3.51856 0
M  V30 12160 N 1160.31 1.56586 -0.178487 0
M  V30 12161 C 1161.22 2.21903 0.761321 0
M  V30 12162 C 1162.23 1.21289 1.2476 0
M  V30 12163 O 1163.41 1.53974 1.29823 0
M  V30 12164 C 1160.48 2.85259 1.97048 0
M  V30 12165 C 1159.54 4.01095 1.53039 0
M  V30 12166 C 1158.77 4.61421 2.68191 0
M  V30 12167 O 1158.99 4.20644 3.85247 0
M  V30 12168 O 1157.93 5.51171 2.41855 0
M  V30 12169 H 1161.75 3.02788 0.235141 0
M  V30 12170 H 1159.34 1.49316 0.0500442 0
M  V30 12171 H 1161.22 3.25404 2.6775 0
M  V30 12172 H 1159.89 2.07366 2.48558 0
M  V30 12173 H 1158.8 3.65606 0.792661 0
M  V30 12174 H 1160.13 4.80603 1.06213 0
M  V30 12175 N 1161.79 -0.095206 1.57312 0
M  V30 12176 C 1162.73 -1.11551 2.02052 0
M  V30 12177 C 1163.7 -1.39808 0.896818 0
M  V30 12178 O 1164.89 -1.51273 1.1628 0
M  V30 12179 C 1162.03 -2.43056 2.44985 0
M  V30 12180 C 1161.14 -2.21531 3.70875 0
M  V30 12181 C 1160.28 -3.46434 4.02687 0
M  V30 12182 C 1159.32 -3.2017 5.21687 0
M  V30 12183 N 1158.45 -4.37339 5.49253 0
M  V30 12184 H 1163.29 -0.727 2.88996 0
M  V30 12185 H 1160.83 -0.347441 1.42938 0
M  V30 12186 H 1162.79 -3.19803 2.67921 0
M  V30 12187 H 1161.42 -2.79754 1.61051 0
M  V30 12188 H 1160.47 -1.35587 3.55416 0
M  V30 12189 H 1161.78 -1.98116 4.57768 0
M  V30 12190 H 1160.94 -4.31589 4.26399 0
M  V30 12191 H 1159.67 -3.72904 3.14315 0
M  V30 12192 H 1158.68 -2.33409 4.97796 0
M  V30 12193 H 1159.9 -2.95047 6.11657 0
M  V30 12194 H 1157.85 -4.63885 4.6384 0
M  V30 12195 H 1157.77 -4.17114 6.30517 0
M  V30 12196 H 1159.04 -5.23559 5.775 0
M  V30 12197 N 1163.26 -1.53291 -0.366026 0
M  V30 12198 C 1164.21 -1.80367 -1.4687 0
M  V30 12199 C 1165.21 -0.672767 -1.55468 0
M  V30 12200 O 1166.41 -0.8557 -1.5836 0
M  V30 12201 H 1162.79 -0.571076 -0.48926 0
M  V30 12202 H 1164.76 -2.72661 -1.21237 0
M  V30 12203 C 1163.51 -2.01008 -2.8371 0
M  V30 12204 H 1162.83 -2.87468 -2.77853 0
M  V30 12205 H 1164.27 -2.2393 -3.60043 0
M  V30 12206 C 1162.73 -0.789054 -3.27529 0
M  V30 12207 O 1163.26 0.0224712 -4.01694 0
M  V30 12208 N 1161.47 -0.612621 -2.84069 0
M  V30 12209 H 1161.01 -1.27416 -2.23881 0
M  V30 12210 H 1160.97 0.202943 -3.13744 0
M  V30 12211 N 1164.74 0.6258 -1.44643 0
M  V30 12212 C 1165.67 1.75086 -1.47911 0
M  V30 12213 C 1166.69 1.58496 -0.37188 0
M  V30 12214 O 1167.88 1.66712 -0.637925 0
M  V30 12215 C 1164.98 3.12874 -1.30243 0
M  V30 12216 C 1164.15 3.55873 -2.54309 0
M  V30 12217 C 1163.21 4.72558 -2.31464 0
M  V30 12218 O 1162.23 4.80599 -3.04981 0
M  V30 12219 N 1163.44 5.64617 -1.34862 0
M  V30 12220 H 1166.2 1.72751 -2.44902 0
M  V30 12221 H 1163.76 0.810531 -1.4015 0
M  V30 12222 H 1165.75 3.88663 -1.12798 0
M  V30 12223 H 1164.32 3.0982 -0.415966 0
M  V30 12224 H 1163.54 2.70237 -2.86994 0
M  V30 12225 H 1164.83 3.81355 -3.36817 0
M  V30 12226 H 1164.23 5.60819 -0.741542 0
M  V30 12227 H 1162.79 6.40013 -1.23394 0
M  V30 12228 N 1166.22 1.31629 0.866686 0
M  V30 12229 C 1167.17 1.16149 1.96197 0
M  V30 12230 C 1168.15 0.0716068 1.60741 0
M  V30 12231 O 1169.35 0.296868 1.74493 0
M  V30 12232 C 1166.48 0.874322 3.3198 0
M  V30 12233 C 1165.56 2.00534 3.73693 0
M  V30 12234 N 1165.95 3.25272 3.87339 0
M  V30 12235 C 1164.25 1.90582 4.0323 0
M  V30 12236 C 1164.95 3.99275 4.2303 0
M  V30 12237 N 1163.93 3.27471 4.33894 0
M  V30 12238 H 1167.73 2.10732 2.04864 0
M  V30 12239 H 1165.24 1.23234 1.05769 0
M  V30 12240 H 1167.24 0.7444 4.102 0
M  V30 12241 H 1165.9 -0.0632521 3.24638 0
M  V30 12242 H 1166.91 3.60349 3.71979 0
M  V30 12243 H 1163.59 1.0431 4.0426 0
M  V30 12244 H 1164.98 5.06784 4.41157 0
M  V30 12245 N 1167.7 -1.08142 1.14644 0
M  V30 12246 C 1168.95 -1.79959 0.910908 0
M  V30 12247 C 1169.26 -1.87296 -0.563866 0
M  V30 12248 O 1170.47 -2.55555 -0.916735 0
M  V30 12249 C 1168.92 -3.23351 1.58025 0
M  V30 12250 C 1168.53 -3.2424 3.09148 0
M  V30 12251 C 1170.28 -3.99834 1.42595 0
M  V30 12252 C 1168.18 -4.62236 3.68906 0
M  V30 12253 H 1167.11 -0.674423 0.33715 0
M  V30 12254 H 1169.76 -1.21441 1.37566 0
M  V30 12255 H 1168.15 -3.82013 1.04318 0
M  V30 12256 H 1169.32 -2.75269 3.69545 0
M  V30 12257 H 1167.63 -2.61253 3.24246 0
M  V30 12258 H 1170.23 -5.01809 1.8464 0
M  V30 12259 H 1170.57 -4.14631 0.372402 0
M  V30 12260 H 1171.11 -3.47648 1.93354 0
M  V30 12261 H 1167.85 -4.52642 4.74126 0
M  V30 12262 H 1167.37 -5.11477 3.1329 0
M  V30 12263 H 1169.05 -5.3121 3.69358 0
M  V30 12264 N 1169.18 -0.941978 -1.26351 0
M  V30 12265 C 1170.11 -0.396486 -2.24729 0
M  V30 12266 C 1171.09 0.51514 -1.54224 0
M  V30 12267 O 1172.27 0.452405 -1.82991 0
M  V30 12268 C 1169.4 0.430232 -3.35956 0
M  V30 12269 C 1168.45 -0.419981 -4.24427 0
M  V30 12270 S 1169.28 -1.84442 -5.02734 0
M  V30 12271 C 1170.43 -1.02578 -6.17437 0
M  V30 12272 H 1170.67 -1.23025 -2.70651 0
M  V30 12273 H 1168.2 -0.745148 -1.35229 0
M  V30 12274 H 1170.16 0.901315 -4.00483 0
M  V30 12275 H 1168.82 1.23868 -2.88644 0
M  V30 12276 H 1168.01 0.213475 -5.03548 0
M  V30 12277 H 1167.61 -0.82578 -3.6477 0
M  V30 12278 H 1169.91 -0.268431 -6.76968 0
M  V30 12279 H 1170.85 -1.79047 -6.85089 0
M  V30 12280 H 1171.26 -0.561488 -5.61701 0
M  V30 12281 N 1170.66 1.40747 -0.709091 0
M  V30 12282 C 1172.07 1.54961 -0.381989 0
M  V30 12283 C 1172.27 1.68181 1.10985 0
M  V30 12284 O 1171.33 1.66776 1.89584 0
M  V30 12285 C 1172.64 2.78156 -1.14236 0
M  V30 12286 C 1174.19 2.91967 -1.12803 0
M  V30 12287 C 1174.66 4.18066 -1.87042 0
M  V30 12288 N 1176.15 4.25052 -1.84078 0
M  V30 12289 C 1176.89 5.21514 -2.38349 0
M  V30 12290 N 1176.39 6.23924 -3.01149 0
M  V30 12291 N 1178.18 5.13548 -2.28528 0
M  V30 12292 H 1170.33 1.30412 -1.6765 0
M  V30 12293 H 1172.59 0.630147 -0.70825 0
M  V30 12294 H 1172.3 2.74643 -2.19691 0
M  V30 12295 H 1172.17 3.70074 -0.729731 0
M  V30 12296 H 1174.56 2.94987 -0.0816956 0
M  V30 12297 H 1174.64 2.01185 -1.57982 0
M  V30 12298 H 1174.28 4.15808 -2.91662 0
M  V30 12299 H 1174.21 5.07845 -1.39287 0
M  V30 12300 H 1176.71 3.51682 -1.38305 0
M  V30 12301 H 1177.02 6.93942 -3.40094 0
M  V30 12302 H 1175.36 6.24387 -3.05231 0
M  V30 12303 H 1178.55 4.3247 -1.79129 0
M  V30 12304 H 1178.73 5.88553 -2.71126 0
M  V30 12305 N 1172.13 0.454803 1.50895 0
M  V30 12306 C 1173.08 -0.366073 2.25042 0
M  V30 12307 C 1174.07 -0.975353 1.27967 0
M  V30 12308 O 1175.26 -0.8906 1.52962 0
M  V30 12309 C 1172.39 -1.45683 3.10856 0
M  V30 12310 C 1171.47 -0.856086 4.1537 0
M  V30 12311 N 1171.87 0.0138787 5.05798 0
M  V30 12312 C 1170.16 -1.1218 4.31661 0
M  V30 12313 C 1170.86 0.35313 5.80627 0
M  V30 12314 N 1169.84 -0.267648 5.42941 0
M  V30 12315 H 1173.64 0.304357 2.9232 0
M  V30 12316 H 1171.16 0.267937 1.60174 0
M  V30 12317 H 1173.15 -2.05793 3.62567 0
M  V30 12318 H 1171.81 -2.12942 2.45124 0
M  V30 12319 H 1172.82 0.381574 5.16492 0
M  V30 12320 H 1169.5 -1.79059 3.77153 0
M  V30 12321 H 1170.89 1.06213 6.63452 0
M  V30 12322 N 1173.61 -1.56489 0.186789 0
M  V30 12323 C 1174.56 -2.15311 -0.750024 0
M  V30 12324 C 1175.55 -1.09156 -1.18211 0
M  V30 12325 O 1176.74 -1.3524 -1.14189 0
M  V30 12326 C 1173.87 -2.80952 -1.97284 0
M  V30 12327 C 1172.95 -3.94286 -1.56204 0
M  V30 12328 N 1173.34 -4.98406 -0.861705 0
M  V30 12329 C 1171.64 -4.05733 -1.85194 0
M  V30 12330 C 1172.34 -5.77977 -0.657078 0
M  V30 12331 N 1171.32 -5.30116 -1.20326 0
M  V30 12332 H 1175.12 -2.93176 -0.206148 0
M  V30 12333 H 1172.63 -1.62395 -0.0133163 0
M  V30 12334 H 1174.63 -3.21479 -2.65437 0
M  V30 12335 H 1173.29 -2.04572 -2.52152 0
M  V30 12336 H 1174.3 -5.15302 -0.518067 0
M  V30 12337 H 1170.98 -3.40472 -2.4163 0
M  V30 12338 H 1172.37 -6.71822 -0.102123 0
M  V30 12339 N 1175.09 0.086862 -1.5736 0
M  V30 12340 C 1176.04 1.10478 -2.02641 0
M  V30 12341 C 1177.01 1.39331 -0.904219 0
M  V30 12342 O 1178.19 1.50654 -1.17081 0
M  V30 12343 C 1175.33 2.41754 -2.4627 0
M  V30 12344 C 1174.44 2.19561 -3.72044 0
M  V30 12345 C 1173.58 3.44294 -4.04519 0
M  V30 12346 C 1172.62 3.17399 -5.23378 0
M  V30 12347 N 1171.76 4.3442 -5.51564 0
M  V30 12348 H 1176.6 0.711663 -2.89378 0
M  V30 12349 H 1174.13 0.339856 -1.4312 0
M  V30 12350 H 1176.09 3.18378 -2.69613 0
M  V30 12351 H 1174.72 2.78896 -1.62532 0
M  V30 12352 H 1173.77 1.337 -3.5613 0
M  V30 12353 H 1175.08 1.95685 -4.58812 0
M  V30 12354 H 1174.24 4.29321 -4.28682 0
M  V30 12355 H 1172.98 3.71232 -3.16289 0
M  V30 12356 H 1171.98 2.30765 -4.99026 0
M  V30 12357 H 1173.21 2.91799 -6.13213 0
M  V30 12358 H 1171.15 4.61418 -4.66293 0
M  V30 12359 H 1171.07 4.13764 -6.3272 0
M  V30 12360 H 1172.34 5.20489 -5.80269 0
M  V30 12361 N 1176.57 1.53483 0.357892 0
M  V30 12362 C 1177.48 1.83434 1.4625 0
M  V30 12363 C 1178.49 0.723313 1.58254 0
M  V30 12364 O 1179.67 1.01416 1.74002 0
M  V30 12365 C 1176.73 2.0249 2.81423 0
M  V30 12366 C 1175.8 3.26378 2.78883 0
M  V30 12367 C 1175.03 3.44516 4.07608 0
M  V30 12368 O 1175.25 2.66787 5.04163 0
M  V30 12369 O 1174.19 4.37898 4.12952 0
M  V30 12370 H 1178.01 2.77294 1.23861 0
M  V30 12371 H 1175.6 1.38958 0.548722 0
M  V30 12372 H 1177.48 2.16552 3.61501 0
M  V30 12373 H 1176.15 1.11819 3.03773 0
M  V30 12374 H 1175.06 3.17733 1.97475 0
M  V30 12375 H 1176.39 4.16996 2.61486 0
M  V30 12376 N 1178.05 -0.61812 1.44973 0
M  V30 12377 C 1179.29 -1.37944 1.48658 0
M  V30 12378 C 1179.62 -1.93805 0.123749 0
M  V30 12379 O 1178.9 -1.74434 -0.860401 0
M  V30 12380 C 1179.18 -2.53515 2.55739 0
M  V30 12381 C 1179.04 -2.02918 4.01428 0
M  V30 12382 C 1180.35 -3.55674 2.59199 0
M  V30 12383 H 1177.47 -0.500223 0.541244 0
M  V30 12384 H 1180.12 -0.69774 1.76725 0
M  V30 12385 H 1178.27 -3.11669 2.31937 0
M  V30 12386 H 1179.94 -1.49494 4.36405 0
M  V30 12387 H 1178.18 -1.33999 4.12586 0
M  V30 12388 H 1178.85 -2.86181 4.72021 0
M  V30 12389 H 1181.33 -3.07343 2.80499 0
M  V30 12390 H 1180.2 -4.34042 3.36004 0
M  V30 12391 H 1180.46 -4.10601 1.63888 0
M  V30 12392 N 1179.52 -1.32087 -0.859693 0
M  V30 12393 C 1180.77 -1.22119 -1.61033 0
M  V30 12394 C 1181.09 0.218289 -1.93774 0
M  V30 12395 O 1180.36 1.14172 -1.5919 0
M  V30 12396 H 1178.94 -0.448989 -0.597008 0
M  V30 12397 H 1181.6 -1.65545 -1.02863 0
M  V30 12398 H 1180.7 -1.80023 -2.54947 0
M  V30 12399 N 1181 1.07532 -1.15215 0
M  V30 12400 C 1181.93 2.1668 -0.870171 0
M  V30 12401 C 1182.91 1.69161 0.178483 0
M  V30 12402 O 1184.1 1.94172 0.0332489 0
M  V30 12403 C 1181.23 3.45464 -0.356666 0
M  V30 12404 C 1180.18 4.06424 -1.34179 0
M  V30 12405 C 1179.51 5.30266 -0.687206 0
M  V30 12406 C 1180.81 4.46666 -2.70715 0
M  V30 12407 H 1182.5 2.40526 -1.7829 0
M  V30 12408 H 1180.05 1.15598 -0.858665 0
M  V30 12409 H 1182 4.21144 -0.146947 0
M  V30 12410 H 1180.72 3.21199 0.591527 0
M  V30 12411 H 1179.38 3.32786 -1.53783 0
M  V30 12412 H 1179.03 5.0229 0.267077 0
M  V30 12413 H 1178.73 5.72009 -1.34462 0
M  V30 12414 H 1180.26 6.08653 -0.487218 0
M  V30 12415 H 1181.67 5.13483 -2.54966 0
M  V30 12416 H 1180.07 4.99355 -3.32813 0
M  V30 12417 H 1181.14 3.58123 -3.26919 0
M  V30 12418 N 1182.48 0.948665 1.2585 0
M  V30 12419 C 1183.89 0.641829 1.75321 0
M  V30 12420 C 1184.24 -0.842903 1.77171 0
M  V30 12421 O 1183.37 -1.65967 1.38867 0
M  V30 12422 C 1183.96 1.15835 3.18383 0
M  V30 12423 C 1182.52 0.901784 3.65438 0
M  V30 12424 C 1181.67 1.30489 2.44679 0
M  V30 12425 H 1184.62 1.12614 1.1182 0
M  V30 12426 H 1184.64 0.515639 3.7699 0
M  V30 12427 H 1184.15 2.23897 3.17004 0
M  V30 12428 H 1182.25 -0.164135 3.72238 0
M  V30 12429 H 1182.37 1.53405 4.53876 0
M  V30 12430 H 1180.73 0.723278 2.44215 0
M  V30 12431 H 1181.51 2.3946 2.45996 0
M  V30 12432 O 1184 -1.37026 0.854759 0
M  V30 12433 H 1184.69 -1.88433 0.448626 0
M  V30 END ATOM
M  V30 BEGIN BOND
M  V30 END BOND
M  V30 END CTAB
M  END
$$$$
