drugbank_target|Q9UHY7 Enolase-phosphatase E1 (DB07912)
 OpenBabel12092120473D

  0  0  0     0  0            999 V3000
M  V30 BEGIN CTAB
M  V30 COUNTS 4028 4067 0 0 0
M  V30 BEGIN ATOM
M  V30 1 H -0.908 1.98254 -0.117106 0
M  V30 2 N 0 1.576 0 0
M  V30 3 C 0.933 2.03868 1.02534 0
M  V30 4 C 1.911 0.928543 1.3348 0
M  V30 5 O 3.095 1.19667 1.45644 0
M  V30 6 C 0.222 2.43627 2.35294 0
M  V30 7 C -0.732 3.65373 2.2001 0
M  V30 8 S 0.101 5.13292 1.52614 0
M  V30 9 C 1.257 5.56322 2.86805 0
M  V30 10 H 1.49 2.90518 0.631377 0
M  V30 11 H -0.977 1.52953 0.210867 0
M  V30 12 H 0.981 2.67203 3.11629 0
M  V30 13 H -0.358 1.57376 2.7183 0
M  V30 14 H -1.165 3.90944 3.18086 0
M  V30 15 H -1.563 3.418 1.51819 0
M  V30 16 H 0.729 5.58782 3.83104 0
M  V30 17 H 1.672 6.56266 2.65933 0
M  V30 18 H 2.08 4.83886 2.90714 0
M  V30 19 N 1.4781 -0.272755 1.55222 0
M  V30 20 C 2.7241 -1.00581 1.761 0
M  V30 21 C 3.0571 -1.85932 0.560625 0
M  V30 22 O 2.3321 -1.89416 -0.441801 0
M  V30 23 C 2.6151 -1.88816 3.06628 0
M  V30 24 C 2.4681 -1.06457 4.37021 0
M  V30 25 C 3.7871 -2.8752 3.33197 0
M  V30 26 H 0.9061 -0.364244 0.640699 0
M  V30 27 H 3.5481 -0.278189 1.87952 0
M  V30 28 H 1.6981 -2.50856 2.96654 0
M  V30 29 H 3.3701 -0.464863 4.58952 0
M  V30 30 H 1.6131 -0.368043 4.32236 0
M  V30 31 H 2.2841 -1.71514 5.24678 0
M  V30 32 H 4.7601 -2.35615 3.42965 0
M  V30 33 H 3.6361 -3.46399 4.25792 0
M  V30 34 H 3.8971 -3.62657 2.52849 0
M  V30 35 N 2.9562 -1.48159 -0.537278 0
M  V30 36 C 4.2022 -1.56035 -1.29541 0
M  V30 37 C 4.5352 -0.230377 -1.92829 0
M  V30 38 O 3.8102 0.762952 -1.78911 0
M  V30 39 C 4.0932 -2.69323 -2.39034 0
M  V30 40 C 3.9462 -4.12002 -1.80485 0
M  V30 41 C 5.2652 -2.78408 -3.40847 0
M  V30 42 H 2.3842 -0.567992 -0.469632 0
M  V30 43 H 5.0262 -1.80302 -0.599277 0
M  V30 44 H 3.1762 -2.48763 -2.98412 0
M  V30 45 H 4.8482 -4.43981 -1.25215 0
M  V30 46 H 3.0912 -4.19344 -1.11055 0
M  V30 47 H 3.7622 -4.87077 -2.59731 0
M  V30 48 H 6.2382 -2.97012 -2.91416 0
M  V30 49 H 5.1142 -3.59416 -4.14863 0
M  V30 50 H 5.3752 -1.86269 -4.00944 0
M  V30 51 N 4.4343 0.785586 -1.36625 0
M  V30 52 C 5.3643 1.91259 -1.33949 0
M  V30 53 C 6.3453 1.68795 -0.210325 0
M  V30 54 O 7.5303 1.89854 -0.408561 0
M  V30 55 C 4.6603 3.28339 -1.13186 0
M  V30 56 C 3.6143 3.65335 -2.22967 0
M  V30 57 C 2.9403 5.00806 -1.87342 0
M  V30 58 C 4.2403 3.7352 -3.65075 0
M  V30 59 H 5.9343 1.93755 -2.28253 0
M  V30 60 H 3.4803 0.930788 -1.09874 0
M  V30 61 H 5.4333 4.06804 -1.09948 0
M  V30 62 H 4.1573 3.2624 -0.153332 0
M  V30 63 H 2.8163 2.89169 -2.25337 0
M  V30 64 H 2.4643 4.95233 -0.880545 0
M  V30 65 H 2.1643 5.26529 -2.60846 0
M  V30 66 H 3.6883 5.81687 -1.85667 0
M  V30 67 H 5.1023 4.42168 -3.64911 0
M  V30 68 H 3.4993 4.10731 -4.37516 0
M  V30 69 H 4.5693 2.74527 -3.99703 0
M  V30 70 N 5.9124 1.20967 1.01018 0
M  V30 71 C 7.1374 1.0503 1.78839 0
M  V30 72 C 7.5624 -0.395752 1.8389 0
M  V30 73 O 6.9204 -1.28529 1.27867 0
M  V30 74 C 6.9684 1.64602 3.2084 0
M  V30 75 O 6.0724 0.887988 4.02726 0
M  V30 76 H 5.4134 0.369987 0.551367 0
M  V30 77 H 7.9434 1.60399 1.27018 0
M  V30 78 H 7.9534 1.68607 3.71532 0
M  V30 79 H 6.6284 2.69841 3.16479 0
M  V30 80 H 5.2054 0.922648 3.61305 0
M  V30 81 N 7.3905 -1.2043 1.01659 0
M  V30 82 C 8.6365 -1.90079 0.706963 0
M  V30 83 C 8.9695 -1.78648 -0.761474 0
M  V30 84 O 8.2445 -1.17069 -1.55323 0
M  V30 85 C 8.5275 -3.41469 1.14327 0
M  V30 86 C 8.3805 -3.61833 2.67201 0
M  V30 87 C 9.6995 -4.34261 0.714529 0
M  V30 88 H 6.8185 -0.690254 0.2583 0
M  V30 89 H 9.4605 -1.41826 1.26433 0
M  V30 90 H 7.6105 -3.82696 0.669056 0
M  V30 91 H 9.2825 -3.2986 3.22475 0
M  V30 92 H 7.5255 -3.05304 3.08175 0
M  V30 93 H 8.1965 -4.67955 2.92783 0
M  V30 94 H 10.6725 -4.00682 1.12221 0
M  V30 95 H 9.5485 -5.38806 1.04784 0
M  V30 96 H 9.8095 -4.40431 -0.383799 0
M  V30 97 N 8.8686 -0.792821 -1.36206 0
M  V30 98 C 10.2796 -0.429513 -1.81692 0
M  V30 99 C 10.6306 1.04695 -1.65932 0
M  V30 100 O 9.7556 1.81256 -1.18218 0
M  V30 101 C 10.3506 -0.772831 -3.29868 0
M  V30 102 C 8.9096 -0.462307 -3.7355 0
M  V30 103 C 8.0566 -1.00569 -2.5842 0
M  V30 104 H 11.0076 -0.985672 -1.24379 0
M  V30 105 H 11.0286 -0.0651928 -3.80444 0
M  V30 106 H 10.5406 -1.84747 -3.41307 0
M  V30 107 H 8.6416 0.604158 -3.67669 0
M  V30 108 H 8.7546 -0.985299 -4.68859 0
M  V30 109 H 7.1186 -0.428734 -2.51066 0
M  V30 110 H 7.9016 -2.08616 -2.72643 0
M  V30 111 N 10.3467 1.47872 -0.545128 0
M  V30 112 C 11.3097 2.28337 0.198717 0
M  V30 113 C 12.3097 1.36255 0.853888 0
M  V30 114 O 13.4997 1.59003 0.711606 0
M  V30 115 C 10.6317 3.15585 1.28915 0
M  V30 116 H 11.8247 2.95567 -0.507941 0
M  V30 117 H 9.3777 1.53362 -0.301616 0
M  V30 118 H 10.1127 2.53019 2.02859 0
M  V30 119 H 9.8977 3.83337 0.824309 0
M  V30 120 H 11.3877 3.76243 1.81194 0
M  V30 121 N 11.8248 0.280983 1.55075 0
M  V30 122 C 12.7348 -0.61388 2.26426 0
M  V30 123 C 13.7508 -1.16521 1.29224 0
M  V30 124 O 14.9268 -1.19426 1.62171 0
M  V30 125 C 11.9918 -1.7788 2.9759 0
M  V30 126 C 11.0528 -1.26355 4.10284 0
M  V30 127 C 10.2858 -2.37295 4.78045 0
M  V30 128 O 10.5088 -3.56777 4.45047 0
M  V30 129 O 9.4428 -2.05119 5.65871 0
M  V30 130 H 13.2688 -0.0356932 3.03679 0
M  V30 131 H 10.8538 0.0481686 1.49322 0
M  V30 132 H 12.7358 -2.45791 3.42293 0
M  V30 133 H 11.4108 -2.34397 2.23249 0
M  V30 134 H 10.3178 -0.550735 3.70024 0
M  V30 135 H 11.6508 -0.744065 4.86543 0
M  V30 136 N 13.3029 -1.57598 0.00835791 0
M  V30 137 C 14.5489 -1.91211 -0.675732 0
M  V30 138 C 14.8819 -0.883139 -1.72958 0
M  V30 139 O 14.1569 0.097016 -1.94258 0
M  V30 140 C 14.4399 -3.35379 -1.31123 0
M  V30 141 C 14.2929 -4.48999 -0.268356 0
M  V30 142 C 15.6119 -3.7912 -2.23508 0
M  V30 143 H 12.7309 -0.695374 -0.244179 0
M  V30 144 H 15.3729 -1.89901 0.0613655 0
M  V30 145 H 13.5229 -3.36626 -1.93946 0
M  V30 146 H 15.1949 -4.59887 0.360844 0
M  V30 147 H 13.4379 -4.31873 0.408482 0
M  V30 148 H 14.1089 -5.46851 -0.752218 0
M  V30 149 H 16.5849 -3.79477 -1.70693 0
M  V30 150 H 15.4609 -4.80729 -2.64936 0
M  V30 151 H 15.7219 -3.13455 -3.11766 0
M  V30 152 N 14.781 0.264519 -1.55364 0
M  V30 153 C 16.009 1.013 -1.80405 0
M  V30 154 C 16.424 1.79618 -0.581622 0
M  V30 155 O 15.781 1.76879 0.449468 0
M  V30 156 C 15.832 1.96487 -3.03439 0
M  V30 157 O 15.553 1.21341 -4.20961 0
M  V30 158 C 17.054 2.83079 -3.41147 0
M  V30 159 H 14.274 0.298875 -0.600762 0
M  V30 160 H 16.818 0.292736 -2.02394 0
M  V30 161 H 14.973 2.63965 -2.83551 0
M  V30 162 H 15.387 1.85573 -4.90574 0
M  V30 163 H 16.861 3.4565 -4.30384 0
M  V30 164 H 17.338 3.53286 -2.60932 0
M  V30 165 H 17.944 2.2108 -3.63323 0
M  V30 166 N 16.2591 1.48442 0.529413 0
M  V30 167 C 17.5051 1.5672 1.28711 0
M  V30 168 C 17.8381 0.2406 1.92704 0
M  V30 169 O 17.1131 -0.753454 1.79313 0
M  V30 170 C 17.3961 2.70587 2.37603 0
M  V30 171 C 17.2491 4.12953 1.78297 0
M  V30 172 C 18.5681 2.80212 3.39366 0
M  V30 173 H 15.6871 0.570474 0.466613 0
M  V30 174 H 18.3291 1.80617 0.589706 0
M  V30 175 H 16.4791 2.50342 2.97088 0
M  V30 176 H 18.1511 4.44639 1.22858 0
M  V30 177 H 16.3941 4.19927 1.0883 0
M  V30 178 H 17.0651 4.88448 2.57144 0
M  V30 179 H 19.5411 2.98553 2.89836 0
M  V30 180 H 18.4171 3.61611 4.12951 0
M  V30 181 H 18.6781 1.88393 3.99951 0
M  V30 182 N 17.7372 -0.778329 1.37039 0
M  V30 183 C 18.9862 -1.53189 1.3121 0
M  V30 184 C 19.2992 -1.95328 -0.103095 0
M  V30 185 O 20.5052 -2.70012 -0.283826 0
M  V30 186 C 18.9612 -2.76591 2.30272 0
M  V30 187 C 18.5692 -2.41577 3.77286 0
M  V30 188 C 20.3132 -3.5455 2.33441 0
M  V30 189 C 18.2202 -3.61441 4.68096 0
M  V30 190 H 17.1502 -0.5751 0.487622 0
M  V30 191 H 19.8012 -0.853101 1.62464 0
M  V30 192 H 18.1832 -3.46326 1.92027 0
M  V30 193 H 19.3572 -1.79668 4.2433 0
M  V30 194 H 17.6722 -1.76806 3.76999 0
M  V30 195 H 20.2692 -4.43628 2.98493 0
M  V30 196 H 20.6122 -3.93936 1.34611 0
M  V30 197 H 21.1452 -2.91805 2.7036 0
M  V30 198 H 17.8842 -3.27142 5.6803 0
M  V30 199 H 17.4042 -4.22478 4.25761 0
M  V30 200 H 19.0832 -4.28335 4.8491 0
M  V30 201 N 19.2153 -1.21501 -1.00376 0
M  V30 202 C 20.1453 -0.999478 -2.11028 0
M  V30 203 C 21.1263 0.0759671 -1.6993 0
M  V30 204 O 22.3113 -0.0841106 -1.94018 0
M  V30 205 C 19.4413 -0.564709 -3.42678 0
M  V30 206 C 18.3953 -1.58486 -3.97576 0
M  V30 207 C 17.7213 -1.00628 -5.25146 0
M  V30 208 C 19.0213 -2.97204 -4.29496 0
M  V30 209 H 20.7153 -1.92495 -2.29317 0
M  V30 210 H 18.2613 -0.92693 -1.102 0
M  V30 211 H 20.2143 -0.401091 -4.19487 0
M  V30 212 H 18.9383 0.396411 -3.24185 0
M  V30 213 H 17.5973 -1.73606 -3.22888 0
M  V30 214 H 17.2453 -0.0368439 -5.02987 0
M  V30 215 H 16.9453 -1.68771 -5.62841 0
M  V30 216 H 18.4693 -0.854015 -6.04598 0
M  V30 217 H 19.8833 -2.8552 -4.97143 0
M  V30 218 H 18.2803 -3.62372 -4.78338 0
M  V30 219 H 19.3503 -3.47956 -3.3772 0
M  V30 220 N 20.6934 1.19889 -1.02296 0
M  V30 221 C 21.6234 2.25141 -0.619174 0
M  V30 222 C 22.6044 1.66051 0.368915 0
M  V30 223 O 23.7894 1.92546 0.252941 0
M  V30 224 C 20.9194 3.4728 0.0368783 0
M  V30 225 C 19.8734 4.19005 -0.872865 0
M  V30 226 C 19.1994 5.34637 -0.0822402 0
M  V30 227 C 20.4994 4.74452 -2.18387 0
M  V30 228 H 22.1934 2.59171 -1.49903 0
M  V30 229 H 19.7394 1.24579 -0.722222 0
M  V30 230 H 21.6924 4.20098 0.330958 0
M  V30 231 H 20.4164 3.12433 0.95149 0
M  V30 232 H 19.0754 3.48061 -1.15105 0
M  V30 233 H 18.7234 4.96034 0.83422 0
M  V30 234 H 18.4234 5.83557 -0.688149 0
M  V30 235 H 19.9474 6.10255 0.205238 0
M  V30 236 H 21.3614 5.39055 -1.95172 0
M  V30 237 H 19.7584 5.33834 -2.74119 0
M  V30 238 H 20.8284 3.92844 -2.84257 0
M  V30 239 N 22.1715 0.800033 1.35784 0
M  V30 240 C 23.4485 0.30088 1.93272 0
M  V30 241 C 23.8285 -1.20857 1.73081 0
M  V30 242 O 23.1765 -2.00502 1.09596 0
M  V30 243 C 23.3865 0.70511 3.41803 0
M  V30 244 C 24.7345 0.690871 4.18942 0
M  V30 245 O 25.7585 0.646244 3.50289 0
M  V30 246 O 24.6175 0.74332 5.41421 0
M  V30 247 H 21.7115 0.0771605 0.823393 0
M  V30 248 H 24.2575 0.88329 1.449 0
M  V30 249 H 23.0295 1.74571 3.50201 0
M  V30 250 H 22.6525 0.0971541 3.97481 0
M  V30 251 N 23.6496 -1.47581 0.552962 0
M  V30 252 C 24.8986 -2.01684 0.0251995 0
M  V30 253 C 25.2116 -1.43317 -1.33115 0
M  V30 254 O 26.4176 -1.89057 -1.94858 0
M  V30 255 C 24.8736 -3.599 -0.00542052 0
M  V30 256 C 24.4816 -4.27257 1.34742 0
M  V30 257 C 26.2256 -4.21768 -0.4808 0
M  V30 258 C 24.1326 -5.77467 1.27614 0
M  V30 259 H 23.0626 -0.753979 0.00565033 0
M  V30 260 H 25.7136 -1.69616 0.70018 0
M  V30 261 H 24.0956 -3.88911 -0.745961 0
M  V30 262 H 25.2696 -4.09893 2.10534 0
M  V30 263 H 23.5846 -3.77358 1.76039 0
M  V30 264 H 26.1816 -5.31838 -0.55246 0
M  V30 265 H 26.5246 -3.88651 -1.49184 0
M  V30 266 H 27.0576 -3.97273 0.204752 0
M  V30 267 H 23.7966 -6.15196 2.26304 0
M  V30 268 H 23.3166 -5.9718 0.55996 0
M  V30 269 H 24.9956 -6.3959 0.976421 0
M  V30 270 N 25.1277 -0.289203 -1.54924 0
M  V30 271 C 26.0377 0.601863 -2.26748 0
M  V30 272 C 27.0537 1.15834 -1.2984 0
M  V30 273 O 28.2297 1.18564 -1.62802 0
M  V30 274 C 25.2947 1.76299 -2.98529 0
M  V30 275 C 24.3557 1.24178 -4.10948 0
M  V30 276 C 23.5887 2.34757 -4.79296 0
M  V30 277 O 23.8117 3.54411 -4.46933 0
M  V30 278 O 22.7457 2.02115 -5.66951 0
M  V30 279 H 26.5717 0.0195879 -3.03694 0
M  V30 280 H 24.1567 -0.0560868 -1.49295 0
M  V30 281 H 26.0387 2.43973 -3.43592 0
M  V30 282 H 24.7137 2.33209 -2.24488 0
M  V30 283 H 23.6207 0.531104 -3.70311 0
M  V30 284 H 24.9537 0.718252 -4.86931 0
M  V30 285 N 26.6058 1.57591 -0.0167156 0
M  V30 286 C 27.8538 1.90906 0.663285 0
M  V30 287 C 28.1748 0.892509 1.73376 0
M  V30 288 O 27.4448 -0.0677623 1.95783 0
M  V30 289 H 26.0248 0.704637 0.247983 0
M  V30 290 H 28.6868 1.94803 -0.0615909 0
M  V30 291 H 27.7828 2.9116 1.12393 0
M  V30 292 N 28.0839 -0.256276 1.55502 0
M  V30 293 C 29.3119 -1.00342 1.8094 0
M  V30 294 C 29.7269 -1.79307 0.59114 0
M  V30 295 O 29.0839 -1.77114 -0.440081 0
M  V30 296 C 29.1349 -1.94875 3.04476 0
M  V30 297 O 28.8559 -1.19107 4.21598 0
M  V30 298 C 30.3569 -2.81266 3.42644 0
M  V30 299 H 27.5769 -0.295685 0.602338 0
M  V30 300 H 30.1209 -0.281998 2.02546 0
M  V30 301 H 28.2759 -2.62457 2.84947 0
M  V30 302 H 28.6899 -1.82969 4.91551 0
M  V30 303 H 30.1639 -3.43362 4.32211 0
M  V30 304 H 30.6409 -3.51897 2.62802 0
M  V30 305 H 31.2469 -2.1915 3.64491 0
M  V30 306 N 29.562 -1.4872 -0.521534 0
M  V30 307 C 30.79 -1.60843 -1.30142 0
M  V30 308 C 31.205 -0.271897 -1.86832 0
M  V30 309 O 30.562 0.739969 -1.66825 0
M  V30 310 C 30.613 -2.66155 -2.4463 0
M  V30 311 O 30.334 -3.94623 -1.90275 0
M  V30 312 C 31.835 -2.88795 -3.36322 0
M  V30 313 H 29.055 -0.542075 -0.395468 0
M  V30 314 H 31.599 -1.94609 -0.628285 0
M  V30 315 H 29.754 -2.35224 -3.07812 0
M  V30 316 H 30.168 -4.52468 -2.65279 0
M  V30 317 H 31.642 -3.66264 -4.12983 0
M  V30 318 H 32.119 -1.97934 -3.9207 0
M  V30 319 H 32.725 -3.21063 -2.78924 0
M  V30 320 N 31.0401 0.771051 -1.3745 0
M  V30 321 C 32.2681 1.56015 -1.35893 0
M  V30 322 C 32.6831 1.88718 0.0555523 0
M  V30 323 O 32.0401 1.51502 1.01752 0
M  V30 324 C 32.0911 2.87001 -2.19801 0
M  V30 325 O 31.8121 2.557 -3.55738 0
M  V30 326 C 33.3131 3.81228 -2.26231 0
M  V30 327 H 30.5331 0.483317 -0.465453 0
M  V30 328 H 33.0771 0.955611 -1.80799 0
M  V30 329 H 31.2321 3.43877 -1.78402 0
M  V30 330 H 31.6461 3.39584 -3.99729 0
M  V30 331 H 33.1201 4.70139 -2.89263 0
M  V30 332 H 33.5971 4.20409 -1.27093 0
M  V30 333 H 34.2031 3.30281 -2.67945 0
M  V30 334 N 32.5182 1.22032 0.997298 0
M  V30 335 C 33.9292 1.0397 1.55071 0
M  V30 336 C 34.2802 -0.398192 1.92117 0
M  V30 337 O 33.4052 -1.28254 1.74298 0
M  V30 338 C 34.0002 1.88109 2.81781 0
M  V30 339 C 32.5592 1.74357 3.33581 0
M  V30 340 C 31.7062 1.84846 2.06706 0
M  V30 341 H 34.6572 1.35941 0.818883 0
M  V30 342 H 34.6782 1.39589 3.53971 0
M  V30 343 H 34.1902 2.92754 2.54787 0
M  V30 344 H 32.2912 0.72427 3.65493 0
M  V30 345 H 32.4042 2.56772 4.04481 0
M  V30 346 H 30.7682 1.28238 2.20062 0
M  V30 347 H 31.5512 2.91014 1.82114 0
M  V30 348 N 33.9963 -1.19345 1.0293 0
M  V30 349 C 35.2453 -1.88363 0.721256 0
M  V30 350 C 35.5583 -1.80514 -0.753254 0
M  V30 351 O 36.7643 -2.44788 -1.17436 0
M  V30 352 C 35.2203 -3.37872 1.23978 0
M  V30 353 C 34.8283 -3.54278 2.74211 0
M  V30 354 C 36.5723 -4.12365 1.00775 0
M  V30 355 C 34.4793 -4.97682 3.19479 0
M  V30 356 H 33.4093 -0.705484 0.266098 0
M  V30 357 H 36.0603 -1.34928 1.24365 0
M  V30 358 H 34.4423 -3.90707 0.6453 0
M  V30 359 H 35.6163 -3.11769 3.39318 0
M  V30 360 H 33.9313 -2.93174 2.95699 0
M  V30 361 H 36.5283 -5.18119 1.32123 0
M  V30 362 H 36.8713 -4.16263 -0.0554308 0
M  V30 363 H 37.4043 -3.65668 1.56625 0
M  V30 364 H 34.1433 -4.98945 4.25128 0
M  V30 365 H 33.6633 -5.4095 2.591 0
M  V30 366 H 35.3423 -5.66337 3.12845 0
M  V30 367 N 35.4744 -0.807222 -1.35358 0
M  V30 368 C 36.4374 -0.223665 -2.28106 0
M  V30 369 C 37.4374 0.589354 -1.4961 0
M  V30 370 O 38.6274 0.407745 -1.69361 0
M  V30 371 C 35.7594 0.688149 -3.33882 0
M  V30 372 H 36.9524 -1.04169 -2.81227 0
M  V30 373 H 34.5054 -0.577921 -1.45223 0
M  V30 374 H 35.2404 1.52984 -2.85948 0
M  V30 375 H 35.0254 0.10687 -3.91954 0
M  V30 376 H 36.5154 1.09075 -4.03104 0
M  V30 377 N 36.9525 1.47285 -0.560781 0
M  V30 378 C 38.1995 2.02464 -0.038062 0
M  V30 379 C 38.5275 1.43474 1.31322 0
M  V30 380 O 37.7825 0.581311 1.86867 0
M  V30 381 C 38.0815 3.57258 0.100784 0
M  V30 382 C 37.7475 4.35184 -1.18007 0
M  V30 383 C 36.4095 4.56194 -1.53103 0
M  V30 384 C 38.7615 4.80098 -2.02867 0
M  V30 385 C 36.0895 5.19367 -2.729 0
M  V30 386 C 38.4415 5.44593 -3.21871 0
M  V30 387 C 37.1055 5.63835 -3.57276 0
M  V30 388 H 36.3755 0.740869 -0.0139279 0
M  V30 389 H 39.0225 1.76916 -0.733012 0
M  V30 390 H 37.3275 3.81819 0.878724 0
M  V30 391 H 39.0245 3.97606 0.520639 0
M  V30 392 H 35.6145 4.19113 -0.8968 0
M  V30 393 H 39.7985 4.63642 -1.7706 0
M  V30 394 H 35.0545 5.32459 -3.00496 0
M  V30 395 H 39.2285 5.78358 -3.87911 0
M  V30 396 H 36.8555 6.12557 -4.50197 0
M  V30 397 N 38.4306 0.297415 1.54768 0
M  V30 398 C 39.6766 -0.313376 2.00364 0
M  V30 399 C 40.0096 -1.53815 1.18553 0
M  V30 400 O 39.2846 -1.92739 0.261103 0
M  V30 401 C 39.5676 -0.673525 3.53745 0
M  V30 402 C 39.4206 0.560133 4.46299 0
M  V30 403 C 40.7396 -1.50143 4.13697 0
M  V30 404 H 37.8586 -0.112428 0.728374 0
M  V30 405 H 40.5006 0.4088 1.8555 0
M  V30 406 H 38.6506 -1.28881 3.665 0
M  V30 407 H 40.3226 1.19863 4.45455 0
M  V30 408 H 38.5656 1.19405 4.17043 0
M  V30 409 H 39.2366 0.26405 5.51368 0
M  V30 410 H 41.7126 -0.981588 4.04356 0
M  V30 411 H 40.5886 -1.72221 5.21182 0
M  V30 412 H 40.8496 -2.48952 3.65343 0
M  V30 413 N 39.9087 -1.5758 0.0250728 0
M  V30 414 C 40.8557 -2.09973 -0.958129 0
M  V30 415 C 41.8257 -1.00085 -1.3256 0
M  V30 416 O 43.0107 -1.27481 -1.41962 0
M  V30 417 C 40.1507 -2.62812 -2.2366 0
M  V30 418 C 39.2637 -3.86693 -1.92594 0
M  V30 419 C 38.3987 -4.27941 -3.14707 0
M  V30 420 C 37.4377 -5.44591 -2.79442 0
M  V30 421 N 36.5747 -5.81014 -3.94167 0
M  V30 422 H 41.4147 -2.937 -0.504428 0
M  V30 423 H 38.9517 -1.45172 -0.237392 0
M  V30 424 H 40.9097 -2.91536 -2.98434 0
M  V30 425 H 39.5397 -1.81922 -2.66654 0
M  V30 426 H 38.5917 -3.64723 -1.0808 0
M  V30 427 H 39.9037 -4.71547 -1.62619 0
M  V30 428 H 39.0577 -4.58079 -3.97804 0
M  V30 429 H 37.7967 -3.41845 -3.4784 0
M  V30 430 H 36.8017 -5.1415 -1.94755 0
M  V30 431 H 38.0267 -6.32382 -2.47528 0
M  V30 432 H 35.9727 -4.97874 -4.2715 0
M  V30 433 H 35.8897 -6.60498 -3.67801 0
M  V30 434 H 37.1577 -6.15756 -4.7798 0
M  V30 435 N 41.3868 0.248026 -1.55636 0
M  V30 436 C 42.6638 0.998988 -1.68165 0
M  V30 437 C 43.0438 2.03409 -0.564621 0
M  V30 438 O 42.3918 2.24378 0.432076 0
M  V30 439 C 42.6018 1.63334 -3.0842 0
M  V30 440 C 43.9498 2.13562 -3.66983 0
M  V30 441 O 44.9738 1.73277 -3.11213 0
M  V30 442 O 43.8328 2.87526 -4.64749 0
M  V30 443 H 40.9268 0.464933 -0.683935 0
M  V30 444 H 43.4728 0.241902 -1.67967 0
M  V30 445 H 42.2448 0.884583 -3.8117 0
M  V30 446 H 41.8678 2.45666 -3.12624 0
M  V30 447 N 42.8649 1.48995 0.513639 0
M  V30 448 C 44.1139 1.57093 1.2651 0
M  V30 449 C 44.4269 0.257091 1.93903 0
M  V30 450 O 45.6329 0.216478 2.70636 0
M  V30 451 C 44.0889 2.77118 2.29638 0
M  V30 452 C 43.6969 4.15209 1.68241 0
M  V30 453 C 45.4409 2.94538 3.05692 0
M  V30 454 C 43.3479 5.26474 2.69406 0
M  V30 455 H 42.2779 0.584876 0.475854 0
M  V30 456 H 44.9289 1.7536 0.540487 0
M  V30 457 H 43.3109 2.52319 3.05207 0
M  V30 458 H 44.4849 4.50094 0.987505 0
M  V30 459 H 42.7999 4.03042 1.04623 0
M  V30 460 H 45.3969 3.74832 3.8132 0
M  V30 461 H 45.7399 2.04614 3.62545 0
M  V30 462 H 46.2729 3.19316 2.37238 0
M  V30 463 H 43.0119 6.18417 2.17351 0
M  V30 464 H 42.5319 4.96058 3.37175 0
M  V30 465 H 44.2109 5.55277 3.32078 0
M  V30 466 N 44.343 -0.763751 1.37857 0
M  V30 467 C 45.273 -1.89103 1.36975 0
M  V30 468 C 46.254 -1.68439 0.237152 0
M  V30 469 O 47.439 -1.8918 0.438713 0
M  V30 470 C 44.569 -3.26496 1.18395 0
M  V30 471 C 43.523 -3.61741 2.28751 0
M  V30 472 C 42.849 -4.97762 1.95286 0
M  V30 473 C 44.149 -3.67665 3.70972 0
M  V30 474 H 45.843 -1.90099 2.31307 0
M  V30 475 H 43.389 -0.91319 1.11341 0
M  V30 476 H 45.342 -4.05003 1.16406 0
M  V30 477 H 44.066 -3.25955 0.205215 0
M  V30 478 H 42.725 -2.85547 2.29909 0
M  V30 479 H 42.373 -4.93769 0.959221 0
M  V30 480 H 42.073 -5.22313 2.69189 0
M  V30 481 H 43.597 -5.7866 1.94898 0
M  V30 482 H 45.011 -4.36307 3.719 0
M  V30 483 H 43.408 -4.03718 4.43995 0
M  V30 484 H 44.478 -2.68134 4.0402 0
M  V30 485 N 45.8211 -1.22559 -0.990812 0
M  V30 486 C 47.0681 -1.05141 -1.73065 0
M  V30 487 C 47.3961 0.413191 -1.9006 0
M  V30 488 O 46.6511 1.32257 -1.44245 0
M  V30 489 C 46.9501 -1.71011 -3.13831 0
M  V30 490 C 46.6161 -3.20911 -3.16745 0
M  V30 491 C 45.2781 -3.61812 -3.17247 0
M  V30 492 C 47.6301 -4.16846 -3.12872 0
M  V30 493 C 44.9581 -4.97127 -3.1158 0
M  V30 494 C 47.3101 -5.5214 -3.08746 0
M  V30 495 C 45.9741 -5.92419 -3.07565 0
M  V30 496 H 45.2441 -0.384738 -0.633291 0
M  V30 497 H 47.8911 -1.5235 -1.16025 0
M  V30 498 H 46.1961 -1.16133 -3.74193 0
M  V30 499 H 47.8931 -1.55023 -3.69823 0
M  V30 500 H 44.4831 -2.88344 -3.17105 0
M  V30 501 H 48.6671 -3.86263 -3.11632 0
M  V30 502 H 43.9231 -5.27562 -3.09012 0
M  V30 503 H 48.0971 -6.26201 -3.04705 0
M  V30 504 H 45.7241 -6.97236 -3.02929 0
M  V30 505 N 47.2992 1.18797 -1.03562 0
M  V30 506 C 48.7102 1.70322 -0.764676 0
M  V30 507 C 49.0612 1.82708 0.714996 0
M  V30 508 O 48.1862 1.50299 1.55689 0
M  V30 509 C 48.7812 3.09356 -1.38145 0
M  V30 510 C 47.3402 3.58114 -1.15895 0
M  V30 511 C 46.4872 2.34798 -1.4753 0
M  V30 512 H 49.4382 1.03543 -1.20268 0
M  V30 513 H 49.4592 3.72378 -0.781977 0
M  V30 514 H 48.9712 3.00309 -2.45837 0
M  V30 515 H 47.0722 3.72464 -0.100544 0
M  V30 516 H 47.1852 4.4184 -1.8524 0
M  V30 517 H 45.5492 2.38464 -0.894829 0
M  V30 518 H 46.3322 2.28375 -2.56319 0
M  V30 519 N 48.7773 0.814389 1.34928 0
M  V30 520 C 50.0073 0.41054 2.0248 0
M  V30 521 C 50.4153 -0.985625 1.61499 0
M  V30 522 O 49.7583 -1.64781 0.811976 0
M  V30 523 C 49.8203 0.423384 3.56998 0
M  V30 524 C 49.4843 1.77141 4.21272 0
M  V30 525 C 50.4813 2.73093 4.42398 0
M  V30 526 C 48.1663 2.05755 4.58225 0
M  V30 527 C 50.1603 3.95838 4.9959 0
M  V30 528 C 47.8473 3.28762 5.1513 0
M  V30 529 C 48.8453 4.23621 5.35755 0
M  V30 530 O 48.5333 5.44456 5.91458 0
M  V30 531 H 48.2653 0.163997 0.655806 0
M  V30 532 H 50.8193 1.10155 1.73364 0
M  V30 533 H 49.0493 -0.324276 3.85338 0
M  V30 534 H 50.7383 0.0407683 4.0588 0
M  V30 535 H 51.5043 2.5228 4.14222 0
M  V30 536 H 47.3833 1.32727 4.4148 0
M  V30 537 H 50.9273 4.69891 5.15605 0
M  V30 538 H 46.8243 3.49443 5.42734 0
M  V30 539 H 47.5923 5.4586 6.09901 0
M  V30 540 N 50.2554 -1.46986 0.568584 0
M  V30 541 C 51.5044 -2.01646 0.0465894 0
M  V30 542 C 51.8174 -1.44721 -1.31587 0
M  V30 543 O 53.0234 -1.91113 -1.92842 0
M  V30 544 C 51.4794 -3.59885 0.032752 0
M  V30 545 C 51.0874 -4.25804 1.39266 0
M  V30 546 C 52.8314 -4.22255 -0.436038 0
M  V30 547 C 50.7384 -5.76081 1.33732 0
M  V30 548 H 49.6684 -0.753876 0.013647 0
M  V30 549 H 52.3194 -1.68864 0.718131 0
M  V30 550 H 50.7014 -3.8968 -0.704669 0
M  V30 551 H 51.8754 -4.07637 2.1487 0
M  V30 552 H 50.1904 -3.7547 1.80032 0
M  V30 553 H 52.7874 -5.32394 -0.49602 0
M  V30 554 H 53.1304 -3.90212 -1.45053 0
M  V30 555 H 53.6634 -3.97033 0.246877 0
M  V30 556 H 50.4024 -6.12761 2.32817 0
M  V30 557 H 49.9224 -5.96553 0.623267 0
M  V30 558 H 51.6014 -6.38518 1.0442 0
M  V30 559 N 51.7335 -0.305618 -1.54608 0
M  V30 560 C 52.6435 0.57778 -2.27374 0
M  V30 561 C 53.6595 1.14451 -1.31061 0
M  V30 562 O 54.8355 1.16831 -1.6405 0
M  V30 563 C 51.9005 1.73123 -3.00382 0
M  V30 564 C 50.9615 1.19812 -4.12242 0
M  V30 565 C 50.1945 2.2966 -4.81759 0
M  V30 566 O 50.4175 3.49651 -4.50666 0
M  V30 567 O 49.3515 1.96091 -5.69062 0
M  V30 568 H 53.1775 -0.012624 -3.03697 0
M  V30 569 H 50.7625 -0.0719184 -1.49227 0
M  V30 570 H 52.6445 2.40315 -3.4616 0
M  V30 571 H 51.3195 2.30815 -2.26949 0
M  V30 572 H 50.2265 0.491798 -3.70853 0
M  V30 573 H 51.5595 0.666566 -4.87666 0
M  V30 574 N 53.2116 1.57565 -0.0334293 0
M  V30 575 C 54.1216 2.13943 0.962572 0
M  V30 576 C 55.1376 1.09276 1.35406 0
M  V30 577 O 56.3136 1.41355 1.4346 0
M  V30 578 C 53.3786 2.65887 2.22497 0
M  V30 579 C 52.4396 3.85286 1.8935 0
M  V30 580 C 51.6726 4.34743 3.09571 0
M  V30 581 O 51.8956 3.83352 4.22371 0
M  V30 582 O 50.8296 5.26538 2.91618 0
M  V30 583 H 54.6556 2.99333 0.513169 0
M  V30 584 H 52.2406 1.4822 0.18743 0
M  V30 585 H 54.1226 2.99346 2.96598 0
M  V30 586 H 52.7976 1.83578 2.6661 0
M  V30 587 H 51.7046 3.56746 1.1262 0
M  V30 588 H 53.0376 4.68771 1.5005 0
M  V30 589 N 54.6897 -0.239769 1.55765 0
M  V30 590 C 55.6377 -1.31668 1.91745 0
M  V30 591 C 56.6317 -1.49462 0.797338 0
M  V30 592 O 57.8377 -1.50852 0.982021 0
M  V30 593 H 54.2127 -0.441048 0.609082 0
M  V30 594 H 56.1837 -0.985923 2.81642 0
M  V30 595 C 54.9327 -2.66368 2.2348 0
M  V30 596 H 54.2557 -2.53478 3.09175 0
M  V30 597 H 55.6957 -3.40578 2.52553 0
M  V30 598 C 54.1547 -3.20002 1.05359 0
M  V30 599 O 54.6847 -4.00538 0.305261 0
M  V30 600 N 52.8907 -2.78126 0.842292 0
M  V30 601 H 52.4377 -2.12742 1.45253 0
M  V30 602 H 52.3957 -3.14354 0.053652 0
M  V30 603 N 56.1678 -1.49265 -0.50573 0
M  V30 604 C 57.4138 -1.58748 -1.26202 0
M  V30 605 C 57.7468 -0.271227 -1.92297 0
M  V30 606 O 57.0218 0.724831 -1.80489 0
M  V30 607 C 57.3048 -2.74332 -2.33268 0
M  V30 608 C 57.1578 -4.15737 -1.71705 0
M  V30 609 C 58.4768 -2.85576 -3.34865 0
M  V30 610 H 55.5958 -0.577826 -0.457478 0
M  V30 611 H 58.2378 -1.81532 -0.560897 0
M  V30 612 H 56.3878 -2.55036 -2.93068 0
M  V30 613 H 58.0598 -4.46537 -1.15769 0
M  V30 614 H 56.3028 -4.21605 -1.02135 0
M  V30 615 H 56.9738 -4.92477 -2.49341 0
M  V30 616 H 59.4498 -3.03127 -2.8505 0
M  V30 617 H 58.3258 -3.68135 -4.07146 0
M  V30 618 H 58.5868 -1.94732 -3.96903 0
M  V30 619 N 57.6459 0.756429 -1.3826 0
M  V30 620 C 58.5929 1.87011 -1.35261 0
M  V30 621 C 59.5629 1.64695 -0.215616 0
M  V30 622 O 60.7479 1.864 -0.407399 0
M  V30 623 C 57.8879 3.24275 -1.18068 0
M  V30 624 C 57.0009 3.58442 -2.41129 0
M  V30 625 C 56.1359 4.84994 -2.16689 0
M  V30 626 C 55.1749 5.11939 -3.35537 0
M  V30 627 N 54.3119 6.29685 -3.10549 0
M  V30 628 H 59.1519 1.8891 -2.30472 0
M  V30 629 H 56.6889 0.923373 -1.14509 0
M  V30 630 H 58.6469 4.03479 -1.06116 0
M  V30 631 H 57.2769 3.21711 -0.264973 0
M  V30 632 H 56.3289 2.74103 -2.63764 0
M  V30 633 H 57.6409 3.74283 -3.29717 0
M  V30 634 H 56.7949 5.72135 -2.01857 0
M  V30 635 H 55.5339 4.71286 -1.25462 0
M  V30 636 H 54.5389 4.23268 -3.50891 0
M  V30 637 H 55.7639 5.27546 -4.27635 0
M  V30 638 H 53.7099 6.17306 -2.21967 0
M  V30 639 H 53.6269 6.46014 -3.92686 0
M  V30 640 H 54.8949 7.19722 -2.99367 0
M  V30 641 N 59.124 1.23083 0.984299 0
M  V30 642 C 60.034 1.02515 2.11016 0
M  V30 643 C 61.05 -0.0291702 1.73976 0
M  V30 644 O 62.226 0.165434 2.00719 0
M  V30 645 C 59.291 0.614673 3.41208 0
M  V30 646 C 58.352 1.74359 3.92297 0
M  V30 647 C 57.585 1.35261 5.16275 0
M  V30 648 O 57.808 0.235136 5.69915 0
M  V30 649 O 56.742 2.17227 5.61334 0
M  V30 650 H 60.568 1.96862 2.31255 0
M  V30 651 H 58.153 1.01753 1.09392 0
M  V30 652 H 60.035 0.396518 4.1953 0
M  V30 653 H 58.71 -0.299851 3.22308 0
M  V30 654 H 57.617 2.01635 3.1511 0
M  V30 655 H 58.95 2.63629 4.15645 0
M  V30 656 N 60.6021 -1.18246 1.0419 0
M  V30 657 C 61.8321 -1.91916 0.764961 0
M  V30 658 C 62.2401 -1.76485 -0.681898 0
M  V30 659 O 61.5831 -1.09275 -1.47664 0
M  V30 660 C 61.6451 -3.4373 1.05309 0
M  V30 661 C 61.3091 -3.8294 2.4941 0
M  V30 662 C 62.3061 -3.86621 3.47592 0
M  V30 663 C 59.9911 -4.142 2.84155 0
M  V30 664 C 61.9851 -4.21013 4.78568 0
M  V30 665 C 59.6721 -4.48262 4.15337 0
M  V30 666 C 60.6701 -4.51645 5.12353 0
M  V30 667 O 60.3581 -4.84911 6.41183 0
M  V30 668 H 60.0901 -0.61606 0.278292 0
M  V30 669 H 62.6441 -1.50947 1.39299 0
M  V30 670 H 60.8741 -3.84946 0.367933 0
M  V30 671 H 62.5631 -3.9865 0.763752 0
M  V30 672 H 63.3291 -3.62607 3.22089 0
M  V30 673 H 59.2081 -4.10743 2.09311 0
M  V30 674 H 62.7521 -4.23568 5.54289 0
M  V30 675 H 58.6491 -4.71737 4.40607 0
M  V30 676 H 59.4171 -5.02809 6.45852 0
M  V30 677 N 62.0802 -0.821533 -1.34494 0
M  V30 678 C 63.0102 -0.257138 -2.3208 0
M  V30 679 C 63.9912 0.625645 -1.58176 0
M  V30 680 O 65.1762 0.552811 -1.86166 0
M  V30 681 C 62.3062 0.582958 -3.42372 0
M  V30 682 C 61.2602 -0.202571 -4.2752 0
M  V30 683 C 60.5862 0.760179 -5.29269 0
M  V30 684 C 61.8862 -1.40998 -5.02908 0
M  V30 685 H 63.5802 -1.07247 -2.79532 0
M  V30 686 H 61.1262 -0.517163 -1.34393 0
M  V30 687 H 63.0792 0.987972 -4.09655 0
M  V30 688 H 61.8032 1.43133 -2.93565 0
M  V30 689 H 60.4622 -0.588936 -3.61838 0
M  V30 690 H 60.1102 1.60447 -4.76724 0
M  V30 691 H 59.8102 0.238809 -5.87115 0
M  V30 692 H 61.3342 1.16308 -5.9942 0
M  V30 693 H 62.7482 -1.07905 -5.63054 0
M  V30 694 H 61.1452 -1.86689 -5.70322 0
M  V30 695 H 62.2152 -2.1889 -4.32684 0
M  V30 696 N 63.5583 1.46682 -0.576371 0
M  V30 697 C 64.4903 2.28341 0.198231 0
M  V30 698 C 65.5033 1.38141 0.861453 0
M  V30 699 O 66.6923 1.62797 0.732082 0
M  V30 700 C 63.7923 3.12986 1.29972 0
M  V30 701 C 62.9653 4.31271 0.729639 0
M  V30 702 C 62.0243 4.97363 1.71803 0
M  V30 703 O 61.0503 5.55156 1.25658 0
M  V30 704 N 62.2523 4.93796 3.05198 0
M  V30 705 H 65.0173 2.9546 -0.502324 0
M  V30 706 H 62.5783 1.56525 -0.413715 0
M  V30 707 H 64.5703 3.54066 1.96008 0
M  V30 708 H 63.1403 2.47984 1.90323 0
M  V30 709 H 62.3603 3.94052 -0.108012 0
M  V30 710 H 63.6483 5.07739 0.328438 0
M  V30 711 H 63.0463 4.48077 3.45317 0
M  V30 712 H 61.6033 5.38837 3.6674 0
M  V30 713 N 65.0364 0.313813 1.54444 0
M  V30 714 C 66.2644 -0.293918 2.04802 0
M  V30 715 C 66.6794 -1.46537 1.19047 0
M  V30 716 O 66.0364 -1.81182 0.218939 0
M  V30 717 C 66.0874 -0.737806 3.53891 0
M  V30 718 O 65.8084 0.387038 4.36387 0
M  V30 719 C 67.3094 -1.40936 4.203 0
M  V30 720 H 64.5294 -0.0620057 0.668129 0
M  V30 721 H 67.0734 0.457169 1.99324 0
M  V30 722 H 65.2284 -1.43889 3.59687 0
M  V30 723 H 65.6424 0.0391274 5.24485 0
M  V30 724 H 67.1164 -1.67099 5.26101 0
M  V30 725 H 67.5934 -2.35355 3.70816 0
M  V30 726 H 68.1994 -0.751117 4.18615 0
M  V30 727 N 66.5145 -1.57545 0.0417849 0
M  V30 728 C 67.4645 -2.07483 -0.945247 0
M  V30 729 C 68.4485 -0.977983 -1.27767 0
M  V30 730 O 69.6405 -1.24142 -1.26166 0
M  V30 731 C 66.7695 -2.61576 -2.22335 0
M  V30 732 C 65.8555 -3.78213 -1.91874 0
M  V30 733 N 66.2465 -4.88344 -1.31733 0
M  V30 734 C 64.5445 -3.8694 -2.21796 0
M  V30 735 C 65.2455 -5.69462 -1.1869 0
M  V30 736 N 64.2215 -5.16771 -1.68666 0
M  V30 737 H 68.0235 -2.90029 -0.475441 0
M  V30 738 H 65.5375 -1.61581 -0.162911 0
M  V30 739 H 67.5345 -2.95651 -2.93932 0
M  V30 740 H 66.1945 -1.80465 -2.69931 0
M  V30 741 H 67.2055 -5.08335 -0.990729 0
M  V30 742 H 63.8825 -3.16757 -2.71977 0
M  V30 743 H 65.2725 -6.68023 -0.720793 0
M  V30 744 N 67.9926 0.231505 -1.5589 0
M  V30 745 C 69.2386 0.954429 -1.79617 0
M  V30 746 C 69.5936 1.82367 -0.613199 0
M  V30 747 O 68.8866 1.87524 0.393094 0
M  V30 748 C 69.0806 1.83577 -3.0665 0
M  V30 749 C 68.9096 1.05334 -4.3719 0
M  V30 750 C 67.6796 0.75225 -4.99669 0
M  V30 751 C 69.8776 0.423444 -5.12554 0
M  V30 752 N 67.8596 -0.052627 -6.13877 0
M  V30 753 C 69.2306 -0.245287 -6.19515 0
M  V30 754 C 71.2856 0.335466 -4.96769 0
M  V30 755 C 69.9886 -0.993566 -7.12405 0
M  V30 756 C 72.0146 -0.399321 -5.9005 0
M  V30 757 C 71.3766 -1.05663 -6.9643 0
M  V30 758 H 67.4756 0.329846 -0.709031 0
M  V30 759 H 70.0596 0.226172 -1.93382 0
M  V30 760 H 68.2306 2.53592 -2.94186 0
M  V30 761 H 69.9626 2.49541 -3.18608 0
M  V30 762 H 66.7176 1.06783 -4.61405 0
M  V30 763 H 67.1416 -0.443609 -6.75545 0
M  V30 764 H 71.7836 0.829311 -4.14587 0
M  V30 765 H 69.5016 -1.49896 -7.94076 0
M  V30 766 H 73.0876 -0.468265 -5.79913 0
M  V30 767 H 71.9676 -1.61612 -7.67366 0
M  V30 768 N 69.4707 1.49531 0.497807 0
M  V30 769 C 70.3807 1.69176 1.62532 0
M  V30 770 C 71.3967 0.5744 1.64246 0
M  V30 771 O 72.5727 0.849497 1.82608 0
M  V30 772 C 69.6377 1.75695 2.98885 0
M  V30 773 C 68.6987 2.9929 3.07773 0
M  V30 774 C 67.9317 3.05488 4.37622 0
M  V30 775 O 68.1547 2.19192 5.26603 0
M  V30 776 O 67.0887 3.9798 4.51548 0
M  V30 777 H 70.9147 2.647 1.48887 0
M  V30 778 H 68.4997 1.3331 0.674441 0
M  V30 779 H 70.3817 1.82317 3.79919 0
M  V30 780 H 69.0567 0.8335 3.12785 0
M  V30 781 H 67.9637 2.98183 2.25915 0
M  V30 782 H 69.2967 3.91125 2.98801 0
M  V30 783 N 70.9488 -0.749086 1.3866 0
M  V30 784 C 71.8588 -1.89358 1.38494 0
M  V30 785 C 72.8748 -1.71708 0.281476 0
M  V30 786 O 74.0508 -1.94554 0.520643 0
M  V30 787 C 71.1158 -3.24782 1.21316 0
M  V30 788 C 70.1768 -3.54926 2.41508 0
M  V30 789 C 69.4098 -4.83888 2.2514 0
M  V30 790 O 69.6328 -5.56592 1.24746 0
M  V30 791 O 68.5668 -5.13612 3.13826 0
M  V30 792 H 72.3928 -1.92452 2.34938 0
M  V30 793 H 69.9778 -0.894981 1.19626 0
M  V30 794 H 71.8598 -4.05739 1.13814 0
M  V30 795 H 70.5348 -3.2249 0.279592 0
M  V30 796 H 69.4418 -2.74112 2.54585 0
M  V30 797 H 70.7748 -3.61983 3.3351 0
M  V30 798 N 72.4269 -1.23603 -0.977757 0
M  V30 799 C 73.3369 -1.03632 -2.1047 0
M  V30 800 C 74.3529 0.0199435 -1.73989 0
M  V30 801 O 75.5289 -0.176076 -2.00629 0
M  V30 802 C 72.5939 -0.63276 -3.40877 0
M  V30 803 C 71.6549 -1.76437 -3.91367 0
M  V30 804 C 70.8879 -1.37997 -5.15551 0
M  V30 805 O 71.1109 -0.265357 -5.69782 0
M  V30 806 O 70.0449 -2.20201 -5.60174 0
M  V30 807 H 73.8709 -1.98086 -2.30208 0
M  V30 808 H 71.4559 -1.02332 -1.08851 0
M  V30 809 H 73.3379 -0.418761 -4.19314 0
M  V30 810 H 72.0129 0.282754 -3.22463 0
M  V30 811 H 70.9199 -2.03304 -3.14036 0
M  V30 812 H 72.2529 -2.6583 -4.14241 0
M  V30 813 N 73.905 1.17692 -1.04816 0
M  V30 814 C 74.815 2.25229 -0.65643 0
M  V30 815 C 75.831 1.71018 0.320761 0
M  V30 816 O 77.007 2.00649 0.173805 0
M  V30 817 C 74.072 3.46684 -0.0332629 0
M  V30 818 C 73.133 4.15997 -1.06042 0
M  V30 819 C 72.366 5.31654 -0.466893 0
M  V30 820 O 72.589 5.65777 0.724758 0
M  V30 821 O 71.523 5.89831 -1.1993 0
M  V30 822 H 75.349 2.61016 -1.55255 0
M  V30 823 H 72.934 1.24919 -0.81949 0
M  V30 824 H 74.816 4.20234 0.313256 0
M  V30 825 H 73.491 3.12703 0.836566 0
M  V30 826 H 72.398 3.44482 -1.45886 0
M  V30 827 H 73.731 4.53996 -1.90127 0
M  V30 828 N 75.3831 0.828654 1.34056 0
M  V30 829 C 76.6231 0.425394 1.99924 0
M  V30 830 C 76.9871 -0.994294 1.64249 0
M  V30 831 O 78.1881 -1.50074 2.23005 0
M  V30 832 C 76.4591 0.628071 3.51838 0
M  V30 833 S 78.0181 0.318511 4.37642 0
M  V30 834 H 74.8361 0.160465 0.692656 0
M  V30 835 H 77.4381 1.07572 1.63244 0
M  V30 836 H 76.1421 1.66089 3.7529 0
M  V30 837 H 75.6731 -0.0367799 3.93383 0
M  V30 838 H 77.6881 -0.865632 4.88591 0
M  V30 839 N 76.8612 -1.46375 0.584142 0
M  V30 840 C 77.7932 -2.28443 -0.186119 0
M  V30 841 C 78.8062 -1.38596 -0.854115 0
M  V30 842 O 79.9952 -1.63183 -0.723438 0
M  V30 843 C 77.0952 -3.13671 -1.28311 0
M  V30 844 C 76.2682 -4.31652 -0.706758 0
M  V30 845 C 75.3272 -4.98267 -1.69163 0
M  V30 846 O 74.3532 -5.55815 -1.22712 0
M  V30 847 N 75.5552 -4.95408 -3.02575 0
M  V30 848 H 78.3202 -2.9519 0.517986 0
M  V30 849 H 75.8812 -1.56303 0.42201 0
M  V30 850 H 77.8732 -3.55101 -1.94128 0
M  V30 851 H 76.4432 -2.48989 -1.89005 0
M  V30 852 H 75.6632 -3.93989 0.128908 0
M  V30 853 H 76.9512 -5.07906 -0.301506 0
M  V30 854 H 76.3492 -4.49902 -3.42936 0
M  V30 855 H 74.9062 -5.40774 -3.63877 0
M  V30 856 N 78.3393 -0.321999 -1.54275 0
M  V30 857 C 79.2713 0.578671 -2.21775 0
M  V30 858 C 80.2843 1.08109 -1.21722 0
M  V30 859 O 81.4733 0.994938 -1.482 0
M  V30 860 C 78.5733 1.80661 -2.86731 0
M  V30 861 C 77.7463 1.44314 -4.12907 0
M  V30 862 C 76.8053 2.52845 -4.61472 0
M  V30 863 O 75.8313 2.17054 -5.2619 0
M  V30 864 N 77.0333 3.83748 -4.35566 0
M  V30 865 H 79.7983 0.000709447 -2.997 0
M  V30 866 H 77.3593 -0.145132 -1.61248 0
M  V30 867 H 79.3513 2.52655 -3.16145 0
M  V30 868 H 77.9213 2.29245 -2.12521 0
M  V30 869 H 77.1413 0.554906 -3.90275 0
M  V30 870 H 78.4293 1.17598 -4.95023 0
M  V30 871 H 77.8273 4.15625 -3.83761 0
M  V30 872 H 76.3843 4.51977 -4.69638 0
M  V30 873 N 79.8174 1.5752 -0.0501392 0
M  V30 874 C 81.0944 1.83996 0.663685 0
M  V30 875 C 81.4744 0.938339 1.89099 0
M  V30 876 O 80.8224 -0.00087759 2.285 0
M  V30 877 C 81.0324 3.33702 1.02196 0
M  V30 878 C 82.3804 4.00691 1.40469 0
M  V30 879 O 83.4044 3.38321 1.11433 0
M  V30 880 O 82.2634 5.10658 1.94654 0
M  V30 881 H 79.3574 0.759385 0.32751 0
M  V30 882 H 81.9034 1.69514 -0.0794238 0
M  V30 883 H 80.6754 3.91015 0.149364 0
M  V30 884 H 80.2984 3.53368 1.82255 0
M  V30 885 N 81.2955 -0.223234 1.56011 0
M  V30 886 C 82.5415 -0.949279 1.79211 0
M  V30 887 C 82.8745 -1.84054 0.619494 0
M  V30 888 O 82.1495 -1.90726 -0.381317 0
M  V30 889 C 82.4325 -1.78965 3.12479 0
M  V30 890 C 82.2855 -0.924997 4.40186 0
M  V30 891 C 83.6045 -2.76774 3.42175 0
M  V30 892 H 80.7235 -0.343676 0.651963 0
M  V30 893 H 83.3655 -0.218253 1.88742 0
M  V30 894 H 81.5155 -2.41291 3.04485 0
M  V30 895 H 83.1875 -0.318615 4.60198 0
M  V30 896 H 81.4305 -0.230344 4.33188 0
M  V30 897 H 82.1015 -1.54735 5.29869 0
M  V30 898 H 84.5775 -2.24584 3.50287 0
M  V30 899 H 83.4535 -3.32678 4.36597 0
M  V30 900 H 83.7145 -3.54429 2.64258 0
M  V30 901 N 82.7736 -1.49793 -0.48987 0
M  V30 902 C 83.9986 -1.63836 -1.27172 0
M  V30 903 C 84.4236 -0.31402 -1.8546 0
M  V30 904 O 83.7816 0.719803 -1.66399 0
M  V30 905 C 83.8296 -2.71797 -2.36978 0
M  V30 906 O 82.9336 -2.31744 -3.41128 0
M  V30 907 H 82.2746 -0.547997 -0.37496 0
M  V30 908 H 84.8046 -1.96053 -0.585191 0
M  V30 909 H 84.8146 -2.94305 -2.82575 0
M  V30 910 H 83.4896 -3.67923 -1.93921 0
M  V30 911 H 82.0666 -2.1961 -3.01373 0
M  V30 912 N 84.2517 0.741722 -1.39055 0
M  V30 913 C 85.1817 1.869 -1.39966 0
M  V30 914 C 86.1627 1.6804 -0.26392 0
M  V30 915 O 87.3477 1.88458 -0.468755 0
M  V30 916 C 84.4777 3.24572 -1.23574 0
M  V30 917 C 83.4317 3.58056 -2.34477 0
M  V30 918 C 82.7577 4.94593 -2.0318 0
M  V30 919 C 84.0577 3.61716 -3.76774 0
M  V30 920 H 85.7517 1.86395 -2.34302 0
M  V30 921 H 83.2977 0.895361 -1.1278 0
M  V30 922 H 85.2507 4.031 -1.22834 0
M  V30 923 H 83.9747 3.25587 -0.257045 0
M  V30 924 H 82.6337 2.81854 -2.34423 0
M  V30 925 H 82.2817 4.92181 -1.03765 0
M  V30 926 H 81.9817 5.17964 -2.77465 0
M  V30 927 H 83.5057 5.75486 -2.04079 0
M  V30 928 H 84.9197 4.30335 -3.78794 0
M  V30 929 H 83.3167 3.96603 -4.50362 0
M  V30 930 H 84.3867 2.61672 -4.08235 0
M  V30 931 N 85.7298 1.2412 0.971189 0
M  V30 932 C 86.6598 1.05508 2.08304 0
M  V30 933 C 87.6408 -0.0308864 1.70072 0
M  V30 934 O 88.8258 0.135521 1.93727 0
M  V30 935 C 85.9558 0.655365 3.4106 0
M  V30 936 C 84.9098 1.68971 3.93234 0
M  V30 937 C 84.2358 1.14516 5.22293 0
M  V30 938 C 85.5358 3.08487 4.21465 0
M  V30 939 H 87.2298 1.98507 2.24132 0
M  V30 940 H 84.7758 0.955821 1.07704 0
M  V30 941 H 86.7288 0.51217 4.18276 0
M  V30 942 H 85.4528 -0.31032 3.25122 0
M  V30 943 H 84.1118 1.82106 3.18171 0
M  V30 944 H 83.7598 0.170189 5.02712 0
M  V30 945 H 83.4598 1.83635 5.58168 0
M  V30 946 H 84.9838 1.01401 6.02121 0
M  V30 947 H 86.3978 2.98601 4.89398 0
M  V30 948 H 84.7948 3.74926 4.68562 0
M  V30 949 H 85.8648 3.56787 3.28376 0
M  V30 950 N 87.2079 -1.17134 1.05439 0
M  V30 951 C 88.6239 -1.39454 0.776201 0
M  V30 952 C 88.8239 -1.91454 -0.628307 0
M  V30 953 O 87.8799 -2.10777 -1.39031 0
M  V30 954 C 89.1929 -2.38305 1.83388 0
M  V30 955 C 90.7409 -2.52006 1.85639 0
M  V30 956 C 91.2159 -3.54133 2.90437 0
M  V30 957 N 92.7069 -3.61653 2.89415 0
M  V30 958 C 93.4419 -4.4044 3.67152 0
M  V30 959 N 92.9379 -5.22721 4.54681 0
M  V30 960 N 94.7309 -4.35337 3.55581 0
M  V30 961 H 86.8819 -0.817134 1.96053 0
M  V30 962 H 89.1449 -0.421626 0.849079 0
M  V30 963 H 88.8509 -2.07173 2.84204 0
M  V30 964 H 88.7249 -3.37841 1.67761 0
M  V30 965 H 91.1119 -2.82447 0.85486 0
M  V30 966 H 91.1929 -1.52537 2.05344 0
M  V30 967 H 90.8369 -3.24431 3.90777 0
M  V30 968 H 90.7669 -4.53313 2.67983 0
M  V30 969 H 93.2579 -3.02909 2.25952 0
M  V30 970 H 93.5709 -5.80027 5.10674 0
M  V30 971 H 91.9159 -5.22093 4.58741 0
M  V30 972 H 95.1069 -3.70112 2.86592 0
M  V30 973 H 95.2799 -4.96494 4.1641 0
M  V30 974 N 88.686 -0.835752 -1.33615 0
M  V30 975 C 89.633 -0.26473 -2.29277 0
M  V30 976 C 90.603 0.617712 -1.54187 0
M  V30 977 O 91.788 0.556641 -1.825 0
M  V30 978 C 88.928 0.556777 -3.40579 0
M  V30 979 C 88.041 -0.349339 -4.30585 0
M  V30 980 C 87.176 0.482969 -5.29 0
M  V30 981 C 86.215 -0.421732 -6.10645 0
M  V30 982 N 85.352 0.372262 -7.01112 0
M  V30 983 H 90.192 -1.08582 -2.77514 0
M  V30 984 H 87.729 -0.546927 -1.36554 0
M  V30 985 H 89.687 1.04852 -4.03809 0
M  V30 986 H 88.317 1.34286 -2.93542 0
M  V30 987 H 87.369 -0.959372 -3.68104 0
M  V30 988 H 88.681 -1.04445 -4.87742 0
M  V30 989 H 87.835 1.03866 -5.97743 0
M  V30 990 H 86.574 1.21153 -4.72412 0
M  V30 991 H 85.579 -0.989464 -5.40823 0
M  V30 992 H 86.804 -1.14861 -6.69316 0
M  V30 993 H 84.75 1.08426 -6.46977 0
M  V30 994 H 84.667 -0.264198 -7.55538 0
M  V30 995 H 85.935 0.910293 -7.74167 0
M  V30 996 N 90.1641 1.46063 -0.591896 0
M  V30 997 C 91.0961 2.28539 0.174001 0
M  V30 998 C 92.1091 1.39047 0.846753 0
M  V30 999 O 93.2981 1.63564 0.714774 0
M  V30 1000 C 90.3981 3.14347 1.26645 0
M  V30 1001 C 89.5711 4.32021 0.683856 0
M  V30 1002 C 88.6301 4.99157 1.66518 0
M  V30 1003 O 87.6561 5.56458 1.19763 0
M  V30 1004 N 88.8581 4.97005 2.99943 0
M  V30 1005 H 91.6231 2.94911 -0.533633 0
M  V30 1006 H 89.1841 1.56077 -0.430294 0
M  V30 1007 H 91.1761 3.56125 1.92242 0
M  V30 1008 H 89.7461 2.49988 1.87682 0
M  V30 1009 H 88.9661 3.93915 -0.1498 0
M  V30 1010 H 90.2541 5.08059 0.274567 0
M  V30 1011 H 89.6521 4.51714 3.40545 0
M  V30 1012 H 88.2091 5.42696 3.61004 0
M  V30 1013 N 91.6422 0.330177 1.54103 0
M  V30 1014 C 92.6052 -0.520144 2.2322 0
M  V30 1015 C 93.6052 -1.03828 1.22786 0
M  V30 1016 O 94.7952 -0.929652 1.4732 0
M  V30 1017 C 91.9272 -1.72317 2.94142 0
M  V30 1018 H 93.1202 0.0841605 2.99782 0
M  V30 1019 H 90.6732 0.0813433 1.56088 0
M  V30 1020 H 91.4082 -2.36653 2.21734 0
M  V30 1021 H 91.1932 -1.35898 3.67796 0
M  V30 1022 H 92.6832 -2.3266 3.46784 0
M  V30 1023 N 93.1203 -1.57491 0.0584922 0
M  V30 1024 C 94.0303 -2.15448 -0.928414 0
M  V30 1025 C 95.0463 -1.11416 -1.3365 0
M  V30 1026 O 96.2223 -1.4362 -1.41193 0
M  V30 1027 C 93.2873 -2.69393 -2.18239 0
M  V30 1028 C 92.3483 -3.88249 -1.83196 0
M  V30 1029 C 91.5813 -4.39613 -3.02616 0
M  V30 1030 O 91.8043 -3.90023 -4.16219 0
M  V30 1031 O 90.7383 -5.31111 -2.83204 0
M  V30 1032 H 94.5643 -3.00112 -0.465483 0
M  V30 1033 H 92.1493 -1.48499 -0.163826 0
M  V30 1034 H 94.0313 -3.04026 -2.91798 0
M  V30 1035 H 92.7063 -1.87796 -2.63656 0
M  V30 1036 H 91.6133 -3.58492 -1.06931 0
M  V30 1037 H 92.9463 -4.71098 -1.42573 0
M  V30 1038 N 94.5984 0.214957 -1.56127 0
M  V30 1039 C 95.5084 1.28727 -1.96129 0
M  V30 1040 C 96.5244 1.50916 -0.866044 0
M  V30 1041 O 97.7004 1.63918 -1.17016 0
M  V30 1042 C 94.7654 2.61569 -2.27558 0
M  V30 1043 C 93.8264 2.47625 -3.50685 0
M  V30 1044 C 93.0594 3.74132 -3.80606 0
M  V30 1045 O 93.2824 4.77438 -3.12104 0
M  V30 1046 O 92.2164 3.70849 -4.74083 0
M  V30 1047 H 96.0424 0.977855 -2.87527 0
M  V30 1048 H 93.6274 0.418358 -1.43423 0
M  V30 1049 H 95.5094 3.40012 -2.48938 0
M  V30 1050 H 94.1844 2.92178 -1.39332 0
M  V30 1051 H 93.0914 1.67361 -3.34576 0
M  V30 1052 H 94.4244 2.21954 -4.39315 0
M  V30 1053 N 96.0765 1.50051 0.48192 0
M  V30 1054 C 97.3535 1.51009 1.2432 0
M  V30 1055 C 97.7335 0.248587 2.09631 0
M  V30 1056 O 97.0815 -0.768409 2.15192 0
M  V30 1057 C 97.2915 2.79981 2.08355 0
M  V30 1058 C 98.6395 3.3022 2.66908 0
M  V30 1059 O 99.6635 2.81228 2.18607 0
M  V30 1060 O 98.5225 4.15595 3.54884 0
M  V30 1061 H 95.6165 0.605239 0.563573 0
M  V30 1062 H 98.1625 1.62332 0.494627 0
M  V30 1063 H 96.9345 3.63275 1.45419 0
M  V30 1064 H 96.5575 2.7161 2.90368 0
M  V30 1065 N 97.5546 -0.734337 1.39446 0
M  V30 1066 C 98.5176 -1.83004 1.37994 0
M  V30 1067 C 99.5176 -1.58397 0.276938 0
M  V30 1068 O 100.708 -1.65785 0.534875 0
M  V30 1069 C 97.8396 -3.20802 1.1532 0
M  V30 1070 H 99.0326 -1.85694 2.35494 0
M  V30 1071 H 96.5856 -0.938059 1.25021 0
M  V30 1072 H 97.3206 -3.23772 0.185036 0
M  V30 1073 H 97.1056 -3.4006 1.95197 0
M  V30 1074 H 98.5956 -4.00862 1.17046 0
M  V30 1075 N 99.0327 -1.24633 -0.964593 0
M  V30 1076 C 99.9827 -1.00841 -2.04487 0
M  V30 1077 C 100.967 0.0512468 -1.60818 0
M  V30 1078 O 102.159 -0.162865 -1.76249 0
M  V30 1079 C 99.2877 -0.618474 -3.37683 0
M  V30 1080 C 98.3737 -1.71437 -3.87905 0
M  V30 1081 N 98.7647 -2.9477 -4.11029 0
M  V30 1082 C 97.0627 -1.5926 -4.16596 0
M  V30 1083 C 97.7637 -3.65834 -4.52261 0
M  V30 1084 N 96.7397 -2.9341 -4.57615 0
M  V30 1085 H 100.542 -1.94487 -2.20345 0
M  V30 1086 H 98.0557 -1.14805 -1.14863 0
M  V30 1087 H 100.053 -0.429247 -4.14684 0
M  V30 1088 H 98.7127 0.310766 -3.23209 0
M  V30 1089 H 99.7237 -3.30917 -3.9839 0
M  V30 1090 H 96.4007 -0.731606 -4.1104 0
M  V30 1091 H 97.7907 -4.71646 -4.78539 0
M  V30 1092 N 100.511 1.16574 -1.06058 0
M  V30 1093 C 101.441 2.23057 -0.690488 0
M  V30 1094 C 102.422 1.67141 0.315901 0
M  V30 1095 O 103.607 1.93253 0.191556 0
M  V30 1096 C 100.737 3.47222 -0.073625 0
M  V30 1097 C 99.6908 4.16016 -1.00573 0
M  V30 1098 C 99.0168 5.34104 -0.252289 0
M  V30 1099 C 100.317 4.67264 -2.33371 0
M  V30 1100 H 102.011 2.54271 -1.58072 0
M  V30 1101 H 99.5568 1.22218 -0.76149 0
M  V30 1102 H 101.51 4.20939 0.19714 0
M  V30 1103 H 100.234 3.15302 0.85161 0
M  V30 1104 H 98.8928 3.44223 -1.2612 0
M  V30 1105 H 98.5408 4.98437 0.675988 0
M  V30 1106 H 98.2408 5.81072 -0.873455 0
M  V30 1107 H 99.7648 6.10599 0.0109857 0
M  V30 1108 H 101.179 5.32573 -2.12223 0
M  V30 1109 H 99.5758 5.24843 -2.90963 0
M  V30 1110 H 100.646 3.83602 -2.96611 0
M  V30 1111 N 101.989 0.842826 1.3317 0
M  V30 1112 C 103.266 0.362216 1.92217 0
M  V30 1113 C 103.646 -1.15289 1.76838 0
M  V30 1114 O 102.994 -1.96914 1.15919 0
M  V30 1115 C 103.204 0.813495 3.39387 0
M  V30 1116 C 104.552 0.823804 4.16532 0
M  V30 1117 O 105.576 0.757358 3.48055 0
M  V30 1118 O 104.435 0.915193 5.38782 0
M  V30 1119 H 101.529 0.103317 0.820521 0
M  V30 1120 H 104.075 0.928942 1.42017 0
M  V30 1121 H 102.847 1.85624 3.4447 0
M  V30 1122 H 102.47 0.223561 3.96971 0
M  V30 1123 N 103.467 -1.45747 0.599634 0
M  V30 1124 C 104.715 -2.01893 0.0915472 0
M  V30 1125 C 105.036 -1.47155 -1.27946 0
M  V30 1126 O 104.306 -0.66273 -1.84349 0
M  V30 1127 H 102.886 -0.746363 0.0308524 0
M  V30 1128 H 105.548 -1.78645 0.779237 0
M  V30 1129 H 104.644 -3.1208 0.0353086 0
M  V30 1130 N 104.945 -0.338344 -1.53925 0
M  V30 1131 C 105.908 0.508299 -2.23493 0
M  V30 1132 C 106.908 1.03175 -1.23335 0
M  V30 1133 O 108.098 0.921826 -1.47811 0
M  V30 1134 C 105.23 1.70754 -2.95052 0
M  V30 1135 H 106.423 -0.100058 -2.99733 0
M  V30 1136 H 103.976 -0.0896198 -1.56043 0
M  V30 1137 H 104.711 2.35474 -2.22986 0
M  V30 1138 H 104.496 1.33946 -3.68512 0
M  V30 1139 H 105.986 2.30818 -3.48013 0
M  V30 1140 N 106.423 1.57458 -0.0668435 0
M  V30 1141 C 107.669 1.93587 0.6043 0
M  V30 1142 C 108.002 0.946722 1.69561 0
M  V30 1143 O 107.277 -0.0248516 1.94484 0
M  V30 1144 C 107.56 3.40014 1.18585 0
M  V30 1145 C 107.413 4.49685 0.101529 0
M  V30 1146 C 108.732 3.87154 2.09284 0
M  V30 1147 H 105.851 0.703958 0.218202 0
M  V30 1148 H 108.493 1.89542 -0.131804 0
M  V30 1149 H 106.643 3.43592 1.81319 0
M  V30 1150 H 108.315 4.5823 -0.531279 0
M  V30 1151 H 106.558 4.30059 -0.568487 0
M  V30 1152 H 107.229 5.49266 0.54874 0
M  V30 1153 H 109.705 3.85551 1.56491 0
M  V30 1154 H 108.581 4.90231 2.46911 0
M  V30 1155 H 108.842 3.2481 2.99918 0
M  V30 1156 N 107.901 -0.206675 1.56239 0
M  V30 1157 C 109.312 -0.772383 1.69974 0
M  V30 1158 C 109.663 -1.84353 0.671436 0
M  V30 1159 O 108.788 -2.15695 -0.174491 0
M  V30 1160 C 109.383 -1.40779 3.08167 0
M  V30 1161 C 107.942 -1.92072 3.23706 0
M  V30 1162 C 107.089 -0.786347 2.65917 0
M  V30 1163 H 110.04 0.0182223 1.5869 0
M  V30 1164 H 110.061 -2.27696 3.04852 0
M  V30 1165 H 109.573 -0.627958 3.82986 0
M  V30 1166 H 107.674 -2.7281 2.53782 0
M  V30 1167 H 107.787 -2.09046 4.31087 0
M  V30 1168 H 106.151 -1.1976 2.24788 0
M  V30 1169 H 106.934 -0.0189416 3.43295 0
M  V30 1170 N 109.379 -1.50304 -0.473955 0
M  V30 1171 C 110.628 -1.60392 -1.22301 0
M  V30 1172 C 110.941 -0.308411 -1.93153 0
M  V30 1173 O 112.147 -0.288156 -2.69966 0
M  V30 1174 C 110.603 -2.83109 -2.2221 0
M  V30 1175 C 110.211 -4.19524 -1.57173 0
M  V30 1176 C 111.955 -3.0254 -2.97775 0
M  V30 1177 C 109.862 -5.33431 -2.55353 0
M  V30 1178 H 108.792 -0.597286 -0.460179 0
M  V30 1179 H 111.443 -1.76731 -0.493803 0
M  V30 1180 H 109.825 -2.60322 -2.9841 0
M  V30 1181 H 110.999 -4.52554 -0.867824 0
M  V30 1182 H 109.314 -4.05674 -0.939002 0
M  V30 1183 H 111.911 -3.84811 -3.71248 0
M  V30 1184 H 112.254 -2.14154 -3.56992 0
M  V30 1185 H 112.787 -3.25494 -2.28688 0
M  V30 1186 H 109.526 -6.23962 -2.00878 0
M  V30 1187 H 109.046 -5.04823 -3.23904 0
M  V30 1188 H 110.725 -5.63887 -3.17239 0
M  V30 1189 N 110.857 0.726932 -1.39834 0
M  V30 1190 C 112.268 1.30558 -1.3346 0
M  V30 1191 C 112.619 1.962 -0.00273003 0
M  V30 1192 O 111.744 1.96826 0.899371 0
M  V30 1193 C 112.339 2.37404 -2.41713 0
M  V30 1194 C 110.898 2.90921 -2.38835 0
M  V30 1195 C 110.045 1.64578 -2.2318 0
M  V30 1196 H 112.996 0.523862 -1.49804 0
M  V30 1197 H 113.017 3.17984 -2.08966 0
M  V30 1198 H 112.529 1.89599 -3.38635 0
M  V30 1199 H 110.63 3.42985 -1.45575 0
M  V30 1200 H 110.743 3.43487 -3.33997 0
M  V30 1201 H 109.107 1.89219 -1.70494 0
M  V30 1202 H 109.89 1.18814 -3.22084 0
M  V30 1203 N 112.336 1.25143 0.95797 0
M  V30 1204 C 113.299 1.05321 2.03569 0
M  V30 1205 C 114.299 0.007152 1.60798 0
M  V30 1206 O 115.489 0.24903 1.72411 0
M  V30 1207 C 112.621 0.598394 3.35607 0
M  V30 1208 H 113.814 2.00986 2.22586 0
M  V30 1209 H 111.367 1.07502 1.13459 0
M  V30 1210 H 112.102 -0.361014 3.22284 0
M  V30 1211 H 111.887 1.35351 3.67998 0
M  V30 1212 H 113.377 0.48104 4.1482 0
M  V30 1213 N 113.814 -1.1601 1.06675 0
M  V30 1214 C 114.777 -2.18724 0.685001 0
M  V30 1215 C 115.777 -1.58496 -0.271246 0
M  V30 1216 O 116.967 -1.74119 -0.0531156 0
M  V30 1217 C 114.099 -3.40899 0.00853648 0
M  V30 1218 H 115.292 -2.54011 1.59431 0
M  V30 1219 H 112.845 -1.30352 0.862441 0
M  V30 1220 H 113.58 -3.11173 -0.913337 0
M  V30 1221 H 113.365 -3.8587 0.696204 0
M  V30 1222 H 114.855 -4.16886 -0.24414 0
M  V30 1223 N 115.292 -0.849877 -1.32721 0
M  V30 1224 C 116.517 -0.463856 -2.02146 0
M  V30 1225 C 116.942 0.930449 -1.63476 0
M  V30 1226 O 116.3 1.61033 -0.832952 0
M  V30 1227 C 116.348 -0.604955 -3.55489 0
M  V30 1228 O 115.452 0.36425 -4.10788 0
M  V30 1229 H 114.793 -0.187046 -0.637111 0
M  V30 1230 H 117.323 -1.14775 -1.69375 0
M  V30 1231 H 117.333 -0.490696 -4.05038 0
M  V30 1232 H 116.008 -1.62174 -3.82978 0
M  V30 1233 H 114.585 0.206628 -3.72327 0
M  V30 1234 N 116.77 1.45427 -0.607355 0
M  V30 1235 C 118.018 2.01841 -0.102253 0
M  V30 1236 C 118.339 1.47832 1.27164 0
M  V30 1237 O 117.609 0.672497 1.83995 0
M  V30 1238 H 116.189 0.746188 -0.0348101 0
M  V30 1239 H 118.851 1.78229 -0.7887 0
M  V30 1240 H 117.947 3.12057 -0.0518585 0
M  V30 1241 N 118.248 0.346503 1.53744 0
M  V30 1242 C 119.196 -0.52422 2.26616 0
M  V30 1243 C 120.19 -1.09948 1.28871 0
M  V30 1244 O 121.396 -1.04488 1.46568 0
M  V30 1245 H 117.771 -0.187743 0.728187 0
M  V30 1246 H 119.742 0.11239 2.98188 0
M  V30 1247 C 118.491 -1.66186 3.05414 0
M  V30 1248 H 117.814 -1.22848 3.80458 0
M  V30 1249 H 119.254 -2.24622 3.59612 0
M  V30 1250 C 117.713 -2.59302 2.1509 0
M  V30 1251 O 118.243 -3.61628 1.74895 0
M  V30 1252 N 116.449 -2.28055 1.8011 0
M  V30 1253 H 115.996 -1.44883 2.12994 0
M  V30 1254 H 115.954 -2.90615 1.19958 0
M  V30 1255 N 119.726 -1.57421 0.075193 0
M  V30 1256 C 120.974 -1.93236 -0.591974 0
M  V30 1257 C 121.295 -0.956241 -1.69944 0
M  V30 1258 O 120.565 -0.00494792 -1.95899 0
M  V30 1259 H 119.145 -0.713355 -0.22166 0
M  V30 1260 H 121.807 -1.9444 0.133848 0
M  V30 1261 H 120.903 -2.95131 -1.01509 0
M  V30 1262 N 121.204 0.198386 -1.56346 0
M  V30 1263 C 122.45 0.920648 -1.80698 0
M  V30 1264 C 122.783 1.83045 -0.648697 0
M  V30 1265 O 122.058 1.91308 0.350925 0
M  V30 1266 C 122.341 1.73971 -3.15287 0
M  V30 1267 C 122.194 0.85485 -4.41602 0
M  V30 1268 C 123.513 2.71296 -3.46535 0
M  V30 1269 H 120.632 0.333261 -0.657348 0
M  V30 1270 H 123.274 0.188198 -1.89066 0
M  V30 1271 H 121.424 2.36416 -3.08285 0
M  V30 1272 H 123.096 0.245362 -4.60647 0
M  V30 1273 H 121.339 0.161398 -4.335 0
M  V30 1274 H 122.01 1.46286 -5.32264 0
M  V30 1275 H 124.486 2.18983 -3.53816 0
M  V30 1276 H 123.362 3.2569 -4.41834 0
M  V30 1277 H 123.623 3.5018 -2.69864 0
M  V30 1278 N 122.682 1.50554 0.465978 0
M  V30 1279 C 123.959 1.5232 1.22712 0
M  V30 1280 C 124.339 0.270807 2.09356 0
M  V30 1281 O 123.687 -0.745541 2.15995 0
M  V30 1282 C 123.897 2.82175 2.05374 0
M  V30 1283 C 125.245 3.33033 2.6339 0
M  V30 1284 O 126.269 2.83531 2.15612 0
M  V30 1285 O 125.128 4.19336 3.50456 0
M  V30 1286 H 122.222 0.611183 0.557122 0
M  V30 1287 H 124.768 1.62847 0.477381 0
M  V30 1288 H 123.54 3.64797 1.41558 0
M  V30 1289 H 123.163 2.74675 2.87471 0
M  V30 1290 N 124.16 -0.719506 1.40217 0
M  V30 1291 C 125.437 -1.47221 1.28784 0
M  V30 1292 C 125.817 -2.10883 -0.0956067 0
M  V30 1293 O 125.165 -1.99833 -1.10811 0
M  V30 1294 C 125.375 -2.5111 2.42373 0
M  V30 1295 C 126.723 -3.17053 2.82423 0
M  V30 1296 O 127.747 -2.61429 2.41937 0
M  V30 1297 O 126.606 -4.17742 3.52355 0
M  V30 1298 H 123.7 -0.654491 0.50554 0
M  V30 1299 H 126.246 -0.752014 1.52128 0
M  V30 1300 H 125.018 -2.02556 3.34793 0
M  V30 1301 H 124.641 -3.3067 2.20778 0
M  V30 1302 N 125.638 -1.25649 -0.95132 0
M  V30 1303 C 126.568 -1.08808 -2.06599 0
M  V30 1304 C 127.549 0.00382547 -1.701 0
M  V30 1305 O 128.734 -0.166325 -1.93486 0
M  V30 1306 C 125.864 -0.709542 -3.39975 0
M  V30 1307 C 124.818 -1.75206 -3.90496 0
M  V30 1308 C 124.144 -1.22811 -5.20405 0
M  V30 1309 C 125.444 -3.15153 -4.16504 0
M  V30 1310 H 127.138 -2.02048 -2.20946 0
M  V30 1311 H 124.684 -0.972835 -1.06169 0
M  V30 1312 H 126.637 -0.578649 -4.17408 0
M  V30 1313 H 125.361 0.258556 -3.25575 0
M  V30 1314 H 124.02 -1.87145 -3.15234 0
M  V30 1315 H 123.668 -0.250145 -5.02378 0
M  V30 1316 H 123.368 -1.92492 -5.55176 0
M  V30 1317 H 124.892 -1.10968 -6.00432 0
M  V30 1318 H 126.306 -3.06349 -4.84586 0
M  V30 1319 H 124.703 -3.82333 -4.62538 0
M  V30 1320 H 125.773 -3.61966 -3.22658 0
M  V30 1321 N 127.117 1.15442 -1.07289 0
M  V30 1322 C 128.049 2.19773 -0.650585 0
M  V30 1323 C 129.062 1.60076 0.296572 0
M  V30 1324 O 130.251 1.78293 0.0859905 0
M  V30 1325 C 127.351 3.38838 0.0650398 0
M  V30 1326 C 126.524 4.2808 -0.898141 0
M  V30 1327 C 125.583 5.2574 -0.219926 0
M  V30 1328 O 124.609 5.62654 -0.860773 0
M  V30 1329 N 125.811 5.71205 1.03466 0
M  V30 1330 H 128.576 2.56622 -1.54808 0
M  V30 1331 H 126.137 1.30551 -0.957494 0
M  V30 1332 H 128.129 4.01222 0.529415 0
M  V30 1333 H 126.699 3.00409 0.864466 0
M  V30 1334 H 125.919 3.62804 -1.54165 0
M  V30 1335 H 127.207 4.84577 -1.5512 0
M  V30 1336 H 126.605 5.43325 1.57526 0
M  V30 1337 H 125.162 6.35633 1.44272 0
M  V30 1338 N 128.595 0.856903 1.32268 0
M  V30 1339 C 129.527 0.260412 2.27716 0
M  V30 1340 C 130.54 -0.569137 1.52528 0
M  V30 1341 O 131.729 -0.39326 1.74114 0
M  V30 1342 C 128.829 -0.650477 3.32599 0
M  V30 1343 C 128.002 0.14372 4.37164 0
M  V30 1344 C 127.061 -0.69328 5.21613 0
M  V30 1345 O 126.087 -0.12599 5.69061 0
M  V30 1346 N 127.289 -2.00761 5.44679 0
M  V30 1347 H 130.054 1.08059 2.79541 0
M  V30 1348 H 127.615 0.717103 1.45152 0
M  V30 1349 H 129.607 -1.21581 3.86005 0
M  V30 1350 H 128.177 -1.37133 2.80915 0
M  V30 1351 H 127.397 0.890486 3.8401 0
M  V30 1352 H 128.685 0.68915 5.04111 0
M  V30 1353 H 128.083 -2.49181 5.07863 0
M  V30 1354 H 126.64 -2.52103 6.01072 0
M  V30 1355 N 130.073 -1.45103 0.615059 0
M  V30 1356 C 131.006 -2.27717 -0.148408 0
M  V30 1357 C 131.984 -1.37584 -0.866572 0
M  V30 1358 O 133.168 -1.67017 -0.87393 0
M  V30 1359 C 130.295 -3.16136 -1.21557 0
M  V30 1360 C 129.341 -4.22263 -0.599712 0
M  V30 1361 S 130.174 -5.3215 0.598081 0
M  V30 1362 C 131.33 -6.24137 -0.469484 0
M  V30 1363 H 131.563 -2.92121 0.552483 0
M  V30 1364 H 129.096 -1.49054 0.402778 0
M  V30 1365 H 131.054 -3.67633 -1.82638 0
M  V30 1366 H 129.715 -2.50982 -1.88857 0
M  V30 1367 H 128.908 -4.84081 -1.4029 0
M  V30 1368 H 128.51 -3.73945 -0.063876 0
M  V30 1369 H 130.802 -6.63984 -1.34652 0
M  V30 1370 H 131.745 -7.0801 0.112725 0
M  V30 1371 H 132.153 -5.58971 -0.788168 0
M  V30 1372 N 131.551 -0.354651 -1.53558 0
M  V30 1373 C 132.8 0.239504 -2.00273 0
M  V30 1374 C 133.113 1.50759 -1.24623 0
M  V30 1375 O 134.319 2.17968 -1.61871 0
M  V30 1376 C 132.775 0.477341 -3.5672 0
M  V30 1377 C 132.383 -0.775488 -4.41237 0
M  V30 1378 C 134.127 1.02975 -4.11821 0
M  V30 1379 C 132.034 -0.507838 -5.89216 0
M  V30 1380 H 130.964 0.0932743 -0.748208 0
M  V30 1381 H 133.615 -0.471701 -1.77334 0
M  V30 1382 H 131.997 1.24953 -3.7577 0
M  V30 1383 H 133.171 -1.54963 -4.33962 0
M  V30 1384 H 131.486 -1.25033 -3.97185 0
M  V30 1385 H 134.083 1.24513 -5.2 0
M  V30 1386 H 134.426 1.98862 -3.65731 0
M  V30 1387 H 134.959 0.317994 -3.96527 0
M  V30 1388 H 131.698 -1.43674 -6.39561 0
M  V30 1389 H 131.218 0.228011 -5.99366 0
M  V30 1390 H 132.897 -0.129238 -6.46871 0
M  V30 1391 N 133.029 1.57378 -0.0835403 0
M  V30 1392 C 133.961 2.10389 0.909338 0
M  V30 1393 C 134.974 1.03858 1.25369 0
M  V30 1394 O 136.163 1.31338 1.20882 0
M  V30 1395 C 133.263 2.55908 2.2218 0
M  V30 1396 C 132.436 3.86145 2.05453 0
M  V30 1397 C 131.495 4.17633 3.20108 0
M  V30 1398 O 130.521 4.87043 2.94581 0
M  V30 1399 N 131.723 3.72113 4.45547 0
M  V30 1400 H 134.488 2.962 0.456657 0
M  V30 1401 H 132.049 1.61579 0.101877 0
M  V30 1402 H 134.041 2.74027 2.97811 0
M  V30 1403 H 132.611 1.75171 2.58909 0
M  V30 1404 H 131.831 3.7729 1.1422 0
M  V30 1405 H 133.119 4.7137 1.91541 0
M  V30 1406 H 132.517 3.16062 4.69171 0
M  V30 1407 H 131.074 3.95409 5.18165 0
M  V30 1408 N 134.507 -0.190092 1.56449 0
M  V30 1409 C 135.47 -1.21925 1.9408 0
M  V30 1410 C 136.47 -1.38176 0.822431 0
M  V30 1411 O 137.66 -1.35903 1.08977 0
M  V30 1412 C 134.792 -2.58773 2.21922 0
M  V30 1413 H 135.985 -0.897464 2.86157 0
M  V30 1414 H 133.538 -0.43181 1.50217 0
M  V30 1415 H 134.273 -2.95998 1.32499 0
M  V30 1416 H 134.058 -2.48348 3.03424 0
M  V30 1417 H 135.548 -3.32978 2.52022 0
M  V30 1418 N 135.985 -1.50799 -0.457987 0
M  V30 1419 C 137.231 -1.62683 -1.21088 0
M  V30 1420 C 137.564 -0.332268 -1.91336 0
M  V30 1421 O 136.839 0.667043 -1.82704 0
M  V30 1422 C 137.122 -2.81615 -2.24422 0
M  V30 1423 C 136.975 -4.20989 -1.58392 0
M  V30 1424 C 138.294 -2.96085 -3.2561 0
M  V30 1425 H 135.413 -0.592087 -0.438864 0
M  V30 1426 H 138.055 -1.83225 -0.50286 0
M  V30 1427 H 136.205 -2.64231 -2.84806 0
M  V30 1428 H 137.877 -4.49994 -1.01504 0
M  V30 1429 H 136.12 -4.24641 -0.886704 0
M  V30 1430 H 136.791 -5.0016 -2.33547 0
M  V30 1431 H 139.267 -3.12042 -2.75262 0
M  V30 1432 H 138.143 -3.80902 -3.95228 0
M  V30 1433 H 138.404 -2.0726 -3.90507 0
M  V30 1434 N 137.463 0.71206 -1.40597 0
M  V30 1435 C 138.709 1.47416 -1.39271 0
M  V30 1436 C 139.042 1.942 0.00388791 0
M  V30 1437 O 138.317 1.68403 0.973179 0
M  V30 1438 C 138.6 2.69774 -2.38525 0
M  V30 1439 C 138.453 2.28861 -3.87224 0
M  V30 1440 C 139.772 3.71939 -2.35264 0
M  V30 1441 H 136.891 0.534713 -0.5072 0
M  V30 1442 H 139.533 0.812375 -1.71757 0
M  V30 1443 H 137.683 3.26238 -2.10953 0
M  V30 1444 H 139.355 1.77852 -4.25636 0
M  V30 1445 H 137.598 1.60824 -4.02887 0
M  V30 1446 H 138.269 3.16584 -4.52193 0
M  V30 1447 H 140.745 3.25113 -2.59694 0
M  V30 1448 H 139.621 4.55186 -3.06753 0
M  V30 1449 H 139.882 4.20484 -1.36549 0
M  V30 1450 N 138.941 1.26152 0.944643 0
M  V30 1451 C 140.218 1.02247 1.66748 0
M  V30 1452 C 140.598 -0.448202 2.06287 0
M  V30 1453 O 139.946 -1.42779 1.78399 0
M  V30 1454 C 140.156 1.96788 2.88228 0
M  V30 1455 C 141.504 2.25201 3.59958 0
M  V30 1456 O 142.528 1.94626 2.98327 0
M  V30 1457 O 141.387 2.77242 4.70956 0
M  V30 1458 H 138.481 0.388517 0.730057 0
M  V30 1459 H 141.027 1.37348 0.99668 0
M  V30 1460 H 139.799 2.96047 2.55875 0
M  V30 1461 H 139.422 1.62145 3.63035 0
M  V30 1462 N 140.419 -1.14872 1.07899 0
M  V30 1463 C 141.367 -2.21857 0.698727 0
M  V30 1464 C 142.361 -1.66845 -0.293086 0
M  V30 1465 O 143.567 -1.79321 -0.156204 0
M  V30 1466 H 139.942 -0.722691 0.207899 0
M  V30 1467 H 141.913 -2.51205 1.61054 0
M  V30 1468 C 140.662 -3.47498 0.11858 0
M  V30 1469 H 139.985 -3.90154 0.872914 0
M  V30 1470 H 141.425 -4.23858 -0.109759 0
M  V30 1471 C 139.884 -3.16947 -1.1422 0
M  V30 1472 O 140.414 -3.3426 -2.22785 0
M  V30 1473 N 138.62 -2.70946 -1.05055 0
M  V30 1474 H 138.167 -2.57058 -0.167038 0
M  V30 1475 H 138.125 -2.50879 -1.89491 0
M  V30 1476 N 141.898 -0.863906 -1.31812 0
M  V30 1477 C 143.144 -0.472535 -1.97218 0
M  V30 1478 C 143.477 0.971394 -1.68159 0
M  V30 1479 O 142.752 1.68309 -0.974798 0
M  V30 1480 C 143.035 -0.723054 -3.52766 0
M  V30 1481 C 142.888 -2.21608 -3.91421 0
M  V30 1482 C 144.207 -0.185522 -4.39709 0
M  V30 1483 H 141.326 -0.173158 -0.71637 0
M  V30 1484 H 143.968 -1.08403 -1.56041 0
M  V30 1485 H 142.118 -0.202577 -3.87971 0
M  V30 1486 H 143.79 -2.80334 -3.66347 0
M  V30 1487 H 142.033 -2.691 -3.40246 0
M  V30 1488 H 142.704 -2.34203 -4.99853 0
M  V30 1489 H 145.18 -0.630726 -4.11292 0
M  V30 1490 H 144.056 -0.390306 -5.47511 0
M  V30 1491 H 144.317 0.912229 -4.32586 0
M  V30 1492 N 143.376 1.44774 -0.622745 0
M  V30 1493 C 144.616 2.04004 -0.127102 0
M  V30 1494 C 144.98 1.47862 1.22478 0
M  V30 1495 O 146.181 1.98541 1.81204 0
M  V30 1496 C 144.452 3.57247 -0.104429 0
M  V30 1497 S 146.011 4.37574 0.327814 0
M  V30 1498 H 142.829 0.708713 -0.0569776 0
M  V30 1499 H 145.431 1.77275 -0.824253 0
M  V30 1500 H 144.135 3.95616 -1.09159 0
M  V30 1501 H 143.666 3.88575 0.614236 0
M  V30 1502 H 145.681 4.70575 1.57395 0
M  V30 1503 N 144.854 0.36279 1.53368 0
M  V30 1504 C 146.1 -0.220702 2.02199 0
M  V30 1505 C 146.455 -1.46649 1.24546 0
M  V30 1506 O 145.748 -1.88737 0.32996 0
M  V30 1507 C 145.942 -0.568417 3.52851 0
M  V30 1508 C 145.771 0.642126 4.45092 0
M  V30 1509 C 144.541 1.15335 4.91961 0
M  V30 1510 C 146.739 1.50649 4.91741 0
M  V30 1511 N 144.721 2.3242 5.68202 0
M  V30 1512 C 146.092 2.52404 5.66297 0
M  V30 1513 C 148.147 1.52969 4.73819 0
M  V30 1514 C 146.85 3.56331 6.24836 0
M  V30 1515 C 148.876 2.55789 5.33222 0
M  V30 1516 C 148.238 3.56268 6.07662 0
M  V30 1517 H 144.337 -0.0435508 0.780786 0
M  V30 1518 H 146.921 0.506704 1.87991 0
M  V30 1519 H 145.092 -1.2649 3.67226 0
M  V30 1520 H 146.824 -1.13676 3.88407 0
M  V30 1521 H 143.579 0.718412 4.68119 0
M  V30 1522 H 144.003 2.91591 6.10986 0
M  V30 1523 H 148.645 0.766418 4.15795 0
M  V30 1524 H 146.363 4.33543 6.81958 0
M  V30 1525 H 149.949 2.58435 5.21251 0
M  V30 1526 H 148.829 4.34524 6.52808 0
M  V30 1527 N 146.332 -1.57332 0.0918853 0
M  V30 1528 C 147.264 -2.10869 -0.898168 0
M  V30 1529 C 148.277 -1.04521 -1.24817 0
M  V30 1530 O 149.466 -1.31977 -1.20184 0
M  V30 1531 C 146.566 -2.57083 -2.2082 0
M  V30 1532 C 145.739 -3.87229 -2.03402 0
M  V30 1533 C 144.798 -4.19324 -3.17889 0
M  V30 1534 O 143.824 -4.88598 -2.91994 0
M  V30 1535 N 145.026 -3.74471 -4.43567 0
M  V30 1536 H 147.791 -2.96439 -0.440943 0
M  V30 1537 H 145.352 -1.61631 -0.0933064 0
M  V30 1538 H 147.344 -2.75602 -2.96354 0
M  V30 1539 H 145.914 -1.76541 -2.57977 0
M  V30 1540 H 145.134 -3.7789 -1.12218 0
M  V30 1541 H 146.422 -4.72379 -1.89038 0
M  V30 1542 H 145.82 -3.18546 -4.67488 0
M  V30 1543 H 144.377 -3.98151 -5.16061 0
M  V30 1544 N 147.81 0.181792 -1.56548 0
M  V30 1545 C 148.743 1.25366 -1.90679 0
M  V30 1546 C 149.721 1.43299 -0.768376 0
M  V30 1547 O 150.905 1.58475 -1.02068 0
M  V30 1548 C 148.032 2.61826 -2.1486 0
M  V30 1549 C 147.078 2.60688 -3.37556 0
M  V30 1550 S 147.911 2.10804 -4.92262 0
M  V30 1551 C 149.067 3.49062 -5.19525 0
M  V30 1552 H 149.3 0.962277 -2.81296 0
M  V30 1553 H 146.833 0.385892 -1.495 0
M  V30 1554 H 148.791 3.40371 -2.29473 0
M  V30 1555 H 147.452 2.88169 -1.24969 0
M  V30 1556 H 146.645 3.61058 -3.51643 0
M  V30 1557 H 146.247 1.90232 -3.22006 0
M  V30 1558 H 148.539 4.45003 -5.10861 0
M  V30 1559 H 149.482 3.39859 -6.2121 0
M  V30 1560 H 149.89 3.4459 -4.47122 0
M  V30 1561 N 149.288 1.51039 0.449983 0
M  V30 1562 C 150.513 1.6715 1.22783 0
M  V30 1563 C 150.938 0.363081 1.84563 0
M  V30 1564 O 150.296 -0.675433 1.68249 0
M  V30 1565 C 150.344 2.77985 2.29689 0
M  V30 1566 O 149.448 2.40707 3.34864 0
M  V30 1567 H 148.789 0.557746 0.360299 0
M  V30 1568 H 151.319 1.97535 0.533005 0
M  V30 1569 H 151.329 3.01693 2.74673 0
M  V30 1570 H 150.004 3.72935 1.84098 0
M  V30 1571 H 148.581 2.27523 2.95445 0
M  V30 1572 N 150.766 -0.704594 1.40972 0
M  V30 1573 C 151.696 -1.83124 1.44872 0
M  V30 1574 C 152.677 -1.67281 0.30838 0
M  V30 1575 O 153.862 -1.87149 0.518556 0
M  V30 1576 C 150.992 -3.21181 1.32136 0
M  V30 1577 C 149.946 -3.51714 2.43888 0
M  V30 1578 C 149.272 -4.89032 2.16222 0
M  V30 1579 C 150.572 -3.516 3.86232 0
M  V30 1580 H 152.266 -1.80117 2.39161 0
M  V30 1581 H 149.812 -0.865145 1.15114 0
M  V30 1582 H 151.765 -3.99702 1.33479 0
M  V30 1583 H 150.489 -3.24791 0.343279 0
M  V30 1584 H 149.148 -2.75539 2.41813 0
M  V30 1585 H 148.796 -4.89256 1.16778 0
M  V30 1586 H 148.496 -5.10426 2.911 0
M  V30 1587 H 150.02 -5.69873 2.19265 0
M  V30 1588 H 151.434 -4.2014 3.9007 0
M  V30 1589 H 149.831 -3.84523 4.60719 0
M  V30 1590 H 150.901 -2.50757 4.15029 0
M  V30 1591 N 152.244 -1.26651 -0.937939 0
M  V30 1592 C 153.521 -1.0313 -1.66204 0
M  V30 1593 C 153.901 0.437256 -2.06522 0
M  V30 1594 O 153.249 1.41831 -1.79154 0
M  V30 1595 C 153.459 -1.98314 -2.87181 0
M  V30 1596 C 154.807 -2.27107 -3.58758 0
M  V30 1597 O 155.831 -1.96205 -2.97291 0
M  V30 1598 O 154.69 -2.79736 -4.69479 0
M  V30 1599 H 151.784 -0.392384 -0.727986 0
M  V30 1600 H 154.33 -1.37874 -0.989382 0
M  V30 1601 H 153.102 -2.97399 -2.54302 0
M  V30 1602 H 152.725 -1.64068 -3.6217 0
M  V30 1603 N 153.722 1.14298 -1.08507 0
M  V30 1604 C 155.138 1.37347 -0.812901 0
M  V30 1605 C 155.338 1.93052 0.577325 0
M  V30 1606 O 154.394 2.14389 1.33393 0
M  V30 1607 C 155.707 2.33359 -1.89642 0
M  V30 1608 C 157.255 2.46996 -1.92255 0
M  V30 1609 C 157.73 3.46309 -2.99724 0
M  V30 1610 N 159.221 3.53853 -2.98902 0
M  V30 1611 C 159.956 4.3055 -3.787 0
M  V30 1612 N 159.452 5.10482 -4.6838 0
M  V30 1613 N 161.245 4.25757 -3.66998 0
M  V30 1614 H 153.396 0.764867 -1.9815 0
M  V30 1615 H 155.659 0.398966 -0.859959 0
M  V30 1616 H 155.365 1.99565 -2.89597 0
M  V30 1617 H 155.239 3.33274 -1.76659 0
M  V30 1618 H 157.626 2.80081 -0.929445 0
M  V30 1619 H 157.707 1.47039 -2.09316 0
M  V30 1620 H 157.351 3.13957 -3.99241 0
M  V30 1621 H 157.281 4.46049 -2.79907 0
M  V30 1622 H 159.772 2.96812 -2.33904 0
M  V30 1623 H 160.085 5.66284 -5.25873 0
M  V30 1624 H 158.43 5.09747 -4.72422 0
M  V30 1625 H 161.621 3.62383 -2.96304 0
M  V30 1626 H 161.794 4.85279 -4.29427 0
M  V30 1627 N 155.201 0.870884 1.31352 0
M  V30 1628 C 156.148 0.325425 2.28494 0
M  V30 1629 C 157.118 -0.576615 1.5577 0
M  V30 1630 O 158.303 -0.508059 1.83911 0
M  V30 1631 C 155.443 -0.466283 3.41935 0
M  V30 1632 C 154.556 0.463378 4.29508 0
M  V30 1633 C 153.691 -0.342544 5.30094 0
M  V30 1634 C 152.73 0.583486 6.09313 0
M  V30 1635 N 151.867 -0.186244 7.01853 0
M  V30 1636 H 156.707 1.15901 2.74538 0
M  V30 1637 H 154.244 0.58294 1.35056 0
M  V30 1638 H 156.202 -0.941085 4.06447 0
M  V30 1639 H 154.832 -1.26456 2.97 0
M  V30 1640 H 153.884 1.05663 3.65431 0
M  V30 1641 H 155.196 1.1734 4.84802 0
M  V30 1642 H 154.35 -0.879816 6.00287 0
M  V30 1643 H 153.089 -1.08585 4.75458 0
M  V30 1644 H 152.094 1.13251 5.3801 0
M  V30 1645 H 153.319 1.32566 6.66035 0
M  V30 1646 H 151.265 -0.912348 6.49625 0
M  V30 1647 H 151.182 0.464422 7.54572 0
M  V30 1648 H 152.45 -0.704716 7.76308 0
M  V30 1649 N 156.679 -1.44442 0.630414 0
M  V30 1650 C 157.907 -2.06414 0.141671 0
M  V30 1651 C 158.322 -1.47105 -1.18345 0
M  V30 1652 O 157.679 -0.593662 -1.72574 0
M  V30 1653 C 157.73 -3.61494 0.0199784 0
M  V30 1654 O 157.451 -4.18594 1.29269 0
M  V30 1655 C 158.952 -4.40499 -0.497544 0
M  V30 1656 H 156.172 -0.666292 0.0793452 0
M  V30 1657 H 158.716 -1.85323 0.864614 0
M  V30 1658 H 156.871 -3.8185 -0.653402 0
M  V30 1659 H 157.285 -5.12026 1.13707 0
M  V30 1660 H 158.759 -5.49433 -0.531708 0
M  V30 1661 H 159.236 -4.11895 -1.52445 0
M  V30 1662 H 159.842 -4.25061 0.142562 0
M  V30 1663 N 158.157 -0.370918 -1.53173 0
M  V30 1664 C 159.385 0.217704 -2.05751 0
M  V30 1665 C 159.8 1.42018 -1.24404 0
M  V30 1666 O 159.157 1.80245 -0.286033 0
M  V30 1667 C 159.208 0.605954 -3.56385 0
M  V30 1668 O 158.929 -0.548734 -4.3465 0
M  V30 1669 C 160.43 1.2524 -4.25241 0
M  V30 1670 H 157.65 0.0371659 -0.66997 0
M  V30 1671 H 160.194 -0.530832 -1.9749 0
M  V30 1672 H 158.349 1.3044 -3.6478 0
M  V30 1673 H 158.763 -0.23376 -5.23979 0
M  V30 1674 H 160.237 1.47458 -5.3194 0
M  V30 1675 H 160.714 2.2143 -3.79296 0
M  V30 1676 H 161.32 0.595233 -4.21114 0
M  V30 1677 N 159.635 1.57281 -0.100228 0
M  V30 1678 C 160.598 2.13158 0.842398 0
M  V30 1679 C 161.598 1.06202 1.20738 0
M  V30 1680 O 162.788 1.32066 1.13597 0
M  V30 1681 C 159.92 2.65639 2.13655 0
M  V30 1682 H 161.113 2.97766 0.357114 0
M  V30 1683 H 158.666 1.5559 0.148823 0
M  V30 1684 H 159.401 1.84566 2.66657 0
M  V30 1685 H 159.186 3.43844 1.88451 0
M  V30 1686 H 160.676 3.08846 2.81077 0
M  V30 1687 N 161.113 -0.173488 1.56642 0
M  V30 1688 C 162.043 -1.2171 1.99271 0
M  V30 1689 C 163.024 -1.46289 0.867959 0
M  V30 1690 O 164.209 -1.5766 1.13388 0
M  V30 1691 C 161.339 -2.55651 2.35074 0
M  V30 1692 C 160.293 -2.45645 3.50489 0
M  V30 1693 C 159.619 -3.84056 3.72028 0
M  V30 1694 C 160.919 -1.96302 4.84007 0
M  V30 1695 H 162.613 -0.86275 2.867 0
M  V30 1696 H 160.159 -0.413571 1.37933 0
M  V30 1697 H 162.112 -3.2886 2.63494 0
M  V30 1698 H 160.836 -2.92869 1.44552 0
M  V30 1699 H 159.495 -1.7489 3.22194 0
M  V30 1700 H 159.143 -4.18664 2.788 0
M  V30 1701 H 158.843 -3.7823 4.49684 0
M  V30 1702 H 160.367 -4.58854 4.02846 0
M  V30 1703 H 161.781 -2.59284 5.11317 0
M  V30 1704 H 160.178 -2.01429 5.65284 0
M  V30 1705 H 161.248 -0.917226 4.76146 0
M  V30 1706 N 162.591 -1.51276 -0.441967 0
M  V30 1707 C 163.538 -1.72256 -1.53612 0
M  V30 1708 C 164.508 -0.564164 -1.56225 0
M  V30 1709 O 165.693 -0.798074 -1.73307 0
M  V30 1710 C 162.833 -1.84932 -2.91366 0
M  V30 1711 C 161.946 -3.12459 -2.98317 0
M  V30 1712 C 161.081 -3.15758 -4.27166 0
M  V30 1713 C 160.12 -4.37619 -4.27967 0
M  V30 1714 N 159.257 -4.38493 -5.48333 0
M  V30 1715 H 164.097 -2.65654 -1.35026 0
M  V30 1716 H 161.634 -1.31662 -0.656009 0
M  V30 1717 H 163.592 -1.90263 -3.7129 0
M  V30 1718 H 162.222 -0.949461 -3.08521 0
M  V30 1719 H 161.274 -3.1646 -2.11086 0
M  V30 1720 H 162.586 -4.02382 -2.94771 0
M  V30 1721 H 161.74 -3.19979 -5.15459 0
M  V30 1722 H 160.479 -2.23715 -4.33362 0
M  V30 1723 H 159.484 -4.33579 -3.38067 0
M  V30 1724 H 160.709 -5.30921 -4.23438 0
M  V30 1725 H 158.655 -3.49318 -5.55259 0
M  V30 1726 H 158.572 -5.22219 -5.46647 0
M  V30 1727 H 159.84 -4.469 -6.38671 0
M  V30 1728 N 164.069 0.697108 -1.41344 0
M  V30 1729 C 165.001 1.8224 -1.39001 0
M  V30 1730 C 166.014 1.60152 -0.292428 0
M  V30 1731 O 167.203 1.69684 -0.554048 0
M  V30 1732 C 164.303 3.18976 -1.14489 0
M  V30 1733 C 163.476 3.68105 -2.36258 0
M  V30 1734 C 162.535 4.83506 -2.07625 0
M  V30 1735 O 161.561 4.95201 -2.8065 0
M  V30 1736 N 162.763 5.70637 -1.06555 0
M  V30 1737 H 165.528 1.84742 -2.35988 0
M  V30 1738 H 163.089 0.87937 -1.35936 0
M  V30 1739 H 165.081 3.93801 -0.932885 0
M  V30 1740 H 163.651 3.11508 -0.261043 0
M  V30 1741 H 162.871 2.84204 -2.7317 0
M  V30 1742 H 164.159 3.97667 -3.17393 0
M  V30 1743 H 163.557 5.63817 -0.461125 0
M  V30 1744 H 162.114 6.45368 -0.913444 0
M  V30 1745 N 165.547 1.27147 0.931209 0
M  V30 1746 C 166.477 1.12081 2.04842 0
M  V30 1747 C 167.458 0.0232364 1.70084 0
M  V30 1748 O 168.643 0.197085 1.93197 0
M  V30 1749 C 165.773 0.76354 3.38803 0
M  V30 1750 C 164.727 1.81396 3.87659 0
M  V30 1751 C 164.053 1.31075 5.18385 0
M  V30 1752 C 165.353 3.21739 4.11438 0
M  V30 1753 H 167.047 2.05537 2.17703 0
M  V30 1754 H 164.593 0.989603 1.04608 0
M  V30 1755 H 166.546 0.644982 4.16435 0
M  V30 1756 H 165.27 -0.206727 3.25945 0
M  V30 1757 H 163.929 1.92136 3.12217 0
M  V30 1758 H 163.577 0.330037 5.01916 0
M  V30 1759 H 163.277 2.013 5.52044 0
M  V30 1760 H 164.801 1.20506 5.98591 0
M  V30 1761 H 166.215 3.14019 4.79651 0
M  V30 1762 H 164.612 3.89644 4.56397 0
M  V30 1763 H 165.682 3.67054 3.16859 0
M  V30 1764 N 167.025 -1.13721 1.09112 0
M  V30 1765 C 167.957 -2.1871 0.685467 0
M  V30 1766 C 168.97 -1.60527 -0.271068 0
M  V30 1767 O 170.159 -1.78407 -0.0576148 0
M  V30 1768 C 167.259 -3.38898 -0.0111255 0
M  V30 1769 C 166.432 -4.26597 0.966131 0
M  V30 1770 C 165.491 -5.25324 0.303539 0
M  V30 1771 O 164.517 -5.61213 0.950177 0
M  V30 1772 N 165.719 -5.72779 -0.943651 0
M  V30 1773 H 168.484 -2.54126 1.58871 0
M  V30 1774 H 166.045 -1.29012 0.978143 0
M  V30 1775 H 168.037 -4.02014 -0.465517 0
M  V30 1776 H 166.607 -3.01747 -0.816565 0
M  V30 1777 H 165.827 -3.60306 1.59917 0
M  V30 1778 H 167.115 -4.82048 1.6281 0
M  V30 1779 H 166.513 -5.45762 -1.48862 0
M  V30 1780 H 165.07 -6.37847 -1.34142 0
M  V30 1781 N 168.503 -0.877838 -1.30888 0
M  V30 1782 C 169.751 -0.491723 -1.96027 0
M  V30 1783 C 170.072 0.960827 -1.69685 0
M  V30 1784 O 169.342 1.67462 -1.01654 0
M  V30 1785 H 167.922 -0.17885 -0.725273 0
M  V30 1786 H 170.584 -1.11935 -1.59551 0
M  V30 1787 H 169.68 -0.656016 -3.05128 0
M  V30 1788 N 169.982 1.44106 -0.638065 0
M  V30 1789 C 170.932 2.27843 0.0847285 0
M  V30 1790 C 171.916 1.39055 0.809471 0
M  V30 1791 O 173.108 1.62808 0.694435 0
M  V30 1792 C 170.237 3.26497 1.06089 0
M  V30 1793 C 169.323 4.22772 0.33541 0
M  V30 1794 N 169.714 5.01737 -0.639787 0
M  V30 1795 C 168.012 4.42227 0.578921 0
M  V30 1796 C 168.713 5.71792 -1.06904 0
M  V30 1797 N 167.689 5.42079 -0.406395 0
M  V30 1798 H 171.491 2.86305 -0.663814 0
M  V30 1799 H 169.005 1.55627 -0.464122 0
M  V30 1800 H 171.002 3.8525 1.59337 0
M  V30 1801 H 169.662 2.69595 1.80966 0
M  V30 1802 H 170.673 5.07799 -1.01789 0
M  V30 1803 H 167.35 3.96415 1.31003 0
M  V30 1804 H 168.74 6.45205 -1.8751 0
M  V30 1805 N 171.46 0.379036 1.52974 0
M  V30 1806 C 172.393 -0.504932 2.22544 0
M  V30 1807 C 173.371 -1.0723 1.22231 0
M  V30 1808 O 174.555 -1.12589 1.51182 0
M  V30 1809 C 171.682 -1.69794 2.93066 0
M  V30 1810 C 170.728 -1.25678 4.07563 0
M  V30 1811 S 171.561 -0.246852 5.34931 0
M  V30 1812 C 172.717 -1.44588 6.08971 0
M  V30 1813 H 172.95 0.0858666 2.97176 0
M  V30 1814 H 170.483 0.163183 1.53535 0
M  V30 1815 H 172.441 -2.38219 3.34308 0
M  V30 1816 H 171.102 -2.26002 2.18133 0
M  V30 1817 H 170.295 -2.14725 4.5597 0
M  V30 1818 H 169.897 -0.651584 3.6828 0
M  V30 1819 H 172.189 -2.37469 6.34519 0
M  V30 1820 H 173.132 -1.00292 7.00962 0
M  V30 1821 H 173.54 -1.65804 5.39601 0
M  V30 1822 N 172.938 -1.57226 0.108567 0
M  V30 1823 C 174.184 -1.95919 -0.546564 0
M  V30 1824 C 174.539 -0.990417 -1.6495 0
M  V30 1825 O 173.832 -0.0186593 -1.91591 0
M  V30 1826 C 174.026 -3.38911 -1.13463 0
M  V30 1827 C 173.855 -4.4961 -0.0901926 0
M  V30 1828 C 172.625 -5.04168 0.338008 0
M  V30 1829 C 174.823 -5.09693 0.686808 0
M  V30 1830 N 172.805 -5.98434 1.36931 0
M  V30 1831 C 174.176 -5.99804 1.56958 0
M  V30 1832 C 176.231 -4.92388 0.738846 0
M  V30 1833 C 174.934 -6.74463 2.49983 0
M  V30 1834 C 176.96 -5.67719 1.65676 0
M  V30 1835 C 176.322 -6.57507 2.52713 0
M  V30 1836 H 172.421 -0.763312 -0.169936 0
M  V30 1837 H 175.005 -1.93728 0.194264 0
M  V30 1838 H 173.176 -3.41769 -1.84522 0
M  V30 1839 H 174.908 -3.64752 -1.75322 0
M  V30 1840 H 171.663 -4.73571 -0.0523673 0
M  V30 1841 H 172.087 -6.5027 1.88356 0
M  V30 1842 H 176.729 -4.22724 0.080084 0
M  V30 1843 H 174.447 -7.4338 3.16878 0
M  V30 1844 H 178.033 -5.56338 1.70233 0
M  V30 1845 H 176.913 -7.14778 3.22586 0
M  V30 1846 N 174.416 0.165178 -1.56732 0
M  V30 1847 C 175.832 0.517174 -1.50988 0
M  V30 1848 C 176.032 1.84331 -0.813894 0
M  V30 1849 O 175.088 2.49672 -0.37682 0
M  V30 1850 C 176.401 0.544261 -2.95733 0
M  V30 1851 C 177.949 0.631039 -3.06573 0
M  V30 1852 C 178.424 0.68896 -4.52788 0
M  V30 1853 N 179.915 0.751683 -4.5706 0
M  V30 1854 C 180.65 0.817177 -5.67547 0
M  V30 1855 N 180.146 0.843129 -6.8765 0
M  V30 1856 N 181.939 0.856668 -5.55534 0
M  V30 1857 H 174.09 -0.704318 -2.00382 0
M  V30 1858 H 176.353 -0.254687 -0.913148 0
M  V30 1859 H 176.059 -0.361607 -3.49836 0
M  V30 1860 H 175.933 1.3886 -3.5071 0
M  V30 1861 H 178.32 1.52733 -2.52501 0
M  V30 1862 H 178.401 -0.240095 -2.54671 0
M  V30 1863 H 178.045 -0.2031 -5.07494 0
M  V30 1864 H 177.975 1.57633 -5.02454 0
M  V30 1865 H 180.466 0.739661 -3.70591 0
M  V30 1866 H 180.779 0.894448 -7.67606 0
M  V30 1867 H 179.124 0.811304 -6.90248 0
M  V30 1868 H 182.315 0.833437 -4.60621 0
M  V30 1869 H 182.488 0.904247 -6.4166 0
M  V30 1870 N 175.894 1.51508 0.433938 0
M  V30 1871 C 176.857 1.72473 1.50949 0
M  V30 1872 C 177.857 0.594725 1.49398 0
M  V30 1873 O 179.047 0.862315 1.5136 0
M  V30 1874 C 176.179 1.78431 2.90474 0
M  V30 1875 H 177.372 2.68467 1.33662 0
M  V30 1876 H 174.925 1.41549 0.662836 0
M  V30 1877 H 175.66 0.842645 3.13161 0
M  V30 1878 H 175.445 2.60558 2.93005 0
M  V30 1879 H 176.935 1.96479 3.68491 0
M  V30 1880 N 177.372 -0.689602 1.41712 0
M  V30 1881 C 178.335 -1.78521 1.43746 0
M  V30 1882 C 179.335 -1.57436 0.327191 0
M  V30 1883 O 180.525 -1.64 0.587348 0
M  V30 1884 C 177.657 -3.16971 1.25467 0
M  V30 1885 H 178.85 -1.78108 2.41283 0
M  V30 1886 H 176.403 -0.89781 1.27942 0
M  V30 1887 H 177.138 -3.23019 0.287948 0
M  V30 1888 H 176.923 -3.33678 2.05917 0
M  V30 1889 H 178.413 -3.96935 1.2974 0
M  V30 1890 N 178.85 -1.27639 -0.924453 0
M  V30 1891 C 180.097 -1.14167 -1.67249 0
M  V30 1892 C 180.425 0.311863 -1.91984 0
M  V30 1893 O 179.68 1.24425 -1.51053 0
M  V30 1894 C 179.979 -1.87407 -3.04325 0
M  V30 1895 C 179.645 -3.37249 -2.99289 0
M  V30 1896 C 178.307 -3.7812 -2.97622 0
M  V30 1897 C 180.659 -4.32845 -2.90336 0
M  V30 1898 C 177.987 -5.12944 -2.8479 0
M  V30 1899 C 180.339 -5.6773 -2.79045 0
M  V30 1900 C 179.003 -6.07889 -2.7573 0
M  V30 1901 H 178.273 -0.417766 -0.612007 0
M  V30 1902 H 180.92 -1.58286 -1.07786 0
M  V30 1903 H 179.225 -1.35805 -3.67511 0
M  V30 1904 H 180.922 -1.74408 -3.61086 0
M  V30 1905 H 177.512 -3.04748 -3.01374 0
M  V30 1906 H 181.696 -4.02239 -2.90719 0
M  V30 1907 H 176.952 -5.432 -2.80612 0
M  V30 1908 H 181.126 -6.41472 -2.71083 0
M  V30 1909 H 178.753 -7.12314 -2.65544 0
M  V30 1910 N 180.328 1.1314 -1.09713 0
M  V30 1911 C 181.556 1.88321 -0.856898 0
M  V30 1912 C 181.971 1.79276 0.592073 0
M  V30 1913 O 181.328 1.16142 1.40774 0
M  V30 1914 C 181.379 3.37812 -1.28706 0
M  V30 1915 O 181.1 3.46627 -2.67921 0
M  V30 1916 C 182.601 4.29952 -1.07964 0
M  V30 1917 H 179.821 0.596094 -0.308079 0
M  V30 1918 H 182.365 1.43205 -1.45988 0
M  V30 1919 H 180.52 3.805 -0.727912 0
M  V30 1920 H 180.934 4.39579 -2.8613 0
M  V30 1921 H 182.408 5.33159 -1.42986 0
M  V30 1922 H 182.885 4.39196 -0.0176577 0
M  V30 1923 H 183.491 3.93036 -1.62489 0
M  V30 1924 N 181.806 0.884767 1.30421 0
M  V30 1925 C 182.769 0.356277 2.26414 0
M  V30 1926 C 183.769 -0.501124 1.52792 0
M  V30 1927 O 184.959 -0.30831 1.7145 0
M  V30 1928 C 182.091 -0.492316 3.37326 0
M  V30 1929 H 183.284 1.20389 2.74675 0
M  V30 1930 H 180.837 0.661607 1.41607 0
M  V30 1931 H 181.572 -1.36052 2.94381 0
M  V30 1932 H 181.357 0.121832 3.91911 0
M  V30 1933 H 182.847 -0.853871 4.08777 0
M  V30 1934 N 183.284 -1.43765 0.645699 0
M  V30 1935 C 184.532 -2.01499 0.155731 0
M  V30 1936 C 184.853 -1.51151 -1.232 0
M  V30 1937 O 184.123 -0.721044 -1.82148 0
M  V30 1938 H 182.703 -0.745003 0.0545817 0
M  V30 1939 H 185.365 -1.76075 0.835677 0
M  V30 1940 H 184.461 -3.1181 0.134577 0
M  V30 1941 N 184.763 -0.387143 -1.52771 0
M  V30 1942 C 186.179 -0.037007 -1.59557 0
M  V30 1943 C 186.379 1.44801 -1.40124 0
M  V30 1944 O 185.435 2.21227 -1.21716 0
M  V30 1945 C 186.748 -0.512256 -2.96305 0
M  V30 1946 C 188.296 -0.468328 -3.09476 0
M  V30 1947 C 188.771 -0.919731 -4.4867 0
M  V30 1948 N 190.262 -0.875656 -4.54848 0
M  V30 1949 C 190.997 -1.19637 -5.6078 0
M  V30 1950 N 190.493 -1.58745 -6.74368 0
M  V30 1951 N 192.286 -1.11776 -5.50874 0
M  V30 1952 H 184.437 -1.35395 -1.63652 0
M  V30 1953 H 186.7 -0.554818 -0.768688 0
M  V30 1954 H 186.406 -1.54935 -3.15734 0
M  V30 1955 H 186.28 0.089805 -3.77093 0
M  V30 1956 H 188.667 0.559671 -2.89744 0
M  V30 1957 H 188.748 -1.10616 -2.30646 0
M  V30 1958 H 188.392 -1.94595 -4.69143 0
M  V30 1959 H 188.322 -0.258927 -5.25963 0
M  V30 1960 H 190.813 -0.587843 -3.733 0
M  V30 1961 H 191.126 -1.81586 -7.51163 0
M  V30 1962 H 189.471 -1.6263 -6.75705 0
M  V30 1963 H 192.662 -0.811264 -4.61016 0
M  V30 1964 H 192.835 -1.37103 -6.3333 0
M  V30 1965 N 186.241 1.57166 -0.116904 0
M  V30 1966 C 187.174 2.10912 0.871291 0
M  V30 1967 C 188.152 1.025 1.26224 0
M  V30 1968 O 189.336 1.3014 1.36366 0
M  V30 1969 C 186.463 2.6041 2.16574 0
M  V30 1970 C 185.509 3.80687 1.92302 0
M  V30 1971 S 186.342 5.23199 1.14119 0
M  V30 1972 C 187.498 5.76064 2.44748 0
M  V30 1973 H 187.731 2.94401 0.414138 0
M  V30 1974 H 185.264 1.54096 0.096829 0
M  V30 1975 H 187.222 2.89583 2.9095 0
M  V30 1976 H 185.883 1.77106 2.59408 0
M  V30 1977 H 185.076 4.13462 2.8821 0
M  V30 1978 H 184.678 3.5212 1.26047 0
M  V30 1979 H 186.97 5.8566 3.406 0
M  V30 1980 H 187.913 6.74184 2.16521 0
M  V30 1981 H 188.321 5.04117 2.54019 0
M  V30 1982 N 187.719 -0.156864 1.56817 0
M  V30 1983 C 188.666 -1.19394 1.97519 0
M  V30 1984 C 189.636 -1.4322 0.841265 0
M  V30 1985 O 190.821 -1.55719 1.10255 0
M  V30 1986 C 187.961 -2.52483 2.35258 0
M  V30 1987 C 187.074 -2.35914 3.61896 0
M  V30 1988 C 186.209 -3.61969 3.88782 0
M  V30 1989 C 185.248 -3.40395 5.08722 0
M  V30 1990 N 184.385 -4.58556 5.31668 0
M  V30 1991 H 189.225 -0.839845 2.85921 0
M  V30 1992 H 186.762 -0.403264 1.41464 0
M  V30 1993 H 188.72 -3.30071 2.55165 0
M  V30 1994 H 187.35 -2.85859 1.49949 0
M  V30 1995 H 186.402 -1.49429 3.49821 0
M  V30 1996 H 187.714 -2.15926 4.49641 0
M  V30 1997 H 186.868 -4.47989 4.09135 0
M  V30 1998 H 185.607 -3.84951 2.9944 0
M  V30 1999 H 184.612 -2.52763 4.88253 0
M  V30 2000 H 185.837 -3.18822 5.99608 0
M  V30 2001 H 183.783 -4.81729 4.45279 0
M  V30 2002 H 183.7 -4.41535 6.13664 0
M  V30 2003 H 184.968 -5.45817 5.5651 0
M  V30 2004 N 189.197 -1.51736 -0.425897 0
M  V30 2005 C 190.16 -1.73271 -1.50032 0
M  V30 2006 C 191.16 -0.602639 -1.4908 0
M  V30 2007 O 192.35 -0.87033 -1.509 0
M  V30 2008 C 189.482 -1.79969 -2.89523 0
M  V30 2009 H 190.675 -2.69172 -1.32237 0
M  V30 2010 H 188.228 -1.41899 -0.65532 0
M  V30 2011 H 188.963 -0.859241 -3.1271 0
M  V30 2012 H 188.748 -2.62109 -2.91619 0
M  V30 2013 H 190.238 -1.9843 -3.67444 0
M  V30 2014 N 190.675 0.682077 -1.42076 0
M  V30 2015 C 191.585 1.82535 -1.47371 0
M  V30 2016 C 192.601 1.7017 -0.363079 0
M  V30 2017 O 193.777 1.91848 -0.612875 0
M  V30 2018 C 190.842 3.18624 -1.36674 0
M  V30 2019 C 189.903 3.42999 -2.58167 0
M  V30 2020 C 189.136 4.72595 -2.4797 0
M  V30 2021 O 189.359 5.50006 -1.5116 0
M  V30 2022 O 188.293 4.98054 -3.37974 0
M  V30 2023 H 192.119 1.81023 -2.43853 0
M  V30 2024 H 189.704 0.836887 -1.2376 0
M  V30 2025 H 191.586 3.99847 -1.33043 0
M  V30 2026 H 190.261 3.20789 -0.433138 0
M  V30 2027 H 189.168 2.61653 -2.67373 0
M  V30 2028 H 190.501 3.45659 -3.50401 0
M  V30 2029 N 192.153 1.28127 0.917671 0
M  V30 2030 C 193.4 1.15052 1.66641 0
M  V30 2031 C 193.728 -0.301677 1.92146 0
M  V30 2032 O 192.983 -1.23622 1.51711 0
M  V30 2033 C 193.282 1.89018 3.03327 0
M  V30 2034 C 192.948 3.38832 2.97496 0
M  V30 2035 C 191.61 3.79693 2.95613 0
M  V30 2036 C 193.962 4.34378 2.88036 0
M  V30 2037 C 191.29 5.14447 2.82066 0
M  V30 2038 C 193.642 5.69201 2.7603 0
M  V30 2039 C 192.306 6.09343 2.72502 0
M  V30 2040 H 191.576 0.421006 0.609783 0
M  V30 2041 H 194.223 1.58855 1.06945 0
M  V30 2042 H 192.528 1.37752 3.66785 0
M  V30 2043 H 194.225 1.76321 3.60156 0
M  V30 2044 H 190.815 3.06342 2.99754 0
M  V30 2045 H 194.999 4.03775 2.88581 0
M  V30 2046 H 190.255 5.44681 2.77728 0
M  V30 2047 H 194.429 6.42901 2.67678 0
M  V30 2048 H 192.056 7.13712 2.61762 0
M  V30 2049 N 193.631 -1.12557 1.10312 0
M  V30 2050 C 194.878 -1.84038 0.844759 0
M  V30 2051 C 195.206 -1.84026 -0.629668 0
M  V30 2052 O 194.461 -1.28026 -1.48013 0
M  V30 2053 C 194.76 -3.31462 1.33669 0
M  V30 2054 C 194.426 -3.51647 2.82232 0
M  V30 2055 C 193.088 -3.56864 3.22802 0
M  V30 2056 C 195.44 -3.58867 3.77974 0
M  V30 2057 C 192.768 -3.66844 4.57867 0
M  V30 2058 C 195.12 -3.70375 5.1284 0
M  V30 2059 C 193.784 -3.73848 5.52986 0
M  V30 2060 H 193.054 -0.673444 0.309119 0
M  V30 2061 H 195.701 -1.32824 1.37949 0
M  V30 2062 H 194.006 -3.85091 0.721949 0
M  V30 2063 H 195.703 -3.85236 1.11329 0
M  V30 2064 H 192.293 -3.48249 2.49842 0
M  V30 2065 H 196.477 -3.54107 3.47738 0
M  V30 2066 H 191.733 -3.67804 4.88396 0
M  V30 2067 H 195.907 -3.74904 5.86873 0
M  V30 2068 H 193.534 -3.81333 6.57639 0
M  V30 2069 N 195.109 -0.891671 -1.2995 0
M  V30 2070 C 196.072 -0.36828 -2.26222 0
M  V30 2071 C 197.072 0.493014 -1.53056 0
M  V30 2072 O 198.262 0.299213 -1.71611 0
M  V30 2073 C 195.394 0.47442 -3.37583 0
M  V30 2074 H 196.587 -1.21844 -2.74033 0
M  V30 2075 H 194.14 -0.669107 -1.41254 0
M  V30 2076 H 194.875 1.34489 -2.95099 0
M  V30 2077 H 194.66 -0.142615 -3.91841 0
M  V30 2078 H 196.15 0.83218 -4.09224 0
M  V30 2079 N 196.587 1.43421 -0.653314 0
M  V30 2080 C 197.864 1.95361 -0.0966581 0
M  V30 2081 C 198.244 1.59461 1.38331 0
M  V30 2082 O 197.592 0.879777 2.10884 0
M  V30 2083 C 197.802 3.47311 -0.342988 0
M  V30 2084 C 199.15 4.23875 -0.24798 0
M  V30 2085 O 200.174 3.55133 -0.275553 0
M  V30 2086 O 199.033 5.4623 -0.171771 0
M  V30 2087 H 196.127 0.826945 0.00956291 0
M  V30 2088 H 198.673 1.5336 -0.726558 0
M  V30 2089 H 197.445 3.66569 -1.36906 0
M  V30 2090 H 197.068 3.9631 0.319975 0
M  V30 2091 N 198.065 0.39524 1.52563 0
M  V30 2092 C 199.311 -0.185318 2.01952 0
M  V30 2093 C 199.644 -1.45964 1.28095 0
M  V30 2094 O 198.919 -1.90689 0.38315 0
M  V30 2095 C 199.202 -0.447193 3.57312 0
M  V30 2096 C 199.055 0.842828 4.41833 0
M  V30 2097 C 200.374 -1.23529 4.22408 0
M  V30 2098 H 197.493 -0.0658788 0.73405 0
M  V30 2099 H 200.135 0.525975 1.82575 0
M  V30 2100 H 198.285 -1.05312 3.73954 0
M  V30 2101 H 199.957 1.4795 4.36931 0
M  V30 2102 H 198.2 1.45686 4.08605 0
M  V30 2103 H 198.871 0.614165 5.48573 0
M  V30 2104 H 201.347 -0.722445 4.0978 0
M  V30 2105 H 200.223 -1.38727 5.3108 0
M  V30 2106 H 200.484 -2.25213 3.80436 0
M  V30 2107 N 199.544 -1.57102 0.125237 0
M  V30 2108 C 200.79 -1.95697 -0.532035 0
M  V30 2109 C 201.123 -1.009 -1.6593 0
M  V30 2110 O 200.398 -0.047347 -1.94442 0
M  V30 2111 C 200.681 -3.44181 -1.05884 0
M  V30 2112 C 200.534 -4.49752 0.0654392 0
M  V30 2113 C 201.853 -3.94655 -1.9477 0
M  V30 2114 H 198.972 -0.711571 -0.191925 0
M  V30 2115 H 201.614 -1.88923 0.20206 0
M  V30 2116 H 199.764 -3.50085 -1.68442 0
M  V30 2117 H 201.436 -4.55943 0.700982 0
M  V30 2118 H 199.679 -4.27653 0.727709 0
M  V30 2119 H 200.35 -5.50924 -0.344505 0
M  V30 2120 H 202.826 -3.91094 -1.42074 0
M  V30 2121 H 201.702 -4.99057 -2.28546 0
M  V30 2122 H 201.963 -3.35718 -2.87656 0
M  V30 2123 N 201.022 0.148545 -1.56898 0
M  V30 2124 C 202.433 0.708766 -1.72723 0
M  V30 2125 C 202.784 1.81734 -0.739395 0
M  V30 2126 O 201.909 2.16194 0.0943169 0
M  V30 2127 C 202.504 1.29245 -3.13179 0
M  V30 2128 C 201.063 1.79925 -3.30611 0
M  V30 2129 C 200.21 0.687111 -2.68652 0
M  V30 2130 H 203.161 -0.0771063 -1.58513 0
M  V30 2131 H 203.182 2.16224 -3.13093 0
M  V30 2132 H 202.694 0.485382 -3.85053 0
M  V30 2133 H 200.795 2.63203 -2.63732 0
M  V30 2134 H 200.908 1.92903 -4.38549 0
M  V30 2135 H 199.272 1.11335 -2.29078 0
M  V30 2136 H 200.055 -0.108483 -3.43129 0
M  V30 2137 N 202.5 1.5196 0.417844 0
M  V30 2138 C 203.463 1.74065 1.49111 0
M  V30 2139 C 204.463 0.610537 1.48758 0
M  V30 2140 O 205.653 0.87832 1.50437 0
M  V30 2141 C 202.785 1.81502 2.88565 0
M  V30 2142 H 203.978 2.69869 1.30807 0
M  V30 2143 H 201.531 1.42244 0.647785 0
M  V30 2144 H 202.266 0.875813 3.1225 0
M  V30 2145 H 202.051 2.63651 2.90225 0
M  V30 2146 H 203.541 2.00376 3.66387 0
M  V30 2147 N 203.978 -0.674533 1.42435 0
M  V30 2148 C 205.224 -1.43671 1.43131 0
M  V30 2149 C 205.557 -1.94142 0.0476021 0
M  V30 2150 O 204.832 -1.70924 -0.928188 0
M  V30 2151 C 205.115 -2.63355 2.45594 0
M  V30 2152 C 204.968 -2.18514 3.93156 0
M  V30 2153 C 206.287 -3.65571 2.45043 0
M  V30 2154 H 203.406 -0.521077 0.521198 0
M  V30 2155 H 206.048 -0.766551 1.7385 0
M  V30 2156 H 204.198 -3.2053 2.19528 0
M  V30 2157 H 205.87 -1.66504 4.30202 0
M  V30 2158 H 204.113 -1.50086 4.07009 0
M  V30 2159 H 204.784 -3.04484 4.60428 0
M  V30 2160 H 207.26 -3.18113 2.68223 0
M  V30 2161 H 206.136 -4.46893 3.18713 0
M  V30 2162 H 206.397 -4.16716 1.47649 0
M  V30 2163 N 205.456 -1.28612 -0.910864 0
M  V30 2164 C 206.872 -1.06381 -1.18976 0
M  V30 2165 C 207.072 0.191998 -2.00583 0
M  V30 2166 O 206.128 0.892869 -2.36187 0
M  V30 2167 C 207.441 -2.31295 -1.92154 0
M  V30 2168 C 208.989 -2.36503 -2.05025 0
M  V30 2169 C 209.464 -3.61191 -2.81612 0
M  V30 2170 N 210.955 -3.61847 -2.89172 0
M  V30 2171 C 211.69 -4.55004 -3.4894 0
M  V30 2172 N 211.186 -5.58482 -4.09963 0
M  V30 2173 N 212.979 -4.42594 -3.46506 0
M  V30 2174 H 205.13 -2.09221 -0.366094 0
M  V30 2175 H 207.393 -0.921003 -0.224629 0
M  V30 2176 H 207.099 -3.228 -1.39618 0
M  V30 2177 H 206.973 -2.37934 -2.9269 0
M  V30 2178 H 209.36 -1.45494 -2.5674 0
M  V30 2179 H 209.441 -2.33857 -1.03657 0
M  V30 2180 H 209.085 -4.52545 -2.30576 0
M  V30 2181 H 209.015 -3.61092 -3.83302 0
M  V30 2182 H 211.506 -2.87022 -2.45819 0
M  V30 2183 H 211.819 -6.25704 -4.53557 0
M  V30 2184 H 210.164 -5.62305 -4.08459 0
M  V30 2185 H 213.355 -3.60953 -2.98045 0
M  V30 2186 H 213.528 -5.15381 -3.92793 0
M  V30 2187 N 206.934 1.1197 -1.10907 0
M  V30 2188 C 207.881 2.17846 -0.762345 0
M  V30 2189 C 208.851 1.63995 0.263599 0
M  V30 2190 O 210.036 1.90273 0.141773 0
M  V30 2191 C 207.176 3.44487 -0.205651 0
M  V30 2192 C 206.289 4.12369 -1.28748 0
M  V30 2193 C 205.424 5.26674 -0.691919 0
M  V30 2194 C 204.463 5.86431 -1.75399 0
M  V30 2195 N 203.6 6.92142 -1.17833 0
M  V30 2196 H 208.44 2.46851 -1.6694 0
M  V30 2197 H 205.977 1.21188 -0.833776 0
M  V30 2198 H 207.935 4.16981 0.135037 0
M  V30 2199 H 206.565 3.15884 0.664613 0
M  V30 2200 H 205.617 3.38003 -1.74522 0
M  V30 2201 H 206.929 4.52844 -2.09125 0
M  V30 2202 H 206.083 6.05953 -0.300963 0
M  V30 2203 H 204.822 4.8749 0.143232 0
M  V30 2204 H 203.827 5.05835 -2.15432 0
M  V30 2205 H 205.052 6.27685 -2.59208 0
M  V30 2206 H 202.998 6.54985 -0.364725 0
M  V30 2207 H 202.915 7.31242 -1.91887 0
M  V30 2208 H 204.183 7.75237 -0.81408 0
M  V30 2209 N 208.412 0.89855 1.29475 0
M  V30 2210 C 209.658 0.534065 1.96263 0
M  V30 2211 C 210.013 -0.909415 1.69551 0
M  V30 2212 O 209.306 -1.63596 0.997349 0
M  V30 2213 C 209.5 0.761398 3.49195 0
M  V30 2214 C 209.329 2.22542 3.90775 0
M  V30 2215 C 208.099 2.87264 4.15701 0
M  V30 2216 C 210.297 3.20051 4.02581 0
M  V30 2217 N 208.279 4.24121 4.4384 0
M  V30 2218 C 209.65 4.42023 4.34759 0
M  V30 2219 C 211.705 3.15657 3.85052 0
M  V30 2220 C 210.408 5.60161 4.51235 0
M  V30 2221 C 212.434 4.33078 4.02737 0
M  V30 2222 C 211.796 5.5382 4.35273 0
M  V30 2223 H 207.895 0.245013 0.742625 0
M  V30 2224 H 210.479 1.15912 1.56437 0
M  V30 2225 H 208.65 0.165732 3.88046 0
M  V30 2226 H 210.382 0.362462 4.03074 0
M  V30 2227 H 207.137 2.38064 4.09417 0
M  V30 2228 H 207.561 4.94839 4.6202 0
M  V30 2229 H 212.203 2.23396 3.58962 0
M  V30 2230 H 209.921 6.52913 4.76162 0
M  V30 2231 H 213.507 4.31163 3.90628 0
M  V30 2232 H 212.387 6.43166 4.48672 0
M  V30 2233 N 209.89 -1.43072 0.660911 0
M  V30 2234 C 211.306 -1.56169 0.329173 0
M  V30 2235 C 211.506 -1.64317 -1.16629 0
M  V30 2236 O 210.562 -1.60245 -1.95135 0
M  V30 2237 C 211.875 -2.81873 1.04729 0
M  V30 2238 C 213.423 -2.95627 1.02828 0
M  V30 2239 C 213.898 -4.24174 1.72744 0
M  V30 2240 N 215.389 -4.31055 1.69545 0
M  V30 2241 C 216.124 -5.29304 2.20511 0
M  V30 2242 N 215.62 -6.33786 2.79799 0
M  V30 2243 N 217.413 -5.21008 2.10966 0
M  V30 2244 H 209.564 -1.36027 1.63127 0
M  V30 2245 H 211.827 -0.653823 0.686454 0
M  V30 2246 H 211.533 -2.81942 2.10242 0
M  V30 2247 H 211.407 -3.72338 0.603702 0
M  V30 2248 H 213.794 -2.95094 -0.0184742 0
M  V30 2249 H 213.875 -2.06431 1.51063 0
M  V30 2250 H 213.519 -4.25467 2.7738 0
M  V30 2251 H 213.449 -5.1228 1.2197 0
M  V30 2252 H 215.94 -3.56174 1.26288 0
M  V30 2253 H 216.253 -7.05086 3.16344 0
M  V30 2254 H 214.598 -6.34387 2.83863 0
M  V30 2255 H 217.789 -4.38301 1.64347 0
M  V30 2256 H 217.962 -5.97416 2.50993 0
M  V30 2257 N 211.368 -0.403325 -1.52352 0
M  V30 2258 C 212.278 0.432009 -2.30588 0
M  V30 2259 C 213.294 1.05884 -1.38075 0
M  V30 2260 O 214.47 1.06161 -1.71148 0
M  V30 2261 C 211.535 1.53669 -3.10784 0
M  V30 2262 C 210.596 0.933525 -4.19027 0
M  V30 2263 C 209.829 1.98557 -4.9539 0
M  V30 2264 O 210.052 3.20283 -4.71991 0
M  V30 2265 O 208.986 1.59504 -5.80381 0
M  V30 2266 H 212.812 -0.205739 -3.03002 0
M  V30 2267 H 210.397 -0.166675 -1.48467 0
M  V30 2268 H 212.279 2.17814 -3.60742 0
M  V30 2269 H 210.954 2.15915 -2.41169 0
M  V30 2270 H 209.861 0.254954 -3.7323 0
M  V30 2271 H 211.194 0.35508 -4.90918 0
M  V30 2272 N 212.846 1.57033 -0.133567 0
M  V30 2273 C 213.809 2.14897 0.796995 0
M  V30 2274 C 214.809 1.0874 1.18458 0
M  V30 2275 O 215.999 1.34446 1.1077 0
M  V30 2276 C 213.131 2.70112 2.07973 0
M  V30 2277 H 214.324 2.98457 0.293873 0
M  V30 2278 H 211.877 1.55871 0.115787 0
M  V30 2279 H 212.612 1.9018 2.62682 0
M  V30 2280 H 212.397 3.47764 1.81115 0
M  V30 2281 H 213.887 3.14738 2.74462 0
M  V30 2282 N 214.325 -0.140222 1.56975 0
M  V30 2283 C 215.573 -0.850005 1.83356 0
M  V30 2284 C 215.894 -1.81399 0.71551 0
M  V30 2285 O 215.164 -1.94136 -0.262294 0
M  V30 2286 H 213.744 -0.316886 0.676456 0
M  V30 2287 H 216.406 -0.132608 1.94448 0
M  V30 2288 H 215.502 -1.40814 2.78528 0
M  V30 2289 N 215.803 -1.52179 -0.40978 0
M  V30 2290 C 216.736 -1.70196 -1.52015 0
M  V30 2291 C 217.714 -0.549542 -1.53032 0
M  V30 2292 O 218.898 -0.776815 -1.71749 0
M  V30 2293 C 216.025 -1.74069 -2.90547 0
M  V30 2294 C 215.071 -2.95601 -3.07445 0
M  V30 2295 S 215.904 -4.55956 -2.80827 0
M  V30 2296 C 217.06 -4.62614 -4.21591 0
M  V30 2297 H 217.293 -2.64109 -1.36504 0
M  V30 2298 H 214.826 -1.4221 -0.601312 0
M  V30 2299 H 216.784 -1.76985 -3.70387 0
M  V30 2300 H 215.445 -0.812835 -3.034 0
M  V30 2301 H 214.638 -2.94791 -4.08796 0
M  V30 2302 H 214.24 -2.90569 -2.35469 0
M  V30 2303 H 216.532 -4.39951 -5.15218 0
M  V30 2304 H 217.475 -5.64548 -4.27424 0
M  V30 2305 H 217.883 -3.91654 -4.06531 0
M  V30 2306 N 217.281 0.66697 -1.42791 0
M  V30 2307 C 218.228 1.7803 -1.4688 0
M  V30 2308 C 219.198 1.6299 -0.319919 0
M  V30 2309 O 220.383 1.83432 -0.525118 0
M  V30 2310 C 217.523 3.1611 -1.38451 0
M  V30 2311 C 216.636 3.42381 -2.63437 0
M  V30 2312 C 215.771 4.70232 -2.47094 0
M  V30 2313 C 214.81 4.89564 -3.67415 0
M  V30 2314 N 213.947 6.08661 -3.49966 0
M  V30 2315 H 218.787 1.7387 -2.42019 0
M  V30 2316 H 216.324 0.84868 -1.20149 0
M  V30 2317 H 218.282 3.95914 -1.31561 0
M  V30 2318 H 216.912 3.19374 -0.469033 0
M  V30 2319 H 215.964 2.56774 -2.80662 0
M  V30 2320 H 217.276 3.52557 -3.52853 0
M  V30 2321 H 216.43 5.5814 -2.37834 0
M  V30 2322 H 215.169 4.62353 -1.5518 0
M  V30 2323 H 214.174 4.00096 -3.77099 0
M  V30 2324 H 215.399 4.99282 -4.6032 0
M  V30 2325 H 213.345 6.0194 -2.60776 0
M  V30 2326 H 213.262 6.19733 -4.32975 0
M  V30 2327 H 214.53 6.99226 -3.44532 0
M  V30 2328 N 218.759 1.29093 0.90403 0
M  V30 2329 C 220.005 1.16986 1.65656 0
M  V30 2330 C 220.338 -0.278925 1.92186 0
M  V30 2331 O 219.613 -1.2019 1.5292 0
M  V30 2332 C 219.896 1.97908 3.0084 0
M  V30 2333 C 219.749 3.50903 2.81403 0
M  V30 2334 C 221.068 1.80208 4.01513 0
M  V30 2335 H 218.187 0.426346 0.601164 0
M  V30 2336 H 220.829 1.58518 1.04747 0
M  V30 2337 H 218.979 1.62616 3.52829 0
M  V30 2338 H 220.651 3.96153 2.36348 0
M  V30 2339 H 218.894 3.76045 2.1627 0
M  V30 2340 H 219.565 4.02791 3.77443 0
M  V30 2341 H 222.041 2.11025 3.58619 0
M  V30 2342 H 220.917 2.39184 4.94047 0
M  V30 2343 H 221.178 0.756119 4.35586 0
M  V30 2344 N 220.237 -1.11381 1.11499 0
M  V30 2345 C 221.467 -1.86663 0.885464 0
M  V30 2346 C 221.875 -1.80464 -0.568281 0
M  V30 2347 O 221.218 -1.18445 -1.40415 0
M  V30 2348 C 221.28 -3.36337 1.26956 0
M  V30 2349 C 220.944 -3.66304 2.73259 0
M  V30 2350 C 221.941 -3.63733 3.71476 0
M  V30 2351 C 219.626 -3.9529 3.09921 0
M  V30 2352 C 221.62 -3.89725 5.04374 0
M  V30 2353 C 219.307 -4.20941 4.43004 0
M  V30 2354 C 220.305 -4.18147 5.40039 0
M  V30 2355 O 219.993 -4.43153 6.70724 0
M  V30 2356 H 219.725 -0.597114 0.316908 0
M  V30 2357 H 222.279 -1.41782 1.48617 0
M  V30 2358 H 220.509 -3.81826 0.611999 0
M  V30 2359 H 222.198 -3.92986 1.01573 0
M  V30 2360 H 222.964 -3.41389 3.44498 0
M  V30 2361 H 218.843 -3.966 2.35009 0
M  V30 2362 H 222.387 -3.8746 5.80104 0
M  V30 2363 H 218.284 -4.42761 4.69716 0
M  V30 2364 H 219.052 -4.60717 6.76522 0
M  V30 2365 N 221.715 -0.905404 -1.28997 0
M  V30 2366 C 222.964 -0.530191 -1.94607 0
M  V30 2367 C 223.277 0.929185 -1.72121 0
M  V30 2368 O 224.483 1.41218 -2.31883 0
M  V30 2369 C 222.939 -0.897333 -3.48534 0
M  V30 2370 C 222.547 -2.37587 -3.79811 0
M  V30 2371 C 224.291 -0.592304 -4.20347 0
M  V30 2372 C 222.198 -2.68357 -5.27009 0
M  V30 2373 H 221.128 -0.194558 -0.728466 0
M  V30 2374 H 223.779 -1.10318 -1.46636 0
M  V30 2375 H 222.161 -0.253214 -3.9519 0
M  V30 2376 H 223.335 -3.06602 -3.43994 0
M  V30 2377 H 221.65 -2.6505 -3.2115 0
M  V30 2378 H 224.247 -0.798975 -5.28697 0
M  V30 2379 H 224.59 0.469474 -4.13644 0
M  V30 2380 H 225.123 -1.19452 -3.79442 0
M  V30 2381 H 221.862 -3.73355 -5.38782 0
M  V30 2382 H 221.382 -2.03971 -5.64053 0
M  V30 2383 H 223.061 -2.54922 -5.94663 0
M  V30 2384 N 223.193 1.4272 -0.668489 0
M  V30 2385 C 224.423 2.05668 -0.196063 0
M  V30 2386 C 224.831 1.5028 1.14946 0
M  V30 2387 O 224.174 0.6348 1.72383 0
M  V30 2388 C 224.236 3.59469 -0.0468879 0
M  V30 2389 C 223.9 4.37518 -1.32012 0
M  V30 2390 C 224.897 4.68584 -2.25222 0
M  V30 2391 C 222.582 4.77266 -1.56596 0
M  V30 2392 C 224.576 5.38326 -3.41297 0
M  V30 2393 C 222.263 5.4675 -2.72962 0
M  V30 2394 C 223.261 5.77204 -3.65137 0
M  V30 2395 O 222.949 6.45264 -4.79468 0
M  V30 2396 H 222.681 0.669382 -0.0943599 0
M  V30 2397 H 225.235 1.83954 -0.913788 0
M  V30 2398 H 223.465 3.79817 0.726357 0
M  V30 2399 H 225.154 4.04071 0.384852 0
M  V30 2400 H 225.92 4.38382 -2.07477 0
M  V30 2401 H 221.799 4.52959 -0.857249 0
M  V30 2402 H 225.343 5.62014 -4.13263 0
M  V30 2403 H 221.24 5.76369 -2.90635 0
M  V30 2404 H 222.008 6.63753 -4.78931 0
M  V30 2405 N 224.671 0.411399 1.52136 0
M  V30 2406 C 225.896 -0.165538 2.06738 0
M  V30 2407 C 226.321 -1.379 1.27926 0
M  V30 2408 O 225.679 -1.78628 0.310114 0
M  V30 2409 C 225.727 -0.492124 3.57226 0
M  V30 2410 O 224.831 -1.58276 3.80818 0
M  V30 2411 H 224.172 -0.0132132 0.663869 0
M  V30 2412 H 226.702 0.585253 1.96051 0
M  V30 2413 H 226.712 -0.750104 4.01045 0
M  V30 2414 H 225.387 0.394922 4.14021 0
M  V30 2415 H 223.964 -1.31677 3.48877 0
M  V30 2416 N 226.149 -1.5696 0.141893 0
M  V30 2417 C 227.374 -2.00754 -0.520838 0
M  V30 2418 C 227.799 -1.0213 -1.57959 0
M  V30 2419 O 227.157 0.00371324 -1.813 0
M  V30 2420 C 227.205 -3.43318 -1.10294 0
M  V30 2421 O 226.309 -3.47679 -2.21795 0
M  V30 2422 H 225.65 -0.651564 -0.127908 0
M  V30 2423 H 228.18 -2.03221 0.23712 0
M  V30 2424 H 228.19 -3.82012 -1.43287 0
M  V30 2425 H 226.865 -4.14608 -0.327574 0
M  V30 2426 H 225.442 -3.20824 -1.9007 0
M  V30 2427 N 227.627 0.131896 -1.57047 0
M  V30 2428 C 228.875 0.840269 -1.83804 0
M  V30 2429 C 229.196 1.81017 -0.72512 0
M  V30 2430 O 228.466 1.94272 0.251995 0
M  V30 2431 H 227.046 0.313294 -0.678127 0
M  V30 2432 H 229.708 0.122294 -1.94516 0
M  V30 2433 H 228.804 1.39335 -2.79271 0
M  V30 2434 N 229.106 1.52395 0.401703 0
M  V30 2435 C 230.331 1.70972 1.17403 0
M  V30 2436 C 230.756 0.421615 1.83314 0
M  V30 2437 O 230.114 -0.621564 1.70312 0
M  V30 2438 C 230.162 2.85151 2.20728 0
M  V30 2439 O 229.266 2.51238 3.27037 0
M  V30 2440 H 228.607 0.568927 0.342372 0
M  V30 2441 H 231.137 1.99131 0.469891 0
M  V30 2442 H 231.147 3.10279 2.64936 0
M  V30 2443 H 229.822 3.78603 1.7214 0
M  V30 2444 H 228.399 2.36808 2.88057 0
M  V30 2445 N 230.584 -0.659388 1.43143 0
M  V30 2446 C 231.83 -1.42145 1.44647 0
M  V30 2447 C 232.163 -1.9408 0.0681907 0
M  V30 2448 O 231.438 -1.71899 -0.910007 0
M  V30 2449 C 231.721 -2.60735 2.48373 0
M  V30 2450 C 231.574 -2.14332 3.95451 0
M  V30 2451 C 232.893 -3.62951 2.48906 0
M  V30 2452 H 230.012 -0.51552 0.526696 0
M  V30 2453 H 232.654 -0.748069 1.74654 0
M  V30 2454 H 230.804 -3.18184 2.22916 0
M  V30 2455 H 232.476 -1.61932 4.31944 0
M  V30 2456 H 230.719 -1.4576 4.08578 0
M  V30 2457 H 231.39 -2.99583 4.63631 0
M  V30 2458 H 233.866 -3.1525 2.71582 0
M  V30 2459 H 232.742 -4.43487 3.23435 0
M  V30 2460 H 233.003 -4.15126 1.52061 0
M  V30 2461 N 232.062 -1.29571 -0.897171 0
M  V30 2462 C 232.972 -1.16808 -2.03453 0
M  V30 2463 C 233.988 -0.0907471 -1.73763 0
M  V30 2464 O 235.164 -0.303312 -1.99103 0
M  V30 2465 C 232.229 -0.848264 -3.36163 0
M  V30 2466 C 231.29 -2.0097 -3.79354 0
M  V30 2467 C 230.523 -1.70505 -5.05731 0
M  V30 2468 O 230.746 -0.62718 -5.66941 0
M  V30 2469 O 229.68 -2.5538 -5.45036 0
M  V30 2470 H 233.506 -2.12325 -2.17144 0
M  V30 2471 H 231.091 -1.09047 -1.02123 0
M  V30 2472 H 232.973 -0.684581 -4.15802 0
M  V30 2473 H 231.648 0.0771071 -3.23608 0
M  V30 2474 H 230.555 -2.22863 -3.00471 0
M  V30 2475 H 231.888 -2.91636 -3.96496 0
M  V30 2476 N 233.54 1.10788 -1.12088 0
M  V30 2477 C 234.503 2.15207 -0.788577 0
M  V30 2478 C 235.503 1.59609 0.195317 0
M  V30 2479 O 236.693 1.74174 -0.0300193 0
M  V30 2480 C 233.825 3.4047 -0.171174 0
M  V30 2481 H 235.018 2.46116 -1.71368 0
M  V30 2482 H 232.571 1.26089 -0.923652 0
M  V30 2483 H 233.306 3.15176 0.763832 0
M  V30 2484 H 233.091 3.82109 -0.879514 0
M  V30 2485 H 234.581 4.17576 0.04496 0
M  V30 2486 N 235.018 0.912232 1.28515 0
M  V30 2487 C 235.95 0.35676 2.26406 0
M  V30 2488 C 236.963 -0.503933 1.54804 0
M  V30 2489 O 238.152 -0.319059 1.75625 0
M  V30 2490 C 235.252 -0.508825 3.35058 0
M  V30 2491 C 234.425 0.329007 4.36161 0
M  V30 2492 C 233.484 -0.471422 5.24084 0
M  V30 2493 O 232.51 0.115482 5.69083 0
M  V30 2494 N 233.712 -1.77479 5.52704 0
M  V30 2495 H 236.477 1.19818 2.74707 0
M  V30 2496 H 234.038 0.778022 1.4198 0
M  V30 2497 H 236.03 -1.051 3.90815 0
M  V30 2498 H 234.6 -1.25095 2.86478 0
M  V30 2499 H 233.82 1.05256 3.79888 0
M  V30 2500 H 235.108 0.90234 5.00735 0
M  V30 2501 H 234.506 -2.27417 5.17975 0
M  V30 2502 H 233.063 -2.26382 6.11224 0
M  V30 2503 N 236.496 -1.42363 0.676048 0
M  V30 2504 C 237.443 -2.308 -0.00150904 0
M  V30 2505 C 238.413 -1.46032 -0.791444 0
M  V30 2506 O 239.598 -1.74861 -0.76344 0
M  V30 2507 C 236.738 -3.31883 -0.945919 0
M  V30 2508 C 235.851 -4.31741 -0.149675 0
M  V30 2509 C 234.986 -5.19898 -1.08995 0
M  V30 2510 C 234.025 -6.11434 -0.285465 0
M  V30 2511 N 233.162 -6.92138 -1.17851 0
M  V30 2512 H 238.002 -2.88187 0.758455 0
M  V30 2513 H 235.539 -1.41952 0.38576 0
M  V30 2514 H 237.497 -3.89019 -1.50731 0
M  V30 2515 H 236.127 -2.76093 -1.6725 0
M  V30 2516 H 235.179 -3.76713 0.528359 0
M  V30 2517 H 236.491 -4.96534 0.474866 0
M  V30 2518 H 235.645 -5.81772 -1.72123 0
M  V30 2519 H 234.384 -4.55284 -1.74837 0
M  V30 2520 H 233.389 -5.48627 0.359018 0
M  V30 2521 H 234.614 -6.78097 0.368883 0
M  V30 2522 H 232.56 -6.30152 -1.82332 0
M  V30 2523 H 232.477 -7.53542 -0.609082 0
M  V30 2524 H 233.745 -7.58499 -1.79722 0
M  V30 2525 N 237.974 -0.419461 -1.51915 0
M  V30 2526 C 238.904 0.391813 -2.30189 0
M  V30 2527 C 239.885 1.03699 -1.34836 0
M  V30 2528 O 241.07 1.04403 -1.63748 0
M  V30 2529 C 238.2 1.50312 -3.13087 0
M  V30 2530 C 237.154 0.9824 -4.16573 0
M  V30 2531 C 236.48 2.18809 -4.8788 0
M  V30 2532 C 237.78 0.0292356 -5.22292 0
M  V30 2533 H 239.474 -0.26135 -2.98257 0
M  V30 2534 H 237.02 -0.127134 -1.43438 0
M  V30 2535 H 238.973 2.07773 -3.66617 0
M  V30 2536 H 237.697 2.18431 -2.42807 0
M  V30 2537 H 236.356 0.430119 -3.64068 0
M  V30 2538 H 236.004 2.85507 -4.14119 0
M  V30 2539 H 235.704 1.84615 -5.57845 0
M  V30 2540 H 237.228 2.76858 -5.44226 0
M  V30 2541 H 238.642 0.512976 -5.71 0
M  V30 2542 H 237.039 -0.2244 -5.9968 0
M  V30 2543 H 238.109 -0.912931 -4.76228 0
M  V30 2544 N 239.452 1.56882 -0.150215 0
M  V30 2545 C 240.382 2.19935 0.784284 0
M  V30 2546 C 241.363 1.14854 1.25469 0
M  V30 2547 O 242.548 1.43209 1.31168 0
M  V30 2548 C 239.678 2.82349 2.02229 0
M  V30 2549 C 238.632 3.93285 1.68853 0
M  V30 2550 C 237.958 4.42649 2.99944 0
M  V30 2551 C 239.258 5.13904 0.932714 0
M  V30 2552 H 240.952 2.9828 0.258781 0
M  V30 2553 H 238.498 1.43473 0.123029 0
M  V30 2554 H 240.451 3.25126 2.68088 0
M  V30 2555 H 239.175 2.0134 2.57157 0
M  V30 2556 H 237.834 3.5113 1.05371 0
M  V30 2557 H 237.482 3.58458 3.52869 0
M  V30 2558 H 237.182 5.17476 2.78374 0
M  V30 2559 H 238.706 4.88099 3.66868 0
M  V30 2560 H 240.12 5.53506 1.49345 0
M  V30 2561 H 238.517 5.94515 0.81684 0
M  V30 2562 H 239.587 4.84842 -0.0749568 0
M  V30 2563 N 240.93 -0.123565 1.57115 0
M  V30 2564 C 242.177 -0.832153 1.84612 0
M  V30 2565 C 242.505 -1.80093 0.734627 0
M  V30 2566 O 241.76 -1.93766 -0.27442 0
M  V30 2567 C 242.059 -1.62016 3.18568 0
M  V30 2568 C 241.725 -0.796084 4.43817 0
M  V30 2569 C 240.387 -0.568816 4.77826 0
M  V30 2570 C 242.739 -0.221364 5.2073 0
M  V30 2571 C 240.067 0.243499 5.86194 0
M  V30 2572 C 242.419 0.578117 6.29953 0
M  V30 2573 C 241.083 0.815744 6.62497 0
M  V30 2574 H 240.353 -0.304507 0.675542 0
M  V30 2575 H 243 -0.0947248 1.91266 0
M  V30 2576 H 241.305 -2.42837 3.0747 0
M  V30 2577 H 243.002 -2.17231 3.37064 0
M  V30 2578 H 239.592 -0.983307 4.17168 0
M  V30 2579 H 243.776 -0.384173 4.94811 0
M  V30 2580 H 239.032 0.436871 6.09837 0
M  V30 2581 H 243.206 1.03046 6.88734 0
M  V30 2582 H 240.833 1.44701 7.46301 0
M  V30 2583 N 242.408 -1.52605 -0.393616 0
M  V30 2584 C 243.656 -1.67093 -1.13685 0
M  V30 2585 C 243.977 -0.411011 -1.90619 0
M  V30 2586 O 243.247 0.574491 -1.87287 0
M  V30 2587 H 241.827 -0.615923 -0.422668 0
M  V30 2588 H 244.489 -1.89704 -0.447039 0
M  V30 2589 H 243.585 -2.51922 -1.84232 0
M  V30 2590 N 243.887 0.651787 -1.4349 0
M  V30 2591 C 244.837 1.75783 -1.45205 0
M  V30 2592 C 245.821 1.57679 -0.320328 0
M  V30 2593 O 247.013 1.67767 -0.564211 0
M  V30 2594 C 244.142 3.14377 -1.3792 0
M  V30 2595 C 243.228 3.38023 -2.56127 0
M  V30 2596 N 243.619 3.32135 -3.81471 0
M  V30 2597 C 241.917 3.68747 -2.50882 0
M  V30 2598 C 242.618 3.55902 -4.60118 0
M  V30 2599 N 241.594 3.77783 -3.90872 0
M  V30 2600 H 245.396 1.69657 -2.39987 0
M  V30 2601 H 242.91 0.853508 -1.38163 0
M  V30 2602 H 244.907 3.93666 -1.37231 0
M  V30 2603 H 243.567 3.21683 -0.441596 0
M  V30 2604 H 244.578 3.11515 -4.13738 0
M  V30 2605 H 241.255 3.8316 -1.65816 0
M  V30 2606 H 242.645 3.57116 -5.69138 0
M  V30 2607 N 245.365 1.30045 0.890287 0
M  V30 2608 C 246.59 1.21598 1.68014 0
M  V30 2609 C 247.015 -0.218678 1.86825 0
M  V30 2610 O 246.373 -1.15756 1.39536 0
M  V30 2611 C 246.421 1.94434 3.03691 0
M  V30 2612 O 245.525 1.2678 3.92429 0
M  V30 2613 H 244.866 0.420856 0.513592 0
M  V30 2614 H 247.396 1.71775 1.11151 0
M  V30 2615 H 247.406 2.03251 3.5377 0
M  V30 2616 H 246.081 2.98777 2.89318 0
M  V30 2617 H 244.658 1.26282 3.50866 0
M  V30 2618 N 246.843 -1.10192 1.12674 0
M  V30 2619 C 248.071 -1.85983 0.906527 0
M  V30 2620 C 248.486 -1.80783 -0.544333 0
M  V30 2621 O 247.843 -1.19834 -1.37645 0
M  V30 2622 C 247.894 -3.34281 1.37618 0
M  V30 2623 O 247.615 -3.39401 2.77017 0
M  V30 2624 C 249.116 -4.26938 1.19325 0
M  V30 2625 H 246.336 -0.587716 0.323775 0
M  V30 2626 H 248.88 -1.39284 1.49734 0
M  V30 2627 H 247.035 -3.78436 0.828539 0
M  V30 2628 H 247.449 -4.31838 2.97684 0
M  V30 2629 H 248.923 -5.29181 1.57071 0
M  V30 2630 H 249.4 -4.38995 0.134097 0
M  V30 2631 H 250.006 -3.8859 1.72852 0
M  V30 2632 N 248.321 -0.919034 -1.28029 0
M  V30 2633 C 249.231 -0.416756 -2.30869 0
M  V30 2634 C 250.247 0.498235 -1.66714 0
M  V30 2635 O 251.423 0.383144 -1.97722 0
M  V30 2636 C 248.488 0.330274 -3.45123 0
M  V30 2637 C 247.549 -0.618578 -4.2482 0
M  V30 2638 C 246.782 0.0928959 -5.33619 0
M  V30 2639 O 247.005 1.31375 -5.55065 0
M  V30 2640 O 245.939 -0.574499 -5.99152 0
M  V30 2641 H 249.765 -1.27043 -2.75851 0
M  V30 2642 H 247.35 -0.684052 -1.3282 0
M  V30 2643 H 249.232 0.751972 -4.14636 0
M  V30 2644 H 247.907 1.1597 -3.02213 0
M  V30 2645 H 246.814 -1.08978 -3.57875 0
M  V30 2646 H 248.147 -1.41497 -4.71423 0
M  V30 2647 N 249.799 1.42003 -0.683588 0
M  V30 2648 C 251.047 2.01015 -0.209101 0
M  V30 2649 C 251.368 1.54365 1.19149 0
M  V30 2650 O 250.638 0.769083 1.80172 0
M  V30 2651 H 249.218 0.743294 -0.074315 0
M  V30 2652 H 251.88 1.73798 -0.882066 0
M  V30 2653 H 250.976 3.11343 -0.2172 0
M  V30 2654 N 251.277 0.427512 1.51691 0
M  V30 2655 C 252.554 -0.201684 1.94557 0
M  V30 2656 C 252.934 -1.60981 1.36559 0
M  V30 2657 O 252.282 -2.21814 0.548702 0
M  V30 2658 C 252.492 -0.189394 3.48486 0
M  V30 2659 C 253.84 -0.39978 4.22714 0
M  V30 2660 O 254.864 -0.267945 3.55191 0
M  V30 2661 O 253.723 -0.661249 5.42485 0
M  V30 2662 H 250.817 -0.135261 0.815864 0
M  V30 2663 H 253.363 0.484782 1.62628 0
M  V30 2664 H 252.135 0.795431 3.8313 0
M  V30 2665 H 251.758 -0.919187 3.86829 0
M  V30 2666 N 252.755 -1.56801 0.158532 0
M  V30 2667 C 254.004 -1.95665 -0.489702 0
M  V30 2668 C 254.317 -1.04654 -1.65248 0
M  V30 2669 O 255.523 -1.33146 -2.3661 0
M  V30 2670 C 253.979 -3.47874 -0.922582 0
M  V30 2671 C 253.587 -4.47489 0.213893 0
M  V30 2672 C 255.331 -3.95583 -1.53996 0
M  V30 2673 C 253.238 -5.90921 -0.237903 0
M  V30 2674 H 252.168 -0.730516 -0.186716 0
M  V30 2675 H 254.819 -1.81861 0.244722 0
M  V30 2676 H 253.201 -3.57051 -1.71261 0
M  V30 2677 H 254.375 -4.50017 0.991036 0
M  V30 2678 H 252.69 -4.09764 0.740407 0
M  V30 2679 H 255.287 -5.0019 -1.8898 0
M  V30 2680 H 255.63 -3.37789 -2.43319 0
M  V30 2681 H 256.163 -3.8937 -0.814611 0
M  V30 2682 H 252.902 -6.52559 0.620236 0
M  V30 2683 H 252.422 -5.91729 -0.980676 0
M  V30 2684 H 254.101 -6.43352 -0.686067 0
M  V30 2685 N 254.233 0.115231 -1.57178 0
M  V30 2686 C 255.163 1.1423 -2.03651 0
M  V30 2687 C 256.144 1.42967 -0.921655 0
M  V30 2688 O 257.329 1.53343 -1.19162 0
M  V30 2689 C 254.459 2.4675 -2.44401 0
M  V30 2690 C 253.413 2.32467 -3.59365 0
M  V30 2691 C 252.739 3.69984 -3.86026 0
M  V30 2692 C 254.039 1.78203 -4.90959 0
M  V30 2693 H 255.733 0.755749 -2.89705 0
M  V30 2694 H 253.279 0.362093 -1.39373 0
M  V30 2695 H 255.232 3.18854 -2.75517 0
M  V30 2696 H 253.956 2.87302 -1.55322 0
M  V30 2697 H 252.615 1.62811 -3.28463 0
M  V30 2698 H 252.263 4.08028 -2.94147 0
M  V30 2699 H 251.963 3.61279 -4.63412 0
M  V30 2700 H 253.487 4.43587 -4.19599 0
M  V30 2701 H 254.901 2.40128 -5.20587 0
M  V30 2702 H 253.298 1.8031 -5.72371 0
M  V30 2703 H 254.368 0.739876 -4.79222 0
M  V30 2704 N 255.711 1.52812 0.385517 0
M  V30 2705 C 256.621 1.80766 1.49535 0
M  V30 2706 C 257.637 0.694651 1.59532 0
M  V30 2707 O 258.813 0.982611 1.75803 0
M  V30 2708 C 255.878 1.97381 2.85029 0
M  V30 2709 C 254.939 3.21295 2.84724 0
M  V30 2710 C 254.172 3.37108 4.13756 0
M  V30 2711 O 254.395 2.5765 5.08893 0
M  V30 2712 O 253.329 4.30378 4.20783 0
M  V30 2713 H 257.155 2.75015 1.28842 0
M  V30 2714 H 254.74 1.37946 0.573697 0
M  V30 2715 H 256.622 2.09996 3.65349 0
M  V30 2716 H 255.297 1.06322 3.05741 0
M  V30 2717 H 254.204 3.1412 2.03174 0
M  V30 2718 H 255.537 4.12212 2.68965 0
M  V30 2719 N 257.189 -0.644168 1.43834 0
M  V30 2720 C 258.119 -1.76814 1.52509 0
M  V30 2721 C 259.1 -1.65823 0.379052 0
M  V30 2722 O 260.285 -1.84781 0.597466 0
M  V30 2723 C 257.415 -3.15288 1.4564 0
M  V30 2724 C 256.369 -3.41053 2.58586 0
M  V30 2725 C 255.695 -4.79421 2.36769 0
M  V30 2726 C 256.995 -3.34902 4.00797 0
M  V30 2727 H 258.689 -1.69812 2.46586 0
M  V30 2728 H 256.235 -0.815542 1.1868 0
M  V30 2729 H 258.188 -3.93681 1.50311 0
M  V30 2730 H 256.912 -3.23043 0.480725 0
M  V30 2731 H 255.571 -2.65035 2.53282 0
M  V30 2732 H 255.219 -4.83863 1.37424 0
M  V30 2733 H 254.919 -4.9762 3.12487 0
M  V30 2734 H 256.443 -5.6006 2.43238 0
M  V30 2735 H 257.857 -4.03218 4.07539 0
M  V30 2736 H 256.254 -3.64637 4.76613 0
M  V30 2737 H 257.324 -2.32928 4.25291 0
M  V30 2738 N 258.668 -1.30515 -0.883378 0
M  V30 2739 C 259.914 -1.19607 -1.63774 0
M  V30 2740 C 260.247 0.248314 -1.92606 0
M  V30 2741 O 259.522 1.17742 -1.54813 0
M  V30 2742 C 259.805 -2.02669 -2.97653 0
M  V30 2743 C 259.658 -3.55335 -2.75784 0
M  V30 2744 C 260.977 -1.86573 -3.98596 0
M  V30 2745 H 258.096 -0.435856 -0.594305 0
M  V30 2746 H 260.738 -1.60165 -1.02212 0
M  V30 2747 H 258.888 -1.68208 -3.50197 0
M  V30 2748 H 260.56 -3.99863 -2.30016 0
M  V30 2749 H 258.803 -3.79438 -2.1026 0
M  V30 2750 H 259.474 -4.08745 -3.70988 0
M  V30 2751 H 261.95 -2.16703 -3.55217 0
M  V30 2752 H 260.826 -2.47014 -4.90179 0
M  V30 2753 H 261.087 -0.825321 -4.34328 0
M  V30 2754 N 260.146 1.09593 -1.13257 0
M  V30 2755 C 261.423 1.78293 -0.804432 0
M  V30 2756 C 261.803 1.99004 0.70431 0
M  V30 2757 O 261.151 1.59007 1.641 0
M  V30 2758 C 261.361 3.10707 -1.5894 0
M  V30 2759 C 262.709 3.85443 -1.78099 0
M  V30 2760 O 263.733 3.20454 -1.55525 0
M  V30 2761 O 262.592 5.02108 -2.15753 0
M  V30 2762 H 259.686 0.773156 -0.293528 0
M  V30 2763 H 262.232 1.16164 -1.23709 0
M  V30 2764 H 261.004 2.91106 -2.61482 0
M  V30 2765 H 260.627 3.80558 -1.15157 0
M  V30 2766 N 261.624 0.925811 1.2754 0
M  V30 2767 C 262.872 0.564138 1.94067 0
M  V30 2768 C 263.193 -0.897188 1.73134 0
M  V30 2769 O 262.463 -1.63573 1.07799 0
M  V30 2770 H 261.043 0.205645 0.718136 0
M  V30 2771 H 263.705 1.1778 1.55287 0
M  V30 2772 H 262.801 0.76881 3.02483 0
M  V30 2773 N 263.102 -1.41638 0.69111 0
M  V30 2774 C 264.052 -2.28 -0.000107832 0
M  V30 2775 C 265.036 -1.41964 -0.757304 0
M  V30 2776 O 266.228 -1.65274 -0.633532 0
M  V30 2777 C 263.357 -3.30209 -0.938983 0
M  V30 2778 C 262.443 -4.23725 -0.17827 0
M  V30 2779 N 262.834 -4.99017 0.825563 0
M  V30 2780 C 261.132 -4.44071 -0.414392 0
M  V30 2781 C 261.833 -5.67431 1.28052 0
M  V30 2782 N 260.809 -5.40197 0.607304 0
M  V30 2783 H 264.611 -2.83644 0.769617 0
M  V30 2784 H 262.125 -1.53797 0.521562 0
M  V30 2785 H 264.122 -3.90898 -1.44929 0
M  V30 2786 H 262.782 -2.76126 -1.70836 0
M  V30 2787 H 263.793 -5.03671 1.20566 0
M  V30 2788 H 260.47 -4.01004 -1.162 0
M  V30 2789 H 261.86 -6.37801 2.11327 0
M  V30 2790 N 264.58 -0.43555 -1.51462 0
M  V30 2791 C 265.827 0.131514 -2.02072 0
M  V30 2792 C 266.155 1.42868 -1.31981 0
M  V30 2793 O 265.41 1.91076 -0.422883 0
M  V30 2794 C 265.709 0.39942 -3.55161 0
M  V30 2795 C 265.375 -0.81172 -4.43533 0
M  V30 2796 C 264.037 -1.14387 -4.67407 0
M  V30 2797 C 266.389 -1.61976 -4.95392 0
M  V30 2798 C 263.717 -2.28477 -5.40384 0
M  V30 2799 C 266.069 -2.75164 -5.6962 0
M  V30 2800 C 264.733 -3.08835 -5.91758 0
M  V30 2801 H 264.003 0.0481244 -0.739436 0
M  V30 2802 H 266.65 -0.58238 -1.8243 0
M  V30 2803 H 264.955 1.19519 -3.73125 0
M  V30 2804 H 266.652 0.85157 -3.91854 0
M  V30 2805 H 263.242 -0.542898 -4.25148 0
M  V30 2806 H 267.426 -1.37637 -4.76833 0
M  V30 2807 H 262.682 -2.5488 -5.55739 0
M  V30 2808 H 266.856 -3.38147 -6.08793 0
M  V30 2809 H 264.483 -3.97353 -6.48086 0
M  V30 2810 N 266.058 1.56714 -0.166846 0
M  V30 2811 C 267.335 1.88412 0.525373 0
M  V30 2812 C 267.715 1.07602 1.81618 0
M  V30 2813 O 267.063 0.168621 2.27877 0
M  V30 2814 C 267.273 3.40363 0.771613 0
M  V30 2815 C 268.621 4.10007 1.1036 0
M  V30 2816 O 269.645 3.45655 0.860304 0
M  V30 2817 O 268.504 5.2369 1.56239 0
M  V30 2818 H 265.598 0.781587 0.270278 0
M  V30 2819 H 268.144 1.68458 -0.204946 0
M  V30 2820 H 266.916 3.91046 -0.141093 0
M  V30 2821 H 266.539 3.65914 1.55541 0
M  V30 2822 N 267.536 -0.106894 1.57237 0
M  V30 2823 C 268.764 -0.826389 1.8968 0
M  V30 2824 C 269.179 -1.72856 0.759353 0
M  V30 2825 O 268.536 -1.80503 -0.269263 0
M  V30 2826 C 268.587 -1.64967 3.21665 0
M  V30 2827 O 268.308 -0.783804 4.31031 0
M  V30 2828 C 269.809 -2.47326 3.67892 0
M  V30 2829 H 267.029 -0.236927 0.627779 0
M  V30 2830 H 269.573 -0.0876593 2.04312 0
M  V30 2831 H 267.728 -2.34103 3.08666 0
M  V30 2832 H 268.142 -1.35284 5.06753 0
M  V30 2833 H 269.616 -3.00604 4.6297 0
M  V30 2834 H 270.093 -3.25247 2.95146 0
M  V30 2835 H 270.699 -1.83411 3.83719 0
M  V30 2836 N 269.014 -1.53014 -0.377408 0
M  V30 2837 C 269.961 -1.78616 -1.46168 0
M  V30 2838 C 270.931 -0.629917 -1.53692 0
M  V30 2839 O 272.116 -0.870861 -1.69766 0
M  V30 2840 C 269.256 -1.97123 -2.8326 0
M  V30 2841 C 268.369 -3.24831 -2.84796 0
M  V30 2842 C 267.504 -3.33591 -4.13389 0
M  V30 2843 C 266.543 -4.55377 -4.09021 0
M  V30 2844 N 265.68 -4.61355 -5.29241 0
M  V30 2845 H 270.52 -2.71142 -1.23637 0
M  V30 2846 H 268.057 -1.34326 -0.599577 0
M  V30 2847 H 270.015 -2.05839 -3.62886 0
M  V30 2848 H 268.645 -1.07946 -3.04216 0
M  V30 2849 H 267.697 -3.25128 -1.97474 0
M  V30 2850 H 269.009 -4.14523 -2.77439 0
M  V30 2851 H 268.163 -3.41554 -5.01424 0
M  V30 2852 H 266.902 -2.41894 -4.23484 0
M  V30 2853 H 265.907 -4.47527 -3.19373 0
M  V30 2854 H 267.132 -5.48402 -4.00539 0
M  V30 2855 H 265.078 -3.72554 -5.39944 0
M  V30 2856 H 264.995 -5.44935 -5.24006 0
M  V30 2857 H 266.263 -4.73586 -6.19141 0
M  V30 2858 N 270.492 0.636531 -1.44174 0
M  V30 2859 C 271.741 1.39213 -1.45954 0
M  V30 2860 C 272.054 1.95374 -0.0939119 0
M  V30 2861 O 273.26 2.71498 0.0107767 0
M  V30 2862 C 271.716 2.52025 -2.56927 0
M  V30 2863 C 271.324 2.024 -3.99673 0
M  V30 2864 C 273.068 3.29269 -2.67922 0
M  V30 2865 C 270.975 3.12521 -5.0208 0
M  V30 2866 H 269.905 0.523132 -0.542999 0
M  V30 2867 H 272.556 0.685349 -1.70221 0
M  V30 2868 H 270.938 3.25253 -2.25891 0
M  V30 2869 H 272.112 1.36073 -4.40251 0
M  V30 2870 H 270.427 1.37987 -3.92872 0
M  V30 2871 H 273.024 4.11352 -3.41605 0
M  V30 2872 H 273.367 3.78397 -1.73555 0
M  V30 2873 H 273.9 2.63129 -2.98342 0
M  V30 2874 H 270.639 2.68343 -5.98057 0
M  V30 2875 H 270.159 3.77507 -4.66099 0
M  V30 2876 H 271.838 3.77385 -5.25538 0
M  V30 2877 N 271.97 1.30982 0.876444 0
M  V30 2878 C 273.218 1.20058 1.62575 0
M  V30 2879 C 273.539 -0.242947 1.93481 0
M  V30 2880 O 272.809 -1.1619 1.57724 0
M  V30 2881 H 271.389 0.44135 0.602677 0
M  V30 2882 H 274.051 1.64222 1.04962 0
M  V30 2883 H 273.147 1.76762 2.57219 0
M  V30 2884 N 273.449 -1.08991 1.13837 0
M  V30 2885 C 274.399 -2.1393 0.788535 0
M  V30 2886 C 275.383 -1.59396 -0.219516 0
M  V30 2887 O 276.575 -1.76985 -0.0227557 0
M  V30 2888 C 273.704 -3.42305 0.261147 0
M  V30 2889 C 272.79 -4.03736 1.29837 0
M  V30 2890 N 273.181 -4.39659 2.50067 0
M  V30 2891 C 271.479 -4.30993 1.1472 0
M  V30 2892 C 272.18 -4.88113 3.16419 0
M  V30 2893 N 271.156 -4.85846 2.43832 0
M  V30 2894 H 274.958 -2.39516 1.70322 0
M  V30 2895 H 272.472 -1.26263 1.02134 0
M  V30 2896 H 274.469 -4.16899 -0.0077405 0
M  V30 2897 H 273.129 -3.18172 -0.647805 0
M  V30 2898 H 274.14 -4.30878 2.8734 0
M  V30 2899 H 270.817 -4.16444 0.296773 0
M  V30 2900 H 272.207 -5.25336 4.18894 0
M  V30 2901 N 274.927 -0.932562 -1.27047 0
M  V30 2902 C 275.874 -0.434072 -2.26681 0
M  V30 2903 C 276.844 0.501639 -1.58344 0
M  V30 2904 O 278.029 0.419734 -1.86126 0
M  V30 2905 C 275.169 0.30261 -3.43771 0
M  V30 2906 C 274.282 -0.667774 -4.26808 0
M  V30 2907 C 273.417 0.0892393 -5.31125 0
M  V30 2908 C 272.456 -0.873532 -6.05835 0
M  V30 2909 N 271.593 -0.148832 -7.01942 0
M  V30 2910 H 276.433 -1.28868 -2.68695 0
M  V30 2911 H 273.97 -0.646713 -1.32121 0
M  V30 2912 H 275.928 0.746092 -4.10474 0
M  V30 2913 H 274.558 1.12142 -3.02695 0
M  V30 2914 H 273.61 -1.22978 -3.59973 0
M  V30 2915 H 274.922 -1.40337 -4.78651 0
M  V30 2916 H 274.076 0.592409 -6.03801 0
M  V30 2917 H 272.815 0.85777 -4.80097 0
M  V30 2918 H 271.82 -1.38791 -5.31994 0
M  V30 2919 H 273.045 -1.64193 -6.58952 0
M  V30 2920 H 270.991 0.601365 -6.53238 0
M  V30 2921 H 270.908 -0.82391 -7.51497 0
M  V30 2922 H 272.176 0.333527 -7.78786 0
M  V30 2923 N 276.405 1.4127 -0.698611 0
M  V30 2924 C 277.651 2.01478 -0.231207 0
M  V30 2925 C 277.984 1.55215 1.16713 0
M  V30 2926 O 277.259 0.764672 1.78838 0
M  V30 2927 C 277.542 3.58912 -0.292281 0
M  V30 2928 C 277.395 4.15293 -1.72778 0
M  V30 2929 C 278.714 4.38736 0.346194 0
M  V30 2930 H 275.833 0.732025 -0.0854878 0
M  V30 2931 H 278.475 1.67977 -0.887906 0
M  V30 2932 H 276.625 3.87582 0.26686 0
M  V30 2933 H 278.297 3.97486 -2.341 0
M  V30 2934 H 276.54 3.7022 -2.26096 0
M  V30 2935 H 277.211 5.24452 -1.72202 0
M  V30 2936 H 279.687 4.15897 -0.130035 0
M  V30 2937 H 278.563 5.48221 0.272932 0
M  V30 2938 H 278.824 4.18425 1.42734 0
M  V30 2939 N 277.883 0.443576 1.51229 0
M  V30 2940 C 278.793 -0.370721 2.31652 0
M  V30 2941 C 279.809 -1.02186 1.40833 0
M  V30 2942 O 280.985 -1.01586 1.73903 0
M  V30 2943 C 278.05 -1.45376 3.14749 0
M  V30 2944 C 277.111 -0.822099 4.21355 0
M  V30 2945 C 276.344 -1.85353 5.0048 0
M  V30 2946 O 276.567 -3.07656 4.80316 0
M  V30 2947 O 275.501 -1.4406 5.84406 0
M  V30 2948 H 279.327 0.286002 3.0235 0
M  V30 2949 H 276.912 0.20598 1.47973 0
M  V30 2950 H 278.794 -2.08173 3.66391 0
M  V30 2951 H 277.469 -2.09445 2.46809 0
M  V30 2952 H 276.376 -0.155909 3.73775 0
M  V30 2953 H 277.709 -0.224797 4.91686 0
M  V30 2954 N 279.361 -1.56624 0.175154 0
M  V30 2955 C 280.586 -2.01813 -0.478137 0
M  V30 2956 C 281.011 -1.05457 -1.55757 0
M  V30 2957 O 280.369 -0.0347439 -1.81267 0
M  V30 2958 C 280.417 -3.45581 -1.02987 0
M  V30 2959 O 279.521 -3.52305 -2.14371 0
M  V30 2960 H 278.862 -0.65413 -0.114059 0
M  V30 2961 H 281.392 -2.02673 0.280173 0
M  V30 2962 H 281.402 -3.84965 -1.35151 0
M  V30 2963 H 280.077 -4.1521 -0.239556 0
M  V30 2964 H 278.654 -3.24783 -1.83222 0
M  V30 2965 N 280.839 0.0985539 -1.57292 0
M  V30 2966 C 281.749 1.13824 -2.05137 0
M  V30 2967 C 282.765 1.44076 -0.975604 0
M  V30 2968 O 283.941 1.54786 -1.28853 0
M  V30 2969 C 281.006 2.43969 -2.46333 0
M  V30 2970 C 280.067 2.2093 -3.68087 0
M  V30 2971 C 279.3 3.44869 -4.0731 0
M  V30 2972 O 279.523 4.52972 -3.46659 0
M  V30 2973 O 278.457 3.34661 -5.00285 0
M  V30 2974 H 282.283 0.761881 -2.93988 0
M  V30 2975 H 279.868 0.310818 -1.46131 0
M  V30 2976 H 281.75 3.20609 -2.73473 0
M  V30 2977 H 280.425 2.81038 -1.60621 0
M  V30 2978 H 279.332 1.42081 -3.46069 0
M  V30 2979 H 280.665 1.88755 -4.54568 0
M  V30 2980 N 282.317 1.53212 0.369288 0
M  V30 2981 C 283.542 1.73423 1.1375 0
M  V30 2982 C 283.967 0.460404 1.82378 0
M  V30 2983 O 283.325 -0.585298 1.71592 0
M  V30 2984 C 283.373 2.89769 2.1463 0
M  V30 2985 O 282.477 2.58119 3.21634 0
M  V30 2986 H 281.818 0.576061 0.330227 0
M  V30 2987 H 284.348 2.00083 0.427547 0
M  V30 2988 H 284.358 3.15829 2.58294 0
M  V30 2989 H 283.033 3.8217 1.64071 0
M  V30 2990 H 281.61 2.42864 2.82969 0
M  V30 2991 N 283.795 -0.628877 1.44509 0
M  V30 2992 C 285.025 -1.41349 1.50678 0
M  V30 2993 C 285.433 -1.88745 0.131075 0
M  V30 2994 O 284.776 -1.61592 -0.87371 0
M  V30 2995 C 284.838 -2.66608 2.41165 0
M  V30 2996 C 284.502 -2.40993 3.88293 0
M  V30 2997 C 285.499 -2.0268 4.78766 0
M  V30 2998 C 283.184 -2.54563 4.33016 0
M  V30 2999 C 285.178 -1.78269 6.11963 0
M  V30 3000 C 282.865 -2.29766 5.6626 0
M  V30 3001 C 283.863 -1.91678 6.55552 0
M  V30 3002 O 283.551 -1.67158 7.86329 0
M  V30 3003 H 283.283 -0.439851 0.51333 0
M  V30 3004 H 285.837 -0.776084 1.90174 0
M  V30 3005 H 284.067 -3.32994 1.96601 0
M  V30 3006 H 285.756 -3.28615 2.38259 0
M  V30 3007 H 286.522 -1.91751 4.45485 0
M  V30 3008 H 282.401 -2.83179 3.63773 0
M  V30 3009 H 285.945 -1.48465 6.81619 0
M  V30 3010 H 281.842 -2.40306 5.99102 0
M  V30 3011 H 282.61 -1.81386 7.98149 0
M  V30 3012 N 285.273 -1.31445 -0.869486 0
M  V30 3013 C 286.689 -1.10113 -1.15531 0
M  V30 3014 C 286.889 0.128087 -2.01092 0
M  V30 3015 O 285.945 0.817276 -2.38908 0
M  V30 3016 C 287.258 -2.37291 -1.84698 0
M  V30 3017 C 288.806 -2.42906 -1.97397 0
M  V30 3018 C 289.281 -3.69967 -2.69979 0
M  V30 3019 N 290.772 -3.70864 -2.77514 0
M  V30 3020 C 291.507 -4.65875 -3.34287 0
M  V30 3021 N 291.003 -5.71242 -3.91988 0
M  V30 3022 N 292.796 -4.53394 -3.3225 0
M  V30 3023 H 284.947 -2.1028 -0.299347 0
M  V30 3024 H 287.21 -0.927683 -0.195214 0
M  V30 3025 H 286.916 -3.27078 -1.29278 0
M  V30 3026 H 286.79 -2.47125 -2.84972 0
M  V30 3027 H 289.177 -1.53588 -2.51982 0
M  V30 3028 H 289.258 -2.37036 -0.961643 0
M  V30 3029 H 288.902 -4.59652 -2.16062 0
M  V30 3030 H 288.832 -3.73103 -3.7162 0
M  V30 3031 H 291.323 -2.94697 -2.36563 0
M  V30 3032 H 291.636 -6.39817 -4.33421 0
M  V30 3033 H 289.981 -5.75015 -3.90362 0
M  V30 3034 H 293.172 -3.70252 -2.8641 0
M  V30 3035 H 293.345 -5.27617 -3.76197 0
M  V30 3036 N 286.751 1.08385 -1.14413 0
M  V30 3037 C 287.698 2.15311 -0.831265 0
M  V30 3038 C 288.668 1.64751 0.211292 0
M  V30 3039 O 289.853 1.90627 0.0811674 0
M  V30 3040 C 286.993 3.43658 -0.315143 0
M  V30 3041 C 286.106 4.08064 -1.41802 0
M  V30 3042 C 285.241 5.24207 -0.859126 0
M  V30 3043 C 284.28 5.80554 -1.93967 0
M  V30 3044 N 283.417 6.88042 -1.39793 0
M  V30 3045 H 288.257 2.41415 -1.74708 0
M  V30 3046 H 285.794 1.18474 -0.871909 0
M  V30 3047 H 287.752 4.172 0.00230884 0
M  V30 3048 H 286.382 3.17839 0.56378 0
M  V30 3049 H 285.434 3.3228 -1.85187 0
M  V30 3050 H 286.746 4.45962 -2.23427 0
M  V30 3051 H 285.9 6.04689 -0.49359 0
M  V30 3052 H 284.639 4.87699 -0.011932 0
M  V30 3053 H 283.644 4.98725 -2.31415 0
M  V30 3054 H 284.869 6.19121 -2.79046 0
M  V30 3055 H 282.815 6.53493 -0.572919 0
M  V30 3056 H 282.732 7.24767 -2.15054 0
M  V30 3057 H 284 7.72255 -1.0603 0
M  V30 3058 N 288.23 0.939286 1.26551 0
M  V30 3059 C 289.479 0.581601 1.93133 0
M  V30 3060 C 289.792 -0.883224 1.74524 0
M  V30 3061 O 290.998 -1.3502 2.35546 0
M  V30 3062 C 289.454 0.989425 3.46032 0
M  V30 3063 C 289.062 2.47573 3.73379 0
M  V30 3064 C 290.806 0.703544 4.18629 0
M  V30 3065 C 288.713 2.82235 5.19709 0
M  V30 3066 H 287.643 0.213803 0.723052 0
M  V30 3067 H 290.294 1.14167 1.4366 0
M  V30 3068 H 288.676 0.357902 3.94379 0
M  V30 3069 H 289.85 3.15614 3.35744 0
M  V30 3070 H 288.165 2.73471 3.1401 0
M  V30 3071 H 290.762 0.938869 5.26393 0
M  V30 3072 H 291.105 -0.359639 4.14744 0
M  V30 3073 H 291.638 1.2947 3.76141 0
M  V30 3074 H 288.377 3.87509 5.28694 0
M  V30 3075 H 287.897 2.18854 5.58447 0
M  V30 3076 H 289.576 2.70599 5.87695 0
M  V30 3077 N 289.708 -1.40897 0.706093 0
M  V30 3078 C 290.671 -2.29131 0.0562841 0
M  V30 3079 C 291.671 -1.44901 -0.697166 0
M  V30 3080 O 292.861 -1.65926 -0.530484 0
M  V30 3081 C 289.993 -3.27957 -0.93043 0
M  V30 3082 H 291.186 -2.88091 0.833284 0
M  V30 3083 H 288.739 -1.4906 0.470192 0
M  V30 3084 H 289.474 -2.73997 -1.73482 0
M  V30 3085 H 289.259 -3.90124 -0.393166 0
M  V30 3086 H 290.749 -3.94049 -1.38256 0
M  V30 3087 N 291.186 -0.45159 -1.50991 0
M  V30 3088 C 292.463 0.170707 -1.94854 0
M  V30 3089 C 292.843 1.58788 -1.39103 0
M  V30 3090 O 292.191 2.20913 -0.583921 0
M  V30 3091 C 292.401 0.133929 -3.48743 0
M  V30 3092 C 293.749 0.33248 -4.23296 0
M  V30 3093 O 294.773 0.211403 -3.55572 0
M  V30 3094 O 293.632 0.57486 -5.43468 0
M  V30 3095 H 290.726 0.122264 -0.817912 0
M  V30 3096 H 293.272 -0.510594 -1.61836 0
M  V30 3097 H 292.044 -0.856283 -3.81816 0
M  V30 3098 H 291.667 0.857529 -3.88242 0
M  V30 3099 N 292.664 1.56529 -0.183458 0
M  V30 3100 C 293.889 2.02064 0.467428 0
M  V30 3101 C 294.314 1.06282 1.55196 0
M  V30 3102 O 293.672 0.0443565 1.81246 0
M  V30 3103 C 293.72 3.46122 1.01153 0
M  V30 3104 O 292.824 3.53437 2.12499 0
M  V30 3105 H 292.165 0.654726 0.110588 0
M  V30 3106 H 294.695 2.02521 -0.290917 0
M  V30 3107 H 294.705 3.85676 1.33108 0
M  V30 3108 H 293.38 4.15331 0.217533 0
M  V30 3109 H 291.957 3.2575 1.81497 0
M  V30 3110 N 294.142 -0.090211 1.57342 0
M  V30 3111 C 295.391 -0.791531 1.8552 0
M  V30 3112 C 295.704 -1.79659 0.773441 0
M  V30 3113 O 296.91 -2.54616 0.942497 0
M  V30 3114 C 295.366 -1.45856 3.2902 0
M  V30 3115 C 294.974 -0.493017 4.45279 0
M  V30 3116 C 296.718 -2.14332 3.66418 0
M  V30 3117 C 294.625 -1.16491 5.79814 0
M  V30 3118 H 293.555 -0.299356 0.692027 0
M  V30 3119 H 296.206 -0.0445343 1.83446 0
M  V30 3120 H 294.588 -2.25318 3.2565 0
M  V30 3121 H 295.762 0.270464 4.60006 0
M  V30 3122 H 294.077 0.0863061 4.16311 0
M  V30 3123 H 296.674 -2.65344 4.64216 0
M  V30 3124 H 297.017 -2.93447 2.95287 0
M  V30 3125 H 297.55 -1.41724 3.71698 0
M  V30 3126 H 294.289 -0.41447 6.54188 0
M  V30 3127 H 293.809 -1.8997 5.68921 0
M  V30 3128 H 295.488 -1.69001 6.24538 0
M  V30 3129 N 295.62 -1.53406 -0.361157 0
M  V30 3130 C 296.868 -1.69467 -1.10115 0
M  V30 3131 C 297.189 -0.451352 -1.89705 0
M  V30 3132 O 296.459 0.534636 -1.88463 0
M  V30 3133 H 295.039 -0.624749 -0.409508 0
M  V30 3134 H 297.701 -1.90609 -0.406699 0
M  V30 3135 H 296.797 -2.55774 -1.78847 0
M  V30 3136 N 297.098 0.621204 -1.44841 0
M  V30 3137 C 298.338 1.39201 -1.49674 0
M  V30 3138 C 298.702 1.91561 -0.129764 0
M  V30 3139 O 299.903 2.68748 -0.0527814 0
M  V30 3140 C 298.174 2.519 -2.53537 0
M  V30 3141 S 299.733 3.39916 -2.77494 0
M  V30 3142 H 296.551 0.474758 -0.529269 0
M  V30 3143 H 299.153 0.718171 -1.81831 0
M  V30 3144 H 297.857 2.11761 -3.51547 0
M  V30 3145 H 297.388 3.241 -2.22986 0
M  V30 3146 H 299.403 4.49646 -2.0984 0
M  V30 3147 N 298.576 1.31904 0.862503 0
M  V30 3148 C 299.801 1.25135 1.65397 0
M  V30 3149 C 300.226 -0.179 1.87246 0
M  V30 3150 O 299.584 -1.1277 1.4196 0
M  V30 3151 C 299.632 2.00832 2.99498 0
M  V30 3152 O 298.736 1.35075 3.89652 0
M  V30 3153 H 298.077 0.431655 0.504549 0
M  V30 3154 H 300.607 1.74094 1.07483 0
M  V30 3155 H 300.617 2.10709 3.49379 0
M  V30 3156 H 299.292 3.04847 2.82916 0
M  V30 3157 H 297.869 1.33696 3.48109 0
M  V30 3158 N 300.054 -1.07777 1.14986 0
M  V30 3159 C 301.282 -1.84018 0.945773 0
M  V30 3160 C 301.697 -1.81897 -0.505863 0
M  V30 3161 O 301.054 -1.22726 -1.35072 0
M  V30 3162 C 301.105 -3.31287 1.44677 0
M  V30 3163 O 300.826 -3.33449 2.84154 0
M  V30 3164 C 302.327 -4.24311 1.28355 0
M  V30 3165 H 299.547 -0.580716 0.336169 0
M  V30 3166 H 302.091 -1.36077 1.52654 0
M  V30 3167 H 300.246 -3.76594 0.908625 0
M  V30 3168 H 300.66 -4.25427 3.06777 0
M  V30 3169 H 302.134 -5.2573 1.68261 0
M  V30 3170 H 302.611 -4.38612 0.227184 0
M  V30 3171 H 303.217 -3.84836 1.81056 0
M  V30 3172 N 301.532 -0.945985 -1.26051 0
M  V30 3173 C 302.48 -0.450259 -2.282 0
M  V30 3174 C 303.474 0.47497 -1.62605 0
M  V30 3175 O 304.68 0.352653 -1.76512 0
M  V30 3176 H 301.055 -0.127081 -0.741184 0
M  V30 3177 H 303.026 -1.32422 -2.67408 0
M  V30 3178 C 301.775 0.26467 -3.46691 0
M  V30 3179 H 301.098 -0.438123 -3.97392 0
M  V30 3180 H 302.538 0.575678 -4.20074 0
M  V30 3181 C 300.997 1.48416 -3.02447 0
M  V30 3182 O 301.527 2.58227 -3.07704 0
M  V30 3183 N 299.733 1.34243 -2.57735 0
M  V30 3184 H 299.28 0.448994 -2.53657 0
M  V30 3185 H 299.238 2.15957 -2.28495 0
M  V30 3186 N 303.011 1.40521 -0.713556 0
M  V30 3187 C 303.959 2.32549 -0.0485227 0
M  V30 3188 C 304.953 1.51931 0.74922 0
M  V30 3189 O 306.159 1.67745 0.652816 0
M  V30 3190 H 302.534 0.751994 0.00311138 0
M  V30 3191 H 304.505 2.86291 -0.841443 0
M  V30 3192 C 303.254 3.36879 0.860687 0
M  V30 3193 H 302.577 3.98978 0.256246 0
M  V30 3194 H 304.017 4.03772 1.294 0
M  V30 3195 C 302.476 2.72197 1.9852 0
M  V30 3196 O 303.006 2.5837 3.07584 0
M  V30 3197 N 301.212 2.30612 1.76823 0
M  V30 3198 H 300.759 2.42059 0.881217 0
M  V30 3199 H 300.717 1.87672 2.52243 0
M  V30 3200 N 304.489 0.459591 1.5075 0
M  V30 3201 C 305.738 -0.100971 2.01447 0
M  V30 3202 C 306.051 -1.41816 1.34713 0
M  V30 3203 O 307.257 -2.06299 1.76502 0
M  V30 3204 C 305.713 -0.23047 3.59161 0
M  V30 3205 C 305.321 1.0776 4.34847 0
M  V30 3206 C 307.065 -0.743608 4.17936 0
M  V30 3207 C 304.972 0.91253 5.84317 0
M  V30 3208 H 303.902 -0.0415102 0.752856 0
M  V30 3209 H 306.553 0.592742 1.73663 0
M  V30 3210 H 304.935 -0.987703 3.83485 0
M  V30 3211 H 306.109 1.8449 4.22256 0
M  V30 3212 H 304.424 1.52097 3.87628 0
M  V30 3213 H 307.021 -0.883959 5.27343 0
M  V30 3214 H 307.364 -1.73196 3.78562 0
M  V30 3215 H 307.897 -0.04408 3.97776 0
M  V30 3216 H 304.636 1.87391 6.28144 0
M  V30 3217 H 304.156 0.185422 5.99513 0
M  V30 3218 H 305.835 0.574547 6.44444 0
M  V30 3219 N 305.967 -1.56429 0.191757 0
M  V30 3220 C 306.897 -2.21937 -0.725696 0
M  V30 3221 C 307.878 -1.1814 -1.2238 0
M  V30 3222 O 309.063 -1.46636 -1.27325 0
M  V30 3223 C 306.193 -2.87611 -1.94672 0
M  V30 3224 C 305.147 -3.97623 -1.58366 0
M  V30 3225 C 304.473 -4.50446 -2.88102 0
M  V30 3226 C 305.773 -5.16197 -0.796133 0
M  V30 3227 H 307.467 -2.98861 -0.179606 0
M  V30 3228 H 305.013 -1.43749 -0.0849464 0
M  V30 3229 H 306.966 -3.3212 -2.59373 0
M  V30 3230 H 305.69 -2.08087 -2.51728 0
M  V30 3231 H 304.349 -3.53801 -0.960247 0
M  V30 3232 H 303.997 -3.67688 -3.43241 0
M  V30 3233 H 303.697 -5.24675 -2.64556 0
M  V30 3234 H 305.221 -4.97654 -3.53798 0
M  V30 3235 H 306.635 -5.57271 -1.34618 0
M  V30 3236 H 305.032 -5.96471 -0.658928 0
M  V30 3237 H 306.102 -4.84473 0.203478 0
M  V30 3238 N 307.445 0.0818655 -1.57387 0
M  V30 3239 C 308.692 0.782914 -1.86753 0
M  V30 3240 C 309.02 1.78082 -0.782118 0
M  V30 3241 O 308.275 1.94426 0.22295 0
M  V30 3242 C 308.574 1.53513 -3.22752 0
M  V30 3243 C 308.24 0.678134 -4.45771 0
M  V30 3244 C 306.902 0.441929 -4.79166 0
M  V30 3245 C 309.254 0.0832243 -5.21134 0
M  V30 3246 C 306.582 -0.398833 -5.85343 0
M  V30 3247 C 308.934 -0.744935 -6.28199 0
M  V30 3248 C 307.598 -0.991107 -6.60101 0
M  V30 3249 H 306.868 0.286489 -0.683378 0
M  V30 3250 H 309.515 0.0439808 -1.91449 0
M  V30 3251 H 307.82 2.34599 -3.138 0
M  V30 3252 H 309.517 2.08218 -3.42705 0
M  V30 3253 H 306.107 0.872357 -4.19628 0
M  V30 3254 H 310.291 0.252847 -4.95655 0
M  V30 3255 H 305.547 -0.598405 -6.08465 0
M  V30 3256 H 309.721 -1.21271 -6.8576 0
M  V30 3257 H 307.348 -1.64437 -7.42202 0
M  V30 3258 N 308.923 1.53595 0.353017 0
M  V30 3259 C 309.853 1.83902 1.43883 0
M  V30 3260 C 310.834 0.693421 1.55324 0
M  V30 3261 O 312.019 0.944452 1.69687 0
M  V30 3262 C 309.149 2.04016 2.8106 0
M  V30 3263 C 308.103 3.19814 2.84434 0
M  V30 3264 C 307.429 3.25244 4.24406 0
M  V30 3265 C 308.729 4.58133 2.50822 0
M  V30 3266 H 310.423 2.74835 1.1877 0
M  V30 3267 H 307.969 1.32242 0.569917 0
M  V30 3268 H 309.922 2.238 3.57059 0
M  V30 3269 H 308.646 1.09804 3.07588 0
M  V30 3270 H 307.305 2.9987 2.10887 0
M  V30 3271 H 306.953 2.28646 4.48029 0
M  V30 3272 H 306.653 4.03054 4.27576 0
M  V30 3273 H 308.177 3.47228 5.0226 0
M  V30 3274 H 309.591 4.77995 3.16534 0
M  V30 3275 H 307.988 5.38276 2.6529 0
M  V30 3276 H 309.058 4.62387 1.46034 0
M  V30 3277 N 310.401 -0.613514 1.45168 0
M  V30 3278 C 311.629 -1.39946 1.5239 0
M  V30 3279 C 312.044 -1.88167 0.154531 0
M  V30 3280 O 311.401 -1.61872 -0.842843 0
M  V30 3281 C 311.452 -2.60795 2.50337 0
M  V30 3282 O 311.173 -2.1458 3.81952 0
M  V30 3283 C 312.674 -3.53723 2.67198 0
M  V30 3284 H 309.894 -0.428593 0.516284 0
M  V30 3285 H 312.438 -0.748753 1.903 0
M  V30 3286 H 310.593 -3.21919 2.15515 0
M  V30 3287 H 311.007 -2.93055 4.34993 0
M  V30 3288 H 312.481 -4.35079 3.39721 0
M  V30 3289 H 312.958 -4.0368 1.73029 0
M  V30 3290 H 313.564 -2.98456 3.02992 0
M  V30 3291 N 311.879 -1.3236 -0.855495 0
M  V30 3292 C 313.156 -1.13491 -1.59309 0
M  V30 3293 C 313.536 0.30503 -2.08885 0
M  V30 3294 O 312.884 1.30151 -1.87811 0
M  V30 3295 C 313.094 -2.16176 -2.73987 0
M  V30 3296 C 314.442 -2.49463 -3.43589 0
M  V30 3297 O 315.466 -2.14715 -2.84211 0
M  V30 3298 O 314.325 -3.09027 -4.50738 0
M  V30 3299 H 311.419 -0.437887 -0.701559 0
M  V30 3300 H 313.965 -1.43887 -0.899696 0
M  V30 3301 H 312.737 -3.1297 -2.34873 0
M  V30 3302 H 312.36 -1.86769 -3.51003 0
M  V30 3303 N 313.357 1.07166 -1.15556 0
M  V30 3304 C 314.603 1.80065 -0.932984 0
M  V30 3305 C 314.936 1.86586 0.53845 0
M  V30 3306 O 314.211 1.35098 1.39924 0
M  V30 3307 C 314.494 3.25022 -1.55025 0
M  V30 3308 C 314.347 3.26634 -3.09242 0
M  V30 3309 C 315.666 4.22341 -1.2376 0
M  V30 3310 H 312.785 0.653697 -0.340366 0
M  V30 3311 H 315.427 1.25389 -1.4275 0
M  V30 3312 H 313.577 3.71712 -1.12972 0
M  V30 3313 H 315.249 2.88173 -3.60214 0
M  V30 3314 H 313.492 2.65539 -3.43033 0
M  V30 3315 H 314.163 4.28854 -3.47546 0
M  V30 3316 H 316.639 3.8405 -1.60139 0
M  V30 3317 H 315.515 5.22053 -1.69564 0
M  V30 3318 H 315.776 4.41828 -0.154938 0
M  V30 3319 N 314.835 0.952656 1.25548 0
M  V30 3320 C 316.063 0.623496 1.97282 0
M  V30 3321 C 316.478 -0.803987 1.70826 0
M  V30 3322 O 315.835 -1.53755 0.983147 0
M  V30 3323 C 315.886 0.870209 3.5087 0
M  V30 3324 O 315.607 2.24156 3.76412 0
M  V30 3325 C 317.108 0.553164 4.39835 0
M  V30 3326 H 314.328 0.233931 0.628902 0
M  V30 3327 H 316.872 1.27649 1.59768 0
M  V30 3328 H 315.027 0.263652 3.86502 0
M  V30 3329 H 315.441 2.31021 4.70882 0
M  V30 3330 H 316.915 0.776342 5.46513 0
M  V30 3331 H 317.392 -0.512215 4.36203 0
M  V30 3332 H 317.998 1.13896 4.09766 0
M  V30 3333 N 316.313 -1.40141 0.720998 0
M  V30 3334 C 317.729 -1.54632 0.395113 0
M  V30 3335 C 317.929 -1.69115 -1.09555 0
M  V30 3336 O 316.985 -1.68377 -1.88163 0
M  V30 3337 C 318.298 -2.77177 1.1659 0
M  V30 3338 C 319.846 -2.91 1.15274 0
M  V30 3339 C 320.321 -4.16465 1.90579 0
M  V30 3340 N 321.812 -4.23476 1.87675 0
M  V30 3341 C 322.547 -5.19475 2.42762 0
M  V30 3342 N 322.043 -6.21348 3.06428 0
M  V30 3343 N 323.836 -5.11592 2.32874 0
M  V30 3344 H 315.987 -1.28986 1.68749 0
M  V30 3345 H 318.25 -0.62412 0.713567 0
M  V30 3346 H 317.956 -2.72771 2.22011 0
M  V30 3347 H 317.83 -3.69442 0.76108 0
M  V30 3348 H 320.217 -2.94907 0.106702 0
M  V30 3349 H 320.298 -1.99838 1.59682 0
M  V30 3350 H 319.942 -4.1332 2.95176 0
M  V30 3351 H 319.872 -5.06646 1.43587 0
M  V30 3352 H 322.363 -3.50497 1.41281 0
M  V30 3353 H 322.676 -6.91034 3.45965 0
M  V30 3354 H 321.021 -6.21777 3.10514 0
M  V30 3355 H 324.212 -4.30936 1.82789 0
M  V30 3356 H 324.385 -5.86233 2.76106 0
M  V30 3357 N 317.792 -0.46758 -1.50504 0
M  V30 3358 C 318.702 0.33382 -2.32213 0
M  V30 3359 C 319.718 0.999323 -1.42441 0
M  V30 3360 O 320.894 0.988068 -1.75497 0
M  V30 3361 C 317.959 1.4035 -3.17022 0
M  V30 3362 C 317.02 0.754961 -4.2261 0
M  V30 3363 C 316.253 1.77367 -5.03365 0
M  V30 3364 O 316.476 2.99976 -4.8515 0
M  V30 3365 O 315.41 1.34744 -5.86624 0
M  V30 3366 H 319.236 -0.334067 -3.01857 0
M  V30 3367 H 316.821 -0.229496 -1.47627 0
M  V30 3368 H 318.703 2.02318 -3.69656 0
M  V30 3369 H 317.378 2.05492 -2.5011 0
M  V30 3370 H 316.285 0.0964244 -3.73976 0
M  V30 3371 H 317.618 0.146545 -4.91982 0
M  V30 3372 N 319.27 1.56325 -0.20005 0
M  V30 3373 C 320.233 2.18084 0.705132 0
M  V30 3374 C 321.233 1.13666 1.1374 0
M  V30 3375 O 322.423 1.39023 1.04968 0
M  V30 3376 C 319.555 2.78689 1.96329 0
M  V30 3377 H 320.748 2.99435 0.167023 0
M  V30 3378 H 318.301 1.56221 0.0495725 0
M  V30 3379 H 319.036 2.0115 2.5438 0
M  V30 3380 H 318.821 3.55133 1.66202 0
M  V30 3381 H 320.311 3.26096 2.60866 0
M  V30 3382 N 320.748 -0.0735177 1.57428 0
M  V30 3383 C 321.973 -0.789787 1.91774 0
M  V30 3384 C 322.398 -1.70413 0.796306 0
M  V30 3385 O 321.756 -1.79555 -0.250961 0
M  V30 3386 C 321.804 -1.5609 3.25067 0
M  V30 3387 O 320.908 -2.67144 3.14178 0
M  V30 3388 H 320.249 -0.215582 0.628029 0
M  V30 3389 H 322.779 -0.0422781 2.04556 0
M  V30 3390 H 322.789 -1.94052 3.58898 0
M  V30 3391 H 321.464 -0.890015 4.06265 0
M  V30 3392 H 320.041 -2.32052 2.91901 0
M  V30 3393 N 322.226 -1.5378 -0.344866 0
M  V30 3394 C 323.189 -1.80981 -1.40637 0
M  V30 3395 C 324.189 -0.680816 -1.45676 0
M  V30 3396 O 325.379 -0.949095 -1.46075 0
M  V30 3397 C 322.511 -1.95063 -2.79577 0
M  V30 3398 H 323.704 -2.75803 -1.17783 0
M  V30 3399 H 321.257 -1.45173 -0.579181 0
M  V30 3400 H 321.992 -1.02379 -3.07716 0
M  V30 3401 H 321.777 -2.77198 -2.77315 0
M  V30 3402 H 323.267 -2.17629 -3.56409 0
M  V30 3403 N 323.704 0.605807 -1.45491 0
M  V30 3404 C 324.667 1.69836 -1.5391 0
M  V30 3405 C 325.667 1.55261 -0.418424 0
M  V30 3406 O 326.857 1.60296 -0.681965 0
M  V30 3407 C 323.989 3.09117 -1.43734 0
M  V30 3408 H 325.182 1.63738 -2.51257 0
M  V30 3409 H 322.735 0.821689 -1.32959 0
M  V30 3410 H 323.47 3.20791 -0.475788 0
M  V30 3411 H 323.255 3.21104 -2.25021 0
M  V30 3412 H 324.745 3.88696 -1.52661 0
M  V30 3413 N 325.182 1.32811 0.848464 0
M  V30 3414 C 326.092 1.24278 1.98978 0
M  V30 3415 C 327.108 0.155176 1.73307 0
M  V30 3416 O 328.284 0.376999 1.9784 0
M  V30 3417 C 325.349 0.972444 3.32783 0
M  V30 3418 C 324.41 2.14911 3.71634 0
M  V30 3419 C 323.643 1.89157 4.99054 0
M  V30 3420 O 323.866 0.837165 5.64223 0
M  V30 3421 O 322.8 2.75433 5.35183 0
M  V30 3422 H 326.626 2.20238 2.09115 0
M  V30 3423 H 324.211 1.12762 0.980052 0
M  V30 3424 H 326.093 0.838432 4.12975 0
M  V30 3425 H 324.768 0.043051 3.23671 0
M  V30 3426 H 323.675 2.33862 2.91992 0
M  V30 3427 H 325.008 3.06151 3.85399 0
M  V30 3428 N 326.66 -1.06551 1.16123 0
M  V30 3429 C 327.57 -2.17484 0.879662 0
M  V30 3430 C 328.586 -1.73377 -0.147104 0
M  V30 3431 O 329.762 -2.01379 0.0289128 0
M  V30 3432 C 326.827 -3.44591 0.381829 0
M  V30 3433 C 325.888 -4.0322 1.4735 0
M  V30 3434 C 325.121 -5.24261 0.999324 0
M  V30 3435 O 325.344 -5.70198 -0.151957 0
M  V30 3436 O 324.278 -5.74775 1.78653 0
M  V30 3437 H 328.104 -2.44075 1.80724 0
M  V30 3438 H 325.689 -1.16042 0.940992 0
M  V30 3439 H 327.571 -4.21254 0.111053 0
M  V30 3440 H 326.246 -3.19532 -0.51777 0
M  V30 3441 H 325.153 -3.2806 1.79798 0
M  V30 3442 H 326.486 -4.32568 2.34831 0
M  V30 3443 N 328.138 -0.959301 -1.25041 0
M  V30 3444 C 329.101 -0.487677 -2.23952 0
M  V30 3445 C 330.101 0.41119 -1.55454 0
M  V30 3446 O 331.291 0.207825 -1.72956 0
M  V30 3447 C 328.423 0.294807 -3.39623 0
M  V30 3448 H 329.616 -1.36198 -2.67189 0
M  V30 3449 H 327.169 -0.743042 -1.37508 0
M  V30 3450 H 327.904 1.18658 -3.01813 0
M  V30 3451 H 327.689 -0.35012 -3.90534 0
M  V30 3452 H 329.179 0.614089 -4.1306 0
M  V30 3453 N 329.616 1.39756 -0.72842 0
M  V30 3454 C 330.893 1.94574 -0.200079 0
M  V30 3455 C 331.273 1.66569 1.29684 0
M  V30 3456 O 330.621 0.990326 2.05924 0
M  V30 3457 C 330.831 3.45004 -0.526608 0
M  V30 3458 C 332.179 4.21965 -0.472318 0
M  V30 3459 O 333.203 3.53173 -0.463413 0
M  V30 3460 O 332.062 5.44552 -0.461075 0
M  V30 3461 H 329.156 0.826289 -0.0342851 0
M  V30 3462 H 331.702 1.49293 -0.806829 0
M  V30 3463 H 330.474 3.58796 -1.56144 0
M  V30 3464 H 330.097 3.97449 0.109449 0
M  V30 3465 N 331.094 0.475555 1.50254 0
M  V30 3466 C 332.34 -0.0780073 2.0265 0
M  V30 3467 C 332.673 -1.38968 1.35652 0
M  V30 3468 O 331.948 -1.8839 0.483691 0
M  V30 3469 C 332.231 -0.257161 3.59181 0
M  V30 3470 C 332.084 1.07585 4.36744 0
M  V30 3471 C 333.403 -1.00965 4.28362 0
M  V30 3472 H 330.522 -0.0268758 0.73651 0
M  V30 3473 H 333.164 0.622015 1.7953 0
M  V30 3474 H 331.314 -0.853412 3.79011 0
M  V30 3475 H 332.986 1.70902 4.28474 0
M  V30 3476 H 331.229 1.6714 4.00308 0
M  V30 3477 H 331.9 0.904088 5.44546 0
M  V30 3478 H 334.376 -0.504214 4.13034 0
M  V30 3479 H 333.252 -1.10381 5.37687 0
M  V30 3480 H 333.513 -2.04731 3.91839 0
M  V30 3481 N 332.573 -1.56217 0.208337 0
M  V30 3482 C 333.523 -2.16324 -0.720281 0
M  V30 3483 C 334.507 -1.10775 -1.16695 0
M  V30 3484 O 335.699 -1.36801 -1.12314 0
M  V30 3485 C 332.828 -2.83644 -1.93393 0
M  V30 3486 C 331.914 -3.96401 -1.50755 0
M  V30 3487 N 332.305 -4.99546 -0.792937 0
M  V30 3488 C 330.603 -4.08246 -1.79585 0
M  V30 3489 C 331.304 -5.78828 -0.577364 0
M  V30 3490 N 330.28 -5.31723 -1.1301 0
M  V30 3491 H 334.082 -2.93432 -0.165725 0
M  V30 3492 H 331.596 -1.62397 0.00906463 0
M  V30 3493 H 333.593 -3.25107 -2.60981 0
M  V30 3494 H 332.253 -2.08027 -2.49308 0
M  V30 3495 H 333.264 -5.15967 -0.447004 0
M  V30 3496 H 329.941 -3.4377 -2.36915 0
M  V30 3497 H 331.331 -6.71899 -0.00952956 0
M  V30 3498 N 334.051 0.0651679 -1.57465 0
M  V30 3499 C 335.297 0.764193 -1.87851 0
M  V30 3500 C 335.63 1.76889 -0.801495 0
M  V30 3501 O 334.905 1.93594 0.187528 0
M  V30 3502 C 335.188 1.46625 -3.28897 0
M  V30 3503 C 335.041 0.477515 -4.47258 0
M  V30 3504 C 336.36 2.4095 -3.68281 0
M  V30 3505 H 333.479 0.276351 -0.683227 0
M  V30 3506 H 336.121 0.0272868 -1.8998 0
M  V30 3507 H 334.271 2.09438 -3.27212 0
M  V30 3508 H 335.943 -0.145922 -4.61069 0
M  V30 3509 H 334.186 -0.206576 -4.33308 0
M  V30 3510 H 334.857 1.0065 -5.42746 0
M  V30 3511 H 337.333 1.88209 -3.71102 0
M  V30 3512 H 336.209 2.87072 -4.67847 0
M  V30 3513 H 336.47 3.26049 -2.98571 0
M  V30 3514 N 335.529 1.53961 0.336706 0
M  V30 3515 C 336.492 1.81724 1.39675 0
M  V30 3516 C 337.492 0.688532 1.45313 0
M  V30 3517 O 338.682 0.956829 1.45569 0
M  V30 3518 C 335.814 1.96543 2.78538 0
M  V30 3519 H 337.007 2.76424 1.16318 0
M  V30 3520 H 334.56 1.45478 0.571474 0
M  V30 3521 H 335.295 1.0401 3.07168 0
M  V30 3522 H 335.08 2.78665 2.75841 0
M  V30 3523 H 336.57 2.19516 3.5525 0
M  V30 3524 N 337.007 -0.598083 1.45811 0
M  V30 3525 C 338.253 -1.35882 1.50545 0
M  V30 3526 C 338.586 -1.93616 0.150445 0
M  V30 3527 O 337.861 -1.75604 -0.83628 0
M  V30 3528 C 338.144 -2.49966 2.59208 0
M  V30 3529 C 337.997 -1.97367 4.04186 0
M  V30 3530 C 339.316 -3.52068 2.64076 0
M  V30 3531 H 336.435 -0.492717 0.548087 0
M  V30 3532 H 339.077 -0.673319 1.77669 0
M  V30 3533 H 337.227 -3.08443 2.3621 0
M  V30 3534 H 338.899 -1.43466 4.38423 0
M  V30 3535 H 337.142 -1.283 4.14393 0
M  V30 3536 H 337.813 -2.79649 4.75921 0
M  V30 3537 H 340.289 -3.03448 2.84708 0
M  V30 3538 H 339.165 -4.2937 3.41954 0
M  V30 3539 H 339.426 -4.08304 1.69531 0
M  V30 3540 N 338.485 -1.33259 -0.841409 0
M  V30 3541 C 339.731 -1.24757 -1.59886 0
M  V30 3542 C 340.064 0.186913 -1.93298 0
M  V30 3543 O 339.339 1.12757 -1.5848 0
M  V30 3544 C 339.622 -2.12036 -2.91055 0
M  V30 3545 C 339.475 -3.63929 -2.6434 0
M  V30 3546 C 340.794 -1.9916 -3.92458 0
M  V30 3547 H 337.913 -0.454542 -0.580138 0
M  V30 3548 H 340.555 -1.63335 -0.970647 0
M  V30 3549 H 338.705 -1.79265 -3.44669 0
M  V30 3550 H 340.377 -4.06978 -2.17178 0
M  V30 3551 H 338.62 -3.85935 -1.98082 0
M  V30 3552 H 339.291 -4.20341 -3.57796 0
M  V30 3553 H 341.767 -2.27895 -3.48143 0
M  V30 3554 H 340.643 -2.62484 -4.82072 0
M  V30 3555 H 340.904 -0.963082 -4.31482 0
M  V30 3556 N 339.963 1.05934 -1.16686 0
M  V30 3557 C 341.209 1.79065 -0.95203 0
M  V30 3558 C 341.542 1.87147 0.518629 0
M  V30 3559 O 340.817 1.36574 1.38484 0
M  V30 3560 C 341.1 3.23359 -1.58464 0
M  V30 3561 C 340.953 3.23336 -3.12689 0
M  V30 3562 C 342.272 4.21004 -1.28232 0
M  V30 3563 H 339.391 0.65005 -0.34728 0
M  V30 3564 H 342.033 1.23868 -1.44072 0
M  V30 3565 H 340.183 3.70493 -1.16908 0
M  V30 3566 H 341.855 2.84336 -3.6325 0
M  V30 3567 H 340.098 2.61886 -3.4583 0
M  V30 3568 H 340.769 4.25144 -3.52075 0
M  V30 3569 H 343.245 3.8233 -1.64203 0
M  V30 3570 H 342.121 5.20225 -1.75092 0
M  V30 3571 H 342.382 4.41639 -0.201791 0
M  V30 3572 N 341.441 0.965919 1.2453 0
M  V30 3573 C 342.857 0.67216 1.44756 0
M  V30 3574 C 343.057 -0.766609 1.86347 0
M  V30 3575 O 342.113 -1.5407 2.00047 0
M  V30 3576 C 343.426 1.65473 2.51076 0
M  V30 3577 C 344.974 1.66716 2.64905 0
M  V30 3578 C 345.449 2.63766 3.74421 0
M  V30 3579 N 346.94 2.62198 3.81846 0
M  V30 3580 C 347.675 3.33966 4.66106 0
M  V30 3581 N 347.171 4.15245 5.54566 0
M  V30 3582 N 348.964 3.22799 4.60171 0
M  V30 3583 H 341.115 1.89553 0.958293 0
M  V30 3584 H 343.378 0.815979 0.482579 0
M  V30 3585 H 343.084 2.68296 2.27399 0
M  V30 3586 H 342.958 1.4261 3.49202 0
M  V30 3587 H 345.345 0.646057 2.87941 0
M  V30 3588 H 345.426 1.93642 1.67142 0
M  V30 3589 H 345.07 3.6601 3.52135 0
M  V30 3590 H 345 2.34121 4.71694 0
M  V30 3591 H 347.491 2.032 3.18619 0
M  V30 3592 H 347.804 4.66898 6.15814 0
M  V30 3593 H 346.149 4.1934 5.54237 0
M  V30 3594 H 349.34 2.58764 3.90075 0
M  V30 3595 H 349.513 3.78994 5.25612 0
M  V30 3596 N 342.919 -1.39368 0.735821 0
M  V30 3597 C 344.33 -1.83313 0.354015 0
M  V30 3598 C 344.681 -1.61461 -1.11466 0
M  V30 3599 O 343.806 -1.10621 -1.85989 0
M  V30 3600 C 344.401 -3.32781 0.635769 0
M  V30 3601 C 342.96 -3.75142 0.307448 0
M  V30 3602 C 342.107 -2.62358 0.897974 0
M  V30 3603 H 345.058 -1.28349 0.933398 0
M  V30 3604 H 345.079 -3.80388 -0.0921773 0
M  V30 3605 H 344.591 -3.48654 1.70476 0
M  V30 3606 H 342.692 -3.64857 -0.755674 0
M  V30 3607 H 342.805 -4.72532 0.790583 0
M  V30 3608 H 341.169 -2.52624 0.324551 0
M  V30 3609 H 341.952 -2.81036 1.97164 0
M  V30 3610 N 344.397 -0.483516 -1.5 0
M  V30 3611 C 345.645 0.067027 -2.01989 0
M  V30 3612 C 345.966 1.3909 -1.36671 0
M  V30 3613 O 345.236 1.88978 -0.516152 0
M  V30 3614 H 343.816 0.0277606 -0.746484 0
M  V30 3615 H 346.478 -0.636773 -1.84204 0
M  V30 3616 H 345.574 0.209484 -3.11396 0
M  V30 3617 N 345.875 1.56104 -0.216619 0
M  V30 3618 C 346.823 2.21434 0.712036 0
M  V30 3619 C 347.817 1.19218 1.20348 0
M  V30 3620 O 349.023 1.3731 1.16387 0
M  V30 3621 H 345.398 0.70992 0.248026 0
M  V30 3622 H 347.369 2.98083 0.137558 0
M  V30 3623 C 346.118 2.90434 1.91163 0
M  V30 3624 H 345.441 3.68842 1.54258 0
M  V30 3625 H 346.881 3.39552 2.5393 0
M  V30 3626 C 345.34 1.92635 2.76394 0
M  V30 3627 O 345.87 1.44017 3.74996 0
M  V30 3628 N 344.076 1.60392 2.42328 0
M  V30 3629 H 343.623 2.00122 1.622 0
M  V30 3630 H 343.581 0.952159 2.99635 0
M  V30 3631 N 347.353 -0.0568162 1.57498 0
M  V30 3632 C 348.316 -1.05038 2.03715 0
M  V30 3633 C 349.316 -1.30709 0.936577 0
M  V30 3634 O 350.506 -1.26178 1.20103 0
M  V30 3635 C 347.638 -2.39034 2.43055 0
M  V30 3636 H 348.831 -0.651715 2.92733 0
M  V30 3637 H 346.384 -0.302947 1.53336 0
M  V30 3638 H 347.119 -2.83703 1.57108 0
M  V30 3639 H 346.904 -2.21739 3.2338 0
M  V30 3640 H 348.394 -3.10421 2.79336 0
M  V30 3641 N 348.832 -1.54138 -0.328536 0
M  V30 3642 C 350.08 -1.71765 -1.06496 0
M  V30 3643 C 350.401 -0.49149 -1.88704 0
M  V30 3644 O 349.671 0.494539 -1.89555 0
M  V30 3645 H 348.251 -0.633295 -0.396164 0
M  V30 3646 H 350.913 -1.91429 -0.366176 0
M  V30 3647 H 350.009 -2.5951 -1.73381 0
M  V30 3648 N 350.31 0.590341 -1.46126 0
M  V30 3649 C 351.24 1.71032 -1.58966 0
M  V30 3650 C 352.221 1.64302 -0.440335 0
M  V30 3651 O 353.406 1.82436 -0.665634 0
M  V30 3652 C 350.536 3.09665 -1.57241 0
M  V30 3653 C 349.49 3.31221 -2.71066 0
M  V30 3654 C 348.816 4.70303 -2.54399 0
M  V30 3655 C 350.116 3.19796 -4.1295 0
M  V30 3656 H 351.81 1.60543 -2.52718 0
M  V30 3657 H 349.356 0.770933 -1.21625 0
M  V30 3658 H 351.309 3.87831 -1.64819 0
M  V30 3659 H 350.033 3.21036 -0.600289 0
M  V30 3660 H 348.692 2.55452 -2.62944 0
M  V30 3661 H 348.34 4.78429 -1.55288 0
M  V30 3662 H 348.04 4.85679 -3.30741 0
M  V30 3663 H 349.564 5.50647 -2.63857 0
M  V30 3664 H 350.978 3.87815 -4.22223 0
M  V30 3665 H 349.375 3.46696 -4.89818 0
M  V30 3666 H 350.445 2.16983 -4.33643 0
M  V30 3667 N 351.788 1.33704 0.83433 0
M  V30 3668 C 353.016 1.28467 1.62185 0
M  V30 3669 C 353.431 -0.143526 1.88254 0
M  V30 3670 O 352.788 -1.08709 1.4659 0
M  V30 3671 C 352.839 2.06174 2.96942 0
M  V30 3672 O 352.56 3.43422 2.72016 0
M  V30 3673 C 354.061 2.08201 3.91366 0
M  V30 3674 H 351.281 0.4424 0.504503 0
M  V30 3675 H 353.825 1.76145 1.03891 0
M  V30 3676 H 351.98 1.62167 3.51825 0
M  V30 3677 H 352.394 3.83453 3.57861 0
M  V30 3678 H 353.868 2.67017 4.83121 0
M  V30 3679 H 354.345 1.07343 4.2588 0
M  V30 3680 H 354.951 2.52246 3.42421 0
M  V30 3681 N 353.266 -1.05314 1.17247 0
M  V30 3682 C 354.543 -1.75184 0.87005 0
M  V30 3683 C 354.923 -2.01481 -0.629965 0
M  V30 3684 O 354.271 -1.64988 -1.58086 0
M  V30 3685 C 354.481 -3.04594 1.70363 0
M  V30 3686 C 355.829 -3.78567 1.92281 0
M  V30 3687 O 356.853 -3.14461 1.67311 0
M  V30 3688 O 355.712 -4.93755 2.3424 0
M  V30 3689 H 352.806 -0.761729 0.322021 0
M  V30 3690 H 355.352 -1.11493 1.27935 0
M  V30 3691 H 354.124 -2.81201 2.72106 0
M  V30 3692 H 353.747 -3.76022 1.29202 0
M  V30 3693 N 354.744 -0.972509 -1.24016 0
M  V30 3694 C 356.021 -0.553733 -1.87598 0
M  V30 3695 C 356.401 0.969158 -1.87538 0
M  V30 3696 O 355.749 1.84255 -1.35139 0
M  V30 3697 C 355.959 -1.15076 -3.29482 0
M  V30 3698 C 357.307 -1.23862 -4.06132 0
M  V30 3699 O 358.331 -1.10363 -3.38672 0
M  V30 3700 O 357.19 -1.45252 -5.26844 0
M  V30 3701 H 354.284 -0.185331 -0.805966 0
M  V30 3702 H 356.83 -1.06709 -1.31952 0
M  V30 3703 H 355.602 -2.19333 -3.2405 0
M  V30 3704 H 355.225 -0.621746 -3.92709 0
M  V30 3705 N 356.222 1.38976 -0.743202 0
M  V30 3706 C 357.132 2.3434 -0.110399 0
M  V30 3707 C 358.148 1.58741 0.712559 0
M  V30 3708 O 359.324 1.9099 0.639125 0
M  V30 3709 C 356.389 3.37812 0.780012 0
M  V30 3710 C 355.45 4.29263 -0.0561319 0
M  V30 3711 C 354.683 5.27793 0.791875 0
M  V30 3712 O 354.906 5.33043 2.03031 0
M  V30 3713 O 353.84 6.01512 0.216183 0
M  V30 3714 H 357.666 2.90129 -0.897714 0
M  V30 3715 H 355.251 1.40643 -0.503966 0
M  V30 3716 H 357.133 4.01194 1.28923 0
M  V30 3717 H 355.808 2.84395 1.546 0
M  V30 3718 H 354.715 3.69076 -0.611056 0
M  V30 3719 H 356.048 4.85907 -0.784531 0
M  V30 3720 N 357.7 0.491464 1.49741 0
M  V30 3721 C 358.647 -0.292027 2.28945 0
M  V30 3722 C 359.617 -0.968973 1.34908 0
M  V30 3723 O 360.802 -0.97748 1.6386 0
M  V30 3724 C 357.942 -1.35617 3.17336 0
M  V30 3725 C 357.055 -0.691957 4.26422 0
M  V30 3726 C 356.19 -1.73572 5.02042 0
M  V30 3727 C 355.229 -1.05286 6.02977 0
M  V30 3728 N 354.366 -2.0404 6.71798 0
M  V30 3729 H 359.206 0.389654 2.95442 0
M  V30 3730 H 356.743 0.204003 1.45679 0
M  V30 3731 H 358.701 -1.98502 3.66951 0
M  V30 3732 H 357.331 -2.00674 2.52844 0
M  V30 3733 H 356.383 0.0499523 3.80367 0
M  V30 3734 H 357.695 -0.153946 4.98562 0
M  V30 3735 H 356.849 -2.43987 5.55478 0
M  V30 3736 H 355.588 -2.30757 4.29654 0
M  V30 3737 H 354.593 -0.334446 5.48782 0
M  V30 3738 H 355.818 -0.487636 6.77347 0
M  V30 3739 H 353.764 -2.60205 6.02187 0
M  V30 3740 H 353.681 -1.55279 7.39881 0
M  V30 3741 H 354.949 -2.73772 7.29842 0
M  V30 3742 N 359.178 -1.55987 0.224894 0
M  V30 3743 C 360.406 -2.02784 -0.410665 0
M  V30 3744 C 360.821 -1.10464 -1.53112 0
M  V30 3745 O 360.178 -0.114871 -1.82138 0
M  V30 3746 C 360.229 -3.49087 -0.939165 0
M  V30 3747 O 359.95 -4.37887 0.136614 0
M  V30 3748 C 361.451 -4.11543 -1.64763 0
M  V30 3749 H 358.671 -0.663484 -0.100148 0
M  V30 3750 H 361.215 -2.01614 0.342326 0
M  V30 3751 H 359.37 -3.50861 -1.64242 0
M  V30 3752 H 359.784 -5.23849 -0.261155 0
M  V30 3753 H 361.258 -5.15673 -1.96939 0
M  V30 3754 H 361.735 -3.56736 -2.56195 0
M  V30 3755 H 362.341 -4.13629 -0.989503 0
M  V30 3756 N 360.656 0.0484629 -1.57525 0
M  V30 3757 C 361.886 0.754326 -1.92337 0
M  V30 3758 C 362.294 1.70443 -0.82132 0
M  V30 3759 O 361.637 1.82466 0.21254 0
M  V30 3760 C 361.699 1.58231 -3.22805 0
M  V30 3761 C 361.363 0.799074 -4.4996 0
M  V30 3762 C 362.36 0.1079 -5.19788 0
M  V30 3763 C 360.045 0.759345 -4.96527 0
M  V30 3764 C 362.039 -0.612516 -6.3445 0
M  V30 3765 C 359.726 0.0351713 -6.1109 0
M  V30 3766 C 360.724 -0.649537 -6.79904 0
M  V30 3767 O 360.412 -1.36199 -7.92278 0
M  V30 3768 H 360.144 0.218257 -0.639797 0
M  V30 3769 H 362.698 0.0159295 -2.05394 0
M  V30 3770 H 360.928 2.36406 -3.06021 0
M  V30 3771 H 362.617 2.16898 -3.43089 0
M  V30 3772 H 363.383 0.129748 -4.84826 0
M  V30 3773 H 359.262 1.28177 -4.42822 0
M  V30 3774 H 362.806 -1.14751 -6.88097 0
M  V30 3775 H 358.703 0.0113314 -6.45499 0
M  V30 3776 H 359.471 -1.27366 -8.0853 0
M  V30 3777 N 362.134 1.5431 0.320358 0
M  V30 3778 C 363.364 1.7638 1.07582 0
M  V30 3779 C 363.772 0.513944 1.82086 0
M  V30 3780 O 363.115 -0.525123 1.76035 0
M  V30 3781 C 363.177 2.9055 2.1171 0
M  V30 3782 C 362.841 4.2934 1.56575 0
M  V30 3783 C 363.838 5.10077 1.00586 0
M  V30 3784 C 361.523 4.75893 1.60722 0
M  V30 3785 C 363.517 6.35477 0.494756 0
M  V30 3786 C 361.204 6.0126 1.09224 0
M  V30 3787 C 362.202 6.80886 0.53696 0
M  V30 3788 O 361.89 8.03894 0.0297371 0
M  V30 3789 H 361.622 0.592369 0.325692 0
M  V30 3790 H 364.176 2.02019 0.37116 0
M  V30 3791 H 362.406 2.60489 2.85801 0
M  V30 3792 H 364.095 3.00373 2.73003 0
M  V30 3793 H 364.861 4.75265 0.966869 0
M  V30 3794 H 360.74 4.13957 2.02882 0
M  V30 3795 H 364.284 6.97574 0.0606842 0
M  V30 3796 H 360.181 6.35562 1.12831 0
M  V30 3797 H 360.949 8.18372 0.14486 0
M  V30 3798 N 363.613 -0.582584 1.46437 0
M  V30 3799 C 364.838 -1.37168 1.55563 0
M  V30 3800 C 365.263 -1.87061 0.19743 0
M  V30 3801 O 364.621 -1.61572 -0.822451 0
M  V30 3802 C 364.669 -2.53511 2.56446 0
M  V30 3803 O 363.773 -3.54953 2.09958 0
M  V30 3804 H 363.114 -0.408494 0.523477 0
M  V30 3805 H 365.644 -0.706646 1.9201 0
M  V30 3806 H 365.654 -3.00426 2.76058 0
M  V30 3807 H 364.329 -2.16549 3.55076 0
M  V30 3808 H 362.906 -3.14516 2.00334 0
M  V30 3809 N 365.091 -1.34144 -0.827227 0
M  V30 3810 C 366.021 -1.28005 -1.95287 0
M  V30 3811 C 367.002 -0.158321 -1.69362 0
M  V30 3812 O 368.187 -0.349987 -1.9102 0
M  V30 3813 C 365.317 -1.03036 -3.31664 0
M  V30 3814 C 364.271 -2.11628 -3.72019 0
M  V30 3815 C 363.597 -1.71854 -5.0633 0
M  V30 3816 C 364.897 -3.53417 -3.8457 0
M  V30 3817 H 366.591 -2.22187 -2.00682 0
M  V30 3818 H 364.137 -1.0696 -0.964135 0
M  V30 3819 H 366.09 -0.973863 -4.09993 0
M  V30 3820 H 364.814 -0.0529391 -3.26557 0
M  V30 3821 H 363.473 -2.16339 -2.95961 0
M  V30 3822 H 363.121 -0.727841 -4.97706 0
M  V30 3823 H 362.821 -2.44531 -5.34302 0
M  V30 3824 H 364.345 -1.67692 -5.87122 0
M  V30 3825 H 365.759 -3.51142 -4.5318 0
M  V30 3826 H 364.156 -4.24679 -4.2399 0
M  V30 3827 H 365.226 -3.91072 -2.86689 0
M  V30 3828 N 366.569 1.04691 -1.17803 0
M  V30 3829 C 367.818 1.77176 -0.963931 0
M  V30 3830 C 368.131 1.88888 0.508015 0
M  V30 3831 O 369.337 2.58164 0.840465 0
M  V30 3832 C 367.793 3.18518 -1.67555 0
M  V30 3833 C 367.401 3.14919 -3.18637 0
M  V30 3834 C 369.145 3.95424 -1.54402 0
M  V30 3835 C 367.052 4.51081 -3.82466 0
M  V30 3836 H 365.982 0.664116 -0.357023 0
M  V30 3837 H 368.633 1.17303 -1.4111 0
M  V30 3838 H 367.015 3.78748 -1.15613 0
M  V30 3839 H 368.189 2.64178 -3.77554 0
M  V30 3840 H 366.504 2.51512 -3.31859 0
M  V30 3841 H 369.101 4.96106 -1.99456 0
M  V30 3842 H 369.444 4.13343 -0.495329 0
M  V30 3843 H 369.977 3.41754 -2.0359 0
M  V30 3844 H 366.716 4.38368 -4.87354 0
M  V30 3845 H 366.236 5.01951 -3.28337 0
M  V30 3846 H 367.915 5.2001 -3.84965 0
M  V30 3847 N 368.047 0.979072 1.23499 0
M  V30 3848 C 369.275 0.665202 1.95915 0
M  V30 3849 C 369.69 -0.767571 1.72493 0
M  V30 3850 O 369.047 -1.51635 1.01554 0
M  V30 3851 C 369.098 0.944438 3.48945 0
M  V30 3852 O 368.819 2.3209 3.71572 0
M  V30 3853 C 370.32 0.646336 4.38563 0
M  V30 3854 H 367.54 0.247218 0.623798 0
M  V30 3855 H 370.084 1.31009 1.57025 0
M  V30 3856 H 368.239 0.345575 3.85856 0
M  V30 3857 H 368.653 2.40957 4.65876 0
M  V30 3858 H 370.127 0.892091 5.44744 0
M  V30 3859 H 370.604 -0.419575 4.37191 0
M  V30 3860 H 371.21 1.22562 4.07258 0
M  V30 3861 N 369.525 -1.3858 0.750561 0
M  V30 3862 C 370.75 -2.04997 0.314812 0
M  V30 3863 C 371.175 -1.56235 -1.04749 0
M  V30 3864 O 370.533 -0.712981 -1.66692 0
M  V30 3865 C 370.581 -3.58961 0.343415 0
M  V30 3866 O 369.685 -4.07025 -0.663628 0
M  V30 3867 H 369.026 -0.649081 0.139962 0
M  V30 3868 H 371.556 -1.77313 1.02084 0
M  V30 3869 H 371.566 -4.07542 0.193233 0
M  V30 3870 H 370.241 -3.93811 1.33738 0
M  V30 3871 H 368.818 -3.6982 -0.478307 0
M  V30 3872 N 371.003 -0.499398 -1.49478 0
M  V30 3873 C 372.25 0.0456899 -2.02448 0
M  V30 3874 C 372.578 1.37142 -1.37921 0
M  V30 3875 O 371.833 1.89111 -0.503544 0
M  V30 3876 C 372.132 0.248424 -3.56536 0
M  V30 3877 C 371.798 -0.999107 -4.39692 0
M  V30 3878 C 370.46 -1.34108 -4.62135 0
M  V30 3879 C 372.812 -1.82842 -4.88076 0
M  V30 3880 C 370.14 -2.51191 -5.30208 0
M  V30 3881 C 372.492 -2.99076 -5.57437 0
M  V30 3882 C 371.156 -3.33655 -5.78127 0
M  V30 3883 H 370.426 0.0167191 -0.740811 0
M  V30 3884 H 373.073 -0.65923 -1.79795 0
M  V30 3885 H 371.378 1.03586 -3.77859 0
M  V30 3886 H 373.075 0.684605 -3.95113 0
M  V30 3887 H 369.665 -0.722729 -4.22463 0
M  V30 3888 H 373.849 -1.57737 -4.70566 0
M  V30 3889 H 369.105 -2.78221 -5.44429 0
M  V30 3890 H 373.279 -3.63664 -5.93904 0
M  V30 3891 H 370.906 -4.24483 -6.30649 0
M  V30 3892 N 372.481 1.55866 -0.233164 0
M  V30 3893 C 373.706 2.03449 0.402906 0
M  V30 3894 C 374.131 1.11166 1.51736 0
M  V30 3895 O 373.489 0.101996 1.81013 0
M  V30 3896 C 373.537 3.49165 0.9009 0
M  V30 3897 O 372.641 3.60019 2.01147 0
M  V30 3898 H 371.982 0.657913 0.0897025 0
M  V30 3899 H 374.512 2.01493 -0.355201 0
M  V30 3900 H 374.522 3.89716 1.2077 0
M  V30 3901 H 373.197 4.15813 0.0852889 0
M  V30 3902 H 371.774 3.3136 1.71042 0
M  V30 3903 N 373.959 -0.0401083 1.57549 0
M  V30 3904 C 374.869 -1.06133 2.0922 0
M  V30 3905 C 375.885 -1.40356 1.0284 0
M  V30 3906 O 377.061 -1.49897 1.34509 0
M  V30 3907 C 374.126 -2.34658 2.55218 0
M  V30 3908 C 373.187 -2.07117 3.76033 0
M  V30 3909 C 372.42 -3.29514 4.19829 0
M  V30 3910 O 372.643 -4.39794 3.63232 0
M  V30 3911 O 371.577 -3.15863 5.12362 0
M  V30 3912 H 375.403 -0.652244 2.96613 0
M  V30 3913 H 372.988 -0.256368 1.47184 0
M  V30 3914 H 374.87 -3.10239 2.85184 0
M  V30 3915 H 373.545 -2.74883 1.70941 0
M  V30 3916 H 372.452 -1.29139 3.51104 0
M  V30 3917 H 373.785 -1.71754 4.61261 0
M  V30 3918 N 375.437 -1.54477 -0.31217 0
M  V30 3919 C 376.367 -1.87652 -1.38957 0
M  V30 3920 C 377.348 -0.734358 -1.53431 0
M  V30 3921 O 378.533 -0.98911 -1.67123 0
M  V30 3922 C 375.663 -2.11396 -2.75552 0
M  V30 3923 C 374.617 -3.27243 -2.75855 0
M  V30 3924 C 373.943 -3.36382 -4.15633 0
M  V30 3925 C 375.243 -4.64622 -2.38587 0
M  V30 3926 H 376.937 -2.77887 -1.11442 0
M  V30 3927 H 374.483 -1.33707 -0.534655 0
M  V30 3928 H 376.436 -2.33189 -3.51 0
M  V30 3929 H 375.16 -1.17921 -3.04569 0
M  V30 3930 H 373.819 -3.05356 -2.02863 0
M  V30 3931 H 373.467 -2.40445 -4.41809 0
M  V30 3932 H 373.167 -4.14249 -4.1674 0
M  V30 3933 H 374.691 -3.60422 -4.92877 0
M  V30 3934 H 376.105 -4.86219 -3.03749 0
M  V30 3935 H 374.502 -5.45121 -2.50925 0
M  V30 3936 H 375.572 -4.66097 -1.33723 0
M  V30 3937 N 376.915 0.57481 -1.46744 0
M  V30 3938 C 378.145 1.35659 -1.55821 0
M  V30 3939 C 378.553 1.88129 -0.201036 0
M  V30 3940 O 377.896 1.64723 0.813134 0
M  V30 3941 C 377.958 2.57473 -2.50894 0
M  V30 3942 C 377.622 2.26415 -3.9697 0
M  V30 3943 C 378.619 1.84771 -4.85958 0
M  V30 3944 C 376.304 2.38316 -4.42166 0
M  V30 3945 C 378.298 1.55434 -6.18158 0
M  V30 3946 C 375.985 2.08591 -5.74398 0
M  V30 3947 C 376.983 1.67216 -6.62214 0
M  V30 3948 O 376.671 1.37859 -7.91991 0
M  V30 3949 H 376.403 0.420496 -0.529301 0
M  V30 3950 H 378.957 0.704967 -1.92923 0
M  V30 3951 H 377.187 3.25468 -2.08824 0
M  V30 3952 H 378.876 3.19546 -2.50291 0
M  V30 3953 H 379.642 1.75085 -4.52295 0
M  V30 3954 H 375.521 2.69483 -3.74032 0
M  V30 3955 H 379.065 1.23065 -6.86659 0
M  V30 3956 H 374.962 2.17905 -6.07608 0
M  V30 3957 H 375.73 1.51638 -8.04331 0
M  V30 3958 N 378.394 1.34581 0.820102 0
M  V30 3959 C 379.324 1.29038 1.94606 0
M  V30 3960 C 380.305 0.1673 1.69275 0
M  V30 3961 O 381.49 0.360112 1.90832 0
M  V30 3962 C 378.62 1.04793 3.31113 0
M  V30 3963 C 377.574 2.13597 3.70891 0
M  V30 3964 C 376.9 1.74537 5.05412 0
M  V30 3965 C 378.2 3.55451 3.8269 0
M  V30 3966 H 379.894 2.23248 1.99501 0
M  V30 3967 H 377.44 1.0747 0.958449 0
M  V30 3968 H 379.393 0.995592 4.0947 0
M  V30 3969 H 378.117 0.0702565 3.26524 0
M  V30 3970 H 376.776 2.17905 2.9481 0
M  V30 3971 H 376.424 0.754226 4.97313 0
M  V30 3972 H 376.124 2.47361 5.32997 0
M  V30 3973 H 377.648 1.70803 5.86224 0
M  V30 3974 H 379.062 3.5354 4.51312 0
M  V30 3975 H 377.459 4.26922 4.21732 0
M  V30 3976 H 378.529 3.92587 2.84611 0
M  V30 3977 N 379.872 -1.04064 1.18357 0
M  V30 3978 C 381.283 -1.58719 0.98312 0
M  V30 3979 C 381.634 -1.90556 -0.467193 0
M  V30 3980 O 380.759 -1.69561 -1.34454 0
M  V30 3981 C 381.354 -2.88379 1.77828 0
M  V30 3982 C 379.913 -3.3965 1.62218 0
M  V30 3983 C 379.06 -2.13235 1.77274 0
M  V30 3984 H 382.011 -0.867359 1.32901 0
M  V30 3985 H 382.032 -3.58773 1.26737 0
M  V30 3986 H 381.544 -2.65176 2.83379 0
M  V30 3987 H 379.645 -3.67866 0.592036 0
M  V30 3988 H 379.758 -4.13475 2.42023 0
M  V30 3989 H 378.122 -2.24542 1.20221 0
M  V30 3990 H 378.905 -1.92487 2.8426 0
M  V30 3991 N 381.35 -0.985608 -1.22978 0
M  V30 3992 C 382.575 -0.675254 -1.961 0
M  V30 3993 C 383 0.752154 -1.72407 0
M  V30 3994 O 382.358 1.5131 -0.998751 0
M  V30 3995 C 382.406 -0.977899 -3.47087 0
M  V30 3996 O 381.51 -0.072685 -4.12336 0
M  V30 3997 H 380.851 -0.253443 -0.613728 0
M  V30 3998 H 383.381 -1.32061 -1.56272 0
M  V30 3999 H 383.391 -0.916739 -3.97567 0
M  V30 4000 H 382.066 -2.01807 -3.63657 0
M  V30 4001 H 380.643 -0.188703 -3.72422 0
M  V30 4002 N 382.828 1.3818 -0.7579 0
M  V30 4003 C 384.053 2.04827 -0.325679 0
M  V30 4004 C 384.478 1.56788 1.03919 0
M  V30 4005 O 383.836 0.721811 1.66312 0
M  V30 4006 C 383.884 3.58774 -0.362447 0
M  V30 4007 O 382.988 4.07372 0.642033 0
M  V30 4008 H 382.329 0.64833 -0.143402 0
M  V30 4009 H 384.859 1.7677 -1.03023 0
M  V30 4010 H 384.869 4.07434 -0.214844 0
M  V30 4011 H 383.544 3.93096 -1.35824 0
M  V30 4012 H 382.121 3.70068 0.458688 0
M  V30 4013 N 384.306 0.507319 1.49211 0
M  V30 4014 C 385.534 -0.0315749 2.06876 0
M  V30 4015 C 385.949 -1.30241 1.36685 0
M  V30 4016 O 385.306 -1.76937 0.447152 0
M  V30 4017 C 385.357 -0.282627 3.60393 0
M  V30 4018 O 385.078 0.937835 4.27944 0
M  V30 4019 C 386.579 -0.864453 4.3479 0
M  V30 4020 H 383.799 0.0233048 0.670595 0
M  V30 4021 H 386.343 0.706484 1.91909 0
M  V30 4022 H 384.498 -0.97068 3.75042 0
M  V30 4023 H 384.912 0.704567 5.19746 0
M  V30 4024 H 386.386 -0.989664 5.43056 0
M  V30 4025 H 386.863 -1.86382 3.97692 0
M  V30 4026 H 387.469 -0.213672 4.24763 0
M  V30 4027 O 385.823 -1.56889 0.38316 0
M  V30 4028 H 386.514 -1.93009 -0.163415 0
M  V30 END ATOM
M  V30 BEGIN BOND
M  V30 END BOND
M  V30 END CTAB
M  END
$$$$
