drugbank_target|Q00266 S-adenosylmethionine synthase isoform type-1 (DB00118; DB03191; DB03611)
 OpenBabel12092119313D

  0  0  0     0  0            999 V3000
M  V30 BEGIN CTAB
M  V30 COUNTS 6109 6169 0 0 0
M  V30 BEGIN ATOM
M  V30 1 H -0.908 1.98254 -0.117106 0
M  V30 2 N 0 1.576 0 0
M  V30 3 C 0.933 2.03868 1.02534 0
M  V30 4 C 1.911 0.928543 1.3348 0
M  V30 5 O 3.095 1.19667 1.45644 0
M  V30 6 C 0.222 2.43627 2.35294 0
M  V30 7 C -0.732 3.65373 2.2001 0
M  V30 8 S 0.101 5.13292 1.52614 0
M  V30 9 C 1.257 5.56322 2.86805 0
M  V30 10 H 1.49 2.90518 0.631377 0
M  V30 11 H -0.977 1.52953 0.210867 0
M  V30 12 H 0.981 2.67203 3.11629 0
M  V30 13 H -0.358 1.57376 2.7183 0
M  V30 14 H -1.165 3.90944 3.18086 0
M  V30 15 H -1.563 3.418 1.51819 0
M  V30 16 H 0.729 5.58782 3.83104 0
M  V30 17 H 1.672 6.56266 2.65933 0
M  V30 18 H 2.08 4.83886 2.90714 0
M  V30 19 N 1.4781 -0.272755 1.55222 0
M  V30 20 C 2.4261 -1.35705 1.88909 0
M  V30 21 C 3.4201 -1.5112 0.765456 0
M  V30 22 O 4.6261 -1.52901 0.949802 0
M  V30 23 H 1.0011 -0.453868 0.59959 0
M  V30 24 H 2.9721 -1.04544 2.79487 0
M  V30 25 C 1.7211 -2.71049 2.17779 0
M  V30 26 H 1.0441 -2.59979 3.03728 0
M  V30 27 H 2.4841 -3.45858 2.45272 0
M  V30 28 C 0.9431 -3.22165 0.985473 0
M  V30 29 O 1.4731 -4.01096 0.220233 0
M  V30 30 N -0.3209 -2.7985 0.783108 0
M  V30 31 H -0.7739 -2.15775 1.40708 0
M  V30 32 H -0.8159 -3.14397 -0.0130392 0
M  V30 33 N 2.9562 -1.48159 -0.537278 0
M  V30 34 C 4.2042 -1.55497 -1.29094 0
M  V30 35 C 4.5252 -0.227454 -1.93669 0
M  V30 36 O 3.7952 0.750386 -1.80959 0
M  V30 37 H 2.3752 -0.572832 -0.47945 0
M  V30 38 H 5.0372 -1.84579 -0.625818 0
M  V30 39 H 4.1332 -2.33216 -2.07405 0
M  V30 40 N 4.4343 0.785586 -1.36625 0
M  V30 41 C 5.8453 1.36101 -1.27803 0
M  V30 42 C 6.1963 1.96035 0.0804875 0
M  V30 43 O 5.3213 1.92834 0.982042 0
M  V30 44 C 5.9163 2.47442 -2.31426 0
M  V30 45 C 4.4753 3.00789 -2.26281 0
M  V30 46 C 3.6223 1.73896 -2.15999 0
M  V30 47 H 6.5733 0.586928 -1.47448 0
M  V30 48 H 6.5943 3.2656 -1.95291 0
M  V30 49 H 6.1063 2.03791 -3.30289 0
M  V30 50 H 4.2073 3.48851 -1.30896 0
M  V30 51 H 4.3203 3.57343 -3.19128 0
M  V30 52 H 2.6843 1.9628 -1.62316 0
M  V30 53 H 3.4673 1.32368 -3.16755 0
M  V30 54 N 5.9124 1.20967 1.01018 0
M  V30 55 C 7.1584 1.02526 1.74975 0
M  V30 56 C 7.4914 -0.4408 1.89131 0
M  V30 57 O 6.7664 -1.32718 1.42184 0
M  V30 58 C 7.0494 1.71699 3.1653 0
M  V30 59 C 6.9024 3.25791 3.10129 0
M  V30 60 C 8.2214 1.45531 4.15342 0
M  V30 61 H 5.3404 0.373863 0.635134 0
M  V30 62 H 7.9824 1.49071 1.17805 0
M  V30 63 H 6.1324 1.32128 3.65341 0
M  V30 64 H 7.8044 3.74697 2.69072 0
M  V30 65 H 6.0474 3.56363 2.47362 0
M  V30 66 H 6.7184 3.69353 4.10222 0
M  V30 67 H 9.1944 1.79872 3.75213 0
M  V30 68 H 8.0704 1.96453 5.1254 0
M  V30 69 H 8.3314 0.384237 4.40427 0
M  V30 70 N 7.3905 -1.2043 1.01659 0
M  V30 71 C 8.6675 -1.8548 0.621004 0
M  V30 72 C 9.0475 -1.9091 -0.900919 0
M  V30 73 O 8.3955 -1.41694 -1.79263 0
M  V30 74 C 8.6055 -3.25119 1.2688 0
M  V30 75 C 9.9535 -4.01403 1.38423 0
M  V30 76 O 10.9775 -3.34473 1.22501 0
M  V30 77 O 9.8365 -5.21265 1.64151 0
M  V30 78 H 6.9305 -0.798761 0.214266 0
M  V30 79 H 9.4765 -1.28019 1.11396 0
M  V30 80 H 8.2485 -3.15932 2.30873 0
M  V30 81 H 7.8715 -3.90212 0.762917 0
M  V30 82 N 8.8686 -0.792821 -1.36206 0
M  V30 83 C 10.1166 -0.366062 -1.98757 0
M  V30 84 C 10.4376 1.0668 -1.63231 0
M  V30 85 O 9.7076 1.73587 -0.907978 0
M  V30 86 H 8.2876 -0.132364 -0.735179 0
M  V30 87 H 10.9496 -1.01562 -1.66347 0
M  V30 88 H 10.0456 -0.460638 -3.08682 0
M  V30 89 N 10.3467 1.47872 -0.545128 0
M  V30 90 C 11.2767 2.32661 0.197793 0
M  V30 91 C 12.2577 1.43041 0.920504 0
M  V30 92 O 13.4427 1.71912 0.90333 0
M  V30 93 C 10.5727 3.24569 1.23582 0
M  V30 94 C 9.5267 4.23333 0.630323 0
M  V30 95 C 8.8527 5.0448 1.77211 0
M  V30 96 C 10.1527 5.20704 -0.407974 0
M  V30 97 H 11.8467 2.95024 -0.510045 0
M  V30 98 H 9.3927 1.4187 -0.246731 0
M  V30 99 H 11.3457 3.8272 1.76362 0
M  V30 100 H 10.0697 2.60236 1.97344 0
M  V30 101 H 8.7287 3.6639 0.123922 0
M  V30 102 H 8.3767 4.36561 2.49847 0
M  V30 103 H 8.0767 5.71339 1.37281 0
M  V30 104 H 9.6007 5.65487 2.3034 0
M  V30 105 H 11.0147 5.7329 0.033305 0
M  V30 106 H 9.4117 5.95699 -0.725486 0
M  V30 107 H 10.4817 4.66917 -1.30828 0
M  V30 108 N 11.8248 0.280983 1.55075 0
M  V30 109 C 13.0648 -0.335234 2.01632 0
M  V30 110 C 13.4288 -1.5261 1.16508 0
M  V30 111 O 14.6298 -2.21235 1.52672 0
M  V30 112 C 12.9008 -0.702172 3.50434 0
M  V30 113 S 14.4598 -1.30409 4.18974 0
M  V30 114 H 11.2778 -0.103967 0.703358 0
M  V30 115 H 13.8798 0.404187 1.91276 0
M  V30 116 H 12.5838 0.17333 4.10034 0
M  V30 117 H 12.1148 -1.4729 3.64786 0
M  V30 118 H 14.1298 -2.59253 4.23087 0
M  V30 119 N 13.3029 -1.57598 0.00835791 0
M  V30 120 C 14.5799 -1.82172 -0.712235 0
M  V30 121 C 14.9599 -0.887873 -1.9152 0
M  V30 122 O 14.3079 0.06146 -2.28417 0
M  V30 123 C 14.5179 -3.30875 -1.11008 0
M  V30 124 C 15.8659 -3.96826 -1.51044 0
M  V30 125 O 16.8899 -3.35248 -1.20364 0
M  V30 126 O 15.7489 -5.05318 -2.08125 0
M  V30 127 H 12.8429 -0.750435 -0.347529 0
M  V30 128 H 15.3889 -1.69665 0.0344523 0
M  V30 129 H 14.1609 -3.90481 -0.252982 0
M  V30 130 H 13.7839 -3.48412 -1.9156 0
M  V30 131 N 14.781 0.264519 -1.55364 0
M  V30 132 C 15.731 1.32966 -1.85214 0
M  V30 133 C 16.715 1.44306 -0.711653 0
M  V30 134 O 17.907 1.47844 -0.973192 0
M  V30 135 C 15.036 2.68839 -2.13495 0
M  V30 136 C 14.122 2.61575 -3.33825 0
M  V30 137 N 14.513 2.23933 -4.53528 0
M  V30 138 C 12.811 2.92621 -3.36584 0
M  V30 139 C 13.512 2.26868 -5.35636 0
M  V30 140 N 12.488 2.65677 -4.74254 0
M  V30 141 H 16.29 1.02884 -2.75304 0
M  V30 142 H 13.804 0.473157 -1.55354 0
M  V30 143 H 15.801 3.45685 -2.33039 0
M  V30 144 H 14.461 2.99802 -1.24694 0
M  V30 145 H 15.472 1.95769 -4.79474 0
M  V30 146 H 12.149 3.2824 -2.58002 0
M  V30 147 H 13.539 2.00254 -6.41364 0
M  V30 148 N 16.2591 1.48442 0.529413 0
M  V30 149 C 17.4841 1.60406 1.31471 0
M  V30 150 C 17.9091 0.264738 1.86228 0
M  V30 151 O 17.2671 -0.763668 1.64432 0
M  V30 152 C 17.3151 2.65419 2.44101 0
M  V30 153 O 16.4191 2.22618 3.47153 0
M  V30 154 H 15.7601 0.537863 0.389357 0
M  V30 155 H 18.2901 1.94432 0.636965 0
M  V30 156 H 18.3001 2.86709 2.90279 0
M  V30 157 H 16.9751 3.62652 2.03608 0
M  V30 158 H 15.5521 2.11543 3.0709 0
M  V30 159 N 17.7372 -0.778329 1.37039 0
M  V30 160 C 18.6672 -1.90546 1.34962 0
M  V30 161 C 19.6482 -1.68681 0.219274 0
M  V30 162 O 20.8332 -1.89634 0.418624 0
M  V30 163 C 17.9632 -3.27734 1.14925 0
M  V30 164 C 16.9172 -3.64147 2.24902 0
M  V30 165 C 16.2432 -4.99806 1.89996 0
M  V30 166 C 17.5432 -3.71579 3.67051 0
M  V30 167 H 19.2372 -1.92541 2.29277 0
M  V30 168 H 16.7832 -0.924948 1.10366 0
M  V30 169 H 18.7362 -4.06215 1.12104 0
M  V30 170 H 17.4602 -3.26154 0.170631 0
M  V30 171 H 16.1192 -2.8797 2.26868 0
M  V30 172 H 15.7672 -4.94759 0.906796 0
M  V30 173 H 15.4672 -5.25139 2.63634 0
M  V30 174 H 16.9912 -5.80694 1.88749 0
M  V30 175 H 18.4052 -4.40227 3.67251 0
M  V30 176 H 16.8022 -4.08405 4.39688 0
M  V30 177 H 17.8722 -2.72404 4.01154 0
M  V30 178 N 19.2153 -1.21501 -1.00376 0
M  V30 179 C 20.4403 -1.05977 -1.78279 0
M  V30 180 C 20.8653 0.385994 -1.84097 0
M  V30 181 O 20.2233 1.27849 -1.28547 0
M  V30 182 C 20.2713 -1.66302 -3.19963 0
M  V30 183 O 19.3753 -0.909333 -4.0225 0
M  V30 184 H 18.7163 -0.372906 -0.549397 0
M  V30 185 H 21.2463 -1.6107 -1.26165 0
M  V30 186 H 21.2563 -1.70574 -3.70632 0
M  V30 187 H 19.9313 -2.71515 -3.15043 0
M  V30 188 H 18.5083 -0.941795 -3.60811 0
M  V30 189 N 20.6934 1.19889 -1.02296 0
M  V30 190 C 21.6034 2.26571 -0.608508 0
M  V30 191 C 22.6194 1.70299 0.356964 0
M  V30 192 O 23.7954 2.00235 0.216326 0
M  V30 193 C 20.8604 3.46677 0.0402814 0
M  V30 194 C 19.9214 4.18153 -0.97194 0
M  V30 195 C 19.1544 5.32525 -0.354016 0
M  V30 196 O 19.3774 5.64112 0.844604 0
M  V30 197 O 18.3114 5.92242 -1.07391 0
M  V30 198 H 22.1374 2.64251 -1.49684 0
M  V30 199 H 19.7224 1.26629 -0.792809 0
M  V30 200 H 21.6044 4.19475 0.402324 0
M  V30 201 H 20.2794 3.10858 0.902707 0
M  V30 202 H 19.1864 3.47499 -1.38546 0
M  V30 203 H 20.5194 4.57927 -1.80454 0
M  V30 204 N 22.1715 0.800033 1.35784 0
M  V30 205 C 23.4195 0.376597 1.9856 0
M  V30 206 C 23.7405 -1.05812 1.63795 0
M  V30 207 O 23.0105 -1.73103 0.917171 0
M  V30 208 H 21.5905 0.136261 0.734467 0
M  V30 209 H 24.2525 1.02442 1.65806 0
M  V30 210 H 23.3485 0.477002 3.08433 0
M  V30 211 N 23.6496 -1.47581 0.552962 0
M  V30 212 C 24.8956 -2.02782 0.0273648 0
M  V30 213 C 25.2286 -1.42687 -1.31734 0
M  V30 214 O 24.5036 -0.580897 -1.85623 0
M  V30 215 C 24.7866 -3.60031 -0.0702371 0
M  V30 216 C 24.6396 -4.30566 1.30126 0
M  V30 217 C 25.9586 -4.33028 -0.785771 0
M  V30 218 H 23.0776 -0.736912 0.0114185 0
M  V30 219 H 25.7196 -1.76056 0.714432 0
M  V30 220 H 23.8696 -3.82932 -0.655382 0
M  V30 221 H 25.5416 -4.19018 1.92929 0
M  V30 222 H 23.7846 -3.91086 1.87709 0
M  V30 223 H 24.4556 -5.39114 1.18573 0
M  V30 224 H 26.9316 -4.15095 -0.288982 0
M  V30 225 H 25.8076 -5.42695 -0.823013 0
M  V30 226 H 26.0686 -4.01945 -1.841 0
M  V30 227 N 25.1277 -0.289203 -1.54924 0
M  V30 228 C 26.3747 0.323519 -1.99899 0
M  V30 229 C 26.7027 1.54797 -1.17762 0
M  V30 230 O 25.9577 1.94237 -0.238835 0
M  V30 231 C 26.2567 0.736119 -3.49737 0
M  V30 232 C 25.9227 -0.385276 -4.49251 0
M  V30 233 C 24.5847 -0.693156 -4.76181 0
M  V30 234 C 26.9367 -1.14021 -5.08575 0
M  V30 235 C 24.2647 -1.7593 -5.59701 0
M  V30 236 C 26.6167 -2.19619 -5.93254 0
M  V30 237 C 25.2807 -2.51026 -6.185 0
M  V30 238 H 24.5507 0.118384 -0.731482 0
M  V30 239 H 27.1977 -0.405847 -1.8715 0
M  V30 240 H 25.5027 1.54539 -3.60035 0
M  V30 241 H 27.1997 1.22118 -3.81953 0
M  V30 242 H 23.7897 -0.135202 -4.28387 0
M  V30 243 H 27.9737 -0.915611 -4.87781 0
M  V30 244 H 23.2297 -2.0075 -5.77503 0
M  V30 245 H 27.4037 -2.78581 -6.38252 0
M  V30 246 H 25.0307 -3.33772 -6.83008 0
M  V30 247 N 26.6058 1.57591 -0.0167156 0
M  V30 248 C 27.5388 2.04944 1.00366 0
M  V30 249 C 28.5168 0.942648 1.32487 0
M  V30 250 O 29.7008 1.21205 1.44367 0
M  V30 251 C 26.8278 2.46109 2.32697 0
M  V30 252 C 25.8738 3.67686 2.16123 0
M  V30 253 S 26.7068 5.14882 1.47161 0
M  V30 254 C 27.8628 5.59332 2.80888 0
M  V30 255 H 28.0958 2.91172 0.600528 0
M  V30 256 H 25.6288 1.53168 0.194632 0
M  V30 257 H 27.5868 2.70493 3.08778 0
M  V30 258 H 26.2478 1.6025 2.70146 0
M  V30 259 H 25.4408 3.94296 3.13922 0
M  V30 260 H 25.0428 3.43391 1.48185 0
M  V30 261 H 27.3348 5.62814 3.77156 0
M  V30 262 H 28.2778 6.5905 2.58958 0
M  V30 263 H 28.6858 4.86942 2.85565 0
M  V30 264 N 28.0839 -0.256276 1.55502 0
M  V30 265 C 29.3309 -0.985619 1.76895 0
M  V30 266 C 29.6589 -1.85671 0.579355 0
M  V30 267 O 28.9139 -1.90744 -0.437651 0
M  V30 268 C 29.2129 -1.88432 3.03691 0
M  V30 269 C 28.8789 -1.16936 4.35473 0
M  V30 270 C 27.5409 -0.97173 4.71286 0
M  V30 271 C 29.8929 -0.661889 5.1698 0
M  V30 272 C 27.2209 -0.254179 5.86149 0
M  V30 273 C 29.5729 0.042149 6.32586 0
M  V30 274 C 28.2369 0.25134 6.67027 0
M  V30 275 H 27.5069 -0.360663 0.647304 0
M  V30 276 H 30.1539 -0.256483 1.89775 0
M  V30 277 H 28.4589 -2.68021 2.85783 0
M  V30 278 H 30.1559 -2.45015 3.1744 0
M  V30 279 H 26.7459 -1.33332 4.07333 0
M  V30 280 H 30.9299 -0.802145 4.89775 0
M  V30 281 H 26.1859 -0.0815408 6.11346 0
M  V30 282 H 30.3599 0.443049 6.94989 0
M  V30 283 H 27.9869 0.809314 7.5588 0
M  V30 284 N 29.562 -1.4872 -0.521534 0
M  V30 285 C 30.79 -1.60843 -1.30142 0
M  V30 286 C 31.205 -0.271897 -1.86832 0
M  V30 287 O 30.562 0.739969 -1.66825 0
M  V30 288 C 30.613 -2.66155 -2.4463 0
M  V30 289 O 30.334 -3.94623 -1.90275 0
M  V30 290 C 31.835 -2.88795 -3.36322 0
M  V30 291 H 29.055 -0.542075 -0.395468 0
M  V30 292 H 31.599 -1.94609 -0.628285 0
M  V30 293 H 29.754 -2.35224 -3.07812 0
M  V30 294 H 30.168 -4.52468 -2.65279 0
M  V30 295 H 31.642 -3.66264 -4.12983 0
M  V30 296 H 32.119 -1.97934 -3.9207 0
M  V30 297 H 32.725 -3.21063 -2.78924 0
M  V30 298 N 31.0401 0.771051 -1.3745 0
M  V30 299 C 32.2651 1.56529 -1.36065 0
M  V30 300 C 32.6901 1.88029 0.0515859 0
M  V30 301 O 32.0481 1.49282 1.02882 0
M  V30 302 C 32.0961 2.85187 -2.20683 0
M  V30 303 O 31.2001 3.79593 -1.61193 0
M  V30 304 H 30.5411 0.47411 -0.464883 0
M  V30 305 H 33.0711 0.954269 -1.80983 0
M  V30 306 H 33.0811 3.34283 -2.33921 0
M  V30 307 H 31.7561 2.61588 -3.23334 0
M  V30 308 H 30.3331 3.38239 -1.56999 0
M  V30 309 N 32.5182 1.22032 0.997298 0
M  V30 310 C 33.4282 1.00271 2.12092 0
M  V30 311 C 34.4442 -0.047621 1.73935 0
M  V30 312 O 35.6202 0.144136 2.00884 0
M  V30 313 C 32.6852 0.578449 3.4184 0
M  V30 314 C 31.7462 1.70189 3.94125 0
M  V30 315 C 30.9792 1.29778 5.17681 0
M  V30 316 O 31.2022 0.174676 5.70132 0
M  V30 317 O 30.1362 2.11261 5.63607 0
M  V30 318 H 33.9622 1.94398 2.3333 0
M  V30 319 H 31.5472 1.00587 1.10465 0
M  V30 320 H 33.4292 0.351998 4.19927 0
M  V30 321 H 32.1042 -0.334019 3.21972 0
M  V30 322 H 31.0112 1.98282 3.1723 0
M  V30 323 H 32.3442 2.59206 4.18417 0
M  V30 324 N 33.9963 -1.19345 1.0293 0
M  V30 325 C 35.2213 -1.93538 0.745511 0
M  V30 326 C 35.6463 -1.75007 -0.689511 0
M  V30 327 O 35.0043 -1.05265 -1.47611 0
M  V30 328 C 35.0523 -3.43336 1.10239 0
M  V30 329 O 34.1563 -4.11806 0.221289 0
M  V30 330 H 33.4973 -0.604193 0.275404 0
M  V30 331 H 36.0273 -1.5141 1.37609 0
M  V30 332 H 36.0373 -3.94004 1.05947 0
M  V30 333 H 34.7123 -3.56146 2.14786 0
M  V30 334 H 33.2893 -3.715 0.322842 0
M  V30 335 N 35.4744 -0.807222 -1.35358 0
M  V30 336 C 36.7204 -0.388463 -1.99045 0
M  V30 337 C 37.0534 1.04184 -1.63888 0
M  V30 338 O 36.3284 1.72292 -0.902535 0
M  V30 339 C 36.6114 -0.572783 -3.55515 0
M  V30 340 C 36.4644 -2.04807 -4.00468 0
M  V30 341 C 37.7834 0.00114064 -4.401 0
M  V30 342 H 34.9024 -0.142619 -0.723069 0
M  V30 343 H 37.5444 -1.01687 -1.60498 0
M  V30 344 H 35.6944 -0.0378425 -3.88482 0
M  V30 345 H 37.3664 -2.64544 -3.77908 0
M  V30 346 H 35.6094 -2.54427 -3.51353 0
M  V30 347 H 36.2804 -2.12792 -5.09337 0
M  V30 348 H 38.7564 -0.455716 -4.13597 0
M  V30 349 H 37.6324 -0.157737 -5.48673 0
M  V30 350 H 37.8934 1.09488 -4.28328 0
M  V30 351 N 36.9525 1.47285 -0.560781 0
M  V30 352 C 38.2005 2.02064 -0.0379868 0
M  V30 353 C 38.5215 1.43711 1.31803 0
M  V30 354 O 37.7915 0.61362 1.86042 0
M  V30 355 H 36.3715 0.746918 -0.0110531 0
M  V30 356 H 39.0335 1.80648 -0.731598 0
M  V30 357 H 38.1295 3.12064 0.0474463 0
M  V30 358 N 38.4306 0.297415 1.54768 0
M  V30 359 C 39.3406 -0.58983 2.27064 0
M  V30 360 C 40.3566 -1.15144 1.30453 0
M  V30 361 O 41.5326 -1.17699 1.63428 0
M  V30 362 C 38.5976 -1.74714 2.9946 0
M  V30 363 C 37.6586 -1.21997 4.11601 0
M  V30 364 C 36.8916 -2.32212 4.80535 0
M  V30 365 O 37.1146 -3.52036 4.48806 0
M  V30 366 O 36.0486 -1.99106 5.68014 0
M  V30 367 H 39.8746 -0.00348199 3.037 0
M  V30 368 H 37.4596 0.0640035 1.49263 0
M  V30 369 H 39.3416 -2.42147 3.44881 0
M  V30 370 H 38.0166 -2.32016 2.25722 0
M  V30 371 H 36.9236 -0.511458 3.70587 0
M  V30 372 H 38.2566 -0.692419 4.87305 0
M  V30 373 N 39.9087 -1.5758 0.0250728 0
M  V30 374 C 41.1567 -1.91255 -0.653151 0
M  V30 375 C 41.4777 -0.901691 -1.729 0
M  V30 376 O 40.7477 0.0573785 -1.95816 0
M  V30 377 H 39.3277 -0.705942 -0.244243 0
M  V30 378 H 41.9897 -1.94767 0.0719209 0
M  V30 379 H 41.0857 -2.91752 -1.10847 0
M  V30 380 N 41.3868 0.248026 -1.55636 0
M  V30 381 C 42.3368 1.30994 -1.86614 0
M  V30 382 C 43.3208 1.43543 -0.726918 0
M  V30 383 O 44.5128 1.46804 -0.988818 0
M  V30 384 C 41.6418 2.6656 -2.16335 0
M  V30 385 C 40.7278 2.58019 -3.36581 0
M  V30 386 N 41.1188 2.1911 -4.55878 0
M  V30 387 C 39.4168 2.89035 -3.39669 0
M  V30 388 C 40.1178 2.21174 -5.38012 0
M  V30 389 N 39.0938 2.60632 -4.77045 0
M  V30 390 H 42.8958 0.999583 -2.76379 0
M  V30 391 H 40.4098 0.456652 -1.55848 0
M  V30 392 H 42.4068 3.43194 -2.36692 0
M  V30 393 H 41.0668 2.98463 -1.27867 0
M  V30 394 H 42.0778 1.90672 -4.81523 0
M  V30 395 H 38.7548 3.25485 -2.61469 0
M  V30 396 H 40.1448 1.9344 -6.43452 0
M  V30 397 N 42.8649 1.48995 0.513639 0
M  V30 398 C 44.2759 1.5119 1.09537 0
M  V30 399 C 44.6269 0.290906 1.94031 0
M  V30 400 O 43.7519 -0.60049 2.07902 0
M  V30 401 C 44.3469 2.73964 1.99322 0
M  V30 402 C 42.9059 2.78978 2.52682 0
M  V30 403 C 42.0529 2.44934 1.30009 0
M  V30 404 H 45.0039 1.55875 0.298125 0
M  V30 405 H 45.0249 2.53409 2.83838 0
M  V30 406 H 44.5369 3.62813 1.37799 0
M  V30 407 H 42.6379 1.94378 3.1788 0
M  V30 408 H 42.7509 3.8083 2.90698 0
M  V30 409 H 41.1149 1.9644 1.62122 0
M  V30 410 H 41.8979 3.36043 0.702131 0
M  V30 411 N 44.343 -0.763751 1.37857 0
M  V30 412 C 45.62 -1.51244 1.24035 0
M  V30 413 C 46 -2.10472 -0.162649 0
M  V30 414 O 45.348 -1.96206 -1.17112 0
M  V30 415 C 45.558 -2.58694 2.34261 0
M  V30 416 C 46.906 -3.25878 2.72193 0
M  V30 417 O 47.93 -2.68993 2.33497 0
M  V30 418 O 46.789 -4.2874 3.38887 0
M  V30 419 H 43.883 -0.670243 0.484462 0
M  V30 420 H 46.429 -0.800031 1.49658 0
M  V30 421 H 45.201 -2.13105 3.2818 0
M  V30 422 H 44.824 -3.37527 2.10146 0
M  V30 423 N 45.8211 -1.22559 -0.990812 0
M  V30 424 C 46.7681 -0.997519 -2.0813 0
M  V30 425 C 47.7381 0.0814702 -1.659 0
M  V30 426 O 48.9231 -0.0685424 -1.90677 0
M  V30 427 C 46.0631 -0.583615 -3.40129 0
M  V30 428 C 45.1761 -1.7336 -3.9569 0
M  V30 429 C 44.3111 -1.26748 -5.15857 0
M  V30 430 C 43.3501 -2.38888 -5.63559 0
M  V30 431 N 42.4871 -1.93308 -6.74964 0
M  V30 432 H 47.3271 -1.93099 -2.26973 0
M  V30 433 H 44.8641 -0.962114 -1.11273 0
M  V30 434 H 46.8221 -0.324801 -4.15934 0
M  V30 435 H 45.4521 0.312845 -3.2128 0
M  V30 436 H 44.5041 -2.10669 -3.16738 0
M  V30 437 H 45.8161 -2.57704 -4.27071 0
M  V30 438 H 44.9701 -0.966173 -5.98957 0
M  V30 439 H 43.7091 -0.394272 -4.86104 0
M  V30 440 H 42.7141 -2.69805 -4.79046 0
M  V30 441 H 43.9391 -3.26728 -5.95336 0
M  V30 442 H 41.8851 -1.08352 -6.4699 0
M  V30 443 H 41.8021 -2.71217 -7.05675 0
M  V30 444 H 43.0701 -1.66252 -7.61564 0
M  V30 445 N 47.2992 1.18797 -1.03562 0
M  V30 446 C 48.5482 1.87978 -0.731235 0
M  V30 447 C 48.8612 1.80911 0.743671 0
M  V30 448 O 50.0672 2.45407 1.16137 0
M  V30 449 C 48.5232 3.3721 -1.25768 0
M  V30 450 C 48.1312 3.52818 -2.76085 0
M  V30 451 C 49.8752 4.11825 -1.0296 0
M  V30 452 C 47.7822 4.9598 -3.22114 0
M  V30 453 H 46.7122 0.704063 -0.269835 0
M  V30 454 H 49.3632 1.34266 -1.25079 0
M  V30 455 H 47.7452 3.90359 -0.666011 0
M  V30 456 H 48.9192 3.09965 -3.40966 0
M  V30 457 H 47.2342 2.91602 -2.97249 0
M  V30 458 H 49.8312 5.17411 -1.34869 0
M  V30 459 H 50.1742 4.16287 0.0333546 0
M  V30 460 H 50.7072 3.64833 -1.58562 0
M  V30 461 H 47.4462 4.96684 -4.27768 0
M  V30 462 H 46.9662 5.39569 -2.61965 0
M  V30 463 H 48.6452 5.6467 -3.15844 0
M  V30 464 N 48.7773 0.814389 1.34928 0
M  V30 465 C 50.0173 0.404165 2.00364 0
M  V30 466 C 50.3813 -1.01166 1.63185 0
M  V30 467 O 51.5823 -1.52431 2.21401 0
M  V30 468 C 49.8533 0.590718 3.52484 0
M  V30 469 S 51.4123 0.272075 4.37956 0
M  V30 470 H 48.2303 0.15311 0.694319 0
M  V30 471 H 50.8323 1.05834 1.64376 0
M  V30 472 H 49.5363 1.62099 3.77031 0
M  V30 473 H 49.0673 -0.0785013 3.93322 0
M  V30 474 H 51.0823 -0.917405 4.87645 0
M  V30 475 N 50.2554 -1.46986 0.568584 0
M  V30 476 C 51.5324 -1.95592 -0.0174074 0
M  V30 477 C 51.9124 -1.51124 -1.47393 0
M  V30 478 O 51.2604 -0.755329 -2.15655 0
M  V30 479 C 51.4704 -3.48719 0.139913 0
M  V30 480 C 52.8184 -4.246 0.000426376 0
M  V30 481 O 53.8424 -3.56135 0.0680316 0
M  V30 482 O 52.7014 -5.46302 -0.146988 0
M  V30 483 H 49.7954 -0.82498 -0.0577599 0
M  V30 484 H 52.3414 -1.57335 0.635909 0
M  V30 485 H 51.1134 -3.73927 1.15301 0
M  V30 486 H 50.7364 -3.93771 -0.550491 0
M  V30 487 N 51.7335 -0.305618 -1.54608 0
M  V30 488 C 52.6655 0.602161 -2.21149 0
M  V30 489 C 53.6785 1.09394 -1.20569 0
M  V30 490 O 54.8675 1.0106 -1.47136 0
M  V30 491 C 51.9675 1.83692 -2.84799 0
M  V30 492 C 51.1405 1.48686 -4.11353 0
M  V30 493 C 50.1995 2.57725 -4.58764 0
M  V30 494 O 49.2255 2.22623 -5.23858 0
M  V30 495 N 50.4275 3.88346 -4.31471 0
M  V30 496 H 53.1925 0.0324966 -2.99682 0
M  V30 497 H 50.7535 -0.128021 -1.61393 0
M  V30 498 H 52.7455 2.55994 -3.13448 0
M  V30 499 H 51.3155 2.31486 -2.10078 0
M  V30 500 H 50.5355 0.596269 -3.89664 0
M  V30 501 H 51.8235 1.22842 -4.93748 0
M  V30 502 H 51.2215 4.19671 -3.79331 0
M  V30 503 H 49.7785 4.56932 -4.64818 0
M  V30 504 N 53.2116 1.57565 -0.0334293 0
M  V30 505 C 54.4606 1.91155 0.643639 0
M  V30 506 C 54.7736 0.91192 1.73042 0
M  V30 507 O 55.9796 1.13923 2.46442 0
M  V30 508 C 54.4356 3.39443 1.1961 0
M  V30 509 C 54.0436 4.47774 0.142381 0
M  V30 510 C 55.7876 3.82094 1.84944 0
M  V30 511 C 53.6946 5.87162 0.706727 0
M  V30 512 H 52.6246 0.713368 0.244176 0
M  V30 513 H 55.2756 1.8323 -0.0994323 0
M  V30 514 H 53.6576 3.42313 1.99092 0
M  V30 515 H 54.8316 4.56469 -0.630296 0
M  V30 516 H 53.1466 4.14352 -0.412446 0
M  V30 517 H 55.7436 4.83591 2.2813 0
M  V30 518 H 56.0866 3.17386 2.69392 0
M  V30 519 H 56.6196 3.81665 1.12145 0
M  V30 520 H 53.3586 6.55424 -0.0997178 0
M  V30 521 H 52.8786 5.82064 1.44779 0
M  V30 522 H 54.5576 6.35866 1.19514 0
M  V30 523 N 54.6897 -0.239769 1.55765 0
M  V30 524 C 55.9147 -0.988373 1.82335 0
M  V30 525 C 56.3397 -1.77886 0.611421 0
M  V30 526 O 55.6977 -1.75889 -0.439639 0
M  V30 527 C 55.7457 -1.89627 3.06715 0
M  V30 528 O 54.8497 -2.98904 2.84131 0
M  V30 529 H 54.1907 -0.280858 0.601677 0
M  V30 530 H 56.7207 -0.258597 2.02959 0
M  V30 531 H 56.7307 -2.30957 3.36338 0
M  V30 532 H 55.4057 -1.31511 3.9456 0
M  V30 533 H 53.9827 -2.61651 2.65694 0
M  V30 534 N 56.1678 -1.49265 -0.50573 0
M  V30 535 C 57.4448 -1.49012 -1.26707 0
M  V30 536 C 57.8248 -0.215205 -2.1 0
M  V30 537 O 57.1728 0.802547 -2.13943 0
M  V30 538 C 57.3828 -2.7663 -2.12783 0
M  V30 539 C 58.7308 -3.25932 -2.72127 0
M  V30 540 O 59.7548 -2.77715 -2.23054 0
M  V30 541 O 58.6138 -4.09897 -3.61451 0
M  V30 542 H 55.7078 -0.596197 -0.57313 0
M  V30 543 H 58.2538 -1.61524 -0.52039 0
M  V30 544 H 57.0258 -3.60916 -1.5118 0
M  V30 545 H 56.6488 -2.66956 -2.94653 0
M  V30 546 N 57.6459 0.756429 -1.3826 0
M  V30 547 C 58.6089 1.85176 -1.35065 0
M  V30 548 C 59.6089 1.58818 -0.251703 0
M  V30 549 O 60.7989 1.66615 -0.508433 0
M  V30 550 C 57.9309 3.22596 -1.10201 0
M  V30 551 H 59.1239 1.89417 -2.3251 0
M  V30 552 H 56.6769 0.95783 -1.23512 0
M  V30 553 H 57.4119 3.24025 -0.133504 0
M  V30 554 H 57.1969 3.43122 -1.89762 0
M  V30 555 H 58.6869 4.02673 -1.10654 0
M  V30 556 N 59.124 1.23083 0.984299 0
M  V30 557 C 60.37 1.06214 1.72761 0
M  V30 558 C 60.703 -0.400584 1.90024 0
M  V30 559 O 59.978 -1.29672 1.44967 0
M  V30 560 C 60.261 1.78375 3.12817 0
M  V30 561 C 60.114 3.32296 3.03149 0
M  V30 562 C 61.433 1.54309 4.12161 0
M  V30 563 H 58.552 0.387251 0.627061 0
M  V30 564 H 61.194 1.51536 1.14616 0
M  V30 565 H 59.344 1.39848 3.62457 0
M  V30 566 H 61.016 3.8032 2.61064 0
M  V30 567 H 59.259 3.6153 2.39747 0
M  V30 568 H 59.93 3.77972 4.02295 0
M  V30 569 H 62.406 1.87791 3.71314 0
M  V30 570 H 61.282 2.07281 5.08258 0
M  V30 571 H 61.543 0.477572 4.39513 0
M  V30 572 N 60.6021 -1.18246 1.0419 0
M  V30 573 C 61.5321 -2.24127 0.654914 0
M  V30 574 C 62.5131 -1.66617 -0.342451 0
M  V30 575 O 63.6981 -1.92924 -0.222277 0
M  V30 576 C 60.8281 -3.47295 0.0183757 0
M  V30 577 C 59.7821 -4.17563 0.939414 0
M  V30 578 C 59.1081 -5.34438 0.167286 0
M  V30 579 C 60.4081 -4.70917 2.25908 0
M  V30 580 H 62.1021 -2.56753 1.54007 0
M  V30 581 H 59.6481 -1.23414 0.74195 0
M  V30 582 H 61.6011 -4.20572 -0.264082 0
M  V30 583 H 60.3251 -3.13907 -0.901664 0
M  V30 584 H 58.9841 -3.46186 1.20628 0
M  V30 585 H 58.6321 -4.97298 -0.7552 0
M  V30 586 H 58.3321 -5.82388 0.780901 0
M  V30 587 H 59.8561 -6.10504 -0.108125 0
M  V30 588 H 61.2701 -5.35882 2.03724 0
M  V30 589 H 59.6671 -5.29406 2.82577 0
M  V30 590 H 60.7371 -3.88272 2.9047 0
M  V30 591 N 62.0802 -0.821533 -1.34494 0
M  V30 592 C 63.3572 -0.33159 -1.92769 0
M  V30 593 C 63.7372 1.18088 -1.74981 0
M  V30 594 O 63.0852 1.98733 -1.12772 0
M  V30 595 C 63.2952 -0.759398 -3.40638 0
M  V30 596 C 64.6432 -0.757433 -4.1779 0
M  V30 597 O 65.6672 -0.70189 -3.49216 0
M  V30 598 O 64.5262 -0.829361 -5.4017 0
M  V30 599 H 61.6202 -0.0902502 -0.822061 0
M  V30 600 H 64.1662 -0.906231 -1.43477 0
M  V30 601 H 62.9382 -1.8012 -3.47379 0
M  V30 602 H 62.5612 -0.160378 -3.97276 0
M  V30 603 N 63.5583 1.46682 -0.576371 0
M  V30 604 C 64.5213 2.28707 0.150239 0
M  V30 605 C 65.5213 1.38035 0.824794 0
M  V30 606 O 66.7113 1.60476 0.677719 0
M  V30 607 C 63.8433 3.18248 1.22192 0
M  V30 608 H 65.0363 2.94423 -0.570521 0
M  V30 609 H 62.5893 1.52688 -0.334078 0
M  V30 610 H 63.3243 2.57265 1.97447 0
M  V30 611 H 63.1093 3.85 0.742812 0
M  V30 612 H 64.5993 3.80001 1.73172 0
M  V30 613 N 65.0364 0.313813 1.54444 0
M  V30 614 C 65.9864 -0.571898 2.20711 0
M  V30 615 C 66.9704 -1.08913 1.18435 0
M  V30 616 O 68.1624 -1.02777 1.44104 0
M  V30 617 C 65.2914 -1.7371 2.96108 0
M  V30 618 C 64.3774 -1.23522 4.05713 0
M  V30 619 N 64.7684 -0.452288 5.03774 0
M  V30 620 C 63.0664 -1.51482 4.19487 0
M  V30 621 C 63.7674 -0.183438 5.81411 0
M  V30 622 N 62.7434 -0.766845 5.38164 0
M  V30 623 H 66.5454 0.0336802 2.93881 0
M  V30 624 H 64.0594 0.119192 1.61962 0
M  V30 625 H 66.0564 -2.38329 3.4206 0
M  V30 626 H 64.7164 -2.34625 2.24458 0
M  V30 627 H 65.7274 -0.0960131 5.17811 0
M  V30 628 H 62.4044 -2.13053 3.59047 0
M  V30 629 H 63.7944 0.446216 6.70417 0
M  V30 630 N 66.5145 -1.57545 0.0417849 0
M  V30 631 C 67.4445 -2.14009 -0.933929 0
M  V30 632 C 68.4255 -1.05938 -1.33083 0
M  V30 633 O 69.6105 -1.33833 -1.40721 0
M  V30 634 C 66.7405 -2.67747 -2.21199 0
M  V30 635 C 65.6945 -3.80718 -1.95544 0
M  V30 636 C 65.0205 -4.20935 -3.29724 0
M  V30 637 C 66.3205 -5.06258 -1.28452 0
M  V30 638 H 68.0145 -2.95788 -0.463645 0
M  V30 639 H 65.5605 -1.42285 -0.221573 0
M  V30 640 H 67.5135 -3.05886 -2.89848 0
M  V30 641 H 66.2375 -1.83147 -2.70416 0
M  V30 642 H 64.8965 -3.43037 -1.2931 0
M  V30 643 H 64.5445 -3.33298 -3.76724 0
M  V30 644 H 64.2445 -4.9707 -3.13361 0
M  V30 645 H 65.7685 -4.61666 -3.9962 0
M  V30 646 H 67.1825 -5.41903 -1.8712 0
M  V30 647 H 65.5795 -5.87475 -1.22445 0
M  V30 648 H 66.6495 -4.84207 -0.259219 0
M  V30 649 N 67.9926 0.231505 -1.5589 0
M  V30 650 C 68.9396 1.28682 -1.91598 0
M  V30 651 C 69.9096 1.47071 -0.771974 0
M  V30 652 O 71.0946 1.60802 -1.027 0
M  V30 653 C 68.2346 2.6342 -2.22944 0
M  V30 654 C 67.3476 2.52912 -3.50228 0
M  V30 655 C 66.4826 3.80106 -3.7107 0
M  V30 656 C 65.5216 3.64279 -4.91902 0
M  V30 657 N 64.6586 4.834 -5.09184 0
M  V30 658 H 69.4986 0.975305 -2.81588 0
M  V30 659 H 67.0356 0.470299 -1.39379 0
M  V30 660 H 68.9936 3.41869 -2.39126 0
M  V30 661 H 67.6236 2.92687 -1.36139 0
M  V30 662 H 66.6756 1.6595 -3.42294 0
M  V30 663 H 67.9876 2.37133 -4.38827 0
M  V30 664 H 67.1416 4.66999 -3.87295 0
M  V30 665 H 65.8806 3.98799 -2.80733 0
M  V30 666 H 64.8856 2.7577 -4.75637 0
M  V30 667 H 66.1106 3.47067 -5.83714 0
M  V30 668 H 64.0566 5.02425 -4.21788 0
M  V30 669 H 63.9736 4.70311 -5.91898 0
M  V30 670 H 65.2416 5.71747 -5.29835 0
M  V30 671 N 69.4707 1.49531 0.497807 0
M  V30 672 C 70.4027 1.62559 1.61578 0
M  V30 673 C 71.4157 0.508134 1.54667 0
M  V30 674 O 72.6047 0.780309 1.60541 0
M  V30 675 C 69.7047 1.56925 3.00379 0
M  V30 676 C 68.8777 2.84257 3.3244 0
M  V30 677 C 67.9367 2.71632 4.50669 0
M  V30 678 O 66.9627 3.4557 4.52294 0
M  V30 679 N 68.1647 1.83391 5.5077 0
M  V30 680 H 70.9297 2.58981 1.50828 0
M  V30 681 H 68.4907 1.4666 0.685743 0
M  V30 682 H 70.4827 1.46129 3.77397 0
M  V30 683 H 69.0527 0.683483 3.05037 0
M  V30 684 H 68.2727 3.09381 2.44289 0
M  V30 685 H 69.5607 3.68666 3.5066 0
M  V30 686 H 68.9587 1.22583 5.52259 0
M  V30 687 H 67.5157 1.78515 6.26878 0
M  V30 688 N 70.9488 -0.749086 1.3866 0
M  V30 689 C 72.2258 -1.4992 1.25632 0
M  V30 690 C 72.6058 -2.10633 -0.140317 0
M  V30 691 O 71.9538 -1.97437 -1.15025 0
M  V30 692 C 72.1638 -2.56195 2.36992 0
M  V30 693 C 73.5118 -3.22972 2.75634 0
M  V30 694 O 74.5358 -2.66502 2.36337 0
M  V30 695 O 73.3948 -4.25122 3.43415 0
M  V30 696 H 70.4888 -0.665067 0.491544 0
M  V30 697 H 73.0348 -0.784113 1.50498 0
M  V30 698 H 71.8068 -2.09612 3.30422 0
M  V30 699 H 71.4298 -3.35279 2.13714 0
M  V30 700 N 72.4269 -1.23603 -0.977757 0
M  V30 701 C 73.8379 -1.06424 -1.53398 0
M  V30 702 C 74.1889 0.367578 -1.92726 0
M  V30 703 O 73.3139 1.25465 -1.76316 0
M  V30 704 C 73.9089 -1.92568 -2.78753 0
M  V30 705 C 72.4679 -1.79642 -3.30765 0
M  V30 706 C 71.6149 -1.88111 -2.03739 0
M  V30 707 H 74.5659 -1.37227 -0.797152 0
M  V30 708 H 74.5869 -1.45203 -3.51705 0
M  V30 709 H 74.0989 -2.96771 -2.50098 0
M  V30 710 H 72.1999 -0.782325 -3.64294 0
M  V30 711 H 72.3129 -2.63174 -4.00345 0
M  V30 712 H 70.6769 -1.31723 -2.17994 0
M  V30 713 H 71.4599 -2.93875 -1.77461 0
M  V30 714 N 73.905 1.17692 -1.04816 0
M  V30 715 C 74.853 2.23632 -0.63966 0
M  V30 716 C 75.847 1.6601 0.337219 0
M  V30 717 O 77.053 1.78844 0.203693 0
M  V30 718 H 73.428 0.727949 -0.188665 0
M  V30 719 H 75.399 2.55387 -1.54337 0
M  V30 720 C 74.148 3.4769 -0.0264051 0
M  V30 721 H 73.471 3.92331 -0.769164 0
M  V30 722 H 74.911 4.23418 0.222098 0
M  V30 723 C 73.37 3.13807 1.22584 0
M  V30 724 O 73.9 3.28236 2.31569 0
M  V30 725 N 72.106 2.68065 1.12202 0
M  V30 726 H 71.653 2.56525 0.235133 0
M  V30 727 H 71.611 2.45767 1.96076 0
M  V30 728 N 75.3831 0.828654 1.34056 0
M  V30 729 C 76.3461 0.259927 2.27721 0
M  V30 730 C 77.3461 -0.565478 1.50529 0
M  V30 731 O 78.5361 -0.38075 1.69988 0
M  V30 732 C 75.6681 -0.634944 3.34935 0
M  V30 733 H 76.8611 1.0863 2.79534 0
M  V30 734 H 74.4141 0.600951 1.44285 0
M  V30 735 H 75.1491 -1.48416 2.88346 0
M  V30 736 H 74.9341 -0.0444999 3.92075 0
M  V30 737 H 76.4241 -1.02648 4.04788 0
M  V30 738 N 76.8612 -1.46375 0.584142 0
M  V30 739 C 77.8082 -2.30323 -0.148286 0
M  V30 740 C 78.7782 -1.40703 -0.882713 0
M  V30 741 O 79.9632 -1.69651 -0.873099 0
M  V30 742 C 77.1032 -3.25196 -1.15507 0
M  V30 743 C 76.2162 -4.29915 -0.423943 0
M  V30 744 C 75.3512 -5.11914 -1.41838 0
M  V30 745 C 74.3902 -6.08381 -0.673736 0
M  V30 746 N 73.5272 -6.83242 -1.6163 0
M  V30 747 H 78.3672 -2.92427 0.573644 0
M  V30 748 H 75.9042 -1.44118 0.294703 0
M  V30 749 H 77.8622 -3.78646 -1.75166 0
M  V30 750 H 76.4922 -2.64898 -1.8447 0
M  V30 751 H 75.5442 -3.7931 0.287714 0
M  V30 752 H 76.8562 -4.98549 0.158128 0
M  V30 753 H 76.0102 -5.69648 -2.08773 0
M  V30 754 H 74.7492 -4.43243 -2.03438 0
M  V30 755 H 73.7542 -5.49799 0.00938483 0
M  V30 756 H 74.9792 -6.79071 -0.0631082 0
M  V30 757 H 72.9252 -6.1728 -2.22038 0
M  V30 758 H 72.8422 -7.48144 -1.08707 0
M  V30 759 H 74.1102 -7.45534 -2.27596 0
M  V30 760 N 78.3393 -0.321999 -1.54275 0
M  V30 761 C 79.5853 0.281461 -2.00837 0
M  V30 762 C 79.9183 1.51909 -1.20985 0
M  V30 763 O 79.1933 1.923 -0.291733 0
M  V30 764 C 79.4763 0.617162 -3.54772 0
M  V30 765 C 79.3293 -0.631064 -4.45351 0
M  V30 766 C 80.6483 1.43542 -4.16033 0
M  V30 767 H 77.7673 0.100826 -0.730071 0
M  V30 768 H 80.4093 -0.438268 -1.84876 0
M  V30 769 H 78.5593 1.23034 -3.68504 0
M  V30 770 H 80.2313 -1.26934 -4.43492 0
M  V30 771 H 78.4743 -1.26025 -4.15091 0
M  V30 772 H 79.1453 -0.351735 -5.50878 0
M  V30 773 H 81.6213 0.917134 -4.05867 0
M  V30 774 H 80.4973 1.63907 -5.23856 0
M  V30 775 H 80.7583 2.43108 -3.69257 0
M  V30 776 N 79.8174 1.5752 -0.0501392 0
M  V30 777 C 80.7804 2.1037 0.909786 0
M  V30 778 C 81.7804 1.02308 1.24056 0
M  V30 779 O 82.9704 1.28385 1.17741 0
M  V30 780 C 80.1024 2.58708 2.21998 0
M  V30 781 H 81.2954 2.96479 0.451665 0
M  V30 782 H 78.8484 1.55038 0.198248 0
M  V30 783 H 79.5834 1.75989 2.72394 0
M  V30 784 H 79.3684 3.37675 1.99295 0
M  V30 785 H 80.8584 2.99747 2.9076 0
M  V30 786 N 81.2955 -0.223234 1.56011 0
M  V30 787 C 82.5355 -0.954962 1.8072 0
M  V30 788 C 82.8995 -1.81598 0.623384 0
M  V30 789 O 84.1005 -2.58132 0.749745 0
M  V30 790 C 82.3715 -1.77313 3.10314 0
M  V30 791 S 83.9305 -2.56073 3.56332 0
M  V30 792 H 80.7485 -0.320812 0.634508 0
M  V30 793 H 83.3505 -0.220686 1.9425 0
M  V30 794 H 82.0545 -1.13071 3.94516 0
M  V30 795 H 81.5855 -2.54974 2.99586 0
M  V30 796 H 83.6005 -3.79619 3.19536 0
M  V30 797 N 82.7736 -1.49793 -0.48987 0
M  V30 798 C 83.6836 -1.70036 -1.61632 0
M  V30 799 C 84.6996 -0.583102 -1.63939 0
M  V30 800 O 85.8756 -0.859169 -1.82154 0
M  V30 801 C 82.9406 -1.77277 -2.97949 0
M  V30 802 C 82.0016 -3.00918 -3.06181 0
M  V30 803 C 81.2346 -3.07804 -4.35996 0
M  V30 804 O 81.4576 -2.21982 -5.25433 0
M  V30 805 O 80.3916 -4.00369 -4.49431 0
M  V30 806 H 84.2176 -2.65486 -1.47482 0
M  V30 807 H 81.8026 -1.33666 -0.667362 0
M  V30 808 H 83.6846 -1.84329 -3.78947 0
M  V30 809 H 82.3596 -0.850076 -3.12339 0
M  V30 810 H 81.2666 -2.99377 -2.2433 0
M  V30 811 H 82.5996 -3.92704 -2.96723 0
M  V30 812 N 84.2517 0.741722 -1.39055 0
M  V30 813 C 85.4797 1.53098 -1.39171 0
M  V30 814 C 85.8947 1.88794 0.0155099 0
M  V30 815 O 85.2517 1.53626 0.985159 0
M  V30 816 C 85.3027 2.82274 -2.2584 0
M  V30 817 O 85.0237 2.48097 -3.61081 0
M  V30 818 C 86.5247 3.76343 -2.34266 0
M  V30 819 H 83.7447 0.473335 -0.4756 0
M  V30 820 H 86.2887 0.917045 -1.82785 0
M  V30 821 H 84.4437 3.40015 -1.85656 0
M  V30 822 H 84.8577 3.31029 -4.06842 0
M  V30 823 H 86.3317 4.63898 -2.9917 0
M  V30 824 H 86.8087 4.17619 -1.35982 0
M  V30 825 H 87.4147 3.24523 -2.74891 0
M  V30 826 N 85.7298 1.2412 0.971189 0
M  V30 827 C 86.9758 1.08041 1.71625 0
M  V30 828 C 87.3088 -0.380407 1.90438 0
M  V30 829 O 86.5838 -1.28127 1.46334 0
M  V30 830 C 86.8668 1.81682 3.10908 0
M  V30 831 C 86.7198 3.35493 2.99608 0
M  V30 832 C 88.0388 1.58671 4.10501 0
M  V30 833 H 85.1578 0.39388 0.622919 0
M  V30 834 H 87.7998 1.52743 1.13003 0
M  V30 835 H 85.9498 1.43684 3.60953 0
M  V30 836 H 87.6218 3.83068 2.57015 0
M  V30 837 H 85.8648 3.64052 2.35899 0
M  V30 838 H 86.5358 3.82217 3.98264 0
M  V30 839 H 89.0118 1.91719 3.69301 0
M  V30 840 H 87.8878 2.1266 5.06031 0
M  V30 841 H 88.1488 0.524161 4.38982 0
M  V30 842 N 87.2079 -1.17134 1.05439 0
M  V30 843 C 88.4479 -1.89137 0.77502 0
M  V30 844 C 88.8119 -1.79345 -0.685526 0
M  V30 845 O 90.0129 -2.46188 -1.0791 0
M  V30 846 C 88.2839 -3.35003 1.2453 0
M  V30 847 S 89.8429 -4.24952 1.09367 0
M  V30 848 H 86.6609 -0.652949 0.281387 0
M  V30 849 H 89.2629 -1.4145 1.34953 0
M  V30 850 H 87.9669 -3.39666 2.30338 0
M  V30 851 H 87.4979 -3.87736 0.665166 0
M  V30 852 H 89.5129 -4.96196 0.0193397 0
M  V30 853 N 88.686 -0.835752 -1.33615 0
M  V30 854 C 89.633 -0.26473 -2.29277 0
M  V30 855 C 90.603 0.617712 -1.54187 0
M  V30 856 O 91.788 0.556641 -1.825 0
M  V30 857 C 88.928 0.556777 -3.40579 0
M  V30 858 C 88.041 -0.349339 -4.30585 0
M  V30 859 C 87.176 0.482969 -5.29 0
M  V30 860 C 86.215 -0.421732 -6.10645 0
M  V30 861 N 85.352 0.372262 -7.01112 0
M  V30 862 H 90.192 -1.08582 -2.77514 0
M  V30 863 H 87.729 -0.546927 -1.36554 0
M  V30 864 H 89.687 1.04852 -4.03809 0
M  V30 865 H 88.317 1.34286 -2.93542 0
M  V30 866 H 87.369 -0.959372 -3.68104 0
M  V30 867 H 88.681 -1.04445 -4.87742 0
M  V30 868 H 87.835 1.03866 -5.97743 0
M  V30 869 H 86.574 1.21153 -4.72412 0
M  V30 870 H 85.579 -0.989464 -5.40823 0
M  V30 871 H 86.804 -1.14861 -6.69316 0
M  V30 872 H 84.75 1.08426 -6.46977 0
M  V30 873 H 84.667 -0.264198 -7.55538 0
M  V30 874 H 85.935 0.910293 -7.74167 0
M  V30 875 N 90.1641 1.46063 -0.591896 0
M  V30 876 C 91.3921 2.06717 -0.0868936 0
M  V30 877 C 91.8071 1.43916 1.22203 0
M  V30 878 O 91.1641 0.547698 1.74088 0
M  V30 879 C 91.2151 3.6142 0.0758725 0
M  V30 880 O 90.9361 4.21874 -1.18126 0
M  V30 881 C 92.4371 4.39025 0.61416 0
M  V30 882 H 89.6571 0.668162 -0.0616518 0
M  V30 883 H 92.2011 1.8755 -0.815175 0
M  V30 884 H 90.3561 3.79983 0.754413 0
M  V30 885 H 90.7701 5.14861 -1.00092 0
M  V30 886 H 92.2441 5.4783 0.677193 0
M  V30 887 H 92.7211 4.07708 1.63312 0
M  V30 888 H 93.3271 4.2529 -0.0298142 0
M  V30 889 N 91.6422 0.330177 1.54103 0
M  V30 890 C 92.8902 -0.269871 2.0029 0
M  V30 891 C 93.2112 -1.52133 1.21986 0
M  V30 892 O 92.4812 -1.93212 0.323438 0
M  V30 893 H 91.0612 -0.10271 0.739905 0
M  V30 894 H 93.7232 0.448249 1.89675 0
M  V30 895 H 92.8192 -0.52166 3.07709 0
M  V30 896 N 93.1203 -1.57491 0.0584922 0
M  V30 897 C 94.0533 -2.07533 -0.948969 0
M  V30 898 C 95.0313 -0.977444 -1.29942 0
M  V30 899 O 96.2153 -1.2499 -1.41102 0
M  V30 900 C 93.3423 -2.52192 -2.2609 0
M  V30 901 C 92.3883 -3.73287 -2.06298 0
M  V30 902 S 93.2213 -5.18603 -1.33459 0
M  V30 903 C 94.3773 -5.66583 -2.65959 0
M  V30 904 H 94.6103 -2.92662 -0.523118 0
M  V30 905 H 92.1433 -1.53631 -0.153954 0
M  V30 906 H 94.1013 -2.78585 -3.01498 0
M  V30 907 H 92.7623 -1.67356 -2.65802 0
M  V30 908 H 91.9553 -4.0248 -3.03357 0
M  V30 909 H 91.5573 -3.47199 -1.39029 0
M  V30 910 H 93.8493 -5.72616 -3.62101 0
M  V30 911 H 94.7923 -6.65684 -2.41393 0
M  V30 912 H 95.2003 -4.94342 -2.72554 0
M  V30 913 N 94.5984 0.214957 -1.56127 0
M  V30 914 C 95.8444 0.939762 -1.79712 0
M  V30 915 C 96.1774 1.83723 -0.629247 0
M  V30 916 O 95.4524 1.90925 0.371197 0
M  V30 917 C 95.7354 1.77306 -3.13424 0
M  V30 918 C 95.5884 0.90164 -4.40671 0
M  V30 919 C 96.9074 2.74956 -3.43638 0
M  V30 920 H 94.0264 0.340214 -0.653776 0
M  V30 921 H 96.6684 0.20824 -1.88855 0
M  V30 922 H 94.8184 2.39673 -3.0576 0
M  V30 923 H 96.4904 0.294206 -4.60361 0
M  V30 924 H 94.7334 0.207368 -4.33304 0
M  V30 925 H 95.4044 1.51923 -5.30682 0
M  V30 926 H 97.8804 2.22724 -3.51473 0
M  V30 927 H 96.7564 3.30358 -4.38355 0
M  V30 928 H 97.0174 3.53023 -2.66134 0
M  V30 929 N 96.0765 1.50051 0.48192 0
M  V30 930 C 97.0065 1.71046 1.58951 0
M  V30 931 C 97.9875 0.559288 1.60642 0
M  V30 932 O 99.1725 0.797243 1.77081 0
M  V30 933 C 96.3025 1.79462 2.97339 0
M  V30 934 C 95.2565 2.94558 3.10515 0
M  V30 935 C 94.5825 2.88105 4.50444 0
M  V30 936 C 95.8825 4.35227 2.88747 0
M  V30 937 H 97.5765 2.6378 1.41635 0
M  V30 938 H 95.1225 1.26936 0.679942 0
M  V30 939 H 97.0755 1.92734 3.74742 0
M  V30 940 H 95.7995 0.833412 3.15788 0
M  V30 941 H 94.4585 2.80918 2.35543 0
M  V30 942 H 94.1065 1.89853 4.65795 0
M  V30 943 H 93.8065 3.65366 4.60197 0
M  V30 944 H 95.3305 3.03412 5.29881 0
M  V30 945 H 96.7445 4.49449 3.55905 0
M  V30 946 H 95.1415 5.13856 3.09955 0
M  V30 947 H 96.2115 4.48347 1.84696 0
M  V30 948 N 97.5546 -0.734337 1.39446 0
M  V30 949 C 98.4846 -1.86155 1.40955 0
M  V30 950 C 99.4656 -1.67898 0.272827 0
M  V30 951 O 100.651 -1.88207 0.478743 0
M  V30 952 C 97.7806 -3.23912 1.25294 0
M  V30 953 C 96.7346 -3.56808 2.36373 0
M  V30 954 C 96.0606 -4.93508 2.058 0
M  V30 955 C 97.3606 -3.59713 3.78687 0
M  V30 956 H 99.0546 -1.8515 2.35287 0
M  V30 957 H 96.6006 -0.889367 1.13253 0
M  V30 958 H 98.5536 -4.02443 1.2497 0
M  V30 959 H 97.2776 -3.25446 0.274308 0
M  V30 960 H 95.9366 -2.80606 2.35914 0
M  V30 961 H 95.5846 -4.91623 1.06374 0
M  V30 962 H 95.2846 -5.16486 2.80208 0
M  V30 963 H 96.8086 -5.74396 2.07128 0
M  V30 964 H 98.2226 -4.2832 3.81071 0
M  V30 965 H 96.6196 -3.94209 4.52459 0
M  V30 966 H 97.6896 -2.59504 4.09617 0
M  V30 967 N 99.0327 -1.24633 -0.964593 0
M  V30 968 C 100.273 -1.09981 -1.72289 0
M  V30 969 C 100.637 0.354792 -1.88693 0
M  V30 970 O 101.838 0.62289 -2.61483 0
M  V30 971 C 100.109 -1.82262 -3.07434 0
M  V30 972 S 101.668 -1.83379 -3.98645 0
M  V30 973 H 98.4857 -0.393292 -0.59232 0
M  V30 974 H 101.088 -1.58009 -1.15123 0
M  V30 975 H 99.7917 -2.87206 -2.93157 0
M  V30 976 H 99.3227 -1.3458 -3.69664 0
M  V30 977 H 101.338 -0.903691 -4.87901 0
M  V30 978 N 100.511 1.16574 -1.06058 0
M  V30 979 C 101.759 1.86677 -0.77434 0
M  V30 980 C 102.08 1.81959 0.701147 0
M  V30 981 O 101.35 1.2515 1.50713 0
M  V30 982 H 99.9298 0.691134 -0.283449 0
M  V30 983 H 102.592 1.41378 -1.34158 0
M  V30 984 H 101.688 2.92181 -1.09711 0
M  V30 985 N 101.989 0.842826 1.3317 0
M  V30 986 C 102.899 0.281444 2.32906 0
M  V30 987 C 103.915 -0.594587 1.63526 0
M  V30 988 O 105.091 -0.49777 1.95152 0
M  V30 989 C 102.156 -0.530929 3.42611 0
M  V30 990 C 101.217 0.369843 4.27704 0
M  V30 991 C 100.45 -0.403853 5.3217 0
M  V30 992 O 100.673 -1.63513 5.46461 0
M  V30 993 O 99.6069 0.224199 6.01482 0
M  V30 994 H 103.433 1.10744 2.82789 0
M  V30 995 H 101.018 0.60545 1.36582 0
M  V30 996 H 102.9 -0.992437 4.09547 0
M  V30 997 H 101.575 -1.33392 2.94938 0
M  V30 998 H 100.482 0.879275 3.6362 0
M  V30 999 H 101.815 1.13771 4.78871 0
M  V30 1000 N 103.467 -1.45747 0.599634 0
M  V30 1001 C 104.716 -2.01502 0.0893511 0
M  V30 1002 C 105.029 -1.4748 -1.28488 0
M  V30 1003 O 106.235 -1.95161 -1.88745 0
M  V30 1004 C 104.691 -3.59735 0.109082 0
M  V30 1005 C 104.299 -4.22754 1.48267 0
M  V30 1006 C 106.043 -4.23085 -0.346374 0
M  V30 1007 C 103.95 -5.73115 1.45921 0
M  V30 1008 H 102.88 -0.753417 0.0296347 0
M  V30 1009 H 105.531 -1.67303 0.753788 0
M  V30 1010 H 103.913 -3.91087 -0.621854 0
M  V30 1011 H 105.087 -4.02987 2.23468 0
M  V30 1012 H 103.402 -3.71567 1.87955 0
M  V30 1013 H 105.999 -5.33327 -0.38298 0
M  V30 1014 H 106.342 -3.93201 -1.36743 0
M  V30 1015 H 106.875 -3.9642 0.331038 0
M  V30 1016 H 103.614 -6.07685 2.45762 0
M  V30 1017 H 103.134 -5.95097 0.749665 0
M  V30 1018 H 104.813 -6.3616 1.17941 0
M  V30 1019 N 104.945 -0.338344 -1.53925 0
M  V30 1020 C 106.173 0.261298 -2.05243 0
M  V30 1021 C 106.588 1.44625 -1.21363 0
M  V30 1022 O 105.945 1.80811 -0.247736 0
M  V30 1023 C 105.996 0.681412 -3.5502 0
M  V30 1024 O 105.717 -0.456414 -4.35716 0
M  V30 1025 C 107.218 1.34232 -4.22489 0
M  V30 1026 H 104.438 0.0513685 -0.669031 0
M  V30 1027 H 106.982 -0.488822 -1.98572 0
M  V30 1028 H 105.137 1.38148 -3.61931 0
M  V30 1029 H 105.551 -0.122564 -5.24357 0
M  V30 1030 H 107.025 1.58708 -5.28693 0
M  V30 1031 H 107.502 2.29426 -3.74514 0
M  V30 1032 H 108.108 0.684424 -4.19757 0
M  V30 1033 N 106.423 1.57458 -0.0668435 0
M  V30 1034 C 107.648 1.9804 0.616027 0
M  V30 1035 C 108.073 0.944771 1.62652 0
M  V30 1036 O 107.431 -0.0902094 1.81075 0
M  V30 1037 C 107.479 3.37665 1.26549 0
M  V30 1038 O 106.583 3.36701 2.38131 0
M  V30 1039 H 105.924 0.644719 0.158849 0
M  V30 1040 H 108.454 2.04121 -0.139891 0
M  V30 1041 H 108.464 3.7474 1.6135 0
M  V30 1042 H 107.139 4.12573 0.525016 0
M  V30 1043 H 105.716 3.1139 2.0516 0
M  V30 1044 N 107.901 -0.206675 1.56239 0
M  V30 1045 C 108.834 -1.28383 1.88661 0
M  V30 1046 C 109.812 -1.44504 0.745481 0
M  V30 1047 O 110.996 -1.60079 0.995336 0
M  V30 1048 C 108.123 -2.65211 2.10667 0
M  V30 1049 C 107.169 -2.66025 3.33366 0
M  V30 1050 S 108.002 -2.18609 4.88846 0
M  V30 1051 C 109.158 -3.57283 5.13906 0
M  V30 1052 H 109.391 -1.00691 2.7973 0
M  V30 1053 H 106.924 -0.409627 1.48867 0
M  V30 1054 H 108.882 -3.43979 2.24029 0
M  V30 1055 H 107.543 -2.90121 1.20369 0
M  V30 1056 H 106.736 -3.66607 3.45855 0
M  V30 1057 H 106.338 -1.95331 3.18938 0
M  V30 1058 H 108.63 -4.53074 5.03717 0
M  V30 1059 H 109.573 -3.49699 6.15724 0
M  V30 1060 H 109.981 -3.51659 4.41583 0
M  V30 1061 N 109.379 -1.50304 -0.473955 0
M  V30 1062 C 110.342 -1.6841 -1.55469 0
M  V30 1063 C 111.342 -0.554905 -1.50922 0
M  V30 1064 O 112.532 -0.821882 -1.53593 0
M  V30 1065 C 109.664 -1.70667 -2.95102 0
M  V30 1066 H 110.857 -2.64828 -1.40733 0
M  V30 1067 H 108.41 -1.39742 -0.700132 0
M  V30 1068 H 109.145 -0.75932 -3.15285 0
M  V30 1069 H 108.93 -2.52698 -2.9981 0
M  V30 1070 H 110.42 -1.8664 -3.73571 0
M  V30 1071 N 110.857 0.726932 -1.39834 0
M  V30 1072 C 111.79 1.8501 -1.33592 0
M  V30 1073 C 112.768 1.61262 -0.208191 0
M  V30 1074 O 113.952 1.84422 -0.389981 0
M  V30 1075 C 111.079 3.21143 -1.07633 0
M  V30 1076 C 110.125 3.63737 -2.22705 0
M  V30 1077 S 110.958 3.72167 -3.85035 0
M  V30 1078 C 112.114 5.11077 -3.61318 0
M  V30 1079 H 112.347 1.90022 -2.28646 0
M  V30 1080 H 109.88 0.892595 -1.25985 0
M  V30 1081 H 111.838 3.99747 -0.933415 0
M  V30 1082 H 110.499 3.13776 -0.142526 0
M  V30 1083 H 109.692 4.62551 -2.00155 0
M  V30 1084 H 109.294 2.9236 -2.33242 0
M  V30 1085 H 111.586 5.97656 -3.19083 0
M  V30 1086 H 112.529 5.38658 -4.59623 0
M  V30 1087 H 112.937 4.81135 -2.95245 0
M  V30 1088 N 112.336 1.25143 0.95797 0
M  V30 1089 C 113.582 1.09855 1.70469 0
M  V30 1090 C 113.915 -0.360187 1.90831 0
M  V30 1091 O 113.19 -1.26568 1.47685 0
M  V30 1092 C 113.473 1.8497 3.08963 0
M  V30 1093 C 113.326 3.38652 2.96032 0
M  V30 1094 C 114.645 1.63016 4.08795 0
M  V30 1095 H 111.764 0.400465 0.618706 0
M  V30 1096 H 114.406 1.53933 1.11376 0
M  V30 1097 H 112.556 1.47505 3.59409 0
M  V30 1098 H 114.228 3.85772 2.52938 0
M  V30 1099 H 112.471 3.66534 2.32025 0
M  V30 1100 H 113.142 3.8642 3.94187 0
M  V30 1101 H 115.618 1.95625 3.67247 0
M  V30 1102 H 114.494 2.18015 5.03747 0
M  V30 1103 H 114.755 0.570692 4.38401 0
M  V30 1104 N 113.814 -1.1601 1.06675 0
M  V30 1105 C 115.091 -1.82679 0.699114 0
M  V30 1106 C 115.471 -1.94559 -0.819137 0
M  V30 1107 O 114.819 -1.49169 -1.73092 0
M  V30 1108 C 115.029 -3.19445 1.40555 0
M  V30 1109 C 116.377 -3.95171 1.55323 0
M  V30 1110 O 117.401 -3.28976 1.36577 0
M  V30 1111 O 116.26 -5.13833 1.86112 0
M  V30 1112 H 113.354 -0.788954 0.247951 0
M  V30 1113 H 115.9 -1.23179 1.16726 0
M  V30 1114 H 114.672 -3.05856 2.44065 0
M  V30 1115 H 114.295 -3.86625 0.927733 0
M  V30 1116 N 115.292 -0.849877 -1.32721 0
M  V30 1117 C 116.522 -0.46408 -2.0132 0
M  V30 1118 C 116.93 0.94246 -1.64056 0
M  V30 1119 O 116.273 1.6257 -0.855379 0
M  V30 1120 C 116.335 -0.517887 -3.5575 0
M  V30 1121 C 115.999 -1.88248 -4.16427 0
M  V30 1122 C 116.996 -2.84726 -4.35002 0
M  V30 1123 C 114.681 -2.17832 -4.52609 0
M  V30 1124 C 116.675 -4.08945 -4.8892 0
M  V30 1125 C 114.362 -3.42304 -5.06232 0
M  V30 1126 C 115.36 -4.37677 -5.24335 0
M  V30 1127 O 115.048 -5.59946 -5.76815 0
M  V30 1128 H 114.78 -0.181327 -0.651227 0
M  V30 1129 H 117.334 -1.14713 -1.70382 0
M  V30 1130 H 115.564 0.221997 -3.86062 0
M  V30 1131 H 117.253 -0.148366 -4.05629 0
M  V30 1132 H 118.019 -2.63174 -4.07388 0
M  V30 1133 H 113.898 -1.44385 -4.37806 0
M  V30 1134 H 117.442 -4.83396 -5.02966 0
M  V30 1135 H 113.339 -3.63709 -5.33278 0
M  V30 1136 H 114.107 -5.61838 -5.95214 0
M  V30 1137 N 116.77 1.45427 -0.607355 0
M  V30 1138 C 117.702 2.2871 0.149752 0
M  V30 1139 C 118.715 1.39937 0.831958 0
M  V30 1140 O 119.904 1.64313 0.697385 0
M  V30 1141 C 117.004 3.15673 1.23304 0
M  V30 1142 C 116.177 4.32722 0.637996 0
M  V30 1143 C 115.236 5.00895 1.61215 0
M  V30 1144 O 114.262 5.57697 1.13854 0
M  V30 1145 N 115.464 5.00159 2.94655 0
M  V30 1146 H 118.229 2.94328 -0.564882 0
M  V30 1147 H 115.79 1.55612 -0.446823 0
M  V30 1148 H 117.782 3.58144 1.88454 0
M  V30 1149 H 116.352 2.51965 1.8502 0
M  V30 1150 H 115.572 3.93734 -0.191572 0
M  V30 1151 H 116.86 5.08321 0.220665 0
M  V30 1152 H 116.258 4.553 3.35735 0
M  V30 1153 H 114.815 5.46495 3.55228 0
M  V30 1154 N 118.248 0.346503 1.53744 0
M  V30 1155 C 119.664 -0.00530975 1.59599 0
M  V30 1156 C 119.864 -1.48465 1.36236 0
M  V30 1157 O 118.92 -2.24376 1.15808 0
M  V30 1158 C 120.233 0.433516 2.97559 0
M  V30 1159 C 121.781 0.386111 3.10609 0
M  V30 1160 C 122.256 0.800451 4.50951 0
M  V30 1161 N 123.747 0.754753 4.5701 0
M  V30 1162 C 124.482 1.04727 5.63755 0
M  V30 1163 N 123.978 1.4081 6.7834 0
M  V30 1164 N 125.771 0.971316 5.53644 0
M  V30 1165 H 117.922 1.31009 1.67184 0
M  V30 1166 H 120.185 0.534242 0.783128 0
M  V30 1167 H 119.891 1.46509 3.19731 0
M  V30 1168 H 119.765 -0.189753 3.76722 0
M  V30 1169 H 122.152 -0.636295 2.88158 0
M  V30 1170 H 122.233 1.04462 2.33498 0
M  V30 1171 H 121.877 1.82088 4.74137 0
M  V30 1172 H 121.807 0.119386 5.26465 0
M  V30 1173 H 124.298 0.488662 3.74727 0
M  V30 1174 H 124.611 1.61607 7.55714 0
M  V30 1175 H 122.956 1.44657 6.79779 0
M  V30 1176 H 126.147 0.688748 4.63005 0
M  V30 1177 H 126.32 1.20263 6.36742 0
M  V30 1178 N 119.726 -1.57421 0.075193 0
M  V30 1179 C 120.972 -1.93905 -0.594025 0
M  V30 1180 C 121.305 -0.955701 -1.69056 0
M  V30 1181 O 120.58 0.0145373 -1.94495 0
M  V30 1182 C 120.863 -3.40638 -1.1678 0
M  V30 1183 C 120.716 -4.49733 -0.0776792 0
M  V30 1184 C 122.035 -3.88259 -2.07228 0
M  V30 1185 H 119.154 -0.705105 -0.214466 0
M  V30 1186 H 121.796 -1.8947 0.141854 0
M  V30 1187 H 119.946 -3.44549 -1.79494 0
M  V30 1188 H 121.618 -4.57942 0.555573 0
M  V30 1189 H 119.861 -4.29751 0.591286 0
M  V30 1190 H 120.532 -5.49549 -0.519603 0
M  V30 1191 H 123.008 -3.86376 -1.54445 0
M  V30 1192 H 121.884 -4.91533 -2.44308 0
M  V30 1193 H 122.145 -3.26396 -2.98191 0
M  V30 1194 N 121.204 0.198386 -1.56346 0
M  V30 1195 C 122.45 0.920648 -1.80698 0
M  V30 1196 C 122.783 1.83045 -0.648697 0
M  V30 1197 O 122.058 1.91308 0.350925 0
M  V30 1198 C 122.341 1.73971 -3.15287 0
M  V30 1199 C 122.194 0.85485 -4.41602 0
M  V30 1200 C 123.513 2.71296 -3.46535 0
M  V30 1201 H 120.632 0.333261 -0.657348 0
M  V30 1202 H 123.274 0.188198 -1.89066 0
M  V30 1203 H 121.424 2.36416 -3.08285 0
M  V30 1204 H 123.096 0.245362 -4.60647 0
M  V30 1205 H 121.339 0.161398 -4.335 0
M  V30 1206 H 122.01 1.46286 -5.32264 0
M  V30 1207 H 124.486 2.18983 -3.53816 0
M  V30 1208 H 123.362 3.2569 -4.41834 0
M  V30 1209 H 123.623 3.5018 -2.69864 0
M  V30 1210 N 122.682 1.50554 0.465978 0
M  V30 1211 C 124.098 1.38093 0.800154 0
M  V30 1212 C 124.298 0.440988 1.96615 0
M  V30 1213 O 123.354 -0.114499 2.5224 0
M  V30 1214 C 124.667 2.79565 1.10742 0
M  V30 1215 C 126.215 2.88516 1.21357 0
M  V30 1216 C 126.69 4.30833 1.55393 0
M  V30 1217 N 128.181 4.33807 1.62375 0
M  V30 1218 C 128.916 5.40927 1.90225 0
M  V30 1219 N 128.412 6.58247 2.16062 0
M  V30 1220 N 130.205 5.28376 1.9177 0
M  V30 1221 H 122.356 2.10237 -0.302366 0
M  V30 1222 H 124.619 0.945203 -0.0727746 0
M  V30 1223 H 124.325 3.50208 0.323661 0
M  V30 1224 H 124.199 3.17125 2.04234 0
M  V30 1225 H 126.586 2.1809 1.98799 0
M  V30 1226 H 126.667 2.54492 0.258321 0
M  V30 1227 H 126.311 5.01799 0.784889 0
M  V30 1228 H 126.241 4.62347 2.52076 0
M  V30 1229 H 128.732 3.49212 1.44427 0
M  V30 1230 H 129.045 7.3569 2.36601 0
M  V30 1231 H 127.39 6.61413 2.13444 0
M  V30 1232 H 130.581 4.35715 1.71085 0
M  V30 1233 H 130.754 6.11944 2.13139 0
M  V30 1234 N 124.16 -0.719506 1.40217 0
M  V30 1235 C 125.437 -1.47221 1.28784 0
M  V30 1236 C 125.817 -2.10883 -0.0956067 0
M  V30 1237 O 125.165 -1.99833 -1.10811 0
M  V30 1238 C 125.375 -2.5111 2.42373 0
M  V30 1239 C 126.723 -3.17053 2.82423 0
M  V30 1240 O 127.747 -2.61429 2.41937 0
M  V30 1241 O 126.606 -4.17742 3.52355 0
M  V30 1242 H 123.7 -0.654491 0.50554 0
M  V30 1243 H 126.246 -0.752014 1.52128 0
M  V30 1244 H 125.018 -2.02556 3.34793 0
M  V30 1245 H 124.641 -3.3067 2.20778 0
M  V30 1246 N 125.638 -1.25649 -0.95132 0
M  V30 1247 C 126.866 -1.13343 -1.73092 0
M  V30 1248 C 127.281 0.312434 -1.86197 0
M  V30 1249 O 126.638 1.21465 -1.36207 0
M  V30 1250 C 126.689 -1.78602 -3.14299 0
M  V30 1251 O 126.41 -3.17537 -3.01831 0
M  V30 1252 C 127.911 -1.72119 -4.08522 0
M  V30 1253 H 125.131 -0.395181 -0.542285 0
M  V30 1254 H 127.675 -1.66076 -1.19328 0
M  V30 1255 H 125.83 -1.29832 -3.64996 0
M  V30 1256 H 126.244 -3.49676 -3.90931 0
M  V30 1257 H 127.718 -2.22435 -5.052 0
M  V30 1258 H 128.195 -0.685635 -4.33815 0
M  V30 1259 H 128.801 -2.20393 -3.63741 0
M  V30 1260 N 127.117 1.15442 -1.07289 0
M  V30 1261 C 128.366 1.85557 -0.790669 0
M  V30 1262 C 128.679 1.83186 0.685739 0
M  V30 1263 O 129.885 2.48977 1.0827 0
M  V30 1264 C 128.341 3.33038 -1.36433 0
M  V30 1265 C 127.949 3.43856 -2.8717 0
M  V30 1266 C 129.693 4.0834 -1.1601 0
M  V30 1267 C 127.6 4.85482 -3.3773 0
M  V30 1268 H 126.53 0.695122 -0.292098 0
M  V30 1269 H 129.181 1.30219 -1.29287 0
M  V30 1270 H 127.563 3.88043 -0.789864 0
M  V30 1271 H 128.737 2.98961 -3.50655 0
M  V30 1272 H 127.052 2.81998 -3.06376 0
M  V30 1273 H 129.649 5.12859 -1.51262 0
M  V30 1274 H 129.992 4.16182 -0.0991007 0
M  V30 1275 H 130.525 3.59603 -1.70089 0
M  V30 1276 H 127.264 4.82823 -4.43353 0
M  V30 1277 H 126.784 5.30961 -2.78999 0
M  V30 1278 H 128.463 5.54335 -3.33648 0
M  V30 1279 N 128.595 0.856903 1.32268 0
M  V30 1280 C 129.542 0.301172 2.28827 0
M  V30 1281 C 130.512 -0.593104 1.5515 0
M  V30 1282 O 131.697 -0.527537 1.83362 0
M  V30 1283 C 128.837 -0.502523 3.41422 0
M  V30 1284 C 127.95 0.417797 4.29975 0
M  V30 1285 C 127.085 -0.398749 5.29701 0
M  V30 1286 C 126.124 0.518827 6.09897 0
M  V30 1287 N 125.261 -0.260674 7.01616 0
M  V30 1288 H 130.101 1.12983 2.75751 0
M  V30 1289 H 127.638 0.568582 1.35667 0
M  V30 1290 H 129.596 -0.984141 4.05426 0
M  V30 1291 H 128.226 -1.29599 2.95642 0
M  V30 1292 H 127.278 1.01781 3.66531 0
M  V30 1293 H 128.59 1.12191 4.86019 0
M  V30 1294 H 127.744 -0.943435 5.9932 0
M  V30 1295 H 126.483 -1.13622 4.7428 0
M  V30 1296 H 125.488 1.07538 5.39181 0
M  V30 1297 H 126.713 1.25495 6.67404 0
M  V30 1298 H 124.659 -0.981198 6.4862 0
M  V30 1299 H 124.576 0.384364 7.55022 0
M  V30 1300 H 125.844 -0.787014 7.75517 0
M  V30 1301 N 130.073 -1.45103 0.615059 0
M  V30 1302 C 131.023 -2.27679 -0.120966 0
M  V30 1303 C 132.007 -1.3775 -0.831491 0
M  V30 1304 O 133.199 -1.61683 -0.720249 0
M  V30 1305 C 130.328 -3.24767 -1.1127 0
M  V30 1306 C 129.414 -4.22184 -0.402627 0
M  V30 1307 N 129.805 -5.02692 0.559884 0
M  V30 1308 C 128.103 -4.4125 -0.649202 0
M  V30 1309 C 128.804 -5.73421 0.977942 0
M  V30 1310 N 127.78 -5.42657 0.320104 0
M  V30 1311 H 131.582 -2.87325 0.618181 0
M  V30 1312 H 129.096 -1.56345 0.439304 0
M  V30 1313 H 131.093 -3.82666 -1.65446 0
M  V30 1314 H 129.753 -2.66682 -1.85232 0
M  V30 1315 H 130.764 -5.09354 0.936976 0
M  V30 1316 H 127.441 -3.9428 -1.37293 0
M  V30 1317 H 128.831 -6.48107 1.77222 0
M  V30 1318 N 131.551 -0.354651 -1.53558 0
M  V30 1319 C 132.8 0.239504 -2.00273 0
M  V30 1320 C 133.113 1.50759 -1.24623 0
M  V30 1321 O 134.319 2.17968 -1.61871 0
M  V30 1322 C 132.775 0.477341 -3.5672 0
M  V30 1323 C 132.383 -0.775488 -4.41237 0
M  V30 1324 C 134.127 1.02975 -4.11821 0
M  V30 1325 C 132.034 -0.507838 -5.89216 0
M  V30 1326 H 130.964 0.0932743 -0.748208 0
M  V30 1327 H 133.615 -0.471701 -1.77334 0
M  V30 1328 H 131.997 1.24953 -3.7577 0
M  V30 1329 H 133.171 -1.54963 -4.33962 0
M  V30 1330 H 131.486 -1.25033 -3.97185 0
M  V30 1331 H 134.083 1.24513 -5.2 0
M  V30 1332 H 134.426 1.98862 -3.65731 0
M  V30 1333 H 134.959 0.317994 -3.96527 0
M  V30 1334 H 131.698 -1.43674 -6.39561 0
M  V30 1335 H 131.218 0.228011 -5.99366 0
M  V30 1336 H 132.897 -0.129238 -6.46871 0
M  V30 1337 N 133.029 1.57378 -0.0835403 0
M  V30 1338 C 134.277 1.93547 0.581718 0
M  V30 1339 C 134.598 0.96524 1.69435 0
M  V30 1340 O 133.868 0.0153369 1.95894 0
M  V30 1341 H 132.448 0.714521 0.217874 0
M  V30 1342 H 135.11 1.94366 -0.144158 0
M  V30 1343 H 134.206 2.95665 0.999423 0
M  V30 1344 N 134.507 -0.190092 1.56449 0
M  V30 1345 C 135.737 -0.92443 1.84764 0
M  V30 1346 C 136.145 -1.77146 0.664529 0
M  V30 1347 O 135.488 -1.79812 -0.375957 0
M  V30 1348 C 135.55 -1.86651 3.07248 0
M  V30 1349 C 135.214 -1.20094 4.40938 0
M  V30 1350 C 136.211 -0.575445 5.16706 0
M  V30 1351 C 133.896 -1.2033 4.87674 0
M  V30 1352 C 135.89 0.0388111 6.37388 0
M  V30 1353 C 133.577 -0.585214 6.08291 0
M  V30 1354 C 134.575 0.0347578 6.82991 0
M  V30 1355 O 134.263 0.643147 8.01323 0
M  V30 1356 H 133.995 -0.274974 0.617548 0
M  V30 1357 H 136.549 -0.200788 2.04416 0
M  V30 1358 H 134.779 -2.62998 2.83494 0
M  V30 1359 H 136.468 -2.46907 3.22167 0
M  V30 1360 H 137.234 -0.565728 4.81689 0
M  V30 1361 H 133.113 -1.67526 4.29484 0
M  V30 1362 H 136.657 0.523329 6.95634 0
M  V30 1363 H 132.554 -0.592451 6.42775 0
M  V30 1364 H 133.322 0.540545 8.16713 0
M  V30 1365 N 135.985 -1.50799 -0.457987 0
M  V30 1366 C 137.262 -1.52968 -1.21902 0
M  V30 1367 C 137.642 -0.281906 -2.09209 0
M  V30 1368 O 136.99 0.734076 -2.16388 0
M  V30 1369 C 137.2 -2.8326 -2.03875 0
M  V30 1370 C 138.548 -3.34425 -2.6162 0
M  V30 1371 O 139.572 -2.8467 -2.14106 0
M  V30 1372 O 138.431 -4.21188 -3.48228 0
M  V30 1373 H 135.525 -0.614129 -0.553873 0
M  V30 1374 H 138.071 -1.63098 -0.468739 0
M  V30 1375 H 136.843 -3.65543 -1.39621 0
M  V30 1376 H 136.466 -2.76195 -2.8601 0
M  V30 1377 N 137.463 0.71206 -1.40597 0
M  V30 1378 C 138.74 1.46536 -1.29563 0
M  V30 1379 C 139.12 2.10931 0.0844217 0
M  V30 1380 O 138.468 2.00418 1.0975 0
M  V30 1381 C 138.678 2.49821 -2.43701 0
M  V30 1382 C 140.026 3.15551 -2.841 0
M  V30 1383 O 141.05 2.60142 -2.4332 0
M  V30 1384 O 139.909 4.15867 -3.54566 0
M  V30 1385 H 137.003 0.651801 -0.509004 0
M  V30 1386 H 139.549 0.743935 -1.52524 0
M  V30 1387 H 138.321 2.00778 -3.35863 0
M  V30 1388 H 137.944 3.29495 -2.22528 0
M  V30 1389 N 138.941 1.26152 0.944643 0
M  V30 1390 C 140.166 1.14363 1.7302 0
M  V30 1391 C 140.591 -0.29772 1.85729 0
M  V30 1392 O 139.949 -1.2157 1.34501 0
M  V30 1393 C 139.997 1.81378 3.11664 0
M  V30 1394 O 139.101 1.10022 3.97453 0
M  V30 1395 H 138.442 0.398694 0.53098 0
M  V30 1396 H 140.972 1.66906 1.18337 0
M  V30 1397 H 140.982 1.88064 3.62072 0
M  V30 1398 H 139.657 2.86237 3.0173 0
M  V30 1399 H 138.234 1.11287 3.55907 0
M  V30 1400 N 140.419 -1.14872 1.07899 0
M  V30 1401 C 141.382 -2.17986 0.708161 0
M  V30 1402 C 142.382 -1.58775 -0.25442 0
M  V30 1403 O 143.572 -1.74166 -0.034645 0
M  V30 1404 C 140.704 -3.40871 0.0446929 0
M  V30 1405 H 141.897 -2.52306 1.62116 0
M  V30 1406 H 139.45 -1.2943 0.876218 0
M  V30 1407 H 140.185 -3.12124 -0.880281 0
M  V30 1408 H 139.97 -3.8511 0.737091 0
M  V30 1409 H 141.46 -4.17121 -0.19991 0
M  V30 1410 N 141.898 -0.863906 -1.31812 0
M  V30 1411 C 142.845 -0.313303 -2.28664 0
M  V30 1412 C 143.815 0.584868 -1.55462 0
M  V30 1413 O 145 0.517805 -1.83639 0
M  V30 1414 C 142.14 0.48441 -3.41683 0
M  V30 1415 C 141.253 -0.440594 -4.29747 0
M  V30 1416 C 140.388 0.370652 -5.29905 0
M  V30 1417 C 139.427 -0.551164 -6.09613 0
M  V30 1418 N 138.564 0.223462 -7.01744 0
M  V30 1419 H 143.404 -1.14444 -2.75148 0
M  V30 1420 H 140.941 -0.575769 -1.35364 0
M  V30 1421 H 142.899 0.962627 -4.05943 0
M  V30 1422 H 141.529 1.28029 -2.96325 0
M  V30 1423 H 140.581 -1.03724 -3.65986 0
M  V30 1424 H 141.893 -1.14767 -4.85417 0
M  V30 1425 H 141.047 0.911638 -5.99812 0
M  V30 1426 H 139.786 1.11105 -4.74876 0
M  V30 1427 H 138.791 -1.10396 -5.38603 0
M  V30 1428 H 140.016 -1.29032 -6.66729 0
M  V30 1429 H 137.962 0.946787 -6.49132 0
M  V30 1430 H 137.879 -0.424399 -7.54808 0
M  V30 1431 H 139.147 0.745876 -7.75923 0
M  V30 1432 N 143.376 1.44774 -0.622745 0
M  V30 1433 C 144.624 2.01721 -0.123655 0
M  V30 1434 C 144.945 1.49172 1.25589 0
M  V30 1435 O 144.215 0.691974 1.83272 0
M  V30 1436 H 142.795 0.745777 -0.0427225 0
M  V30 1437 H 145.457 1.77382 -0.807559 0
M  V30 1438 H 144.553 3.11984 -0.0849534 0
M  V30 1439 N 144.854 0.36279 1.53368 0
M  V30 1440 C 146.101 -0.227776 2.01215 0
M  V30 1441 C 146.429 -1.49003 1.25014 0
M  V30 1442 O 145.684 -1.92876 0.331236 0
M  V30 1443 C 145.983 -0.568417 3.52851 0
M  V30 1444 C 145.649 0.59918 4.46901 0
M  V30 1445 C 144.311 0.919559 4.72332 0
M  V30 1446 C 146.663 1.38156 5.02556 0
M  V30 1447 C 143.991 2.02434 5.5067 0
M  V30 1448 C 146.343 2.47674 5.821 0
M  V30 1449 C 145.007 2.8025 6.05819 0
M  V30 1450 H 144.277 -0.083349 0.736297 0
M  V30 1451 H 146.924 0.494677 1.85001 0
M  V30 1452 H 145.229 -1.37185 3.66998 0
M  V30 1453 H 146.926 -1.03756 3.87344 0
M  V30 1454 H 143.516 0.339437 4.27254 0
M  V30 1455 H 147.7 1.14729 4.82857 0
M  V30 1456 H 142.956 2.28075 5.67267 0
M  V30 1457 H 147.13 3.08716 6.24234 0
M  V30 1458 H 144.757 3.65979 6.66306 0
M  V30 1459 N 146.332 -1.57332 0.0918853 0
M  V30 1460 C 147.609 -1.85691 -0.614668 0
M  V30 1461 C 147.989 -0.988146 -1.86545 0
M  V30 1462 O 147.337 -0.0597055 -2.28422 0
M  V30 1463 C 147.547 -3.36294 -0.933126 0
M  V30 1464 C 148.895 -4.04275 -1.29796 0
M  V30 1465 O 149.919 -3.41157 -1.02424 0
M  V30 1466 O 148.778 -5.1564 -1.81047 0
M  V30 1467 H 145.872 -0.767802 -0.307261 0
M  V30 1468 H 148.418 -1.69244 0.12434 0
M  V30 1469 H 147.19 -3.91273 -0.0456404 0
M  V30 1470 H 146.813 -3.58076 -1.72822 0
M  V30 1471 N 147.81 0.181792 -1.56548 0
M  V30 1472 C 149.057 0.900097 -1.81396 0
M  V30 1473 C 149.385 1.82695 -0.667281 0
M  V30 1474 O 148.64 1.92614 0.346146 0
M  V30 1475 C 148.939 1.73728 -3.12335 0
M  V30 1476 C 148.605 0.960255 -4.40556 0
M  V30 1477 C 147.267 0.745766 -4.75386 0
M  V30 1478 C 149.619 0.414477 -5.19549 0
M  V30 1479 C 146.947 -0.0257694 -5.86694 0
M  V30 1480 C 149.299 -0.343916 -6.31664 0
M  V30 1481 C 147.963 -0.569301 -6.65068 0
M  V30 1482 H 147.233 0.329369 -0.663775 0
M  V30 1483 H 149.88 0.165647 -1.90782 0
M  V30 1484 H 148.185 2.54081 -2.98245 0
M  V30 1485 H 149.882 2.29591 -3.28769 0
M  V30 1486 H 146.472 1.13746 -4.13231 0
M  V30 1487 H 150.656 0.567554 -4.93044 0
M  V30 1488 H 145.912 -0.210233 -6.11038 0
M  V30 1489 H 150.086 -0.774133 -6.92084 0
M  V30 1490 H 147.713 -1.16903 -7.51158 0
M  V30 1491 N 149.288 1.51039 0.449983 0
M  V30 1492 C 150.235 1.71439 1.54523 0
M  V30 1493 C 151.205 0.555871 1.56522 0
M  V30 1494 O 152.39 0.788871 1.73728 0
M  V30 1495 C 149.53 1.83384 2.92343 0
M  V30 1496 C 148.643 3.10873 2.9997 0
M  V30 1497 C 147.778 3.13488 4.28834 0
M  V30 1498 C 146.817 4.35343 4.30282 0
M  V30 1499 N 145.954 4.35579 5.5065 0
M  V30 1500 H 150.794 2.64934 1.36433 0
M  V30 1501 H 148.331 1.31312 0.662982 0
M  V30 1502 H 150.289 1.88291 3.72293 0
M  V30 1503 H 148.919 0.933086 3.0902 0
M  V30 1504 H 147.971 3.15336 2.12761 0
M  V30 1505 H 149.283 4.00814 2.96901 0
M  V30 1506 H 148.437 3.17241 5.17149 0
M  V30 1507 H 147.176 2.21414 4.34543 0
M  V30 1508 H 146.181 4.3178 3.40362 0
M  V30 1509 H 147.406 5.28668 4.26248 0
M  V30 1510 H 145.352 3.46369 5.57104 0
M  V30 1511 H 145.269 5.19313 5.49409 0
M  V30 1512 H 146.537 4.43507 6.41032 0
M  V30 1513 N 150.766 -0.704594 1.40972 0
M  V30 1514 C 151.994 -1.49354 1.43182 0
M  V30 1515 C 152.409 -1.88768 0.0345508 0
M  V30 1516 O 151.766 -1.56184 -0.944081 0
M  V30 1517 C 151.817 -2.76187 2.33244 0
M  V30 1518 O 151.538 -2.38436 3.67532 0
M  V30 1519 C 153.039 -3.7 2.44162 0
M  V30 1520 H 150.259 -0.460559 0.487982 0
M  V30 1521 H 152.803 -0.868261 1.85153 0
M  V30 1522 H 150.958 -3.34974 1.94606 0
M  V30 1523 H 151.372 -3.20126 4.15475 0
M  V30 1524 H 152.846 -4.55803 3.11364 0
M  V30 1525 H 153.323 -4.13867 1.47006 0
M  V30 1526 H 153.929 -3.17121 2.83398 0
M  V30 1527 N 152.244 -1.26651 -0.937939 0
M  V30 1528 C 153.484 -1.13611 -1.69917 0
M  V30 1529 C 153.848 0.314687 -1.89404 0
M  V30 1530 O 155.049 0.567285 -2.62746 0
M  V30 1531 C 153.32 -1.88742 -3.03498 0
M  V30 1532 S 154.879 -1.91794 -3.94665 0
M  V30 1533 H 151.697 -0.405767 -0.583844 0
M  V30 1534 H 154.299 -1.60416 -1.11745 0
M  V30 1535 H 153.003 -2.9336 -2.86999 0
M  V30 1536 H 152.534 -1.42391 -3.66727 0
M  V30 1537 H 154.549 -1.00698 -4.85875 0
M  V30 1538 N 153.722 1.14298 -1.08507 0
M  V30 1539 C 154.67 2.21483 -0.710483 0
M  V30 1540 C 155.664 1.66998 0.284234 0
M  V30 1541 O 156.87 1.79401 0.146692 0
M  V30 1542 H 153.245 0.721578 -0.211729 0
M  V30 1543 H 155.216 2.50348 -1.62384 0
M  V30 1544 C 153.965 3.4743 -0.137007 0
M  V30 1545 H 153.288 3.89686 -0.893592 0
M  V30 1546 H 154.728 4.2391 0.0872789 0
M  V30 1547 C 153.187 3.17548 1.12538 0
M  V30 1548 O 153.717 3.35437 2.21009 0
M  V30 1549 N 151.923 2.71499 1.03617 0
M  V30 1550 H 151.47 2.57143 0.153403 0
M  V30 1551 H 151.428 2.51881 1.88158 0
M  V30 1552 N 155.201 0.870884 1.31352 0
M  V30 1553 C 156.447 0.482987 1.96965 0
M  V30 1554 C 156.78 -0.962462 1.68672 0
M  V30 1555 O 156.055 -1.6779 0.98371 0
M  V30 1556 C 156.338 0.741752 3.52378 0
M  V30 1557 C 156.191 2.2368 3.9024 0
M  V30 1558 C 157.51 0.208838 4.39604 0
M  V30 1559 H 154.629 0.176955 0.715441 0
M  V30 1560 H 157.271 1.09229 1.55464 0
M  V30 1561 H 155.421 0.223149 3.87859 0
M  V30 1562 H 157.093 2.82273 3.64856 0
M  V30 1563 H 155.336 2.70901 3.38814 0
M  V30 1564 H 156.007 2.3685 4.98604 0
M  V30 1565 H 158.483 0.652529 4.10952 0
M  V30 1566 H 157.359 0.419336 5.47296 0
M  V30 1567 H 157.62 -0.889275 4.33064 0
M  V30 1568 N 156.679 -1.44442 0.630414 0
M  V30 1569 C 157.609 -2.33418 -0.0618083 0
M  V30 1570 C 158.59 -1.48165 -0.835541 0
M  V30 1571 O 159.775 -1.76886 -0.801564 0
M  V30 1572 C 156.905 -3.31222 -1.04449 0
M  V30 1573 C 155.859 -4.26288 -0.382436 0
M  V30 1574 C 155.185 -5.13954 -1.47497 0
M  V30 1575 C 156.485 -5.1744 0.710865 0
M  V30 1576 H 158.179 -2.91548 0.681184 0
M  V30 1577 H 155.725 -1.40191 0.329026 0
M  V30 1578 H 157.678 -3.92351 -1.53748 0
M  V30 1579 H 156.402 -2.71299 -1.81836 0
M  V30 1580 H 155.061 -3.6649 0.0899054 0
M  V30 1581 H 154.709 -4.50385 -2.2397 0
M  V30 1582 H 154.409 -5.7837 -1.03737 0
M  V30 1583 H 155.933 -5.77955 -1.96979 0
M  V30 1584 H 157.347 -5.72509 0.300996 0
M  V30 1585 H 155.744 -5.90455 1.07156 0
M  V30 1586 H 156.814 -4.58496 1.57829 0
M  V30 1587 N 158.157 -0.370918 -1.53173 0
M  V30 1588 C 159.403 0.217423 -2.01631 0
M  V30 1589 C 159.736 1.47983 -1.25756 0
M  V30 1590 O 159.011 1.91274 -0.352764 0
M  V30 1591 C 159.294 0.503982 -3.56556 0
M  V30 1592 C 159.147 -0.77243 -4.43118 0
M  V30 1593 C 160.466 1.30234 -4.20389 0
M  V30 1594 H 157.585 0.0775486 -0.732909 0
M  V30 1595 H 160.227 -0.496863 -1.83388 0
M  V30 1596 H 158.377 1.11248 -3.72231 0
M  V30 1597 H 160.049 -1.4098 -4.39229 0
M  V30 1598 H 158.292 -1.39167 -4.10871 0
M  V30 1599 H 158.963 -0.526815 -5.4948 0
M  V30 1600 H 161.439 0.787546 -4.08579 0
M  V30 1601 H 160.315 1.47158 -5.28806 0
M  V30 1602 H 160.576 2.31237 -3.76805 0
M  V30 1603 N 159.635 1.57281 -0.100228 0
M  V30 1604 C 160.598 2.13158 0.842398 0
M  V30 1605 C 161.598 1.06202 1.20738 0
M  V30 1606 O 162.788 1.32066 1.13597 0
M  V30 1607 C 159.92 2.65639 2.13655 0
M  V30 1608 H 161.113 2.97766 0.357114 0
M  V30 1609 H 158.666 1.5559 0.148823 0
M  V30 1610 H 159.401 1.84566 2.66657 0
M  V30 1611 H 159.186 3.43844 1.88451 0
M  V30 1612 H 160.676 3.08846 2.81077 0
M  V30 1613 N 161.113 -0.173488 1.56642 0
M  V30 1614 C 162.043 -1.2171 1.99271 0
M  V30 1615 C 163.024 -1.46289 0.867959 0
M  V30 1616 O 164.209 -1.5766 1.13388 0
M  V30 1617 C 161.339 -2.55651 2.35074 0
M  V30 1618 C 160.293 -2.45645 3.50489 0
M  V30 1619 C 159.619 -3.84056 3.72028 0
M  V30 1620 C 160.919 -1.96302 4.84007 0
M  V30 1621 H 162.613 -0.86275 2.867 0
M  V30 1622 H 160.159 -0.413571 1.37933 0
M  V30 1623 H 162.112 -3.2886 2.63494 0
M  V30 1624 H 160.836 -2.92869 1.44552 0
M  V30 1625 H 159.495 -1.7489 3.22194 0
M  V30 1626 H 159.143 -4.18664 2.788 0
M  V30 1627 H 158.843 -3.7823 4.49684 0
M  V30 1628 H 160.367 -4.58854 4.02846 0
M  V30 1629 H 161.781 -2.59284 5.11317 0
M  V30 1630 H 160.178 -2.01429 5.65284 0
M  V30 1631 H 161.248 -0.917226 4.76146 0
M  V30 1632 N 162.591 -1.51276 -0.441967 0
M  V30 1633 C 163.501 -1.75092 -1.56141 0
M  V30 1634 C 164.517 -0.634963 -1.62001 0
M  V30 1635 O 165.693 -0.916686 -1.79329 0
M  V30 1636 C 162.758 -1.86666 -2.92158 0
M  V30 1637 C 161.819 -3.10506 -2.96453 0
M  V30 1638 C 161.052 -3.21519 -4.25982 0
M  V30 1639 O 161.275 -2.38586 -5.18105 0
M  V30 1640 O 160.209 -4.14465 -4.36466 0
M  V30 1641 H 164.035 -2.70044 -1.38961 0
M  V30 1642 H 161.62 -1.35722 -0.624499 0
M  V30 1643 H 163.502 -1.96292 -3.72891 0
M  V30 1644 H 162.177 -0.949014 -3.09476 0
M  V30 1645 H 161.084 -3.06363 -2.14692 0
M  V30 1646 H 162.417 -4.01945 -2.84079 0
M  V30 1647 N 164.069 0.697108 -1.41344 0
M  V30 1648 C 165.001 1.8224 -1.39001 0
M  V30 1649 C 166.014 1.60152 -0.292428 0
M  V30 1650 O 167.203 1.69684 -0.554048 0
M  V30 1651 C 164.303 3.18976 -1.14489 0
M  V30 1652 C 163.476 3.68105 -2.36258 0
M  V30 1653 C 162.535 4.83506 -2.07625 0
M  V30 1654 O 161.561 4.95201 -2.8065 0
M  V30 1655 N 162.763 5.70637 -1.06555 0
M  V30 1656 H 165.528 1.84742 -2.35988 0
M  V30 1657 H 163.089 0.87937 -1.35936 0
M  V30 1658 H 165.081 3.93801 -0.932885 0
M  V30 1659 H 163.651 3.11508 -0.261043 0
M  V30 1660 H 162.871 2.84204 -2.7317 0
M  V30 1661 H 164.159 3.97667 -3.17393 0
M  V30 1662 H 163.557 5.63817 -0.461125 0
M  V30 1663 H 162.114 6.45368 -0.913444 0
M  V30 1664 N 165.547 1.27147 0.931209 0
M  V30 1665 C 166.479 1.05364 2.03546 0
M  V30 1666 C 167.492 0.0108438 1.62796 0
M  V30 1667 O 168.681 0.25202 1.76712 0
M  V30 1668 C 165.781 0.575566 3.33977 0
M  V30 1669 C 164.954 1.68985 4.03439 0
M  V30 1670 C 164.013 1.20813 5.12143 0
M  V30 1671 O 163.039 1.90712 5.363 0
M  V30 1672 N 164.241 0.0618851 5.80467 0
M  V30 1673 H 167.006 2.00454 2.22796 0
M  V30 1674 H 164.567 1.18666 1.10136 0
M  V30 1675 H 166.559 0.237264 4.04004 0
M  V30 1676 H 165.129 -0.282016 3.11325 0
M  V30 1677 H 164.349 2.19861 3.27192 0
M  V30 1678 H 165.637 2.4378 4.46597 0
M  V30 1679 H 165.035 -0.521621 5.6329 0
M  V30 1680 H 163.592 -0.217264 6.51438 0
M  V30 1681 N 167.025 -1.13721 1.09112 0
M  V30 1682 C 168.25 -1.89314 0.847053 0
M  V30 1683 C 168.675 -1.78416 -0.595774 0
M  V30 1684 O 168.033 -1.12942 -1.41823 0
M  V30 1685 C 168.081 -3.3701 1.28284 0
M  V30 1686 O 167.185 -4.10054 0.439267 0
M  V30 1687 H 166.526 -0.588745 0.307044 0
M  V30 1688 H 169.056 -1.43902 1.45442 0
M  V30 1689 H 169.066 -3.87834 1.26683 0
M  V30 1690 H 167.741 -3.4426 2.33363 0
M  V30 1691 H 166.318 -3.69266 0.519312 0
M  V30 1692 N 168.503 -0.877838 -1.30888 0
M  V30 1693 C 169.914 -0.544193 -1.78593 0
M  V30 1694 C 170.265 0.939301 -1.72254 0
M  V30 1695 O 169.39 1.7337 -1.29505 0
M  V30 1696 C 169.985 -0.98105 -3.24285 0
M  V30 1697 C 168.544 -0.698935 -3.69854 0
M  V30 1698 C 167.691 -1.168 -2.51502 0
M  V30 1699 H 170.642 -1.06278 -1.17859 0
M  V30 1700 H 170.663 -0.307009 -3.79259 0
M  V30 1701 H 170.175 -2.06079 -3.28866 0
M  V30 1702 H 168.276 0.369112 -3.70767 0
M  V30 1703 H 168.389 -1.28148 -4.61644 0
M  V30 1704 H 166.753 -0.587535 -2.47831 0
M  V30 1705 H 167.536 -2.25533 -2.58824 0
M  V30 1706 N 169.982 1.44106 -0.638065 0
M  V30 1707 C 171.259 1.95453 -0.0759321 0
M  V30 1708 C 171.639 1.57984 1.40015 0
M  V30 1709 O 170.987 0.857361 2.11806 0
M  V30 1710 C 171.197 3.47655 -0.306132 0
M  V30 1711 C 172.545 4.24114 -0.203008 0
M  V30 1712 O 173.569 3.55405 -0.237871 0
M  V30 1713 O 172.428 5.46381 -0.113827 0
M  V30 1714 H 169.522 0.826797 0.0183332 0
M  V30 1715 H 172.068 1.54122 -0.710251 0
M  V30 1716 H 170.84 3.68 -1.3301 0
M  V30 1717 H 170.463 3.95949 0.361991 0
M  V30 1718 N 171.46 0.379036 1.52974 0
M  V30 1719 C 172.709 -0.207612 2.00629 0
M  V30 1720 C 173.022 -1.48758 1.27006 0
M  V30 1721 O 174.228 -2.15365 1.65318 0
M  V30 1722 C 172.684 -0.42053 3.57435 0
M  V30 1723 C 172.292 0.845587 4.39948 0
M  V30 1724 C 174.036 -0.964102 4.13407 0
M  V30 1725 C 171.943 0.601513 5.88333 0
M  V30 1726 H 170.873 -0.0813591 0.749598 0
M  V30 1727 H 173.524 0.499853 1.76561 0
M  V30 1728 H 171.906 -1.18959 3.7771 0
M  V30 1729 H 173.08 1.61848 4.31442 0
M  V30 1730 H 171.395 1.31336 3.95145 0
M  V30 1731 H 173.992 -1.16225 5.21916 0
M  V30 1732 H 174.335 -1.93019 3.68849 0
M  V30 1733 H 174.868 -0.25487 3.96983 0
M  V30 1734 H 171.607 1.53831 6.37194 0
M  V30 1735 H 171.127 -0.132628 5.99653 0
M  V30 1736 H 172.806 0.232134 6.46583 0
M  V30 1737 N 172.938 -1.57226 0.108567 0
M  V30 1738 C 173.901 -2.13602 -0.831082 0
M  V30 1739 C 174.901 -1.06841 -1.20173 0
M  V30 1740 O 176.091 -1.32666 -1.12895 0
M  V30 1741 C 173.223 -2.66769 -2.12243 0
M  V30 1742 H 174.416 -2.97951 -0.341317 0
M  V30 1743 H 171.969 -1.55667 -0.14057 0
M  V30 1744 H 172.704 -1.85977 -2.65675 0
M  V30 1745 H 172.489 -3.44839 -1.86625 0
M  V30 1746 H 173.979 -3.10332 -2.79435 0
M  V30 1747 N 174.416 0.165178 -1.56732 0
M  V30 1748 C 175.348 1.22911 -1.93457 0
M  V30 1749 C 176.361 1.40152 -0.828333 0
M  V30 1750 O 177.55 1.40046 -1.10677 0
M  V30 1751 C 174.65 2.59686 -2.17753 0
M  V30 1752 C 173.823 2.63663 -3.48999 0
M  V30 1753 C 172.882 3.81845 -3.62051 0
M  V30 1754 O 171.908 3.67559 -4.34613 0
M  V30 1755 N 173.11 4.98557 -2.97357 0
M  V30 1756 H 175.875 0.917118 -2.85323 0
M  V30 1757 H 173.436 0.354895 -1.57962 0
M  V30 1758 H 175.428 3.37225 -2.23743 0
M  V30 1759 H 173.998 2.83251 -1.32242 0
M  V30 1760 H 173.218 1.72173 -3.54612 0
M  V30 1761 H 174.506 2.63336 -4.35352 0
M  V30 1762 H 173.904 5.13065 -2.38287 0
M  V30 1763 H 172.461 5.73936 -3.08934 0
M  V30 1764 N 175.894 1.51508 0.433938 0
M  V30 1765 C 177.134 1.66006 1.19253 0
M  V30 1766 C 177.498 0.369868 1.88404 0
M  V30 1767 O 178.699 0.39066 2.65946 0
M  V30 1768 C 176.97 2.83229 2.17981 0
M  V30 1769 S 178.529 3.18075 3.02281 0
M  V30 1770 H 175.347 0.584821 0.404358 0
M  V30 1771 H 177.949 1.89425 0.48357 0
M  V30 1772 H 176.653 3.75407 1.65824 0
M  V30 1773 H 176.184 2.6201 2.93453 0
M  V30 1774 H 178.199 2.64772 4.19655 0
M  V30 1775 N 177.372 -0.689602 1.41712 0
M  V30 1776 C 178.618 -1.45181 1.41599 0
M  V30 1777 C 178.951 -1.94181 0.0270081 0
M  V30 1778 O 178.226 -1.6993 -0.946265 0
M  V30 1779 C 178.509 -2.65945 2.42787 0
M  V30 1780 C 178.362 -2.22672 3.90816 0
M  V30 1781 C 179.681 -3.68149 2.41151 0
M  V30 1782 H 176.8 -0.526576 0.515642 0
M  V30 1783 H 179.442 -0.784947 1.73028 0
M  V30 1784 H 177.592 -3.2284 2.16116 0
M  V30 1785 H 179.264 -1.71058 4.28412 0
M  V30 1786 H 177.507 -1.54394 4.05395 0
M  V30 1787 H 178.178 -3.0935 4.57172 0
M  V30 1788 H 180.654 -3.2094 2.64834 0
M  V30 1789 H 179.53 -4.50248 3.13955 0
M  V30 1790 H 179.791 -4.18259 1.43221 0
M  V30 1791 N 178.85 -1.27639 -0.924453 0
M  V30 1792 C 179.8 -1.07295 -2.01176 0
M  V30 1793 C 180.784 5.77352e-05 -1.609 0
M  V30 1794 O 181.976 -0.218855 -1.75642 0
M  V30 1795 C 179.105 -0.725592 -3.35544 0
M  V30 1796 C 178.191 -1.83691 -3.82254 0
M  V30 1797 N 178.582 -3.07697 -4.01443 0
M  V30 1798 C 176.88 -1.72433 -4.11319 0
M  V30 1799 C 177.581 -3.80037 -4.40394 0
M  V30 1800 N 176.557 -3.0782 -4.48049 0
M  V30 1801 H 180.359 -2.01399 -2.14046 0
M  V30 1802 H 177.873 -1.18401 -1.11153 0
M  V30 1803 H 179.87 -0.560959 -4.13109 0
M  V30 1804 H 178.53 0.207782 -3.24034 0
M  V30 1805 H 179.541 -3.43424 -3.8766 0
M  V30 1806 H 176.218 -0.862005 -4.08504 0
M  V30 1807 H 177.608 -4.86632 -4.63291 0
M  V30 1808 N 180.328 1.1314 -1.09713 0
M  V30 1809 C 181.258 2.20748 -0.761102 0
M  V30 1810 C 182.239 1.68061 0.262566 0
M  V30 1811 O 183.424 1.93765 0.129977 0
M  V30 1812 C 180.554 3.46812 -0.184054 0
M  V30 1813 C 179.508 4.12606 -1.13757 0
M  V30 1814 C 178.834 5.33031 -0.422083 0
M  V30 1815 C 180.134 4.59603 -2.48118 0
M  V30 1816 H 181.828 2.49113 -1.66082 0
M  V30 1817 H 179.374 1.19734 -0.799987 0
M  V30 1818 H 181.327 4.21353 0.0631215 0
M  V30 1819 H 180.051 3.17851 0.750868 0
M  V30 1820 H 178.71 3.40036 -1.37007 0
M  V30 1821 H 178.358 5.00335 0.517072 0
M  V30 1822 H 178.058 5.77999 -1.05788 0
M  V30 1823 H 179.582 6.10325 -0.183277 0
M  V30 1824 H 180.996 5.25552 -2.29059 0
M  V30 1825 H 179.393 5.15321 -3.07514 0
M  V30 1826 H 180.463 3.73971 -3.08665 0
M  V30 1827 N 181.806 0.884767 1.30421 0
M  V30 1828 C 183.083 0.423185 1.90967 0
M  V30 1829 C 183.463 -1.09605 1.80416 0
M  V30 1830 O 182.811 -1.93126 1.22125 0
M  V30 1831 C 183.021 0.921056 3.36627 0
M  V30 1832 C 184.369 0.955903 4.137 0
M  V30 1833 O 185.393 0.867706 3.4547 0
M  V30 1834 O 184.252 1.08614 5.35598 0
M  V30 1835 H 181.346 0.129369 0.816819 0
M  V30 1836 H 183.892 0.973653 1.3899 0
M  V30 1837 H 182.664 1.96489 3.3839 0
M  V30 1838 H 182.287 0.349741 3.96059 0
M  V30 1839 N 183.284 -1.43765 0.645699 0
M  V30 1840 C 184.7 -1.56509 0.312591 0
M  V30 1841 C 184.9 -1.6307 -1.18365 0
M  V30 1842 O 183.956 -1.58167 -1.96824 0
M  V30 1843 C 185.269 -2.82968 1.01733 0
M  V30 1844 C 186.817 -2.96701 0.996865 0
M  V30 1845 C 187.292 -4.25982 1.68236 0
M  V30 1846 N 188.783 -4.32829 1.64964 0
M  V30 1847 C 189.518 -5.31613 2.14885 0
M  V30 1848 N 189.014 -6.36718 2.73061 0
M  V30 1849 N 190.807 -5.23217 2.05428 0
M  V30 1850 H 182.958 -1.3775 1.61675 0
M  V30 1851 H 185.221 -0.661067 0.679481 0
M  V30 1852 H 184.927 -2.84156 2.0724 0
M  V30 1853 H 184.801 -3.72957 0.564177 0
M  V30 1854 H 187.188 -2.95058 -0.0497719 0
M  V30 1855 H 187.269 -2.08022 1.48865 0
M  V30 1856 H 186.913 -4.28386 2.72852 0
M  V30 1857 H 186.843 -5.13545 1.16529 0
M  V30 1858 H 189.334 -3.57493 1.22503 0
M  V30 1859 H 189.647 -7.08401 3.08848 0
M  V30 1860 H 187.992 -6.37362 2.77118 0
M  V30 1861 H 191.183 -4.40019 1.59689 0
M  V30 1862 H 191.356 -6.00045 2.44643 0
M  V30 1863 N 184.763 -0.387143 -1.52771 0
M  V30 1864 C 185.711 0.463953 -2.27926 0
M  V30 1865 C 186.705 1.06493 -1.31741 0
M  V30 1866 O 187.911 1.00565 -1.49287 0
M  V30 1867 H 184.286 0.16837 -0.732909 0
M  V30 1868 H 186.257 -0.19141 -2.97785 0
M  V30 1869 C 185.006 1.5803 -3.09713 0
M  V30 1870 H 184.329 1.12718 -3.83581 0
M  V30 1871 H 185.769 2.15008 -3.65442 0
M  V30 1872 C 184.228 2.53509 -2.2189 0
M  V30 1873 O 184.758 3.56863 -1.84422 0
M  V30 1874 N 182.964 2.23199 -1.86093 0
M  V30 1875 H 182.511 1.39185 -2.16761 0
M  V30 1876 H 182.469 2.87333 -1.27621 0
M  V30 1877 N 186.241 1.57166 -0.116904 0
M  V30 1878 C 187.151 2.18745 0.847812 0
M  V30 1879 C 188.167 1.163 1.29423 0
M  V30 1880 O 189.343 1.48761 1.35765 0
M  V30 1881 C 186.408 2.77307 2.0809 0
M  V30 1882 C 185.469 3.94781 1.68661 0
M  V30 1883 C 184.702 4.50541 2.86091 0
M  V30 1884 O 184.925 4.05202 4.01456 0
M  V30 1885 O 183.859 5.41256 2.63298 0
M  V30 1886 H 187.685 3.01632 0.353778 0
M  V30 1887 H 185.27 1.49005 0.108599 0
M  V30 1888 H 187.152 3.14647 2.80313 0
M  V30 1889 H 185.827 1.97452 2.56504 0
M  V30 1890 H 184.734 3.62214 0.935518 0
M  V30 1891 H 186.067 4.76065 1.24991 0
M  V30 1892 N 187.719 -0.156864 1.56817 0
M  V30 1893 C 188.629 -1.2136 2.00771 0
M  V30 1894 C 189.645 -1.47598 0.921459 0
M  V30 1895 O 190.821 -1.59462 1.2302 0
M  V30 1896 C 187.886 -2.52943 2.37109 0
M  V30 1897 C 186.947 -2.34439 3.59634 0
M  V30 1898 C 186.18 -3.59748 3.94229 0
M  V30 1899 O 186.403 -4.65526 3.29609 0
M  V30 1900 O 185.337 -3.52998 4.8752 0
M  V30 1901 H 189.163 -0.870468 2.90958 0
M  V30 1902 H 186.748 -0.36484 1.44877 0
M  V30 1903 H 188.63 -3.30538 2.61386 0
M  V30 1904 H 187.305 -2.86806 1.5008 0
M  V30 1905 H 186.212 -1.54828 3.40557 0
M  V30 1906 H 187.545 -2.05496 4.4725 0
M  V30 1907 N 189.197 -1.51736 -0.425897 0
M  V30 1908 C 190.474 -1.55519 -1.1863 0
M  V30 1909 C 190.854 -0.326219 -2.08564 0
M  V30 1910 O 190.202 0.688012 -2.17896 0
M  V30 1911 C 190.412 -2.87521 -1.9782 0
M  V30 1912 C 191.76 -3.39899 -2.54468 0
M  V30 1913 O 192.784 -2.89148 -2.08019 0
M  V30 1914 O 191.643 -4.2848 -3.39215 0
M  V30 1915 H 188.737 -0.625739 -0.540721 0
M  V30 1916 H 191.283 -1.64055 -0.434038 0
M  V30 1917 H 190.055 -3.68422 -1.31836 0
M  V30 1918 H 189.678 -2.822 -2.80088 0
M  V30 1919 N 190.675 0.682077 -1.42076 0
M  V30 1920 C 191.921 1.44428 -1.42367 0
M  V30 1921 C 192.254 1.94164 -0.0373056 0
M  V30 1922 O 191.529 1.70429 0.937239 0
M  V30 1923 C 191.812 2.64654 -2.44194 0
M  V30 1924 C 191.665 2.20596 -3.91991 0
M  V30 1925 C 192.984 3.66865 -2.431 0
M  V30 1926 H 190.103 0.523834 -0.518428 0
M  V30 1927 H 192.745 0.77576 -1.73442 0
M  V30 1928 H 190.895 3.2169 -2.17826 0
M  V30 1929 H 192.567 1.68783 -4.29313 0
M  V30 1930 H 190.81 1.52242 -4.06208 0
M  V30 1931 H 191.481 3.06921 -4.58807 0
M  V30 1932 H 193.957 3.19531 -2.66532 0
M  V30 1933 H 192.833 4.48577 -3.16339 0
M  V30 1934 H 193.094 4.17493 -1.45437 0
M  V30 1935 N 192.153 1.28127 0.917671 0
M  V30 1936 C 193.401 1.14825 1.66312 0
M  V30 1937 C 193.722 -0.304379 1.9261 0
M  V30 1938 O 192.992 -1.21149 1.53947 0
M  V30 1939 H 191.572 0.421953 0.616413 0
M  V30 1940 H 194.234 1.608 1.10134 0
M  V30 1941 H 193.33 1.68489 2.62712 0
M  V30 1942 N 193.631 -1.12557 1.10312 0
M  V30 1943 C 194.594 -2.16434 0.75424 0
M  V30 1944 C 195.594 -1.59278 -0.220685 0
M  V30 1945 O 196.784 -1.742 0.00230591 0
M  V30 1946 C 193.916 -3.40699 0.116987 0
M  V30 1947 H 195.109 -2.48811 1.67431 0
M  V30 1948 H 192.662 -1.27542 0.903475 0
M  V30 1949 H 193.397 -3.13921 -0.813877 0
M  V30 1950 H 193.182 -3.83459 0.818613 0
M  V30 1951 H 194.672 -4.17451 -0.111387 0
M  V30 1952 N 195.109 -0.891671 -1.2995 0
M  V30 1953 C 196.357 -0.512486 -1.95494 0
M  V30 1954 C 196.678 0.942776 -1.70695 0
M  V30 1955 O 195.948 1.66374 -1.03424 0
M  V30 1956 H 194.528 -0.186533 -0.723336 0
M  V30 1957 H 197.19 -1.13621 -1.58355 0
M  V30 1958 H 196.286 -0.688342 -3.04415 0
M  V30 1959 N 196.587 1.43421 -0.653314 0
M  V30 1960 C 197.864 1.95361 -0.0966581 0
M  V30 1961 C 198.244 1.59461 1.38331 0
M  V30 1962 O 197.592 0.879777 2.10884 0
M  V30 1963 C 197.802 3.47311 -0.342988 0
M  V30 1964 C 199.15 4.23875 -0.24798 0
M  V30 1965 O 200.174 3.55133 -0.275553 0
M  V30 1966 O 199.033 5.4623 -0.171771 0
M  V30 1967 H 196.127 0.826945 0.00956291 0
M  V30 1968 H 198.673 1.5336 -0.726558 0
M  V30 1969 H 197.445 3.66569 -1.36906 0
M  V30 1970 H 197.068 3.9631 0.319975 0
M  V30 1971 N 198.065 0.39524 1.52563 0
M  V30 1972 C 198.997 -0.472201 2.24283 0
M  V30 1973 C 200.01 -1.02178 1.26742 0
M  V30 1974 O 201.199 -0.923097 1.52778 0
M  V30 1975 C 198.299 -1.66775 2.95024 0
M  V30 1976 C 197.472 -1.2445 4.19322 0
M  V30 1977 C 196.531 -2.30539 4.7301 0
M  V30 1978 O 195.557 -1.91702 5.35947 0
M  V30 1979 N 196.759 -3.6253 4.53379 0
M  V30 1980 H 199.524 0.142282 2.99362 0
M  V30 1981 H 197.085 0.2219 1.60372 0
M  V30 1982 H 199.077 -2.37283 3.27839 0
M  V30 1983 H 197.647 -2.18845 2.23217 0
M  V30 1984 H 196.867 -0.368069 3.92478 0
M  V30 1985 H 198.155 -0.938457 5.0007 0
M  V30 1986 H 197.553 -3.96841 4.03154 0
M  V30 1987 H 196.11 -4.29055 4.90668 0
M  V30 1988 N 199.544 -1.57102 0.125237 0
M  V30 1989 C 200.792 -1.95021 -0.530198 0
M  V30 1990 C 201.113 -1.00982 -1.66816 0
M  V30 1991 O 200.383 -0.0672693 -1.95784 0
M  V30 1992 H 198.963 -0.720046 -0.198853 0
M  V30 1993 H 201.625 -1.93916 0.19564 0
M  V30 1994 H 200.721 -2.98211 -0.920681 0
M  V30 1995 N 201.022 0.148545 -1.56898 0
M  V30 1996 C 201.952 1.18524 -2.01182 0
M  V30 1997 C 202.933 1.4489 -0.891123 0
M  V30 1998 O 204.118 1.55836 -1.15882 0
M  V30 1999 C 201.248 2.51879 -2.39112 0
M  V30 2000 C 200.202 2.40038 -3.54353 0
M  V30 2001 C 199.528 3.78089 -3.78091 0
M  V30 2002 C 200.828 1.88577 -4.87069 0
M  V30 2003 H 202.522 0.817029 -2.88036 0
M  V30 2004 H 200.068 0.391575 -1.38574 0
M  V30 2005 H 202.021 3.24627 -2.68692 0
M  V30 2006 H 200.745 2.90532 -1.49193 0
M  V30 2007 H 199.404 1.69742 -3.24936 0
M  V30 2008 H 199.052 4.14175 -2.85426 0
M  V30 2009 H 198.752 3.71028 -4.55645 0
M  V30 2010 H 200.276 4.52387 -4.10095 0
M  V30 2011 H 201.69 2.51117 -5.15377 0
M  V30 2012 H 200.087 1.9241 -5.68417 0
M  V30 2013 H 201.157 0.84136 -4.77545 0
M  V30 2014 N 202.5 1.5196 0.417844 0
M  V30 2015 C 203.433 1.69387 1.52916 0
M  V30 2016 C 204.411 0.541419 1.53321 0
M  V30 2017 O 205.595 0.767695 1.72159 0
M  V30 2018 C 202.722 1.72525 2.91467 0
M  V30 2019 C 201.768 2.93967 3.09008 0
M  V30 2020 S 202.601 4.54461 2.83242 0
M  V30 2021 C 203.757 4.60372 4.24038 0
M  V30 2022 H 203.99 2.63382 1.37903 0
M  V30 2023 H 201.523 1.41889 0.608845 0
M  V30 2024 H 203.481 1.75018 3.7132 0
M  V30 2025 H 202.142 0.796733 3.03827 0
M  V30 2026 H 201.335 2.92619 4.10353 0
M  V30 2027 H 200.937 2.89316 2.37007 0
M  V30 2028 H 203.229 4.37213 5.17544 0
M  V30 2029 H 204.172 5.62273 4.30412 0
M  V30 2030 H 204.58 3.89492 4.08602 0
M  V30 2031 N 203.978 -0.674533 1.42435 0
M  V30 2032 C 205.225 -1.43459 1.42919 0
M  V30 2033 C 205.553 -1.94446 0.0457312 0
M  V30 2034 O 204.808 -1.7132 -0.94593 0
M  V30 2035 C 205.107 -2.64767 2.40069 0
M  V30 2036 C 204.773 -2.3232 3.86443 0
M  V30 2037 C 203.435 -2.23182 4.26314 0
M  V30 2038 C 205.787 -2.05977 4.78773 0
M  V30 2039 C 203.115 -1.85827 5.56494 0
M  V30 2040 C 205.467 -1.70125 6.09295 0
M  V30 2041 C 204.131 -1.59498 6.48164 0
M  V30 2042 H 203.401 -0.524952 0.522978 0
M  V30 2043 H 206.048 -0.769097 1.75377 0
M  V30 2044 H 204.353 -3.36349 2.00939 0
M  V30 2045 H 206.05 -3.22949 2.37707 0
M  V30 2046 H 202.64 -2.40334 3.54877 0
M  V30 2047 H 206.824 -2.11969 4.48757 0
M  V30 2048 H 202.08 -1.76168 5.8547 0
M  V30 2049 H 206.254 -1.48767 6.80324 0
M  V30 2050 H 203.881 -1.30322 7.48946 0
M  V30 2051 N 205.456 -1.28612 -0.910864 0
M  V30 2052 C 206.704 -1.15705 -1.65701 0
M  V30 2053 C 207.025 0.29416 -1.92769 0
M  V30 2054 O 206.295 1.20331 -1.54588 0
M  V30 2055 H 204.875 -0.425216 -0.614167 0
M  V30 2056 H 207.537 -1.61381 -1.0928 0
M  V30 2057 H 206.633 -1.6988 -2.61815 0
M  V30 2058 N 206.934 1.1197 -1.10907 0
M  V30 2059 C 208.164 1.8713 -0.875553 0
M  V30 2060 C 208.572 1.8016 0.577843 0
M  V30 2061 O 207.915 1.17699 1.41042 0
M  V30 2062 C 207.977 3.37005 -1.2517 0
M  V30 2063 C 207.641 3.67748 -2.71313 0
M  V30 2064 C 208.638 3.65698 -3.69542 0
M  V30 2065 C 206.323 3.96928 -3.07821 0
M  V30 2066 C 208.317 3.92395 -5.023 0
M  V30 2067 C 206.004 4.23284 -4.40765 0
M  V30 2068 C 207.002 4.21005 -5.37814 0
M  V30 2069 O 206.69 4.46704 -6.68364 0
M  V30 2070 H 206.422 0.598786 -0.313737 0
M  V30 2071 H 208.976 1.42568 -1.47863 0
M  V30 2072 H 207.206 3.82146 -0.591741 0
M  V30 2073 H 208.895 3.93519 -0.994877 0
M  V30 2074 H 209.661 3.43211 -3.42682 0
M  V30 2075 H 205.54 3.97841 -2.32902 0
M  V30 2076 H 209.084 3.90531 -5.78041 0
M  V30 2077 H 204.981 4.45246 -4.67361 0
M  V30 2078 H 205.749 4.64299 -6.74069 0
M  V30 2079 N 208.412 0.89855 1.29475 0
M  V30 2080 C 209.375 0.380272 2.26023 0
M  V30 2081 C 210.375 -0.484891 1.53315 0
M  V30 2082 O 211.565 -0.290108 1.71767 0
M  V30 2083 C 208.697 -0.45651 3.3783 0
M  V30 2084 H 209.89 1.23295 2.73383 0
M  V30 2085 H 207.443 0.676589 1.40897 0
M  V30 2086 H 208.178 -1.32922 2.95808 0
M  V30 2087 H 207.963 0.163393 3.91759 0
M  V30 2088 H 209.453 -0.810466 4.0966 0
M  V30 2089 N 209.89 -1.43072 0.660911 0
M  V30 2090 C 211.118 -2.06067 0.185422 0
M  V30 2091 C 211.533 -1.49582 -1.15198 0
M  V30 2092 O 210.89 -0.630134 -1.71276 0
M  V30 2093 C 210.941 -3.61371 0.0966523 0
M  V30 2094 O 210.662 -4.15758 1.38119 0
M  V30 2095 C 212.163 -4.41455 -0.403996 0
M  V30 2096 H 209.383 -0.664459 0.0934604 0
M  V30 2097 H 211.927 -1.83447 0.90373 0
M  V30 2098 H 210.082 -3.8315 -0.572259 0
M  V30 2099 H 210.496 -5.09499 1.24542 0
M  V30 2100 H 211.97 -5.50437 -0.415045 0
M  V30 2101 H 212.447 -4.15036 -1.43674 0
M  V30 2102 H 213.053 -4.24663 0.232691 0
M  V30 2103 N 211.368 -0.403325 -1.52352 0
M  V30 2104 C 212.645 0.232611 -1.94212 0
M  V30 2105 C 213.025 1.63133 -1.33981 0
M  V30 2106 O 212.373 2.22659 -0.513344 0
M  V30 2107 C 212.583 0.244811 -3.4814 0
M  V30 2108 C 213.931 0.46698 -4.22024 0
M  V30 2109 O 214.955 0.324419 -3.5472 0
M  V30 2110 O 213.814 0.74747 -5.41364 0
M  V30 2111 H 210.908 0.148223 -0.813609 0
M  V30 2112 H 213.454 -0.458848 -1.63379 0
M  V30 2113 H 212.226 -0.734378 -3.84347 0
M  V30 2114 H 211.849 0.980611 -3.85318 0
M  V30 2115 N 212.846 1.57033 -0.133567 0
M  V30 2116 C 213.756 2.19632 0.824564 0
M  V30 2117 C 214.772 1.17666 1.28182 0
M  V30 2118 O 215.948 1.50193 1.3418 0
M  V30 2119 C 213.013 2.79499 2.05137 0
M  V30 2120 C 212.074 3.96548 1.64464 0
M  V30 2121 C 211.307 4.5355 2.81297 0
M  V30 2122 O 211.53 4.09438 3.97136 0
M  V30 2123 O 210.464 5.44018 2.57542 0
M  V30 2124 H 214.29 3.01991 0.321766 0
M  V30 2125 H 211.875 1.49112 0.0927889 0
M  V30 2126 H 213.757 3.17602 2.7696 0
M  V30 2127 H 212.432 2.00162 2.54395 0
M  V30 2128 H 211.339 3.63186 0.897048 0
M  V30 2129 H 212.672 4.77364 1.19934 0
M  V30 2130 N 214.325 -0.140222 1.56975 0
M  V30 2131 C 215.553 -0.866437 1.87884 0
M  V30 2132 C 215.968 -1.74428 0.722517 0
M  V30 2133 O 215.325 -1.79891 -0.30749 0
M  V30 2134 C 215.376 -1.71753 3.18093 0
M  V30 2135 O 215.097 -0.875056 4.29272 0
M  V30 2136 C 216.598 -2.55074 3.62563 0
M  V30 2137 H 213.818 -0.25019 0.622612 0
M  V30 2138 H 216.362 -0.130977 2.0408 0
M  V30 2139 H 214.517 -2.40598 3.03631 0
M  V30 2140 H 214.931 -1.46002 5.03769 0
M  V30 2141 H 216.405 -3.10356 4.5649 0
M  V30 2142 H 216.882 -3.31434 2.88181 0
M  V30 2143 H 217.488 -1.91509 3.79743 0
M  V30 2144 N 215.803 -1.52179 -0.40978 0
M  V30 2145 C 216.713 -1.78364 -1.52392 0
M  V30 2146 C 217.729 -0.669183 -1.60617 0
M  V30 2147 O 218.905 -0.954518 -1.77344 0
M  V30 2148 C 215.97 -1.92822 -2.88133 0
M  V30 2149 C 215.031 -3.16725 -2.898 0
M  V30 2150 C 214.264 -3.30483 -4.19067 0
M  V30 2151 O 214.487 -2.49522 -5.12928 0
M  V30 2152 O 213.421 -4.2363 -4.27576 0
M  V30 2153 H 217.247 -2.72931 -1.33201 0
M  V30 2154 H 214.832 -1.37016 -0.59557 0
M  V30 2155 H 216.714 -2.04157 -3.68643 0
M  V30 2156 H 215.389 -1.01444 -3.07393 0
M  V30 2157 H 214.296 -3.10848 -2.08146 0
M  V30 2158 H 215.629 -4.07881 -2.75489 0
M  V30 2159 N 217.281 0.66697 -1.42791 0
M  V30 2160 C 218.191 1.80962 -1.49299 0
M  V30 2161 C 219.207 1.69775 -0.381108 0
M  V30 2162 O 220.383 1.91188 -0.633188 0
M  V30 2163 C 217.448 3.17156 -1.40045 0
M  V30 2164 C 216.509 3.40242 -2.6179 0
M  V30 2165 C 215.742 4.69939 -2.52969 0
M  V30 2166 O 215.965 5.48372 -1.56985 0
M  V30 2167 O 214.899 4.94441 -3.43237 0
M  V30 2168 H 218.725 1.78427 -2.45759 0
M  V30 2169 H 216.31 0.823713 -1.24641 0
M  V30 2170 H 218.192 3.98413 -1.37276 0
M  V30 2171 H 216.867 3.20312 -0.467138 0
M  V30 2172 H 215.774 2.58802 -2.70134 0
M  V30 2173 H 217.107 3.41923 -3.54047 0
M  V30 2174 N 218.759 1.29093 0.90403 0
M  V30 2175 C 219.999 1.18076 1.66845 0
M  V30 2176 C 220.363 -0.26436 1.90171 0
M  V30 2177 O 221.564 -0.497423 2.64157 0
M  V30 2178 C 219.835 1.96722 2.98388 0
M  V30 2179 S 221.394 2.0219 3.89441 0
M  V30 2180 H 218.212 0.421104 0.572881 0
M  V30 2181 H 220.814 1.63322 1.07453 0
M  V30 2182 H 219.518 3.00866 2.7912 0
M  V30 2183 H 219.049 1.52064 3.62823 0
M  V30 2184 H 221.064 1.13545 4.83034 0
M  V30 2185 N 220.237 -1.11381 1.11499 0
M  V30 2186 C 221.17 -2.16621 0.71769 0
M  V30 2187 C 222.148 -1.60058 -0.286413 0
M  V30 2188 O 223.332 -1.87613 -0.182689 0
M  V30 2189 C 220.459 -3.38646 0.0607265 0
M  V30 2190 C 219.505 -4.13874 1.03008 0
M  V30 2191 S 220.338 -4.70731 2.55289 0
M  V30 2192 C 221.494 -5.96079 1.90895 0
M  V30 2193 H 221.727 -2.49987 1.60915 0
M  V30 2194 H 219.26 -1.23015 0.933092 0
M  V30 2195 H 221.218 -4.09313 -0.311965 0
M  V30 2196 H 219.879 -3.03537 -0.807702 0
M  V30 2197 H 219.072 -5.01333 0.517853 0
M  V30 2198 H 218.674 -3.4897 1.34522 0
M  V30 2199 H 220.966 -6.65948 1.24577 0
M  V30 2200 H 221.909 -6.51946 2.76354 0
M  V30 2201 H 222.317 -5.47652 1.36885 0
M  V30 2202 N 221.715 -0.905404 -1.28997 0
M  V30 2203 C 223.126 -0.581953 -1.77398 0
M  V30 2204 C 223.477 0.902552 -1.74208 0
M  V30 2205 O 222.602 1.70584 -1.33154 0
M  V30 2206 C 223.197 -1.04961 -3.22131 0
M  V30 2207 C 221.756 -0.777229 -3.68288 0
M  V30 2208 C 220.903 -1.22109 -2.48967 0
M  V30 2209 H 223.854 -1.08754 -1.15578 0
M  V30 2210 H 223.875 -0.387387 -3.78523 0
M  V30 2211 H 223.387 -2.13008 -3.24421 0
M  V30 2212 H 221.488 0.290383 -3.71467 0
M  V30 2213 H 221.601 -1.37911 -4.58822 0
M  V30 2214 H 219.965 -0.639971 -2.46529 0
M  V30 2215 H 220.748 -2.30972 -2.53982 0
M  V30 2216 N 223.193 1.4272 -0.668489 0
M  V30 2217 C 224.123 2.335 -0.000100175 0
M  V30 2218 C 225.104 1.50328 0.795964 0
M  V30 2219 O 226.289 1.78949 0.754385 0
M  V30 2220 C 223.419 3.33874 0.956302 0
M  V30 2221 C 222.373 4.27152 0.269278 0
M  V30 2222 C 221.699 5.17684 1.33818 0
M  V30 2223 C 222.999 5.15373 -0.847805 0
M  V30 2224 H 224.693 2.89639 -0.758244 0
M  V30 2225 H 222.239 1.39269 -0.366079 0
M  V30 2226 H 224.192 3.9629 1.43292 0
M  V30 2227 H 222.916 2.76025 1.74579 0
M  V30 2228 H 221.575 3.66123 -0.187042 0
M  V30 2229 H 221.223 4.56165 2.1195 0
M  V30 2230 H 220.923 5.80918 0.883659 0
M  V30 2231 H 222.447 5.82974 1.81586 0
M  V30 2232 H 223.861 5.7151 -0.452681 0
M  V30 2233 H 222.258 5.87407 -1.22773 0
M  V30 2234 H 223.328 4.5415 -1.69929 0
M  V30 2235 N 224.671 0.411399 1.52136 0
M  V30 2236 C 225.899 -0.163076 2.06256 0
M  V30 2237 C 226.314 -1.3867 1.28125 0
M  V30 2238 O 225.671 -1.79423 0.333721 0
M  V30 2239 C 225.722 -0.511252 3.57867 0
M  V30 2240 O 225.443 0.66378 4.33042 0
M  V30 2241 C 226.944 -1.13921 4.28412 0
M  V30 2242 H 224.164 -0.0193897 0.67072 0
M  V30 2243 H 226.708 0.583007 1.96013 0
M  V30 2244 H 224.863 -1.20723 3.6811 0
M  V30 2245 H 225.277 0.372601 5.23175 0
M  V30 2246 H 226.751 -1.33302 5.35663 0
M  V30 2247 H 227.228 -2.11296 3.85033 0
M  V30 2248 H 227.834 -0.483373 4.22544 0
M  V30 2249 N 226.149 -1.5696 0.141893 0
M  V30 2250 C 227.398 -1.95135 -0.510427 0
M  V30 2251 C 227.711 -1.02896 -1.66348 0
M  V30 2252 O 228.917 -1.30629 -2.38009 0
M  V30 2253 C 227.373 -3.46876 -0.959427 0
M  V30 2254 C 226.981 -4.47691 0.166419 0
M  V30 2255 C 228.725 -3.93927 -1.58183 0
M  V30 2256 C 226.632 -5.90636 -0.300565 0
M  V30 2257 H 225.562 -0.728494 -0.194454 0
M  V30 2258 H 228.213 -1.8211 0.22542 0
M  V30 2259 H 226.595 -3.55215 -1.75038 0
M  V30 2260 H 227.769 -4.51043 0.94325 0
M  V30 2261 H 226.084 -4.10527 0.696905 0
M  V30 2262 H 228.681 -4.98158 -1.94275 0
M  V30 2263 H 229.024 -3.3519 -2.46888 0
M  V30 2264 H 229.557 -3.88484 -0.855863 0
M  V30 2265 H 226.296 -6.5318 0.550989 0
M  V30 2266 H 225.816 -5.90655 -1.04338 0
M  V30 2267 H 227.495 -6.42588 -0.754265 0
M  V30 2268 N 227.627 0.131896 -1.57047 0
M  V30 2269 C 228.876 0.84044 -1.83356 0
M  V30 2270 C 229.189 1.81646 -0.725535 0
M  V30 2271 O 230.395 2.57025 -0.874659 0
M  V30 2272 C 228.851 1.54528 -3.25037 0
M  V30 2273 C 228.459 0.610902 -4.43815 0
M  V30 2274 C 230.203 2.23972 -3.60606 0
M  V30 2275 C 228.11 1.31823 -5.76521 0
M  V30 2276 H 227.04 0.317599 -0.683847 0
M  V30 2277 H 229.691 0.0931561 -1.83263 0
M  V30 2278 H 228.073 2.33873 -3.19561 0
M  V30 2279 H 229.247 -0.148407 -4.60561 0
M  V30 2280 H 227.562 0.0241016 -4.16393 0
M  V30 2281 H 230.159 2.77558 -4.57018 0
M  V30 2282 H 230.502 3.01173 -2.87403 0
M  V30 2283 H 231.035 1.51529 -3.6781 0
M  V30 2284 H 227.774 0.587771 -6.52859 0
M  V30 2285 H 227.294 2.04987 -5.63685 0
M  V30 2286 H 228.973 1.855 -6.19838 0
M  V30 2287 N 229.106 1.52395 0.401703 0
M  V30 2288 C 230.036 1.79231 1.49661 0
M  V30 2289 C 231.017 0.643654 1.57452 0
M  V30 2290 O 232.202 0.889989 1.72606 0
M  V30 2291 C 229.332 1.94971 2.87409 0
M  V30 2292 C 228.286 3.10604 2.94465 0
M  V30 2293 C 227.612 3.11577 4.34538 0
M  V30 2294 C 228.912 4.49921 2.6527 0
M  V30 2295 H 230.606 2.70917 1.27454 0
M  V30 2296 H 228.152 1.30362 0.6117 0
M  V30 2297 H 230.105 2.12328 3.63999 0
M  V30 2298 H 228.829 0.999632 3.10926 0
M  V30 2299 H 227.488 2.93009 2.20321 0
M  V30 2300 H 227.136 2.14277 4.55076 0
M  V30 2301 H 226.836 3.89247 4.40183 0
M  V30 2302 H 228.36 3.31073 5.13053 0
M  V30 2303 H 229.774 4.67683 3.31581 0
M  V30 2304 H 228.171 5.29564 2.82281 0
M  V30 2305 H 229.241 4.57507 1.60671 0
M  V30 2306 N 230.584 -0.659388 1.43143 0
M  V30 2307 C 231.547 -1.75432 1.47501 0
M  V30 2308 C 232.547 -1.56707 0.360512 0
M  V30 2309 O 233.737 -1.62717 0.622002 0
M  V30 2310 C 230.869 -3.14239 1.32162 0
M  V30 2311 H 232.062 -1.7295 2.45006 0
M  V30 2312 H 229.615 -0.870469 1.29817 0
M  V30 2313 H 230.35 -3.22336 0.356401 0
M  V30 2314 H 230.135 -3.29235 2.12948 0
M  V30 2315 H 231.625 -3.94094 1.3813 0
M  V30 2316 N 232.062 -1.29571 -0.897171 0
M  V30 2317 C 233.012 -1.11539 -1.98855 0
M  V30 2318 C 233.996 -0.0340716 -1.60864 0
M  V30 2319 O 235.188 -0.256062 -1.75138 0
M  V30 2320 C 232.317 -0.796603 -3.3393 0
M  V30 2321 C 231.403 -1.91758 -3.78272 0
M  V30 2322 N 231.794 -3.16143 -3.94826 0
M  V30 2323 C 230.092 -1.81119 -4.07568 0
M  V30 2324 C 230.793 -3.89293 -4.32233 0
M  V30 2325 N 229.769 -3.17255 -4.41419 0
M  V30 2326 H 233.571 -2.05894 -2.09726 0
M  V30 2327 H 231.085 -1.20732 -1.08616 0
M  V30 2328 H 233.082 -0.648459 -4.11826 0
M  V30 2329 H 231.742 0.139003 -3.24402 0
M  V30 2330 H 232.753 -3.5157 -3.80288 0
M  V30 2331 H 229.43 -0.948461 -4.06584 0
M  V30 2332 H 230.82 -4.9635 -4.52865 0
M  V30 2333 N 233.54 1.10788 -1.12088 0
M  V30 2334 C 234.487 2.17025 -0.785407 0
M  V30 2335 C 235.457 1.64265 0.246191 0
M  V30 2336 O 236.642 1.90412 0.121584 0
M  V30 2337 C 233.782 3.44249 -0.242177 0
M  V30 2338 C 232.895 4.1098 -1.33115 0
M  V30 2339 C 232.03 5.25911 -0.747741 0
M  V30 2340 C 231.069 5.84538 -1.81609 0
M  V30 2341 N 230.206 6.90853 -1.25167 0
M  V30 2342 H 235.046 2.45066 -1.69548 0
M  V30 2343 H 232.583 1.20297 -0.846582 0
M  V30 2344 H 234.541 4.17101 0.0908026 0
M  V30 2345 H 233.171 3.16571 0.631072 0
M  V30 2346 H 232.223 3.36133 -1.78097 0
M  V30 2347 H 233.535 4.50601 -2.13917 0
M  V30 2348 H 232.689 6.056 -0.365216 0
M  V30 2349 H 231.428 4.87614 0.0915188 0
M  V30 2350 H 230.433 5.03522 -2.20785 0
M  V30 2351 H 231.658 6.249 -2.6585 0
M  V30 2352 H 229.604 6.54562 -0.434174 0
M  V30 2353 H 229.521 7.29166 -1.99633 0
M  V30 2354 H 230.789 7.7433 -0.896259 0
M  V30 2355 N 235.018 0.912232 1.28515 0
M  V30 2356 C 235.948 0.416403 2.29757 0
M  V30 2357 C 236.929 -0.515194 1.6211 0
M  V30 2358 O 238.114 -0.423253 1.89532 0
M  V30 2359 C 235.244 -0.34572 3.45575 0
M  V30 2360 C 234.198 0.496599 4.25109 0
M  V30 2361 C 233.524 -0.393771 5.33248 0
M  V30 2362 C 234.824 1.75307 4.92001 0
M  V30 2363 H 236.518 1.26249 2.7148 0
M  V30 2364 H 234.064 0.608515 1.30511 0
M  V30 2365 H 236.017 -0.703422 4.15488 0
M  V30 2366 H 234.741 -1.2257 3.02728 0
M  V30 2367 H 233.4 0.8368 3.56922 0
M  V30 2368 H 233.048 -1.27225 4.86644 0
M  V30 2369 H 232.748 0.166209 5.87365 0
M  V30 2370 H 234.272 -0.747389 6.06009 0
M  V30 2371 H 235.686 1.46437 5.54283 0
M  V30 2372 H 234.083 2.25534 5.56106 0
M  V30 2373 H 235.153 2.48176 4.16577 0
M  V30 2374 N 236.496 -1.42363 0.676048 0
M  V30 2375 C 237.444 -2.32596 -0.0131507 0
M  V30 2376 C 238.438 -1.49891 -0.789238 0
M  V30 2377 O 239.644 -1.65955 -0.697061 0
M  V30 2378 H 236.019 -0.751647 -0.0230481 0
M  V30 2379 H 237.99 -2.88421 0.765243 0
M  V30 2380 C 236.739 -3.34479 -0.949702 0
M  V30 2381 H 236.062 -3.98158 -0.361938 0
M  V30 2382 H 237.502 -4.00199 -1.4006 0
M  V30 2383 C 235.961 -2.66838 -2.05667 0
M  V30 2384 O 236.491 -2.50124 -3.14326 0
M  V30 2385 N 234.697 -2.25843 -1.82875 0
M  V30 2386 H 234.244 -2.39637 -0.945085 0
M  V30 2387 H 234.202 -1.80918 -2.5713 0
M  V30 2388 N 237.974 -0.419461 -1.51915 0
M  V30 2389 C 238.937 0.389116 -2.25873 0
M  V30 2390 C 239.937 0.964924 -1.28631 0
M  V30 2391 O 241.127 0.842179 -1.52489 0
M  V30 2392 C 238.259 1.54874 -3.03689 0
M  V30 2393 H 239.452 -0.258799 -2.98781 0
M  V30 2394 H 237.005 -0.172209 -1.55348 0
M  V30 2395 H 237.74 2.23323 -2.35154 0
M  V30 2396 H 237.525 1.14223 -3.75094 0
M  V30 2397 H 239.015 2.12046 -3.59759 0
M  V30 2398 N 239.452 1.56882 -0.150215 0
M  V30 2399 C 240.868 1.58263 0.20617 0
M  V30 2400 C 241.068 1.16464 1.64434 0
M  V30 2401 O 240.124 0.866422 2.3717 0
M  V30 2402 C 241.437 3.00649 -0.0555025 0
M  V30 2403 C 242.985 3.12999 0.00795388 0
M  V30 2404 C 243.46 4.5744 -0.226429 0
M  V30 2405 N 244.951 4.62875 -0.173469 0
M  V30 2406 C 245.686 5.72454 -0.329288 0
M  V30 2407 N 245.182 6.90669 -0.543005 0
M  V30 2408 N 246.975 5.61467 -0.266666 0
M  V30 2409 H 239.126 1.82345 -1.08922 0
M  V30 2410 H 241.389 0.844149 -0.431413 0
M  V30 2411 H 241.095 3.3563 -1.05096 0
M  V30 2412 H 240.969 3.71337 0.66246 0
M  V30 2413 H 243.356 2.77857 0.993966 0
M  V30 2414 H 243.437 2.4479 -0.742388 0
M  V30 2415 H 243.081 4.93287 -1.20956 0
M  V30 2416 H 243.011 5.2378 0.544274 0
M  V30 2417 H 245.502 3.77898 -0.0130709 0
M  V30 2418 H 245.815 7.70045 -0.651922 0
M  V30 2419 H 244.16 6.92581 -0.579366 0
M  V30 2420 H 247.351 4.67992 -0.100441 0
M  V30 2421 H 247.524 6.46816 -0.391535 0
M  V30 2422 N 240.93 -0.123565 1.57115 0
M  V30 2423 C 241.863 -1.18202 1.95201 0
M  V30 2424 C 242.841 -1.40349 0.821031 0
M  V30 2425 O 244.025 -1.54578 1.07879 0
M  V30 2426 C 241.152 -2.53671 2.24429 0
M  V30 2427 C 240.198 -2.4798 3.46999 0
M  V30 2428 S 241.031 -1.92389 4.99747 0
M  V30 2429 C 242.187 -3.2954 5.32123 0
M  V30 2430 H 242.42 -0.857212 2.84674 0
M  V30 2431 H 239.953 -0.33014 1.50829 0
M  V30 2432 H 241.911 -3.3162 2.41947 0
M  V30 2433 H 240.572 -2.83332 1.35579 0
M  V30 2434 H 239.765 -3.47758 3.64801 0
M  V30 2435 H 239.367 -1.7815 3.28844 0
M  V30 2436 H 241.659 -4.25736 5.27025 0
M  V30 2437 H 242.602 -3.16569 6.33395 0
M  V30 2438 H 243.01 -3.27758 4.59603 0
M  V30 2439 N 242.408 -1.52605 -0.393616 0
M  V30 2440 C 243.371 -1.76415 -1.46323 0
M  V30 2441 C 244.371 -0.634126 -1.47768 0
M  V30 2442 O 245.561 -0.902142 -1.4902 0
M  V30 2443 C 242.693 -1.8607 -2.85641 0
M  V30 2444 H 243.886 -2.71916 -1.26498 0
M  V30 2445 H 241.439 -1.43257 -0.625073 0
M  V30 2446 H 242.174 -0.925378 -3.10817 0
M  V30 2447 H 241.959 -2.68235 -2.85993 0
M  V30 2448 H 243.449 -2.06179 -3.63153 0
M  V30 2449 N 243.887 0.651787 -1.4349 0
M  V30 2450 C 245.164 1.40909 -1.35661 0
M  V30 2451 C 245.544 2.11099 -0.00511733 0
M  V30 2452 O 244.892 2.04892 1.0115 0
M  V30 2453 C 245.102 2.3926 -2.54078 0
M  V30 2454 C 246.45 3.03217 -2.97228 0
M  V30 2455 O 247.474 2.49588 -2.54135 0
M  V30 2456 O 246.333 4.00455 -3.71885 0
M  V30 2457 H 243.427 0.629625 -0.536191 0
M  V30 2458 H 245.973 0.678575 -1.55542 0
M  V30 2459 H 244.745 1.86352 -3.44076 0
M  V30 2460 H 244.368 3.1976 -2.36303 0
M  V30 2461 N 245.365 1.30045 0.890287 0
M  V30 2462 C 246.295 1.18541 2.01172 0
M  V30 2463 C 247.276 0.0773356 1.69924 0
M  V30 2464 O 248.461 0.25845 1.92473 0
M  V30 2465 C 245.591 0.870941 3.36202 0
M  V30 2466 C 244.545 1.93637 3.81692 0
M  V30 2467 C 243.871 1.475 5.13953 0
M  V30 2468 C 245.171 3.34666 4.00994 0
M  V30 2469 H 246.865 2.12359 2.11054 0
M  V30 2470 H 244.411 1.02238 1.01407 0
M  V30 2471 H 246.364 0.777141 4.14172 0
M  V30 2472 H 245.088 -0.102926 3.26438 0
M  V30 2473 H 243.747 2.01972 3.05946 0
M  V30 2474 H 243.395 0.489551 5.00612 0
M  V30 2475 H 243.095 2.1876 5.4536 0
M  V30 2476 H 244.619 1.39489 5.94454 0
M  V30 2477 H 246.033 3.2912 4.69417 0
M  V30 2478 H 244.43 4.03966 4.43769 0
M  V30 2479 H 245.5 3.76949 3.05021 0
M  V30 2480 N 246.843 -1.10192 1.12674 0
M  V30 2481 C 248.259 -1.34235 0.863317 0
M  V30 2482 C 248.459 -1.95062 -0.505277 0
M  V30 2483 O 247.515 -2.19192 -1.25345 0
M  V30 2484 C 248.828 -2.2616 1.98172 0
M  V30 2485 C 250.376 -2.3969 2.0129 0
M  V30 2486 C 250.851 -3.34946 3.1237 0
M  V30 2487 N 252.342 -3.42515 3.11829 0
M  V30 2488 C 253.077 -4.16199 3.94419 0
M  V30 2489 N 252.573 -4.92747 4.87004 0
M  V30 2490 N 254.366 -4.11843 3.82547 0
M  V30 2491 H 246.517 -0.690798 2.00853 0
M  V30 2492 H 248.78 -0.366774 0.874174 0
M  V30 2493 H 248.486 -1.8868 2.96804 0
M  V30 2494 H 248.36 -3.26488 1.88906 0
M  V30 2495 H 250.747 -2.76438 1.03276 0
M  V30 2496 H 250.828 -1.39169 2.14629 0
M  V30 2497 H 250.472 -2.98923 4.10619 0
M  V30 2498 H 250.402 -4.35353 2.96269 0
M  V30 2499 H 252.893 -2.87926 2.44759 0
M  V30 2500 H 253.206 -5.46376 5.46528 0
M  V30 2501 H 251.551 -4.91862 4.91016 0
M  V30 2502 H 254.742 -3.51136 3.0955 0
M  V30 2503 H 254.915 -4.69007 4.47142 0
M  V30 2504 N 248.321 -0.919034 -1.28029 0
M  V30 2505 C 249.737 -0.617972 -1.4715 0
M  V30 2506 C 249.937 0.835242 -1.83374 0
M  V30 2507 O 248.993 1.61388 -1.94191 0
M  V30 2508 C 250.306 -1.56041 -2.57044 0
M  V30 2509 C 251.854 -1.56769 -2.7091 0
M  V30 2510 C 252.329 -2.49688 -3.83953 0
M  V30 2511 N 253.82 -2.47845 -3.91314 0
M  V30 2512 C 254.555 -3.16437 -4.78179 0
M  V30 2513 N 254.051 -3.94376 -5.69596 0
M  V30 2514 N 255.844 -3.05498 -4.71834 0
M  V30 2515 H 247.995 -1.85866 -1.02798 0
M  V30 2516 H 250.258 -0.797506 -0.512531 0
M  V30 2517 H 249.964 -2.59671 -2.372 0
M  V30 2518 H 249.838 -1.29551 -3.54255 0
M  V30 2519 H 252.225 -0.538745 -2.90141 0
M  V30 2520 H 252.306 -1.87305 -1.74214 0
M  V30 2521 H 251.95 -3.52688 -3.65477 0
M  V30 2522 H 251.88 -2.16453 -4.80058 0
M  V30 2523 H 254.371 -1.91234 -3.25941 0
M  V30 2524 H 254.684 -4.43721 -6.32718 0
M  V30 2525 H 253.029 -3.98481 -5.69419 0
M  V30 2526 H 256.22 -2.44108 -3.99411 0
M  V30 2527 H 256.393 -3.59225 -5.39316 0
M  V30 2528 N 249.799 1.42003 -0.683588 0
M  V30 2529 C 251.024 2.06265 -0.216647 0
M  V30 2530 C 251.449 1.51059 1.12083 0
M  V30 2531 O 250.807 0.632638 1.69904 0
M  V30 2532 C 250.855 3.60191 -0.171759 0
M  V30 2533 O 249.959 4.03396 0.857069 0
M  V30 2534 H 249.3 0.65502 -0.108834 0
M  V30 2535 H 251.83 1.81982 -0.935077 0
M  V30 2536 H 251.84 4.08 0.0014303 0
M  V30 2537 H 250.515 3.99743 -1.14796 0
M  V30 2538 H 249.092 3.67117 0.654208 0
M  V30 2539 N 251.277 0.427512 1.51691 0
M  V30 2540 C 252.525 -0.141948 2.01601 0
M  V30 2541 C 252.846 -1.44067 1.31414 0
M  V30 2542 O 252.116 -1.90763 0.445658 0
M  V30 2543 H 250.696 -0.0554468 0.744939 0
M  V30 2544 H 253.358 0.567968 1.86441 0
M  V30 2545 H 252.454 -0.324913 3.10404 0
M  V30 2546 N 252.755 -1.56801 0.158532 0
M  V30 2547 C 253.685 -2.20347 -0.772609 0
M  V30 2548 C 254.666 -1.15518 -1.24859 0
M  V30 2549 O 255.851 -1.43902 -1.30406 0
M  V30 2550 C 252.981 -2.83417 -2.00729 0
M  V30 2551 C 251.935 -3.94174 -1.66765 0
M  V30 2552 C 251.261 -4.44233 -2.97592 0
M  V30 2553 C 252.561 -5.14392 -0.905447 0
M  V30 2554 H 254.255 -2.98413 -0.242959 0
M  V30 2555 H 251.801 -1.43537 -0.115419 0
M  V30 2556 H 253.754 -3.26543 -2.6636 0
M  V30 2557 H 252.478 -2.02701 -2.56086 0
M  V30 2558 H 251.137 -3.51684 -1.03508 0
M  V30 2559 H 250.785 -3.60325 -3.50963 0
M  V30 2560 H 250.485 -5.18945 -2.75626 0
M  V30 2561 H 252.009 -4.90037 -3.64274 0
M  V30 2562 H 253.423 -5.5429 -1.46408 0
M  V30 2563 H 251.82 -5.9494 -0.7853 0
M  V30 2564 H 252.89 -4.84795 0.100668 0
M  V30 2565 N 254.233 0.115231 -1.57178 0
M  V30 2566 C 255.163 1.1423 -2.03651 0
M  V30 2567 C 256.144 1.42967 -0.921655 0
M  V30 2568 O 257.329 1.53343 -1.19162 0
M  V30 2569 C 254.459 2.4675 -2.44401 0
M  V30 2570 C 253.413 2.32467 -3.59365 0
M  V30 2571 C 252.739 3.69984 -3.86026 0
M  V30 2572 C 254.039 1.78203 -4.90959 0
M  V30 2573 H 255.733 0.755749 -2.89705 0
M  V30 2574 H 253.279 0.362093 -1.39373 0
M  V30 2575 H 255.232 3.18854 -2.75517 0
M  V30 2576 H 253.956 2.87302 -1.55322 0
M  V30 2577 H 252.615 1.62811 -3.28463 0
M  V30 2578 H 252.263 4.08028 -2.94147 0
M  V30 2579 H 251.963 3.61279 -4.63412 0
M  V30 2580 H 253.487 4.43587 -4.19599 0
M  V30 2581 H 254.901 2.40128 -5.20587 0
M  V30 2582 H 253.298 1.8031 -5.72371 0
M  V30 2583 H 254.368 0.739876 -4.79222 0
M  V30 2584 N 255.711 1.52812 0.385517 0
M  V30 2585 C 257.122 1.5993 0.963293 0
M  V30 2586 C 257.473 0.454302 1.90868 0
M  V30 2587 O 256.598 -0.422132 2.12243 0
M  V30 2588 C 257.193 2.89871 1.75387 0
M  V30 2589 C 255.752 2.99389 2.28129 0
M  V30 2590 C 254.899 2.55071 1.08783 0
M  V30 2591 H 257.85 1.5784 0.164948 0
M  V30 2592 H 257.871 2.76553 2.61341 0
M  V30 2593 H 257.383 3.73186 1.06554 0
M  V30 2594 H 255.484 2.20619 3.00263 0
M  V30 2595 H 255.597 4.04096 2.57377 0
M  V30 2596 H 253.961 2.09473 1.4489 0
M  V30 2597 H 254.744 3.40785 0.414807 0
M  V30 2598 N 257.189 -0.644168 1.43834 0
M  V30 2599 C 258.435 -1.40431 1.47141 0
M  V30 2600 C 258.79 -1.92153 0.0975577 0
M  V30 2601 O 258.083 -1.69924 -0.885232 0
M  V30 2602 C 258.277 -2.59615 2.45631 0
M  V30 2603 C 258.106 -2.1956 3.92458 0
M  V30 2604 C 256.876 -2.07456 4.60749 0
M  V30 2605 C 259.074 -1.79281 4.8204 0
M  V30 2606 N 257.056 -1.60827 5.92459 0
M  V30 2607 C 258.427 -1.43801 6.03093 0
M  V30 2608 C 260.482 -1.66545 4.6922 0
M  V30 2609 C 259.185 -0.968599 7.12749 0
M  V30 2610 C 261.211 -1.21008 5.78888 0
M  V30 2611 C 260.573 -0.864711 6.99072 0
M  V30 2612 H 256.672 -0.509182 0.593513 0
M  V30 2613 H 259.256 -0.740351 1.80075 0
M  V30 2614 H 257.427 -3.23658 2.1471 0
M  V30 2615 H 259.159 -3.26357 2.39318 0
M  V30 2616 H 255.914 -2.275 4.1538 0
M  V30 2617 H 256.338 -1.39848 6.62398 0
M  V30 2618 H 260.98 -1.91883 3.7675 0
M  V30 2619 H 258.698 -0.702715 8.05039 0
M  V30 2620 H 262.284 -1.11631 5.7099 0
M  V30 2621 H 261.164 -0.517736 7.82489 0
M  V30 2622 N 258.668 -1.30515 -0.883378 0
M  V30 2623 C 259.598 -1.19607 -2.00541 0
M  V30 2624 C 260.579 -0.086346 -1.69881 0
M  V30 2625 O 261.764 -0.268654 -1.92333 0
M  V30 2626 C 258.894 -0.888758 -3.35736 0
M  V30 2627 C 257.848 -1.95659 -3.8066 0
M  V30 2628 C 257.174 -1.50224 -5.13164 0
M  V30 2629 C 258.474 -3.36788 -3.99213 0
M  V30 2630 H 260.168 -2.13476 -2.09925 0
M  V30 2631 H 257.714 -1.02775 -1.00863 0
M  V30 2632 H 259.667 -0.799094 -4.13754 0
M  V30 2633 H 258.391 0.0856125 -3.26488 0
M  V30 2634 H 257.05 -2.03591 -3.04871 0
M  V30 2635 H 256.698 -0.516092 -5.00345 0
M  V30 2636 H 256.398 -2.2165 -5.44192 0
M  V30 2637 H 257.922 -1.42639 -5.93706 0
M  V30 2638 H 259.336 -3.31605 -4.67665 0
M  V30 2639 H 257.733 -4.06314 -4.41621 0
M  V30 2640 H 258.803 -3.78561 -3.03017 0
M  V30 2641 N 260.146 1.09593 -1.13257 0
M  V30 2642 C 261.562 1.33775 -0.870423 0
M  V30 2643 C 261.762 1.95327 0.494926 0
M  V30 2644 O 260.818 2.19853 1.2418 0
M  V30 2645 C 262.131 2.25106 -1.99369 0
M  V30 2646 C 263.679 2.3862 -2.02558 0
M  V30 2647 C 264.154 3.33285 -3.14142 0
M  V30 2648 N 265.645 3.40857 -3.13641 0
M  V30 2649 C 266.38 4.14101 -3.96621 0
M  V30 2650 N 265.876 4.90157 -4.8961 0
M  V30 2651 N 267.669 4.09808 -3.84726 0
M  V30 2652 H 259.82 0.680136 -2.01216 0
M  V30 2653 H 262.083 0.362133 -0.876107 0
M  V30 2654 H 261.789 1.87103 -2.97801 0
M  V30 2655 H 261.663 3.25481 -1.90635 0
M  V30 2656 H 264.05 2.75887 -1.0474 0
M  V30 2657 H 264.131 1.38028 -2.15364 0
M  V30 2658 H 263.775 2.96741 -4.12198 0
M  V30 2659 H 263.705 4.33776 -2.98574 0
M  V30 2660 H 266.196 2.86624 -2.46282 0
M  V30 2661 H 266.509 5.4347 -5.49418 0
M  V30 2662 H 264.854 4.89251 -4.93617 0
M  V30 2663 H 268.045 3.4949 -3.11408 0
M  V30 2664 H 268.218 4.66629 -4.49623 0
M  V30 2665 N 261.624 0.925811 1.2754 0
M  V30 2666 C 263.035 0.610102 1.7645 0
M  V30 2667 C 263.386 -0.874723 1.75622 0
M  V30 2668 O 262.511 -1.68444 1.35851 0
M  V30 2669 C 263.106 1.10073 3.20421 0
M  V30 2670 C 261.665 0.835723 3.67005 0
M  V30 2671 C 260.812 1.26054 2.46993 0
M  V30 2672 H 263.763 1.10579 1.13833 0
M  V30 2673 H 263.784 0.447557 3.77859 0
M  V30 2674 H 263.296 2.18143 3.20991 0
M  V30 2675 H 261.397 -0.231249 3.71882 0
M  V30 2676 H 261.51 1.45193 4.56569 0
M  V30 2677 H 259.874 0.679111 2.45479 0
M  V30 2678 H 260.657 2.34984 2.50275 0
M  V30 2679 N 263.102 -1.41638 0.69111 0
M  V30 2680 C 264.379 -1.95036 0.148421 0
M  V30 2681 C 264.759 -1.63072 -1.34055 0
M  V30 2682 O 264.107 -0.93538 -2.08478 0
M  V30 2683 C 264.317 -3.46279 0.434951 0
M  V30 2684 C 265.665 -4.23069 0.360275 0
M  V30 2685 O 266.689 -3.54277 0.369613 0
M  V30 2686 O 265.548 -5.45583 0.316534 0
M  V30 2687 H 262.642 -0.826908 0.0123654 0
M  V30 2688 H 265.188 -1.5138 0.766963 0
M  V30 2689 H 263.96 -3.6281 1.46576 0
M  V30 2690 H 263.583 -3.97019 -0.214787 0
M  V30 2691 N 264.58 -0.43555 -1.51462 0
M  V30 2692 C 265.805 0.132627 -2.06976 0
M  V30 2693 C 266.23 1.35848 -1.30104 0
M  V30 2694 O 265.588 1.78112 -0.338493 0
M  V30 2695 C 265.636 0.43523 -3.57964 0
M  V30 2696 O 264.74 1.52198 -3.83288 0
M  V30 2697 H 264.081 0.00265 -0.663995 0
M  V30 2698 H 266.611 -0.616369 -1.95095 0
M  V30 2699 H 266.621 0.686206 -4.02188 0
M  V30 2700 H 265.296 -0.460739 -4.1334 0
M  V30 2701 H 263.873 1.2611 -3.50928 0
M  V30 2702 N 266.058 1.56714 -0.166846 0
M  V30 2703 C 267.005 2.17746 0.765193 0
M  V30 2704 C 267.975 1.11614 1.23011 0
M  V30 2705 O 269.16 1.39745 1.29908 0
M  V30 2706 C 266.3 2.81882 1.9909 0
M  V30 2707 C 265.413 4.02462 1.56997 0
M  V30 2708 C 264.548 4.54537 2.749 0
M  V30 2709 C 263.587 5.67538 2.29275 0
M  V30 2710 N 262.724 6.14142 3.40255 0
M  V30 2711 H 267.564 2.97048 0.237952 0
M  V30 2712 H 265.101 1.4672 0.105725 0
M  V30 2713 H 267.059 3.17221 2.70974 0
M  V30 2714 H 265.689 2.05191 2.49192 0
M  V30 2715 H 264.741 3.72973 0.748037 0
M  V30 2716 H 266.053 4.84273 1.19503 0
M  V30 2717 H 265.207 4.92035 3.54946 0
M  V30 2718 H 263.946 3.71774 3.1565 0
M  V30 2719 H 262.951 5.29597 1.47674 0
M  V30 2720 H 264.176 6.52099 1.89588 0
M  V30 2721 H 262.122 5.3431 3.8059 0
M  V30 2722 H 262.039 6.9093 3.06841 0
M  V30 2723 H 263.307 6.56289 4.206 0
M  V30 2724 N 267.536 -0.106894 1.57237 0
M  V30 2725 C 268.764 -0.826389 1.8968 0
M  V30 2726 C 269.179 -1.72856 0.759353 0
M  V30 2727 O 268.536 -1.80503 -0.269263 0
M  V30 2728 C 268.587 -1.64967 3.21665 0
M  V30 2729 O 268.308 -0.783804 4.31031 0
M  V30 2730 C 269.809 -2.47326 3.67892 0
M  V30 2731 H 267.029 -0.236927 0.627779 0
M  V30 2732 H 269.573 -0.0876593 2.04312 0
M  V30 2733 H 267.728 -2.34103 3.08666 0
M  V30 2734 H 268.142 -1.35284 5.06753 0
M  V30 2735 H 269.616 -3.00604 4.6297 0
M  V30 2736 H 270.093 -3.25247 2.95146 0
M  V30 2737 H 270.699 -1.83411 3.83719 0
M  V30 2738 N 269.014 -1.53014 -0.377408 0
M  V30 2739 C 269.946 -1.74884 -1.48149 0
M  V30 2740 C 270.959 -0.629433 -1.5014 0
M  V30 2741 O 272.148 -0.905416 -1.53833 0
M  V30 2742 C 269.248 -1.80299 -2.86959 0
M  V30 2743 C 268.421 -3.09776 -3.08801 0
M  V30 2744 C 267.48 -3.06586 -4.27658 0
M  V30 2745 O 266.506 -3.80419 -4.23403 0
M  V30 2746 N 267.708 -2.26578 -5.34455 0
M  V30 2747 H 270.473 -2.70147 -1.29771 0
M  V30 2748 H 268.034 -1.51646 -0.56703 0
M  V30 2749 H 270.026 -1.75657 -3.64591 0
M  V30 2750 H 268.596 -0.92372 -2.98641 0
M  V30 2751 H 267.816 -3.27815 -2.18931 0
M  V30 2752 H 269.104 -3.95366 -3.20255 0
M  V30 2753 H 268.502 -1.66081 -5.40771 0
M  V30 2754 H 267.059 -2.27766 -6.10709 0
M  V30 2755 N 270.492 0.636531 -1.44174 0
M  V30 2756 C 271.738 1.39826 -1.4689 0
M  V30 2757 C 272.071 1.93947 -0.0990585 0
M  V30 2758 O 271.346 1.73325 0.882544 0
M  V30 2759 C 271.629 2.56751 -2.5249 0
M  V30 2760 C 271.482 2.08014 -3.98811 0
M  V30 2761 C 272.801 3.58946 -2.54649 0
M  V30 2762 H 269.92 0.507075 -0.53483 0
M  V30 2763 H 272.562 0.720188 -1.75822 0
M  V30 2764 H 270.712 3.14597 -2.2795 0
M  V30 2765 H 272.384 1.5504 -4.34466 0
M  V30 2766 H 270.627 1.39242 -4.10846 0
M  V30 2767 H 271.298 2.92169 -4.68339 0
M  V30 2768 H 273.774 3.1089 -2.76563 0
M  V30 2769 H 272.65 4.38286 -3.3045 0
M  V30 2770 H 272.911 4.12655 -1.58646 0
M  V30 2771 N 271.97 1.30982 0.876444 0
M  V30 2772 C 273.198 1.23242 1.6619 0
M  V30 2773 C 273.613 -0.203345 1.87702 0
M  V30 2774 O 272.97 -1.13317 1.43057 0
M  V30 2775 C 273.021 1.96623 3.03351 0
M  V30 2776 O 272.742 3.34594 2.82804 0
M  V30 2777 C 274.243 1.95644 3.97792 0
M  V30 2778 H 271.463 0.426126 0.518322 0
M  V30 2779 H 274.007 1.7275 1.09442 0
M  V30 2780 H 272.162 1.50892 3.56806 0
M  V30 2781 H 272.576 3.71873 3.69879 0
M  V30 2782 H 274.05 2.51511 4.91372 0
M  V30 2783 H 274.527 0.937395 4.2908 0
M  V30 2784 H 275.133 2.41225 3.50272 0
M  V30 2785 N 273.449 -1.08991 1.13837 0
M  V30 2786 C 274.695 -1.81526 0.90422 0
M  V30 2787 C 275.028 -1.85706 -0.568066 0
M  V30 2788 O 274.303 -1.32855 -1.42056 0
M  V30 2789 C 274.586 -3.27447 1.49835 0
M  V30 2790 C 274.439 -3.31512 3.04006 0
M  V30 2791 C 275.758 -4.24256 1.17025 0
M  V30 2792 H 272.877 -0.659029 0.329923 0
M  V30 2793 H 275.519 -1.27644 1.40737 0
M  V30 2794 H 273.669 -3.73462 1.07044 0
M  V30 2795 H 275.341 -2.93867 3.55584 0
M  V30 2796 H 273.584 -2.70963 3.38765 0
M  V30 2797 H 274.255 -4.34329 3.40679 0
M  V30 2798 H 276.731 -3.86549 1.54009 0
M  V30 2799 H 275.607 -5.24684 1.61237 0
M  V30 2800 H 275.868 -4.42019 0.0846274 0
M  V30 2801 N 274.927 -0.932562 -1.27047 0
M  V30 2802 C 275.859 -0.392734 -2.2581 0
M  V30 2803 C 276.872 0.479241 -1.55586 0
M  V30 2804 O 278.061 0.291078 -1.76111 0
M  V30 2805 C 275.161 0.455456 -3.35826 0
M  V30 2806 C 274.334 -0.398355 -4.35582 0
M  V30 2807 C 273.393 0.387985 -5.24768 0
M  V30 2808 O 272.419 -0.206003 -5.68827 0
M  V30 2809 N 273.621 1.68664 -5.55457 0
M  V30 2810 H 276.386 -1.24173 -2.72766 0
M  V30 2811 H 273.947 -0.800511 -1.40725 0
M  V30 2812 H 275.939 0.988692 -3.92437 0
M  V30 2813 H 274.509 1.20522 -2.88432 0
M  V30 2814 H 273.729 -1.11286 -3.78165 0
M  V30 2815 H 275.017 -0.981889 -4.99236 0
M  V30 2816 H 274.415 2.19147 -5.21528 0
M  V30 2817 H 272.972 2.1663 -6.14748 0
M  V30 2818 N 276.405 1.4127 -0.698611 0
M  V30 2819 C 277.635 2.05205 -0.239644 0
M  V30 2820 C 278.043 1.52684 1.11733 0
M  V30 2821 O 277.386 0.671222 1.70998 0
M  V30 2822 C 277.448 3.59289 -0.123126 0
M  V30 2823 C 277.112 4.34619 -1.41263 0
M  V30 2824 C 278.109 4.63701 -2.35111 0
M  V30 2825 C 275.794 4.73837 -1.66684 0
M  V30 2826 C 277.788 5.30966 -3.52639 0
M  V30 2827 C 275.475 5.40837 -2.84498 0
M  V30 2828 C 276.473 5.69329 -3.77298 0
M  V30 2829 O 276.161 6.34949 -4.93047 0
M  V30 2830 H 275.893 0.66723 -0.108537 0
M  V30 2831 H 278.447 1.81974 -0.952602 0
M  V30 2832 H 276.677 3.81272 0.645628 0
M  V30 2833 H 278.366 4.04797 0.299056 0
M  V30 2834 H 279.132 4.33882 -2.16729 0
M  V30 2835 H 275.011 4.51039 -0.953135 0
M  V30 2836 H 278.555 5.53121 -4.25091 0
M  V30 2837 H 274.452 5.70075 -3.02795 0
M  V30 2838 H 275.22 6.53445 -4.92902 0
M  V30 2839 N 277.883 0.443576 1.51229 0
M  V30 2840 C 278.816 -0.410089 2.24485 0
M  V30 2841 C 279.794 -1.01949 1.26669 0
M  V30 2842 O 280.978 -1.06075 1.55821 0
M  V30 2843 C 278.105 -1.57211 3.00004 0
M  V30 2844 C 277.151 -1.08279 4.12526 0
M  V30 2845 S 277.984 -0.0197476 5.35496 0
M  V30 2846 C 279.14 -1.18629 6.14555 0
M  V30 2847 H 279.373 0.211832 2.96544 0
M  V30 2848 H 276.906 0.228156 1.52705 0
M  V30 2849 H 278.864 -2.23825 3.44111 0
M  V30 2850 H 277.525 -2.16547 2.27522 0
M  V30 2851 H 276.718 -1.95193 4.64667 0
M  V30 2852 H 276.32 -0.494797 3.70713 0
M  V30 2853 H 278.612 -2.10344 6.4402 0
M  V30 2854 H 279.555 -0.70472 7.04584 0
M  V30 2855 H 279.963 -1.42768 5.46148 0
M  V30 2856 N 279.361 -1.56624 0.175154 0
M  V30 2857 C 280.293 -2.15333 -0.785128 0
M  V30 2858 C 281.306 -1.1099 -1.19101 0
M  V30 2859 O 282.495 -1.38162 -1.13019 0
M  V30 2860 C 279.595 -2.68427 -2.06882 0
M  V30 2861 C 278.768 -3.97466 -1.8259 0
M  V30 2862 C 277.827 -4.35585 -2.95215 0
M  V30 2863 O 276.853 -5.03389 -2.65684 0
M  V30 2864 N 278.055 -3.97457 -4.23094 0
M  V30 2865 H 280.82 -2.98359 -0.283187 0
M  V30 2866 H 278.381 -1.61898 -0.00749817 0
M  V30 2867 H 280.373 -2.90924 -2.81328 0
M  V30 2868 H 278.943 -1.89968 -2.48256 0
M  V30 2869 H 278.163 -3.83307 -0.920287 0
M  V30 2870 H 279.451 -4.81736 -1.63733 0
M  V30 2871 H 278.849 -3.42878 -4.49945 0
M  V30 2872 H 277.406 -4.24947 -4.9423 0
M  V30 2873 N 280.839 0.0985539 -1.57292 0
M  V30 2874 C 282.116 0.834155 -1.76921 0
M  V30 2875 C 282.496 1.97101 -0.755928 0
M  V30 2876 O 281.844 2.27474 0.216245 0
M  V30 2877 C 282.054 1.33194 -3.22584 0
M  V30 2878 C 283.402 1.77611 -3.85668 0
M  V30 2879 O 284.426 1.42825 -3.26312 0
M  V30 2880 O 283.285 2.4192 -4.90038 0
M  V30 2881 H 280.379 0.397628 -0.725135 0
M  V30 2882 H 282.925 0.0807044 -1.69508 0
M  V30 2883 H 281.697 0.517248 -3.87866 0
M  V30 2884 H 281.32 2.1475 -3.34616 0
M  V30 2885 N 282.317 1.53212 0.369288 0
M  V30 2886 C 283.265 1.80054 1.47253 0
M  V30 2887 C 284.259 0.669456 1.55611 0
M  V30 2888 O 285.465 0.852328 1.58541 0
M  V30 2889 H 281.84 0.570034 0.490475 0
M  V30 2890 H 283.811 2.72403 1.21817 0
M  V30 2891 C 282.56 2.00403 2.84137 0
M  V30 2892 H 281.883 2.86876 2.78464 0
M  V30 2893 H 283.323 2.23164 3.60519 0
M  V30 2894 C 281.782 0.782081 3.27697 0
M  V30 2895 O 282.312 -0.0310205 4.01688 0
M  V30 2896 N 280.518 0.606573 2.84199 0
M  V30 2897 H 280.065 1.26939 2.24152 0
M  V30 2898 H 280.023 -0.20962 3.137 0
M  V30 2899 N 283.795 -0.628877 1.44509 0
M  V30 2900 C 285.043 -1.38565 1.4712 0
M  V30 2901 C 285.364 -1.94712 0.105899 0
M  V30 2902 O 284.634 -1.75912 -0.862079 0
M  V30 2903 H 283.214 -0.514333 0.541729 0
M  V30 2904 H 285.876 -0.740018 1.80305 0
M  V30 2905 H 284.972 -2.21583 2.19789 0
M  V30 2906 N 285.273 -1.31445 -0.869486 0
M  V30 2907 C 286.236 -1.19094 -1.9583 0
M  V30 2908 C 287.236 -0.117906 -1.60367 0
M  V30 2909 O 288.426 -0.367208 -1.70286 0
M  V30 2910 C 285.558 -0.828165 -3.30688 0
M  V30 2911 H 286.751 -2.15842 -2.08212 0
M  V30 2912 H 284.304 -1.15063 -1.05784 0
M  V30 2913 H 285.039 0.138142 -3.24006 0
M  V30 2914 H 284.824 -1.6038 -3.578 0
M  V30 2915 H 286.314 -0.765658 -4.10521 0
M  V30 2916 N 286.751 1.08385 -1.14413 0
M  V30 2917 C 287.997 1.81044 -0.913834 0
M  V30 2918 C 288.33 1.86004 0.558209 0
M  V30 2919 O 287.605 1.33606 1.4135 0
M  V30 2920 C 287.888 3.26648 -1.51569 0
M  V30 2921 C 287.741 3.29895 -3.0576 0
M  V30 2922 C 289.06 4.23629 -1.19273 0
M  V30 2923 H 286.179 0.65727 -0.333414 0
M  V30 2924 H 288.821 1.26896 -1.41412 0
M  V30 2925 H 286.971 3.72889 -1.09023 0
M  V30 2926 H 288.643 2.91977 -3.57137 0
M  V30 2927 H 286.886 2.69163 -3.40197 0
M  V30 2928 H 287.557 4.32516 -3.42977 0
M  V30 2929 H 290.033 3.85727 -1.56057 0
M  V30 2930 H 288.909 5.23822 -1.64017 0
M  V30 2931 H 289.17 4.41968 -0.108068 0
M  V30 2932 N 288.23 0.939286 1.26551 0
M  V30 2933 C 289.479 0.581601 1.93133 0
M  V30 2934 C 289.792 -0.883224 1.74524 0
M  V30 2935 O 290.998 -1.3502 2.35546 0
M  V30 2936 C 289.454 0.989425 3.46032 0
M  V30 2937 C 289.062 2.47573 3.73379 0
M  V30 2938 C 290.806 0.703544 4.18629 0
M  V30 2939 C 288.713 2.82235 5.19709 0
M  V30 2940 H 287.643 0.213803 0.723052 0
M  V30 2941 H 290.294 1.14167 1.4366 0
M  V30 2942 H 288.676 0.357902 3.94379 0
M  V30 2943 H 289.85 3.15614 3.35744 0
M  V30 2944 H 288.165 2.73471 3.1401 0
M  V30 2945 H 290.762 0.938869 5.26393 0
M  V30 2946 H 291.105 -0.359639 4.14744 0
M  V30 2947 H 291.638 1.2947 3.76141 0
M  V30 2948 H 288.377 3.87509 5.28694 0
M  V30 2949 H 287.897 2.18854 5.58447 0
M  V30 2950 H 289.576 2.70599 5.87695 0
M  V30 2951 N 289.708 -1.40897 0.706093 0
M  V30 2952 C 291.119 -1.84023 0.315052 0
M  V30 2953 C 291.47 -1.5906 -1.14866 0
M  V30 2954 O 290.595 -1.06651 -1.88293 0
M  V30 2955 C 291.19 -3.34055 0.565038 0
M  V30 2956 C 289.749 -3.7571 0.227806 0
M  V30 2957 C 288.896 -2.64204 0.842122 0
M  V30 2958 H 291.847 -1.303 0.905963 0
M  V30 2959 H 291.868 -3.80107 -0.172843 0
M  V30 2960 H 291.38 -3.52192 1.63042 0
M  V30 2961 H 289.481 -3.63172 -0.832895 0
M  V30 2962 H 289.594 -4.74103 0.690174 0
M  V30 2963 H 287.958 -2.53255 0.270893 0
M  V30 2964 H 288.741 -2.85155 1.91158 0
M  V30 2965 N 291.186 -0.45159 -1.50991 0
M  V30 2966 C 292.432 0.110237 -2.025 0
M  V30 2967 C 292.765 1.41109 -1.33424 0
M  V30 2968 O 292.04 1.89135 -0.453659 0
M  V30 2969 C 292.323 0.314271 -3.58726 0
M  V30 2970 C 292.176 -1.00623 -4.38401 0
M  V30 2971 C 293.495 1.07767 -4.26702 0
M  V30 2972 H 290.614 0.0385897 -0.735989 0
M  V30 2973 H 293.256 -0.593374 -1.80497 0
M  V30 2974 H 291.406 0.913601 -3.77605 0
M  V30 2975 H 293.078 -1.64064 -4.31139 0
M  V30 2976 H 291.321 -1.6075 -4.02917 0
M  V30 2977 H 291.992 -0.817341 -5.45915 0
M  V30 2978 H 294.468 0.56986 -4.12179 0
M  V30 2979 H 293.344 1.18921 -5.35863 0
M  V30 2980 H 293.605 2.10939 -3.88532 0
M  V30 2981 N 292.664 1.56529 -0.183458 0
M  V30 2982 C 294.08 1.58664 0.172554 0
M  V30 2983 C 294.28 1.19925 1.61926 0
M  V30 2984 O 293.336 0.916534 2.35278 0
M  V30 2985 C 294.649 3.00463 -0.119262 0
M  V30 2986 C 296.197 3.12945 -0.0584396 0
M  V30 2987 C 296.672 4.56857 -0.323408 0
M  V30 2988 N 298.163 4.62403 -0.271612 0
M  V30 2989 C 298.898 5.71626 -0.450639 0
M  V30 2990 N 298.394 6.89362 -0.689384 0
M  V30 2991 N 300.187 5.60775 -0.385701 0
M  V30 2992 H 292.338 1.79994 -1.12765 0
M  V30 2993 H 294.601 0.834808 -0.449222 0
M  V30 2994 H 294.307 3.33326 -1.12192 0
M  V30 2995 H 294.181 3.72659 0.583544 0
M  V30 2996 H 296.568 2.79902 0.934805 0
M  V30 2997 H 296.649 2.4316 -0.794144 0
M  V30 2998 H 296.293 4.9061 -1.31392 0
M  V30 2999 H 296.223 5.24816 0.43305 0
M  V30 3000 H 298.714 3.77785 -0.0932256 0
M  V30 3001 H 299.027 7.68489 -0.815113 0
M  V30 3002 H 297.372 6.91196 -0.726142 0
M  V30 3003 H 300.563 4.67674 -0.199687 0
M  V30 3004 H 300.736 6.4584 -0.528646 0
M  V30 3005 N 294.142 -0.090211 1.57342 0
M  V30 3006 C 295.391 -0.791531 1.8552 0
M  V30 3007 C 295.704 -1.79659 0.773441 0
M  V30 3008 O 296.91 -2.54616 0.942497 0
M  V30 3009 C 295.366 -1.45856 3.2902 0
M  V30 3010 C 294.974 -0.493017 4.45279 0
M  V30 3011 C 296.718 -2.14332 3.66418 0
M  V30 3012 C 294.625 -1.16491 5.79814 0
M  V30 3013 H 293.555 -0.299356 0.692027 0
M  V30 3014 H 296.206 -0.0445343 1.83446 0
M  V30 3015 H 294.588 -2.25318 3.2565 0
M  V30 3016 H 295.762 0.270464 4.60006 0
M  V30 3017 H 294.077 0.0863061 4.16311 0
M  V30 3018 H 296.674 -2.65344 4.64216 0
M  V30 3019 H 297.017 -2.93447 2.95287 0
M  V30 3020 H 297.55 -1.41724 3.71698 0
M  V30 3021 H 294.289 -0.41447 6.54188 0
M  V30 3022 H 293.809 -1.8997 5.68921 0
M  V30 3023 H 295.488 -1.69001 6.24538 0
M  V30 3024 N 295.62 -1.53406 -0.361157 0
M  V30 3025 C 296.57 -1.76536 -1.44287 0
M  V30 3026 C 297.554 -0.620019 -1.48474 0
M  V30 3027 O 298.746 -0.878834 -1.53641 0
M  V30 3028 C 295.875 -1.96266 -2.81664 0
M  V30 3029 C 294.961 -3.16815 -2.81938 0
M  V30 3030 N 295.352 -4.38637 -2.51855 0
M  V30 3031 C 293.65 -3.17627 -3.13096 0
M  V30 3032 C 294.351 -5.20401 -2.59919 0
M  V30 3033 N 293.327 -4.56712 -2.94814 0
M  V30 3034 H 297.129 -2.68331 -1.19899 0
M  V30 3035 H 294.643 -1.52091 -0.56938 0
M  V30 3036 H 296.64 -2.10966 -3.59582 0
M  V30 3037 H 295.3 -1.05702 -3.07013 0
M  V30 3038 H 296.311 -4.66293 -2.25369 0
M  V30 3039 H 292.988 -2.36971 -3.43731 0
M  V30 3040 H 294.378 -6.27586 -2.39969 0
M  V30 3041 N 297.098 0.621204 -1.44841 0
M  V30 3042 C 298.326 1.40752 -1.51646 0
M  V30 3043 C 298.741 1.88246 -0.144549 0
M  V30 3044 O 298.098 1.61422 0.851416 0
M  V30 3045 C 298.149 2.62119 -2.4895 0
M  V30 3046 O 297.87 2.16602 -3.80808 0
M  V30 3047 C 299.371 3.55135 -2.65319 0
M  V30 3048 H 296.591 0.431325 -0.514004 0
M  V30 3049 H 299.135 0.758835 -1.899 0
M  V30 3050 H 297.29 3.23058 -2.13805 0
M  V30 3051 H 297.704 2.95358 -4.33433 0
M  V30 3052 H 299.178 4.36874 -3.37409 0
M  V30 3053 H 299.655 4.04592 -1.70886 0
M  V30 3054 H 300.261 3.00058 -3.01405 0
M  V30 3055 N 298.576 1.31904 0.862503 0
M  V30 3056 C 299.825 1.21373 1.61094 0
M  V30 3057 C 300.138 -0.22504 1.94301 0
M  V30 3058 O 301.344 -0.452121 2.67709 0
M  V30 3059 C 299.8 2.12525 2.9045 0
M  V30 3060 C 299.408 3.61441 2.64697 0
M  V30 3061 C 301.152 2.10813 3.68454 0
M  V30 3062 C 299.059 4.44578 3.90006 0
M  V30 3063 H 297.989 0.450705 0.604468 0
M  V30 3064 H 300.64 1.56811 0.953027 0
M  V30 3065 H 299.022 1.69994 3.57656 0
M  V30 3066 H 300.196 4.12264 2.05851 0
M  V30 3067 H 298.511 3.65205 2.00036 0
M  V30 3068 H 301.108 2.70167 4.61426 0
M  V30 3069 H 301.451 1.09713 4.01583 0
M  V30 3070 H 301.984 2.51583 3.08141 0
M  V30 3071 H 298.723 5.46461 3.62023 0
M  V30 3072 H 298.243 3.98508 4.48276 0
M  V30 3073 H 299.922 4.57176 4.5782 0
M  V30 3074 N 300.054 -1.07777 1.14986 0
M  V30 3075 C 301.3 -1.80557 0.923422 0
M  V30 3076 C 301.633 -1.86298 -0.548337 0
M  V30 3077 O 300.908 -1.34354 -1.40639 0
M  V30 3078 C 301.191 -3.25839 1.53299 0
M  V30 3079 C 301.044 -3.28269 3.07505 0
M  V30 3080 C 302.363 -4.22991 1.21518 0
M  V30 3081 H 299.482 -0.655493 0.336894 0
M  V30 3082 H 302.124 -1.26144 1.42083 0
M  V30 3083 H 300.274 -3.72306 1.10999 0
M  V30 3084 H 301.946 -2.90079 3.58681 0
M  V30 3085 H 300.189 -2.67355 3.4162 0
M  V30 3086 H 300.86 -4.30691 3.45266 0
M  V30 3087 H 303.336 -3.84894 1.581 0
M  V30 3088 H 302.212 -5.22945 1.66793 0
M  V30 3089 H 302.473 -4.41904 0.131505 0
M  V30 3090 N 301.532 -0.945985 -1.26051 0
M  V30 3091 C 302.781 -0.591836 -1.92822 0
M  V30 3092 C 303.094 0.873956 -1.7499 0
M  V30 3093 O 304.3 1.33769 -2.36259 0
M  V30 3094 C 302.756 -1.00776 -3.45503 0
M  V30 3095 C 302.364 -2.4955 -3.7206 0
M  V30 3096 C 304.108 -0.725735 -4.1825 0
M  V30 3097 C 302.015 -2.84988 -5.18205 0
M  V30 3098 H 300.945 -0.217635 -0.721908 0
M  V30 3099 H 303.596 -1.14927 -1.43052 0
M  V30 3100 H 301.978 -0.378812 -3.94184 0
M  V30 3101 H 303.152 -3.1739 -3.34066 0
M  V30 3102 H 301.467 -2.75133 -3.12555 0
M  V30 3103 H 304.064 -0.966771 -5.25887 0
M  V30 3104 H 304.407 0.337639 -4.14929 0
M  V30 3105 H 304.94 -1.31463 -3.7545 0
M  V30 3106 H 301.679 -3.90307 -5.26631 0
M  V30 3107 H 301.199 -2.21813 -5.57278 0
M  V30 3108 H 302.878 -2.73712 -5.86252 0
M  V30 3109 N 303.011 1.40521 -0.713556 0
M  V30 3110 C 304.236 2.05759 -0.26035 0
M  V30 3111 C 304.661 1.53403 1.08854 0
M  V30 3112 O 304.019 0.668535 1.68524 0
M  V30 3113 C 304.067 3.59745 -0.248122 0
M  V30 3114 O 303.171 4.05123 0.77131 0
M  V30 3115 H 302.512 0.652564 -0.122703 0
M  V30 3116 H 305.042 1.79958 -0.973467 0
M  V30 3117 H 305.052 4.07911 -0.0851129 0
M  V30 3118 H 303.727 3.97218 -1.2325 0
M  V30 3119 H 302.304 3.68422 0.57619 0
M  V30 3120 N 304.489 0.459591 1.5075 0
M  V30 3121 C 305.735 -0.0994966 2.02556 0
M  V30 3122 C 306.068 -1.40399 1.3417 0
M  V30 3123 O 305.343 -1.88892 0.463683 0
M  V30 3124 C 305.626 -0.295242 3.58888 0
M  V30 3125 C 305.479 1.02947 4.37861 0
M  V30 3126 C 306.798 -1.05502 4.27267 0
M  V30 3127 H 303.917 -0.034686 0.736183 0
M  V30 3128 H 306.559 0.602938 1.8018 0
M  V30 3129 H 304.709 -0.893563 3.78084 0
M  V30 3130 H 306.381 1.66348 4.30263 0
M  V30 3131 H 304.624 1.62885 4.02058 0
M  V30 3132 H 305.295 0.846281 5.45474 0
M  V30 3133 H 307.771 -0.547993 4.12476 0
M  V30 3134 H 306.647 -1.16077 5.36486 0
M  V30 3135 H 306.908 -2.08875 3.89645 0
M  V30 3136 N 305.967 -1.56429 0.191757 0
M  V30 3137 C 306.899 -2.16154 -0.762245 0
M  V30 3138 C 307.912 -1.12247 -1.17917 0
M  V30 3139 O 309.101 -1.39353 -1.11548 0
M  V30 3140 C 306.201 -2.70606 -2.04024 0
M  V30 3141 C 305.374 -3.99381 -1.78364 0
M  V30 3142 C 304.433 -4.38692 -2.90578 0
M  V30 3143 O 303.459 -5.06179 -2.6033 0
M  V30 3144 N 304.661 -4.01922 -4.18854 0
M  V30 3145 H 307.426 -2.98643 -0.251526 0
M  V30 3146 H 304.987 -1.61897 0.00967373 0
M  V30 3147 H 306.979 -2.93891 -2.78227 0
M  V30 3148 H 305.549 -1.9259 -2.46227 0
M  V30 3149 H 304.769 -3.84262 -0.879581 0
M  V30 3150 H 306.057 -4.83445 -1.58614 0
M  V30 3151 H 305.455 -3.47631 -4.46283 0
M  V30 3152 H 304.012 -4.30165 -4.89695 0
M  V30 3153 N 307.445 0.0818655 -1.57387 0
M  V30 3154 C 308.395 1.10501 -1.99433 0
M  V30 3155 C 309.379 1.35041 -0.874798 0
M  V30 3156 O 310.571 1.35511 -1.13868 0
M  V30 3157 C 307.7 2.42159 -2.43339 0
M  V30 3158 C 306.786 2.20937 -3.62005 0
M  V30 3159 N 307.177 1.69616 -4.76512 0
M  V30 3160 C 305.475 2.51451 -3.68359 0
M  V30 3161 C 306.176 1.62973 -5.58404 0
M  V30 3162 N 305.152 2.08664 -5.01956 0
M  V30 3163 H 308.954 0.701373 -2.85408 0
M  V30 3164 H 306.468 0.289096 -1.59806 0
M  V30 3165 H 308.465 3.16208 -2.71695 0
M  V30 3166 H 307.125 2.83249 -1.58746 0
M  V30 3167 H 308.136 1.38624 -4.99003 0
M  V30 3168 H 304.813 2.95975 -2.94457 0
M  V30 3169 H 306.203 1.24233 -6.60315 0
M  V30 3170 N 308.923 1.53595 0.353017 0
M  V30 3171 C 309.871 1.81605 1.45335 0
M  V30 3172 C 310.865 0.685923 1.54892 0
M  V30 3173 O 312.071 0.869095 1.57628 0
M  V30 3174 H 308.446 0.575204 0.484401 0
M  V30 3175 H 310.417 2.73679 1.18921 0
M  V30 3176 C 309.166 2.03406 2.81995 0
M  V30 3177 H 308.489 2.89814 2.75405 0
M  V30 3178 H 309.929 2.26975 3.58132 0
M  V30 3179 C 308.388 0.816794 3.26849 0
M  V30 3180 O 308.918 0.0115856 4.01698 0
M  V30 3181 N 307.124 0.636682 2.8354 0
M  V30 3182 H 306.671 1.2931 2.22793 0
M  V30 3183 H 306.629 -0.176336 3.13905 0
M  V30 3184 N 310.401 -0.613514 1.45168 0
M  V30 3185 C 311.311 -1.75296 1.55912 0
M  V30 3186 C 312.327 -1.68244 0.443856 0
M  V30 3187 O 313.503 -1.88706 0.70371 0
M  V30 3188 C 310.568 -3.1174 1.5172 0
M  V30 3189 C 309.629 -3.30291 2.74238 0
M  V30 3190 C 308.862 -4.60226 2.70236 0
M  V30 3191 O 309.085 -5.42168 1.77229 0
M  V30 3192 O 308.019 -4.81361 3.61352 0
M  V30 3193 H 311.845 -1.69183 2.52212 0
M  V30 3194 H 309.43 -0.776886 1.27612 0
M  V30 3195 H 311.312 -3.93044 1.51968 0
M  V30 3196 H 309.987 -3.18357 0.585697 0
M  V30 3197 H 308.894 -2.48598 2.79553 0
M  V30 3198 H 310.227 -3.28547 3.66494 0
M  V30 3199 N 311.879 -1.3236 -0.855495 0
M  V30 3200 C 313.156 -1.13491 -1.59309 0
M  V30 3201 C 313.536 0.30503 -2.08885 0
M  V30 3202 O 312.884 1.30151 -1.87811 0
M  V30 3203 C 313.094 -2.16176 -2.73987 0
M  V30 3204 C 314.442 -2.49463 -3.43589 0
M  V30 3205 O 315.466 -2.14715 -2.84211 0
M  V30 3206 O 314.325 -3.09027 -4.50738 0
M  V30 3207 H 311.419 -0.437887 -0.701559 0
M  V30 3208 H 313.965 -1.43887 -0.899696 0
M  V30 3209 H 312.737 -3.1297 -2.34873 0
M  V30 3210 H 312.36 -1.86769 -3.51003 0
M  V30 3211 N 313.357 1.07166 -1.15556 0
M  V30 3212 C 314.606 1.79181 -0.926132 0
M  V30 3213 C 314.919 1.87768 0.547967 0
M  V30 3214 O 316.125 2.56323 0.895036 0
M  V30 3215 C 314.581 3.22 -1.60761 0
M  V30 3216 C 314.189 3.21607 -3.11886 0
M  V30 3217 C 315.933 3.9861 -1.4598 0
M  V30 3218 C 313.84 4.59092 -3.72812 0
M  V30 3219 H 312.77 0.67154 -0.342856 0
M  V30 3220 H 315.421 1.2027 -1.3859 0
M  V30 3221 H 313.803 3.81115 -1.07553 0
M  V30 3222 H 314.977 2.72127 -3.71865 0
M  V30 3223 H 313.292 2.58495 -3.2645 0
M  V30 3224 H 315.889 5.00225 -1.88888 0
M  V30 3225 H 316.232 4.143 -0.407541 0
M  V30 3226 H 316.765 3.45996 -1.96295 0
M  V30 3227 H 313.504 4.48606 -4.77946 0
M  V30 3228 H 313.024 5.08803 -3.17616 0
M  V30 3229 H 314.703 5.28059 -3.73848 0
M  V30 3230 N 314.835 0.952656 1.25548 0
M  V30 3231 C 316.063 0.623496 1.97282 0
M  V30 3232 C 316.478 -0.803987 1.70826 0
M  V30 3233 O 315.835 -1.53755 0.983147 0
M  V30 3234 C 315.886 0.870209 3.5087 0
M  V30 3235 O 315.607 2.24156 3.76412 0
M  V30 3236 C 317.108 0.553164 4.39835 0
M  V30 3237 H 314.328 0.233931 0.628902 0
M  V30 3238 H 316.872 1.27649 1.59768 0
M  V30 3239 H 315.027 0.263652 3.86502 0
M  V30 3240 H 315.441 2.31021 4.70882 0
M  V30 3241 H 316.915 0.776342 5.46513 0
M  V30 3242 H 317.392 -0.512215 4.36203 0
M  V30 3243 H 317.998 1.13896 4.09766 0
M  V30 3244 N 316.313 -1.40141 0.720998 0
M  V30 3245 C 317.243 -2.33339 0.0867621 0
M  V30 3246 C 318.224 -1.53178 -0.739622 0
M  V30 3247 O 319.409 -1.81625 -0.687449 0
M  V30 3248 C 316.539 -3.37194 -0.831728 0
M  V30 3249 C 315.493 -4.27857 -0.110558 0
M  V30 3250 C 314.819 -5.22294 -1.14513 0
M  V30 3251 C 316.119 -5.11872 1.0385 0
M  V30 3252 H 317.813 -2.86626 0.865219 0
M  V30 3253 H 315.359 -1.37814 0.417516 0
M  V30 3254 H 317.312 -4.01335 -1.28485 0
M  V30 3255 H 316.036 -2.82314 -1.64214 0
M  V30 3256 H 314.695 -3.65176 0.322797 0
M  V30 3257 H 314.343 -4.63717 -1.94874 0
M  V30 3258 H 314.043 -5.83797 -0.667446 0
M  V30 3259 H 315.567 -5.89312 -1.59824 0
M  V30 3260 H 316.981 -5.69436 0.664482 0
M  V30 3261 H 315.378 -5.82445 1.4449 0
M  V30 3262 H 316.448 -4.4753 1.86668 0
M  V30 3263 N 317.792 -0.46758 -1.50504 0
M  V30 3264 C 318.702 0.33382 -2.32213 0
M  V30 3265 C 319.718 0.999323 -1.42441 0
M  V30 3266 O 320.894 0.988068 -1.75497 0
M  V30 3267 C 317.959 1.4035 -3.17022 0
M  V30 3268 C 317.02 0.754961 -4.2261 0
M  V30 3269 C 316.253 1.77367 -5.03365 0
M  V30 3270 O 316.476 2.99976 -4.8515 0
M  V30 3271 O 315.41 1.34744 -5.86624 0
M  V30 3272 H 319.236 -0.334067 -3.01857 0
M  V30 3273 H 316.821 -0.229496 -1.47627 0
M  V30 3274 H 318.703 2.02318 -3.69656 0
M  V30 3275 H 317.378 2.05492 -2.5011 0
M  V30 3276 H 316.285 0.0964244 -3.73976 0
M  V30 3277 H 317.618 0.146545 -4.91982 0
M  V30 3278 N 319.27 1.56325 -0.20005 0
M  V30 3279 C 320.18 2.22931 0.730668 0
M  V30 3280 C 321.196 1.22997 1.23076 0
M  V30 3281 O 322.372 1.55748 1.27689 0
M  V30 3282 C 319.437 2.87948 1.93098 0
M  V30 3283 C 318.498 4.03166 1.47497 0
M  V30 3284 C 317.731 4.65073 2.61807 0
M  V30 3285 O 317.954 4.25913 3.79413 0
M  V30 3286 O 316.888 5.54452 2.34237 0
M  V30 3287 H 320.714 3.03084 0.193391 0
M  V30 3288 H 318.299 1.49371 0.0294621 0
M  V30 3289 H 320.181 3.29063 2.6324 0
M  V30 3290 H 318.856 2.10771 2.45677 0
M  V30 3291 H 317.763 3.66664 0.742201 0
M  V30 3292 H 319.096 4.82022 0.995796 0
M  V30 3293 N 320.748 -0.0735177 1.57428 0
M  V30 3294 C 321.681 -1.11932 1.98863 0
M  V30 3295 C 322.659 -1.37666 0.865266 0
M  V30 3296 O 323.843 -1.51068 1.12742 0
M  V30 3297 C 320.97 -2.46403 2.32386 0
M  V30 3298 C 320.016 -2.36815 3.54713 0
M  V30 3299 S 320.849 -1.76392 5.05614 0
M  V30 3300 C 322.005 -3.12444 5.42337 0
M  V30 3301 H 322.238 -0.766212 2.87257 0
M  V30 3302 H 319.771 -0.281987 1.51803 0
M  V30 3303 H 321.729 -3.23755 2.52375 0
M  V30 3304 H 320.39 -2.78876 1.44524 0
M  V30 3305 H 319.583 -3.35977 3.7568 0
M  V30 3306 H 319.185 -1.67598 3.34345 0
M  V30 3307 H 321.477 -4.08753 5.40303 0
M  V30 3308 H 322.42 -2.96258 6.43146 0
M  V30 3309 H 322.828 -3.1297 4.69798 0
M  V30 3310 N 322.226 -1.5378 -0.344866 0
M  V30 3311 C 323.642 -1.44015 -0.687888 0
M  V30 3312 C 323.842 -0.595834 -1.92489 0
M  V30 3313 O 322.898 -0.0863064 -2.52352 0
M  V30 3314 C 324.211 -2.87481 -0.881758 0
M  V30 3315 C 325.759 -2.97247 -0.980459 0
M  V30 3316 C 326.234 -4.41819 -1.20665 0
M  V30 3317 N 327.725 -4.45339 -1.27389 0
M  V30 3318 C 328.46 -5.54333 -1.46639 0
M  V30 3319 N 327.956 -6.73335 -1.63071 0
M  V30 3320 N 329.749 -5.41944 -1.49176 0
M  V30 3321 H 321.9 -2.07169 0.468475 0
M  V30 3322 H 324.163 -0.93643 0.147655 0
M  V30 3323 H 323.869 -3.51672 -0.0443444 0
M  V30 3324 H 323.743 -3.32352 -1.78388 0
M  V30 3325 H 326.13 -2.33197 -1.8084 0
M  V30 3326 H 326.211 -2.5574 -0.0552713 0
M  V30 3327 H 325.855 -5.06449 -0.383652 0
M  V30 3328 H 325.785 -4.80917 -2.14539 0
M  V30 3329 H 328.276 -3.59585 -1.1622 0
M  V30 3330 H 328.589 -7.52165 -1.77391 0
M  V30 3331 H 326.934 -6.76282 -1.60209 0
M  V30 3332 H 330.125 -4.47932 -1.3592 0
M  V30 3333 H 330.298 -6.26946 -1.63837 0
M  V30 3334 N 323.704 0.605807 -1.45491 0
M  V30 3335 C 325.12 0.926751 -1.29936 0
M  V30 3336 C 325.32 1.99896 -0.253706 0
M  V30 3337 O 324.376 2.50038 0.351737 0
M  V30 3338 C 325.689 1.36599 -2.67883 0
M  V30 3339 C 327.237 1.4801 -2.75793 0
M  V30 3340 C 327.712 1.95309 -4.14268 0
M  V30 3341 N 329.203 2.0254 -4.16571 0
M  V30 3342 C 329.938 2.40363 -5.20589 0
M  V30 3343 N 329.434 2.77143 -6.34952 0
M  V30 3344 N 331.227 2.40718 -5.07948 0
M  V30 3345 H 323.378 -0.102862 -2.12151 0
M  V30 3346 H 325.641 0.016639 -0.947854 0
M  V30 3347 H 325.347 0.652306 -3.45598 0
M  V30 3348 H 325.221 2.33215 -2.96463 0
M  V30 3349 H 327.608 2.1847 -1.98381 0
M  V30 3350 H 327.689 0.497041 -2.50925 0
M  V30 3351 H 327.333 1.25436 -4.92167 0
M  V30 3352 H 327.263 2.94532 -4.3653 0
M  V30 3353 H 329.754 1.76699 -3.34045 0
M  V30 3354 H 330.067 3.0489 -7.10114 0
M  V30 3355 H 328.412 2.74834 -6.3835 0
M  V30 3356 H 331.603 2.11392 -4.1765 0
M  V30 3357 H 331.776 2.69869 -5.89131 0
M  V30 3358 N 325.182 1.32811 0.848464 0
M  V30 3359 C 326.145 1.22194 1.9391 0
M  V30 3360 C 327.145 0.143404 1.60159 0
M  V30 3361 O 328.335 0.394253 1.6968 0
M  V30 3362 C 325.467 0.88067 3.29328 0
M  V30 3363 H 326.66 2.19127 2.04752 0
M  V30 3364 H 324.213 1.16731 1.0394 0
M  V30 3365 H 324.948 -0.0865776 3.24184 0
M  V30 3366 H 324.733 1.66052 3.55203 0
M  V30 3367 H 326.223 0.830871 4.09251 0
M  V30 3368 N 326.66 -1.06551 1.16123 0
M  V30 3369 C 327.59 -2.15935 0.88851 0
M  V30 3370 C 328.571 -1.69306 -0.164135 0
M  V30 3371 O 329.756 -1.94193 -0.0167857 0
M  V30 3372 C 326.886 -3.45149 0.385942 0
M  V30 3373 C 325.84 -4.05271 1.3762 0
M  V30 3374 C 325.166 -5.29664 0.732137 0
M  V30 3375 C 326.466 -4.44355 2.74493 0
M  V30 3376 H 328.16 -2.39006 1.80323 0
M  V30 3377 H 325.706 -1.14866 0.868435 0
M  V30 3378 H 327.659 -4.21004 0.182647 0
M  V30 3379 H 326.383 -3.21689 -0.564274 0
M  V30 3380 H 325.042 -3.3147 1.56599 0
M  V30 3381 H 324.69 -5.02499 -0.224483 0
M  V30 3382 H 324.39 -5.70848 1.39307 0
M  V30 3383 H 325.914 -6.08218 0.538802 0
M  V30 3384 H 327.328 -5.11303 2.59311 0
M  V30 3385 H 325.725 -4.96515 3.37035 0
M  V30 3386 H 326.795 -3.55339 3.29943 0
M  V30 3387 N 328.138 -0.959301 -1.25041 0
M  V30 3388 C 329.085 -0.482057 -2.2571 0
M  V30 3389 C 330.055 0.467939 -1.59372 0
M  V30 3390 O 331.24 0.380159 -1.86974 0
M  V30 3391 C 328.38 0.229623 -3.44335 0
M  V30 3392 C 327.493 -0.758156 -4.25295 0
M  V30 3393 C 326.628 -0.0234403 -5.31195 0
M  V30 3394 C 325.667 -1.00184 -6.03846 0
M  V30 3395 N 324.804 -0.29769 -7.01469 0
M  V30 3396 H 329.644 -1.34538 -2.65901 0
M  V30 3397 H 327.181 -0.674592 -1.3072 0
M  V30 3398 H 329.139 0.658856 -4.11965 0
M  V30 3399 H 327.769 1.05696 -3.05005 0
M  V30 3400 H 326.821 -1.30586 -3.57284 0
M  V30 3401 H 328.133 -1.50458 -4.75567 0
M  V30 3402 H 327.287 0.464201 -6.04922 0
M  V30 3403 H 326.026 0.755741 -4.81809 0
M  V30 3404 H 325.031 -1.50044 -5.2893 0
M  V30 3405 H 326.256 -1.78133 -6.55321 0
M  V30 3406 H 324.202 0.462668 -6.54366 0
M  V30 3407 H 324.119 -0.983128 -7.4958 0
M  V30 3408 H 325.387 0.16826 -7.79318 0
M  V30 3409 N 329.616 1.39756 -0.72842 0
M  V30 3410 C 330.526 2.34444 -0.0855374 0
M  V30 3411 C 331.542 1.57976 0.729356 0
M  V30 3412 O 332.718 1.90301 0.659346 0
M  V30 3413 C 329.783 3.36965 0.815798 0
M  V30 3414 C 328.844 4.29299 -0.0105996 0
M  V30 3415 C 328.077 5.26923 0.84781 0
M  V30 3416 O 328.3 5.30859 2.08673 0
M  V30 3417 O 327.234 6.01249 0.279969 0
M  V30 3418 H 331.06 2.91065 -0.866892 0
M  V30 3419 H 328.645 1.4117 -0.48902 0
M  V30 3420 H 330.527 3.99804 1.33171 0
M  V30 3421 H 329.202 2.82739 1.57608 0
M  V30 3422 H 328.109 3.69703 -0.571877 0
M  V30 3423 H 329.442 4.86712 -0.73295 0
M  V30 3424 N 331.094 0.475555 1.50254 0
M  V30 3425 C 332.026 -0.352649 2.26471 0
M  V30 3426 C 333.039 -0.953165 1.3198 0
M  V30 3427 O 334.228 -0.840815 1.57457 0
M  V30 3428 C 331.328 -1.50902 3.0345 0
M  V30 3429 C 330.501 -1.02047 4.25329 0
M  V30 3430 C 329.56 -2.05142 4.84565 0
M  V30 3431 O 328.586 -1.63023 5.45355 0
M  V30 3432 N 329.788 -3.37987 4.71959 0
M  V30 3433 H 332.553 0.300767 2.98187 0
M  V30 3434 H 330.114 0.306598 1.5897 0
M  V30 3435 H 332.106 -2.19572 3.39956 0
M  V30 3436 H 330.676 -2.06705 2.34504 0
M  V30 3437 H 329.896 -0.159507 3.93877 0
M  V30 3438 H 331.184 -0.672061 5.04342 0
M  V30 3439 H 330.582 -3.74913 4.23623 0
M  V30 3440 H 329.139 -4.02443 5.12721 0
M  V30 3441 N 332.573 -1.56217 0.208337 0
M  V30 3442 C 333.819 -1.98242 -0.427552 0
M  V30 3443 C 334.152 -1.09554 -1.60348 0
M  V30 3444 O 333.427 -0.15035 -1.93918 0
M  V30 3445 C 333.71 -3.4931 -0.874907 0
M  V30 3446 C 333.563 -4.48773 0.303751 0
M  V30 3447 C 334.882 -4.04424 -1.73577 0
M  V30 3448 H 332.001 -0.720744 -0.153936 0
M  V30 3449 H 334.643 -1.87586 0.30192 0
M  V30 3450 H 332.793 -3.58522 -1.49648 0
M  V30 3451 H 334.465 -4.51586 0.941682 0
M  V30 3452 H 332.708 -4.23194 0.953375 0
M  V30 3453 H 333.379 -5.51976 -0.0519883 0
M  V30 3454 H 335.855 -3.98075 -1.21143 0
M  V30 3455 H 334.731 -5.1047 -2.01771 0
M  V30 3456 H 334.992 -3.50494 -2.69456 0
M  V30 3457 N 334.051 0.0651679 -1.57465 0
M  V30 3458 C 335.3 0.761916 -1.86756 0
M  V30 3459 C 335.613 1.78406 -0.801925 0
M  V30 3460 O 336.819 2.53084 -0.982885 0
M  V30 3461 C 335.275 1.40603 -3.31299 0
M  V30 3462 C 334.883 0.422115 -4.46007 0
M  V30 3463 C 336.627 2.08476 -3.69781 0
M  V30 3464 C 334.534 1.07252 -5.81593 0
M  V30 3465 H 333.464 0.288308 -0.696702 0
M  V30 3466 H 336.115 0.015344 -1.83494 0
M  V30 3467 H 334.497 2.20109 -3.29193 0
M  V30 3468 H 335.671 -0.343613 -4.59517 0
M  V30 3469 H 333.986 -0.152527 -4.16121 0
M  V30 3470 H 336.583 2.57925 -4.68379 0
M  V30 3471 H 336.926 2.88712 -2.99919 0
M  V30 3472 H 337.459 1.35792 -3.73905 0
M  V30 3473 H 334.198 0.310342 -6.54765 0
M  V30 3474 H 333.718 1.80895 -5.71872 0
M  V30 3475 H 335.397 1.59043 -6.27148 0
M  V30 3476 N 335.529 1.53961 0.336706 0
M  V30 3477 C 336.945 1.44378 0.680241 0
M  V30 3478 C 337.145 0.606034 1.9217 0
M  V30 3479 O 336.201 0.099688 2.52303 0
M  V30 3480 C 337.514 2.87945 0.8665 0
M  V30 3481 C 339.062 2.97763 0.964682 0
M  V30 3482 C 339.537 4.42453 1.18321 0
M  V30 3483 N 341.028 4.46008 1.25025 0
M  V30 3484 C 341.763 5.55102 1.43697 0
M  V30 3485 N 341.259 6.7419 1.59498 0
M  V30 3486 N 343.052 5.42727 1.463 0
M  V30 3487 H 335.203 2.06918 -0.479455 0
M  V30 3488 H 337.466 0.935634 -0.152619 0
M  V30 3489 H 337.172 3.51691 0.0256937 0
M  V30 3490 H 337.046 3.33293 1.76623 0
M  V30 3491 H 339.433 2.34153 1.796 0
M  V30 3492 H 339.514 2.55766 0.041708 0
M  V30 3493 H 339.158 5.06645 0.356788 0
M  V30 3494 H 339.088 4.82048 2.11985 0
M  V30 3495 H 341.579 3.60196 1.14312 0
M  V30 3496 H 341.892 7.53095 1.734 0
M  V30 3497 H 340.237 6.77123 1.56621 0
M  V30 3498 H 343.428 4.48647 1.33543 0
M  V30 3499 H 343.601 6.27806 1.6051 0
M  V30 3500 N 337.007 -0.598083 1.45811 0
M  V30 3501 C 337.97 -1.69018 1.54808 0
M  V30 3502 C 338.97 -1.55037 0.426652 0
M  V30 3503 O 340.16 -1.59932 0.690456 0
M  V30 3504 C 337.292 -3.0835 1.45371 0
M  V30 3505 H 338.485 -1.62403 2.52121 0
M  V30 3506 H 336.038 -0.814626 1.33392 0
M  V30 3507 H 336.773 -3.20534 0.492793 0
M  V30 3508 H 336.558 -3.19907 2.26721 0
M  V30 3509 H 338.048 -3.8788 1.54721 0
M  V30 3510 N 338.485 -1.33259 -0.841409 0
M  V30 3511 C 339.731 -1.24757 -1.59886 0
M  V30 3512 C 340.064 0.186913 -1.93298 0
M  V30 3513 O 339.339 1.12757 -1.5848 0
M  V30 3514 C 339.622 -2.12036 -2.91055 0
M  V30 3515 C 339.475 -3.63929 -2.6434 0
M  V30 3516 C 340.794 -1.9916 -3.92458 0
M  V30 3517 H 337.913 -0.454542 -0.580138 0
M  V30 3518 H 340.555 -1.63335 -0.970647 0
M  V30 3519 H 338.705 -1.79265 -3.44669 0
M  V30 3520 H 340.377 -4.06978 -2.17178 0
M  V30 3521 H 338.62 -3.85935 -1.98082 0
M  V30 3522 H 339.291 -4.20341 -3.57796 0
M  V30 3523 H 341.767 -2.27895 -3.48143 0
M  V30 3524 H 340.643 -2.62484 -4.82072 0
M  V30 3525 H 340.904 -0.963082 -4.31482 0
M  V30 3526 N 339.963 1.05934 -1.16686 0
M  V30 3527 C 341.209 1.79065 -0.95203 0
M  V30 3528 C 341.542 1.87147 0.518629 0
M  V30 3529 O 340.817 1.36574 1.38484 0
M  V30 3530 C 341.1 3.23359 -1.58464 0
M  V30 3531 C 340.953 3.23336 -3.12689 0
M  V30 3532 C 342.272 4.21004 -1.28232 0
M  V30 3533 H 339.391 0.65005 -0.34728 0
M  V30 3534 H 342.033 1.23868 -1.44072 0
M  V30 3535 H 340.183 3.70493 -1.16908 0
M  V30 3536 H 341.855 2.84336 -3.6325 0
M  V30 3537 H 340.098 2.61886 -3.4583 0
M  V30 3538 H 340.769 4.25144 -3.52075 0
M  V30 3539 H 343.245 3.8233 -1.64203 0
M  V30 3540 H 342.121 5.20225 -1.75092 0
M  V30 3541 H 342.382 4.41639 -0.201791 0
M  V30 3542 N 341.441 0.965919 1.2453 0
M  V30 3543 C 342.852 0.665929 1.7442 0
M  V30 3544 C 343.203 -0.818407 1.78316 0
M  V30 3545 O 342.328 -1.64037 1.41141 0
M  V30 3546 C 342.923 1.20211 3.16757 0
M  V30 3547 C 341.482 0.952059 3.6416 0
M  V30 3548 C 340.629 1.33848 2.42858 0
M  V30 3549 H 343.58 1.14144 1.10258 0
M  V30 3550 H 343.601 0.567544 3.76244 0
M  V30 3551 H 343.113 2.28244 3.13889 0
M  V30 3552 H 341.214 -0.112821 3.72429 0
M  V30 3553 H 341.327 1.59645 4.51719 0
M  V30 3554 H 339.691 0.756864 2.43195 0
M  V30 3555 H 340.474 2.42827 2.42673 0
M  V30 3556 N 342.919 -1.39368 0.735821 0
M  V30 3557 C 343.882 -2.2896 0.104874 0
M  V30 3558 C 344.882 -1.46347 -0.666274 0
M  V30 3559 O 346.072 -1.67014 -0.49517 0
M  V30 3560 C 343.204 -3.29857 -0.860656 0
M  V30 3561 H 344.397 -2.86259 0.894205 0
M  V30 3562 H 341.95 -1.48029 0.501704 0
M  V30 3563 H 342.685 -2.77615 -1.67631 0
M  V30 3564 H 342.47 -3.9087 -0.310327 0
M  V30 3565 H 343.96 -3.96893 -1.29867 0
M  V30 3566 N 344.397 -0.483516 -1.5 0
M  V30 3567 C 345.344 0.304164 -2.28787 0
M  V30 3568 C 346.314 0.976114 -1.34392 0
M  V30 3569 O 347.499 0.986156 -1.63339 0
M  V30 3570 C 344.639 1.37298 -3.16612 0
M  V30 3571 C 343.752 0.714561 -4.26049 0
M  V30 3572 C 342.887 1.76232 -5.01114 0
M  V30 3573 C 341.926 1.08483 -6.0241 0
M  V30 3574 N 341.063 2.076 -6.70706 0
M  V30 3575 H 345.903 -0.373981 -2.95644 0
M  V30 3576 H 343.44 -0.196275 -1.45785 0
M  V30 3577 H 345.398 2.00445 -3.65893 0
M  V30 3578 H 344.028 2.02012 -2.51776 0
M  V30 3579 H 343.08 -0.0297798 -3.80388 0
M  V30 3580 H 344.392 0.180383 -4.98474 0
M  V30 3581 H 343.546 2.46929 -5.54176 0
M  V30 3582 H 342.285 2.33033 -4.28424 0
M  V30 3583 H 341.29 0.363545 -5.48597 0
M  V30 3584 H 342.515 0.523551 -6.77079 0
M  V30 3585 H 340.461 2.63394 -6.00799 0
M  V30 3586 H 340.378 1.59201 -7.39047 0
M  V30 3587 H 341.646 2.77639 -7.2838 0
M  V30 3588 N 345.875 1.56104 -0.216619 0
M  V30 3589 C 347.105 2.02269 0.420802 0
M  V30 3590 C 347.513 1.09575 1.5424 0
M  V30 3591 O 346.856 0.0967308 1.83445 0
M  V30 3592 C 346.918 3.44784 1.01806 0
M  V30 3593 C 346.582 4.56988 0.0325154 0
M  V30 3594 C 347.579 5.14225 -0.766055 0
M  V30 3595 C 345.264 5.02228 -0.0848092 0
M  V30 3596 C 347.258 6.15169 -1.6687 0
M  V30 3597 C 344.945 6.03011 -0.990994 0
M  V30 3598 C 345.943 6.59357 -1.78149 0
M  V30 3599 O 345.631 7.58179 -2.67245 0
M  V30 3600 H 345.363 0.667353 0.107776 0
M  V30 3601 H 347.917 2.02747 -0.329034 0
M  V30 3602 H 346.147 3.41359 1.81689 0
M  V30 3603 H 347.836 3.74626 1.56237 0
M  V30 3604 H 348.602 4.80126 -0.685836 0
M  V30 3605 H 344.481 4.58054 0.520349 0
M  V30 3606 H 348.025 6.59076 -2.28615 0
M  V30 3607 H 343.922 6.36532 -1.07225 0
M  V30 3608 H 344.69 7.75682 -2.61265 0
M  V30 3609 N 347.353 -0.0568162 1.57498 0
M  V30 3610 C 348.283 -1.06593 2.0775 0
M  V30 3611 C 349.264 -1.39448 0.974082 0
M  V30 3612 O 350.449 -1.48815 1.24771 0
M  V30 3613 C 347.579 -2.37509 2.5339 0
M  V30 3614 C 346.533 -2.1897 3.67745 0
M  V30 3615 C 345.859 -3.55402 3.99492 0
M  V30 3616 C 347.159 -1.59859 4.97235 0
M  V30 3617 H 348.853 -0.647706 2.9231 0
M  V30 3618 H 346.399 -0.310116 1.40621 0
M  V30 3619 H 348.352 -3.08409 2.87162 0
M  V30 3620 H 347.076 -2.8134 1.65878 0
M  V30 3621 H 345.735 -1.50508 3.3428 0
M  V30 3622 H 345.383 -3.9683 3.09088 0
M  V30 3623 H 345.083 -3.43831 4.76502 0
M  V30 3624 H 346.607 -4.27708 4.35773 0
M  V30 3625 H 348.021 -2.20642 5.29141 0
M  V30 3626 H 346.418 -1.58942 5.78669 0
M  V30 3627 H 347.488 -0.561506 4.81638 0
M  V30 3628 N 348.832 -1.54138 -0.328536 0
M  V30 3629 C 350.109 -1.62749 -1.08499 0
M  V30 3630 C 350.489 -0.458198 -2.06067 0
M  V30 3631 O 349.837 0.548046 -2.2183 0
M  V30 3632 C 350.047 -2.99519 -1.79135 0
M  V30 3633 C 351.395 -3.55394 -2.32337 0
M  V30 3634 O 352.419 -3.01792 -1.89209 0
M  V30 3635 O 351.278 -4.49186 -3.11279 0
M  V30 3636 H 348.372 -0.65886 -0.499832 0
M  V30 3637 H 350.918 -1.66484 -0.328826 0
M  V30 3638 H 349.69 -3.76061 -1.08139 0
M  V30 3639 H 349.313 -2.99441 -2.61574 0
M  V30 3640 N 350.31 0.590341 -1.46126 0
M  V30 3641 C 351.22 1.72793 -1.58681 0
M  V30 3642 C 352.236 1.67516 -0.470566 0
M  V30 3643 O 353.412 1.87562 -0.733642 0
M  V30 3644 C 350.477 3.09287 -1.5666 0
M  V30 3645 C 349.538 3.25886 -2.79458 0
M  V30 3646 C 348.771 4.55869 -2.77524 0
M  V30 3647 O 348.994 5.3928 -1.85832 0
M  V30 3648 O 347.928 4.75552 -3.68964 0
M  V30 3649 H 351.754 1.65149 -2.54872 0
M  V30 3650 H 349.339 0.756486 -1.28832 0
M  V30 3651 H 351.221 3.90577 -1.58202 0
M  V30 3652 H 349.896 3.17385 -0.636271 0
M  V30 3653 H 348.803 2.44119 -2.83472 0
M  V30 3654 H 350.136 3.22675 -3.71674 0
M  V30 3655 N 351.788 1.33704 0.83433 0
M  V30 3656 C 353.065 1.16011 1.57483 0
M  V30 3657 C 353.445 -0.27176 2.09343 0
M  V30 3658 O 352.793 -1.27146 1.89858 0
M  V30 3659 C 353.003 2.20507 2.70514 0
M  V30 3660 C 354.351 2.54898 3.39577 0
M  V30 3661 O 355.375 2.19209 2.80759 0
M  V30 3662 O 354.234 3.16158 4.45765 0
M  V30 3663 H 351.328 0.448992 0.694503 0
M  V30 3664 H 353.874 1.453 0.876691 0
M  V30 3665 H 352.646 3.16667 2.29865 0
M  V30 3666 H 352.269 1.92329 3.47987 0
M  V30 3667 N 353.266 -1.05314 1.17247 0
M  V30 3668 C 354.494 -1.81971 0.984593 0
M  V30 3669 C 354.909 -1.82929 -0.467166 0
M  V30 3670 O 354.266 -1.25564 -1.32438 0
M  V30 3671 C 354.317 -3.28143 1.51672 0
M  V30 3672 O 354.038 -3.27347 2.91163 0
M  V30 3673 C 355.539 -4.21493 1.37326 0
M  V30 3674 H 352.759 -0.573455 0.348411 0
M  V30 3675 H 355.303 -1.32808 1.55506 0
M  V30 3676 H 353.458 -3.74582 0.988302 0
M  V30 3677 H 353.872 -4.18824 3.15732 0
M  V30 3678 H 355.346 -5.22043 1.79375 0
M  V30 3679 H 355.823 -4.38031 0.320169 0
M  V30 3680 H 356.429 -3.80909 1.89178 0
M  V30 3681 N 354.744 -0.972509 -1.24016 0
M  V30 3682 C 355.99 -0.637978 -1.92504 0
M  V30 3683 C 356.323 0.825383 -1.75787 0
M  V30 3684 O 355.598 1.59442 -1.11393 0
M  V30 3685 C 355.881 -1.01942 -3.45369 0
M  V30 3686 C 355.734 -2.53983 -3.71231 0
M  V30 3687 C 357.053 -0.55751 -4.36555 0
M  V30 3688 H 354.172 -0.233248 -0.699117 0
M  V30 3689 H 356.814 -1.21238 -1.46292 0
M  V30 3690 H 354.964 -0.530656 -3.84859 0
M  V30 3691 H 356.636 -3.10374 -3.41271 0
M  V30 3692 H 354.879 -2.96968 -3.16216 0
M  V30 3693 H 355.55 -2.75723 -4.78206 0
M  V30 3694 H 358.026 -0.977029 -4.04467 0
M  V30 3695 H 356.902 -0.85292 -5.42233 0
M  V30 3696 H 357.163 0.542328 -4.38761 0
M  V30 3697 N 356.222 1.38976 -0.743202 0
M  V30 3698 C 357.452 2.04339 -0.304807 0
M  V30 3699 C 357.86 1.56162 1.06819 0
M  V30 3700 O 357.203 0.725284 1.68776 0
M  V30 3701 C 357.265 3.58716 -0.237369 0
M  V30 3702 C 356.929 4.29905 -1.55018 0
M  V30 3703 C 357.926 4.55987 -2.49744 0
M  V30 3704 C 355.611 4.68294 -1.81675 0
M  V30 3705 C 357.605 5.19478 -3.69353 0
M  V30 3706 C 355.292 5.31512 -3.0156 0
M  V30 3707 C 356.29 5.57037 -3.9522 0
M  V30 3708 O 355.978 6.18941 -5.12998 0
M  V30 3709 H 355.71 0.663439 -0.12971 0
M  V30 3710 H 358.264 1.78852 -1.01001 0
M  V30 3711 H 356.494 3.83133 0.524003 0
M  V30 3712 H 358.183 4.05543 0.170121 0
M  V30 3713 H 358.949 4.26767 -2.30423 0
M  V30 3714 H 354.828 4.47779 -1.09615 0
M  V30 3715 H 358.372 5.39318 -4.42473 0
M  V30 3716 H 354.269 5.60153 -3.20778 0
M  V30 3717 H 355.037 6.37433 -5.13441 0
M  V30 3718 N 357.7 0.491464 1.49741 0
M  V30 3719 C 358.65 -0.311086 2.25868 0
M  V30 3720 C 359.634 -0.943857 1.30308 0
M  V30 3721 O 360.826 -0.853035 1.55088 0
M  V30 3722 C 357.955 -1.38059 3.14316 0
M  V30 3723 C 357.041 -0.754541 4.17334 0
M  V30 3724 N 357.432 0.137216 5.05614 0
M  V30 3725 C 355.73 -1.01621 4.34269 0
M  V30 3726 C 356.431 0.494614 5.79593 0
M  V30 3727 N 355.407 -0.135169 5.43432 0
M  V30 3728 H 359.209 0.37555 2.91491 0
M  V30 3729 H 356.723 0.306917 1.59473 0
M  V30 3730 H 358.72 -1.96891 3.67477 0
M  V30 3731 H 357.38 -2.06901 2.50244 0
M  V30 3732 H 358.391 0.50741 5.15408 0
M  V30 3733 H 355.068 -1.69808 3.81407 0
M  V30 3734 H 356.458 1.2236 6.60665 0
M  V30 3735 N 359.178 -1.55987 0.224894 0
M  V30 3736 C 360.108 -2.23426 -0.678457 0
M  V30 3737 C 361.089 -1.20709 -1.19847 0
M  V30 3738 O 362.274 -1.49304 -1.24186 0
M  V30 3739 C 359.404 -2.91676 -1.88527 0
M  V30 3740 C 358.358 -4.00893 -1.49896 0
M  V30 3741 C 357.684 -4.56455 -2.78483 0
M  V30 3742 C 358.984 -5.17769 -0.686461 0
M  V30 3743 H 360.678 -2.99175 -0.116173 0
M  V30 3744 H 358.224 -1.43897 -0.054436 0
M  V30 3745 H 360.177 -3.37547 -2.5227 0
M  V30 3746 H 358.901 -2.1338 -2.47258 0
M  V30 3747 H 357.56 -3.55758 -0.884985 0
M  V30 3748 H 357.208 -3.74886 -3.35365 0
M  V30 3749 H 356.908 -5.30169 -2.53368 0
M  V30 3750 H 358.432 -5.05047 -3.43162 0
M  V30 3751 H 359.846 -5.60001 -1.22767 0
M  V30 3752 H 358.243 -5.97735 -0.532259 0
M  V30 3753 H 359.313 -4.83932 0.306196 0
M  V30 3754 N 360.656 0.0484629 -1.57525 0
M  V30 3755 C 361.588 1.08222 -2.02041 0
M  V30 3756 C 362.601 1.33621 -0.930012 0
M  V30 3757 O 363.79 1.3145 -1.20761 0
M  V30 3758 C 360.89 2.42818 -2.36416 0
M  V30 3759 C 360.063 2.37049 -3.67596 0
M  V30 3760 C 359.122 3.53937 -3.89378 0
M  V30 3761 O 358.148 3.34308 -4.60681 0
M  V30 3762 N 359.35 4.75126 -3.3352 0
M  V30 3763 H 362.115 0.702946 -2.9134 0
M  V30 3764 H 359.676 0.236745 -1.6016 0
M  V30 3765 H 361.668 3.197 -2.48141 0
M  V30 3766 H 360.238 2.72661 -1.52888 0
M  V30 3767 H 359.458 1.45395 -3.66407 0
M  V30 3768 H 360.746 2.30318 -4.53686 0
M  V30 3769 H 360.144 4.93976 -2.75688 0
M  V30 3770 H 358.701 5.49439 -3.50656 0
M  V30 3771 N 362.134 1.5431 0.320358 0
M  V30 3772 C 363.545 1.63872 0.894594 0
M  V30 3773 C 363.896 0.534847 1.88769 0
M  V30 3774 O 363.021 -0.331732 2.13842 0
M  V30 3775 C 363.616 2.97049 1.62934 0
M  V30 3776 C 362.175 3.08796 2.15226 0
M  V30 3777 C 361.322 2.59456 0.978671 0
M  V30 3778 H 364.273 1.58398 0.0978544 0
M  V30 3779 H 364.294 2.87388 2.49376 0
M  V30 3780 H 363.806 3.7737 0.906302 0
M  V30 3781 H 361.907 2.33156 2.90636 0
M  V30 3782 H 362.02 4.14649 2.40006 0
M  V30 3783 H 360.384 2.1543 1.35875 0
M  V30 3784 H 361.167 3.42237 0.269895 0
M  V30 3785 N 363.613 -0.582584 1.46437 0
M  V30 3786 C 364.838 -1.37168 1.55563 0
M  V30 3787 C 365.263 -1.87061 0.19743 0
M  V30 3788 O 364.621 -1.61572 -0.822451 0
M  V30 3789 C 364.669 -2.53511 2.56446 0
M  V30 3790 O 363.773 -3.54953 2.09958 0
M  V30 3791 H 363.114 -0.408494 0.523477 0
M  V30 3792 H 365.644 -0.706646 1.9201 0
M  V30 3793 H 365.654 -3.00426 2.76058 0
M  V30 3794 H 364.329 -2.16549 3.55076 0
M  V30 3795 H 362.906 -3.14516 2.00334 0
M  V30 3796 N 365.091 -1.34144 -0.827227 0
M  V30 3797 C 366.339 -1.26009 -1.58007 0
M  V30 3798 C 366.66 0.170971 -1.94249 0
M  V30 3799 O 365.93 1.10256 -1.61927 0
M  V30 3800 H 364.51 -0.463414 -0.585881 0
M  V30 3801 H 367.172 -1.68005 -0.987951 0
M  V30 3802 H 366.268 -1.86187 -2.50481 0
M  V30 3803 N 366.569 1.04691 -1.17803 0
M  V30 3804 C 367.985 1.29963 -0.926379 0
M  V30 3805 C 368.185 1.97251 0.411635 0
M  V30 3806 O 367.241 2.24922 1.14744 0
M  V30 3807 C 368.554 2.16447 -2.08737 0
M  V30 3808 C 370.102 2.29814 -2.12496 0
M  V30 3809 C 370.577 3.19661 -3.27995 0
M  V30 3810 N 372.068 3.27247 -3.27816 0
M  V30 3811 C 372.803 3.96906 -4.13827 0
M  V30 3812 N 372.299 4.6895 -5.09959 0
M  V30 3813 N 374.092 3.93122 -4.01761 0
M  V30 3814 H 366.243 0.594182 -2.0392 0
M  V30 3815 H 368.506 0.324649 -0.890678 0
M  V30 3816 H 368.212 1.74304 -3.05469 0
M  V30 3817 H 368.086 3.17103 -2.04268 0
M  V30 3818 H 370.473 2.71196 -1.16347 0
M  V30 3819 H 370.554 1.2877 -2.21025 0
M  V30 3820 H 370.198 2.78991 -4.24413 0
M  V30 3821 H 370.128 4.20722 -3.16703 0
M  V30 3822 H 372.619 2.75921 -2.58217 0
M  V30 3823 H 372.932 5.19679 -5.71974 0
M  V30 3824 H 371.277 4.67875 -5.13924 0
M  V30 3825 H 374.468 3.35967 -3.2595 0
M  V30 3826 H 374.641 4.47139 -4.6901 0
M  V30 3827 N 368.047 0.979072 1.23499 0
M  V30 3828 C 369.294 0.647219 1.91878 0
M  V30 3829 C 369.622 -0.819074 1.76413 0
M  V30 3830 O 368.877 -1.60616 1.11808 0
M  V30 3831 C 369.176 0.981932 3.43646 0
M  V30 3832 C 368.842 2.43822 3.79291 0
M  V30 3833 C 367.504 2.83622 3.88731 0
M  V30 3834 C 369.856 3.3828 3.96505 0
M  V30 3835 C 367.184 4.16897 4.12812 0
M  V30 3836 C 369.536 4.71197 4.22085 0
M  V30 3837 C 368.2 5.10758 4.29747 0
M  V30 3838 H 367.47 0.236834 0.702133 0
M  V30 3839 H 370.117 1.23268 1.46551 0
M  V30 3840 H 368.422 0.314365 3.90537 0
M  V30 3841 H 370.119 0.703395 3.94783 0
M  V30 3842 H 366.709 2.11966 3.72516 0
M  V30 3843 H 370.893 3.0871 3.88603 0
M  V30 3844 H 366.149 4.47157 4.16966 0
M  V30 3845 H 370.323 5.44348 4.34348 0
M  V30 3846 H 367.95 6.1405 4.48159 0
M  V30 3847 N 369.525 -1.3858 0.750561 0
M  V30 3848 C 370.771 -2.00481 0.305825 0
M  V30 3849 C 371.104 -1.5944 -1.10872 0
M  V30 3850 O 370.379 -0.83052 -1.75877 0
M  V30 3851 C 370.662 -3.5758 0.425287 0
M  V30 3852 C 370.515 -4.08594 1.88072 0
M  V30 3853 C 371.834 -4.39719 -0.183122 0
M  V30 3854 H 368.953 -0.728348 0.112598 0
M  V30 3855 H 371.595 -1.64566 0.949638 0
M  V30 3856 H 369.745 -3.88306 -0.122828 0
M  V30 3857 H 371.417 -3.88523 2.48691 0
M  V30 3858 H 369.66 -3.61574 2.39681 0
M  V30 3859 H 370.331 -5.177 1.91548 0
M  V30 3860 H 372.807 -4.15128 0.284303 0
M  V30 3861 H 371.683 -5.48856 -0.0692757 0
M  V30 3862 H 371.944 -4.23434 -1.27106 0
M  V30 3863 N 371.003 -0.499398 -1.49478 0
M  V30 3864 C 372.252 0.0475259 -2.01644 0
M  V30 3865 C 372.565 1.38195 -1.38425 0
M  V30 3866 O 373.771 2.01547 -1.8191 0
M  V30 3867 C 372.227 0.135164 -3.59646 0
M  V30 3868 C 371.835 -1.19252 -4.31837 0
M  V30 3869 C 373.579 0.632538 -4.19761 0
M  V30 3870 C 371.486 -1.06713 -5.81693 0
M  V30 3871 H 370.416 0.0215349 -0.753692 0
M  V30 3872 H 373.067 -0.638577 -1.7203 0
M  V30 3873 H 371.449 0.885681 -3.85969 0
M  V30 3874 H 372.623 -1.9562 -4.17216 0
M  V30 3875 H 370.938 -1.62321 -3.83459 0
M  V30 3876 H 373.535 0.743833 -5.29501 0
M  V30 3877 H 373.878 1.63098 -3.83021 0
M  V30 3878 H 374.411 -0.0613987 -3.97753 0
M  V30 3879 H 371.15 -2.03979 -6.22955 0
M  V30 3880 H 370.67 -0.344307 -5.98811 0
M  V30 3881 H 372.349 -0.745208 -6.42694 0
M  V30 3882 N 372.481 1.55866 -0.233164 0
M  V30 3883 C 373.729 1.9821 0.394593 0
M  V30 3884 C 374.05 1.12234 1.59463 0
M  V30 3885 O 373.32 0.201981 1.94856 0
M  V30 3886 H 371.9 0.732034 0.148778 0
M  V30 3887 H 374.562 1.92107 -0.32876 0
M  V30 3888 H 373.658 3.03845 0.713063 0
M  V30 3889 N 373.959 -0.0401083 1.57549 0
M  V30 3890 C 375.207 -0.731677 1.8839 0
M  V30 3891 C 375.528 -1.76481 0.829425 0
M  V30 3892 O 374.798 -1.95411 -0.1383 0
M  V30 3893 H 373.378 -0.273225 0.695239 0
M  V30 3894 H 376.04 -0.00867725 1.94898 0
M  V30 3895 H 375.136 -1.22816 2.86919 0
M  V30 3896 N 375.437 -1.54477 -0.31217 0
M  V30 3897 C 376.848 -1.64344 -0.885891 0
M  V30 3898 C 377.199 -0.54485 -1.88483 0
M  V30 3899 O 376.324 0.320387 -2.14015 0
M  V30 3900 C 376.919 -2.97908 -1.61357 0
M  V30 3901 C 375.478 -3.09933 -2.13585 0
M  V30 3902 C 374.625 -2.59971 -0.964897 0
M  V30 3903 H 377.576 -1.58448 -0.0894528 0
M  V30 3904 H 377.597 -2.88706 -2.47848 0
M  V30 3905 H 377.109 -3.77845 -0.886277 0
M  V30 3906 H 375.21 -2.34694 -2.89395 0
M  V30 3907 H 375.323 -4.15916 -2.37804 0
M  V30 3908 H 373.687 -2.16147 -1.34731 0
M  V30 3909 H 374.47 -3.42376 -0.251742 0
M  V30 3910 N 376.915 0.57481 -1.46744 0
M  V30 3911 C 377.847 1.69804 -1.53946 0
M  V30 3912 C 378.86 1.57098 -0.427106 0
M  V30 3913 O 380.049 1.64378 -0.695863 0
M  V30 3914 C 377.149 3.08125 -1.4111 0
M  V30 3915 C 376.322 3.46757 -2.66605 0
M  V30 3916 C 375.381 4.6417 -2.47855 0
M  V30 3917 O 374.407 4.69634 -3.21609 0
M  V30 3918 N 375.609 5.59553 -1.54534 0
M  V30 3919 H 378.374 1.64077 -2.50796 0
M  V30 3920 H 375.935 0.761 -1.429 0
M  V30 3921 H 377.927 3.84478 -1.26328 0
M  V30 3922 H 376.497 3.08175 -0.524109 0
M  V30 3923 H 375.717 2.6003 -2.96274 0
M  V30 3924 H 377.005 3.69337 -3.49954 0
M  V30 3925 H 376.403 5.57881 -0.937304 0
M  V30 3926 H 374.96 6.35304 -1.45711 0
M  V30 3927 N 378.394 1.34581 0.820102 0
M  V30 3928 C 379.642 1.26845 1.57336 0
M  V30 3929 C 379.963 -0.160667 1.94337 0
M  V30 3930 O 379.233 -1.09396 1.6251 0
M  V30 3931 H 377.813 0.466514 0.583415 0
M  V30 3932 H 380.475 1.68526 0.979027 0
M  V30 3933 H 379.571 1.87513 2.4949 0
M  V30 3934 N 379.872 -1.04064 1.18357 0
M  V30 3935 C 381.149 -1.74252 0.888581 0
M  V30 3936 C 381.529 -2.02138 -0.60856 0
M  V30 3937 O 380.877 -1.66656 -1.56327 0
M  V30 3938 C 381.087 -3.0277 1.73584 0
M  V30 3939 C 382.435 -3.76506 1.96286 0
M  V30 3940 O 383.459 -3.12668 1.70637 0
M  V30 3941 O 382.318 -4.91243 2.39464 0
M  V30 3942 H 379.412 -0.758271 0.330082 0
M  V30 3943 H 381.958 -1.1013 1.2911 0
M  V30 3944 H 380.73 -2.78299 2.75073 0
M  V30 3945 H 380.353 -3.74631 1.33183 0
M  V30 3946 N 381.35 -0.985608 -1.22978 0
M  V30 3947 C 382.313 -0.535071 -2.22867 0
M  V30 3948 C 383.313 0.378123 -1.56291 0
M  V30 3949 O 384.503 0.171092 -1.73358 0
M  V30 3950 C 381.635 0.222702 -3.40172 0
M  V30 3951 H 382.828 -1.41835 -2.6424 0
M  V30 3952 H 380.381 -0.772042 -1.35901 0
M  V30 3953 H 381.116 1.12229 -3.04262 0
M  V30 3954 H 380.901 -0.43288 -3.89703 0
M  V30 3955 H 382.391 0.526335 -4.1427 0
M  V30 3956 N 382.828 1.3818 -0.7579 0
M  V30 3957 C 384.076 1.99624 -0.315361 0
M  V30 3958 C 384.397 1.60464 1.10799 0
M  V30 3959 O 383.667 0.863507 1.75842 0
M  V30 3960 H 382.247 0.73831 -0.113611 0
M  V30 3961 H 384.909 1.68878 -0.972952 0
M  V30 3962 H 384.005 3.09754 -0.381931 0
M  V30 3963 N 384.306 0.507319 1.49211 0
M  V30 3964 C 385.552 -0.0350047 2.0277 0
M  V30 3965 C 385.885 -1.3606 1.38569 0
M  V30 3966 O 385.16 -1.87321 0.523542 0
M  V30 3967 C 385.443 -0.180916 3.59645 0
M  V30 3968 C 385.296 1.16825 4.34364 0
M  V30 3969 C 386.615 -0.918558 4.30407 0
M  V30 3970 H 383.734 -0.0112473 0.736914 0
M  V30 3971 H 386.376 0.659956 1.7817 0
M  V30 3972 H 384.526 -0.772826 3.80736 0
M  V30 3973 H 386.198 1.79952 4.24753 0
M  V30 3974 H 384.441 1.75594 3.96673 0
M  V30 3975 H 385.112 1.01939 5.42506 0
M  V30 3976 H 387.588 -0.41649 4.1401 0
M  V30 3977 H 386.464 -0.989505 5.39907 0
M  V30 3978 H 386.725 -1.96373 3.96093 0
M  V30 3979 N 385.784 -1.5574 0.241426 0
M  V30 3980 C 387.012 -2.03208 -0.389134 0
M  V30 3981 C 387.427 -1.12082 -1.51931 0
M  V30 3982 O 386.784 -0.134183 -1.82006 0
M  V30 3983 C 386.835 -3.50064 -0.902087 0
M  V30 3984 O 386.556 -4.37717 0.18305 0
M  V30 3985 C 388.057 -4.13268 -1.60389 0
M  V30 3986 H 385.277 -0.664509 -0.0931053 0
M  V30 3987 H 387.821 -2.0124 0.36369 0
M  V30 3988 H 385.976 -3.52583 -1.60511 0
M  V30 3989 H 386.39 -5.24097 -0.205579 0
M  V30 3990 H 387.864 -5.17733 -1.91458 0
M  V30 3991 H 388.341 -3.59434 -2.52397 0
M  V30 3992 H 388.947 -4.14655 -0.945576 0
M  V30 3993 N 387.262 0.0317525 -1.57568 0
M  V30 3994 C 388.51 0.721676 -1.88776 0
M  V30 3995 C 388.831 1.76039 -0.838772 0
M  V30 3996 O 388.101 1.95482 0.127935 0
M  V30 3997 H 386.681 0.269534 -0.696678 0
M  V30 3998 H 389.343 -0.00165879 -1.949 0
M  V30 3999 H 388.439 1.21293 -2.87566 0
M  V30 4000 N 388.74 1.54641 0.303973 0
M  V30 4001 C 390.156 1.45788 0.649463 0
M  V30 4002 C 390.356 0.64666 1.90842 0
M  V30 4003 O 389.412 0.153183 2.52035 0
M  V30 4004 C 390.725 2.89718 0.805227 0
M  V30 4005 C 392.273 2.99742 0.901305 0
M  V30 4006 C 392.748 4.44863 1.08909 0
M  V30 4007 N 394.239 4.48559 1.15536 0
M  V30 4008 C 394.974 5.58026 1.3189 0
M  V30 4009 N 394.47 6.77422 1.45161 0
M  V30 4010 N 396.263 5.45708 1.34755 0
M  V30 4011 H 388.414 2.05854 -0.523237 0
M  V30 4012 H 390.677 0.932186 -0.172431 0
M  V30 4013 H 390.383 3.51666 -0.0489108 0
M  V30 4014 H 390.257 3.36964 1.69513 0
M  V30 4015 H 392.644 2.3791 1.74593 0
M  V30 4016 H 392.725 2.55797 -0.0125531 0
M  V30 4017 H 392.369 5.07288 0.249241 0
M  V30 4018 H 392.299 4.86436 2.01713 0
M  V30 4019 H 394.79 3.6254 1.06646 0
M  V30 4020 H 395.103 7.56604 1.57387 0
M  V30 4021 H 393.448 6.80292 1.42223 0
M  V30 4022 H 396.639 4.51378 1.23996 0
M  V30 4023 H 396.812 6.3107 1.47157 0
M  V30 4024 N 390.218 -0.567019 1.47046 0
M  V30 4025 C 391.165 -1.67489 1.58796 0
M  V30 4026 C 392.135 -1.60399 0.43144 0
M  V30 4027 O 393.32 -1.79378 0.650233 0
M  V30 4028 C 390.46 -3.05821 1.59899 0
M  V30 4029 C 389.573 -3.2342 2.86397 0
M  V30 4030 C 388.708 -4.52093 2.789 0
M  V30 4031 C 387.747 -4.6309 4.00267 0
M  V30 4032 N 386.884 -5.83106 3.91064 0
M  V30 4033 H 391.724 -1.56785 2.53422 0
M  V30 4034 H 389.261 -0.763896 1.2571 0
M  V30 4035 H 391.219 -3.8591 1.58522 0
M  V30 4036 H 389.849 -3.15384 0.687929 0
M  V30 4037 H 388.901 -2.3683 2.97684 0
M  V30 4038 H 390.213 -3.27412 3.76301 0
M  V30 4039 H 389.367 -5.4043 2.75718 0
M  V30 4040 H 388.106 -4.50565 1.86662 0
M  V30 4041 H 387.111 -3.73168 4.03765 0
M  V30 4042 H 388.336 -4.66386 4.93621 0
M  V30 4043 H 386.282 -5.82546 3.01623 0
M  V30 4044 H 386.199 -5.88434 4.74638 0
M  V30 4045 H 387.467 -6.73831 3.91882 0
M  V30 4046 N 391.696 -1.35014 -0.812953 0
M  V30 4047 C 392.945 -1.27269 -1.56479 0
M  V30 4048 C 393.258 0.152771 -1.95002 0
M  V30 4049 O 394.464 0.352451 -2.69203 0
M  V30 4050 C 392.92 -2.23159 -2.82362 0
M  V30 4051 C 392.528 -3.71016 -2.511 0
M  V30 4052 C 394.272 -2.24342 -3.60376 0
M  V30 4053 C 392.179 -4.58746 -3.73237 0
M  V30 4054 H 391.109 -0.472829 -0.587324 0
M  V30 4055 H 393.76 -1.6024 -0.894171 0
M  V30 4056 H 392.142 -1.83151 -3.51101 0
M  V30 4057 H 393.316 -4.1962 -1.90409 0
M  V30 4058 H 391.631 -3.72378 -1.86343 0
M  V30 4059 H 394.228 -2.87107 -4.51081 0
M  V30 4060 H 394.571 -1.24542 -3.97234 0
M  V30 4061 H 395.104 -2.62846 -2.98591 0
M  V30 4062 H 391.843 -5.59521 -3.41492 0
M  V30 4063 H 391.363 -4.14871 -4.33176 0
M  V30 4064 H 393.042 -4.73852 -4.40537 0
M  V30 4065 N 393.175 1.03435 -1.18907 0
M  V30 4066 C 394.424 1.76143 -0.982669 0
M  V30 4067 C 394.737 1.89416 0.487953 0
M  V30 4068 O 395.943 2.59041 0.813036 0
M  V30 4069 C 394.399 3.16722 -1.70924 0
M  V30 4070 C 394.007 3.11522 -3.21959 0
M  V30 4071 C 395.751 3.93764 -1.58588 0
M  V30 4072 C 393.658 4.46999 -3.87228 0
M  V30 4073 H 392.588 0.660292 -0.364047 0
M  V30 4074 H 395.239 1.158 -1.42347 0
M  V30 4075 H 393.621 3.775 -1.19623 0
M  V30 4076 H 394.795 2.60158 -3.80335 0
M  V30 4077 H 393.11 2.47978 -3.34508 0
M  V30 4078 H 395.707 4.93963 -2.04707 0
M  V30 4079 H 396.05 4.12794 -0.539142 0
M  V30 4080 H 396.583 3.39576 -2.07203 0
M  V30 4081 H 393.322 4.33174 -4.91976 0
M  V30 4082 H 392.842 4.98441 -3.33642 0
M  V30 4083 H 394.521 5.15898 -3.90459 0
M  V30 4084 N 394.653 0.992116 1.22453 0
M  V30 4085 C 395.899 0.668523 1.91464 0
M  V30 4086 C 396.232 -0.797313 1.77078 0
M  V30 4087 O 395.507 -1.5765 1.13916 0
M  V30 4088 C 395.79 1.07424 3.43703 0
M  V30 4089 C 395.643 2.59857 3.67143 0
M  V30 4090 C 396.962 0.626891 4.35612 0
M  V30 4091 H 394.081 0.244341 0.695318 0
M  V30 4092 H 396.723 1.2355 1.44345 0
M  V30 4093 H 394.873 0.591816 3.83966 0
M  V30 4094 H 396.545 3.15764 3.3629 0
M  V30 4095 H 394.788 3.01961 3.11451 0
M  V30 4096 H 395.459 2.83296 4.73759 0
M  V30 4097 H 397.935 1.04125 4.02861 0
M  V30 4098 H 396.811 0.939076 5.40807 0
M  V30 4099 H 397.072 -0.472457 4.39568 0
M  V30 4100 N 396.131 -1.37776 0.765217 0
M  V30 4101 C 397.408 -1.93975 0.251596 0
M  V30 4102 C 397.788 -1.69949 -1.25222 0
M  V30 4103 O 397.136 -1.04457 -2.03226 0
M  V30 4104 C 397.346 -3.43487 0.617895 0
M  V30 4105 C 398.694 -4.20564 0.584029 0
M  V30 4106 O 399.718 -3.5182 0.556888 0
M  V30 4107 O 398.577 -5.43138 0.605291 0
M  V30 4108 H 395.671 -0.82509 0.0561806 0
M  V30 4109 H 398.217 -1.47101 0.846128 0
M  V30 4110 H 396.989 -3.5453 1.65602 0
M  V30 4111 H 396.612 -3.976 -0.00403411 0
M  V30 4112 N 397.609 -0.515225 -1.4894 0
M  V30 4113 C 398.837 0.0206034 -2.0689 0
M  V30 4114 C 399.252 1.29514 -1.37374 0
M  V30 4115 O 398.609 1.76698 -0.456529 0
M  V30 4116 C 398.66 0.26351 -3.60538 0
M  V30 4117 O 398.381 -0.960517 -4.27441 0
M  V30 4118 C 399.882 0.841383 -4.35242 0
M  V30 4119 H 397.102 -0.0268608 -0.670462 0
M  V30 4120 H 399.646 -0.716651 -1.91532 0
M  V30 4121 H 397.801 0.950777 -3.75552 0
M  V30 4122 H 398.215 -0.73212 -5.19365 0
M  V30 4123 H 399.689 0.96085 -5.43573 0
M  V30 4124 H 400.166 1.8427 -3.98674 0
M  V30 4125 H 400.772 0.191143 -4.2487 0
M  V30 4126 N 399.087 1.5561 -0.249682 0
M  V30 4127 C 400.317 2.03116 0.377803 0
M  V30 4128 C 400.725 1.12822 1.51881 0
M  V30 4129 O 400.068 0.13562 1.83199 0
M  V30 4130 C 400.13 3.46866 0.944693 0
M  V30 4131 C 399.794 4.56955 -0.0644259 0
M  V30 4132 C 400.791 5.12485 -0.874957 0
M  V30 4133 C 398.476 5.01936 -0.19132 0
M  V30 4134 C 400.47 6.11491 -1.79881 0
M  V30 4135 C 398.157 6.00773 -1.11868 0
M  V30 4136 C 399.155 6.5543 -1.92095 0
M  V30 4137 O 398.843 7.5234 -2.83267 0
M  V30 4138 H 398.575 0.669489 0.0935961 0
M  V30 4139 H 401.129 2.02004 -0.371966 0
M  V30 4140 H 399.359 3.45136 1.74407 0
M  V30 4141 H 401.048 3.77856 1.48255 0
M  V30 4142 H 401.814 4.78564 -0.787523 0
M  V30 4143 H 397.693 4.59055 0.423072 0
M  V30 4144 H 401.237 6.54078 -2.42543 0
M  V30 4145 H 397.134 6.34114 -1.20703 0
M  V30 4146 H 397.902 7.69966 -2.7766 0
M  V30 4147 N 400.565 -0.0233959 1.57583 0
M  V30 4148 C 401.813 -0.711654 1.89156 0
M  V30 4149 C 402.134 -1.75591 0.848096 0
M  V30 4150 O 401.404 -1.95547 -0.117566 0
M  V30 4151 H 399.984 -0.265835 0.698098 0
M  V30 4152 H 402.646 0.0119948 1.94896 0
M  V30 4153 H 401.742 -1.19766 2.88206 0
M  V30 4154 N 402.043 -1.548 -0.295768 0
M  V30 4155 C 403.291 -1.73985 -1.02828 0
M  V30 4156 C 403.612 -0.531406 -1.87619 0
M  V30 4157 O 402.882 0.454221 -1.90561 0
M  V30 4158 H 401.462 -0.641556 -0.382642 0
M  V30 4159 H 404.124 -1.92163 -0.325489 0
M  V30 4160 H 403.22 -2.63129 -1.67838 0
M  V30 4161 N 403.521 0.559213 -1.47345 0
M  V30 4162 C 404.767 1.31614 -1.55079 0
M  V30 4163 C 405.122 1.91257 -0.209422 0
M  V30 4164 O 404.415 1.74796 0.784656 0
M  V30 4165 C 404.609 2.44853 -2.6035 0
M  V30 4166 C 404.438 1.96305 -4.04591 0
M  V30 4167 C 403.208 1.8024 -4.72061 0
M  V30 4168 C 405.406 1.50872 -4.91673 0
M  V30 4169 N 403.388 1.26011 -6.00828 0
M  V30 4170 C 404.759 1.08395 -6.10451 0
M  V30 4171 C 406.814 1.38905 -4.78132 0
M  V30 4172 C 405.517 0.551399 -7.17183 0
M  V30 4173 C 407.543 0.870518 -5.84958 0
M  V30 4174 C 406.905 0.455661 -7.02925 0
M  V30 4175 H 403.004 0.473712 -0.62219 0
M  V30 4176 H 405.588 0.634103 -1.84085 0
M  V30 4177 H 403.759 3.10589 -2.33215 0
M  V30 4178 H 405.491 3.11849 -2.57938 0
M  V30 4179 H 402.246 2.02895 -4.27937 0
M  V30 4180 H 402.67 1.00991 -6.69425 0
M  V30 4181 H 407.312 1.69591 -3.87297 0
M  V30 4182 H 405.03 0.232159 -8.07766 0
M  V30 4183 H 408.616 0.781507 -5.76527 0
M  V30 4184 H 407.496 0.0606414 -7.84177 0
M  V30 4185 N 404.999 1.35443 0.805782 0
M  V30 4186 C 406.247 1.28507 1.55982 0
M  V30 4187 C 406.568 -0.140046 1.94496 0
M  V30 4188 O 405.838 -1.07666 1.63661 0
M  V30 4189 H 404.418 0.472676 0.578434 0
M  V30 4190 H 407.08 1.69555 0.961098 0
M  V30 4191 H 406.176 1.90148 2.47488 0
M  V30 4192 N 406.477 -1.02803 1.19454 0
M  V30 4193 C 407.44 -2.09264 0.934955 0
M  V30 4194 C 408.44 -1.60576 -0.0849015 0
M  V30 4195 O 409.63 -1.73554 0.149933 0
M  V30 4196 C 406.762 -3.38482 0.40531 0
M  V30 4197 H 407.955 -2.33726 1.87916 0
M  V30 4198 H 405.508 -1.19426 1.00832 0
M  V30 4199 H 406.243 -3.19689 -0.544899 0
M  V30 4200 H 406.028 -3.75142 1.14065 0
M  V30 4201 H 407.518 -4.16894 0.242806 0
M  V30 4202 N 407.956 -0.998596 -1.21925 0
M  V30 4203 C 408.906 -0.524743 -2.21879 0
M  V30 4204 C 409.89 0.41017 -1.55584 0
M  V30 4205 O 411.082 0.236063 -1.75419 0
M  V30 4206 C 408.211 0.153636 -3.42956 0
M  V30 4207 C 407.297 -0.801918 -4.16449 0
M  V30 4208 N 407.688 -1.95211 -4.66611 0
M  V30 4209 C 405.986 -0.618972 -4.41684 0
M  V30 4210 C 406.687 -2.55234 -5.22715 0
M  V30 4211 N 405.663 -1.83451 -5.1171 0
M  V30 4212 H 409.465 -1.40189 -2.58311 0
M  V30 4213 H 406.979 -0.86159 -1.3766 0
M  V30 4214 H 408.976 0.510534 -4.13762 0
M  V30 4215 H 407.636 1.02684 -3.08036 0
M  V30 4216 H 408.647 -2.33271 -4.62391 0
M  V30 4217 H 405.324 0.207694 -4.16983 0
M  V30 4218 H 406.714 -3.52471 -5.72026 0
M  V30 4219 N 409.434 1.37368 -0.772513 0
M  V30 4220 C 410.682 1.99279 -0.336516 0
M  V30 4221 C 411.003 1.6163 1.09091 0
M  V30 4222 O 410.273 0.882109 1.74916 0
M  V30 4223 H 408.853 0.737063 -0.121435 0
M  V30 4224 H 411.515 1.67836 -0.990809 0
M  V30 4225 H 410.611 3.09332 -0.414763 0
M  V30 4226 N 410.912 0.523116 1.48665 0
M  V30 4227 C 412.16 -0.0134497 2.02096 0
M  V30 4228 C 412.481 -1.35418 1.40311 0
M  V30 4229 O 411.751 -1.87543 0.566074 0
M  V30 4230 H 410.331 -0.00795915 0.746958 0
M  V30 4231 H 412.993 0.685388 1.82451 0
M  V30 4232 H 412.089 -0.126849 3.11842 0
M  V30 4233 N 412.39 -1.55475 0.257931 0
M  V30 4234 C 413.638 -1.98813 -0.363009 0
M  V30 4235 C 413.959 -1.14757 -1.57657 0
M  V30 4236 O 413.229 -0.232956 -1.9451 0
M  V30 4237 H 411.809 -0.734308 -0.137113 0
M  V30 4238 H 414.471 -1.9156 0.359281 0
M  V30 4239 H 413.567 -3.04941 -0.664634 0
M  V30 4240 N 413.868 0.0150385 -1.57593 0
M  V30 4241 C 414.831 0.995996 -2.06428 0
M  V30 4242 C 415.831 1.2818 -0.970903 0
M  V30 4243 O 417.021 1.22949 -1.23406 0
M  V30 4244 C 414.153 2.32506 -2.49307 0
M  V30 4245 H 415.346 0.573873 -2.94358 0
M  V30 4246 H 412.899 0.262186 -1.54085 0
M  V30 4247 H 413.634 2.79438 -1.64575 0
M  V30 4248 H 413.419 2.13087 -3.29145 0
M  V30 4249 H 414.909 3.02906 -2.87468 0
M  V30 4250 N 415.346 1.54954 0.287554 0
M  V30 4251 C 416.593 1.74873 1.02106 0
M  V30 4252 C 416.921 0.541829 1.86801 0
M  V30 4253 O 416.176 -0.475992 1.89823 0
M  V30 4254 C 416.475 2.99833 1.94512 0
M  V30 4255 C 416.141 4.33029 1.25686 0
M  V30 4256 C 414.803 4.69233 1.06649 0
M  V30 4257 C 417.155 5.15542 0.765913 0
M  V30 4258 C 414.483 5.85518 0.372222 0
M  V30 4259 C 416.835 6.32542 0.0853101 0
M  V30 4260 C 415.499 6.67398 -0.1169 0
M  V30 4261 H 414.769 0.639906 0.373632 0
M  V30 4262 H 417.416 1.89219 0.294665 0
M  V30 4263 H 415.721 2.80325 2.73725 0
M  V30 4264 H 417.418 3.1244 2.51361 0
M  V30 4265 H 414.008 4.04564 1.41512 0
M  V30 4266 H 418.192 4.88059 0.90066 0
M  V30 4267 H 413.448 6.11057 0.204695 0
M  V30 4268 H 417.622 6.95741 -0.302936 0
M  V30 4269 H 415.249 7.57357 -0.656859 0
M  V30 4270 N 416.824 -0.551391 1.4764 0
M  V30 4271 C 418.049 -1.33837 1.58437 0
M  V30 4272 C 418.474 -1.866 0.237063 0
M  V30 4273 O 417.832 -1.6328 -0.787994 0
M  V30 4274 C 417.88 -2.48014 2.61766 0
M  V30 4275 O 416.984 -3.50419 2.1744 0
M  V30 4276 H 416.325 -0.397299 0.532024 0
M  V30 4277 H 418.855 -0.665759 1.93465 0
M  V30 4278 H 418.865 -2.94503 2.82369 0
M  V30 4279 H 417.54 -2.08969 3.5959 0
M  V30 4280 H 416.117 -3.10196 2.06961 0
M  V30 4281 N 418.302 -1.35869 -0.798587 0
M  V30 4282 C 419.55 -1.29332 -1.55298 0
M  V30 4283 C 419.871 0.129729 -1.94568 0
M  V30 4284 O 419.141 1.06796 -1.6423 0
M  V30 4285 H 417.721 -0.475737 -0.57592 0
M  V30 4286 H 420.383 -1.70062 -0.952093 0
M  V30 4287 H 419.479 -1.91458 -2.46476 0
M  V30 4288 N 419.78 1.02168 -1.19998 0
M  V30 4289 C 420.727 2.10601 -0.944228 0
M  V30 4290 C 421.697 1.65639 0.123664 0
M  V30 4291 O 422.882 1.9079 -0.0199941 0
M  V30 4292 C 420.022 3.41504 -0.496865 0
M  V30 4293 C 419.135 3.99973 -1.63234 0
M  V30 4294 C 418.27 5.18915 -1.13579 0
M  V30 4295 C 417.309 5.69456 -2.24468 0
M  V30 4296 N 416.446 6.79665 -1.76068 0
M  V30 4297 H 421.286 2.31814 -1.8726 0
M  V30 4298 H 418.823 1.13686 -0.933483 0
M  V30 4299 H 420.781 4.16626 -0.218843 0
M  V30 4300 H 419.411 3.2038 0.394508 0
M  V30 4301 H 418.463 3.21997 -2.0254 0
M  V30 4302 H 419.775 4.33492 -2.46752 0
M  V30 4303 H 418.929 6.01222 -0.813429 0
M  V30 4304 H 417.668 4.8695 -0.270434 0
M  V30 4305 H 416.673 4.85757 -2.57526 0
M  V30 4306 H 417.898 6.03459 -3.11472 0
M  V30 4307 H 415.844 6.49538 -0.918516 0
M  V30 4308 H 415.761 7.12349 -2.5317 0
M  V30 4309 H 417.029 7.65549 -1.46817 0
M  V30 4310 N 421.258 1.00505 1.21394 0
M  V30 4311 C 422.535 0.603277 1.86064 0
M  V30 4312 C 422.915 -0.919095 1.90042 0
M  V30 4313 O 422.263 -1.80607 1.39977 0
M  V30 4314 C 422.473 1.23772 3.26315 0
M  V30 4315 C 423.821 1.34586 4.02705 0
M  V30 4316 O 424.845 1.19304 3.35626 0
M  V30 4317 O 423.704 1.59169 5.22807 0
M  V30 4318 H 420.798 0.206634 0.800769 0
M  V30 4319 H 423.344 1.1017 1.29076 0
M  V30 4320 H 422.116 2.27848 3.18121 0
M  V30 4321 H 421.739 0.725648 3.90922 0
M  V30 4322 N 422.737 -1.36956 0.779787 0
M  V30 4323 C 423.967 -2.03459 0.358877 0
M  V30 4324 C 424.375 -1.58939 -1.02641 0
M  V30 4325 O 423.718 -0.769777 -1.66794 0
M  V30 4326 C 423.78 -3.5796 0.332393 0
M  V30 4327 C 423.444 -4.25644 1.66362 0
M  V30 4328 C 424.441 -4.49205 2.61746 0
M  V30 4329 C 422.126 -4.63313 1.94027 0
M  V30 4330 C 424.12 -5.09503 3.82996 0
M  V30 4331 C 421.807 -5.2333 3.15546 0
M  V30 4332 C 422.805 -5.46363 4.0985 0
M  V30 4333 O 422.493 -6.05122 5.29228 0
M  V30 4334 H 422.225 -0.659767 0.147254 0
M  V30 4335 H 424.779 -1.76111 1.05708 0
M  V30 4336 H 423.009 -3.84388 -0.422237 0
M  V30 4337 H 424.698 -4.05852 -0.0625389 0
M  V30 4338 H 425.464 -4.20508 2.41657 0
M  V30 4339 H 421.343 -4.44715 1.21448 0
M  V30 4340 H 424.887 -5.27397 4.56617 0
M  V30 4341 H 420.784 -5.51451 3.35517 0
M  V30 4342 H 421.552 -6.23595 5.30161 0
M  V30 4343 N 424.215 -0.530993 -1.48385 0
M  V30 4344 C 425.443 -0.00134122 -2.069 0
M  V30 4345 C 425.858 1.2805 -1.3874 0
M  V30 4346 O 425.215 1.76204 -0.475244 0
M  V30 4347 C 425.266 0.225256 -3.60798 0
M  V30 4348 O 424.987 -1.0058 -4.26398 0
M  V30 4349 C 426.488 0.795172 -4.3611 0
M  V30 4350 H 423.708 -0.0339704 -0.67014 0
M  V30 4351 H 426.252 -0.736926 -1.90761 0
M  V30 4352 H 424.407 0.910891 -3.76539 0
M  V30 4353 H 424.821 -0.787165 -5.1856 0
M  V30 4354 H 426.295 0.903143 -5.44562 0
M  V30 4355 H 426.772 1.80031 -4.00606 0
M  V30 4356 H 427.378 0.146069 -4.25049 0
M  V30 4357 N 425.693 1.55336 -0.266172 0
M  V30 4358 C 426.64 2.22172 0.625165 0
M  V30 4359 C 427.61 1.19211 1.15663 0
M  V30 4360 O 428.795 1.47723 1.20758 0
M  V30 4361 C 425.935 2.93972 1.8076 0
M  V30 4362 C 425.048 4.11632 1.31084 0
M  V30 4363 C 424.183 4.71099 2.45436 0
M  V30 4364 C 423.222 5.8097 1.92718 0
M  V30 4365 N 422.359 6.34538 3.00509 0
M  V30 4366 H 427.199 2.9796 0.0485582 0
M  V30 4367 H 424.736 1.47095 0.0122024 0
M  V30 4368 H 426.694 3.33811 2.50251 0
M  V30 4369 H 425.324 2.20623 2.35638 0
M  V30 4370 H 424.376 3.76975 0.509326 0
M  V30 4371 H 425.688 4.90893 0.884633 0
M  V30 4372 H 424.842 5.13612 3.22936 0
M  V30 4373 H 423.581 3.91096 2.91368 0
M  V30 4374 H 422.586 5.37916 1.13695 0
M  V30 4375 H 423.811 6.62836 1.47733 0
M  V30 4376 H 421.757 5.57433 3.45839 0
M  V30 4377 H 421.674 7.09046 2.62279 0
M  V30 4378 H 422.942 6.81709 3.78011 0
M  V30 4379 N 427.171 -0.0066808 1.57599 0
M  V30 4380 C 428.417 -0.693947 1.90558 0
M  V30 4381 C 428.75 -1.73792 0.866594 0
M  V30 4382 O 428.025 -1.94156 -0.115548 0
M  V30 4383 C 428.308 -1.34317 3.34112 0
M  V30 4384 C 428.161 -0.311189 4.48722 0
M  V30 4385 C 429.48 -2.27116 3.7697 0
M  V30 4386 H 426.599 -0.250803 0.693013 0
M  V30 4387 H 429.241 0.043242 1.89951 0
M  V30 4388 H 427.391 -1.9715 3.3476 0
M  V30 4389 H 429.063 0.316944 4.6021 0
M  V30 4390 H 427.306 0.367253 4.32243 0
M  V30 4391 H 427.977 -0.804366 5.46108 0
M  V30 4392 H 430.453 -1.74306 3.77831 0
M  V30 4393 H 429.329 -2.69511 4.78179 0
M  V30 4394 H 429.59 -3.14743 3.10466 0
M  V30 4395 N 428.649 -1.55105 -0.279332 0
M  V30 4396 C 429.926 -1.66119 -1.03267 0
M  V30 4397 C 430.306 -0.523525 -2.04505 0
M  V30 4398 O 429.654 0.477194 -2.23462 0
M  V30 4399 C 429.864 -3.05067 -1.69515 0
M  V30 4400 C 431.212 -3.62606 -2.20912 0
M  V30 4401 O 432.236 -3.07659 -1.79512 0
M  V30 4402 O 431.095 -4.58861 -2.96831 0
M  V30 4403 H 428.189 -0.674429 -0.478618 0
M  V30 4404 H 430.735 -1.67446 -0.275694 0
M  V30 4405 H 429.507 -3.79311 -0.9612 0
M  V30 4406 H 429.13 -3.07611 -2.51915 0
M  V30 4407 N 430.127 0.543554 -1.4793 0
M  V30 4408 C 431.543 0.870806 -1.3375 0
M  V30 4409 C 431.743 1.9864 -0.338261 0
M  V30 4410 O 430.799 2.51305 0.245371 0
M  V30 4411 C 432.112 1.25114 -2.73435 0
M  V30 4412 C 433.66 1.3618 -2.81823 0
M  V30 4413 C 434.135 1.77563 -4.22179 0
M  V30 4414 N 435.626 1.8469 -4.24787 0
M  V30 4415 C 436.361 2.18067 -5.30315 0
M  V30 4416 N 435.857 2.49963 -6.46135 0
M  V30 4417 N 437.65 2.18958 -5.17701 0
M  V30 4418 H 429.801 -0.19275 -2.11524 0
M  V30 4419 H 432.064 -0.0235777 -0.947707 0
M  V30 4420 H 431.77 0.50514 -3.48053 0
M  V30 4421 H 431.644 2.20431 -3.06088 0
M  V30 4422 H 434.031 2.09859 -2.07468 0
M  V30 4423 H 434.112 0.390169 -2.52807 0
M  V30 4424 H 433.756 1.04449 -4.97044 0
M  V30 4425 H 433.686 2.75753 -4.48629 0
M  V30 4426 H 436.177 1.62372 -3.41239 0
M  V30 4427 H 436.49 2.74497 -7.22406 0
M  V30 4428 H 434.835 2.47513 -6.49432 0
M  V30 4429 H 438.026 1.93488 -4.2624 0
M  V30 4430 H 438.199 2.44639 -6.00047 0
M  V30 4431 N 431.605 1.3629 0.791371 0
M  V30 4432 C 432.83 1.33726 1.58531 0
M  V30 4433 C 433.255 -0.0794933 1.87932 0
M  V30 4434 O 432.613 -1.05087 1.47738 0
M  V30 4435 C 432.661 2.16425 2.88431 0
M  V30 4436 O 431.765 1.5554 3.81944 0
M  V30 4437 H 431.106 0.457793 0.480959 0
M  V30 4438 H 433.636 1.79547 0.981031 0
M  V30 4439 H 433.646 2.28933 3.37718 0
M  V30 4440 H 432.321 3.19415 2.66359 0
M  V30 4441 H 430.898 1.51961 3.40532 0
M  V30 4442 N 433.083 -1.0153 1.20538 0
M  V30 4443 C 434.046 -2.0826 0.957098 0
M  V30 4444 C 435.046 -1.60657 -0.0678655 0
M  V30 4445 O 436.236 -1.73385 0.168332 0
M  V30 4446 C 433.368 -3.38033 0.441188 0
M  V30 4447 H 434.561 -2.31719 1.90384 0
M  V30 4448 H 432.114 -1.1835 1.02093 0
M  V30 4449 H 432.849 -3.20249 -0.510961 0
M  V30 4450 H 432.634 -3.73911 1.18038 0
M  V30 4451 H 434.124 -4.16613 0.287009 0
M  V30 4452 N 434.561 -1.01147 -1.20859 0
M  V30 4453 C 435.524 -0.582224 -2.21682 0
M  V30 4454 C 436.524 0.344887 -1.57058 0
M  V30 4455 O 437.714 0.134281 -1.73682 0
M  V30 4456 C 434.846 0.150496 -3.40568 0
M  V30 4457 H 436.039 -1.47408 -2.61172 0
M  V30 4458 H 433.592 -0.800695 -1.34233 0
M  V30 4459 H 434.327 1.0575 -3.06574 0
M  V30 4460 H 434.112 -0.515444 -3.88697 0
M  V30 4461 H 435.602 0.438344 -4.15293 0
M  V30 4462 N 436.039 1.36541 -0.78704 0
M  V30 4463 C 437.269 2.03266 -0.369662 0
M  V30 4464 C 437.677 1.59481 1.01796 0
M  V30 4465 O 437.02 0.778612 1.66383 0
M  V30 4466 C 437.082 3.57779 -0.351371 0
M  V30 4467 C 436.746 4.24756 -1.68617 0
M  V30 4468 C 437.743 4.47811 -2.64124 0
M  V30 4469 C 435.428 4.62277 -1.96481 0
M  V30 4470 C 437.422 5.07464 -3.85693 0
M  V30 4471 C 435.109 5.21649 -3.18317 0
M  V30 4472 C 436.107 5.44182 -4.12741 0
M  V30 4473 O 435.795 6.02307 -5.32429 0
M  V30 4474 H 435.527 0.658977 -0.150751 0
M  V30 4475 H 438.081 1.75548 -1.0664 0
M  V30 4476 H 436.311 3.84606 0.401847 0
M  V30 4477 H 438 4.05879 0.0410147 0
M  V30 4478 H 438.766 4.19221 -2.43883 0
M  V30 4479 H 434.645 4.44065 -1.23805 0
M  V30 4480 H 438.189 5.24968 -4.59407 0
M  V30 4481 H 434.086 5.49664 -3.38437 0
M  V30 4482 H 434.854 6.20775 -5.33461 0
M  V30 4483 N 437.518 0.538854 1.48102 0
M  V30 4484 C 438.481 -0.208395 2.28251 0
M  V30 4485 C 439.481 -0.859656 1.35892 0
M  V30 4486 O 440.671 -0.71834 1.58699 0
M  V30 4487 C 437.803 -1.30252 3.15035 0
M  V30 4488 H 438.996 0.495407 2.9578 0
M  V30 4489 H 436.549 0.295112 1.53489 0
M  V30 4490 H 437.284 -2.0393 2.52157 0
M  V30 4491 H 437.069 -0.840551 3.82985 0
M  V30 4492 H 438.559 -1.82787 3.75471 0
M  V30 4493 N 438.996 -1.55193 0.274407 0
M  V30 4494 C 439.959 -2.212 -0.600279 0
M  V30 4495 C 440.959 -1.18963 -1.08187 0
M  V30 4496 O 442.149 -1.43873 -0.982158 0
M  V30 4497 C 439.281 -2.87739 -1.82809 0
M  V30 4498 H 440.474 -2.9989 -0.0239682 0
M  V30 4499 H 438.027 -1.5628 0.0250192 0
M  V30 4500 H 438.762 -2.13058 -2.44493 0
M  V30 4501 H 438.547 -3.62658 -1.49069 0
M  V30 4502 H 440.037 -3.38171 -2.45011 0
M  V30 4503 N 440.474 -0.00167713 -1.576 0
M  V30 4504 C 441.89 0.354422 -1.55615 0
M  V30 4505 C 442.09 1.74679 -1.00447 0
M  V30 4506 O 441.146 2.4428 -0.639022 0
M  V30 4507 C 442.459 0.22812 -2.99833 0
M  V30 4508 C 444.007 0.302934 -3.11531 0
M  V30 4509 C 444.482 0.205737 -4.57538 0
M  V30 4510 N 445.973 0.263584 -4.62449 0
M  V30 4511 C 446.708 0.211742 -5.73009 0
M  V30 4512 N 446.204 0.110399 -6.92712 0
M  V30 4513 N 447.997 0.263729 -5.61481 0
M  V30 4514 H 440.148 -0.912498 -1.918 0
M  V30 4515 H 442.411 -0.349928 -0.881053 0
M  V30 4516 H 442.117 -0.729934 -3.44042 0
M  V30 4517 H 441.991 1.00951 -3.6344 0
M  V30 4518 H 444.378 1.25143 -2.67251 0
M  V30 4519 H 444.459 -0.508357 -2.50698 0
M  V30 4520 H 444.103 -0.739225 -5.02492 0
M  V30 4521 H 444.033 1.03554 -5.16318 0
M  V30 4522 H 446.524 0.343173 -3.76339 0
M  V30 4523 H 446.837 0.0767828 -7.72762 0
M  V30 4524 H 445.182 0.0760025 -6.94958 0
M  V30 4525 H 448.373 0.34111 -4.66855 0
M  V30 4526 H 448.546 0.219862 -6.47627 0
M  V30 4527 N 441.952 1.55251 0.271103 0
M  V30 4528 C 443.198 1.7713 0.999832 0
M  V30 4529 C 443.553 0.56659 1.83868 0
M  V30 4530 O 442.846 -0.44069 1.86463 0
M  V30 4531 C 443.04 3.01879 1.91321 0
M  V30 4532 C 442.869 4.34368 1.16426 0
M  V30 4533 C 441.639 4.97593 0.879169 0
M  V30 4534 C 443.837 5.1131 0.553749 0
M  V30 4535 N 441.819 6.13813 0.103618 0
M  V30 4536 C 443.19 6.19938 -0.0875442 0
M  V30 4537 C 445.245 4.95754 0.461782 0
M  V30 4538 C 443.948 7.14703 -0.811942 0
M  V30 4539 C 445.974 5.90875 -0.249027 0
M  V30 4540 C 445.336 6.98893 -0.879051 0
M  V30 4541 H 441.435 0.700407 0.347784 0
M  V30 4542 H 444.019 1.92744 0.275314 0
M  V30 4543 H 442.19 2.87637 2.60997 0
M  V30 4544 H 443.922 3.12154 2.57569 0
M  V30 4545 H 440.677 4.58538 1.18491 0
M  V30 4546 H 441.101 6.76455 -0.271543 0
M  V30 4547 H 445.743 4.12342 0.934552 0
M  V30 4548 H 443.461 7.97634 -1.29639 0
M  V30 4549 H 447.047 5.80916 -0.320529 0
M  V30 4550 H 445.927 7.71231 -1.42031 0
M  V30 4551 N 443.43 -0.535701 1.48216 0
M  V30 4552 C 444.676 -1.29375 1.56173 0
M  V30 4553 C 445.009 -1.92804 0.232429 0
M  V30 4554 O 444.284 -1.78992 -0.761048 0
M  V30 4555 C 444.567 -2.38747 2.69577 0
M  V30 4556 C 444.42 -1.80046 4.12193 0
M  V30 4557 C 445.739 -3.40551 2.78771 0
M  V30 4558 H 442.858 -0.469027 0.568491 0
M  V30 4559 H 445.5 -0.597358 1.80365 0
M  V30 4560 H 443.65 -2.98147 2.4908 0
M  V30 4561 H 445.322 -1.24742 4.44114 0
M  V30 4562 H 443.565 -1.10609 4.19462 0
M  V30 4563 H 444.236 -2.59212 4.87353 0
M  V30 4564 H 446.712 -2.91099 2.97322 0
M  V30 4565 H 445.588 -4.1448 3.59857 0
M  V30 4566 H 445.849 -4.00746 1.86696 0
M  V30 4567 N 444.908 -1.36708 -0.784132 0
M  V30 4568 C 445.871 -1.31307 -1.87859 0
M  V30 4569 C 446.871 -0.219654 -1.59293 0
M  V30 4570 O 448.061 -0.47476 -1.67606 0
M  V30 4571 C 445.193 -1.03679 -3.24751 0
M  V30 4572 H 446.386 -2.28647 -1.94064 0
M  V30 4573 H 443.939 -1.21558 -0.98252 0
M  V30 4574 H 444.674 -0.0681936 -3.24228 0
M  V30 4575 H 444.459 -1.82811 -3.46876 0
M  V30 4576 H 445.949 -1.02518 -4.04821 0
M  V30 4577 N 446.386 1.0089 -1.21074 0
M  V30 4578 C 447.333 2.09588 -0.966512 0
M  V30 4579 C 448.303 1.65761 0.106089 0
M  V30 4580 O 449.488 1.90758 -0.0402287 0
M  V30 4581 C 446.628 3.40958 -0.533058 0
M  V30 4582 C 445.741 3.9822 -1.67467 0
M  V30 4583 C 444.876 5.17682 -1.19076 0
M  V30 4584 C 443.915 5.67043 -2.30496 0
M  V30 4585 N 443.052 6.77759 -1.83267 0
M  V30 4586 H 447.892 2.29815 -1.89708 0
M  V30 4587 H 445.429 1.12689 -0.945489 0
M  V30 4588 H 447.387 4.1637 -0.263019 0
M  V30 4589 H 446.017 3.20781 0.360505 0
M  V30 4590 H 445.069 3.1983 -2.05944 0
M  V30 4591 H 446.381 4.3085 -2.51336 0
M  V30 4592 H 445.535 6.00326 -0.877151 0
M  V30 4593 H 444.274 4.86635 -0.322066 0
M  V30 4594 H 443.279 4.82999 -2.62664 0
M  V30 4595 H 444.504 6.00121 -3.17855 0
M  V30 4596 H 442.45 6.48527 -0.987356 0
M  V30 4597 H 442.367 7.09624 -2.60711 0
M  V30 4598 H 443.635 7.63949 -1.54928 0
M  V30 4599 N 447.864 1.01787 1.20321 0
M  V30 4600 C 449.089 0.727009 1.9424 0
M  V30 4601 C 449.514 -0.706179 1.74341 0
M  V30 4602 O 448.872 -1.48609 1.03852 0
M  V30 4603 C 448.92 1.06958 3.44372 0
M  V30 4604 O 448.024 0.181983 4.11998 0
M  V30 4605 H 447.365 0.269626 0.606793 0
M  V30 4606 H 449.895 1.36158 1.52716 0
M  V30 4607 H 449.905 1.02182 3.94997 0
M  V30 4608 H 448.58 2.11378 3.58179 0
M  V30 4609 H 447.157 0.287378 3.71791 0
M  V30 4610 N 449.342 -1.36122 0.79427 0
M  V30 4611 C 450.272 -2.32551 0.210328 0
M  V30 4612 C 451.253 -1.56884 -0.657386 0
M  V30 4613 O 452.438 -1.85014 -0.590207 0
M  V30 4614 C 449.568 -3.41128 -0.651819 0
M  V30 4615 C 448.522 -4.27842 0.116395 0
M  V30 4616 C 447.848 -5.2763 -0.86666 0
M  V30 4617 C 449.148 -5.05647 1.30837 0
M  V30 4618 H 450.842 -2.81636 1.01594 0
M  V30 4619 H 448.388 -1.35407 0.489981 0
M  V30 4620 H 450.341 -4.07581 -1.07031 0
M  V30 4621 H 449.065 -2.90622 -1.49019 0
M  V30 4622 H 447.724 -3.62952 0.515915 0
M  V30 4623 H 447.372 -4.73395 -1.70019 0
M  V30 4624 H 447.072 -5.86514 -0.35705 0
M  V30 4625 H 448.596 -5.96955 -1.28361 0
M  V30 4626 H 450.01 -5.65113 0.965393 0
M  V30 4627 H 448.407 -5.73967 1.75161 0
M  V30 4628 H 449.477 -4.37006 2.10128 0
M  V30 4629 N 450.82 -0.546701 -1.47814 0
M  V30 4630 C 452.066 -0.0187684 -2.02791 0
M  V30 4631 C 452.399 1.32338 -1.42128 0
M  V30 4632 O 451.674 1.85867 -0.573023 0
M  V30 4633 C 451.957 0.0854985 -3.59998 0
M  V30 4634 C 451.81 -1.283 -4.31114 0
M  V30 4635 C 453.129 0.80412 -4.32691 0
M  V30 4636 H 450.248 -0.0082946 -0.736953 0
M  V30 4637 H 452.89 -0.706962 -1.76358 0
M  V30 4638 H 451.04 0.671609 -3.82651 0
M  V30 4639 H 452.712 -1.91151 -4.19832 0
M  V30 4640 H 450.955 -1.86049 -3.91878 0
M  V30 4641 H 451.626 -1.16287 -5.39612 0
M  V30 4642 H 454.102 0.306576 -4.14969 0
M  V30 4643 H 452.978 0.846011 -5.42341 0
M  V30 4644 H 453.239 1.85802 -4.01161 0
M  V30 4645 N 452.299 1.55045 -0.282633 0
M  V30 4646 C 453.246 2.22822 0.601566 0
M  V30 4647 C 454.216 1.20431 1.14392 0
M  V30 4648 O 455.401 1.48996 1.19184 0
M  V30 4649 C 452.541 2.95873 1.77632 0
M  V30 4650 C 451.654 4.12999 1.26711 0
M  V30 4651 C 450.789 4.73676 2.40426 0
M  V30 4652 C 449.828 5.82981 1.86545 0
M  V30 4653 N 448.965 6.3769 2.93762 0
M  V30 4654 H 453.805 2.97995 0.0169528 0
M  V30 4655 H 451.342 1.471 -0.00339964 0
M  V30 4656 H 453.3 3.36447 2.46697 0
M  V30 4657 H 451.93 2.2311 2.33285 0
M  V30 4658 H 450.982 3.77494 0.469314 0
M  V30 4659 H 452.294 4.91803 0.832518 0
M  V30 4660 H 451.448 5.17008 3.17471 0
M  V30 4661 H 450.187 3.94164 2.87203 0
M  V30 4662 H 449.192 5.39092 1.07983 0
M  V30 4663 H 450.417 6.64366 1.40694 0
M  V30 4664 H 448.363 5.61069 3.39908 0
M  V30 4665 H 448.28 7.11788 2.54744 0
M  V30 4666 H 449.548 6.8568 3.7076 0
M  V30 4667 N 453.777 0.010035 1.57597 0
M  V30 4668 C 454.74 -0.963029 2.07986 0
M  V30 4669 C 455.74 -1.26619 0.991173 0
M  V30 4670 O 456.93 -1.2097 1.25347 0
M  V30 4671 C 454.062 -2.2851 2.52974 0
M  V30 4672 H 455.255 -0.526971 2.95234 0
M  V30 4673 H 452.808 -0.237639 1.54483 0
M  V30 4674 H 453.543 -2.76784 1.69 0
M  V30 4675 H 453.328 -2.07824 3.32493 0
M  V30 4676 H 454.818 -2.98294 2.9225 0
M  V30 4677 N 455.255 -1.55392 -0.262866 0
M  V30 4678 C 456.503 -1.76127 -0.991147 0
M  V30 4679 C 456.824 -0.571083 -1.8645 0
M  V30 4680 O 456.094 0.413698 -1.91482 0
M  V30 4681 H 454.674 -0.649528 -0.368948 0
M  V30 4682 H 457.336 -1.9281 -0.284655 0
M  V30 4683 H 456.432 -2.6663 -1.62219 0
M  V30 4684 N 456.733 0.527833 -1.48498 0
M  V30 4685 C 457.663 1.64136 -1.66077 0
M  V30 4686 C 458.644 1.62286 -0.509625 0
M  V30 4687 O 459.829 1.79449 -0.742413 0
M  V30 4688 C 456.959 3.02717 -1.70234 0
M  V30 4689 C 455.913 3.19426 -2.8487 0
M  V30 4690 C 455.239 4.5909 -2.74118 0
M  V30 4691 C 456.539 3.01993 -4.26142 0
M  V30 4692 H 458.233 1.4968 -2.593 0
M  V30 4693 H 455.779 0.718654 -1.24785 0
M  V30 4694 H 457.732 3.80491 -1.8112 0
M  V30 4695 H 456.456 3.18201 -0.735911 0
M  V30 4696 H 455.115 2.4407 -2.73542 0
M  V30 4697 H 454.763 4.71413 -1.7544 0
M  V30 4698 H 454.463 4.71214 -3.51042 0
M  V30 4699 H 455.987 5.3896 -2.86974 0
M  V30 4700 H 457.401 3.69558 -4.38292 0
M  V30 4701 H 455.798 3.2561 -5.04082 0
M  V30 4702 H 456.868 1.98396 -4.42456 0
M  V30 4703 N 458.211 1.37122 0.776871 0
M  V30 4704 C 459.451 1.33441 1.54831 0
M  V30 4705 C 459.815 -0.0818963 1.91825 0
M  V30 4706 O 461.016 -0.24338 2.67696 0
M  V30 4707 C 459.287 2.24267 2.78279 0
M  V30 4708 S 460.846 2.38389 3.68397 0
M  V30 4709 H 457.664 0.473791 0.530135 0
M  V30 4710 H 460.266 1.7282 0.913968 0
M  V30 4711 H 458.97 3.261 2.49173 0
M  V30 4712 H 458.501 1.85953 3.46677 0
M  V30 4713 H 460.516 1.59068 4.70013 0
M  V30 4714 N 459.689 -1.00246 1.21608 0
M  V30 4715 C 461.105 -1.26435 0.973975 0
M  V30 4716 C 461.305 -1.98642 -0.338143 0
M  V30 4717 O 460.361 -2.29026 -1.06317 0
M  V30 4718 C 461.674 -2.08551 2.16626 0
M  V30 4719 C 463.222 -2.21769 2.20879 0
M  V30 4720 C 463.697 -3.07267 3.39633 0
M  V30 4721 N 465.188 -3.14855 3.39736 0
M  V30 4722 C 465.923 -3.81274 4.28273 0
M  V30 4723 N 465.419 -4.497 5.27012 0
M  V30 4724 N 467.212 -3.7794 4.16074 0
M  V30 4725 H 459.363 -0.518089 2.05984 0
M  V30 4726 H 461.626 -0.291368 0.902113 0
M  V30 4727 H 461.332 -1.62847 3.11727 0
M  V30 4728 H 461.206 -3.09303 2.15897 0
M  V30 4729 H 463.593 -2.66691 1.26332 0
M  V30 4730 H 463.674 -1.20478 2.25652 0
M  V30 4731 H 463.318 -2.63047 4.34475 0
M  V30 4732 H 463.248 -4.08678 3.321 0
M  V30 4733 H 465.739 -2.66147 2.6828 0
M  V30 4734 H 466.052 -4.98092 5.90867 0
M  V30 4735 H 464.397 -4.48479 5.30935 0
M  V30 4736 H 467.588 -3.23638 3.38195 0
M  V30 4737 H 467.761 -4.29424 4.85282 0
M  V30 4738 N 461.167 -1.02423 -1.1978 0
M  V30 4739 C 462.583 -0.740459 -1.41384 0
M  V30 4740 C 462.783 0.676827 -1.89793 0
M  V30 4741 O 461.839 1.4435 -2.0717 0
M  V30 4742 C 463.152 -1.77264 -2.42895 0
M  V30 4743 C 464.7 -1.79165 -2.56649 0
M  V30 4744 C 465.175 -2.8133 -3.6141 0
M  V30 4745 N 466.666 -2.80118 -3.68901 0
M  V30 4746 C 467.401 -3.55824 -4.49641 0
M  V30 4747 N 466.897 -4.41231 -5.34123 0
M  V30 4748 N 468.69 -3.44387 -4.44246 0
M  V30 4749 H 460.841 -1.9391 -0.866764 0
M  V30 4750 H 463.104 -0.838074 -0.443098 0
M  V30 4751 H 462.81 -2.7884 -2.14339 0
M  V30 4752 H 462.684 -1.59108 -3.42001 0
M  V30 4753 H 465.071 -0.782702 -2.84531 0
M  V30 4754 H 465.152 -2.01396 -1.57713 0
M  V30 4755 H 464.796 -3.82394 -3.34271 0
M  V30 4756 H 464.726 -2.56359 -4.59986 0
M  V30 4757 H 467.217 -2.1817 -3.08562 0
M  V30 4758 H 467.53 -4.95747 -5.92836 0
M  V30 4759 H 465.875 -4.45306 -5.33599 0
M  V30 4760 H 469.066 -2.7708 -3.77285 0
M  V30 4761 H 469.239 -4.0364 -5.06931 0
M  V30 4762 N 462.645 1.35699 -0.801477 0
M  V30 4763 C 463.891 1.99208 -0.380022 0
M  V30 4764 C 464.224 1.63445 1.04878 0
M  V30 4765 O 463.499 0.895223 1.72673 0
M  V30 4766 C 463.782 3.55755 -0.557708 0
M  V30 4767 C 463.635 4.01332 -2.03107 0
M  V30 4768 C 464.954 4.40096 0.0197968 0
M  V30 4769 H 462.073 0.723667 -0.139552 0
M  V30 4770 H 464.715 1.60928 -1.01006 0
M  V30 4771 H 462.865 3.88494 -0.0213741 0
M  V30 4772 H 464.537 3.79026 -2.62939 0
M  V30 4773 H 462.78 3.52429 -2.52936 0
M  V30 4774 H 463.451 5.10234 -2.1063 0
M  V30 4775 H 465.927 4.13786 -0.438179 0
M  V30 4776 H 464.803 5.48735 -0.134477 0
M  V30 4777 H 465.064 4.2786 1.11303 0
M  V30 4778 N 464.123 0.554532 1.47522 0
M  V30 4779 C 465.053 -0.182974 2.32782 0
M  V30 4780 C 466.034 -0.911377 1.43624 0
M  V30 4781 O 467.219 -0.892366 1.72483 0
M  V30 4782 C 464.349 -1.21513 3.25349 0
M  V30 4783 C 463.303 -0.603355 4.23726 0
M  V30 4784 C 462.629 -1.73995 5.05598 0
M  V30 4785 C 463.929 0.441121 5.20434 0
M  V30 4786 H 465.623 0.52882 2.94693 0
M  V30 4787 H 463.169 0.255759 1.41711 0
M  V30 4788 H 465.122 -1.73922 3.83835 0
M  V30 4789 H 463.846 -1.95683 2.61487 0
M  V30 4790 H 462.505 -0.10059 3.66462 0
M  V30 4791 H 462.153 -2.47063 4.38143 0
M  V30 4792 H 461.853 -1.3364 5.72201 0
M  V30 4793 H 463.377 -2.26735 5.66942 0
M  V30 4794 H 464.791 0.00319931 5.733 0
M  V30 4795 H 463.188 0.763402 5.95224 0
M  V30 4796 H 464.258 1.33799 4.66075 0
M  V30 4797 N 465.601 -1.54893 0.290851 0
M  V30 4798 C 466.847 -2.0023 -0.321867 0
M  V30 4799 C 467.18 -1.179 -1.54316 0
M  V30 4800 O 466.455 -0.25293 -1.92848 0
M  V30 4801 C 466.738 -3.53456 -0.688515 0
M  V30 4802 C 466.591 -4.46532 0.541209 0
M  V30 4803 C 467.91 -4.13057 -1.51895 0
M  V30 4804 H 465.029 -0.727891 -0.115515 0
M  V30 4805 H 467.671 -1.85722 0.400931 0
M  V30 4806 H 465.821 -3.6595 -1.30433 0
M  V30 4807 H 467.493 -4.4596 1.17973 0
M  V30 4808 H 465.736 -4.17545 1.17636 0
M  V30 4809 H 466.407 -5.51475 0.240675 0
M  V30 4810 H 468.883 -4.03937 -0.99872 0
M  V30 4811 H 467.759 -5.20448 -1.74429 0
M  V30 4812 H 468.02 -3.64284 -2.50498 0
M  V30 4813 N 467.08 -0.0183926 -1.57589 0
M  V30 4814 C 468.012 0.995557 -2.06449 0
M  V30 4815 C 469.025 1.29556 -0.985849 0
M  V30 4816 O 470.214 1.2621 -1.26227 0
M  V30 4817 C 467.314 2.32572 -2.46502 0
M  V30 4818 C 466.487 2.21245 -3.77319 0
M  V30 4819 C 465.546 3.37104 -4.04039 0
M  V30 4820 O 464.572 3.14468 -4.74445 0
M  V30 4821 N 465.774 4.60553 -3.53372 0
M  V30 4822 H 468.539 0.578746 -2.94059 0
M  V30 4823 H 466.1 0.168603 -1.6102 0
M  V30 4824 H 468.092 3.08887 -2.61478 0
M  V30 4825 H 466.662 2.65931 -1.64315 0
M  V30 4826 H 465.882 1.29723 -3.72244 0
M  V30 4827 H 467.17 2.10868 -4.63047 0
M  V30 4828 H 466.568 4.81839 -2.96391 0
M  V30 4829 H 465.125 5.34072 -3.73644 0
M  V30 4830 N 468.558 1.5553 0.254621 0
M  V30 4831 C 469.804 1.77262 0.985193 0
M  V30 4832 C 470.137 0.582286 1.85265 0
M  V30 4833 O 469.412 -0.419666 1.89919 0
M  V30 4834 C 469.695 3.0881 1.85225 0
M  V30 4835 C 469.548 4.38233 1.0135 0
M  V30 4836 C 470.867 3.3653 2.83612 0
M  V30 4837 H 467.986 0.644906 0.356742 0
M  V30 4838 H 470.628 1.88264 0.256236 0
M  V30 4839 H 468.778 2.99562 2.47376 0
M  V30 4840 H 470.45 4.59463 0.411269 0
M  V30 4841 H 468.693 4.32636 0.317574 0
M  V30 4842 H 469.364 5.26644 1.65379 0
M  V30 4843 H 471.84 3.45691 2.31596 0
M  V30 4844 H 470.716 4.29805 3.41407 0
M  V30 4845 H 470.977 2.57064 3.59681 0
M  V30 4846 N 470.036 -0.519951 1.48776 0
M  V30 4847 C 471.261 -1.30447 1.6124 0
M  V30 4848 C 471.686 -1.86055 0.276591 0
M  V30 4849 O 471.044 -1.64915 -0.753183 0
M  V30 4850 C 471.092 -2.42406 2.66967 0
M  V30 4851 O 470.196 -3.45728 2.24824 0
M  V30 4852 H 469.537 -0.385924 0.540332 0
M  V30 4853 H 472.067 -0.624572 1.94834 0
M  V30 4854 H 472.077 -2.88447 2.88552 0
M  V30 4855 H 470.752 -2.01294 3.63941 0
M  V30 4856 H 469.329 -3.05737 2.13494 0
M  V30 4857 N 471.514 -1.37532 -0.769588 0
M  V30 4858 C 472.744 -1.35861 -1.55645 0
M  V30 4859 C 473.152 0.0574398 -1.89113 0
M  V30 4860 O 472.495 1.03021 -1.52093 0
M  V30 4861 C 472.557 -2.13431 -2.89288 0
M  V30 4862 C 472.221 -3.62378 -2.78444 0
M  V30 4863 C 473.218 -4.56215 -2.49326 0
M  V30 4864 C 470.903 -4.05529 -2.96398 0
M  V30 4865 C 472.897 -5.91181 -2.38294 0
M  V30 4866 C 470.584 -5.40579 -2.84987 0
M  V30 4867 C 471.582 -6.33218 -2.55975 0
M  V30 4868 O 471.27 -7.65787 -2.44594 0
M  V30 4869 H 471.002 -0.467001 -0.48876 0
M  V30 4870 H 473.556 -1.81505 -0.961515 0
M  V30 4871 H 471.786 -1.62481 -3.50909 0
M  V30 4872 H 473.475 -2.04368 -3.50697 0
M  V30 4873 H 474.241 -4.24187 -2.35139 0
M  V30 4874 H 470.12 -3.33781 -3.1798 0
M  V30 4875 H 473.664 -6.63457 -2.15571 0
M  V30 4876 H 469.561 -5.72209 -2.98743 0
M  V30 4877 H 470.329 -7.76132 -2.59927 0
M  V30 4878 N 472.992 0.995999 -1.22138 0
M  V30 4879 C 473.955 2.06711 -0.990109 0
M  V30 4880 C 474.955 1.60744 0.0422978 0
M  V30 4881 O 476.145 1.73095 -0.195895 0
M  V30 4882 C 473.277 3.37288 -0.49491 0
M  V30 4883 H 474.47 2.28661 -1.94047 0
M  V30 4884 H 472.023 1.16711 -1.03963 0
M  V30 4885 H 472.758 3.21022 0.459948 0
M  V30 4886 H 472.543 3.71986 -1.23971 0
M  V30 4887 H 474.033 4.16103 -0.353253 0
M  V30 4888 N 474.47 1.03057 1.19235 0
M  V30 4889 C 475.719 0.72326 1.88287 0
M  V30 4890 C 476.032 -0.751333 1.80594 0
M  V30 4891 O 477.238 -1.17176 2.44912 0
M  V30 4892 C 475.694 1.24338 3.3774 0
M  V30 4893 C 475.302 2.74587 3.53986 0
M  V30 4894 C 477.046 1.01213 4.12257 0
M  V30 4895 C 474.953 3.20009 4.97341 0
M  V30 4896 H 473.883 0.266848 0.705201 0
M  V30 4897 H 476.534 1.24509 1.34795 0
M  V30 4898 H 474.916 0.649457 3.90638 0
M  V30 4899 H 476.09 3.39649 3.11408 0
M  V30 4900 H 474.405 2.9601 2.9286 0
M  V30 4901 H 477.002 1.32675 5.17978 0
M  V30 4902 H 477.345 -0.051001 4.16269 0
M  V30 4903 H 477.878 1.57014 3.65501 0
M  V30 4904 H 474.617 4.25659 4.98493 0
M  V30 4905 H 474.137 2.59676 5.40674 0
M  V30 4906 H 475.816 3.13447 5.66003 0
M  V30 4907 N 475.948 -1.35272 0.808662 0
M  V30 4908 C 477.196 -1.98316 0.389233 0
M  V30 4909 C 477.517 -1.64465 -1.04767 0
M  V30 4910 O 476.787 -0.928175 -1.72516 0
M  V30 4911 H 475.367 -0.733585 0.140935 0
M  V30 4912 H 478.029 -1.6515 1.03496 0
M  V30 4913 H 477.125 -3.08123 0.496631 0
M  V30 4914 N 477.426 -0.562348 -1.47226 0
M  V30 4915 C 478.672 -0.0402761 -2.0276 0
M  V30 4916 C 479.005 1.30823 -1.43523 0
M  V30 4917 O 478.28 1.85249 -0.592705 0
M  V30 4918 C 478.563 0.047311 -3.60069 0
M  V30 4919 C 478.416 -1.32865 -4.29729 0
M  V30 4920 C 479.735 0.758182 -4.3352 0
M  V30 4921 H 476.854 -0.0161105 -0.736824 0
M  V30 4922 H 479.496 -0.725628 -1.75598 0
M  V30 4923 H 477.646 0.630986 -3.83342 0
M  V30 4924 H 479.318 -1.95593 -4.17781 0
M  V30 4925 H 477.561 -1.90195 -3.89882 0
M  V30 4926 H 478.232 -1.22004 -5.38349 0
M  V30 4927 H 480.708 0.262546 -4.15271 0
M  V30 4928 H 479.584 0.78844 -5.43208 0
M  V30 4929 H 479.845 1.81537 -4.03109 0
M  V30 4930 N 478.904 1.54736 -0.299062 0
M  V30 4931 C 479.867 2.22127 0.565012 0
M  V30 4932 C 480.867 1.20669 1.06281 0
M  V30 4933 O 482.057 1.45417 0.959145 0
M  V30 4934 C 479.189 2.90611 1.78208 0
M  V30 4935 H 480.382 2.99891 -0.0237448 0
M  V30 4936 H 477.935 1.5622 -0.0498788 0
M  V30 4937 H 478.67 2.16921 2.41072 0
M  V30 4938 H 478.455 3.64984 1.43281 0
M  V30 4939 H 479.945 3.42026 2.396 0
M  V30 4940 N 480.382 0.0267497 1.57577 0
M  V30 4941 C 481.292 -0.971633 2.13533 0
M  V30 4942 C 482.308 -1.35868 1.08701 0
M  V30 4943 O 483.484 -1.44058 1.40746 0
M  V30 4944 C 480.549 -2.23622 2.64941 0
M  V30 4945 C 479.61 -1.90982 3.8448 0
M  V30 4946 C 478.843 -3.11411 4.33427 0
M  V30 4947 O 479.066 -4.23992 3.81558 0
M  V30 4948 O 478 -2.93848 5.25297 0
M  V30 4949 H 481.826 -0.525853 2.99113 0
M  V30 4950 H 479.411 -0.193712 1.48139 0
M  V30 4951 H 481.293 -2.97864 2.98086 0
M  V30 4952 H 479.968 -2.67386 1.82446 0
M  V30 4953 H 478.875 -1.14132 3.56265 0
M  V30 4954 H 480.208 -1.52036 4.6813 0
M  V30 4955 N 481.861 -1.55662 -0.24637 0
M  V30 4956 C 483.272 -1.67953 -0.81539 0
M  V30 4957 C 483.623 -0.624302 -1.86002 0
M  V30 4958 O 482.748 0.229328 -2.15181 0
M  V30 4959 C 483.343 -3.04484 -1.48576 0
M  V30 4960 C 481.902 -3.18713 -2.00248 0
M  V30 4961 C 481.049 -2.6383 -0.853766 0
M  V30 4962 H 484 -1.58685 -0.0221692 0
M  V30 4963 H 484.021 -2.98959 -2.3538 0
M  V30 4964 H 483.533 -3.81264 -0.725222 0
M  V30 4965 H 481.634 -2.46757 -2.79181 0
M  V30 4966 H 481.747 -4.25628 -2.1995 0
M  V30 4967 H 480.111 -2.21667 -1.25442 0
M  V30 4968 H 480.894 -3.43135 -0.106302 0
M  V30 4969 N 483.339 0.512053 -1.4905 0
M  V30 4970 C 484.269 1.62365 -1.67809 0
M  V30 4971 C 485.25 1.61737 -0.526809 0
M  V30 4972 O 486.435 1.78651 -0.761404 0
M  V30 4973 C 483.565 3.00895 -1.73435 0
M  V30 4974 C 482.519 3.16387 -2.88242 0
M  V30 4975 C 481.845 4.56157 -2.78971 0
M  V30 4976 C 483.145 2.97457 -4.29321 0
M  V30 4977 H 484.839 1.46921 -2.60873 0
M  V30 4978 H 482.385 0.705379 -1.2554 0
M  V30 4979 H 484.338 3.78549 -1.85145 0
M  V30 4980 H 483.062 3.17403 -0.769619 0
M  V30 4981 H 481.721 2.41155 -2.76116 0
M  V30 4982 H 481.369 4.69525 -1.8043 0
M  V30 4983 H 481.069 4.67465 -3.5602 0
M  V30 4984 H 482.593 5.35886 -2.92675 0
M  V30 4985 H 484.007 3.64888 -4.42187 0
M  V30 4986 H 482.404 3.20245 -5.07507 0
M  V30 4987 H 483.474 1.93692 -4.44535 0
M  V30 4988 N 484.817 1.37938 0.762283 0
M  V30 4989 C 486.042 1.37059 1.55659 0
M  V30 4990 C 486.467 -0.0396123 1.88058 0
M  V30 4991 O 485.825 -1.01929 1.49934 0
M  V30 4992 C 485.873 2.22494 2.83776 0
M  V30 4993 O 484.977 1.63607 3.78559 0
M  V30 4994 H 484.318 0.467892 0.47114 0
M  V30 4995 H 486.848 1.81587 0.942725 0
M  V30 4996 H 486.858 2.36045 3.32786 0
M  V30 4997 H 485.533 3.24993 2.59524 0
M  V30 4998 H 484.11 1.5915 3.37233 0
M  V30 4999 N 486.295 -0.989507 1.22664 0
M  V30 5000 C 487.544 -1.72375 1.04737 0
M  V30 5001 C 487.857 -1.91096 -0.417316 0
M  V30 5002 O 489.063 -2.6188 -0.716334 0
M  V30 5003 C 487.519 -3.10161 1.82561 0
M  V30 5004 C 487.127 -2.99358 3.333 0
M  V30 5005 C 488.871 -3.87607 1.73093 0
M  V30 5006 C 486.778 -4.32319 4.03552 0
M  V30 5007 H 485.708 -0.646326 0.388302 0
M  V30 5008 H 488.359 -1.10437 1.46546 0
M  V30 5009 H 486.741 -3.728 1.33552 0
M  V30 5010 H 487.915 -2.45863 3.89728 0
M  V30 5011 H 486.23 -2.35392 3.43481 0
M  V30 5012 H 488.827 -4.86025 2.22899 0
M  V30 5013 H 489.17 -4.10509 0.691976 0
M  V30 5014 H 489.703 -3.31652 2.19663 0
M  V30 5015 H 486.442 -4.14616 5.07714 0
M  V30 5016 H 485.962 -4.85714 3.51911 0
M  V30 5017 H 487.641 -5.01051 4.09337 0
M  V30 5018 N 487.773 -1.03688 -1.18687 0
M  V30 5019 C 488.998 -0.757819 -1.93059 0
M  V30 5020 C 489.423 0.678353 -1.75442 0
M  V30 5021 O 488.781 1.46938 -1.06203 0
M  V30 5022 C 488.829 -1.12423 -3.42627 0
M  V30 5023 O 487.933 -0.247505 -4.11657 0
M  V30 5024 H 487.274 -0.279245 -0.602427 0
M  V30 5025 H 489.804 -1.3857 -1.5053 0
M  V30 5026 H 489.814 -1.08454 -3.93322 0
M  V30 5027 H 488.489 -2.17049 -3.54771 0
M  V30 5028 H 487.066 -0.34649 -3.71287 0
M  V30 5029 N 489.251 1.34841 -0.815825 0
M  V30 5030 C 490.5 1.97755 -0.396976 0
M  V30 5031 C 490.813 1.65422 1.04379 0
M  V30 5032 O 492.019 2.21771 1.5662 0
M  V30 5033 C 490.475 3.53818 -0.658869 0
M  V30 5034 C 490.083 3.95051 -2.11278 0
M  V30 5035 C 491.827 4.23397 -0.305834 0
M  V30 5036 C 489.734 5.43997 -2.31994 0
M  V30 5037 H 488.664 0.739985 -0.1447 0
M  V30 5038 H 491.315 1.53781 -1.00118 0
M  V30 5039 H 489.697 3.95997 0.0154112 0
M  V30 5040 H 490.871 3.63998 -2.82564 0
M  V30 5041 H 489.186 3.38388 -2.42657 0
M  V30 5042 H 491.783 5.32899 -0.43854 0
M  V30 5043 H 492.126 4.09508 0.748952 0
M  V30 5044 H 492.659 3.8667 -0.934403 0
M  V30 5045 H 489.398 5.62865 -3.35952 0
M  V30 5046 H 488.918 5.76589 -1.65244 0
M  V30 5047 H 490.597 6.10584 -2.14001 0
M  V30 5048 N 490.729 0.570148 1.46925 0
M  V30 5049 C 491.976 0.0509529 2.02436 0
M  V30 5050 C 492.304 -1.30405 1.44308 0
M  V30 5051 O 491.559 -1.86493 0.593198 0
M  V30 5052 C 491.858 -0.0780336 3.57315 0
M  V30 5053 C 491.524 1.20775 4.34424 0
M  V30 5054 C 490.186 1.56004 4.5521 0
M  V30 5055 C 492.538 2.0592 4.78797 0
M  V30 5056 C 489.866 2.76201 5.17619 0
M  V30 5057 C 492.218 3.25332 5.42533 0
M  V30 5058 C 490.882 3.60859 5.61549 0
M  V30 5059 H 490.152 0.018645 0.740765 0
M  V30 5060 H 492.799 0.744262 1.76445 0
M  V30 5061 H 491.104 -0.854394 3.82371 0
M  V30 5062 H 492.801 -0.495312 3.97929 0
M  V30 5063 H 489.391 0.923469 4.18533 0
M  V30 5064 H 493.575 1.80008 4.62505 0
M  V30 5065 H 488.831 3.0388 5.30535 0
M  V30 5066 H 493.005 3.91586 5.75876 0
M  V30 5067 H 490.632 4.54088 6.09678 0
M  V30 5068 N 492.207 -1.54576 0.307264 0
M  V30 5069 C 493.435 -2.04675 -0.302597 0
M  V30 5070 C 493.85 -1.18425 -1.47041 0
M  V30 5071 O 493.207 -0.211257 -1.81273 0
M  V30 5072 C 493.258 -3.53575 -0.752801 0
M  V30 5073 O 492.979 -4.36547 0.368536 0
M  V30 5074 C 494.48 -4.19699 -1.42717 0
M  V30 5075 H 491.7 -0.66786 -0.0648374 0
M  V30 5076 H 494.244 -1.99516 0.448716 0
M  V30 5077 H 492.399 -3.59074 -1.45412 0
M  V30 5078 H 492.813 -5.24497 0.0168937 0
M  V30 5079 H 494.287 -5.25388 -1.69327 0
M  V30 5080 H 494.764 -3.69815 -2.36925 0
M  V30 5081 H 495.37 -4.18293 -0.768856 0
M  V30 5082 N 493.685 -0.035106 -1.57561 0
M  V30 5083 C 494.915 0.651312 -1.96065 0
M  V30 5084 C 495.323 1.6585 -0.910514 0
M  V30 5085 O 494.666 1.83336 0.11552 0
M  V30 5086 C 494.728 1.40897 -3.30739 0
M  V30 5087 C 494.392 0.559436 -4.53563 0
M  V30 5088 C 495.389 -0.16778 -5.19629 0
M  V30 5089 C 493.074 0.495079 -4.99854 0
M  V30 5090 C 495.068 -0.947963 -6.30311 0
M  V30 5091 C 492.755 -0.288804 -6.10417 0
M  V30 5092 C 493.753 -1.00903 -6.75505 0
M  V30 5093 O 493.441 -1.78005 -7.83945 0
M  V30 5094 H 493.173 0.184036 -0.650467 0
M  V30 5095 H 495.727 -0.0929677 -2.05189 0
M  V30 5096 H 493.957 2.19852 -3.18123 0
M  V30 5097 H 495.646 1.98407 -3.54104 0
M  V30 5098 H 496.412 -0.12743 -4.84833 0
M  V30 5099 H 492.291 1.04524 -4.48994 0
M  V30 5100 H 495.835 -1.51064 -6.81047 0
M  V30 5101 H 491.732 -0.33085 -6.44652 0
M  V30 5102 H 492.5 -1.70046 -8.00641 0
M  V30 5103 N 495.163 1.55791 0.238111 0
M  V30 5104 C 496.411 1.77681 0.963001 0
M  V30 5105 C 496.732 0.600674 1.85518 0
M  V30 5106 O 496.002 -0.383182 1.92116 0
M  V30 5107 H 494.582 0.655315 0.358568 0
M  V30 5108 H 497.244 1.93239 0.253945 0
M  V30 5109 H 496.34 2.69177 1.57956 0
M  V30 5110 N 496.642 -0.504142 1.49319 0
M  V30 5111 C 497.87 -1.28256 1.62351 0
M  V30 5112 C 498.285 -1.86502 0.293682 0
M  V30 5113 O 497.642 -1.67678 -0.720449 0
M  V30 5114 C 497.693 -2.41507 2.68992 0
M  V30 5115 O 497.414 -1.85656 3.96817 0
M  V30 5116 C 498.915 -3.32929 2.927 0
M  V30 5117 H 496.135 -0.389115 0.546654 0
M  V30 5118 H 498.679 -0.605531 1.95329 0
M  V30 5119 H 496.834 -3.05046 2.38801 0
M  V30 5120 H 497.248 -2.59981 4.55533 0
M  V30 5121 H 498.722 -4.0868 3.71058 0
M  V30 5122 H 499.199 -3.89733 2.02496 0
M  V30 5123 H 499.805 -2.75158 3.24296 0
M  V30 5124 N 498.12 -1.38341 -0.754957 0
M  V30 5125 C 499.345 -1.37882 -1.5493 0
M  V30 5126 C 499.77 0.0296385 -1.88077 0
M  V30 5127 O 499.128 1.01133 -1.50472 0
M  V30 5128 C 499.176 -2.23996 -2.82592 0
M  V30 5129 O 498.28 -1.65612 -3.77686 0
M  V30 5130 H 497.621 -0.470384 -0.468652 0
M  V30 5131 H 500.151 -1.82084 -0.933082 0
M  V30 5132 H 500.161 -2.37806 -3.3153 0
M  V30 5133 H 498.836 -3.26365 -2.57796 0
M  V30 5134 H 497.413 -1.60936 -3.36384 0
M  V30 5135 N 499.598 0.982988 -1.23187 0
M  V30 5136 C 500.53 2.07729 -0.968572 0
M  V30 5137 C 501.543 1.62702 0.0564821 0
M  V30 5138 O 502.732 1.77603 -0.178733 0
M  V30 5139 C 499.832 3.36071 -0.436974 0
M  V30 5140 C 499.005 4.10081 -1.52159 0
M  V30 5141 C 498.064 5.16701 -0.99532 0
M  V30 5142 O 497.09 5.43727 -1.68373 0
M  V30 5143 N 498.292 5.80226 0.178192 0
M  V30 5144 H 501.057 2.30894 -1.9107 0
M  V30 5145 H 498.618 1.14949 -1.1401 0
M  V30 5146 H 500.61 4.04639 -0.0700051 0
M  V30 5147 H 499.18 3.09893 0.410509 0
M  V30 5148 H 498.4 3.36004 -2.06144 0
M  V30 5149 H 499.688 4.56295 -2.25105 0
M  V30 5150 H 499.086 5.60651 0.754096 0
M  V30 5151 H 497.643 6.49982 0.486449 0
M  V30 5152 N 501.076 1.04316 1.18135 0
M  V30 5153 C 502.023 0.636398 2.21853 0
M  V30 5154 C 502.993 -0.357039 1.62217 0
M  V30 5155 O 504.178 -0.250453 1.89149 0
M  V30 5156 C 501.318 0.00812779 3.45099 0
M  V30 5157 C 500.431 1.04933 4.19062 0
M  V30 5158 C 499.566 0.389313 5.29771 0
M  V30 5159 C 498.605 1.41544 5.9551 0
M  V30 5160 N 497.742 0.78021 6.97751 0
M  V30 5161 H 502.582 1.52536 2.56002 0
M  V30 5162 H 500.119 0.76304 1.25762 0
M  V30 5163 H 502.077 -0.373497 4.15525 0
M  V30 5164 H 500.707 -0.844336 3.11562 0
M  V30 5165 H 499.759 1.54888 3.47439 0
M  V30 5166 H 501.071 1.82862 4.64072 0
M  V30 5167 H 500.225 -0.0463805 6.06682 0
M  V30 5168 H 498.964 -0.422038 4.8587 0
M  V30 5169 H 497.969 1.86124 5.17337 0
M  V30 5170 H 499.194 2.22854 6.41493 0
M  V30 5171 H 497.14 -0.0107899 6.55999 0
M  V30 5172 H 497.057 1.49716 7.41027 0
M  V30 5173 H 498.325 0.368996 7.78626 0
M  V30 5174 N 502.554 -1.34406 0.822964 0
M  V30 5175 C 503.782 -2.02508 0.424039 0
M  V30 5176 C 504.197 -1.61975 -0.970022 0
M  V30 5177 O 503.554 -0.825228 -1.62777 0
M  V30 5178 C 503.605 -3.57789 0.516657 0
M  V30 5179 O 503.326 -3.96853 1.85577 0
M  V30 5180 C 504.827 -4.43157 0.112637 0
M  V30 5181 H 502.047 -0.649063 0.170173 0
M  V30 5182 H 504.591 -1.7168 1.11113 0
M  V30 5183 H 502.746 -3.87207 -0.122353 0
M  V30 5184 H 503.16 -4.91538 1.83005 0
M  V30 5185 H 504.634 -5.51527 0.228526 0
M  V30 5186 H 505.111 -4.28939 -0.943837 0
M  V30 5187 H 505.717 -4.19067 0.725449 0
M  V30 5188 N 504.032 -0.577932 -1.46621 0
M  V30 5189 C 504.942 0.160651 -2.34049 0
M  V30 5190 C 505.958 0.890911 -1.49462 0
M  V30 5191 O 507.134 0.855166 -1.82343 0
M  V30 5192 C 504.199 1.16447 -3.26559 0
M  V30 5193 C 503.26 0.4394 -4.27045 0
M  V30 5194 C 502.493 1.3954 -5.15135 0
M  V30 5195 O 502.716 2.63162 -5.06065 0
M  V30 5196 O 501.65 0.908585 -5.95003 0
M  V30 5197 H 505.476 -0.557057 -2.98547 0
M  V30 5198 H 503.061 -0.338369 -1.45518 0
M  V30 5199 H 504.943 1.7434 -3.83645 0
M  V30 5200 H 503.618 1.86373 -2.64663 0
M  V30 5201 H 502.525 -0.181247 -3.73661 0
M  V30 5202 H 503.858 -0.218799 -4.91713 0
M  V30 5203 N 505.51 1.54411 -0.315457 0
M  V30 5204 C 506.926 1.59556 0.037464 0
M  V30 5205 C 507.126 1.33217 1.5118 0
M  V30 5206 O 506.182 1.11264 2.26664 0
M  V30 5207 C 507.495 2.98372 -0.373477 0
M  V30 5208 C 509.043 3.11324 -0.323452 0
M  V30 5209 C 509.518 4.52472 -0.709433 0
M  V30 5210 N 511.009 4.58437 -0.662524 0
M  V30 5211 C 511.744 5.65751 -0.933474 0
M  V30 5212 N 511.24 6.81039 -1.27114 0
M  V30 5213 N 513.033 5.55489 -0.859573 0
M  V30 5214 H 505.184 1.6979 -1.27614 0
M  V30 5215 H 507.447 0.793732 -0.518356 0
M  V30 5216 H 507.153 3.22618 -1.40037 0
M  V30 5217 H 507.027 3.76264 0.265615 0
M  V30 5218 H 509.414 2.86818 0.694223 0
M  V30 5219 H 509.495 2.35555 -0.997367 0
M  V30 5220 H 509.139 4.7771 -1.72498 0
M  V30 5221 H 509.069 5.26598 -0.0132923 0
M  V30 5222 H 511.56 3.75636 -0.413065 0
M  V30 5223 H 511.873 7.58816 -1.46348 0
M  V30 5224 H 510.218 6.82555 -1.30932 0
M  V30 5225 H 513.409 4.64299 -0.595324 0
M  V30 5226 H 513.582 6.39036 -1.0741 0
M  V30 5227 N 506.988 0.0434614 1.5754 0
M  V30 5228 C 507.898 -0.94893 2.14552 0
M  V30 5229 C 508.914 -1.34707 1.10136 0
M  V30 5230 O 510.09 -1.42557 1.42266 0
M  V30 5231 C 507.155 -2.208 2.67298 0
M  V30 5232 C 506.216 -1.86893 3.86484 0
M  V30 5233 C 505.449 -3.06797 4.36705 0
M  V30 5234 O 505.672 -4.19921 3.86034 0
M  V30 5235 O 504.606 -2.8826 5.28384 0
M  V30 5236 H 508.432 -0.494099 2.99654 0
M  V30 5237 H 506.017 -0.177989 1.48336 0
M  V30 5238 H 507.899 -2.94686 3.01228 0
M  V30 5239 H 506.574 -2.65436 1.85272 0
M  V30 5240 H 505.481 -1.10347 3.57455 0
M  V30 5241 H 506.814 -1.47062 4.69716 0
M  V30 5242 N 508.466 -1.55915 -0.229846 0
M  V30 5243 C 509.396 -1.94754 -1.28815 0
M  V30 5244 C 510.377 -0.814657 -1.49323 0
M  V30 5245 O 511.562 -1.07631 -1.61645 0
M  V30 5246 C 508.692 -2.25705 -2.63959 0
M  V30 5247 C 507.646 -3.41406 -2.5812 0
M  V30 5248 C 506.972 -3.57941 -3.97218 0
M  V30 5249 C 508.272 -4.76616 -2.13623 0
M  V30 5250 H 509.966 -2.83404 -0.965547 0
M  V30 5251 H 507.512 -1.36353 -0.463028 0
M  V30 5252 H 509.465 -2.51467 -3.38146 0
M  V30 5253 H 508.189 -1.339 -2.9789 0
M  V30 5254 H 506.848 -3.1568 -1.86391 0
M  V30 5255 H 506.496 -2.63526 -4.28443 0
M  V30 5256 H 506.196 -4.35757 -3.94195 0
M  V30 5257 H 507.72 -3.86042 -4.73079 0
M  V30 5258 H 509.134 -5.01637 -2.77549 0
M  V30 5259 H 507.531 -5.57655 -2.21677 0
M  V30 5260 H 508.601 -4.7253 -1.08829 0
M  V30 5261 N 509.944 0.496216 -1.49584 0
M  V30 5262 C 510.874 1.60576 -1.69521 0
M  V30 5263 C 511.855 1.61169 -0.543933 0
M  V30 5264 O 513.04 1.77834 -0.78031 0
M  V30 5265 C 510.17 2.99038 -1.76616 0
M  V30 5266 C 509.124 3.13312 -2.91581 0
M  V30 5267 C 508.45 4.53172 -2.83794 0
M  V30 5268 C 509.75 2.92886 -4.32452 0
M  V30 5269 H 511.444 1.44146 -2.62416 0
M  V30 5270 H 508.99 0.692024 -1.26282 0
M  V30 5271 H 510.943 3.76564 -1.8915 0
M  V30 5272 H 509.667 3.16568 -0.80324 0
M  V30 5273 H 508.326 2.38213 -2.78658 0
M  V30 5274 H 507.974 4.67585 -1.854 0
M  V30 5275 H 507.674 4.63662 -3.60958 0
M  V30 5276 H 509.198 5.32752 -2.98342 0
M  V30 5277 H 510.612 3.60178 -4.46032 0
M  V30 5278 H 509.009 3.14844 -5.10875 0
M  V30 5279 H 510.079 1.88966 -4.46565 0
M  V30 5280 N 511.423 1.38739 0.74761 0
M  V30 5281 C 512.7 1.25791 1.49786 0
M  V30 5282 C 513.08 -0.138075 2.10648 0
M  V30 5283 O 512.428 -1.14815 1.9756 0
M  V30 5284 C 512.638 2.37265 2.55942 0
M  V30 5285 C 513.986 2.75978 3.22679 0
M  V30 5286 O 515.01 2.36621 2.6625 0
M  V30 5287 O 513.869 3.43867 4.24756 0
M  V30 5288 H 510.963 0.492251 0.664543 0
M  V30 5289 H 513.509 1.50582 0.782511 0
M  V30 5290 H 512.281 3.30644 2.0926 0
M  V30 5291 H 511.904 2.14071 3.35051 0
M  V30 5292 N 512.901 -0.976442 1.23707 0
M  V30 5293 C 514.147 -1.72081 1.07312 0
M  V30 5294 C 514.48 -1.90275 -0.388476 0
M  V30 5295 O 513.755 -1.4579 -1.28746 0
M  V30 5296 C 514.038 -3.11675 1.80363 0
M  V30 5297 C 513.891 -3.01027 3.3422 0
M  V30 5298 C 515.21 -4.1117 1.5693 0
M  V30 5299 H 512.329 -0.624583 0.391236 0
M  V30 5300 H 514.971 -1.13649 1.52263 0
M  V30 5301 H 513.121 -3.61559 1.42153 0
M  V30 5302 H 514.793 -2.58637 3.81975 0
M  V30 5303 H 513.036 -2.3744 3.63049 0
M  V30 5304 H 513.707 -3.9988 3.80525 0
M  V30 5305 H 516.183 -3.7011 1.90151 0
M  V30 5306 H 515.059 -5.06928 2.10513 0
M  V30 5307 H 515.32 -4.392 0.505548 0
M  V30 5308 N 514.379 -1.04941 -1.1758 0
M  V30 5309 C 515.625 -0.759112 -1.88057 0
M  V30 5310 C 515.958 0.711918 -1.8068 0
M  V30 5311 O 515.233 1.52035 -1.21308 0
M  V30 5312 C 515.516 -1.237 -3.38187 0
M  V30 5313 C 515.369 -2.77078 -3.54327 0
M  V30 5314 C 516.688 -0.834014 -4.32125 0
M  V30 5315 H 513.807 -0.277237 -0.682868 0
M  V30 5316 H 516.449 -1.30296 -1.38286 0
M  V30 5317 H 514.599 -0.774337 -3.80705 0
M  V30 5318 H 516.271 -3.31449 -3.20842 0
M  V30 5319 H 514.514 -3.16477 -2.96689 0
M  V30 5320 H 515.185 -3.05577 -4.59703 0
M  V30 5321 H 517.661 -1.23228 -3.97434 0
M  V30 5322 H 516.537 -1.19603 -5.35711 0
M  V30 5323 H 516.798 0.262195 -4.41322 0
M  V30 5324 N 515.857 1.33968 -0.830081 0
M  V30 5325 C 516.807 2.26845 -0.229242 0
M  V30 5326 C 517.791 1.48862 0.610659 0
M  V30 5327 O 518.983 1.70808 0.464067 0
M  V30 5328 C 516.112 3.3798 0.602057 0
M  V30 5329 C 515.198 4.23369 -0.248866 0
M  V30 5330 N 515.589 4.88182 -1.32334 0
M  V30 5331 C 513.887 4.45987 -0.0344077 0
M  V30 5332 C 514.588 5.51671 -1.84482 0
M  V30 5333 N 513.564 5.31348 -1.14762 0
M  V30 5334 H 517.366 2.74464 -1.05104 0
M  V30 5335 H 514.88 1.4777 -0.673623 0
M  V30 5336 H 516.877 4.03494 1.04873 0
M  V30 5337 H 515.537 2.9191 1.42193 0
M  V30 5338 H 516.548 4.88988 -1.70619 0
M  V30 5339 H 513.225 4.10658 0.752727 0
M  V30 5340 H 514.615 6.13308 -2.74413 0
M  V30 5341 N 517.335 0.585699 1.46312 0
M  V30 5342 C 518.282 -0.145835 2.30339 0
M  V30 5343 C 519.252 -0.881215 1.40797 0
M  V30 5344 O 520.437 -0.871293 1.69744 0
M  V30 5345 C 517.577 -1.15161 3.25318 0
M  V30 5346 C 516.69 -0.419367 4.2996 0
M  V30 5347 C 515.825 -1.41293 5.12064 0
M  V30 5348 C 514.864 -0.667261 6.08452 0
M  V30 5349 N 514.001 -1.60903 6.83414 0
M  V30 5350 H 518.841 0.576755 2.92365 0
M  V30 5351 H 516.378 0.296237 1.44086 0
M  V30 5352 H 518.336 -1.74763 3.78832 0
M  V30 5353 H 516.966 -1.84188 2.65094 0
M  V30 5354 H 516.018 0.291751 3.7928 0
M  V30 5355 H 517.33 0.163433 4.98532 0
M  V30 5356 H 516.484 -2.08167 5.6987 0
M  V30 5357 H 515.223 -2.02966 4.43459 0
M  V30 5358 H 514.228 0.0152356 5.49798 0
M  V30 5359 H 515.453 -0.0558817 6.79077 0
M  V30 5360 H 513.399 -2.21381 6.17516 0
M  V30 5361 H 513.316 -1.07911 7.48259 0
M  V30 5362 H 514.584 -2.26802 7.45775 0
M  V30 5363 N 518.813 -1.54241 0.323641 0
M  V30 5364 C 519.761 -2.25813 -0.557804 0
M  V30 5365 C 520.755 -1.27225 -1.11849 0
M  V30 5366 O 521.961 -1.45001 -1.06652 0
M  V30 5367 H 518.336 -0.72532 -0.198532 0
M  V30 5368 H 520.307 -2.98322 0.0681112 0
M  V30 5369 C 519.056 -3.02913 -1.70701 0
M  V30 5370 H 518.379 -3.78593 -1.28482 0
M  V30 5371 H 519.819 -3.56238 -2.29935 0
M  V30 5372 C 518.278 -2.11217 -2.62467 0
M  V30 5373 O 518.808 -1.69508 -3.64184 0
M  V30 5374 N 517.014 -1.76704 -2.30703 0
M  V30 5375 H 516.561 -2.1082 -1.48029 0
M  V30 5376 H 516.519 -1.15631 -2.92364 0
M  V30 5377 N 520.291 -0.0518155 -1.57515 0
M  V30 5378 C 521.538 0.621823 -1.92716 0
M  V30 5379 C 521.866 1.70813 -0.930229 0
M  V30 5380 O 521.121 1.95616 0.0573708 0
M  V30 5381 C 521.42 1.25607 -3.34601 0
M  V30 5382 C 521.086 0.297901 -4.49915 0
M  V30 5383 C 519.748 0.034243 -4.81188 0
M  V30 5384 C 522.1 -0.358738 -5.19964 0
M  V30 5385 C 519.428 -0.893479 -5.79857 0
M  V30 5386 C 521.78 -1.27466 -6.19625 0
M  V30 5387 C 520.444 -1.54698 -6.49326 0
M  V30 5388 H 519.714 0.227541 -0.705199 0
M  V30 5389 H 522.361 -0.118432 -1.91133 0
M  V30 5390 H 520.666 2.07161 -3.32553 0
M  V30 5391 H 522.363 1.78424 -3.59118 0
M  V30 5392 H 518.953 0.513581 -4.25512 0
M  V30 5393 H 523.137 -0.168133 -4.96015 0
M  V30 5394 H 518.393 -1.11193 -6.01204 0
M  V30 5395 H 522.567 -1.78953 -6.73015 0
M  V30 5396 H 520.194 -2.26748 -7.25596 0
M  V30 5397 N 521.769 1.56035 0.221574 0
M  V30 5398 C 523.046 1.69837 0.970301 0
M  V30 5399 C 523.426 0.599065 2.02421 0
M  V30 5400 O 522.774 -0.393929 2.25079 0
M  V30 5401 C 522.984 3.11148 1.58076 0
M  V30 5402 C 524.332 3.70555 2.07302 0
M  V30 5403 O 525.356 3.14109 1.6797 0
M  V30 5404 O 524.215 4.69562 2.79596 0
M  V30 5405 H 521.309 0.691727 0.453257 0
M  V30 5406 H 523.855 1.68353 0.213358 0
M  V30 5407 H 522.627 3.82617 0.819759 0
M  V30 5408 H 522.25 3.16749 2.40324 0
M  V30 5409 N 523.247 -0.488276 1.49845 0
M  V30 5410 C 524.177 -1.59675 1.70371 0
M  V30 5411 C 525.158 -1.60878 0.552473 0
M  V30 5412 O 526.343 -1.77417 0.78973 0
M  V30 5413 C 523.473 -2.98098 1.782 0
M  V30 5414 C 522.427 -3.11761 2.93239 0
M  V30 5415 C 521.753 -4.51661 2.86193 0
M  V30 5416 C 523.053 -2.90589 4.33999 0
M  V30 5417 H 524.747 -1.42752 2.63177 0
M  V30 5418 H 522.293 -0.685317 1.26647 0
M  V30 5419 H 524.246 -3.75555 1.91144 0
M  V30 5420 H 522.97 -3.16138 0.820018 0
M  V30 5421 H 521.629 -2.36732 2.79917 0
M  V30 5422 H 521.277 -4.66595 1.87877 0
M  V30 5423 H 520.977 -4.61742 3.63412 0
M  V30 5424 H 522.501 -5.31162 3.01163 0
M  V30 5425 H 523.915 -3.57807 4.47936 0
M  V30 5426 H 522.312 -3.1213 5.12538 0
M  V30 5427 H 523.382 -1.86595 4.4756 0
M  V30 5428 N 524.725 -1.39134 -0.740242 0
M  V30 5429 C 526.141 -1.20623 -1.0451 0
M  V30 5430 C 526.341 -0.0641651 -2.01398 0
M  V30 5431 O 525.397 0.585843 -2.4561 0
M  V30 5432 C 526.71 -2.53815 -1.6124 0
M  V30 5433 C 528.258 -2.60615 -1.73346 0
M  V30 5434 C 528.733 -3.94015 -2.33486 0
M  V30 5435 N 530.224 -3.95627 -2.40902 0
M  V30 5436 C 530.959 -4.95616 -2.88361 0
M  V30 5437 N 530.455 -6.06003 -3.35756 0
M  V30 5438 N 532.248 -4.82998 -2.87523 0
M  V30 5439 H 524.399 -2.12176 -0.0975576 0
M  V30 5440 H 526.662 -0.942066 -0.105904 0
M  V30 5441 H 526.368 -3.37911 -0.975144 0
M  V30 5442 H 526.242 -2.73162 -2.6012 0
M  V30 5443 H 528.629 -1.76906 -2.36195 0
M  V30 5444 H 528.71 -2.45123 -0.731336 0
M  V30 5445 H 528.354 -4.78153 -1.71267 0
M  V30 5446 H 528.284 -4.06825 -3.34366 0
M  V30 5447 H 530.775 -3.15903 -2.07398 0
M  V30 5448 H 531.088 -6.78215 -3.70464 0
M  V30 5449 H 529.433 -6.09604 -3.33778 0
M  V30 5450 H 532.624 -3.95866 -2.49816 0
M  V30 5451 H 532.797 -5.61072 -3.24196 0
M  V30 5452 N 526.204 0.969867 -1.24223 0
M  V30 5453 C 527.615 1.52717 -1.07399 0
M  V30 5454 C 527.966 1.92956 0.355298 0
M  V30 5455 O 527.091 1.77112 1.2434 0
M  V30 5456 C 527.686 2.77521 -1.94339 0
M  V30 5457 C 526.245 3.29615 -1.81744 0
M  V30 5458 C 525.392 2.02537 -1.89405 0
M  V30 5459 H 528.343 0.788399 -1.37732 0
M  V30 5460 H 528.364 3.50773 -1.47439 0
M  V30 5461 H 527.876 2.48203 -2.98357 0
M  V30 5462 H 525.977 3.63789 -0.805505 0
M  V30 5463 H 526.09 3.98661 -2.65718 0
M  V30 5464 H 524.454 2.17151 -1.33108 0
M  V30 5465 H 525.237 1.75587 -2.94999 0
M  V30 5466 N 527.682 1.05563 1.17022 0
M  V30 5467 C 528.93 0.76642 1.87004 0
M  V30 5468 C 529.251 -0.708854 1.8166 0
M  V30 5469 O 528.521 -1.51242 1.2451 0
M  V30 5470 H 527.101 0.280516 0.692329 0
M  V30 5471 H 529.763 1.33557 1.41945 0
M  V30 5472 H 528.859 1.08472 2.92644 0
M  V30 5473 N 529.16 -1.33526 0.837174 0
M  V30 5474 C 530.406 -1.9813 0.432704 0
M  V30 5475 C 530.739 -1.66168 -1.00508 0
M  V30 5476 O 530.014 -0.94069 -1.70239 0
M  V30 5477 C 530.297 -3.54151 0.651834 0
M  V30 5478 C 530.15 -3.95806 2.13676 0
M  V30 5479 C 531.469 -4.39993 0.0968937 0
M  V30 5480 H 528.588 -0.719713 0.15869 0
M  V30 5481 H 531.23 -1.58193 1.05237 0
M  V30 5482 H 529.38 -3.88301 0.124369 0
M  V30 5483 H 531.052 -3.71921 2.72896 0
M  V30 5484 H 529.295 -3.45599 2.62191 0
M  V30 5485 H 529.966 -5.0447 2.24084 0
M  V30 5486 H 532.442 -4.12479 0.547733 0
M  V30 5487 H 531.318 -5.48186 0.279917 0
M  V30 5488 H 531.579 -4.3066 -0.9992 0
M  V30 5489 N 530.638 -0.59345 -1.46 0
M  V30 5490 C 531.887 -0.0808084 -2.01538 0
M  V30 5491 C 532.2 1.29112 -1.46934 0
M  V30 5492 O 533.406 1.8957 -1.94359 0
M  V30 5493 C 531.862 -0.0938311 -3.59778 0
M  V30 5494 C 531.47 -1.46474 -4.23379 0
M  V30 5495 C 533.214 0.364306 -4.22934 0
M  V30 5496 C 531.121 -1.4349 -5.73729 0
M  V30 5497 H 530.051 -0.0264407 -0.753536 0
M  V30 5498 H 532.702 -0.746689 -1.67621 0
M  V30 5499 H 531.084 0.638427 -3.9082 0
M  V30 5500 H 532.258 -2.21758 -4.03931 0
M  V30 5501 H 530.573 -1.86379 -3.7236 0
M  V30 5502 H 533.17 0.405584 -5.3316 0
M  V30 5503 H 533.513 1.38409 -3.92618 0
M  V30 5504 H 534.046 -0.31423 -3.96557 0
M  V30 5505 H 530.785 -2.43184 -6.08722 0
M  V30 5506 H 530.305 -0.724431 -5.95409 0
M  V30 5507 H 531.984 -1.15243 -6.36654 0
M  V30 5508 N 532.116 1.54067 -0.331816 0
M  V30 5509 C 533.362 2.01012 0.268667 0
M  V30 5510 C 533.695 1.2195 1.51136 0
M  V30 5511 O 532.97 0.303972 1.9211 0
M  V30 5512 C 533.253 3.55158 0.59456 0
M  V30 5513 C 533.106 4.4494 -0.659409 0
M  V30 5514 C 534.425 4.16939 1.4089 0
M  V30 5515 H 531.544 0.730698 0.0961756 0
M  V30 5516 H 534.186 1.84593 -0.450031 0
M  V30 5517 H 532.336 3.6928 1.20685 0
M  V30 5518 H 534.008 4.42675 -1.29756 0
M  V30 5519 H 532.251 4.1428 -1.28665 0
M  V30 5520 H 532.922 5.50643 -0.386804 0
M  V30 5521 H 535.398 4.06443 0.891272 0
M  V30 5522 H 534.274 5.24889 1.60569 0
M  V30 5523 H 534.535 3.70798 2.40752 0
M  V30 5524 N 533.594 0.0601682 1.57485 0
M  V30 5525 C 535.01 -0.296422 1.56823 0
M  V30 5526 C 535.21 -1.70831 1.0686 0
M  V30 5527 O 534.266 -2.4174 0.729245 0
M  V30 5528 C 535.579 -0.116681 3.00474 0
M  V30 5529 C 537.127 -0.187103 3.1244 0
M  V30 5530 C 537.602 -0.035783 4.57986 0
M  V30 5531 N 539.093 -0.0917676 4.63109 0
M  V30 5532 C 539.828 0.00107251 5.734 0
M  V30 5533 N 539.324 0.146773 6.92645 0
M  V30 5534 N 541.117 -0.0551577 5.62073 0
M  V30 5535 H 533.268 0.983055 1.88281 0
M  V30 5536 H 535.531 0.382386 0.867459 0
M  V30 5537 H 535.237 0.85712 3.41096 0
M  V30 5538 H 535.111 -0.873929 3.66936 0
M  V30 5539 H 537.498 -1.15138 2.71712 0
M  V30 5540 H 537.579 0.601052 2.48638 0
M  V30 5541 H 537.223 0.925212 4.99402 0
M  V30 5542 H 537.153 -0.843196 5.19806 0
M  V30 5543 H 539.644 -0.203261 3.77353 0
M  V30 5544 H 539.957 0.210076 7.72514 0
M  V30 5545 H 538.302 0.181979 6.94762 0
M  V30 5546 H 541.493 -0.167605 4.678 0
M  V30 5547 H 541.666 0.020652 6.47997 0
M  V30 5548 N 535.072 -1.5615 -0.213296 0
M  V30 5549 C 536.349 -1.70349 -0.961281 0
M  V30 5550 C 536.729 -0.609791 -2.02101 0
M  V30 5551 O 536.077 0.381987 -2.25285 0
M  V30 5552 C 536.287 -3.11982 -1.56424 0
M  V30 5553 C 537.635 -3.71649 -2.05334 0
M  V30 5554 O 538.659 -3.14995 -1.66302 0
M  V30 5555 O 537.518 -4.71038 -2.77102 0
M  V30 5556 H 534.612 -0.694121 -0.449582 0
M  V30 5557 H 537.158 -1.68464 -0.204426 0
M  V30 5558 H 535.93 -3.83046 -0.799457 0
M  V30 5559 H 535.553 -3.18019 -2.38641 0
M  V30 5560 N 536.55 0.480323 -1.50102 0
M  V30 5561 C 537.48 1.58769 -1.71215 0
M  V30 5562 C 538.461 1.60583 -0.560997 0
M  V30 5563 O 539.646 1.76996 -0.799127 0
M  V30 5564 C 536.776 2.97148 -1.79778 0
M  V30 5565 C 535.73 3.10201 -2.94888 0
M  V30 5566 C 535.056 4.50137 -2.88584 0
M  V30 5567 C 536.356 2.88283 -4.35534 0
M  V30 5568 H 538.05 1.41354 -2.6393 0
M  V30 5569 H 535.596 0.678591 -1.27008 0
M  V30 5570 H 537.549 3.74536 -1.93133 0
M  V30 5571 H 536.273 3.15699 -0.836772 0
M  V30 5572 H 534.932 2.35244 -2.81169 0
M  V30 5573 H 534.58 4.65593 -1.90349 0
M  V30 5574 H 534.28 4.59808 -3.65856 0
M  V30 5575 H 535.804 5.29558 -3.03976 0
M  V30 5576 H 537.218 3.55427 -4.49827 0
M  V30 5577 H 535.615 3.09408 -5.14186 0
M  V30 5578 H 536.685 1.84219 -4.48544 0
M  V30 5579 N 538.028 1.39524 0.732853 0
M  V30 5580 C 539.305 1.27373 1.48444 0
M  V30 5581 C 539.685 -0.115725 2.10783 0
M  V30 5582 O 539.033 -1.12713 1.98766 0
M  V30 5583 C 539.243 2.39966 2.53412 0
M  V30 5584 C 540.591 2.79384 3.19733 0
M  V30 5585 O 541.615 2.39431 2.63725 0
M  V30 5586 O 540.474 3.48353 4.21085 0
M  V30 5587 H 537.568 0.499272 0.659285 0
M  V30 5588 H 540.114 1.51403 0.766496 0
M  V30 5589 H 538.886 3.32845 2.05742 0
M  V30 5590 H 538.509 2.17612 3.32762 0
M  V30 5591 N 539.506 -0.963266 1.24736 0
M  V30 5592 C 540.436 -2.07628 1.06832 0
M  V30 5593 C 541.417 -1.70088 -0.0200566 0
M  V30 5594 O 542.602 -1.93636 0.147854 0
M  V30 5595 C 539.732 -3.40636 0.677069 0
M  V30 5596 C 538.686 -3.9215 1.71471 0
M  V30 5597 C 538.012 -5.21553 1.1784 0
M  V30 5598 C 539.312 -4.19493 3.11164 0
M  V30 5599 H 541.006 -2.22864 1.9993 0
M  V30 5600 H 538.552 -1.07093 0.96266 0
M  V30 5601 H 540.505 -4.17941 0.538792 0
M  V30 5602 H 539.229 -3.25313 -0.289612 0
M  V30 5603 H 537.888 -3.17005 1.84128 0
M  V30 5604 H 537.536 -5.02593 0.202195 0
M  V30 5605 H 537.236 -5.56988 1.87185 0
M  V30 5606 H 538.76 -6.01463 1.05233 0
M  V30 5607 H 540.174 -4.87487 3.01711 0
M  V30 5608 H 538.571 -4.66165 3.77902 0
M  V30 5609 H 539.641 -3.26097 3.58871 0
M  V30 5610 N 540.985 -1.06182 -1.16461 0
M  V30 5611 C 541.932 -0.671613 -2.20812 0
M  V30 5612 C 542.902 0.331186 -1.62765 0
M  V30 5613 O 544.087 0.22033 -1.89524 0
M  V30 5614 C 541.227 -0.063029 -3.45042 0
M  V30 5615 C 540.34 -1.11587 -4.1734 0
M  V30 5616 C 539.475 -0.473546 -5.29085 0
M  V30 5617 C 538.514 -1.51 -5.93182 0
M  V30 5618 N 537.651 -0.891118 -6.96422 0
M  V30 5619 H 542.491 -1.56589 -2.53542 0
M  V30 5620 H 540.028 -0.782951 -1.24532 0
M  V30 5621 H 541.986 0.307344 -4.16066 0
M  V30 5622 H 540.616 0.794663 -3.12866 0
M  V30 5623 H 539.668 -1.60396 -3.44931 0
M  V30 5624 H 540.98 -1.90221 -4.61104 0
M  V30 5625 H 540.134 -0.0501432 -6.06679 0
M  V30 5626 H 538.873 0.344687 -4.8648 0
M  V30 5627 H 537.878 -1.94331 -5.14311 0
M  V30 5628 H 539.103 -2.33031 -6.37866 0
M  V30 5629 H 537.049 -0.0935753 -6.55933 0
M  V30 5630 H 536.966 -1.61486 -7.38551 0
M  V30 5631 H 538.234 -0.492822 -7.77941 0
M  V30 5632 N 542.463 1.3308 -0.844243 0
M  V30 5633 C 543.41 2.29104 -0.279323 0
M  V30 5634 C 544.38 1.54577 0.607882 0
M  V30 5635 O 545.565 1.8285 0.545009 0
M  V30 5636 C 542.705 3.40927 0.53508 0
M  V30 5637 C 541.818 4.30354 -0.376749 0
M  V30 5638 C 540.953 5.29297 0.449276 0
M  V30 5639 C 539.992 6.10365 -0.460606 0
M  V30 5640 N 539.129 7.01335 0.327612 0
M  V30 5641 H 543.969 2.76817 -1.10346 0
M  V30 5642 H 541.506 1.36203 -0.555611 0
M  V30 5643 H 543.464 4.04469 1.02278 0
M  V30 5644 H 542.094 2.94391 1.32414 0
M  V30 5645 H 541.146 3.67485 -0.982791 0
M  V30 5646 H 542.458 4.87067 -1.07549 0
M  V30 5647 H 541.612 5.98392 1.00058 0
M  V30 5648 H 540.351 4.73174 1.18143 0
M  V30 5649 H 539.356 5.40182 -1.02388 0
M  V30 5650 H 540.581 6.68571 -1.1912 0
M  V30 5651 H 538.527 6.47655 1.04305 0
M  V30 5652 H 538.444 7.55355 -0.3123 0
M  V30 5653 H 539.712 7.74731 0.86098 0
M  V30 5654 N 543.941 0.601185 1.45683 0
M  V30 5655 C 545.352 0.179659 1.85834 0
M  V30 5656 C 545.703 -1.26189 1.50236 0
M  V30 5657 O 544.828 -1.95587 0.925987 0
M  V30 5658 C 545.423 0.319277 3.37292 0
M  V30 5659 C 543.982 -0.0475092 3.7637 0
M  V30 5660 C 543.129 0.646692 2.69654 0
M  V30 5661 H 546.08 0.808268 1.36575 0
M  V30 5662 H 546.101 -0.4503 3.77826 0
M  V30 5663 H 545.613 1.36855 3.6317 0
M  V30 5664 H 543.714 -1.0962 3.5611 0
M  V30 5665 H 543.827 0.34168 4.7788 0
M  V30 5666 H 542.191 0.0849971 2.54558 0
M  V30 5667 H 542.974 1.69797 2.98369 0
M  V30 5668 N 545.419 -1.53889 0.339982 0
M  V30 5669 C 546.668 -2.00035 -0.258604 0
M  V30 5670 C 546.981 -1.23179 -1.51942 0
M  V30 5671 O 548.187 -1.59784 -2.19503 0
M  V30 5672 C 546.643 -3.56249 -0.511359 0
M  V30 5673 C 546.251 -4.41957 0.733349 0
M  V30 5674 C 547.995 -4.1082 -1.069 0
M  V30 5675 C 545.902 -5.89673 0.451591 0
M  V30 5676 H 544.832 -0.747284 -0.10041 0
M  V30 5677 H 547.483 -1.77776 0.454758 0
M  V30 5678 H 545.865 -3.7456 -1.28533 0
M  V30 5679 H 547.039 -4.35421 1.50815 0
M  V30 5680 H 545.354 -3.9836 1.21237 0
M  V30 5681 H 547.951 -5.18789 -1.2947 0
M  V30 5682 H 548.294 -3.63817 -2.02343 0
M  V30 5683 H 548.827 -3.96205 -0.355817 0
M  V30 5684 H 545.566 -6.40903 1.37565 0
M  V30 5685 H 545.086 -5.99122 -0.285193 0
M  V30 5686 H 546.765 -6.46965 0.0675067 0
M  V30 5687 N 546.897 -0.0685191 -1.57451 0
M  V30 5688 C 548.127 0.609577 -1.97402 0
M  V30 5689 C 548.535 1.63882 -0.945489 0
M  V30 5690 O 547.878 1.8354 0.0766052 0
M  V30 5691 C 547.94 1.3385 -3.33653 0
M  V30 5692 C 547.604 0.463103 -4.54648 0
M  V30 5693 C 548.601 -0.277964 -5.19156 0
M  V30 5694 C 546.286 0.388941 -5.00792 0
M  V30 5695 C 548.28 -1.08145 -6.28159 0
M  V30 5696 C 545.967 -0.418217 -6.09667 0
M  V30 5697 C 546.965 -1.15208 -6.73213 0
M  V30 5698 O 546.653 -1.94594 -7.79993 0
M  V30 5699 H 546.385 0.170197 -0.654224 0
M  V30 5700 H 548.939 -0.13647 -2.04946 0
M  V30 5701 H 547.169 2.13055 -3.22714 0
M  V30 5702 H 548.858 1.90851 -3.58233 0
M  V30 5703 H 549.624 -0.230241 -4.84453 0
M  V30 5704 H 545.503 0.949769 -4.5111 0
M  V30 5705 H 549.047 -1.65476 -6.7769 0
M  V30 5706 H 544.944 -0.467515 -6.43805 0
M  V30 5707 H 545.712 -1.8699 -7.96854 0
M  V30 5708 N 548.375 1.56261 0.205012 0
M  V30 5709 C 549.307 1.90266 1.27795 0
M  V30 5710 C 550.32 0.792397 1.42214 0
M  V30 5711 O 551.509 1.07077 1.42817 0
M  V30 5712 C 548.609 2.11074 2.65143 0
M  V30 5713 C 547.782 3.42176 2.7246 0
M  V30 5714 C 546.841 3.52216 3.90936 0
M  V30 5715 O 545.867 4.25119 3.78501 0
M  V30 5716 N 547.069 2.84573 5.05963 0
M  V30 5717 H 549.834 2.82896 0.989434 0
M  V30 5718 H 547.395 1.57008 0.394981 0
M  V30 5719 H 549.387 2.15089 3.4281 0
M  V30 5720 H 547.957 1.2499 2.86524 0
M  V30 5721 H 547.177 3.50116 1.81142 0
M  V30 5722 H 548.465 4.28509 2.74331 0
M  V30 5723 H 547.863 2.25152 5.18963 0
M  V30 5724 H 546.42 2.94228 5.81613 0
M  V30 5725 N 549.853 -0.472356 1.50355 0
M  V30 5726 C 550.8 -1.57051 1.69126 0
M  V30 5727 C 551.77 -1.5733 0.532574 0
M  V30 5728 O 552.955 -1.7488 0.762994 0
M  V30 5729 C 550.095 -2.95033 1.79024 0
M  V30 5730 C 549.208 -3.04552 3.06386 0
M  V30 5731 C 548.343 -4.33441 3.07087 0
M  V30 5732 C 547.382 -4.36697 4.28908 0
M  V30 5733 N 546.519 -5.57056 4.27356 0
M  V30 5734 H 551.359 -1.40351 2.62879 0
M  V30 5735 H 548.896 -0.682403 1.30314 0
M  V30 5736 H 550.854 -3.75048 1.82744 0
M  V30 5737 H 549.484 -3.10371 0.887109 0
M  V30 5738 H 548.536 -2.17419 3.12143 0
M  V30 5739 H 549.848 -3.02818 3.96362 0
M  V30 5740 H 549.002 -5.21801 3.09529 0
M  V30 5741 H 547.741 -4.37782 2.14939 0
M  V30 5742 H 546.746 -3.46734 4.2668 0
M  V30 5743 H 547.971 -4.34049 5.22282 0
M  V30 5744 H 545.917 -5.62184 3.3806 0
M  V30 5745 H 545.834 -5.57058 5.111 0
M  V30 5746 H 547.102 -6.47545 4.33942 0
M  V30 5747 N 551.331 -1.39911 -0.725443 0
M  V30 5748 C 552.559 -1.40949 -1.51463 0
M  V30 5749 C 552.974 -0.0065242 -1.88799 0
M  V30 5750 O 552.331 0.967163 -1.54765 0
M  V30 5751 C 552.382 -2.29119 -2.79619 0
M  V30 5752 O 552.103 -3.63952 -2.43866 0
M  V30 5753 C 553.604 -2.38642 -3.73584 0
M  V30 5754 H 550.824 -0.481091 -0.467752 0
M  V30 5755 H 553.368 -1.83843 -0.895651 0
M  V30 5756 H 551.523 -1.89612 -3.37826 0
M  V30 5757 H 551.937 -4.10677 -3.26258 0
M  V30 5758 H 553.411 -3.04563 -4.60375 0
M  V30 5759 H 553.888 -1.40846 -4.16004 0
M  V30 5760 H 554.494 -2.78659 -3.21293 0
M  V30 5761 N 552.809 0.956637 -1.25245 0
M  V30 5762 C 553.772 2.03457 -1.05537 0
M  V30 5763 C 554.772 1.60798 -0.00886317 0
M  V30 5764 O 555.962 1.72384 -0.250865 0
M  V30 5765 C 553.094 3.35543 -0.601965 0
M  V30 5766 H 554.287 2.22372 -2.01223 0
M  V30 5767 H 551.84 1.13344 -1.07623 0
M  V30 5768 H 552.575 3.22323 0.357584 0
M  V30 5769 H 552.36 3.67854 -1.35743 0
M  V30 5770 H 553.85 4.14769 -0.485454 0
M  V30 5771 N 554.287 1.06798 1.15896 0
M  V30 5772 C 555.527 0.797041 1.8822 0
M  V30 5773 C 555.891 -0.664549 1.80133 0
M  V30 5774 O 557.092 -1.0503 2.47431 0
M  V30 5775 C 555.363 1.28431 3.33527 0
M  V30 5776 S 556.922 1.14319 4.23647 0
M  V30 5777 H 553.74 0.288988 0.649621 0
M  V30 5778 H 556.342 1.36594 1.39865 0
M  V30 5779 H 555.046 2.34286 3.36954 0
M  V30 5780 H 554.577 0.710371 3.86933 0
M  V30 5781 H 556.592 0.0772467 4.9614 0
M  V30 5782 N 555.766 -1.3263 0.851289 0
M  V30 5783 C 556.996 -2.01271 0.466222 0
M  V30 5784 C 557.404 -1.64156 -0.940714 0
M  V30 5785 O 556.747 -0.857109 -1.62479 0
M  V30 5786 C 556.809 -3.55695 0.521672 0
M  V30 5787 C 556.473 -4.16227 1.88691 0
M  V30 5788 C 557.47 -4.34699 2.85189 0
M  V30 5789 C 555.155 -4.52377 2.18313 0
M  V30 5790 C 557.149 -4.88484 4.09465 0
M  V30 5791 C 554.836 -5.05868 3.42843 0
M  V30 5792 C 555.834 -5.23869 4.38235 0
M  V30 5793 O 555.522 -5.76218 5.6056 0
M  V30 5794 H 555.254 -0.651034 0.18202 0
M  V30 5795 H 557.808 -1.7026 1.14894 0
M  V30 5796 H 556.038 -3.86086 -0.217888 0
M  V30 5797 H 557.727 -4.05613 0.152682 0
M  V30 5798 H 558.493 -4.07107 2.63607 0
M  V30 5799 H 554.372 -4.37652 1.44851 0
M  V30 5800 H 557.916 -5.02451 4.83931 0
M  V30 5801 H 553.813 -5.32891 3.64277 0
M  V30 5802 H 554.581 -5.94616 5.62471 0
M  V30 5803 N 557.244 -0.608902 -1.45362 0
M  V30 5804 C 558.492 -0.104401 -2.0183 0
M  V30 5805 C 558.813 1.27007 -1.47967 0
M  V30 5806 O 558.083 1.83924 -0.674455 0
M  V30 5807 H 556.663 -0.0356042 -0.746151 0
M  V30 5808 H 559.325 -0.790596 -1.78145 0
M  V30 5809 H 558.421 -0.0551793 -3.12051 0
M  V30 5810 N 558.722 1.53707 -0.348139 0
M  V30 5811 C 559.672 2.2193 0.522592 0
M  V30 5812 C 560.656 1.20831 1.06248 0
M  V30 5813 O 561.848 1.46357 0.995415 0
M  V30 5814 C 558.977 2.99904 1.6707 0
M  V30 5815 C 558.063 4.08364 1.14454 0
M  V30 5816 N 558.454 5.04656 0.339958 0
M  V30 5817 C 556.752 4.22757 1.421 0
M  V30 5818 C 557.453 5.81675 0.0538806 0
M  V30 5819 N 556.429 5.39739 0.646776 0
M  V30 5820 H 560.231 2.93733 -0.099135 0
M  V30 5821 H 557.745 1.61656 -0.15524 0
M  V30 5822 H 559.742 3.47284 2.30651 0
M  V30 5823 H 558.402 2.29629 2.29566 0
M  V30 5824 H 559.413 5.17896 -0.0193552 0
M  V30 5825 H 556.09 3.63704 2.05002 0
M  V30 5826 H 557.48 6.69256 -0.595443 0
M  V30 5827 N 560.2 0.0768682 1.57412 0
M  V30 5828 C 561.447 -0.591085 1.93681 0
M  V30 5829 C 561.775 -1.69311 0.957286 0
M  V30 5830 O 561.03 -1.95682 -0.0262428 0
M  V30 5831 C 561.329 -1.20268 3.36557 0
M  V30 5832 C 560.995 -0.226286 4.50332 0
M  V30 5833 C 559.657 0.0423142 4.81181 0
M  V30 5834 C 562.009 0.441415 5.19327 0
M  V30 5835 C 559.337 0.985616 5.78362 0
M  V30 5836 C 561.689 1.37307 6.17519 0
M  V30 5837 C 560.353 1.65009 6.46783 0
M  V30 5838 H 559.623 -0.216293 0.70873 0
M  V30 5839 H 562.27 0.148824 1.90921 0
M  V30 5840 H 560.575 -2.01844 3.35807 0
M  V30 5841 H 562.272 -1.72688 3.61911 0
M  V30 5842 H 558.862 -0.445821 4.26275 0
M  V30 5843 H 563.046 0.247023 4.95685 0
M  V30 5844 H 558.302 1.20743 5.99359 0
M  V30 5845 H 562.476 1.89637 6.70083 0
M  V30 5846 H 560.103 2.38263 7.21897 0
M  V30 5847 N 561.678 -1.56367 -0.196722 0
M  V30 5848 C 562.926 -1.80172 -0.915554 0
M  V30 5849 C 563.247 -0.649649 -1.8386 0
M  V30 5850 O 562.517 0.332111 -1.93064 0
M  V30 5851 H 561.097 -0.664592 -0.341067 0
M  V30 5852 H 563.759 -1.93844 -0.202622 0
M  V30 5853 H 562.855 -2.7327 -1.50764 0
M  V30 5854 N 563.156 0.464375 -1.50603 0
M  V30 5855 C 564.572 0.798684 -1.38178 0
M  V30 5856 C 564.772 1.96568 -0.44308 0
M  V30 5857 O 563.828 2.52252 0.111814 0
M  V30 5858 C 565.141 1.10444 -2.79683 0
M  V30 5859 C 566.689 1.2105 -2.88645 0
M  V30 5860 C 567.164 1.54934 -4.30998 0
M  V30 5861 N 568.655 1.61913 -4.3398 0
M  V30 5862 C 569.39 1.8965 -5.41129 0
M  V30 5863 N 568.886 2.15361 -6.58477 0
M  V30 5864 N 570.679 1.91207 -5.28579 0
M  V30 5865 H 562.83 -0.304603 -2.10204 0
M  V30 5866 H 565.093 -0.0737804 -0.945125 0
M  V30 5867 H 564.799 0.319934 -3.50242 0
M  V30 5868 H 564.673 2.03896 -3.17342 0
M  V30 5869 H 567.06 1.98567 -2.18301 0
M  V30 5870 H 567.141 0.255613 -2.5452 0
M  V30 5871 H 566.785 0.779549 -5.01882 0
M  V30 5872 H 566.715 2.51584 -4.62615 0
M  V30 5873 H 569.206 1.44055 -3.49366 0
M  V30 5874 H 569.519 2.35818 -7.35941 0
M  V30 5875 H 567.864 2.1274 -6.6164 0
M  V30 5876 H 571.055 1.70622 -4.35897 0
M  V30 5877 H 571.228 2.12488 -6.12171 0
M  V30 5878 N 564.634 1.40294 0.718013 0
M  V30 5879 C 565.859 1.41941 1.5122 0
M  V30 5880 C 566.284 0.0202371 1.88089 0
M  V30 5881 O 565.642 -0.971078 1.53101 0
M  V30 5882 C 565.69 2.3141 2.76554 0
M  V30 5883 O 564.794 1.75567 3.73162 0
M  V30 5884 H 564.135 0.482644 0.456016 0
M  V30 5885 H 566.665 1.84494 0.884478 0
M  V30 5886 H 566.675 2.46513 3.25108 0
M  V30 5887 H 565.35 3.33085 2.49053 0
M  V30 5888 H 563.927 1.69798 3.31999 0
M  V30 5889 N 566.112 -0.949982 1.2575 0
M  V30 5890 C 567.022 -2.08109 1.08295 0
M  V30 5891 C 568.038 -1.7399 0.0188181 0
M  V30 5892 O 569.214 -2.00187 0.220724 0
M  V30 5893 C 566.279 -3.39383 0.708534 0
M  V30 5894 C 565.34 -3.8734 1.85111 0
M  V30 5895 C 564.573 -5.12349 1.49447 0
M  V30 5896 O 564.796 -5.6905 0.392212 0
M  V30 5897 O 563.73 -5.5513 2.32624 0
M  V30 5898 H 567.556 -2.25738 2.03165 0
M  V30 5899 H 565.141 -1.06545 1.04731 0
M  V30 5900 H 567.023 -4.18277 0.512061 0
M  V30 5901 H 565.698 -3.23013 -0.210854 0
M  V30 5902 H 564.605 -3.09429 2.10248 0
M  V30 5903 H 565.938 -4.08216 2.74991 0
M  V30 5904 N 567.59 -1.07411 -1.15328 0
M  V30 5905 C 568.837 -0.797649 -1.86128 0
M  V30 5906 C 569.165 0.676298 -1.82364 0
M  V30 5907 O 568.42 1.51223 -1.24218 0
M  V30 5908 C 568.719 -1.25191 -3.34757 0
M  V30 5909 C 568.385 -2.73191 -3.58716 0
M  V30 5910 C 567.047 -3.13616 -3.64964 0
M  V30 5911 C 569.399 -3.68718 -3.6837 0
M  V30 5912 C 566.727 -4.48383 -3.78377 0
M  V30 5913 C 569.079 -5.03248 -3.83306 0
M  V30 5914 C 567.743 -5.43293 -3.878 0
M  V30 5915 H 567.013 -0.29188 -0.681092 0
M  V30 5916 H 569.66 -1.34524 -1.36292 0
M  V30 5917 H 567.965 -0.623712 -3.86804 0
M  V30 5918 H 569.662 -1.01489 -3.87945 0
M  V30 5919 H 566.252 -2.40898 -3.54494 0
M  V30 5920 H 570.436 -3.38614 -3.62842 0
M  V30 5921 H 565.692 -4.78877 -3.80114 0
M  V30 5922 H 569.866 -5.77142 -3.89718 0
M  V30 5923 H 567.493 -6.47721 -3.97946 0
M  V30 5924 N 569.068 1.32177 -0.85831 0
M  V30 5925 C 570.479 1.79381 -0.517621 0
M  V30 5926 C 570.83 1.70841 0.964769 0
M  V30 5927 O 569.955 1.26917 1.75274 0
M  V30 5928 C 570.55 3.25706 -0.932801 0
M  V30 5929 C 569.109 3.70851 -0.643953 0
M  V30 5930 C 568.256 2.53208 -1.13054 0
M  V30 5931 H 571.207 1.19424 -1.04516 0
M  V30 5932 H 571.228 3.79673 -0.250674 0
M  V30 5933 H 570.74 3.31889 -2.01174 0
M  V30 5934 H 568.841 3.70178 0.424112 0
M  V30 5935 H 568.954 4.63495 -1.21281 0
M  V30 5936 H 567.318 2.48676 -0.550679 0
M  V30 5937 H 568.101 2.62143 -2.21666 0
M  V30 5938 N 570.547 0.616602 1.45037 0
M  V30 5939 C 571.793 0.123965 2.03022 0
M  V30 5940 C 572.148 -1.23508 1.47525 0
M  V30 5941 O 571.441 -1.80453 0.643981 0
M  V30 5942 C 571.635 0.0356829 3.57382 0
M  V30 5943 C 571.464 1.38462 4.27853 0
M  V30 5944 C 570.234 1.96766 4.65415 0
M  V30 5945 C 572.432 2.31536 4.59234 0
M  V30 5946 N 570.414 3.25046 5.20786 0
M  V30 5947 C 571.785 3.4442 5.15533 0
M  V30 5948 C 573.84 2.30796 4.41178 0
M  V30 5949 C 572.543 4.56742 5.55679 0
M  V30 5950 C 574.569 3.42171 4.82362 0
M  V30 5951 C 573.931 4.53778 5.38762 0
M  V30 5952 H 570.03 0.0889428 0.776925 0
M  V30 5953 H 572.614 0.816925 1.76733 0
M  V30 5954 H 570.785 -0.62652 3.83314 0
M  V30 5955 H 572.517 -0.464443 4.02026 0
M  V30 5956 H 569.272 1.4987 4.49261 0
M  V30 5957 H 569.696 3.90592 5.52962 0
M  V30 5958 H 574.338 1.45765 3.96878 0
M  V30 5959 H 572.056 5.42491 5.9894 0
M  V30 5960 H 575.642 3.42757 4.70116 0
M  V30 5961 H 574.522 5.38536 5.70043 0
M  V30 5962 N 572.025 -1.5352 0.356285 0
M  V30 5963 C 572.935 -2.29151 -0.502712 0
M  V30 5964 C 573.951 -1.34753 -1.1008 0
M  V30 5965 O 575.127 -1.67803 -1.11374 0
M  V30 5966 C 572.192 -3.05911 -1.63154 0
M  V30 5967 C 571.253 -4.15958 -1.06194 0
M  V30 5968 C 570.486 -4.8905 -2.13696 0
M  V30 5969 O 570.709 -4.61919 -3.34645 0
M  V30 5970 O 569.643 -5.75202 -1.77275 0
M  V30 5971 H 573.469 -3.03492 0.112466 0
M  V30 5972 H 571.054 -1.4891 0.120942 0
M  V30 5973 H 572.936 -3.53874 -2.28804 0
M  V30 5974 H 571.611 -2.34415 -2.23229 0
M  V30 5975 H 570.518 -3.7227 -0.369603 0
M  V30 5976 H 571.851 -4.89593 -0.505872 0
M  V30 5977 N 573.503 -0.0852151 -1.57369 0
M  V30 5978 C 574.749 0.581666 -1.94279 0
M  V30 5979 C 575.082 1.68444 -0.966446 0
M  V30 5980 O 574.357 1.945 0.00215277 0
M  V30 5981 C 574.64 1.14609 -3.41375 0
M  V30 5982 C 574.493 0.0490414 -4.49773 0
M  V30 5983 C 575.812 2.04751 -3.8957 0
M  V30 5984 H 572.931 0.209972 -0.706456 0
M  V30 5985 H 575.573 -0.153915 -1.89376 0
M  V30 5986 H 573.723 1.77297 -3.45685 0
M  V30 5987 H 575.395 -0.584721 -4.57579 0
M  V30 5988 H 573.638 -0.618638 -4.29366 0
M  V30 5989 H 574.309 0.484601 -5.49869 0
M  V30 5990 H 576.785 1.51981 -3.87351 0
M  V30 5991 H 575.661 2.41173 -4.93079 0
M  V30 5992 H 575.922 2.96107 -3.28288 0
M  V30 5993 N 574.981 1.5647 0.188427 0
M  V30 5994 C 576.392 1.70864 0.752494 0
M  V30 5995 C 576.743 0.692905 1.83557 0
M  V30 5996 O 575.868 -0.149307 2.15884 0
M  V30 5997 C 576.463 3.09789 1.37173 0
M  V30 5998 C 575.022 3.25925 1.88281 0
M  V30 5999 C 574.169 2.66817 0.755259 0
M  V30 6000 H 577.12 1.58657 -0.0367408 0
M  V30 6001 H 577.141 3.07489 2.24122 0
M  V30 6002 H 576.653 3.83693 0.583219 0
M  V30 6003 H 574.754 2.56948 2.6983 0
M  V30 6004 H 574.867 4.33498 2.04001 0
M  V30 6005 H 573.231 2.2617 1.17128 0
M  V30 6006 H 574.014 3.43294 -0.0211237 0
M  V30 6007 N 576.459 -0.456382 1.50847 0
M  V30 6008 C 577.875 -0.791345 1.386 0
M  V30 6009 C 578.075 -1.9633 0.453498 0
M  V30 6010 O 577.131 -2.52308 -0.0984353 0
M  V30 6011 C 578.444 -1.08959 2.80265 0
M  V30 6012 C 579.992 -1.19517 2.89283 0
M  V30 6013 C 580.467 -1.52647 4.31814 0
M  V30 6014 N 581.958 -1.59609 4.34832 0
M  V30 6015 C 582.693 -1.86777 5.42127 0
M  V30 6016 N 582.189 -2.11866 6.59609 0
M  V30 6017 N 583.982 -1.88402 5.29586 0
M  V30 6018 H 576.133 0.315746 2.1004 0
M  V30 6019 H 578.396 0.0787916 0.94472 0
M  V30 6020 H 578.102 -0.301355 3.50407 0
M  V30 6021 H 577.976 -2.02211 3.18419 0
M  V30 6022 H 580.363 -1.97406 2.19351 0
M  V30 6023 H 580.444 -0.242111 2.54652 0
M  V30 6024 H 580.088 -0.752922 5.02288 0
M  V30 6025 H 580.018 -2.49127 4.63943 0
M  V30 6026 H 582.509 -1.42201 3.50125 0
M  V30 6027 H 582.822 -2.31912 7.37182 0
M  V30 6028 H 581.167 -2.09228 6.62758 0
M  V30 6029 H 584.358 -1.68307 4.36795 0
M  V30 6030 H 584.531 -2.09238 6.13289 0
M  V30 6031 N 577.937 -1.40673 -0.710563 0
M  V30 6032 C 578.884 -1.41336 -1.82463 0
M  V30 6033 C 579.854 -0.269648 -1.63897 0
M  V30 6034 O 581.039 -0.468463 -1.8496 0
M  V30 6035 C 578.179 -1.28665 -3.20218 0
M  V30 6036 C 577.292 -2.52784 -3.5032 0
M  V30 6037 C 576.427 -2.32517 -4.77608 0
M  V30 6038 C 575.466 -3.52187 -5.0063 0
M  V30 6039 N 574.603 -3.31084 -6.19135 0
M  V30 6040 H 579.443 -2.36558 -1.8123 0
M  V30 6041 H 576.98 -1.17483 -0.885226 0
M  V30 6042 H 578.938 -1.19324 -3.99772 0
M  V30 6043 H 577.568 -0.370602 -3.20666 0
M  V30 6044 H 576.62 -2.72634 -2.65283 0
M  V30 6045 H 577.932 -3.41845 -3.63241 0
M  V30 6046 H 577.086 -2.20558 -5.65189 0
M  V30 6047 H 575.825 -1.40889 -4.66906 0
M  V30 6048 H 574.83 -3.64617 -4.11502 0
M  V30 6049 H 576.055 -4.44749 -5.13201 0
M  V30 6050 H 574.001 -2.42143 -6.09674 0
M  V30 6051 H 573.918 -4.13713 -6.32754 0
M  V30 6052 H 575.186 -3.22868 -7.0949 0
M  V30 6053 N 579.415 0.9433 -1.26252 0
M  V30 6054 C 580.345 2.05902 -1.10122 0
M  V30 6055 C 581.326 1.70099 -0.00700552 0
M  V30 6056 O 582.511 1.93377 -0.178641 0
M  V30 6057 C 579.641 3.39516 -0.731175 0
M  V30 6058 C 578.595 3.89372 -1.77688 0
M  V30 6059 C 577.921 5.19613 -1.26122 0
M  V30 6060 C 579.221 4.14489 -3.17799 0
M  V30 6061 H 580.915 2.19655 -2.03451 0
M  V30 6062 H 578.461 1.05548 -0.979576 0
M  V30 6063 H 580.414 4.17031 -0.605215 0
M  V30 6064 H 579.138 3.25733 0.23782 0
M  V30 6065 H 577.797 3.14036 -1.89148 0
M  V30 6066 H 577.445 5.02208 -0.282128 0
M  V30 6067 H 577.145 5.53939 -1.96023 0
M  V30 6068 H 578.669 5.99713 -1.14789 0
M  V30 6069 H 580.083 4.82625 -3.09428 0
M  V30 6070 H 578.48 4.60094 -3.85271 0
M  V30 6071 H 579.55 3.20347 -3.64014 0
M  V30 6072 N 580.893 1.08022 1.14757 0
M  V30 6073 C 582.139 0.808705 1.85978 0
M  V30 6074 C 582.472 -0.663764 1.82504 0
M  V30 6075 O 581.747 -1.48765 1.25296 0
M  V30 6076 C 582.03 1.32623 3.34788 0
M  V30 6077 C 581.883 2.86375 3.46856 0
M  V30 6078 C 583.202 0.948291 4.29762 0
M  V30 6079 H 580.321 0.295244 0.675278 0
M  V30 6080 H 582.963 1.33917 1.34783 0
M  V30 6081 H 581.113 0.875002 3.78518 0
M  V30 6082 H 582.785 3.39839 3.11941 0
M  V30 6083 H 581.028 3.24232 2.88194 0
M  V30 6084 H 581.699 3.17658 4.51439 0
M  V30 6085 H 584.175 1.33722 3.94028 0
M  V30 6086 H 583.051 1.33765 5.32352 0
M  V30 6087 H 583.312 -0.145094 4.41862 0
M  V30 6088 N 582.371 -1.3172 0.865308 0
M  V30 6089 C 583.618 -1.96876 0.473931 0
M  V30 6090 C 583.946 -1.68425 -0.972786 0
M  V30 6091 O 583.201 -0.970742 -1.69927 0
M  V30 6092 C 583.5 -3.5102 0.672283 0
M  V30 6093 C 583.166 -3.9948 2.09108 0
M  V30 6094 C 581.828 -4.12425 2.4791 0
M  V30 6095 C 584.18 -4.2503 3.0166 0
M  V30 6096 C 581.508 -4.48267 3.78515 0
M  V30 6097 C 583.86 -4.62335 4.31774 0
M  V30 6098 C 582.524 -4.73486 4.70497 0
M  V30 6099 H 581.794 -0.72042 0.173424 0
M  V30 6100 H 584.441 -1.56937 1.0974 0
M  V30 6101 H 582.746 -3.91785 -0.034356 0
M  V30 6102 H 584.443 -3.99475 0.349353 0
M  V30 6103 H 581.033 -3.89898 1.77981 0
M  V30 6104 H 585.217 -4.14529 2.7291 0
M  V30 6105 H 580.473 -4.55097 4.08285 0
M  V30 6106 H 584.647 -4.81058 5.03543 0
M  V30 6107 H 582.274 -5.01016 5.71741 0
M  V30 6108 O 583.888 -0.764371 -1.42266 0
M  V30 6109 H 584.579 -0.325849 -1.9094 0
M  V30 END ATOM
M  V30 BEGIN BOND
M  V30 END BOND
M  V30 END CTAB
M  END
$$$$
