drugbank_drug|DB04959 CH602_MYCBO 60 kDa chaperonin 2 - Mycobacterium bovis
 OpenBabel12092119133D

  0  0  0     0  0            999 V3000
M  V30 BEGIN CTAB
M  V30 COUNTS 8092 8126 0 0 0
M  V30 BEGIN ATOM
M  V30 1 H -0.908 1.98254 -0.117106 0
M  V30 2 N 0 1.576 0 0
M  V30 3 C 0.933 2.03868 1.02534 0
M  V30 4 C 1.911 0.928543 1.3348 0
M  V30 5 O 3.095 1.19667 1.45644 0
M  V30 6 C 0.222 2.43627 2.35294 0
M  V30 7 C -0.732 3.65373 2.2001 0
M  V30 8 S 0.101 5.13292 1.52614 0
M  V30 9 C 1.257 5.56322 2.86805 0
M  V30 10 H 1.49 2.90518 0.631377 0
M  V30 11 H -0.977 1.52953 0.210867 0
M  V30 12 H 0.981 2.67203 3.11629 0
M  V30 13 H -0.358 1.57376 2.7183 0
M  V30 14 H -1.165 3.90944 3.18086 0
M  V30 15 H -1.563 3.418 1.51819 0
M  V30 16 H 0.729 5.58782 3.83104 0
M  V30 17 H 1.672 6.56266 2.65933 0
M  V30 18 H 2.08 4.83886 2.90714 0
M  V30 19 N 1.4781 -0.272755 1.55222 0
M  V30 20 C 2.4411 -1.32041 1.87344 0
M  V30 21 C 3.4411 -1.42342 0.74803 0
M  V30 22 O 4.6311 -1.41488 1.0162 0
M  V30 23 C 1.7631 -2.70173 2.07893 0
M  V30 24 H 2.9561 -1.04789 2.80997 0
M  V30 25 H 0.5091 -0.51083 1.47717 0
M  V30 26 H 1.2441 -3.02605 1.16622 0
M  V30 27 H 1.0291 -2.64082 2.89833 0
M  V30 28 H 2.5191 -3.45869 2.34017 0
M  V30 29 N 2.9562 -1.48159 -0.537278 0
M  V30 30 C 3.9032 -1.62138 -1.64256 0
M  V30 31 C 4.8732 -0.463668 -1.59497 0
M  V30 32 O 6.0582 -0.686241 -1.78032 0
M  V30 33 C 3.1982 -1.66028 -3.02537 0
M  V30 34 C 2.3112 -2.92855 -3.17585 0
M  V30 35 C 1.4462 -2.87952 -4.46382 0
M  V30 36 C 0.4852 -4.09516 -4.54932 0
M  V30 37 N -0.3778 -4.02733 -5.75109 0
M  V30 38 H 4.4622 -2.56529 -1.51647 0
M  V30 39 H 1.9992 -1.27224 -0.738414 0
M  V30 40 H 3.9572 -1.66265 -3.82638 0
M  V30 41 H 2.5872 -0.751331 -3.13934 0
M  V30 42 H 1.6392 -3.02395 -2.30784 0
M  V30 43 H 2.9512 -3.82822 -3.19764 0
M  V30 44 H 2.1052 -2.8655 -5.34765 0
M  V30 45 H 0.8442 -1.95702 -4.46712 0
M  V30 46 H -0.1508 -4.11201 -3.64957 0
M  V30 47 H 1.0742 -5.02917 -4.56346 0
M  V30 48 H -0.9798 -3.13299 -5.76351 0
M  V30 49 H -1.0628 -4.86397 -5.78752 0
M  V30 50 H 0.2052 -4.05379 -6.65799 0
M  V30 51 N 4.4343 0.785586 -1.36625 0
M  V30 52 C 5.6623 1.57448 -1.3423 0
M  V30 53 C 6.0773 1.88649 0.0755653 0
M  V30 54 O 5.4343 1.50414 1.03354 0
M  V30 55 C 5.4853 2.89316 -2.16745 0
M  V30 56 O 5.2063 2.59459 -3.53005 0
M  V30 57 C 6.7073 3.83606 -2.22174 0
M  V30 58 H 3.9273 0.488226 -0.4603 0
M  V30 59 H 6.4713 0.974733 -1.79775 0
M  V30 60 H 4.6263 3.4575 -1.74745 0
M  V30 61 H 5.0403 3.43804 -3.96105 0
M  V30 62 H 6.5143 4.73181 -2.8426 0
M  V30 63 H 6.9913 4.21734 -1.22627 0
M  V30 64 H 7.5973 3.33104 -2.64427 0
M  V30 65 N 5.9124 1.20967 1.01018 0
M  V30 66 C 7.1614 1.01796 1.74128 0
M  V30 67 C 7.4744 -0.449691 1.90361 0
M  V30 68 O 8.6804 -0.76068 2.60626 0
M  V30 69 C 7.1364 1.7727 3.13215 0
M  V30 70 C 6.7444 3.28171 3.04972 0
M  V30 71 C 8.4884 1.66489 3.90489 0
M  V30 72 C 6.3954 3.96156 4.39107 0
M  V30 73 H 5.3254 0.377276 0.652824 0
M  V30 74 H 7.9764 1.44651 1.12909 0
M  V30 75 H 6.3584 1.27205 3.75013 0
M  V30 76 H 7.5324 3.85499 2.52443 0
M  V30 77 H 5.8474 3.39437 2.41188 0
M  V30 78 H 8.4444 2.14617 4.89738 0
M  V30 79 H 8.7874 0.6222 4.11624 0
M  V30 80 H 9.3204 2.14003 3.35332 0
M  V30 81 H 6.0594 5.00604 4.23174 0
M  V30 82 H 5.5794 3.43617 4.91617 0
M  V30 83 H 7.2584 4.00774 5.07926 0
M  V30 84 N 7.3905 -1.2043 1.01659 0
M  V30 85 C 8.3535 -2.21433 0.591616 0
M  V30 86 C 9.3535 -1.57203 -0.338226 0
M  V30 87 O 10.5435 -1.73737 -0.126918 0
M  V30 88 C 7.6755 -3.40628 -0.136058 0
M  V30 89 H 8.8685 -2.60545 1.48514 0
M  V30 90 H 6.4215 -1.33893 0.806379 0
M  V30 91 H 7.1565 -3.07019 -1.04449 0
M  V30 92 H 6.9415 -3.88475 0.531917 0
M  V30 93 H 8.4315 -4.15475 -0.420735 0
M  V30 94 N 8.8686 -0.792821 -1.36206 0
M  V30 95 C 10.0986 -0.378275 -2.03107 0
M  V30 96 C 10.5066 1.01119 -1.59911 0
M  V30 97 O 9.8496 1.66052 -0.785658 0
M  V30 98 C 9.9116 -0.366535 -3.57627 0
M  V30 99 C 9.5756 -1.70416 -4.24037 0
M  V30 100 C 10.5726 -2.6602 -4.46687 0
M  V30 101 C 8.2576 -1.98439 -4.6144 0
M  V30 102 C 10.2516 -3.8784 -5.05825 0
M  V30 103 C 7.9386 -3.20525 -5.20295 0
M  V30 104 C 8.9366 -4.15044 -5.42427 0
M  V30 105 O 8.6246 -5.34978 -6.00045 0
M  V30 106 H 8.3566 -0.153543 -0.658332 0
M  V30 107 H 10.9106 -1.07383 -1.75094 0
M  V30 108 H 9.1406 0.385539 -3.84773 0
M  V30 109 H 10.8296 0.0238088 -4.05893 0
M  V30 110 H 11.5956 -2.45658 -4.18183 0
M  V30 111 H 7.4746 -1.25686 -4.43536 0
M  V30 112 H 11.0186 -4.61628 -5.23015 0
M  V30 113 H 6.9156 -3.40764 -5.48225 0
M  V30 114 H 7.6836 -5.36088 -6.18508 0
M  V30 115 N 10.3467 1.47872 -0.545128 0
M  V30 116 C 11.6237 1.9554 0.0485222 0
M  V30 117 C 12.0037 1.4876 1.49779 0
M  V30 118 O 11.3517 0.720925 2.16829 0
M  V30 119 C 11.5617 3.48898 -0.084417 0
M  V30 120 C 12.9097 4.24547 0.0671239 0
M  V30 121 O 13.9337 3.56198 -0.0113649 0
M  V30 122 O 12.7927 5.45999 0.233882 0
M  V30 123 H 9.8867 0.823957 0.0708773 0
M  V30 124 H 12.4327 1.58327 -0.610798 0
M  V30 125 H 11.2047 3.75714 -1.09337 0
M  V30 126 H 10.8277 3.92845 0.613066 0
M  V30 127 N 11.8248 0.280983 1.55075 0
M  V30 128 C 12.7348 -0.61388 2.26426 0
M  V30 129 C 13.7508 -1.16521 1.29224 0
M  V30 130 O 14.9268 -1.19426 1.62171 0
M  V30 131 C 11.9918 -1.7788 2.9759 0
M  V30 132 C 11.0528 -1.26355 4.10284 0
M  V30 133 C 10.2858 -2.37295 4.78045 0
M  V30 134 O 10.5088 -3.56777 4.45047 0
M  V30 135 O 9.4428 -2.05119 5.65871 0
M  V30 136 H 13.2688 -0.0356932 3.03679 0
M  V30 137 H 10.8538 0.0481686 1.49322 0
M  V30 138 H 12.7358 -2.45791 3.42293 0
M  V30 139 H 11.4108 -2.34397 2.23249 0
M  V30 140 H 10.3178 -0.550735 3.70024 0
M  V30 141 H 11.6508 -0.744065 4.86543 0
M  V30 142 N 13.3029 -1.57598 0.00835791 0
M  V30 143 C 14.2129 -2.12385 -0.996487 0
M  V30 144 C 15.2289 -1.07108 -1.37127 0
M  V30 145 O 16.4049 -1.39055 -1.4569 0
M  V30 146 C 13.4699 -2.62314 -2.26699 0
M  V30 147 C 12.5309 -3.82225 -1.95456 0
M  V30 148 C 11.7639 -4.29763 -3.16449 0
M  V30 149 O 11.9869 -3.76584 -4.28416 0
M  V30 150 O 10.9209 -5.21832 -2.99958 0
M  V30 151 H 14.7469 -2.98479 -0.560725 0
M  V30 152 H 12.3319 -1.47903 -0.210987 0
M  V30 153 H 14.2139 -2.94589 -3.01322 0
M  V30 154 H 12.8889 -1.79313 -2.69497 0
M  V30 155 H 11.7959 -3.54909 -1.18282 0
M  V30 156 H 13.1289 -4.66324 -1.57489 0
M  V30 157 N 14.781 0.264519 -1.55364 0
M  V30 158 C 15.744 1.31046 -1.88042 0
M  V30 159 C 16.744 1.41943 -0.755569 0
M  V30 160 O 17.934 1.40947 -1.02369 0
M  V30 161 C 15.066 2.69067 -2.09323 0
M  V30 162 H 16.259 1.03297 -2.81549 0
M  V30 163 H 13.812 0.502989 -1.47986 0
M  V30 164 H 14.547 3.01982 -1.18226 0
M  V30 165 H 14.332 2.62542 -2.91229 0
M  V30 166 H 15.822 3.44623 -2.35848 0
M  V30 167 N 16.2591 1.48442 0.529413 0
M  V30 168 C 17.6751 1.34575 0.858004 0
M  V30 169 C 17.8751 0.3572 1.98309 0
M  V30 170 O 16.9311 -0.221379 2.51528 0
M  V30 171 C 18.2441 2.74617 1.22499 0
M  V30 172 C 19.7921 2.83109 1.33484 0
M  V30 173 C 20.2671 4.23854 1.73526 0
M  V30 174 N 21.7581 4.2653 1.80628 0
M  V30 175 C 22.4931 5.32372 2.12997 0
M  V30 176 N 21.9891 6.48491 2.43786 0
M  V30 177 N 23.7821 5.19766 2.14008 0
M  V30 178 H 15.9331 2.1133 -0.212925 0
M  V30 179 H 18.1961 0.947439 -0.0326199 0
M  V30 180 H 17.9021 3.4852 0.471905 0
M  V30 181 H 17.7761 3.08177 2.17501 0
M  V30 182 H 20.1631 2.09462 2.0787 0
M  V30 183 H 20.2441 2.53168 0.366027 0
M  V30 184 H 19.8881 4.98018 0.997013 0
M  V30 185 H 19.8181 4.5124 2.71459 0
M  V30 186 H 22.3091 3.42772 1.59108 0
M  V30 187 H 22.6221 7.24993 2.67592 0
M  V30 188 H 20.9671 6.51765 2.41304 0
M  V30 189 H 24.1581 4.28066 1.89412 0
M  V30 190 H 24.3311 6.02354 2.38902 0
M  V30 191 N 17.7372 -0.778329 1.37039 0
M  V30 192 C 19.1532 -1.07796 1.17695 0
M  V30 193 C 19.3532 -2.01498 0.00860115 0
M  V30 194 O 18.4092 -2.43901 -0.653352 0
M  V30 195 C 19.7222 -1.68178 2.49272 0
M  V30 196 C 21.2702 -1.80467 2.55735 0
M  V30 197 C 21.7452 -2.44263 3.87427 0
M  V30 198 N 23.2362 -2.51721 3.88833 0
M  V30 199 C 23.9712 -3.01919 4.87476 0
M  V30 200 N 23.4672 -3.5234 5.96513 0
M  V30 201 N 25.2602 -3.00733 4.74885 0
M  V30 202 H 17.4112 -0.156032 2.11826 0
M  V30 203 H 19.6742 -0.131844 0.938787 0
M  V30 204 H 19.3802 -1.06796 3.35093 0
M  V30 205 H 19.2542 -2.67554 2.65885 0
M  V30 206 H 21.6412 -2.40984 1.70325 0
M  V30 207 H 21.7222 -0.798656 2.43013 0
M  V30 208 H 21.3662 -1.84388 4.73248 0
M  V30 209 H 21.2962 -3.45458 3.9745 0
M  V30 210 H 23.7872 -2.1603 3.10063 0
M  V30 211 H 24.1002 -3.89027 6.67741 0
M  V30 212 H 22.4452 -3.50462 6.00168 0
M  V30 213 H 25.6362 -2.60638 3.88826 0
M  V30 214 H 25.8092 -3.39545 5.51918 0
M  V30 215 N 19.2153 -1.21501 -1.00376 0
M  V30 216 C 20.4633 -1.03095 -1.73827 0
M  V30 217 C 20.7843 0.436341 -1.90055 0
M  V30 218 O 20.0543 1.31466 -1.45236 0
M  V30 219 H 18.6343 -0.378487 -0.644016 0
M  V30 220 H 21.2963 -1.52831 -1.20949 0
M  V30 221 H 20.3923 -1.49991 -2.73695 0
M  V30 222 N 20.6934 1.19889 -1.02296 0
M  V30 223 C 21.6234 2.25141 -0.619174 0
M  V30 224 C 22.6044 1.66051 0.368915 0
M  V30 225 O 23.7894 1.92546 0.252941 0
M  V30 226 C 20.9194 3.4728 0.0368783 0
M  V30 227 C 19.8734 4.19005 -0.872865 0
M  V30 228 C 19.1994 5.34637 -0.0822402 0
M  V30 229 C 20.4994 4.74452 -2.18387 0
M  V30 230 H 22.1934 2.59171 -1.49903 0
M  V30 231 H 19.7394 1.24579 -0.722222 0
M  V30 232 H 21.6924 4.20098 0.330958 0
M  V30 233 H 20.4164 3.12433 0.95149 0
M  V30 234 H 19.0754 3.48061 -1.15105 0
M  V30 235 H 18.7234 4.96034 0.83422 0
M  V30 236 H 18.4234 5.83557 -0.688149 0
M  V30 237 H 19.9474 6.10255 0.205238 0
M  V30 238 H 21.3614 5.39055 -1.95172 0
M  V30 239 H 19.7584 5.33834 -2.74119 0
M  V30 240 H 20.8284 3.92844 -2.84257 0
M  V30 241 N 22.1715 0.800033 1.35784 0
M  V30 242 C 23.0815 0.207204 2.33683 0
M  V30 243 C 24.0975 -0.64631 1.61551 0
M  V30 244 O 25.2735 -0.559604 1.93469 0
M  V30 245 C 22.3385 -0.639659 3.40748 0
M  V30 246 C 21.3995 0.233585 4.28664 0
M  V30 247 C 20.6325 -0.572954 5.30616 0
M  V30 248 O 20.8555 -1.80816 5.40982 0
M  V30 249 O 19.7895 0.0327285 6.01891 0
M  V30 250 H 23.6155 1.01692 2.86169 0
M  V30 251 H 21.2005 0.561691 1.38439 0
M  V30 252 H 23.0825 -1.12223 4.06182 0
M  V30 253 H 21.7575 -1.42708 2.90544 0
M  V30 254 H 20.6645 0.763147 3.66233 0
M  V30 255 H 21.9975 0.984784 4.82248 0
M  V30 256 N 23.6496 -1.47581 0.552962 0
M  V30 257 C 25.0656 -1.5818 0.212424 0
M  V30 258 C 25.2656 -1.55213 -1.28496 0
M  V30 259 O 24.3216 -1.45329 -2.06484 0
M  V30 260 C 25.6346 -2.88865 0.835318 0
M  V30 261 C 27.1826 -3.0244 0.806156 0
M  V30 262 C 27.6576 -4.35819 1.40804 0
M  V30 263 N 29.1486 -4.42444 1.37103 0
M  V30 264 C 29.8836 -5.44202 1.80641 0
M  V30 265 N 29.3796 -6.52795 2.32015 0
M  V30 266 N 31.1726 -5.35222 1.71738 0
M  V30 267 H 23.3236 -1.47753 1.52587 0
M  V30 268 H 25.5866 -0.702941 0.636064 0
M  V30 269 H 25.2926 -2.9676 1.88749 0
M  V30 270 H 25.1666 -3.7579 0.325848 0
M  V30 271 H 27.5536 -2.94144 -0.237317 0
M  V30 272 H 27.6346 -2.17068 1.35334 0
M  V30 273 H 27.2786 -4.44871 2.45056 0
M  V30 274 H 27.2086 -5.19916 0.836338 0
M  V30 275 H 29.6996 -3.6456 0.995202 0
M  V30 276 H 30.0126 -7.26609 2.63171 0
M  V30 277 H 28.3576 -6.53696 2.36023 0
M  V30 278 H 31.5486 -4.49284 1.31382 0
M  V30 279 H 31.7216 -6.14389 2.05987 0
M  V30 280 N 25.1277 -0.289203 -1.54924 0
M  V30 281 C 26.3757 0.322879 -1.99504 0
M  V30 282 C 26.6967 1.55313 -1.1791 0
M  V30 283 O 25.9667 1.94001 -0.272097 0
M  V30 284 H 24.5467 0.122291 -0.736922 0
M  V30 285 H 27.2087 -0.397802 -1.90797 0
M  V30 286 H 26.3047 0.603061 -3.06218 0
M  V30 287 N 26.6058 1.57591 -0.0167156 0
M  V30 288 C 27.5358 2.12496 0.967858 0
M  V30 289 C 28.5168 1.03807 1.34752 0
M  V30 290 O 29.7018 1.31577 1.42833 0
M  V30 291 C 26.8318 2.64194 2.25431 0
M  V30 292 C 25.7858 3.77559 2.01576 0
M  V30 293 C 25.1118 4.15636 3.36379 0
M  V30 294 C 26.4118 5.04151 1.36489 0
M  V30 295 H 28.1058 2.95013 0.510643 0
M  V30 296 H 25.6518 1.41915 0.244181 0
M  V30 297 H 27.6048 3.01236 2.94678 0
M  V30 298 H 26.3288 1.78821 2.73296 0
M  V30 299 H 24.9878 3.40937 1.34751 0
M  V30 300 H 24.6358 3.27263 3.81979 0
M  V30 301 H 24.3358 4.92022 3.21229 0
M  V30 302 H 25.8598 4.5525 4.06915 0
M  V30 303 H 27.2738 5.38857 1.95718 0
M  V30 304 H 25.6708 5.85453 1.31776 0
M  V30 305 H 26.7408 4.83733 0.336219 0
M  V30 306 N 28.0839 -0.256276 1.55502 0
M  V30 307 C 29.0319 -1.33694 1.90338 0
M  V30 308 C 30.0259 -1.50299 0.781441 0
M  V30 309 O 31.2319 -1.51885 0.965966 0
M  V30 310 H 27.6069 -0.447483 0.60437 0
M  V30 311 H 29.5779 -1.01574 2.8058 0
M  V30 312 C 28.3269 -2.68724 2.20642 0
M  V30 313 H 27.6499 -2.56743 3.06469 0
M  V30 314 H 29.0899 -3.43237 2.48926 0
M  V30 315 C 27.5489 -3.21101 1.01959 0
M  V30 316 O 28.0789 -4.0084 0.262762 0
M  V30 317 N 26.2849 -2.79003 0.812746 0
M  V30 318 H 25.8319 -2.14271 1.42989 0
M  V30 319 H 25.7899 -3.14393 0.0203076 0
M  V30 320 N 29.562 -1.4872 -0.521534 0
M  V30 321 C 30.525 -1.63379 -1.60748 0
M  V30 322 C 31.525 -0.50661 -1.52611 0
M  V30 323 O 32.715 -0.772601 -1.5613 0
M  V30 324 C 29.847 -1.61192 -3.00383 0
M  V30 325 H 31.04 -2.60217 -1.49087 0
M  V30 326 H 28.593 -1.37444 -0.744235 0
M  V30 327 H 29.328 -0.65863 -3.17541 0
M  V30 328 H 29.113 -2.43032 -3.07698 0
M  V30 329 H 30.603 -1.7466 -3.7932 0
M  V30 330 N 31.0401 0.771051 -1.3745 0
M  V30 331 C 31.9701 1.89827 -1.3597 0
M  V30 332 C 32.9511 1.68562 -0.228216 0
M  V30 333 O 34.1361 1.8941 -0.428675 0
M  V30 334 C 31.2661 3.2712 -1.16662 0
M  V30 335 C 30.2201 3.6295 -2.2683 0
M  V30 336 C 29.5461 4.98791 -1.92644 0
M  V30 337 C 30.8461 3.69627 -3.69017 0
M  V30 338 H 32.5401 1.91323 -2.30295 0
M  V30 339 H 30.0861 0.919082 -1.10855 0
M  V30 340 H 32.0391 4.05615 -1.14256 0
M  V30 341 H 30.7631 3.26059 -0.187926 0
M  V30 342 H 29.4221 2.86763 -2.28392 0
M  V30 343 H 29.0701 4.94271 -0.933021 0
M  V30 344 H 28.7701 5.23733 -2.66416 0
M  V30 345 H 30.2941 5.79685 -1.91826 0
M  V30 346 H 31.7081 4.38273 -3.69581 0
M  V30 347 H 30.1051 4.06067 -4.41848 0
M  V30 348 H 31.1751 2.70273 -4.02592 0
M  V30 349 N 32.5182 1.22032 0.997298 0
M  V30 350 C 33.4812 0.987909 2.06816 0
M  V30 351 C 34.4812 -0.0440084 1.6074 0
M  V30 352 O 35.6712 0.194053 1.73116 0
M  V30 353 C 32.8032 0.49132 3.37341 0
M  V30 354 H 33.9962 1.93803 2.28868 0
M  V30 355 H 31.5492 1.03838 1.16822 0
M  V30 356 H 32.2842 -0.463364 3.20973 0
M  V30 357 H 32.0692 1.23575 3.72118 0
M  V30 358 H 33.5592 0.348824 4.16141 0
M  V30 359 N 33.9963 -1.19345 1.0293 0
M  V30 360 C 35.2733 -1.84811 0.640642 0
M  V30 361 C 35.6533 -1.91855 -0.88062 0
M  V30 362 O 35.0013 -1.43587 -1.7775 0
M  V30 363 C 35.2113 -3.23755 1.30321 0
M  V30 364 C 36.5593 -3.99912 1.42673 0
M  V30 365 O 37.5833 -3.33155 1.26041 0
M  V30 366 O 36.4423 -5.19494 1.6967 0
M  V30 367 H 33.5363 -0.796443 0.222726 0
M  V30 368 H 36.0823 -1.26831 1.12748 0
M  V30 369 H 34.8543 -3.13466 2.34211 0
M  V30 370 H 34.4773 -3.89381 0.804261 0
M  V30 371 N 35.4744 -0.807222 -1.35358 0
M  V30 372 C 36.4374 -0.223665 -2.28106 0
M  V30 373 C 37.4374 0.589354 -1.4961 0
M  V30 374 O 38.6274 0.407745 -1.69361 0
M  V30 375 C 35.7594 0.688149 -3.33882 0
M  V30 376 H 36.9524 -1.04169 -2.81227 0
M  V30 377 H 34.5054 -0.577921 -1.45223 0
M  V30 378 H 35.2404 1.52984 -2.85948 0
M  V30 379 H 35.0254 0.10687 -3.91954 0
M  V30 380 H 36.5154 1.09075 -4.03104 0
M  V30 381 N 36.9525 1.47285 -0.560781 0
M  V30 382 C 38.1985 2.02764 -0.0381184 0
M  V30 383 C 38.5315 1.43384 1.30976 0
M  V30 384 O 37.8065 0.590733 1.85312 0
M  V30 385 C 38.0895 3.60064 0.0511427 0
M  V30 386 C 37.9425 4.2987 -1.32408 0
M  V30 387 C 39.2615 4.33439 0.762795 0
M  V30 388 H 36.3805 0.736841 -0.0153264 0
M  V30 389 H 39.0225 1.75675 -0.723759 0
M  V30 390 H 37.1725 3.83274 0.635065 0
M  V30 391 H 38.8445 4.17989 -1.95148 0
M  V30 392 H 37.0875 3.90085 -1.8978 0
M  V30 393 H 37.7585 5.38478 -1.21431 0
M  V30 394 H 40.2345 4.15243 0.266965 0
M  V30 395 H 39.1105 5.43124 0.794221 0
M  V30 396 H 39.3715 4.02915 1.81966 0
M  V30 397 N 38.4306 0.297415 1.54768 0
M  V30 398 C 39.3776 -0.580276 2.23386 0
M  V30 399 C 40.3476 -1.13238 1.21517 0
M  V30 400 O 41.5326 -1.17757 1.50126 0
M  V30 401 C 38.6726 -1.74801 2.97555 0
M  V30 402 C 37.7856 -1.22764 4.1419 0
M  V30 403 C 36.9206 -2.35895 4.75949 0
M  V30 404 C 35.9596 -1.80974 5.84735 0
M  V30 405 N 35.0966 -2.87664 6.40464 0
M  V30 406 H 39.9366 0.0114833 2.97998 0
M  V30 407 H 37.4736 0.0174361 1.4709 0
M  V30 408 H 39.4316 -2.43475 3.38786 0
M  V30 409 H 38.0616 -2.31145 2.25326 0
M  V30 410 H 37.1136 -0.433271 3.77924 0
M  V30 411 H 38.4256 -0.785551 4.92575 0
M  V30 412 H 37.5796 -3.12523 5.20014 0
M  V30 413 H 36.3186 -2.83429 3.96887 0
M  V30 414 H 35.3236 -1.02834 5.40097 0
M  V30 415 H 36.5486 -1.34348 6.65678 0
M  V30 416 H 34.4946 -3.34538 5.64287 0
M  V30 417 H 34.4116 -2.4794 7.14186 0
M  V30 418 H 35.6796 -3.642 6.89187 0
M  V30 419 N 39.9087 -1.5758 0.0250728 0
M  V30 420 C 41.1547 -1.91917 -0.655413 0
M  V30 421 C 41.4877 -0.901433 -1.72011 0
M  V30 422 O 40.7627 0.0764069 -1.9435 0
M  V30 423 C 41.0457 -3.36751 -1.27558 0
M  V30 424 C 40.8987 -4.49258 -0.220719 0
M  V30 425 C 42.2177 -3.81469 -2.19475 0
M  V30 426 H 39.3367 -0.697925 -0.23679 0
M  V30 427 H 41.9787 -1.89825 0.0815036 0
M  V30 428 H 40.1287 -3.38664 -1.90365 0
M  V30 429 H 41.8007 -4.59478 0.409601 0
M  V30 430 H 40.0437 -4.31415 0.454264 0
M  V30 431 H 40.7147 -5.47618 -0.694175 0
M  V30 432 H 43.1907 -3.81266 -1.66659 0
M  V30 433 H 42.0667 -4.83512 -2.59822 0
M  V30 434 H 42.3277 -3.16744 -3.08424 0
M  V30 435 N 41.3868 0.248026 -1.55636 0
M  V30 436 C 42.6148 0.993808 -1.81469 0
M  V30 437 C 43.0298 1.78991 -0.60064 0
M  V30 438 O 42.3868 1.77345 0.430682 0
M  V30 439 C 42.4378 1.93258 -3.05506 0
M  V30 440 O 42.1588 1.16869 -4.22224 0
M  V30 441 C 43.6598 2.79444 -3.4413 0
M  V30 442 H 40.8798 0.292486 -0.603898 0
M  V30 443 H 43.4238 0.271253 -2.02693 0
M  V30 444 H 41.5788 2.60943 -2.86335 0
M  V30 445 H 41.9928 1.80359 -4.92515 0
M  V30 446 H 43.4668 3.41066 -4.34026 0
M  V30 447 H 43.9438 3.50499 -2.64665 0
M  V30 448 H 44.5498 2.17214 -3.65648 0
M  V30 449 N 42.8649 1.48995 0.513639 0
M  V30 450 C 43.7949 1.67636 1.62544 0
M  V30 451 C 44.7759 0.525087 1.61793 0
M  V30 452 O 45.9609 0.759502 1.78732 0
M  V30 453 C 43.0909 1.73114 3.01079 0
M  V30 454 C 42.0449 2.87905 3.16693 0
M  V30 455 C 41.3709 2.78486 4.56453 0
M  V30 456 C 42.6709 4.29005 2.97913 0
M  V30 457 H 44.3649 2.60716 1.47198 0
M  V30 458 H 41.9109 1.25465 0.706714 0
M  V30 459 H 43.8639 1.84742 3.78746 0
M  V30 460 H 42.5879 0.766241 3.17484 0
M  V30 461 H 41.2469 2.75859 2.41448 0
M  V30 462 H 40.8949 1.7993 4.69717 0
M  V30 463 H 40.5949 3.55523 4.67843 0
M  V30 464 H 42.1189 2.92104 5.36197 0
M  V30 465 H 43.5329 4.41798 3.65359 0
M  V30 466 H 41.9299 5.07166 3.20785 0
M  V30 467 H 42.9999 4.44329 1.94165 0
M  V30 468 N 44.343 -0.763751 1.37857 0
M  V30 469 C 45.591 -1.51957 1.33243 0
M  V30 470 C 45.912 -1.94835 -0.0801709 0
M  V30 471 O 45.182 -1.66894 -1.02582 0
M  V30 472 H 43.762 -0.563626 0.49024 0
M  V30 473 H 46.424 -0.908504 1.7243 0
M  V30 474 H 45.52 -2.41523 1.97669 0
M  V30 475 N 45.8211 -1.22559 -0.990812 0
M  V30 476 C 47.2321 -1.04791 -1.54518 0
M  V30 477 C 47.5831 0.387998 -1.92325 0
M  V30 478 O 46.7081 1.27328 -1.74976 0
M  V30 479 C 47.3031 -1.896 -2.80779 0
M  V30 480 C 45.8621 -1.76124 -3.32652 0
M  V30 481 C 45.0091 -1.8594 -2.05722 0
M  V30 482 H 47.9601 -1.36374 -0.811662 0
M  V30 483 H 47.9811 -1.41464 -3.53225 0
M  V30 484 H 47.4931 -2.94101 -2.53231 0
M  V30 485 H 45.5941 -0.743643 -3.65104 0
M  V30 486 H 45.7071 -2.58913 -4.03114 0
M  V30 487 H 44.0711 -1.29403 -2.19379 0
M  V30 488 H 44.8541 -2.91976 -1.80568 0
M  V30 489 N 47.2992 1.18797 -1.03562 0
M  V30 490 C 48.2462 2.22253 -0.622259 0
M  V30 491 C 49.2162 1.61987 0.36736 0
M  V30 492 O 50.4012 1.88986 0.262492 0
M  V30 493 C 47.5412 3.45097 0.0138462 0
M  V30 494 C 46.6542 4.19722 -1.02263 0
M  V30 495 C 45.7892 5.30009 -0.355573 0
M  V30 496 C 44.8282 5.96399 -1.37749 0
M  V30 497 N 43.9652 6.98234 -0.735766 0
M  V30 498 H 48.8052 2.56968 -1.50903 0
M  V30 499 H 46.3422 1.26245 -0.755017 0
M  V30 500 H 48.3002 4.15279 0.399948 0
M  V30 501 H 46.9302 3.11018 0.864158 0
M  V30 502 H 45.9822 3.48418 -1.52673 0
M  V30 503 H 47.2942 4.65227 -1.79903 0
M  V30 504 H 46.4482 6.0664 0.0850095 0
M  V30 505 H 45.1872 4.85592 0.452967 0
M  V30 506 H 44.1922 5.18512 -1.82826 0
M  V30 507 H 45.4172 6.42899 -2.18764 0
M  V30 508 H 43.3632 6.55979 0.0525597 0
M  V30 509 H 43.2802 7.41965 -1.44995 0
M  V30 510 H 44.5482 7.78845 -0.31941 0
M  V30 511 N 48.7773 0.814389 1.34928 0
M  V30 512 C 50.0253 0.397636 1.9815 0
M  V30 513 C 50.3463 -1.04069 1.64908 0
M  V30 514 O 49.6163 -1.72121 0.93548 0
M  V30 515 H 48.1963 0.144043 0.732981 0
M  V30 516 H 50.8583 1.04195 1.6471 0
M  V30 517 H 49.9543 0.509688 3.0791 0
M  V30 518 N 50.2554 -1.46986 0.568584 0
M  V30 519 C 51.6714 -1.57946 0.229189 0
M  V30 520 C 51.8714 -1.56567 -1.26843 0
M  V30 521 O 50.9274 -1.47511 -2.04931 0
M  V30 522 C 52.2404 -2.87963 0.865909 0
M  V30 523 C 53.7884 -3.01568 0.838188 0
M  V30 524 C 54.2634 -4.34301 1.45419 0
M  V30 525 N 55.7544 -4.40965 1.41788 0
M  V30 526 C 56.4894 -5.42256 1.86403 0
M  V30 527 N 55.9854 -6.50297 2.38926 0
M  V30 528 N 57.7784 -5.3337 1.77405 0
M  V30 529 H 49.9294 -1.46126 1.54146 0
M  V30 530 H 52.1924 -0.696156 0.643484 0
M  V30 531 H 51.8984 -2.94742 1.91886 0
M  V30 532 H 51.7724 -3.75423 0.365687 0
M  V30 533 H 54.1594 -2.94379 -0.206106 0
M  V30 534 H 54.2404 -2.1562 1.37629 0
M  V30 535 H 53.8844 -4.42247 2.49761 0
M  V30 536 H 53.8144 -5.19 0.891435 0
M  V30 537 H 56.3054 -3.63484 1.03381 0
M  V30 538 H 56.6184 -7.23777 2.70863 0
M  V30 539 H 54.9634 -6.51155 2.42944 0
M  V30 540 H 58.1544 -4.47865 1.3614 0
M  V30 541 H 58.3274 -6.12169 2.12492 0
M  V30 542 N 51.7335 -0.305618 -1.54608 0
M  V30 543 C 52.6815 0.584119 -2.25146 0
M  V30 544 C 53.6755 1.13326 -1.25911 0
M  V30 545 O 54.8815 1.08337 -1.43747 0
M  V30 546 H 51.2565 0.206983 -0.722954 0
M  V30 547 H 53.2275 -0.033291 -2.98381 0
M  V30 548 C 51.9765 1.74225 -3.009 0
M  V30 549 H 51.2995 1.32892 -3.77067 0
M  V30 550 H 52.7395 2.34077 -3.53531 0
M  V30 551 C 51.1985 2.64914 -2.0814 0
M  V30 552 O 51.7285 3.66137 -1.65246 0
M  V30 553 N 49.9345 2.3275 -1.74 0
M  V30 554 H 49.4815 1.50479 -2.09078 0
M  V30 555 H 49.4395 2.93694 -1.12211 0
M  V30 556 N 53.2116 1.57565 -0.0334293 0
M  V30 557 C 54.4576 1.92262 0.645226 0
M  V30 558 C 54.7906 0.910543 1.71531 0
M  V30 559 O 54.0656 -0.066099 1.94388 0
M  V30 560 C 54.3486 3.37422 1.2577 0
M  V30 561 C 54.2016 4.49369 0.196891 0
M  V30 562 C 55.5206 3.82628 2.17449 0
M  V30 563 H 52.6396 0.699171 0.233085 0
M  V30 564 H 55.2816 1.89779 -0.0915694 0
M  V30 565 H 53.4316 3.39669 1.88566 0
M  V30 566 H 55.1036 4.59254 -0.433962 0
M  V30 567 H 53.3466 4.31168 -0.477137 0
M  V30 568 H 54.0176 5.47978 0.665124 0
M  V30 569 H 56.4936 3.82145 1.64634 0
M  V30 570 H 55.3696 4.84883 2.57254 0
M  V30 571 H 55.6306 3.18376 3.0674 0
M  V30 572 N 54.6897 -0.239769 1.55765 0
M  V30 573 C 55.9357 -0.968234 1.78194 0
M  V30 574 C 56.2687 -1.84701 0.599938 0
M  V30 575 O 55.5437 -1.9031 -0.401524 0
M  V30 576 C 55.8267 -1.8227 3.10564 0
M  V30 577 C 55.6797 -0.971633 4.3918 0
M  V30 578 C 56.9987 -2.80388 3.39221 0
M  V30 579 H 54.1177 -0.350572 0.648281 0
M  V30 580 H 56.7597 -0.238259 1.885 0
M  V30 581 H 54.9097 -2.44507 3.01908 0
M  V30 582 H 56.5817 -0.367408 4.59835 0
M  V30 583 H 54.8247 -0.276276 4.32919 0
M  V30 584 H 55.4957 -1.60346 5.28198 0
M  V30 585 H 57.9717 -2.28287 3.47885 0
M  V30 586 H 56.8477 -3.3729 4.33044 0
M  V30 587 H 57.1087 -3.57212 2.60484 0
M  V30 588 N 56.1678 -1.49265 -0.50573 0
M  V30 589 C 57.0978 -1.68495 -1.61653 0
M  V30 590 C 58.0788 -0.53366 -1.61512 0
M  V30 591 O 59.2638 -0.76897 -1.78327 0
M  V30 592 C 56.3938 -1.74709 -3.00157 0
M  V30 593 C 55.3478 -2.89581 -3.15162 0
M  V30 594 C 54.6738 -2.80903 -4.5497 0
M  V30 595 C 55.9738 -4.30578 -2.95634 0
M  V30 596 H 57.6678 -2.61493 -1.45814 0
M  V30 597 H 55.2138 -1.25838 -0.70005 0
M  V30 598 H 57.1668 -1.86748 -3.77761 0
M  V30 599 H 55.8908 -0.783067 -3.17074 0
M  V30 600 H 54.5498 -2.77136 -2.39982 0
M  V30 601 H 54.1978 -1.82419 -4.68756 0
M  V30 602 H 53.8978 -3.57999 -4.65951 0
M  V30 603 H 55.4218 -2.94944 -5.34641 0
M  V30 604 H 56.8358 -4.4373 -3.63011 0
M  V30 605 H 55.2328 -5.0886 -3.18091 0
M  V30 606 H 56.3028 -4.45352 -1.91806 0
M  V30 607 N 57.6459 0.756429 -1.3826 0
M  V30 608 C 58.5559 1.9009 -1.37488 0
M  V30 609 C 59.5719 1.71855 -0.272366 0
M  V30 610 O 60.7479 1.94827 -0.510318 0
M  V30 611 C 57.8129 3.25421 -1.19592 0
M  V30 612 C 56.8739 3.56202 -2.39622 0
M  V30 613 C 56.1069 4.85075 -2.2257 0
M  V30 614 O 56.3299 5.57246 -1.21793 0
M  V30 615 O 55.2639 5.15269 -3.11098 0
M  V30 616 H 59.0899 1.93695 -2.33914 0
M  V30 617 H 56.6749 0.901313 -1.1915 0
M  V30 618 H 58.5569 4.06337 -1.11661 0
M  V30 619 H 57.2319 3.22634 -0.262486 0
M  V30 620 H 56.1389 2.75458 -2.53128 0
M  V30 621 H 57.4719 3.63747 -3.31586 0
M  V30 622 N 59.124 1.23083 0.984299 0
M  V30 623 C 60.071 1.00854 2.07598 0
M  V30 624 C 61.041 -0.0726709 1.65941 0
M  V30 625 O 62.226 0.0786535 1.90638 0
M  V30 626 C 59.366 0.601645 3.39815 0
M  V30 627 C 58.479 1.75456 3.94765 0
M  V30 628 C 57.614 1.29482 5.15177 0
M  V30 629 C 56.653 2.41873 5.62284 0
M  V30 630 N 55.79 1.96885 6.73929 0
M  V30 631 H 60.63 1.943 2.25946 0
M  V30 632 H 58.167 0.968001 1.10762 0
M  V30 633 H 60.125 0.346854 4.15756 0
M  V30 634 H 58.755 -0.295803 3.21442 0
M  V30 635 H 57.807 2.12346 3.15616 0
M  V30 636 H 59.119 2.59965 4.25699 0
M  V30 637 H 58.273 0.997923 5.98437 0
M  V30 638 H 57.012 0.420046 4.85888 0
M  V30 639 H 56.017 2.72342 4.77608 0
M  V30 640 H 57.242 3.29881 5.93595 0
M  V30 641 H 55.188 1.11782 6.46406 0
M  V30 642 H 55.105 2.74956 7.04227 0
M  V30 643 H 56.373 1.70289 7.60672 0
M  V30 644 N 60.6021 -1.18246 1.0419 0
M  V30 645 C 61.5491 -2.2192 0.634037 0
M  V30 646 C 62.5191 -1.62179 -0.358765 0
M  V30 647 O 63.7041 -1.89122 -0.252466 0
M  V30 648 C 60.8441 -3.451 0.00445535 0
M  V30 649 C 59.9571 -4.19174 1.04487 0
M  V30 650 C 59.0921 -5.29813 0.383676 0
M  V30 651 C 58.1311 -5.9566 1.4091 0
M  V30 652 N 57.2681 -6.97834 0.772784 0
M  V30 653 H 62.1081 -2.56164 1.52263 0
M  V30 654 H 59.6451 -1.25843 0.761701 0
M  V30 655 H 61.6031 -4.15485 -0.377919 0
M  V30 656 H 60.2331 -3.11472 -0.847652 0
M  V30 657 H 59.2851 -3.47604 1.54518 0
M  V30 658 H 60.5971 -4.64267 1.82368 0
M  V30 659 H 59.7511 -6.06677 -0.0528366 0
M  V30 660 H 58.4901 -4.85825 -0.427208 0
M  V30 661 H 57.4951 -5.17535 1.85574 0
M  V30 662 H 58.7201 -6.4173 2.22171 0
M  V30 663 H 56.6661 -6.55998 -0.0177708 0
M  V30 664 H 56.5831 -7.41186 1.48928 0
M  V30 665 H 57.8511 -7.78665 0.36071 0
M  V30 666 N 62.0802 -0.821533 -1.34494 0
M  V30 667 C 63.3262 -0.418729 -1.99043 0
M  V30 668 C 63.6812 1.00672 -1.6396 0
M  V30 669 O 62.9742 1.69132 -0.900271 0
M  V30 670 C 63.1682 -0.556512 -3.53041 0
M  V30 671 C 62.9972 -1.9938 -4.03085 0
M  V30 672 C 61.7672 -2.62539 -4.31742 0
M  V30 673 C 63.9652 -2.96035 -4.20556 0
M  V30 674 N 61.9472 -3.97523 -4.67813 0
M  V30 675 C 63.3182 -4.15924 -4.59791 0
M  V30 676 C 65.3732 -2.9267 -4.02801 0
M  V30 677 C 64.0762 -5.32899 -4.83126 0
M  V30 678 C 66.1022 -4.08861 -4.27302 0
M  V30 679 C 65.4642 -5.275 -4.66822 0
M  V30 680 H 61.5632 -0.201299 -0.755647 0
M  V30 681 H 64.1472 -1.06594 -1.62929 0
M  V30 682 H 62.3182 0.0607924 -3.88352 0
M  V30 683 H 64.0502 -0.126842 -4.04501 0
M  V30 684 H 60.8052 -2.13789 -4.22601 0
M  V30 685 H 61.2292 -4.67061 -4.90085 0
M  V30 686 H 65.8712 -2.02088 -3.71376 0
M  V30 687 H 63.5892 -6.24041 -5.13418 0
M  V30 688 H 67.1752 -4.07654 -4.15101 0
M  V30 689 H 66.0552 -6.15913 -4.85408 0
M  V30 690 N 63.5583 1.46682 -0.576371 0
M  V30 691 C 64.8063 2.02013 -0.0594163 0
M  V30 692 C 65.1273 1.45101 1.30271 0
M  V30 693 O 64.3973 0.633317 1.8538 0
M  V30 694 H 62.9773 0.746759 -0.0189745 0
M  V30 695 H 65.6393 1.79862 -0.750717 0
M  V30 696 H 64.7353 3.12097 0.014345 0
M  V30 697 N 65.0364 0.313813 1.54444 0
M  V30 698 C 65.9994 -0.54379 2.22656 0
M  V30 699 C 66.9994 -1.05124 1.21678 0
M  V30 700 O 68.1894 -0.945225 1.46325 0
M  V30 701 C 65.3214 -1.75427 2.92298 0
M  V30 702 H 66.5144 0.0523599 2.99854 0
M  V30 703 H 64.0674 0.0647834 1.56166 0
M  V30 704 H 64.8024 -2.38991 2.19211 0
M  V30 705 H 64.5874 -1.39791 3.66334 0
M  V30 706 H 66.0774 -2.36325 3.44297 0
M  V30 707 N 66.5145 -1.57545 0.0417849 0
M  V30 708 C 67.9255 -1.80011 -0.495259 0
M  V30 709 C 68.2765 -0.953199 -1.71489 0
M  V30 710 O 67.4015 -0.167138 -2.15754 0
M  V30 711 C 67.9965 -3.26482 -0.905265 0
M  V30 712 C 66.5555 -3.499 -1.38734 0
M  V30 713 C 65.7025 -2.74979 -0.358056 0
M  V30 714 H 68.6535 -1.56425 0.267736 0
M  V30 715 H 68.6745 -3.36887 -1.76882 0
M  V30 716 H 68.1865 -3.88096 -0.017401 0
M  V30 717 H 66.2875 -2.93553 -2.29471 0
M  V30 718 H 66.4005 -4.58615 -1.38598 0
M  V30 719 H 64.7645 -2.40834 -0.828912 0
M  V30 720 H 65.5475 -3.39315 0.521561 0
M  V30 721 N 67.9926 0.231505 -1.5589 0
M  V30 722 C 69.2206 0.974505 -1.82513 0
M  V30 723 C 69.6356 1.78344 -0.619591 0
M  V30 724 O 68.9926 1.77792 0.411848 0
M  V30 725 C 69.0436 1.90007 -3.07538 0
M  V30 726 O 68.7646 1.12385 -4.2344 0
M  V30 727 C 70.2656 2.75779 -3.47075 0
M  V30 728 H 67.4856 0.286065 -0.606966 0
M  V30 729 H 70.0296 0.249739 -2.02969 0
M  V30 730 H 68.1846 2.57891 -2.89086 0
M  V30 731 H 68.5986 1.75125 -4.944 0
M  V30 732 H 70.0726 3.36443 -4.37619 0
M  V30 733 H 70.5496 3.47672 -2.68367 0
M  V30 734 H 71.1556 2.13323 -3.67931 0
M  V30 735 N 69.4707 1.49531 0.497807 0
M  V30 736 C 70.7197 1.58426 1.24837 0
M  V30 737 C 71.0327 0.277643 1.93619 0
M  V30 738 O 72.2387 0.24517 2.70391 0
M  V30 739 C 70.6947 2.79538 2.26686 0
M  V30 740 C 70.3027 4.16971 1.63828 0
M  V30 741 C 72.0467 2.97764 3.0255 0
M  V30 742 C 69.9537 5.29301 2.63807 0
M  V30 743 H 68.8837 0.58989 0.469623 0
M  V30 744 H 71.5347 1.75923 0.521857 0
M  V30 745 H 69.9167 2.55542 3.02514 0
M  V30 746 H 71.0907 4.51116 0.939711 0
M  V30 747 H 69.4057 4.04129 1.00342 0
M  V30 748 H 72.0027 3.78856 3.77323 0
M  V30 749 H 72.3457 2.08448 3.60354 0
M  V30 750 H 72.8787 3.21815 2.33838 0
M  V30 751 H 69.6177 6.20687 2.10779 0
M  V30 752 H 69.1377 4.99606 3.31894 0
M  V30 753 H 70.8167 5.58768 3.2617 0
M  V30 754 N 70.9488 -0.749086 1.3866 0
M  V30 755 C 72.1768 -1.53834 1.38358 0
M  V30 756 C 72.5918 -1.88783 -0.0255219 0
M  V30 757 O 71.9488 -1.53101 -0.993292 0
M  V30 758 C 71.9998 -2.83468 2.2434 0
M  V30 759 O 71.7208 -2.50008 3.5976 0
M  V30 760 C 73.2218 -3.7758 2.32267 0
M  V30 761 H 70.4418 -0.47585 0.473083 0
M  V30 762 H 72.9858 -0.926726 1.82297 0
M  V30 763 H 71.1408 -3.40995 1.83851 0
M  V30 764 H 71.5548 -3.33182 4.05081 0
M  V30 765 H 73.0288 -4.65478 2.96706 0
M  V30 766 H 73.5058 -4.18334 1.33765 0
M  V30 767 H 74.1118 -3.25976 2.73166 0
M  V30 768 N 72.4269 -1.23603 -0.977757 0
M  V30 769 C 73.3749 -1.01704 -2.09187 0
M  V30 770 C 74.3689 0.0448214 -1.69341 0
M  V30 771 O 75.5749 -0.108902 -1.7967 0
M  V30 772 H 71.9499 -0.311803 -0.684312 0
M  V30 773 H 73.9209 -1.96207 -2.24823 0
M  V30 774 C 72.6699 -0.627746 -3.41986 0
M  V30 775 H 71.9929 -1.43656 -3.73099 0
M  V30 776 H 73.4329 -0.514053 -4.20872 0
M  V30 777 C 71.8919 0.664238 -3.30287 0
M  V30 778 O 72.4219 1.71268 -3.6336 0
M  V30 779 N 70.6279 0.641156 -2.83439 0
M  V30 780 H 70.1749 -0.212376 -2.56723 0
M  V30 781 H 70.1329 1.50583 -2.75993 0
M  V30 782 N 73.905 1.17692 -1.04816 0
M  V30 783 C 75.182 1.83768 -0.669963 0
M  V30 784 C 75.562 1.93232 0.849986 0
M  V30 785 O 74.91 1.46397 1.75443 0
M  V30 786 C 75.12 3.21641 -1.35455 0
M  V30 787 C 76.468 3.97592 -1.49017 0
M  V30 788 O 77.492 3.31107 -1.31326 0
M  V30 789 O 76.351 5.16729 -1.77914 0
M  V30 790 H 73.445 0.792799 -0.235368 0
M  V30 791 H 75.991 1.25021 -1.14751 0
M  V30 792 H 74.763 3.097 -2.39168 0
M  V30 793 H 74.386 3.88052 -0.866107 0
M  V30 794 N 75.3831 0.828654 1.34056 0
M  V30 795 C 76.6311 0.41863 1.97717 0
M  V30 796 C 76.9521 -1.02314 1.66002 0
M  V30 797 O 76.2221 -1.71119 0.953683 0
M  V30 798 H 74.8021 0.151809 0.731412 0
M  V30 799 H 77.4641 1.05936 1.63596 0
M  V30 800 H 76.5601 0.542318 3.07352 0
M  V30 801 N 76.8612 -1.46375 0.584142 0
M  V30 802 C 78.1072 -2.02678 0.0703716 0
M  V30 803 C 78.4402 -1.4545 -1.28678 0
M  V30 804 O 77.7152 -0.62014 -1.84349 0
M  V30 805 C 77.9982 -3.60099 0.00614674 0
M  V30 806 C 77.8512 -4.27709 1.3923 0
M  V30 807 C 79.1702 -4.34598 -0.693742 0
M  V30 808 H 76.2892 -0.736504 0.027047 0
M  V30 809 H 78.9312 -1.74501 0.751615 0
M  V30 810 H 77.0812 -3.84236 -0.574009 0
M  V30 811 H 78.7532 -4.14832 2.01773 0
M  V30 812 H 76.9962 -3.87016 1.95962 0
M  V30 813 H 77.6672 -5.36478 1.29982 0
M  V30 814 H 80.1432 -4.15615 -0.200869 0
M  V30 815 H 79.0192 -5.44318 -0.707714 0
M  V30 816 H 79.2802 -4.05759 -1.75533 0
M  V30 817 N 78.3393 -0.321999 -1.54275 0
M  V30 818 C 79.5643 0.285791 -2.05422 0
M  V30 819 C 79.9893 1.45124 -1.19669 0
M  V30 820 O 79.3473 1.80132 -0.205441 0
M  V30 821 C 79.3953 0.69956 -3.53749 0
M  V30 822 O 78.4993 1.8021 -3.70942 0
M  V30 823 H 77.8403 0.0518962 -0.661969 0
M  V30 824 H 80.3703 -0.469954 -1.9913 0
M  V30 825 H 80.3803 0.982649 -3.9599 0
M  V30 826 H 79.0553 -0.152864 -4.15619 0
M  V30 827 H 77.6323 1.51794 -3.40607 0
M  V30 828 N 79.8174 1.5752 -0.0501392 0
M  V30 829 C 81.0664 1.91827 0.623328 0
M  V30 830 C 81.3794 0.930222 1.72065 0
M  V30 831 O 82.5854 1.1653 2.4522 0
M  V30 832 C 81.0414 3.40692 1.16003 0
M  V30 833 C 80.6494 4.479 0.0948811 0
M  V30 834 C 82.3934 3.84034 1.80881 0
M  V30 835 C 80.3004 5.87879 0.644411 0
M  V30 836 H 79.2304 0.715918 0.236596 0
M  V30 837 H 81.8814 1.83115 -0.118861 0
M  V30 838 H 80.2634 3.44405 1.9545 0
M  V30 839 H 81.4374 4.55775 -0.678675 0
M  V30 840 H 79.7524 4.13892 -0.45637 0
M  V30 841 H 82.3494 4.85984 2.22988 0
M  V30 842 H 82.6924 3.20225 2.6601 0
M  V30 843 H 83.2254 3.82833 1.0809 0
M  V30 844 H 79.9644 6.55282 -0.169229 0
M  V30 845 H 79.4844 5.83567 1.38598 0
M  V30 846 H 81.1634 6.37098 1.12763 0
M  V30 847 N 81.2955 -0.223234 1.56011 0
M  V30 848 C 82.2585 -1.26014 1.9145 0
M  V30 849 C 83.2585 -1.3989 0.792937 0
M  V30 850 O 84.4485 -1.38184 1.0607 0
M  V30 851 C 81.5805 -2.63422 2.16383 0
M  V30 852 H 82.7735 -0.95796 2.84189 0
M  V30 853 H 80.3265 -0.463576 1.49267 0
M  V30 854 H 81.0615 -2.98741 1.2619 0
M  V30 855 H 80.8465 -2.54728 2.98088 0
M  V30 856 H 82.3365 -3.38249 2.44903 0
M  V30 857 N 82.7736 -1.49793 -0.48987 0
M  V30 858 C 83.7206 -1.67281 -1.59014 0
M  V30 859 C 84.6906 -0.514177 -1.57941 0
M  V30 860 O 85.8756 -0.742533 -1.75759 0
M  V30 861 C 83.0156 -1.75569 -2.97102 0
M  V30 862 C 82.1286 -3.0281 -3.08107 0
M  V30 863 C 81.2636 -3.02008 -4.36995 0
M  V30 864 C 80.3026 -4.23782 -4.41673 0
M  V30 865 N 79.4396 -4.20826 -5.62005 0
M  V30 866 H 84.2796 -2.61224 -1.43409 0
M  V30 867 H 81.8166 -1.29508 -0.697565 0
M  V30 868 H 83.7746 -1.78354 -3.77155 0
M  V30 869 H 82.4046 -0.850827 -3.11385 0
M  V30 870 H 81.4566 -3.09584 -2.21047 0
M  V30 871 H 82.7686 -3.92801 -3.07423 0
M  V30 872 H 81.9226 -3.03418 -5.25378 0
M  V30 873 H 80.6616 -2.09815 -4.4026 0
M  V30 874 H 79.6666 -4.22604 -3.5169 0
M  V30 875 H 80.8916 -5.17181 -4.40115 0
M  V30 876 H 78.8376 -3.31476 -5.66091 0
M  V30 877 H 78.7546 -5.04564 -5.62984 0
M  V30 878 H 80.0226 -4.26355 -6.52565 0
M  V30 879 N 84.2517 0.741722 -1.39055 0
M  V30 880 C 85.1617 1.88621 -1.39496 0
M  V30 881 C 86.1777 1.71557 -0.290578 0
M  V30 882 O 87.3537 1.94275 -0.530954 0
M  V30 883 C 84.4187 3.24134 -1.23037 0
M  V30 884 C 83.4797 3.5364 -2.43387 0
M  V30 885 C 82.7127 4.82687 -2.27703 0
M  V30 886 O 82.9357 5.55922 -1.27696 0
M  V30 887 O 81.8697 5.1194 -3.16545 0
M  V30 888 H 85.6957 1.91203 -2.35956 0
M  V30 889 H 83.2807 0.888625 -1.20099 0
M  V30 890 H 85.1627 4.0513 -1.15964 0
M  V30 891 H 83.8377 3.22337 -0.296691 0
M  V30 892 H 82.7447 2.72758 -2.56035 0
M  V30 893 H 84.0777 3.60209 -3.35425 0
M  V30 894 N 85.7298 1.2412 0.971189 0
M  V30 895 C 86.9788 1.07284 1.70801 0
M  V30 896 C 87.2918 -0.388902 1.91695 0
M  V30 897 O 88.4978 -0.677379 2.62914 0
M  V30 898 C 86.9538 1.87145 3.07416 0
M  V30 899 C 86.5618 3.37707 2.94377 0
M  V30 900 C 88.3058 1.78828 3.84995 0
M  V30 901 C 86.2128 4.09925 4.26281 0
M  V30 902 H 85.1428 0.397854 0.64049 0
M  V30 903 H 87.7938 1.4817 1.0825 0
M  V30 904 H 86.1758 1.39071 3.70777 0
M  V30 905 H 87.3498 3.93335 2.4005 0
M  V30 906 H 85.6648 3.46938 2.30267 0
M  V30 907 H 88.2618 2.30089 4.82662 0
M  V30 908 H 88.6048 0.75284 4.09436 0
M  V30 909 H 89.1378 2.24563 3.28354 0
M  V30 910 H 85.8768 5.13813 4.07033 0
M  V30 911 H 85.3968 3.59083 4.80437 0
M  V30 912 H 87.0758 4.1673 4.94919 0
M  V30 913 N 87.2079 -1.17134 1.05439 0
M  V30 914 C 88.1179 -2.24878 0.668365 0
M  V30 915 C 89.1339 -1.71186 -0.311687 0
M  V30 916 O 90.3099 -2.00738 -0.163161 0
M  V30 917 C 87.3749 -3.46662 0.051648 0
M  V30 918 C 86.4359 -4.15429 1.08246 0
M  V30 919 C 85.6689 -5.31399 0.495082 0
M  V30 920 O 85.8919 -5.66153 -0.694743 0
M  V30 921 O 84.8259 -5.89187 1.23056 0
M  V30 922 H 88.6519 -2.60189 1.56637 0
M  V30 923 H 86.2369 -1.24482 0.826104 0
M  V30 924 H 88.1189 -4.20394 -0.290966 0
M  V30 925 H 86.7939 -3.13142 -0.819971 0
M  V30 926 H 85.7009 -3.43704 1.47711 0
M  V30 927 H 87.0339 -4.52982 1.92532 0
M  V30 928 N 88.686 -0.835752 -1.33615 0
M  V30 929 C 89.616 -0.281739 -2.31794 0
M  V30 930 C 90.597 0.608833 -1.58831 0
M  V30 931 O 91.782 0.533035 -1.86741 0
M  V30 932 C 88.912 0.546612 -3.42971 0
M  V30 933 C 87.866 -0.247904 -4.27281 0
M  V30 934 C 87.192 0.704001 -5.30045 0
M  V30 935 C 88.492 -1.46324 -5.01385 0
M  V30 936 H 90.186 -1.10206 -2.78379 0
M  V30 937 H 87.732 -0.531388 -1.33837 0
M  V30 938 H 89.685 0.944467 -4.1068 0
M  V30 939 H 88.409 1.40011 -2.95067 0
M  V30 940 H 87.068 -0.627281 -3.61194 0
M  V30 941 H 86.716 1.55381 -4.78399 0
M  V30 942 H 86.416 0.176524 -5.87335 0
M  V30 943 H 87.94 1.09944 -6.0062 0
M  V30 944 H 89.354 -1.13871 -5.61877 0
M  V30 945 H 87.751 -1.92728 -5.6831 0
M  V30 946 H 88.821 -2.23467 -4.30338 0
M  V30 947 N 90.1641 1.46063 -0.591896 0
M  V30 948 C 91.0741 2.34192 0.13831 0
M  V30 949 C 92.0901 1.50305 0.876608 0
M  V30 950 O 93.2661 1.8315 0.837728 0
M  V30 951 C 90.3311 3.27656 1.13326 0
M  V30 952 C 89.3921 4.27445 0.39863 0
M  V30 953 C 88.6251 5.16443 1.34618 0
M  V30 954 O 88.8481 5.08553 2.58321 0
M  V30 955 O 87.7821 5.95843 0.851768 0
M  V30 956 H 91.6081 2.98002 -0.58552 0
M  V30 957 H 89.1931 1.45188 -0.352239 0
M  V30 958 H 91.0751 3.85291 1.70671 0
M  V30 959 H 89.7501 2.6643 1.83839 0
M  V30 960 H 88.6571 3.73471 -0.216895 0
M  V30 961 H 89.9901 4.91482 -0.265709 0
M  V30 962 N 91.6422 0.330177 1.54103 0
M  V30 963 C 92.9192 -0.325007 1.92881 0
M  V30 964 C 93.2992 -1.6934 1.26045 0
M  V30 965 O 92.6472 -2.24855 0.406526 0
M  V30 966 C 92.8572 -0.410634 3.46576 0
M  V30 967 C 94.2052 -0.667801 4.19316 0
M  V30 968 O 95.2292 -0.49329 3.52768 0
M  V30 969 O 94.0882 -1.00491 5.37181 0
M  V30 970 H 91.1822 -0.186873 0.80561 0
M  V30 971 H 93.7282 0.380376 1.65382 0
M  V30 972 H 92.5002 0.550164 3.87413 0
M  V30 973 H 92.1232 -1.16333 3.802 0
M  V30 974 N 93.1203 -1.57491 0.0584922 0
M  V30 975 C 94.5313 -1.80526 -0.476138 0
M  V30 976 C 94.8823 -0.971334 -1.70469 0
M  V30 977 O 94.0073 -0.190012 -2.15564 0
M  V30 978 C 94.6023 -3.27424 -0.870587 0
M  V30 979 C 93.1613 -3.51351 -1.35015 0
M  V30 980 C 92.3083 -2.75343 -0.32887 0
M  V30 981 H 95.2593 -1.56133 0.284312 0
M  V30 982 H 95.2803 -3.38745 -1.73299 0
M  V30 983 H 94.7923 -3.88093 0.0237627 0
M  V30 984 H 92.8933 -2.95971 -2.26345 0
M  V30 985 H 93.0063 -4.60059 -1.33726 0
M  V30 986 H 91.3703 -2.417 -0.803321 0
M  V30 987 H 92.1533 -3.38743 0.557521 0
M  V30 988 N 94.5984 0.214957 -1.56127 0
M  V30 989 C 95.8284 0.953707 -1.8327 0
M  V30 990 C 96.2364 1.78181 -0.636262 0
M  V30 991 O 95.5794 1.79191 0.404516 0
M  V30 992 C 95.6414 1.91516 -3.0424 0
M  V30 993 C 95.3054 1.27094 -4.38972 0
M  V30 994 C 96.3024 0.657575 -5.15725 0
M  V30 995 C 93.9874 1.28073 -4.85698 0
M  V30 996 C 95.9814 0.0625968 -6.37369 0
M  V30 997 C 93.6684 0.681914 -6.07283 0
M  V30 998 C 94.6664 0.0739046 -6.8296 0
M  V30 999 O 94.3544 -0.515582 -8.02245 0
M  V30 1000 H 94.0864 0.284764 -0.613095 0
M  V30 1001 H 96.6404 0.233283 -2.04071 0
M  V30 1002 H 94.8704 2.67475 -2.79274 0
M  V30 1003 H 96.5594 2.52001 -3.18198 0
M  V30 1004 H 97.3254 0.642288 -4.80728 0
M  V30 1005 H 93.2044 1.74337 -4.26764 0
M  V30 1006 H 96.7484 -0.412593 -6.96379 0
M  V30 1007 H 92.6454 0.694636 -6.41752 0
M  V30 1008 H 93.4134 -0.410544 -8.1747 0
M  V30 1009 N 96.0765 1.50051 0.48192 0
M  V30 1010 C 96.9865 1.7089 1.60728 0
M  V30 1011 C 98.0025 0.591788 1.63627 0
M  V30 1012 O 99.1785 0.868817 1.81696 0
M  V30 1013 C 96.2435 1.78855 2.97005 0
M  V30 1014 C 95.3045 3.02537 3.04581 0
M  V30 1015 C 94.5375 3.10112 4.34357 0
M  V30 1016 O 94.7605 2.24765 5.24249 0
M  V30 1017 O 93.6945 4.02747 4.47301 0
M  V30 1018 H 97.5205 2.66264 1.46072 0
M  V30 1019 H 95.1055 1.34018 0.660264 0
M  V30 1020 H 96.9875 1.86336 3.77964 0
M  V30 1021 H 95.6625 0.866628 3.11883 0
M  V30 1022 H 94.5695 3.00563 2.22739 0
M  V30 1023 H 95.9025 3.94272 2.94636 0
M  V30 1024 N 97.5546 -0.734337 1.39446 0
M  V30 1025 C 98.5016 -1.84835 1.38219 0
M  V30 1026 C 99.4716 -1.64331 0.24179 0
M  V30 1027 O 100.657 -1.85728 0.437002 0
M  V30 1028 C 97.7966 -3.22355 1.23212 0
M  V30 1029 C 96.9096 -3.5456 2.46801 0
M  V30 1030 C 96.0446 -4.81485 2.24377 0
M  V30 1031 C 95.0836 -5.06536 3.43639 0
M  V30 1032 N 94.2206 -6.24665 3.20528 0
M  V30 1033 H 99.0606 -1.85219 2.33448 0
M  V30 1034 H 96.5976 -0.905039 1.15963 0
M  V30 1035 H 98.5556 -4.0174 1.12522 0
M  V30 1036 H 97.1856 -3.21248 0.316121 0
M  V30 1037 H 96.2376 -2.69872 2.68092 0
M  V30 1038 H 97.5496 -3.6899 3.3563 0
M  V30 1039 H 96.7036 -5.68852 2.10933 0
M  V30 1040 H 95.4426 -4.6923 1.32944 0
M  V30 1041 H 94.4476 -4.17632 3.5758 0
M  V30 1042 H 95.6726 -5.20676 4.35974 0
M  V30 1043 H 93.6186 -6.13696 2.3176 0
M  V30 1044 H 93.5356 -6.39685 4.02913 0
M  V30 1045 H 94.8036 -7.14868 3.10779 0
M  V30 1046 N 99.0327 -1.24633 -0.964593 0
M  V30 1047 C 100.282 -1.08188 -1.7023 0
M  V30 1048 C 100.595 0.37873 -1.91898 0
M  V30 1049 O 101.801 0.663427 -2.6327 0
M  V30 1050 C 100.257 -1.88773 -3.06419 0
M  V30 1051 C 99.8647 -3.39263 -2.92582 0
M  V30 1052 C 101.609 -1.80867 -3.84041 0
M  V30 1053 C 99.5157 -4.1218 -4.24101 0
M  V30 1054 H 98.4457 -0.401245 -0.638372 0
M  V30 1055 H 101.097 -1.48742 -1.07462 0
M  V30 1056 H 99.4787 -1.41035 -3.70034 0
M  V30 1057 H 100.653 -3.94603 -2.37961 0
M  V30 1058 H 98.9677 -3.48154 -2.28424 0
M  V30 1059 H 101.565 -2.32646 -4.81435 0
M  V30 1060 H 101.908 -0.774543 -4.09031 0
M  V30 1061 H 102.441 -2.26301 -3.27159 0
M  V30 1062 H 99.1797 -5.15965 -4.04303 0
M  V30 1063 H 98.6997 -3.61626 -4.78526 0
M  V30 1064 H 100.379 -4.19349 -4.92702 0
M  V30 1065 N 100.511 1.16574 -1.06058 0
M  V30 1066 C 101.759 1.86677 -0.77434 0
M  V30 1067 C 102.08 1.81959 0.701147 0
M  V30 1068 O 101.35 1.2515 1.50713 0
M  V30 1069 H 99.9298 0.691134 -0.283449 0
M  V30 1070 H 102.592 1.41378 -1.34158 0
M  V30 1071 H 101.688 2.92181 -1.09711 0
M  V30 1072 N 101.989 0.842826 1.3317 0
M  V30 1073 C 102.952 0.284065 2.27433 0
M  V30 1074 C 103.952 -0.54948 1.5112 0
M  V30 1075 O 105.142 -0.362699 1.70382 0
M  V30 1076 C 102.274 -0.599384 3.35589 0
M  V30 1077 H 103.467 1.11589 2.78366 0
M  V30 1078 H 101.02 0.616221 1.4364 0
M  V30 1079 H 101.755 -1.45349 2.89904 0
M  V30 1080 H 101.54 -0.00291266 3.921 0
M  V30 1081 H 103.03 -0.983488 4.05854 0
M  V30 1082 N 103.467 -1.45747 0.599634 0
M  V30 1083 C 104.377 -2.34262 -0.125888 0
M  V30 1084 C 105.393 -1.50768 -0.868625 0
M  V30 1085 O 106.569 -1.83592 -0.828003 0
M  V30 1086 C 103.634 -3.28252 -1.11587 0
M  V30 1087 C 102.695 -4.27651 -0.375956 0
M  V30 1088 C 101.928 -5.1715 -1.31877 0
M  V30 1089 O 102.151 -5.09916 -2.55621 0
M  V30 1090 O 101.085 -5.96286 -0.820157 0
M  V30 1091 H 104.911 -2.97688 0.601315 0
M  V30 1092 H 102.496 -1.44999 0.359934 0
M  V30 1093 H 104.378 -3.86191 -1.68626 0
M  V30 1094 H 103.053 -2.67401 -1.82424 0
M  V30 1095 H 101.96 -3.7335 0.236698 0
M  V30 1096 H 103.293 -4.91334 0.29177 0
M  V30 1097 N 104.945 -0.338344 -1.53925 0
M  V30 1098 C 105.875 0.51328 -2.27789 0
M  V30 1099 C 106.856 1.107 -1.29149 0
M  V30 1100 O 108.041 1.12937 -1.57984 0
M  V30 1101 C 105.171 1.66697 -3.04679 0
M  V30 1102 C 104.125 1.20183 -4.1078 0
M  V30 1103 C 103.451 2.44363 -4.75595 0
M  V30 1104 C 104.751 0.30605 -5.21403 0
M  V30 1105 H 106.445 -0.102883 -2.99223 0
M  V30 1106 H 103.991 -0.0509219 -1.4391 0
M  V30 1107 H 105.944 2.26915 -3.55088 0
M  V30 1108 H 104.668 2.30995 -2.30887 0
M  V30 1109 H 103.327 0.622499 -3.61276 0
M  V30 1110 H 102.975 3.07057 -3.98403 0
M  V30 1111 H 102.675 2.13925 -5.47275 0
M  V30 1112 H 104.199 3.05317 -5.28786 0
M  V30 1113 H 105.613 0.814929 -5.67478 0
M  V30 1114 H 104.01 0.0937929 -6.00027 0
M  V30 1115 H 105.08 -0.65921 -4.80398 0
M  V30 1116 N 106.423 1.57458 -0.0668435 0
M  V30 1117 C 107.669 1.93587 0.6043 0
M  V30 1118 C 108.002 0.946722 1.69561 0
M  V30 1119 O 107.277 -0.0248516 1.94484 0
M  V30 1120 C 107.56 3.40014 1.18585 0
M  V30 1121 C 107.413 4.49685 0.101529 0
M  V30 1122 C 108.732 3.87154 2.09284 0
M  V30 1123 H 105.851 0.703958 0.218202 0
M  V30 1124 H 108.493 1.89542 -0.131804 0
M  V30 1125 H 106.643 3.43592 1.81319 0
M  V30 1126 H 108.315 4.5823 -0.531279 0
M  V30 1127 H 106.558 4.30059 -0.568487 0
M  V30 1128 H 107.229 5.49266 0.54874 0
M  V30 1129 H 109.705 3.85551 1.56491 0
M  V30 1130 H 108.581 4.90231 2.46911 0
M  V30 1131 H 108.842 3.2481 2.99918 0
M  V30 1132 N 107.901 -0.206675 1.56239 0
M  V30 1133 C 108.848 -1.25617 1.93621 0
M  V30 1134 C 109.818 -1.45824 0.795274 0
M  V30 1135 O 111.003 -1.59148 1.05245 0
M  V30 1136 C 108.143 -2.59839 2.27107 0
M  V30 1137 C 107.256 -2.47308 3.54207 0
M  V30 1138 C 106.391 -3.74155 3.7707 0
M  V30 1139 C 105.43 -3.56407 4.97635 0
M  V30 1140 N 104.567 -4.75238 5.1681 0
M  V30 1141 H 109.407 -0.930383 2.83104 0
M  V30 1142 H 106.944 -0.448065 1.4011 0
M  V30 1143 H 108.902 -3.38021 2.44535 0
M  V30 1144 H 107.532 -2.90485 1.40778 0
M  V30 1145 H 106.584 -1.60483 3.4489 0
M  V30 1146 H 107.896 -2.30122 4.42544 0
M  V30 1147 H 107.05 -4.60778 3.94675 0
M  V30 1148 H 105.789 -3.94282 2.87042 0
M  V30 1149 H 104.794 -2.68168 4.79964 0
M  V30 1150 H 106.019 -3.37736 5.89161 0
M  V30 1151 H 103.965 -4.95651 4.29728 0
M  V30 1152 H 103.882 -4.60835 5.99306 0
M  V30 1153 H 105.15 -5.63246 5.38864 0
M  V30 1154 N 109.379 -1.50304 -0.473955 0
M  V30 1155 C 110.289 -1.7174 -1.5982 0
M  V30 1156 C 111.305 -0.600457 -1.63311 0
M  V30 1157 O 112.481 -0.878441 -1.81233 0
M  V30 1158 C 109.546 -1.80427 -2.96052 0
M  V30 1159 C 108.607 -3.04148 -3.02972 0
M  V30 1160 C 107.84 -3.12411 -4.32706 0
M  V30 1161 O 108.063 -2.27542 -5.23049 0
M  V30 1162 O 106.997 -4.05113 -4.45159 0
M  V30 1163 H 110.823 -2.67035 -1.44657 0
M  V30 1164 H 108.408 -1.34366 -0.653148 0
M  V30 1165 H 110.29 -1.88338 -3.7697 0
M  V30 1166 H 108.965 -0.883156 -3.11419 0
M  V30 1167 H 107.872 -3.0174 -2.21142 0
M  V30 1168 H 109.205 -3.95829 -2.92541 0
M  V30 1169 N 110.857 0.726932 -1.39834 0
M  V30 1170 C 112.103 1.48884 -1.377 0
M  V30 1171 C 112.436 1.94185 0.0244852 0
M  V30 1172 O 111.711 1.67361 0.990986 0
M  V30 1173 C 111.994 2.72288 -2.3565 0
M  V30 1174 C 111.847 2.32956 -3.84775 0
M  V30 1175 C 113.166 3.74414 -2.31306 0
M  V30 1176 H 110.285 0.540062 -0.5015 0
M  V30 1177 H 112.927 0.830547 -1.70886 0
M  V30 1178 H 111.077 3.28457 -2.07481 0
M  V30 1179 H 112.749 1.82356 -4.23726 0
M  V30 1180 H 110.992 1.65088 -4.01159 0
M  V30 1181 H 111.663 3.21362 -4.4881 0
M  V30 1182 H 114.139 3.27849 -2.56231 0
M  V30 1183 H 113.015 4.58414 -3.01907 0
M  V30 1184 H 113.276 4.21909 -1.32081 0
M  V30 1185 N 112.336 1.25143 0.95797 0
M  V30 1186 C 113.299 1.05321 2.03569 0
M  V30 1187 C 114.299 0.007152 1.60798 0
M  V30 1188 O 115.489 0.24903 1.72411 0
M  V30 1189 C 112.621 0.598394 3.35607 0
M  V30 1190 H 113.814 2.00986 2.22586 0
M  V30 1191 H 111.367 1.07502 1.13459 0
M  V30 1192 H 112.102 -0.361014 3.22284 0
M  V30 1193 H 111.887 1.35351 3.67998 0
M  V30 1194 H 113.377 0.48104 4.1482 0
M  V30 1195 N 113.814 -1.1601 1.06675 0
M  V30 1196 C 114.761 -2.20525 0.680967 0
M  V30 1197 C 115.731 -1.62904 -0.324283 0
M  V30 1198 O 116.916 -1.89615 -0.212294 0
M  V30 1199 C 114.056 -3.45013 0.0776551 0
M  V30 1200 C 113.169 -4.16863 1.13355 0
M  V30 1201 C 112.304 -5.2888 0.49597 0
M  V30 1202 C 111.343 -5.92537 1.53513 0
M  V30 1203 N 110.48 -6.96038 0.920631 0
M  V30 1204 H 115.32 -2.52876 1.57663 0
M  V30 1205 H 112.857 -1.24199 0.788223 0
M  V30 1206 H 114.815 -4.16193 -0.289704 0
M  V30 1207 H 113.445 -3.132 -0.781393 0
M  V30 1208 H 112.497 -3.44248 1.61857 0
M  V30 1209 H 113.809 -4.60294 1.92174 0
M  V30 1210 H 112.963 -6.06653 0.0758604 0
M  V30 1211 H 111.702 -4.86622 -0.324062 0
M  V30 1212 H 110.707 -5.13482 1.9651 0
M  V30 1213 H 111.932 -6.36873 2.35733 0
M  V30 1214 H 109.878 -6.55888 0.12138 0
M  V30 1215 H 109.795 -7.3786 1.64616 0
M  V30 1216 H 111.063 -7.77725 0.525795 0
M  V30 1217 N 115.292 -0.849877 -1.32721 0
M  V30 1218 C 116.239 -0.289033 -2.28983 0
M  V30 1219 C 117.209 0.601324 -1.54833 0
M  V30 1220 O 118.394 0.537253 -1.8308 0
M  V30 1221 C 115.534 0.520623 -3.4115 0
M  V30 1222 C 114.647 -0.394989 -4.3019 0
M  V30 1223 C 113.782 0.426834 -5.29482 0
M  V30 1224 C 112.821 -0.486476 -6.10164 0
M  V30 1225 N 111.958 0.297879 -7.01468 0
M  V30 1226 H 116.798 -1.11519 -2.76347 0
M  V30 1227 H 114.335 -0.56138 -1.35967 0
M  V30 1228 H 116.293 1.00563 -4.04899 0
M  V30 1229 H 114.923 1.31165 -2.9495 0
M  V30 1230 H 113.975 -0.99836 -3.67065 0
M  V30 1231 H 115.287 -1.09612 -4.86607 0
M  V30 1232 H 114.441 0.975205 -5.98811 0
M  V30 1233 H 113.18 1.16136 -4.73671 0
M  V30 1234 H 112.185 -1.04677 -5.39743 0
M  V30 1235 H 113.41 -1.21953 -6.6806 0
M  V30 1236 H 111.356 1.01558 -6.48091 0
M  V30 1237 H 111.273 -0.344318 -7.55216 0
M  V30 1238 H 112.541 0.828131 -7.75089 0
M  V30 1239 N 116.77 1.45427 -0.607355 0
M  V30 1240 C 117.998 2.06614 -0.108814 0
M  V30 1241 C 118.413 1.45204 1.2067 0
M  V30 1242 O 117.77 0.566132 1.73497 0
M  V30 1243 C 117.821 3.61481 0.0375347 0
M  V30 1244 O 117.542 4.20598 -1.22593 0
M  V30 1245 C 119.043 4.39652 0.567561 0
M  V30 1246 H 116.263 0.66747 -0.0687351 0
M  V30 1247 H 118.807 1.86675 -0.835022 0
M  V30 1248 H 116.962 3.80762 0.714068 0
M  V30 1249 H 117.376 5.1377 -1.05547 0
M  V30 1250 H 118.85 5.48518 0.61905 0
M  V30 1251 H 119.327 4.09417 1.58978 0
M  V30 1252 H 119.933 4.25234 -0.0749202 0
M  V30 1253 N 118.248 0.346503 1.53744 0
M  V30 1254 C 119.525 -0.304532 1.93215 0
M  V30 1255 C 119.905 -1.67993 1.27834 0
M  V30 1256 O 119.253 -2.24411 0.430352 0
M  V30 1257 C 119.463 -0.373852 3.46992 0
M  V30 1258 C 120.811 -0.62329 4.2 0
M  V30 1259 O 121.835 -0.455847 3.53271 0
M  V30 1260 O 120.694 -0.947879 5.38217 0
M  V30 1261 H 117.788 -0.178318 0.807547 0
M  V30 1262 H 120.334 0.397895 1.64969 0
M  V30 1263 H 119.106 0.591224 3.86808 0
M  V30 1264 H 118.729 -1.12294 3.81413 0
M  V30 1265 N 119.726 -1.57421 0.075193 0
M  V30 1266 C 121.003 -1.85029 -0.634329 0
M  V30 1267 C 121.383 -0.968305 -1.87582 0
M  V30 1268 O 120.731 -0.0354749 -2.28472 0
M  V30 1269 C 120.941 -3.35286 -0.968742 0
M  V30 1270 C 122.289 -4.02875 -1.34077 0
M  V30 1271 O 123.313 -3.40051 -1.06037 0
M  V30 1272 O 122.172 -5.13691 -1.86506 0
M  V30 1273 H 119.266 -0.7645 -0.315387 0
M  V30 1274 H 121.812 -1.69366 0.106382 0
M  V30 1275 H 120.584 -3.91203 -0.0871376 0
M  V30 1276 H 120.207 -3.56223 -1.7661 0
M  V30 1277 N 121.204 0.198386 -1.56346 0
M  V30 1278 C 122.45 0.920648 -1.80698 0
M  V30 1279 C 122.783 1.83045 -0.648697 0
M  V30 1280 O 122.058 1.91308 0.350925 0
M  V30 1281 C 122.341 1.73971 -3.15287 0
M  V30 1282 C 122.194 0.85485 -4.41602 0
M  V30 1283 C 123.513 2.71296 -3.46535 0
M  V30 1284 H 120.632 0.333261 -0.657348 0
M  V30 1285 H 123.274 0.188198 -1.89066 0
M  V30 1286 H 121.424 2.36416 -3.08285 0
M  V30 1287 H 123.096 0.245362 -4.60647 0
M  V30 1288 H 121.339 0.161398 -4.335 0
M  V30 1289 H 122.01 1.46286 -5.32264 0
M  V30 1290 H 124.486 2.18983 -3.53816 0
M  V30 1291 H 123.362 3.2569 -4.41834 0
M  V30 1292 H 123.623 3.5018 -2.69864 0
M  V30 1293 N 122.682 1.50554 0.465978 0
M  V30 1294 C 123.645 1.69233 1.54574 0
M  V30 1295 C 124.645 0.562901 1.50626 0
M  V30 1296 O 125.835 0.830016 1.53155 0
M  V30 1297 C 122.967 1.7223 2.94193 0
M  V30 1298 H 124.16 2.65571 1.39327 0
M  V30 1299 H 121.713 1.40111 0.692711 0
M  V30 1300 H 122.448 0.77603 3.14878 0
M  V30 1301 H 122.233 2.54285 2.98466 0
M  V30 1302 H 123.723 1.88618 3.72576 0
M  V30 1303 N 124.16 -0.719506 1.40217 0
M  V30 1304 C 125.408 -1.47641 1.3801 0
M  V30 1305 C 125.729 -1.94992 -0.018145 0
M  V30 1306 O 124.999 -1.70073 -0.972207 0
M  V30 1307 H 123.579 -0.547744 0.507923 0
M  V30 1308 H 126.241 -0.853187 1.75233 0
M  V30 1309 H 125.337 -2.35112 2.05253 0
M  V30 1310 N 125.638 -1.25649 -0.95132 0
M  V30 1311 C 126.915 -1.01361 -1.67288 0
M  V30 1312 C 127.295 0.459135 -2.06046 0
M  V30 1313 O 126.643 1.43723 -1.7764 0
M  V30 1314 C 126.853 -1.95256 -2.89268 0
M  V30 1315 C 128.201 -2.23289 -3.61147 0
M  V30 1316 O 129.225 -1.93041 -2.99355 0
M  V30 1317 O 128.084 -2.74741 -4.72419 0
M  V30 1318 H 125.178 -0.38464 -0.732107 0
M  V30 1319 H 127.724 -1.36817 -1.00395 0
M  V30 1320 H 126.496 -2.94685 -2.57442 0
M  V30 1321 H 126.119 -1.60218 -3.6389 0
M  V30 1322 N 127.117 1.15442 -1.07289 0
M  V30 1323 C 128.365 1.85845 -0.794096 0
M  V30 1324 C 128.686 1.82692 0.681809 0
M  V30 1325 O 127.956 1.26741 1.49377 0
M  V30 1326 H 126.536 0.688089 -0.290763 0
M  V30 1327 H 129.198 1.39947 -1.3565 0
M  V30 1328 H 128.294 2.91001 -1.12804 0
M  V30 1329 N 128.595 0.856903 1.32268 0
M  V30 1330 C 129.823 0.475439 2.01363 0
M  V30 1331 C 130.238 -0.928486 1.64392 0
M  V30 1332 O 129.595 -1.60624 0.866387 0
M  V30 1333 C 129.646 0.607545 3.56358 0
M  V30 1334 O 129.367 1.95617 3.92002 0
M  V30 1335 C 130.868 0.225382 4.42727 0
M  V30 1336 H 128.088 0.186636 0.644521 0
M  V30 1337 H 130.632 1.15446 1.68797 0
M  V30 1338 H 128.787 -0.0237719 3.87393 0
M  V30 1339 H 129.201 1.95455 4.86721 0
M  V30 1340 H 130.675 0.368813 5.50767 0
M  V30 1341 H 131.152 -0.834369 4.31202 0
M  V30 1342 H 131.758 0.831864 4.17085 0
M  V30 1343 N 130.073 -1.45103 0.615059 0
M  V30 1344 C 131.301 -2.06553 0.11977 0
M  V30 1345 C 131.716 -1.45842 -1.19898 0
M  V30 1346 O 131.073 -0.575325 -1.73194 0
M  V30 1347 C 131.124 -3.61495 -0.018364 0
M  V30 1348 O 130.845 -4.19942 1.24822 0
M  V30 1349 C 132.346 -4.39947 -0.544237 0
M  V30 1350 H 129.566 -0.667096 0.0722739 0
M  V30 1351 H 132.11 -1.8623 0.84491 0
M  V30 1352 H 130.265 -3.81135 -0.693865 0
M  V30 1353 H 130.679 -5.13204 1.0827 0
M  V30 1354 H 132.153 -5.48838 -0.589953 0
M  V30 1355 H 132.63 -4.10255 -1.56805 0
M  V30 1356 H 133.236 -4.25188 0.0974703 0
M  V30 1357 N 131.551 -0.354651 -1.53558 0
M  V30 1358 C 132.779 0.239515 -2.05509 0
M  V30 1359 C 133.194 1.4333 -1.2289 0
M  V30 1360 O 132.551 1.80538 -0.266899 0
M  V30 1361 C 132.602 0.643719 -3.55723 0
M  V30 1362 O 132.323 -0.502602 -4.35207 0
M  V30 1363 C 133.824 1.29743 -4.23889 0
M  V30 1364 H 131.044 0.0442697 -0.669538 0
M  V30 1365 H 133.588 -0.509856 -1.98042 0
M  V30 1366 H 131.743 1.34302 -3.63376 0
M  V30 1367 H 132.157 -0.178172 -5.24197 0
M  V30 1368 H 133.631 1.53091 -5.30346 0
M  V30 1369 H 134.108 2.25441 -3.76926 0
M  V30 1370 H 134.714 0.639865 -4.20459 0
M  V30 1371 N 133.029 1.57378 -0.0835403 0
M  V30 1372 C 133.992 2.12252 0.864959 0
M  V30 1373 C 134.992 1.04916 1.21858 0
M  V30 1374 O 136.182 1.30853 1.14991 0
M  V30 1375 C 133.314 2.63358 2.16461 0
M  V30 1376 H 134.507 2.97371 0.388676 0
M  V30 1377 H 132.06 1.55423 0.165317 0
M  V30 1378 H 132.795 1.81727 2.686 0
M  V30 1379 H 132.58 3.41826 1.92087 0
M  V30 1380 H 134.07 3.05847 2.84337 0
M  V30 1381 N 134.507 -0.190092 1.56449 0
M  V30 1382 C 135.735 -0.925772 1.85033 0
M  V30 1383 C 136.15 -1.76638 0.666658 0
M  V30 1384 O 135.507 -1.78822 -0.364565 0
M  V30 1385 C 135.558 -1.81786 3.12468 0
M  V30 1386 O 135.279 -1.01118 4.26271 0
M  V30 1387 C 136.78 -2.6648 3.54265 0
M  V30 1388 H 134 -0.269872 0.614337 0
M  V30 1389 H 136.544 -0.195837 2.0356 0
M  V30 1390 H 134.699 -2.50136 2.95822 0
M  V30 1391 H 135.113 -1.61956 4.98869 0
M  V30 1392 H 136.587 -3.24722 4.46385 0
M  V30 1393 H 137.064 -3.40434 2.77491 0
M  V30 1394 H 137.67 -2.03493 3.73458 0
M  V30 1395 N 135.985 -1.50799 -0.457987 0
M  V30 1396 C 137.231 -1.62683 -1.21088 0
M  V30 1397 C 137.564 -0.332268 -1.91336 0
M  V30 1398 O 136.839 0.667043 -1.82704 0
M  V30 1399 C 137.122 -2.81615 -2.24422 0
M  V30 1400 C 136.975 -4.20989 -1.58392 0
M  V30 1401 C 138.294 -2.96085 -3.2561 0
M  V30 1402 H 135.413 -0.592087 -0.438864 0
M  V30 1403 H 138.055 -1.83225 -0.50286 0
M  V30 1404 H 136.205 -2.64231 -2.84806 0
M  V30 1405 H 137.877 -4.49994 -1.01504 0
M  V30 1406 H 136.12 -4.24641 -0.886704 0
M  V30 1407 H 136.791 -5.0016 -2.33547 0
M  V30 1408 H 139.267 -3.12042 -2.75262 0
M  V30 1409 H 138.143 -3.80902 -3.95228 0
M  V30 1410 H 138.404 -2.0726 -3.90507 0
M  V30 1411 N 137.463 0.71206 -1.40597 0
M  V30 1412 C 138.393 1.83889 -1.43899 0
M  V30 1413 C 139.374 1.67442 -0.299504 0
M  V30 1414 O 140.559 1.87421 -0.508624 0
M  V30 1415 C 137.689 3.21877 -1.30431 0
M  V30 1416 C 136.643 3.53002 -2.42019 0
M  V30 1417 C 135.969 4.90172 -2.13626 0
M  V30 1418 C 137.269 3.53643 -3.84362 0
M  V30 1419 H 138.963 1.81383 -2.38203 0
M  V30 1420 H 136.509 0.871237 -1.14654 0
M  V30 1421 H 138.462 4.00404 -1.31357 0
M  V30 1422 H 137.186 3.24968 -0.326049 0
M  V30 1423 H 135.845 2.76818 -2.40349 0
M  V30 1424 H 135.493 4.89869 -1.14182 0
M  V30 1425 H 135.193 5.11962 -2.88389 0
M  V30 1426 H 136.717 5.71028 -2.1624 0
M  V30 1427 H 138.131 4.22203 -3.87837 0
M  V30 1428 H 136.528 3.86961 -4.58673 0
M  V30 1429 H 137.598 2.52954 -4.13693 0
M  V30 1430 N 138.941 1.26152 0.944643 0
M  V30 1431 C 139.904 1.07474 2.0244 0
M  V30 1432 C 140.904 0.0242064 1.60782 0
M  V30 1433 O 142.094 0.267302 1.72137 0
M  V30 1434 C 139.226 0.633956 3.34953 0
M  V30 1435 H 140.419 2.03336 2.20442 0
M  V30 1436 H 137.972 1.087 1.12312 0
M  V30 1437 H 138.707 -0.326811 3.22649 0
M  V30 1438 H 138.492 1.39247 3.66542 0
M  V30 1439 H 139.982 0.52501 4.14287 0
M  V30 1440 N 140.419 -1.14872 1.07899 0
M  V30 1441 C 141.351 -2.19425 0.662231 0
M  V30 1442 C 142.364 -1.60231 -0.288079 0
M  V30 1443 O 143.553 -1.78336 -0.076534 0
M  V30 1444 C 140.653 -3.38867 -0.0470695 0
M  V30 1445 C 139.826 -4.27597 0.920831 0
M  V30 1446 C 138.885 -5.25616 0.247805 0
M  V30 1447 O 137.911 -5.62189 0.890599 0
M  V30 1448 N 139.113 -5.71746 -1.00435 0
M  V30 1449 H 141.878 -2.55797 1.56166 0
M  V30 1450 H 139.439 -1.30042 0.964404 0
M  V30 1451 H 141.431 -4.01497 -0.50813 0
M  V30 1452 H 140.001 -3.00864 -0.848523 0
M  V30 1453 H 139.221 -3.61982 1.56087 0
M  V30 1454 H 140.509 -4.83748 1.57688 0
M  V30 1455 H 139.907 -5.44153 -1.54642 0
M  V30 1456 H 138.464 -6.36389 -1.40899 0
M  V30 1457 N 141.898 -0.863906 -1.31812 0
M  V30 1458 C 142.861 -0.320212 -2.26952 0
M  V30 1459 C 143.861 0.525369 -1.51975 0
M  V30 1460 O 145.051 0.335547 -1.70938 0
M  V30 1461 C 142.183 0.545919 -3.365 0
M  V30 1462 H 143.376 -1.16004 -2.76556 0
M  V30 1463 H 140.929 -0.638995 -1.42641 0
M  V30 1464 H 141.664 1.40718 -2.92179 0
M  V30 1465 H 141.449 -0.0594674 -3.92055 0
M  V30 1466 H 142.939 0.918796 -4.07367 0
M  V30 1467 N 143.376 1.44774 -0.622745 0
M  V30 1468 C 144.306 2.33382 0.0741861 0
M  V30 1469 C 145.287 1.47719 0.843387 0
M  V30 1470 O 146.472 1.76458 0.810934 0
M  V30 1471 C 143.602 3.30663 1.06204 0
M  V30 1472 C 142.556 4.26079 0.405037 0
M  V30 1473 C 141.882 5.13165 1.5022 0
M  V30 1474 C 143.182 5.1781 -0.683414 0
M  V30 1475 H 144.876 2.91905 -0.665713 0
M  V30 1476 H 142.422 1.40363 -0.321587 0
M  V30 1477 H 144.375 3.9153 1.55827 0
M  V30 1478 H 143.099 2.70331 1.83272 0
M  V30 1479 H 141.758 3.66532 -0.0704683 0
M  V30 1480 H 141.406 4.49191 2.26355 0
M  V30 1481 H 141.106 5.77812 1.06803 0
M  V30 1482 H 142.63 5.76902 2.00041 0
M  V30 1483 H 144.044 5.72661 -0.270631 0
M  V30 1484 H 142.441 5.91015 -1.04023 0
M  V30 1485 H 143.511 4.59326 -1.55395 0
M  V30 1486 N 144.854 0.36279 1.53368 0
M  V30 1487 C 146.1 -0.228113 2.01513 0
M  V30 1488 C 146.433 -1.48648 1.2497 0
M  V30 1489 O 145.708 -1.91459 0.342616 0
M  V30 1490 C 145.991 -0.522884 3.56284 0
M  V30 1491 C 145.844 0.74892 4.43521 0
M  V30 1492 C 147.163 -1.32461 4.19693 0
M  V30 1493 H 144.282 -0.0814343 0.732487 0
M  V30 1494 H 146.924 0.48713 1.83649 0
M  V30 1495 H 145.074 -1.1322 3.71636 0
M  V30 1496 H 146.746 1.38648 4.39971 0
M  V30 1497 H 144.989 1.36986 4.11603 0
M  V30 1498 H 145.66 0.497667 5.49752 0
M  V30 1499 H 148.136 -0.809203 4.08156 0
M  V30 1500 H 147.012 -1.49961 5.28018 0
M  V30 1501 H 147.273 -2.33232 3.75573 0
M  V30 1502 N 146.332 -1.57332 0.0918853 0
M  V30 1503 C 147.748 -1.57389 -0.264766 0
M  V30 1504 C 147.948 -1.10281 -1.68643 0
M  V30 1505 O 147.004 -0.777801 -2.40222 0
M  V30 1506 C 148.317 -3.00648 -0.0561195 0
M  V30 1507 C 149.865 -3.12754 -0.124116 0
M  V30 1508 C 150.34 -4.57965 0.0564972 0
M  V30 1509 N 151.831 -4.632 0.00155611 0
M  V30 1510 C 152.566 -5.73281 0.116598 0
M  V30 1511 N 152.062 -6.92208 0.286294 0
M  V30 1512 N 153.855 -5.6207 0.0580973 0
M  V30 1513 H 146.006 -1.86262 1.02079 0
M  V30 1514 H 148.269 -0.859579 0.399786 0
M  V30 1515 H 147.975 -3.393 0.925669 0
M  V30 1516 H 147.849 -3.68623 -0.799823 0
M  V30 1517 H 150.236 -2.73976 -1.09641 0
M  V30 1518 H 150.317 -2.47377 0.651024 0
M  V30 1519 H 149.961 -4.97436 1.02564 0
M  V30 1520 H 149.891 -5.21399 -0.738297 0
M  V30 1521 H 152.382 -3.77686 -0.127192 0
M  V30 1522 H 152.695 -7.71934 0.365676 0
M  V30 1523 H 151.04 -6.94254 0.32192 0
M  V30 1524 H 154.231 -4.68043 -0.0733204 0
M  V30 1525 H 154.404 -6.47824 0.151203 0
M  V30 1526 N 147.81 0.181792 -1.56548 0
M  V30 1527 C 148.72 1.24538 -1.98815 0
M  V30 1528 C 149.736 1.49045 -0.897861 0
M  V30 1529 O 150.912 1.61399 -1.20467 0
M  V30 1530 C 147.977 2.56683 -2.33055 0
M  V30 1531 C 147.038 2.40131 -3.55859 0
M  V30 1532 C 146.271 3.65975 -3.88456 0
M  V30 1533 O 146.494 4.70711 -3.22161 0
M  V30 1534 O 145.428 3.6071 -4.81842 0
M  V30 1535 H 149.254 0.916647 -2.89536 0
M  V30 1536 H 146.839 0.387842 -1.44278 0
M  V30 1537 H 148.721 3.34655 -2.56094 0
M  V30 1538 H 147.396 2.89157 -1.45498 0
M  V30 1539 H 146.303 1.60226 -3.38051 0
M  V30 1540 H 147.636 2.12585 -4.43924 0
M  V30 1541 N 149.288 1.51039 0.449983 0
M  V30 1542 C 150.536 1.62759 1.19808 0
M  V30 1543 C 150.857 0.339981 1.92013 0
M  V30 1544 O 150.127 -0.643606 1.85026 0
M  V30 1545 H 148.707 0.599811 0.445237 0
M  V30 1546 H 151.369 1.87914 0.517138 0
M  V30 1547 H 150.465 2.44911 1.93455 0
M  V30 1548 N 150.766 -0.704594 1.40972 0
M  V30 1549 C 151.696 -1.83124 1.44872 0
M  V30 1550 C 152.677 -1.67281 0.30838 0
M  V30 1551 O 153.862 -1.87149 0.518556 0
M  V30 1552 C 150.992 -3.21181 1.32136 0
M  V30 1553 C 149.946 -3.51714 2.43888 0
M  V30 1554 C 149.272 -4.89032 2.16222 0
M  V30 1555 C 150.572 -3.516 3.86232 0
M  V30 1556 H 152.266 -1.80117 2.39161 0
M  V30 1557 H 149.812 -0.865145 1.15114 0
M  V30 1558 H 151.765 -3.99702 1.33479 0
M  V30 1559 H 150.489 -3.24791 0.343279 0
M  V30 1560 H 149.148 -2.75539 2.41813 0
M  V30 1561 H 148.796 -4.89256 1.16778 0
M  V30 1562 H 148.496 -5.10426 2.911 0
M  V30 1563 H 150.02 -5.69873 2.19265 0
M  V30 1564 H 151.434 -4.2014 3.9007 0
M  V30 1565 H 149.831 -3.84523 4.60719 0
M  V30 1566 H 150.901 -2.50757 4.15029 0
M  V30 1567 N 152.244 -1.26651 -0.937939 0
M  V30 1568 C 153.66 -1.03834 -1.21205 0
M  V30 1569 C 153.86 0.234502 -2.00131 0
M  V30 1570 O 152.916 0.942767 -2.3424 0
M  V30 1571 C 154.229 -2.27167 -1.97017 0
M  V30 1572 C 155.777 -2.32101 -2.09996 0
M  V30 1573 C 156.252 -3.55136 -2.8921 0
M  V30 1574 N 157.743 -3.55632 -2.96783 0
M  V30 1575 C 158.478 -4.475 -3.58512 0
M  V30 1576 N 157.974 -5.4966 -4.21717 0
M  V30 1577 N 159.767 -4.35145 -3.55816 0
M  V30 1578 H 151.918 -2.08398 -0.410391 0
M  V30 1579 H 154.181 -0.916031 -0.244114 0
M  V30 1580 H 153.887 -3.19765 -1.46434 0
M  V30 1581 H 153.761 -2.31672 -2.97671 0
M  V30 1582 H 156.148 -1.40015 -2.59769 0
M  V30 1583 H 156.229 -2.31605 -1.08594 0
M  V30 1584 H 155.873 -4.47553 -2.40123 0
M  V30 1585 H 155.803 -3.5288 -3.90875 0
M  V30 1586 H 158.294 -2.81743 -2.51852 0
M  V30 1587 H 158.607 -6.15943 -4.66727 0
M  V30 1588 H 156.952 -5.53514 -4.20294 0
M  V30 1589 H 160.143 -3.5455 -3.05634 0
M  V30 1590 H 160.316 -5.06934 -4.03636 0
M  V30 1591 N 153.722 1.14298 -1.08507 0
M  V30 1592 C 154.67 2.21483 -0.710483 0
M  V30 1593 C 155.664 1.66998 0.284234 0
M  V30 1594 O 156.87 1.79401 0.146692 0
M  V30 1595 H 153.245 0.721578 -0.211729 0
M  V30 1596 H 155.216 2.50348 -1.62384 0
M  V30 1597 C 153.965 3.4743 -0.137007 0
M  V30 1598 H 153.288 3.89686 -0.893592 0
M  V30 1599 H 154.728 4.2391 0.0872789 0
M  V30 1600 C 153.187 3.17548 1.12538 0
M  V30 1601 O 153.717 3.35437 2.21009 0
M  V30 1602 N 151.923 2.71499 1.03617 0
M  V30 1603 H 151.47 2.57143 0.153403 0
M  V30 1604 H 151.428 2.51881 1.88158 0
M  V30 1605 N 155.201 0.870884 1.31352 0
M  V30 1606 C 156.447 0.482987 1.96965 0
M  V30 1607 C 156.78 -0.962462 1.68672 0
M  V30 1608 O 156.055 -1.6779 0.98371 0
M  V30 1609 C 156.338 0.741752 3.52378 0
M  V30 1610 C 156.191 2.2368 3.9024 0
M  V30 1611 C 157.51 0.208838 4.39604 0
M  V30 1612 H 154.629 0.176955 0.715441 0
M  V30 1613 H 157.271 1.09229 1.55464 0
M  V30 1614 H 155.421 0.223149 3.87859 0
M  V30 1615 H 157.093 2.82273 3.64856 0
M  V30 1616 H 155.336 2.70901 3.38814 0
M  V30 1617 H 156.007 2.3685 4.98604 0
M  V30 1618 H 158.483 0.652529 4.10952 0
M  V30 1619 H 157.359 0.419336 5.47296 0
M  V30 1620 H 157.62 -0.889275 4.33064 0
M  V30 1621 N 156.679 -1.44442 0.630414 0
M  V30 1622 C 157.642 -2.29107 -0.0652523 0
M  V30 1623 C 158.642 -1.41002 -0.772995 0
M  V30 1624 O 159.832 -1.62881 -0.617692 0
M  V30 1625 C 156.964 -3.22564 -1.10296 0
M  V30 1626 H 158.157 -2.92103 0.679401 0
M  V30 1627 H 155.71 -1.51343 0.390517 0
M  V30 1628 H 156.445 -2.64416 -1.87762 0
M  V30 1629 H 156.23 -3.87491 -0.59941 0
M  V30 1630 H 157.72 -3.86167 -1.5895 0
M  V30 1631 N 158.157 -0.370918 -1.53173 0
M  V30 1632 C 159.12 0.460778 -2.24521 0
M  V30 1633 C 160.12 1.00536 -1.25496 0
M  V30 1634 O 161.31 0.890266 -1.49733 0
M  V30 1635 C 158.442 1.64457 -2.98608 0
M  V30 1636 H 159.635 -0.163613 -2.99453 0
M  V30 1637 H 157.188 -0.122699 -1.55818 0
M  V30 1638 H 157.923 2.30691 -2.2793 0
M  V30 1639 H 157.708 1.26099 -3.7127 0
M  V30 1640 H 159.198 2.23384 -3.5283 0
M  V30 1641 N 159.635 1.57281 -0.100228 0
M  V30 1642 C 160.883 1.94153 0.561157 0
M  V30 1643 C 161.204 0.983157 1.68401 0
M  V30 1644 O 160.474 0.0361132 1.95867 0
M  V30 1645 H 159.054 0.716791 0.210283 0
M  V30 1646 H 161.716 1.94202 -0.164765 0
M  V30 1647 H 160.812 2.96709 0.968008 0
M  V30 1648 N 161.113 -0.173488 1.56642 0
M  V30 1649 C 162.076 -1.19859 1.95362 0
M  V30 1650 C 163.076 -1.37296 0.83704 0
M  V30 1651 O 164.266 -1.34739 1.10413 0
M  V30 1652 C 161.398 -2.56405 2.24654 0
M  V30 1653 H 162.591 -0.867062 2.87092 0
M  V30 1654 H 160.144 -0.415853 1.50666 0
M  V30 1655 H 160.879 -2.94576 1.35631 0
M  V30 1656 H 160.664 -2.45115 3.06041 0
M  V30 1657 H 162.154 -3.30287 2.5554 0
M  V30 1658 N 162.591 -1.51276 -0.441967 0
M  V30 1659 C 163.539 -1.72823 -1.55676 0
M  V30 1660 C 164.533 -0.59445 -1.58627 0
M  V30 1661 O 165.739 -0.775715 -1.62427 0
M  V30 1662 H 162.114 -0.545983 -0.517113 0
M  V30 1663 H 164.085 -2.6628 -1.34675 0
M  V30 1664 C 162.834 -1.86619 -2.93375 0
M  V30 1665 H 162.157 -2.73264 -2.91834 0
M  V30 1666 H 163.597 -2.05709 -3.70756 0
M  V30 1667 C 162.056 -0.624842 -3.31055 0
M  V30 1668 O 162.586 0.222636 -4.01083 0
M  V30 1669 N 160.792 -0.470288 -2.86769 0
M  V30 1670 H 160.339 -1.161 -2.29953 0
M  V30 1671 H 160.297 0.359051 -3.12343 0
M  V30 1672 N 164.069 0.697108 -1.41344 0
M  V30 1673 C 165.48 1.27697 -1.36199 0
M  V30 1674 C 165.831 1.9615 -0.0443463 0
M  V30 1675 O 164.956 1.98689 0.857419 0
M  V30 1676 C 165.551 2.32223 -2.46694 0
M  V30 1677 C 164.11 2.8579 -2.44952 0
M  V30 1678 C 163.257 1.59807 -2.26621 0
M  V30 1679 H 166.208 0.491968 -1.50882 0
M  V30 1680 H 166.229 3.1348 -2.15664 0
M  V30 1681 H 165.741 1.82373 -3.42581 0
M  V30 1682 H 163.842 3.3982 -1.52817 0
M  V30 1683 H 163.955 3.36325 -3.41207 0
M  V30 1684 H 162.319 1.8556 -1.7447 0
M  V30 1685 H 163.102 1.11956 -3.24532 0
M  V30 1686 N 165.547 1.27147 0.931209 0
M  V30 1687 C 166.477 1.12081 2.04842 0
M  V30 1688 C 167.458 0.0232364 1.70084 0
M  V30 1689 O 168.643 0.197085 1.93197 0
M  V30 1690 C 165.773 0.76354 3.38803 0
M  V30 1691 C 164.727 1.81396 3.87659 0
M  V30 1692 C 164.053 1.31075 5.18385 0
M  V30 1693 C 165.353 3.21739 4.11438 0
M  V30 1694 H 167.047 2.05537 2.17703 0
M  V30 1695 H 164.593 0.989603 1.04608 0
M  V30 1696 H 166.546 0.644982 4.16435 0
M  V30 1697 H 165.27 -0.206727 3.25945 0
M  V30 1698 H 163.929 1.92136 3.12217 0
M  V30 1699 H 163.577 0.330037 5.01916 0
M  V30 1700 H 163.277 2.013 5.52044 0
M  V30 1701 H 164.801 1.20506 5.98591 0
M  V30 1702 H 166.215 3.14019 4.79651 0
M  V30 1703 H 164.612 3.89644 4.56397 0
M  V30 1704 H 165.682 3.67054 3.16859 0
M  V30 1705 N 167.025 -1.13721 1.09112 0
M  V30 1706 C 168.273 -1.84559 0.823562 0
M  V30 1707 C 168.594 -1.83754 -0.652658 0
M  V30 1708 O 167.864 -1.29102 -1.47342 0
M  V30 1709 H 166.444 -0.683376 0.301673 0
M  V30 1710 H 169.106 -1.37771 1.37859 0
M  V30 1711 H 168.202 -2.8917 1.17419 0
M  V30 1712 N 168.503 -0.877838 -1.30888 0
M  V30 1713 C 169.433 -0.35534 -2.3078 0
M  V30 1714 C 170.414 0.557994 -1.60687 0
M  V30 1715 O 171.599 0.473355 -1.88343 0
M  V30 1716 C 168.729 0.437221 -3.44537 0
M  V30 1717 C 167.683 -0.383715 -4.26276 0
M  V30 1718 C 167.009 0.535014 -5.32017 0
M  V30 1719 C 168.309 -1.62201 -4.96476 0
M  V30 1720 H 170.003 -1.19007 -2.74732 0
M  V30 1721 H 167.549 -0.573698 -1.32078 0
M  V30 1722 H 169.502 0.813334 -4.13477 0
M  V30 1723 H 168.226 1.30553 -2.99372 0
M  V30 1724 H 166.885 -0.741874 -3.59015 0
M  V30 1725 H 166.533 1.40083 -4.831 0
M  V30 1726 H 166.233 -0.0104211 -5.87599 0
M  V30 1727 H 167.757 0.907799 -6.03814 0
M  V30 1728 H 169.171 -1.31689 -5.5797 0
M  V30 1729 H 167.568 -2.10711 -5.61891 0
M  V30 1730 H 168.638 -2.37044 -4.23011 0
M  V30 1731 N 169.982 1.44106 -0.638065 0
M  V30 1732 C 170.929 2.30715 0.062701 0
M  V30 1733 C 171.899 1.43882 0.829883 0
M  V30 1734 O 173.084 1.72775 0.809532 0
M  V30 1735 C 170.224 3.29258 1.03358 0
M  V30 1736 C 169.337 4.31192 0.26409 0
M  V30 1737 C 168.472 5.16825 1.22741 0
M  V30 1738 C 167.511 6.10462 0.447475 0
M  V30 1739 N 166.648 6.8877 1.36161 0
M  V30 1740 H 171.488 2.90096 -0.681781 0
M  V30 1741 H 169.025 1.42925 -0.347988 0
M  V30 1742 H 170.983 3.84886 1.60992 0
M  V30 1743 H 169.613 2.71562 1.74511 0
M  V30 1744 H 168.665 3.77981 -0.428295 0
M  V30 1745 H 169.977 4.97619 -0.343052 0
M  V30 1746 H 169.131 5.77004 1.87487 0
M  V30 1747 H 167.87 4.50488 1.86847 0
M  V30 1748 H 166.875 5.49386 -0.213433 0
M  V30 1749 H 168.1 6.78837 -0.188968 0
M  V30 1750 H 166.046 6.25096 1.98975 0
M  V30 1751 H 165.963 7.51663 0.808656 0
M  V30 1752 H 167.231 7.53467 1.99769 0
M  V30 1753 N 171.46 0.379036 1.52974 0
M  V30 1754 C 172.876 0.0285448 1.59574 0
M  V30 1755 C 173.076 -1.45542 1.39355 0
M  V30 1756 O 172.132 -2.2187 1.20541 0
M  V30 1757 C 173.445 0.496535 2.96572 0
M  V30 1758 C 174.993 0.451909 3.0972 0
M  V30 1759 C 175.468 0.895924 4.49152 0
M  V30 1760 N 176.959 0.851522 4.55306 0
M  V30 1761 C 177.694 1.16661 5.61407 0
M  V30 1762 N 177.19 1.55166 6.752 0
M  V30 1763 N 178.983 1.08853 5.51459 0
M  V30 1764 H 171.134 1.34525 1.64367 0
M  V30 1765 H 173.397 0.550733 0.771619 0
M  V30 1766 H 173.103 1.53258 3.16552 0
M  V30 1767 H 172.977 -0.109802 3.7704 0
M  V30 1768 H 175.364 -0.575029 2.89443 0
M  V30 1769 H 175.445 1.09392 2.3123 0
M  V30 1770 H 175.089 1.92104 4.70168 0
M  V30 1771 H 175.019 0.23103 5.26093 0
M  V30 1772 H 177.51 0.568038 3.73606 0
M  V30 1773 H 177.823 1.776 7.52116 0
M  V30 1774 H 176.168 1.59044 6.76557 0
M  V30 1775 H 179.359 0.786803 4.6144 0
M  V30 1776 H 179.532 1.33742 6.34048 0
M  V30 1777 N 172.938 -1.57226 0.108567 0
M  V30 1778 C 174.186 -1.94448 -0.550853 0
M  V30 1779 C 174.507 -0.992074 -1.67878 0
M  V30 1780 O 173.777 -0.0465 -1.95845 0
M  V30 1781 H 172.357 -0.717897 -0.206479 0
M  V30 1782 H 175.019 -1.94112 0.175062 0
M  V30 1783 H 174.115 -2.97218 -0.952259 0
M  V30 1784 N 174.416 0.165178 -1.56732 0
M  V30 1785 C 175.665 0.879143 -1.81532 0
M  V30 1786 C 175.978 1.83144 -0.686842 0
M  V30 1787 O 177.184 2.58823 -0.819944 0
M  V30 1788 C 175.64 1.61388 -3.21686 0
M  V30 1789 C 175.248 0.704904 -4.4242 0
M  V30 1790 C 176.992 2.3157 -3.55774 0
M  V30 1791 C 174.899 1.44022 -5.73595 0
M  V30 1792 H 173.829 0.332033 -0.676957 0
M  V30 1793 H 176.48 0.132008 -1.83025 0
M  V30 1794 H 174.862 2.40599 -3.14529 0
M  V30 1795 H 176.036 -0.0506815 -4.60772 0
M  V30 1796 H 174.351 0.112419 -4.16248 0
M  V30 1797 H 176.948 2.8719 -4.51028 0
M  V30 1798 H 177.291 3.07201 -2.8095 0
M  V30 1799 H 177.824 1.59297 -3.64513 0
M  V30 1800 H 174.563 0.72612 -6.51466 0
M  V30 1801 H 174.083 2.16898 -5.5921 0
M  V30 1802 H 175.762 1.98606 -6.15764 0
M  V30 1803 N 175.894 1.51508 0.433938 0
M  V30 1804 C 176.804 1.75917 1.5521 0
M  V30 1805 C 177.82 0.643545 1.61662 0
M  V30 1806 O 178.996 0.926183 1.7884 0
M  V30 1807 C 176.061 1.88213 2.91164 0
M  V30 1808 C 175.122 3.12074 2.94802 0
M  V30 1809 C 174.355 3.23774 4.24271 0
M  V30 1810 O 174.578 2.4133 5.16833 0
M  V30 1811 O 173.512 4.16774 4.34262 0
M  V30 1812 H 177.338 2.70777 1.37527 0
M  V30 1813 H 174.923 1.36051 0.617293 0
M  V30 1814 H 176.805 1.98267 3.71845 0
M  V30 1815 H 175.48 0.965413 3.08968 0
M  V30 1816 H 174.387 3.07497 2.13065 0
M  V30 1817 H 175.72 4.03446 2.81943 0
M  V30 1818 N 177.372 -0.689602 1.41712 0
M  V30 1819 C 178.319 -1.80345 1.44029 0
M  V30 1820 C 179.289 -1.63478 0.293948 0
M  V30 1821 O 180.474 -1.84244 0.495869 0
M  V30 1822 C 177.614 -3.18272 1.33405 0
M  V30 1823 C 176.727 -3.46529 2.57956 0
M  V30 1824 C 175.862 -4.74103 2.39582 0
M  V30 1825 C 174.901 -4.95347 3.5958 0
M  V30 1826 N 174.038 -6.14151 3.40239 0
M  V30 1827 H 178.878 -1.77698 2.39222 0
M  V30 1828 H 176.415 -0.867688 1.18784 0
M  V30 1829 H 178.373 -3.97956 1.25246 0
M  V30 1830 H 177.003 -3.2008 0.418164 0
M  V30 1831 H 176.055 -2.61207 2.76542 0
M  V30 1832 H 177.367 -3.58126 3.47199 0
M  V30 1833 H 176.521 -5.61853 2.28924 0
M  V30 1834 H 175.26 -4.64763 1.47805 0
M  V30 1835 H 174.265 -4.06044 3.70686 0
M  V30 1836 H 175.49 -5.06542 4.52318 0
M  V30 1837 H 173.436 -6.06013 2.51167 0
M  V30 1838 H 173.353 -6.26543 4.23061 0
M  V30 1839 H 174.621 -7.04619 3.33365 0
M  V30 1840 N 178.85 -1.27639 -0.924453 0
M  V30 1841 C 179.813 -1.10681 -2.00705 0
M  V30 1842 C 180.813 -0.0497823 -1.60723 0
M  V30 1843 O 182.003 -0.294654 -1.7169 0
M  V30 1844 C 179.135 -0.687164 -3.33902 0
M  V30 1845 H 180.328 -2.06817 -2.17179 0
M  V30 1846 H 177.881 -1.10473 -1.10569 0
M  V30 1847 H 178.616 0.275439 -3.23128 0
M  V30 1848 H 178.401 -1.45061 -3.6428 0
M  V30 1849 H 179.891 -0.590853 -4.13399 0
M  V30 1850 N 180.328 1.1314 -1.09713 0
M  V30 1851 C 181.574 1.84757 -0.836224 0
M  V30 1852 C 181.907 1.8347 0.636598 0
M  V30 1853 O 181.182 1.27491 1.46889 0
M  V30 1854 C 181.465 3.32782 -1.37578 0
M  V30 1855 C 181.318 3.42567 -2.91493 0
M  V30 1856 C 182.637 4.28307 -1.01198 0
M  V30 1857 H 179.756 0.67082 -0.305236 0
M  V30 1858 H 182.398 1.3278 -1.35903 0
M  V30 1859 H 180.548 3.77177 -0.931097 0
M  V30 1860 H 182.22 3.06862 -3.44432 0
M  V30 1861 H 180.463 2.83349 -3.28475 0
M  V30 1862 H 181.134 4.46674 -3.24324 0
M  V30 1863 H 183.61 3.91999 -1.39556 0
M  V30 1864 H 182.486 5.30307 -1.41653 0
M  V30 1865 H 182.747 4.42029 0.0794833 0
M  V30 1866 N 181.806 0.884767 1.30421 0
M  V30 1867 C 182.716 0.355398 2.31892 0
M  V30 1868 C 183.732 -0.542261 1.65335 0
M  V30 1869 O 184.908 -0.435432 1.96637 0
M  V30 1870 C 181.973 -0.421661 3.44126 0
M  V30 1871 C 181.034 0.505727 4.26311 0
M  V30 1872 C 180.267 -0.234343 5.33185 0
M  V30 1873 O 180.49 -1.46045 5.51386 0
M  V30 1874 O 179.424 0.415443 6.00465 0
M  V30 1875 H 183.25 1.19685 2.79122 0
M  V30 1876 H 180.835 0.648596 1.34587 0
M  V30 1877 H 182.717 -0.861641 4.12497 0
M  V30 1878 H 181.392 -1.23942 2.99032 0
M  V30 1879 H 180.299 0.994513 3.60639 0
M  V30 1880 H 181.632 1.28948 4.75009 0
M  V30 1881 N 183.284 -1.43765 0.645699 0
M  V30 1882 C 184.231 -2.30745 -0.0504648 0
M  V30 1883 C 185.201 -1.4432 -0.822241 0
M  V30 1884 O 186.386 -1.73202 -0.800358 0
M  V30 1885 C 183.526 -3.29802 -1.0161 0
M  V30 1886 C 182.639 -4.31326 -0.241219 0
M  V30 1887 C 181.774 -5.17469 -1.19998 0
M  V30 1888 C 180.813 -6.10691 -0.415094 0
M  V30 1889 N 179.95 -6.89483 -1.32506 0
M  V30 1890 H 184.79 -2.8973 0.697155 0
M  V30 1891 H 182.327 -1.42738 0.355563 0
M  V30 1892 H 184.285 -3.85734 -1.58949 0
M  V30 1893 H 182.915 -2.72483 -1.73069 0
M  V30 1894 H 181.967 -3.77749 0.448334 0
M  V30 1895 H 183.279 -4.9743 0.369437 0
M  V30 1896 H 182.433 -5.7799 -1.84424 0
M  V30 1897 H 181.172 -4.51473 -1.84455 0
M  V30 1898 H 180.177 -5.49265 0.242565 0
M  V30 1899 H 181.402 -6.78727 0.224966 0
M  V30 1900 H 179.348 -6.26142 -1.95657 0
M  V30 1901 H 179.265 -7.52081 -0.768783 0
M  V30 1902 H 180.533 -7.54516 -1.9577 0
M  V30 1903 N 184.763 -0.387143 -1.52771 0
M  V30 1904 C 186.009 0.196025 -2.0185 0
M  V30 1905 C 186.342 1.46641 -1.27319 0
M  V30 1906 O 185.617 1.90889 -0.373032 0
M  V30 1907 C 185.9 0.466136 -3.5707 0
M  V30 1908 C 185.753 -0.819385 -4.42274 0
M  V30 1909 C 187.072 1.25768 -4.21747 0
M  V30 1910 H 184.191 0.0697708 -0.73369 0
M  V30 1911 H 186.833 -0.516286 -1.82851 0
M  V30 1912 H 184.983 1.07293 -3.7339 0
M  V30 1913 H 186.655 -1.4563 -4.37709 0
M  V30 1914 H 184.898 -1.43517 -4.09372 0
M  V30 1915 H 185.569 -0.585065 -5.48891 0
M  V30 1916 H 188.045 0.744167 -4.09391 0
M  V30 1917 H 186.921 1.41541 -5.30337 0
M  V30 1918 H 187.182 2.27228 -3.79236 0
M  V30 1919 N 186.241 1.57166 -0.116904 0
M  V30 1920 C 187.469 1.99473 0.549383 0
M  V30 1921 C 187.884 0.996541 1.60357 0
M  V30 1922 O 187.241 -0.0108731 1.82497 0
M  V30 1923 C 187.292 3.41788 1.17741 0
M  V30 1924 O 187.013 4.37788 0.165362 0
M  V30 1925 C 188.514 3.99216 1.92722 0
M  V30 1926 H 185.734 0.655009 0.145616 0
M  V30 1927 H 188.278 2.03494 -0.202625 0
M  V30 1928 H 186.433 3.38713 1.88021 0
M  V30 1929 H 186.847 5.20806 0.621403 0
M  V30 1930 H 188.321 5.00882 2.31995 0
M  V30 1931 H 188.798 3.3824 2.80161 0
M  V30 1932 H 189.404 4.0583 1.27209 0
M  V30 1933 N 187.719 -0.156864 1.56817 0
M  V30 1934 C 188.629 -1.2136 2.00771 0
M  V30 1935 C 189.645 -1.47598 0.921459 0
M  V30 1936 O 190.821 -1.59462 1.2302 0
M  V30 1937 C 187.886 -2.52943 2.37109 0
M  V30 1938 C 186.947 -2.34439 3.59634 0
M  V30 1939 C 186.18 -3.59748 3.94229 0
M  V30 1940 O 186.403 -4.65526 3.29609 0
M  V30 1941 O 185.337 -3.52998 4.8752 0
M  V30 1942 H 189.163 -0.870468 2.90958 0
M  V30 1943 H 186.748 -0.36484 1.44877 0
M  V30 1944 H 188.63 -3.30538 2.61386 0
M  V30 1945 H 187.305 -2.86806 1.5008 0
M  V30 1946 H 186.212 -1.54828 3.40557 0
M  V30 1947 H 187.545 -2.05496 4.4725 0
M  V30 1948 N 189.197 -1.51736 -0.425897 0
M  V30 1949 C 190.425 -1.68794 -1.1965 0
M  V30 1950 C 190.84 -0.390164 -1.84725 0
M  V30 1951 O 190.197 0.632376 -1.71194 0
M  V30 1952 C 190.248 -2.81174 -2.27208 0
M  V30 1953 O 189.969 -4.05925 -1.64793 0
M  V30 1954 C 191.47 -3.09599 -3.17275 0
M  V30 1955 H 188.69 -0.566128 -0.360194 0
M  V30 1956 H 191.234 -1.98211 -0.503249 0
M  V30 1957 H 189.389 -2.54324 -2.9223 0
M  V30 1958 H 189.803 -4.68423 -2.35967 0
M  V30 1959 H 191.277 -3.91786 -3.88854 0
M  V30 1960 H 191.754 -2.22468 -3.78688 0
M  V30 1961 H 192.36 -3.38151 -2.57941 0
M  V30 1962 N 190.675 0.682077 -1.42076 0
M  V30 1963 C 191.605 1.80796 -1.47767 0
M  V30 1964 C 192.586 1.6677 -0.334954 0
M  V30 1965 O 193.771 1.863 -0.548264 0
M  V30 1966 C 190.901 3.19038 -1.37229 0
M  V30 1967 C 189.855 3.47789 -2.49453 0
M  V30 1968 C 189.181 4.8553 -2.23975 0
M  V30 1969 C 190.481 3.45411 -3.91776 0
M  V30 1970 H 192.175 1.7629 -2.41997 0
M  V30 1971 H 189.721 0.846721 -1.16476 0
M  V30 1972 H 191.674 3.97528 -1.39821 0
M  V30 1973 H 190.398 3.24204 -0.394907 0
M  V30 1974 H 189.057 2.71657 -2.46166 0
M  V30 1975 H 188.705 4.87337 -1.24547 0
M  V30 1976 H 188.405 5.0573 -2.99184 0
M  V30 1977 H 189.929 5.66312 -2.28304 0
M  V30 1978 H 191.343 4.13882 -3.96705 0
M  V30 1979 H 189.74 3.77145 -4.66778 0
M  V30 1980 H 190.81 2.44122 -4.18966 0
M  V30 1981 N 192.153 1.28127 0.917671 0
M  V30 1982 C 193.083 1.14248 2.03641 0
M  V30 1983 C 194.064 0.0412748 1.7005 0
M  V30 1984 O 195.249 0.217566 1.92977 0
M  V30 1985 C 192.379 0.799431 3.37974 0
M  V30 1986 C 191.333 1.85497 3.85713 0
M  V30 1987 C 190.659 1.36565 5.16966 0
M  V30 1988 C 191.959 3.26085 4.08002 0
M  V30 1989 H 193.653 2.07835 2.15511 0
M  V30 1990 H 191.199 1.00064 1.03553 0
M  V30 1991 H 193.152 0.689114 4.15727 0
M  V30 1992 H 191.876 -0.172145 3.26146 0
M  V30 1993 H 190.535 1.95437 3.10161 0
M  V30 1994 H 190.183 0.383253 5.01538 0
M  V30 1995 H 189.883 2.07143 5.49878 0
M  V30 1996 H 191.407 1.26848 5.97279 0
M  V30 1997 H 192.821 3.19089 4.76293 0
M  V30 1998 H 191.218 3.94462 4.52238 0
M  V30 1999 H 192.288 3.70394 3.12948 0
M  V30 2000 N 193.631 -1.12557 1.10312 0
M  V30 2001 C 194.578 -2.18247 0.750781 0
M  V30 2002 C 195.548 -1.63853 -0.272293 0
M  V30 2003 O 196.733 -1.90195 -0.151862 0
M  V30 2004 C 193.873 -3.44591 0.187379 0
M  V30 2005 C 192.986 -4.13046 1.2656 0
M  V30 2006 C 192.121 -5.27034 0.663978 0
M  V30 2007 C 191.16 -5.87353 1.72287 0
M  V30 2008 N 190.297 -6.92757 1.1416 0
M  V30 2009 H 195.137 -2.47732 1.65628 0
M  V30 2010 H 192.674 -1.21629 0.827337 0
M  V30 2011 H 194.632 -4.16904 -0.157148 0
M  V30 2012 H 193.262 -3.15527 -0.681355 0
M  V30 2013 H 192.314 -3.38924 1.72727 0
M  V30 2014 H 193.626 -4.53947 2.06721 0
M  V30 2015 H 192.78 -6.06104 0.268824 0
M  V30 2016 H 191.519 -4.87407 -0.169082 0
M  V30 2017 H 190.524 -5.06971 2.12746 0
M  V30 2018 H 191.749 -6.29051 2.55875 0
M  V30 2019 H 189.695 -6.5517 0.329984 0
M  V30 2020 H 189.612 -7.3225 1.88007 0
M  V30 2021 H 190.88 -7.75658 0.772956 0
M  V30 2022 N 195.109 -0.891671 -1.2995 0
M  V30 2023 C 196.357 -0.512486 -1.95494 0
M  V30 2024 C 196.678 0.942776 -1.70695 0
M  V30 2025 O 195.948 1.66374 -1.03424 0
M  V30 2026 H 194.528 -0.186533 -0.723336 0
M  V30 2027 H 197.19 -1.13621 -1.58355 0
M  V30 2028 H 196.286 -0.688342 -3.04415 0
M  V30 2029 N 196.587 1.43421 -0.653314 0
M  V30 2030 C 197.55 2.29182 0.0287951 0
M  V30 2031 C 198.55 1.42213 0.750465 0
M  V30 2032 O 199.74 1.63843 0.591701 0
M  V30 2033 C 196.872 3.24278 1.05151 0
M  V30 2034 H 198.065 2.90985 -0.725786 0
M  V30 2035 H 195.618 1.50702 -0.414545 0
M  V30 2036 H 196.353 2.6737 1.83532 0
M  V30 2037 H 196.138 3.88396 0.537687 0
M  V30 2038 H 197.628 3.88647 1.52786 0
M  V30 2039 N 198.065 0.39524 1.52563 0
M  V30 2040 C 199.012 -0.437036 2.26624 0
M  V30 2041 C 199.982 -1.05281 1.28472 0
M  V30 2042 O 201.167 -1.07971 1.57311 0
M  V30 2043 C 198.307 -1.55524 3.08069 0
M  V30 2044 C 197.42 -0.961745 4.21158 0
M  V30 2045 C 196.555 -2.05149 4.89987 0
M  V30 2046 C 195.594 -1.4342 5.95061 0
M  V30 2047 N 194.731 -2.46351 6.57462 0
M  V30 2048 H 199.571 0.200976 2.97322 0
M  V30 2049 H 197.108 0.110944 1.46681 0
M  V30 2050 H 199.066 -2.21437 3.53584 0
M  V30 2051 H 197.696 -2.16348 2.3957 0
M  V30 2052 H 196.748 -0.192048 3.79915 0
M  V30 2053 H 198.06 -0.470701 4.96574 0
M  V30 2054 H 197.214 -2.78819 5.38837 0
M  V30 2055 H 195.953 -2.57615 4.14109 0
M  V30 2056 H 194.958 -0.682774 5.45544 0
M  V30 2057 H 196.183 -0.917416 6.72875 0
M  V30 2058 H 194.129 -2.97975 5.8442 0
M  V30 2059 H 194.046 -2.02019 7.28508 0
M  V30 2060 H 195.314 -3.19633 7.10954 0
M  V30 2061 N 199.544 -1.57102 0.125237 0
M  V30 2062 C 200.454 -2.19191 -0.8362 0
M  V30 2063 C 201.47 -1.16985 -1.28805 0
M  V30 2064 O 202.646 -1.49479 -1.34974 0
M  V30 2065 C 199.711 -2.78407 -2.06617 0
M  V30 2066 C 198.772 -3.9567 -1.66565 0
M  V30 2067 C 198.005 -4.52052 -2.83698 0
M  V30 2068 O 198.228 -4.07326 -3.99302 0
M  V30 2069 O 197.162 -5.42645 -2.60423 0
M  V30 2070 H 200.988 -3.01816 -0.337776 0
M  V30 2071 H 198.573 -1.4906 -0.100695 0
M  V30 2072 H 200.455 -3.16129 -2.7864 0
M  V30 2073 H 199.13 -1.9881 -2.55453 0
M  V30 2074 H 198.037 -3.62705 -0.916296 0
M  V30 2075 H 199.37 -4.76722 -1.22464 0
M  V30 2076 N 201.022 0.148545 -1.56898 0
M  V30 2077 C 202.268 0.862694 -1.83536 0
M  V30 2078 C 202.601 1.80889 -0.706604 0
M  V30 2079 O 201.876 1.92328 0.289885 0
M  V30 2080 C 202.159 1.63853 -3.20662 0
M  V30 2081 C 202.012 0.713925 -4.44098 0
M  V30 2082 C 203.331 2.60133 -3.54991 0
M  V30 2083 H 200.45 0.312179 -0.667618 0
M  V30 2084 H 203.092 0.127953 -1.89569 0
M  V30 2085 H 201.242 2.26489 -3.1565 0
M  V30 2086 H 202.914 0.098686 -4.61194 0
M  V30 2087 H 201.157 0.0234019 -4.33794 0
M  V30 2088 H 201.828 1.29278 -5.36648 0
M  V30 2089 H 204.304 2.07616 -3.60603 0
M  V30 2090 H 203.18 3.11468 -4.51972 0
M  V30 2091 H 203.441 3.41417 -2.80868 0
M  V30 2092 N 202.5 1.5196 0.417844 0
M  V30 2093 C 203.41 1.77554 1.53336 0
M  V30 2094 C 204.426 0.660655 1.6097 0
M  V30 2095 O 205.602 0.945099 1.77848 0
M  V30 2096 C 202.667 1.91291 2.89152 0
M  V30 2097 C 201.728 3.15183 2.91475 0
M  V30 2098 C 200.961 3.28256 4.20813 0
M  V30 2099 O 201.184 2.46798 5.14244 0
M  V30 2100 O 200.118 4.21356 4.29817 0
M  V30 2101 H 203.944 2.7222 1.34647 0
M  V30 2102 H 201.529 1.36698 0.602828 0
M  V30 2103 H 203.411 2.02199 3.69721 0
M  V30 2104 H 202.086 0.998129 3.07927 0
M  V30 2105 H 200.993 3.09739 2.09791 0
M  V30 2106 H 202.326 4.06414 2.77648 0
M  V30 2107 N 203.978 -0.674533 1.42435 0
M  V30 2108 C 205.206 -1.46283 1.46317 0
M  V30 2109 C 205.621 -1.88653 0.0745836 0
M  V30 2110 O 204.978 -1.58151 -0.91074 0
M  V30 2111 C 205.029 -2.71178 2.3905 0
M  V30 2112 O 204.75 -2.30586 3.72507 0
M  V30 2113 C 206.251 -3.64738 2.51955 0
M  V30 2114 H 203.471 -0.450104 0.497642 0
M  V30 2115 H 206.015 -0.828792 1.86953 0
M  V30 2116 H 204.17 -3.3077 2.01667 0
M  V30 2117 H 204.584 -3.11241 4.22172 0
M  V30 2118 H 206.058 -4.49096 3.20962 0
M  V30 2119 H 206.535 -4.10656 1.55752 0
M  V30 2120 H 207.141 -3.11038 2.90061 0
M  V30 2121 N 205.456 -1.28612 -0.910864 0
M  V30 2122 C 206.403 -1.12786 -2.01365 0
M  V30 2123 C 207.373 -0.024201 -1.66082 0
M  V30 2124 O 208.558 -0.189667 -1.89855 0
M  V30 2125 C 205.698 -0.798743 -3.35729 0
M  V30 2126 C 204.811 -1.98173 -3.83864 0
M  V30 2127 C 203.946 -1.59298 -5.06752 0
M  V30 2128 C 202.985 -2.74245 -5.47226 0
M  V30 2129 N 202.122 -2.35842 -6.61304 0
M  V30 2130 H 206.962 -2.07142 -2.14234 0
M  V30 2131 H 204.499 -1.03093 -1.0493 0
M  V30 2132 H 206.457 -0.588662 -4.13026 0
M  V30 2133 H 205.087 0.10789 -3.2262 0
M  V30 2134 H 204.139 -2.30386 -3.02699 0
M  V30 2135 H 205.451 -2.84343 -4.09818 0
M  V30 2136 H 204.605 -1.34513 -5.916 0
M  V30 2137 H 203.344 -0.702618 -4.82612 0
M  V30 2138 H 202.349 -2.99725 -4.60918 0
M  V30 2139 H 203.574 -3.63928 -5.73353 0
M  V30 2140 H 201.52 -1.49279 -6.38789 0
M  V30 2141 H 201.437 -3.15546 -6.86998 0
M  V30 2142 H 202.705 -2.14348 -7.4945 0
M  V30 2143 N 206.934 1.1197 -1.10907 0
M  V30 2144 C 207.844 2.21433 -0.774896 0
M  V30 2145 C 208.86 1.72478 0.229657 0
M  V30 2146 O 210.036 2.01288 0.0672008 0
M  V30 2147 C 207.101 3.4602 -0.216986 0
M  V30 2148 C 206.162 4.09791 -1.27944 0
M  V30 2149 C 205.395 5.28431 -0.748055 0
M  V30 2150 O 205.618 5.68823 0.423833 0
M  V30 2151 O 204.552 5.82644 -1.51027 0
M  V30 2152 H 208.378 2.5242 -1.68873 0
M  V30 2153 H 205.963 1.20399 -0.884555 0
M  V30 2154 H 207.845 4.21304 0.090059 0
M  V30 2155 H 206.52 3.16698 0.669633 0
M  V30 2156 H 205.427 3.36265 -1.63941 0
M  V30 2157 H 206.76 4.4328 -2.13925 0
M  V30 2158 N 208.412 0.89855 1.29475 0
M  V30 2159 C 209.344 0.332726 2.26772 0
M  V30 2160 C 210.357 -0.520323 1.54261 0
M  V30 2161 O 211.546 -0.337668 1.75277 0
M  V30 2162 C 208.646 -0.544334 3.345 0
M  V30 2163 C 207.819 0.282728 4.36485 0
M  V30 2164 C 206.878 -0.526982 5.23555 0
M  V30 2165 O 205.904 0.0551165 5.69173 0
M  V30 2166 N 207.106 -1.83331 5.5079 0
M  V30 2167 H 209.871 1.16897 2.75962 0
M  V30 2168 H 207.432 0.762919 1.42798 0
M  V30 2169 H 209.424 -1.09239 3.89678 0
M  V30 2170 H 207.994 -1.28127 2.85136 0
M  V30 2171 H 207.214 1.01221 3.80983 0
M  V30 2172 H 208.502 0.84918 5.01664 0
M  V30 2173 H 207.9 -2.32898 5.15534 0
M  V30 2174 H 206.457 -2.32852 6.08788 0
M  V30 2175 N 209.89 -1.43072 0.660911 0
M  V30 2176 C 211.139 -2.00942 0.174735 0
M  V30 2177 C 211.452 -1.52797 -1.22117 0
M  V30 2178 O 212.658 -2.02991 -1.80297 0
M  V30 2179 C 211.114 -3.58948 0.261559 0
M  V30 2180 C 210.722 -4.16085 1.66064 0
M  V30 2181 C 212.466 -4.24173 -0.166617 0
M  V30 2182 C 210.373 -5.6641 1.70098 0
M  V30 2183 H 209.303 -0.751483 0.0615631 0
M  V30 2184 H 211.954 -1.63955 0.824069 0
M  V30 2185 H 210.336 -3.93372 -0.455421 0
M  V30 2186 H 211.51 -3.93147 2.40359 0
M  V30 2187 H 209.825 -3.6326 2.03546 0
M  V30 2188 H 212.422 -5.34471 -0.156433 0
M  V30 2189 H 212.765 -3.98647 -1.19943 0
M  V30 2190 H 213.298 -3.94659 0.498875 0
M  V30 2191 H 210.037 -5.96715 2.71315 0
M  V30 2192 H 209.557 -5.91382 1.00139 0
M  V30 2193 H 211.236 -6.30585 1.44816 0
M  V30 2194 N 211.368 -0.403325 -1.52352 0
M  V30 2195 C 212.331 0.413051 -2.25447 0
M  V30 2196 C 213.331 0.978513 -1.276 0
M  V30 2197 O 214.521 0.858305 -1.51587 0
M  V30 2198 C 211.653 1.58087 -3.02029 0
M  V30 2199 H 212.846 -0.227094 -2.99039 0
M  V30 2200 H 210.399 -0.155722 -1.55522 0
M  V30 2201 H 211.134 2.25804 -2.32772 0
M  V30 2202 H 210.919 1.18195 -3.73861 0
M  V30 2203 H 212.409 2.1585 -3.57489 0
M  V30 2204 N 212.846 1.57033 -0.133567 0
M  V30 2205 C 213.809 2.14897 0.796995 0
M  V30 2206 C 214.809 1.0874 1.18458 0
M  V30 2207 O 215.999 1.34446 1.1077 0
M  V30 2208 C 213.131 2.70112 2.07973 0
M  V30 2209 H 214.324 2.98457 0.293873 0
M  V30 2210 H 211.877 1.55871 0.115787 0
M  V30 2211 H 212.612 1.9018 2.62682 0
M  V30 2212 H 212.397 3.47764 1.81115 0
M  V30 2213 H 213.887 3.14738 2.74462 0
M  V30 2214 N 214.325 -0.140222 1.56975 0
M  V30 2215 C 215.553 -0.866437 1.87884 0
M  V30 2216 C 215.968 -1.74428 0.722517 0
M  V30 2217 O 215.325 -1.79891 -0.30749 0
M  V30 2218 C 215.376 -1.71753 3.18093 0
M  V30 2219 O 215.097 -0.875056 4.29272 0
M  V30 2220 C 216.598 -2.55074 3.62563 0
M  V30 2221 H 213.818 -0.25019 0.622612 0
M  V30 2222 H 216.362 -0.130977 2.0408 0
M  V30 2223 H 214.517 -2.40598 3.03631 0
M  V30 2224 H 214.931 -1.46002 5.03769 0
M  V30 2225 H 216.405 -3.10356 4.5649 0
M  V30 2226 H 216.882 -3.31434 2.88181 0
M  V30 2227 H 217.488 -1.91509 3.79743 0
M  V30 2228 N 215.803 -1.52179 -0.40978 0
M  V30 2229 C 216.766 -1.74853 -1.48186 0
M  V30 2230 C 217.766 -0.618417 -1.48433 0
M  V30 2231 O 218.956 -0.886286 -1.49969 0
M  V30 2232 C 216.088 -1.8303 -2.87598 0
M  V30 2233 H 217.281 -2.70559 -1.29374 0
M  V30 2234 H 214.834 -1.42586 -0.640233 0
M  V30 2235 H 215.569 -0.89236 -3.11781 0
M  V30 2236 H 215.354 -2.65187 -2.88822 0
M  V30 2237 H 216.844 -2.02316 -3.65319 0
M  V30 2238 N 217.281 0.66697 -1.42791 0
M  V30 2239 C 218.244 1.76211 -1.46568 0
M  V30 2240 C 219.244 1.56896 -0.352196 0
M  V30 2241 O 220.434 1.63044 -0.613364 0
M  V30 2242 C 217.566 3.14935 -1.30494 0
M  V30 2243 H 218.759 1.74247 -2.44086 0
M  V30 2244 H 216.312 0.877342 -1.29354 0
M  V30 2245 H 217.047 3.2252 -0.339301 0
M  V30 2246 H 216.832 3.30359 -2.11199 0
M  V30 2247 H 218.322 3.94821 -1.36038 0
M  V30 2248 N 218.759 1.29093 0.90403 0
M  V30 2249 C 220.008 1.16187 1.64874 0
M  V30 2250 C 220.321 -0.286742 1.93487 0
M  V30 2251 O 221.527 -0.537062 2.66135 0
M  V30 2252 C 219.983 2.03177 2.97064 0
M  V30 2253 C 219.591 3.52836 2.76062 0
M  V30 2254 C 221.335 1.98984 3.74974 0
M  V30 2255 C 219.242 4.31945 4.03952 0
M  V30 2256 H 218.172 0.431246 0.618501 0
M  V30 2257 H 220.823 1.53699 1.00243 0
M  V30 2258 H 219.205 1.5853 3.62883 0
M  V30 2259 H 220.379 4.05507 2.18863 0
M  V30 2260 H 218.694 3.58656 2.11553 0
M  V30 2261 H 221.291 2.55351 4.69787 0
M  V30 2262 H 221.634 0.968815 4.0487 0
M  V30 2263 H 222.167 2.41652 3.15989 0
M  V30 2264 H 218.906 5.34667 3.79225 0
M  V30 2265 H 218.426 3.84045 4.60727 0
M  V30 2266 H 220.105 4.42379 4.72133 0
M  V30 2267 N 220.237 -1.11381 1.11499 0
M  V30 2268 C 221.462 -1.87475 0.887019 0
M  V30 2269 C 221.887 -1.79639 -0.557796 0
M  V30 2270 O 221.245 -1.15924 -1.39396 0
M  V30 2271 C 221.293 -3.34213 1.35403 0
M  V30 2272 O 220.397 -4.0903 0.526146 0
M  V30 2273 H 219.738 -0.582099 0.319463 0
M  V30 2274 H 222.268 -1.40785 1.48461 0
M  V30 2275 H 222.278 -3.8506 1.34881 0
M  V30 2276 H 220.953 -3.39232 2.40612 0
M  V30 2277 H 219.53 -3.68082 0.597522 0
M  V30 2278 N 221.715 -0.905404 -1.28997 0
M  V30 2279 C 222.678 -0.392253 -2.25819 0
M  V30 2280 C 223.678 0.476753 -1.5357 0
M  V30 2281 O 224.868 0.280994 -1.71919 0
M  V30 2282 C 222 0.438588 -3.38067 0
M  V30 2283 H 223.193 -1.24743 -2.72725 0
M  V30 2284 H 220.746 -0.684051 -1.40536 0
M  V30 2285 H 221.481 1.31352 -2.96508 0
M  V30 2286 H 221.266 -0.184167 -3.91667 0
M  V30 2287 H 222.756 0.78873 -4.10084 0
M  V30 2288 N 223.193 1.4272 -0.668489 0
M  V30 2289 C 224.441 2.01226 -0.187769 0
M  V30 2290 C 224.762 1.53092 1.2078 0
M  V30 2291 O 224.032 0.74993 1.80977 0
M  V30 2292 H 222.612 0.744041 -0.0664272 0
M  V30 2293 H 225.274 1.74723 -0.863583 0
M  V30 2294 H 224.37 3.11556 -0.184166 0
M  V30 2295 N 224.671 0.411399 1.52136 0
M  V30 2296 C 225.948 -0.222308 1.94333 0
M  V30 2297 C 226.328 -1.6242 1.34844 0
M  V30 2298 O 225.676 -2.22384 0.525145 0
M  V30 2299 C 225.886 -0.226345 3.48265 0
M  V30 2300 C 227.234 -0.444592 4.22266 0
M  V30 2301 O 228.258 -0.305602 3.54887 0
M  V30 2302 O 227.117 -0.718749 5.41753 0
M  V30 2303 H 224.211 -0.143907 0.814383 0
M  V30 2304 H 226.757 0.467506 1.63133 0
M  V30 2305 H 225.529 0.75475 3.83952 0
M  V30 2306 H 225.152 -0.960163 3.85832 0
M  V30 2307 N 226.149 -1.5696 0.141893 0
M  V30 2308 C 227.081 -2.13619 -0.830627 0
M  V30 2309 C 228.094 -1.08439 -1.21428 0
M  V30 2310 O 229.283 -1.35734 -1.15925 0
M  V30 2311 C 226.383 -2.63978 -2.12529 0
M  V30 2312 C 225.556 -3.93504 -1.9098 0
M  V30 2313 C 224.615 -4.29225 -3.04388 0
M  V30 2314 O 223.641 -4.97641 -2.76302 0
M  V30 2315 N 224.843 -3.88393 -4.31429 0
M  V30 2316 H 227.608 -2.97691 -0.34641 0
M  V30 2317 H 225.169 -1.61846 -0.0418375 0
M  V30 2318 H 227.161 -2.84891 -2.87436 0
M  V30 2319 H 225.731 -1.84659 -2.52229 0
M  V30 2320 H 224.951 -3.81269 -1.00139 0
M  V30 2321 H 226.239 -4.78154 -1.73914 0
M  V30 2322 H 225.637 -3.33257 -4.57117 0
M  V30 2323 H 224.194 -4.14368 -5.03133 0
M  V30 2324 N 227.627 0.131896 -1.57047 0
M  V30 2325 C 228.852 0.860418 -1.8871 0
M  V30 2326 C 229.277 1.73251 -0.73251 0
M  V30 2327 O 228.635 1.785 0.317429 0
M  V30 2328 C 228.683 1.68047 -3.19049 0
M  V30 2329 O 227.787 2.7862 -3.04047 0
M  V30 2330 H 227.128 0.238743 -0.619595 0
M  V30 2331 H 229.658 0.118169 -2.04258 0
M  V30 2332 H 229.668 2.07238 -3.51449 0
M  V30 2333 H 228.343 1.04018 -4.02682 0
M  V30 2334 H 226.92 2.42726 -2.83088 0
M  V30 2335 N 229.106 1.52395 0.401703 0
M  V30 2336 C 230.355 1.66044 1.14509 0
M  V30 2337 C 230.668 0.400216 1.91462 0
M  V30 2338 O 231.874 0.416632 2.68284 0
M  V30 2339 C 230.33 2.93388 2.0845 0
M  V30 2340 C 229.938 4.26545 1.36978 0
M  V30 2341 C 231.682 3.16402 2.83001 0
M  V30 2342 C 229.589 5.45007 2.29611 0
M  V30 2343 H 228.519 0.618562 0.431158 0
M  V30 2344 H 231.17 1.78886 0.40892 0
M  V30 2345 H 229.552 2.74263 2.8565 0
M  V30 2346 H 230.726 4.56179 0.650916 0
M  V30 2347 H 229.041 4.09692 0.74438 0
M  V30 2348 H 231.638 4.02085 3.52465 0
M  V30 2349 H 231.981 2.30943 3.46368 0
M  V30 2350 H 232.514 3.36034 2.12898 0
M  V30 2351 H 229.253 6.32835 1.70879 0
M  V30 2352 H 228.773 5.19702 2.9945 0
M  V30 2353 H 230.452 5.7838 2.89974 0
M  V30 2354 N 230.584 -0.659388 1.43143 0
M  V30 2355 C 231.832 -1.41654 1.44147 0
M  V30 2356 C 232.153 -1.94893 0.0645739 0
M  V30 2357 O 231.423 -1.74044 -0.899198 0
M  V30 2358 H 230.003 -0.525708 0.530697 0
M  V30 2359 H 232.665 -0.778097 1.78694 0
M  V30 2360 H 231.761 -2.26195 2.1504 0
M  V30 2361 N 232.062 -1.29571 -0.897171 0
M  V30 2362 C 233.339 -1.08365 -1.62839 0
M  V30 2363 C 233.719 0.371331 -2.07808 0
M  V30 2364 O 233.067 1.3606 -1.83576 0
M  V30 2365 C 233.277 -2.0735 -2.80726 0
M  V30 2366 C 234.625 -2.38406 -3.51351 0
M  V30 2367 O 235.649 -2.05564 -2.90898 0
M  V30 2368 O 234.508 -2.9453 -4.60341 0
M  V30 2369 H 231.602 -0.415345 -0.715134 0
M  V30 2370 H 234.148 -1.40952 -0.945018 0
M  V30 2371 H 232.92 -3.05339 -2.44711 0
M  V30 2372 H 232.543 -1.75507 -3.56767 0
M  V30 2373 N 233.54 1.10788 -1.12088 0
M  V30 2374 C 234.47 2.19083 -0.807755 0
M  V30 2375 C 235.451 1.6858 0.226859 0
M  V30 2376 O 236.636 1.93997 0.0888475 0
M  V30 2377 C 233.766 3.46344 -0.257576 0
M  V30 2378 C 232.72 4.101 -1.22483 0
M  V30 2379 C 232.046 5.32016 -0.535052 0
M  V30 2380 C 233.346 4.54236 -2.57811 0
M  V30 2381 H 235.04 2.45534 -1.71328 0
M  V30 2382 H 232.586 1.1801 -0.825205 0
M  V30 2383 H 234.539 4.21392 -0.0262679 0
M  V30 2384 H 233.263 3.19373 0.683278 0
M  V30 2385 H 231.922 3.37054 -1.44189 0
M  V30 2386 H 231.57 5.01319 0.410827 0
M  V30 2387 H 231.27 5.75625 -1.18024 0
M  V30 2388 H 232.794 6.09799 -0.312695 0
M  V30 2389 H 234.208 5.20575 -2.40155 0
M  V30 2390 H 232.605 5.08682 -3.18375 0
M  V30 2391 H 233.675 3.6734 -3.16528 0
M  V30 2392 N 235.018 0.912232 1.28515 0
M  V30 2393 C 236.267 0.540504 1.94323 0
M  V30 2394 C 236.58 -0.920044 1.72611 0
M  V30 2395 O 237.786 -1.39986 2.32629 0
M  V30 2396 C 236.242 0.915803 3.48053 0
M  V30 2397 C 235.85 2.39598 3.78546 0
M  V30 2398 C 237.594 0.614588 4.20027 0
M  V30 2399 C 235.501 2.71148 5.25578 0
M  V30 2400 H 234.431 0.198418 0.727424 0
M  V30 2401 H 237.082 1.11094 1.46049 0
M  V30 2402 H 235.464 0.274168 3.9505 0
M  V30 2403 H 236.638 3.08422 3.42364 0
M  V30 2404 H 234.953 2.66749 3.1974 0
M  V30 2405 H 237.55 0.827002 5.28266 0
M  V30 2406 H 237.893 -0.447531 4.13887 0
M  V30 2407 H 238.426 1.21462 3.78803 0
M  V30 2408 H 235.165 3.76207 5.36794 0
M  V30 2409 H 234.685 2.0696 5.62963 0
M  V30 2410 H 236.364 2.58072 5.93302 0
M  V30 2411 N 236.496 -1.42363 0.676048 0
M  V30 2412 C 237.459 -2.29199 0.00766941 0
M  V30 2413 C 238.459 -1.43389 -0.727745 0
M  V30 2414 O 239.649 -1.64764 -0.56556 0
M  V30 2415 C 236.781 -3.2591 -0.999785 0
M  V30 2416 H 237.974 -2.89794 0.771988 0
M  V30 2417 H 235.527 -1.50024 0.438468 0
M  V30 2418 H 236.262 -2.70256 -1.79255 0
M  V30 2419 H 236.047 -3.89202 -0.475829 0
M  V30 2420 H 237.537 -3.91028 -1.46583 0
M  V30 2421 N 237.974 -0.419461 -1.51915 0
M  V30 2422 C 238.884 0.407528 -2.31033 0
M  V30 2423 C 239.9 1.04413 -1.3919 0
M  V30 2424 O 241.076 1.0434 -1.72265 0
M  V30 2425 C 238.141 1.50365 -3.12396 0
M  V30 2426 C 237.202 0.889029 -4.19994 0
M  V30 2427 C 236.435 1.93291 -4.97468 0
M  V30 2428 O 236.658 3.15259 -4.75361 0
M  V30 2429 O 235.592 1.53339 -5.8204 0
M  V30 2430 H 239.418 -0.237865 -3.02767 0
M  V30 2431 H 237.003 -0.182413 -1.48282 0
M  V30 2432 H 238.885 2.13975 -3.63032 0
M  V30 2433 H 237.56 2.13345 -2.43445 0
M  V30 2434 H 236.467 0.215353 -3.7348 0
M  V30 2435 H 237.8 0.302991 -4.91267 0
M  V30 2436 N 239.452 1.56882 -0.150215 0
M  V30 2437 C 240.415 2.1573 0.774157 0
M  V30 2438 C 241.415 1.0999 1.17298 0
M  V30 2439 O 242.605 1.35613 1.09338 0
M  V30 2440 C 239.737 2.72302 2.05096 0
M  V30 2441 H 240.93 2.98752 0.262201 0
M  V30 2442 H 238.483 1.55985 0.099248 0
M  V30 2443 H 239.218 1.92956 2.6065 0
M  V30 2444 H 239.003 3.49665 1.77416 0
M  V30 2445 H 240.493 3.17632 2.71109 0
M  V30 2446 N 240.93 -0.123565 1.57115 0
M  V30 2447 C 241.863 -1.18202 1.95201 0
M  V30 2448 C 242.841 -1.40349 0.821031 0
M  V30 2449 O 244.025 -1.54578 1.07879 0
M  V30 2450 C 241.152 -2.53671 2.24429 0
M  V30 2451 C 240.198 -2.4798 3.46999 0
M  V30 2452 S 241.031 -1.92389 4.99747 0
M  V30 2453 C 242.187 -3.2954 5.32123 0
M  V30 2454 H 242.42 -0.857212 2.84674 0
M  V30 2455 H 239.953 -0.33014 1.50829 0
M  V30 2456 H 241.911 -3.3162 2.41947 0
M  V30 2457 H 240.572 -2.83332 1.35579 0
M  V30 2458 H 239.765 -3.47758 3.64801 0
M  V30 2459 H 239.367 -1.7815 3.28844 0
M  V30 2460 H 241.659 -4.25736 5.27025 0
M  V30 2461 H 242.602 -3.16569 6.33395 0
M  V30 2462 H 243.01 -3.27758 4.59603 0
M  V30 2463 N 242.408 -1.52605 -0.393616 0
M  V30 2464 C 243.685 -1.58001 -1.15304 0
M  V30 2465 C 244.065 -0.370385 -2.07825 0
M  V30 2466 O 243.413 0.641638 -2.19306 0
M  V30 2467 C 243.623 -2.91652 -1.91677 0
M  V30 2468 C 244.971 -3.4522 -2.47201 0
M  V30 2469 O 245.995 -2.93495 -2.01839 0
M  V30 2470 O 244.854 -4.35579 -3.3005 0
M  V30 2471 H 241.948 -0.637068 -0.527327 0
M  V30 2472 H 244.494 -1.64939 -0.399141 0
M  V30 2473 H 243.266 -3.71136 -1.23992 0
M  V30 2474 H 242.889 -2.88077 -2.74039 0
M  V30 2475 N 243.887 0.651787 -1.4349 0
M  V30 2476 C 244.834 1.76462 -1.4876 0
M  V30 2477 C 245.804 1.62641 -0.337189 0
M  V30 2478 O 246.989 1.82864 -0.544544 0
M  V30 2479 C 244.129 3.14623 -1.41796 0
M  V30 2480 C 243.242 3.39568 -2.67053 0
M  V30 2481 C 242.377 4.67585 -2.52068 0
M  V30 2482 C 241.416 4.85639 -3.72587 0
M  V30 2483 N 240.553 6.04915 -3.56402 0
M  V30 2484 H 245.393 1.71293 -2.43849 0
M  V30 2485 H 242.93 0.835889 -1.21043 0
M  V30 2486 H 244.888 3.94496 -1.35753 0
M  V30 2487 H 243.518 3.18859 -0.50288 0
M  V30 2488 H 242.57 2.53783 -2.8337 0
M  V30 2489 H 243.882 3.48795 -3.56572 0
M  V30 2490 H 243.036 5.55586 -2.4374 0
M  V30 2491 H 241.775 4.60681 -1.60075 0
M  V30 2492 H 240.78 3.96073 -3.81321 0
M  V30 2493 H 242.005 4.94372 -4.65589 0
M  V30 2494 H 239.951 5.9914 -2.67146 0
M  V30 2495 H 239.868 6.15106 -4.39524 0
M  V30 2496 H 241.136 6.95533 -3.51929 0
M  V30 2497 N 245.365 1.30045 0.890287 0
M  V30 2498 C 246.611 1.18737 1.64406 0
M  V30 2499 C 246.944 -0.258525 1.92472 0
M  V30 2500 O 246.219 -1.18562 1.54186 0
M  V30 2501 C 246.502 2.01087 2.98724 0
M  V30 2502 C 246.355 3.53867 2.77665 0
M  V30 2503 C 247.674 1.84457 3.9958 0
M  V30 2504 H 244.793 0.432698 0.596608 0
M  V30 2505 H 247.435 1.5962 1.0306 0
M  V30 2506 H 245.585 1.66349 3.51084 0
M  V30 2507 H 247.257 3.98637 2.32133 0
M  V30 2508 H 245.5 3.78318 2.12269 0
M  V30 2509 H 246.171 4.06772 3.7315 0
M  V30 2510 H 248.647 2.14817 3.56361 0
M  V30 2511 H 247.523 2.44411 4.91482 0
M  V30 2512 H 247.784 0.802276 4.3476 0
M  V30 2513 N 246.843 -1.10192 1.12674 0
M  V30 2514 C 248.091 -1.81845 0.881861 0
M  V30 2515 C 248.412 -1.85737 -0.593867 0
M  V30 2516 O 247.682 -1.33724 -1.4316 0
M  V30 2517 H 246.262 -0.673432 0.323261 0
M  V30 2518 H 248.924 -1.33316 1.42172 0
M  V30 2519 H 248.02 -2.85288 1.2656 0
M  V30 2520 N 248.321 -0.919034 -1.28029 0
M  V30 2521 C 249.269 -0.401753 -2.29104 0
M  V30 2522 C 250.263 0.509354 -1.61561 0
M  V30 2523 O 251.469 0.390014 -1.75724 0
M  V30 2524 H 247.844 -0.111331 -0.743713 0
M  V30 2525 H 249.815 -1.2672 -2.70156 0
M  V30 2526 C 248.564 0.338148 -3.46052 0
M  V30 2527 H 247.887 -0.353732 -3.98232 0
M  V30 2528 H 249.327 0.664653 -4.18758 0
M  V30 2529 C 247.786 1.54798 -2.99231 0
M  V30 2530 O 248.316 2.64696 -3.02157 0
M  V30 2531 N 246.522 1.3968 -2.54829 0
M  V30 2532 H 246.069 0.502698 -2.52647 0
M  V30 2533 H 246.027 2.20755 -2.23863 0
M  V30 2534 N 249.799 1.42003 -0.683588 0
M  V30 2535 C 250.709 2.34597 -0.0109075 0
M  V30 2536 C 251.725 1.55576 0.779245 0
M  V30 2537 O 252.901 1.88107 0.719555 0
M  V30 2538 C 249.966 3.34199 0.922588 0
M  V30 2539 C 249.027 4.29115 0.125984 0
M  V30 2540 C 248.26 5.23959 1.01502 0
M  V30 2541 O 248.483 5.23952 2.25456 0
M  V30 2542 O 247.417 6.00053 0.47111 0
M  V30 2543 H 251.243 2.93675 -0.773853 0
M  V30 2544 H 248.828 1.42654 -0.443861 0
M  V30 2545 H 250.71 3.95365 1.45823 0
M  V30 2546 H 249.385 2.77582 1.66523 0
M  V30 2547 H 248.292 3.71335 -0.453969 0
M  V30 2548 H 249.625 4.88798 -0.577736 0
M  V30 2549 N 251.277 0.427512 1.51691 0
M  V30 2550 C 252.525 -0.141948 2.01601 0
M  V30 2551 C 252.846 -1.44067 1.31414 0
M  V30 2552 O 252.116 -1.90763 0.445658 0
M  V30 2553 H 250.696 -0.0554468 0.744939 0
M  V30 2554 H 253.358 0.567968 1.86441 0
M  V30 2555 H 252.454 -0.324913 3.10404 0
M  V30 2556 N 252.755 -1.56801 0.158532 0
M  V30 2557 C 254.001 -1.96781 -0.490405 0
M  V30 2558 C 254.334 -1.04397 -1.63753 0
M  V30 2559 O 253.609 -0.0885805 -1.94298 0
M  V30 2560 C 253.892 -3.4635 -0.985594 0
M  V30 2561 C 253.745 -4.49512 0.160824 0
M  V30 2562 C 255.064 -3.98697 -1.86355 0
M  V30 2563 H 252.183 -0.715482 -0.176788 0
M  V30 2564 H 254.825 -1.88451 0.242088 0
M  V30 2565 H 252.975 -3.53579 -1.60978 0
M  V30 2566 H 254.647 -4.54353 0.797537 0
M  V30 2567 H 252.89 -4.26013 0.818256 0
M  V30 2568 H 253.561 -5.51531 -0.227569 0
M  V30 2569 H 256.037 -3.94019 -1.33746 0
M  V30 2570 H 254.913 -5.03792 -2.17909 0
M  V30 2571 H 255.174 -3.41744 -2.8047 0
M  V30 2572 N 254.233 0.115231 -1.57178 0
M  V30 2573 C 255.482 0.820945 -1.84237 0
M  V30 2574 C 255.795 1.80866 -0.744761 0
M  V30 2575 O 257.001 2.56083 -0.901871 0
M  V30 2576 C 255.457 1.51072 -3.26658 0
M  V30 2577 C 255.065 0.563795 -4.44438 0
M  V30 2578 C 256.809 2.20134 -3.62962 0
M  V30 2579 C 254.716 1.25701 -5.77887 0
M  V30 2580 H 253.646 0.310328 -0.687177 0
M  V30 2581 H 256.297 0.0737134 -1.83352 0
M  V30 2582 H 254.679 2.30471 -3.22024 0
M  V30 2583 H 255.853 -0.197247 -4.60378 0
M  V30 2584 H 254.168 -0.0200638 -4.16395 0
M  V30 2585 H 256.765 2.72696 -4.59936 0
M  V30 2586 H 257.108 2.98107 -2.90582 0
M  V30 2587 H 257.641 1.47619 -3.69396 0
M  V30 2588 H 254.38 0.518493 -6.53446 0
M  V30 2589 H 253.9 1.98997 -5.65827 0
M  V30 2590 H 255.579 1.78915 -6.2177 0
M  V30 2591 N 255.711 1.52812 0.385517 0
M  V30 2592 C 256.939 1.71907 1.15133 0
M  V30 2593 C 257.354 0.439004 1.83625 0
M  V30 2594 O 256.711 -0.586765 1.7281 0
M  V30 2595 C 256.762 2.87099 2.19673 0
M  V30 2596 O 256.483 4.10151 1.53973 0
M  V30 2597 C 257.984 3.17902 3.08955 0
M  V30 2598 H 255.204 0.575479 0.345057 0
M  V30 2599 H 257.748 1.99476 0.45052 0
M  V30 2600 H 255.903 2.61982 2.85384 0
M  V30 2601 H 256.317 4.74514 2.23465 0
M  V30 2602 H 257.791 4.01959 3.7833 0
M  V30 2603 H 258.268 2.3243 3.72657 0
M  V30 2604 H 258.874 3.44871 2.48885 0
M  V30 2605 N 257.189 -0.644168 1.43834 0
M  V30 2606 C 258.435 -1.40603 1.46146 0
M  V30 2607 C 258.768 -1.93997 0.0887717 0
M  V30 2608 O 258.043 -1.72854 -0.891724 0
M  V30 2609 C 258.326 -2.58086 2.51124 0
M  V30 2610 C 258.179 -2.10126 3.97702 0
M  V30 2611 C 259.498 -3.60291 2.52742 0
M  V30 2612 H 256.617 -0.509905 0.532134 0
M  V30 2613 H 259.259 -0.729502 1.75437 0
M  V30 2614 H 257.409 -3.15801 2.26278 0
M  V30 2615 H 259.081 -1.57342 4.33637 0
M  V30 2616 H 257.324 -1.41419 4.10101 0
M  V30 2617 H 257.995 -2.94649 4.66783 0
M  V30 2618 H 260.471 -3.12352 2.7491 0
M  V30 2619 H 259.347 -4.40032 3.28121 0
M  V30 2620 H 259.608 -4.1349 1.56455 0
M  V30 2621 N 258.668 -1.30515 -0.883378 0
M  V30 2622 C 259.578 -1.18959 -2.02203 0
M  V30 2623 C 260.594 -0.109172 -1.73657 0
M  V30 2624 O 261.77 -0.324413 -1.9877 0
M  V30 2625 C 258.835 -0.883871 -3.35244 0
M  V30 2626 C 257.896 -2.04982 -3.77201 0
M  V30 2627 C 257.129 -1.75859 -5.03894 0
M  V30 2628 O 257.352 -0.687276 -5.66244 0
M  V30 2629 O 256.286 -2.61146 -5.42297 0
M  V30 2630 H 260.112 -2.14616 -2.1488 0
M  V30 2631 H 257.697 -1.10124 -1.0096 0
M  V30 2632 H 259.579 -0.728644 -4.15053 0
M  V30 2633 H 258.254 0.0427798 -3.23672 0
M  V30 2634 H 257.161 -2.26038 -2.9809 0
M  V30 2635 H 258.494 -2.95825 -3.93381 0
M  V30 2636 N 260.146 1.09593 -1.13257 0
M  V30 2637 C 261.056 2.19739 -0.821691 0
M  V30 2638 C 262.072 1.72926 0.19302 0
M  V30 2639 O 263.248 2.01385 0.0244895 0
M  V30 2640 C 260.313 3.45482 -0.290333 0
M  V30 2641 C 259.374 4.06985 -1.36607 0
M  V30 2642 C 258.607 5.26726 -0.859975 0
M  V30 2643 O 258.83 5.69594 0.303082 0
M  V30 2644 O 257.764 5.7931 -1.63351 0
M  V30 2645 H 261.59 2.48781 -1.74189 0
M  V30 2646 H 259.175 1.18496 -0.909894 0
M  V30 2647 H 261.057 4.214 0.000674022 0
M  V30 2648 H 259.732 3.18047 0.602306 0
M  V30 2649 H 258.639 3.32712 -1.71037 0
M  V30 2650 H 259.972 4.38643 -2.23279 0
M  V30 2651 N 261.624 0.925811 1.2754 0
M  V30 2652 C 262.849 0.580924 1.99098 0
M  V30 2653 C 263.274 -0.833555 1.68622 0
M  V30 2654 O 262.632 -1.55903 0.925422 0
M  V30 2655 C 262.68 0.811186 3.51358 0
M  V30 2656 O 261.784 -0.124129 4.12213 0
M  V30 2657 H 261.125 0.223873 0.625122 0
M  V30 2658 H 263.655 1.24455 1.62395 0
M  V30 2659 H 263.665 0.72601 4.01489 0
M  V30 2660 H 262.34 1.84227 3.72872 0
M  V30 2661 H 260.917 0.0108006 3.72898 0
M  V30 2662 N 263.102 -1.41638 0.69111 0
M  V30 2663 C 264.05 -2.32597 0.0115199 0
M  V30 2664 C 265.044 -1.5072 -0.773296 0
M  V30 2665 O 266.25 -1.66685 -0.67942 0
M  V30 2666 H 262.625 -0.751849 -0.0150746 0
M  V30 2667 H 264.596 -2.87593 0.795791 0
M  V30 2668 C 263.345 -3.35467 -0.914172 0
M  V30 2669 H 262.668 -3.9852 -0.319687 0
M  V30 2670 H 264.108 -4.01662 -1.35808 0
M  V30 2671 C 262.567 -2.69004 -2.02826 0
M  V30 2672 O 263.097 -2.53444 -3.11655 0
M  V30 2673 N 261.303 -2.2777 -1.80469 0
M  V30 2674 H 260.85 -2.40626 -0.919615 0
M  V30 2675 H 260.808 -1.83635 -2.55197 0
M  V30 2676 N 264.58 -0.43555 -1.51462 0
M  V30 2677 C 265.808 0.130242 -2.0649 0
M  V30 2678 C 266.223 1.36614 -1.30315 0
M  V30 2679 O 265.58 1.78869 -0.362223 0
M  V30 2680 C 265.631 0.454253 -3.58635 0
M  V30 2681 O 265.352 -0.73259 -4.31931 0
M  V30 2682 C 266.853 1.07091 -4.3017 0
M  V30 2683 H 264.073 0.00871669 -0.670943 0
M  V30 2684 H 266.617 -0.614117 -1.95061 0
M  V30 2685 H 264.772 1.14851 -3.69984 0
M  V30 2686 H 265.186 -0.455787 -5.22516 0
M  V30 2687 H 266.66 1.24764 -5.37716 0
M  V30 2688 H 267.137 2.05144 -3.88346 0
M  V30 2689 H 267.743 0.416089 -4.2326 0
M  V30 2690 N 266.058 1.56714 -0.166846 0
M  V30 2691 C 267.305 1.96747 0.479252 0
M  V30 2692 C 267.633 1.05263 1.63554 0
M  V30 2693 O 266.888 0.0858098 1.95512 0
M  V30 2694 C 267.187 3.42889 1.00806 0
M  V30 2695 C 266.853 4.50889 -0.0318574 0
M  V30 2696 C 265.515 4.8015 -0.317675 0
M  V30 2697 C 267.867 5.15949 -0.737956 0
M  V30 2698 C 265.195 5.71772 -1.31506 0
M  V30 2699 C 267.547 6.08647 -1.72429 0
M  V30 2700 C 266.211 6.36277 -2.0176 0
M  V30 2701 H 265.481 0.719949 0.175371 0
M  V30 2702 H 268.128 1.89756 -0.257864 0
M  V30 2703 H 266.433 3.4681 1.82291 0
M  V30 2704 H 268.13 3.71203 1.51689 0
M  V30 2705 H 264.72 4.28128 0.201088 0
M  V30 2706 H 268.904 4.93458 -0.530351 0
M  V30 2707 H 264.16 5.91465 -1.54853 0
M  V30 2708 H 268.334 6.58129 -2.27682 0
M  V30 2709 H 265.961 7.07075 -2.79194 0
M  V30 2710 N 267.536 -0.106894 1.57237 0
M  V30 2711 C 268.784 -0.810921 1.85117 0
M  V30 2712 C 269.105 -1.7984 0.753827 0
M  V30 2713 O 268.375 -1.94649 -0.221056 0
M  V30 2714 H 266.955 -0.302466 0.683025 0
M  V30 2715 H 269.617 -0.0913324 1.94686 0
M  V30 2716 H 268.713 -1.34875 2.81452 0
M  V30 2717 N 269.014 -1.53014 -0.377408 0
M  V30 2718 C 269.944 -1.81589 -1.46791 0
M  V30 2719 C 270.925 -0.668622 -1.56408 0
M  V30 2720 O 272.11 -0.917337 -1.71168 0
M  V30 2721 C 269.24 -1.99519 -2.8427 0
M  V30 2722 C 268.194 -3.15249 -2.89486 0
M  V30 2723 C 267.52 -3.18451 -4.29527 0
M  V30 2724 C 268.82 -4.54084 -2.58079 0
M  V30 2725 H 270.514 -2.7291 -1.23127 0
M  V30 2726 H 268.06 -1.31319 -0.590883 0
M  V30 2727 H 270.013 -2.18092 -3.60575 0
M  V30 2728 H 268.737 -1.04897 -3.09296 0
M  V30 2729 H 267.396 -2.96477 -2.15631 0
M  V30 2730 H 267.044 -2.2149 -4.5161 0
M  V30 2731 H 266.744 -3.962 -4.33934 0
M  V30 2732 H 268.268 -3.39193 -5.07721 0
M  V30 2733 H 269.682 -4.72899 -3.24098 0
M  V30 2734 H 268.079 -5.33987 -2.7382 0
M  V30 2735 H 269.149 -4.60006 -1.53372 0
M  V30 2736 N 270.492 0.636531 -1.44174 0
M  V30 2737 C 271.424 1.7618 -1.46606 0
M  V30 2738 C 272.437 1.58768 -0.360091 0
M  V30 2739 O 273.626 1.67181 -0.625518 0
M  V30 2740 C 270.726 3.13833 -1.27915 0
M  V30 2741 C 269.899 3.57753 -2.51658 0
M  V30 2742 C 268.958 4.74265 -2.27945 0
M  V30 2743 O 267.984 4.82852 -3.01401 0
M  V30 2744 N 269.186 5.65604 -1.30662 0
M  V30 2745 H 271.951 1.74567 -2.43612 0
M  V30 2746 H 269.512 0.820924 -1.39544 0
M  V30 2747 H 271.504 3.8949 -1.09907 0
M  V30 2748 H 270.074 3.10121 -0.39293 0
M  V30 2749 H 269.294 2.72362 -2.84978 0
M  V30 2750 H 270.582 3.83847 -3.33974 0
M  V30 2751 H 269.98 5.61354 -0.699844 0
M  V30 2752 H 268.537 6.40913 -1.18634 0
M  V30 2753 N 271.97 1.30982 0.876444 0
M  V30 2754 C 272.9 1.20668 1.99903 0
M  V30 2755 C 273.881 0.095354 1.69833 0
M  V30 2756 O 275.066 0.27885 1.92188 0
M  V30 2757 C 272.196 0.90655 3.3526 0
M  V30 2758 C 271.15 1.97675 3.79617 0
M  V30 2759 C 270.476 1.52943 5.1236 0
M  V30 2760 C 271.776 3.389 3.97422 0
M  V30 2761 H 273.47 2.14586 2.0879 0
M  V30 2762 H 271.016 1.03308 1.00317 0
M  V30 2763 H 272.969 0.821025 4.13324 0
M  V30 2764 H 271.693 -0.0682969 3.26529 0
M  V30 2765 H 270.352 2.05205 3.03787 0
M  V30 2766 H 270 0.54262 5.00065 0
M  V30 2767 H 269.7 2.24532 5.43009 0
M  V30 2768 H 271.224 1.45786 5.92941 0
M  V30 2769 H 272.638 3.34081 4.659 0
M  V30 2770 H 271.035 4.0865 4.3946 0
M  V30 2771 H 272.105 3.80163 3.01006 0
M  V30 2772 N 273.449 -1.08991 1.13837 0
M  V30 2773 C 274.359 -2.19301 0.833333 0
M  V30 2774 C 275.375 -1.73026 -0.183847 0
M  V30 2775 O 276.551 -2.01395 -0.0138092 0
M  V30 2776 C 273.616 -3.45323 0.308651 0
M  V30 2777 C 272.677 -4.06255 1.38764 0
M  V30 2778 C 271.91 -5.26262 0.887896 0
M  V30 2779 O 272.133 -5.69747 -0.27287 0
M  V30 2780 O 271.067 -5.78435 1.66421 0
M  V30 2781 H 274.893 -2.47854 1.75506 0
M  V30 2782 H 272.478 -1.18012 0.916166 0
M  V30 2783 H 274.36 -4.21394 0.0216739 0
M  V30 2784 H 273.035 -3.18362 -0.585431 0
M  V30 2785 H 271.942 -3.318 1.72799 0
M  V30 2786 H 273.275 -4.37452 2.25602 0
M  V30 2787 N 274.927 -0.932562 -1.27047 0
M  V30 2788 C 275.857 -0.452902 -2.29066 0
M  V30 2789 C 276.838 0.489338 -1.62909 0
M  V30 2790 O 278.023 0.393046 -1.90181 0
M  V30 2791 C 275.153 0.290698 -3.46081 0
M  V30 2792 C 274.107 -0.564168 -4.24265 0
M  V30 2793 C 273.433 0.308886 -5.33807 0
M  V30 2794 C 274.733 -1.83112 -4.89149 0
M  V30 2795 H 276.427 -1.30552 -2.69437 0
M  V30 2796 H 273.973 -0.629201 -1.29526 0
M  V30 2797 H 275.926 0.637233 -4.16554 0
M  V30 2798 H 274.65 1.17738 -3.0464 0
M  V30 2799 H 273.309 -0.893477 -3.55545 0
M  V30 2800 H 272.957 1.19467 -4.88607 0
M  V30 2801 H 272.657 -0.259633 -5.87026 0
M  V30 2802 H 274.181 0.650884 -6.07121 0
M  V30 2803 H 275.595 -1.55236 -5.51883 0
M  V30 2804 H 273.992 -2.34353 -5.52448 0
M  V30 2805 H 275.062 -2.54772 -4.12576 0
M  V30 2806 N 276.405 1.4127 -0.698611 0
M  V30 2807 C 277.633 2.05503 -0.239992 0
M  V30 2808 C 278.048 1.52584 1.11191 0
M  V30 2809 O 277.405 0.675323 1.69545 0
M  V30 2810 C 277.456 3.60987 -0.192429 0
M  V30 2811 O 277.177 4.1195 -1.49094 0
M  V30 2812 C 278.678 4.42371 0.28681 0
M  V30 2813 H 275.898 0.661748 -0.111045 0
M  V30 2814 H 278.442 1.80987 -0.95205 0
M  V30 2815 H 276.597 3.84533 0.470472 0
M  V30 2816 H 277.011 5.06018 -1.38007 0
M  V30 2817 H 278.485 5.51344 0.26896 0
M  V30 2818 H 278.962 4.18699 1.32619 0
M  V30 2819 H 279.568 4.23897 -0.345201 0
M  V30 2820 N 277.883 0.443576 1.51229 0
M  V30 2821 C 278.793 -0.370721 2.31652 0
M  V30 2822 C 279.809 -1.02186 1.40833 0
M  V30 2823 O 280.985 -1.01586 1.73903 0
M  V30 2824 C 278.05 -1.45376 3.14749 0
M  V30 2825 C 277.111 -0.822099 4.21355 0
M  V30 2826 C 276.344 -1.85353 5.0048 0
M  V30 2827 O 276.567 -3.07656 4.80316 0
M  V30 2828 O 275.501 -1.4406 5.84406 0
M  V30 2829 H 279.327 0.286002 3.0235 0
M  V30 2830 H 276.912 0.20598 1.47973 0
M  V30 2831 H 278.794 -2.08173 3.66391 0
M  V30 2832 H 277.469 -2.09445 2.46809 0
M  V30 2833 H 276.376 -0.155909 3.73775 0
M  V30 2834 H 277.709 -0.224797 4.91686 0
M  V30 2835 N 279.361 -1.56624 0.175154 0
M  V30 2836 C 280.609 -1.96609 -0.467885 0
M  V30 2837 C 280.93 -1.06238 -1.63519 0
M  V30 2838 O 280.2 -0.129523 -1.95471 0
M  V30 2839 H 278.78 -0.726008 -0.175845 0
M  V30 2840 H 281.442 -1.93195 0.257234 0
M  V30 2841 H 280.538 -3.00989 -0.825342 0
M  V30 2842 N 280.839 0.0985539 -1.57292 0
M  V30 2843 C 281.772 1.15082 -1.97057 0
M  V30 2844 C 282.75 1.39025 -0.843255 0
M  V30 2845 O 283.934 1.52842 -1.10325 0
M  V30 2846 C 281.061 2.50069 -2.28437 0
M  V30 2847 C 280.107 2.42428 -3.509 0
M  V30 2848 S 280.94 1.84414 -5.02744 0
M  V30 2849 C 282.096 3.21032 -5.37298 0
M  V30 2850 H 282.329 0.811815 -2.86002 0
M  V30 2851 H 279.862 0.306102 -1.51335 0
M  V30 2852 H 281.82 3.27729 -2.47192 0
M  V30 2853 H 280.481 2.8114 -1.40069 0
M  V30 2854 H 279.674 3.41911 -3.70288 0
M  V30 2855 H 279.276 1.72896 -3.31637 0
M  V30 2856 H 281.568 4.17297 -5.33731 0
M  V30 2857 H 282.511 3.06452 -6.38352 0
M  V30 2858 H 282.919 3.20404 -4.64759 0
M  V30 2859 N 282.317 1.53212 0.369288 0
M  V30 2860 C 283.733 1.42902 0.710712 0
M  V30 2861 C 283.933 0.565135 1.93413 0
M  V30 2862 O 282.989 0.0461484 2.52458 0
M  V30 2863 C 284.302 2.86042 0.927382 0
M  V30 2864 C 285.85 2.9565 1.02762 0
M  V30 2865 C 286.325 4.39843 1.27679 0
M  V30 2866 N 287.816 4.43256 1.34457 0
M  V30 2867 C 288.551 5.51929 1.55439 0
M  V30 2868 N 288.047 6.70655 1.73762 0
M  V30 2869 N 289.84 5.39502 1.57779 0
M  V30 2870 H 281.991 2.07888 -0.435457 0
M  V30 2871 H 284.254 0.938661 -0.132739 0
M  V30 2872 H 283.96 3.51557 0.100287 0
M  V30 2873 H 283.834 3.29472 1.83653 0
M  V30 2874 H 286.221 2.30291 1.84527 0
M  V30 2875 H 286.302 2.5562 0.0959504 0
M  V30 2876 H 285.946 5.05774 0.464175 0
M  V30 2877 H 285.876 4.77443 2.22162 0
M  V30 2878 H 288.367 3.5769 1.21926 0
M  V30 2879 H 288.68 7.49248 1.89335 0
M  V30 2880 H 287.025 6.73648 1.70948 0
M  V30 2881 H 290.216 4.45713 1.43029 0
M  V30 2882 H 290.389 6.2426 1.7379 0
M  V30 2883 N 283.795 -0.628877 1.44509 0
M  V30 2884 C 285.042 -1.38839 1.47411 0
M  V30 2885 C 285.37 -1.94202 0.10757 0
M  V30 2886 O 284.625 -1.74243 -0.890947 0
M  V30 2887 C 284.924 -2.56995 2.48371 0
M  V30 2888 C 284.59 -2.19908 3.93639 0
M  V30 2889 C 283.252 -2.09506 4.33198 0
M  V30 2890 C 285.604 -1.9064 4.85083 0
M  V30 2891 C 282.932 -1.68028 5.62124 0
M  V30 2892 C 285.284 -1.50655 6.14399 0
M  V30 2893 C 283.948 -1.38796 6.5291 0
M  V30 2894 H 283.218 -0.508048 0.539414 0
M  V30 2895 H 285.865 -0.712913 1.77735 0
M  V30 2896 H 284.17 -3.29786 2.11538 0
M  V30 2897 H 285.867 -3.15223 2.47861 0
M  V30 2898 H 282.457 -2.28922 3.62343 0
M  V30 2899 H 286.641 -1.97585 4.55273 0
M  V30 2900 H 281.897 -1.57452 5.90778 0
M  V30 2901 H 286.071 -1.27048 6.84713 0
M  V30 2902 H 283.698 -1.06429 7.52713 0
M  V30 2903 N 285.273 -1.31445 -0.869486 0
M  V30 2904 C 286.55 -1.11795 -1.60503 0
M  V30 2905 C 286.93 0.327168 -2.08549 0
M  V30 2906 O 286.278 1.32135 -1.8642 0
M  V30 2907 C 286.488 -2.13258 -2.76265 0
M  V30 2908 C 287.836 -2.45805 -3.46215 0
M  V30 2909 O 288.86 -2.11688 -2.86473 0
M  V30 2910 O 287.719 -3.04228 -4.5399 0
M  V30 2911 H 284.813 -0.430421 -0.706163 0
M  V30 2912 H 287.359 -1.42925 -0.914907 0
M  V30 2913 H 286.131 -3.10461 -2.3818 0
M  V30 2914 H 285.754 -1.83035 -3.52964 0
M  V30 2915 N 286.751 1.08385 -1.14413 0
M  V30 2916 C 287.698 2.15311 -0.831265 0
M  V30 2917 C 288.668 1.64751 0.211292 0
M  V30 2918 O 289.853 1.90627 0.0811674 0
M  V30 2919 C 286.993 3.43658 -0.315143 0
M  V30 2920 C 286.106 4.08064 -1.41802 0
M  V30 2921 C 285.241 5.24207 -0.859126 0
M  V30 2922 C 284.28 5.80554 -1.93967 0
M  V30 2923 N 283.417 6.88042 -1.39793 0
M  V30 2924 H 288.257 2.41415 -1.74708 0
M  V30 2925 H 285.794 1.18474 -0.871909 0
M  V30 2926 H 287.752 4.172 0.00230884 0
M  V30 2927 H 286.382 3.17839 0.56378 0
M  V30 2928 H 285.434 3.3228 -1.85187 0
M  V30 2929 H 286.746 4.45962 -2.23427 0
M  V30 2930 H 285.9 6.04689 -0.49359 0
M  V30 2931 H 284.639 4.87699 -0.011932 0
M  V30 2932 H 283.644 4.98725 -2.31415 0
M  V30 2933 H 284.869 6.19121 -2.79046 0
M  V30 2934 H 282.815 6.53493 -0.572919 0
M  V30 2935 H 282.732 7.24767 -2.15054 0
M  V30 2936 H 284 7.72255 -1.0603 0
M  V30 2937 N 288.23 0.939286 1.26551 0
M  V30 2938 C 289.478 0.58469 1.93457 0
M  V30 2939 C 289.799 -0.878774 1.74076 0
M  V30 2940 O 289.069 -1.62421 1.09528 0
M  V30 2941 H 287.649 0.21325 0.715914 0
M  V30 2942 H 290.311 1.1942 1.54029 0
M  V30 2943 H 289.407 0.800849 3.0165 0
M  V30 2944 N 289.708 -1.40897 0.706093 0
M  V30 2945 C 290.938 -2.05075 0.250523 0
M  V30 2946 C 291.346 -1.53275 -1.10921 0
M  V30 2947 O 290.689 -0.680281 -1.7064 0
M  V30 2948 C 290.751 -3.59219 0.142178 0
M  V30 2949 C 290.415 -4.33864 1.43566 0
M  V30 2950 C 291.412 -4.62448 2.37566 0
M  V30 2951 C 289.097 -4.72946 1.69195 0
M  V30 2952 C 291.091 -5.29088 3.5545 0
M  V30 2953 C 288.778 -5.3932 2.87362 0
M  V30 2954 C 289.776 -5.6732 3.80312 0
M  V30 2955 O 289.464 -6.32325 4.96408 0
M  V30 2956 H 289.196 -0.666645 0.112074 0
M  V30 2957 H 291.75 -1.81467 0.962239 0
M  V30 2958 H 289.98 -3.81609 -0.6254 0
M  V30 2959 H 291.669 -4.0495 -0.277584 0
M  V30 2960 H 292.435 -4.32727 2.19027 0
M  V30 2961 H 288.314 -4.50527 0.977042 0
M  V30 2962 H 291.858 -5.50859 4.28018 0
M  V30 2963 H 287.755 -5.68461 3.05814 0
M  V30 2964 H 288.523 -6.50821 4.9636 0
M  V30 2965 N 291.186 -0.45159 -1.50991 0
M  V30 2966 C 292.435 0.111653 -2.01391 0
M  V30 2967 C 292.748 1.42529 -1.33959 0
M  V30 2968 O 293.954 2.07232 -1.75405 0
M  V30 2969 C 292.41 0.249514 -3.59034 0
M  V30 2970 C 292.018 -1.05453 -4.35412 0
M  V30 2971 C 293.762 0.765762 -4.17536 0
M  V30 2972 C 291.669 -0.881529 -5.84793 0
M  V30 2973 H 290.599 0.0455022 -0.752626 0
M  V30 2974 H 293.25 -0.583524 -1.73975 0
M  V30 2975 H 291.632 1.00803 -3.82955 0
M  V30 2976 H 292.806 -1.82248 -4.23229 0
M  V30 2977 H 291.121 -1.50039 -3.88429 0
M  V30 2978 H 293.718 0.911913 -5.26866 0
M  V30 2979 H 294.061 1.75201 -3.77638 0
M  V30 2980 H 294.594 0.0651744 -3.97747 0
M  V30 2981 H 291.333 -1.84057 -6.29129 0
M  V30 2982 H 290.853 -0.153625 -5.99603 0
M  V30 2983 H 292.532 -0.540363 -6.4474 0
M  V30 2984 N 292.664 1.56529 -0.183458 0
M  V30 2985 C 293.889 2.02064 0.467428 0
M  V30 2986 C 294.314 1.06282 1.55196 0
M  V30 2987 O 293.672 0.0443565 1.81246 0
M  V30 2988 C 293.72 3.46122 1.01153 0
M  V30 2989 O 292.824 3.53437 2.12499 0
M  V30 2990 H 292.165 0.654726 0.110588 0
M  V30 2991 H 294.695 2.02521 -0.290917 0
M  V30 2992 H 294.705 3.85676 1.33108 0
M  V30 2993 H 293.38 4.15331 0.217533 0
M  V30 2994 H 291.957 3.2575 1.81497 0
M  V30 2995 N 294.142 -0.090211 1.57342 0
M  V30 2996 C 295.39 -0.791241 1.85967 0
M  V30 2997 C 295.711 -1.7903 0.772859 0
M  V30 2998 O 294.981 -1.94872 -0.200398 0
M  V30 2999 H 293.561 -0.295205 0.686195 0
M  V30 3000 H 296.223 -0.0706782 1.94772 0
M  V30 3001 H 295.319 -1.31882 2.82867 0
M  V30 3002 N 295.62 -1.53406 -0.361157 0
M  V30 3003 C 296.85 -1.73465 -1.1222 0
M  V30 3004 C 297.258 -0.465486 -1.83384 0
M  V30 3005 O 296.601 0.571611 -1.7458 0
M  V30 3006 C 296.663 -2.84834 -2.19339 0
M  V30 3007 C 296.327 -4.25038 -1.67903 0
M  V30 3008 C 297.324 -5.07231 -1.14074 0
M  V30 3009 C 295.009 -4.71464 -1.73282 0
M  V30 3010 C 297.003 -6.33942 -0.663068 0
M  V30 3011 C 294.69 -5.98153 -1.25127 0
M  V30 3012 C 295.688 -6.79223 -0.717296 0
M  V30 3013 O 295.376 -8.03533 -0.242865 0
M  V30 3014 H 295.108 -0.583526 -0.341283 0
M  V30 3015 H 297.662 -2.00964 -0.424591 0
M  V30 3016 H 295.892 -2.5282 -2.92607 0
M  V30 3017 H 297.581 -2.9303 -2.80871 0
M  V30 3018 H 298.347 -4.72534 -1.09254 0
M  V30 3019 H 294.226 -4.08432 -2.13786 0
M  V30 3020 H 297.77 -6.97167 -0.245612 0
M  V30 3021 H 293.667 -6.32347 -1.29642 0
M  V30 3022 H 294.435 -8.177 -0.361786 0
M  V30 3023 N 297.098 0.621204 -1.44841 0
M  V30 3024 C 298.345 1.38055 -1.48145 0
M  V30 3025 C 298.673 1.94143 -0.117867 0
M  V30 3026 O 297.928 1.74713 0.881694 0
M  V30 3027 C 298.227 2.55675 -2.4973 0
M  V30 3028 C 297.893 2.17817 -3.94799 0
M  V30 3029 C 296.555 2.07205 -4.34303 0
M  V30 3030 C 298.907 1.88065 -4.86087 0
M  V30 3031 C 296.235 1.65045 -5.63007 0
M  V30 3032 C 298.587 1.47394 -6.15189 0
M  V30 3033 C 297.251 1.35331 -6.53637 0
M  V30 3034 H 296.521 0.505181 -0.542101 0
M  V30 3035 H 299.168 0.703477 -1.78111 0
M  V30 3036 H 297.473 3.2866 -2.13284 0
M  V30 3037 H 299.17 3.13904 -2.4953 0
M  V30 3038 H 295.76 2.26998 -3.63552 0
M  V30 3039 H 299.944 1.95168 -4.56315 0
M  V30 3040 H 295.2 1.54317 -5.91605 0
M  V30 3041 H 299.374 1.23415 -6.85377 0
M  V30 3042 H 297.001 1.02435 -7.53267 0
M  V30 3043 N 298.576 1.31904 0.862503 0
M  V30 3044 C 299.822 1.22197 1.61851 0
M  V30 3045 C 300.155 -0.217641 1.92977 0
M  V30 3046 O 299.43 -1.15264 1.56666 0
M  V30 3047 C 299.713 2.07378 2.94391 0
M  V30 3048 C 299.566 3.59678 2.70096 0
M  V30 3049 C 300.885 1.92891 3.95577 0
M  V30 3050 H 298.004 0.445255 0.587296 0
M  V30 3051 H 300.646 1.6177 0.99651 0
M  V30 3052 H 298.796 1.73758 3.47477 0
M  V30 3053 H 300.468 4.03472 2.23625 0
M  V30 3054 H 298.711 3.82735 2.04197 0
M  V30 3055 H 299.382 4.14595 3.64438 0
M  V30 3056 H 301.858 2.22327 3.51724 0
M  V30 3057 H 300.734 2.54781 4.86187 0
M  V30 3058 H 300.995 0.894315 4.3296 0
M  V30 3059 N 300.054 -1.07777 1.14986 0
M  V30 3060 C 301.282 -1.84018 0.945773 0
M  V30 3061 C 301.697 -1.81897 -0.505863 0
M  V30 3062 O 301.054 -1.22726 -1.35072 0
M  V30 3063 C 301.105 -3.31287 1.44677 0
M  V30 3064 O 300.826 -3.33449 2.84154 0
M  V30 3065 C 302.327 -4.24311 1.28355 0
M  V30 3066 H 299.547 -0.580716 0.336169 0
M  V30 3067 H 302.091 -1.36077 1.52654 0
M  V30 3068 H 300.246 -3.76594 0.908625 0
M  V30 3069 H 300.66 -4.25427 3.06777 0
M  V30 3070 H 302.134 -5.2573 1.68261 0
M  V30 3071 H 302.611 -4.38612 0.227184 0
M  V30 3072 H 303.217 -3.84836 1.81056 0
M  V30 3073 N 301.532 -0.945985 -1.26051 0
M  V30 3074 C 302.809 -0.513816 -1.88731 0
M  V30 3075 C 303.189 1.00872 -1.8544 0
M  V30 3076 O 302.537 1.8708 -1.312 0
M  V30 3077 C 302.747 -1.08062 -3.31849 0
M  V30 3078 C 304.095 -1.1522 -4.08668 0
M  V30 3079 O 305.119 -1.03155 -3.40936 0
M  V30 3080 O 303.978 -1.34044 -5.29806 0
M  V30 3081 H 301.072 -0.168193 -0.809716 0
M  V30 3082 H 303.618 -1.03886 -1.34186 0
M  V30 3083 H 302.39 -2.1241 -3.2863 0
M  V30 3084 H 302.013 -0.538307 -3.93939 0
M  V30 3085 N 303.011 1.40521 -0.713556 0
M  V30 3086 C 304.422 1.83853 -0.324807 0
M  V30 3087 C 304.773 1.59667 1.14021 0
M  V30 3088 O 303.898 1.07649 1.87725 0
M  V30 3089 C 304.493 3.33751 -0.582746 0
M  V30 3090 C 303.052 3.75584 -0.247727 0
M  V30 3091 C 302.199 2.63753 -0.856121 0
M  V30 3092 H 305.15 1.29817 -0.91286 0
M  V30 3093 H 305.171 3.80194 0.152682 0
M  V30 3094 H 304.683 3.51322 -1.64908 0
M  V30 3095 H 302.784 3.63608 0.813624 0
M  V30 3096 H 302.897 4.7373 -0.715307 0
M  V30 3097 H 301.261 2.53108 -0.28432 0
M  V30 3098 H 302.044 2.84137 -1.92668 0
M  V30 3099 N 304.489 0.459591 1.5075 0
M  V30 3100 C 305.399 -0.34613 2.32033 0
M  V30 3101 C 306.415 -1.00686 1.41909 0
M  V30 3102 O 307.591 -0.997361 1.7497 0
M  V30 3103 C 304.656 -1.42029 3.16273 0
M  V30 3104 C 303.717 -0.777362 4.22203 0
M  V30 3105 C 302.95 -1.80034 5.02418 0
M  V30 3106 O 303.173 -3.02544 4.83553 0
M  V30 3107 O 302.107 -1.37853 5.85901 0
M  V30 3108 H 305.933 0.318054 3.0203 0
M  V30 3109 H 303.518 0.221663 1.47746 0
M  V30 3110 H 305.4 -2.04275 3.68578 0
M  V30 3111 H 304.075 -2.06815 2.49016 0
M  V30 3112 H 302.982 -0.116256 3.73919 0
M  V30 3113 H 304.315 -0.172634 4.91897 0
M  V30 3114 N 305.967 -1.56429 0.191757 0
M  V30 3115 C 307.383 -1.58754 -0.164137 0
M  V30 3116 C 307.583 -1.20782 -1.61288 0
M  V30 3117 O 306.639 -0.928999 -2.34789 0
M  V30 3118 C 307.952 -3.00396 0.135195 0
M  V30 3119 C 309.5 -3.1291 0.0750351 0
M  V30 3120 C 309.975 -4.56679 0.347632 0
M  V30 3121 N 311.466 -4.62252 0.296131 0
M  V30 3122 C 312.201 -5.71379 0.480948 0
M  V30 3123 N 311.697 -6.88986 0.725933 0
M  V30 3124 N 313.49 -5.60563 0.415435 0
M  V30 3125 H 305.641 -1.79393 1.13718 0
M  V30 3126 H 307.904 -0.832414 0.453643 0
M  V30 3127 H 307.61 -3.32726 1.13958 0
M  V30 3128 H 307.484 -3.72963 -0.563773 0
M  V30 3129 H 309.871 -2.80394 -0.919948 0
M  V30 3130 H 309.952 -2.42736 0.807029 0
M  V30 3131 H 309.596 -4.89907 1.33992 0
M  V30 3132 H 309.526 -5.25039 -0.405212 0
M  V30 3133 H 312.017 -3.7773 0.113259 0
M  V30 3134 H 312.33 -7.68046 0.855857 0
M  V30 3135 H 310.675 -6.90801 0.762788 0
M  V30 3136 H 313.866 -4.67561 0.224486 0
M  V30 3137 H 314.039 -6.45551 0.562889 0
M  V30 3138 N 307.445 0.0818655 -1.57387 0
M  V30 3139 C 308.377 1.12484 -1.997 0
M  V30 3140 C 309.39 1.35564 -0.90146 0
M  V30 3141 O 310.579 1.33982 -1.17945 0
M  V30 3142 C 307.679 2.47778 -2.31213 0
M  V30 3143 C 306.852 2.44793 -3.62485 0
M  V30 3144 C 305.911 3.62117 -3.81782 0
M  V30 3145 O 304.937 3.44005 -4.53486 0
M  V30 3146 N 306.139 4.82094 -3.23367 0
M  V30 3147 H 308.904 0.764585 -2.89783 0
M  V30 3148 H 306.465 0.270664 -1.59621 0
M  V30 3149 H 308.457 3.24891 -2.41304 0
M  V30 3150 H 307.027 2.75843 -1.4707 0
M  V30 3151 H 306.247 1.53134 -3.6324 0
M  V30 3152 H 307.535 2.39889 -4.48699 0
M  V30 3153 H 306.933 4.99713 -2.65148 0
M  V30 3154 H 305.49 5.56753 -3.38923 0
M  V30 3155 N 308.923 1.53595 0.353017 0
M  V30 3156 C 309.833 1.83897 1.45667 0
M  V30 3157 C 310.849 0.728334 1.58023 0
M  V30 3158 O 312.025 1.01968 1.73679 0
M  V30 3159 C 309.09 2.03383 2.80778 0
M  V30 3160 C 308.151 3.27262 2.77845 0
M  V30 3161 C 307.384 3.45809 4.06512 0
M  V30 3162 O 307.607 2.68387 5.03314 0
M  V30 3163 O 306.541 4.39207 4.11559 0
M  V30 3164 H 310.367 2.77686 1.2298 0
M  V30 3165 H 307.952 1.39132 0.544308 0
M  V30 3166 H 309.834 2.17698 3.60812 0
M  V30 3167 H 308.509 1.12783 3.03417 0
M  V30 3168 H 307.416 3.18359 1.96465 0
M  V30 3169 H 308.749 4.17824 2.60161 0
M  V30 3170 N 310.401 -0.613514 1.45168 0
M  V30 3171 C 311.364 -1.7065 1.53007 0
M  V30 3172 C 312.364 -1.5548 0.410184 0
M  V30 3173 O 313.554 -1.60656 0.673455 0
M  V30 3174 C 310.686 -3.09875 1.42093 0
M  V30 3175 H 311.879 -1.65068 2.50385 0
M  V30 3176 H 309.432 -0.828728 1.32521 0
M  V30 3177 H 310.167 -3.21039 0.458769 0
M  V30 3178 H 309.952 -3.22293 2.23315 0
M  V30 3179 H 311.442 -3.895 1.50598 0
M  V30 3180 N 311.879 -1.3236 -0.855495 0
M  V30 3181 C 313.125 -1.23054 -1.612 0
M  V30 3182 C 313.458 0.207404 -1.93089 0
M  V30 3183 O 312.733 1.14432 -1.57275 0
M  V30 3184 C 313.016 -2.08937 -2.93287 0
M  V30 3185 C 312.869 -3.61105 -2.68185 0
M  V30 3186 C 314.188 -1.94986 -3.94549 0
M  V30 3187 H 311.307 -0.448364 -0.584926 0
M  V30 3188 H 313.949 -1.62297 -0.987917 0
M  V30 3189 H 312.099 -1.75599 -3.46551 0
M  V30 3190 H 313.771 -4.04652 -2.21483 0
M  V30 3191 H 312.014 -3.83813 -2.02164 0
M  V30 3192 H 312.685 -4.16522 -3.62234 0
M  V30 3193 H 315.161 -2.24189 -3.5054 0
M  V30 3194 H 314.037 -2.57356 -4.84829 0
M  V30 3195 H 314.298 -0.917263 -4.3248 0
M  V30 3196 N 313.357 1.07166 -1.15556 0
M  V30 3197 C 314.287 2.16403 -0.877046 0
M  V30 3198 C 315.268 1.69217 0.173111 0
M  V30 3199 O 316.453 1.94181 0.027084 0
M  V30 3200 C 313.583 3.45349 -0.367632 0
M  V30 3201 C 312.537 4.05995 -1.35468 0
M  V30 3202 C 311.863 5.30045 -0.704038 0
M  V30 3203 C 313.163 4.45804 -2.72132 0
M  V30 3204 H 314.857 2.39959 -1.79053 0
M  V30 3205 H 312.403 1.15325 -0.862331 0
M  V30 3206 H 314.356 4.21095 -0.160317 0
M  V30 3207 H 313.08 3.21385 0.581326 0
M  V30 3208 H 311.739 3.32296 -1.54839 0
M  V30 3209 H 311.387 5.02373 0.251128 0
M  V30 3210 H 311.087 5.71579 -1.36277 0
M  V30 3211 H 312.611 6.08495 -0.50654 0
M  V30 3212 H 314.025 5.12671 -2.56595 0
M  V30 3213 H 312.422 4.98296 -3.34397 0
M  V30 3214 H 313.492 3.57083 -3.28054 0
M  V30 3215 N 314.835 0.952656 1.25548 0
M  V30 3216 C 315.745 0.47782 2.29682 0
M  V30 3217 C 316.761 -0.453859 1.67977 0
M  V30 3218 O 317.937 -0.330587 1.98668 0
M  V30 3219 C 315.002 -0.238655 3.45878 0
M  V30 3220 C 314.063 0.730994 4.23031 0
M  V30 3221 C 313.296 0.0486165 5.33678 0
M  V30 3222 O 313.519 -1.16612 5.58353 0
M  V30 3223 O 312.453 0.733152 5.97418 0
M  V30 3224 H 316.279 1.34312 2.72386 0
M  V30 3225 H 313.864 0.719026 1.30959 0
M  V30 3226 H 315.746 -0.641774 4.16484 0
M  V30 3227 H 314.421 -1.07916 3.05181 0
M  V30 3228 H 313.328 1.18428 3.5486 0
M  V30 3229 H 314.661 1.53946 4.67506 0
M  V30 3230 N 316.313 -1.40141 0.720998 0
M  V30 3231 C 317.59 -1.94677 0.189757 0
M  V30 3232 C 317.97 -1.65879 -1.30566 0
M  V30 3233 O 317.318 -0.979391 -2.06447 0
M  V30 3234 C 317.528 -3.45279 0.508304 0
M  V30 3235 C 318.876 -4.22209 0.449934 0
M  V30 3236 O 319.9 -3.53413 0.444677 0
M  V30 3237 O 318.759 -5.44788 0.432189 0
M  V30 3238 H 315.853 -0.826459 0.0299026 0
M  V30 3239 H 318.399 -1.49719 0.7989 0
M  V30 3240 H 317.171 -3.59619 1.54239 0
M  V30 3241 H 316.794 -3.97386 -0.130525 0
M  V30 3242 N 317.792 -0.46758 -1.50504 0
M  V30 3243 C 319.203 -0.0116166 -1.86696 0
M  V30 3244 C 319.554 1.39202 -1.38265 0
M  V30 3245 O 318.679 2.0313 -0.746132 0
M  V30 3246 C 319.274 -0.0143044 -3.38797 0
M  V30 3247 C 317.833 0.386175 -3.74414 0
M  V30 3248 C 316.98 -0.401287 -2.74381 0
M  V30 3249 H 319.931 -0.682022 -1.43297 0
M  V30 3250 H 319.952 0.788641 -3.72237 0
M  V30 3251 H 319.464 -1.03602 -3.74016 0
M  V30 3252 H 317.565 1.41237 -3.44794 0
M  V30 3253 H 317.678 0.0899596 -4.79016 0
M  V30 3254 H 316.042 0.144536 -2.5429 0
M  V30 3255 H 316.825 -1.42244 -3.12444 0
M  V30 3256 N 319.27 1.56325 -0.20005 0
M  V30 3257 C 320.5 2.01811 0.442232 0
M  V30 3258 C 320.908 1.07932 1.55394 0
M  V30 3259 O 320.251 0.0772685 1.83537 0
M  V30 3260 C 320.313 3.43685 1.05457 0
M  V30 3261 C 319.977 4.56928 0.0809833 0
M  V30 3262 C 320.974 5.15009 -0.711471 0
M  V30 3263 C 318.659 5.0229 -0.0315364 0
M  V30 3264 C 320.653 6.16904 -1.60336 0
M  V30 3265 C 318.34 6.04028 -0.926981 0
M  V30 3266 C 319.338 6.6121 -1.71146 0
M  V30 3267 O 319.026 7.60971 -2.59189 0
M  V30 3268 H 318.758 0.666173 0.114848 0
M  V30 3269 H 321.312 2.03085 -0.307511 0
M  V30 3270 H 319.542 3.39413 1.85299 0
M  V30 3271 H 321.231 3.72948 1.60201 0
M  V30 3272 H 321.997 4.80827 -0.634873 0
M  V30 3273 H 317.876 4.57476 0.568902 0
M  V30 3274 H 321.42 6.61464 -2.21611 0
M  V30 3275 H 317.317 6.37634 -1.00468 0
M  V30 3276 H 318.085 7.7841 -2.53023 0
M  V30 3277 N 320.748 -0.0735177 1.57428 0
M  V30 3278 C 321.997 -0.771809 1.86349 0
M  V30 3279 C 322.31 -1.78828 0.792452 0
M  V30 3280 O 323.516 -2.53602 0.96945 0
M  V30 3281 C 321.972 -1.42358 3.30548 0
M  V30 3282 C 321.58 -0.445761 4.45777 0
M  V30 3283 C 323.324 -2.10434 3.6867 0
M  V30 3284 C 321.231 -1.10335 5.81016 0
M  V30 3285 H 320.161 -0.291999 0.695164 0
M  V30 3286 H 322.812 -0.0250749 1.83483 0
M  V30 3287 H 321.194 -2.21852 3.28021 0
M  V30 3288 H 322.368 0.319239 4.59693 0
M  V30 3289 H 320.683 0.130457 4.16196 0
M  V30 3290 H 323.28 -2.60405 4.67004 0
M  V30 3291 H 323.623 -2.90298 2.98383 0
M  V30 3292 H 324.156 -1.37773 3.7318 0
M  V30 3293 H 320.895 -0.345061 6.54591 0
M  V30 3294 H 320.415 -1.83925 5.70904 0
M  V30 3295 H 322.094 -1.62367 6.26295 0
M  V30 3296 N 322.226 -1.5378 -0.344866 0
M  V30 3297 C 323.156 -1.84662 -1.42906 0
M  V30 3298 C 324.137 -0.701648 -1.54955 0
M  V30 3299 O 325.322 -0.953438 -1.69184 0
M  V30 3300 C 322.452 -2.05503 -2.79974 0
M  V30 3301 C 321.406 -3.21318 -2.82734 0
M  V30 3302 C 320.732 -3.2749 -4.22675 0
M  V30 3303 C 322.032 -4.59456 -2.48389 0
M  V30 3304 H 323.726 -2.75461 -1.17311 0
M  V30 3305 H 321.272 -1.32542 -0.562896 0
M  V30 3306 H 323.225 -2.25691 -3.55867 0
M  V30 3307 H 321.949 -1.11434 -3.07002 0
M  V30 3308 H 320.608 -3.00984 -2.09294 0
M  V30 3309 H 320.256 -2.31019 -4.4681 0
M  V30 3310 H 319.956 -4.05316 -4.25433 0
M  V30 3311 H 321.48 -3.49887 -5.00412 0
M  V30 3312 H 322.894 -4.79667 -3.13995 0
M  V30 3313 H 321.291 -5.39675 -2.62432 0
M  V30 3314 H 322.361 -4.63155 -1.4358 0
M  V30 3315 N 323.704 0.605807 -1.45491 0
M  V30 3316 C 324.634 1.72709 -1.57143 0
M  V30 3317 C 325.615 1.6476 -0.422884 0
M  V30 3318 O 326.8 1.83132 -0.646247 0
M  V30 3319 C 323.93 3.11316 -1.53948 0
M  V30 3320 C 322.884 3.34077 -2.67537 0
M  V30 3321 C 322.21 4.72975 -2.49397 0
M  V30 3322 C 323.51 3.24158 -4.09535 0
M  V30 3323 H 325.204 1.63214 -2.51001 0
M  V30 3324 H 322.75 0.78379 -1.208 0
M  V30 3325 H 324.703 3.89557 -1.60696 0
M  V30 3326 H 323.427 3.21655 -0.566205 0
M  V30 3327 H 322.086 2.58227 -2.6022 0
M  V30 3328 H 321.734 4.8005 -1.50205 0
M  V30 3329 H 321.434 4.8916 -3.25571 0
M  V30 3330 H 322.958 5.53414 -2.58002 0
M  V30 3331 H 324.372 3.92271 -4.18086 0
M  V30 3332 H 322.769 3.51872 -4.86113 0
M  V30 3333 H 323.839 2.2157 -4.31317 0
M  V30 3334 N 325.182 1.32811 0.848464 0
M  V30 3335 C 326.428 1.23907 1.60546 0
M  V30 3336 C 326.761 -0.197161 1.93197 0
M  V30 3337 O 326.036 -1.13596 1.5788 0
M  V30 3338 C 326.319 2.10489 2.92175 0
M  V30 3339 C 326.172 3.62522 2.66266 0
M  V30 3340 C 327.491 1.97075 3.93509 0
M  V30 3341 H 324.61 0.451459 0.58254 0
M  V30 3342 H 327.252 1.62818 0.979296 0
M  V30 3343 H 325.402 1.77434 3.45614 0
M  V30 3344 H 327.074 4.05821 2.19334 0
M  V30 3345 H 325.317 3.84879 2.00126 0
M  V30 3346 H 325.988 4.18437 3.6002 0
M  V30 3347 H 328.464 2.26045 3.49346 0
M  V30 3348 H 327.34 2.59923 4.83457 0
M  V30 3349 H 327.601 0.940186 4.31987 0
M  V30 3350 N 326.66 -1.06551 1.16123 0
M  V30 3351 C 327.885 -1.83544 0.965735 0
M  V30 3352 C 328.31 -1.81843 -0.481102 0
M  V30 3353 O 327.668 -1.21732 -1.34354 0
M  V30 3354 C 327.716 -3.28169 1.49457 0
M  V30 3355 O 326.82 -4.0643 0.699157 0
M  V30 3356 H 326.161 -0.568026 0.343864 0
M  V30 3357 H 328.691 -1.34362 1.54299 0
M  V30 3358 H 328.701 -3.78992 1.51092 0
M  V30 3359 H 327.376 -3.28722 2.54784 0
M  V30 3360 H 325.953 -3.65216 0.7531 0
M  V30 3361 N 328.138 -0.959301 -1.25041 0
M  V30 3362 C 329.363 -0.633507 -1.97488 0
M  V30 3363 C 329.788 0.788555 -1.70773 0
M  V30 3364 O 329.146 1.53394 -0.966431 0
M  V30 3365 C 329.194 -0.904057 -3.49083 0
M  V30 3366 O 328.298 0.0147939 -4.12397 0
M  V30 3367 H 327.639 -0.240368 -0.618966 0
M  V30 3368 H 330.169 -1.28717 -1.59038 0
M  V30 3369 H 330.179 -0.832203 -3.99423 0
M  V30 3370 H 328.854 -1.94048 -3.67856 0
M  V30 3371 H 327.431 -0.109664 -3.72739 0
M  V30 3372 N 329.616 1.39756 -0.72842 0
M  V30 3373 C 330.563 2.30647 -0.0841519 0
M  V30 3374 C 331.533 1.48869 0.7367 0
M  V30 3375 O 332.718 1.77574 0.698015 0
M  V30 3376 C 329.858 3.35165 0.822091 0
M  V30 3377 C 328.971 4.31999 -0.0106663 0
M  V30 3378 C 328.106 5.23585 0.896241 0
M  V30 3379 C 327.145 6.12072 0.0583381 0
M  V30 3380 N 326.282 6.96035 0.920818 0
M  V30 3381 H 331.122 2.85173 -0.864891 0
M  V30 3382 H 328.659 1.40422 -0.438179 0
M  V30 3383 H 330.617 3.94345 1.36189 0
M  V30 3384 H 329.247 2.8211 1.56888 0
M  V30 3385 H 328.299 3.74492 -0.66781 0
M  V30 3386 H 329.611 4.9443 -0.658825 0
M  V30 3387 H 328.765 5.87759 1.50412 0
M  V30 3388 H 327.504 4.61459 1.57819 0
M  V30 3389 H 326.509 5.46916 -0.562389 0
M  V30 3390 H 327.734 6.76261 -0.6203 0
M  V30 3391 H 325.68 6.36485 1.58818 0
M  V30 3392 H 325.597 7.55284 0.32899 0
M  V30 3393 H 326.865 7.64646 1.51447 0
M  V30 3394 N 331.094 0.475555 1.50254 0
M  V30 3395 C 332.34 -0.0780073 2.0265 0
M  V30 3396 C 332.673 -1.38968 1.35652 0
M  V30 3397 O 331.948 -1.8839 0.483691 0
M  V30 3398 C 332.231 -0.257161 3.59181 0
M  V30 3399 C 332.084 1.07585 4.36744 0
M  V30 3400 C 333.403 -1.00965 4.28362 0
M  V30 3401 H 330.522 -0.0268758 0.73651 0
M  V30 3402 H 333.164 0.622015 1.7953 0
M  V30 3403 H 331.314 -0.853412 3.79011 0
M  V30 3404 H 332.986 1.70902 4.28474 0
M  V30 3405 H 331.229 1.6714 4.00308 0
M  V30 3406 H 331.9 0.904088 5.44546 0
M  V30 3407 H 334.376 -0.504214 4.13034 0
M  V30 3408 H 333.252 -1.10381 5.37687 0
M  V30 3409 H 333.513 -2.04731 3.91839 0
M  V30 3410 N 332.573 -1.56217 0.208337 0
M  V30 3411 C 333.798 -2.02782 -0.435222 0
M  V30 3412 C 334.223 -1.08738 -1.53485 0
M  V30 3413 O 333.581 -0.0731855 -1.81152 0
M  V30 3414 C 333.629 -3.47687 -0.956335 0
M  V30 3415 O 332.733 -3.56773 -2.06849 0
M  V30 3416 H 332.074 -0.656403 -0.100158 0
M  V30 3417 H 334.604 -2.02033 0.3231 0
M  V30 3418 H 334.614 -3.87745 -1.26955 0
M  V30 3419 H 333.289 -4.15624 -0.15143 0
M  V30 3420 H 331.866 -3.28597 -1.76292 0
M  V30 3421 N 334.051 0.0651679 -1.57465 0
M  V30 3422 C 335.279 0.775808 -1.91804 0
M  V30 3423 C 335.694 1.70782 -0.804916 0
M  V30 3424 O 335.051 1.81153 0.221311 0
M  V30 3425 C 335.102 1.56381 -3.25925 0
M  V30 3426 O 334.823 0.669248 -4.32958 0
M  V30 3427 C 336.324 2.37485 -3.7432 0
M  V30 3428 H 333.544 0.2202 -0.63384 0
M  V30 3429 H 336.088 0.0334587 -2.04473 0
M  V30 3430 H 334.243 2.25837 -3.14764 0
M  V30 3431 H 334.657 1.21801 -5.10162 0
M  V30 3432 H 336.131 2.88223 -4.70778 0
M  V30 3433 H 336.608 3.17307 -3.03666 0
M  V30 3434 H 337.214 1.73173 -3.88447 0
M  V30 3435 N 335.529 1.53961 0.336706 0
M  V30 3436 C 336.775 1.7179 1.07777 0
M  V30 3437 C 337.108 0.483263 1.88091 0
M  V30 3438 O 336.383 -0.519747 1.87427 0
M  V30 3439 C 336.666 2.98558 2.01334 0
M  V30 3440 C 336.519 4.32245 1.24437 0
M  V30 3441 C 337.838 3.21023 3.01052 0
M  V30 3442 H 334.957 0.625089 0.390426 0
M  V30 3443 H 337.599 1.86641 0.35567 0
M  V30 3444 H 335.749 2.86028 2.62908 0
M  V30 3445 H 337.421 4.56637 0.654243 0
M  V30 3446 H 335.664 4.30344 0.546458 0
M  V30 3447 H 336.335 5.17137 1.93063 0
M  V30 3448 H 338.811 3.32929 2.49595 0
M  V30 3449 H 337.687 4.11104 3.6371 0
M  V30 3450 H 337.948 2.37637 3.72802 0
M  V30 3451 N 337.007 -0.598083 1.45811 0
M  V30 3452 C 337.954 -1.7082 1.55207 0
M  V30 3453 C 338.924 -1.61278 0.39732 0
M  V30 3454 O 340.109 -1.80717 0.612038 0
M  V30 3455 C 337.249 -3.09144 1.53376 0
M  V30 3456 C 336.362 -3.29423 2.79472 0
M  V30 3457 C 335.497 -4.57907 2.69248 0
M  V30 3458 C 334.536 -4.71476 3.90354 0
M  V30 3459 N 333.673 -5.9127 3.78608 0
M  V30 3460 H 338.513 -1.62125 2.50039 0
M  V30 3461 H 336.05 -0.790389 1.24062 0
M  V30 3462 H 338.008 -3.89186 1.50301 0
M  V30 3463 H 336.638 -3.16773 0.620876 0
M  V30 3464 H 335.69 -2.43091 2.92594 0
M  V30 3465 H 337.002 -3.3532 3.69272 0
M  V30 3466 H 336.156 -5.46157 2.64192 0
M  V30 3467 H 334.895 -4.54423 1.77063 0
M  V30 3468 H 333.9 -3.81648 3.95759 0
M  V30 3469 H 335.125 -4.76751 4.83617 0
M  V30 3470 H 333.071 -5.88813 2.89199 0
M  V30 3471 H 332.988 -5.98369 4.6205 0
M  V30 3472 H 334.256 -6.81992 3.77501 0
M  V30 3473 N 338.485 -1.33259 -0.841409 0
M  V30 3474 C 339.762 -1.15174 -1.58096 0
M  V30 3475 C 340.142 0.282858 -2.09196 0
M  V30 3476 O 339.49 1.28151 -1.89181 0
M  V30 3477 C 339.7 -2.1907 -2.71679 0
M  V30 3478 C 341.048 -2.53093 -3.40924 0
M  V30 3479 O 342.072 -2.17717 -2.81918 0
M  V30 3480 O 340.931 -3.1379 -4.47435 0
M  V30 3481 H 338.025 -0.445303 -0.696875 0
M  V30 3482 H 340.571 -1.44833 -0.884385 0
M  V30 3483 H 339.343 -3.15443 -2.31541 0
M  V30 3484 H 338.966 -1.90481 -3.49002 0
M  V30 3485 N 339.963 1.05934 -1.16686 0
M  V30 3486 C 340.893 2.1546 -0.899949 0
M  V30 3487 C 341.874 1.69391 0.155154 0
M  V30 3488 O 343.059 1.94199 0.00648693 0
M  V30 3489 C 340.189 3.44939 -0.404241 0
M  V30 3490 C 339.143 4.04536 -1.39767 0
M  V30 3491 C 338.469 5.29268 -0.760216 0
M  V30 3492 C 339.769 4.42893 -2.76845 0
M  V30 3493 H 341.463 2.38046 -1.81588 0
M  V30 3494 H 339.009 1.14404 -0.874514 0
M  V30 3495 H 340.962 4.20901 -0.204971 0
M  V30 3496 H 339.686 3.21983 0.547206 0
M  V30 3497 H 338.345 3.30635 -1.58355 0
M  V30 3498 H 337.993 5.02611 0.197831 0
M  V30 3499 H 337.693 5.70101 -1.42332 0
M  V30 3500 H 339.217 6.07924 -0.57105 0
M  V30 3501 H 340.631 5.09921 -2.62019 0
M  V30 3502 H 339.028 4.94721 -3.39663 0
M  V30 3503 H 340.098 3.53584 -3.31823 0
M  V30 3504 N 341.441 0.965919 1.2453 0
M  V30 3505 C 342.371 0.513476 2.27784 0
M  V30 3506 C 343.352 -0.445974 1.6415 0
M  V30 3507 O 344.537 -0.342485 1.91156 0
M  V30 3508 C 341.667 -0.198839 3.4673 0
M  V30 3509 C 340.621 0.676456 4.2262 0
M  V30 3510 C 339.947 -0.167248 5.34438 0
M  V30 3511 C 341.247 1.96017 4.84123 0
M  V30 3512 H 342.941 1.3765 2.65881 0
M  V30 3513 H 340.487 0.663321 1.27813 0
M  V30 3514 H 342.44 -0.526567 4.18097 0
M  V30 3515 H 341.164 -1.0962 3.07654 0
M  V30 3516 H 339.823 0.98743 3.53052 0
M  V30 3517 H 339.471 -1.0647 4.91603 0
M  V30 3518 H 339.171 0.415181 5.86131 0
M  V30 3519 H 340.695 -0.489688 6.08633 0
M  V30 3520 H 342.109 1.69814 5.47573 0
M  V30 3521 H 340.506 2.48918 5.4604 0
M  V30 3522 H 341.576 2.65622 4.05676 0
M  V30 3523 N 342.919 -1.39368 0.735821 0
M  V30 3524 C 344.33 -1.83313 0.354015 0
M  V30 3525 C 344.681 -1.61461 -1.11466 0
M  V30 3526 O 343.806 -1.10621 -1.85989 0
M  V30 3527 C 344.401 -3.32781 0.635769 0
M  V30 3528 C 342.96 -3.75142 0.307448 0
M  V30 3529 C 342.107 -2.62358 0.897974 0
M  V30 3530 H 345.058 -1.28349 0.933398 0
M  V30 3531 H 345.079 -3.80388 -0.0921773 0
M  V30 3532 H 344.591 -3.48654 1.70476 0
M  V30 3533 H 342.692 -3.64857 -0.755674 0
M  V30 3534 H 342.805 -4.72532 0.790583 0
M  V30 3535 H 341.169 -2.52624 0.324551 0
M  V30 3536 H 341.952 -2.81036 1.97164 0
M  V30 3537 N 344.397 -0.483516 -1.5 0
M  V30 3538 C 345.327 0.293829 -2.31644 0
M  V30 3539 C 346.308 0.978864 -1.39112 0
M  V30 3540 O 347.493 0.973644 -1.68029 0
M  V30 3541 C 344.623 1.36897 -3.19181 0
M  V30 3542 C 343.577 0.804833 -4.20365 0
M  V30 3543 C 342.903 1.9792 -4.96721 0
M  V30 3544 C 344.203 -0.192313 -5.21946 0
M  V30 3545 H 345.897 -0.387616 -2.9688 0
M  V30 3546 H 343.443 -0.187856 -1.42769 0
M  V30 3547 H 345.396 1.92037 -3.751 0
M  V30 3548 H 344.12 2.07936 -2.51853 0
M  V30 3549 H 342.779 0.275319 -3.65565 0
M  V30 3550 H 342.427 2.67686 -4.25856 0
M  V30 3551 H 342.127 1.60789 -5.65173 0
M  V30 3552 H 343.651 2.53526 -5.55479 0
M  V30 3553 H 345.065 0.270333 -5.72662 0
M  V30 3554 H 343.462 -0.478543 -5.98189 0
M  V30 3555 H 344.532 -1.11409 -4.71928 0
M  V30 3556 N 345.875 1.56104 -0.216619 0
M  V30 3557 C 346.805 2.23063 0.690296 0
M  V30 3558 C 347.786 1.20072 1.20485 0
M  V30 3559 O 348.971 1.48643 1.24976 0
M  V30 3560 C 346.101 2.90672 1.90072 0
M  V30 3561 C 345.055 4.00092 1.5202 0
M  V30 3562 C 344.381 4.54972 2.80899 0
M  V30 3563 C 345.681 5.17398 0.71391 0
M  V30 3564 H 347.375 2.99109 0.132038 0
M  V30 3565 H 344.921 1.43866 0.0620664 0
M  V30 3566 H 346.874 3.36204 2.54057 0
M  V30 3567 H 345.598 2.12066 2.48386 0
M  V30 3568 H 344.257 3.55283 0.903839 0
M  V30 3569 H 343.905 3.73102 3.37348 0
M  V30 3570 H 343.605 5.28817 2.56176 0
M  V30 3571 H 345.129 5.0322 3.45836 0
M  V30 3572 H 346.543 5.59342 1.25735 0
M  V30 3573 H 344.94 5.97444 0.563951 0
M  V30 3574 H 346.01 4.84088 -0.280527 0
M  V30 3575 N 347.353 -0.0568162 1.57498 0
M  V30 3576 C 348.263 -1.08346 2.08083 0
M  V30 3577 C 349.279 -1.41439 1.01346 0
M  V30 3578 O 350.455 -1.51316 1.32912 0
M  V30 3579 C 347.52 -2.37352 2.52715 0
M  V30 3580 C 346.581 -2.11093 3.73816 0
M  V30 3581 C 345.814 -3.33949 4.1631 0
M  V30 3582 O 346.037 -4.43622 3.58547 0
M  V30 3583 O 344.971 -3.21279 5.08983 0
M  V30 3584 H 348.797 -0.683667 2.95905 0
M  V30 3585 H 346.382 -0.271965 1.46904 0
M  V30 3586 H 348.264 -3.13246 2.81877 0
M  V30 3587 H 346.939 -2.76681 1.68016 0
M  V30 3588 H 345.846 -1.32856 3.49714 0
M  V30 3589 H 347.179 -1.76637 4.59413 0
M  V30 3590 N 348.832 -1.54138 -0.328536 0
M  V30 3591 C 349.779 -1.83176 -1.40411 0
M  V30 3592 C 350.749 -0.678494 -1.5161 0
M  V30 3593 O 351.934 -0.92443 -1.6691 0
M  V30 3594 C 349.074 -2.06035 -2.76846 0
M  V30 3595 C 348.187 -3.33727 -2.74318 0
M  V30 3596 C 347.322 -3.46574 -4.02567 0
M  V30 3597 C 346.361 -4.68159 -3.94327 0
M  V30 3598 N 345.498 -4.77959 -5.14296 0
M  V30 3599 H 350.338 -2.74938 -1.14948 0
M  V30 3600 H 347.875 -1.36166 -0.556538 0
M  V30 3601 H 349.833 -2.1728 -3.56153 0
M  V30 3602 H 348.463 -1.1757 -3.00628 0
M  V30 3603 H 347.515 -3.31246 -1.8703 0
M  V30 3604 H 348.827 -4.23139 -2.64111 0
M  V30 3605 H 347.981 -3.57333 -4.90304 0
M  V30 3606 H 346.72 -2.55245 -4.15574 0
M  V30 3607 H 345.725 -4.57461 -3.04974 0
M  V30 3608 H 346.95 -5.60868 -3.82889 0
M  V30 3609 H 344.896 -3.89544 -5.27818 0
M  V30 3610 H 344.813 -5.6133 -5.06404 0
M  V30 3611 H 346.081 -4.93044 -6.03761 0
M  V30 3612 N 350.31 0.590341 -1.46126 0
M  V30 3613 C 351.556 1.35082 -1.51264 0
M  V30 3614 C 351.889 1.93534 -0.160711 0
M  V30 3615 O 351.164 1.76045 0.826956 0
M  V30 3616 C 351.447 2.48588 -2.6053 0
M  V30 3617 C 351.3 1.95221 -4.05227 0
M  V30 3618 C 352.619 3.50662 -2.6594 0
M  V30 3619 H 349.738 0.489803 -0.550692 0
M  V30 3620 H 352.38 0.663887 -1.78024 0
M  V30 3621 H 350.53 3.07186 -2.37843 0
M  V30 3622 H 352.202 1.41139 -4.39178 0
M  V30 3623 H 350.445 1.26101 -4.15068 0
M  V30 3624 H 351.116 2.77121 -4.77397 0
M  V30 3625 H 353.592 3.01934 -2.86313 0
M  V30 3626 H 352.468 4.27551 -3.44226 0
M  V30 3627 H 352.729 4.07399 -1.71694 0
M  V30 3628 N 351.788 1.33704 0.83433 0
M  V30 3629 C 353.037 1.24763 1.58484 0
M  V30 3630 C 353.35 -0.183775 1.94735 0
M  V30 3631 O 354.556 -0.395234 2.68608 0
M  V30 3632 C 353.012 2.18638 2.85876 0
M  V30 3633 C 352.62 3.66974 2.56971 0
M  V30 3634 C 354.364 2.18581 3.63899 0
M  V30 3635 C 352.271 4.5275 3.80488 0
M  V30 3636 H 351.201 0.463425 0.594772 0
M  V30 3637 H 353.852 1.58797 0.919551 0
M  V30 3638 H 352.234 1.77542 3.5397 0
M  V30 3639 H 353.408 4.16538 1.9706 0
M  V30 3640 H 351.723 3.69366 1.92244 0
M  V30 3641 H 354.32 2.79894 4.55591 0
M  V30 3642 H 354.663 1.18207 3.99165 0
M  V30 3643 H 355.196 2.58062 3.02735 0
M  V30 3644 H 351.935 5.54017 3.5035 0
M  V30 3645 H 351.455 4.07927 4.39722 0
M  V30 3646 H 353.134 4.66784 4.4802 0
M  V30 3647 N 353.266 -1.05314 1.17247 0
M  V30 3648 C 354.514 -1.77941 0.958194 0
M  V30 3649 C 354.835 -1.88089 -0.514556 0
M  V30 3650 O 354.105 -1.39676 -1.37359 0
M  V30 3651 H 352.685 -0.659116 0.351533 0
M  V30 3652 H 355.347 -1.27166 1.47699 0
M  V30 3653 H 354.443 -2.79663 1.38546 0
M  V30 3654 N 354.744 -0.972509 -1.24016 0
M  V30 3655 C 355.707 -0.511403 -2.23422 0
M  V30 3656 C 356.707 0.394679 -1.55881 0
M  V30 3657 O 357.897 0.189469 -1.73167 0
M  V30 3658 C 355.029 0.258769 -3.39916 0
M  V30 3659 H 356.222 -1.39024 -2.6573 0
M  V30 3660 H 353.775 -0.757585 -1.36713 0
M  V30 3661 H 354.51 1.1545 -3.03054 0
M  V30 3662 H 354.295 -0.391522 -3.9014 0
M  V30 3663 H 355.785 0.570244 -4.13688 0
M  V30 3664 N 356.222 1.38976 -0.743202 0
M  V30 3665 C 357.47 1.99948 -0.29417 0
M  V30 3666 C 357.791 1.59279 1.12495 0
M  V30 3667 O 357.061 0.844808 1.76748 0
M  V30 3668 H 355.641 0.739473 -0.105774 0
M  V30 3669 H 358.303 1.699 -0.954986 0
M  V30 3670 H 357.399 3.10142 -0.349056 0
M  V30 3671 N 357.7 0.491464 1.49741 0
M  V30 3672 C 358.647 -0.292027 2.28945 0
M  V30 3673 C 359.617 -0.968973 1.34908 0
M  V30 3674 O 360.802 -0.97748 1.6386 0
M  V30 3675 C 357.942 -1.35617 3.17336 0
M  V30 3676 C 357.055 -0.691957 4.26422 0
M  V30 3677 C 356.19 -1.73572 5.02042 0
M  V30 3678 C 355.229 -1.05286 6.02977 0
M  V30 3679 N 354.366 -2.0404 6.71798 0
M  V30 3680 H 359.206 0.389654 2.95442 0
M  V30 3681 H 356.743 0.204003 1.45679 0
M  V30 3682 H 358.701 -1.98502 3.66951 0
M  V30 3683 H 357.331 -2.00674 2.52844 0
M  V30 3684 H 356.383 0.0499523 3.80367 0
M  V30 3685 H 357.695 -0.153946 4.98562 0
M  V30 3686 H 356.849 -2.43987 5.55478 0
M  V30 3687 H 355.588 -2.30757 4.29654 0
M  V30 3688 H 354.593 -0.334446 5.48782 0
M  V30 3689 H 355.818 -0.487636 6.77347 0
M  V30 3690 H 353.764 -2.60205 6.02187 0
M  V30 3691 H 353.681 -1.55279 7.39881 0
M  V30 3692 H 354.949 -2.73772 7.29842 0
M  V30 3693 N 359.178 -1.55987 0.224894 0
M  V30 3694 C 360.589 -1.84553 -0.282345 0
M  V30 3695 C 360.94 -1.14634 -1.59227 0
M  V30 3696 O 360.065 -0.417155 -2.12341 0
M  V30 3697 C 360.66 -3.348 -0.519062 0
M  V30 3698 C 359.219 -3.63671 -0.970604 0
M  V30 3699 C 358.366 -2.77277 -0.0355261 0
M  V30 3700 H 361.317 -1.52245 0.448006 0
M  V30 3701 H 361.338 -3.55187 -1.36463 0
M  V30 3702 H 360.85 -3.8566 0.43449 0
M  V30 3703 H 358.951 -3.1827 -1.9374 0
M  V30 3704 H 359.064 -4.71631 -0.842698 0
M  V30 3705 H 357.428 -2.48846 -0.542927 0
M  V30 3706 H 358.211 -3.30937 0.913003 0
M  V30 3707 N 360.656 0.0484629 -1.57525 0
M  V30 3708 C 361.586 1.0549 -2.08313 0
M  V30 3709 C 362.567 1.38929 -0.981463 0
M  V30 3710 O 363.752 1.48151 -1.25558 0
M  V30 3711 C 360.882 2.36162 -2.54646 0
M  V30 3712 C 359.836 2.17016 -3.68901 0
M  V30 3713 C 359.162 3.53278 -4.01371 0
M  V30 3714 C 360.462 1.57219 -4.98076 0
M  V30 3715 H 362.156 0.632195 -2.92649 0
M  V30 3716 H 359.702 0.302654 -1.40784 0
M  V30 3717 H 361.655 3.06882 -2.88793 0
M  V30 3718 H 360.379 2.80456 -1.67368 0
M  V30 3719 H 359.038 1.48733 -3.35073 0
M  V30 3720 H 358.686 3.95185 -3.11188 0
M  V30 3721 H 358.386 3.41299 -4.78318 0
M  V30 3722 H 359.91 4.25391 -4.38035 0
M  V30 3723 H 361.324 2.17832 -5.30304 0
M  V30 3724 H 359.721 1.55871 -5.79503 0
M  V30 3725 H 360.791 0.535956 -4.81929 0
M  V30 3726 N 362.134 1.5431 0.320358 0
M  V30 3727 C 363.064 1.86912 1.3995 0
M  V30 3728 C 364.045 0.726211 1.53819 0
M  V30 3729 O 365.23 0.980233 1.67646 0
M  V30 3730 C 362.36 2.09932 2.7667 0
M  V30 3731 C 361.314 3.25776 2.77586 0
M  V30 3732 C 360.64 3.34173 4.17412 0
M  V30 3733 C 361.94 4.6335 2.41048 0
M  V30 3734 H 363.634 2.77292 1.12914 0
M  V30 3735 H 361.18 1.33421 0.541738 0
M  V30 3736 H 363.133 2.31324 3.52232 0
M  V30 3737 H 361.857 1.16304 3.0519 0
M  V30 3738 H 360.516 3.04276 2.04479 0
M  V30 3739 H 360.164 2.38098 4.43078 0
M  V30 3740 H 359.864 4.12033 4.18931 0
M  V30 3741 H 361.388 3.57803 4.94782 0
M  V30 3742 H 362.802 4.84602 3.06324 0
M  V30 3743 H 361.199 5.43782 2.53813 0
M  V30 3744 H 362.269 4.65381 1.36193 0
M  V30 3745 N 363.613 -0.582584 1.46437 0
M  V30 3746 C 364.862 -1.337 1.5102 0
M  V30 3747 C 365.175 -1.94891 0.166359 0
M  V30 3748 O 366.381 -2.71351 0.0899954 0
M  V30 3749 C 364.837 -2.42315 2.66104 0
M  V30 3750 C 364.445 -1.87427 4.06909 0
M  V30 3751 C 366.189 -3.19099 2.79958 0
M  V30 3752 C 364.096 -2.93672 5.13333 0
M  V30 3753 H 363.026 -0.502619 0.562041 0
M  V30 3754 H 365.677 -0.621701 1.72647 0
M  V30 3755 H 364.059 -3.16645 2.37807 0
M  V30 3756 H 365.233 -1.19639 4.44998 0
M  V30 3757 H 363.548 -1.2331 3.97723 0
M  V30 3758 H 366.145 -3.9839 3.56636 0
M  V30 3759 H 366.488 -3.71695 1.87479 0
M  V30 3760 H 367.021 -2.51875 3.07902 0
M  V30 3761 H 363.76 -2.45962 6.07604 0
M  V30 3762 H 363.28 -3.59948 4.79789 0
M  V30 3763 H 364.959 -3.5762 5.39182 0
M  V30 3764 N 365.091 -1.34144 -0.827227 0
M  V30 3765 C 366.34 -1.25602 -1.5782 0
M  V30 3766 C 366.653 0.173445 -1.94829 0
M  V30 3767 O 367.859 0.380984 -2.68814 0
M  V30 3768 C 366.315 -2.20151 -2.84713 0
M  V30 3769 C 365.923 -3.68331 -2.55021 0
M  V30 3770 C 367.667 -2.20508 -3.62735 0
M  V30 3771 C 365.574 -4.54762 -3.78082 0
M  V30 3772 H 364.504 -0.466573 -0.592306 0
M  V30 3773 H 367.155 -1.59283 -0.911116 0
M  V30 3774 H 365.537 -1.79417 -3.53023 0
M  V30 3775 H 366.711 -4.17577 -1.94849 0
M  V30 3776 H 365.026 -3.7038 -1.90283 0
M  V30 3777 H 367.623 -2.82306 -4.54101 0
M  V30 3778 H 367.966 -1.20322 -3.98533 0
M  V30 3779 H 368.499 -2.59664 -3.01362 0
M  V30 3780 H 365.238 -5.55867 -3.47407 0
M  V30 3781 H 364.758 -4.10254 -4.37552 0
M  V30 3782 H 366.437 -4.69153 -4.45538 0
M  V30 3783 N 366.569 1.04691 -1.17803 0
M  V30 3784 C 367.532 2.10724 -0.901545 0
M  V30 3785 C 368.532 1.6042 0.110437 0
M  V30 3786 O 369.722 1.7377 -0.122303 0
M  V30 3787 C 366.854 3.39084 -0.351409 0
M  V30 3788 H 368.047 2.36686 -1.84174 0
M  V30 3789 H 365.6 1.21015 -0.98919 0
M  V30 3790 H 366.335 3.18782 0.59569 0
M  V30 3791 H 366.12 3.76909 -1.08083 0
M  V30 3792 H 367.61 4.17227 -0.176451 0
M  V30 3793 N 368.047 0.979072 1.23499 0
M  V30 3794 C 368.957 0.526431 2.28617 0
M  V30 3795 C 369.973 -0.418126 1.68901 0
M  V30 3796 O 371.149 -0.288372 1.99325 0
M  V30 3797 C 368.214 -0.165235 3.46306 0
M  V30 3798 C 367.275 0.82056 4.21385 0
M  V30 3799 C 366.508 0.161807 5.33455 0
M  V30 3800 O 366.731 -1.04742 5.60701 0
M  V30 3801 O 365.665 0.859708 5.95729 0
M  V30 3802 H 369.491 1.4006 2.69475 0
M  V30 3803 H 367.076 0.746643 1.29405 0
M  V30 3804 H 368.958 -0.553287 4.17752 0
M  V30 3805 H 367.633 -1.01419 3.07402 0
M  V30 3806 H 366.54 1.25929 3.52268 0
M  V30 3807 H 367.873 1.63828 4.64135 0
M  V30 3808 N 369.525 -1.3858 0.750561 0
M  V30 3809 C 370.802 -1.94231 0.231009 0
M  V30 3810 C 371.182 -1.68611 -1.27018 0
M  V30 3811 O 370.53 -1.02296 -2.04323 0
M  V30 3812 C 370.74 -3.44123 0.581428 0
M  V30 3813 C 372.088 -4.2116 0.539389 0
M  V30 3814 O 373.112 -3.52391 0.519541 0
M  V30 3815 O 371.971 -5.43749 0.54765 0
M  V30 3816 H 369.065 -0.825639 0.0474263 0
M  V30 3817 H 371.611 -1.4799 0.830478 0
M  V30 3818 H 370.383 -3.56267 1.61833 0
M  V30 3819 H 370.006 -3.97573 -0.0462047 0
M  V30 3820 N 371.003 -0.499398 -1.49478 0
M  V30 3821 C 372.249 0.0457576 -2.02748 0
M  V30 3822 C 372.582 1.36793 -1.37846 0
M  V30 3823 O 371.857 1.87596 -0.513601 0
M  V30 3824 C 372.14 0.199986 -3.59544 0
M  V30 3825 C 371.993 -1.1452 -4.34977 0
M  V30 3826 C 373.312 0.94137 -4.29914 0
M  V30 3827 H 370.431 0.0151552 -0.736844 0
M  V30 3828 H 373.073 -0.650498 -1.78518 0
M  V30 3829 H 371.223 0.793007 -3.8032 0
M  V30 3830 H 372.895 -1.77697 -4.25701 0
M  V30 3831 H 371.138 -1.73488 -3.97598 0
M  V30 3832 H 371.809 -0.990607 -5.43039 0
M  V30 3833 H 374.285 0.43844 -4.13784 0
M  V30 3834 H 373.161 1.01812 -5.39375 0
M  V30 3835 H 373.422 1.98471 -3.95046 0
M  V30 3836 N 372.481 1.55866 -0.233164 0
M  V30 3837 C 373.391 2.24431 0.683217 0
M  V30 3838 C 374.407 1.2558 1.2044 0
M  V30 3839 O 375.583 1.58422 1.24356 0
M  V30 3840 C 372.648 2.91979 1.86947 0
M  V30 3841 C 371.709 4.06204 1.38912 0
M  V30 3842 C 370.942 4.70522 2.51883 0
M  V30 3843 O 371.165 4.33865 3.70293 0
M  V30 3844 O 370.099 5.59296 2.22423 0
M  V30 3845 H 373.925 3.03426 0.129059 0
M  V30 3846 H 371.51 1.494 -0.0022283 0
M  V30 3847 H 373.392 3.34573 2.56201 0
M  V30 3848 H 372.067 2.15935 2.41151 0
M  V30 3849 H 370.974 3.68155 0.664259 0
M  V30 3850 H 372.307 4.84025 0.893328 0
M  V30 3851 N 373.959 -0.0401083 1.57549 0
M  V30 3852 C 375.207 -0.731677 1.8839 0
M  V30 3853 C 375.528 -1.76481 0.829425 0
M  V30 3854 O 374.798 -1.95411 -0.1383 0
M  V30 3855 H 373.378 -0.273225 0.695239 0
M  V30 3856 H 376.04 -0.00867725 1.94898 0
M  V30 3857 H 375.136 -1.22816 2.86919 0
M  V30 3858 N 375.437 -1.54477 -0.31217 0
M  V30 3859 C 376.347 -1.87695 -1.4074 0
M  V30 3860 C 377.363 -0.769975 -1.56036 0
M  V30 3861 O 378.539 -1.06537 -1.70915 0
M  V30 3862 C 375.604 -2.10755 -2.75287 0
M  V30 3863 C 374.665 -3.34514 -2.69071 0
M  V30 3864 C 373.898 -3.56465 -3.97201 0
M  V30 3865 O 374.121 -2.81637 -4.96021 0
M  V30 3866 O 373.055 -4.49964 -3.9977 0
M  V30 3867 H 376.881 -2.80849 -1.15574 0
M  V30 3868 H 374.466 -1.40526 -0.507228 0
M  V30 3869 H 376.348 -2.27188 -3.54913 0
M  V30 3870 H 375.023 -1.20788 -3.0032 0
M  V30 3871 H 373.93 -3.23456 -1.87955 0
M  V30 3872 H 375.263 -4.24575 -2.48992 0
M  V30 3873 N 376.915 0.57481 -1.46744 0
M  V30 3874 C 377.878 1.66533 -1.57478 0
M  V30 3875 C 378.878 1.54338 -0.451263 0
M  V30 3876 O 380.068 1.58814 -0.715813 0
M  V30 3877 C 377.2 3.05999 -1.50259 0
M  V30 3878 H 378.393 1.58372 -2.54673 0
M  V30 3879 H 375.946 0.793301 -1.34672 0
M  V30 3880 H 376.681 3.19709 -0.543725 0
M  V30 3881 H 376.466 3.16259 -2.31781 0
M  V30 3882 H 377.956 3.8537 -1.60872 0
M  V30 3883 N 378.394 1.34581 0.820102 0
M  V30 3884 C 379.324 1.29038 1.94606 0
M  V30 3885 C 380.305 0.1673 1.69275 0
M  V30 3886 O 381.49 0.360112 1.90832 0
M  V30 3887 C 378.62 1.04793 3.31113 0
M  V30 3888 C 377.574 2.13597 3.70891 0
M  V30 3889 C 376.9 1.74537 5.05412 0
M  V30 3890 C 378.2 3.55451 3.8269 0
M  V30 3891 H 379.894 2.23248 1.99501 0
M  V30 3892 H 377.44 1.0747 0.958449 0
M  V30 3893 H 379.393 0.995592 4.0947 0
M  V30 3894 H 378.117 0.0702565 3.26524 0
M  V30 3895 H 376.776 2.17905 2.9481 0
M  V30 3896 H 376.424 0.754226 4.97313 0
M  V30 3897 H 376.124 2.47361 5.32997 0
M  V30 3898 H 377.648 1.70803 5.86224 0
M  V30 3899 H 379.062 3.5354 4.51312 0
M  V30 3900 H 377.459 4.26922 4.21732 0
M  V30 3901 H 378.529 3.92587 2.84611 0
M  V30 3902 N 379.872 -1.04064 1.18357 0
M  V30 3903 C 381.097 -1.81454 1.00445 0
M  V30 3904 C 381.522 -1.82823 -0.442423 0
M  V30 3905 O 380.88 -1.24555 -1.31741 0
M  V30 3906 C 380.928 -3.24925 1.56384 0
M  V30 3907 O 380.032 -4.04856 0.785209 0
M  V30 3908 H 379.373 -0.560604 0.355835 0
M  V30 3909 H 381.903 -1.31059 1.57114 0
M  V30 3910 H 381.913 -3.75702 1.59097 0
M  V30 3911 H 380.588 -3.23244 2.61699 0
M  V30 3912 H 379.165 -3.63537 0.830399 0
M  V30 3913 N 381.35 -0.985608 -1.22978 0
M  V30 3914 C 382.578 -0.675582 -1.95559 0
M  V30 3915 C 382.993 0.758413 -1.72897 0
M  V30 3916 O 382.35 1.51094 -1.02357 0
M  V30 3917 C 382.401 -0.96293 -3.48439 0
M  V30 3918 O 382.122 -2.34057 -3.70336 0
M  V30 3919 C 383.623 -0.669585 -4.38214 0
M  V30 3920 H 380.843 -0.250523 -0.622478 0
M  V30 3921 H 383.387 -1.3184 -1.56328 0
M  V30 3922 H 381.542 -0.366033 -3.85667 0
M  V30 3923 H 381.956 -2.43424 -4.64591 0
M  V30 3924 H 383.43 -0.920967 -5.44263 0
M  V30 3925 H 383.907 0.396383 -4.37408 0
M  V30 3926 H 384.513 -1.2472 -4.06602 0
M  V30 3927 N 382.828 1.3818 -0.7579 0
M  V30 3928 C 383.758 2.33027 -0.148597 0
M  V30 3929 C 384.739 1.55085 0.69875 0
M  V30 3930 O 385.924 1.83384 0.639053 0
M  V30 3931 C 383.054 3.3928 0.742034 0
M  V30 3932 C 382.008 4.28 -0.00291946 0
M  V30 3933 C 381.334 5.25146 1.00625 0
M  V30 3934 C 382.634 5.08938 -1.17385 0
M  V30 3935 H 384.328 2.84231 -0.940909 0
M  V30 3936 H 381.874 1.36659 -0.453908 0
M  V30 3937 H 383.827 4.046 1.17799 0
M  V30 3938 H 382.551 2.86569 1.56671 0
M  V30 3939 H 381.21 3.64192 -0.419504 0
M  V30 3940 H 380.858 4.68721 1.8251 0
M  V30 3941 H 380.558 5.85361 0.512428 0
M  V30 3942 H 382.082 5.93342 1.44143 0
M  V30 3943 H 383.496 5.67474 -0.815224 0
M  V30 3944 H 381.893 5.7841 -1.59882 0
M  V30 3945 H 382.963 4.42424 -1.98468 0
M  V30 3946 N 384.306 0.507319 1.49211 0
M  V30 3947 C 385.552 -0.0350047 2.0277 0
M  V30 3948 C 385.885 -1.3606 1.38569 0
M  V30 3949 O 385.16 -1.87321 0.523542 0
M  V30 3950 C 385.443 -0.180916 3.59645 0
M  V30 3951 C 385.296 1.16825 4.34364 0
M  V30 3952 C 386.615 -0.918558 4.30407 0
M  V30 3953 H 383.734 -0.0112473 0.736914 0
M  V30 3954 H 386.376 0.659956 1.7817 0
M  V30 3955 H 384.526 -0.772826 3.80736 0
M  V30 3956 H 386.198 1.79952 4.24753 0
M  V30 3957 H 384.441 1.75594 3.96673 0
M  V30 3958 H 385.112 1.01939 5.42506 0
M  V30 3959 H 387.588 -0.41649 4.1401 0
M  V30 3960 H 386.464 -0.989505 5.39907 0
M  V30 3961 H 386.725 -1.96373 3.96093 0
M  V30 3962 N 385.784 -1.5574 0.241426 0
M  V30 3963 C 387.03 -1.99104 -0.385406 0
M  V30 3964 C 387.363 -1.1293 -1.57988 0
M  V30 3965 O 386.638 -0.191449 -1.93555 0
M  V30 3966 C 386.921 -3.51087 -0.800616 0
M  V30 3967 C 386.774 -4.48028 0.398874 0
M  V30 3968 C 388.093 -4.08015 -1.64959 0
M  V30 3969 H 385.212 -0.723848 -0.138614 0
M  V30 3970 H 387.854 -1.86903 0.341642 0
M  V30 3971 H 386.004 -3.61615 -1.4201 0
M  V30 3972 H 387.676 -4.49487 1.03726 0
M  V30 3973 H 385.919 -4.21077 1.04293 0
M  V30 3974 H 386.59 -5.51962 0.0651056 0
M  V30 3975 H 389.066 -4.00555 -1.12672 0
M  V30 3976 H 387.942 -5.14635 -1.90898 0
M  V30 3977 H 388.203 -3.56131 -2.61961 0
M  V30 3978 N 387.262 0.0317525 -1.57568 0
M  V30 3979 C 388.21 1.05165 -2.07468 0
M  V30 3980 C 389.204 1.3761 -0.98792 0
M  V30 3981 O 390.41 1.36546 -1.17282 0
M  V30 3982 H 386.785 0.35666 -0.66204 0
M  V30 3983 H 388.756 0.604958 -2.92203 0
M  V30 3984 C 387.505 2.34488 -2.56731 0
M  V30 3985 H 386.828 2.10383 -3.39969 0
M  V30 3986 H 388.268 3.04203 -2.95358 0
M  V30 3987 C 386.727 3.03266 -1.46736 0
M  V30 3988 O 387.257 3.92988 -0.832069 0
M  V30 3989 N 385.463 2.6455 -1.20256 0
M  V30 3990 H 385.01 1.91674 -1.72102 0
M  V30 3991 H 384.968 3.10886 -0.468737 0
M  V30 3992 N 388.74 1.54641 0.303973 0
M  V30 3993 C 389.687 1.85386 1.37479 0
M  V30 3994 C 390.657 0.702528 1.50512 0
M  V30 3995 O 391.842 0.950867 1.65418 0
M  V30 3996 C 388.982 2.10413 2.73533 0
M  V30 3997 C 388.095 3.38049 2.68974 0
M  V30 3998 C 387.23 3.52934 3.97002 0
M  V30 3999 C 386.269 4.74373 3.86829 0
M  V30 4000 N 385.406 4.8608 5.06627 0
M  V30 4001 H 390.246 2.76732 1.1056 0
M  V30 4002 H 387.783 1.37034 0.534805 0
M  V30 4003 H 389.741 2.22919 3.52652 0
M  V30 4004 H 388.371 1.22338 2.98719 0
M  V30 4005 H 387.423 3.3418 1.81736 0
M  V30 4006 H 388.735 4.27288 2.57346 0
M  V30 4007 H 387.889 3.65088 4.84557 0
M  V30 4008 H 386.628 2.61824 4.1146 0
M  V30 4009 H 385.633 4.62255 2.97658 0
M  V30 4010 H 386.858 5.66888 3.73918 0
M  V30 4011 H 384.804 3.97891 5.21554 0
M  V30 4012 H 384.721 5.69315 4.9741 0
M  V30 4013 H 385.989 5.02587 5.95841 0
M  V30 4014 N 390.218 -0.567019 1.47046 0
M  V30 4015 C 391.467 -1.32091 1.5243 0
M  V30 4016 C 391.78 -1.94704 0.187021 0
M  V30 4017 O 392.986 -2.7124 0.118771 0
M  V30 4018 C 391.442 -2.39479 2.68659 0
M  V30 4019 C 391.05 -1.831 4.08874 0
M  V30 4020 C 392.794 -3.16111 2.83327 0
M  V30 4021 C 390.701 -2.8821 5.16419 0
M  V30 4022 H 389.631 -0.496629 0.56734 0
M  V30 4023 H 392.282 -0.603354 1.73297 0
M  V30 4024 H 390.664 -3.14105 2.41152 0
M  V30 4025 H 391.838 -1.14913 4.46242 0
M  V30 4026 H 390.153 -1.19085 3.99008 0
M  V30 4027 H 392.75 -3.94585 3.60842 0
M  V30 4028 H 393.093 -3.69686 1.91411 0
M  V30 4029 H 393.626 -2.48595 3.10556 0
M  V30 4030 H 390.365 -2.39504 6.10179 0
M  V30 4031 H 389.885 -3.54839 4.8358 0
M  V30 4032 H 391.564 -3.51881 5.42945 0
M  V30 4033 N 391.696 -1.35014 -0.812953 0
M  V30 4034 C 393.112 -1.14914 -1.10757 0
M  V30 4035 C 393.312 0.0426818 -2.01455 0
M  V30 4036 O 392.368 0.715212 -2.42159 0
M  V30 4037 C 393.681 -2.44911 -1.74468 0
M  V30 4038 C 395.229 -2.5106 -1.86917 0
M  V30 4039 C 395.704 -3.81085 -2.54044 0
M  V30 4040 N 397.195 -3.82301 -2.61535 0
M  V30 4041 C 397.93 -4.79634 -3.14227 0
M  V30 4042 N 397.426 -5.87353 -3.67407 0
M  V30 4043 N 399.219 -4.67078 -3.12721 0
M  V30 4044 H 391.37 -2.1136 -0.20989 0
M  V30 4045 H 393.633 -0.935128 -0.155692 0
M  V30 4046 H 393.339 -3.32267 -1.15289 0
M  V30 4047 H 393.213 -2.58989 -2.74234 0
M  V30 4048 H 395.6 -1.64137 -2.45241 0
M  V30 4049 H 395.681 -2.40901 -0.860242 0
M  V30 4050 H 395.325 -4.68402 -1.96372 0
M  V30 4051 H 395.255 -3.88529 -3.55461 0
M  V30 4052 H 397.746 -3.04465 -2.23851 0
M  V30 4053 H 398.059 -6.57624 -4.05894 0
M  V30 4054 H 396.404 -5.91054 -3.65623 0
M  V30 4055 H 399.595 -3.82067 -2.70449 0
M  V30 4056 H 399.768 -5.43098 -3.53481 0
M  V30 4057 N 393.175 1.03435 -1.18907 0
M  V30 4058 C 394.423 1.76394 -0.986382 0
M  V30 4059 C 394.744 1.88883 0.484567 0
M  V30 4060 O 394.014 1.41843 1.3512 0
M  V30 4061 H 392.594 0.65344 -0.361975 0
M  V30 4062 H 395.256 1.248 -1.49703 0
M  V30 4063 H 394.352 2.77424 -1.42978 0
M  V30 4064 N 394.653 0.992116 1.22453 0
M  V30 4065 C 395.881 0.685944 1.95198 0
M  V30 4066 C 396.296 -0.749233 1.73297 0
M  V30 4067 O 395.653 -1.50549 1.03156 0
M  V30 4068 C 395.704 0.981395 3.47924 0
M  V30 4069 O 395.425 2.36018 3.6909 0
M  V30 4070 C 396.926 0.692815 4.37853 0
M  V30 4071 H 394.146 0.253821 0.621141 0
M  V30 4072 H 396.69 1.32668 1.55626 0
M  V30 4073 H 394.845 0.386481 3.85467 0
M  V30 4074 H 395.259 2.45884 4.63294 0
M  V30 4075 H 396.733 0.949818 5.43767 0
M  V30 4076 H 397.21 -0.373181 4.37612 0
M  V30 4077 H 397.816 1.26874 4.05935 0
M  V30 4078 N 396.131 -1.37776 0.765217 0
M  V30 4079 C 397.378 -1.99849 0.326588 0
M  V30 4080 C 397.706 -1.60746 -1.09504 0
M  V30 4081 O 396.961 -0.84202 -1.76659 0
M  V30 4082 C 397.26 -3.5504 0.410053 0
M  V30 4083 C 396.926 -4.13891 1.78899 0
M  V30 4084 C 395.588 -4.29678 2.16635 0
M  V30 4085 C 397.94 -4.46236 2.69301 0
M  V30 4086 C 395.268 -4.7511 3.44221 0
M  V30 4087 C 397.62 -4.93089 3.9629 0
M  V30 4088 C 396.284 -5.07082 4.34078 0
M  V30 4089 H 395.554 -0.7313 0.119507 0
M  V30 4090 H 398.201 -1.64645 0.977968 0
M  V30 4091 H 396.506 -3.90451 -0.324878 0
M  V30 4092 H 398.203 -4.00966 0.0520699 0
M  V30 4093 H 394.793 -4.02026 1.48569 0
M  V30 4094 H 398.977 -4.3363 2.41409 0
M  V30 4095 H 394.233 -4.84129 3.73402 0
M  V30 4096 H 398.407 -5.17084 4.66472 0
M  V30 4097 H 396.034 -5.42046 5.33001 0
M  V30 4098 N 397.609 -0.515225 -1.4894 0
M  V30 4099 C 398.556 0.255567 -2.29381 0
M  V30 4100 C 399.526 0.947387 -1.36432 0
M  V30 4101 O 400.711 0.951288 -1.65394 0
M  V30 4102 C 397.851 1.30551 -3.19453 0
M  V30 4103 C 396.964 0.624029 -4.27469 0
M  V30 4104 C 396.099 1.65563 -5.0474 0
M  V30 4105 C 395.138 0.956802 -6.04576 0
M  V30 4106 N 394.275 1.93326 -6.74959 0
M  V30 4107 H 399.115 -0.436607 -2.94784 0
M  V30 4108 H 396.652 -0.227154 -1.45336 0
M  V30 4109 H 398.61 1.92639 -3.70062 0
M  V30 4110 H 397.24 1.96626 -2.56004 0
M  V30 4111 H 396.292 -0.110459 -3.8024 0
M  V30 4112 H 397.604 0.0746092 -4.98744 0
M  V30 4113 H 396.758 2.35119 -5.59289 0
M  V30 4114 H 395.497 2.23893 -4.3327 0
M  V30 4115 H 394.502 0.247097 -5.49244 0
M  V30 4116 H 395.727 0.379814 -6.78037 0
M  V30 4117 H 393.673 2.50591 -6.06251 0
M  V30 4118 H 393.59 1.43489 -7.42258 0
M  V30 4119 H 394.858 2.62126 -7.34105 0
M  V30 4120 N 399.087 1.5561 -0.249682 0
M  V30 4121 C 400.312 2.03865 0.381305 0
M  V30 4122 C 400.737 1.12769 1.50548 0
M  V30 4123 O 400.095 0.121189 1.80895 0
M  V30 4124 C 400.143 3.50101 0.863816 0
M  V30 4125 O 399.247 3.62132 1.97318 0
M  V30 4126 H 398.588 0.658827 0.0827194 0
M  V30 4127 H 401.118 2.01105 -0.376552 0
M  V30 4128 H 401.128 3.90975 1.1663 0
M  V30 4129 H 399.803 4.1588 0.0411816 0
M  V30 4130 H 398.38 3.33155 1.67517 0
M  V30 4131 N 400.565 -0.0233959 1.57583 0
M  V30 4132 C 401.811 -0.714119 1.89811 0
M  V30 4133 C 402.144 -1.74702 0.848113 0
M  V30 4134 O 401.419 -1.94023 -0.136135 0
M  V30 4135 C 401.702 -1.37853 3.32669 0
M  V30 4136 C 401.555 -0.358764 4.48367 0
M  V30 4137 C 402.874 -2.31101 3.7454 0
M  V30 4138 H 399.993 -0.25814 0.690314 0
M  V30 4139 H 402.635 0.0230927 1.89986 0
M  V30 4140 H 400.785 -2.00689 3.3265 0
M  V30 4141 H 402.457 0.268115 4.6052 0
M  V30 4142 H 400.7 0.321387 4.32608 0
M  V30 4143 H 401.371 -0.862242 5.45224 0
M  V30 4144 H 403.847 -1.78304 3.75961 0
M  V30 4145 H 402.723 -2.74567 4.75294 0
M  V30 4146 H 402.984 -3.18018 3.0711 0
M  V30 4147 N 402.043 -1.548 -0.295768 0
M  V30 4148 C 403.006 -1.85363 -1.34808 0
M  V30 4149 C 404.006 -0.726817 -1.43436 0
M  V30 4150 O 405.196 -0.995088 -1.42981 0
M  V30 4151 C 402.328 -2.03859 -2.73229 0
M  V30 4152 H 403.521 -2.7941 -1.08949 0
M  V30 4153 H 401.074 -1.46942 -0.532702 0
M  V30 4154 H 401.809 -1.12117 -3.04303 0
M  V30 4155 H 401.594 -2.8588 -2.68356 0
M  V30 4156 H 403.084 -2.28857 -3.49305 0
M  V30 4157 N 403.521 0.559213 -1.47345 0
M  V30 4158 C 404.767 1.31843 -1.54095 0
M  V30 4159 C 405.1 1.93149 -0.201726 0
M  V30 4160 O 404.375 1.77759 0.789428 0
M  V30 4161 C 404.658 2.43006 -2.65744 0
M  V30 4162 C 404.511 1.86581 -4.09277 0
M  V30 4163 C 405.83 3.44943 -2.73318 0
M  V30 4164 H 402.949 0.478012 -0.560957 0
M  V30 4165 H 405.591 0.625977 -1.79392 0
M  V30 4166 H 403.741 3.02072 -2.44305 0
M  V30 4167 H 405.413 1.31792 -4.42073 0
M  V30 4168 H 403.656 1.17268 -4.17649 0
M  V30 4169 H 404.327 2.66933 -4.83168 0
M  V30 4170 H 406.803 2.95793 -2.92653 0
M  V30 4171 H 405.679 4.20153 -3.53218 0
M  V30 4172 H 405.94 4.03665 -1.80296 0
M  V30 4173 N 404.999 1.35443 0.805782 0
M  V30 4174 C 405.946 1.28431 1.91766 0
M  V30 4175 C 406.916 0.156102 1.65365 0
M  V30 4176 O 408.101 0.339936 1.87747 0
M  V30 4177 C 405.241 1.06301 3.2832 0
M  V30 4178 C 404.354 2.2805 3.66902 0
M  V30 4179 C 403.489 1.99064 4.92491 0
M  V30 4180 C 402.528 3.16863 5.23703 0
M  V30 4181 N 401.665 2.87647 6.40471 0
M  V30 4182 H 406.505 2.23511 1.97096 0
M  V30 4183 H 404.042 1.11105 0.964054 0
M  V30 4184 H 406 0.915012 4.07042 0
M  V30 4185 H 404.63 0.148822 3.22457 0
M  V30 4186 H 403.682 2.53711 2.83434 0
M  V30 4187 H 404.994 3.1601 3.85927 0
M  V30 4188 H 404.148 1.81099 5.7904 0
M  V30 4189 H 402.887 1.0839 4.75503 0
M  V30 4190 H 401.892 3.35404 4.35642 0
M  V30 4191 H 403.117 4.08339 5.4262 0
M  V30 4192 H 401.063 1.99568 6.24907 0
M  V30 4193 H 400.98 3.69141 6.59751 0
M  V30 4194 H 402.248 2.73226 7.30047 0
M  V30 4195 N 406.477 -1.02803 1.19454 0
M  V30 4196 C 407.44 -2.09264 0.934955 0
M  V30 4197 C 408.44 -1.60576 -0.0849015 0
M  V30 4198 O 409.63 -1.73554 0.149933 0
M  V30 4199 C 406.762 -3.38482 0.40531 0
M  V30 4200 H 407.955 -2.33726 1.87916 0
M  V30 4201 H 405.508 -1.19426 1.00832 0
M  V30 4202 H 406.243 -3.19689 -0.544899 0
M  V30 4203 H 406.028 -3.75142 1.14065 0
M  V30 4204 H 407.518 -4.16894 0.242806 0
M  V30 4205 N 407.956 -0.998596 -1.21925 0
M  V30 4206 C 409.367 -0.711939 -1.72593 0
M  V30 4207 C 409.718 0.770842 -1.80423 0
M  V30 4208 O 408.843 1.60237 -1.4544 0
M  V30 4209 C 409.438 -1.28567 -3.13458 0
M  V30 4210 C 407.997 -1.04828 -3.61508 0
M  V30 4211 C 407.144 -1.4024 -2.39224 0
M  V30 4212 H 410.095 -1.17027 -1.07193 0
M  V30 4213 H 410.116 -0.667098 -3.74607 0
M  V30 4214 H 409.628 -2.36486 -3.07727 0
M  V30 4215 H 407.729 0.0140383 -3.72597 0
M  V30 4216 H 407.842 -1.71566 -4.47328 0
M  V30 4217 H 406.206 -0.821077 -2.41103 0
M  V30 4218 H 406.989 -2.49176 -2.36149 0
M  V30 4219 N 409.434 1.37368 -0.772513 0
M  V30 4220 C 410.682 1.99279 -0.336516 0
M  V30 4221 C 411.003 1.6163 1.09091 0
M  V30 4222 O 410.273 0.882109 1.74916 0
M  V30 4223 H 408.853 0.737063 -0.121435 0
M  V30 4224 H 411.515 1.67836 -0.990809 0
M  V30 4225 H 410.611 3.09332 -0.414763 0
M  V30 4226 N 410.912 0.523116 1.48665 0
M  V30 4227 C 412.159 -0.0134763 2.02496 0
M  V30 4228 C 412.487 -1.3493 1.40086 0
M  V30 4229 O 411.742 -1.88286 0.533567 0
M  V30 4230 C 412.041 -0.191671 3.56886 0
M  V30 4231 C 411.707 1.06893 4.38046 0
M  V30 4232 C 410.369 1.41443 4.59943 0
M  V30 4233 C 412.721 1.90584 4.85106 0
M  V30 4234 C 410.049 2.59594 5.26144 0
M  V30 4235 C 412.401 3.07907 5.52609 0
M  V30 4236 C 411.065 3.42811 5.72745 0
M  V30 4237 H 410.335 -0.00493133 0.740984 0
M  V30 4238 H 412.982 0.687751 1.78724 0
M  V30 4239 H 411.287 -0.97561 3.79459 0
M  V30 4240 H 412.984 -0.621659 3.96152 0
M  V30 4241 H 409.574 0.789848 4.21259 0
M  V30 4242 H 413.758 1.65203 4.67997 0
M  V30 4243 H 409.014 2.86847 5.39934 0
M  V30 4244 H 413.188 3.73066 5.88043 0
M  V30 4245 H 410.815 4.34462 6.23816 0
M  V30 4246 N 412.39 -1.55475 0.257931 0
M  V30 4247 C 413.638 -1.98813 -0.363009 0
M  V30 4248 C 413.959 -1.14757 -1.57657 0
M  V30 4249 O 413.229 -0.232956 -1.9451 0
M  V30 4250 H 411.809 -0.734308 -0.137113 0
M  V30 4251 H 414.471 -1.9156 0.359281 0
M  V30 4252 H 413.567 -3.04941 -0.664634 0
M  V30 4253 N 413.868 0.0150385 -1.57593 0
M  V30 4254 C 415.145 0.7392 -1.81094 0
M  V30 4255 C 415.525 1.92817 -0.859344 0
M  V30 4256 O 414.873 2.28301 0.095362 0
M  V30 4257 C 415.083 1.15907 -3.29191 0
M  V30 4258 C 416.431 1.56918 -3.9454 0
M  V30 4259 O 417.455 1.25328 -3.33424 0
M  V30 4260 O 416.314 2.15604 -5.02173 0
M  V30 4261 H 413.408 0.358631 -0.745193 0
M  V30 4262 H 415.954 -0.00926156 -1.69697 0
M  V30 4263 H 414.726 0.310921 -3.90063 0
M  V30 4264 H 414.349 1.96711 -3.45529 0
M  V30 4265 N 415.346 1.54954 0.287554 0
M  V30 4266 C 416.762 1.46469 0.633964 0
M  V30 4267 C 416.962 0.666865 1.90145 0
M  V30 4268 O 416.018 0.179906 2.51858 0
M  V30 4269 C 417.331 2.90556 0.774454 0
M  V30 4270 C 418.879 3.00681 0.869462 0
M  V30 4271 C 419.354 4.45993 1.04184 0
M  V30 4272 N 420.845 4.4976 1.10772 0
M  V30 4273 C 421.58 5.59393 1.25964 0
M  V30 4274 N 421.076 6.78923 1.37968 0
M  V30 4275 N 422.869 5.47107 1.28959 0
M  V30 4276 H 415.02 2.05288 -0.545041 0
M  V30 4277 H 417.283 0.930305 -0.182308 0
M  V30 4278 H 416.989 3.51594 -0.086207 0
M  V30 4279 H 416.863 3.38743 1.6593 0
M  V30 4280 H 419.25 2.39749 1.7206 0
M  V30 4281 H 419.331 2.55769 -0.0396831 0
M  V30 4282 H 418.975 5.07524 0.195422 0
M  V30 4283 H 418.905 4.88548 1.96542 0
M  V30 4284 H 421.396 3.63651 1.02794 0
M  V30 4285 H 421.709 7.58231 1.49353 0
M  V30 4286 H 420.054 6.81763 1.34999 0
M  V30 4287 H 423.245 4.52668 1.19202 0
M  V30 4288 H 423.418 6.32595 1.40455 0
M  V30 4289 N 416.824 -0.551391 1.4764 0
M  V30 4290 C 418.24 -0.877887 1.33287 0
M  V30 4291 C 418.44 -1.98817 0.327721 0
M  V30 4292 O 417.496 -2.51171 -0.258695 0
M  V30 4293 C 418.809 -1.26563 2.72768 0
M  V30 4294 C 420.357 -1.37673 2.81097 0
M  V30 4295 C 420.832 -1.79799 4.21232 0
M  V30 4296 N 422.323 -1.8694 4.23802 0
M  V30 4297 C 423.058 -2.20876 5.29151 0
M  V30 4298 N 422.554 -2.53386 6.448 0
M  V30 4299 N 424.347 -2.217 5.16532 0
M  V30 4300 H 416.498 0.18153 2.11623 0
M  V30 4301 H 418.761 0.0185514 0.947818 0
M  V30 4302 H 418.467 -0.523591 3.47781 0
M  V30 4303 H 418.341 -2.22052 3.04915 0
M  V30 4304 H 420.728 -2.10956 2.06353 0
M  V30 4305 H 420.809 -0.40357 2.52596 0
M  V30 4306 H 420.453 -1.07083 4.96483 0
M  V30 4307 H 420.383 -2.78128 4.4716 0
M  V30 4308 H 422.874 -1.64179 3.40373 0
M  V30 4309 H 423.187 -2.78325 7.20941 0
M  V30 4310 H 421.532 -2.50953 6.48111 0
M  V30 4311 H 424.723 -1.95745 4.25207 0
M  V30 4312 H 424.896 -2.47818 5.98741 0
M  V30 4313 N 418.302 -1.35869 -0.798587 0
M  V30 4314 C 419.249 -1.29446 -1.91082 0
M  V30 4315 C 420.219 -0.16487 -1.6528 0
M  V30 4316 O 421.404 -0.349888 -1.87564 0
M  V30 4317 C 418.544 -1.0804 -3.27752 0
M  V30 4318 C 417.657 -2.29993 -3.65687 0
M  V30 4319 C 416.792 -2.01673 -4.91428 0
M  V30 4320 C 415.831 -3.19636 -5.22015 0
M  V30 4321 N 414.968 -2.91039 -6.38937 0
M  V30 4322 H 419.808 -2.24553 -1.95907 0
M  V30 4323 H 417.345 -1.11615 -0.958148 0
M  V30 4324 H 419.303 -0.936586 -4.06551 0
M  V30 4325 H 417.933 -0.16592 -3.22373 0
M  V30 4326 H 416.985 -2.55211 -2.82085 0
M  V30 4327 H 418.297 -3.18052 -3.84245 0
M  V30 4328 H 417.451 -1.84168 -5.78072 0
M  V30 4329 H 416.19 -1.10911 -4.74921 0
M  V30 4330 H 415.195 -3.37709 -4.33858 0
M  V30 4331 H 416.42 -4.11211 -5.40447 0
M  V30 4332 H 414.366 -2.0288 -6.2384 0
M  V30 4333 H 414.283 -3.72635 -6.57784 0
M  V30 4334 H 415.551 -2.77093 -7.28587 0
M  V30 4335 N 419.78 1.02168 -1.19998 0
M  V30 4336 C 420.743 2.08765 -0.94604 0
M  V30 4337 C 421.743 1.60618 0.0763846 0
M  V30 4338 O 422.933 1.73472 -0.159135 0
M  V30 4339 C 420.065 3.38262 -0.423255 0
M  V30 4340 H 421.258 2.32726 -1.89153 0
M  V30 4341 H 418.811 1.1889 -1.01464 0
M  V30 4342 H 419.546 3.19974 0.527938 0
M  V30 4343 H 419.331 3.74532 -1.16053 0
M  V30 4344 H 420.821 4.16759 -0.264911 0
M  V30 4345 N 421.258 1.00505 1.21394 0
M  V30 4346 C 422.191 0.51032 2.22421 0
M  V30 4347 C 423.169 -0.436 1.56645 0
M  V30 4348 O 424.353 -0.358709 1.85055 0
M  V30 4349 C 421.48 -0.258733 3.3771 0
M  V30 4350 C 420.526 0.635395 4.2174 0
M  V30 4351 S 421.359 2.09783 4.92698 0
M  V30 4352 C 422.515 1.33862 6.11418 0
M  V30 4353 H 422.748 1.36637 2.64041 0
M  V30 4354 H 420.281 0.812991 1.31262 0
M  V30 4355 H 422.239 -0.696372 4.0455 0
M  V30 4356 H 420.9 -1.0902 2.94573 0
M  V30 4357 H 420.093 0.0430189 5.03982 0
M  V30 4358 H 419.695 1.01031 3.60095 0
M  V30 4359 H 421.987 0.612541 6.74725 0
M  V30 4360 H 422.93 2.13675 6.75092 0
M  V30 4361 H 423.338 0.846568 5.58116 0
M  V30 4362 N 422.737 -1.36956 0.779787 0
M  V30 4363 C 423.667 -2.32761 0.185651 0
M  V30 4364 C 424.648 -1.56177 -0.673989 0
M  V30 4365 O 425.833 -1.84378 -0.609797 0
M  V30 4366 C 422.963 -3.40418 -0.687964 0
M  V30 4367 C 421.917 -4.27941 0.0710102 0
M  V30 4368 C 421.243 -5.26681 -0.922573 0
M  V30 4369 C 422.543 -5.07006 1.25467 0
M  V30 4370 H 424.237 -2.82698 0.986008 0
M  V30 4371 H 421.783 -1.3592 0.475592 0
M  V30 4372 H 423.736 -4.06423 -1.11348 0
M  V30 4373 H 422.46 -2.89025 -1.52093 0
M  V30 4374 H 421.119 -3.63478 0.47739 0
M  V30 4375 H 420.767 -4.71565 -1.7503 0
M  V30 4376 H 420.467 -5.86103 -0.419237 0
M  V30 4377 H 421.991 -5.9556 -1.34686 0
M  V30 4378 H 423.405 -5.66105 0.905401 0
M  V30 4379 H 421.802 -5.75793 1.69063 0
M  V30 4380 H 422.872 -4.3921 2.05481 0
M  V30 4381 N 424.215 -0.530993 -1.48385 0
M  V30 4382 C 425.147 0.268353 -2.27624 0
M  V30 4383 C 426.16 0.903525 -1.35426 0
M  V30 4384 O 427.349 0.781796 -1.60469 0
M  V30 4385 C 424.449 1.39535 -3.08842 0
M  V30 4386 C 423.622 0.861913 -4.28824 0
M  V30 4387 C 422.681 1.87016 -4.91845 0
M  V30 4388 O 421.707 1.4267 -5.5103 0
M  V30 4389 N 422.909 3.20238 -4.84178 0
M  V30 4390 H 425.674 -0.41123 -2.96865 0
M  V30 4391 H 423.235 -0.365387 -1.57723 0
M  V30 4392 H 425.227 2.06803 -3.47871 0
M  V30 4393 H 423.797 1.97859 -2.42014 0
M  V30 4394 H 423.017 0.0132126 -3.94198 0
M  V30 4395 H 424.305 0.484415 -5.06489 0
M  V30 4396 H 423.703 3.58932 -4.37246 0
M  V30 4397 H 422.26 3.83136 -5.27305 0
M  V30 4398 N 425.693 1.55336 -0.266172 0
M  V30 4399 C 426.97 1.91372 0.404486 0
M  V30 4400 C 427.35 1.18935 1.74407 0
M  V30 4401 O 426.698 0.3132 2.26343 0
M  V30 4402 C 426.908 3.44581 0.553593 0
M  V30 4403 C 428.256 4.16196 0.840618 0
M  V30 4404 O 429.28 3.50426 0.638739 0
M  V30 4405 O 428.139 5.32567 1.22618 0
M  V30 4406 H 425.233 0.797194 0.220025 0
M  V30 4407 H 427.779 1.66813 -0.311664 0
M  V30 4408 H 426.551 3.89357 -0.389498 0
M  V30 4409 H 426.174 3.75065 1.31955 0
M  V30 4410 N 427.171 -0.0066808 1.57599 0
M  V30 4411 C 428.104 -1.03397 2.03431 0
M  V30 4412 C 429.082 -1.33872 0.922877 0
M  V30 4413 O 430.266 -1.4615 1.19048 0
M  V30 4414 C 427.393 -2.36325 2.42628 0
M  V30 4415 C 426.439 -2.21557 3.64438 0
M  V30 4416 S 427.272 -1.54789 5.12641 0
M  V30 4417 C 428.428 -2.8916 5.55101 0
M  V30 4418 H 428.661 -0.643687 2.90248 0
M  V30 4419 H 426.194 -0.217349 1.52863 0
M  V30 4420 H 428.152 -3.12759 2.65879 0
M  V30 4421 H 426.813 -2.72495 1.56222 0
M  V30 4422 H 426.006 -3.1974 3.89592 0
M  V30 4423 H 425.608 -1.53267 3.41153 0
M  V30 4424 H 427.9 -3.8547 5.57153 0
M  V30 4425 H 428.843 -2.68713 6.55133 0
M  V30 4426 H 429.251 -2.92762 4.82649 0
M  V30 4427 N 428.649 -1.55105 -0.279332 0
M  V30 4428 C 429.612 -1.86783 -1.32834 0
M  V30 4429 C 430.612 -0.74199 -1.42657 0
M  V30 4430 O 431.802 -1.0102 -1.41918 0
M  V30 4431 C 428.934 -2.06746 -2.71052 0
M  V30 4432 H 430.127 -2.8055 -1.05979 0
M  V30 4433 H 427.68 -1.47499 -0.517087 0
M  V30 4434 H 428.415 -1.15339 -3.03097 0
M  V30 4435 H 428.2 -2.88711 -2.65309 0
M  V30 4436 H 429.69 -2.32549 -3.46858 0
M  V30 4437 N 430.127 0.543554 -1.4793 0
M  V30 4438 C 431.376 1.29649 -1.54512 0
M  V30 4439 C 431.689 1.94382 -0.217973 0
M  V30 4440 O 432.895 2.71017 -0.161908 0
M  V30 4441 C 431.351 2.35175 -2.72435 0
M  V30 4442 C 430.959 1.76572 -4.11736 0
M  V30 4443 C 432.703 3.11564 -2.8832 0
M  V30 4444 C 430.61 2.79958 -5.20939 0
M  V30 4445 H 429.54 0.487541 -0.57517 0
M  V30 4446 H 432.191 0.575708 -1.74235 0
M  V30 4447 H 430.573 3.10229 -2.46118 0
M  V30 4448 H 431.747 1.07799 -4.48013 0
M  V30 4449 H 430.062 1.12722 -4.00852 0
M  V30 4450 H 432.659 3.88794 -3.67074 0
M  V30 4451 H 433.002 3.66594 -1.97268 0
M  V30 4452 H 433.535 2.43623 -3.14472 0
M  V30 4453 H 430.274 2.29766 -6.13912 0
M  V30 4454 H 429.794 3.47101 -4.89164 0
M  V30 4455 H 431.473 3.43198 -5.48474 0
M  V30 4456 N 431.605 1.3629 0.791371 0
M  V30 4457 C 432.535 1.33137 1.91825 0
M  V30 4458 C 433.516 0.203168 1.68882 0
M  V30 4459 O 434.701 0.400509 1.90025 0
M  V30 4460 C 431.831 1.11793 3.28816 0
M  V30 4461 C 430.785 2.21417 3.66277 0
M  V30 4462 C 430.111 1.85218 5.01596 0
M  V30 4463 C 431.411 3.63489 3.75064 0
M  V30 4464 H 433.105 2.2743 1.9472 0
M  V30 4465 H 430.651 1.09479 0.935437 0
M  V30 4466 H 432.604 1.08222 4.07266 0
M  V30 4467 H 431.328 0.139501 3.26302 0
M  V30 4468 H 429.987 2.2411 2.90121 0
M  V30 4469 H 429.635 0.859544 4.95602 0
M  V30 4470 H 429.335 2.58611 5.27631 0
M  V30 4471 H 430.859 1.832 5.82469 0
M  V30 4472 H 432.273 3.63034 4.43711 0
M  V30 4473 H 430.67 4.35771 4.12582 0
M  V30 4474 H 431.74 3.98536 2.76219 0
M  V30 4475 N 433.083 -1.0153 1.20538 0
M  V30 4476 C 434.311 -1.78746 1.04199 0
M  V30 4477 C 434.726 -1.84323 -0.408733 0
M  V30 4478 O 434.083 -1.29714 -1.28377 0
M  V30 4479 C 434.134 -3.23152 1.62035 0
M  V30 4480 O 433.855 -3.17918 3.0143 0
M  V30 4481 C 435.356 -4.16911 1.50666 0
M  V30 4482 H 432.576 -0.56208 0.366479 0
M  V30 4483 H 435.12 -1.27794 1.59653 0
M  V30 4484 H 433.275 -3.71248 1.10697 0
M  V30 4485 H 433.689 -4.08567 3.28897 0
M  V30 4486 H 435.163 -5.16072 1.95892 0
M  V30 4487 H 435.64 -4.36791 0.459363 0
M  V30 4488 H 436.246 -3.74698 2.01201 0
M  V30 4489 N 434.561 -1.01147 -1.20859 0
M  V30 4490 C 435.809 -0.696486 -1.89719 0
M  V30 4491 C 436.13 0.775788 -1.78904 0
M  V30 4492 O 435.4 1.55759 -1.18811 0
M  V30 4493 H 433.98 -0.254628 -0.702263 0
M  V30 4494 H 436.642 -1.28197 -1.46804 0
M  V30 4495 H 435.738 -0.975357 -2.96468 0
M  V30 4496 N 436.039 1.36541 -0.78704 0
M  V30 4497 C 437.287 1.98911 -0.357633 0
M  V30 4498 C 437.608 1.62778 1.07371 0
M  V30 4499 O 436.878 0.900612 1.73971 0
M  V30 4500 H 435.458 0.735734 -0.129246 0
M  V30 4501 H 438.12 1.66776 -1.00855 0
M  V30 4502 H 437.216 3.08874 -0.447549 0
M  V30 4503 N 437.518 0.538854 1.48102 0
M  V30 4504 C 438.45 -0.256278 2.27763 0
M  V30 4505 C 439.463 -0.89633 1.35904 0
M  V30 4506 O 440.652 -0.773275 1.60881 0
M  V30 4507 C 437.752 -1.37896 3.09577 0
M  V30 4508 C 436.925 -0.839159 4.29275 0
M  V30 4509 C 435.984 -1.84405 4.9283 0
M  V30 4510 O 435.01 -1.39746 5.51779 0
M  V30 4511 N 436.212 -3.17666 4.85869 0
M  V30 4512 H 438.977 0.426968 2.96643 0
M  V30 4513 H 436.538 0.373747 1.57527 0
M  V30 4514 H 438.53 -2.04955 3.48963 0
M  V30 4515 H 437.1 -1.96572 2.4306 0
M  V30 4516 H 436.32 0.00769287 3.94199 0
M  V30 4517 H 437.608 -0.457548 5.06739 0
M  V30 4518 H 437.006 -3.56609 4.39143 0
M  V30 4519 H 435.563 -3.80334 5.29329 0
M  V30 4520 N 438.996 -1.55193 0.274407 0
M  V30 4521 C 440.242 -1.99877 -0.343086 0
M  V30 4522 C 440.575 -1.16256 -1.55558 0
M  V30 4523 O 439.85 -0.232462 -1.93106 0
M  V30 4524 C 440.133 -3.52706 -0.725965 0
M  V30 4525 C 439.986 -4.47081 0.493818 0
M  V30 4526 C 441.305 -4.11422 -1.56268 0
M  V30 4527 H 438.424 -0.726625 -0.123229 0
M  V30 4528 H 441.066 -1.86136 0.38121 0
M  V30 4529 H 439.216 -3.64546 -1.34307 0
M  V30 4530 H 440.888 -4.47186 1.13237 0
M  V30 4531 H 439.131 -4.1877 1.13201 0
M  V30 4532 H 439.802 -5.51699 0.18217 0
M  V30 4533 H 442.278 -4.02855 -1.04151 0
M  V30 4534 H 441.154 -5.18568 -1.79939 0
M  V30 4535 H 441.415 -3.61607 -2.54348 0
M  V30 4536 N 440.474 -0.00167713 -1.576 0
M  V30 4537 C 441.723 0.682021 -1.89819 0
M  V30 4538 C 442.036 1.74844 -0.876871 0
M  V30 4539 O 443.242 2.48688 -1.08934 0
M  V30 4540 C 441.698 1.26425 -3.36964 0
M  V30 4541 C 441.306 0.232568 -4.47396 0
M  V30 4542 C 443.05 1.92604 -3.78291 0
M  V30 4543 C 440.957 0.824882 -5.85619 0
M  V30 4544 H 439.887 0.258499 -0.708304 0
M  V30 4545 H 442.538 -0.0624957 -1.83394 0
M  V30 4546 H 440.92 2.05949 -3.38232 0
M  V30 4547 H 442.094 -0.5382 -4.57646 0
M  V30 4548 H 440.409 -0.32888 -4.15099 0
M  V30 4549 H 443.006 2.37827 -4.78897 0
M  V30 4550 H 443.349 2.75732 -3.11894 0
M  V30 4551 H 443.882 1.19812 -3.79328 0
M  V30 4552 H 440.621 0.0323542 -6.55492 0
M  V30 4553 H 440.141 1.56477 -5.79029 0
M  V30 4554 H 441.82 1.32301 -6.33329 0
M  V30 4555 N 441.952 1.55251 0.271103 0
M  V30 4556 C 443.177 1.80306 1.02491 0
M  V30 4557 C 443.602 0.575457 1.79081 0
M  V30 4558 O 442.96 -0.474987 1.74967 0
M  V30 4559 C 443.008 3.02832 1.95768 0
M  V30 4560 O 442.112 2.78051 3.04568 0
M  V30 4561 H 441.453 0.595896 0.292923 0
M  V30 4562 H 443.983 2.02397 0.299436 0
M  V30 4563 H 443.993 3.31616 2.37686 0
M  V30 4564 H 442.668 3.9183 1.39434 0
M  V30 4565 H 441.245 2.60369 2.66951 0
M  V30 4566 N 443.43 -0.535701 1.48216 0
M  V30 4567 C 444.34 -1.66785 1.64985 0
M  V30 4568 C 445.356 -1.65654 0.532414 0
M  V30 4569 O 446.532 -1.8471 0.80275 0
M  V30 4570 C 443.597 -3.0326 1.68031 0
M  V30 4571 C 442.658 -3.1529 2.9136 0
M  V30 4572 C 441.891 -4.45255 2.94252 0
M  V30 4573 O 442.114 -5.32011 2.05719 0
M  V30 4574 O 441.048 -4.6153 3.86359 0
M  V30 4575 H 444.874 -1.55576 2.60825 0
M  V30 4576 H 442.459 -0.70815 1.31551 0
M  V30 4577 H 444.341 -3.84436 1.72589 0
M  V30 4578 H 443.016 -3.14805 0.753628 0
M  V30 4579 H 441.923 -2.3343 2.92337 0
M  V30 4580 H 443.256 -3.08658 3.83394 0
M  V30 4581 N 444.908 -1.36708 -0.784132 0
M  V30 4582 C 445.818 -1.3363 -1.92822 0
M  V30 4583 C 446.834 -0.237686 -1.72369 0
M  V30 4584 O 448.01 -0.470962 -1.95816 0
M  V30 4585 C 445.075 -1.13011 -3.27764 0
M  V30 4586 C 444.136 -2.32397 -3.60957 0
M  V30 4587 C 443.369 -2.12752 -4.89461 0
M  V30 4588 O 443.592 -1.10541 -5.59586 0
M  V30 4589 O 442.526 -3.00653 -5.21432 0
M  V30 4590 H 446.352 -2.29964 -1.98369 0
M  V30 4591 H 443.937 -1.1731 -0.925136 0
M  V30 4592 H 445.819 -1.03451 -4.08504 0
M  V30 4593 H 444.494 -0.19743 -3.23097 0
M  V30 4594 H 443.401 -2.47527 -2.80502 0
M  V30 4595 H 444.734 -3.2419 -3.70354 0
M  V30 4596 N 446.386 1.0089 -1.21074 0
M  V30 4597 C 447.632 1.74866 -1.02712 0
M  V30 4598 C 447.965 1.89178 0.438787 0
M  V30 4599 O 447.24 1.42325 1.32567 0
M  V30 4600 C 447.523 3.16347 -1.72036 0
M  V30 4601 C 447.376 3.09782 -3.26121 0
M  V30 4602 C 448.695 4.15187 -1.45973 0
M  V30 4603 H 445.814 0.634736 -0.374539 0
M  V30 4604 H 448.456 1.17646 -1.49196 0
M  V30 4605 H 446.606 3.65201 -1.32517 0
M  V30 4606 H 448.278 2.68673 -3.74983 0
M  V30 4607 H 446.521 2.46982 -3.56626 0
M  V30 4608 H 447.192 4.09829 -3.6979 0
M  V30 4609 H 449.668 3.75022 -1.80272 0
M  V30 4610 H 448.544 5.12331 -1.96999 0
M  V30 4611 H 448.805 4.40386 -0.388924 0
M  V30 4612 N 447.864 1.01787 1.20321 0
M  V30 4613 C 449.112 0.706538 1.89347 0
M  V30 4614 C 449.433 -0.766289 1.79313 0
M  V30 4615 O 448.703 -1.55126 1.19635 0
M  V30 4616 H 447.283 0.258348 0.700903 0
M  V30 4617 H 449.945 1.28974 1.46122 0
M  V30 4618 H 449.041 0.991066 2.95946 0
M  V30 4619 N 449.342 -1.36122 0.79427 0
M  V30 4620 C 450.272 -2.32551 0.210328 0
M  V30 4621 C 451.253 -1.56884 -0.657386 0
M  V30 4622 O 452.438 -1.85014 -0.590207 0
M  V30 4623 C 449.568 -3.41128 -0.651819 0
M  V30 4624 C 448.522 -4.27842 0.116395 0
M  V30 4625 C 447.848 -5.2763 -0.86666 0
M  V30 4626 C 449.148 -5.05647 1.30837 0
M  V30 4627 H 450.842 -2.81636 1.01594 0
M  V30 4628 H 448.388 -1.35407 0.489981 0
M  V30 4629 H 450.341 -4.07581 -1.07031 0
M  V30 4630 H 449.065 -2.90622 -1.49019 0
M  V30 4631 H 447.724 -3.62952 0.515915 0
M  V30 4632 H 447.372 -4.73395 -1.70019 0
M  V30 4633 H 447.072 -5.86514 -0.35705 0
M  V30 4634 H 448.596 -5.96955 -1.28361 0
M  V30 4635 H 450.01 -5.65113 0.965393 0
M  V30 4636 H 448.407 -5.73967 1.75161 0
M  V30 4637 H 449.477 -4.37006 2.10128 0
M  V30 4638 N 450.82 -0.546701 -1.47814 0
M  V30 4639 C 452.048 -0.0232857 -2.06887 0
M  V30 4640 C 452.463 1.26571 -1.4009 0
M  V30 4641 O 451.82 1.7569 -0.493906 0
M  V30 4642 C 451.871 0.186975 -3.61016 0
M  V30 4643 O 451.592 -1.05097 -4.25307 0
M  V30 4644 C 453.093 0.748872 -4.36929 0
M  V30 4645 H 450.313 -0.0410763 -0.669742 0
M  V30 4646 H 452.857 -0.757117 -1.89968 0
M  V30 4647 H 451.012 0.870903 -3.77484 0
M  V30 4648 H 451.426 -0.842121 -5.17695 0
M  V30 4649 H 452.9 0.845334 -5.45489 0
M  V30 4650 H 453.377 1.75772 -4.02493 0
M  V30 4651 H 453.983 0.100979 -4.2518 0
M  V30 4652 N 452.299 1.55045 -0.282633 0
M  V30 4653 C 453.229 2.2579 0.595066 0
M  V30 4654 C 454.21 1.25074 1.15284 0
M  V30 4655 O 455.395 1.5381 1.18559 0
M  V30 4656 C 452.525 2.98472 1.77572 0
M  V30 4657 C 451.479 4.0618 1.34914 0
M  V30 4658 C 450.805 4.66477 2.6135 0
M  V30 4659 C 452.105 5.1996 0.493821 0
M  V30 4660 H 453.799 2.994 0.00505653 0
M  V30 4661 H 451.345 1.44 0.000992001 0
M  V30 4662 H 453.298 3.46677 2.39568 0
M  V30 4663 H 452.022 2.2241 2.39168 0
M  V30 4664 H 450.681 3.58797 0.752338 0
M  V30 4665 H 450.329 3.87074 3.2122 0
M  V30 4666 H 450.029 5.39207 2.33516 0
M  V30 4667 H 451.553 5.17435 3.24181 0
M  V30 4668 H 452.967 5.64172 1.01898 0
M  V30 4669 H 451.364 5.99299 0.310047 0
M  V30 4670 H 452.434 4.82462 -0.485593 0
M  V30 4671 N 453.777 0.010035 1.57597 0
M  V30 4672 C 454.687 -0.994226 2.12491 0
M  V30 4673 C 455.703 -1.37013 1.07254 0
M  V30 4674 O 456.879 -1.45542 1.3921 0
M  V30 4675 C 453.944 -2.2642 2.62555 0
M  V30 4676 C 453.005 -1.95049 3.82432 0
M  V30 4677 C 452.238 -3.15991 4.30099 0
M  V30 4678 O 452.461 -4.28015 3.7704 0
M  V30 4679 O 451.395 -2.99403 5.22151 0
M  V30 4680 H 455.221 -0.557549 2.98538 0
M  V30 4681 H 452.806 -0.209413 1.47925 0
M  V30 4682 H 454.688 -3.01009 2.9491 0
M  V30 4683 H 453.363 -2.69306 1.796 0
M  V30 4684 H 452.27 -1.17904 3.55034 0
M  V30 4685 H 453.603 -1.56992 4.66491 0
M  V30 4686 N 455.255 -1.55392 -0.262866 0
M  V30 4687 C 456.203 -1.8977 -1.345 0
M  V30 4688 C 457.197 -0.775063 -1.50629 0
M  V30 4689 O 458.403 -0.959519 -1.52293 0
M  V30 4690 H 454.778 -0.602467 -0.450041 0
M  V30 4691 H 456.749 -2.80147 -1.02762 0
M  V30 4692 C 455.498 -2.19501 -2.69657 0
M  V30 4693 H 454.821 -3.05378 -2.5804 0
M  V30 4694 H 456.261 -2.47469 -3.44289 0
M  V30 4695 C 454.72 -1.00597 -3.21531 0
M  V30 4696 O 455.25 -0.245768 -4.00947 0
M  V30 4697 N 453.456 -0.800911 -2.79345 0
M  V30 4698 H 453.003 -1.42079 -2.14875 0
M  V30 4699 H 452.961 -0.00697996 -3.14399 0
M  V30 4700 N 456.733 0.527833 -1.48498 0
M  V30 4701 C 457.696 1.61439 -1.62696 0
M  V30 4702 C 458.696 1.52824 -0.500136 0
M  V30 4703 O 459.886 1.56456 -0.765976 0
M  V30 4704 C 457.018 3.01063 -1.59918 0
M  V30 4705 H 458.211 1.50189 -2.59583 0
M  V30 4706 H 455.764 0.750055 -1.37127 0
M  V30 4707 H 456.499 3.17818 -0.645163 0
M  V30 4708 H 456.284 3.08725 -2.41726 0
M  V30 4709 H 457.774 3.80057 -1.73051 0
M  V30 4710 N 458.211 1.37122 0.776871 0
M  V30 4711 C 459.488 1.22586 1.52421 0
M  V30 4712 C 459.868 -0.182726 2.10308 0
M  V30 4713 O 459.216 -1.18979 1.9508 0
M  V30 4714 C 459.426 2.31782 2.60918 0
M  V30 4715 C 460.774 2.69071 3.2846 0
M  V30 4716 O 461.798 2.3092 2.71209 0
M  V30 4717 O 460.657 3.3478 4.31954 0
M  V30 4718 H 457.751 0.478045 0.674835 0
M  V30 4719 H 460.297 1.48888 0.814275 0
M  V30 4720 H 459.069 3.26131 2.16227 0
M  V30 4721 H 458.692 2.06916 3.39517 0
M  V30 4722 N 459.689 -1.00246 1.21608 0
M  V30 4723 C 460.619 -2.10921 1.00172 0
M  V30 4724 C 461.6 -1.69938 -0.0741587 0
M  V30 4725 O 462.785 -1.94009 0.0861753 0
M  V30 4726 C 459.915 -3.42618 0.568355 0
M  V30 4727 C 458.869 -3.97407 1.58909 0
M  V30 4728 C 458.195 -5.25038 1.01187 0
M  V30 4729 C 459.495 -4.2918 2.97661 0
M  V30 4730 H 461.189 -2.29112 1.92739 0
M  V30 4731 H 458.735 -1.10101 0.928102 0
M  V30 4732 H 460.688 -4.19444 0.405555 0
M  V30 4733 H 459.412 -3.24227 -0.392961 0
M  V30 4734 H 458.071 -3.22703 1.73949 0
M  V30 4735 H 457.719 -5.02982 0.0421965 0
M  V30 4736 H 457.419 -5.62661 1.6937 0
M  V30 4737 H 458.943 -6.04507 0.860448 0
M  V30 4738 H 460.357 -4.96839 2.86049 0
M  V30 4739 H 458.754 -4.77952 3.6288 0
M  V30 4740 H 459.824 -3.3735 3.48315 0
M  V30 4741 N 461.167 -1.02423 -1.1978 0
M  V30 4742 C 462.392 -0.7373 -1.93852 0
M  V30 4743 C 462.817 0.696923 -1.74713 0
M  V30 4744 O 462.175 1.48056 -1.04638 0
M  V30 4745 C 462.223 -1.08783 -3.438 0
M  V30 4746 O 461.327 -0.20383 -4.11896 0
M  V30 4747 H 460.668 -0.27284 -0.605355 0
M  V30 4748 H 463.198 -1.36966 -1.51992 0
M  V30 4749 H 463.208 -1.04276 -3.9445 0
M  V30 4750 H 461.883 -2.13274 -3.57053 0
M  V30 4751 H 460.46 -0.307091 -3.71633 0
M  V30 4752 N 462.645 1.35699 -0.801477 0
M  V30 4753 C 463.575 2.32436 -0.222658 0
M  V30 4754 C 464.556 1.5723 0.649057 0
M  V30 4755 O 465.741 1.85324 0.580387 0
M  V30 4756 C 462.871 3.41469 0.633719 0
M  V30 4757 C 461.825 4.27774 -0.139083 0
M  V30 4758 C 461.151 5.28082 0.838666 0
M  V30 4759 C 462.451 5.04946 -1.33517 0
M  V30 4760 H 464.145 2.81094 -1.03086 0
M  V30 4761 H 461.691 1.35146 -0.497155 0
M  V30 4762 H 463.644 4.08143 1.04868 0
M  V30 4763 H 462.368 2.91408 1.47475 0
M  V30 4764 H 461.027 3.62673 -0.535156 0
M  V30 4765 H 460.675 4.7429 1.67506 0
M  V30 4766 H 460.375 5.86695 0.32594 0
M  V30 4767 H 461.899 5.97628 1.25194 0
M  V30 4768 H 463.313 5.64593 -0.995349 0
M  V30 4769 H 461.71 5.7303 -1.78202 0
M  V30 4770 H 462.78 4.35886 -2.12442 0
M  V30 4771 N 464.123 0.554532 1.47522 0
M  V30 4772 C 465.053 -0.182974 2.32782 0
M  V30 4773 C 466.034 -0.911377 1.43624 0
M  V30 4774 O 467.219 -0.892366 1.72483 0
M  V30 4775 C 464.349 -1.21513 3.25349 0
M  V30 4776 C 463.303 -0.603355 4.23726 0
M  V30 4777 C 462.629 -1.73995 5.05598 0
M  V30 4778 C 463.929 0.441121 5.20434 0
M  V30 4779 H 465.623 0.52882 2.94693 0
M  V30 4780 H 463.169 0.255759 1.41711 0
M  V30 4781 H 465.122 -1.73922 3.83835 0
M  V30 4782 H 463.846 -1.95683 2.61487 0
M  V30 4783 H 462.505 -0.10059 3.66462 0
M  V30 4784 H 462.153 -2.47063 4.38143 0
M  V30 4785 H 461.853 -1.3364 5.72201 0
M  V30 4786 H 463.377 -2.26735 5.66942 0
M  V30 4787 H 464.791 0.00319931 5.733 0
M  V30 4788 H 463.188 0.763402 5.95224 0
M  V30 4789 H 464.258 1.33799 4.66075 0
M  V30 4790 N 465.601 -1.54893 0.290851 0
M  V30 4791 C 466.849 -1.99538 -0.320756 0
M  V30 4792 C 467.17 -1.18075 -1.55188 0
M  V30 4793 O 466.44 -0.274162 -1.93972 0
M  V30 4794 H 465.02 -0.737052 -0.121507 0
M  V30 4795 H 467.682 -1.90755 0.399832 0
M  V30 4796 H 466.778 -3.06282 -0.599802 0
M  V30 4797 N 467.08 -0.0183926 -1.57589 0
M  V30 4798 C 468.027 0.967022 -2.09565 0
M  V30 4799 C 468.997 1.32983 -0.995225 0
M  V30 4800 O 470.182 1.42501 -1.26878 0
M  V30 4801 C 467.322 2.24772 -2.61861 0
M  V30 4802 C 466.435 1.94232 -3.85873 0
M  V30 4803 C 465.57 3.16518 -4.26603 0
M  V30 4804 C 464.609 2.81748 -5.43401 0
M  V30 4805 N 463.746 3.96626 -5.79338 0
M  V30 4806 H 468.586 0.516874 -2.93483 0
M  V30 4807 H 466.123 0.243544 -1.4507 0
M  V30 4808 H 468.081 2.99667 -2.90268 0
M  V30 4809 H 466.711 2.67423 -1.8079 0
M  V30 4810 H 465.763 1.09625 -3.64262 0
M  V30 4811 H 467.075 1.64616 -4.70853 0
M  V30 4812 H 466.229 3.99743 -4.56389 0
M  V30 4813 H 464.968 3.49286 -3.40368 0
M  V30 4814 H 463.973 1.96933 -5.1332 0
M  V30 4815 H 465.198 2.50207 -6.31327 0
M  V30 4816 H 463.144 4.29257 -4.96059 0
M  V30 4817 H 463.061 3.70598 -6.58933 0
M  V30 4818 H 464.329 4.80586 -6.13724 0
M  V30 4819 N 468.558 1.5553 0.254621 0
M  V30 4820 C 469.521 1.88872 1.29846 0
M  V30 4821 C 470.521 0.764591 1.41459 0
M  V30 4822 O 471.711 1.03265 1.40293 0
M  V30 4823 C 468.843 2.11032 2.67728 0
M  V30 4824 H 470.036 2.82201 1.01502 0
M  V30 4825 H 467.589 1.48303 0.493556 0
M  V30 4826 H 468.324 1.20146 3.01223 0
M  V30 4827 H 468.109 2.92895 2.60682 0
M  V30 4828 H 469.599 2.38038 3.43115 0
M  V30 4829 N 470.036 -0.519951 1.48776 0
M  V30 4830 C 471.452 -0.849418 1.35119 0
M  V30 4831 C 471.652 -1.98077 0.36982 0
M  V30 4832 O 470.708 -2.51664 -0.205359 0
M  V30 4833 C 472.021 -1.20748 2.75391 0
M  V30 4834 C 473.569 -1.31679 2.83954 0
M  V30 4835 C 474.044 -1.70824 4.24951 0
M  V30 4836 N 475.535 -1.77908 4.27672 0
M  V30 4837 C 476.27 -2.09603 5.33717 0
M  V30 4838 N 475.766 -2.39652 6.5003 0
M  V30 4839 N 477.559 -2.10694 5.21119 0
M  V30 4840 H 469.71 0.226377 2.1119 0
M  V30 4841 H 471.973 0.0386519 0.947212 0
M  V30 4842 H 471.679 -0.449703 3.48813 0
M  V30 4843 H 471.553 -2.15534 3.09556 0
M  V30 4844 H 473.94 -2.06532 2.10781 0
M  V30 4845 H 474.021 -0.3499 2.53396 0
M  V30 4846 H 473.665 -0.965282 4.98643 0
M  V30 4847 H 473.595 -2.6858 4.52959 0
M  V30 4848 H 476.086 -1.56923 3.43779 0
M  V30 4849 H 476.399 -2.6297 7.26682 0
M  V30 4850 H 474.744 -2.37149 6.53288 0
M  V30 4851 H 477.935 -1.86682 4.29264 0
M  V30 4852 H 478.108 -2.35062 6.03863 0
M  V30 4853 N 471.514 -1.37532 -0.769588 0
M  V30 4854 C 472.461 -1.3347 -1.88293 0
M  V30 4855 C 473.431 -0.199891 -1.64893 0
M  V30 4856 O 474.616 -0.389594 -1.8678 0
M  V30 4857 C 471.756 -1.14968 -3.25387 0
M  V30 4858 C 470.869 -2.37698 -3.60727 0
M  V30 4859 C 470.004 -2.12051 -4.8704 0
M  V30 4860 C 469.043 -3.30636 -5.15117 0
M  V30 4861 N 468.18 -3.04527 -6.3262 0
M  V30 4862 H 473.02 -2.28658 -1.911 0
M  V30 4863 H 470.557 -1.13622 -0.934257 0
M  V30 4864 H 472.515 -1.02261 -4.04473 0
M  V30 4865 H 471.145 -0.234263 -3.21949 0
M  V30 4866 H 470.197 -2.61137 -2.76608 0
M  V30 4867 H 471.509 -3.26131 -3.77413 0
M  V30 4868 H 470.663 -1.96388 -5.74035 0
M  V30 4869 H 469.402 -1.20959 -4.72462 0
M  V30 4870 H 468.407 -3.46836 -4.26597 0
M  V30 4871 H 469.632 -4.22582 -5.31603 0
M  V30 4872 H 467.578 -2.16067 -6.19396 0
M  V30 4873 H 467.495 -3.86503 -6.49732 0
M  V30 4874 H 468.763 -2.92485 -7.22546 0
M  V30 4875 N 472.992 0.995999 -1.22138 0
M  V30 4876 C 474.238 1.73767 -1.04561 0
M  V30 4877 C 474.571 1.89633 0.418698 0
M  V30 4878 O 473.846 1.43723 1.3105 0
M  V30 4879 C 474.129 3.14505 -1.75382 0
M  V30 4880 C 473.982 3.06306 -3.29388 0
M  V30 4881 C 475.301 4.13615 -1.50369 0
M  V30 4882 H 472.42 0.630728 -0.38125 0
M  V30 4883 H 475.062 1.16057 -1.50435 0
M  V30 4884 H 473.212 3.63775 -1.36383 0
M  V30 4885 H 474.884 2.64681 -3.77812 0
M  V30 4886 H 473.127 2.43186 -3.59226 0
M  V30 4887 H 473.798 4.05884 -3.74116 0
M  V30 4888 H 476.274 3.73089 -1.84239 0
M  V30 4889 H 475.15 5.10212 -2.02421 0
M  V30 4890 H 475.411 4.39949 -0.435611 0
M  V30 4891 N 474.47 1.03057 1.19235 0
M  V30 4892 C 475.716 0.729098 1.89241 0
M  V30 4893 C 476.049 -0.740573 1.79525 0
M  V30 4894 O 475.324 -1.53946 1.18874 0
M  V30 4895 C 475.607 1.18304 3.40112 0
M  V30 4896 C 475.46 2.71406 3.5869 0
M  V30 4897 C 476.779 0.765161 4.33397 0
M  V30 4898 H 473.898 0.266338 0.687192 0
M  V30 4899 H 476.54 1.28079 1.40341 0
M  V30 4900 H 474.69 0.713672 3.81889 0
M  V30 4901 H 476.362 3.26303 3.26074 0
M  V30 4902 H 474.605 3.11717 3.01687 0
M  V30 4903 H 475.276 2.98225 4.64506 0
M  V30 4904 H 477.752 1.16889 3.99345 0
M  V30 4905 H 476.628 1.11065 5.37546 0
M  V30 4906 H 476.889 -0.332372 4.40849 0
M  V30 4907 N 475.948 -1.35272 0.808662 0
M  V30 4908 C 477.194 -1.99003 0.390581 0
M  V30 4909 C 477.527 -1.63999 -1.0401 0
M  V30 4910 O 476.802 -0.904368 -1.72196 0
M  V30 4911 C 477.085 -3.55454 0.576566 0
M  V30 4912 C 476.938 -4.00249 2.05233 0
M  V30 4913 C 478.257 -4.401 0.00354277 0
M  V30 4914 H 475.376 -0.722917 0.143388 0
M  V30 4915 H 478.018 -1.6039 1.01858 0
M  V30 4916 H 476.168 -3.88477 0.0419766 0
M  V30 4917 H 477.84 -3.77626 2.64946 0
M  V30 4918 H 476.083 -3.51082 2.54801 0
M  V30 4919 H 476.754 -5.0911 2.13333 0
M  V30 4920 H 479.23 -4.13548 0.460117 0
M  V30 4921 H 478.106 -5.48656 0.163575 0
M  V30 4922 H 478.367 -4.28444 -1.09032 0
M  V30 4923 N 477.426 -0.562348 -1.47226 0
M  V30 4924 C 478.654 -0.0452275 -2.06851 0
M  V30 4925 C 479.069 1.25078 -1.41424 0
M  V30 4926 O 478.426 1.75156 -0.512513 0
M  V30 4927 C 478.477 0.148674 -3.61194 0
M  V30 4928 O 478.198 -1.09602 -4.24169 0
M  V30 4929 C 479.699 0.702488 -4.37699 0
M  V30 4930 H 476.919 -0.0481775 -0.669268 0
M  V30 4931 H 479.463 -0.777223 -1.89155 0
M  V30 4932 H 477.618 0.830817 -3.78386 0
M  V30 4933 H 478.032 -0.896982 -5.16773 0
M  V30 4934 H 479.506 0.78743 -5.46355 0
M  V30 4935 H 479.983 1.71493 -4.04335 0
M  V30 4936 H 480.589 0.0558772 -4.25263 0
M  V30 4937 N 478.904 1.54736 -0.299062 0
M  V30 4938 C 479.851 2.23448 0.577899 0
M  V30 4939 C 480.821 1.21637 1.13109 0
M  V30 4940 O 482.006 1.50252 1.17597 0
M  V30 4941 C 479.146 2.9774 1.74484 0
M  V30 4942 C 478.259 4.1432 1.22323 0
M  V30 4943 C 477.394 4.76199 2.35388 0
M  V30 4944 C 476.433 5.84927 1.80351 0
M  V30 4945 N 475.57 6.4077 2.86982 0
M  V30 4946 H 480.41 2.97996 -0.0146545 0
M  V30 4947 H 477.947 1.47088 -0.0190013 0
M  V30 4948 H 479.905 3.39045 2.43114 0
M  V30 4949 H 478.535 2.25572 2.30905 0
M  V30 4950 H 477.587 3.7797 0.429249 0
M  V30 4951 H 478.899 4.92659 0.780309 0
M  V30 4952 H 478.053 5.20346 3.11969 0
M  V30 4953 H 476.792 3.97188 2.83006 0
M  V30 4954 H 475.797 5.40207 1.02259 0
M  V30 4955 H 477.022 6.65821 1.3364 0
M  V30 4956 H 474.968 5.64643 3.33938 0
M  V30 4957 H 474.885 7.1445 2.4718 0
M  V30 4958 H 476.153 6.89574 3.63466 0
M  V30 4959 N 480.382 0.0267497 1.57577 0
M  V30 4960 C 481.659 -0.690926 1.82991 0
M  V30 4961 C 482.039 -1.90471 0.910164 0
M  V30 4962 O 481.387 -2.28474 -0.0347985 0
M  V30 4963 C 481.597 -1.07139 3.32148 0
M  V30 4964 C 482.945 -1.46402 3.98562 0
M  V30 4965 O 483.969 -1.16443 3.36629 0
M  V30 4966 O 482.828 -2.02214 5.07712 0
M  V30 4967 H 479.922 -0.338747 0.75444 0
M  V30 4968 H 482.468 0.0542506 1.69613 0
M  V30 4969 H 481.24 -0.207394 3.9075 0
M  V30 4970 H 480.863 -1.87481 3.50623 0
M  V30 4971 N 481.861 -1.55662 -0.24637 0
M  V30 4972 C 482.771 -1.93495 -1.32653 0
M  V30 4973 C 483.787 -0.835462 -1.5263 0
M  V30 4974 O 484.963 -1.1369 -1.66242 0
M  V30 4975 C 482.028 -2.22242 -2.66101 0
M  V30 4976 C 481.089 -3.45625 -2.54641 0
M  V30 4977 C 480.322 -3.72991 -3.81724 0
M  V30 4978 O 480.545 -3.02421 -4.8363 0
M  V30 4979 O 479.479 -4.66515 -3.80325 0
M  V30 4980 H 483.305 -2.85498 -1.03559 0
M  V30 4981 H 480.89 -1.42551 -0.44717 0
M  V30 4982 H 482.772 -2.42037 -3.44958 0
M  V30 4983 H 481.447 -1.33417 -2.94926 0
M  V30 4984 H 480.354 -3.31136 -1.74067 0
M  V30 4985 H 481.687 -4.34754 -2.3076 0
M  V30 4986 N 483.339 0.512053 -1.4905 0
M  V30 4987 C 484.567 1.29116 -1.61669 0
M  V30 4988 C 484.982 1.86655 -0.283787 0
M  V30 4989 O 484.339 1.67293 0.729331 0
M  V30 4990 C 484.39 2.4293 -2.67707 0
M  V30 4991 O 484.111 1.87758 -3.95826 0
M  V30 4992 C 485.612 3.34476 -2.90931 0
M  V30 4993 H 482.832 0.392009 -0.544583 0
M  V30 4994 H 485.376 0.615881 -1.95006 0
M  V30 4995 H 483.531 3.06308 -2.37179 0
M  V30 4996 H 483.945 2.62393 -4.54148 0
M  V30 4997 H 485.419 4.10642 -3.68886 0
M  V30 4998 H 485.896 3.90801 -2.00427 0
M  V30 4999 H 486.502 2.76874 -3.22832 0
M  V30 5000 N 484.817 1.37938 0.762283 0
M  V30 5001 C 486.045 1.36883 1.55147 0
M  V30 5002 C 486.46 -0.0435348 1.8875 0
M  V30 5003 O 485.817 -1.00786 1.52146 0
M  V30 5004 C 485.868 2.21624 2.85596 0
M  V30 5005 O 485.589 3.57358 2.5343 0
M  V30 5006 C 487.09 2.28653 3.7978 0
M  V30 5007 H 484.31 0.468521 0.480343 0
M  V30 5008 H 486.854 1.81404 0.944079 0
M  V30 5009 H 485.009 1.80588 3.42734 0
M  V30 5010 H 485.423 4.01883 3.37032 0
M  V30 5011 H 486.897 2.9225 4.68288 0
M  V30 5012 H 487.374 1.29767 4.19592 0
M  V30 5013 H 487.98 2.70043 3.28568 0
M  V30 5014 N 486.295 -0.989507 1.22664 0
M  V30 5015 C 487.544 -1.72375 1.04737 0
M  V30 5016 C 487.857 -1.91096 -0.417316 0
M  V30 5017 O 489.063 -2.6188 -0.716334 0
M  V30 5018 C 487.519 -3.10161 1.82561 0
M  V30 5019 C 487.127 -2.99358 3.333 0
M  V30 5020 C 488.871 -3.87607 1.73093 0
M  V30 5021 C 486.778 -4.32319 4.03552 0
M  V30 5022 H 485.708 -0.646326 0.388302 0
M  V30 5023 H 488.359 -1.10437 1.46546 0
M  V30 5024 H 486.741 -3.728 1.33552 0
M  V30 5025 H 487.915 -2.45863 3.89728 0
M  V30 5026 H 486.23 -2.35392 3.43481 0
M  V30 5027 H 488.827 -4.86025 2.22899 0
M  V30 5028 H 489.17 -4.10509 0.691976 0
M  V30 5029 H 489.703 -3.31652 2.19663 0
M  V30 5030 H 486.442 -4.14616 5.07714 0
M  V30 5031 H 485.962 -4.85714 3.51911 0
M  V30 5032 H 487.641 -5.01051 4.09337 0
M  V30 5033 N 487.773 -1.03688 -1.18687 0
M  V30 5034 C 489.019 -0.739123 -1.88851 0
M  V30 5035 C 489.352 0.731042 -1.79915 0
M  V30 5036 O 488.627 1.53313 -1.19688 0
M  V30 5037 C 488.91 -1.20106 -3.3948 0
M  V30 5038 C 488.763 -2.73304 -3.57246 0
M  V30 5039 C 490.082 -0.788134 -4.32986 0
M  V30 5040 H 487.201 -0.269978 -0.68577 0
M  V30 5041 H 489.843 -1.28822 -1.3966 0
M  V30 5042 H 487.993 -0.733915 -3.81505 0
M  V30 5043 H 489.665 -3.28027 -3.24339 0
M  V30 5044 H 487.908 -3.13313 -3.00029 0
M  V30 5045 H 488.579 -3.00684 -4.62918 0
M  V30 5046 H 491.055 -1.19005 -3.98719 0
M  V30 5047 H 489.931 -1.13915 -5.36949 0
M  V30 5048 H 490.192 0.308988 -4.41019 0
M  V30 5049 N 489.251 1.34841 -0.815825 0
M  V30 5050 C 490.161 2.33425 -0.234462 0
M  V30 5051 C 491.177 1.62295 0.627413 0
M  V30 5052 O 492.353 1.94109 0.536987 0
M  V30 5053 C 489.418 3.41471 0.599849 0
M  V30 5054 C 488.479 4.28362 -0.283596 0
M  V30 5055 C 487.712 5.31248 0.51099 0
M  V30 5056 O 487.935 5.43056 1.7449 0
M  V30 5057 O 486.869 6.01812 -0.10297 0
M  V30 5058 H 490.695 2.84962 -1.05024 0
M  V30 5059 H 488.28 1.37774 -0.577809 0
M  V30 5060 H 490.162 4.07464 1.07475 0
M  V30 5061 H 488.837 2.9219 1.39308 0
M  V30 5062 H 487.744 3.65318 -0.805836 0
M  V30 5063 H 489.077 4.81066 -1.041 0
M  V30 5064 N 490.729 0.570148 1.46925 0
M  V30 5065 C 491.977 0.0508523 2.02036 0
M  V30 5066 C 492.298 -1.30885 1.44548 0
M  V30 5067 O 491.568 -1.85647 0.625453 0
M  V30 5068 H 490.148 0.0158088 0.746833 0
M  V30 5069 H 492.81 0.743086 1.80178 0
M  V30 5070 H 491.906 -0.027575 3.12088 0
M  V30 5071 N 492.207 -1.54576 0.307264 0
M  V30 5072 C 493.17 -2.22423 -0.553224 0
M  V30 5073 C 494.17 -1.21231 -1.05639 0
M  V30 5074 O 495.36 -1.45923 -0.951419 0
M  V30 5075 C 492.492 -2.91552 -1.76664 0
M  V30 5076 H 493.685 -2.99874 0.0396484 0
M  V30 5077 H 491.238 -1.56192 0.0581629 0
M  V30 5078 H 491.973 -2.18196 -2.39918 0
M  V30 5079 H 491.758 -3.65738 -1.41343 0
M  V30 5080 H 493.248 -3.43292 -2.37783 0
M  V30 5081 N 493.685 -0.035106 -1.57561 0
M  V30 5082 C 494.933 0.64096 -1.91667 0
M  V30 5083 C 495.254 1.72323 -0.912681 0
M  V30 5084 O 494.524 1.95849 0.0449089 0
M  V30 5085 H 493.104 0.239743 -0.707483 0
M  V30 5086 H 495.766 -0.084321 -1.94718 0
M  V30 5087 H 494.862 1.08987 -2.92452 0
M  V30 5088 N 495.163 1.55791 0.238111 0
M  V30 5089 C 496.44 1.68798 0.98826 0
M  V30 5090 C 496.82 0.577562 2.03045 0
M  V30 5091 O 496.168 -0.41778 2.24648 0
M  V30 5092 C 496.378 3.09454 1.61367 0
M  V30 5093 C 497.726 3.68335 2.11221 0
M  V30 5094 O 498.75 3.1231 1.71292 0
M  V30 5095 O 497.609 4.6657 2.84561 0
M  V30 5096 H 494.703 0.686881 0.460568 0
M  V30 5097 H 497.249 1.68118 0.231202 0
M  V30 5098 H 496.021 3.81726 0.860295 0
M  V30 5099 H 495.644 3.14182 2.4367 0
M  V30 5100 N 496.642 -0.504142 1.49319 0
M  V30 5101 C 497.87 -1.28256 1.62351 0
M  V30 5102 C 498.285 -1.86502 0.293682 0
M  V30 5103 O 497.642 -1.67678 -0.720449 0
M  V30 5104 C 497.693 -2.41507 2.68992 0
M  V30 5105 O 497.414 -1.85656 3.96817 0
M  V30 5106 C 498.915 -3.32929 2.927 0
M  V30 5107 H 496.135 -0.389115 0.546654 0
M  V30 5108 H 498.679 -0.605531 1.95329 0
M  V30 5109 H 496.834 -3.05046 2.38801 0
M  V30 5110 H 497.248 -2.59981 4.55533 0
M  V30 5111 H 498.722 -4.0868 3.71058 0
M  V30 5112 H 499.199 -3.89733 2.02496 0
M  V30 5113 H 499.805 -2.75158 3.24296 0
M  V30 5114 N 498.12 -1.38341 -0.754957 0
M  V30 5115 C 499.397 -1.24995 -1.50451 0
M  V30 5116 C 499.777 0.149244 -2.10572 0
M  V30 5117 O 499.125 1.15861 -1.96948 0
M  V30 5118 C 499.335 -2.35904 -2.57197 0
M  V30 5119 C 500.683 -2.74262 -3.24138 0
M  V30 5120 O 501.707 -2.35205 -2.67501 0
M  V30 5121 O 500.566 -3.4161 -4.26574 0
M  V30 5122 H 497.66 -0.48872 -0.667144 0
M  V30 5123 H 500.206 -1.50165 -0.790486 0
M  V30 5124 H 498.978 -3.2953 -2.11011 0
M  V30 5125 H 498.601 -2.12291 -3.36182 0
M  V30 5126 N 499.598 0.982988 -1.23187 0
M  V30 5127 C 500.561 2.05649 -1.01198 0
M  V30 5128 C 501.561 1.6078 0.0252464 0
M  V30 5129 O 502.751 1.72878 -0.214243 0
M  V30 5130 C 499.883 3.36744 -0.530656 0
M  V30 5131 H 501.076 2.2659 -1.96461 0
M  V30 5132 H 498.629 1.15602 -1.05195 0
M  V30 5133 H 499.364 3.21492 0.425873 0
M  V30 5134 H 499.149 3.7065 -1.2791 0
M  V30 5135 H 500.639 4.15705 -0.397366 0
M  V30 5136 N 501.076 1.04316 1.18135 0
M  V30 5137 C 502.325 0.74319 1.87509 0
M  V30 5138 C 502.638 -0.732136 1.81381 0
M  V30 5139 O 503.844 -1.14572 2.46141 0
M  V30 5140 C 502.3 1.27913 3.36402 0
M  V30 5141 C 501.908 2.78326 3.51053 0
M  V30 5142 C 503.652 1.0558 4.11161 0
M  V30 5143 C 501.559 3.25266 4.93919 0
M  V30 5144 H 500.489 0.274313 0.702331 0
M  V30 5145 H 503.14 1.25931 1.33467 0
M  V30 5146 H 501.522 0.690853 3.89927 0
M  V30 5147 H 502.696 3.42933 3.07788 0
M  V30 5148 H 501.011 2.991 2.89704 0
M  V30 5149 H 503.608 1.38161 5.16542 0
M  V30 5150 H 503.951 -0.00684729 4.16299 0
M  V30 5151 H 504.484 1.60882 3.63816 0
M  V30 5152 H 501.223 4.30922 4.9395 0
M  V30 5153 H 500.743 2.65396 5.3789 0
M  V30 5154 H 502.422 3.19433 5.62647 0
M  V30 5155 N 502.554 -1.34406 0.822964 0
M  V30 5156 C 503.517 -2.2783 0.250271 0
M  V30 5157 C 504.517 -1.50288 -0.571854 0
M  V30 5158 O 505.707 -1.69825 -0.387952 0
M  V30 5159 C 502.839 -3.34663 -0.649137 0
M  V30 5160 H 504.032 -2.79992 1.07444 0
M  V30 5161 H 501.585 -1.44539 0.594829 0
M  V30 5162 H 502.32 -2.87714 -1.49637 0
M  V30 5163 H 502.105 -3.92052 -0.0611199 0
M  V30 5164 H 503.595 -4.04349 -1.04363 0
M  V30 5165 N 504.032 -0.577932 -1.46621 0
M  V30 5166 C 505.28 -0.061566 -2.02006 0
M  V30 5167 C 505.601 1.30117 -1.4524 0
M  V30 5168 O 504.871 1.85313 -0.63529 0
M  V30 5169 H 503.451 -0.0197692 -0.746738 0
M  V30 5170 H 506.113 -0.752631 -1.79782 0
M  V30 5171 H 505.209 0.0110238 -3.12098 0
M  V30 5172 N 505.51 1.54411 -0.315457 0
M  V30 5173 C 506.926 1.59556 0.037464 0
M  V30 5174 C 507.126 1.33217 1.5118 0
M  V30 5175 O 506.182 1.11264 2.26664 0
M  V30 5176 C 507.495 2.98372 -0.373477 0
M  V30 5177 C 509.043 3.11324 -0.323452 0
M  V30 5178 C 509.518 4.52472 -0.709433 0
M  V30 5179 N 511.009 4.58437 -0.662524 0
M  V30 5180 C 511.744 5.65751 -0.933474 0
M  V30 5181 N 511.24 6.81039 -1.27114 0
M  V30 5182 N 513.033 5.55489 -0.859573 0
M  V30 5183 H 505.184 1.6979 -1.27614 0
M  V30 5184 H 507.447 0.793732 -0.518356 0
M  V30 5185 H 507.153 3.22618 -1.40037 0
M  V30 5186 H 507.027 3.76264 0.265615 0
M  V30 5187 H 509.414 2.86818 0.694223 0
M  V30 5188 H 509.495 2.35555 -0.997367 0
M  V30 5189 H 509.139 4.7771 -1.72498 0
M  V30 5190 H 509.069 5.26598 -0.0132923 0
M  V30 5191 H 511.56 3.75636 -0.413065 0
M  V30 5192 H 511.873 7.58816 -1.46348 0
M  V30 5193 H 510.218 6.82555 -1.30932 0
M  V30 5194 H 513.409 4.64299 -0.595324 0
M  V30 5195 H 513.582 6.39036 -1.0741 0
M  V30 5196 N 506.988 0.0434614 1.5754 0
M  V30 5197 C 508.234 -0.632971 1.92669 0
M  V30 5198 C 508.567 -1.70947 0.921446 0
M  V30 5199 O 507.842 -1.94426 -0.0537202 0
M  V30 5200 C 508.125 -1.23619 3.38216 0
M  V30 5201 C 507.978 -0.168274 4.49485 0
M  V30 5202 C 509.297 -2.15008 3.84005 0
M  V30 5203 H 506.416 -0.228629 0.700641 0
M  V30 5204 H 509.058 0.103651 1.89717 0
M  V30 5205 H 507.208 -1.864 3.40863 0
M  V30 5206 H 508.88 0.463196 4.58969 0
M  V30 5207 H 507.123 0.504581 4.30855 0
M  V30 5208 H 507.794 -0.630218 5.48391 0
M  V30 5209 H 510.27 -1.62198 3.83185 0
M  V30 5210 H 509.146 -2.54161 4.86511 0
M  V30 5211 H 509.407 -3.04707 3.20322 0
M  V30 5212 N 508.466 -1.55915 -0.229846 0
M  V30 5213 C 509.429 -1.90914 -1.26824 0
M  V30 5214 C 510.429 -0.786999 -1.40225 0
M  V30 5215 O 511.619 -1.05484 -1.38632 0
M  V30 5216 C 508.751 -2.15264 -2.64337 0
M  V30 5217 H 509.944 -2.8378 -0.969998 0
M  V30 5218 H 507.497 -1.49069 -0.4699 0
M  V30 5219 H 508.232 -1.24923 -2.99274 0
M  V30 5220 H 508.017 -2.97005 -2.55989 0
M  V30 5221 H 509.507 -2.43467 -3.39284 0
M  V30 5222 N 509.944 0.496216 -1.49584 0
M  V30 5223 C 510.876 1.61404 -1.62731 0
M  V30 5224 C 511.889 1.54613 -0.50978 0
M  V30 5225 O 513.078 1.60458 -0.782017 0
M  V30 5226 C 510.178 3.00212 -1.57245 0
M  V30 5227 C 509.351 3.32138 -2.84611 0
M  V30 5228 C 508.41 4.5038 -2.72112 0
M  V30 5229 O 507.436 4.51926 -3.46051 0
M  V30 5230 N 508.638 5.50575 -1.83977 0
M  V30 5231 H 511.403 1.50552 -2.59141 0
M  V30 5232 H 508.964 0.684182 -1.46733 0
M  V30 5233 H 510.956 3.77241 -1.4653 0
M  V30 5234 H 509.526 3.04964 -0.686729 0
M  V30 5235 H 508.746 2.4396 -3.09641 0
M  V30 5236 H 510.034 3.50268 -3.69039 0
M  V30 5237 H 509.432 5.52128 -1.23171 0
M  V30 5238 H 507.989 6.26687 -1.79182 0
M  V30 5239 N 511.423 1.38739 0.74761 0
M  V30 5240 C 512.672 1.3459 1.50228 0
M  V30 5241 C 512.985 -0.0595592 1.95509 0
M  V30 5242 O 514.191 -0.22361 2.70578 0
M  V30 5243 C 512.647 2.36377 2.71393 0
M  V30 5244 C 512.255 3.82573 2.33113 0
M  V30 5245 C 513.999 2.41281 3.49262 0
M  V30 5246 C 511.906 4.76032 3.50924 0
M  V30 5247 H 510.836 0.500312 0.564096 0
M  V30 5248 H 513.487 1.64324 0.8167 0
M  V30 5249 H 511.869 1.99694 3.41962 0
M  V30 5250 H 513.043 4.28227 1.70171 0
M  V30 5251 H 511.358 3.80844 1.68365 0
M  V30 5252 H 513.955 3.08301 4.36869 0
M  V30 5253 H 514.298 1.43353 3.9084 0
M  V30 5254 H 514.831 2.76793 2.85711 0
M  V30 5255 H 511.57 5.75177 3.14408 0
M  V30 5256 H 511.09 4.35066 4.12889 0
M  V30 5257 H 512.769 4.94331 4.17427 0
M  V30 5258 N 512.901 -0.976442 1.23707 0
M  V30 5259 C 514.317 -1.24341 1.00058 0
M  V30 5260 C 514.517 -1.99315 -0.295932 0
M  V30 5261 O 513.573 -2.3123 -1.01435 0
M  V30 5262 C 514.886 -2.03909 2.21001 0
M  V30 5263 C 516.434 -2.17034 2.25534 0
M  V30 5264 C 516.909 -2.99994 3.46075 0
M  V30 5265 N 518.4 -3.07578 3.46338 0
M  V30 5266 C 519.135 -3.72104 4.36264 0
M  V30 5267 N 518.631 -4.3842 5.36432 0
M  V30 5268 N 520.424 -3.69029 4.23998 0
M  V30 5269 H 512.575 -0.47428 2.07037 0
M  V30 5270 H 514.838 -0.272167 0.908091 0
M  V30 5271 H 514.544 -1.56198 3.15111 0
M  V30 5272 H 514.418 -3.04654 2.22409 0
M  V30 5273 H 516.805 -2.63951 1.31961 0
M  V30 5274 H 516.886 -1.15664 2.28156 0
M  V30 5275 H 516.53 -2.53772 4.39957 0
M  V30 5276 H 516.46 -4.01541 3.40694 0
M  V30 5277 H 518.951 -2.60397 2.73865 0
M  V30 5278 H 519.264 -4.85447 6.013 0
M  V30 5279 H 517.609 -4.37116 5.40328 0
M  V30 5280 H 520.8 -3.16392 3.44984 0
M  V30 5281 H 520.973 -4.19034 4.94282 0
M  V30 5282 N 514.379 -1.04941 -1.1758 0
M  V30 5283 C 515.311 -0.606174 -2.21039 0
M  V30 5284 C 516.324 0.328763 -1.59446 0
M  V30 5285 O 517.513 0.121895 -1.78083 0
M  V30 5286 C 514.613 0.133294 -3.38638 0
M  V30 5287 C 513.786 -0.811711 -4.29802 0
M  V30 5288 C 512.845 -0.113958 -5.26077 0
M  V30 5289 O 511.871 -0.747237 -5.64274 0
M  V30 5290 N 513.073 1.14953 -5.69004 0
M  V30 5291 H 515.838 -1.49606 -2.59689 0
M  V30 5292 H 513.399 -0.930997 -1.32454 0
M  V30 5293 H 515.391 0.610144 -4.00074 0
M  V30 5294 H 513.961 0.924816 -2.98607 0
M  V30 5295 H 513.181 -1.46824 -3.65837 0
M  V30 5296 H 514.469 -1.45326 -4.87604 0
M  V30 5297 H 513.867 1.68441 -5.40041 0
M  V30 5298 H 512.424 1.57049 -6.32597 0
M  V30 5299 N 515.857 1.33968 -0.830081 0
M  V30 5300 C 516.767 2.33164 -0.259207 0
M  V30 5301 C 517.783 1.62951 0.610164 0
M  V30 5302 O 518.959 1.94668 0.516369 0
M  V30 5303 C 516.024 3.42088 0.563598 0
M  V30 5304 C 515.085 4.28037 -0.329014 0
M  V30 5305 C 514.318 5.3176 0.454616 0
M  V30 5306 O 514.541 5.44876 1.6872 0
M  V30 5307 O 513.475 6.01669 -0.166794 0
M  V30 5308 H 517.301 2.83832 -1.08041 0
M  V30 5309 H 514.886 1.37154 -0.59239 0
M  V30 5310 H 516.768 4.08581 1.03147 0
M  V30 5311 H 515.443 2.93651 1.36201 0
M  V30 5312 H 514.35 3.64443 -0.844538 0
M  V30 5313 H 515.683 4.79934 -1.09196 0
M  V30 5314 N 517.335 0.585699 1.46312 0
M  V30 5315 C 518.584 0.0701192 2.01578 0
M  V30 5316 C 518.897 -1.29889 1.46247 0
M  V30 5317 O 520.103 -1.90598 1.93351 0
M  V30 5318 C 518.559 0.0747499 3.59822 0
M  V30 5319 C 518.167 1.44226 4.24149 0
M  V30 5320 C 519.911 -0.38673 4.22735 0
M  V30 5321 C 517.818 1.40446 5.74481 0
M  V30 5322 H 516.748 0.0224441 0.753666 0
M  V30 5323 H 519.399 0.737789 1.68015 0
M  V30 5324 H 517.781 -0.659144 3.90476 0
M  V30 5325 H 518.955 2.19612 4.05101 0
M  V30 5326 H 517.27 1.84401 3.73343 0
M  V30 5327 H 519.867 -0.433853 5.32937 0
M  V30 5328 H 520.21 -1.40489 3.91878 0
M  V30 5329 H 520.743 0.293195 3.96718 0
M  V30 5330 H 517.482 2.39952 6.10003 0
M  V30 5331 H 517.002 0.692845 5.95785 0
M  V30 5332 H 518.681 1.11865 6.37256 0
M  V30 5333 N 518.813 -1.54241 0.323641 0
M  V30 5334 C 519.723 -2.28033 -0.551205 0
M  V30 5335 C 520.739 -1.32388 -1.12913 0
M  V30 5336 O 521.915 -1.65403 -1.14908 0
M  V30 5337 C 518.98 -3.02382 -1.69606 0
M  V30 5338 C 518.041 -4.13612 -1.14993 0
M  V30 5339 C 517.274 -4.84407 -2.24022 0
M  V30 5340 O 517.497 -4.54716 -3.44368 0
M  V30 5341 O 516.431 -5.71312 -1.89436 0
M  V30 5342 H 520.257 -3.03662 0.048066 0
M  V30 5343 H 517.842 -1.49133 0.0893289 0
M  V30 5344 H 519.724 -3.48941 -2.36259 0
M  V30 5345 H 518.399 -2.29628 -2.28151 0
M  V30 5346 H 517.306 -3.71402 -0.448484 0
M  V30 5347 H 518.639 -4.8841 -0.609608 0
M  V30 5348 N 520.291 -0.0518155 -1.57515 0
M  V30 5349 C 521.239 0.940195 -2.12751 0
M  V30 5350 C 522.233 1.3218 -1.05948 0
M  V30 5351 O 523.439 1.30138 -1.24355 0
M  V30 5352 H 519.814 0.321066 -0.680015 0
M  V30 5353 H 521.785 0.449217 -2.94999 0
M  V30 5354 C 520.534 2.2055 -2.68799 0
M  V30 5355 H 519.857 1.92066 -3.50643 0
M  V30 5356 H 521.297 2.88119 -3.11068 0
M  V30 5357 C 519.756 2.95061 -1.62605 0
M  V30 5358 O 520.286 3.88025 -1.03921 0
M  V30 5359 N 518.492 2.57804 -1.34111 0
M  V30 5360 H 518.039 1.82281 -1.8202 0
M  V30 5361 H 517.997 3.07964 -0.632872 0
M  V30 5362 N 521.769 1.56035 0.221574 0
M  V30 5363 C 522.994 1.83476 0.967026 0
M  V30 5364 C 523.419 0.632139 1.7716 0
M  V30 5365 O 522.777 -0.419082 1.7639 0
M  V30 5366 C 522.825 3.08907 1.86034 0
M  V30 5367 O 521.929 2.876 2.95567 0
M  V30 5368 H 521.27 0.604913 0.273817 0
M  V30 5369 H 523.8 2.03247 0.234893 0
M  V30 5370 H 523.81 3.3901 2.27016 0
M  V30 5371 H 522.485 3.96068 1.26898 0
M  V30 5372 H 521.062 2.6873 2.58532 0
M  V30 5373 N 523.247 -0.488276 1.49845 0
M  V30 5374 C 524.524 -1.24959 1.50481 0
M  V30 5375 C 524.904 -2.09735 0.239698 0
M  V30 5376 O 524.252 -2.14865 -0.777524 0
M  V30 5377 C 524.462 -2.0954 2.79095 0
M  V30 5378 C 525.81 -2.68305 3.29086 0
M  V30 5379 O 526.834 -2.19797 2.80299 0
M  V30 5380 O 525.693 -3.56643 4.14087 0
M  V30 5381 H 522.787 -0.566133 0.602845 0
M  V30 5382 H 525.333 -0.501504 1.6212 0
M  V30 5383 H 524.105 -1.46958 3.62656 0
M  V30 5384 H 523.728 -2.91517 2.70377 0
M  V30 5385 N 524.725 -1.39134 -0.740242 0
M  V30 5386 C 525.95 -1.39518 -1.53459 0
M  V30 5387 C 526.375 0.00968883 -1.88098 0
M  V30 5388 O 525.733 0.995312 -1.51536 0
M  V30 5389 C 525.781 -2.26981 -2.802 0
M  V30 5390 O 524.885 -1.69609 -3.75908 0
M  V30 5391 H 524.226 -0.475328 -0.463637 0
M  V30 5392 H 526.756 -1.83064 -0.913717 0
M  V30 5393 H 526.766 -2.41309 -3.28989 0
M  V30 5394 H 525.441 -3.29081 -2.5432 0
M  V30 5395 H 524.018 -1.64495 -3.34658 0
M  V30 5396 N 526.204 0.969867 -1.24223 0
M  V30 5397 C 527.481 1.68774 -0.988664 0
M  V30 5398 C 527.861 2.05342 0.489673 0
M  V30 5399 O 527.209 1.75486 1.46345 0
M  V30 5400 C 527.419 2.92135 -1.90941 0
M  V30 5401 C 528.767 3.64422 -2.17903 0
M  V30 5402 O 529.791 3.02188 -1.88576 0
M  V30 5403 O 528.65 4.76446 -2.67697 0
M  V30 5404 H 525.744 0.737736 -0.37373 0
M  V30 5405 H 528.29 1.02415 -1.35312 0
M  V30 5406 H 527.062 2.61788 -2.90831 0
M  V30 5407 H 526.685 3.66228 -1.54798 0
M  V30 5408 N 527.682 1.05563 1.17022 0
M  V30 5409 C 528.912 0.787307 1.91011 0
M  V30 5410 C 529.32 -0.661256 1.77268 0
M  V30 5411 O 528.663 -1.46379 1.10991 0
M  V30 5412 C 528.725 1.09313 3.42478 0
M  V30 5413 C 528.389 2.53863 3.80004 0
M  V30 5414 C 529.386 3.52081 3.82538 0
M  V30 5415 C 527.071 2.88969 4.10855 0
M  V30 5416 C 529.065 4.83449 4.15399 0
M  V30 5417 C 526.752 4.2054 4.43384 0
M  V30 5418 C 527.75 5.17589 4.45635 0
M  V30 5419 O 527.438 6.46799 4.77395 0
M  V30 5420 H 527.17 0.285463 0.61277 0
M  V30 5421 H 529.724 1.41051 1.49311 0
M  V30 5422 H 527.954 0.412833 3.8449 0
M  V30 5423 H 529.643 0.810224 3.97731 0
M  V30 5424 H 530.409 3.26299 3.58823 0
M  V30 5425 H 526.288 2.1409 4.08272 0
M  V30 5426 H 529.832 5.59194 4.1707 0
M  V30 5427 H 525.729 4.46083 4.66563 0
M  V30 5428 H 526.497 6.51677 4.95237 0
M  V30 5429 N 529.16 -1.33526 0.837174 0
M  V30 5430 C 530.437 -1.92369 0.354065 0
M  V30 5431 C 530.817 -1.76348 -1.16038 0
M  V30 5432 O 530.165 -1.15083 -1.97403 0
M  V30 5433 C 530.375 -3.39728 0.799101 0
M  V30 5434 C 531.723 -4.16877 0.806139 0
M  V30 5435 O 532.747 -3.48373 0.742597 0
M  V30 5436 O 531.606 -5.39166 0.892345 0
M  V30 5437 H 528.7 -0.820952 0.0998378 0
M  V30 5438 H 531.246 -1.42409 0.922913 0
M  V30 5439 H 530.018 -3.45254 1.84162 0
M  V30 5440 H 529.641 -3.97062 0.206731 0
M  V30 5441 N 530.638 -0.59345 -1.46 0
M  V30 5442 C 532.054 -0.255965 -1.57534 0
M  V30 5443 C 532.254 1.24167 -1.58697 0
M  V30 5444 O 531.31 2.02398 -1.50968 0
M  V30 5445 C 532.623 -0.91466 -2.86451 0
M  V30 5446 C 534.171 -0.889253 -3.00102 0
M  V30 5447 C 534.646 -1.52769 -4.3177 0
M  V30 5448 N 536.137 -1.49253 -4.38495 0
M  V30 5449 C 536.872 -1.9558 -5.39014 0
M  V30 5450 N 536.368 -2.49929 -6.46148 0
M  V30 5451 N 538.161 -1.86432 -5.30282 0
M  V30 5452 H 530.312 -1.56604 -1.43489 0
M  V30 5453 H 532.575 -0.655207 -0.685133 0
M  V30 5454 H 532.281 -1.96861 -2.91442 0
M  V30 5455 H 532.155 -0.429356 -3.74748 0
M  V30 5456 H 534.542 0.156111 -2.94687 0
M  V30 5457 H 534.623 -1.41268 -2.13253 0
M  V30 5458 H 534.267 -2.57231 -4.37944 0
M  V30 5459 H 534.197 -0.979398 -5.17412 0
M  V30 5460 H 536.688 -1.09536 -3.61677 0
M  V30 5461 H 537.001 -2.83109 -7.19075 0
M  V30 5462 H 535.346 -2.53961 -6.46938 0
M  V30 5463 H 538.537 -1.43722 -4.4549 0
M  V30 5464 H 538.71 -2.22852 -6.08474 0
M  V30 5465 N 532.116 1.54067 -0.331816 0
M  V30 5466 C 533.026 2.28322 0.539104 0
M  V30 5467 C 534.042 1.32985 1.1221 0
M  V30 5468 O 535.218 1.6601 1.1403 0
M  V30 5469 C 532.283 3.03277 1.68 0
M  V30 5470 C 531.344 4.14216 1.12798 0
M  V30 5471 C 530.577 4.85588 2.2145 0
M  V30 5472 O 530.8 4.56536 3.41952 0
M  V30 5473 O 529.734 5.72309 1.86404 0
M  V30 5474 H 533.56 3.03632 -0.0641692 0
M  V30 5475 H 531.145 1.49083 -0.0972365 0
M  V30 5476 H 533.027 3.50189 2.34405 0
M  V30 5477 H 531.702 2.30834 2.2693 0
M  V30 5478 H 530.609 3.71635 0.428782 0
M  V30 5479 H 531.942 4.88727 0.583698 0
M  V30 5480 N 533.594 0.0601682 1.57485 0
M  V30 5481 C 534.541 -0.91112 2.12055 0
M  V30 5482 C 535.511 -1.30298 1.03013 0
M  V30 5483 O 536.696 -1.39087 1.30612 0
M  V30 5484 C 533.836 -2.1775 2.67729 0
M  V30 5485 C 532.949 -1.83933 3.90887 0
M  V30 5486 C 532.084 -3.05096 4.34845 0
M  V30 5487 C 531.123 -2.67241 5.5068 0
M  V30 5488 N 530.26 -3.81127 5.8965 0
M  V30 5489 H 535.1 -0.43888 2.9475 0
M  V30 5490 H 532.637 -0.204995 1.45665 0
M  V30 5491 H 534.595 -2.91866 2.98111 0
M  V30 5492 H 533.225 -2.62535 1.87816 0
M  V30 5493 H 532.277 -0.999287 3.6704 0
M  V30 5494 H 533.589 -1.52074 4.75052 0
M  V30 5495 H 532.743 -3.87502 4.66827 0
M  V30 5496 H 531.482 -3.40139 3.49509 0
M  V30 5497 H 530.487 -1.83254 5.18361 0
M  V30 5498 H 531.712 -2.3338 6.37738 0
M  V30 5499 H 529.658 -4.15954 5.07266 0
M  V30 5500 H 529.575 -3.52997 6.68528 0
M  V30 5501 H 530.843 -4.64145 6.2625 0
M  V30 5502 N 535.072 -1.5615 -0.213296 0
M  V30 5503 C 536.002 -1.96109 -1.26742 0
M  V30 5504 C 536.983 -0.830448 -1.48451 0
M  V30 5505 O 538.168 -1.09339 -1.60495 0
M  V30 5506 C 535.298 -2.28492 -2.61551 0
M  V30 5507 C 534.252 -3.44124 -2.54485 0
M  V30 5508 C 533.578 -3.62134 -3.93399 0
M  V30 5509 C 534.878 -4.78855 -2.08556 0
M  V30 5510 H 536.572 -2.84412 -0.935434 0
M  V30 5511 H 534.118 -1.36836 -0.44854 0
M  V30 5512 H 536.071 -2.55039 -3.3546 0
M  V30 5513 H 534.795 -1.37052 -2.96453 0
M  V30 5514 H 533.454 -3.17639 -1.83033 0
M  V30 5515 H 533.102 -2.68055 -4.25623 0
M  V30 5516 H 532.802 -4.39913 -3.89551 0
M  V30 5517 H 534.326 -3.91038 -4.68958 0
M  V30 5518 H 535.74 -5.04552 -2.72213 0
M  V30 5519 H 534.137 -5.59975 -2.1575 0
M  V30 5520 H 535.207 -4.73657 -1.03811 0
M  V30 5521 N 536.55 0.480323 -1.50102 0
M  V30 5522 C 537.482 1.59669 -1.64433 0
M  V30 5523 C 538.495 1.54063 -0.52615 0
M  V30 5524 O 539.684 1.59619 -0.798992 0
M  V30 5525 C 536.784 2.98527 -1.6042 0
M  V30 5526 C 535.957 3.291 -2.88117 0
M  V30 5527 C 535.016 4.47468 -2.76873 0
M  V30 5528 O 534.042 4.4823 -3.50825 0
M  V30 5529 N 535.244 5.48593 -1.89806 0
M  V30 5530 H 538.009 1.47795 -2.60723 0
M  V30 5531 H 535.57 0.66858 -1.4745 0
M  V30 5532 H 537.562 3.75666 -1.50523 0
M  V30 5533 H 536.132 3.04218 -0.719036 0
M  V30 5534 H 535.352 2.40662 -3.12211 0
M  V30 5535 H 536.64 3.46334 -3.72734 0
M  V30 5536 H 536.038 5.50791 -1.2902 0
M  V30 5537 H 534.595 6.24752 -1.85819 0
M  V30 5538 N 538.028 1.39524 0.732853 0
M  V30 5539 C 538.938 1.40695 1.87729 0
M  V30 5540 C 539.954 0.301496 1.71368 0
M  V30 5541 O 541.13 0.543313 1.93933 0
M  V30 5542 C 538.195 1.25098 3.23344 0
M  V30 5543 C 537.256 2.45634 3.52083 0
M  V30 5544 C 536.489 2.30772 4.81228 0
M  V30 5545 O 536.712 1.31233 5.55098 0
M  V30 5546 O 535.646 3.19799 5.09914 0
M  V30 5547 H 539.472 2.37168 1.89697 0
M  V30 5548 H 537.057 1.20663 0.880959 0
M  V30 5549 H 538.939 1.18541 4.04383 0
M  V30 5550 H 537.614 0.317209 3.22142 0
M  V30 5551 H 536.521 2.57767 2.71122 0
M  V30 5552 H 537.854 3.37712 3.58066 0
M  V30 5553 N 539.506 -0.963266 1.24736 0
M  V30 5554 C 540.922 -1.23273 1.01371 0
M  V30 5555 C 541.122 -1.99618 -0.274776 0
M  V30 5556 O 540.178 -2.32293 -0.989769 0
M  V30 5557 C 541.491 -2.01554 2.23152 0
M  V30 5558 C 543.039 -2.14629 2.27823 0
M  V30 5559 C 543.514 -2.96307 3.49237 0
M  V30 5560 N 545.005 -3.03887 3.49581 0
M  V30 5561 C 545.74 -3.67456 4.40186 0
M  V30 5562 N 545.236 -4.32706 5.41052 0
M  V30 5563 N 547.029 -3.64511 4.27888 0
M  V30 5564 H 539.18 -0.452294 2.07528 0
M  V30 5565 H 541.443 -0.262521 0.910926 0
M  V30 5566 H 541.149 -1.52847 3.1675 0
M  V30 5567 H 541.023 -3.02278 2.25628 0
M  V30 5568 H 543.41 -2.62537 1.34753 0
M  V30 5569 H 543.491 -1.13238 2.2937 0
M  V30 5570 H 543.135 -2.49091 4.42624 0
M  V30 5571 H 543.065 -3.97905 3.44933 0
M  V30 5572 H 545.556 -2.57477 2.76611 0
M  V30 5573 H 545.869 -4.79042 6.06415 0
M  V30 5574 H 544.214 -4.31361 5.44934 0
M  V30 5575 H 547.405 -3.12715 3.4832 0
M  V30 5576 H 547.578 -4.13768 4.98698 0
M  V30 5577 N 540.985 -1.06182 -1.16461 0
M  V30 5578 C 541.915 -0.692861 -2.22984 0
M  V30 5579 C 542.896 0.314122 -1.67174 0
M  V30 5580 O 544.081 0.189499 -1.93273 0
M  V30 5581 C 541.211 -0.07732 -3.47214 0
M  V30 5582 C 540.165 -1.01015 -4.15909 0
M  V30 5583 C 539.491 -0.257973 -5.34077 0
M  V30 5584 C 540.791 -2.33868 -4.67015 0
M  V30 5585 H 542.485 -1.58343 -2.54102 0
M  V30 5586 H 540.031 -0.76279 -1.22137 0
M  V30 5587 H 541.984 0.19266 -4.20959 0
M  V30 5588 H 540.708 0.848254 -3.15392 0
M  V30 5589 H 539.367 -1.26486 -3.44088 0
M  V30 5590 H 539.015 0.670684 -4.98509 0
M  V30 5591 H 538.715 -0.879638 -5.80979 0
M  V30 5592 H 540.239 0.00448788 -6.106 0
M  V30 5593 H 541.653 -2.1279 -5.32347 0
M  V30 5594 H 540.05 -2.91522 -5.24533 0
M  V30 5595 H 541.12 -2.97019 -3.83286 0
M  V30 5596 N 542.463 1.3308 -0.844243 0
M  V30 5597 C 543.426 2.27403 -0.286485 0
M  V30 5598 C 544.426 1.51179 0.547872 0
M  V30 5599 O 545.616 1.70421 0.360886 0
M  V30 5600 C 542.748 3.35653 0.595813 0
M  V30 5601 H 543.941 2.78248 -1.11885 0
M  V30 5602 H 541.494 1.43574 -0.617749 0
M  V30 5603 H 542.229 2.90058 1.4504 0
M  V30 5604 H 542.014 3.921 -0.00125994 0
M  V30 5605 H 543.504 4.05958 0.979168 0
M  V30 5606 N 543.941 0.601185 1.45683 0
M  V30 5607 C 544.888 -0.121396 2.30481 0
M  V30 5608 C 545.858 -0.866232 1.41724 0
M  V30 5609 O 547.043 -0.85324 1.70659 0
M  V30 5610 C 544.183 -1.11704 3.26521 0
M  V30 5611 C 543.296 -0.373741 4.3038 0
M  V30 5612 C 542.431 -1.35854 5.13534 0
M  V30 5613 C 541.47 -0.602689 6.09126 0
M  V30 5614 N 540.607 -1.53645 6.85082 0
M  V30 5615 H 545.447 0.607732 2.91737 0
M  V30 5616 H 542.984 0.311502 1.43764 0
M  V30 5617 H 544.942 -1.70735 3.80664 0
M  V30 5618 H 543.572 -1.81366 2.67032 0
M  V30 5619 H 542.624 0.331962 3.78949 0
M  V30 5620 H 543.936 0.2163 4.98331 0
M  V30 5621 H 543.09 -2.02111 5.72046 0
M  V30 5622 H 541.829 -1.98251 4.45587 0
M  V30 5623 H 540.834 0.0735482 5.49751 0
M  V30 5624 H 542.059 0.0161467 6.79098 0
M  V30 5625 H 540.005 -2.14819 6.1983 0
M  V30 5626 H 539.922 -0.999688 7.49361 0
M  V30 5627 H 541.19 -2.1888 7.48139 0
M  V30 5628 N 545.419 -1.53889 0.339982 0
M  V30 5629 C 546.349 -2.27843 -0.510856 0
M  V30 5630 C 547.33 -1.29267 -1.10563 0
M  V30 5631 O 548.515 -1.58104 -1.12768 0
M  V30 5632 C 545.645 -3.04857 -1.66372 0
M  V30 5633 C 544.599 -4.10907 -1.19746 0
M  V30 5634 C 543.925 -4.75855 -2.43857 0
M  V30 5635 C 545.225 -5.21435 -0.300501 0
M  V30 5636 H 546.919 -2.99212 0.106067 0
M  V30 5637 H 544.465 -1.43904 0.0524533 0
M  V30 5638 H 546.418 -3.5533 -2.26537 0
M  V30 5639 H 545.142 -2.31133 -2.30749 0
M  V30 5640 H 543.801 -3.61342 -0.618654 0
M  V30 5641 H 543.449 -3.9873 -3.06633 0
M  V30 5642 H 543.149 -5.47502 -2.13343 0
M  V30 5643 H 544.673 -5.2911 -3.04754 0
M  V30 5644 H 546.087 -5.67565 -0.80889 0
M  V30 5645 H 544.484 -6.00036 -0.0874076 0
M  V30 5646 H 545.554 -4.80328 0.664321 0
M  V30 5647 N 546.897 -0.0685191 -1.57451 0
M  V30 5648 C 547.86 0.885173 -2.11417 0
M  V30 5649 C 548.86 1.22853 -1.03748 0
M  V30 5650 O 550.05 1.16235 -1.2975 0
M  V30 5651 C 547.182 2.18964 -2.61281 0
M  V30 5652 H 548.375 0.417034 -2.96986 0
M  V30 5653 H 545.928 0.18014 -1.55258 0
M  V30 5654 H 546.663 2.70321 -1.79156 0
M  V30 5655 H 546.448 1.9534 -3.39977 0
M  V30 5656 H 547.938 2.87242 -3.0312 0
M  V30 5657 N 548.375 1.56261 0.205012 0
M  V30 5658 C 549.623 1.79684 0.925096 0
M  V30 5659 C 549.944 0.63989 1.84202 0
M  V30 5660 O 549.214 -0.342345 1.92885 0
M  V30 5661 H 547.794 0.662774 0.344587 0
M  V30 5662 H 550.456 1.93734 0.212899 0
M  V30 5663 H 549.552 2.72467 1.52211 0
M  V30 5664 N 549.853 -0.472356 1.50355 0
M  V30 5665 C 551.101 -1.22211 1.60962 0
M  V30 5666 C 551.422 -1.92497 0.311439 0
M  V30 5667 O 550.692 -1.8405 -0.671002 0
M  V30 5668 H 549.272 -0.454092 0.593135 0
M  V30 5669 H 551.934 -0.544977 1.87126 0
M  V30 5670 H 551.03 -1.9707 2.42012 0
M  V30 5671 N 551.331 -1.39911 -0.725443 0
M  V30 5672 C 552.577 -1.37858 -1.48738 0
M  V30 5673 C 552.91 0.0224187 -1.94187 0
M  V30 5674 O 552.185 0.989204 -1.67466 0
M  V30 5675 C 552.468 -2.3594 -2.72038 0
M  V30 5676 C 552.321 -3.85023 -2.32546 0
M  V30 5677 C 553.64 -2.31704 -3.74167 0
M  V30 5678 H 550.759 -0.502074 -0.539528 0
M  V30 5679 H 553.401 -1.70974 -0.828728 0
M  V30 5680 H 551.551 -2.0783 -3.28236 0
M  V30 5681 H 553.223 -4.2392 -1.81905 0
M  V30 5682 H 551.466 -4.01334 -1.64661 0
M  V30 5683 H 552.137 -4.49152 -3.20884 0
M  V30 5684 H 554.613 -2.5658 -3.27576 0
M  V30 5685 H 553.489 -3.02395 -4.58092 0
M  V30 5686 H 553.75 -1.3253 -4.21768 0
M  V30 5687 N 552.809 0.956637 -1.25245 0
M  V30 5688 C 553.772 2.03457 -1.05537 0
M  V30 5689 C 554.772 1.60798 -0.00886317 0
M  V30 5690 O 555.962 1.72384 -0.250865 0
M  V30 5691 C 553.094 3.35543 -0.601965 0
M  V30 5692 H 554.287 2.22372 -2.01223 0
M  V30 5693 H 551.84 1.13344 -1.07623 0
M  V30 5694 H 552.575 3.22323 0.357584 0
M  V30 5695 H 552.36 3.67854 -1.35743 0
M  V30 5696 H 553.85 4.14769 -0.485454 0
M  V30 5697 N 554.287 1.06798 1.15896 0
M  V30 5698 C 555.533 0.788934 1.86825 0
M  V30 5699 C 555.866 -0.683084 1.8179 0
M  V30 5700 O 555.141 -1.50086 1.23711 0
M  V30 5701 C 555.424 1.29065 3.36176 0
M  V30 5702 C 555.277 2.8268 3.49874 0
M  V30 5703 C 556.596 0.902655 4.30744 0
M  V30 5704 H 553.715 0.288066 0.678371 0
M  V30 5705 H 556.357 1.32479 1.36195 0
M  V30 5706 H 554.507 0.834806 3.79425 0
M  V30 5707 H 556.179 3.36511 3.15528 0
M  V30 5708 H 554.422 3.21157 2.91617 0
M  V30 5709 H 555.093 3.12852 4.54783 0
M  V30 5710 H 557.569 1.29535 3.95424 0
M  V30 5711 H 556.445 1.28111 5.3374 0
M  V30 5712 H 556.706 -0.191951 4.41683 0
M  V30 5713 N 555.766 -1.3263 0.851289 0
M  V30 5714 C 557.015 -1.96633 0.449267 0
M  V30 5715 C 557.328 -1.68131 -0.999562 0
M  V30 5716 O 558.534 -2.25845 -1.50685 0
M  V30 5717 C 556.99 -3.51946 0.752446 0
M  V30 5718 C 556.598 -3.89311 2.21678 0
M  V30 5719 C 558.342 -4.22437 0.417983 0
M  V30 5720 C 556.249 -5.37655 2.46336 0
M  V30 5721 H 555.179 -0.735888 0.164269 0
M  V30 5722 H 557.83 -1.51073 1.0416 0
M  V30 5723 H 556.212 -3.95899 0.0895858 0
M  V30 5724 H 557.386 -3.56378 2.92115 0
M  V30 5725 H 555.701 -3.31836 2.51543 0
M  V30 5726 H 558.298 -5.31549 0.579674 0
M  V30 5727 H 558.641 -4.11349 -0.640115 0
M  V30 5728 H 559.174 -3.84057 1.03659 0
M  V30 5729 H 555.913 -5.5376 3.50757 0
M  V30 5730 H 555.433 -5.72005 1.80473 0
M  V30 5731 H 557.112 -6.04695 2.30115 0
M  V30 5732 N 557.244 -0.608902 -1.45362 0
M  V30 5733 C 558.191 0.109172 -2.30542 0
M  V30 5734 C 559.161 0.858704 -1.42181 0
M  V30 5735 O 560.346 0.844178 -1.71109 0
M  V30 5736 C 557.486 1.09971 -3.27109 0
M  V30 5737 C 556.599 0.350911 -4.30572 0
M  V30 5738 C 555.734 1.33129 -5.14247 0
M  V30 5739 C 554.773 0.570377 -6.09437 0
M  V30 5740 N 553.91 1.5001 -6.85887 0
M  V30 5741 H 558.75 -0.623195 -2.91411 0
M  V30 5742 H 556.287 -0.319122 -1.43597 0
M  V30 5743 H 558.245 1.68714 -3.81564 0
M  V30 5744 H 556.875 1.79947 -2.67991 0
M  V30 5745 H 555.927 -0.352054 -3.78767 0
M  V30 5746 H 557.239 -0.242725 -4.98209 0
M  V30 5747 H 556.393 1.99074 -5.73109 0
M  V30 5748 H 555.132 1.95885 -4.46632 0
M  V30 5749 H 554.137 -0.102702 -5.49704 0
M  V30 5750 H 555.362 -0.0521607 -6.7908 0
M  V30 5751 H 553.308 2.11529 -6.2096 0
M  V30 5752 H 553.225 0.959934 -7.49881 0
M  V30 5753 H 554.493 2.14909 -7.49289 0
M  V30 5754 N 558.722 1.53707 -0.348139 0
M  V30 5755 C 559.685 2.23812 0.494058 0
M  V30 5756 C 560.685 1.23989 1.02388 0
M  V30 5757 O 561.875 1.48395 0.912396 0
M  V30 5758 C 559.007 2.96133 1.68872 0
M  V30 5759 H 560.2 2.99663 -0.119141 0
M  V30 5760 H 557.753 1.55983 -0.0995539 0
M  V30 5761 H 558.488 2.24481 2.34049 0
M  V30 5762 H 558.273 3.69357 1.31596 0
M  V30 5763 H 559.763 3.49475 2.28597 0
M  V30 5764 N 560.2 0.0768682 1.57412 0
M  V30 5765 C 561.448 -0.589918 1.93299 0
M  V30 5766 C 561.769 -1.69842 0.958049 0
M  V30 5767 O 561.039 -1.95899 0.00703261 0
M  V30 5768 H 559.619 -0.220901 0.713591 0
M  V30 5769 H 562.281 0.135917 1.94425 0
M  V30 5770 H 561.377 -1.01195 2.95239 0
M  V30 5771 N 561.678 -1.56367 -0.196722 0
M  V30 5772 C 562.641 -1.93561 -1.22746 0
M  V30 5773 C 563.641 -0.816566 -1.38524 0
M  V30 5774 O 564.831 -1.084 -1.36363 0
M  V30 5775 C 561.963 -2.20823 -2.59712 0
M  V30 5776 H 563.156 -2.85774 -0.909586 0
M  V30 5777 H 560.709 -1.50032 -0.438174 0
M  V30 5778 H 561.444 -1.31243 -2.96557 0
M  V30 5779 H 561.229 -3.02368 -2.49632 0
M  V30 5780 H 562.719 -2.50608 -3.34044 0
M  V30 5781 N 563.156 0.464375 -1.50603 0
M  V30 5782 C 564.119 1.54393 -1.69397 0
M  V30 5783 C 565.119 1.50566 -0.564504 0
M  V30 5784 O 566.309 1.53066 -0.831645 0
M  V30 5785 C 563.441 2.9401 -1.72543 0
M  V30 5786 H 564.634 1.39044 -2.65719 0
M  V30 5787 H 562.187 0.69122 -1.40185 0
M  V30 5788 H 562.922 3.14795 -0.77938 0
M  V30 5789 H 562.707 2.98195 -2.54602 0
M  V30 5790 H 564.197 3.72375 -1.89015 0
M  V30 5791 N 564.634 1.40294 0.718013 0
M  V30 5792 C 565.862 1.4175 1.50714 0
M  V30 5793 C 566.277 0.0165366 1.88793 0
M  V30 5794 O 565.634 -0.958942 1.55276 0
M  V30 5795 C 565.685 2.30598 2.784 0
M  V30 5796 O 565.406 3.6524 2.41932 0
M  V30 5797 C 566.907 2.4062 3.72313 0
M  V30 5798 H 564.127 0.483565 0.465194 0
M  V30 5799 H 566.671 1.84316 0.885889 0
M  V30 5800 H 564.826 1.91401 3.36815 0
M  V30 5801 H 565.24 4.12402 3.24076 0
M  V30 5802 H 566.714 3.07001 4.58753 0
M  V30 5803 H 567.191 1.4305 4.15251 0
M  V30 5804 H 567.797 2.80359 3.19811 0
M  V30 5805 N 566.112 -0.949982 1.2575 0
M  V30 5806 C 567.022 -2.08109 1.08295 0
M  V30 5807 C 568.038 -1.7399 0.0188181 0
M  V30 5808 O 569.214 -2.00187 0.220724 0
M  V30 5809 C 566.279 -3.39383 0.708534 0
M  V30 5810 C 565.34 -3.8734 1.85111 0
M  V30 5811 C 564.573 -5.12349 1.49447 0
M  V30 5812 O 564.796 -5.6905 0.392212 0
M  V30 5813 O 563.73 -5.5513 2.32624 0
M  V30 5814 H 567.556 -2.25738 2.03165 0
M  V30 5815 H 565.141 -1.06545 1.04731 0
M  V30 5816 H 567.023 -4.18277 0.512061 0
M  V30 5817 H 565.698 -3.23013 -0.210854 0
M  V30 5818 H 564.605 -3.09429 2.10248 0
M  V30 5819 H 565.938 -4.08216 2.74991 0
M  V30 5820 N 567.59 -1.07411 -1.15328 0
M  V30 5821 C 568.836 -0.798831 -1.86404 0
M  V30 5822 C 569.169 0.673433 -1.8215 0
M  V30 5823 O 568.444 1.49428 -1.24505 0
M  V30 5824 C 568.727 -1.30846 -3.35487 0
M  V30 5825 C 568.58 -2.84532 -3.4837 0
M  V30 5826 C 569.899 -0.925486 -4.30259 0
M  V30 5827 H 567.018 -0.291659 -0.676834 0
M  V30 5828 H 569.66 -1.332 -1.35491 0
M  V30 5829 H 567.81 -0.854916 -3.78977 0
M  V30 5830 H 569.482 -3.3818 -3.13739 0
M  V30 5831 H 567.725 -3.22699 -2.8991 0
M  V30 5832 H 568.396 -3.15259 -4.53118 0
M  V30 5833 H 570.872 -1.3163 -3.94731 0
M  V30 5834 H 569.748 -1.3094 -5.33053 0
M  V30 5835 H 570.009 0.168525 -4.41779 0
M  V30 5836 N 569.068 1.32177 -0.85831 0
M  V30 5837 C 569.978 2.32561 -0.308606 0
M  V30 5838 C 570.994 1.64209 0.575462 0
M  V30 5839 O 572.17 1.95719 0.474961 0
M  V30 5840 C 569.235 3.43207 0.490909 0
M  V30 5841 C 568.296 4.27243 -0.419733 0
M  V30 5842 C 567.529 5.32605 0.341719 0
M  V30 5843 O 567.752 5.48332 1.57125 0
M  V30 5844 O 566.686 6.0118 -0.294379 0
M  V30 5845 H 570.512 2.81477 -1.14037 0
M  V30 5846 H 568.097 1.35866 -0.621349 0
M  V30 5847 H 569.979 4.10677 0.944574 0
M  V30 5848 H 568.654 2.96474 1.29941 0
M  V30 5849 H 567.561 3.62569 -0.921652 0
M  V30 5850 H 568.894 4.7751 -1.19352 0
M  V30 5851 N 570.547 0.616602 1.45037 0
M  V30 5852 C 571.477 -0.0840787 2.33349 0
M  V30 5853 C 572.458 -0.849641 1.4736 0
M  V30 5854 O 573.643 -0.818407 1.76113 0
M  V30 5855 C 570.773 -1.07604 3.3021 0
M  V30 5856 C 569.727 -0.423096 4.25904 0
M  V30 5857 C 569.053 -1.52394 5.12523 0
M  V30 5858 C 570.353 0.661457 5.18095 0
M  V30 5859 H 572.047 0.653333 2.92185 0
M  V30 5860 H 569.593 0.315634 1.40498 0
M  V30 5861 H 571.546 -1.57485 3.90866 0
M  V30 5862 H 570.27 -1.84416 2.69552 0
M  V30 5863 H 568.929 0.05493 3.66559 0
M  V30 5864 H 568.577 -2.28257 4.48227 0
M  V30 5865 H 568.277 -1.09251 5.77354 0
M  V30 5866 H 569.801 -2.02485 5.76049 0
M  V30 5867 H 571.215 0.246353 5.7277 0
M  V30 5868 H 569.612 1.01517 5.91451 0
M  V30 5869 H 570.682 1.53446 4.59981 0
M  V30 5870 N 572.025 -1.5352 0.356285 0
M  V30 5871 C 572.972 -2.25439 -0.494569 0
M  V30 5872 C 573.942 -1.25752 -1.08516 0
M  V30 5873 O 575.127 -1.54513 -1.1194 0
M  V30 5874 C 572.267 -3.04011 -1.63313 0
M  V30 5875 C 571.38 -4.18574 -1.06862 0
M  V30 5876 C 570.515 -4.84607 -2.17552 0
M  V30 5877 C 569.554 -5.91218 -1.58518 0
M  V30 5878 N 568.691 -6.50979 -2.63003 0
M  V30 5879 H 573.531 -2.97737 0.125244 0
M  V30 5880 H 571.068 -1.46916 0.0735789 0
M  V30 5881 H 573.026 -3.47834 -2.30363 0
M  V30 5882 H 571.656 -2.33986 -2.22374 0
M  V30 5883 H 570.708 -3.79303 -0.288672 0
M  V30 5884 H 572.02 -4.95215 -0.596924 0
M  V30 5885 H 571.174 -5.31566 -2.92442 0
M  V30 5886 H 569.913 -4.07418 -2.6807 0
M  V30 5887 H 568.918 -5.4363 -0.821391 0
M  V30 5888 H 570.143 -6.70322 -1.08836 0
M  V30 5889 H 568.089 -5.76648 -3.12751 0
M  V30 5890 H 568.006 -7.23131 -2.20493 0
M  V30 5891 H 569.274 -7.02589 -3.37623 0
M  V30 5892 N 573.503 -0.0852151 -1.57369 0
M  V30 5893 C 574.413 0.891712 -2.16992 0
M  V30 5894 C 575.429 1.3174 -1.13669 0
M  V30 5895 O 576.605 1.38735 -1.45995 0
M  V30 5896 C 573.67 2.13635 -2.73059 0
M  V30 5897 C 572.731 1.7658 -3.91303 0
M  V30 5898 C 571.964 2.95111 -4.44686 0
M  V30 5899 O 572.187 4.09539 -3.97032 0
M  V30 5900 O 571.121 2.74149 -5.35841 0
M  V30 5901 H 574.947 0.414477 -3.00858 0
M  V30 5902 H 572.532 0.138598 -1.48756 0
M  V30 5903 H 574.414 2.86595 -3.08935 0
M  V30 5904 H 573.089 2.6043 -1.92244 0
M  V30 5905 H 571.996 1.00831 -3.60255 0
M  V30 5906 H 573.329 1.34557 -4.7345 0
M  V30 5907 N 574.981 1.5647 0.188427 0
M  V30 5908 C 576.397 1.50204 0.539532 0
M  V30 5909 C 576.597 0.78644 1.85519 0
M  V30 5910 O 575.653 0.339714 2.50204 0
M  V30 5911 C 576.966 2.94893 0.588103 0
M  V30 5912 C 578.514 3.05602 0.67648 0
M  V30 5913 C 578.989 4.51716 0.756101 0
M  V30 5914 N 580.48 4.55894 0.819451 0
M  V30 5915 C 581.215 5.66272 0.90134 0
M  V30 5916 N 580.711 6.86323 0.945118 0
M  V30 5917 N 582.504 5.54201 0.939043 0
M  V30 5918 H 574.655 2.01406 -0.674493 0
M  V30 5919 H 576.918 0.916828 -0.241103 0
M  V30 5920 H 576.624 3.50334 -0.309633 0
M  V30 5921 H 576.498 3.4861 1.44051 0
M  V30 5922 H 578.885 2.50206 1.56465 0
M  V30 5923 H 578.966 2.54999 -0.202262 0
M  V30 5924 H 578.61 5.07739 -0.12774 0
M  V30 5925 H 578.54 5.00058 1.65074 0
M  V30 5926 H 581.031 3.69452 0.794594 0
M  V30 5927 H 581.344 7.66194 1.0083 0
M  V30 5928 H 579.689 6.88968 0.913683 0
M  V30 5929 H 582.88 4.59333 0.901725 0
M  V30 5930 H 583.053 6.40247 0.999402 0
M  V30 5931 N 576.459 -0.456382 1.50847 0
M  V30 5932 C 577.406 -1.55249 1.70782 0
M  V30 5933 C 578.376 -1.56757 0.549231 0
M  V30 5934 O 579.561 -1.74061 0.7815 0
M  V30 5935 C 576.701 -2.93118 1.82143 0
M  V30 5936 C 575.814 -3.01285 3.09598 0
M  V30 5937 C 574.949 -4.30159 3.11667 0
M  V30 5938 C 573.988 -4.32124 4.33515 0
M  V30 5939 N 573.125 -5.52492 4.3324 0
M  V30 5940 H 577.965 -1.37555 2.64353 0
M  V30 5941 H 575.502 -0.668543 1.3103 0
M  V30 5942 H 577.46 -3.73088 1.86711 0
M  V30 5943 H 576.09 -3.09413 0.919978 0
M  V30 5944 H 575.142 -2.14096 3.14431 0
M  V30 5945 H 576.454 -2.98597 3.99551 0
M  V30 5946 H 575.608 -5.18489 3.15046 0
M  V30 5947 H 574.347 -4.35477 2.1957 0
M  V30 5948 H 573.352 -3.42189 4.30333 0
M  V30 5949 H 574.577 -4.28485 5.26856 0
M  V30 5950 H 572.523 -5.58567 3.44004 0
M  V30 5951 H 572.44 -5.51605 5.16979 0
M  V30 5952 H 573.708 -6.42906 4.40786 0
M  V30 5953 N 577.937 -1.40673 -0.710563 0
M  V30 5954 C 578.887 -1.37812 -1.81636 0
M  V30 5955 C 579.871 -0.254853 -1.58869 0
M  V30 5956 O 581.063 -0.494356 -1.69956 0
M  V30 5957 C 578.192 -1.24802 -3.19811 0
M  V30 5958 C 577.278 -2.41931 -3.48325 0
M  V30 5959 N 577.669 -3.67411 -3.47625 0
M  V30 5960 C 575.967 -2.35419 -3.78806 0
M  V30 5961 C 576.668 -4.45008 -3.74623 0
M  V30 5962 N 575.644 -3.74916 -3.93623 0
M  V30 5963 H 579.446 -2.32766 -1.79436 0
M  V30 5964 H 576.96 -1.34516 -0.909909 0
M  V30 5965 H 578.957 -1.20835 -3.99004 0
M  V30 5966 H 577.617 -0.308202 -3.23234 0
M  V30 5967 H 578.628 -4.00503 -3.28356 0
M  V30 5968 H 575.305 -1.4983 -3.89689 0
M  V30 5969 H 576.695 -5.53884 -3.80344 0
M  V30 5970 N 579.415 0.9433 -1.26252 0
M  V30 5971 C 580.831 1.21644 -1.03319 0
M  V30 5972 C 581.031 2.0003 0.242983 0
M  V30 5973 O 580.087 2.33838 0.952688 0
M  V30 5974 C 581.4 1.97978 -2.2633 0
M  V30 5975 C 582.948 2.10978 -2.31209 0
M  V30 5976 C 583.423 2.90713 -3.53907 0
M  V30 5977 N 584.914 2.98287 -3.54371 0
M  V30 5978 C 585.649 3.60406 -4.45976 0
M  V30 5979 N 585.145 4.24043 -5.47868 0
M  V30 5980 N 586.938 3.57658 -4.33633 0
M  V30 5981 H 579.089 0.419221 -2.08222 0
M  V30 5982 H 581.352 0.247995 -0.914988 0
M  V30 5983 H 581.058 1.47788 -3.19142 0
M  V30 5984 H 580.932 2.9865 -2.30408 0
M  V30 5985 H 583.319 2.6036 -1.38913 0
M  V30 5986 H 583.4 1.09575 -2.31143 0
M  V30 5987 H 583.044 2.42018 -4.46531 0
M  V30 5988 H 582.974 3.92367 -3.5122 0
M  V30 5989 H 585.465 2.53044 -2.80673 0
M  V30 5990 H 585.778 4.69334 -6.13959 0
M  V30 5991 H 584.123 4.22637 -5.51728 0
M  V30 5992 H 587.314 3.07134 -3.53251 0
M  V30 5993 H 587.487 4.05782 -5.05218 0
M  V30 5994 N 580.893 1.08022 1.14757 0
M  V30 5995 C 582.142 0.802468 1.8505 0
M  V30 5996 C 582.455 -0.674061 1.83619 0
M  V30 5997 O 583.661 -1.06683 2.49662 0
M  V30 5998 C 582.117 1.38551 3.32162 0
M  V30 5999 C 581.725 2.89354 3.42021 0
M  V30 6000 C 583.469 1.18608 4.07594 0
M  V30 6001 C 581.376 3.40815 4.83321 0
M  V30 6002 H 580.306 0.296518 0.693248 0
M  V30 6003 H 582.957 1.30114 1.29393 0
M  V30 6004 H 581.339 0.814556 3.87532 0
M  V30 6005 H 582.513 3.52552 2.96722 0
M  V30 6006 H 580.828 3.08165 2.80041 0
M  V30 6007 H 583.425 1.54525 5.11885 0
M  V30 6008 H 583.768 0.125599 4.1611 0
M  V30 6009 H 584.301 1.72375 3.58513 0
M  V30 6010 H 581.04 4.46418 4.79991 0
M  V30 6011 H 580.56 2.82374 5.29174 0
M  V30 6012 H 582.239 3.37171 5.522 0
M  V30 6013 N 582.371 -1.3172 0.865308 0
M  V30 6014 C 583.281 -2.32394 0.320935 0
M  V30 6015 C 584.297 -1.64511 -0.566746 0
M  V30 6016 O 585.473 -1.95969 -0.464575 0
M  V30 6017 C 582.538 -3.43462 -0.472701 0
M  V30 6018 C 581.599 -4.27015 0.442385 0
M  V30 6019 C 580.832 -5.32779 -0.313469 0
M  V30 6020 O 581.055 -5.49158 -1.54214 0
M  V30 6021 O 579.989 -6.01015 0.326257 0
M  V30 6022 H 583.815 -2.80868 1.15528 0
M  V30 6023 H 581.4 -1.35535 0.628545 0
M  V30 6024 H 583.282 -4.11172 -0.922781 0
M  V30 6025 H 581.957 -2.97159 -1.28367 0
M  V30 6026 H 580.864 -3.62075 0.940866 0
M  V30 6027 H 582.197 -4.76871 1.21882 0
M  V30 6028 N 583.85 -0.624285 -1.44708 0
M  V30 6029 C 585.127 -0.0572781 -1.95516 0
M  V30 6030 C 585.507 1.41516 -1.56641 0
M  V30 6031 O 584.855 2.12614 -0.837111 0
M  V30 6032 C 585.065 -0.272944 -3.47931 0
M  V30 6033 C 586.413 -0.162529 -4.24289 0
M  V30 6034 O 587.437 -0.203946 -3.55616 0
M  V30 6035 O 586.296 -0.0616847 -5.46465 0
M  V30 6036 H 583.389 0.0262219 -0.826584 0
M  V30 6037 H 585.936 -0.695512 -1.54793 0
M  V30 6038 H 584.707 -1.29492 -3.69253 0
M  V30 6039 H 584.331 0.399756 -3.95585 0
M  V30 6040 N 585.328 1.53329 -0.364422 0
M  V30 6041 C 586.291 2.24323 0.470292 0
M  V30 6042 C 587.291 1.25068 1.01067 0
M  V30 6043 O 588.481 1.49354 0.896605 0
M  V30 6044 C 585.613 2.97908 1.65722 0
M  V30 6045 H 586.806 2.9952 -0.150917 0
M  V30 6046 H 584.359 1.55868 -0.116092 0
M  V30 6047 H 585.094 2.2695 2.31655 0
M  V30 6048 H 584.879 3.70732 1.27671 0
M  V30 6049 H 586.369 3.5188 2.24878 0
M  V30 6050 N 586.806 0.0935595 1.57322 0
M  V30 6051 C 588.052 -0.571355 1.94585 0
M  V30 6052 C 588.385 -1.67929 0.975366 0
M  V30 6053 O 587.66 -1.94498 0.00816206 0
M  V30 6054 C 587.943 -1.12797 3.41978 0
M  V30 6055 C 587.796 -0.0251881 4.49793 0
M  V30 6056 C 589.115 -2.02682 3.90651 0
M  V30 6057 H 586.234 -0.206223 0.70756 0
M  V30 6058 H 588.876 0.163956 1.89291 0
M  V30 6059 H 587.026 -1.75461 3.4662 0
M  V30 6060 H 588.698 0.608979 4.57263 0
M  V30 6061 H 586.941 0.641399 4.29032 0
M  V30 6062 H 587.612 -0.455433 5.50118 0
M  V30 6063 H 590.088 -1.49925 3.88152 0
M  V30 6064 H 588.964 -2.38555 4.94351 0
M  V30 6065 H 589.225 -2.94362 3.29854 0
M  V30 6066 N 588.284 -1.56567 -0.180126 0
M  V30 6067 C 589.7 -1.50488 -0.531559 0
M  V30 6068 C 589.9 -0.796267 -1.851 0
M  V30 6069 O 588.956 -0.352978 -2.50021 0
M  V30 6070 C 590.269 -2.95201 -0.572456 0
M  V30 6071 C 591.817 -3.05957 -0.660264 0
M  V30 6072 C 592.292 -4.5211 -0.732135 0
M  V30 6073 N 593.783 -4.56322 -0.795262 0
M  V30 6074 C 594.518 -5.66742 -0.871296 0
M  V30 6075 N 594.014 -6.86815 -0.908708 0
M  V30 6076 N 595.807 -5.54691 -0.909639 0
M  V30 6077 H 587.958 -2.01045 0.685165 0
M  V30 6078 H 590.221 -0.915536 0.245962 0
M  V30 6079 H 589.927 -3.50165 0.328208 0
M  V30 6080 H 589.801 -3.49369 -1.422 0
M  V30 6081 H 592.188 -2.51032 -1.55136 0
M  V30 6082 H 592.269 -2.54888 0.215783 0
M  V30 6083 H 591.913 -5.07664 0.154664 0
M  V30 6084 H 591.843 -5.00926 -1.6242 0
M  V30 6085 H 594.334 -3.69868 -0.77499 0
M  V30 6086 H 594.647 -7.66718 -0.967654 0
M  V30 6087 H 592.992 -6.89443 -0.877132 0
M  V30 6088 H 596.183 -4.59804 -0.877353 0
M  V30 6089 H 596.356 -6.40768 -0.965434 0
M  V30 6090 N 589.762 0.448376 -1.51087 0
M  V30 6091 C 590.71 1.56407 -1.72161 0
M  V30 6092 C 591.704 1.58878 -0.587721 0
M  V30 6093 O 592.91 1.62755 -0.768822 0
M  V30 6094 H 589.285 0.519423 -0.543786 0
M  V30 6095 H 591.256 1.35803 -2.65707 0
M  V30 6096 C 590.005 2.94163 -1.85373 0
M  V30 6097 H 589.328 2.9299 -2.72024 0
M  V30 6098 H 590.768 3.71625 -2.04135 0
M  V30 6099 C 589.227 3.31317 -0.610803 0
M  V30 6100 O 589.757 4.00985 0.239636 0
M  V30 6101 N 587.963 2.86966 -0.458127 0
M  V30 6102 H 587.51 2.30443 -1.15124 0
M  V30 6103 H 587.468 3.12188 0.372289 0
M  V30 6104 N 591.24 1.41047 0.703093 0
M  V30 6105 C 592.203 1.42036 1.79884 0
M  V30 6106 C 593.203 0.312153 1.57741 0
M  V30 6107 O 594.393 0.571672 1.64553 0
M  V30 6108 C 591.525 1.22437 3.18154 0
M  V30 6109 H 592.718 2.39572 1.80403 0
M  V30 6110 H 590.271 1.27079 0.909977 0
M  V30 6111 H 591.006 0.257112 3.23279 0
M  V30 6112 H 590.791 2.02723 3.35627 0
M  V30 6113 H 592.281 1.25946 3.98155 0
M  V30 6114 N 592.718 -0.936591 1.26751 0
M  V30 6115 C 593.665 -2.03597 1.08706 0
M  V30 6116 C 594.635 -1.66097 -0.00926542 0
M  V30 6117 O 595.82 -1.90199 0.151377 0
M  V30 6118 C 592.96 -3.3727 0.73094 0
M  V30 6119 C 592.073 -3.87778 1.90399 0
M  V30 6120 C 591.208 -5.09859 1.49056 0
M  V30 6121 C 590.247 -5.5264 2.63164 0
M  V30 6122 N 589.384 -6.65921 2.22471 0
M  V30 6123 H 594.224 -2.18364 2.02784 0
M  V30 6124 H 591.761 -1.06985 1.00958 0
M  V30 6125 H 593.719 -4.14128 0.505328 0
M  V30 6126 H 592.349 -3.22337 -0.172868 0
M  V30 6127 H 591.401 -3.07279 2.2424 0
M  V30 6128 H 592.713 -4.15464 2.76028 0
M  V30 6129 H 591.867 -5.9419 1.22567 0
M  V30 6130 H 590.606 -4.8393 0.60524 0
M  V30 6131 H 589.611 -4.66863 2.90377 0
M  V30 6132 H 590.836 -5.80568 3.52303 0
M  V30 6133 H 588.782 -6.41667 1.36379 0
M  V30 6134 H 588.699 -6.93216 3.01641 0
M  V30 6135 H 589.967 -7.53616 1.99205 0
M  V30 6136 N 594.196 -1.08629 -1.14182 0
M  V30 6137 C 595.159 -0.722027 -2.1753 0
M  V30 6138 C 596.159 0.244305 -1.58933 0
M  V30 6139 O 597.349 0.0235545 -1.74184 0
M  V30 6140 C 594.481 -0.0663966 -3.40835 0
M  V30 6141 H 595.674 -1.63719 -2.51269 0
M  V30 6142 H 593.227 -0.884442 -1.28869 0
M  V30 6143 H 593.962 0.860389 -3.12678 0
M  V30 6144 H 593.747 -0.761598 -3.84632 0
M  V30 6145 H 595.237 0.173346 -4.1724 0
M  V30 6146 N 595.674 1.31259 -0.872281 0
M  V30 6147 C 596.637 2.26744 -0.334656 0
M  V30 6148 C 597.637 1.52307 0.515681 0
M  V30 6149 O 598.827 1.71148 0.324656 0
M  V30 6150 C 595.959 3.36841 0.524482 0
M  V30 6151 H 597.152 2.75812 -1.17762 0
M  V30 6152 H 594.705 1.42232 -0.648064 0
M  V30 6153 H 595.44 2.93069 1.38855 0
M  V30 6154 H 595.225 3.92009 -0.0844299 0
M  V30 6155 H 596.715 4.07944 0.892838 0
M  V30 6156 N 597.152 0.631951 1.44375 0
M  V30 6157 C 598.398 0.13697 2.02337 0
M  V30 6158 C 598.731 -1.23826 1.49602 0
M  V30 6159 O 598.006 -1.8221 0.680415 0
M  V30 6160 C 598.289 0.124536 3.59885 0
M  V30 6161 C 598.142 1.53217 4.229 0
M  V30 6162 C 599.461 -0.550481 4.36644 0
M  V30 6163 H 596.58 0.051247 0.735216 0
M  V30 6164 H 599.222 0.808581 1.71936 0
M  V30 6165 H 597.372 -0.44737 3.85916 0
M  V30 6166 H 599.044 2.15303 4.07973 0
M  V30 6167 H 597.287 2.0858 3.80364 0
M  V30 6168 H 597.958 1.4755 5.31914 0
M  V30 6169 H 600.434 -0.0641154 4.16051 0
M  V30 6170 H 599.31 -0.528371 5.46351 0
M  V30 6171 H 599.571 -1.62097 4.11311 0
M  V30 6172 N 598.631 -1.53133 0.372548 0
M  V30 6173 C 599.541 -2.29671 -0.478379 0
M  V30 6174 C 600.557 -1.35913 -1.08644 0
M  V30 6175 O 601.733 -1.68975 -1.09588 0
M  V30 6176 C 598.798 -3.07625 -1.599 0
M  V30 6177 C 597.859 -4.17061 -1.01776 0
M  V30 6178 C 597.092 -4.91289 -2.08497 0
M  V30 6179 O 597.315 -4.65442 -3.29727 0
M  V30 6180 O 596.249 -5.7705 -1.71164 0
M  V30 6181 H 600.075 -3.03355 0.144649 0
M  V30 6182 H 597.66 -1.48773 0.136729 0
M  V30 6183 H 599.542 -3.56281 -2.25038 0
M  V30 6184 H 598.217 -2.3677 -2.2073 0
M  V30 6185 H 597.124 -3.72641 -0.330098 0
M  V30 6186 H 598.457 -4.90102 -0.453915 0
M  V30 6187 N 600.109 -0.101901 -1.5727 0
M  V30 6188 C 601.019 0.868647 -2.17926 0
M  V30 6189 C 602.035 1.30527 -1.1506 0
M  V30 6190 O 603.211 1.37178 -1.47459 0
M  V30 6191 C 600.276 2.10727 -2.75309 0
M  V30 6192 C 599.337 1.7242 -3.93154 0
M  V30 6193 C 598.57 2.90377 -4.47791 0
M  V30 6194 O 598.793 4.05305 -4.01353 0
M  V30 6195 O 597.727 2.6845 -5.38719 0
M  V30 6196 H 601.553 0.382544 -3.01281 0
M  V30 6197 H 599.138 0.122812 -1.48894 0
M  V30 6198 H 601.02 2.83303 -3.11958 0
M  V30 6199 H 599.695 2.58376 -1.94996 0
M  V30 6200 H 598.602 0.970039 -3.61305 0
M  V30 6201 H 599.935 1.29528 -4.74851 0
M  V30 6202 N 601.587 1.56661 0.17182 0
M  V30 6203 C 602.835 1.81606 0.886774 0
M  V30 6204 C 603.156 0.678818 1.82803 0
M  V30 6205 O 602.426 -0.301354 1.93568 0
M  V30 6206 H 601.006 0.669934 0.330451 0
M  V30 6207 H 603.668 1.94142 0.171757 0
M  V30 6208 H 602.764 2.75634 1.46398 0
M  V30 6209 N 603.065 -0.440357 1.51323 0
M  V30 6210 C 604.314 -1.18697 1.63076 0
M  V30 6211 C 604.627 -1.92418 0.35136 0
M  V30 6212 O 605.833 -2.69258 0.348221 0
M  V30 6213 C 604.289 -2.15849 2.87988 0
M  V30 6214 C 603.897 -1.47789 4.22921 0
M  V30 6215 C 605.641 -2.90962 3.09098 0
M  V30 6216 C 603.548 -2.43407 5.38987 0
M  V30 6217 H 602.478 -0.44676 0.607389 0
M  V30 6218 H 605.129 -0.454313 1.77787 0
M  V30 6219 H 603.511 -2.92537 2.66905 0
M  V30 6220 H 604.685 -0.7668 4.54375 0
M  V30 6221 H 603 -0.848404 4.07665 0
M  V30 6222 H 605.597 -3.62584 3.92985 0
M  V30 6223 H 605.94 -3.52133 2.22053 0
M  V30 6224 H 606.473 -2.21381 3.30507 0
M  V30 6225 H 603.212 -1.86929 6.28282 0
M  V30 6226 H 602.732 -3.12579 5.11913 0
M  V30 6227 H 604.411 -3.046 5.70813 0
M  V30 6228 N 604.543 -1.41418 -0.695603 0
M  V30 6229 C 605.789 -1.40982 -1.4578 0
M  V30 6230 C 606.122 -0.0187763 -1.94191 0
M  V30 6231 O 605.397 0.95346 -1.69527 0
M  V30 6232 C 605.68 -2.41657 -2.66972 0
M  V30 6233 C 605.533 -3.89869 -2.24327 0
M  V30 6234 C 606.852 -2.39589 -3.69168 0
M  V30 6235 H 603.971 -0.513405 -0.528757 0
M  V30 6236 H 606.613 -1.72693 -0.792275 0
M  V30 6237 H 604.763 -2.14746 -3.23754 0
M  V30 6238 H 606.435 -4.27683 -1.72872 0
M  V30 6239 H 604.678 -4.04737 -1.56111 0
M  V30 6240 H 605.349 -4.55857 -3.11285 0
M  V30 6241 H 607.825 -2.63471 -3.2206 0
M  V30 6242 H 606.701 -3.12044 -4.51575 0
M  V30 6243 H 606.962 -1.41447 -4.18862 0
M  V30 6244 N 606.021 0.929856 -1.27246 0
M  V30 6245 C 606.984 2.01172 -1.09829 0
M  V30 6246 C 607.984 1.60743 -0.0429687 0
M  V30 6247 O 609.174 1.71813 -0.287373 0
M  V30 6248 C 606.306 3.34191 -0.673003 0
M  V30 6249 H 607.499 2.18054 -2.05895 0
M  V30 6250 H 605.052 1.11036 -1.10003 0
M  V30 6251 H 605.787 3.23009 0.289134 0
M  V30 6252 H 605.572 3.64892 -1.43515 0
M  V30 6253 H 607.062 4.13646 -0.573323 0
M  V30 6254 N 607.499 1.09233 1.13605 0
M  V30 6255 C 608.747 0.825525 1.84471 0
M  V30 6256 C 609.068 -0.650702 1.83823 0
M  V30 6257 O 608.338 -1.47204 1.29259 0
M  V30 6258 H 606.918 0.3024 0.683054 0
M  V30 6259 H 609.58 1.38006 1.37624 0
M  V30 6260 H 608.676 1.17727 2.89045 0
M  V30 6261 N 608.977 -1.30795 0.87923 0
M  V30 6262 C 610.225 -1.95974 0.493809 0
M  V30 6263 C 610.546 -1.69787 -0.959021 0
M  V30 6264 O 609.816 -1.01832 -1.67353 0
M  V30 6265 H 608.396 -0.725083 0.179622 0
M  V30 6266 H 611.058 -1.59432 1.12105 0
M  V30 6267 H 610.154 -3.05058 0.659263 0
M  V30 6268 N 610.455 -0.639598 -1.44038 0
M  V30 6269 C 611.703 -0.147188 -2.01563 0
M  V30 6270 C 612.024 1.2384 -1.50628 0
M  V30 6271 O 611.294 1.82452 -0.713316 0
M  V30 6272 H 609.874 -0.0514231 -0.745228 0
M  V30 6273 H 612.536 -0.828205 -1.76428 0
M  V30 6274 H 611.632 -0.121358 -3.11864 0
M  V30 6275 N 611.933 1.52934 -0.380664 0
M  V30 6276 C 613.179 2.01765 0.20458 0
M  V30 6277 C 613.512 1.26696 1.47179 0
M  V30 6278 O 612.787 0.364936 1.91046 0
M  V30 6279 C 613.07 3.56869 0.481269 0
M  V30 6280 C 612.923 4.42617 -0.800629 0
M  V30 6281 C 614.242 4.2121 1.27554 0
M  V30 6282 H 611.361 0.733388 0.0728803 0
M  V30 6283 H 614.003 1.83068 -0.50853 0
M  V30 6284 H 612.153 3.72932 1.08875 0
M  V30 6285 H 613.825 4.38323 -1.43773 0
M  V30 6286 H 612.068 4.09977 -1.4178 0
M  V30 6287 H 612.739 5.49134 -0.561791 0
M  V30 6288 H 615.215 4.09072 0.761514 0
M  V30 6289 H 614.091 5.29732 1.43788 0
M  V30 6290 H 614.352 3.78269 2.28833 0
M  V30 6291 N 613.412 0.11024 1.57214 0
M  V30 6292 C 614.64 -0.557834 1.99238 0
M  V30 6293 C 615.055 -1.60778 0.989734 0
M  V30 6294 O 614.412 -1.82491 -0.0186092 0
M  V30 6295 C 614.463 -1.19189 3.41286 0
M  V30 6296 O 614.184 -0.183919 4.37714 0
M  V30 6297 C 615.685 -1.94413 3.98395 0
M  V30 6298 H 612.905 -0.148392 0.654386 0
M  V30 6299 H 615.449 0.193996 2.03578 0
M  V30 6300 H 613.604 -1.89456 3.37913 0
M  V30 6301 H 614.018 -0.643475 5.20538 0
M  V30 6302 H 615.492 -2.34116 4.99894 0
M  V30 6303 H 615.969 -2.81592 3.3705 0
M  V30 6304 H 616.575 -1.28928 4.05287 0
M  V30 6305 N 614.89 -1.56749 -0.16351 0
M  V30 6306 C 615.82 -2.00042 -1.20438 0
M  V30 6307 C 616.801 -0.877256 -1.45733 0
M  V30 6308 O 617.986 -1.1439 -1.56935 0
M  V30 6309 C 615.116 -2.36697 -2.54149 0
M  V30 6310 C 614.07 -3.52046 -2.43408 0
M  V30 6311 C 613.396 -3.74466 -3.81679 0
M  V30 6312 C 614.696 -4.85247 -1.93216 0
M  V30 6313 H 616.39 -2.87244 -0.844477 0
M  V30 6314 H 613.936 -1.38194 -0.40478 0
M  V30 6315 H 615.889 -2.65582 -3.27176 0
M  V30 6316 H 614.613 -1.46414 -2.91943 0
M  V30 6317 H 613.272 -3.23301 -1.72834 0
M  V30 6318 H 612.92 -2.81461 -4.1688 0
M  V30 6319 H 612.62 -4.52084 -3.75359 0
M  V30 6320 H 614.144 -4.0576 -4.5628 0
M  V30 6321 H 615.558 -5.12957 -2.56023 0
M  V30 6322 H 613.955 -5.66556 -1.97825 0
M  V30 6323 H 615.025 -4.7672 -0.88689 0
M  V30 6324 N 616.368 0.432326 -1.51554 0
M  V30 6325 C 617.298 1.53242 -1.76179 0
M  V30 6326 C 618.279 1.58717 -0.611801 0
M  V30 6327 O 619.464 1.74364 -0.855033 0
M  V30 6328 C 616.594 2.91278 -1.89141 0
M  V30 6329 C 615.548 3.00663 -3.04608 0
M  V30 6330 C 614.874 4.40728 -3.02759 0
M  V30 6331 C 616.174 2.74281 -4.44485 0
M  V30 6332 H 617.868 1.32886 -2.68294 0
M  V30 6333 H 615.414 0.637841 -1.29103 0
M  V30 6334 H 617.367 3.68203 -2.04951 0
M  V30 6335 H 616.091 3.12877 -0.936785 0
M  V30 6336 H 614.75 2.26179 -2.88511 0
M  V30 6337 H 614.398 4.59301 -2.05065 0
M  V30 6338 H 614.098 4.47936 -3.80299 0
M  V30 6339 H 615.622 5.19619 -3.20669 0
M  V30 6340 H 617.036 3.40936 -4.60907 0
M  V30 6341 H 615.433 2.92893 -5.23769 0
M  V30 6342 H 616.503 1.69856 -4.54177 0
M  V30 6343 N 617.846 1.41785 0.688094 0
M  V30 6344 C 618.778 1.40159 1.81351 0
M  V30 6345 C 619.791 0.30262 1.59963 0
M  V30 6346 O 620.98 0.564841 1.69327 0
M  V30 6347 C 618.08 1.16517 3.1824 0
M  V30 6348 C 617.253 2.38597 3.66593 0
M  V30 6349 C 616.312 2.10699 4.82174 0
M  V30 6350 O 615.338 2.83798 4.93404 0
M  V30 6351 N 616.54 1.10187 5.69947 0
M  V30 6352 H 619.305 2.3716 1.83236 0
M  V30 6353 H 616.866 1.36494 0.870697 0
M  V30 6354 H 618.858 0.957941 3.93199 0
M  V30 6355 H 617.428 0.280873 3.11336 0
M  V30 6356 H 616.648 2.74974 2.82459 0
M  V30 6357 H 617.936 3.19919 3.95638 0
M  V30 6358 H 617.334 0.497016 5.63512 0
M  V30 6359 H 615.891 0.954518 6.44773 0
M  V30 6360 N 619.324 -0.923095 1.27737 0
M  V30 6361 C 620.287 -2.00587 1.10894 0
M  V30 6362 C 621.287 -1.60718 0.0514927 0
M  V30 6363 O 622.477 -1.71658 0.296481 0
M  V30 6364 C 619.609 -3.33829 0.690717 0
M  V30 6365 H 620.802 -2.16959 2.07048 0
M  V30 6366 H 618.355 -1.10451 1.1059 0
M  V30 6367 H 619.09 -3.23157 -0.272 0
M  V30 6368 H 618.875 -3.64125 1.45448 0
M  V30 6369 H 620.365 -4.13336 0.595252 0
M  V30 6370 N 620.802 -1.09834 -1.13024 0
M  V30 6371 C 621.765 -0.745058 -2.16752 0
M  V30 6372 C 622.765 0.227435 -1.59183 0
M  V30 6373 O 623.955 0.0050786 -1.74199 0
M  V30 6374 C 621.087 -0.102543 -3.40746 0
M  V30 6375 H 622.28 -1.66375 -2.49518 0
M  V30 6376 H 619.833 -0.898061 -1.27924 0
M  V30 6377 H 620.568 0.827177 -3.13573 0
M  V30 6378 H 620.353 -0.80235 -3.83803 0
M  V30 6379 H 621.843 0.129082 -4.174 0
M  V30 6380 N 622.28 1.30327 -0.886154 0
M  V30 6381 C 623.691 1.78243 -0.555554 0
M  V30 6382 C 624.042 1.72849 0.928314 0
M  V30 6383 O 623.167 1.30607 1.72542 0
M  V30 6384 C 623.762 3.23654 -1.00168 0
M  V30 6385 C 622.321 3.69401 -0.722471 0
M  V30 6386 C 621.468 2.50753 -1.18399 0
M  V30 6387 H 624.419 1.1718 -1.07026 0
M  V30 6388 H 624.44 3.79056 -0.331152 0
M  V30 6389 H 623.952 3.27548 -2.08169 0
M  V30 6390 H 622.053 3.70995 0.345496 0
M  V30 6391 H 622.166 4.60818 -1.31085 0
M  V30 6392 H 620.53 2.47452 -0.603303 0
M  V30 6393 H 621.313 2.57383 -2.27176 0
M  V30 6394 N 623.758 0.647228 1.43697 0
M  V30 6395 C 624.986 0.16575 2.06235 0
M  V30 6396 C 625.401 -1.1662 1.48476 0
M  V30 6397 O 624.758 -1.7187 0.613762 0
M  V30 6398 C 624.809 0.0621651 3.61447 0
M  V30 6399 O 624.53 1.34146 4.17057 0
M  V30 6400 C 626.031 -0.446102 4.4105 0
M  V30 6401 H 623.251 0.0871158 0.665321 0
M  V30 6402 H 625.795 0.886183 1.84301 0
M  V30 6403 H 623.95 -0.608794 3.82587 0
M  V30 6404 H 624.364 1.19675 5.10664 0
M  V30 6405 H 625.838 -0.46755 5.50016 0
M  V30 6406 H 626.315 -1.47627 4.13646 0
M  V30 6407 H 626.921 0.192159 4.24866 0
M  V30 6408 N 625.236 -1.5273 0.388769 0
M  V30 6409 C 626.166 -2.29353 -0.438111 0
M  V30 6410 C 627.147 -1.32719 -1.06394 0
M  V30 6411 O 628.332 -1.61612 -1.07681 0
M  V30 6412 C 625.462 -3.09995 -1.56589 0
M  V30 6413 C 624.416 -4.14509 -1.06613 0
M  V30 6414 C 623.742 -4.83372 -2.28594 0
M  V30 6415 C 625.042 -5.22127 -0.134459 0
M  V30 6416 H 626.736 -2.98723 0.201206 0
M  V30 6417 H 624.282 -1.43665 0.0982089 0
M  V30 6418 H 626.235 -3.62357 -2.15118 0
M  V30 6419 H 624.959 -2.38357 -2.23279 0
M  V30 6420 H 623.618 -3.63128 -0.503383 0
M  V30 6421 H 623.266 -4.08283 -2.93792 0
M  V30 6422 H 622.966 -5.54012 -1.95817 0
M  V30 6423 H 624.49 -5.38538 -2.87766 0
M  V30 6424 H 625.904 -5.69851 -0.627914 0
M  V30 6425 H 624.301 -6.00011 0.103534 0
M  V30 6426 H 625.371 -4.77971 0.816798 0
M  V30 6427 N 626.714 -0.118576 -1.57153 0
M  V30 6428 C 627.991 0.583062 -1.86708 0
M  V30 6429 C 628.371 1.84841 -1.01967 0
M  V30 6430 O 627.719 2.28288 -0.0984673 0
M  V30 6431 C 627.929 0.875912 -3.3783 0
M  V30 6432 C 629.277 1.22916 -4.0642 0
M  V30 6433 O 630.301 0.966188 -3.42846 0
M  V30 6434 O 629.16 1.72269 -5.18638 0
M  V30 6435 H 626.254 0.294185 -0.772906 0
M  V30 6436 H 628.8 -0.153048 -1.69008 0
M  V30 6437 H 627.572 -0.0207776 -3.91294 0
M  V30 6438 H 627.195 1.66719 -3.60958 0
M  V30 6439 N 628.193 1.56834 0.155195 0
M  V30 6440 C 629.103 2.009 1.21146 0
M  V30 6441 C 630.119 0.923029 1.475 0
M  V30 6442 O 631.295 1.23189 1.59331 0
M  V30 6443 C 628.36 2.37378 2.52691 0
M  V30 6444 C 627.421 3.59883 2.34057 0
M  V30 6445 C 626.654 3.94612 3.59329 0
M  V30 6446 O 626.877 3.30104 4.65175 0
M  V30 6447 O 625.811 4.87895 3.52479 0
M  V30 6448 H 629.637 2.9105 0.867371 0
M  V30 6449 H 627.222 1.44916 0.363298 0
M  V30 6450 H 629.104 2.61737 3.3026 0
M  V30 6451 H 627.779 1.50385 2.86646 0
M  V30 6452 H 626.686 3.40722 1.54465 0
M  V30 6453 H 628.019 4.47468 2.0502 0
M  V30 6454 N 629.671 -0.424282 1.51781 0
M  V30 6455 C 630.601 -1.52305 1.7699 0
M  V30 6456 C 631.582 -1.5839 0.620209 0
M  V30 6457 O 632.767 -1.73908 0.864268 0
M  V30 6458 C 629.897 -2.90271 1.90683 0
M  V30 6459 C 628.851 -2.99043 3.06198 0
M  V30 6460 C 628.177 -4.39116 3.05092 0
M  V30 6461 C 629.477 -2.7192 4.45934 0
M  V30 6462 H 631.171 -1.31461 2.68995 0
M  V30 6463 H 628.717 -0.630985 1.29439 0
M  V30 6464 H 630.67 -3.6711 2.06901 0
M  V30 6465 H 629.394 -3.12376 0.953365 0
M  V30 6466 H 628.053 -2.24646 2.89706 0
M  V30 6467 H 627.701 -4.58207 2.07498 0
M  V30 6468 H 627.401 -4.45912 3.82669 0
M  V30 6469 H 628.925 -5.17911 3.2342 0
M  V30 6470 H 630.339 -3.38487 4.62709 0
M  V30 6471 H 628.736 -2.90111 5.25315 0
M  V30 6472 H 629.806 -1.67445 4.55072 0
M  V30 6473 N 631.149 -1.42148 -0.680565 0
M  V30 6474 C 632.096 -1.45175 -1.79424 0
M  V30 6475 C 633.066 -0.304352 -1.63288 0
M  V30 6476 O 634.251 -0.507591 -1.83924 0
M  V30 6477 C 631.391 -1.35429 -3.17416 0
M  V30 6478 C 630.504 -2.60158 -3.4488 0
M  V30 6479 C 629.639 -2.42596 -4.72568 0
M  V30 6480 C 628.678 -3.62727 -4.93047 0
M  V30 6481 N 627.815 -3.44143 -6.11973 0
M  V30 6482 H 632.655 -2.40349 -1.76172 0
M  V30 6483 H 630.192 -1.19334 -0.860107 0
M  V30 6484 H 632.15 -1.27777 -3.97151 0
M  V30 6485 H 630.78 -0.438536 -3.19807 0
M  V30 6486 H 629.832 -2.78199 -2.5944 0
M  V30 6487 H 631.144 -3.49473 -3.55908 0
M  V30 6488 H 630.298 -2.32497 -5.60384 0
M  V30 6489 H 629.037 -1.50761 -4.63813 0
M  V30 6490 H 628.042 -3.73264 -4.03676 0
M  V30 6491 H 629.267 -4.55534 -5.03652 0
M  V30 6492 H 627.213 -2.5502 -6.04401 0
M  V30 6493 H 627.13 -4.27041 -6.23836 0
M  V30 6494 H 628.398 -3.37845 -7.02482 0
M  V30 6495 N 632.627 0.916307 -1.28225 0
M  V30 6496 C 633.557 2.0352 -1.14464 0
M  V30 6497 C 634.538 1.70045 -0.0430844 0
M  V30 6498 O 635.723 1.92954 -0.219619 0
M  V30 6499 C 632.853 3.37889 -0.803027 0
M  V30 6500 C 631.807 3.85516 -1.85908 0
M  V30 6501 C 631.133 5.1682 -1.37116 0
M  V30 6502 C 632.433 4.07655 -3.26519 0
M  V30 6503 H 634.127 2.1529 -2.08064 0
M  V30 6504 H 631.673 1.03446 -1.00174 0
M  V30 6505 H 633.626 4.15654 -0.693537 0
M  V30 6506 H 632.35 3.26164 0.168674 0
M  V30 6507 H 631.009 3.09953 -1.95767 0
M  V30 6508 H 630.657 5.01497 -0.38859 0
M  V30 6509 H 630.357 5.49657 -2.07728 0
M  V30 6510 H 631.881 5.97143 -1.27484 0
M  V30 6511 H 633.295 4.75953 -3.19596 0
M  V30 6512 H 631.692 4.51818 -3.94943 0
M  V30 6513 H 632.762 3.12553 -3.70727 0
M  V30 6514 N 634.105 1.10431 1.1244 0
M  V30 6515 C 635.015 0.765502 2.21759 0
M  V30 6516 C 636.031 -0.236966 1.72379 0
M  V30 6517 O 637.207 -0.0757329 2.01258 0
M  V30 6518 C 634.272 0.202316 3.46109 0
M  V30 6519 C 633.333 1.26205 4.1033 0
M  V30 6520 C 632.566 0.725648 5.28744 0
M  V30 6521 O 632.789 -0.447942 5.68638 0
M  V30 6522 O 631.723 1.48555 5.83279 0
M  V30 6523 H 635.549 1.67801 2.53133 0
M  V30 6524 H 633.134 0.879443 1.20773 0
M  V30 6525 H 635.016 -0.107918 4.21262 0
M  V30 6526 H 633.691 -0.683052 3.16411 0
M  V30 6527 H 632.598 1.62514 3.36957 0
M  V30 6528 H 633.931 2.12044 4.44183 0
M  V30 6529 N 635.583 -1.29855 0.893053 0
M  V30 6530 C 636.831 -1.9544 0.514566 0
M  V30 6531 C 637.152 -1.70795 -0.940959 0
M  V30 6532 O 636.422 -1.03601 -1.66264 0
M  V30 6533 H 635.002 -0.723137 0.187302 0
M  V30 6534 H 637.664 -1.58234 1.13789 0
M  V30 6535 H 636.76 -3.04341 0.691581 0
M  V30 6536 N 637.061 -0.65484 -1.43351 0
M  V30 6537 C 638.338 -0.0987371 -1.95351 0
M  V30 6538 C 638.718 1.38161 -1.59608 0
M  V30 6539 O 638.066 2.10791 -0.882021 0
M  V30 6540 C 638.276 -0.346684 -3.47274 0
M  V30 6541 C 639.624 -0.25249 -4.23849 0
M  V30 6542 O 640.648 -0.279332 -3.55103 0
M  V30 6543 O 639.507 -0.177584 -5.46211 0
M  V30 6544 H 636.601 0.0086829 -0.826954 0
M  V30 6545 H 639.147 -0.728189 -1.53282 0
M  V30 6546 H 637.919 -1.37296 -3.66423 0
M  V30 6547 H 637.542 0.315757 -3.96344 0
M  V30 6548 N 638.539 1.52521 -0.396863 0
M  V30 6549 C 639.449 2.30403 0.44178 0
M  V30 6550 C 640.465 1.37625 1.06468 0
M  V30 6551 O 641.641 1.70697 1.06886 0
M  V30 6552 C 638.706 3.1013 1.54986 0
M  V30 6553 C 637.767 4.18628 0.951279 0
M  V30 6554 C 637 4.94543 2.00655 0
M  V30 6555 O 637.223 4.70629 3.22281 0
M  V30 6556 O 636.157 5.797 1.61962 0
M  V30 6557 H 639.983 3.03087 -0.192892 0
M  V30 6558 H 637.568 1.48537 -0.16038 0
M  V30 6559 H 639.45 3.59816 2.19341 0
M  V30 6560 H 638.125 2.40251 2.16935 0
M  V30 6561 H 637.032 3.73119 0.270773 0
M  V30 6562 H 638.365 4.90763 0.375887 0
M  V30 6563 N 640.017 0.126909 1.57088 0
M  V30 6564 C 640.98 -0.806097 2.14557 0
M  V30 6565 C 641.98 -1.18918 1.08236 0
M  V30 6566 O 643.17 -1.11339 1.33975 0
M  V30 6567 C 640.302 -2.09116 2.69227 0
M  V30 6568 H 641.495 -0.306522 2.98329 0
M  V30 6569 H 639.048 -0.122393 1.5582 0
M  V30 6570 H 639.783 -2.63486 1.89065 0
M  V30 6571 H 639.568 -1.82588 3.46993 0
M  V30 6572 H 641.058 -2.75794 3.13572 0
M  V30 6573 N 641.495 -1.56914 -0.146875 0
M  V30 6574 C 642.723 -1.87515 -0.874394 0
M  V30 6575 C 643.138 -0.715116 -1.74733 0
M  V30 6576 O 642.495 0.315113 -1.79759 0
M  V30 6577 C 642.546 -3.17362 -1.731 0
M  V30 6578 O 642.267 -4.28897 -0.893245 0
M  V30 6579 C 643.768 -3.61479 -2.56609 0
M  V30 6580 H 640.988 -0.621546 -0.252827 0
M  V30 6581 H 643.532 -2.04023 -0.139627 0
M  V30 6582 H 641.687 -3.02608 -2.41883 0
M  V30 6583 H 642.101 -5.03146 -1.48137 0
M  V30 6584 H 643.575 -4.5517 -3.12289 0
M  V30 6585 H 644.052 -2.86773 -3.32653 0
M  V30 6586 H 644.658 -3.78927 -1.93117 0
M  V30 6587 N 642.974 0.416227 -1.52004 0
M  V30 6588 C 644.222 1.16153 -1.65387 0
M  V30 6589 C 644.543 1.91208 -0.382669 0
M  V30 6590 O 643.813 1.86413 0.602231 0
M  V30 6591 H 642.393 0.431765 -0.60958 0
M  V30 6592 H 645.055 0.475151 -1.89019 0
M  V30 6593 H 644.151 1.87952 -2.4916 0
M  V30 6594 N 644.452 1.42507 0.673017 0
M  V30 6595 C 645.415 1.4582 1.76831 0
M  V30 6596 C 646.415 0.345542 1.57043 0
M  V30 6597 O 647.605 0.606447 1.63303 0
M  V30 6598 C 644.737 1.29158 3.15485 0
M  V30 6599 H 645.93 2.43345 1.7528 0
M  V30 6600 H 643.483 1.28981 0.882817 0
M  V30 6601 H 644.218 0.325626 3.22661 0
M  V30 6602 H 644.003 2.09797 3.31252 0
M  V30 6603 H 645.493 1.34363 3.95394 0
M  V30 6604 N 645.93 -0.909495 1.28709 0
M  V30 6605 C 646.878 -2.03381 1.12866 0
M  V30 6606 C 647.872 -1.69335 0.0468074 0
M  V30 6607 O 649.078 -1.78819 0.205891 0
M  V30 6608 H 645.453 -0.666452 0.348348 0
M  V30 6609 H 647.424 -2.13885 2.08077 0
M  V30 6610 C 646.173 -3.38092 0.811742 0
M  V30 6611 H 645.496 -3.64786 1.63619 0
M  V30 6612 H 646.936 -4.17477 0.740869 0
M  V30 6613 C 645.395 -3.33395 -0.484679 0
M  V30 6614 O 645.925 -3.72089 -1.5137 0
M  V30 6615 N 644.131 -2.86491 -0.486961 0
M  V30 6616 H 643.678 -2.55199 0.350877 0
M  V30 6617 H 643.636 -2.83731 -1.3544 0
M  V30 6618 N 647.408 -1.11026 -1.11852 0
M  V30 6619 C 648.657 -0.851249 -1.82857 0
M  V30 6620 C 648.97 0.62514 -1.85341 0
M  V30 6621 O 650.176 1.00026 -2.52403 0
M  V30 6622 C 648.632 -1.47309 -3.28372 0
M  V30 6623 C 648.24 -2.9832 -3.34229 0
M  V30 6624 C 649.984 -1.29373 -4.04306 0
M  V30 6625 C 647.891 -3.53509 -4.74115 0
M  V30 6626 H 646.821 -0.314794 -0.685143 0
M  V30 6627 H 649.472 -1.33499 -1.25898 0
M  V30 6628 H 647.854 -0.917017 -3.85236 0
M  V30 6629 H 649.028 -3.60295 -2.87271 0
M  V30 6630 H 647.343 -3.15482 -2.71772 0
M  V30 6631 H 649.94 -1.68042 -5.07608 0
M  V30 6632 H 650.283 -0.235879 -4.15631 0
M  V30 6633 H 650.816 -1.8182 -3.53817 0
M  V30 6634 H 647.555 -4.58987 -4.67986 0
M  V30 6635 H 647.075 -2.96305 -5.21501 0
M  V30 6636 H 648.754 -3.51693 -5.43066 0
M  V30 6637 N 648.886 1.2938 -0.899927 0
M  V30 6638 C 650.132 1.9584 -0.526742 0
M  V30 6639 C 650.465 1.70774 0.924651 0
M  V30 6640 O 649.74 1.02084 1.65557 0
M  V30 6641 C 650.023 3.50638 -0.820062 0
M  V30 6642 C 649.876 3.85161 -2.32317 0
M  V30 6643 C 651.195 4.3903 -0.30671 0
M  V30 6644 H 648.314 0.711322 -0.192848 0
M  V30 6645 H 650.956 1.52992 -1.12665 0
M  V30 6646 H 649.106 3.87265 -0.309491 0
M  V30 6647 H 650.778 3.58477 -2.9033 0
M  V30 6648 H 649.021 3.32696 -2.78381 0
M  V30 6649 H 649.692 4.93204 -2.47898 0
M  V30 6650 H 652.168 4.09396 -0.743908 0
M  V30 6651 H 651.044 5.46226 -0.541144 0
M  V30 6652 H 651.305 4.34937 0.792588 0
M  V30 6653 N 650.364 0.662433 1.43002 0
M  V30 6654 C 651.311 -0.0235324 2.30788 0
M  V30 6655 C 652.281 -0.805342 1.4527 0
M  V30 6656 O 653.466 -0.78009 1.74124 0
M  V30 6657 C 650.606 -0.977545 3.30965 0
M  V30 6658 C 649.719 -0.190865 4.31578 0
M  V30 6659 C 648.854 -1.13951 5.18834 0
M  V30 6660 C 647.893 -0.343796 6.11134 0
M  V30 6661 N 647.03 -1.2445 6.90982 0
M  V30 6662 H 651.87 0.730921 2.88897 0
M  V30 6663 H 649.407 0.372197 1.42313 0
M  V30 6664 H 651.365 -1.54437 3.87563 0
M  V30 6665 H 649.995 -1.69877 2.74484 0
M  V30 6666 H 649.047 0.492388 3.772 0
M  V30 6667 H 650.359 0.427464 4.96965 0
M  V30 6668 H 649.513 -1.77666 5.80103 0
M  V30 6669 H 648.252 -1.79174 4.53595 0
M  V30 6670 H 647.257 0.30665 5.48944 0
M  V30 6671 H 648.482 0.304161 6.78419 0
M  V30 6672 H 646.428 -1.88336 6.28383 0
M  V30 6673 H 646.345 -0.680959 7.52927 0
M  V30 6674 H 647.613 -1.86952 7.56749 0
M  V30 6675 N 651.842 -1.52309 0.404946 0
M  V30 6676 C 653.088 -2.02065 -0.172455 0
M  V30 6677 C 653.421 -1.29022 -1.45145 0
M  V30 6678 O 652.696 -0.395284 -1.90441 0
M  V30 6679 C 652.979 -3.5759 -0.424433 0
M  V30 6680 C 652.832 -4.41287 0.870945 0
M  V30 6681 C 654.151 -4.23186 -1.20837 0
M  V30 6682 H 651.27 -0.734454 -0.0612035 0
M  V30 6683 H 653.912 -1.82236 0.53759 0
M  V30 6684 H 652.062 -3.74617 -1.02929 0
M  V30 6685 H 653.734 -4.3598 1.50729 0
M  V30 6686 H 651.977 -4.07669 1.48284 0
M  V30 6687 H 652.648 -5.48171 0.649083 0
M  V30 6688 H 655.124 -4.10232 -0.696338 0
M  V30 6689 H 654 -5.31953 -1.35343 0
M  V30 6690 H 654.261 -3.81862 -2.22786 0
M  V30 6691 N 653.32 -0.135238 -1.57019 0
M  V30 6692 C 654.283 0.794707 -2.14981 0
M  V30 6693 C 655.283 1.18342 -1.08866 0
M  V30 6694 O 656.473 1.10627 -1.34563 0
M  V30 6695 C 653.605 2.07685 -2.70333 0
M  V30 6696 H 654.798 0.290696 -2.98488 0
M  V30 6697 H 652.351 0.114128 -1.55883 0
M  V30 6698 H 653.086 2.6248 -1.9046 0
M  V30 6699 H 652.871 1.80745 -3.47957 0
M  V30 6700 H 654.361 2.74127 -3.1503 0
M  V30 6701 N 654.798 1.5699 0.138552 0
M  V30 6702 C 655.728 2.01933 1.17241 0
M  V30 6703 C 656.709 0.90033 1.44319 0
M  V30 6704 O 657.894 1.16872 1.55095 0
M  V30 6705 C 655.024 2.40711 2.50351 0
M  V30 6706 C 653.978 3.55874 2.37776 0
M  V30 6707 C 653.304 3.80491 3.75674 0
M  V30 6708 C 654.604 4.8826 1.85472 0
M  V30 6709 H 656.298 2.88551 0.798672 0
M  V30 6710 H 653.844 1.3882 0.382743 0
M  V30 6711 H 655.797 2.70754 3.22909 0
M  V30 6712 H 654.521 1.5104 2.89576 0
M  V30 6713 H 653.18 3.2601 1.67669 0
M  V30 6714 H 652.828 2.88057 4.12349 0
M  V30 6715 H 652.528 4.57998 3.68119 0
M  V30 6716 H 654.052 4.12967 4.49767 0
M  V30 6717 H 655.466 5.16965 2.4783 0
M  V30 6718 H 653.863 5.69631 1.88787 0
M  V30 6719 H 654.933 4.78071 0.810935 0
M  V30 6720 N 656.276 -0.40816 1.52223 0
M  V30 6721 C 657.186 -1.52202 1.78526 0
M  V30 6722 C 658.202 -1.60546 0.670892 0
M  V30 6723 O 659.378 -1.77242 0.956404 0
M  V30 6724 C 656.443 -2.87928 1.93128 0
M  V30 6725 C 655.504 -2.89463 3.17033 0
M  V30 6726 C 654.737 -4.18715 3.30929 0
M  V30 6727 O 654.96 -5.12662 2.50067 0
M  V30 6728 O 653.894 -4.27125 4.24084 0
M  V30 6729 H 657.72 -1.32911 2.73072 0
M  V30 6730 H 655.305 -0.594112 1.37079 0
M  V30 6731 H 657.187 -3.68426 2.04549 0
M  V30 6732 H 655.862 -3.07285 1.01772 0
M  V30 6733 H 654.769 -2.07815 3.11069 0
M  V30 6734 H 656.102 -2.75055 4.08174 0
M  V30 6735 N 657.755 -1.42862 -0.66545 0
M  V30 6736 C 658.718 -1.46756 -1.76055 0
M  V30 6737 C 659.718 -0.353866 -1.56858 0
M  V30 6738 O 660.908 -0.615099 -1.62979 0
M  V30 6739 C 658.04 -1.30829 -3.14796 0
M  V30 6740 H 659.233 -2.44271 -1.73987 0
M  V30 6741 H 656.786 -1.29447 -0.875965 0
M  V30 6742 H 657.521 -0.342733 -3.22484 0
M  V30 6743 H 657.306 -2.11551 -3.30134 0
M  V30 6744 H 658.796 -1.36458 -3.94676 0
M  V30 6745 N 659.233 0.902656 -1.29189 0
M  V30 6746 C 660.644 1.46809 -1.15343 0
M  V30 6747 C 660.995 1.94568 0.252517 0
M  V30 6748 O 660.12 1.83454 1.14777 0
M  V30 6749 C 660.715 2.66829 -2.08776 0
M  V30 6750 C 659.274 3.19518 -1.98961 0
M  V30 6751 C 658.421 1.92212 -1.99874 0
M  V30 6752 H 661.372 0.714282 -1.41717 0
M  V30 6753 H 661.393 3.42465 -1.65826 0
M  V30 6754 H 660.905 2.32039 -3.11094 0
M  V30 6755 H 659.006 3.59008 -0.99721 0
M  V30 6756 H 659.119 3.84016 -2.86477 0
M  V30 6757 H 657.483 2.0979 -1.44431 0
M  V30 6758 H 658.266 1.59702 -3.03891 0
M  V30 6759 N 660.711 1.11618 1.11262 0
M  V30 6760 C 661.641 0.79846 2.19424 0
M  V30 6761 C 662.622 -0.234003 1.68483 0
M  V30 6762 O 663.807 -0.0970704 1.93957 0
M  V30 6763 C 660.937 0.242892 3.4645 0
M  V30 6764 C 659.891 1.20744 4.10615 0
M  V30 6765 C 659.217 0.512494 5.32238 0
M  V30 6766 C 660.517 2.55884 4.55325 0
M  V30 6767 H 662.211 1.70286 2.46258 0
M  V30 6768 H 659.757 0.820195 1.18359 0
M  V30 6769 H 661.71 0.00840447 4.21399 0
M  V30 6770 H 660.434 -0.696811 3.1908 0
M  V30 6771 H 659.093 1.42759 3.37662 0
M  V30 6772 H 658.741 -0.432075 5.01141 0
M  V30 6773 H 658.441 1.15583 5.7612 0
M  V30 6774 H 659.965 0.286842 6.09926 0
M  V30 6775 H 661.379 2.37946 5.21588 0
M  V30 6776 H 659.776 3.16216 5.10027 0
M  V30 6777 H 660.846 3.14968 3.68678 0
M  V30 6778 N 662.189 -1.289 0.906776 0
M  V30 6779 C 663.136 -2.2751 0.388313 0
M  V30 6780 C 664.106 -1.57301 -0.533439 0
M  V30 6781 O 665.291 -1.85243 -0.457148 0
M  V30 6782 C 662.431 -3.43091 -0.37181 0
M  V30 6783 C 661.544 -4.28066 0.581647 0
M  V30 6784 C 660.679 -5.30837 -0.19623 0
M  V30 6785 C 659.718 -6.07472 0.751294 0
M  V30 6786 N 658.855 -7.021 0.00737727 0
M  V30 6787 H 663.695 -2.71237 1.23428 0
M  V30 6788 H 661.232 -1.33397 0.619962 0
M  V30 6789 H 663.19 -4.08888 -0.828641 0
M  V30 6790 H 661.82 -3.00374 -1.18218 0
M  V30 6791 H 660.872 -3.62378 1.157 0
M  V30 6792 H 662.184 -4.81382 1.30665 0
M  V30 6793 H 661.338 -6.02485 -0.71394 0
M  V30 6794 H 660.077 -4.78272 -0.954324 0
M  V30 6795 H 659.082 -5.34682 1.28044 0
M  V30 6796 H 660.307 -6.62126 1.50883 0
M  V30 6797 H 658.253 -6.51894 -0.732854 0
M  V30 6798 H 658.17 -7.53004 0.672334 0
M  V30 6799 H 659.438 -7.77956 -0.490365 0
M  V30 6800 N 663.667 -0.670007 -1.42649 0
M  V30 6801 C 664.599 0.0501746 -2.29145 0
M  V30 6802 C 665.612 0.770331 -1.43422 0
M  V30 6803 O 666.801 0.625288 -1.6719 0
M  V30 6804 C 663.901 1.09463 -3.20735 0
M  V30 6805 C 663.074 0.44926 -4.35087 0
M  V30 6806 C 662.133 1.39285 -5.07431 0
M  V30 6807 O 661.159 0.894997 -5.6212 0
M  V30 6808 N 662.361 2.72631 -5.12496 0
M  V30 6809 H 665.126 -0.692312 -2.91594 0
M  V30 6810 H 662.687 -0.514056 -1.53522 0
M  V30 6811 H 664.679 1.72705 -3.65999 0
M  V30 6812 H 663.249 1.73891 -2.59771 0
M  V30 6813 H 662.469 -0.362573 -3.92529 0
M  V30 6814 H 663.757 -0.000544776 -5.088 0
M  V30 6815 H 663.155 3.15623 -4.69467 0
M  V30 6816 H 661.712 3.31132 -5.61422 0
M  V30 6817 N 665.145 1.52092 -0.413018 0
M  V30 6818 C 666.394 2.01041 0.16287 0
M  V30 6819 C 666.707 1.30288 1.45892 0
M  V30 6820 O 667.913 1.70075 2.11629 0
M  V30 6821 C 666.369 3.58283 0.340806 0
M  V30 6822 C 665.977 4.37955 -0.943377 0
M  V30 6823 C 667.721 4.15452 0.871774 0
M  V30 6824 C 665.628 5.86847 -0.732417 0
M  V30 6825 H 664.558 0.751224 0.0646414 0
M  V30 6826 H 667.209 1.75404 -0.539059 0
M  V30 6827 H 665.591 3.80266 1.10516 0
M  V30 6828 H 666.765 4.2773 -1.71418 0
M  V30 6829 H 665.08 3.92122 -1.40105 0
M  V30 6830 H 667.677 5.24375 1.0457 0
M  V30 6831 H 668.02 3.73057 1.84755 0
M  V30 6832 H 668.553 3.97452 0.166377 0
M  V30 6833 H 665.292 6.33609 -1.67986 0
M  V30 6834 H 664.812 5.998 -0.000980058 0
M  V30 6835 H 666.491 6.45906 -0.376105 0
M  V30 6836 N 666.623 0.143563 1.56945 0
M  V30 6837 C 667.586 -0.783295 2.154 0
M  V30 6838 C 668.586 -1.17763 1.09492 0
M  V30 6839 O 669.776 -1.09912 1.35148 0
M  V30 6840 C 666.908 -2.06248 2.7143 0
M  V30 6841 H 668.101 -0.274863 2.98638 0
M  V30 6842 H 665.654 -0.105859 1.55941 0
M  V30 6843 H 666.389 -2.61466 1.91849 0
M  V30 6844 H 666.174 -1.78897 3.4891 0
M  V30 6845 H 667.664 -2.72453 3.16479 0
M  V30 6846 N 668.101 -1.57061 -0.130224 0
M  V30 6847 C 669.348 -1.84257 -0.839972 0
M  V30 6848 C 669.676 -0.726986 -1.80403 0
M  V30 6849 O 668.931 0.282632 -1.93648 0
M  V30 6850 C 669.23 -3.17878 -1.63365 0
M  V30 6851 C 668.896 -4.43475 -0.814891 0
M  V30 6852 C 667.558 -4.77581 -0.589066 0
M  V30 6853 C 669.91 -5.20631 -0.243437 0
M  V30 6854 C 667.238 -5.86292 0.218648 0
M  V30 6855 C 669.59 -6.30192 0.551408 0
M  V30 6856 C 668.254 -6.62837 0.787653 0
M  V30 6857 H 667.524 -0.674245 -0.307367 0
M  V30 6858 H 670.171 -1.91224 -0.102832 0
M  V30 6859 H 668.476 -3.06437 -2.44138 0
M  V30 6860 H 670.173 -3.3614 -2.18658 0
M  V30 6861 H 666.763 -4.16747 -1.00098 0
M  V30 6862 H 670.947 -4.94644 -0.405145 0
M  V30 6863 H 666.203 -6.10017 0.411016 0
M  V30 6864 H 670.377 -6.89165 1.00126 0
M  V30 6865 H 668.004 -7.46908 1.41537 0
M  V30 6866 N 669.579 0.400081 -1.52437 0
M  V30 6867 C 670.527 1.50851 -1.7705 0
M  V30 6868 C 671.521 1.56928 -0.637969 0
M  V30 6869 O 672.727 1.60226 -0.820212 0
M  V30 6870 H 669.102 0.50186 -0.560036 0
M  V30 6871 H 671.073 1.27281 -2.69893 0
M  V30 6872 C 669.822 2.88117 -1.94638 0
M  V30 6873 H 669.145 2.84187 -2.81208 0
M  V30 6874 H 670.585 3.64942 -2.15855 0
M  V30 6875 C 669.044 3.29206 -0.715899 0
M  V30 6876 O 669.574 4.01544 0.111944 0
M  V30 6877 N 667.78 2.85363 -0.549191 0
M  V30 6878 H 667.327 2.26664 -1.22397 0
M  V30 6879 H 667.285 3.13214 0.27278 0
M  V30 6880 N 671.057 1.43213 0.657864 0
M  V30 6881 C 672.282 1.48227 1.45064 0
M  V30 6882 C 672.707 0.0999939 1.87834 0
M  V30 6883 O 672.065 -0.905269 1.57081 0
M  V30 6884 C 672.113 2.42931 2.6649 0
M  V30 6885 O 671.217 1.91237 3.6538 0
M  V30 6886 H 670.558 0.501551 0.435135 0
M  V30 6887 H 673.088 1.8808 0.805431 0
M  V30 6888 H 673.098 2.6008 3.1436 0
M  V30 6889 H 671.773 3.43348 2.34701 0
M  V30 6890 H 670.35 1.83726 3.24498 0
M  V30 6891 N 672.536 -0.895792 1.29666 0
M  V30 6892 C 673.784 -1.64339 1.17631 0
M  V30 6893 C 674.105 -1.93099 -0.271643 0
M  V30 6894 O 673.375 -1.55981 -1.18518 0
M  V30 6895 H 671.955 -0.609162 0.432354 0
M  V30 6896 H 674.617 -1.07389 1.62646 0
M  V30 6897 H 673.713 -2.59815 1.72924 0
M  V30 6898 N 674.014 -1.12206 -1.10668 0
M  V30 6899 C 674.944 -0.810086 -2.18997 0
M  V30 6900 C 675.925 0.225065 -1.68604 0
M  V30 6901 O 677.11 0.086783 -1.94006 0
M  V30 6902 C 674.24 -0.261262 -3.46316 0
M  V30 6903 C 673.194 -1.2292 -4.09969 0
M  V30 6904 C 672.52 -0.540713 -5.31959 0
M  V30 6905 C 673.82 -2.58295 -4.53962 0
M  V30 6906 H 675.514 -1.7159 -2.45352 0
M  V30 6907 H 673.06 -0.82646 -1.17922 0
M  V30 6908 H 675.013 -0.0307522 -4.21389 0
M  V30 6909 H 673.737 0.679879 -3.19445 0
M  V30 6910 H 672.396 -1.44548 -3.369 0
M  V30 6911 H 672.044 0.405492 -5.01363 0
M  V30 6912 H 671.744 -1.18637 -5.75499 0
M  V30 6913 H 673.268 -0.319184 -6.09765 0
M  V30 6914 H 674.682 -2.40709 -5.20319 0
M  V30 6915 H 673.079 -3.18916 -5.08343 0
M  V30 6916 H 674.149 -3.16918 -3.67002 0
M  V30 6917 N 675.492 1.28418 -0.913599 0
M  V30 6918 C 676.402 2.31043 -0.406965 0
M  V30 6919 C 677.418 1.66501 0.505298 0
M  V30 6920 O 678.594 1.97558 0.391522 0
M  V30 6921 C 675.659 3.4498 0.344901 0
M  V30 6922 C 674.72 4.25078 -0.600563 0
M  V30 6923 C 673.953 5.33575 0.115516 0
M  V30 6924 O 674.176 5.54503 1.33727 0
M  V30 6925 O 673.11 5.9939 -0.549095 0
M  V30 6926 H 676.936 2.76387 -1.25873 0
M  V30 6927 H 674.521 1.33109 -0.678415 0
M  V30 6928 H 676.403 4.14314 0.769542 0
M  V30 6929 H 675.078 3.01719 1.1725 0
M  V30 6930 H 673.985 3.58334 -1.0746 0
M  V30 6931 H 675.318 4.72018 -1.39497 0
M  V30 6932 N 676.97 0.677563 1.42291 0
M  V30 6933 C 678.381 0.277912 1.8462 0
M  V30 6934 C 678.732 -1.18048 1.56714 0
M  V30 6935 O 677.857 -1.90404 1.02836 0
M  V30 6936 C 678.452 0.497619 3.35126 0
M  V30 6937 C 677.011 0.152063 3.76093 0
M  V30 6938 C 676.158 0.78872 2.65847 0
M  V30 6939 H 679.109 0.879527 1.32098 0
M  V30 6940 H 679.13 -0.24939 3.79682 0
M  V30 6941 H 678.642 1.55913 3.55405 0
M  V30 6942 H 676.743 -0.905896 3.6142 0
M  V30 6943 H 676.856 0.594514 4.75397 0
M  V30 6944 H 675.22 0.219813 2.5375 0
M  V30 6945 H 676.003 1.85374 2.88949 0
M  V30 6946 N 678.448 -1.51871 0.421078 0
M  V30 6947 C 679.696 -2.01539 -0.150492 0
M  V30 6948 C 680.017 -1.30803 -1.44623 0
M  V30 6949 O 679.287 -0.437568 -1.90951 0
M  V30 6950 H 677.867 -0.744698 -0.0586041 0
M  V30 6951 H 680.529 -1.8668 0.560059 0
M  V30 6952 H 679.625 -3.10264 -0.338068 0
M  V30 6953 N 679.926 -0.151884 -1.56866 0
M  V30 6954 C 681.172 0.498742 -1.96572 0
M  V30 6955 C 681.505 1.64194 -1.03702 0
M  V30 6956 O 680.78 1.94334 -0.0803432 0
M  V30 6957 C 681.063 1.00027 -3.45929 0
M  V30 6958 C 680.916 -0.141767 -4.49577 0
M  V30 6959 C 682.235 1.88044 -3.97904 0
M  V30 6960 H 679.354 0.17982 -0.714726 0
M  V30 6961 H 681.996 -0.234097 -1.88552 0
M  V30 6962 H 680.146 1.62476 -3.52894 0
M  V30 6963 H 681.818 -0.778269 -4.54687 0
M  V30 6964 H 680.061 -0.80019 -4.26356 0
M  V30 6965 H 680.732 0.250947 -5.51429 0
M  V30 6966 H 683.208 1.35416 -3.93449 0
M  V30 6967 H 682.084 2.20043 -5.02864 0
M  V30 6968 H 682.345 2.81916 -3.40552 0
M  V30 6969 N 681.404 1.57128 0.121893 0
M  V30 6970 C 682.65 1.84974 0.831418 0
M  V30 6971 C 682.983 0.737204 1.79663 0
M  V30 6972 O 682.258 -0.257199 1.92792 0
M  V30 6973 C 682.541 3.23397 1.58386 0
M  V30 6974 C 682.394 4.45246 0.638445 0
M  V30 6975 C 683.713 3.59355 2.54071 0
M  V30 6976 H 680.832 0.67282 0.300803 0
M  V30 6977 H 683.474 1.89759 0.0957587 0
M  V30 6978 H 681.624 3.19449 2.21098 0
M  V30 6979 H 683.296 4.61295 0.0203925 0
M  V30 6980 H 681.539 4.33771 -0.05023 0
M  V30 6981 H 682.21 5.38765 1.20151 0
M  V30 6982 H 684.686 3.64075 2.01465 0
M  V30 6983 H 683.562 4.57193 3.03752 0
M  V30 6984 H 683.823 2.86622 3.36601 0
M  V30 6985 N 682.882 -0.391992 1.52647 0
M  V30 6986 C 683.845 -1.46135 1.7657 0
M  V30 6987 C 684.845 -1.47701 0.635698 0
M  V30 6988 O 686.035 -1.48924 0.903728 0
M  V30 6989 C 683.167 -2.85443 1.86374 0
M  V30 6990 H 684.36 -1.26208 2.72051 0
M  V30 6991 H 681.913 -0.623549 1.43323 0
M  V30 6992 H 682.648 -3.10718 0.928685 0
M  V30 6993 H 682.433 -2.85708 2.68539 0
M  V30 6994 H 683.923 -3.62933 2.06566 0
M  V30 6995 N 684.36 -1.4356 -0.65026 0
M  V30 6996 C 685.27 -1.514 -1.79207 0
M  V30 6997 C 686.286 -0.400895 -1.69319 0
M  V30 6998 O 687.462 -0.655458 -1.90436 0
M  V30 6999 C 684.527 -1.43737 -3.155 0
M  V30 7000 C 683.588 -2.65743 -3.37163 0
M  V30 7001 C 682.821 -2.58436 -4.66954 0
M  V30 7002 O 683.044 -1.63374 -5.46503 0
M  V30 7003 O 681.978 -3.48984 -4.90402 0
M  V30 7004 H 685.804 -2.47825 -1.75547 0
M  V30 7005 H 683.389 -1.25594 -0.809111 0
M  V30 7006 H 685.271 -1.41916 -3.96784 0
M  V30 7007 H 683.946 -0.504488 -3.19745 0
M  V30 7008 H 682.853 -2.73136 -2.55632 0
M  V30 7009 H 684.186 -3.58014 -3.37768 0
M  V30 7010 N 685.838 0.888903 -1.30139 0
M  V30 7011 C 686.785 1.99422 -1.16188 0
M  V30 7012 C 687.755 1.66017 -0.0523869 0
M  V30 7013 O 688.94 1.89506 -0.221864 0
M  V30 7014 C 686.08 3.34325 -0.855612 0
M  V30 7015 C 685.193 3.80445 -2.0466 0
M  V30 7016 C 684.328 5.03975 -1.67876 0
M  V30 7017 C 683.367 5.42492 -2.83493 0
M  V30 7018 N 682.504 6.57206 -2.47032 0
M  V30 7019 H 687.344 2.10687 -2.10749 0
M  V30 7020 H 684.881 1.03165 -1.04859 0
M  V30 7021 H 686.839 4.11968 -0.658681 0
M  V30 7022 H 685.469 3.22756 0.0531155 0
M  V30 7023 H 684.521 2.98745 -2.3549 0
M  V30 7024 H 685.833 4.04933 -2.91257 0
M  V30 7025 H 684.987 5.89232 -1.44535 0
M  V30 7026 H 683.726 4.8135 -0.784431 0
M  V30 7027 H 682.731 4.55764 -3.07505 0
M  V30 7028 H 683.956 5.67093 -3.73607 0
M  V30 7029 H 681.902 6.36164 -1.601 0
M  V30 7030 H 681.819 6.81543 -3.27161 0
M  V30 7031 H 683.087 7.45704 -2.27038 0
M  V30 7032 N 687.317 1.12792 1.10072 0
M  V30 7033 C 688.563 0.886857 1.82381 0
M  V30 7034 C 688.896 -0.58576 1.85155 0
M  V30 7035 O 688.171 -1.43317 1.31493 0
M  V30 7036 C 688.454 1.46703 3.28862 0
M  V30 7037 C 688.307 3.00829 3.34398 0
M  V30 7038 C 689.626 1.12971 4.25353 0
M  V30 7039 H 686.745 0.32362 0.662148 0
M  V30 7040 H 689.387 1.39513 1.28982 0
M  V30 7041 H 687.537 1.03476 3.74466 0
M  V30 7042 H 689.209 3.52764 2.97247 0
M  V30 7043 H 687.452 3.36164 2.74183 0
M  V30 7044 H 688.123 3.36519 4.3756 0
M  V30 7045 H 690.599 1.50313 3.88001 0
M  V30 7046 H 689.475 1.56223 5.26199 0
M  V30 7047 H 689.736 0.0424452 4.4208 0
M  V30 7048 N 688.795 -1.27931 0.920396 0
M  V30 7049 C 690.211 -1.47085 0.619537 0
M  V30 7050 C 690.411 -1.83463 -0.833291 0
M  V30 7051 O 689.467 -1.94363 -1.61181 0
M  V30 7052 C 690.78 -2.56878 1.56314 0
M  V30 7053 C 692.328 -2.70743 1.57058 0
M  V30 7054 C 692.803 -3.83687 2.50097 0
M  V30 7055 N 694.294 -3.9105 2.48262 0
M  V30 7056 C 695.029 -4.77842 3.16945 0
M  V30 7057 N 694.525 -5.69176 3.94982 0
M  V30 7058 N 696.318 -4.71509 3.06 0
M  V30 7059 H 688.469 -1.02601 1.85975 0
M  V30 7060 H 690.732 -0.511682 0.798051 0
M  V30 7061 H 690.438 -2.36923 2.59923 0
M  V30 7062 H 690.312 -3.54117 1.29928 0
M  V30 7063 H 692.699 -2.90083 0.541832 0
M  V30 7064 H 692.78 -1.74015 1.8749 0
M  V30 7065 H 692.424 -3.65101 3.53077 0
M  V30 7066 H 692.354 -4.79827 2.16964 0
M  V30 7067 H 694.845 -3.25738 1.91581 0
M  V30 7068 H 695.158 -6.32245 4.44394 0
M  V30 7069 H 693.503 -5.68995 3.99086 0
M  V30 7070 H 696.694 -3.99151 2.44533 0
M  V30 7071 H 696.867 -5.38933 3.59799 0
M  V30 7072 N 690.273 -0.685099 -1.4193 0
M  V30 7073 C 691.221 -0.00165985 -2.326 0
M  V30 7074 C 692.215 0.779678 -1.50391 0
M  V30 7075 O 693.421 0.68648 -1.66395 0
M  V30 7076 H 689.796 0.0182616 -0.751778 0
M  V30 7077 H 691.767 -0.783592 -2.87928 0
M  V30 7078 C 690.516 0.928385 -3.35077 0
M  V30 7079 H 689.839 0.336578 -3.98381 0
M  V30 7080 H 691.279 1.37509 -4.01083 0
M  V30 7081 C 689.738 2.03964 -2.68142 0
M  V30 7082 O 690.268 3.12727 -2.5212 0
M  V30 7083 N 688.474 1.81433 -2.27003 0
M  V30 7084 H 688.021 0.929807 -2.40234 0
M  V30 7085 H 687.979 2.55973 -1.82552 0
M  V30 7086 N 691.751 1.51645 -0.429126 0
M  V30 7087 C 692.681 2.30434 0.377148 0
M  V30 7088 C 693.662 1.35493 1.02838 0
M  V30 7089 O 694.847 1.6441 1.03359 0
M  V30 7090 C 691.977 3.14038 1.48315 0
M  V30 7091 C 690.931 4.1719 0.955855 0
M  V30 7092 C 690.257 4.89263 2.15698 0
M  V30 7093 C 691.557 5.223 -0.00402136 0
M  V30 7094 H 693.251 2.98085 -0.280336 0
M  V30 7095 H 690.797 1.43354 -0.136265 0
M  V30 7096 H 692.75 3.67933 2.05435 0
M  V30 7097 H 691.474 2.44193 2.16881 0
M  V30 7098 H 690.133 3.64335 0.406929 0
M  V30 7099 H 689.781 4.15929 2.82864 0
M  V30 7100 H 689.481 5.59009 1.81059 0
M  V30 7101 H 691.005 5.45978 2.73387 0
M  V30 7102 H 692.419 5.71315 0.476607 0
M  V30 7103 H 690.816 5.99525 -0.26258 0
M  V30 7104 H 691.886 4.75638 -0.943236 0
M  V30 7105 N 693.229 0.160201 1.56784 0
M  V30 7106 C 694.64 -0.358417 1.83227 0
M  V30 7107 C 694.991 -1.63831 1.07952 0
M  V30 7108 O 694.116 -2.13885 0.328995 0
M  V30 7109 C 694.711 -0.657058 3.32368 0
M  V30 7110 C 693.27 -1.12015 3.59346 0
M  V30 7111 C 692.417 -0.15015 2.76893 0
M  V30 7112 H 695.368 0.384669 1.53967 0
M  V30 7113 H 695.389 -1.51033 3.49241 0
M  V30 7114 H 694.901 0.274647 3.87127 0
M  V30 7115 H 693.002 -2.06734 3.09987 0
M  V30 7116 H 693.115 -1.037 4.67743 0
M  V30 7117 H 691.479 -0.645361 2.46388 0
M  V30 7118 H 692.262 0.775379 3.34429 0
M  V30 7119 N 694.707 -1.5719 -0.113559 0
M  V30 7120 C 695.67 -1.99796 -1.12314 0
M  V30 7121 C 696.67 -0.888847 -1.34001 0
M  V30 7122 O 697.86 -1.15476 -1.30426 0
M  V30 7123 C 694.992 -2.34279 -2.47641 0
M  V30 7124 H 696.185 -2.90193 -0.756825 0
M  V30 7125 H 693.738 -1.52144 -0.358029 0
M  V30 7126 H 694.473 -1.46778 -2.89183 0
M  V30 7127 H 694.258 -3.15175 -2.33253 0
M  V30 7128 H 695.748 -2.67963 -3.2029 0
M  V30 7129 N 696.185 0.383891 -1.52853 0
M  V30 7130 C 697.433 1.12619 -1.67814 0
M  V30 7131 C 697.754 1.90354 -0.423141 0
M  V30 7132 O 697.024 1.87649 0.562554 0
M  V30 7133 H 695.604 0.418738 -0.618601 0
M  V30 7134 H 698.266 0.43495 -1.89985 0
M  V30 7135 H 697.362 1.82624 -2.5309 0
M  V30 7136 N 697.663 1.43903 0.642637 0
M  V30 7137 C 698.613 1.46321 1.74854 0
M  V30 7138 C 699.597 0.330361 1.57472 0
M  V30 7139 O 700.789 0.574881 1.67404 0
M  V30 7140 C 697.918 1.39919 3.13493 0
M  V30 7141 C 697.004 2.58274 3.36385 0
M  V30 7142 N 697.395 3.83578 3.29699 0
M  V30 7143 C 695.693 2.53224 3.67142 0
M  V30 7144 C 696.394 4.62375 3.52965 0
M  V30 7145 N 695.37 3.93269 3.75287 0
M  V30 7146 H 699.172 2.41062 1.68126 0
M  V30 7147 H 696.686 1.38704 0.844693 0
M  V30 7148 H 698.683 1.39735 3.92785 0
M  V30 7149 H 697.343 0.46207 3.21395 0
M  V30 7150 H 698.354 4.15713 3.08874 0
M  V30 7151 H 695.031 1.68252 3.82096 0
M  V30 7152 H 696.421 5.714 3.53485 0
M  V30 7153 N 699.141 -0.881989 1.30609 0
M  V30 7154 C 700.389 -1.63082 1.19368 0
M  V30 7155 C 700.71 -1.93376 -0.251147 0
M  V30 7156 O 699.98 -1.5723 -1.16857 0
M  V30 7157 H 698.56 -0.604542 0.438791 0
M  V30 7158 H 701.222 -1.05658 1.63776 0
M  V30 7159 H 700.318 -2.57966 1.7567 0
M  V30 7160 N 700.619 -1.13374 -1.09472 0
M  V30 7161 C 701.549 -0.833268 -2.18126 0
M  V30 7162 C 702.53 0.207169 -1.68834 0
M  V30 7163 O 703.715 0.0662012 -1.94087 0
M  V30 7164 C 700.845 -0.297979 -3.46019 0
M  V30 7165 C 699.799 -1.27261 -4.08642 0
M  V30 7166 C 699.125 -0.597104 -5.31356 0
M  V30 7167 C 700.425 -2.63095 -4.51197 0
M  V30 7168 H 702.119 -1.74182 -2.43518 0
M  V30 7169 H 699.665 -0.838921 -1.17039 0
M  V30 7170 H 701.618 -0.0754444 -4.21332 0
M  V30 7171 H 700.342 0.645959 -3.20148 0
M  V30 7172 H 699.001 -1.48113 -3.35348 0
M  V30 7173 H 698.649 0.352293 -5.01765 0
M  V30 7174 H 698.349 -1.24734 -5.74208 0
M  V30 7175 H 699.873 -0.38384 -6.09392 0
M  V30 7176 H 701.287 -2.46214 -5.17737 0
M  V30 7177 H 699.684 -3.2429 -5.04932 0
M  V30 7178 H 700.754 -3.20793 -3.6362 0
M  V30 7179 N 702.098 1.27442 -0.927168 0
M  V30 7180 C 703.046 2.28844 -0.416333 0
M  V30 7181 C 704.04 1.61882 0.499057 0
M  V30 7182 O 705.246 1.75969 0.378817 0
M  V30 7183 H 701.621 0.742989 -0.116065 0
M  V30 7184 H 703.592 2.69344 -1.28438 0
M  V30 7185 C 702.341 3.4626 0.316107 0
M  V30 7186 H 701.664 3.97999 -0.379082 0
M  V30 7187 H 703.104 4.19173 0.637975 0
M  V30 7188 C 701.563 3.00211 1.5289 0
M  V30 7189 O 702.093 3.03837 2.62766 0
M  V30 7190 N 700.299 2.55713 1.38054 0
M  V30 7191 H 699.846 2.52962 0.4866 0
M  V30 7192 H 699.804 2.25264 2.19325 0
M  V30 7193 N 703.576 0.692616 1.41565 0
M  V30 7194 C 704.539 0.0344174 2.29174 0
M  V30 7195 C 705.539 -0.710961 1.44229 0
M  V30 7196 O 706.729 -0.546293 1.65412 0
M  V30 7197 C 703.861 -0.961682 3.27054 0
M  V30 7198 H 705.054 0.805755 2.88873 0
M  V30 7199 H 702.607 0.455947 1.49502 0
M  V30 7200 H 703.342 -1.76089 2.72329 0
M  V30 7201 H 703.127 -0.430375 3.89731 0
M  V30 7202 H 704.617 -1.4201 3.92712 0
M  V30 7203 N 705.054 -1.51416 0.437162 0
M  V30 7204 C 705.986 -2.255 -0.410171 0
M  V30 7205 C 706.999 -1.29511 -0.986444 0
M  V30 7206 O 708.188 -1.55266 -0.880614 0
M  V30 7207 C 705.288 -2.99511 -1.58575 0
M  V30 7208 C 704.461 -4.22595 -1.12839 0
M  V30 7209 C 703.52 -4.79187 -2.17407 0
M  V30 7210 O 702.546 -5.4103 -1.76849 0
M  V30 7211 N 703.748 -4.63204 -3.49889 0
M  V30 7212 H 706.513 -2.98856 0.224783 0
M  V30 7213 H 704.074 -1.59699 0.266041 0
M  V30 7214 H 706.066 -3.34258 -2.28152 0
M  V30 7215 H 704.636 -2.29167 -2.12606 0
M  V30 7216 H 703.856 -3.93344 -0.259695 0
M  V30 7217 H 705.144 -5.02468 -0.800196 0
M  V30 7218 H 704.542 -4.13945 -3.85573 0
M  V30 7219 H 703.099 -5.02313 -4.15361 0
M  V30 7220 N 706.532 -0.168513 -1.56696 0
M  V30 7221 C 707.76 0.483503 -2.01171 0
M  V30 7222 C 708.175 1.56994 -1.04872 0
M  V30 7223 O 707.532 1.82434 -0.0491337 0
M  V30 7224 C 707.583 1.0644 -3.45475 0
M  V30 7225 O 707.304 0.0213375 -4.38095 0
M  V30 7226 C 708.805 1.79493 -4.05336 0
M  V30 7227 H 706.025 0.124002 -0.659443 0
M  V30 7228 H 708.569 -0.269419 -2.02717 0
M  V30 7229 H 706.724 1.76784 -3.44712 0
M  V30 7230 H 707.138 0.449837 -5.22567 0
M  V30 7231 H 708.612 2.15401 -5.08238 0
M  V30 7232 H 709.089 2.68889 -3.47269 0
M  V30 7233 H 709.695 1.13798 -4.09793 0
M  V30 7234 N 708.01 1.57248 0.105221 0
M  V30 7235 C 709.258 1.85204 0.808951 0
M  V30 7236 C 709.579 0.75574 1.7976 0
M  V30 7237 O 708.849 -0.218984 1.94672 0
M  V30 7238 H 707.429 0.683346 0.301739 0
M  V30 7239 H 710.091 1.94695 0.0892605 0
M  V30 7240 H 709.187 2.81595 1.34575 0
M  V30 7241 N 709.488 -0.375779 1.53054 0
M  V30 7242 C 710.734 -1.12114 1.68992 0
M  V30 7243 C 711.067 -1.8926 0.435238 0
M  V30 7244 O 710.342 -1.86044 -0.567278 0
M  V30 7245 C 710.625 -2.08867 2.93337 0
M  V30 7246 C 710.478 -1.35397 4.28938 0
M  V30 7247 C 711.797 -3.09124 3.13257 0
M  V30 7248 H 708.916 -0.406207 0.614951 0
M  V30 7249 H 711.558 -0.403054 1.85676 0
M  V30 7250 H 709.708 -2.70102 2.79244 0
M  V30 7251 H 711.38 -0.770242 4.54824 0
M  V30 7252 H 709.623 -0.655801 4.28814 0
M  V30 7253 H 710.294 -2.06161 5.12056 0
M  V30 7254 H 712.77 -2.57987 3.26469 0
M  V30 7255 H 711.646 -3.74054 4.01715 0
M  V30 7256 H 711.907 -3.78729 2.28072 0
M  V30 7257 N 710.966 -1.44241 -0.634997 0
M  V30 7258 C 712.196 -1.50078 -1.41987 0
M  V30 7259 C 712.604 -0.123072 -1.88799 0
M  V30 7260 O 711.947 0.880552 -1.6122 0
M  V30 7261 C 712.009 -2.40033 -2.67628 0
M  V30 7262 C 711.673 -3.87268 -2.42637 0
M  V30 7263 C 712.67 -4.77902 -2.04708 0
M  V30 7264 C 710.355 -4.31933 -2.56396 0
M  V30 7265 C 712.349 -6.11202 -1.80862 0
M  V30 7266 C 710.036 -5.65281 -2.32164 0
M  V30 7267 C 711.034 -6.54734 -1.94455 0
M  V30 7268 O 710.722 -7.85613 -1.7049 0
M  V30 7269 H 710.454 -0.51146 -0.442023 0
M  V30 7270 H 713.008 -1.89843 -0.784138 0
M  V30 7271 H 711.238 -1.95188 -3.33824 0
M  V30 7272 H 712.927 -2.36863 -3.29622 0
M  V30 7273 H 713.693 -4.44668 -1.93638 0
M  V30 7274 H 709.572 -3.62569 -2.84719 0
M  V30 7275 H 713.116 -6.80983 -1.51353 0
M  V30 7276 H 709.013 -5.98078 -2.42843 0
M  V30 7277 H 709.781 -7.97373 -1.84767 0
M  V30 7278 N 712.444 0.87505 -1.31075 0
M  V30 7279 C 713.354 2.01441 -1.20244 0
M  V30 7280 C 714.37 1.73584 -0.120227 0
M  V30 7281 O 715.546 1.98559 -0.337063 0
M  V30 7282 C 712.611 3.34675 -0.905199 0
M  V30 7283 C 711.672 3.75889 -2.0738 0
M  V30 7284 C 710.905 5.02764 -1.79064 0
M  V30 7285 O 711.128 5.65795 -0.723318 0
M  V30 7286 O 710.062 5.40623 -2.64594 0
M  V30 7287 H 713.888 2.13509 -2.1598 0
M  V30 7288 H 711.473 1.00257 -1.10765 0
M  V30 7289 H 713.355 4.1458 -0.755057 0
M  V30 7290 H 712.03 3.23692 0.0221695 0
M  V30 7291 H 710.937 2.96645 -2.27931 0
M  V30 7292 H 712.27 3.91489 -2.98324 0
M  V30 7293 N 713.922 1.13953 1.08869 0
M  V30 7294 C 715.199 0.815768 1.77777 0
M  V30 7295 C 715.579 -0.691624 1.99449 0
M  V30 7296 O 714.927 -1.63085 1.60049 0
M  V30 7297 C 715.137 1.60916 3.09689 0
M  V30 7298 C 716.485 1.80549 3.84301 0
M  V30 7299 O 717.509 1.57562 3.19457 0
M  V30 7300 O 716.368 2.18946 5.00724 0
M  V30 7301 H 713.462 0.298445 0.771271 0
M  V30 7302 H 716.008 1.24446 1.15374 0
M  V30 7303 H 714.78 2.6333 2.89435 0
M  V30 7304 H 714.403 1.17578 3.79817 0
M  V30 7305 N 715.4 -1.26948 0.933913 0
M  V30 7306 C 716.33 -2.29017 0.45534 0
M  V30 7307 C 717.311 -1.62961 -0.487605 0
M  V30 7308 O 718.496 -1.90223 -0.391022 0
M  V30 7309 C 715.626 -3.46112 -0.287015 0
M  V30 7310 C 714.58 -4.24205 0.568682 0
M  V30 7311 C 713.906 -5.3384 -0.303206 0
M  V30 7312 C 715.206 -4.88954 1.83633 0
M  V30 7313 H 716.9 -2.69298 1.30839 0
M  V30 7314 H 714.446 -1.29459 0.630579 0
M  V30 7315 H 716.399 -4.16622 -0.6328 0
M  V30 7316 H 715.123 -3.04765 -1.17414 0
M  V30 7317 H 713.782 -3.5545 0.897261 0
M  V30 7318 H 713.43 -4.88734 -1.18947 0
M  V30 7319 H 713.13 -5.86998 0.265879 0
M  V30 7320 H 714.654 -6.0719 -0.644423 0
M  V30 7321 H 716.068 -5.51717 1.55823 0
M  V30 7322 H 714.465 -5.52198 2.34941 0
M  V30 7323 H 715.535 -4.12305 2.55211 0
M  V30 7324 N 716.879 -0.700114 -1.41195 0
M  V30 7325 C 717.809 -0.0521132 -2.33442 0
M  V30 7326 C 718.79 0.76228 -1.52063 0
M  V30 7327 O 719.975 0.714336 -1.80585 0
M  V30 7328 C 717.105 0.881693 -3.35922 0
M  V30 7329 C 716.059 0.174062 -4.27646 0
M  V30 7330 C 715.385 1.22254 -5.20536 0
M  V30 7331 C 716.685 -0.962396 -5.13357 0
M  V30 7332 H 718.379 -0.822574 -2.87879 0
M  V30 7333 H 715.925 -0.397011 -1.38419 0
M  V30 7334 H 717.878 1.34429 -3.99383 0
M  V30 7335 H 716.602 1.68387 -2.79845 0
M  V30 7336 H 715.261 -0.268551 -3.65615 0
M  V30 7337 H 714.909 2.01736 -4.60773 0
M  V30 7338 H 714.609 0.754038 -5.82742 0
M  V30 7339 H 716.133 1.68555 -5.86874 0
M  V30 7340 H 717.547 -0.579875 -5.7036 0
M  V30 7341 H 715.944 -1.35828 -5.84526 0
M  V30 7342 H 717.014 -1.80003 -4.50252 0
M  V30 7343 N 718.357 1.51182 -0.445186 0
M  V30 7344 C 719.32 2.26501 0.350722 0
M  V30 7345 C 720.32 1.3025 0.942952 0
M  V30 7346 O 721.51 1.53897 0.816175 0
M  V30 7347 C 718.642 3.06274 1.49697 0
M  V30 7348 H 719.835 2.98299 -0.309474 0
M  V30 7349 H 717.388 1.55034 -0.198551 0
M  V30 7350 H 718.123 2.38911 2.19299 0
M  V30 7351 H 717.908 3.76979 1.0784 0
M  V30 7352 H 719.398 3.63306 2.05909 0
M  V30 7353 N 719.835 0.176821 1.56605 0
M  V30 7354 C 720.798 -0.737429 2.17013 0
M  V30 7355 C 721.798 -1.15414 1.11965 0
M  V30 7356 O 722.988 -1.0702 1.37449 0
M  V30 7357 C 720.12 -2.00445 2.75744 0
M  V30 7358 H 721.313 -0.211455 2.99154 0
M  V30 7359 H 718.866 -0.0727582 1.56131 0
M  V30 7360 H 719.601 -2.57338 1.97352 0
M  V30 7361 H 719.386 -1.71456 3.52626 0
M  V30 7362 H 720.876 -2.65679 3.22187 0
M  V30 7363 N 721.313 -1.57302 -0.09688 0
M  V30 7364 C 722.561 -1.8563 -0.799117 0
M  V30 7365 C 722.882 -0.765263 -1.79356 0
M  V30 7366 O 722.152 0.208657 -1.94786 0
M  V30 7367 H 720.732 -0.684937 -0.298111 0
M  V30 7368 H 723.394 -1.9474 -0.0789341 0
M  V30 7369 H 722.49 -2.82305 -1.3308 0
M  V30 7370 N 722.791 0.367657 -1.53252 0
M  V30 7371 C 724.037 1.11216 -1.69584 0
M  V30 7372 C 724.37 1.89026 -0.445269 0
M  V30 7373 O 723.645 1.86342 0.557404 0
M  V30 7374 C 723.928 2.07308 -2.94441 0
M  V30 7375 C 723.781 1.3312 -4.2965 0
M  V30 7376 C 725.1 3.07459 -3.14892 0
M  V30 7377 H 722.219 0.40294 -0.617096 0
M  V30 7378 H 724.861 0.393201 -1.85887 0
M  V30 7379 H 723.011 2.68617 -2.80673 0
M  V30 7380 H 724.683 0.746111 -4.55226 0
M  V30 7381 H 722.926 0.633051 -4.29156 0
M  V30 7382 H 723.597 2.03443 -5.13142 0
M  V30 7383 H 726.073 2.56252 -3.27832 0
M  V30 7384 H 724.949 3.71919 -4.03693 0
M  V30 7385 H 725.21 3.77514 -2.30077 0
M  V30 7386 N 724.269 1.44576 0.627338 0
M  V30 7387 C 725.232 1.51372 1.72102 0
M  V30 7388 C 726.232 0.395329 1.55865 0
M  V30 7389 O 727.422 0.658094 1.61291 0
M  V30 7390 C 724.554 1.39129 3.11217 0
M  V30 7391 H 725.747 2.48798 1.6745 0
M  V30 7392 H 723.3 1.31724 0.841336 0
M  V30 7393 H 724.035 0.428114 3.21462 0
M  V30 7394 H 723.82 2.20229 3.24409 0
M  V30 7395 H 725.31 1.46874 3.90919 0
M  V30 7396 N 725.747 -0.868086 1.31537 0
M  V30 7397 C 727.024 -1.60384 1.11965 0
M  V30 7398 C 727.404 -2.08584 -0.324949 0
M  V30 7399 O 726.752 -1.86561 -1.31937 0
M  V30 7400 C 726.962 -2.76038 2.13551 0
M  V30 7401 C 728.31 -3.45954 2.46173 0
M  V30 7402 O 729.334 -2.86247 2.11993 0
M  V30 7403 O 728.193 -4.53666 3.04711 0
M  V30 7404 H 725.287 -0.705705 0.431172 0
M  V30 7405 H 727.833 -0.913385 1.43022 0
M  V30 7406 H 726.605 -2.37849 3.10714 0
M  V30 7407 H 726.228 -3.52769 1.83411 0
M  V30 7408 N 727.225 -1.14528 -1.08264 0
M  V30 7409 C 728.636 -0.925261 -1.6216 0
M  V30 7410 C 728.987 0.535587 -1.88748 0
M  V30 7411 O 728.112 1.4048 -1.64604 0
M  V30 7412 C 728.707 -1.67316 -2.94603 0
M  V30 7413 C 727.266 -1.49868 -3.45278 0
M  V30 7414 C 726.413 -1.69471 -2.19487 0
M  V30 7415 H 729.364 -1.29687 -0.914707 0
M  V30 7416 H 729.385 -1.13721 -3.63109 0
M  V30 7417 H 728.897 -2.73635 -2.75219 0
M  V30 7418 H 726.998 -0.459032 -3.69762 0
M  V30 7419 H 727.111 -2.2696 -4.21931 0
M  V30 7420 H 725.475 -1.12048 -2.2873 0
M  V30 7421 H 726.258 -2.77136 -2.0261 0
M  V30 7422 N 728.703 1.26451 -0.940633 0
M  V30 7423 C 729.949 1.94065 -0.58878 0
M  V30 7424 C 730.282 1.7363 0.869853 0
M  V30 7425 O 729.557 1.073 1.62225 0
M  V30 7426 C 729.84 3.47852 -0.931199 0
M  V30 7427 C 729.693 3.77575 -2.44453 0
M  V30 7428 C 731.012 4.37832 -0.446229 0
M  V30 7429 H 728.131 0.704827 -0.21538 0
M  V30 7430 H 730.773 1.4933 -1.17475 0
M  V30 7431 H 728.923 3.86085 -0.432539 0
M  V30 7432 H 730.595 3.49059 -3.01588 0
M  V30 7433 H 728.838 3.23671 -2.88825 0
M  V30 7434 H 729.509 4.85068 -2.63464 0
M  V30 7435 H 731.985 4.06822 -0.873778 0
M  V30 7436 H 730.861 5.44228 -0.714648 0
M  V30 7437 H 731.122 4.37239 0.653815 0
M  V30 7438 N 730.181 0.707592 1.40822 0
M  V30 7439 C 731.128 0.0499029 2.30746 0
M  V30 7440 C 732.098 -0.758718 1.47759 0
M  V30 7441 O 733.283 -0.724299 1.76518 0
M  V30 7442 C 730.423 -0.871756 3.33908 0
M  V30 7443 C 729.536 -0.0534655 4.31967 0
M  V30 7444 C 728.671 -0.973869 5.22197 0
M  V30 7445 C 727.71 -0.149194 6.11918 0
M  V30 7446 N 726.847 -1.02404 6.94592 0
M  V30 7447 H 731.687 0.822461 2.86426 0
M  V30 7448 H 729.224 0.417285 1.41057 0
M  V30 7449 H 731.182 -1.42028 3.9228 0
M  V30 7450 H 729.812 -1.61058 2.7975 0
M  V30 7451 H 728.864 0.612142 3.75442 0
M  V30 7452 H 730.176 0.585354 4.95353 0
M  V30 7453 H 729.33 -1.59121 5.85462 0
M  V30 7454 H 728.069 -1.64652 4.59065 0
M  V30 7455 H 727.074 0.481137 5.47691 0
M  V30 7456 H 728.299 0.519841 6.77107 0
M  V30 7457 H 726.245 -1.6825 6.34057 0
M  V30 7458 H 726.162 -0.441076 7.54712 0
M  V30 7459 H 727.43 -1.62782 7.62314 0
M  V30 7460 N 731.66 -1.50943 0.453197 0
M  V30 7461 C 732.906 -2.02512 -0.108082 0
M  V30 7462 C 733.239 -1.33574 -1.40967 0
M  V30 7463 O 732.514 -0.455671 -1.89087 0
M  V30 7464 C 732.797 -3.58759 -0.310453 0
M  V30 7465 C 732.65 -4.38293 1.0109 0
M  V30 7466 C 733.969 -4.26816 -1.07313 0
M  V30 7467 H 731.088 -0.73603 -0.0378064 0
M  V30 7468 H 733.73 -1.80433 0.595295 0
M  V30 7469 H 731.88 -3.77702 -0.909582 0
M  V30 7470 H 733.552 -4.30964 1.64523 0
M  V30 7471 H 731.795 -4.02745 1.61179 0
M  V30 7472 H 732.466 -5.45828 0.82315 0
M  V30 7473 H 734.942 -4.1224 -0.565473 0
M  V30 7474 H 733.818 -5.35989 -1.1835 0
M  V30 7475 H 734.079 -3.88757 -2.10525 0
M  V30 7476 N 733.138 -0.185124 -1.56509 0
M  V30 7477 C 734.366 0.462139 -2.01673 0
M  V30 7478 C 734.781 1.55873 -1.06532 0
M  V30 7479 O 734.138 1.82371 -0.0684805 0
M  V30 7480 C 734.189 1.0277 -3.46584 0
M  V30 7481 O 733.91 -0.0251296 -4.38093 0
M  V30 7482 C 735.411 1.75183 -4.07217 0
M  V30 7483 H 732.631 0.117001 -0.660721 0
M  V30 7484 H 735.175 -0.290905 -2.0242 0
M  V30 7485 H 733.33 1.73118 -3.46568 0
M  V30 7486 H 733.744 0.394387 -5.23015 0
M  V30 7487 H 735.218 2.09999 -5.10494 0
M  V30 7488 H 735.695 2.6519 -3.50101 0
M  V30 7489 H 736.301 1.09445 -4.10977 0
M  V30 7490 N 734.616 1.57351 0.0885366 0
M  V30 7491 C 736.032 1.53331 0.442916 0
M  V30 7492 C 736.232 0.902831 1.80142 0
M  V30 7493 O 735.288 0.498147 2.47537 0
M  V30 7494 C 736.601 2.98036 0.399372 0
M  V30 7495 C 738.149 3.09286 0.480759 0
M  V30 7496 C 738.624 4.5561 0.467296 0
M  V30 7497 N 740.115 4.60182 0.52786 0
M  V30 7498 C 740.85 5.70857 0.539388 0
M  V30 7499 N 740.346 6.90944 0.506729 0
M  V30 7500 N 742.139 5.59051 0.584691 0
M  V30 7501 H 734.29 1.96709 -0.801215 0
M  V30 7502 H 736.553 0.899639 -0.298922 0
M  V30 7503 H 736.259 3.47656 -0.531806 0
M  V30 7504 H 736.133 3.57066 1.21589 0
M  V30 7505 H 738.52 2.5965 1.40236 0
M  V30 7506 H 738.601 2.53197 -0.364023 0
M  V30 7507 H 738.245 5.05899 -0.450384 0
M  V30 7508 H 738.175 5.09544 1.32938 0
M  V30 7509 H 740.666 3.73757 0.558028 0
M  V30 7510 H 740.979 7.71055 0.518989 0
M  V30 7511 H 739.324 6.93384 0.473675 0
M  V30 7512 H 742.515 4.64138 0.607781 0
M  V30 7513 H 742.688 6.45307 0.590206 0
M  V30 7514 N 736.094 -0.359525 1.53444 0
M  V30 7515 C 737.319 -1.12644 1.74144 0
M  V30 7516 C 737.744 -1.82082 0.472007 0
M  V30 7517 O 737.102 -1.71962 -0.57436 0
M  V30 7518 C 737.15 -2.12781 2.9113 0
M  V30 7519 O 736.254 -3.19984 2.60162 0
M  V30 7520 H 735.595 -0.326553 0.578152 0
M  V30 7521 H 738.125 -0.414798 2.00351 0
M  V30 7522 H 738.135 -2.56278 3.17467 0
M  V30 7523 H 736.81 -1.61634 3.83207 0
M  V30 7524 H 735.387 -2.81417 2.44661 0
M  V30 7525 N 737.572 -1.44907 -0.619662 0
M  V30 7526 C 738.535 -1.52282 -1.71297 0
M  V30 7527 C 739.535 -0.40359 -1.55653 0
M  V30 7528 O 740.725 -0.666638 -1.6094 0
M  V30 7529 C 737.857 -1.40778 -3.10474 0
M  V30 7530 H 739.05 -2.49683 -1.66128 0
M  V30 7531 H 736.603 -1.32168 -0.834339 0
M  V30 7532 H 737.338 -0.445156 -3.2123 0
M  V30 7533 H 737.123 -2.21947 -3.23237 0
M  V30 7534 H 738.613 -1.48946 -3.90135 0
M  V30 7535 N 739.05 0.861098 -1.31996 0
M  V30 7536 C 739.98 1.98482 -1.22993 0
M  V30 7537 C 740.961 1.6971 -0.115168 0
M  V30 7538 O 742.146 1.91849 -0.30126 0
M  V30 7539 C 739.276 3.34179 -0.945615 0
M  V30 7540 C 738.23 3.77284 -2.02091 0
M  V30 7541 C 737.556 5.1054 -1.58912 0
M  V30 7542 C 738.856 3.93439 -3.43515 0
M  V30 7543 H 740.55 2.06271 -2.17008 0
M  V30 7544 H 738.096 0.991043 -1.04472 0
M  V30 7545 H 740.049 4.12338 -0.869206 0
M  V30 7546 H 738.773 3.26586 0.0301849 0
M  V30 7547 H 737.432 3.01371 -2.08737 0
M  V30 7548 H 737.08 4.99397 -0.600942 0
M  V30 7549 H 736.78 5.40352 -2.30854 0
M  V30 7550 H 738.304 5.91199 -1.52696 0
M  V30 7551 H 739.718 4.6197 -3.39495 0
M  V30 7552 H 738.115 4.34661 -4.13751 0
M  V30 7553 H 739.185 2.96548 -3.8365 0
M  V30 7554 N 740.528 1.15101 1.07655 0
M  V30 7555 C 741.46 0.802722 2.14684 0
M  V30 7556 C 742.473 -0.183874 1.61758 0
M  V30 7557 O 743.662 0.0389349 1.78458 0
M  V30 7558 C 740.762 0.172135 3.38463 0
M  V30 7559 C 739.935 1.19538 4.20749 0
M  V30 7560 C 738.994 0.58714 5.22914 0
M  V30 7561 O 738.02 1.25224 5.55255 0
M  V30 7562 N 739.222 -0.632566 5.77043 0
M  V30 7563 H 741.987 1.72379 2.45164 0
M  V30 7564 H 739.548 1.04647 1.23534 0
M  V30 7565 H 741.54 -0.247465 4.03943 0
M  V30 7566 H 740.11 -0.652214 3.0572 0
M  V30 7567 H 739.33 1.79165 3.51132 0
M  V30 7568 H 740.618 1.88636 4.7254 0
M  V30 7569 H 740.016 -1.19135 5.53013 0
M  V30 7570 H 738.573 -0.994566 6.44167 0
M  V30 7571 N 742.006 -1.2595 0.947325 0
M  V30 7572 C 742.954 -2.28152 0.452687 0
M  V30 7573 C 743.948 -1.62655 -0.473239 0
M  V30 7574 O 745.154 -1.76549 -0.350774 0
M  V30 7575 H 741.529 -0.741049 0.12787 0
M  V30 7576 H 743.5 -2.67267 1.32707 0
M  V30 7577 C 742.249 -3.46719 -0.26098 0
M  V30 7578 H 741.572 -3.97345 0.442352 0
M  V30 7579 H 743.012 -4.20135 -0.571208 0
M  V30 7580 C 741.471 -3.02605 -1.48094 0
M  V30 7581 O 742.001 -3.07979 -2.57899 0
M  V30 7582 N 740.207 -2.57877 -1.33969 0
M  V30 7583 H 739.754 -2.53704 -0.446295 0
M  V30 7584 H 739.712 -2.28725 -2.15713 0
M  V30 7585 N 743.484 -0.715051 -1.40445 0
M  V30 7586 C 744.447 -0.0708726 -2.2909 0
M  V30 7587 C 745.447 0.687926 -1.45342 0
M  V30 7588 O 746.637 0.519908 -1.66261 0
M  V30 7589 C 743.769 0.909528 -3.28543 0
M  V30 7590 H 744.962 -0.851611 -2.87555 0
M  V30 7591 H 742.515 -0.479674 -1.48758 0
M  V30 7592 H 743.25 1.71734 -2.75096 0
M  V30 7593 H 743.035 0.368318 -3.90366 0
M  V30 7594 H 744.525 1.35744 -3.94922 0
M  V30 7595 N 744.962 1.50701 -0.461195 0
M  V30 7596 C 745.925 2.2686 0.326679 0
M  V30 7597 C 746.925 1.31243 0.929085 0
M  V30 7598 O 748.115 1.54754 0.799807 0
M  V30 7599 C 745.247 3.07844 1.46441 0
M  V30 7600 H 746.44 2.97954 -0.341095 0
M  V30 7601 H 743.993 1.54814 -0.214984 0
M  V30 7602 H 744.728 2.41223 2.16753 0
M  V30 7603 H 744.513 3.78101 1.03836 0
M  V30 7604 H 746.003 3.65469 2.02044 0
M  V30 7605 N 746.441 0.193421 1.56409 0
M  V30 7606 C 747.666 -0.454552 2.02358 0
M  V30 7607 C 748.091 -1.54516 1.07268 0
M  V30 7608 O 747.449 -1.81214 0.0558962 0
M  V30 7609 C 747.497 -0.989469 3.46759 0
M  V30 7610 O 746.601 -2.10244 3.54783 0
M  V30 7611 H 745.942 -0.106417 0.655417 0
M  V30 7612 H 748.472 0.303807 2.02332 0
M  V30 7613 H 748.482 -1.30649 3.86516 0
M  V30 7614 H 747.157 -0.191083 4.15461 0
M  V30 7615 H 745.734 -1.79419 3.26899 0
M  V30 7616 N 747.919 -1.57396 -0.0801906 0
M  V30 7617 C 749.168 -1.8602 -0.779702 0
M  V30 7618 C 749.481 -0.784864 -1.79163 0
M  V30 7619 O 750.687 -0.958691 -2.54011 0
M  V30 7620 C 749.143 -3.29942 -1.43758 0
M  V30 7621 C 748.751 -4.45584 -0.464654 0
M  V30 7622 C 750.495 -3.67775 -2.11995 0
M  V30 7623 C 748.402 -5.80544 -1.12797 0
M  V30 7624 H 747.332 -0.69392 -0.294943 0
M  V30 7625 H 749.983 -1.83471 -0.0328527 0
M  V30 7626 H 748.365 -3.27078 -2.2324 0
M  V30 7627 H 749.539 -4.59824 0.299749 0
M  V30 7628 H 747.854 -4.16247 0.112813 0
M  V30 7629 H 750.451 -4.65896 -2.62383 0
M  V30 7630 H 750.794 -2.9715 -2.91561 0
M  V30 7631 H 751.327 -3.72593 -1.39354 0
M  V30 7632 H 748.066 -6.54439 -0.372807 0
M  V30 7633 H 747.586 -5.70119 -1.86344 0
M  V30 7634 H 749.265 -6.25602 -1.6502 0
M  V30 7635 N 749.397 0.351382 -1.53633 0
M  V30 7636 C 750.36 1.41403 -1.80383 0
M  V30 7637 C 751.36 1.45963 -0.674635 0
M  V30 7638 O 752.55 1.46476 -0.942895 0
M  V30 7639 C 749.682 2.80401 -1.93876 0
M  V30 7640 H 750.875 1.18951 -2.75301 0
M  V30 7641 H 748.428 0.58533 -1.44926 0
M  V30 7642 H 749.163 3.08147 -1.01074 0
M  V30 7643 H 748.948 2.78488 -2.7602 0
M  V30 7644 H 750.438 3.57329 -2.16116 0
M  V30 7645 N 750.875 1.45233 0.611969 0
M  V30 7646 C 752.123 1.48727 1.36838 0
M  V30 7647 C 752.444 0.128616 1.94575 0
M  V30 7648 O 751.714 -0.84149 1.76906 0
M  V30 7649 H 750.294 0.547695 0.507976 0
M  V30 7650 H 752.956 1.81156 0.718925 0
M  V30 7651 H 752.052 2.2236 2.19003 0
M  V30 7652 N 752.353 -0.854086 1.3245 0
M  V30 7653 C 753.283 -1.97827 1.24044 0
M  V30 7654 C 754.264 -1.69646 0.124166 0
M  V30 7655 O 755.449 -1.91687 0.31143 0
M  V30 7656 C 752.579 -3.33673 0.963324 0
M  V30 7657 C 751.533 -3.76207 2.04089 0
M  V30 7658 C 750.859 -5.0969 1.61618 0
M  V30 7659 C 752.159 -3.91612 3.45597 0
M  V30 7660 H 753.853 -2.05118 2.18099 0
M  V30 7661 H 751.399 -0.985489 1.04996 0
M  V30 7662 H 753.352 -4.11871 0.891061 0
M  V30 7663 H 752.076 -3.26597 -0.0128649 0
M  V30 7664 H 750.735 -3.0026 2.10332 0
M  V30 7665 H 750.383 -4.99072 0.627418 0
M  V30 7666 H 750.083 -5.3912 2.33717 0
M  V30 7667 H 751.607 -5.90381 1.55829 0
M  V30 7668 H 753.021 -4.60163 3.4194 0
M  V30 7669 H 751.418 -4.3246 4.16051 0
M  V30 7670 H 752.488 -2.9451 3.85217 0
M  V30 7671 N 753.831 -1.1567 -1.07043 0
M  V30 7672 C 755.078 -0.933517 -1.79699 0
M  V30 7673 C 755.406 0.539162 -1.86878 0
M  V30 7674 O 754.661 1.41592 -1.35093 0
M  V30 7675 C 754.96 -1.49677 -3.24548 0
M  V30 7676 C 754.626 -2.99047 -3.37463 0
M  V30 7677 C 753.288 -3.39824 -3.40695 0
M  V30 7678 C 755.64 -3.95027 -3.40004 0
M  V30 7679 C 752.968 -4.75215 -3.44075 0
M  V30 7680 C 755.32 -5.30295 -3.44921 0
M  V30 7681 C 753.984 -5.70562 -3.46432 0
M  V30 7682 H 753.254 -0.341598 -0.657565 0
M  V30 7683 H 755.901 -1.44263 -1.25938 0
M  V30 7684 H 754.206 -0.908915 -3.81111 0
M  V30 7685 H 755.903 -1.29986 -3.79348 0
M  V30 7686 H 752.493 -2.6653 -3.35648 0
M  V30 7687 H 756.677 -3.64596 -3.36725 0
M  V30 7688 H 751.933 -5.05754 -3.43545 0
M  V30 7689 H 756.107 -6.0446 -3.45833 0
M  V30 7690 H 753.734 -6.75456 -3.48803 0
M  V30 7691 N 755.309 1.25446 -0.953992 0
M  V30 7692 C 756.239 2.28264 -0.491717 0
M  V30 7693 C 757.22 1.63717 0.461617 0
M  V30 7694 O 758.405 1.90821 0.36071 0
M  V30 7695 C 755.535 3.46525 0.231915 0
M  V30 7696 C 754.489 4.23247 -0.636098 0
M  V30 7697 C 753.815 5.34254 0.218238 0
M  V30 7698 C 755.115 4.85971 -1.91389 0
M  V30 7699 H 756.809 2.67183 -1.35106 0
M  V30 7700 H 754.355 1.2844 -0.651095 0
M  V30 7701 H 756.308 4.17576 0.566439 0
M  V30 7702 H 755.032 3.06594 1.12551 0
M  V30 7703 H 753.691 3.53978 -0.953696 0
M  V30 7704 H 753.339 4.90564 1.11156 0
M  V30 7705 H 753.039 5.86501 -0.359232 0
M  V30 7706 H 754.563 6.08138 0.547743 0
M  V30 7707 H 755.977 5.49168 -1.64581 0
M  V30 7708 H 754.374 5.48391 -2.43696 0
M  V30 7709 H 755.444 4.08192 -2.61738 0
M  V30 7710 N 756.787 0.722489 1.40064 0
M  V30 7711 C 758.015 0.274838 2.05066 0
M  V30 7712 C 758.43 -1.08586 1.54449 0
M  V30 7713 O 757.787 -1.68375 0.704003 0
M  V30 7714 C 757.838 0.253673 3.60609 0
M  V30 7715 O 757.559 1.56064 4.0936 0
M  V30 7716 C 759.06 -0.211684 4.42794 0
M  V30 7717 H 756.28 0.12226 0.659768 0
M  V30 7718 H 758.824 0.982632 1.79345 0
M  V30 7719 H 756.979 -0.405137 3.85276 0
M  V30 7720 H 757.393 1.46576 5.03603 0
M  V30 7721 H 758.867 -0.175341 5.51721 0
M  V30 7722 H 759.344 -1.25493 4.2089 0
M  V30 7723 H 759.95 0.4171 4.2325 0
M  V30 7724 N 758.265 -1.50454 0.469181 0
M  V30 7725 C 759.493 -2.06729 -0.0842134 0
M  V30 7726 C 759.908 -1.33326 -1.33677 0
M  V30 7727 O 759.265 -0.401977 -1.78018 0
M  V30 7728 C 759.316 -3.59557 -0.374253 0
M  V30 7729 O 759.037 -4.30192 0.828622 0
M  V30 7730 C 760.538 -4.32449 -0.974824 0
M  V30 7731 H 757.758 -0.670971 0.006231 0
M  V30 7732 H 760.302 -1.93645 0.657415 0
M  V30 7733 H 758.457 -3.7245 -1.06581 0
M  V30 7734 H 758.871 -5.21371 0.572066 0
M  V30 7735 H 760.345 -5.40361 -1.12755 0
M  V30 7736 H 760.822 -3.92819 -1.96442 0
M  V30 7737 H 761.428 -4.24082 -0.321703 0
M  V30 7738 N 759.743 -0.201713 -1.56304 0
M  V30 7739 C 760.653 0.728296 -2.23009 0
M  V30 7740 C 761.669 1.22945 -1.23128 0
M  V30 7741 O 762.845 1.27523 -1.55884 0
M  V30 7742 C 759.91 1.92792 -2.88153 0
M  V30 7743 C 758.971 1.47068 -4.03323 0
M  V30 7744 C 758.204 2.61312 -4.65351 0
M  V30 7745 O 758.427 3.7896 -4.26317 0
M  V30 7746 O 757.361 2.33646 -5.54701 0
M  V30 7747 H 761.187 0.190166 -3.03104 0
M  V30 7748 H 758.772 0.0278725 -1.49374 0
M  V30 7749 H 760.654 2.6289 -3.29343 0
M  V30 7750 H 759.329 2.45452 -2.11033 0
M  V30 7751 H 758.236 0.738299 -3.66742 0
M  V30 7752 H 759.569 0.990666 -4.82127 0
M  V30 7753 N 761.222 1.57436 0.0718424 0
M  V30 7754 C 762.185 2.02703 1.06977 0
M  V30 7755 C 763.185 0.924062 1.31597 0
M  V30 7756 O 764.375 1.18894 1.27318 0
M  V30 7757 C 761.507 2.40763 2.41342 0
M  V30 7758 H 762.7 2.92098 0.679619 0
M  V30 7759 H 760.253 1.5304 0.317565 0
M  V30 7760 H 760.988 1.54394 2.8519 0
M  V30 7761 H 760.773 3.21249 2.24814 0
M  V30 7762 H 762.263 2.76361 3.13073 0
M  V30 7763 N 762.7 -0.34323 1.53817 0
M  V30 7764 C 763.946 -1.08504 1.71332 0
M  V30 7765 C 764.279 -1.88294 0.475285 0
M  V30 7766 O 763.554 -1.87205 -0.527688 0
M  V30 7767 C 763.837 -2.02597 2.97702 0
M  V30 7768 C 763.69 -1.26268 4.31713 0
M  V30 7769 C 765.009 -3.0241 3.19744 0
M  V30 7770 H 762.128 -0.393072 0.623429 0
M  V30 7771 H 764.77 -0.363579 1.86489 0
M  V30 7772 H 762.92 -2.64118 2.8491 0
M  V30 7773 H 764.592 -0.673594 4.56356 0
M  V30 7774 H 762.835 -0.564696 4.30109 0
M  V30 7775 H 763.506 -1.95253 5.16314 0
M  V30 7776 H 765.982 -2.51004 3.31868 0
M  V30 7777 H 764.858 -3.65449 4.09558 0
M  V30 7778 H 765.119 -3.73806 2.36054 0
M  V30 7779 N 764.178 -1.45556 -0.604258 0
M  V30 7780 C 765.424 -1.49968 -1.36519 0
M  V30 7781 C 765.757 -0.142236 -1.93678 0
M  V30 7782 O 765.032 0.843717 -1.75247 0
M  V30 7783 C 765.315 -2.58146 -2.51063 0
M  V30 7784 C 765.168 -4.03346 -1.99078 0
M  V30 7785 C 766.487 -2.62581 -3.53184 0
M  V30 7786 H 763.606 -0.545993 -0.495036 0
M  V30 7787 H 766.248 -1.77382 -0.680845 0
M  V30 7788 H 764.398 -2.34901 -3.09441 0
M  V30 7789 H 766.07 -4.37811 -1.45323 0
M  V30 7790 H 764.313 -4.13845 -1.30055 0
M  V30 7791 H 764.984 -4.74731 -2.81664 0
M  V30 7792 H 767.46 -2.83419 -3.04652 0
M  V30 7793 H 766.336 -3.40131 -4.30816 0
M  V30 7794 H 766.597 -1.67798 -4.09019 0
M  V30 7795 N 765.656 0.84705 -1.32902 0
M  V30 7796 C 766.619 1.9378 -1.224 0
M  V30 7797 C 767.619 1.60144 -0.145108 0
M  V30 7798 O 768.809 1.69638 -0.396058 0
M  V30 7799 C 765.941 3.29234 -0.884174 0
M  V30 7800 H 767.134 2.04518 -2.19345 0
M  V30 7801 H 764.687 1.03816 -1.16842 0
M  V30 7802 H 765.422 3.24193 0.0831277 0
M  V30 7803 H 765.207 3.55026 -1.6643 0
M  V30 7804 H 766.697 4.09162 -0.835226 0
M  V30 7805 N 767.134 1.16236 1.06428 0
M  V30 7806 C 768.411 0.853294 1.76006 0
M  V30 7807 C 768.791 -0.649162 2.00871 0
M  V30 7808 O 768.139 -1.59653 1.63472 0
M  V30 7809 C 768.349 1.67448 3.06206 0
M  V30 7810 C 769.697 1.8866 3.80385 0
M  V30 7811 O 770.721 1.64303 3.16043 0
M  V30 7812 O 769.58 2.29518 4.95968 0
M  V30 7813 H 766.674 0.314737 0.764767 0
M  V30 7814 H 769.22 1.26865 1.12709 0
M  V30 7815 H 767.992 2.69411 2.83784 0
M  V30 7816 H 767.615 1.25608 3.77238 0
M  V30 7817 N 768.612 -1.24939 0.960631 0
M  V30 7818 C 769.559 -2.25658 0.484459 0
M  V30 7819 C 770.529 -1.59422 -0.466242 0
M  V30 7820 O 771.714 -1.87015 -0.378169 0
M  V30 7821 C 768.854 -3.44359 -0.225958 0
M  V30 7822 C 767.967 -4.25214 0.762682 0
M  V30 7823 C 767.102 -5.31192 0.0290931 0
M  V30 7824 C 766.141 -6.03739 1.00827 0
M  V30 7825 N 765.278 -7.01437 0.305155 0
M  V30 7826 H 770.118 -2.65758 1.34821 0
M  V30 7827 H 767.655 -1.30648 0.675983 0
M  V30 7828 H 769.613 -4.12035 -0.654472 0
M  V30 7829 H 768.243 -3.05118 -1.05371 0
M  V30 7830 H 767.295 -3.57144 1.30966 0
M  V30 7831 H 768.607 -4.75406 1.50964 0
M  V30 7832 H 767.761 -6.04971 -0.457763 0
M  V30 7833 H 766.5 -4.81889 -0.750614 0
M  V30 7834 H 765.505 -5.2877 1.50607 0
M  V30 7835 H 766.73 -6.55131 1.7883 0
M  V30 7836 H 764.676 -6.54415 -0.455704 0
M  V30 7837 H 764.593 -7.49475 0.991104 0
M  V30 7838 H 765.861 -7.79336 -0.159966 0
M  V30 7839 N 770.09 -0.729906 -1.39679 0
M  V30 7840 C 771.501 -0.346241 -1.83461 0
M  V30 7841 C 771.852 1.1215 -1.60987 0
M  V30 7842 O 770.977 1.86456 -1.09832 0
M  V30 7843 C 771.572 -0.621656 -3.33048 0
M  V30 7844 C 770.131 -0.291543 -3.75269 0
M  V30 7845 C 769.278 -0.886844 -2.62736 0
M  V30 7846 H 772.229 -0.927949 -1.28743 0
M  V30 7847 H 772.25 0.108301 -3.80346 0
M  V30 7848 H 771.762 -1.68996 -3.49373 0
M  V30 7849 H 769.863 0.771133 -3.64533 0
M  V30 7850 H 769.976 -0.770544 -4.72863 0
M  V30 7851 H 768.34 -0.313839 -2.52759 0
M  V30 7852 H 769.123 -1.95971 -2.81869 0
M  V30 7853 N 771.568 1.50203 -0.477153 0
M  V30 7854 C 772.478 2.32421 0.319027 0
M  V30 7855 C 773.494 1.43075 0.990233 0
M  V30 7856 O 774.67 1.76123 0.976873 0
M  V30 7857 C 771.735 3.17909 1.38328 0
M  V30 7858 C 770.796 4.23082 0.728036 0
M  V30 7859 C 770.029 5.04484 1.74158 0
M  V30 7860 O 770.252 4.8705 2.96881 0
M  V30 7861 O 769.186 5.8747 1.31006 0
M  V30 7862 H 773.012 3.01638 -0.353281 0
M  V30 7863 H 770.597 1.47478 -0.238891 0
M  V30 7864 H 772.479 3.70937 1.9996 0
M  V30 7865 H 771.154 2.51413 2.03895 0
M  V30 7866 H 770.061 3.7403 0.07261 0
M  V30 7867 H 771.394 4.92065 0.115216 0
M  V30 7868 N 773.046 0.209999 1.56195 0
M  V30 7869 C 773.993 -0.704854 2.19774 0
M  V30 7870 C 774.963 -1.19886 1.14964 0
M  V30 7871 O 776.148 -1.26005 1.43274 0
M  V30 7872 C 773.288 -1.91241 2.87265 0
M  V30 7873 C 772.401 -1.45838 4.06639 0
M  V30 7874 C 771.536 -2.6226 4.61945 0
M  V30 7875 C 770.575 -2.13537 5.73645 0
M  V30 7876 N 769.712 -3.2319 6.23292 0
M  V30 7877 H 774.552 -0.155944 2.97592 0
M  V30 7878 H 772.089 -0.0652235 1.46955 0
M  V30 7879 H 774.047 -2.62123 3.24573 0
M  V30 7880 H 772.677 -2.43439 2.11985 0
M  V30 7881 H 771.729 -0.644897 3.74894 0
M  V30 7882 H 773.041 -1.06103 4.87384 0
M  V30 7883 H 772.195 -3.41243 5.01636 0
M  V30 7884 H 770.934 -3.05278 3.80338 0
M  V30 7885 H 769.939 -1.33013 5.33468 0
M  V30 7886 H 771.164 -1.71533 6.57079 0
M  V30 7887 H 769.11 -3.65711 5.44602 0
M  V30 7888 H 769.027 -2.8767 6.99129 0
M  V30 7889 H 770.295 -4.02342 6.67639 0
M  V30 7890 N 774.524 -1.57472 -0.0634922 0
M  V30 7891 C 775.434 -2.07621 -1.09227 0
M  V30 7892 C 776.45 -1.00746 -1.41867 0
M  V30 7893 O 777.626 -1.32269 -1.51878 0
M  V30 7894 C 774.691 -2.51707 -2.38421 0
M  V30 7895 C 773.752 -3.72917 -2.12676 0
M  V30 7896 C 772.985 -4.14891 -3.3571 0
M  V30 7897 O 773.208 -3.56663 -4.45137 0
M  V30 7898 O 772.142 -5.07616 -3.23434 0
M  V30 7899 H 775.968 -2.95612 -0.696205 0
M  V30 7900 H 773.553 -1.46787 -0.27819 0
M  V30 7901 H 775.435 -2.80547 -3.14438 0
M  V30 7902 H 774.11 -1.66842 -2.77391 0
M  V30 7903 H 773.017 -3.49148 -1.34337 0
M  V30 7904 H 774.35 -4.5866 -1.78583 0
M  V30 7905 N 776.003 0.335068 -1.53997 0
M  V30 7906 C 776.95 1.41187 -1.82579 0
M  V30 7907 C 777.92 1.51897 -0.672061 0
M  V30 7908 O 779.105 1.673 -0.917346 0
M  V30 7909 C 776.245 2.77717 -2.0486 0
M  V30 7910 C 775.358 2.7573 -3.32561 0
M  V30 7911 C 774.493 4.04032 -3.44864 0
M  V30 7912 C 773.532 3.96308 -4.66483 0
M  V30 7913 N 772.669 5.16317 -4.75774 0
M  V30 7914 H 777.509 1.16113 -2.74448 0
M  V30 7915 H 775.046 0.562305 -1.35928 0
M  V30 7916 H 777.004 3.57071 -2.15768 0
M  V30 7917 H 775.634 3.01124 -1.16294 0
M  V30 7918 H 774.686 1.88432 -3.3045 0
M  V30 7919 H 775.998 2.65902 -4.22016 0
M  V30 7920 H 775.152 4.91814 -3.55251 0
M  V30 7921 H 773.891 4.16652 -2.53481 0
M  V30 7922 H 772.896 3.06911 -4.56164 0
M  V30 7923 H 774.121 3.85263 -5.5924 0
M  V30 7924 H 772.067 5.29464 -3.87303 0
M  V30 7925 H 771.984 5.08779 -5.59178 0
M  V30 7926 H 773.252 6.05846 -4.9048 0
M  V30 7927 N 777.481 1.45874 0.596531 0
M  V30 7928 C 778.444 1.54988 1.68853 0
M  V30 7929 C 779.444 0.428302 1.54991 0
M  V30 7930 O 780.634 0.692158 1.59859 0
M  V30 7931 C 777.766 1.457 3.08195 0
M  V30 7932 H 778.959 2.52294 1.62135 0
M  V30 7933 H 776.512 1.33479 0.813206 0
M  V30 7934 H 777.247 0.496204 3.20481 0
M  V30 7935 H 777.032 2.27061 3.19665 0
M  V30 7936 H 778.522 1.55133 3.87716 0
M  V30 7937 N 778.959 -0.83999 1.33349 0
M  V30 7938 C 780.184 -1.63249 1.27924 0
M  V30 7939 C 780.609 -1.87523 -0.147193 0
M  V30 7940 O 779.967 -1.43853 -1.10345 0
M  V30 7941 C 780.015 -2.96046 2.05886 0
M  V30 7942 O 779.119 -3.87303 1.4167 0
M  V30 7943 H 778.46 -0.49715 0.440157 0
M  V30 7944 H 780.99 -1.04512 1.75893 0
M  V30 7945 H 781 -3.45752 2.16609 0
M  V30 7946 H 779.675 -2.77701 3.09605 0
M  V30 7947 H 778.252 -3.45789 1.39585 0
M  V30 7948 N 780.437 -1.16799 -1.0581 0
M  V30 7949 C 781.683 -0.953935 -1.78963 0
M  V30 7950 C 782.016 0.516638 -1.87202 0
M  V30 7951 O 781.291 1.38338 -1.36721 0
M  V30 7952 C 781.574 -1.58808 -3.23191 0
M  V30 7953 C 781.427 -3.13032 -3.23003 0
M  V30 7954 C 782.746 -1.2868 -4.20867 0
M  V30 7955 H 779.865 -0.347972 -0.64968 0
M  V30 7956 H 782.507 -1.44204 -1.23715 0
M  V30 7957 H 780.657 -1.17303 -3.70368 0
M  V30 7958 H 782.329 -3.63553 -2.83949 0
M  V30 7959 H 780.572 -3.46108 -2.61518 0
M  V30 7960 H 781.243 -3.52527 -4.24769 0
M  V30 7961 H 783.719 -1.6461 -3.82155 0
M  V30 7962 H 782.595 -1.75645 -5.20038 0
M  V30 7963 H 782.856 -0.206491 -4.41618 0
M  V30 7964 N 781.915 1.24427 -0.967243 0
M  V30 7965 C 783.326 1.74349 -0.667785 0
M  V30 7966 C 783.677 1.78403 0.816509 0
M  V30 7967 O 782.802 1.41315 1.63887 0
M  V30 7968 C 783.397 3.16628 -1.20548 0
M  V30 7969 C 781.956 3.64059 -0.955934 0
M  V30 7970 C 781.103 2.42715 -1.34106 0
M  V30 7971 H 784.054 1.10136 -1.14262 0
M  V30 7972 H 784.075 3.76183 -0.571547 0
M  V30 7973 H 783.587 3.13646 -2.28578 0
M  V30 7974 H 781.688 3.72441 0.108858 0
M  V30 7975 H 781.801 4.51549 -1.60126 0
M  V30 7976 H 780.165 2.43114 -0.759452 0
M  V30 7977 H 780.948 2.42414 -2.43085 0
M  V30 7978 N 783.393 0.737304 1.3929 0
M  V30 7979 C 784.641 0.285691 2.00071 0
M  V30 7980 C 784.962 -1.13169 1.58801 0
M  V30 7981 O 784.232 -1.77104 0.837308 0
M  V30 7982 H 782.812 0.102638 0.739915 0
M  V30 7983 H 785.474 0.947775 1.70303 0
M  V30 7984 H 784.57 0.335906 3.10287 0
M  V30 7985 N 784.871 -1.49948 0.485112 0
M  V30 7986 C 786.119 -2.01996 -0.0648775 0
M  V30 7987 C 786.44 -1.36819 -1.38945 0
M  V30 7988 O 785.71 -0.518163 -1.88923 0
M  V30 7989 H 784.29 -0.746513 -0.0269662 0
M  V30 7990 H 786.952 -1.84136 0.638733 0
M  V30 7991 H 786.048 -3.11418 -0.20617 0
M  V30 7992 N 786.349 -0.21828 -1.56081 0
M  V30 7993 C 787.597 0.413488 -1.97825 0
M  V30 7994 C 787.918 1.60527 -1.10707 0
M  V30 7995 O 787.188 1.9504 -0.183378 0
M  V30 7996 H 785.768 0.155757 -0.730581 0
M  V30 7997 H 788.43 -0.310413 -1.92412 0
M  V30 7998 H 787.526 0.742024 -3.03151 0
M  V30 7999 N 787.827 1.57504 0.0551401 0
M  V30 8000 C 789.104 1.79155 0.785048 0
M  V30 8001 C 789.484 0.809995 1.94942 0
M  V30 8002 O 788.832 -0.153432 2.27984 0
M  V30 8003 C 789.042 3.26134 1.24247 0
M  V30 8004 C 790.39 3.90419 1.66908 0
M  V30 8005 O 791.414 3.30126 1.33772 0
M  V30 8006 O 790.273 4.96523 2.28314 0
M  V30 8007 H 787.367 0.735825 0.377479 0
M  V30 8008 H 789.913 1.69666 0.0339285 0
M  V30 8009 H 788.685 3.89145 0.410089 0
M  V30 8010 H 788.308 3.40411 2.05441 0
M  V30 8011 N 789.305 -0.326896 1.54172 0
M  V30 8012 C 790.238 -1.42591 1.78166 0
M  V30 8013 C 791.216 -1.49837 0.631484 0
M  V30 8014 O 792.4 -1.67298 0.868544 0
M  V30 8015 C 789.527 -2.8071 1.89524 0
M  V30 8016 C 788.573 -2.91012 3.11792 0
M  V30 8017 S 789.406 -2.55763 4.70474 0
M  V30 8018 C 790.562 -3.9596 4.84733 0
M  V30 8019 H 790.795 -1.22024 2.71104 0
M  V30 8020 H 788.328 -0.523539 1.45253 0
M  V30 8021 H 790.286 -3.60276 1.96753 0
M  V30 8022 H 788.947 -2.98562 0.975696 0
M  V30 8023 H 788.14 -3.92258 3.16464 0
M  V30 8024 H 787.742 -2.19414 3.02876 0
M  V30 8025 H 790.034 -4.90676 4.67166 0
M  V30 8026 H 790.977 -3.96273 5.86833 0
M  V30 8027 H 791.385 -3.8476 4.13062 0
M  V30 8028 N 790.784 -1.46188 -0.588786 0
M  V30 8029 C 792.032 -1.50885 -1.34455 0
M  V30 8030 C 792.353 -0.159555 -1.94346 0
M  V30 8031 O 791.623 0.813239 -1.78222 0
M  V30 8032 H 790.203 -0.555707 -0.499198 0
M  V30 8033 H 792.865 -1.82277 -0.690014 0
M  V30 8034 H 791.961 -2.25816 -2.15438 0
M  V30 8035 N 792.262 0.832906 -1.33792 0
M  V30 8036 C 793.51 1.58539 -1.25338 0
M  V30 8037 C 793.831 1.94175 0.179204 0
M  V30 8038 O 793.101 1.61458 1.10941 0
M  V30 8039 H 791.681 0.58784 -0.460926 0
M  V30 8040 H 794.343 0.995064 -1.67584 0
M  V30 8041 H 793.439 2.51268 -1.85123 0
M  V30 8042 N 793.74 1.17359 1.05189 0
M  V30 8043 C 794.673 0.833768 2.12423 0
M  V30 8044 C 795.651 -0.19945 1.61372 0
M  V30 8045 O 796.835 -0.080979 1.88326 0
M  V30 8046 C 793.962 0.243745 3.37822 0
M  V30 8047 C 793.008 1.25235 4.07699 0
M  V30 8048 S 793.841 2.80368 4.56239 0
M  V30 8049 C 794.997 2.22846 5.84885 0
M  V30 8050 H 795.23 1.74197 2.40921 0
M  V30 8051 H 792.763 0.998242 1.1779 0
M  V30 8052 H 794.721 -0.0901915 4.10401 0
M  V30 8053 H 793.382 -0.642396 3.07461 0
M  V30 8054 H 792.575 0.788168 4.97799 0
M  V30 8055 H 792.177 1.53194 3.41185 0
M  V30 8056 H 794.469 1.60403 6.58238 0
M  V30 8057 H 795.412 3.112 6.3605 0
M  V30 8058 H 795.82 1.66296 5.39449 0
M  V30 8059 N 795.218 -1.23913 0.973828 0
M  V30 8060 C 796.495 -1.87539 0.555729 0
M  V30 8061 C 796.875 -1.87641 -0.967162 0
M  V30 8062 O 796.223 -1.35335 -1.84111 0
M  V30 8063 C 796.433 -3.29359 1.15427 0
M  V30 8064 C 797.781 -4.06 1.24294 0
M  V30 8065 O 798.805 -3.38554 1.10723 0
M  V30 8066 O 797.664 -5.26689 1.45813 0
M  V30 8067 H 794.758 -0.805769 0.186188 0
M  V30 8068 H 797.304 -1.31838 1.06849 0
M  V30 8069 H 796.076 -3.23817 2.19678 0
M  V30 8070 H 795.699 -3.92642 0.625925 0
M  V30 8071 N 796.696 -0.74468 -1.38897 0
M  V30 8072 C 797.943 -0.296884 -2.00312 0
M  V30 8073 C 798.271 1.11878 -1.59102 0
M  V30 8074 O 797.526 1.7789 -0.815702 0
M  V30 8075 C 797.825 -0.357302 -3.55609 0
M  V30 8076 C 797.491 -1.72736 -4.16501 0
M  V30 8077 C 796.153 -2.10232 -4.32846 0
M  V30 8078 C 798.505 -2.62647 -4.50184 0
M  V30 8079 C 795.833 -3.3713 -4.80167 0
M  V30 8080 C 798.185 -3.88926 -4.98918 0
M  V30 8081 C 796.849 -4.26503 -5.1347 0
M  V30 8082 H 796.119 -0.108638 -0.732993 0
M  V30 8083 H 798.766 -0.953419 -1.66079 0
M  V30 8084 H 797.071 0.382805 -3.89925 0
M  V30 8085 H 798.768 0.0074596 -4.00999 0
M  V30 8086 H 795.358 -1.42585 -4.04187 0
M  V30 8087 H 799.542 -2.34945 -4.37166 0
M  V30 8088 H 794.798 -3.66174 -4.89619 0
M  V30 8089 H 798.972 -4.58745 -5.23952 0
M  V30 8090 H 796.599 -5.24896 -5.49898 0
M  V30 8091 O 798.213 1.48503 -0.634761 0
M  V30 8092 H 798.904 1.93081 -0.154671 0
M  V30 END ATOM
M  V30 BEGIN BOND
M  V30 END BOND
M  V30 END CTAB
M  END
$$$$
