drugbank_target|P08243 Asparagine synthetase [glutamine-hydrolyzing] (DB00128; DB00142; DB00171; DB00174)
 OpenBabel12092119273D

  0  0  0     0  0            999 V3000
M  V30 BEGIN CTAB
M  V30 COUNTS 9027 9146 0 0 0
M  V30 BEGIN ATOM
M  V30 1 H -0.908 1.98254 -0.117106 0
M  V30 2 N 0 1.576 0 0
M  V30 3 C 0.933 2.03868 1.02534 0
M  V30 4 C 1.911 0.928543 1.3348 0
M  V30 5 O 3.095 1.19667 1.45644 0
M  V30 6 C 0.222 2.43627 2.35294 0
M  V30 7 C -0.732 3.65373 2.2001 0
M  V30 8 S 0.101 5.13292 1.52614 0
M  V30 9 C 1.257 5.56322 2.86805 0
M  V30 10 H 1.49 2.90518 0.631377 0
M  V30 11 H -0.977 1.52953 0.210867 0
M  V30 12 H 0.981 2.67203 3.11629 0
M  V30 13 H -0.358 1.57376 2.7183 0
M  V30 14 H -1.165 3.90944 3.18086 0
M  V30 15 H -1.563 3.418 1.51819 0
M  V30 16 H 0.729 5.58782 3.83104 0
M  V30 17 H 1.672 6.56266 2.65933 0
M  V30 18 H 2.08 4.83886 2.90714 0
M  V30 19 N 1.4781 -0.272755 1.55222 0
M  V30 20 C 2.7181 -1.01197 1.77591 0
M  V30 21 C 3.0821 -1.8349 0.565294 0
M  V30 22 O 4.2831 -2.60387 0.667242 0
M  V30 23 C 2.5541 -1.87096 3.04516 0
M  V30 24 S 4.1131 -2.67279 3.48004 0
M  V30 25 H 0.9311 -0.340836 0.62398 0
M  V30 26 H 3.5331 -0.282374 1.9345 0
M  V30 27 H 2.2371 -1.25565 3.90719 0
M  V30 28 H 1.7681 -2.64376 2.91323 0
M  V30 29 H 3.7831 -3.89593 3.07297 0
M  V30 30 N 2.9562 -1.48159 -0.537278 0
M  V30 31 C 4.2042 -1.55497 -1.29094 0
M  V30 32 C 4.5252 -0.227454 -1.93669 0
M  V30 33 O 3.7952 0.750386 -1.80959 0
M  V30 34 H 2.3752 -0.572832 -0.47945 0
M  V30 35 H 5.0372 -1.84579 -0.625818 0
M  V30 36 H 4.1332 -2.33216 -2.07405 0
M  V30 37 N 4.4343 0.785586 -1.36625 0
M  V30 38 C 5.6833 1.53883 -1.30396 0
M  V30 39 C 5.9963 1.95271 0.113452 0
M  V30 40 O 7.2023 2.69858 0.298142 0
M  V30 41 C 5.6583 2.77808 -2.28802 0
M  V30 42 C 5.2663 2.43574 -3.75999 0
M  V30 43 C 7.0103 3.55783 -2.31558 0
M  V30 44 C 4.9173 3.63919 -4.66173 0
M  V30 45 H 3.8473 0.577678 -0.484566 0
M  V30 46 H 6.4983 0.861705 -1.62009 0
M  V30 47 H 4.8803 3.47339 -1.90188 0
M  V30 48 H 6.0543 1.81916 -4.23371 0
M  V30 49 H 4.3693 1.78803 -3.76056 0
M  V30 50 H 6.9663 4.45205 -2.96137 0
M  V30 51 H 7.3093 3.94644 -1.3252 0
M  V30 52 H 7.8423 2.93235 -2.68809 0
M  V30 53 H 4.5813 3.3015 -5.66287 0
M  V30 54 H 4.1013 4.2473 -4.23515 0
M  V30 55 H 5.7803 4.30901 -4.82632 0
M  V30 56 N 5.9124 1.20967 1.01018 0
M  V30 57 C 7.1584 1.0353 1.7508 0
M  V30 58 C 7.5134 -0.42734 1.87594 0
M  V30 59 O 6.8064 -1.31298 1.3954 0
M  V30 60 C 7.0004 1.65997 3.16512 0
M  V30 61 C 6.8294 3.18184 3.17788 0
M  V30 62 C 5.5994 3.87198 3.24662 0
M  V30 63 C 7.7974 4.15334 3.03319 0
M  V30 64 N 5.7794 5.26618 3.15509 0
M  V30 65 C 7.1504 5.41472 3.02007 0
M  V30 66 C 9.2054 4.06449 2.87583 0
M  V30 67 C 7.9084 6.5975 2.86571 0
M  V30 68 C 9.9344 5.24357 2.73503 0
M  V30 69 C 9.2964 6.49404 2.72862 0
M  V30 70 H 5.3954 0.433137 0.651089 0
M  V30 71 H 7.9794 1.5324 1.20107 0
M  V30 72 H 6.1504 1.18863 3.69765 0
M  V30 73 H 7.8824 1.41816 3.79039 0
M  V30 74 H 4.6374 3.38093 3.31648 0
M  V30 75 H 5.0614 5.99626 3.14289 0
M  V30 76 H 9.7034 3.10573 2.86887 0
M  V30 77 H 7.4214 7.55792 2.86015 0
M  V30 78 H 11.0074 5.19299 2.62334 0
M  V30 79 H 9.8874 7.39105 2.62093 0
M  V30 80 N 7.3905 -1.2043 1.01659 0
M  V30 81 C 8.3535 -2.21433 0.591616 0
M  V30 82 C 9.3535 -1.57203 -0.338226 0
M  V30 83 O 10.5435 -1.73737 -0.126918 0
M  V30 84 C 7.6755 -3.40628 -0.136058 0
M  V30 85 H 8.8685 -2.60545 1.48514 0
M  V30 86 H 6.4215 -1.33893 0.806379 0
M  V30 87 H 7.1565 -3.07019 -1.04449 0
M  V30 88 H 6.9415 -3.88475 0.531917 0
M  V30 89 H 8.4315 -4.15475 -0.420735 0
M  V30 90 N 8.8686 -0.792821 -1.36206 0
M  V30 91 C 9.7986 -0.207853 -2.32573 0
M  V30 92 C 10.7796 0.659055 -1.56813 0
M  V30 93 O 11.9646 0.592176 -1.84951 0
M  V30 94 C 9.0946 0.655449 -3.41059 0
M  V30 95 C 8.0486 -0.111842 -4.27854 0
M  V30 96 C 7.3746 0.872274 -5.27537 0
M  V30 97 C 8.6746 -1.30299 -5.05786 0
M  V30 98 H 10.3686 -1.01294 -2.81744 0
M  V30 99 H 7.9146 -0.48854 -1.3546 0
M  V30 100 H 9.8676 1.07464 -4.07467 0
M  V30 101 H 8.5916 1.49328 -2.90463 0
M  V30 102 H 7.2506 -0.512053 -3.63006 0
M  V30 103 H 6.8986 1.70523 -4.73214 0
M  V30 104 H 6.5986 0.363291 -5.86476 0
M  V30 105 H 8.1226 1.28996 -5.96818 0
M  V30 106 H 9.5366 -0.959379 -5.65216 0
M  V30 107 H 7.9336 -1.7455 -5.74154 0
M  V30 108 H 9.0036 -2.09663 -4.37229 0
M  V30 109 N 10.3467 1.47872 -0.545128 0
M  V30 110 C 11.5937 2.02493 -0.0165858 0
M  V30 111 C 11.9217 1.42073 1.32836 0
M  V30 112 O 11.1767 0.561459 1.87473 0
M  V30 113 C 11.4757 3.57131 0.13867 0
M  V30 114 C 11.1417 4.36411 -1.13384 0
M  V30 115 C 9.8037 4.57792 -1.48256 0
M  V30 116 C 12.1557 4.82223 -1.97764 0
M  V30 117 C 9.4837 5.22233 -2.67376 0
M  V30 118 C 11.8357 5.47977 -3.16076 0
M  V30 119 C 10.4997 5.67593 -3.51275 0
M  V30 120 H 9.7697 0.740975 -0.00606918 0
M  V30 121 H 12.4167 1.77683 -0.714207 0
M  V30 122 H 10.7217 3.80865 0.919172 0
M  V30 123 H 12.4187 3.97031 0.562782 0
M  V30 124 H 9.0087 4.2004 -0.852297 0
M  V30 125 H 13.1927 4.65493 -1.72132 0
M  V30 126 H 8.4487 5.35616 -2.94831 0
M  V30 127 H 12.6227 5.8244 -3.81755 0
M  V30 128 H 10.2497 6.17298 -4.43675 0
M  V30 129 N 11.8248 0.280983 1.55075 0
M  V30 130 C 13.0728 -0.333455 1.9933 0
M  V30 131 C 13.3938 -1.55937 1.17085 0
M  V30 132 O 12.6638 -1.94143 0.261805 0
M  V30 133 H 11.2438 -0.126197 0.736263 0
M  V30 134 H 13.9058 0.387678 1.91005 0
M  V30 135 H 13.0018 -0.619292 3.05894 0
M  V30 136 N 13.3029 -1.57598 0.00835791 0
M  V30 137 C 14.5279 -1.95617 -0.689103 0
M  V30 138 C 14.9529 -0.883753 -1.66046 0
M  V30 139 O 14.3109 0.157352 -1.80616 0
M  V30 140 C 14.3589 -3.32736 -1.38994 0
M  V30 141 O 13.4629 -3.27631 -2.50463 0
M  V30 142 H 12.8039 -0.638379 -0.182668 0
M  V30 143 H 15.3339 -2.045 0.064036 0
M  V30 144 H 15.3439 -3.68494 -1.75147 0
M  V30 145 H 14.0189 -4.1034 -0.677778 0
M  V30 146 H 12.5959 -3.03561 -2.16576 0
M  V30 147 N 14.781 0.264519 -1.55364 0
M  V30 148 C 16.058 1.01677 -1.67096 0
M  V30 149 C 16.438 2.03996 -0.543015 0
M  V30 150 O 15.786 2.23907 0.45585 0
M  V30 151 C 15.996 1.66596 -3.0667 0
M  V30 152 C 17.344 2.17442 -3.64697 0
M  V30 153 O 18.368 1.76568 -3.09358 0
M  V30 154 O 17.227 2.92439 -4.61673 0
M  V30 155 H 14.321 0.472161 -0.678965 0
M  V30 156 H 16.867 0.259703 -1.67701 0
M  V30 157 H 15.639 0.924962 -3.80211 0
M  V30 158 H 15.262 2.48968 -3.10001 0
M  V30 159 N 16.2591 1.48442 0.529413 0
M  V30 160 C 17.5361 1.46978 1.29062 0
M  V30 161 C 17.9161 0.181769 2.10316 0
M  V30 162 O 17.2641 -0.836481 2.12639 0
M  V30 163 C 17.4741 2.7321 2.17157 0
M  V30 164 C 18.8221 3.21562 2.77278 0
M  V30 165 O 19.8461 2.74131 2.27444 0
M  V30 166 O 18.7051 4.04094 3.67927 0
M  V30 167 H 15.7991 0.587003 0.582543 0
M  V30 168 H 18.3451 1.60676 0.546021 0
M  V30 169 H 17.1171 3.58465 1.56903 0
M  V30 170 H 16.7401 2.62235 2.98862 0
M  V30 171 N 17.7372 -0.778329 1.37039 0
M  V30 172 C 18.9772 -1.54973 1.33276 0
M  V30 173 C 19.3412 -1.91816 -0.0839376 0
M  V30 174 O 20.5422 -2.6767 -0.246228 0
M  V30 175 C 18.8132 -2.78517 2.23971 0
M  V30 176 S 20.3722 -3.6865 2.37997 0
M  V30 177 H 17.1902 -0.530639 0.473226 0
M  V30 178 H 19.7922 -0.915806 1.72723 0
M  V30 179 H 18.4962 -2.4952 3.25835 0
M  V30 180 H 18.0272 -3.46875 1.85584 0
M  V30 181 H 20.0422 -4.70182 1.58567 0
M  V30 182 N 19.2153 -1.21501 -1.00376 0
M  V30 183 C 20.1453 -0.999478 -2.11028 0
M  V30 184 C 21.1263 0.0759671 -1.6993 0
M  V30 185 O 22.3113 -0.0841106 -1.94018 0
M  V30 186 C 19.4413 -0.564709 -3.42678 0
M  V30 187 C 18.3953 -1.58486 -3.97576 0
M  V30 188 C 17.7213 -1.00628 -5.25146 0
M  V30 189 C 19.0213 -2.97204 -4.29496 0
M  V30 190 H 20.7153 -1.92495 -2.29317 0
M  V30 191 H 18.2613 -0.92693 -1.102 0
M  V30 192 H 20.2143 -0.401091 -4.19487 0
M  V30 193 H 18.9383 0.396411 -3.24185 0
M  V30 194 H 17.5973 -1.73606 -3.22888 0
M  V30 195 H 17.2453 -0.0368439 -5.02987 0
M  V30 196 H 16.9453 -1.68771 -5.62841 0
M  V30 197 H 18.4693 -0.854015 -6.04598 0
M  V30 198 H 19.8833 -2.8552 -4.97143 0
M  V30 199 H 18.2803 -3.62372 -4.78338 0
M  V30 200 H 19.3503 -3.47956 -3.3772 0
M  V30 201 N 20.6934 1.19889 -1.02296 0
M  V30 202 C 21.9184 1.9393 -0.735237 0
M  V30 203 C 22.3434 1.74639 0.698782 0
M  V30 204 O 21.7014 1.04481 1.48167 0
M  V30 205 C 21.7494 3.43916 -1.08417 0
M  V30 206 O 20.8534 4.11917 -0.199446 0
M  V30 207 H 20.1944 0.605645 -0.272196 0
M  V30 208 H 22.7244 1.52137 -1.36804 0
M  V30 209 H 22.7344 3.9456 -1.03856 0
M  V30 210 H 21.4094 3.5728 -2.12894 0
M  V30 211 H 19.9864 3.71666 -0.303136 0
M  V30 212 N 22.1715 0.800033 1.35784 0
M  V30 213 C 23.4175 0.377901 1.99248 0
M  V30 214 C 23.7505 -1.05052 1.63333 0
M  V30 215 O 23.0255 -1.72768 0.893385 0
M  V30 216 C 23.3085 0.553922 3.55814 0
M  V30 217 C 23.1615 2.0268 4.01548 0
M  V30 218 C 24.4805 -0.0244802 4.40093 0
M  V30 219 H 21.5995 0.138782 0.723815 0
M  V30 220 H 24.2415 1.00835 1.61035 0
M  V30 221 H 22.3915 0.0172398 3.88496 0
M  V30 222 H 24.0635 2.62536 3.79305 0
M  V30 223 H 22.3065 2.5256 3.52698 0
M  V30 224 H 22.9775 2.10087 5.10458 0
M  V30 225 H 25.4535 0.433775 4.13833 0
M  V30 226 H 24.3295 0.128637 5.48749 0
M  V30 227 H 24.5905 -1.11758 4.27741 0
M  V30 228 N 23.6496 -1.47581 0.552962 0
M  V30 229 C 24.5816 -2.27997 -0.234533 0
M  V30 230 C 25.5946 -1.36753 -0.883321 0
M  V30 231 O 26.7836 -1.61612 -0.757889 0
M  V30 232 C 23.8836 -3.10879 -1.34935 0
M  V30 233 C 23.0566 -4.30056 -0.798158 0
M  V30 234 C 22.1156 -4.94567 -1.79694 0
M  V30 235 O 21.1416 -5.53087 -1.34474 0
M  V30 236 N 22.3436 -4.88878 -3.13015 0
M  V30 237 H 25.1086 -2.96222 0.455255 0
M  V30 238 H 22.6696 -1.57163 0.388761 0
M  V30 239 H 24.6616 -3.50903 -2.01616 0
M  V30 240 H 23.2316 -2.44924 -1.94244 0
M  V30 241 H 22.4516 -3.94174 0.0453079 0
M  V30 242 H 23.7396 -5.07152 -0.409173 0
M  V30 243 H 23.1376 -4.42526 -3.52402 0
M  V30 244 H 21.6946 -5.32934 -3.75266 0
M  V30 245 N 25.1277 -0.289203 -1.54924 0
M  V30 246 C 26.3677 0.324536 -2.01807 0
M  V30 247 C 26.7317 1.5199 -1.17316 0
M  V30 248 O 27.9327 2.20422 -1.53843 0
M  V30 249 C 26.2037 0.683578 -3.50802 0
M  V30 250 S 27.7627 1.28185 -4.19659 0
M  V30 251 H 24.5807 0.100236 -0.703899 0
M  V30 252 H 27.1827 -0.414325 -1.91059 0
M  V30 253 H 25.8867 -0.195073 -4.09936 0
M  V30 254 H 25.4177 1.45354 -3.65562 0
M  V30 255 H 27.4327 2.57006 -4.24456 0
M  V30 256 N 26.6058 1.57591 -0.0167156 0
M  V30 257 C 27.5358 2.12496 0.967858 0
M  V30 258 C 28.5168 1.03807 1.34752 0
M  V30 259 O 29.7018 1.31577 1.42833 0
M  V30 260 C 26.8318 2.64194 2.25431 0
M  V30 261 C 25.7858 3.77559 2.01576 0
M  V30 262 C 25.1118 4.15636 3.36379 0
M  V30 263 C 26.4118 5.04151 1.36489 0
M  V30 264 H 28.1058 2.95013 0.510643 0
M  V30 265 H 25.6518 1.41915 0.244181 0
M  V30 266 H 27.6048 3.01236 2.94678 0
M  V30 267 H 26.3288 1.78821 2.73296 0
M  V30 268 H 24.9878 3.40937 1.34751 0
M  V30 269 H 24.6358 3.27263 3.81979 0
M  V30 270 H 24.3358 4.92022 3.21229 0
M  V30 271 H 25.8598 4.5525 4.06915 0
M  V30 272 H 27.2738 5.38857 1.95718 0
M  V30 273 H 25.6708 5.85453 1.31776 0
M  V30 274 H 26.7408 4.83733 0.336219 0
M  V30 275 N 28.0839 -0.256276 1.55502 0
M  V30 276 C 29.3089 -1.00766 1.81276 0
M  V30 277 C 29.7339 -1.78524 0.59252 0
M  V30 278 O 29.0919 -1.75413 -0.45827 0
M  V30 279 C 29.1399 -1.92869 3.04687 0
M  V30 280 O 28.2439 -3.019 2.80945 0
M  V30 281 H 27.5849 -0.287224 0.598664 0
M  V30 282 H 30.1149 -0.280109 2.02674 0
M  V30 283 H 30.1249 -2.34511 3.33869 0
M  V30 284 H 28.7999 -1.35689 3.93143 0
M  V30 285 H 27.3769 -2.64454 2.62904 0
M  V30 286 N 29.562 -1.4872 -0.521534 0
M  V30 287 C 30.525 -1.63379 -1.60748 0
M  V30 288 C 31.525 -0.50661 -1.52611 0
M  V30 289 O 32.715 -0.772601 -1.5613 0
M  V30 290 C 29.847 -1.61192 -3.00383 0
M  V30 291 H 31.04 -2.60217 -1.49087 0
M  V30 292 H 28.593 -1.37444 -0.744235 0
M  V30 293 H 29.328 -0.65863 -3.17541 0
M  V30 294 H 29.113 -2.43032 -3.07698 0
M  V30 295 H 30.603 -1.7466 -3.7932 0
M  V30 296 N 31.0401 0.771051 -1.3745 0
M  V30 297 C 31.9731 1.89166 -1.27638 0
M  V30 298 C 32.9511 1.61842 -0.156782 0
M  V30 299 O 34.1351 1.85569 -0.331111 0
M  V30 300 C 31.2621 3.24405 -0.973621 0
M  V30 301 C 30.3081 3.70638 -2.1102 0
M  V30 302 S 31.1411 3.84228 -3.73 0
M  V30 303 C 32.2971 5.22313 -3.44876 0
M  V30 304 H 32.5301 1.972 -2.22485 0
M  V30 305 H 30.0631 0.932224 -1.23081 0
M  V30 306 H 32.0211 4.02514 -0.805766 0
M  V30 307 H 30.6821 3.14071 -0.0426279 0
M  V30 308 H 29.8751 4.68685 -1.85338 0
M  V30 309 H 29.4771 2.99632 -2.23822 0
M  V30 310 H 31.7691 6.07505 -2.99908 0
M  V30 311 H 32.7121 5.53008 -4.42253 0
M  V30 312 H 33.1201 4.90284 -2.79789 0
M  V30 313 N 32.5182 1.22032 0.997298 0
M  V30 314 C 33.4652 0.986467 2.08656 0
M  V30 315 C 34.4352 -0.0902671 1.65855 0
M  V30 316 O 35.6202 0.0584294 1.90711 0
M  V30 317 C 32.7602 0.565569 3.40434 0
M  V30 318 C 31.8732 1.71259 3.96604 0
M  V30 319 C 31.0082 1.24011 5.16522 0
M  V30 320 C 30.0472 2.35896 5.64818 0
M  V30 321 N 29.1842 1.89726 6.7598 0
M  V30 322 H 34.0242 1.91892 2.27994 0
M  V30 323 H 31.5612 0.956199 1.11782 0
M  V30 324 H 33.5192 0.302738 4.161 0
M  V30 325 H 32.1492 -0.329879 3.2111 0
M  V30 326 H 31.2012 2.08986 3.17851 0
M  V30 327 H 32.5132 2.55436 4.28432 0
M  V30 328 H 31.6672 0.934395 5.99461 0
M  V30 329 H 30.4062 0.368487 4.86306 0
M  V30 330 H 29.4112 2.67261 4.8047 0
M  V30 331 H 30.6362 3.23567 5.97061 0
M  V30 332 H 28.5822 1.0492 6.47555 0
M  V30 333 H 28.4992 2.67471 7.07103 0
M  V30 334 H 29.7672 1.62211 7.62435 0
M  V30 335 N 33.9963 -1.19345 1.0293 0
M  V30 336 C 35.2453 -1.88363 0.721256 0
M  V30 337 C 35.5583 -1.80514 -0.753254 0
M  V30 338 O 36.7643 -2.44788 -1.17436 0
M  V30 339 C 35.2203 -3.37872 1.23978 0
M  V30 340 C 34.8283 -3.54278 2.74211 0
M  V30 341 C 36.5723 -4.12365 1.00775 0
M  V30 342 C 34.4793 -4.97682 3.19479 0
M  V30 343 H 33.4093 -0.705484 0.266098 0
M  V30 344 H 36.0603 -1.34928 1.24365 0
M  V30 345 H 34.4423 -3.90707 0.6453 0
M  V30 346 H 35.6163 -3.11769 3.39318 0
M  V30 347 H 33.9313 -2.93174 2.95699 0
M  V30 348 H 36.5283 -5.18119 1.32123 0
M  V30 349 H 36.8713 -4.16263 -0.0554308 0
M  V30 350 H 37.4043 -3.65668 1.56625 0
M  V30 351 H 34.1433 -4.98945 4.25128 0
M  V30 352 H 33.6633 -5.4095 2.591 0
M  V30 353 H 35.3423 -5.66337 3.12845 0
M  V30 354 N 35.4744 -0.807222 -1.35358 0
M  V30 355 C 36.4374 -0.223665 -2.28106 0
M  V30 356 C 37.4374 0.589354 -1.4961 0
M  V30 357 O 38.6274 0.407745 -1.69361 0
M  V30 358 C 35.7594 0.688149 -3.33882 0
M  V30 359 H 36.9524 -1.04169 -2.81227 0
M  V30 360 H 34.5054 -0.577921 -1.45223 0
M  V30 361 H 35.2404 1.52984 -2.85948 0
M  V30 362 H 35.0254 0.10687 -3.91954 0
M  V30 363 H 36.5154 1.09075 -4.03104 0
M  V30 364 N 36.9525 1.47285 -0.560781 0
M  V30 365 C 37.9025 2.27073 0.205384 0
M  V30 366 C 38.8865 1.34569 0.882044 0
M  V30 367 O 40.0785 1.58899 0.77976 0
M  V30 368 C 37.2075 3.20414 1.23247 0
M  V30 369 C 36.2935 4.20399 0.559041 0
M  V30 370 N 36.6845 5.04423 -0.372927 0
M  V30 371 C 34.9825 4.38536 0.812522 0
M  V30 372 C 35.6835 5.76655 -0.764446 0
M  V30 373 N 34.6595 5.43471 -0.11848 0
M  V30 374 H 38.4615 2.89422 -0.511117 0
M  V30 375 H 35.9755 1.57868 -0.380975 0
M  V30 376 H 37.9725 3.76262 1.79534 0
M  V30 377 H 36.6325 2.59623 1.95002 0
M  V30 378 H 37.6435 5.1248 -0.747287 0
M  V30 379 H 34.3205 3.88913 1.51832 0
M  V30 380 H 35.7105 6.54238 -1.53045 0
M  V30 381 N 38.4306 0.297415 1.54768 0
M  V30 382 C 39.8466 -0.0560823 1.59501 0
M  V30 383 C 40.0466 -1.52725 1.31444 0
M  V30 384 O 39.1026 -2.27947 1.08611 0
M  V30 385 C 40.4156 0.338631 2.98787 0
M  V30 386 C 41.9636 0.287097 3.11681 0
M  V30 387 C 42.4386 0.656579 4.53269 0
M  V30 388 N 43.9296 0.608977 4.59179 0
M  V30 389 C 44.6646 0.867385 5.66802 0
M  V30 390 N 44.1606 1.19157 6.82476 0
M  V30 391 N 45.9536 0.794687 5.56454 0
M  V30 392 H 38.1046 1.25624 1.71267 0
M  V30 393 H 40.3676 0.509057 0.799728 0
M  V30 394 H 40.0736 1.36263 3.2423 0
M  V30 395 H 39.9476 -0.309508 3.75928 0
M  V30 396 H 42.3346 -0.727649 2.85988 0
M  V30 397 H 42.4156 0.969809 2.36703 0
M  V30 398 H 42.0596 1.66912 4.7969 0
M  V30 399 H 41.9896 -0.0481649 5.26578 0
M  V30 400 H 44.4806 0.369198 3.76092 0
M  V30 401 H 44.7936 1.37482 7.60473 0
M  V30 402 H 43.1386 1.22958 6.84037 0
M  V30 403 H 46.3296 0.541098 4.64962 0
M  V30 404 H 46.5026 0.999445 6.40246 0
M  V30 405 N 39.9087 -1.5758 0.0250728 0
M  V30 406 C 41.1567 -1.91255 -0.653151 0
M  V30 407 C 41.4777 -0.901691 -1.729 0
M  V30 408 O 40.7477 0.0573785 -1.95816 0
M  V30 409 H 39.3277 -0.705942 -0.244243 0
M  V30 410 H 41.9897 -1.94767 0.0719209 0
M  V30 411 H 41.0857 -2.91752 -1.10847 0
M  V30 412 N 41.3868 0.248026 -1.55636 0
M  V30 413 C 42.7978 0.817177 -1.67866 0
M  V30 414 C 43.1488 1.86069 -0.622322 0
M  V30 415 O 42.2738 2.15157 0.231618 0
M  V30 416 C 42.8688 1.489 -3.04326 0
M  V30 417 C 41.4278 2.00587 -3.185 0
M  V30 418 C 40.5748 0.856573 -2.63739 0
M  V30 419 H 43.5258 0.0238579 -1.58682 0
M  V30 420 H 43.5468 2.35698 -2.98708 0
M  V30 421 H 43.0588 0.729279 -3.81186 0
M  V30 422 H 41.1598 2.79443 -2.4646 0
M  V30 423 H 41.2728 2.20402 -4.25393 0
M  V30 424 H 39.6368 1.25678 -2.21534 0
M  V30 425 H 40.4198 0.109953 -3.43124 0
M  V30 426 N 42.8649 1.48995 0.513639 0
M  V30 427 C 44.1419 1.48338 1.27495 0
M  V30 428 C 44.5219 0.204065 2.10111 0
M  V30 429 O 43.8699 -0.813881 2.13514 0
M  V30 430 C 44.0799 2.75498 2.14247 0
M  V30 431 C 45.4279 3.24484 2.73852 0
M  V30 432 O 46.4519 2.76528 2.24523 0
M  V30 433 O 45.3109 4.07974 3.6362 0
M  V30 434 H 42.4049 0.593149 0.576284 0
M  V30 435 H 44.9509 1.61246 0.528948 0
M  V30 436 H 43.7229 3.60109 1.53092 0
M  V30 437 H 43.3459 2.6539 2.96064 0
M  V30 438 N 44.343 -0.763751 1.37857 0
M  V30 439 C 45.306 -1.85889 1.34081 0
M  V30 440 C 46.306 -1.58949 0.243277 0
M  V30 441 O 47.496 -1.66882 0.499589 0
M  V30 442 C 44.628 -3.23176 1.08489 0
M  V30 443 H 45.821 -1.90648 2.31502 0
M  V30 444 H 43.374 -0.964367 1.23003 0
M  V30 445 H 44.109 -3.24091 0.116318 0
M  V30 446 H 43.894 -3.44124 1.8794 0
M  V30 447 H 45.384 -4.03254 1.08517 0
M  V30 448 N 45.8211 -1.22559 -0.990812 0
M  V30 449 C 47.0681 -1.05141 -1.73065 0
M  V30 450 C 47.3961 0.413191 -1.9006 0
M  V30 451 O 46.6511 1.32257 -1.44245 0
M  V30 452 C 46.9501 -1.71011 -3.13831 0
M  V30 453 C 46.6161 -3.20911 -3.16745 0
M  V30 454 C 45.2781 -3.61812 -3.17247 0
M  V30 455 C 47.6301 -4.16846 -3.12872 0
M  V30 456 C 44.9581 -4.97127 -3.1158 0
M  V30 457 C 47.3101 -5.5214 -3.08746 0
M  V30 458 C 45.9741 -5.92419 -3.07565 0
M  V30 459 H 45.2441 -0.384738 -0.633291 0
M  V30 460 H 47.8911 -1.5235 -1.16025 0
M  V30 461 H 46.1961 -1.16133 -3.74193 0
M  V30 462 H 47.8931 -1.55023 -3.69823 0
M  V30 463 H 44.4831 -2.88344 -3.17105 0
M  V30 464 H 48.6671 -3.86263 -3.11632 0
M  V30 465 H 43.9231 -5.27562 -3.09012 0
M  V30 466 H 48.0971 -6.26201 -3.04705 0
M  V30 467 H 45.7241 -6.97236 -3.02929 0
M  V30 468 N 47.2992 1.18797 -1.03562 0
M  V30 469 C 48.7152 1.40671 -0.753917 0
M  V30 470 C 48.9152 1.9043 0.658686 0
M  V30 471 O 47.9712 2.08538 1.42366 0
M  V30 472 C 49.2842 2.41192 -1.79574 0
M  V30 473 C 50.8322 2.54928 -1.81606 0
M  V30 474 C 51.3072 3.58709 -2.84766 0
M  V30 475 N 52.7982 3.66212 -2.83625 0
M  V30 476 C 53.5332 4.46225 -3.60098 0
M  V30 477 N 53.0292 5.29888 -4.46308 0
M  V30 478 N 54.8222 4.40939 -3.4861 0
M  V30 479 H 46.9732 0.848221 -1.94728 0
M  V30 480 H 49.2362 0.435081 -0.842264 0
M  V30 481 H 48.9422 2.11669 -2.80872 0
M  V30 482 H 48.8162 3.40467 -1.62365 0
M  V30 483 H 51.2032 2.83771 -0.809817 0
M  V30 484 H 51.2842 1.55784 -2.02891 0
M  V30 485 H 50.9282 3.30607 -3.85566 0
M  V30 486 H 50.8582 4.57519 -2.60737 0
M  V30 487 H 53.3492 3.06466 -2.21105 0
M  V30 488 H 53.6622 5.88078 -5.01382 0
M  V30 489 H 52.0072 5.29326 -4.50377 0
M  V30 490 H 55.1982 3.74624 -2.80668 0
M  V30 491 H 55.3712 5.03056 -4.08459 0
M  V30 492 N 48.7773 0.814389 1.34928 0
M  V30 493 C 50.0243 0.398423 1.98542 0
M  V30 494 C 50.3523 -1.03638 1.64589 0
M  V30 495 O 49.6073 -1.73509 0.90516 0
M  V30 496 C 49.9063 0.537781 3.53331 0
M  V30 497 C 49.5723 1.93704 4.07172 0
M  V30 498 C 48.2343 2.31984 4.21589 0
M  V30 499 C 50.5863 2.85213 4.36237 0
M  V30 500 C 47.9143 3.61125 4.62391 0
M  V30 501 C 50.2663 4.13809 4.78482 0
M  V30 502 C 48.9303 4.52077 4.91104 0
M  V30 503 H 48.2003 0.145793 0.726516 0
M  V30 504 H 50.8473 1.03669 1.61012 0
M  V30 505 H 49.1523 -0.183906 3.91368 0
M  V30 506 H 50.8493 0.196588 4.00518 0
M  V30 507 H 47.4393 1.62966 3.96409 0
M  V30 508 H 51.6233 2.56885 4.24645 0
M  V30 509 H 46.8793 3.90612 4.70353 0
M  V30 510 H 51.0533 4.84811 4.99932 0
M  V30 511 H 48.6803 5.52196 5.22478 0
M  V30 512 N 50.2554 -1.46986 0.568584 0
M  V30 513 C 51.1654 -2.33942 -0.17555 0
M  V30 514 C 52.1814 -1.48891 -0.90041 0
M  V30 515 O 53.3574 -1.81794 -0.86676 0
M  V30 516 C 50.4224 -3.25811 -1.18524 0
M  V30 517 C 49.4834 -4.26757 -0.466582 0
M  V30 518 C 48.7164 -5.14236 -1.42817 0
M  V30 519 O 48.9394 -5.04379 -2.66379 0
M  V30 520 O 47.8734 -5.94412 -0.946453 0
M  V30 521 H 51.6994 -2.98896 0.538036 0
M  V30 522 H 49.2844 -1.4573 0.329097 0
M  V30 523 H 51.1664 -3.82527 -1.76779 0
M  V30 524 H 49.8414 -2.63471 -1.88055 0
M  V30 525 H 48.7484 -3.73769 0.157451 0
M  V30 526 H 50.0814 -4.91843 0.187485 0
M  V30 527 N 51.7335 -0.305618 -1.54608 0
M  V30 528 C 52.6815 0.584119 -2.25146 0
M  V30 529 C 53.6755 1.13326 -1.25911 0
M  V30 530 O 54.8815 1.08337 -1.43747 0
M  V30 531 H 51.2565 0.206983 -0.722954 0
M  V30 532 H 53.2275 -0.033291 -2.98381 0
M  V30 533 C 51.9765 1.74225 -3.009 0
M  V30 534 H 51.2995 1.32892 -3.77067 0
M  V30 535 H 52.7395 2.34077 -3.53531 0
M  V30 536 C 51.1985 2.64914 -2.0814 0
M  V30 537 O 51.7285 3.66137 -1.65246 0
M  V30 538 N 49.9345 2.3275 -1.74 0
M  V30 539 H 49.4815 1.50479 -2.09078 0
M  V30 540 H 49.4395 2.93694 -1.12211 0
M  V30 541 N 53.2116 1.57565 -0.0334293 0
M  V30 542 C 54.4576 1.92262 0.645226 0
M  V30 543 C 54.7906 0.910543 1.71531 0
M  V30 544 O 54.0656 -0.066099 1.94388 0
M  V30 545 C 54.3486 3.37422 1.2577 0
M  V30 546 C 54.2016 4.49369 0.196891 0
M  V30 547 C 55.5206 3.82628 2.17449 0
M  V30 548 H 52.6396 0.699171 0.233085 0
M  V30 549 H 55.2816 1.89779 -0.0915694 0
M  V30 550 H 53.4316 3.39669 1.88566 0
M  V30 551 H 55.1036 4.59254 -0.433962 0
M  V30 552 H 53.3466 4.31168 -0.477137 0
M  V30 553 H 54.0176 5.47978 0.665124 0
M  V30 554 H 56.4936 3.82145 1.64634 0
M  V30 555 H 55.3696 4.84883 2.57254 0
M  V30 556 H 55.6306 3.18376 3.0674 0
M  V30 557 N 54.6897 -0.239769 1.55765 0
M  V30 558 C 55.6377 -1.31668 1.91745 0
M  V30 559 C 56.6317 -1.49462 0.797338 0
M  V30 560 O 57.8377 -1.50852 0.982021 0
M  V30 561 H 54.2127 -0.441048 0.609082 0
M  V30 562 H 56.1837 -0.985923 2.81642 0
M  V30 563 C 54.9327 -2.66368 2.2348 0
M  V30 564 H 54.2557 -2.53478 3.09175 0
M  V30 565 H 55.6957 -3.40578 2.52553 0
M  V30 566 C 54.1547 -3.20002 1.05359 0
M  V30 567 O 54.6847 -4.00538 0.305261 0
M  V30 568 N 52.8907 -2.78126 0.842292 0
M  V30 569 H 52.4377 -2.12742 1.45253 0
M  V30 570 H 52.3957 -3.14354 0.053652 0
M  V30 571 N 56.1678 -1.49265 -0.50573 0
M  V30 572 C 57.4158 -1.582 -1.25766 0
M  V30 573 C 57.7368 -0.268482 -1.93143 0
M  V30 574 O 57.0068 0.711833 -1.8251 0
M  V30 575 H 55.5868 -0.582873 -0.467191 0
M  V30 576 H 58.2488 -1.85865 -0.586525 0
M  V30 577 H 57.3448 -2.37563 -2.02412 0
M  V30 578 N 57.6459 0.756429 -1.3826 0
M  V30 579 C 58.8759 1.54341 -1.3734 0
M  V30 580 C 59.2839 1.89159 0.0393917 0
M  V30 581 O 58.6269 1.5307 1.01565 0
M  V30 582 C 58.6889 2.87238 -2.16182 0
M  V30 583 C 58.3529 2.74973 -3.65019 0
M  V30 584 C 59.3499 2.44962 -4.58574 0
M  V30 585 C 57.0349 2.92515 -4.08338 0
M  V30 586 C 59.0289 2.32642 -5.93428 0
M  V30 587 C 56.7159 2.79815 -5.43274 0
M  V30 588 C 57.7139 2.49921 -6.35632 0
M  V30 589 O 57.4019 2.37275 -7.68086 0
M  V30 590 H 57.1339 0.484281 -0.471643 0
M  V30 591 H 59.6879 0.944152 -1.82414 0
M  V30 592 H 57.9179 3.49342 -1.65822 0
M  V30 593 H 59.6069 3.48731 -2.07705 0
M  V30 594 H 60.3729 2.31081 -4.26412 0
M  V30 595 H 56.2519 3.14781 -3.368 0
M  V30 596 H 59.7959 2.0923 -6.65484 0
M  V30 597 H 55.6929 2.93269 -5.75034 0
M  V30 598 H 56.4609 2.52509 -7.78577 0
M  V30 599 N 59.124 1.23083 0.984299 0
M  V30 600 C 60.352 1.08714 1.76037 0
M  V30 601 C 60.767 -0.361691 1.85303 0
M  V30 602 O 60.124 -1.25034 1.32939 0
M  V30 603 C 60.175 1.70206 3.18923 0
M  V30 604 O 59.896 3.09423 3.10144 0
M  V30 605 C 61.397 1.61227 4.12941 0
M  V30 606 H 58.617 0.380664 0.552572 0
M  V30 607 H 61.161 1.62853 1.23689 0
M  V30 608 H 59.316 1.20109 3.6831 0
M  V30 609 H 59.73 3.39188 4.00065 0
M  V30 610 H 61.204 2.08962 5.10919 0
M  V30 611 H 61.681 0.570375 4.35481 0
M  V30 612 H 62.287 2.10671 3.69456 0
M  V30 613 N 60.6021 -1.18246 1.0419 0
M  V30 614 C 61.5501 -2.23968 0.627792 0
M  V30 615 C 62.5441 -1.65828 -0.346019 0
M  V30 616 O 63.7501 -1.78733 -0.213175 0
M  V30 617 H 60.1251 -0.728939 0.184802 0
M  V30 618 H 62.0961 -2.56202 1.52981 0
M  V30 619 C 60.8451 -3.47699 0.00796591 0
M  V30 620 H 60.1681 -3.92734 0.748347 0
M  V30 621 H 61.6081 -4.23294 -0.24455 0
M  V30 622 C 60.0671 -3.13153 -1.24246 0
M  V30 623 O 60.5971 -3.27003 -2.33307 0
M  V30 624 N 58.8031 -2.67467 -1.13622 0
M  V30 625 H 58.3501 -2.56396 -0.248734 0
M  V30 626 H 58.3081 -2.44724 -1.97377 0
M  V30 627 N 62.0802 -0.821533 -1.34494 0
M  V30 628 C 63.3202 -0.414785 -2.00147 0
M  V30 629 C 63.6842 1.00299 -1.6372 0
M  V30 630 O 64.8852 1.51255 -2.22206 0
M  V30 631 C 63.1562 -0.609403 -3.52166 0
M  V30 632 S 64.7152 -0.295297 -4.37805 0
M  V30 633 H 61.5332 -0.15679 -0.693497 0
M  V30 634 H 64.1352 -1.06705 -1.63812 0
M  V30 635 H 62.8392 -1.64096 -3.76166 0
M  V30 636 H 62.3702 0.0576414 -3.93358 0
M  V30 637 H 64.3852 0.891531 -4.88125 0
M  V30 638 N 63.5583 1.46682 -0.576371 0
M  V30 639 C 64.7983 2.04306 -0.0621356 0
M  V30 640 C 65.1623 1.4389 1.2712 0
M  V30 641 O 66.3633 1.92675 1.87429 0
M  V30 642 C 64.6343 3.57399 0.00927922 0
M  V30 643 S 66.1933 4.36309 0.466859 0
M  V30 644 H 63.0113 0.710167 -0.0344016 0
M  V30 645 H 65.6133 1.79807 -0.767437 0
M  V30 646 H 64.3173 3.98889 -0.965178 0
M  V30 647 H 63.8483 3.86424 0.737547 0
M  V30 648 H 65.8633 4.6533 1.72287 0
M  V30 649 N 65.0364 0.313813 1.54444 0
M  V30 650 C 66.2834 -0.291675 2.00388 0
M  V30 651 C 66.6114 -1.52904 1.2021 0
M  V30 652 O 65.8664 -1.93833 0.269707 0
M  V30 653 C 66.1654 -0.680386 3.50864 0
M  V30 654 C 65.8314 0.456699 4.48581 0
M  V30 655 C 64.4934 0.768824 4.75018 0
M  V30 656 C 66.8454 1.22098 5.06697 0
M  V30 657 C 64.1734 1.84812 5.56831 0
M  V30 658 C 66.5254 2.29029 5.89685 0
M  V30 659 C 65.1894 2.60834 6.14428 0
M  V30 660 H 64.4594 -0.106732 0.733273 0
M  V30 661 H 67.1064 0.43557 1.86481 0
M  V30 662 H 65.4114 -1.48791 3.62448 0
M  V30 663 H 67.1084 -1.16026 3.83847 0
M  V30 664 H 63.6984 0.203337 4.28117 0
M  V30 665 H 67.8824 0.993096 4.86263 0
M  V30 666 H 63.1384 2.09912 5.74236 0
M  V30 667 H 67.3124 2.887 6.33739 0
M  V30 668 H 64.9394 3.44596 6.77612 0
M  V30 669 N 66.5145 -1.57545 0.0417849 0
M  V30 670 C 67.7625 -1.91937 -0.632829 0
M  V30 671 C 68.0835 -0.919978 -1.71934 0
M  V30 672 O 67.3535 0.0366064 -1.95866 0
M  V30 673 H 65.9335 -0.708493 -0.236742 0
M  V30 674 H 68.5955 -1.9468 0.0925745 0
M  V30 675 H 67.6915 -2.92912 -1.07746 0
M  V30 676 N 67.9926 0.231505 -1.5589 0
M  V30 677 C 69.2396 0.957352 -1.78441 0
M  V30 678 C 69.5676 1.84726 -0.60882 0
M  V30 679 O 68.8226 1.91416 0.40725 0
M  V30 680 C 69.1216 1.83577 -3.0665 0
M  V30 681 C 68.7876 1.09993 -4.37278 0
M  V30 682 C 67.4496 0.896629 -4.72773 0
M  V30 683 C 69.8016 0.579558 -5.17968 0
M  V30 684 C 67.1296 0.160896 -5.86479 0
M  V30 685 C 69.4816 -0.142783 -6.32439 0
M  V30 686 C 68.1456 -0.357427 -6.66542 0
M  V30 687 H 67.4156 0.35032 -0.65296 0
M  V30 688 H 70.0626 0.226259 -1.90159 0
M  V30 689 H 68.3676 2.63441 -2.90011 0
M  V30 690 H 70.0646 2.39934 -3.21298 0
M  V30 691 H 66.6546 1.26835 -4.09403 0
M  V30 692 H 70.8386 0.724125 -4.90989 0
M  V30 693 H 66.0946 -0.0157293 -6.11398 0
M  V30 694 H 70.2686 -0.553559 -6.94196 0
M  V30 695 H 67.8956 -0.929466 -7.54497 0
M  V30 696 N 69.4707 1.49531 0.497807 0
M  V30 697 C 70.4207 1.62829 1.59596 0
M  V30 698 C 71.4047 0.483824 1.53453 0
M  V30 699 O 72.5967 0.736937 1.60929 0
M  V30 700 C 69.7257 1.7011 2.98191 0
M  V30 701 C 68.8117 2.90144 3.09317 0
M  V30 702 N 69.2027 4.1418 2.90324 0
M  V30 703 C 67.5007 2.88148 3.40422 0
M  V30 704 C 68.2017 4.94886 3.05717 0
M  V30 705 N 67.1777 4.28314 3.34736 0
M  V30 706 H 70.9797 2.56446 1.4357 0
M  V30 707 H 68.4937 1.46347 0.704001 0
M  V30 708 H 70.4907 1.77735 3.77115 0
M  V30 709 H 69.1507 0.776315 3.15283 0
M  V30 710 H 70.1617 4.44109 2.66436 0
M  V30 711 H 66.8387 2.05061 3.63671 0
M  V30 712 H 68.2287 6.03432 2.95499 0
M  V30 713 N 70.9488 -0.749086 1.3866 0
M  V30 714 C 72.3648 -1.05276 1.19955 0
M  V30 715 C 72.5648 -2.01435 0.05134 0
M  V30 716 O 71.6208 -2.45232 -0.60147 0
M  V30 717 C 72.9338 -1.62853 2.52783 0
M  V30 718 C 74.4818 -1.75002 2.59506 0
M  V30 719 C 74.9568 -2.35991 3.92521 0
M  V30 720 N 76.4478 -2.43416 3.94085 0
M  V30 721 C 77.1828 -2.91511 4.9377 0
M  V30 722 N 76.6788 -3.39608 6.03853 0
M  V30 723 N 78.4718 -2.90592 4.81157 0
M  V30 724 H 70.6228 -0.111066 2.12109 0
M  V30 725 H 72.8858 -0.111901 0.941373 0
M  V30 726 H 72.5918 -0.99664 3.37283 0
M  V30 727 H 72.4658 -2.61854 2.715 0
M  V30 728 H 74.8528 -2.37317 1.75398 0
M  V30 729 H 74.9338 -0.74693 2.44652 0
M  V30 730 H 74.5778 -1.74308 4.77053 0
M  V30 731 H 74.5078 -3.3695 4.04688 0
M  V30 732 H 76.9988 -2.09405 3.14576 0
M  V30 733 H 77.3118 -3.74775 6.75843 0
M  V30 734 H 75.6568 -3.37653 6.07466 0
M  V30 735 H 78.8478 -2.52332 3.94267 0
M  V30 736 H 79.0208 -3.27762 5.58996 0
M  V30 737 N 72.4269 -1.23603 -0.977757 0
M  V30 738 C 73.3569 -1.04401 -2.0886 0
M  V30 739 C 74.3379 0.0399052 -1.70053 0
M  V30 740 O 75.5229 -0.125246 -1.93796 0
M  V30 741 C 72.6529 -0.637269 -3.41403 0
M  V30 742 C 71.6069 -1.66883 -3.94124 0
M  V30 743 C 70.9329 -1.11745 -5.22893 0
M  V30 744 C 72.2329 -3.06247 -4.23096 0
M  V30 745 H 73.9269 -1.97316 -2.25182 0
M  V30 746 H 71.4729 -0.950096 -1.08209 0
M  V30 747 H 73.4259 -0.48998 -4.18542 0
M  V30 748 H 72.1499 0.327557 -3.24953 0
M  V30 749 H 70.8089 -1.80416 -3.19133 0
M  V30 750 H 70.4569 -0.143527 -5.02795 0
M  V30 751 H 70.1569 -1.80672 -5.59134 0
M  V30 752 H 71.6809 -0.982067 -6.02651 0
M  V30 753 H 73.0949 -2.96001 -4.90975 0
M  V30 754 H 71.4919 -3.72436 -4.70544 0
M  V30 755 H 72.5619 -3.55041 -3.30263 0
M  V30 756 N 73.905 1.17692 -1.04816 0
M  V30 757 C 74.868 2.19787 -0.650117 0
M  V30 758 C 75.868 1.58044 0.296427 0
M  V30 759 O 77.058 1.74012 0.0808097 0
M  V30 760 C 74.19 3.40869 0.0456987 0
M  V30 761 H 75.383 2.56516 -1.5537 0
M  V30 762 H 72.936 1.31708 -0.841594 0
M  V30 763 H 73.671 3.09681 0.962726 0
M  V30 764 H 73.456 3.86928 -0.634727 0
M  V30 765 H 74.946 4.16445 0.310432 0
M  V30 766 N 75.3831 0.828654 1.34056 0
M  V30 767 C 76.6291 0.42008 1.98402 0
M  V30 768 C 76.9621 -1.01564 1.65525 0
M  V30 769 O 76.2371 -1.70834 0.929831 0
M  V30 770 C 76.5201 0.62927 3.54559 0
M  V30 771 C 76.3731 2.11152 3.97159 0
M  V30 772 C 77.6921 0.0688756 4.40046 0
M  V30 773 H 74.8111 0.154104 0.720709 0
M  V30 774 H 77.4531 1.04228 1.5886 0
M  V30 775 H 75.6031 0.0996418 3.88372 0
M  V30 776 H 77.2751 2.70522 3.73651 0
M  V30 777 H 75.5181 2.59985 3.47261 0
M  V30 778 H 76.1891 2.20868 5.05887 0
M  V30 779 H 78.6651 0.521458 4.1282 0
M  V30 780 H 77.5411 0.245006 5.48353 0
M  V30 781 H 77.8021 -1.0266 4.30015 0
M  V30 782 N 76.8612 -1.46375 0.584142 0
M  V30 783 C 78.1072 -2.02678 0.0703716 0
M  V30 784 C 78.4402 -1.4545 -1.28678 0
M  V30 785 O 77.7152 -0.62014 -1.84349 0
M  V30 786 C 77.9982 -3.60099 0.00614674 0
M  V30 787 C 77.8512 -4.27709 1.3923 0
M  V30 788 C 79.1702 -4.34598 -0.693742 0
M  V30 789 H 76.2892 -0.736504 0.027047 0
M  V30 790 H 78.9312 -1.74501 0.751615 0
M  V30 791 H 77.0812 -3.84236 -0.574009 0
M  V30 792 H 78.7532 -4.14832 2.01773 0
M  V30 793 H 76.9962 -3.87016 1.95962 0
M  V30 794 H 77.6672 -5.36478 1.29982 0
M  V30 795 H 80.1432 -4.15615 -0.200869 0
M  V30 796 H 79.0192 -5.44318 -0.707714 0
M  V30 797 H 79.2802 -4.05759 -1.75533 0
M  V30 798 N 78.3393 -0.321999 -1.54275 0
M  V30 799 C 79.6163 0.335232 -1.92706 0
M  V30 800 C 79.9963 1.70006 -1.25145 0
M  V30 801 O 79.3443 2.25067 -0.394596 0
M  V30 802 C 79.5543 0.429008 -3.46353 0
M  V30 803 C 80.9023 0.690029 -4.18956 0
M  V30 804 O 81.9263 0.511992 -3.52501 0
M  V30 805 O 80.7853 1.03338 -5.36641 0
M  V30 806 H 77.8793 0.191143 -0.804608 0
M  V30 807 H 80.4253 -0.3716 -1.65581 0
M  V30 808 H 79.1973 -0.529611 -3.87699 0
M  V30 809 H 78.8203 1.18348 -3.79578 0
M  V30 810 N 79.8174 1.5752 -0.0501392 0
M  V30 811 C 81.2284 1.80271 0.485705 0
M  V30 812 C 81.5794 0.96228 1.70981 0
M  V30 813 O 80.7044 0.178578 2.15662 0
M  V30 814 C 81.2994 3.26957 0.887938 0
M  V30 815 C 79.8584 3.5063 1.36877 0
M  V30 816 C 79.0054 2.75165 0.343468 0
M  V30 817 H 81.9564 1.56281 -0.276028 0
M  V30 818 H 81.9774 3.37821 1.75093 0
M  V30 819 H 81.4894 3.881 -0.0031809 0
M  V30 820 H 79.5904 2.94766 2.27911 0
M  V30 821 H 79.7034 4.59343 1.36164 0
M  V30 822 H 78.0674 2.4127 0.816128 0
M  V30 823 H 78.8504 3.39034 -0.539548 0
M  V30 824 N 81.2955 -0.223234 1.56011 0
M  V30 825 C 82.2255 -1.27988 1.95298 0
M  V30 826 C 83.2065 -1.48976 0.820979 0
M  V30 827 O 84.3915 -1.61188 1.08315 0
M  V30 828 C 81.5215 -2.63 2.26822 0
M  V30 829 C 80.4755 -2.56671 3.42497 0
M  V30 830 C 79.8015 -3.95697 3.59622 0
M  V30 831 C 81.1015 -2.11601 4.77517 0
M  V30 832 H 82.7955 -0.953525 2.8381 0
M  V30 833 H 80.3415 -0.457244 1.36548 0
M  V30 834 H 82.2945 -3.37077 2.52898 0
M  V30 835 H 81.0185 -2.9732 1.35161 0
M  V30 836 H 79.6775 -1.85051 3.16467 0
M  V30 837 H 79.3255 -4.27322 2.6534 0
M  V30 838 H 79.0255 -3.92345 4.37424 0
M  V30 839 H 80.5495 -4.71438 3.88044 0
M  V30 840 H 81.9635 -2.7542 5.02809 0
M  V30 841 H 80.3605 -2.19311 5.5859 0
M  V30 842 H 81.4305 -1.06824 4.72987 0
M  V30 843 N 82.7736 -1.49793 -0.48987 0
M  V30 844 C 84.0206 -1.59841 -1.24327 0
M  V30 845 C 84.3486 -0.290135 -1.92324 0
M  V30 846 O 83.6036 0.722749 -1.81865 0
M  V30 847 C 83.9026 -2.71488 -2.32441 0
M  V30 848 C 83.5686 -4.12614 -1.81826 0
M  V30 849 C 82.2306 -4.51017 -1.67742 0
M  V30 850 C 84.5826 -5.00892 -1.4407 0
M  V30 851 C 81.9106 -5.75459 -1.14297 0
M  V30 852 C 84.2626 -6.25863 -0.920742 0
M  V30 853 C 82.9266 -6.63086 -0.766383 0
M  V30 854 H 82.1966 -0.584899 -0.454944 0
M  V30 855 H 84.8436 -1.83663 -0.542215 0
M  V30 856 H 83.1486 -2.4168 -3.0838 0
M  V30 857 H 84.8456 -2.76469 -2.90458 0
M  V30 858 H 81.4356 -3.82307 -1.93751 0
M  V30 859 H 85.6196 -4.7187 -1.53794 0
M  V30 860 H 80.8756 -6.02989 -1.01068 0
M  V30 861 H 85.0496 -6.9364 -0.619448 0
M  V30 862 H 82.6766 -7.59393 -0.350083 0
M  V30 863 N 84.2517 0.741722 -1.39055 0
M  V30 864 C 85.4997 1.49818 -1.35643 0
M  V30 865 C 85.8207 1.94938 0.0491642 0
M  V30 866 O 85.0907 1.68505 0.999141 0
M  V30 867 H 83.6707 0.555755 -0.499144 0
M  V30 868 H 86.3327 0.880957 -1.73854 0
M  V30 869 H 85.4287 2.38348 -2.01486 0
M  V30 870 N 85.7298 1.2412 0.971189 0
M  V30 871 C 86.6628 0.97373 2.06382 0
M  V30 872 C 87.6408 -0.0912662 1.62344 0
M  V30 873 O 88.8248 0.0449365 1.88446 0
M  V30 874 C 85.9518 0.468746 3.35441 0
M  V30 875 C 84.9978 1.52176 3.98428 0
M  V30 876 S 85.8308 3.10203 4.36503 0
M  V30 877 C 86.9868 2.61398 5.68702 0
M  V30 878 H 87.2198 1.89893 2.28753 0
M  V30 879 H 84.7528 1.07466 1.10862 0
M  V30 880 H 86.7108 0.184012 4.10087 0
M  V30 881 H 85.3718 -0.435688 3.11064 0
M  V30 882 H 84.5648 1.11876 4.91426 0
M  V30 883 H 84.1668 1.75632 3.30196 0
M  V30 884 H 86.4588 2.03992 6.4606 0
M  V30 885 H 87.4018 3.52972 6.13854 0
M  V30 886 H 87.8098 2.01941 5.27143 0
M  V30 887 N 87.2079 -1.17134 1.05439 0
M  V30 888 C 88.1399 -2.2078 0.615539 0
M  V30 889 C 89.1529 -1.59584 -0.322001 0
M  V30 890 O 90.3419 -1.78133 -0.114344 0
M  V30 891 C 87.4419 -3.38691 -0.118938 0
M  V30 892 C 86.6149 -4.29454 0.829924 0
M  V30 893 C 85.6739 -5.26024 0.136258 0
M  V30 894 O 84.6999 -5.63952 0.77115 0
M  V30 895 N 85.9019 -5.69487 -1.1254 0
M  V30 896 H 88.6669 -2.59052 1.50705 0
M  V30 897 H 86.2279 -1.32058 0.936603 0
M  V30 898 H 88.2199 -4.00329 -0.593179 0
M  V30 899 H 86.7899 -2.98996 -0.91215 0
M  V30 900 H 86.0099 -3.65211 1.48373 0
M  V30 901 H 87.2979 -4.86984 1.47392 0
M  V30 902 H 86.6959 -5.4075 -1.6615 0
M  V30 903 H 85.2529 -6.33257 -1.54366 0
M  V30 904 N 88.686 -0.835752 -1.33615 0
M  V30 905 C 90.097 -0.487099 -1.80234 0
M  V30 906 C 90.448 0.993627 -1.69179 0
M  V30 907 O 89.573 1.77403 -1.23924 0
M  V30 908 C 90.168 -0.877385 -3.27242 0
M  V30 909 C 88.727 -0.580915 -3.7189 0
M  V30 910 C 87.874 -1.0874 -2.5509 0
M  V30 911 H 90.825 -1.02474 -1.2118 0
M  V30 912 H 90.846 -0.186195 -3.80044 0
M  V30 913 H 90.358 -1.95512 -3.35256 0
M  V30 914 H 88.459 0.486881 -3.69405 0
M  V30 915 H 88.572 -1.13396 -4.65487 0
M  V30 916 H 86.936 -0.508392 -2.49575 0
M  V30 917 H 87.719 -2.17184 -2.65868 0
M  V30 918 N 90.1641 1.46063 -0.591896 0
M  V30 919 C 91.4131 2.01547 -0.0786637 0
M  V30 920 C 91.7261 1.46796 1.29268 0
M  V30 921 O 92.9321 1.94157 1.89777 0
M  V30 922 C 91.3881 3.59787 -0.0900024 0
M  V30 923 C 90.9961 4.23534 -1.46023 0
M  V30 924 C 92.7401 4.22895 0.368806 0
M  V30 925 C 90.6471 5.73881 -1.4288 0
M  V30 926 H 89.5771 0.753564 -0.0256388 0
M  V30 927 H 92.2281 1.677 -0.744905 0
M  V30 928 H 90.6101 3.90752 0.642586 0
M  V30 929 H 91.7841 4.04167 -2.21328 0
M  V30 930 H 90.0991 3.72558 -1.85982 0
M  V30 931 H 92.6961 5.33116 0.411258 0
M  V30 932 H 93.0391 3.9247 1.38827 0
M  V30 933 H 93.5721 3.9659 -0.31001 0
M  V30 934 H 90.3111 6.0898 -2.42536 0
M  V30 935 H 89.8311 5.95486 -0.718095 0
M  V30 936 H 91.5101 6.36776 -1.14565 0
M  V30 937 N 91.6422 0.330177 1.54103 0
M  V30 938 C 93.0582 -0.0222371 1.59585 0
M  V30 939 C 93.2582 -1.49902 1.34654 0
M  V30 940 O 92.3142 -2.25592 1.13421 0
M  V30 941 C 93.6272 0.401932 2.98002 0
M  V30 942 C 95.1752 0.353145 3.11001 0
M  V30 943 C 95.6502 0.752576 4.51775 0
M  V30 944 N 97.1412 0.706239 4.57784 0
M  V30 945 C 97.8762 0.987417 5.64834 0
M  V30 946 N 97.3722 1.33607 6.79795 0
M  V30 947 N 99.1652 0.91254 5.54643 0
M  V30 948 H 91.3162 1.29228 1.68564 0
M  V30 949 H 93.5792 0.525906 0.78875 0
M  V30 950 H 93.2852 1.4311 3.21267 0
M  V30 951 H 93.1592 -0.229699 3.765 0
M  V30 952 H 95.5462 -0.666822 2.87467 0
M  V30 953 H 95.6272 1.0198 2.34593 0
M  V30 954 H 95.2712 1.77049 4.76042 0
M  V30 955 H 95.2012 0.0635409 5.26562 0
M  V30 956 H 97.6922 0.44889 3.75224 0
M  V30 957 H 98.0052 1.53582 7.57385 0
M  V30 958 H 96.3502 1.37439 6.81275 0
M  V30 959 H 99.5412 0.639601 4.6371 0
M  V30 960 H 99.7142 1.13503 6.37982 0
M  V30 961 N 93.1203 -1.57491 0.0584922 0
M  V30 962 C 94.3663 -1.93264 -0.614558 0
M  V30 963 C 94.6993 -0.937717 -1.7006 0
M  V30 964 O 93.9743 0.0351652 -1.94468 0
M  V30 965 C 94.2573 -3.3938 -1.20386 0
M  V30 966 C 94.1103 -4.49625 -0.125375 0
M  V30 967 C 95.4293 -3.86039 -2.11334 0
M  V30 968 H 92.5483 -0.702791 -0.221933 0
M  V30 969 H 95.1903 -1.8961 0.12175 0
M  V30 970 H 93.3403 -3.42626 -1.83139 0
M  V30 971 H 95.0123 -4.58506 0.506971 0
M  V30 972 H 93.2553 -4.30354 0.545672 0
M  V30 973 H 93.9263 -5.48967 -0.577861 0
M  V30 974 H 96.4023 -3.84716 -1.58534 0
M  V30 975 H 95.2783 -4.88914 -2.49507 0
M  V30 976 H 95.5393 -3.23215 -3.01636 0
M  V30 977 N 94.5984 0.214957 -1.56127 0
M  V30 978 C 95.5454 1.26642 -1.92952 0
M  V30 979 C 96.5154 1.46244 -0.78753 0
M  V30 980 O 97.7004 1.59704 -1.04399 0
M  V30 981 C 94.8404 2.6104 -2.25726 0
M  V30 982 C 93.9534 2.49183 -3.52891 0
M  V30 983 C 93.0884 3.76149 -3.7508 0
M  V30 984 C 92.1274 3.59041 -4.95738 0
M  V30 985 N 91.2644 4.77972 -5.14283 0
M  V30 986 H 96.1044 0.945384 -2.82607 0
M  V30 987 H 93.6414 0.455489 -1.3987 0
M  V30 988 H 95.5994 3.39313 -2.42739 0
M  V30 989 H 94.2294 2.91227 -1.39236 0
M  V30 990 H 93.2814 1.6231 -3.44034 0
M  V30 991 H 94.5934 2.32466 -4.41318 0
M  V30 992 H 93.7474 4.62865 -3.92226 0
M  V30 993 H 92.4864 3.95799 -2.84947 0
M  V30 994 H 91.4914 2.7071 -4.78535 0
M  V30 995 H 92.7164 3.40856 -5.87362 0
M  V30 996 H 90.6624 4.97923 -4.27093 0
M  V30 997 H 90.5794 4.64006 -5.96853 0
M  V30 998 H 91.8474 5.66096 -5.35869 0
M  V30 999 N 96.0765 1.50051 0.48192 0
M  V30 1000 C 97.0235 1.68122 1.58125 0
M  V30 1001 C 97.9935 0.522545 1.57666 0
M  V30 1002 O 99.1785 0.751844 1.75362 0
M  V30 1003 C 96.3185 1.77142 2.96167 0
M  V30 1004 C 95.4315 3.0444 3.06497 0
M  V30 1005 C 94.5665 3.04321 4.35387 0
M  V30 1006 C 93.6055 4.26118 4.3942 0
M  V30 1007 N 92.7425 4.238 5.59766 0
M  V30 1008 H 97.5825 2.6198 1.42022 0
M  V30 1009 H 95.1195 1.29877 0.690687 0
M  V30 1010 H 97.0775 1.80352 3.76203 0
M  V30 1011 H 95.7075 0.867329 3.1093 0
M  V30 1012 H 94.7595 3.10752 2.19402 0
M  V30 1013 H 96.0715 3.94426 3.05336 0
M  V30 1014 H 95.2255 3.062 5.23762 0
M  V30 1015 H 93.9645 2.12147 4.39141 0
M  V30 1016 H 92.9695 4.24463 3.49444 0
M  V30 1017 H 94.1945 5.19507 4.37366 0
M  V30 1018 H 92.1405 3.34474 5.64326 0
M  V30 1019 H 92.0575 5.07542 5.60301 0
M  V30 1020 H 93.3255 4.2981 6.50295 0
M  V30 1021 N 97.5546 -0.734337 1.39446 0
M  V30 1022 C 98.7846 -1.52137 1.39778 0
M  V30 1023 C 99.1926 -1.89198 -0.00929312 0
M  V30 1024 O 98.5356 -1.54666 -0.991168 0
M  V30 1025 C 98.5976 -2.83762 2.20724 0
M  V30 1026 C 98.2616 -2.69131 3.69347 0
M  V30 1027 C 99.2586 -2.37635 4.62413 0
M  V30 1028 C 96.9436 -2.85982 4.1294 0
M  V30 1029 C 98.9376 -2.23172 5.97054 0
M  V30 1030 C 96.6246 -2.71137 5.47657 0
M  V30 1031 C 97.6226 -2.39777 6.39528 0
M  V30 1032 O 97.3106 -2.25026 7.71763 0
M  V30 1033 H 97.0426 -0.476717 0.479288 0
M  V30 1034 H 99.5966 -0.915012 1.83893 0
M  V30 1035 H 97.8266 -3.4666 1.71359 0
M  V30 1036 H 99.5156 -3.45383 2.13226 0
M  V30 1037 H 100.282 -2.24267 4.30034 0
M  V30 1038 H 96.1606 -3.09383 3.41765 0
M  V30 1039 H 99.7046 -1.98617 6.68728 0
M  V30 1040 H 95.6016 -2.84083 5.79626 0
M  V30 1041 H 96.3696 -2.40091 7.82495 0
M  V30 1042 N 99.0327 -1.24633 -0.964593 0
M  V30 1043 C 100.444 -1.08045 -1.5226 0
M  V30 1044 C 100.795 0.347116 -1.93105 0
M  V30 1045 O 99.9197 1.23588 -1.77637 0
M  V30 1046 C 100.515 -1.95514 -2.76695 0
M  V30 1047 C 99.0737 -1.8314 -3.28841 0
M  V30 1048 C 98.2207 -1.90262 -2.01732 0
M  V30 1049 H 101.172 -1.38064 -0.782553 0
M  V30 1050 H 101.193 -1.48925 -3.50145 0
M  V30 1051 H 100.705 -2.99407 -2.46936 0
M  V30 1052 H 98.8057 -0.82092 -3.63444 0
M  V30 1053 H 98.9187 -2.67406 -3.97531 0
M  V30 1054 H 97.2827 -1.34027 -2.16584 0
M  V30 1055 H 98.0657 -2.9574 -1.74334 0
M  V30 1056 N 100.511 1.16574 -1.06058 0
M  V30 1057 C 101.741 1.90675 -0.795397 0
M  V30 1058 C 102.149 1.77547 0.653735 0
M  V30 1059 O 101.492 1.11611 1.45907 0
M  V30 1060 C 101.554 3.42011 -1.10764 0
M  V30 1061 C 101.218 3.78924 -2.55471 0
M  V30 1062 C 102.215 3.81042 -3.53699 0
M  V30 1063 C 99.8998 4.09626 -2.90708 0
M  V30 1064 C 101.894 4.13346 -4.85205 0
M  V30 1065 C 99.5808 4.41597 -4.22416 0
M  V30 1066 C 100.579 4.43436 -5.19474 0
M  V30 1067 O 100.267 4.74649 -6.48817 0
M  V30 1068 H 99.9988 0.611554 -0.288058 0
M  V30 1069 H 102.553 1.48711 -1.41683 0
M  V30 1070 H 100.783 3.84312 -0.429128 0
M  V30 1071 H 102.472 3.97384 -0.827077 0
M  V30 1072 H 103.238 3.57437 -3.27817 0
M  V30 1073 H 99.1168 4.07361 -2.15819 0
M  V30 1074 H 102.661 4.14696 -5.60957 0
M  V30 1075 H 98.5578 4.64667 -4.48056 0
M  V30 1076 H 99.3258 4.9247 -6.5377 0
M  V30 1077 N 101.989 0.842826 1.3317 0
M  V30 1078 C 102.919 0.294028 2.31641 0
M  V30 1079 C 103.9 -0.600401 1.59151 0
M  V30 1080 O 105.085 -0.523124 1.87022 0
M  V30 1081 C 102.215 -0.528416 3.43257 0
M  V30 1082 C 101.169 0.27056 4.27144 0
M  V30 1083 C 100.495 -0.675881 5.30411 0
M  V30 1084 C 101.795 1.48981 5.00602 0
M  V30 1085 H 103.489 1.11681 2.77791 0
M  V30 1086 H 101.035 0.538478 1.33553 0
M  V30 1087 H 102.988 -0.922674 4.11175 0
M  V30 1088 H 101.712 -1.38445 2.95805 0
M  V30 1089 H 100.371 0.646427 3.60856 0
M  V30 1090 H 100.019 -1.52842 4.79216 0
M  V30 1091 H 99.7189 -0.145374 5.8742 0
M  V30 1092 H 101.243 -1.06757 6.01195 0
M  V30 1093 H 102.657 1.16849 5.61266 0
M  V30 1094 H 101.054 1.95739 5.6728 0
M  V30 1095 H 102.124 2.25746 4.29147 0
M  V30 1096 N 103.467 -1.45747 0.599634 0
M  V30 1097 C 104.713 -2.03153 0.100263 0
M  V30 1098 C 105.068 -1.46073 -1.25221 0
M  V30 1099 O 104.361 -0.622878 -1.81193 0
M  V30 1100 C 104.555 -3.57399 -0.00602758 0
M  V30 1101 C 104.384 -4.2944 1.3346 0
M  V30 1102 C 103.154 -4.6768 1.91321 0
M  V30 1103 C 105.352 -4.61905 2.2616 0
M  V30 1104 N 103.334 -5.24544 3.18946 0
M  V30 1105 C 104.705 -5.19518 3.3838 0
M  V30 1106 C 106.76 -4.43841 2.25631 0
M  V30 1107 C 105.463 -5.60972 4.50226 0
M  V30 1108 C 107.489 -4.86322 3.36518 0
M  V30 1109 C 106.851 -5.44021 4.4746 0
M  V30 1110 H 102.95 -0.777911 0.0798696 0
M  V30 1111 H 105.534 -1.77674 0.796244 0
M  V30 1112 H 103.705 -3.82556 -0.671212 0
M  V30 1113 H 105.437 -4.01457 -0.51133 0
M  V30 1114 H 102.192 -4.5098 1.44617 0
M  V30 1115 H 102.616 -5.57483 3.84112 0
M  V30 1116 H 107.258 -3.98552 1.41123 0
M  V30 1117 H 104.976 -6.0523 5.35464 0
M  V30 1118 H 108.562 -4.74084 3.37247 0
M  V30 1119 H 107.442 -5.76289 5.31846 0
M  V30 1120 N 104.945 -0.338344 -1.53925 0
M  V30 1121 C 105.875 0.51328 -2.27789 0
M  V30 1122 C 106.856 1.107 -1.29149 0
M  V30 1123 O 108.041 1.12937 -1.57984 0
M  V30 1124 C 105.171 1.66697 -3.04679 0
M  V30 1125 C 104.125 1.20183 -4.1078 0
M  V30 1126 C 103.451 2.44363 -4.75595 0
M  V30 1127 C 104.751 0.30605 -5.21403 0
M  V30 1128 H 106.445 -0.102883 -2.99223 0
M  V30 1129 H 103.991 -0.0509219 -1.4391 0
M  V30 1130 H 105.944 2.26915 -3.55088 0
M  V30 1131 H 104.668 2.30995 -2.30887 0
M  V30 1132 H 103.327 0.622499 -3.61276 0
M  V30 1133 H 102.975 3.07057 -3.98403 0
M  V30 1134 H 102.675 2.13925 -5.47275 0
M  V30 1135 H 104.199 3.05317 -5.28786 0
M  V30 1136 H 105.613 0.814929 -5.67478 0
M  V30 1137 H 104.01 0.0937929 -6.00027 0
M  V30 1138 H 105.08 -0.65921 -4.80398 0
M  V30 1139 N 106.423 1.57458 -0.0668435 0
M  V30 1140 C 107.663 1.95175 0.607116 0
M  V30 1141 C 108.027 0.946039 1.67075 0
M  V30 1142 O 109.228 1.2107 2.39991 0
M  V30 1143 C 107.499 3.37582 1.17358 0
M  V30 1144 S 109.058 3.97271 1.86336 0
M  V30 1145 H 105.876 0.682604 0.19893 0
M  V30 1146 H 108.478 1.95002 -0.139519 0
M  V30 1147 H 107.182 4.08566 0.387553 0
M  V30 1148 H 106.713 3.41288 1.95669 0
M  V30 1149 H 108.728 3.83772 3.14537 0
M  V30 1150 N 107.901 -0.206675 1.56239 0
M  V30 1151 C 109.131 -0.943975 1.83773 0
M  V30 1152 C 109.539 -1.77841 0.645703 0
M  V30 1153 O 108.882 -1.79403 -0.395008 0
M  V30 1154 C 108.944 -1.899 3.05251 0
M  V30 1155 C 108.608 -1.24764 4.39639 0
M  V30 1156 C 109.605 -0.630216 5.16066 0
M  V30 1157 C 107.29 -1.25496 4.8637 0
M  V30 1158 C 109.284 -0.0287946 6.37393 0
M  V30 1159 C 106.971 -0.649698 6.07637 0
M  V30 1160 C 107.969 -0.0376845 6.8299 0
M  V30 1161 O 107.657 0.55812 8.0196 0
M  V30 1162 H 107.389 -0.281508 0.614597 0
M  V30 1163 H 109.943 -0.222458 2.04192 0
M  V30 1164 H 108.173 -2.6599 2.80689 0
M  V30 1165 H 109.862 -2.5031 3.1953 0
M  V30 1166 H 110.628 -0.616785 4.81062 0
M  V30 1167 H 106.507 -1.72072 4.27683 0
M  V30 1168 H 110.051 0.449518 6.9615 0
M  V30 1169 H 105.948 -0.660592 6.42111 0
M  V30 1170 H 106.716 0.453891 8.17241 0
M  V30 1171 N 109.379 -1.50304 -0.473955 0
M  V30 1172 C 110.327 -1.69482 -1.59307 0
M  V30 1173 C 111.321 -0.560669 -1.59853 0
M  V30 1174 O 112.527 -0.741087 -1.64036 0
M  V30 1175 H 108.902 -0.534892 -0.528578 0
M  V30 1176 H 110.873 -2.63364 -1.40293 0
M  V30 1177 C 109.622 -1.80354 -2.97267 0
M  V30 1178 H 108.945 -2.67012 -2.97564 0
M  V30 1179 H 110.385 -1.97798 -3.75036 0
M  V30 1180 C 108.844 -0.55448 -3.32306 0
M  V30 1181 O 109.374 0.307661 -4.0052 0
M  V30 1182 N 107.58 -0.409354 -2.87702 0
M  V30 1183 H 107.127 -1.11196 -2.32364 0
M  V30 1184 H 107.085 0.425223 -3.11511 0
M  V30 1185 N 110.857 0.726932 -1.39834 0
M  V30 1186 C 112.105 1.4837 -1.37225 0
M  V30 1187 C 112.426 1.94979 0.0284857 0
M  V30 1188 O 111.696 1.69555 0.981213 0
M  V30 1189 H 110.276 0.55043 -0.505011 0
M  V30 1190 H 112.938 0.862468 -1.74778 0
M  V30 1191 H 112.034 2.36198 -2.04003 0
M  V30 1192 N 112.336 1.25143 0.95797 0
M  V30 1193 C 113.246 1.06968 2.08794 0
M  V30 1194 C 114.262 0.00773911 1.73998 0
M  V30 1195 O 115.438 0.207972 2.00323 0
M  V30 1196 C 112.503 0.68691 3.39827 0
M  V30 1197 C 111.564 1.82641 3.88511 0
M  V30 1198 C 110.797 1.46181 5.1329 0
M  V30 1199 O 111.02 0.355971 5.69288 0
M  V30 1200 O 109.954 2.29085 5.566 0
M  V30 1201 H 113.78 2.01723 2.27027 0
M  V30 1202 H 111.365 1.04051 1.07209 0
M  V30 1203 H 113.247 0.485417 4.18595 0
M  V30 1204 H 111.922 -0.231417 3.22872 0
M  V30 1205 H 110.829 2.08274 3.10762 0
M  V30 1206 H 112.162 2.72386 4.09959 0
M  V30 1207 N 113.814 -1.1601 1.06675 0
M  V30 1208 C 115.063 -1.85973 0.780818 0
M  V30 1209 C 115.376 -1.82819 -0.695444 0
M  V30 1210 O 116.582 -2.484 -1.09589 0
M  V30 1211 C 115.038 -3.33757 1.34665 0
M  V30 1212 C 114.646 -3.45374 2.85343 0
M  V30 1213 C 116.39 -4.0895 1.13843 0
M  V30 1214 C 114.297 -4.87266 3.35151 0
M  V30 1215 H 113.227 -0.696661 0.288407 0
M  V30 1216 H 115.878 -1.30903 1.28595 0
M  V30 1217 H 114.26 -3.88456 0.769274 0
M  V30 1218 H 115.434 -3.00816 3.49065 0
M  V30 1219 H 113.749 -2.83619 3.04876 0
M  V30 1220 H 116.346 -5.13654 1.4854 0
M  V30 1221 H 116.689 -4.16229 0.0770282 0
M  V30 1222 H 117.222 -3.605 1.68179 0
M  V30 1223 H 113.961 -4.85168 4.40786 0
M  V30 1224 H 113.481 -5.32433 2.76179 0
M  V30 1225 H 115.16 -5.56097 3.30704 0
M  V30 1226 N 115.292 -0.849877 -1.32721 0
M  V30 1227 C 116.522 -0.46408 -2.0132 0
M  V30 1228 C 116.93 0.94246 -1.64056 0
M  V30 1229 O 116.273 1.6257 -0.855379 0
M  V30 1230 C 116.335 -0.517887 -3.5575 0
M  V30 1231 C 115.999 -1.88248 -4.16427 0
M  V30 1232 C 116.996 -2.84726 -4.35002 0
M  V30 1233 C 114.681 -2.17832 -4.52609 0
M  V30 1234 C 116.675 -4.08945 -4.8892 0
M  V30 1235 C 114.362 -3.42304 -5.06232 0
M  V30 1236 C 115.36 -4.37677 -5.24335 0
M  V30 1237 O 115.048 -5.59946 -5.76815 0
M  V30 1238 H 114.78 -0.181327 -0.651227 0
M  V30 1239 H 117.334 -1.14713 -1.70382 0
M  V30 1240 H 115.564 0.221997 -3.86062 0
M  V30 1241 H 117.253 -0.148366 -4.05629 0
M  V30 1242 H 118.019 -2.63174 -4.07388 0
M  V30 1243 H 113.898 -1.44385 -4.37806 0
M  V30 1244 H 117.442 -4.83396 -5.02966 0
M  V30 1245 H 113.339 -3.63709 -5.33278 0
M  V30 1246 H 114.107 -5.61838 -5.95214 0
M  V30 1247 N 116.77 1.45427 -0.607355 0
M  V30 1248 C 117.718 2.32269 0.12411 0
M  V30 1249 C 118.712 1.45955 0.859854 0
M  V30 1250 O 119.918 1.6244 0.775447 0
M  V30 1251 H 116.293 0.749691 0.0588839 0
M  V30 1252 H 118.264 2.91743 -0.626762 0
M  V30 1253 C 117.013 3.29567 1.1082 0
M  V30 1254 H 116.336 3.95978 0.551492 0
M  V30 1255 H 117.776 3.93061 1.58995 0
M  V30 1256 C 116.235 2.56722 2.18164 0
M  V30 1257 O 116.765 2.34842 3.25902 0
M  V30 1258 N 114.971 2.16861 1.93442 0
M  V30 1259 H 114.518 2.34855 1.05834 0
M  V30 1260 H 114.476 1.68444 2.65469 0
M  V30 1261 N 118.248 0.346503 1.53744 0
M  V30 1262 C 119.198 -0.524953 2.21874 0
M  V30 1263 C 120.182 -1.06376 1.20718 0
M  V30 1264 O 121.374 -0.996972 1.46251 0
M  V30 1265 C 118.503 -1.6739 2.99726 0
M  V30 1266 C 117.589 -1.14888 4.08242 0
M  V30 1267 N 117.98 -0.345329 5.0462 0
M  V30 1268 C 116.278 -1.4255 4.22606 0
M  V30 1269 C 116.979 -0.0600706 5.81669 0
M  V30 1270 N 115.955 -0.65252 5.39669 0
M  V30 1271 H 119.757 0.0960091 2.93743 0
M  V30 1272 H 117.271 0.15352 1.61673 0
M  V30 1273 H 119.268 -2.3102 3.47038 0
M  V30 1274 H 117.928 -2.29811 2.29384 0
M  V30 1275 H 118.939 0.0138439 5.17898 0
M  V30 1276 H 115.616 -2.05389 3.63486 0
M  V30 1277 H 117.006 0.588321 6.69319 0
M  V30 1278 N 119.726 -1.57421 0.075193 0
M  V30 1279 C 120.673 -2.12915 -0.890843 0
M  V30 1280 C 121.643 -1.04252 -1.29309 0
M  V30 1281 O 122.828 -1.31933 -1.37834 0
M  V30 1282 C 119.968 -2.69795 -2.15186 0
M  V30 1283 C 119.081 -3.92624 -1.80194 0
M  V30 1284 C 118.216 -4.37736 -3.00933 0
M  V30 1285 C 117.255 -5.53205 -2.61974 0
M  V30 1286 N 116.392 -5.9326 -3.75483 0
M  V30 1287 H 121.232 -2.95156 -0.410735 0
M  V30 1288 H 118.769 -1.45854 -0.191086 0
M  V30 1289 H 120.727 -3.00883 -2.89008 0
M  V30 1290 H 119.357 -1.90313 -2.60731 0
M  V30 1291 H 118.409 -3.67977 -0.964218 0
M  V30 1292 H 119.721 -4.76482 -1.47534 0
M  V30 1293 H 118.875 -4.70503 -3.8303 0
M  V30 1294 H 117.614 -3.52739 -3.36789 0
M  V30 1295 H 116.619 -5.20086 -1.783 0
M  V30 1296 H 117.844 -6.39936 -2.27284 0
M  V30 1297 H 115.79 -5.11212 -4.11094 0
M  V30 1298 H 115.707 -6.71865 -3.46602 0
M  V30 1299 H 116.975 -6.30651 -4.58148 0
M  V30 1300 N 121.204 0.198386 -1.56346 0
M  V30 1301 C 122.151 1.24589 -1.94284 0
M  V30 1302 C 123.121 1.454 -0.802997 0
M  V30 1303 O 124.306 1.58588 -1.06087 0
M  V30 1304 C 121.446 2.58631 -2.28482 0
M  V30 1305 C 120.559 2.45426 -3.55514 0
M  V30 1306 C 119.694 3.7215 -3.79049 0
M  V30 1307 C 118.733 3.53763 -4.99518 0
M  V30 1308 N 117.87 4.72491 -5.19323 0
M  V30 1309 H 122.71 0.915356 -2.83593 0
M  V30 1310 H 120.247 0.440629 -1.40346 0
M  V30 1311 H 122.205 3.3672 -2.46324 0
M  V30 1312 H 120.835 2.89734 -1.42317 0
M  V30 1313 H 119.887 1.58652 -3.45737 0
M  V30 1314 H 121.199 2.27772 -4.43758 0
M  V30 1315 H 120.353 4.58679 -3.97113 0
M  V30 1316 H 119.092 3.92754 -2.89129 0
M  V30 1317 H 118.097 2.65619 -4.8138 0
M  V30 1318 H 119.322 3.34607 -5.90944 0
M  V30 1319 H 117.268 4.93365 -4.3235 0
M  V30 1320 H 117.185 4.5765 -6.01741 0
M  V30 1321 H 118.453 5.6038 -5.41843 0
M  V30 1322 N 122.682 1.50554 0.465978 0
M  V30 1323 C 123.615 1.64436 1.58227 0
M  V30 1324 C 124.593 0.492367 1.54966 0
M  V30 1325 O 125.777 0.712536 1.74514 0
M  V30 1326 C 122.904 1.63165 2.96808 0
M  V30 1327 C 121.95 2.83987 3.18204 0
M  V30 1328 S 122.783 4.45219 2.97557 0
M  V30 1329 C 123.939 4.46649 4.3847 0
M  V30 1330 H 124.172 2.58861 1.46213 0
M  V30 1331 H 121.705 1.3988 0.653678 0
M  V30 1332 H 123.663 1.63116 3.76701 0
M  V30 1333 H 122.324 0.69967 3.06208 0
M  V30 1334 H 121.517 2.79416 4.19455 0
M  V30 1335 H 121.119 2.81629 2.46092 0
M  V30 1336 H 123.411 4.20526 5.31191 0
M  V30 1337 H 124.354 5.48295 4.48082 0
M  V30 1338 H 124.762 3.76296 4.20787 0
M  V30 1339 N 124.16 -0.719506 1.40217 0
M  V30 1340 C 125.092 -1.84428 1.36084 0
M  V30 1341 C 126.105 -1.60597 0.266913 0
M  V30 1342 O 127.294 -1.70544 0.526983 0
M  V30 1343 C 124.394 -3.20757 1.094 0
M  V30 1344 C 123.567 -3.71817 2.30372 0
M  V30 1345 C 122.626 -4.86748 1.99907 0
M  V30 1346 O 121.652 -4.99603 2.72737 0
M  V30 1347 N 122.854 -5.7226 0.974635 0
M  V30 1348 H 125.619 -1.88473 2.33019 0
M  V30 1349 H 123.18 -0.900885 1.3452 0
M  V30 1350 H 125.172 -3.95235 0.870116 0
M  V30 1351 H 123.742 -3.11884 0.211452 0
M  V30 1352 H 122.962 -2.88514 2.68614 0
M  V30 1353 H 124.25 -4.02666 3.11026 0
M  V30 1354 H 123.648 -5.6448 0.371368 0
M  V30 1355 H 122.205 -6.46739 0.810656 0
M  V30 1356 N 125.638 -1.25649 -0.95132 0
M  V30 1357 C 126.57 -1.02112 -2.05197 0
M  V30 1358 C 127.583 0.0150571 -1.62793 0
M  V30 1359 O 128.772 -0.223874 -1.77091 0
M  V30 1360 C 125.872 -0.522361 -3.3485 0
M  V30 1361 C 125.045 -1.62546 -4.06076 0
M  V30 1362 C 124.104 -1.12649 -5.14001 0
M  V30 1363 O 123.13 -1.82156 -5.39266 0
M  V30 1364 N 124.332 0.03047 -5.80492 0
M  V30 1365 H 127.097 -1.96885 -2.25957 0
M  V30 1366 H 124.658 -1.16899 -1.1201 0
M  V30 1367 H 126.65 -0.172961 -4.0433 0
M  V30 1368 H 125.22 0.33151 -3.10837 0
M  V30 1369 H 124.44 -2.14628 -3.30649 0
M  V30 1370 H 125.728 -2.36644 -4.50419 0
M  V30 1371 H 125.126 0.611169 -5.62389 0
M  V30 1372 H 123.683 0.320875 -6.5101 0
M  V30 1373 N 127.117 1.15442 -1.07289 0
M  V30 1374 C 128.067 2.18164 -0.662467 0
M  V30 1375 C 129.051 1.57845 0.312074 0
M  V30 1376 O 130.243 1.76552 0.125905 0
M  V30 1377 C 127.372 3.43246 -0.0611295 0
M  V30 1378 C 126.458 4.1062 -1.06077 0
M  V30 1379 N 126.849 4.53491 -2.24008 0
M  V30 1380 C 125.147 4.36949 -0.893964 0
M  V30 1381 C 125.848 5.05731 -2.87422 0
M  V30 1382 N 124.824 4.99236 -2.15091 0
M  V30 1383 H 128.626 2.49038 -1.56068 0
M  V30 1384 H 126.14 1.32003 -0.945988 0
M  V30 1385 H 128.137 4.16145 0.250792 0
M  V30 1386 H 126.797 3.13854 0.832207 0
M  V30 1387 H 127.808 4.46898 -2.6173 0
M  V30 1388 H 124.485 4.17466 -0.0534693 0
M  V30 1389 H 125.875 5.48865 -3.87553 0
M  V30 1390 N 128.595 0.856903 1.32268 0
M  V30 1391 C 129.842 0.461386 1.97174 0
M  V30 1392 C 130.17 -0.983491 1.67803 0
M  V30 1393 O 129.425 -1.70541 0.959903 0
M  V30 1394 C 129.724 0.649919 3.51441 0
M  V30 1395 C 129.39 2.0656 4.00804 0
M  V30 1396 C 128.052 2.45279 4.13995 0
M  V30 1397 C 130.404 2.98947 4.26943 0
M  V30 1398 C 127.732 3.75653 4.50668 0
M  V30 1399 C 130.084 4.28822 4.65075 0
M  V30 1400 C 128.748 4.67472 4.76472 0
M  V30 1401 H 128.018 0.168833 0.72151 0
M  V30 1402 H 130.665 1.08739 1.57633 0
M  V30 1403 H 128.97 -0.0593018 3.91755 0
M  V30 1404 H 130.667 0.32391 3.9969 0
M  V30 1405 H 127.257 1.75495 3.91024 0
M  V30 1406 H 131.441 2.70265 4.16258 0
M  V30 1407 H 126.697 4.05379 4.57688 0
M  V30 1408 H 130.871 5.0047 4.84255 0
M  V30 1409 H 128.498 5.68539 5.04646 0
M  V30 1410 N 130.073 -1.45103 0.615059 0
M  V30 1411 C 130.983 -2.34382 -0.101034 0
M  V30 1412 C 131.999 -1.51681 -0.852585 0
M  V30 1413 O 133.175 -1.8446 -0.808484 0
M  V30 1414 C 130.24 -3.29417 -1.08099 0
M  V30 1415 C 129.301 -4.28025 -0.330577 0
M  V30 1416 C 128.534 -5.1852 -1.26385 0
M  V30 1417 O 128.757 -5.12598 -2.50198 0
M  V30 1418 O 127.691 -5.97122 -0.756866 0
M  V30 1419 H 131.517 -2.97033 0.632855 0
M  V30 1420 H 129.102 -1.4461 0.375293 0
M  V30 1421 H 130.984 -3.87958 -1.6452 0
M  V30 1422 H 129.659 -2.69321 -1.79577 0
M  V30 1423 H 128.566 -3.73078 0.276283 0
M  V30 1424 H 129.899 -4.90997 0.343866 0
M  V30 1425 N 131.551 -0.354651 -1.53558 0
M  V30 1426 C 132.798 0.238443 -2.01091 0
M  V30 1427 C 133.126 1.49663 -1.24222 0
M  V30 1428 O 132.381 1.93049 -0.321003 0
M  V30 1429 C 132.68 0.587121 -3.52545 0
M  V30 1430 C 132.346 -0.575472 -4.47213 0
M  V30 1431 C 131.008 -0.894497 -4.72813 0
M  V30 1432 C 133.36 -1.35489 -5.03281 0
M  V30 1433 C 130.688 -1.99511 -5.51736 0
M  V30 1434 C 133.04 -2.44583 -5.83405 0
M  V30 1435 C 131.704 -2.77033 -6.07296 0
M  V30 1436 H 130.974 0.0872526 -0.735845 0
M  V30 1437 H 133.621 -0.484859 -1.8526 0
M  V30 1438 H 131.926 1.39129 -3.66265 0
M  V30 1439 H 133.623 1.05809 -3.86789 0
M  V30 1440 H 130.213 -0.316774 -4.27428 0
M  V30 1441 H 134.397 -1.12167 -4.83459 0
M  V30 1442 H 129.653 -2.25063 -5.68469 0
M  V30 1443 H 133.827 -3.05401 -6.25862 0
M  V30 1444 H 131.454 -3.6244 -6.68237 0
M  V30 1445 N 133.029 1.57378 -0.0835403 0
M  V30 1446 C 133.939 2.16897 0.894021 0
M  V30 1447 C 134.955 1.13528 1.31861 0
M  V30 1448 O 136.131 1.45848 1.3889 0
M  V30 1449 C 133.196 2.72831 2.13925 0
M  V30 1450 C 132.257 3.91115 1.76997 0
M  V30 1451 C 131.49 4.44371 2.95584 0
M  V30 1452 O 131.713 3.96596 4.09961 0
M  V30 1453 O 130.647 5.35549 2.74719 0
M  V30 1454 H 134.473 3.00814 0.417679 0
M  V30 1455 H 132.058 1.48741 0.140181 0
M  V30 1456 H 133.94 3.0863 2.86924 0
M  V30 1457 H 132.615 1.91967 2.60635 0
M  V30 1458 H 131.522 3.60148 1.01214 0
M  V30 1459 H 132.855 4.73307 1.3506 0
M  V30 1460 N 134.507 -0.190092 1.56449 0
M  V30 1461 C 135.737 -0.92443 1.84764 0
M  V30 1462 C 136.145 -1.77146 0.664529 0
M  V30 1463 O 135.488 -1.79812 -0.375957 0
M  V30 1464 C 135.55 -1.86651 3.07248 0
M  V30 1465 C 135.214 -1.20094 4.40938 0
M  V30 1466 C 136.211 -0.575445 5.16706 0
M  V30 1467 C 133.896 -1.2033 4.87674 0
M  V30 1468 C 135.89 0.0388111 6.37388 0
M  V30 1469 C 133.577 -0.585214 6.08291 0
M  V30 1470 C 134.575 0.0347578 6.82991 0
M  V30 1471 O 134.263 0.643147 8.01323 0
M  V30 1472 H 133.995 -0.274974 0.617548 0
M  V30 1473 H 136.549 -0.200788 2.04416 0
M  V30 1474 H 134.779 -2.62998 2.83494 0
M  V30 1475 H 136.468 -2.46907 3.22167 0
M  V30 1476 H 137.234 -0.565728 4.81689 0
M  V30 1477 H 133.113 -1.67526 4.29484 0
M  V30 1478 H 136.657 0.523329 6.95634 0
M  V30 1479 H 132.554 -0.592451 6.42775 0
M  V30 1480 H 133.322 0.540545 8.16713 0
M  V30 1481 N 135.985 -1.50799 -0.457987 0
M  V30 1482 C 136.917 -1.66786 -1.57211 0
M  V30 1483 C 137.93 -0.548962 -1.53265 0
M  V30 1484 O 139.119 -0.8226 -1.58416 0
M  V30 1485 C 136.219 -1.64834 -2.96113 0
M  V30 1486 C 135.392 -2.92971 -3.24787 0
M  V30 1487 C 134.451 -2.83485 -4.43309 0
M  V30 1488 O 133.477 -3.5744 -4.42973 0
M  V30 1489 N 134.679 -1.97929 -5.45714 0
M  V30 1490 H 137.444 -2.62889 -1.43909 0
M  V30 1491 H 135.005 -1.48427 -0.646617 0
M  V30 1492 H 136.997 -1.56084 -3.7339 0
M  V30 1493 H 135.567 -0.764118 -3.03117 0
M  V30 1494 H 134.787 -3.15749 -2.36 0
M  V30 1495 H 136.075 -3.77834 -3.40762 0
M  V30 1496 H 135.473 -1.37182 -5.48815 0
M  V30 1497 H 134.03 -1.95073 -6.21924 0
M  V30 1498 N 137.463 0.71206 -1.40597 0
M  V30 1499 C 138.691 1.50111 -1.42388 0
M  V30 1500 C 139.106 1.88784 -0.0245395 0
M  V30 1501 O 138.463 1.55681 0.952351 0
M  V30 1502 C 138.514 2.7742 -2.31776 0
M  V30 1503 O 138.235 2.40382 -3.66262 0
M  V30 1504 C 139.736 3.7129 -2.42196 0
M  V30 1505 H 136.956 0.46314 -0.485533 0
M  V30 1506 H 139.5 0.878068 -1.8469 0
M  V30 1507 H 137.655 3.36001 -1.92827 0
M  V30 1508 H 138.069 3.22324 -4.13772 0
M  V30 1509 H 139.543 4.57448 -3.08943 0
M  V30 1510 H 140.02 4.14641 -1.44809 0
M  V30 1511 H 140.626 3.18619 -2.81712 0
M  V30 1512 N 138.941 1.26152 0.944643 0
M  V30 1513 C 139.888 1.07408 2.04285 0
M  V30 1514 C 140.858 -0.0198413 1.66088 0
M  V30 1515 O 142.043 0.139264 1.90291 0
M  V30 1516 C 139.183 0.70945 3.37729 0
M  V30 1517 C 138.296 1.87926 3.88983 0
M  V30 1518 C 137.431 1.45807 5.10797 0
M  V30 1519 C 136.47 2.5964 5.54305 0
M  V30 1520 N 135.607 2.18226 6.67324 0
M  V30 1521 H 140.447 2.01389 2.1965 0
M  V30 1522 H 137.984 1.00275 1.07626 0
M  V30 1523 H 139.942 0.478948 4.14442 0
M  V30 1524 H 138.572 -0.193389 3.2222 0
M  V30 1525 H 137.624 2.22279 3.08701 0
M  V30 1526 H 138.936 2.73377 4.17213 0
M  V30 1527 H 138.09 1.18781 5.94959 0
M  V30 1528 H 136.829 0.574414 4.84305 0
M  V30 1529 H 135.834 2.87399 4.68702 0
M  V30 1530 H 137.059 3.48599 5.828 0
M  V30 1531 H 135.005 1.3229 6.42523 0
M  V30 1532 H 134.922 2.97221 6.95123 0
M  V30 1533 H 136.19 1.94403 7.54869 0
M  V30 1534 N 140.419 -1.14872 1.07899 0
M  V30 1535 C 141.665 -1.86064 0.806725 0
M  V30 1536 C 141.998 -1.82434 -0.665706 0
M  V30 1537 O 141.273 -1.25138 -1.48899 0
M  V30 1538 C 141.556 -3.34929 1.32267 0
M  V30 1539 C 141.409 -3.47161 2.86006 0
M  V30 1540 C 142.728 -4.29863 0.943717 0
M  V30 1541 H 139.847 -0.675591 0.294526 0
M  V30 1542 H 142.489 -1.34925 1.33773 0
M  V30 1543 H 140.639 -3.78611 0.870974 0
M  V30 1544 H 142.311 -3.12302 3.39507 0
M  V30 1545 H 140.554 -2.88539 3.23925 0
M  V30 1546 H 141.225 -4.51777 3.17177 0
M  V30 1547 H 143.701 -3.9417 1.33302 0
M  V30 1548 H 142.577 -5.32494 1.33198 0
M  V30 1549 H 142.838 -4.41846 -0.149796 0
M  V30 1550 N 141.898 -0.863906 -1.31812 0
M  V30 1551 C 143.175 -0.39275 -1.91616 0
M  V30 1552 C 143.555 1.12461 -1.7865 0
M  V30 1553 O 142.903 1.95045 -1.19037 0
M  V30 1554 C 143.113 -0.867385 -3.38049 0
M  V30 1555 C 144.461 -0.889966 -4.15168 0
M  V30 1556 O 145.485 -0.812635 -3.46806 0
M  V30 1557 O 144.344 -1.00079 -5.37258 0
M  V30 1558 H 141.438 -0.116358 -0.818773 0
M  V30 1559 H 143.984 -0.951418 -1.40521 0
M  V30 1560 H 142.756 -1.91081 -3.41473 0
M  V30 1561 H 142.379 -0.286687 -3.96565 0
M  V30 1562 N 143.376 1.44774 -0.622745 0
M  V30 1563 C 144.624 2.01721 -0.123655 0
M  V30 1564 C 144.945 1.49172 1.25589 0
M  V30 1565 O 144.215 0.691974 1.83272 0
M  V30 1566 H 142.795 0.745777 -0.0427225 0
M  V30 1567 H 145.457 1.77382 -0.807559 0
M  V30 1568 H 144.553 3.11984 -0.0849534 0
M  V30 1569 N 144.854 0.36279 1.53368 0
M  V30 1570 C 145.764 -0.492994 2.29362 0
M  V30 1571 C 146.78 -1.09507 1.35219 0
M  V30 1572 O 147.956 -1.10662 1.68273 0
M  V30 1573 C 145.021 -1.61855 3.066 0
M  V30 1574 C 144.082 -1.04429 4.16405 0
M  V30 1575 C 143.315 -2.11621 4.89951 0
M  V30 1576 O 143.538 -3.32684 4.63333 0
M  V30 1577 O 142.472 -1.74835 5.75948 0
M  V30 1578 H 146.298 0.125331 3.03441 0
M  V30 1579 H 143.883 0.127253 1.48857 0
M  V30 1580 H 145.765 -2.27302 3.54841 0
M  V30 1581 H 144.44 -2.22233 2.3536 0
M  V30 1582 H 143.347 -0.353819 3.72423 0
M  V30 1583 H 144.68 -0.485113 4.89804 0
M  V30 1584 N 146.332 -1.57332 0.0918853 0
M  V30 1585 C 147.581 -1.93412 -0.572249 0
M  V30 1586 C 147.894 -0.975515 -1.69538 0
M  V30 1587 O 149.1 -1.22991 -2.42045 0
M  V30 1588 C 147.556 -3.43648 -1.0693 0
M  V30 1589 C 147.164 -4.47994 0.0239049 0
M  V30 1590 C 148.908 -3.88695 -1.70635 0
M  V30 1591 C 146.815 -5.89381 -0.488319 0
M  V30 1592 H 145.745 -0.721939 -0.217532 0
M  V30 1593 H 148.396 -1.82735 0.167369 0
M  V30 1594 H 146.778 -3.49466 -1.8625 0
M  V30 1595 H 147.952 -4.53815 0.799277 0
M  V30 1596 H 146.267 -4.12536 0.565946 0
M  V30 1597 H 148.864 -4.91725 -2.10025 0
M  V30 1598 H 149.207 -3.27166 -2.57426 0
M  V30 1599 H 149.74 -3.85564 -0.979023 0
M  V30 1600 H 146.479 -6.54602 0.342906 0
M  V30 1601 H 145.999 -5.87037 -1.23077 0
M  V30 1602 H 147.678 -6.39863 -0.958317 0
M  V30 1603 N 147.81 0.181792 -1.56548 0
M  V30 1604 C 149.059 0.898348 -1.8059 0
M  V30 1605 C 149.372 1.83862 -0.667379 0
M  V30 1606 O 150.578 2.59678 -0.792446 0
M  V30 1607 C 149.034 1.64791 -3.19956 0
M  V30 1608 C 148.642 0.751789 -4.41647 0
M  V30 1609 C 150.386 2.35331 -3.53298 0
M  V30 1610 C 148.293 1.50098 -5.72035 0
M  V30 1611 H 147.223 0.339194 -0.673397 0
M  V30 1612 H 149.874 0.151413 -1.82874 0
M  V30 1613 H 148.256 2.43921 -3.11959 0
M  V30 1614 H 149.43 -0.0018076 -4.608 0
M  V30 1615 H 147.745 0.156562 -4.16106 0
M  V30 1616 H 150.342 2.91958 -4.47956 0
M  V30 1617 H 150.685 3.10164 -2.77676 0
M  V30 1618 H 151.218 1.63154 -3.62803 0
M  V30 1619 H 147.957 0.795175 -6.50659 0
M  V30 1620 H 147.477 2.22817 -5.56878 0
M  V30 1621 H 149.156 2.05125 -6.13622 0
M  V30 1622 N 149.288 1.51039 0.449983 0
M  V30 1623 C 150.218 1.74379 1.55288 0
M  V30 1624 C 151.199 0.593236 1.5942 0
M  V30 1625 O 152.384 0.834625 1.7535 0
M  V30 1626 C 149.514 1.85728 2.93466 0
M  V30 1627 C 148.468 3.01078 3.04197 0
M  V30 1628 C 147.794 2.97595 4.44231 0
M  V30 1629 C 149.094 4.41254 2.7945 0
M  V30 1630 H 150.788 2.66725 1.36008 0
M  V30 1631 H 148.334 1.2835 0.652864 0
M  V30 1632 H 150.287 2.0064 3.70569 0
M  V30 1633 H 149.011 0.900207 3.13949 0
M  V30 1634 H 147.67 2.85851 2.29531 0
M  V30 1635 H 147.318 1.99691 4.61663 0
M  V30 1636 H 147.018 3.75046 4.52343 0
M  V30 1637 H 148.542 3.14583 5.23326 0
M  V30 1638 H 149.956 4.56897 3.46292 0
M  V30 1639 H 148.353 5.20315 2.98985 0
M  V30 1640 H 149.423 4.52164 1.75144 0
M  V30 1641 N 150.766 -0.704594 1.40972 0
M  V30 1642 C 151.716 -1.81051 1.38581 0
M  V30 1643 C 152.7 -1.58759 0.261585 0
M  V30 1644 O 153.892 -1.69745 0.501556 0
M  V30 1645 C 151.021 -3.19279 1.26157 0
M  V30 1646 C 150.107 -3.47296 2.43405 0
M  V30 1647 N 150.498 -3.46064 3.68881 0
M  V30 1648 C 148.796 -3.77804 2.37023 0
M  V30 1649 C 149.497 -3.72733 4.46592 0
M  V30 1650 N 148.473 -3.9203 3.76581 0
M  V30 1651 H 152.275 -1.78448 2.33525 0
M  V30 1652 H 149.789 -0.904198 1.349 0
M  V30 1653 H 151.786 -3.98488 1.22526 0
M  V30 1654 H 150.446 -3.231 0.321902 0
M  V30 1655 H 151.457 -3.26656 4.01891 0
M  V30 1656 H 148.134 -3.8905 1.51481 0
M  V30 1657 H 149.524 -3.77993 5.55492 0
M  V30 1658 N 152.244 -1.26651 -0.937939 0
M  V30 1659 C 153.174 -1.10993 -2.05433 0
M  V30 1660 C 154.155 -0.0142161 -1.70094 0
M  V30 1661 O 155.34 -0.186837 -1.93299 0
M  V30 1662 C 152.47 -0.745561 -3.39203 0
M  V30 1663 C 151.424 -1.79337 -3.88616 0
M  V30 1664 C 150.75 -1.28324 -5.19073 0
M  V30 1665 C 152.05 -3.19553 -4.13138 0
M  V30 1666 H 153.744 -2.0438 -2.1879 0
M  V30 1667 H 151.29 -0.984041 -1.05131 0
M  V30 1668 H 153.243 -0.622888 -4.16771 0
M  V30 1669 H 151.967 0.22401 -3.25831 0
M  V30 1670 H 150.626 -1.90477 -3.13231 0
M  V30 1671 H 150.274 -0.303414 -5.02084 0
M  V30 1672 H 149.974 -1.98369 -5.53103 0
M  V30 1673 H 151.498 -1.1733 -5.99221 0
M  V30 1674 H 152.912 -3.11471 -4.81309 0
M  V30 1675 H 151.309 -3.87218 -4.58457 0
M  V30 1676 H 152.379 -3.65368 -3.18801 0
M  V30 1677 N 153.722 1.14298 -1.08507 0
M  V30 1678 C 154.952 1.88945 -0.835663 0
M  V30 1679 C 155.36 1.78894 0.615928 0
M  V30 1680 O 154.703 1.1468 1.43506 0
M  V30 1681 C 154.765 3.39585 -1.17994 0
M  V30 1682 C 154.429 3.7342 -2.63451 0
M  V30 1683 C 155.426 3.73454 -3.61702 0
M  V30 1684 C 153.111 4.03368 -2.99332 0
M  V30 1685 C 155.105 4.02961 -4.93864 0
M  V30 1686 C 152.792 4.32538 -4.31687 0
M  V30 1687 C 153.79 4.32318 -5.28763 0
M  V30 1688 O 153.478 4.6078 -6.58739 0
M  V30 1689 H 153.21 0.605307 -0.300965 0
M  V30 1690 H 155.764 1.45673 -1.44806 0
M  V30 1691 H 153.994 3.83315 -0.51055 0
M  V30 1692 H 155.683 3.9554 -0.911182 0
M  V30 1693 H 156.449 3.50403 -3.35325 0
M  V30 1694 H 152.328 4.02692 -2.24411 0
M  V30 1695 H 155.872 4.02704 -5.69627 0
M  V30 1696 H 151.769 4.55059 -4.57812 0
M  V30 1697 H 152.537 4.78492 -6.64069 0
M  V30 1698 N 155.201 0.870884 1.31352 0
M  V30 1699 C 156.478 0.402907 1.91405 0
M  V30 1700 C 156.858 -1.11512 1.79244 0
M  V30 1701 O 156.206 -1.94411 1.2007 0
M  V30 1702 C 156.416 0.885301 3.37585 0
M  V30 1703 C 157.764 0.911971 4.14691 0
M  V30 1704 O 158.788 0.831016 3.46371 0
M  V30 1705 O 157.647 1.02927 5.3672 0
M  V30 1706 H 154.741 0.120698 0.818145 0
M  V30 1707 H 157.287 0.958857 1.40014 0
M  V30 1708 H 156.059 1.92889 3.40455 0
M  V30 1709 H 155.682 0.307714 3.96407 0
M  V30 1710 N 156.679 -1.44442 0.630414 0
M  V30 1711 C 157.626 -2.30678 -0.0749355 0
M  V30 1712 C 158.596 -1.4344 -0.837502 0
M  V30 1713 O 159.781 -1.72343 -0.818684 0
M  V30 1714 C 156.921 -3.28706 -1.05103 0
M  V30 1715 C 156.034 -4.31046 -0.286954 0
M  V30 1716 C 155.169 -5.16167 -1.2548 0
M  V30 1717 C 154.208 -6.10216 -0.479843 0
M  V30 1718 N 153.345 -6.88039 -1.39811 0
M  V30 1719 H 158.185 -2.90454 0.666386 0
M  V30 1720 H 155.722 -1.43107 0.340404 0
M  V30 1721 H 157.68 -3.84027 -1.63031 0
M  V30 1722 H 156.31 -2.70632 -1.75949 0
M  V30 1723 H 155.362 -3.78203 0.408243 0
M  V30 1724 H 156.674 -4.97794 0.316657 0
M  V30 1725 H 155.828 -5.76002 -1.90544 0
M  V30 1726 H 154.567 -4.49491 -1.89233 0
M  V30 1727 H 153.572 -5.49491 0.184295 0
M  V30 1728 H 154.797 -6.78928 0.152965 0
M  V30 1729 H 152.743 -6.24032 -2.02287 0
M  V30 1730 H 152.66 -7.51223 -0.848508 0
M  V30 1731 H 153.928 -7.52397 -2.03762 0
M  V30 1732 N 158.157 -0.370918 -1.53173 0
M  V30 1733 C 159.405 0.216673 -2.00935 0
M  V30 1734 C 159.726 1.48845 -1.25977 0
M  V30 1735 O 158.996 1.92286 -0.374551 0
M  V30 1736 H 157.576 0.0830565 -0.742368 0
M  V30 1737 H 160.238 -0.49838 -1.8842 0
M  V30 1738 H 159.334 0.439893 -3.08984 0
M  V30 1739 N 159.635 1.57281 -0.100228 0
M  V30 1740 C 160.883 1.94153 0.561157 0
M  V30 1741 C 161.204 0.983157 1.68401 0
M  V30 1742 O 160.474 0.0361132 1.95867 0
M  V30 1743 H 159.054 0.716791 0.210283 0
M  V30 1744 H 161.716 1.94202 -0.164765 0
M  V30 1745 H 160.812 2.96709 0.968008 0
M  V30 1746 N 161.113 -0.173488 1.56642 0
M  V30 1747 C 162.362 -0.888758 1.81063 0
M  V30 1748 C 162.675 -1.83506 0.67712 0
M  V30 1749 O 163.881 -2.59254 0.806206 0
M  V30 1750 C 162.337 -1.63091 3.20826 0
M  V30 1751 C 161.945 -0.728357 4.4204 0
M  V30 1752 C 163.689 -2.33454 3.54541 0
M  V30 1753 C 161.596 -1.47062 5.72823 0
M  V30 1754 H 160.526 -0.335618 0.675186 0
M  V30 1755 H 163.177 -0.141712 1.82952 0
M  V30 1756 H 161.559 -2.42263 3.13248 0
M  V30 1757 H 162.733 0.0262449 4.60793 0
M  V30 1758 H 161.048 -0.134492 4.16183 0
M  V30 1759 H 163.645 -2.89578 4.49498 0
M  V30 1760 H 163.988 -3.08687 2.79317 0
M  V30 1761 H 164.521 -1.61227 3.63663 0
M  V30 1762 H 161.26 -0.760658 6.51072 0
M  V30 1763 H 160.78 -2.1986 5.58052 0
M  V30 1764 H 162.459 -2.01868 6.14702 0
M  V30 1765 N 162.591 -1.51276 -0.441967 0
M  V30 1766 C 163.501 -1.75092 -1.56141 0
M  V30 1767 C 164.517 -0.634963 -1.62001 0
M  V30 1768 O 165.693 -0.916686 -1.79329 0
M  V30 1769 C 162.758 -1.86666 -2.92158 0
M  V30 1770 C 161.819 -3.10506 -2.96453 0
M  V30 1771 C 161.052 -3.21519 -4.25982 0
M  V30 1772 O 161.275 -2.38586 -5.18105 0
M  V30 1773 O 160.209 -4.14465 -4.36466 0
M  V30 1774 H 164.035 -2.70044 -1.38961 0
M  V30 1775 H 161.62 -1.35722 -0.624499 0
M  V30 1776 H 163.502 -1.96292 -3.72891 0
M  V30 1777 H 162.177 -0.949014 -3.09476 0
M  V30 1778 H 161.084 -3.06363 -2.14692 0
M  V30 1779 H 162.417 -4.01945 -2.84079 0
M  V30 1780 N 164.069 0.697108 -1.41344 0
M  V30 1781 C 165.001 1.8224 -1.39001 0
M  V30 1782 C 166.014 1.60152 -0.292428 0
M  V30 1783 O 167.203 1.69684 -0.554048 0
M  V30 1784 C 164.303 3.18976 -1.14489 0
M  V30 1785 C 163.476 3.68105 -2.36258 0
M  V30 1786 C 162.535 4.83506 -2.07625 0
M  V30 1787 O 161.561 4.95201 -2.8065 0
M  V30 1788 N 162.763 5.70637 -1.06555 0
M  V30 1789 H 165.528 1.84742 -2.35988 0
M  V30 1790 H 163.089 0.87937 -1.35936 0
M  V30 1791 H 165.081 3.93801 -0.932885 0
M  V30 1792 H 163.651 3.11508 -0.261043 0
M  V30 1793 H 162.871 2.84204 -2.7317 0
M  V30 1794 H 164.159 3.97667 -3.17393 0
M  V30 1795 H 163.557 5.63817 -0.461125 0
M  V30 1796 H 162.114 6.45368 -0.913444 0
M  V30 1797 N 165.547 1.27147 0.931209 0
M  V30 1798 C 166.775 1.16082 1.71267 0
M  V30 1799 C 167.19 -0.282772 1.8667 0
M  V30 1800 O 166.547 -1.19283 1.38122 0
M  V30 1801 C 166.598 1.8358 3.11417 0
M  V30 1802 O 166.319 3.22299 2.96741 0
M  V30 1803 C 167.82 1.78597 4.05732 0
M  V30 1804 H 165.04 0.403758 0.535929 0
M  V30 1805 H 167.584 1.67953 1.16671 0
M  V30 1806 H 165.739 1.35623 3.62885 0
M  V30 1807 H 166.153 3.55851 3.85319 0
M  V30 1808 H 167.627 2.30444 5.01597 0
M  V30 1809 H 168.104 0.754564 4.3267 0
M  V30 1810 H 168.71 2.26152 3.60188 0
M  V30 1811 N 167.025 -1.13721 1.09112 0
M  V30 1812 C 168.274 -1.84275 0.82009 0
M  V30 1813 C 168.587 -1.84253 -0.656509 0
M  V30 1814 O 169.793 -2.50668 -1.04296 0
M  V30 1815 C 168.249 -3.30825 1.41714 0
M  V30 1816 C 167.857 -3.39244 2.92605 0
M  V30 1817 C 169.601 -4.06443 1.22492 0
M  V30 1818 C 167.508 -4.80047 3.45411 0
M  V30 1819 H 166.438 -0.690387 0.30312 0
M  V30 1820 H 169.089 -1.28146 1.31343 0
M  V30 1821 H 167.471 -3.86737 0.851498 0
M  V30 1822 H 168.645 -2.93344 3.55367 0
M  V30 1823 H 166.96 -2.77088 3.10823 0
M  V30 1824 H 169.557 -5.10387 1.59402 0
M  V30 1825 H 169.9 -4.15972 0.165299 0
M  V30 1826 H 170.433 -3.56852 1.75788 0
M  V30 1827 H 167.172 -4.75709 4.50978 0
M  V30 1828 H 166.692 -5.26455 2.87411 0
M  V30 1829 H 168.371 -5.48957 3.42425 0
M  V30 1830 N 168.503 -0.877838 -1.30888 0
M  V30 1831 C 169.743 -0.499301 -1.98208 0
M  V30 1832 C 170.107 0.932649 -1.67826 0
M  V30 1833 O 171.308 1.41694 -2.28421 0
M  V30 1834 C 169.579 -0.758221 -3.49265 0
M  V30 1835 S 171.138 -0.480719 -4.36159 0
M  V30 1836 H 167.956 -0.186062 -0.686223 0
M  V30 1837 H 170.558 -1.13556 -1.59139 0
M  V30 1838 H 169.262 -1.79903 -3.68867 0
M  V30 1839 H 168.793 -0.109247 -3.93248 0
M  V30 1840 H 170.808 0.683698 -4.91467 0
M  V30 1841 N 169.982 1.44106 -0.638065 0
M  V30 1842 C 170.915 2.27924 0.112161 0
M  V30 1843 C 171.893 1.38945 0.844574 0
M  V30 1844 O 173.077 1.68386 0.847248 0
M  V30 1845 C 170.204 3.18029 1.16512 0
M  V30 1846 C 169.25 4.23163 0.532458 0
M  V30 1847 S 170.083 5.31131 -0.682666 0
M  V30 1848 C 171.239 6.24805 0.37013 0
M  V30 1849 H 171.472 2.91205 -0.598887 0
M  V30 1850 H 169.005 1.48394 -0.426441 0
M  V30 1851 H 170.963 3.70492 1.76766 0
M  V30 1852 H 169.624 2.53955 1.8484 0
M  V30 1853 H 168.817 4.86252 1.32571 0
M  V30 1854 H 168.419 3.74 0.00437644 0
M  V30 1855 H 170.711 6.66042 1.24071 0
M  V30 1856 H 171.654 7.07741 -0.225349 0
M  V30 1857 H 172.062 5.60154 0.699141 0
M  V30 1858 N 171.46 0.379036 1.52974 0
M  V30 1859 C 172.39 -0.452706 2.29069 0
M  V30 1860 C 173.371 -1.07237 1.32039 0
M  V30 1861 O 174.556 -1.08708 1.60923 0
M  V30 1862 C 171.686 -1.5856 3.08992 0
M  V30 1863 C 170.64 -1.0925 4.13822 0
M  V30 1864 C 169.966 -2.31668 4.81907 0
M  V30 1865 C 171.266 -0.167702 5.22031 0
M  V30 1866 H 172.96 0.182181 2.98845 0
M  V30 1867 H 170.506 0.0890592 1.43724 0
M  V30 1868 H 172.459 -2.1742 3.6098 0
M  V30 1869 H 171.183 -2.24792 2.36931 0
M  V30 1870 H 169.842 -0.526494 3.628 0
M  V30 1871 H 169.49 -2.96386 4.06404 0
M  V30 1872 H 169.19 -1.9934 5.52754 0
M  V30 1873 H 170.714 -2.91189 5.36695 0
M  V30 1874 H 172.128 -0.664186 5.6944 0
M  V30 1875 H 170.525 0.0653265 6.00064 0
M  V30 1876 H 171.595 0.786347 4.78482 0
M  V30 1877 N 172.938 -1.57226 0.108567 0
M  V30 1878 C 174.215 -1.86333 -0.594939 0
M  V30 1879 C 174.595 -1.00788 -1.85486 0
M  V30 1880 O 173.943 -0.0839293 -2.28346 0
M  V30 1881 C 174.153 -3.37265 -0.897405 0
M  V30 1882 C 175.501 -4.05629 -1.25501 0
M  V30 1883 O 176.525 -3.42224 -0.987998 0
M  V30 1884 O 175.384 -5.17531 -1.75567 0
M  V30 1885 H 172.478 -0.771018 -0.2991 0
M  V30 1886 H 175.024 -1.69102 0.142283 0
M  V30 1887 H 173.796 -3.913 -0.00413806 0
M  V30 1888 H 173.419 -3.59889 -1.69014 0
M  V30 1889 N 174.416 0.165178 -1.56732 0
M  V30 1890 C 175.664 0.879068 -1.8198 0
M  V30 1891 C 175.985 1.82514 -0.686561 0
M  V30 1892 O 175.255 1.93694 0.293146 0
M  V30 1893 H 173.835 0.327608 -0.671329 0
M  V30 1894 H 176.497 0.163526 -1.94213 0
M  V30 1895 H 175.593 1.45228 -2.76252 0
M  V30 1896 N 175.894 1.51508 0.433938 0
M  V30 1897 C 177.14 1.64588 1.18484 0
M  V30 1898 C 177.473 0.362666 1.90784 0
M  V30 1899 O 176.748 -0.637892 1.83742 0
M  V30 1900 C 177.031 2.85149 2.19913 0
M  V30 1901 C 176.884 4.23456 1.51674 0
M  V30 1902 C 178.203 3.01227 3.20858 0
M  V30 1903 H 175.322 0.598994 0.429389 0
M  V30 1904 H 177.964 1.84002 0.473647 0
M  V30 1905 H 176.114 2.68729 2.80566 0
M  V30 1906 H 177.786 4.51552 0.943322 0
M  V30 1907 H 176.029 4.25998 0.819035 0
M  V30 1908 H 176.7 5.03812 2.2556 0
M  V30 1909 H 179.176 3.16382 2.70263 0
M  V30 1910 H 178.052 3.87141 3.89118 0
M  V30 1911 H 178.313 2.13447 3.8716 0
M  V30 1912 N 177.372 -0.689602 1.41712 0
M  V30 1913 C 178.619 -1.44966 1.4139 0
M  V30 1914 C 178.947 -1.94484 0.025105 0
M  V30 1915 O 178.202 -1.70307 -0.964048 0
M  V30 1916 C 178.501 -2.67298 2.37247 0
M  V30 1917 C 178.167 -2.36405 3.83958 0
M  V30 1918 C 176.829 -2.27691 4.23923 0
M  V30 1919 C 179.181 -2.11043 4.76561 0
M  V30 1920 C 176.509 -1.91719 5.54492 0
M  V30 1921 C 178.861 -1.76578 6.07456 0
M  V30 1922 C 177.525 -1.66363 6.46436 0
M  V30 1923 H 176.795 -0.53047 0.517381 0
M  V30 1924 H 179.442 -0.787655 1.74552 0
M  V30 1925 H 177.747 -3.38461 1.9736 0
M  V30 1926 H 179.444 -3.25452 2.34269 0
M  V30 1927 H 176.034 -2.44085 3.52308 0
M  V30 1928 H 180.218 -2.16717 4.46483 0
M  V30 1929 H 175.474 -1.82367 5.83568 0
M  V30 1930 H 179.648 -1.55974 6.78708 0
M  V30 1931 H 177.275 -1.38258 7.47522 0
M  V30 1932 N 178.85 -1.27639 -0.924453 0
M  V30 1933 C 179.813 -1.10681 -2.00705 0
M  V30 1934 C 180.813 -0.0497823 -1.60723 0
M  V30 1935 O 182.003 -0.294654 -1.7169 0
M  V30 1936 C 179.135 -0.687164 -3.33902 0
M  V30 1937 H 180.328 -2.06817 -2.17179 0
M  V30 1938 H 177.881 -1.10473 -1.10569 0
M  V30 1939 H 178.616 0.275439 -3.23128 0
M  V30 1940 H 178.401 -1.45061 -3.6428 0
M  V30 1941 H 179.891 -0.590853 -4.13399 0
M  V30 1942 N 180.328 1.1314 -1.09713 0
M  V30 1943 C 181.575 1.84484 -0.834987 0
M  V30 1944 C 181.903 1.83689 0.639418 0
M  V30 1945 O 181.158 1.2724 1.4869 0
M  V30 1946 C 181.457 3.32167 -1.3191 0
M  V30 1947 C 181.123 3.53139 -2.80363 0
M  V30 1948 C 179.785 3.58571 -3.20905 0
M  V30 1949 C 182.137 3.60866 -3.76065 0
M  V30 1950 C 179.465 3.69267 -4.55916 0
M  V30 1951 C 181.817 3.73089 -5.10869 0
M  V30 1952 C 180.481 3.76775 -5.50996 0
M  V30 1953 H 179.751 0.675073 -0.305544 0
M  V30 1954 H 182.398 1.33554 -1.37243 0
M  V30 1955 H 180.703 3.85469 -0.701517 0
M  V30 1956 H 182.4 3.85821 -1.09284 0
M  V30 1957 H 178.99 3.49569 -2.47991 0
M  V30 1958 H 183.174 3.55946 -3.45855 0
M  V30 1959 H 178.43 3.70388 -4.86438 0
M  V30 1960 H 182.604 3.78011 -5.84877 0
M  V30 1961 H 180.231 3.84815 -6.55608 0
M  V30 1962 N 181.806 0.884767 1.30421 0
M  V30 1963 C 183.052 0.503851 1.96441 0
M  V30 1964 C 183.385 -0.944518 1.69684 0
M  V30 1965 O 182.66 -1.66737 1.00145 0
M  V30 1966 C 182.943 0.779085 3.51571 0
M  V30 1967 C 182.796 2.27807 3.87846 0
M  V30 1968 C 184.115 0.255452 4.39358 0
M  V30 1969 H 181.234 0.184533 0.713524 0
M  V30 1970 H 183.876 1.10872 1.54297 0
M  V30 1971 H 182.026 0.264274 3.876 0
M  V30 1972 H 183.698 2.86127 3.61841 0
M  V30 1973 H 181.941 2.74479 3.35922 0
M  V30 1974 H 182.612 2.42125 4.96064 0
M  V30 1975 H 185.088 0.696079 4.10236 0
M  V30 1976 H 183.964 0.477361 5.4682 0
M  V30 1977 H 184.225 -0.843293 4.33983 0
M  V30 1978 N 183.284 -1.43765 0.645699 0
M  V30 1979 C 184.214 -2.33471 -0.0370477 0
M  V30 1980 C 185.195 -1.49042 -0.819779 0
M  V30 1981 O 186.38 -1.77726 -0.782758 0
M  V30 1982 C 183.51 -3.32311 -1.0093 0
M  V30 1983 C 182.464 -4.2667 -0.337201 0
M  V30 1984 C 181.79 -5.1549 -1.42037 0
M  V30 1985 C 183.09 -5.16657 0.765706 0
M  V30 1986 H 184.784 -2.90809 0.712069 0
M  V30 1987 H 182.33 -1.39834 0.343876 0
M  V30 1988 H 184.283 -3.9396 -1.49578 0
M  V30 1989 H 183.007 -2.73213 -1.78948 0
M  V30 1990 H 181.666 -3.66374 0.128771 0
M  V30 1991 H 181.314 -4.52735 -2.1918 0
M  V30 1992 H 181.014 -5.79438 -0.975966 0
M  V30 1993 H 182.538 -5.80012 -1.90838 0
M  V30 1994 H 183.952 -5.72158 0.361702 0
M  V30 1995 H 182.349 -5.89286 1.13413 0
M  V30 1996 H 183.419 -4.56796 1.62683 0
M  V30 1997 N 184.763 -0.387143 -1.52771 0
M  V30 1998 C 185.693 0.440551 -2.29306 0
M  V30 1999 C 186.674 1.06535 -1.32606 0
M  V30 2000 O 187.859 1.07853 -1.61497 0
M  V30 2001 C 184.989 1.56919 -3.09829 0
M  V30 2002 C 183.943 1.07054 -4.14395 0
M  V30 2003 C 183.269 2.29109 -4.83129 0
M  V30 2004 C 184.569 0.140015 -5.22112 0
M  V30 2005 H 186.263 -0.198026 -2.98744 0
M  V30 2006 H 183.809 -0.09668 -1.43675 0
M  V30 2007 H 185.762 2.15503 -3.62128 0
M  V30 2008 H 184.486 2.23532 -2.3812 0
M  V30 2009 H 183.145 0.507247 -3.63074 0
M  V30 2010 H 182.793 2.94227 -4.0797 0
M  V30 2011 H 182.493 1.96406 -5.53804 0
M  V30 2012 H 184.017 2.88339 -5.38231 0
M  V30 2013 H 185.431 0.633978 -5.69784 0
M  V30 2014 H 183.828 -0.0971485 -6.00021 0
M  V30 2015 H 184.898 -0.811711 -4.78058 0
M  V30 2016 N 186.241 1.57166 -0.116904 0
M  V30 2017 C 187.518 1.86645 0.585049 0
M  V30 2018 C 187.898 1.0177 1.84949 0
M  V30 2019 O 187.246 0.0960379 2.28298 0
M  V30 2020 C 187.456 3.37736 0.879507 0
M  V30 2021 C 188.804 4.06289 1.23348 0
M  V30 2022 O 189.828 3.42743 0.969836 0
M  V30 2023 O 188.687 5.18455 1.7282 0
M  V30 2024 H 185.781 0.772593 0.295007 0
M  V30 2025 H 188.327 1.69025 -0.151249 0
M  V30 2026 H 187.099 3.91296 -0.0166136 0
M  V30 2027 H 186.722 3.6078 1.67103 0
M  V30 2028 N 187.719 -0.156864 1.56817 0
M  V30 2029 C 188.947 -0.886316 1.86955 0
M  V30 2030 C 189.362 -1.75185 0.703975 0
M  V30 2031 O 188.719 -1.79555 -0.326552 0
M  V30 2032 C 188.77 -1.75117 3.16253 0
M  V30 2033 O 188.491 -0.920537 4.2832 0
M  V30 2034 C 189.992 -2.58905 3.59837 0
M  V30 2035 H 187.212 -0.25678 0.619923 0
M  V30 2036 H 189.756 -0.152615 2.0393 0
M  V30 2037 H 187.911 -2.43805 3.01062 0
M  V30 2038 H 188.325 -1.51337 5.02192 0
M  V30 2039 H 189.799 -3.1518 4.53172 0
M  V30 2040 H 190.276 -3.34472 2.84649 0
M  V30 2041 H 190.882 -1.95526 3.7769 0
M  V30 2042 N 189.197 -1.51736 -0.425897 0
M  V30 2043 C 190.16 -1.73271 -1.50032 0
M  V30 2044 C 191.16 -0.602639 -1.4908 0
M  V30 2045 O 192.35 -0.87033 -1.509 0
M  V30 2046 C 189.482 -1.79969 -2.89523 0
M  V30 2047 H 190.675 -2.69172 -1.32237 0
M  V30 2048 H 188.228 -1.41899 -0.65532 0
M  V30 2049 H 188.963 -0.859241 -3.1271 0
M  V30 2050 H 188.748 -2.62109 -2.91619 0
M  V30 2051 H 190.238 -1.9843 -3.67444 0
M  V30 2052 N 190.675 0.682077 -1.42076 0
M  V30 2053 C 191.623 1.81707 -1.45208 0
M  V30 2054 C 192.617 1.66183 -0.328591 0
M  V30 2055 O 193.823 1.7288 -0.501264 0
M  V30 2056 H 190.198 0.599014 -0.454628 0
M  V30 2057 H 192.169 1.76183 -2.40836 0
M  V30 2058 C 190.918 3.19816 -1.36428 0
M  V30 2059 H 190.241 3.32385 -2.22171 0
M  V30 2060 H 191.681 3.99272 -1.42681 0
M  V30 2061 C 190.14 3.36809 -0.078191 0
M  V30 2062 O 190.67 3.92124 0.87188 0
M  V30 2063 N 188.876 2.906 0.00229266 0
M  V30 2064 H 188.423 2.45772 -0.771616 0
M  V30 2065 H 188.381 3.02347 0.862179 0
M  V30 2066 N 192.153 1.28127 0.917671 0
M  V30 2067 C 193.1 1.11717 2.0196 0
M  V30 2068 C 194.07 0.0153929 1.66093 0
M  V30 2069 O 195.255 0.179596 1.89953 0
M  V30 2070 C 192.395 0.780927 3.36148 0
M  V30 2071 C 191.508 1.96135 3.84909 0
M  V30 2072 C 190.643 1.56609 5.0759 0
M  V30 2073 C 189.682 2.71339 5.48673 0
M  V30 2074 N 188.819 2.32332 6.62545 0
M  V30 2075 H 193.659 2.06003 2.15329 0
M  V30 2076 H 191.196 1.02535 1.05475 0
M  V30 2077 H 193.154 0.56675 4.13333 0
M  V30 2078 H 191.784 -0.124998 3.22558 0
M  V30 2079 H 190.836 2.28777 3.03916 0
M  V30 2080 H 192.148 2.82165 4.1132 0
M  V30 2081 H 191.302 1.31374 5.92305 0
M  V30 2082 H 190.041 0.677014 4.82978 0
M  V30 2083 H 189.046 2.97276 4.62501 0
M  V30 2084 H 190.271 3.60882 5.75274 0
M  V30 2085 H 188.217 1.45889 6.39572 0
M  V30 2086 H 188.134 3.11899 6.88662 0
M  V30 2087 H 189.402 2.10371 7.50576 0
M  V30 2088 N 193.631 -1.12557 1.10312 0
M  V30 2089 C 194.578 -2.18247 0.750781 0
M  V30 2090 C 195.548 -1.63853 -0.272293 0
M  V30 2091 O 196.733 -1.90195 -0.151862 0
M  V30 2092 C 193.873 -3.44591 0.187379 0
M  V30 2093 C 192.986 -4.13046 1.2656 0
M  V30 2094 C 192.121 -5.27034 0.663978 0
M  V30 2095 C 191.16 -5.87353 1.72287 0
M  V30 2096 N 190.297 -6.92757 1.1416 0
M  V30 2097 H 195.137 -2.47732 1.65628 0
M  V30 2098 H 192.674 -1.21629 0.827337 0
M  V30 2099 H 194.632 -4.16904 -0.157148 0
M  V30 2100 H 193.262 -3.15527 -0.681355 0
M  V30 2101 H 192.314 -3.38924 1.72727 0
M  V30 2102 H 193.626 -4.53947 2.06721 0
M  V30 2103 H 192.78 -6.06104 0.268824 0
M  V30 2104 H 191.519 -4.87407 -0.169082 0
M  V30 2105 H 190.524 -5.06971 2.12746 0
M  V30 2106 H 191.749 -6.29051 2.55875 0
M  V30 2107 H 189.695 -6.5517 0.329984 0
M  V30 2108 H 189.612 -7.3225 1.88007 0
M  V30 2109 H 190.88 -7.75658 0.772956 0
M  V30 2110 N 195.109 -0.891671 -1.2995 0
M  V30 2111 C 196.355 -0.514261 -1.96171 0
M  V30 2112 C 196.688 0.935506 -1.70182 0
M  V30 2113 O 195.963 1.66204 -1.01028 0
M  V30 2114 C 196.246 -0.797719 -3.51153 0
M  V30 2115 C 196.099 -2.2986 -3.86632 0
M  V30 2116 C 197.418 -0.278749 -4.39216 0
M  V30 2117 H 194.537 -0.188314 -0.712535 0
M  V30 2118 H 197.179 -1.11689 -1.53706 0
M  V30 2119 H 195.329 -0.284826 -3.87455 0
M  V30 2120 H 197.001 -2.88042 -3.60319 0
M  V30 2121 H 195.244 -2.76257 -3.34462 0
M  V30 2122 H 195.915 -2.44753 -4.94773 0
M  V30 2123 H 198.391 -0.717825 -4.09862 0
M  V30 2124 H 197.267 -0.506353 -5.46559 0
M  V30 2125 H 197.528 0.820266 -4.34424 0
M  V30 2126 N 196.587 1.43421 -0.653314 0
M  V30 2127 C 197.834 2.01812 -0.166745 0
M  V30 2128 C 198.162 1.51535 1.21931 0
M  V30 2129 O 197.417 0.698975 1.82792 0
M  V30 2130 C 197.716 3.57176 -0.126623 0
M  V30 2131 C 197.382 4.26798 -1.45444 0
M  V30 2132 C 196.044 4.45534 -1.81805 0
M  V30 2133 C 198.396 4.66225 -2.32989 0
M  V30 2134 C 195.724 5.00961 -3.05377 0
M  V30 2135 C 198.076 5.23021 -3.55853 0
M  V30 2136 C 196.74 5.39973 -3.9241 0
M  V30 2137 H 196.01 0.738484 -0.0610162 0
M  V30 2138 H 198.657 1.71896 -0.84404 0
M  V30 2139 H 196.962 3.86634 0.634123 0
M  V30 2140 H 198.659 4.00112 0.266723 0
M  V30 2141 H 195.249 4.12561 -1.16153 0
M  V30 2142 H 199.433 4.51443 -2.06187 0
M  V30 2143 H 194.689 5.12271 -3.3375 0
M  V30 2144 H 198.863 5.52518 -4.23907 0
M  V30 2145 H 196.49 5.82687 -4.88242 0
M  V30 2146 N 198.065 0.39524 1.52563 0
M  V30 2147 C 198.995 -0.428384 2.29537 0
M  V30 2148 C 199.976 -1.05831 1.33169 0
M  V30 2149 O 201.161 -1.06995 1.62067 0
M  V30 2150 C 198.291 -1.55274 3.10656 0
M  V30 2151 C 197.245 -1.04855 4.14957 0
M  V30 2152 C 196.571 -2.26543 4.84337 0
M  V30 2153 C 197.871 -0.112324 5.22179 0
M  V30 2154 H 199.565 0.213867 2.98635 0
M  V30 2155 H 197.111 0.104298 1.43622 0
M  V30 2156 H 199.064 -2.1358 3.63265 0
M  V30 2157 H 197.788 -2.22266 2.39302 0
M  V30 2158 H 196.447 -0.487985 3.63338 0
M  V30 2159 H 196.095 -2.92059 4.09525 0
M  V30 2160 H 195.795 -1.93466 5.54837 0
M  V30 2161 H 197.319 -2.85481 5.39753 0
M  V30 2162 H 198.733 -0.603752 5.70112 0
M  V30 2163 H 197.13 0.128968 5.99961 0
M  V30 2164 H 198.2 0.837052 4.77621 0
M  V30 2165 N 199.544 -1.57102 0.125237 0
M  V30 2166 C 200.792 -1.95021 -0.530198 0
M  V30 2167 C 201.113 -1.00982 -1.66816 0
M  V30 2168 O 200.383 -0.0672693 -1.95784 0
M  V30 2169 H 198.963 -0.720046 -0.198853 0
M  V30 2170 H 201.625 -1.93916 0.19564 0
M  V30 2171 H 200.721 -2.98211 -0.920681 0
M  V30 2172 N 201.022 0.148545 -1.56898 0
M  V30 2173 C 202.438 0.501131 -1.51528 0
M  V30 2174 C 202.638 1.83458 -0.833399 0
M  V30 2175 O 201.694 2.49259 -0.40328 0
M  V30 2176 C 203.007 0.512864 -2.96294 0
M  V30 2177 C 204.555 0.598487 -3.07225 0
M  V30 2178 C 205.03 0.640897 -4.53494 0
M  V30 2179 N 206.521 0.703163 -4.57832 0
M  V30 2180 C 207.256 0.756935 -5.68382 0
M  V30 2181 N 206.752 0.770147 -6.88506 0
M  V30 2182 N 208.545 0.797698 -5.56411 0
M  V30 2183 H 200.696 -0.725532 -1.99624 0
M  V30 2184 H 202.959 -0.264358 -0.910395 0
M  V30 2185 H 202.665 -0.398691 -3.49433 0
M  V30 2186 H 202.539 1.35133 -3.52163 0
M  V30 2187 H 204.926 1.50046 -2.54106 0
M  V30 2188 H 205.007 -0.267093 -2.54402 0
M  V30 2189 H 204.651 -0.256915 -5.0725 0
M  V30 2190 H 204.581 1.52295 -5.04097 0
M  V30 2191 H 207.072 0.700314 -3.71354 0
M  V30 2192 H 207.385 0.812983 -7.68512 0
M  V30 2193 H 205.73 0.738049 -6.9107 0
M  V30 2194 H 208.921 0.784535 -4.61479 0
M  V30 2195 H 209.094 0.83614 -6.42583 0
M  V30 2196 N 202.5 1.5196 0.417844 0
M  V30 2197 C 203.777 1.56146 1.17803 0
M  V30 2198 C 204.157 0.337275 2.08388 0
M  V30 2199 O 203.505 -0.676447 2.18258 0
M  V30 2200 C 203.715 2.88566 1.96293 0
M  V30 2201 C 205.063 3.41244 2.52662 0
M  V30 2202 O 206.087 2.90247 2.06483 0
M  V30 2203 O 204.946 4.30273 3.36938 0
M  V30 2204 H 202.04 0.628598 0.537395 0
M  V30 2205 H 204.586 1.64283 0.425331 0
M  V30 2206 H 203.358 3.69116 1.2988 0
M  V30 2207 H 202.981 2.83681 2.78587 0
M  V30 2208 N 203.978 -0.674533 1.42435 0
M  V30 2209 C 205.206 -1.46283 1.46317 0
M  V30 2210 C 205.621 -1.88653 0.0745836 0
M  V30 2211 O 204.978 -1.58151 -0.91074 0
M  V30 2212 C 205.029 -2.71178 2.3905 0
M  V30 2213 O 204.75 -2.30586 3.72507 0
M  V30 2214 C 206.251 -3.64738 2.51955 0
M  V30 2215 H 203.471 -0.450104 0.497642 0
M  V30 2216 H 206.015 -0.828792 1.86953 0
M  V30 2217 H 204.17 -3.3077 2.01667 0
M  V30 2218 H 204.584 -3.11241 4.22172 0
M  V30 2219 H 206.058 -4.49096 3.20962 0
M  V30 2220 H 206.535 -4.10656 1.55752 0
M  V30 2221 H 207.141 -3.11038 2.90061 0
M  V30 2222 N 205.456 -1.28612 -0.910864 0
M  V30 2223 C 206.686 -1.1862 -1.69153 0
M  V30 2224 C 207.094 0.257324 -1.87442 0
M  V30 2225 O 206.437 1.18543 -1.40332 0
M  V30 2226 C 206.499 -1.81606 -3.10257 0
M  V30 2227 C 206.163 -3.30864 -3.15243 0
M  V30 2228 C 207.16 -4.27256 -2.96223 0
M  V30 2229 C 204.845 -3.71871 -3.37664 0
M  V30 2230 C 206.839 -5.62631 -2.99541 0
M  V30 2231 C 204.526 -5.07371 -3.40614 0
M  V30 2232 C 205.524 -6.02561 -3.21573 0
M  V30 2233 O 205.212 -7.35589 -3.2429 0
M  V30 2234 H 204.944 -0.412633 -0.535453 0
M  V30 2235 H 207.498 -1.70306 -1.14827 0
M  V30 2236 H 205.728 -1.24418 -3.66138 0
M  V30 2237 H 207.417 -1.66092 -3.70362 0
M  V30 2238 H 208.183 -3.9691 -2.78725 0
M  V30 2239 H 204.062 -2.98241 -3.5153 0
M  V30 2240 H 207.606 -6.36907 -2.84597 0
M  V30 2241 H 203.503 -5.37366 -3.57642 0
M  V30 2242 H 204.271 -7.44252 -3.40633 0
M  V30 2243 N 206.934 1.1197 -1.10907 0
M  V30 2244 C 208.182 1.83225 -0.852819 0
M  V30 2245 C 208.503 1.84769 0.623341 0
M  V30 2246 O 207.773 1.3143 1.45269 0
M  V30 2247 H 206.353 0.67849 -0.312507 0
M  V30 2248 H 209.015 1.3556 -1.40033 0
M  V30 2249 H 208.111 2.87265 -1.22005 0
M  V30 2250 N 208.412 0.89855 1.29475 0
M  V30 2251 C 209.658 0.524658 1.95896 0
M  V30 2252 C 209.991 -0.926468 1.70676 0
M  V30 2253 O 209.266 -1.65665 1.01908 0
M  V30 2254 C 209.549 0.81633 3.50725 0
M  V30 2255 C 209.402 2.31907 3.85408 0
M  V30 2256 C 210.721 0.302038 4.39062 0
M  V30 2257 H 207.84 0.19209 0.711527 0
M  V30 2258 H 210.482 1.12502 1.53112 0
M  V30 2259 H 208.632 0.305369 3.87298 0
M  V30 2260 H 210.304 2.89949 3.58786 0
M  V30 2261 H 208.547 2.78027 3.32992 0
M  V30 2262 H 209.218 2.47373 4.93468 0
M  V30 2263 H 211.694 0.739551 4.09475 0
M  V30 2264 H 210.57 0.535331 5.46283 0
M  V30 2265 H 210.831 -0.797216 4.34853 0
M  V30 2266 N 209.89 -1.43072 0.660911 0
M  V30 2267 C 211.306 -1.56169 0.329173 0
M  V30 2268 C 211.506 -1.64317 -1.16629 0
M  V30 2269 O 210.562 -1.60245 -1.95135 0
M  V30 2270 C 211.875 -2.81873 1.04729 0
M  V30 2271 C 213.423 -2.95627 1.02828 0
M  V30 2272 C 213.898 -4.24174 1.72744 0
M  V30 2273 N 215.389 -4.31055 1.69545 0
M  V30 2274 C 216.124 -5.29304 2.20511 0
M  V30 2275 N 215.62 -6.33786 2.79799 0
M  V30 2276 N 217.413 -5.21008 2.10966 0
M  V30 2277 H 209.564 -1.36027 1.63127 0
M  V30 2278 H 211.827 -0.653823 0.686454 0
M  V30 2279 H 211.533 -2.81942 2.10242 0
M  V30 2280 H 211.407 -3.72338 0.603702 0
M  V30 2281 H 213.794 -2.95094 -0.0184742 0
M  V30 2282 H 213.875 -2.06431 1.51063 0
M  V30 2283 H 213.519 -4.25467 2.7738 0
M  V30 2284 H 213.449 -5.1228 1.2197 0
M  V30 2285 H 215.94 -3.56174 1.26288 0
M  V30 2286 H 216.253 -7.05086 3.16344 0
M  V30 2287 H 214.598 -6.34387 2.83863 0
M  V30 2288 H 217.789 -4.38301 1.64347 0
M  V30 2289 H 217.962 -5.97416 2.50993 0
M  V30 2290 N 211.368 -0.403325 -1.52352 0
M  V30 2291 C 212.779 0.0675782 -1.86578 0
M  V30 2292 C 213.13 1.44941 -1.32236 0
M  V30 2293 O 212.255 2.06112 -0.659307 0
M  V30 2294 C 212.85 0.129404 -3.38553 0
M  V30 2295 C 211.409 0.544629 -3.72439 0
M  V30 2296 C 210.556 -0.284551 -2.75836 0
M  V30 2297 H 213.507 -0.620631 -1.46061 0
M  V30 2298 H 213.528 0.94581 -3.68558 0
M  V30 2299 H 213.04 -0.87645 -3.78074 0
M  V30 2300 H 211.141 1.55734 -3.38493 0
M  V30 2301 H 211.254 0.293046 -4.78203 0
M  V30 2302 H 209.618 0.252258 -2.53448 0
M  V30 2303 H 210.401 -1.28865 -3.18196 0
M  V30 2304 N 212.846 1.57033 -0.133567 0
M  V30 2305 C 213.776 2.1909 0.807567 0
M  V30 2306 C 214.757 1.13517 1.26681 0
M  V30 2307 O 215.942 1.41809 1.32679 0
M  V30 2308 C 213.072 2.80188 2.05212 0
M  V30 2309 C 212.026 3.91471 1.73015 0
M  V30 2310 C 211.352 4.39443 3.04622 0
M  V30 2311 C 212.652 5.12886 0.987168 0
M  V30 2312 H 214.346 2.97988 0.290403 0
M  V30 2313 H 211.892 1.43335 0.138239 0
M  V30 2314 H 213.845 3.22264 2.71521 0
M  V30 2315 H 212.569 1.98601 2.59278 0
M  V30 2316 H 211.228 3.49993 1.0909 0
M  V30 2317 H 210.876 3.54695 3.56651 0
M  V30 2318 H 210.576 5.14495 2.83847 0
M  V30 2319 H 212.1 4.8418 3.72024 0
M  V30 2320 H 213.514 5.51891 1.55208 0
M  V30 2321 H 211.911 5.93615 0.87985 0
M  V30 2322 H 212.981 4.84894 -0.0235286 0
M  V30 2323 N 214.325 -0.140222 1.56975 0
M  V30 2324 C 215.572 -0.851687 1.83719 0
M  V30 2325 C 215.9 -1.80862 0.715485 0
M  V30 2326 O 215.155 -1.93464 -0.294956 0
M  V30 2327 C 215.454 -1.65386 3.16832 0
M  V30 2328 C 215.12 -0.843112 4.42947 0
M  V30 2329 C 213.782 -0.619464 4.77196 0
M  V30 2330 C 216.134 -0.276582 5.20466 0
M  V30 2331 C 213.462 0.181312 5.8642 0
M  V30 2332 C 215.814 0.51127 6.30531 0
M  V30 2333 C 214.478 0.745432 6.63325 0
M  V30 2334 H 213.748 -0.311654 0.672274 0
M  V30 2335 H 216.395 -0.115006 1.91154 0
M  V30 2336 H 214.7 -2.46084 3.04877 0
M  V30 2337 H 216.397 -2.20793 3.34741 0
M  V30 2338 H 212.987 -1.0275 4.16101 0
M  V30 2339 H 217.171 -0.436632 4.94376 0
M  V30 2340 H 212.427 0.372165 6.10266 0
M  V30 2341 H 216.601 0.957354 6.89788 0
M  V30 2342 H 214.228 1.36778 7.47794 0
M  V30 2343 N 215.803 -1.52179 -0.40978 0
M  V30 2344 C 216.75 -1.75475 -1.49924 0
M  V30 2345 C 217.72 -0.597175 -1.54994 0
M  V30 2346 O 218.905 -0.834655 -1.71575 0
M  V30 2347 C 216.045 -1.9107 -2.87378 0
M  V30 2348 C 215.158 -3.18717 -2.91622 0
M  V30 2349 C 214.293 -3.24747 -4.20372 0
M  V30 2350 C 213.332 -4.46598 -4.18588 0
M  V30 2351 N 212.469 -4.50025 -5.38908 0
M  V30 2352 H 217.309 -2.68458 -1.29361 0
M  V30 2353 H 214.846 -1.33024 -0.627934 0
M  V30 2354 H 216.804 -1.98096 -3.6717 0
M  V30 2355 H 215.434 -1.01469 -3.06437 0
M  V30 2356 H 214.486 -3.20866 -2.04326 0
M  V30 2357 H 215.798 -4.08544 -2.86169 0
M  V30 2358 H 214.952 -3.30841 -5.08556 0
M  V30 2359 H 213.691 -2.32857 -4.28519 0
M  V30 2360 H 212.696 -4.40652 -3.28794 0
M  V30 2361 H 213.921 -5.39783 -4.12081 0
M  V30 2362 H 211.867 -3.61017 -5.47725 0
M  V30 2363 H 211.784 -5.33697 -5.35447 0
M  V30 2364 H 213.052 -4.60347 -6.29048 0
M  V30 2365 N 217.281 0.66697 -1.42791 0
M  V30 2366 C 218.244 1.76211 -1.46568 0
M  V30 2367 C 219.244 1.56896 -0.352196 0
M  V30 2368 O 220.434 1.63044 -0.613364 0
M  V30 2369 C 217.566 3.14935 -1.30494 0
M  V30 2370 H 218.759 1.74247 -2.44086 0
M  V30 2371 H 216.312 0.877342 -1.29354 0
M  V30 2372 H 217.047 3.2252 -0.339301 0
M  V30 2373 H 216.832 3.30359 -2.11199 0
M  V30 2374 H 218.322 3.94821 -1.36038 0
M  V30 2375 N 218.759 1.29093 0.90403 0
M  V30 2376 C 219.692 1.08176 2.00931 0
M  V30 2377 C 220.67 -0.005083 1.62599 0
M  V30 2378 O 221.854 0.144765 1.87943 0
M  V30 2379 C 218.981 0.645897 3.32484 0
M  V30 2380 C 218.027 1.73081 3.89801 0
M  V30 2381 S 218.86 3.32905 4.19446 0
M  V30 2382 C 220.016 2.91176 5.54046 0
M  V30 2383 H 220.249 2.01752 2.18365 0
M  V30 2384 H 217.782 1.13191 1.0501 0
M  V30 2385 H 219.74 0.401131 4.08535 0
M  V30 2386 H 218.401 -0.270188 3.12936 0
M  V30 2387 H 217.594 1.37768 4.84805 0
M  V30 2388 H 217.196 1.92888 3.20422 0
M  V30 2389 H 219.488 2.37952 6.34338 0
M  V30 2390 H 220.431 3.85014 5.94281 0
M  V30 2391 H 220.839 2.296 5.15698 0
M  V30 2392 N 220.237 -1.11381 1.11499 0
M  V30 2393 C 221.465 -1.86934 0.88675 0
M  V30 2394 C 221.88 -1.80195 -0.563476 0
M  V30 2395 O 221.237 -1.18367 -1.38908 0
M  V30 2396 C 221.288 -3.35722 1.34064 0
M  V30 2397 O 221.009 -3.4232 2.73401 0
M  V30 2398 C 222.51 -4.2818 1.14791 0
M  V30 2399 H 219.73 -0.591117 0.317523 0
M  V30 2400 H 222.274 -1.40865 1.48248 0
M  V30 2401 H 220.429 -3.79294 0.788355 0
M  V30 2402 H 220.843 -4.34971 2.93087 0
M  V30 2403 H 222.317 -5.30817 1.5145 0
M  V30 2404 H 222.794 -4.39113 0.0875279 0
M  V30 2405 H 223.4 -3.90402 1.68721 0
M  V30 2406 N 221.715 -0.905404 -1.28997 0
M  V30 2407 C 222.625 -0.392246 -2.31298 0
M  V30 2408 C 223.641 0.515889 -1.66176 0
M  V30 2409 O 224.817 0.404093 -1.97304 0
M  V30 2410 C 221.882 0.36686 -3.44754 0
M  V30 2411 C 220.943 -0.573485 -4.25452 0
M  V30 2412 C 220.176 0.149488 -5.33491 0
M  V30 2413 O 220.399 1.37255 -5.5364 0
M  V30 2414 O 219.333 -0.510919 -5.99728 0
M  V30 2415 H 223.159 -1.2411 -2.77183 0
M  V30 2416 H 220.744 -0.669926 -1.33538 0
M  V30 2417 H 222.626 0.795907 -4.13816 0
M  V30 2418 H 221.301 1.19169 -3.00966 0
M  V30 2419 H 220.208 -1.05176 -3.59011 0
M  V30 2420 H 221.541 -1.36489 -4.72897 0
M  V30 2421 N 223.193 1.4272 -0.668489 0
M  V30 2422 C 224.47 1.95248 -0.117373 0
M  V30 2423 C 224.85 1.60919 1.36632 0
M  V30 2424 O 224.198 0.902095 2.09939 0
M  V30 2425 C 224.408 3.46927 -0.379806 0
M  V30 2426 C 225.756 4.23588 -0.292923 0
M  V30 2427 O 226.78 3.5482 -0.313204 0
M  V30 2428 O 225.639 5.46017 -0.229697 0
M  V30 2429 H 222.733 0.827 0.00079152 0
M  V30 2430 H 225.279 1.52581 -0.742783 0
M  V30 2431 H 224.051 3.65096 -1.40786 0
M  V30 2432 H 223.674 3.96627 0.277923 0
M  V30 2433 N 224.671 0.411399 1.52136 0
M  V30 2434 C 225.919 -0.163322 2.01439 0
M  V30 2435 C 226.24 -1.45453 1.29879 0
M  V30 2436 O 225.51 -1.91225 0.4254 0
M  V30 2437 H 224.09 -0.0633447 0.744309 0
M  V30 2438 H 226.752 0.548161 1.87033 0
M  V30 2439 H 225.848 -0.357817 3.10042 0
M  V30 2440 N 226.149 -1.5696 0.141893 0
M  V30 2441 C 227.396 -1.9596 -0.510492 0
M  V30 2442 C 227.724 -1.02648 -1.65208 0
M  V30 2443 O 226.979 -0.0546947 -1.95624 0
M  V30 2444 C 227.278 -3.41242 -1.06249 0
M  V30 2445 C 226.944 -4.50882 -0.0398791 0
M  V30 2446 C 225.606 -4.80595 0.241247 0
M  V30 2447 C 227.958 -5.17058 0.65578 0
M  V30 2448 C 225.286 -5.73792 1.22393 0
M  V30 2449 C 227.638 -6.11313 1.62724 0
M  V30 2450 C 226.302 -6.39407 1.91612 0
M  V30 2451 H 225.572 -0.717068 -0.186802 0
M  V30 2452 H 228.219 -1.90142 0.227643 0
M  V30 2453 H 226.524 -3.43866 -1.87785 0
M  V30 2454 H 228.221 -3.68742 -1.57576 0
M  V30 2455 H 224.811 -4.27754 -0.269174 0
M  V30 2456 H 228.995 -4.94239 0.451779 0
M  V30 2457 H 224.251 -5.93853 1.45424 0
M  V30 2458 H 228.425 -6.61668 2.17183 0
M  V30 2459 H 226.052 -7.11427 2.6791 0
M  V30 2460 N 227.627 0.131896 -1.57047 0
M  V30 2461 C 228.557 1.16384 -2.02428 0
M  V30 2462 C 229.538 1.43936 -0.90644 0
M  V30 2463 O 230.723 1.54599 -1.17528 0
M  V30 2464 C 227.853 2.49328 -2.4177 0
M  V30 2465 C 226.807 2.36266 -3.56879 0
M  V30 2466 C 226.133 3.74057 -3.8208 0
M  V30 2467 C 227.433 1.834 -4.89042 0
M  V30 2468 H 229.127 0.786433 -2.88887 0
M  V30 2469 H 226.673 0.376855 -1.38981 0
M  V30 2470 H 228.626 3.21759 -2.7212 0
M  V30 2471 H 227.35 2.88934 -1.52266 0
M  V30 2472 H 226.009 1.66286 -3.26718 0
M  V30 2473 H 225.657 4.11125 -2.89803 0
M  V30 2474 H 225.357 3.66174 -4.59554 0
M  V30 2475 H 226.881 4.48012 -4.1487 0
M  V30 2476 H 228.295 2.45636 -5.18011 0
M  V30 2477 H 226.692 1.8637 -5.70426 0
M  V30 2478 H 227.762 0.790662 -4.7841 0
M  V30 2479 N 229.106 1.52395 0.401703 0
M  V30 2480 C 230.069 1.75636 1.47257 0
M  V30 2481 C 231.069 0.62628 1.48103 0
M  V30 2482 O 232.259 0.894227 1.49497 0
M  V30 2483 C 229.391 1.84553 2.86624 0
M  V30 2484 H 230.584 2.71241 1.27938 0
M  V30 2485 H 228.137 1.42923 0.632662 0
M  V30 2486 H 228.872 0.908882 3.11303 0
M  V30 2487 H 228.657 2.66715 2.87412 0
M  V30 2488 H 230.147 2.04251 3.64241 0
M  V30 2489 N 230.584 -0.659388 1.43143 0
M  V30 2490 C 231.83 -1.42145 1.44647 0
M  V30 2491 C 232.163 -1.9408 0.0681907 0
M  V30 2492 O 231.438 -1.71899 -0.910007 0
M  V30 2493 C 231.721 -2.60735 2.48373 0
M  V30 2494 C 231.574 -2.14332 3.95451 0
M  V30 2495 C 232.893 -3.62951 2.48906 0
M  V30 2496 H 230.012 -0.51552 0.526696 0
M  V30 2497 H 232.654 -0.748069 1.74654 0
M  V30 2498 H 230.804 -3.18184 2.22916 0
M  V30 2499 H 232.476 -1.61932 4.31944 0
M  V30 2500 H 230.719 -1.4576 4.08578 0
M  V30 2501 H 231.39 -2.99583 4.63631 0
M  V30 2502 H 233.866 -3.1525 2.71582 0
M  V30 2503 H 232.742 -4.43487 3.23435 0
M  V30 2504 H 233.003 -4.15126 1.52061 0
M  V30 2505 N 232.062 -1.29571 -0.897171 0
M  V30 2506 C 233.302 -1.18959 -1.66217 0
M  V30 2507 C 233.666 0.254271 -1.90309 0
M  V30 2508 O 234.867 0.483407 -2.64417 0
M  V30 2509 C 233.138 -1.98302 -2.9734 0
M  V30 2510 S 234.697 -2.04253 -3.88364 0
M  V30 2511 H 231.515 -0.424137 -0.570639 0
M  V30 2512 H 234.117 -1.6389 -1.06585 0
M  V30 2513 H 232.821 -3.02342 -2.77521 0
M  V30 2514 H 232.352 -1.53986 -3.62011 0
M  V30 2515 H 234.367 -1.16105 -4.82425 0
M  V30 2516 N 233.54 1.10788 -1.12088 0
M  V30 2517 C 234.765 1.87002 -0.896949 0
M  V30 2518 C 235.19 1.79933 0.548261 0
M  V30 2519 O 234.548 1.16662 1.38779 0
M  V30 2520 C 234.596 3.3349 -1.37174 0
M  V30 2521 O 233.7 4.08745 -0.547831 0
M  V30 2522 H 233.041 0.580397 -0.322545 0
M  V30 2523 H 235.571 1.39996 -1.49206 0
M  V30 2524 H 235.581 3.84339 -1.36922 0
M  V30 2525 H 234.256 3.37951 -2.42408 0
M  V30 2526 H 232.833 3.6776 -0.617034 0
M  V30 2527 N 235.018 0.912232 1.28515 0
M  V30 2528 C 235.928 0.404506 2.31086 0
M  V30 2529 C 236.944 -0.50707 1.66448 0
M  V30 2530 O 238.12 -0.393624 1.97516 0
M  V30 2531 C 235.185 -0.348572 3.44943 0
M  V30 2532 C 234.246 0.59604 4.25142 0
M  V30 2533 C 233.479 -0.121194 5.33562 0
M  V30 2534 O 233.702 -1.34317 5.5436 0
M  V30 2535 O 232.636 0.542716 5.99448 0
M  V30 2536 H 236.462 1.25579 2.76521 0
M  V30 2537 H 234.047 0.676998 1.33181 0
M  V30 2538 H 235.929 -0.77395 4.14232 0
M  V30 2539 H 234.604 -1.17571 3.01594 0
M  V30 2540 H 233.511 1.07079 3.58448 0
M  V30 2541 H 234.844 1.38995 4.72167 0
M  V30 2542 N 236.496 -1.42363 0.676048 0
M  V30 2543 C 237.459 -2.29199 0.00766941 0
M  V30 2544 C 238.459 -1.43389 -0.727745 0
M  V30 2545 O 239.649 -1.64764 -0.56556 0
M  V30 2546 C 236.781 -3.2591 -0.999785 0
M  V30 2547 H 237.974 -2.89794 0.771988 0
M  V30 2548 H 235.527 -1.50024 0.438468 0
M  V30 2549 H 236.262 -2.70256 -1.79255 0
M  V30 2550 H 236.047 -3.89202 -0.475829 0
M  V30 2551 H 237.537 -3.91028 -1.46583 0
M  V30 2552 N 237.974 -0.419461 -1.51915 0
M  V30 2553 C 238.921 0.400927 -2.27291 0
M  V30 2554 C 239.891 1.03224 -1.30131 0
M  V30 2555 O 241.076 1.05455 -1.59009 0
M  V30 2556 C 238.216 1.50603 -3.10504 0
M  V30 2557 C 237.329 0.89462 -4.22635 0
M  V30 2558 C 236.464 1.97328 -4.93189 0
M  V30 2559 C 235.503 1.33935 -5.97267 0
M  V30 2560 N 234.64 2.3586 -6.61298 0
M  V30 2561 H 239.48 -0.248251 -2.96964 0
M  V30 2562 H 237.017 -0.134266 -1.46486 0
M  V30 2563 H 238.975 2.15783 -3.57062 0
M  V30 2564 H 237.605 2.12509 -2.42981 0
M  V30 2565 H 236.657 0.131583 -3.80172 0
M  V30 2566 H 237.969 0.391641 -4.9726 0
M  V30 2567 H 237.123 2.70211 -5.43204 0
M  V30 2568 H 235.862 2.50994 -4.18155 0
M  V30 2569 H 234.867 0.595896 -5.46561 0
M  V30 2570 H 236.092 0.810252 -6.74249 0
M  V30 2571 H 234.038 2.88639 -5.89087 0
M  V30 2572 H 233.955 1.90403 -7.3163 0
M  V30 2573 H 235.223 3.08282 -7.15949 0
M  V30 2574 N 239.452 1.56882 -0.150215 0
M  V30 2575 C 240.7 1.9584 0.499105 0
M  V30 2576 C 241.021 1.03623 1.65188 0
M  V30 2577 O 240.291 0.0984084 1.95653 0
M  V30 2578 H 238.871 0.723119 0.187373 0
M  V30 2579 H 241.533 1.9358 -0.226466 0
M  V30 2580 H 240.629 2.99638 0.873122 0
M  V30 2581 N 240.93 -0.123565 1.57115 0
M  V30 2582 C 241.86 -1.15309 2.03042 0
M  V30 2583 C 242.841 -1.43454 0.914061 0
M  V30 2584 O 244.026 -1.53973 1.18347 0
M  V30 2585 C 241.156 -2.48043 2.43089 0
M  V30 2586 C 240.11 -2.3437 3.58127 0
M  V30 2587 C 239.436 -3.72026 3.84059 0
M  V30 2588 C 240.736 -1.80804 4.90007 0
M  V30 2589 H 242.43 -0.771102 2.893 0
M  V30 2590 H 239.976 -0.369479 1.39179 0
M  V30 2591 H 241.929 -3.20311 2.73823 0
M  V30 2592 H 240.653 -2.88122 1.53796 0
M  V30 2593 H 239.312 -1.64551 3.27595 0
M  V30 2594 H 238.96 -4.09582 2.91979 0
M  V30 2595 H 238.66 -3.63732 4.6149 0
M  V30 2596 H 240.184 -4.45806 4.1724 0
M  V30 2597 H 241.598 -2.42886 5.19307 0
M  V30 2598 H 239.995 -1.83343 5.71407 0
M  V30 2599 H 241.065 -0.76528 4.78823 0
M  V30 2600 N 242.408 -1.52605 -0.393616 0
M  V30 2601 C 243.654 -1.67672 -1.14079 0
M  V30 2602 C 243.987 -0.413121 -1.89755 0
M  V30 2603 O 243.262 0.588952 -1.85369 0
M  V30 2604 C 243.545 -2.9088 -2.12276 0
M  V30 2605 C 243.398 -4.27329 -1.40394 0
M  V30 2606 C 244.717 -3.09628 -3.12759 0
M  V30 2607 H 241.836 -0.610168 -0.413356 0
M  V30 2608 H 244.478 -1.85193 -0.424696 0
M  V30 2609 H 242.628 -2.76073 -2.73342 0
M  V30 2610 H 244.3 -4.53894 -0.82327 0
M  V30 2611 H 242.543 -4.2802 -0.705801 0
M  V30 2612 H 243.214 -5.09615 -2.12123 0
M  V30 2613 H 245.69 -3.23436 -2.61779 0
M  V30 2614 H 244.566 -3.97322 -3.78717 0
M  V30 2615 H 244.827 -2.23637 -3.81365 0
M  V30 2616 N 243.887 0.651787 -1.4349 0
M  V30 2617 C 245.115 1.43937 -1.48626 0
M  V30 2618 C 245.53 1.8851 -0.104587 0
M  V30 2619 O 244.887 1.5958 0.885464 0
M  V30 2620 C 244.938 2.6734 -2.43334 0
M  V30 2621 O 244.659 2.24631 -3.76128 0
M  V30 2622 C 246.16 3.60683 -2.57726 0
M  V30 2623 H 243.38 0.44213 -0.504739 0
M  V30 2624 H 245.924 0.798944 -1.88248 0
M  V30 2625 H 244.079 3.2752 -2.06904 0
M  V30 2626 H 244.493 3.04485 -4.2707 0
M  V30 2627 H 245.967 4.43933 -3.28067 0
M  V30 2628 H 246.444 4.08126 -1.62265 0
M  V30 2629 H 247.05 3.06384 -2.94973 0
M  V30 2630 N 245.365 1.30045 0.890287 0
M  V30 2631 C 246.295 1.18541 2.01172 0
M  V30 2632 C 247.276 0.0773356 1.69924 0
M  V30 2633 O 248.461 0.25845 1.92473 0
M  V30 2634 C 245.591 0.870941 3.36202 0
M  V30 2635 C 244.545 1.93637 3.81692 0
M  V30 2636 C 243.871 1.475 5.13953 0
M  V30 2637 C 245.171 3.34666 4.00994 0
M  V30 2638 H 246.865 2.12359 2.11054 0
M  V30 2639 H 244.411 1.02238 1.01407 0
M  V30 2640 H 246.364 0.777141 4.14172 0
M  V30 2641 H 245.088 -0.102926 3.26438 0
M  V30 2642 H 243.747 2.01972 3.05946 0
M  V30 2643 H 243.395 0.489551 5.00612 0
M  V30 2644 H 243.095 2.1876 5.4536 0
M  V30 2645 H 244.619 1.39489 5.94454 0
M  V30 2646 H 246.033 3.2912 4.69417 0
M  V30 2647 H 244.43 4.03966 4.43769 0
M  V30 2648 H 245.5 3.76949 3.05021 0
M  V30 2649 N 246.843 -1.10192 1.12674 0
M  V30 2650 C 247.79 -2.16606 0.796906 0
M  V30 2651 C 248.76 -1.64394 -0.237476 0
M  V30 2652 O 249.945 -1.90474 -0.111484 0
M  V30 2653 C 247.085 -3.44116 0.26043 0
M  V30 2654 C 246.198 -4.10268 1.35293 0
M  V30 2655 C 245.333 -5.25507 0.775621 0
M  V30 2656 C 244.372 -5.83567 1.84706 0
M  V30 2657 N 243.509 -6.90179 1.28829 0
M  V30 2658 H 248.349 -2.44163 1.70846 0
M  V30 2659 H 245.886 -1.19846 0.85295 0
M  V30 2660 H 247.844 -4.17143 -0.0686814 0
M  V30 2661 H 246.474 -3.16901 -0.614274 0
M  V30 2662 H 245.526 -3.35184 1.79877 0
M  V30 2663 H 246.838 -4.4946 2.16303 0
M  V30 2664 H 245.992 -6.05398 0.397327 0
M  V30 2665 H 244.731 -4.87656 -0.0656581 0
M  V30 2666 H 243.736 -5.02344 2.23452 0
M  V30 2667 H 244.961 -6.23482 2.69161 0
M  V30 2668 H 242.907 -6.54322 0.468881 0
M  V30 2669 H 242.824 -7.28097 2.03497 0
M  V30 2670 H 244.092 -7.73844 0.937311 0
M  V30 2671 N 248.321 -0.919034 -1.28029 0
M  V30 2672 C 249.271 -0.382574 -2.24767 0
M  V30 2673 C 250.255 0.508286 -1.52661 0
M  V30 2674 O 251.447 0.347145 -1.73562 0
M  V30 2675 C 248.576 0.371432 -3.41285 0
M  V30 2676 C 247.662 -0.535449 -4.20706 0
M  V30 2677 N 248.053 -1.65141 -4.78082 0
M  V30 2678 C 246.351 -0.336824 -4.44726 0
M  V30 2679 C 247.052 -2.21475 -5.37888 0
M  V30 2680 N 246.028 -1.50537 -5.22341 0
M  V30 2681 H 249.83 -1.23477 -2.66703 0
M  V30 2682 H 247.344 -0.772299 -1.42861 0
M  V30 2683 H 249.341 0.772638 -4.09678 0
M  V30 2684 H 248.001 1.22066 -3.00882 0
M  V30 2685 H 249.012 -2.03392 -4.7629 0
M  V30 2686 H 245.689 0.47246 -4.14818 0
M  V30 2687 H 247.079 -3.15379 -5.93284 0
M  V30 2688 N 249.799 1.42003 -0.683588 0
M  V30 2689 C 251.024 2.06265 -0.216647 0
M  V30 2690 C 251.449 1.51059 1.12083 0
M  V30 2691 O 250.807 0.632638 1.69904 0
M  V30 2692 C 250.855 3.60191 -0.171759 0
M  V30 2693 O 249.959 4.03396 0.857069 0
M  V30 2694 H 249.3 0.65502 -0.108834 0
M  V30 2695 H 251.83 1.81982 -0.935077 0
M  V30 2696 H 251.84 4.08 0.0014303 0
M  V30 2697 H 250.515 3.99743 -1.14796 0
M  V30 2698 H 249.092 3.67117 0.654208 0
M  V30 2699 N 251.277 0.427512 1.51691 0
M  V30 2700 C 252.24 -0.377132 2.26076 0
M  V30 2701 C 253.24 -0.958089 1.29141 0
M  V30 2702 O 254.43 -0.83408 1.52934 0
M  V30 2703 C 251.562 -1.53262 3.04506 0
M  V30 2704 H 252.755 0.27464 2.9864 0
M  V30 2705 H 250.308 0.180445 1.55255 0
M  V30 2706 H 251.043 -2.22072 2.36335 0
M  V30 2707 H 250.828 -1.12232 3.75694 0
M  V30 2708 H 252.318 -2.10135 3.60878 0
M  V30 2709 N 252.755 -1.56801 0.158532 0
M  V30 2710 C 253.983 -2.00859 -0.496303 0
M  V30 2711 C 254.398 -1.03871 -1.57659 0
M  V30 2712 O 253.755 -0.0375165 -1.82461 0
M  V30 2713 C 253.806 -3.4479 -1.08638 0
M  V30 2714 O 253.527 -4.38072 -0.0492322 0
M  V30 2715 C 255.028 -4.04185 -1.8207 0
M  V30 2716 H 252.248 -0.65864 -0.128199 0
M  V30 2717 H 254.792 -2.02885 0.256506 0
M  V30 2718 H 252.947 -3.43579 -1.78975 0
M  V30 2719 H 253.361 -5.2227 -0.483102 0
M  V30 2720 H 254.835 -5.06857 -2.18633 0
M  V30 2721 H 255.312 -3.45549 -2.71095 0
M  V30 2722 H 255.918 -4.0906 -1.16405 0
M  V30 2723 N 254.233 0.115231 -1.57178 0
M  V30 2724 C 255.644 0.67197 -1.74188 0
M  V30 2725 C 255.995 1.80125 -0.777777 0
M  V30 2726 O 255.12 2.16346 0.0484376 0
M  V30 2727 C 255.715 1.22573 -3.1585 0
M  V30 2728 C 254.274 1.72872 -3.34353 0
M  V30 2729 C 253.421 0.629972 -2.70049 0
M  V30 2730 H 256.372 -0.110712 -1.58313 0
M  V30 2731 H 256.393 2.09535 -3.17609 0
M  V30 2732 H 255.905 0.403598 -3.85996 0
M  V30 2733 H 254.006 2.5755 -2.69256 0
M  V30 2734 H 254.119 1.83557 -4.42542 0
M  V30 2735 H 252.483 1.0645 -2.31388 0
M  V30 2736 H 253.266 -0.181241 -3.42821 0
M  V30 2737 N 255.711 1.52812 0.385517 0
M  V30 2738 C 256.958 1.68026 1.1302 0
M  V30 2739 C 257.286 0.421934 1.89868 0
M  V30 2740 O 256.541 -0.595749 1.86412 0
M  V30 2741 C 256.84 2.86856 2.13187 0
M  V30 2742 C 256.506 4.24159 1.5297 0
M  V30 2743 C 255.168 4.61501 1.36274 0
M  V30 2744 C 257.52 5.09627 1.09223 0
M  V30 2745 C 254.848 5.81966 0.743837 0
M  V30 2746 C 257.2 6.30719 0.487411 0
M  V30 2747 C 255.864 6.6679 0.307777 0
M  V30 2748 H 255.134 0.614849 0.413571 0
M  V30 2749 H 257.781 1.86962 0.414405 0
M  V30 2750 H 256.086 2.6235 2.90998 0
M  V30 2751 H 257.783 2.95821 2.70722 0
M  V30 2752 H 254.373 3.94746 1.66954 0
M  V30 2753 H 258.557 4.81343 1.20922 0
M  V30 2754 H 253.813 6.08519 0.592891 0
M  V30 2755 H 257.987 6.96259 0.140143 0
M  V30 2756 H 255.614 7.60001 -0.173879 0
M  V30 2757 N 257.189 -0.644168 1.43834 0
M  V30 2758 C 258.119 -1.76814 1.52509 0
M  V30 2759 C 259.1 -1.65823 0.379052 0
M  V30 2760 O 260.285 -1.84781 0.597466 0
M  V30 2761 C 257.415 -3.15288 1.4564 0
M  V30 2762 C 256.369 -3.41053 2.58586 0
M  V30 2763 C 255.695 -4.79421 2.36769 0
M  V30 2764 C 256.995 -3.34902 4.00797 0
M  V30 2765 H 258.689 -1.69812 2.46586 0
M  V30 2766 H 256.235 -0.815542 1.1868 0
M  V30 2767 H 258.188 -3.93681 1.50311 0
M  V30 2768 H 256.912 -3.23043 0.480725 0
M  V30 2769 H 255.571 -2.65035 2.53282 0
M  V30 2770 H 255.219 -4.83863 1.37424 0
M  V30 2771 H 254.919 -4.9762 3.12487 0
M  V30 2772 H 256.443 -5.6006 2.43238 0
M  V30 2773 H 257.857 -4.03218 4.07539 0
M  V30 2774 H 256.254 -3.64637 4.76613 0
M  V30 2775 H 257.324 -2.32928 4.25291 0
M  V30 2776 N 258.668 -1.30515 -0.883378 0
M  V30 2777 C 259.615 -1.17032 -1.98927 0
M  V30 2778 C 260.585 -0.0594241 -1.65994 0
M  V30 2779 O 261.77 -0.229895 -1.8941 0
M  V30 2780 C 258.91 -0.869777 -3.33959 0
M  V30 2781 C 258.023 -2.06271 -3.79574 0
M  V30 2782 C 257.158 -1.70011 -5.03259 0
M  V30 2783 C 256.197 -2.8579 -5.41286 0
M  V30 2784 N 255.334 -2.49816 -6.56153 0
M  V30 2785 H 260.174 -2.1164 -2.09792 0
M  V30 2786 H 257.711 -1.05296 -1.02719 0
M  V30 2787 H 259.669 -0.676138 -4.11685 0
M  V30 2788 H 258.299 0.0394332 -3.22776 0
M  V30 2789 H 257.351 -2.36755 -2.97744 0
M  V30 2790 H 258.663 -2.92971 -4.03694 0
M  V30 2791 H 257.817 -1.47032 -5.88614 0
M  V30 2792 H 256.556 -0.804829 -4.81013 0
M  V30 2793 H 255.561 -3.09434 -4.54456 0
M  V30 2794 H 256.786 -3.76008 -5.65504 0
M  V30 2795 H 254.732 -1.62795 -6.35479 0
M  V30 2796 H 254.649 -3.30048 -6.8015 0
M  V30 2797 H 255.917 -2.30197 -7.44735 0
M  V30 2798 N 260.146 1.09593 -1.13257 0
M  V30 2799 C 261.392 1.82003 -0.89458 0
M  V30 2800 C 261.725 1.85402 0.577906 0
M  V30 2801 O 261 1.32099 1.42759 0
M  V30 2802 C 261.283 3.28237 -1.48096 0
M  V30 2803 C 261.136 3.3312 -3.02244 0
M  V30 2804 C 262.455 4.24871 -1.14774 0
M  V30 2805 H 259.574 0.66077 -0.326424 0
M  V30 2806 H 262.216 1.28389 -1.40058 0
M  V30 2807 H 260.366 3.74024 -1.05062 0
M  V30 2808 H 262.038 2.95748 -3.54021 0
M  V30 2809 H 260.281 2.72756 -3.37323 0
M  V30 2810 H 260.952 4.3613 -3.38371 0
M  V30 2811 H 263.428 3.87361 -1.51957 0
M  V30 2812 H 262.304 5.25532 -1.58452 0
M  V30 2813 H 262.565 4.42058 -0.0611849 0
M  V30 2814 N 261.624 0.925811 1.2754 0
M  V30 2815 C 262.534 0.428993 2.30644 0
M  V30 2816 C 263.55 -0.489387 1.66976 0
M  V30 2817 O 264.726 -0.372653 1.97922 0
M  V30 2818 C 261.791 -0.311967 3.45294 0
M  V30 2819 C 260.852 0.641098 4.24486 0
M  V30 2820 C 260.085 -0.0645955 5.33661 0
M  V30 2821 O 260.308 -1.28429 5.55754 0
M  V30 2822 O 259.242 0.606265 5.98839 0
M  V30 2823 H 263.068 1.28504 2.75173 0
M  V30 2824 H 260.653 0.691086 1.32455 0
M  V30 2825 H 262.535 -0.729972 4.15029 0
M  V30 2826 H 261.21 -1.14365 3.02824 0
M  V30 2827 H 260.117 1.10874 3.57292 0
M  V30 2828 H 261.45 1.43995 4.70666 0
M  V30 2829 N 263.102 -1.41638 0.69111 0
M  V30 2830 C 264.513 -1.84346 0.295517 0
M  V30 2831 C 264.864 -1.57833 -1.16547 0
M  V30 2832 O 263.989 -1.04648 -1.89414 0
M  V30 2833 C 264.584 -3.34636 0.529575 0
M  V30 2834 C 263.143 -3.7593 0.187944 0
M  V30 2835 C 262.29 -2.65082 0.814052 0
M  V30 2836 H 265.241 -1.31253 0.892092 0
M  V30 2837 H 265.262 -3.79903 -0.213148 0
M  V30 2838 H 264.774 -3.53901 1.59297 0
M  V30 2839 H 262.875 -3.62268 -0.871367 0
M  V30 2840 H 262.988 -4.74808 0.63985 0
M  V30 2841 H 261.352 -2.53528 0.244017 0
M  V30 2842 H 262.135 -2.87167 1.88123 0
M  V30 2843 N 264.58 -0.43555 -1.51462 0
M  V30 2844 C 265.827 0.131514 -2.02072 0
M  V30 2845 C 266.155 1.42868 -1.31981 0
M  V30 2846 O 265.41 1.91076 -0.422883 0
M  V30 2847 C 265.709 0.39942 -3.55161 0
M  V30 2848 C 265.375 -0.81172 -4.43533 0
M  V30 2849 C 264.037 -1.14387 -4.67407 0
M  V30 2850 C 266.389 -1.61976 -4.95392 0
M  V30 2851 C 263.717 -2.28477 -5.40384 0
M  V30 2852 C 266.069 -2.75164 -5.6962 0
M  V30 2853 C 264.733 -3.08835 -5.91758 0
M  V30 2854 H 264.003 0.0481244 -0.739436 0
M  V30 2855 H 266.65 -0.58238 -1.8243 0
M  V30 2856 H 264.955 1.19519 -3.73125 0
M  V30 2857 H 266.652 0.85157 -3.91854 0
M  V30 2858 H 263.242 -0.542898 -4.25148 0
M  V30 2859 H 267.426 -1.37637 -4.76833 0
M  V30 2860 H 262.682 -2.5488 -5.55739 0
M  V30 2861 H 266.856 -3.38147 -6.08793 0
M  V30 2862 H 264.483 -3.97353 -6.48086 0
M  V30 2863 N 266.058 1.56714 -0.166846 0
M  V30 2864 C 266.988 2.20754 0.760913 0
M  V30 2865 C 267.969 1.16178 1.24244 0
M  V30 2866 O 269.154 1.44592 1.29641 0
M  V30 2867 C 266.284 2.84478 1.99223 0
M  V30 2868 C 265.238 3.95053 1.64672 0
M  V30 2869 C 264.564 4.45805 2.95232 0
M  V30 2870 C 265.864 5.14865 0.878155 0
M  V30 2871 H 267.558 2.98537 0.22713 0
M  V30 2872 H 265.104 1.43596 0.107805 0
M  V30 2873 H 267.057 3.27951 2.64624 0
M  V30 2874 H 265.781 2.04056 2.55007 0
M  V30 2875 H 264.44 3.52228 1.01641 0
M  V30 2876 H 264.088 3.62181 3.49047 0
M  V30 2877 H 263.788 5.204 2.7287 0
M  V30 2878 H 265.312 4.91962 3.6167 0
M  V30 2879 H 266.726 5.55059 1.43466 0
M  V30 2880 H 265.123 5.95348 0.753738 0
M  V30 2881 H 266.193 4.84735 -0.126377 0
M  V30 2882 N 267.536 -0.106894 1.57237 0
M  V30 2883 C 268.947 -0.662723 1.74542 0
M  V30 2884 C 269.298 -1.7971 0.787319 0
M  V30 2885 O 268.423 -2.16368 -0.0369636 0
M  V30 2886 C 269.018 -1.20896 3.16496 0
M  V30 2887 C 267.577 -1.71096 3.35266 0
M  V30 2888 C 266.724 -0.615642 2.7038 0
M  V30 2889 H 269.675 0.119106 1.58252 0
M  V30 2890 H 269.696 -2.07847 3.18716 0
M  V30 2891 H 269.208 -0.383122 3.86204 0
M  V30 2892 H 267.309 -2.56119 2.70618 0
M  V30 2893 H 267.422 -1.81208 4.43509 0
M  V30 2894 H 265.786 -1.05222 2.31949 0
M  V30 2895 H 266.569 0.199419 3.4272 0
M  V30 2896 N 269.014 -1.53014 -0.377408 0
M  V30 2897 C 270.262 -1.6829 -1.11906 0
M  V30 2898 C 270.583 -0.431206 -1.90173 0
M  V30 2899 O 269.853 0.554595 -1.87886 0
M  V30 2900 H 268.433 -0.620371 -0.416112 0
M  V30 2901 H 271.095 -1.90167 -0.426893 0
M  V30 2902 H 270.191 -2.53862 -1.8155 0
M  V30 2903 N 270.492 0.636531 -1.44174 0
M  V30 2904 C 271.442 1.74233 -1.47061 0
M  V30 2905 C 272.426 1.57331 -0.337034 0
M  V30 2906 O 273.618 1.67159 -0.581973 0
M  V30 2907 C 270.747 3.12897 -1.41246 0
M  V30 2908 C 269.833 3.35288 -2.59698 0
M  V30 2909 N 270.224 3.2807 -3.84972 0
M  V30 2910 C 268.522 3.66065 -2.54778 0
M  V30 2911 C 269.223 3.51001 -4.63867 0
M  V30 2912 N 268.199 3.73616 -3.94857 0
M  V30 2913 H 272.001 1.67103 -2.41773 0
M  V30 2914 H 269.515 0.838806 -1.3906 0
M  V30 2915 H 271.512 3.92189 -1.41398 0
M  V30 2916 H 270.172 3.21197 -0.47569 0
M  V30 2917 H 271.183 3.07109 -4.17019 0
M  V30 2918 H 267.86 3.81379 -1.6987 0
M  V30 2919 H 269.25 3.51059 -5.72894 0
M  V30 2920 N 271.97 1.30982 0.876444 0
M  V30 2921 C 273.2 1.23063 1.65949 0
M  V30 2922 C 273.608 -0.207537 1.88058 0
M  V30 2923 O 272.951 -1.14781 1.43426 0
M  V30 2924 C 273.013 1.89768 3.05333 0
M  V30 2925 C 272.677 3.39106 3.0636 0
M  V30 2926 C 273.674 4.3496 2.84791 0
M  V30 2927 C 271.359 3.80693 3.27686 0
M  V30 2928 C 273.353 5.70375 2.84519 0
M  V30 2929 C 271.04 5.16223 3.27043 0
M  V30 2930 C 272.038 6.10875 3.05485 0
M  V30 2931 O 271.726 7.43928 3.04674 0
M  V30 2932 H 271.458 0.426685 0.524324 0
M  V30 2933 H 274.012 1.7329 1.10271 0
M  V30 2934 H 272.242 1.34082 3.6271 0
M  V30 2935 H 273.931 1.75853 3.65829 0
M  V30 2936 H 274.697 4.0416 2.68103 0
M  V30 2937 H 270.576 3.07457 3.43499 0
M  V30 2938 H 274.12 6.44228 2.67611 0
M  V30 2939 H 270.017 5.4666 3.43269 0
M  V30 2940 H 270.785 7.53022 3.2078 0
M  V30 2941 N 273.449 -1.08991 1.13837 0
M  V30 2942 C 274.359 -2.19301 0.833333 0
M  V30 2943 C 275.375 -1.73026 -0.183847 0
M  V30 2944 O 276.551 -2.01395 -0.0138092 0
M  V30 2945 C 273.616 -3.45323 0.308651 0
M  V30 2946 C 272.677 -4.06255 1.38764 0
M  V30 2947 C 271.91 -5.26262 0.887896 0
M  V30 2948 O 272.133 -5.69747 -0.27287 0
M  V30 2949 O 271.067 -5.78435 1.66421 0
M  V30 2950 H 274.893 -2.47854 1.75506 0
M  V30 2951 H 272.478 -1.18012 0.916166 0
M  V30 2952 H 274.36 -4.21394 0.0216739 0
M  V30 2953 H 273.035 -3.18362 -0.585431 0
M  V30 2954 H 271.942 -3.318 1.72799 0
M  V30 2955 H 273.275 -4.37452 2.25602 0
M  V30 2956 N 274.927 -0.932562 -1.27047 0
M  V30 2957 C 276.173 -0.576412 -1.94436 0
M  V30 2958 C 276.506 0.880891 -1.73072 0
M  V30 2959 O 275.781 1.62905 -1.06264 0
M  V30 2960 C 276.064 -0.909031 -3.48437 0
M  V30 2961 C 275.917 -2.42044 -3.79123 0
M  V30 2962 C 277.236 -0.418341 -4.38107 0
M  V30 2963 H 274.355 -0.210888 -0.706184 0
M  V30 2964 H 276.997 -1.16522 -1.50075 0
M  V30 2965 H 275.147 -0.407947 -3.86352 0
M  V30 2966 H 276.819 -2.99359 -3.50973 0
M  V30 2967 H 275.062 -2.86758 -3.25503 0
M  V30 2968 H 275.733 -2.6037 -4.86736 0
M  V30 2969 H 278.209 -0.847856 -4.0737 0
M  V30 2970 H 277.085 -0.679981 -5.44672 0
M  V30 2971 H 277.346 0.681642 -4.36814 0
M  V30 2972 N 276.405 1.4127 -0.698611 0
M  V30 2973 C 277.335 2.33447 -0.049629 0
M  V30 2974 C 278.316 1.51982 0.763898 0
M  V30 2975 O 279.501 1.80509 0.716257 0
M  V30 2976 C 276.631 3.35828 0.885267 0
M  V30 2977 C 275.585 4.27627 0.178613 0
M  V30 2978 C 274.911 5.20406 1.22807 0
M  V30 2979 C 276.211 5.13459 -0.956933 0
M  V30 2980 H 277.905 2.87966 -0.81951 0
M  V30 2981 H 275.451 1.38461 -0.395538 0
M  V30 2982 H 277.404 3.9924 1.34854 0
M  V30 2983 H 276.128 2.79666 1.68685 0
M  V30 2984 H 274.787 3.65643 -0.26466 0
M  V30 2985 H 274.435 4.60558 2.02226 0
M  V30 2986 H 274.135 5.82661 0.760239 0
M  V30 2987 H 275.659 5.86695 1.69179 0
M  V30 2988 H 277.073 5.70421 -0.573805 0
M  V30 2989 H 275.47 5.8467 -1.35205 0
M  V30 2990 H 276.54 4.50443 -1.79524 0
M  V30 2991 N 277.883 0.443576 1.51229 0
M  V30 2992 C 279.16 -0.181038 1.9476 0
M  V30 2993 C 279.54 -1.59523 1.38259 0
M  V30 2994 O 278.888 -2.2122 0.572198 0
M  V30 2995 C 279.098 -0.152422 3.48667 0
M  V30 2996 C 280.446 -0.354923 4.23114 0
M  V30 2997 O 281.47 -0.230257 3.55455 0
M  V30 2998 O 280.329 -0.603674 5.43156 0
M  V30 2999 H 277.423 -0.1266 0.817252 0
M  V30 3000 H 279.969 0.502004 1.62105 0
M  V30 3001 H 278.741 0.836022 3.82265 0
M  V30 3002 H 278.364 -0.878107 3.87782 0
M  V30 3003 N 279.361 -1.56624 0.175154 0
M  V30 3004 C 280.291 -2.21155 -0.749195 0
M  V30 3005 C 281.272 -1.16836 -1.23626 0
M  V30 3006 O 282.457 -1.45277 -1.28873 0
M  V30 3007 C 279.587 -2.8553 -1.97711 0
M  V30 3008 C 278.541 -3.95921 -1.62575 0
M  V30 3009 C 277.867 -4.47365 -2.92864 0
M  V30 3010 C 279.167 -5.15323 -0.850838 0
M  V30 3011 H 280.861 -2.98653 -0.211295 0
M  V30 3012 H 278.407 -1.43651 -0.100188 0
M  V30 3013 H 280.36 -3.2935 -2.62881 0
M  V30 3014 H 279.084 -2.05406 -2.53921 0
M  V30 3015 H 277.743 -3.52762 -0.997719 0
M  V30 3016 H 277.391 -3.64027 -3.47122 0
M  V30 3017 H 277.091 -5.21839 -2.70106 0
M  V30 3018 H 278.615 -4.93873 -3.59056 0
M  V30 3019 H 280.029 -5.55812 -1.40521 0
M  V30 3020 H 278.426 -5.95739 -0.722154 0
M  V30 3021 H 279.496 -4.84661 0.152082 0
M  V30 3022 N 280.839 0.0985539 -1.57292 0
M  V30 3023 C 281.786 1.11981 -2.01814 0
M  V30 3024 C 282.756 1.39999 -0.89384 0
M  V30 3025 O 283.941 1.5152 -1.15958 0
M  V30 3026 C 281.081 2.43577 -2.44467 0
M  V30 3027 C 280.194 2.2232 -3.70402 0
M  V30 3028 C 279.329 3.4729 -4.01949 0
M  V30 3029 C 278.368 3.2128 -5.21005 0
M  V30 3030 N 277.505 4.38507 -5.48321 0
M  V30 3031 H 282.345 0.733149 -2.88841 0
M  V30 3032 H 279.882 0.350482 -1.42864 0
M  V30 3033 H 281.84 3.20373 -2.6724 0
M  V30 3034 H 280.47 2.80097 -1.60455 0
M  V30 3035 H 279.522 1.36343 -3.55126 0
M  V30 3036 H 280.834 1.99089 -4.57345 0
M  V30 3037 H 279.988 4.32495 -4.25479 0
M  V30 3038 H 278.727 3.73572 -3.13521 0
M  V30 3039 H 277.732 2.34468 -4.97298 0
M  V30 3040 H 278.957 2.96348 -6.11028 0
M  V30 3041 H 276.903 4.64871 -4.62851 0
M  V30 3042 H 276.82 4.18455 -6.29628 0
M  V30 3043 H 278.088 5.24787 -5.76385 0
M  V30 3044 N 282.317 1.53212 0.369288 0
M  V30 3045 C 283.728 1.60943 0.946276 0
M  V30 3046 C 284.079 0.47452 1.90375 0
M  V30 3047 O 283.204 -0.399597 2.12679 0
M  V30 3048 C 283.799 2.91715 1.72302 0
M  V30 3049 C 282.358 3.01792 2.24941 0
M  V30 3050 C 281.505 2.56211 1.06072 0
M  V30 3051 H 284.456 1.58007 0.148198 0
M  V30 3052 H 284.477 2.79309 2.58393 0
M  V30 3053 H 283.989 3.74295 1.0259 0
M  V30 3054 H 282.09 2.23791 2.97906 0
M  V30 3055 H 282.203 4.06803 2.53077 0
M  V30 3056 H 280.567 2.10998 1.4266 0
M  V30 3057 H 281.35 3.41206 0.378639 0
M  V30 3058 N 283.795 -0.628877 1.44509 0
M  V30 3059 C 284.743 -1.76193 1.51852 0
M  V30 3060 C 285.737 -1.64849 0.390042 0
M  V30 3061 O 286.943 -1.709 0.565082 0
M  V30 3062 H 283.318 -0.581728 0.476547 0
M  V30 3063 H 285.289 -1.67123 2.47209 0
M  V30 3064 C 284.038 -3.14533 1.48204 0
M  V30 3065 H 283.361 -3.23911 2.34354 0
M  V30 3066 H 284.801 -3.93701 1.57402 0
M  V30 3067 C 283.26 -3.36287 0.203142 0
M  V30 3068 O 283.79 -3.9509 -0.725745 0
M  V30 3069 N 281.996 -2.90408 0.105563 0
M  V30 3070 H 281.543 -2.42739 0.862301 0
M  V30 3071 H 281.501 -3.05339 -0.749371 0
M  V30 3072 N 285.273 -1.31445 -0.869486 0
M  V30 3073 C 286.521 -1.20918 -1.61936 0
M  V30 3074 C 286.842 0.232683 -1.93607 0
M  V30 3075 O 286.112 1.15352 -1.58338 0
M  V30 3076 H 284.692 -0.44454 -0.600328 0
M  V30 3077 H 287.354 -1.64776 -1.0409 0
M  V30 3078 H 286.45 -1.78124 -2.56278 0
M  V30 3079 N 286.751 1.08385 -1.14413 0
M  V30 3080 C 287.698 2.15311 -0.831265 0
M  V30 3081 C 288.668 1.64751 0.211292 0
M  V30 3082 O 289.853 1.90627 0.0811674 0
M  V30 3083 C 286.993 3.43658 -0.315143 0
M  V30 3084 C 286.106 4.08064 -1.41802 0
M  V30 3085 C 285.241 5.24207 -0.859126 0
M  V30 3086 C 284.28 5.80554 -1.93967 0
M  V30 3087 N 283.417 6.88042 -1.39793 0
M  V30 3088 H 288.257 2.41415 -1.74708 0
M  V30 3089 H 285.794 1.18474 -0.871909 0
M  V30 3090 H 287.752 4.172 0.00230884 0
M  V30 3091 H 286.382 3.17839 0.56378 0
M  V30 3092 H 285.434 3.3228 -1.85187 0
M  V30 3093 H 286.746 4.45962 -2.23427 0
M  V30 3094 H 285.9 6.04689 -0.49359 0
M  V30 3095 H 284.639 4.87699 -0.011932 0
M  V30 3096 H 283.644 4.98725 -2.31415 0
M  V30 3097 H 284.869 6.19121 -2.79046 0
M  V30 3098 H 282.815 6.53493 -0.572919 0
M  V30 3099 H 282.732 7.24767 -2.15054 0
M  V30 3100 H 284 7.72255 -1.0603 0
M  V30 3101 N 288.23 0.939286 1.26551 0
M  V30 3102 C 289.476 0.586715 1.94128 0
M  V30 3103 C 289.809 -0.8717 1.73537 0
M  V30 3104 O 289.084 -1.62339 1.07127 0
M  V30 3105 C 289.367 0.927497 3.4795 0
M  V30 3106 C 289.22 2.44052 3.77834 0
M  V30 3107 C 290.539 0.441569 4.37879 0
M  V30 3108 H 287.658 0.21463 0.705055 0
M  V30 3109 H 290.3 1.17316 1.49455 0
M  V30 3110 H 288.45 0.428431 3.8613 0
M  V30 3111 H 290.122 3.01216 3.4938 0
M  V30 3112 H 288.365 2.8848 3.23978 0
M  V30 3113 H 289.036 2.62947 4.85348 0
M  V30 3114 H 291.512 0.869448 4.06915 0
M  V30 3115 H 290.388 0.708856 5.44304 0
M  V30 3116 H 290.649 -0.658467 4.37169 0
M  V30 3117 N 289.708 -1.40897 0.706093 0
M  V30 3118 C 290.671 -2.29131 0.0562841 0
M  V30 3119 C 291.671 -1.44901 -0.697166 0
M  V30 3120 O 292.861 -1.65926 -0.530484 0
M  V30 3121 C 289.993 -3.27957 -0.93043 0
M  V30 3122 H 291.186 -2.88091 0.833284 0
M  V30 3123 H 288.739 -1.4906 0.470192 0
M  V30 3124 H 289.474 -2.73997 -1.73482 0
M  V30 3125 H 289.259 -3.90124 -0.393166 0
M  V30 3126 H 290.749 -3.94049 -1.38256 0
M  V30 3127 N 291.186 -0.45159 -1.50991 0
M  V30 3128 C 292.411 0.110667 -2.07105 0
M  V30 3129 C 292.836 1.3446 -1.31538 0
M  V30 3130 O 292.194 1.77743 -0.357365 0
M  V30 3131 C 292.242 0.397238 -3.58405 0
M  V30 3132 O 291.346 1.48124 -3.84881 0
M  V30 3133 H 290.687 -0.00439271 -0.663985 0
M  V30 3134 H 293.217 -0.637026 -1.9443 0
M  V30 3135 H 293.227 0.64351 -4.02893 0
M  V30 3136 H 291.902 -0.504553 -4.12828 0
M  V30 3137 H 290.479 1.22381 -3.52246 0
M  V30 3138 N 292.664 1.56529 -0.183458 0
M  V30 3139 C 293.91 1.97537 0.459036 0
M  V30 3140 C 294.243 1.06989 1.62071 0
M  V30 3141 O 293.518 0.11948 1.94133 0
M  V30 3142 C 293.801 3.47874 0.930368 0
M  V30 3143 C 293.654 4.492 -0.232317 0
M  V30 3144 C 294.973 4.01612 1.79989 0
M  V30 3145 H 292.092 0.718204 0.165383 0
M  V30 3146 H 294.734 1.88042 -0.272038 0
M  V30 3147 H 292.884 3.56095 1.55333 0
M  V30 3148 H 294.556 4.53027 -0.86972 0
M  V30 3149 H 292.799 4.24657 -0.885928 0
M  V30 3150 H 293.47 5.51823 0.139796 0
M  V30 3151 H 295.946 3.96097 1.27461 0
M  V30 3152 H 294.822 5.07195 2.09867 0
M  V30 3153 H 295.083 3.46163 2.74998 0
M  V30 3154 N 294.142 -0.090211 1.57342 0
M  V30 3155 C 295.052 -1.12735 2.05738 0
M  V30 3156 C 296.068 -1.43557 0.983231 0
M  V30 3157 O 297.244 -1.54101 1.29672 0
M  V30 3158 C 294.309 -2.42659 2.47624 0
M  V30 3159 C 293.37 -2.18975 3.69254 0
M  V30 3160 C 292.603 -3.42704 4.09133 0
M  V30 3161 O 292.826 -4.51127 3.49057 0
M  V30 3162 O 291.76 -3.32003 5.02053 0
M  V30 3163 H 295.586 -0.746279 2.94388 0
M  V30 3164 H 293.171 -0.303064 1.46294 0
M  V30 3165 H 295.053 -3.19155 2.7517 0
M  V30 3166 H 293.728 -2.80182 1.62109 0
M  V30 3167 H 292.635 -1.40244 3.46818 0
M  V30 3168 H 293.968 -1.86342 4.55563 0
M  V30 3169 N 295.62 -1.53406 -0.361157 0
M  V30 3170 C 296.553 -1.74946 -1.46524 0
M  V30 3171 C 297.531 -0.59795 -1.51206 0
M  V30 3172 O 298.715 -0.831062 -1.69191 0
M  V30 3173 C 295.842 -1.83224 -2.84863 0
M  V30 3174 C 294.888 -3.05233 -2.97885 0
M  V30 3175 S 295.721 -4.6466 -2.66179 0
M  V30 3176 C 296.877 -4.75793 -4.06659 0
M  V30 3177 H 297.11 -2.68319 -1.28033 0
M  V30 3178 H 294.643 -1.44051 -0.555764 0
M  V30 3179 H 296.601 -1.88679 -3.64569 0
M  V30 3180 H 295.262 -0.908948 -3.00661 0
M  V30 3181 H 294.455 -3.07648 -3.9921 0
M  V30 3182 H 294.057 -2.97913 -2.26106 0
M  V30 3183 H 296.349 -4.5612 -5.0096 0
M  V30 3184 H 297.292 -5.7786 -4.09247 0
M  V30 3185 H 297.7 -4.04389 -3.93865 0
M  V30 3186 N 297.098 0.621204 -1.44841 0
M  V30 3187 C 298.344 1.3826 -1.48365 0
M  V30 3188 C 298.677 1.93831 -0.119624 0
M  V30 3189 O 297.952 1.74251 0.864111 0
M  V30 3190 C 298.235 2.54058 -2.55199 0
M  V30 3191 C 298.088 2.03772 -4.00995 0
M  V30 3192 C 299.407 3.56225 -2.58442 0
M  V30 3193 H 296.526 0.501374 -0.540179 0
M  V30 3194 H 299.168 0.7015 -1.76576 0
M  V30 3195 H 297.318 3.12162 -2.31274 0
M  V30 3196 H 298.99 1.50423 -4.36086 0
M  V30 3197 H 297.233 1.34876 -4.12299 0
M  V30 3198 H 297.904 2.87185 -4.71411 0
M  V30 3199 H 300.38 3.07939 -2.79844 0
M  V30 3200 H 299.256 4.34756 -3.3508 0
M  V30 3201 H 299.517 4.10949 -1.63013 0
M  V30 3202 N 298.576 1.31904 0.862503 0
M  V30 3203 C 299.523 1.20182 1.9704 0
M  V30 3204 C 300.493 0.0858247 1.65878 0
M  V30 3205 O 301.678 0.26 1.8902 0
M  V30 3206 C 298.818 0.922797 3.32533 0
M  V30 3207 C 297.931 2.12284 3.76244 0
M  V30 3208 C 297.066 1.77996 5.00491 0
M  V30 3209 C 296.105 2.94366 5.36671 0
M  V30 3210 N 295.242 2.60223 6.52095 0
M  V30 3211 H 300.082 2.14951 2.06398 0
M  V30 3212 H 297.619 1.06917 1.01031 0
M  V30 3213 H 299.577 0.741548 4.10557 0
M  V30 3214 H 298.207 0.0119227 3.22798 0
M  V30 3215 H 297.259 2.41461 2.9394 0
M  V30 3216 H 298.571 2.99357 3.98982 0
M  V30 3217 H 297.725 1.56377 5.862 0
M  V30 3218 H 296.464 0.881252 4.79672 0
M  V30 3219 H 295.469 3.16625 4.49476 0
M  V30 3220 H 296.694 3.84957 5.59451 0
M  V30 3221 H 294.64 1.72884 6.32809 0
M  V30 3222 H 294.557 3.40827 6.74814 0
M  V30 3223 H 295.825 2.42016 7.40978 0
M  V30 3224 N 300.054 -1.07777 1.14986 0
M  V30 3225 C 301.284 -1.83752 0.944402 0
M  V30 3226 C 301.692 -1.8218 -0.51058 0
M  V30 3227 O 301.035 -1.22852 -1.36576 0
M  V30 3228 C 301.097 -3.32128 1.37592 0
M  V30 3229 C 300.761 -3.57425 2.84775 0
M  V30 3230 C 301.758 -3.5173 3.8286 0
M  V30 3231 C 299.443 -3.8523 3.2234 0
M  V30 3232 C 301.437 -3.73482 5.16517 0
M  V30 3233 C 299.124 -4.06634 4.56171 0
M  V30 3234 C 300.122 -4.00754 5.53069 0
M  V30 3235 O 299.81 -4.2159 6.84483 0
M  V30 3236 H 299.542 -0.58673 0.335744 0
M  V30 3237 H 302.096 -1.36982 1.53052 0
M  V30 3238 H 300.326 -3.79686 0.733165 0
M  V30 3239 H 302.015 -3.89555 1.14024 0
M  V30 3240 H 302.781 -3.30256 3.55184 0
M  V30 3241 H 298.66 -3.88923 2.47508 0
M  V30 3242 H 302.204 -3.68808 5.92137 0
M  V30 3243 H 298.101 -4.27593 4.83564 0
M  V30 3244 H 298.869 -4.38961 6.90837 0
M  V30 3245 N 301.532 -0.945985 -1.26051 0
M  V30 3246 C 302.482 -0.430164 -2.23905 0
M  V30 3247 C 303.466 0.47579 -1.53704 0
M  V30 3248 O 304.658 0.310252 -1.7426 0
M  V30 3249 C 301.787 0.298957 -3.41996 0
M  V30 3250 C 300.873 -0.624566 -4.19476 0
M  V30 3251 N 301.264 -1.75245 -4.74471 0
M  V30 3252 C 299.562 -0.431082 -4.43912 0
M  V30 3253 C 300.263 -2.32834 -5.3307 0
M  V30 3254 N 299.239 -1.61583 -5.1903 0
M  V30 3255 H 303.041 -1.29107 -2.64024 0
M  V30 3256 H 300.555 -0.802428 -1.41191 0
M  V30 3257 H 302.552 0.685565 -4.11225 0
M  V30 3258 H 301.212 1.15657 -3.03403 0
M  V30 3259 H 302.223 -2.13449 -4.71868 0
M  V30 3260 H 298.9 0.384364 -4.15727 0
M  V30 3261 H 300.29 -3.27893 -5.86461 0
M  V30 3262 N 303.011 1.40521 -0.713556 0
M  V30 3263 C 303.961 2.27971 -0.036165 0
M  V30 3264 C 304.945 1.43151 0.734623 0
M  V30 3265 O 306.137 1.66261 0.607158 0
M  V30 3266 C 303.266 3.31661 0.886331 0
M  V30 3267 C 302.352 4.23955 0.110836 0
M  V30 3268 N 302.743 4.97641 -0.904847 0
M  V30 3269 C 301.041 4.44674 0.343692 0
M  V30 3270 C 301.742 5.65322 -1.37064 0
M  V30 3271 N 300.718 5.39162 -0.693168 0
M  V30 3272 H 304.52 2.82384 -0.814645 0
M  V30 3273 H 302.034 1.52948 -0.545963 0
M  V30 3274 H 304.031 3.93154 1.38692 0
M  V30 3275 H 302.691 2.78808 1.66421 0
M  V30 3276 H 303.702 5.01689 -1.28563 0
M  V30 3277 H 300.379 4.02801 1.09805 0
M  V30 3278 H 301.769 6.34359 -2.21447 0
M  V30 3279 N 304.489 0.459591 1.5075 0
M  V30 3280 C 305.729 -0.09824 2.04164 0
M  V30 3281 C 306.093 -1.3801 1.33481 0
M  V30 3282 O 307.294 -2.01959 1.77387 0
M  V30 3283 C 305.565 -0.289467 3.56226 0
M  V30 3284 S 307.124 -0.807507 4.31306 0
M  V30 3285 H 303.942 -0.0213845 0.710678 0
M  V30 3286 H 306.544 0.624098 1.85271 0
M  V30 3287 H 305.248 0.649461 4.05229 0
M  V30 3288 H 304.779 -1.03825 3.79452 0
M  V30 3289 H 306.794 -2.0824 4.50389 0
M  V30 3290 N 305.967 -1.56429 0.191757 0
M  V30 3291 C 307.383 -1.58754 -0.164137 0
M  V30 3292 C 307.583 -1.20782 -1.61288 0
M  V30 3293 O 306.639 -0.928999 -2.34789 0
M  V30 3294 C 307.952 -3.00396 0.135195 0
M  V30 3295 C 309.5 -3.1291 0.0750351 0
M  V30 3296 C 309.975 -4.56679 0.347632 0
M  V30 3297 N 311.466 -4.62252 0.296131 0
M  V30 3298 C 312.201 -5.71379 0.480948 0
M  V30 3299 N 311.697 -6.88986 0.725933 0
M  V30 3300 N 313.49 -5.60563 0.415435 0
M  V30 3301 H 305.641 -1.79393 1.13718 0
M  V30 3302 H 307.904 -0.832414 0.453643 0
M  V30 3303 H 307.61 -3.32726 1.13958 0
M  V30 3304 H 307.484 -3.72963 -0.563773 0
M  V30 3305 H 309.871 -2.80394 -0.919948 0
M  V30 3306 H 309.952 -2.42736 0.807029 0
M  V30 3307 H 309.596 -4.89907 1.33992 0
M  V30 3308 H 309.526 -5.25039 -0.405212 0
M  V30 3309 H 312.017 -3.7773 0.113259 0
M  V30 3310 H 312.33 -7.68046 0.855857 0
M  V30 3311 H 310.675 -6.90801 0.762788 0
M  V30 3312 H 313.866 -4.67561 0.224486 0
M  V30 3313 H 314.039 -6.45551 0.562889 0
M  V30 3314 N 307.445 0.0818655 -1.57387 0
M  V30 3315 C 308.722 0.815343 -1.77796 0
M  V30 3316 C 309.102 1.96289 -0.77679 0
M  V30 3317 O 308.45 2.27691 0.192106 0
M  V30 3318 C 308.66 1.29765 -3.23978 0
M  V30 3319 C 310.008 1.7351 -3.8753 0
M  V30 3320 O 311.032 1.39356 -3.27808 0
M  V30 3321 O 309.891 2.36708 -4.92576 0
M  V30 3322 H 306.985 0.389914 -0.729312 0
M  V30 3323 H 309.531 0.0627213 -1.69584 0
M  V30 3324 H 308.303 0.47608 -3.88393 0
M  V30 3325 H 307.926 2.11189 -3.36875 0
M  V30 3326 N 308.923 1.53595 0.353017 0
M  V30 3327 C 310.169 1.70638 1.09593 0
M  V30 3328 C 310.502 0.463286 1.88593 0
M  V30 3329 O 309.777 -0.539597 1.86865 0
M  V30 3330 C 310.06 2.96406 2.04489 0
M  V30 3331 C 309.913 4.30901 1.29014 0
M  V30 3332 C 311.232 3.17812 3.0444 0
M  V30 3333 H 308.351 0.620913 0.397034 0
M  V30 3334 H 310.993 1.86254 0.375446 0
M  V30 3335 H 309.143 2.83223 2.65927 0
M  V30 3336 H 310.815 4.55917 0.702638 0
M  V30 3337 H 309.058 4.29741 0.592071 0
M  V30 3338 H 309.729 5.1506 1.98537 0
M  V30 3339 H 312.205 3.30263 2.53112 0
M  V30 3340 H 311.081 4.07223 3.6805 0
M  V30 3341 H 311.342 2.33669 3.75301 0
M  V30 3342 N 310.401 -0.613514 1.45168 0
M  V30 3343 C 311.812 -1.19539 1.43413 0
M  V30 3344 C 312.163 -1.95558 0.158632 0
M  V30 3345 O 311.288 -2.0335 -0.740119 0
M  V30 3346 C 311.883 -2.17445 2.59813 0
M  V30 3347 C 310.442 -2.71022 2.61197 0
M  V30 3348 C 309.589 -1.46323 2.35552 0
M  V30 3349 H 312.54 -0.403163 1.53494 0
M  V30 3350 H 312.561 -3.00373 2.33574 0
M  V30 3351 H 312.073 -1.62089 3.52631 0
M  V30 3352 H 310.174 -3.30332 1.7237 0
M  V30 3353 H 310.287 -3.15859 3.60236 0
M  V30 3354 H 308.651 -1.75072 1.84992 0
M  V30 3355 H 309.434 -0.92844 3.30507 0
M  V30 3356 N 311.879 -1.3236 -0.855495 0
M  V30 3357 C 312.809 -1.23833 -1.97958 0
M  V30 3358 C 313.79 -0.122361 -1.69659 0
M  V30 3359 O 314.975 -0.30939 -1.9172 0
M  V30 3360 C 312.105 -0.959772 -3.33775 0
M  V30 3361 C 311.059 -2.03689 -3.76424 0
M  V30 3362 C 310.385 -1.61075 -5.09862 0
M  V30 3363 C 311.685 -3.4518 -3.9198 0
M  V30 3364 H 313.379 -2.1788 -2.0535 0
M  V30 3365 H 310.925 -1.04891 -0.986605 0
M  V30 3366 H 312.878 -0.886678 -4.11966 0
M  V30 3367 H 311.602 0.0163404 -3.26596 0
M  V30 3368 H 310.261 -2.10012 -3.00484 0
M  V30 3369 H 309.909 -0.622107 -4.99138 0
M  V30 3370 H 309.609 -2.33143 -5.39368 0
M  V30 3371 H 311.133 -1.55201 -5.90546 0
M  V30 3372 H 312.547 -3.4145 -4.60526 0
M  V30 3373 H 310.944 -4.1559 -4.32903 0
M  V30 3374 H 312.014 -3.84903 -2.94919 0
M  V30 3375 N 313.357 1.07166 -1.15556 0
M  V30 3376 C 314.307 2.12649 -0.82247 0
M  V30 3377 C 315.291 1.59725 0.194129 0
M  V30 3378 O 316.483 1.76999 -0.00540402 0
M  V30 3379 C 313.612 3.41847 -0.315572 0
M  V30 3380 C 312.698 4.0162 -1.36244 0
M  V30 3381 N 313.089 4.35625 -2.5703 0
M  V30 3382 C 311.387 4.29114 -1.21562 0
M  V30 3383 C 312.088 4.83017 -3.24144 0
M  V30 3384 N 311.064 4.81906 -2.51531 0
M  V30 3385 H 314.866 2.36776 -1.74111 0
M  V30 3386 H 312.38 1.24622 -1.0413 0
M  V30 3387 H 314.377 4.16859 -0.0585855 0
M  V30 3388 H 313.037 3.19163 0.597105 0
M  V30 3389 H 314.048 4.26253 -2.94158 0
M  V30 3390 H 310.725 4.15919 -0.362988 0
M  V30 3391 H 312.115 5.18605 -4.27198 0
M  V30 3392 N 314.835 0.952656 1.25548 0
M  V30 3393 C 315.798 0.475794 2.24207 0
M  V30 3394 C 316.798 -0.419428 1.55234 0
M  V30 3395 O 317.988 -0.216994 1.72843 0
M  V30 3396 C 315.12 -0.312814 3.39462 0
M  V30 3397 H 316.313 1.34779 2.67908 0
M  V30 3398 H 313.866 0.735739 1.37901 0
M  V30 3399 H 314.601 -1.20257 3.01179 0
M  V30 3400 H 314.386 0.329404 3.90714 0
M  V30 3401 H 315.876 -0.635986 4.12729 0
M  V30 3402 N 316.313 -1.40141 0.720998 0
M  V30 3403 C 317.243 -2.33339 0.0867621 0
M  V30 3404 C 318.224 -1.53178 -0.739622 0
M  V30 3405 O 319.409 -1.81625 -0.687449 0
M  V30 3406 C 316.539 -3.37194 -0.831728 0
M  V30 3407 C 315.493 -4.27857 -0.110558 0
M  V30 3408 C 314.819 -5.22294 -1.14513 0
M  V30 3409 C 316.119 -5.11872 1.0385 0
M  V30 3410 H 317.813 -2.86626 0.865219 0
M  V30 3411 H 315.359 -1.37814 0.417516 0
M  V30 3412 H 317.312 -4.01335 -1.28485 0
M  V30 3413 H 316.036 -2.82314 -1.64214 0
M  V30 3414 H 314.695 -3.65176 0.322797 0
M  V30 3415 H 314.343 -4.63717 -1.94874 0
M  V30 3416 H 314.043 -5.83797 -0.667446 0
M  V30 3417 H 315.567 -5.89312 -1.59824 0
M  V30 3418 H 316.981 -5.69436 0.664482 0
M  V30 3419 H 315.378 -5.82445 1.4449 0
M  V30 3420 H 316.448 -4.4753 1.86668 0
M  V30 3421 N 317.792 -0.46758 -1.50504 0
M  V30 3422 C 319.022 0.086288 -2.0642 0
M  V30 3423 C 319.43 1.34369 -1.33197 0
M  V30 3424 O 318.773 1.79431 -0.393747 0
M  V30 3425 C 318.835 0.443846 -3.5675 0
M  V30 3426 C 318.499 -0.711035 -4.51435 0
M  V30 3427 C 319.496 -1.59205 -4.94924 0
M  V30 3428 C 317.181 -0.900363 -4.94165 0
M  V30 3429 C 319.175 -2.64683 -5.79846 0
M  V30 3430 C 316.862 -1.95837 -5.7887 0
M  V30 3431 C 317.86 -2.82997 -6.21612 0
M  V30 3432 O 317.548 -3.86977 -7.0463 0
M  V30 3433 H 317.28 -0.00217814 -0.675996 0
M  V30 3434 H 319.834 -0.654346 -1.94698 0
M  V30 3435 H 318.064 1.23762 -3.6636 0
M  V30 3436 H 319.753 0.932386 -3.95046 0
M  V30 3437 H 320.519 -1.45745 -4.62583 0
M  V30 3438 H 316.398 -0.231427 -4.60419 0
M  V30 3439 H 319.942 -3.32745 -6.13128 0
M  V30 3440 H 315.839 -2.09305 -6.10624 0
M  V30 3441 H 316.607 -3.83923 -7.22873 0
M  V30 3442 N 319.27 1.56325 -0.20005 0
M  V30 3443 C 320.547 1.89484 0.48529 0
M  V30 3444 C 320.927 1.1143 1.79294 0
M  V30 3445 O 320.275 0.216919 2.27468 0
M  V30 3446 C 320.485 3.41923 0.699243 0
M  V30 3447 C 321.833 4.12256 1.01638 0
M  V30 3448 O 322.857 3.47402 0.786792 0
M  V30 3449 O 321.716 5.26887 1.45095 0
M  V30 3450 H 318.81 0.787144 0.253639 0
M  V30 3451 H 321.356 1.67985 -0.240633 0
M  V30 3452 H 320.128 3.90658 -0.224008 0
M  V30 3453 H 319.751 3.69131 1.47744 0
M  V30 3454 N 320.748 -0.0735177 1.57428 0
M  V30 3455 C 321.696 -1.10628 2.04607 0
M  V30 3456 C 322.69 -1.40181 0.951088 0
M  V30 3457 O 323.896 -1.39608 1.1362 0
M  V30 3458 H 320.271 -0.374088 0.652351 0
M  V30 3459 H 322.242 -0.682218 2.90497 0
M  V30 3460 C 320.991 -2.41212 2.50423 0
M  V30 3461 H 320.314 -2.19322 3.34272 0
M  V30 3462 H 321.754 -3.11927 2.87189 0
M  V30 3463 C 320.213 -3.0705 1.38644 0
M  V30 3464 O 320.743 -3.95056 0.727582 0
M  V30 3465 N 318.949 -2.67645 1.132 0
M  V30 3466 H 318.496 -1.96169 1.66959 0
M  V30 3467 H 318.454 -3.1202 0.386147 0
M  V30 3468 N 322.226 -1.5378 -0.344866 0
M  V30 3469 C 323.472 -1.71216 -1.08687 0
M  V30 3470 C 323.805 -0.473281 -1.88345 0
M  V30 3471 O 323.08 0.52968 -1.87149 0
M  V30 3472 C 323.363 -2.97486 -2.02914 0
M  V30 3473 C 323.216 -4.31579 -1.26727 0
M  V30 3474 C 324.535 -3.19422 -3.0275 0
M  V30 3475 H 321.654 -0.62301 -0.393735 0
M  V30 3476 H 324.296 -1.8645 -0.365563 0
M  V30 3477 H 322.446 -2.84629 -2.64421 0
M  V30 3478 H 324.118 -4.56284 -0.67845 0
M  V30 3479 H 322.361 -4.30049 -0.569273 0
M  V30 3480 H 323.032 -5.16106 -1.95803 0
M  V30 3481 H 325.508 -3.316 -2.51357 0
M  V30 3482 H 324.384 -4.09169 -3.65885 0
M  V30 3483 H 324.645 -2.35656 -3.74057 0
M  V30 3484 N 323.704 0.605807 -1.45491 0
M  V30 3485 C 324.614 1.74466 -1.56839 0
M  V30 3486 C 325.63 1.68006 -0.452772 0
M  V30 3487 O 326.806 1.8833 -0.713708 0
M  V30 3488 C 323.871 3.10931 -1.53371 0
M  V30 3489 C 322.932 3.28832 -2.75986 0
M  V30 3490 C 322.165 4.58787 -2.72673 0
M  V30 3491 O 322.388 5.4122 -1.80102 0
M  V30 3492 O 321.322 4.79438 -3.63899 0
M  V30 3493 H 325.148 1.67843 -2.53106 0
M  V30 3494 H 322.733 0.770108 -1.28022 0
M  V30 3495 H 324.615 3.92233 -1.54051 0
M  V30 3496 H 323.29 3.18042 -0.602572 0
M  V30 3497 H 322.197 2.47112 -2.80867 0
M  V30 3498 H 323.53 3.26599 -3.68231 0
M  V30 3499 N 325.182 1.32811 0.848464 0
M  V30 3500 C 326.129 1.22265 1.95755 0
M  V30 3501 C 327.099 0.103413 1.65778 0
M  V30 3502 O 328.284 0.280033 1.88734 0
M  V30 3503 C 325.424 0.958014 3.31536 0
M  V30 3504 C 324.537 2.16262 3.73971 0
M  V30 3505 C 323.672 1.83295 4.98575 0
M  V30 3506 C 322.711 3.00041 5.33518 0
M  V30 3507 N 321.848 2.67125 6.49299 0
M  V30 3508 H 326.688 2.17128 2.04107 0
M  V30 3509 H 324.225 1.07982 0.998913 0
M  V30 3510 H 326.183 0.785052 4.09747 0
M  V30 3511 H 324.813 0.046159 3.22767 0
M  V30 3512 H 323.865 2.44565 2.91362 0
M  V30 3513 H 325.177 3.03572 3.95785 0
M  V30 3514 H 324.331 1.62586 5.84509 0
M  V30 3515 H 323.07 0.932078 4.7871 0
M  V30 3516 H 322.075 3.21374 4.46093 0
M  V30 3517 H 323.3 3.90869 5.55336 0
M  V30 3518 H 321.246 1.79586 6.3094 0
M  V30 3519 H 321.163 3.47965 6.71161 0
M  V30 3520 H 322.431 2.49861 7.3837 0
M  V30 3521 N 326.66 -1.06551 1.16123 0
M  V30 3522 C 327.59 -2.15935 0.88851 0
M  V30 3523 C 328.571 -1.69306 -0.164135 0
M  V30 3524 O 329.756 -1.94193 -0.0167857 0
M  V30 3525 C 326.886 -3.45149 0.385942 0
M  V30 3526 C 325.84 -4.05271 1.3762 0
M  V30 3527 C 325.166 -5.29664 0.732137 0
M  V30 3528 C 326.466 -4.44355 2.74493 0
M  V30 3529 H 328.16 -2.39006 1.80323 0
M  V30 3530 H 325.706 -1.14866 0.868435 0
M  V30 3531 H 327.659 -4.21004 0.182647 0
M  V30 3532 H 326.383 -3.21689 -0.564274 0
M  V30 3533 H 325.042 -3.3147 1.56599 0
M  V30 3534 H 324.69 -5.02499 -0.224483 0
M  V30 3535 H 324.39 -5.70848 1.39307 0
M  V30 3536 H 325.914 -6.08218 0.538802 0
M  V30 3537 H 327.328 -5.11303 2.59311 0
M  V30 3538 H 325.725 -4.96515 3.37035 0
M  V30 3539 H 326.795 -3.55339 3.29943 0
M  V30 3540 N 328.138 -0.959301 -1.25041 0
M  V30 3541 C 329.385 -0.616611 -1.92884 0
M  V30 3542 C 329.713 0.847036 -1.75087 0
M  V30 3543 O 328.968 1.62374 -1.09239 0
M  V30 3544 C 329.267 -0.927136 -3.45165 0
M  V30 3545 C 328.933 -2.37757 -3.83122 0
M  V30 3546 C 327.595 -2.77402 -3.93194 0
M  V30 3547 C 329.947 -3.31929 -4.01836 0
M  V30 3548 C 327.275 -4.10277 -4.19392 0
M  V30 3549 C 329.627 -4.64423 -4.29528 0
M  V30 3550 C 328.291 -5.03857 -4.37818 0
M  V30 3551 H 327.561 -0.225634 -0.705812 0
M  V30 3552 H 330.208 -1.20921 -1.48493 0
M  V30 3553 H 328.513 -0.252195 -3.90987 0
M  V30 3554 H 330.21 -0.6405 -3.95852 0
M  V30 3555 H 326.8 -2.06013 -3.75841 0
M  V30 3556 H 330.984 -3.02488 -3.93465 0
M  V30 3557 H 326.24 -4.40467 -4.24027 0
M  V30 3558 H 330.414 -5.37369 -4.42953 0
M  V30 3559 H 328.041 -6.06843 -4.57871 0
M  V30 3560 N 329.616 1.39756 -0.72842 0
M  V30 3561 C 331.027 1.83498 -0.344289 0
M  V30 3562 C 331.378 1.60868 1.12321 0
M  V30 3563 O 330.503 1.09634 1.86573 0
M  V30 3564 C 331.098 3.33114 -0.618112 0
M  V30 3565 C 329.657 3.753 -0.287549 0
M  V30 3566 C 328.804 2.62831 -0.884048 0
M  V30 3567 H 331.755 1.28842 -0.926578 0
M  V30 3568 H 331.776 3.80334 0.112349 0
M  V30 3569 H 331.288 3.49553 -1.68625 0
M  V30 3570 H 329.389 3.64451 0.775012 0
M  V30 3571 H 329.502 4.72945 -0.765512 0
M  V30 3572 H 327.866 2.52792 -0.311149 0
M  V30 3573 H 328.649 2.82078 -1.95671 0
M  V30 3574 N 331.094 0.475555 1.50254 0
M  V30 3575 C 332.342 -0.077738 2.0195 0
M  V30 3576 C 332.663 -1.39813 1.35931 0
M  V30 3577 O 331.933 -1.89249 0.506123 0
M  V30 3578 H 330.513 -0.031719 0.746326 0
M  V30 3579 H 333.175 0.626995 1.84539 0
M  V30 3580 H 332.271 -0.225995 3.11281 0
M  V30 3581 N 332.573 -1.56217 0.208337 0
M  V30 3582 C 333.82 -1.97949 -0.42692 0
M  V30 3583 C 334.148 -1.09562 -1.60706 0
M  V30 3584 O 333.403 -0.137616 -1.95216 0
M  V30 3585 C 333.702 -3.45441 -0.916797 0
M  V30 3586 C 333.368 -4.50646 0.151391 0
M  V30 3587 C 332.03 -4.79139 0.444867 0
M  V30 3588 C 334.382 -5.13811 0.874492 0
M  V30 3589 C 331.71 -5.68084 1.46619 0
M  V30 3590 C 334.062 -6.03861 1.88506 0
M  V30 3591 C 332.726 -6.30704 2.18559 0
M  V30 3592 H 331.996 -0.724345 -0.156221 0
M  V30 3593 H 334.643 -1.89006 0.308084 0
M  V30 3594 H 332.948 -3.51521 -1.73032 0
M  V30 3595 H 334.645 -3.75094 -1.41794 0
M  V30 3596 H 331.235 -4.28511 -0.0875068 0
M  V30 3597 H 335.419 -4.91879 0.660996 0
M  V30 3598 H 330.675 -5.87151 1.7048 0
M  V30 3599 H 334.849 -6.51861 2.45051 0
M  V30 3600 H 332.476 -6.99424 2.97843 0
M  V30 3601 N 334.051 0.0651679 -1.57465 0
M  V30 3602 C 334.961 1.09448 -2.07505 0
M  V30 3603 C 335.977 1.41974 -1.00595 0
M  V30 3604 O 337.153 1.52018 -1.32107 0
M  V30 3605 C 334.218 2.38689 -2.51453 0
M  V30 3606 C 333.279 2.13073 -3.72691 0
M  V30 3607 C 332.512 3.36152 -4.14533 0
M  V30 3608 O 332.735 4.45517 -3.56189 0
M  V30 3609 O 331.669 3.23974 -5.07272 0
M  V30 3610 H 335.495 0.69935 -2.95538 0
M  V30 3611 H 333.08 0.279752 -1.46757 0
M  V30 3612 H 334.962 3.14736 -2.80212 0
M  V30 3613 H 333.637 2.77568 -1.66546 0
M  V30 3614 H 332.544 1.34709 -3.49005 0
M  V30 3615 H 333.877 1.79071 -4.5847 0
M  V30 3616 N 335.529 1.53961 0.336706 0
M  V30 3617 C 336.778 1.70751 1.07363 0
M  V30 3618 C 337.091 0.481061 1.89592 0
M  V30 3619 O 338.297 0.530046 2.66276 0
M  V30 3620 C 336.753 3.01965 1.95818 0
M  V30 3621 C 336.361 4.31971 1.18764 0
M  V30 3622 C 338.105 3.28121 2.69327 0
M  V30 3623 C 336.012 5.54255 2.06289 0
M  V30 3624 H 334.942 0.636292 0.404535 0
M  V30 3625 H 337.593 1.80459 0.332681 0
M  V30 3626 H 335.975 2.86132 2.7376 0
M  V30 3627 H 337.149 4.5853 0.456849 0
M  V30 3628 H 335.464 4.12481 0.569946 0
M  V30 3629 H 338.061 4.16673 3.35094 0
M  V30 3630 H 338.404 2.45426 3.36261 0
M  V30 3631 H 338.937 3.44762 1.98454 0
M  V30 3632 H 335.676 6.39513 1.43885 0
M  V30 3633 H 335.196 5.31935 2.77138 0
M  V30 3634 H 336.875 5.90159 2.65182 0
M  V30 3635 N 337.007 -0.598083 1.45811 0
M  V30 3636 C 337.917 -1.73632 1.57763 0
M  V30 3637 C 338.933 -1.67763 0.461676 0
M  V30 3638 O 340.109 -1.87949 0.723685 0
M  V30 3639 C 337.174 -3.10114 1.55018 0
M  V30 3640 C 336.235 -3.27364 2.77726 0
M  V30 3641 C 335.468 -4.57334 2.75102 0
M  V30 3642 O 335.691 -5.40258 1.8297 0
M  V30 3643 O 334.625 -4.77502 3.66437 0
M  V30 3644 H 338.451 -1.66498 2.53992 0
M  V30 3645 H 336.036 -0.763308 1.28429 0
M  V30 3646 H 337.918 -3.9141 1.56129 0
M  V30 3647 H 336.593 -3.17718 0.619431 0
M  V30 3648 H 335.5 -2.45619 2.82174 0
M  V30 3649 H 336.833 -3.24641 3.69958 0
M  V30 3650 N 338.485 -1.33259 -0.841409 0
M  V30 3651 C 339.713 -1.27605 -1.62864 0
M  V30 3652 C 340.128 0.153507 -1.88175 0
M  V30 3653 O 339.485 1.09485 -1.46011 0
M  V30 3654 C 339.536 -2.04596 -2.98031 0
M  V30 3655 O 339.257 -3.41975 -2.73834 0
M  V30 3656 C 340.758 -2.06122 -3.92465 0
M  V30 3657 H 337.978 -0.439718 -0.506842 0
M  V30 3658 H 340.522 -1.75591 -1.04824 0
M  V30 3659 H 338.677 -1.60299 -3.5268 0
M  V30 3660 H 339.091 -3.81549 -3.59889 0
M  V30 3661 H 340.565 -2.64451 -4.84531 0
M  V30 3662 H 341.042 -1.05083 -4.26444 0
M  V30 3663 H 341.648 -2.50427 -3.43753 0
M  V30 3664 N 339.963 1.05934 -1.16686 0
M  V30 3665 C 341.209 1.79065 -0.95203 0
M  V30 3666 C 341.542 1.87147 0.518629 0
M  V30 3667 O 340.817 1.36574 1.38484 0
M  V30 3668 C 341.1 3.23359 -1.58464 0
M  V30 3669 C 340.953 3.23336 -3.12689 0
M  V30 3670 C 342.272 4.21004 -1.28232 0
M  V30 3671 H 339.391 0.65005 -0.34728 0
M  V30 3672 H 342.033 1.23868 -1.44072 0
M  V30 3673 H 340.183 3.70493 -1.16908 0
M  V30 3674 H 341.855 2.84336 -3.6325 0
M  V30 3675 H 340.098 2.61886 -3.4583 0
M  V30 3676 H 340.769 4.25144 -3.52075 0
M  V30 3677 H 343.245 3.8233 -1.64203 0
M  V30 3678 H 342.121 5.20225 -1.75092 0
M  V30 3679 H 342.382 4.41639 -0.201791 0
M  V30 3680 N 341.441 0.965919 1.2453 0
M  V30 3681 C 342.388 0.49402 2.25451 0
M  V30 3682 C 343.358 -0.45948 1.59618 0
M  V30 3683 O 344.543 -0.370238 1.87173 0
M  V30 3684 C 341.683 -0.211359 3.44452 0
M  V30 3685 C 340.796 0.7807 4.24887 0
M  V30 3686 C 339.931 0.0516105 5.31175 0
M  V30 3687 C 338.97 1.03385 6.03306 0
M  V30 3688 N 338.107 0.334887 7.01301 0
M  V30 3689 H 342.947 1.35946 2.65184 0
M  V30 3690 H 340.484 0.681515 1.3036 0
M  V30 3691 H 342.442 -0.637 4.12308 0
M  V30 3692 H 341.072 -1.04077 3.05562 0
M  V30 3693 H 340.124 1.32479 3.56586 0
M  V30 3694 H 341.436 1.52978 4.74762 0
M  V30 3695 H 340.59 -0.432114 6.05159 0
M  V30 3696 H 339.329 -0.730179 4.82203 0
M  V30 3697 H 338.334 1.52847 5.28127 0
M  V30 3698 H 339.559 1.81606 6.54367 0
M  V30 3699 H 337.505 -0.427959 6.54603 0
M  V30 3700 H 337.422 1.02287 7.49048 0
M  V30 3701 H 338.69 -0.126928 7.79397 0
M  V30 3702 N 342.919 -1.39368 0.735821 0
M  V30 3703 C 343.867 -2.32443 0.0855131 0
M  V30 3704 C 344.861 -1.53104 -0.724954 0
M  V30 3705 O 346.067 -1.68762 -0.626047 0
M  V30 3706 H 342.442 -0.751948 0.00885257 0
M  V30 3707 H 344.413 -2.84916 0.886883 0
M  V30 3708 C 343.162 -3.38206 -0.806983 0
M  V30 3709 H 342.485 -3.99335 -0.19274 0
M  V30 3710 H 343.925 -4.05779 -1.2296 0
M  V30 3711 C 342.384 -2.75321 -1.94165 0
M  V30 3712 O 342.914 -2.63231 -3.03435 0
M  V30 3713 N 341.12 -2.33396 -1.73132 0
M  V30 3714 H 340.667 -2.4343 -0.842596 0
M  V30 3715 H 340.625 -1.91661 -2.49225 0
M  V30 3716 N 344.397 -0.483516 -1.5 0
M  V30 3717 C 345.345 0.318061 -2.30415 0
M  V30 3718 C 346.339 0.978988 -1.38247 0
M  V30 3719 O 347.545 0.908673 -1.55381 0
M  V30 3720 H 343.92 0.121419 -0.742133 0
M  V30 3721 H 345.891 -0.380403 -2.95965 0
M  V30 3722 C 344.64 1.38013 -3.19136 0
M  V30 3723 H 343.963 0.880952 -3.89973 0
M  V30 3724 H 345.403 1.91332 -3.78375 0
M  V30 3725 C 343.862 2.38884 -2.37563 0
M  V30 3726 O 344.392 3.44412 -2.06744 0
M  V30 3727 N 342.598 2.10912 -1.99911 0
M  V30 3728 H 342.145 1.25118 -2.25174 0
M  V30 3729 H 342.103 2.78635 -1.45636 0
M  V30 3730 N 345.875 1.56104 -0.216619 0
M  V30 3731 C 346.805 2.23063 0.690296 0
M  V30 3732 C 347.786 1.20072 1.20485 0
M  V30 3733 O 348.971 1.48643 1.24976 0
M  V30 3734 C 346.101 2.90672 1.90072 0
M  V30 3735 C 345.055 4.00092 1.5202 0
M  V30 3736 C 344.381 4.54972 2.80899 0
M  V30 3737 C 345.681 5.17398 0.71391 0
M  V30 3738 H 347.375 2.99109 0.132038 0
M  V30 3739 H 344.921 1.43866 0.0620664 0
M  V30 3740 H 346.874 3.36204 2.54057 0
M  V30 3741 H 345.598 2.12066 2.48386 0
M  V30 3742 H 344.257 3.55283 0.903839 0
M  V30 3743 H 343.905 3.73102 3.37348 0
M  V30 3744 H 343.605 5.28817 2.56176 0
M  V30 3745 H 345.129 5.0322 3.45836 0
M  V30 3746 H 346.543 5.59342 1.25735 0
M  V30 3747 H 344.94 5.97444 0.563951 0
M  V30 3748 H 346.01 4.84088 -0.280527 0
M  V30 3749 N 347.353 -0.0568162 1.57498 0
M  V30 3750 C 348.769 -0.411933 1.54192 0
M  V30 3751 C 348.969 -1.78287 0.938942 0
M  V30 3752 O 348.025 -2.46483 0.547919 0
M  V30 3753 C 349.338 -0.339244 2.9878 0
M  V30 3754 C 350.886 -0.418348 3.10192 0
M  V30 3755 C 351.361 -0.375407 4.56459 0
M  V30 3756 N 352.852 -0.435038 4.61153 0
M  V30 3757 C 353.587 -0.424265 5.71828 0
M  V30 3758 N 353.083 -0.367418 6.91825 0
M  V30 3759 N 354.876 -0.471938 5.60115 0
M  V30 3760 H 347.027 0.840684 1.95055 0
M  V30 3761 H 349.29 0.316987 0.893433 0
M  V30 3762 H 348.996 0.601742 3.46514 0
M  V30 3763 H 348.87 -1.14371 3.59443 0
M  V30 3764 H 351.257 -1.34976 2.62422 0
M  V30 3765 H 351.338 0.414962 2.52412 0
M  V30 3766 H 350.982 0.552219 5.04889 0
M  V30 3767 H 350.912 -1.22645 5.12119 0
M  V30 3768 H 353.403 -0.482612 3.74806 0
M  V30 3769 H 353.716 -0.363535 7.71944 0
M  V30 3770 H 352.061 -0.333879 6.94198 0
M  V30 3771 H 355.252 -0.514145 4.65268 0
M  V30 3772 H 355.425 -0.460073 6.46365 0
M  V30 3773 N 348.832 -1.54138 -0.328536 0
M  V30 3774 C 350.081 -1.71318 -1.06456 0
M  V30 3775 C 350.394 -0.491109 -1.89334 0
M  V30 3776 O 351.6 -0.54416 -2.65991 0
M  V30 3777 C 350.056 -3.03 -1.94214 0
M  V30 3778 C 349.664 -4.32595 -1.16471 0
M  V30 3779 C 351.408 -3.29544 -2.67583 0
M  V30 3780 C 349.315 -5.55341 -2.03347 0
M  V30 3781 H 348.245 -0.638429 -0.401155 0
M  V30 3782 H 350.896 -1.80633 -0.323106 0
M  V30 3783 H 349.278 -2.87579 -2.72239 0
M  V30 3784 H 350.452 -4.58766 -0.432525 0
M  V30 3785 H 348.767 -4.12777 -0.548063 0
M  V30 3786 H 351.364 -4.18444 -3.3288 0
M  V30 3787 H 351.707 -2.47206 -3.34955 0
M  V30 3788 H 352.24 -3.45809 -1.96623 0
M  V30 3789 H 348.979 -6.40268 -1.40491 0
M  V30 3790 H 348.499 -5.33397 -2.74313 0
M  V30 3791 H 350.178 -5.91557 -2.62049 0
M  V30 3792 N 350.31 0.590341 -1.46126 0
M  V30 3793 C 351.24 1.71032 -1.58966 0
M  V30 3794 C 352.221 1.64302 -0.440335 0
M  V30 3795 O 353.406 1.82436 -0.665634 0
M  V30 3796 C 350.536 3.09665 -1.57241 0
M  V30 3797 C 349.49 3.31221 -2.71066 0
M  V30 3798 C 348.816 4.70303 -2.54399 0
M  V30 3799 C 350.116 3.19796 -4.1295 0
M  V30 3800 H 351.81 1.60543 -2.52718 0
M  V30 3801 H 349.356 0.770933 -1.21625 0
M  V30 3802 H 351.309 3.87831 -1.64819 0
M  V30 3803 H 350.033 3.21036 -0.600289 0
M  V30 3804 H 348.692 2.55452 -2.62944 0
M  V30 3805 H 348.34 4.78429 -1.55288 0
M  V30 3806 H 348.04 4.85679 -3.30741 0
M  V30 3807 H 349.564 5.50647 -2.63857 0
M  V30 3808 H 350.978 3.87815 -4.22223 0
M  V30 3809 H 349.375 3.46696 -4.89818 0
M  V30 3810 H 350.445 2.16983 -4.33643 0
M  V30 3811 N 351.788 1.33704 0.83433 0
M  V30 3812 C 353.035 1.25417 1.58987 0
M  V30 3813 C 353.363 -0.178869 1.93676 0
M  V30 3814 O 352.618 -1.13723 1.59265 0
M  V30 3815 C 352.917 2.07926 2.90692 0
M  V30 3816 C 352.583 3.57066 2.75345 0
M  V30 3817 C 351.245 3.97724 2.70867 0
M  V30 3818 C 353.597 4.51817 2.59828 0
M  V30 3819 C 350.925 5.31344 2.48778 0
M  V30 3820 C 353.277 5.85604 2.39272 0
M  V30 3821 C 351.941 6.25439 2.33199 0
M  V30 3822 H 351.211 0.458934 0.581774 0
M  V30 3823 H 353.858 1.65335 0.966261 0
M  V30 3824 H 352.163 1.608 3.57282 0
M  V30 3825 H 353.86 1.98868 3.48213 0
M  V30 3826 H 350.45 3.24785 2.79665 0
M  V30 3827 H 354.634 4.21311 2.62319 0
M  V30 3828 H 349.89 5.61241 2.42526 0
M  V30 3829 H 354.064 6.58623 2.2625 0
M  V30 3830 H 351.691 7.28914 2.15843 0
M  V30 3831 N 353.266 -1.05314 1.17247 0
M  V30 3832 C 354.214 -2.15137 0.884238 0
M  V30 3833 C 355.208 -1.68729 -0.15063 0
M  V30 3834 O 356.414 -1.8 -0.00366673 0
M  V30 3835 H 352.789 -0.702471 0.2684 0
M  V30 3836 H 354.76 -2.36652 1.81764 0
M  V30 3837 C 353.509 -3.45243 0.412659 0
M  V30 3838 H 352.832 -3.81352 1.20043 0
M  V30 3839 H 354.272 -4.23263 0.249858 0
M  V30 3840 C 352.731 -3.25487 -0.86948 0
M  V30 3841 O 353.261 -3.51938 -1.93655 0
M  V30 3842 N 351.467 -2.78875 -0.817147 0
M  V30 3843 H 351.014 -2.57549 0.0514211 0
M  V30 3844 H 350.972 -2.66036 -1.67547 0
M  V30 3845 N 354.744 -0.972509 -1.24016 0
M  V30 3846 C 355.692 -0.498562 -2.27194 0
M  V30 3847 C 356.686 0.440372 -1.63576 0
M  V30 3848 O 357.892 0.315133 -1.7722 0
M  V30 3849 H 354.267 -0.142775 -0.738322 0
M  V30 3850 H 356.238 -1.38065 -2.64539 0
M  V30 3851 C 354.987 0.191072 -3.47175 0
M  V30 3852 H 354.31 -0.522318 -3.96373 0
M  V30 3853 H 355.75 0.486445 -4.212 0
M  V30 3854 C 354.209 1.41967 -3.05527 0
M  V30 3855 O 354.739 2.51642 -3.13112 0
M  V30 3856 N 352.945 1.28746 -2.60524 0
M  V30 3857 H 352.492 0.395089 -2.54552 0
M  V30 3858 H 352.45 2.11061 -2.33025 0
M  V30 3859 N 356.222 1.38976 -0.743202 0
M  V30 3860 C 357.185 2.28901 -0.117014 0
M  V30 3861 C 358.185 1.46698 0.658503 0
M  V30 3862 O 359.375 1.67274 0.486305 0
M  V30 3863 C 356.507 3.30309 0.84315 0
M  V30 3864 H 357.7 2.8578 -0.909373 0
M  V30 3865 H 355.253 1.47761 -0.509547 0
M  V30 3866 H 355.988 2.785 1.66157 0
M  V30 3867 H 355.773 3.91029 0.289594 0
M  V30 3868 H 357.263 3.97577 1.2776 0
M  V30 3869 N 357.7 0.491464 1.49741 0
M  V30 3870 C 358.946 -0.0565092 2.02721 0
M  V30 3871 C 359.279 -1.37522 1.37118 0
M  V30 3872 O 358.554 -1.87866 0.503645 0
M  V30 3873 C 358.837 -0.219051 3.59433 0
M  V30 3874 C 358.69 1.12211 4.35579 0
M  V30 3875 C 360.009 -0.964157 4.29409 0
M  V30 3876 H 357.128 -0.0190627 0.736753 0
M  V30 3877 H 359.77 0.641021 1.7886 0
M  V30 3878 H 357.92 -0.813165 3.79895 0
M  V30 3879 H 359.592 1.75437 4.26637 0
M  V30 3880 H 357.835 1.71377 3.98513 0
M  V30 3881 H 358.506 0.961794 5.43556 0
M  V30 3882 H 360.982 -0.460378 4.13545 0
M  V30 3883 H 359.858 -1.04671 5.38828 0
M  V30 3884 H 360.119 -2.00563 3.93988 0
M  V30 3885 N 359.178 -1.55987 0.224894 0
M  V30 3886 C 360.125 -2.20436 -0.68385 0
M  V30 3887 C 361.095 -1.16102 -1.18783 0
M  V30 3888 O 362.28 -1.4447 -1.24632 0
M  V30 3889 C 359.42 -2.89076 -1.88491 0
M  V30 3890 C 358.533 -4.08012 -1.41951 0
M  V30 3891 C 357.668 -4.64426 -2.5784 0
M  V30 3892 C 356.707 -5.75656 -2.08053 0
M  V30 3893 N 355.844 -6.26347 -3.17227 0
M  V30 3894 H 360.684 -2.97727 -0.12754 0
M  V30 3895 H 358.221 -1.47011 -0.0511978 0
M  V30 3896 H 360.179 -3.27059 -2.59014 0
M  V30 3897 H 358.809 -2.14298 -2.41405 0
M  V30 3898 H 357.861 -3.75492 -0.609095 0
M  V30 3899 H 359.173 -4.88375 -1.01447 0
M  V30 3900 H 358.327 -5.04869 -3.3644 0
M  V30 3901 H 357.066 -3.83233 -3.01635 0
M  V30 3902 H 356.071 -5.34712 -1.27916 0
M  V30 3903 H 357.296 -6.58686 -1.65255 0
M  V30 3904 H 355.242 -5.48067 -3.60497 0
M  V30 3905 H 355.159 -7.01843 -2.80986 0
M  V30 3906 H 356.427 -6.71447 -3.95953 0
M  V30 3907 N 360.656 0.0484629 -1.57525 0
M  V30 3908 C 361.603 1.05504 -2.05275 0
M  V30 3909 C 362.573 1.37084 -0.937927 0
M  V30 3910 O 363.758 1.47754 -1.2072 0
M  V30 3911 C 360.898 2.35676 -2.52093 0
M  V30 3912 C 360.011 2.10423 -3.77288 0
M  V30 3913 C 359.146 3.34327 -4.12794 0
M  V30 3914 C 358.185 3.04542 -5.30962 0
M  V30 3915 N 357.322 4.20841 -5.61994 0
M  V30 3916 H 362.162 0.640885 -2.91027 0
M  V30 3917 H 359.699 0.304854 -1.43906 0
M  V30 3918 H 361.657 3.11709 -2.77297 0
M  V30 3919 H 360.287 2.7485 -1.69285 0
M  V30 3920 H 359.339 1.24976 -3.59284 0
M  V30 3921 H 360.651 1.84438 -4.63448 0
M  V30 3922 H 359.805 4.1874 -4.39024 0
M  V30 3923 H 358.544 3.63408 -3.25247 0
M  V30 3924 H 357.549 2.18528 -5.04505 0
M  V30 3925 H 358.774 2.76758 -6.20146 0
M  V30 3926 H 356.72 4.4991 -4.77406 0
M  V30 3927 H 356.637 3.98212 -6.42622 0
M  V30 3928 H 357.905 5.06184 -5.92789 0
M  V30 3929 N 362.134 1.5431 0.320358 0
M  V30 3930 C 363.55 1.45091 0.664889 0
M  V30 3931 C 363.75 0.626382 1.91517 0
M  V30 3932 O 362.806 0.126443 2.52183 0
M  V30 3933 C 364.119 2.88848 0.83591 0
M  V30 3934 C 365.667 2.9877 0.933046 0
M  V30 3935 C 366.142 4.43683 1.13621 0
M  V30 3936 N 367.633 4.47309 1.20287 0
M  V30 3937 C 368.368 5.56595 1.37801 0
M  V30 3938 N 367.864 6.75844 1.52338 0
M  V30 3939 N 369.657 5.44248 1.40535 0
M  V30 3940 H 361.808 2.06398 -0.501374 0
M  V30 3941 H 364.071 0.933963 -0.162534 0
M  V30 3942 H 363.777 3.51698 -0.0116092 0
M  V30 3943 H 363.651 3.35148 1.73078 0
M  V30 3944 H 366.038 2.36045 1.77107 0
M  V30 3945 H 366.119 2.55796 0.0145782 0
M  V30 3946 H 365.763 5.06995 0.303032 0
M  V30 3947 H 365.693 4.84269 2.0686 0
M  V30 3948 H 368.184 3.61388 1.10485 0
M  V30 3949 H 368.497 7.54892 1.65403 0
M  V30 3950 H 366.842 6.78746 1.4943 0
M  V30 3951 H 370.033 4.50038 1.28777 0
M  V30 3952 H 370.206 6.29473 1.53842 0
M  V30 3953 N 363.613 -0.582584 1.46437 0
M  V30 3954 C 364.543 -1.70187 1.59871 0
M  V30 3955 C 365.524 -1.64066 0.449042 0
M  V30 3956 O 366.709 -1.82081 0.6753 0
M  V30 3957 C 363.839 -3.08827 1.58881 0
M  V30 3958 C 362.793 -3.29779 2.72819 0
M  V30 3959 C 362.119 -4.68947 2.5689 0
M  V30 3960 C 363.419 -3.17601 4.1464 0
M  V30 3961 H 365.113 -1.592 2.53566 0
M  V30 3962 H 362.659 -0.764472 1.22032 0
M  V30 3963 H 364.612 -3.86951 1.66873 0
M  V30 3964 H 363.336 -3.20713 0.617306 0
M  V30 3965 H 361.995 -2.54054 2.64296 0
M  V30 3966 H 361.643 -4.77599 1.57823 0
M  V30 3967 H 361.343 -4.83919 3.33312 0
M  V30 3968 H 362.867 -5.4924 2.66773 0
M  V30 3969 H 364.281 -3.8557 4.24274 0
M  V30 3970 H 362.678 -3.44094 4.9165 0
M  V30 3971 H 363.748 -2.14681 4.34788 0
M  V30 3972 N 365.091 -1.34144 -0.827227 0
M  V30 3973 C 366.024 -1.19707 -1.94282 0
M  V30 3974 C 367.002 -0.0897256 -1.62352 0
M  V30 3975 O 368.186 -0.254095 -1.8678 0
M  V30 3976 C 365.313 -0.838646 -3.28153 0
M  V30 3977 C 364.359 -1.95514 -3.79047 0
M  V30 3978 S 365.192 -3.56793 -3.99323 0
M  V30 3979 C 366.348 -3.22983 -5.36127 0
M  V30 3980 H 366.581 -2.1414 -2.06231 0
M  V30 3981 H 364.114 -1.19121 -0.982321 0
M  V30 3982 H 366.072 -0.638637 -4.05502 0
M  V30 3983 H 364.733 0.0872776 -3.13979 0
M  V30 3984 H 363.926 -1.658 -4.75948 0
M  V30 3985 H 363.528 -2.11241 -3.08631 0
M  V30 3986 H 365.82 -2.74531 -6.19386 0
M  V30 3987 H 366.763 -4.19008 -5.70822 0
M  V30 3988 H 367.171 -2.59276 -5.01434 0
M  V30 3989 N 366.569 1.04691 -1.17803 0
M  V30 3990 C 367.797 1.81446 -0.99423 0
M  V30 3991 C 368.212 1.83174 0.457459 0
M  V30 3992 O 367.569 1.26265 1.31771 0
M  V30 3993 C 367.62 3.27334 -1.5341 0
M  V30 3994 O 367.341 3.25798 -2.92895 0
M  V30 3995 C 368.842 4.20759 -1.39559 0
M  V30 3996 H 366.062 0.571599 -0.351447 0
M  V30 3997 H 368.606 1.31982 -1.56208 0
M  V30 3998 H 366.761 3.74052 -1.00815 0
M  V30 3999 H 367.175 4.17144 -3.17949 0
M  V30 4000 H 368.649 5.21084 -1.82141 0
M  V30 4001 H 369.126 4.37856 -0.343394 0
M  V30 4002 H 369.732 3.79901 -1.91195 0
M  V30 4003 N 368.047 0.979072 1.23499 0
M  V30 4004 C 369.324 0.563674 1.87302 0
M  V30 4005 C 369.704 -0.959199 1.88049 0
M  V30 4006 O 369.052 -1.83535 1.36114 0
M  V30 4007 C 369.262 1.16822 3.28867 0
M  V30 4008 C 370.61 1.26014 4.0547 0
M  V30 4009 O 371.634 1.12158 3.38082 0
M  V30 4010 O 370.493 1.48044 5.26066 0
M  V30 4011 H 367.587 0.189602 0.804972 0
M  V30 4012 H 370.133 1.07407 1.31384 0
M  V30 4013 H 368.905 2.21049 3.22883 0
M  V30 4014 H 368.528 0.642564 3.92373 0
M  V30 4015 N 369.525 -1.3858 0.750561 0
M  V30 4016 C 370.941 -1.53759 0.427824 0
M  V30 4017 C 371.141 -1.71401 -1.05943 0
M  V30 4018 O 370.197 -1.72331 -1.84549 0
M  V30 4019 C 371.51 -2.74642 1.22443 0
M  V30 4020 C 373.058 -2.88489 1.2142 0
M  V30 4021 C 373.533 -4.12329 1.9937 0
M  V30 4022 N 375.024 -4.194 1.96616 0
M  V30 4023 C 375.759 -5.14209 2.53727 0
M  V30 4024 N 375.255 -6.14709 3.19539 0
M  V30 4025 N 377.048 -5.06537 2.43673 0
M  V30 4026 H 369.199 -1.25377 1.71447 0
M  V30 4027 H 371.462 -0.608844 0.726645 0
M  V30 4028 H 371.168 -2.68 2.27747 0
M  V30 4029 H 371.042 -3.67745 0.839273 0
M  V30 4030 H 373.429 -2.94614 0.169232 0
M  V30 4031 H 373.51 -1.96406 1.63885 0
M  V30 4032 H 373.154 -4.06966 3.03877 0
M  V30 4033 H 373.084 -5.03486 1.54302 0
M  V30 4034 H 375.575 -3.47421 1.48684 0
M  V30 4035 H 375.888 -6.8354 3.60545 0
M  V30 4036 H 374.233 -6.1505 3.23633 0
M  V30 4037 H 377.424 -4.26962 1.91889 0
M  V30 4038 H 377.597 -5.80245 2.88479 0
M  V30 4039 N 371.003 -0.499398 -1.49478 0
M  V30 4040 C 372.419 -0.155261 -1.58843 0
M  V30 4041 C 372.619 1.34008 -1.50479 0
M  V30 4042 O 371.675 2.11589 -1.37791 0
M  V30 4043 C 372.988 -0.730636 -2.91689 0
M  V30 4044 C 374.536 -0.696599 -3.0515 0
M  V30 4045 C 375.011 -1.25001 -4.40612 0
M  V30 4046 N 376.502 -1.21064 -4.47099 0
M  V30 4047 C 377.237 -1.60905 -5.50361 0
M  V30 4048 N 376.733 -2.08331 -6.60735 0
M  V30 4049 N 378.526 -1.52331 -5.41065 0
M  V30 4050 H 370.677 -1.47162 -1.53158 0
M  V30 4051 H 372.94 -0.610309 -0.725415 0
M  V30 4052 H 372.646 -1.77928 -3.03372 0
M  V30 4053 H 372.52 -0.190161 -3.7672 0
M  V30 4054 H 374.907 0.343204 -2.93097 0
M  V30 4055 H 374.988 -1.2742 -2.21806 0
M  V30 4056 H 374.632 -2.28859 -4.53416 0
M  V30 4057 H 374.562 -0.64836 -5.22593 0
M  V30 4058 H 377.053 -0.863128 -3.67911 0
M  V30 4059 H 377.366 -2.36805 -7.35624 0
M  V30 4060 H 375.711 -2.12304 -6.6178 0
M  V30 4061 H 378.902 -1.151 -4.53729 0
M  V30 4062 H 379.075 -1.83704 -6.21415 0
M  V30 4063 N 372.481 1.55866 -0.233164 0
M  V30 4064 C 373.73 1.97779 0.39579 0
M  V30 4065 C 374.043 1.12419 1.60066 0
M  V30 4066 O 375.249 1.44283 2.29988 0
M  V30 4067 C 373.705 3.5188 0.755556 0
M  V30 4068 C 373.313 4.45959 -0.427152 0
M  V30 4069 C 375.057 4.02479 1.34946 0
M  V30 4070 C 372.964 5.91383 -0.0443043 0
M  V30 4071 H 371.894 0.738592 0.15165 0
M  V30 4072 H 374.545 1.80486 -0.331212 0
M  V30 4073 H 372.927 3.64816 1.5403 0
M  V30 4074 H 374.101 4.44776 -1.20462 0
M  V30 4075 H 372.416 4.05765 -0.935068 0
M  V30 4076 H 375.013 5.08637 1.649 0
M  V30 4077 H 375.356 3.49014 2.26925 0
M  V30 4078 H 375.889 3.92813 0.62791 0
M  V30 4079 H 372.628 6.48857 -0.930874 0
M  V30 4080 H 372.148 5.95734 0.697238 0
M  V30 4081 H 373.827 6.45893 0.378334 0
M  V30 4082 N 373.959 -0.0401083 1.57549 0
M  V30 4083 C 375.207 -0.731677 1.8839 0
M  V30 4084 C 375.528 -1.76481 0.829425 0
M  V30 4085 O 374.798 -1.95411 -0.1383 0
M  V30 4086 H 373.378 -0.273225 0.695239 0
M  V30 4087 H 376.04 -0.00867725 1.94898 0
M  V30 4088 H 375.136 -1.22816 2.86919 0
M  V30 4089 N 375.437 -1.54477 -0.31217 0
M  V30 4090 C 376.677 -1.74958 -1.05684 0
M  V30 4091 C 377.041 -0.518414 -1.84869 0
M  V30 4092 O 378.242 -0.600759 -2.62001 0
M  V30 4093 C 376.513 -2.99656 -1.94785 0
M  V30 4094 S 378.072 -3.4109 -2.76049 0
M  V30 4095 H 374.89 -0.615104 -0.356606 0
M  V30 4096 H 377.492 -1.92669 -0.331514 0
M  V30 4097 H 376.196 -3.87397 -1.35468 0
M  V30 4098 H 375.727 -2.845 -2.71704 0
M  V30 4099 H 377.742 -2.97283 -3.97287 0
M  V30 4100 N 376.915 0.57481 -1.46744 0
M  V30 4101 C 377.845 1.69337 -1.60771 0
M  V30 4102 C 378.826 1.63825 -0.457736 0
M  V30 4103 O 380.011 1.8172 -0.684947 0
M  V30 4104 C 377.141 3.0798 -1.60517 0
M  V30 4105 C 376.095 3.28327 -2.74564 0
M  V30 4106 C 375.421 4.67578 -2.59373 0
M  V30 4107 C 376.721 3.15398 -4.16319 0
M  V30 4108 H 378.415 1.57853 -2.54407 0
M  V30 4109 H 375.961 0.75799 -1.22436 0
M  V30 4110 H 377.914 3.86061 -1.68923 0
M  V30 4111 H 376.638 3.20381 -0.634305 0
M  V30 4112 H 375.297 2.52649 -2.65639 0
M  V30 4113 H 374.945 4.76755 -1.60353 0
M  V30 4114 H 374.645 4.82144 -3.35873 0
M  V30 4115 H 376.169 5.47817 -2.69682 0
M  V30 4116 H 377.583 3.83315 -4.26313 0
M  V30 4117 H 375.98 3.41482 -4.93468 0
M  V30 4118 H 377.05 2.12372 -4.3592 0
M  V30 4119 N 378.394 1.34581 0.820102 0
M  V30 4120 C 379.324 1.29038 1.94606 0
M  V30 4121 C 380.305 0.1673 1.69275 0
M  V30 4122 O 381.49 0.360112 1.90832 0
M  V30 4123 C 378.62 1.04793 3.31113 0
M  V30 4124 C 377.574 2.13597 3.70891 0
M  V30 4125 C 376.9 1.74537 5.05412 0
M  V30 4126 C 378.2 3.55451 3.8269 0
M  V30 4127 H 379.894 2.23248 1.99501 0
M  V30 4128 H 377.44 1.0747 0.958449 0
M  V30 4129 H 379.393 0.995592 4.0947 0
M  V30 4130 H 378.117 0.0702565 3.26524 0
M  V30 4131 H 376.776 2.17905 2.9481 0
M  V30 4132 H 376.424 0.754226 4.97313 0
M  V30 4133 H 376.124 2.47361 5.32997 0
M  V30 4134 H 377.648 1.70803 5.86224 0
M  V30 4135 H 379.062 3.5354 4.51312 0
M  V30 4136 H 377.459 4.26922 4.21732 0
M  V30 4137 H 378.529 3.92587 2.84611 0
M  V30 4138 N 379.872 -1.04064 1.18357 0
M  V30 4139 C 381.097 -1.81454 1.00445 0
M  V30 4140 C 381.522 -1.82823 -0.442423 0
M  V30 4141 O 380.88 -1.24555 -1.31741 0
M  V30 4142 C 380.928 -3.24925 1.56384 0
M  V30 4143 O 380.032 -4.04856 0.785209 0
M  V30 4144 H 379.373 -0.560604 0.355835 0
M  V30 4145 H 381.903 -1.31059 1.57114 0
M  V30 4146 H 381.913 -3.75702 1.59097 0
M  V30 4147 H 380.588 -3.23244 2.61699 0
M  V30 4148 H 379.165 -3.63537 0.830399 0
M  V30 4149 N 381.35 -0.985608 -1.22978 0
M  V30 4150 C 382.598 -0.656087 -1.91154 0
M  V30 4151 C 382.919 0.813561 -1.77218 0
M  V30 4152 O 382.189 1.58244 -1.1548 0
M  V30 4153 H 380.769 -0.239674 -0.707506 0
M  V30 4154 H 383.431 -1.25054 -1.49491 0
M  V30 4155 H 382.527 -0.912253 -2.9847 0
M  V30 4156 N 382.828 1.3818 -0.7579 0
M  V30 4157 C 384.076 1.99624 -0.315361 0
M  V30 4158 C 384.397 1.60464 1.10799 0
M  V30 4159 O 383.667 0.863507 1.75842 0
M  V30 4160 H 382.247 0.73831 -0.113611 0
M  V30 4161 H 384.909 1.68878 -0.972952 0
M  V30 4162 H 384.005 3.09754 -0.381931 0
M  V30 4163 N 384.306 0.507319 1.49211 0
M  V30 4164 C 385.236 -0.256939 2.32082 0
M  V30 4165 C 386.217 -0.956609 1.40652 0
M  V30 4166 O 387.402 -0.946788 1.69557 0
M  V30 4167 C 384.532 -1.31802 3.21318 0
M  V30 4168 C 383.486 -0.737855 4.21592 0
M  V30 4169 C 382.812 -1.89992 4.99807 0
M  V30 4170 C 384.112 0.275325 5.21574 0
M  V30 4171 H 385.806 0.434798 2.96226 0
M  V30 4172 H 383.352 0.210546 1.42452 0
M  V30 4173 H 385.305 -1.86045 3.78107 0
M  V30 4174 H 384.029 -2.03903 2.5513 0
M  V30 4175 H 382.688 -0.217126 3.65956 0
M  V30 4176 H 382.336 -2.60877 4.30061 0
M  V30 4177 H 382.036 -1.51777 5.6766 0
M  V30 4178 H 383.56 -2.44657 5.59442 0
M  V30 4179 H 384.974 -0.179193 5.7302 0
M  V30 4180 H 383.371 0.573649 5.97352 0
M  V30 4181 H 384.441 1.18903 4.70096 0
M  V30 4182 N 385.784 -1.5574 0.241426 0
M  V30 4183 C 387.061 -1.90704 -0.434881 0
M  V30 4184 C 387.441 -1.16145 -1.76277 0
M  V30 4185 O 386.789 -0.277152 -2.26813 0
M  V30 4186 C 386.999 -3.43657 -0.608343 0
M  V30 4187 C 388.347 -4.14806 -0.906725 0
M  V30 4188 O 389.371 -3.49366 -0.694408 0
M  V30 4189 O 388.23 -5.30548 -1.31075 0
M  V30 4190 H 385.324 -0.793592 -0.23268 0
M  V30 4191 H 387.87 -1.67288 0.285086 0
M  V30 4192 H 386.642 -3.89927 0.327505 0
M  V30 4193 H 386.265 -3.72918 -1.37906 0
M  V30 4194 N 387.262 0.0317525 -1.57568 0
M  V30 4195 C 388.487 0.738664 -1.938 0
M  V30 4196 C 388.912 1.68242 -0.841208 0
M  V30 4197 O 388.27 1.80157 0.203267 0
M  V30 4198 C 388.318 1.47417 -3.29091 0
M  V30 4199 O 387.422 2.5872 -3.2115 0
M  V30 4200 H 386.763 0.198856 -0.633524 0
M  V30 4201 H 389.293 -0.0119713 -2.04596 0
M  V30 4202 H 389.303 1.84468 -3.63917 0
M  V30 4203 H 387.978 0.781988 -4.08482 0
M  V30 4204 H 386.555 2.24231 -2.97951 0
M  V30 4205 N 388.74 1.54641 0.303973 0
M  V30 4206 C 389.965 1.78092 1.06292 0
M  V30 4207 C 390.39 0.537342 1.80262 0
M  V30 4208 O 389.748 -0.511993 1.7392 0
M  V30 4209 C 389.796 2.98612 2.02147 0
M  V30 4210 O 388.9 2.71528 3.10397 0
M  V30 4211 H 388.241 0.589548 0.305497 0
M  V30 4212 H 390.771 2.01716 0.3423 0
M  V30 4213 H 390.781 3.265 2.44667 0
M  V30 4214 H 389.456 3.88785 1.47714 0
M  V30 4215 H 388.033 2.54648 2.72413 0
M  V30 4216 N 390.218 -0.567019 1.47046 0
M  V30 4217 C 391.148 -1.68482 1.61667 0
M  V30 4218 C 392.129 -1.6358 0.466418 0
M  V30 4219 O 393.314 -1.81354 0.694574 0
M  V30 4220 C 390.444 -3.07124 1.62148 0
M  V30 4221 C 389.398 -3.26867 2.76301 0
M  V30 4222 C 388.724 -4.66196 2.61849 0
M  V30 4223 C 390.024 -3.13186 4.17986 0
M  V30 4224 H 391.718 -1.56502 2.5524 0
M  V30 4225 H 389.264 -0.751486 1.22836 0
M  V30 4226 H 391.217 -3.8516 1.70968 0
M  V30 4227 H 389.941 -3.2004 0.651287 0
M  V30 4228 H 388.6 -2.51237 2.66975 0
M  V30 4229 H 388.248 -4.75898 1.62879 0
M  V30 4230 H 387.948 -4.80356 3.38425 0
M  V30 4231 H 389.472 -5.46379 2.72584 0
M  V30 4232 H 390.886 -3.81049 4.2834 0
M  V30 4233 H 389.283 -3.3886 4.95272 0
M  V30 4234 H 390.353 -2.10057 4.3704 0
M  V30 4235 N 391.696 -1.35014 -0.812953 0
M  V30 4236 C 392.942 -1.2812 -1.57204 0
M  V30 4237 C 393.275 0.145869 -1.93651 0
M  V30 4238 O 392.55 1.0937 -1.60836 0
M  V30 4239 C 392.833 -2.18162 -2.86492 0
M  V30 4240 C 392.686 -3.69454 -2.56561 0
M  V30 4241 C 394.005 -2.07439 -3.88145 0
M  V30 4242 H 391.124 -0.466746 -0.570366 0
M  V30 4243 H 393.766 -1.65357 -0.935783 0
M  V30 4244 H 391.916 -1.86535 -3.40789 0
M  V30 4245 H 393.588 -4.11493 -2.08497 0
M  V30 4246 H 391.831 -3.9005 -1.89851 0
M  V30 4247 H 392.502 -4.27835 -3.48799 0
M  V30 4248 H 394.978 -2.35228 -3.4323 0
M  V30 4249 H 393.854 -2.7265 -4.76396 0
M  V30 4250 H 394.115 -1.05439 -4.29343 0
M  V30 4251 N 393.175 1.03435 -1.18907 0
M  V30 4252 C 394.138 2.09756 -0.923844 0
M  V30 4253 C 395.138 1.60528 0.093416 0
M  V30 4254 O 396.328 1.73631 -0.140727 0
M  V30 4255 C 393.46 3.38692 -0.387354 0
M  V30 4256 H 394.653 2.34719 -1.86674 0
M  V30 4257 H 392.206 1.19959 -1.00197 0
M  V30 4258 H 392.941 3.19396 0.561845 0
M  V30 4259 H 392.726 3.75742 -1.12074 0
M  V30 4260 H 394.216 4.17016 -0.220694 0
M  V30 4261 N 394.653 0.992116 1.22453 0
M  V30 4262 C 395.616 0.546883 2.2258 0
M  V30 4263 C 396.616 -0.369829 1.56489 0
M  V30 4264 O 397.806 -0.161896 1.73446 0
M  V30 4265 C 394.938 -0.204659 3.40285 0
M  V30 4266 H 396.131 1.43234 2.63484 0
M  V30 4267 H 393.684 0.779239 1.3549 0
M  V30 4268 H 394.419 -1.10614 3.04853 0
M  V30 4269 H 394.204 0.45354 3.89468 0
M  V30 4270 H 395.694 -0.504358 4.14543 0
M  V30 4271 N 396.131 -1.37776 0.765217 0
M  V30 4272 C 397.359 -2.04124 0.337767 0
M  V30 4273 C 397.774 -1.57715 -1.03785 0
M  V30 4274 O 397.131 -0.755447 -1.6613 0
M  V30 4275 C 397.182 -3.59658 0.364442 0
M  V30 4276 O 396.903 -4.04367 1.68579 0
M  V30 4277 C 398.404 -4.43236 -0.0754221 0
M  V30 4278 H 395.624 -0.655696 0.142491 0
M  V30 4279 H 398.168 -1.76238 1.03732 0
M  V30 4280 H 396.323 -3.86339 -0.286471 0
M  V30 4281 H 396.737 -4.98857 1.61993 0
M  V30 4282 H 398.211 -5.52 -0.00560067 0
M  V30 4283 H 398.688 -4.2455 -1.12491 0
M  V30 4284 H 399.294 -4.21767 0.547055 0
M  V30 4285 N 397.609 -0.515225 -1.4894 0
M  V30 4286 C 398.539 0.244628 -2.32215 0
M  V30 4287 C 399.52 0.949136 -1.41157 0
M  V30 4288 O 400.705 0.937783 -1.70057 0
M  V30 4289 C 397.835 1.30096 -3.22013 0
M  V30 4290 C 396.789 0.715486 -4.21977 0
M  V30 4291 C 396.115 1.87339 -5.00808 0
M  V30 4292 C 397.415 -0.302982 -5.2142 0
M  V30 4293 H 399.109 -0.450501 -2.95991 0
M  V30 4294 H 396.655 -0.218098 -1.42339 0
M  V30 4295 H 398.608 1.84037 -3.79089 0
M  V30 4296 H 397.332 2.02547 -2.56207 0
M  V30 4297 H 395.991 0.197715 -3.66066 0
M  V30 4298 H 395.639 2.58592 -4.31438 0
M  V30 4299 H 395.339 1.48764 -5.68457 0
M  V30 4300 H 396.863 2.41686 -5.60732 0
M  V30 4301 H 398.277 0.148802 -5.73107 0
M  V30 4302 H 396.674 -0.60532 -5.97039 0
M  V30 4303 H 397.744 -1.21395 -4.69459 0
M  V30 4304 N 399.087 1.5561 -0.249682 0
M  V30 4305 C 400.017 2.24477 0.642826 0
M  V30 4306 C 400.998 1.22601 1.17911 0
M  V30 4307 O 402.183 1.5126 1.21795 0
M  V30 4308 C 399.313 2.94638 1.83863 0
M  V30 4309 C 398.267 4.03227 1.435 0
M  V30 4310 C 397.593 4.60828 2.71186 0
M  V30 4311 C 398.893 5.18796 0.604002 0
M  V30 4312 H 400.587 2.99321 0.0685625 0
M  V30 4313 H 398.133 1.43965 0.0315363 0
M  V30 4314 H 400.086 3.41517 2.46868 0
M  V30 4315 H 398.81 2.17287 2.43832 0
M  V30 4316 H 397.469 3.57121 0.828275 0
M  V30 4317 H 397.117 3.80174 3.29358 0
M  V30 4318 H 396.817 5.34132 2.44901 0
M  V30 4319 H 398.341 5.10442 3.35084 0
M  V30 4320 H 399.755 5.61883 1.13842 0
M  V30 4321 H 398.152 5.98506 0.437097 0
M  V30 4322 H 399.222 4.83384 -0.383147 0
M  V30 4323 N 400.565 -0.0233959 1.57583 0
M  V30 4324 C 401.512 -1.02224 2.06927 0
M  V30 4325 C 402.482 -1.35575 0.959617 0
M  V30 4326 O 403.667 -1.45815 1.23055 0
M  V30 4327 C 400.807 -2.31636 2.5581 0
M  V30 4328 C 399.92 -2.04394 3.80588 0
M  V30 4329 C 399.055 -3.27717 4.18061 0
M  V30 4330 C 398.094 -2.96056 5.3574 0
M  V30 4331 N 397.231 -4.11847 5.68618 0
M  V30 4332 H 402.071 -0.594504 2.9201 0
M  V30 4333 H 399.608 -0.281921 1.44373 0
M  V30 4334 H 401.566 -3.07258 2.82221 0
M  V30 4335 H 400.196 -2.72122 1.73636 0
M  V30 4336 H 399.248 -1.19244 3.61227 0
M  V30 4337 H 400.56 -1.77042 4.66323 0
M  V30 4338 H 399.714 -4.11702 4.4563 0
M  V30 4339 H 398.453 -3.58188 3.30988 0
M  V30 4340 H 397.458 -2.10474 5.07918 0
M  V30 4341 H 398.683 -2.66857 6.24471 0
M  V30 4342 H 396.629 -4.42258 4.84504 0
M  V30 4343 H 396.546 -3.87938 6.48876 0
M  V30 4344 H 397.814 -4.96689 6.00766 0
M  V30 4345 N 402.043 -1.548 -0.295768 0
M  V30 4346 C 402.975 -1.82492 -1.3867 0
M  V30 4347 C 403.988 -0.708134 -1.46592 0
M  V30 4348 O 405.177 -0.985686 -1.48817 0
M  V30 4349 C 402.277 -1.95256 -2.76999 0
M  V30 4350 C 401.45 -3.25709 -2.91946 0
M  V30 4351 C 400.509 -3.28824 -4.10806 0
M  V30 4352 O 399.535 -4.02328 -4.02643 0
M  V30 4353 N 400.737 -2.5459 -5.21694 0
M  V30 4354 H 403.502 -2.76646 -1.15269 0
M  V30 4355 H 401.063 -1.54438 -0.485849 0
M  V30 4356 H 403.055 -1.94736 -3.54768 0
M  V30 4357 H 401.625 -1.08072 -2.93324 0
M  V30 4358 H 400.845 -3.38959 -2.01247 0
M  V30 4359 H 402.133 -4.11786 -2.98847 0
M  V30 4360 H 401.531 -1.94512 -5.31208 0
M  V30 4361 H 400.088 -2.59818 -5.97778 0
M  V30 4362 N 403.521 0.559213 -1.47345 0
M  V30 4363 C 404.451 1.67622 -1.62558 0
M  V30 4364 C 405.432 1.63331 -0.475087 0
M  V30 4365 O 406.617 1.80983 -0.704182 0
M  V30 4366 C 403.747 3.0626 -1.63774 0
M  V30 4367 C 402.701 3.25397 -2.7803 0
M  V30 4368 C 402.027 4.64801 -2.64318 0
M  V30 4369 C 403.327 3.10965 -4.19641 0
M  V30 4370 H 405.021 1.55146 -2.56067 0
M  V30 4371 H 402.567 0.744961 -1.23233 0
M  V30 4372 H 404.52 3.84247 -1.73008 0
M  V30 4373 H 403.244 3.1969 -0.66825 0
M  V30 4374 H 401.903 2.49817 -2.68304 0
M  V30 4375 H 401.551 4.75028 -1.65401 0
M  V30 4376 H 401.251 4.78555 -3.40968 0
M  V30 4377 H 402.775 5.44926 -2.75478 0
M  V30 4378 H 404.189 3.78772 -4.30354 0
M  V30 4379 H 402.586 3.36229 -4.97062 0
M  V30 4380 H 403.656 2.07736 -4.38148 0
M  V30 4381 N 404.999 1.35443 0.805782 0
M  V30 4382 C 405.946 1.28431 1.91766 0
M  V30 4383 C 406.916 0.156102 1.65365 0
M  V30 4384 O 408.101 0.339936 1.87747 0
M  V30 4385 C 405.241 1.06301 3.2832 0
M  V30 4386 C 404.354 2.2805 3.66902 0
M  V30 4387 C 403.489 1.99064 4.92491 0
M  V30 4388 C 402.528 3.16863 5.23703 0
M  V30 4389 N 401.665 2.87647 6.40471 0
M  V30 4390 H 406.505 2.23511 1.97096 0
M  V30 4391 H 404.042 1.11105 0.964054 0
M  V30 4392 H 406 0.915012 4.07042 0
M  V30 4393 H 404.63 0.148822 3.22457 0
M  V30 4394 H 403.682 2.53711 2.83434 0
M  V30 4395 H 404.994 3.1601 3.85927 0
M  V30 4396 H 404.148 1.81099 5.7904 0
M  V30 4397 H 402.887 1.0839 4.75503 0
M  V30 4398 H 401.892 3.35404 4.35642 0
M  V30 4399 H 403.117 4.08339 5.4262 0
M  V30 4400 H 401.063 1.99568 6.24907 0
M  V30 4401 H 400.98 3.69141 6.59751 0
M  V30 4402 H 402.248 2.73226 7.30047 0
M  V30 4403 N 406.477 -1.02803 1.19454 0
M  V30 4404 C 407.387 -2.14575 0.948408 0
M  V30 4405 C 408.403 -1.73757 -0.091871 0
M  V30 4406 O 409.579 -2.01185 0.0929654 0
M  V30 4407 C 406.644 -3.43202 0.491265 0
M  V30 4408 C 405.705 -3.98328 1.60103 0
M  V30 4409 C 404.938 -5.20816 1.16561 0
M  V30 4410 O 405.161 -5.70392 0.0295238 0
M  V30 4411 O 404.095 -5.68801 1.96849 0
M  V30 4412 H 407.921 -2.38202 1.88397 0
M  V30 4413 H 405.506 -1.12989 0.977433 0
M  V30 4414 H 407.388 -4.20687 0.245015 0
M  V30 4415 H 406.063 -3.21018 -0.415851 0
M  V30 4416 H 404.97 -3.22174 1.90144 0
M  V30 4417 H 406.303 -4.24879 2.48473 0
M  V30 4418 N 407.956 -0.998596 -1.21925 0
M  V30 4419 C 408.919 -0.558679 -2.22287 0
M  V30 4420 C 409.919 0.361525 -1.56683 0
M  V30 4421 O 411.109 0.152695 -1.73529 0
M  V30 4422 C 408.241 0.18661 -3.40389 0
M  V30 4423 H 409.434 -1.4463 -2.62721 0
M  V30 4424 H 406.987 -0.786413 -1.35075 0
M  V30 4425 H 407.722 1.08996 -3.05435 0
M  V30 4426 H 407.507 -0.474188 -3.89222 0
M  V30 4427 H 408.997 0.482367 -4.14805 0
M  V30 4428 N 409.434 1.37368 -0.772513 0
M  V30 4429 C 410.366 2.28899 -0.117502 0
M  V30 4430 C 411.379 1.4867 0.663405 0
M  V30 4431 O 412.568 1.71314 0.501372 0
M  V30 4432 C 409.668 3.2788 0.857192 0
M  V30 4433 C 408.841 4.37207 0.129938 0
M  V30 4434 C 407.9 5.16257 1.01811 0
M  V30 4435 O 406.926 5.67159 0.481601 0
M  V30 4436 N 408.128 5.31058 2.3443 0
M  V30 4437 H 410.893 2.85752 -0.903662 0
M  V30 4438 H 408.454 1.49353 -0.62493 0
M  V30 4439 H 410.446 3.77647 1.45482 0
M  V30 4440 H 409.016 2.7179 1.54432 0
M  V30 4441 H 408.236 3.88827 -0.648605 0
M  V30 4442 H 409.524 5.07434 -0.372559 0
M  V30 4443 H 408.922 4.91287 2.80452 0
M  V30 4444 H 407.479 5.84131 2.89197 0
M  V30 4445 N 410.912 0.523116 1.48665 0
M  V30 4446 C 412.158 -0.0134963 2.02796 0
M  V30 4447 C 412.491 -1.34582 1.40004 0
M  V30 4448 O 411.766 -1.86756 0.543381 0
M  V30 4449 C 412.049 -0.14276 3.59817 0
M  V30 4450 C 411.902 1.21425 4.331 0
M  V30 4451 C 413.221 -0.872856 4.31357 0
M  V30 4452 H 410.34 -0.00343074 0.736992 0
M  V30 4453 H 412.982 0.678816 1.7746 0
M  V30 4454 H 411.132 -0.732401 3.81534 0
M  V30 4455 H 412.804 1.84447 4.2282 0
M  V30 4456 H 411.047 1.79791 3.94788 0
M  V30 4457 H 411.718 1.07687 5.41394 0
M  V30 4458 H 414.194 -0.372555 4.14429 0
M  V30 4459 H 413.07 -0.932185 5.40927 0
M  V30 4460 H 413.331 -1.92161 3.98154 0
M  V30 4461 N 412.39 -1.55475 0.257931 0
M  V30 4462 C 413.322 -2.19192 -0.669881 0
M  V30 4463 C 414.335 -1.17148 -1.1305 0
M  V30 4464 O 415.524 -1.43959 -1.05537 0
M  V30 4465 C 412.624 -2.79016 -1.92363 0
M  V30 4466 C 411.797 -4.06586 -1.61265 0
M  V30 4467 C 410.856 -4.50622 -2.7171 0
M  V30 4468 O 409.882 -5.16765 -2.38627 0
M  V30 4469 N 411.084 -4.19325 -4.01431 0
M  V30 4470 H 413.849 -2.99441 -0.124635 0
M  V30 4471 H 411.41 -1.6171 0.0783311 0
M  V30 4472 H 413.402 -3.05427 -2.65511 0
M  V30 4473 H 411.972 -2.0286 -2.37837 0
M  V30 4474 H 411.192 -3.87646 -0.715811 0
M  V30 4475 H 412.48 -4.89737 -1.37967 0
M  V30 4476 H 411.878 -3.66247 -4.31138 0
M  V30 4477 H 410.435 -4.50547 -4.7101 0
M  V30 4478 N 413.868 0.0150385 -1.57593 0
M  V30 4479 C 415.098 0.713359 -1.93894 0
M  V30 4480 C 415.506 1.68663 -0.857289 0
M  V30 4481 O 414.849 1.82876 0.173788 0
M  V30 4482 C 414.911 1.51348 -3.26089 0
M  V30 4483 C 414.575 0.703451 -4.51554 0
M  V30 4484 C 415.572 -0.00237924 -5.199 0
M  V30 4485 C 413.257 0.653854 -4.98026 0
M  V30 4486 C 415.251 -0.746955 -6.33008 0
M  V30 4487 C 412.938 -0.0944578 -6.11027 0
M  V30 4488 C 413.936 -0.793609 -6.78374 0
M  V30 4489 O 413.624 -1.52974 -7.89211 0
M  V30 4490 H 413.356 0.204637 -0.644282 0
M  V30 4491 H 415.91 -0.0276411 -2.05381 0
M  V30 4492 H 414.14 2.29862 -3.10967 0
M  V30 4493 H 415.829 2.09572 -3.47612 0
M  V30 4494 H 416.595 0.0268803 -4.84993 0
M  V30 4495 H 412.474 1.18756 -4.45441 0
M  V30 4496 H 416.018 -1.2932 -6.85509 0
M  V30 4497 H 411.915 -0.125591 -6.45378 0
M  V30 4498 H 412.683 -1.44488 -8.05646 0
M  V30 4499 N 415.346 1.54954 0.287554 0
M  V30 4500 C 416.757 1.65732 0.859634 0
M  V30 4501 C 417.108 0.574767 1.87592 0
M  V30 4502 O 416.233 -0.286299 2.14498 0
M  V30 4503 C 416.828 3.00438 1.56597 0
M  V30 4504 C 415.387 3.13292 2.08627 0
M  V30 4505 C 414.534 2.61473 0.923416 0
M  V30 4506 H 417.485 1.5857 0.0642338 0
M  V30 4507 H 417.506 2.92613 2.43224 0
M  V30 4508 H 417.018 3.79207 0.826053 0
M  V30 4509 H 415.119 2.39268 2.85625 0
M  V30 4510 H 415.232 4.19647 2.31157 0
M  V30 4511 H 413.596 2.18264 1.31275 0
M  V30 4512 H 414.379 3.42733 0.197241 0
M  V30 4513 N 416.824 -0.551391 1.4764 0
M  V30 4514 C 417.754 -1.66757 1.63445 0
M  V30 4515 C 418.735 -1.63077 0.483742 0
M  V30 4516 O 419.92 -1.80607 0.71377 0
M  V30 4517 C 417.05 -3.05387 1.65396 0
M  V30 4518 C 416.004 -3.23918 2.79752 0
M  V30 4519 C 415.33 -4.63393 2.66779 0
M  V30 4520 C 416.63 -3.08735 4.21284 0
M  V30 4521 H 418.324 -1.53786 2.56886 0
M  V30 4522 H 415.87 -0.738415 1.23626 0
M  V30 4523 H 417.823 -3.83325 1.75043 0
M  V30 4524 H 416.547 -3.19332 0.685195 0
M  V30 4525 H 415.206 -2.48391 2.69625 0
M  V30 4526 H 414.854 -4.74144 1.67918 0
M  V30 4527 H 414.554 -4.7674 3.43501 0
M  V30 4528 H 416.078 -5.43458 2.78364 0
M  V30 4529 H 417.492 -3.76484 4.32357 0
M  V30 4530 H 415.889 -3.33588 4.98838 0
M  V30 4531 H 416.959 -2.0541 4.39243 0
M  V30 4532 N 418.302 -1.35869 -0.798587 0
M  V30 4533 C 419.234 -1.25305 -1.91915 0
M  V30 4534 C 420.247 -0.174548 -1.61862 0
M  V30 4535 O 421.436 -0.428499 -1.73281 0
M  V30 4536 C 418.536 -0.9086 -3.26493 0
M  V30 4537 C 417.709 -2.08711 -3.84394 0
M  V30 4538 C 416.768 -1.71717 -4.97393 0
M  V30 4539 O 415.794 -2.43692 -5.14396 0
M  V30 4540 N 416.996 -0.645473 -5.769 0
M  V30 4541 H 419.761 -2.21849 -2.01502 0
M  V30 4542 H 417.322 -1.29143 -0.976408 0
M  V30 4543 H 419.314 -0.642455 -3.99568 0
M  V30 4544 H 417.884 -0.0325815 -3.12583 0
M  V30 4545 H 417.104 -2.51659 -3.03416 0
M  V30 4546 H 418.392 -2.87468 -4.19809 0
M  V30 4547 H 417.79 -0.047648 -5.6568 0
M  V30 4548 H 416.347 -0.43913 -6.50319 0
M  V30 4549 N 419.78 1.02168 -1.19998 0
M  V30 4550 C 421.008 1.79296 -1.03249 0
M  V30 4551 C 421.423 1.84103 0.418502 0
M  V30 4552 O 420.78 1.29031 1.29063 0
M  V30 4553 C 420.831 3.24007 -1.60319 0
M  V30 4554 O 420.552 3.19512 -2.99739 0
M  V30 4555 C 422.053 4.17704 -1.48453 0
M  V30 4556 H 419.273 0.564016 -0.363493 0
M  V30 4557 H 421.817 1.28639 -1.58973 0
M  V30 4558 H 419.972 3.7183 -1.08727 0
M  V30 4559 H 420.386 4.10306 -3.26725 0
M  V30 4560 H 421.86 5.17104 -1.93153 0
M  V30 4561 H 422.337 4.37029 -0.436193 0
M  V30 4562 H 422.943 3.7576 -1.99211 0
M  V30 4563 N 421.258 1.00505 1.21394 0
M  V30 4564 C 422.505 0.687774 1.90462 0
M  V30 4565 C 422.833 -0.78147 1.7811 0
M  V30 4566 O 422.088 -1.58208 1.1519 0
M  V30 4567 C 422.387 1.0546 3.41486 0
M  V30 4568 C 422.053 2.51812 3.74034 0
M  V30 4569 C 420.715 2.91804 3.82628 0
M  V30 4570 C 423.067 3.46614 3.8924 0
M  V30 4571 C 420.395 4.2556 4.03876 0
M  V30 4572 C 422.747 4.80044 4.11995 0
M  V30 4573 C 421.411 5.19759 4.18816 0
M  V30 4574 H 420.681 0.251674 0.696951 0
M  V30 4575 H 423.328 1.26349 1.43903 0
M  V30 4576 H 421.633 0.397133 3.89782 0
M  V30 4577 H 423.33 0.786976 3.93202 0
M  V30 4578 H 419.92 2.1982 3.67936 0
M  V30 4579 H 424.104 3.16883 3.81967 0
M  V30 4580 H 419.36 4.55901 4.07387 0
M  V30 4581 H 423.534 5.53439 4.22704 0
M  V30 4582 H 421.161 6.23418 4.35033 0
M  V30 4583 N 422.737 -1.36956 0.779787 0
M  V30 4584 C 423.7 -2.2851 0.177662 0
M  V30 4585 C 424.7 -1.48393 -0.619377 0
M  V30 4586 O 425.89 -1.68505 -0.441785 0
M  V30 4587 C 423.022 -3.32428 -0.755279 0
M  V30 4588 H 424.215 -2.83269 0.984823 0
M  V30 4589 H 421.768 -1.46358 0.548544 0
M  V30 4590 H 422.503 -2.82808 -1.58714 0
M  V30 4591 H 422.288 -3.91659 -0.185817 0
M  V30 4592 H 423.778 -4.00824 -1.17174 0
M  V30 4593 N 424.215 -0.530993 -1.48385 0
M  V30 4594 C 425.464 0.00474348 -2.01699 0
M  V30 4595 C 425.777 1.35227 -1.41325 0
M  V30 4596 O 426.983 1.97643 -1.86144 0
M  V30 4597 C 425.439 0.0588473 -3.59852 0
M  V30 4598 C 425.047 -1.28385 -4.2921 0
M  V30 4599 C 426.791 0.543358 -4.21008 0
M  V30 4600 C 424.698 -1.19028 -5.79298 0
M  V30 4601 H 423.628 0.00554317 -0.75398 0
M  V30 4602 H 426.279 -0.674924 -1.70637 0
M  V30 4603 H 424.661 0.803612 -3.8776 0
M  V30 4604 H 425.835 -2.04426 -4.12973 0
M  V30 4605 H 424.15 -1.70418 -3.7993 0
M  V30 4606 H 426.747 0.631351 -5.3096 0
M  V30 4607 H 427.09 1.54937 -3.86394 0
M  V30 4608 H 427.623 -0.145754 -3.97533 0
M  V30 4609 H 424.362 -2.17147 -6.18488 0
M  V30 4610 H 423.882 -0.471246 -5.97946 0
M  V30 4611 H 425.561 -0.881365 -6.40969 0
M  V30 4612 N 425.693 1.55336 -0.266172 0
M  V30 4613 C 426.941 1.99003 0.35246 0
M  V30 4614 C 427.262 1.15591 1.57047 0
M  V30 4615 O 426.532 0.243268 1.94384 0
M  V30 4616 H 425.112 0.735025 0.133217 0
M  V30 4617 H 427.774 1.91367 -0.369434 0
M  V30 4618 H 426.87 3.05289 0.648453 0
M  V30 4619 N 427.171 -0.0066808 1.57599 0
M  V30 4620 C 428.104 -1.03397 2.03431 0
M  V30 4621 C 429.082 -1.33872 0.922877 0
M  V30 4622 O 430.266 -1.4615 1.19048 0
M  V30 4623 C 427.393 -2.36325 2.42628 0
M  V30 4624 C 426.439 -2.21557 3.64438 0
M  V30 4625 S 427.272 -1.54789 5.12641 0
M  V30 4626 C 428.428 -2.8916 5.55101 0
M  V30 4627 H 428.661 -0.643687 2.90248 0
M  V30 4628 H 426.194 -0.217349 1.52863 0
M  V30 4629 H 428.152 -3.12759 2.65879 0
M  V30 4630 H 426.813 -2.72495 1.56222 0
M  V30 4631 H 426.006 -3.1974 3.89592 0
M  V30 4632 H 425.608 -1.53267 3.41153 0
M  V30 4633 H 427.9 -3.8547 5.57153 0
M  V30 4634 H 428.843 -2.68713 6.55133 0
M  V30 4635 H 429.251 -2.92762 4.82649 0
M  V30 4636 N 428.649 -1.55105 -0.279332 0
M  V30 4637 C 429.559 -1.90638 -1.36727 0
M  V30 4638 C 430.575 -0.802899 -1.54368 0
M  V30 4639 O 431.751 -1.10138 -1.68616 0
M  V30 4640 C 428.816 -2.16547 -2.70755 0
M  V30 4641 C 427.877 -3.40146 -2.61915 0
M  V30 4642 C 427.11 -3.6481 -3.8955 0
M  V30 4643 O 427.333 -2.92095 -4.89935 0
M  V30 4644 O 426.267 -4.58343 -3.90135 0
M  V30 4645 H 430.093 -2.83237 -1.09591 0
M  V30 4646 H 427.678 -1.4157 -0.477306 0
M  V30 4647 H 429.56 -2.34665 -3.50014 0
M  V30 4648 H 428.235 -1.27131 -2.9769 0
M  V30 4649 H 427.142 -3.2737 -1.81052 0
M  V30 4650 H 428.475 -4.29761 -2.3993 0
M  V30 4651 N 430.127 0.543554 -1.4793 0
M  V30 4652 C 431.404 1.30458 -1.4574 0
M  V30 4653 C 431.784 2.1048 -0.161692 0
M  V30 4654 O 431.132 2.11831 0.856734 0
M  V30 4655 C 431.342 2.19754 -2.71126 0
M  V30 4656 C 432.69 2.80334 -3.18901 0
M  V30 4657 O 433.714 2.30049 -2.71948 0
M  V30 4658 O 432.573 3.71766 -4.00565 0
M  V30 4659 H 429.667 0.588117 -0.581418 0
M  V30 4660 H 432.213 0.561328 -1.60147 0
M  V30 4661 H 430.985 1.60316 -3.56952 0
M  V30 4662 H 430.608 3.01351 -2.59371 0
M  V30 4663 N 431.605 1.3629 0.791371 0
M  V30 4664 C 432.83 1.33726 1.58531 0
M  V30 4665 C 433.255 -0.0794933 1.87932 0
M  V30 4666 O 432.613 -1.05087 1.47738 0
M  V30 4667 C 432.661 2.16425 2.88431 0
M  V30 4668 O 431.765 1.5554 3.81944 0
M  V30 4669 H 431.106 0.457793 0.480959 0
M  V30 4670 H 433.636 1.79547 0.981031 0
M  V30 4671 H 433.646 2.28933 3.37718 0
M  V30 4672 H 432.321 3.19415 2.66359 0
M  V30 4673 H 430.898 1.51961 3.40532 0
M  V30 4674 N 433.083 -1.0153 1.20538 0
M  V30 4675 C 434.494 -1.56598 1.01657 0
M  V30 4676 C 434.845 -1.91505 -0.426668 0
M  V30 4677 O 433.97 -1.72375 -1.30827 0
M  V30 4678 C 434.565 -2.84542 1.83905 0
M  V30 4679 C 433.124 -3.36133 1.69386 0
M  V30 4680 C 432.271 -2.09427 1.81757 0
M  V30 4681 H 435.222 -0.838974 1.34711 0
M  V30 4682 H 435.243 -3.56004 1.34319 0
M  V30 4683 H 434.755 -2.59105 2.8894 0
M  V30 4684 H 432.856 -3.66528 0.669933 0
M  V30 4685 H 432.969 -4.08248 2.50739 0
M  V30 4686 H 431.333 -2.21941 1.24957 0
M  V30 4687 H 432.116 -1.86414 2.88279 0
M  V30 4688 N 434.561 -1.01147 -1.20859 0
M  V30 4689 C 435.838 -0.613136 -1.85742 0
M  V30 4690 C 436.218 0.909004 -1.90526 0
M  V30 4691 O 435.566 1.79862 -1.40932 0
M  V30 4692 C 435.776 -1.255 -3.25654 0
M  V30 4693 C 437.124 -1.3672 -4.01986 0
M  V30 4694 O 438.148 -1.21082 -3.34989 0
M  V30 4695 O 437.007 -1.6194 -5.21956 0
M  V30 4696 H 434.101 -0.210878 -0.799662 0
M  V30 4697 H 436.647 -1.10853 -1.2849 0
M  V30 4698 H 435.419 -2.29532 -3.16908 0
M  V30 4699 H 435.042 -0.746369 -3.90532 0
M  V30 4700 N 436.039 1.36541 -0.78704 0
M  V30 4701 C 436.969 2.32659 -0.197992 0
M  V30 4702 C 437.95 1.56533 0.665697 0
M  V30 4703 O 439.135 1.84698 0.60001 0
M  V30 4704 C 436.265 3.40778 0.669901 0
M  V30 4705 C 435.219 4.27897 -0.0937039 0
M  V30 4706 C 434.545 5.27163 0.894629 0
M  V30 4707 C 435.845 5.06334 -1.28154 0
M  V30 4708 H 437.539 2.82171 -1.00099 0
M  V30 4709 H 435.085 1.35665 -0.482793 0
M  V30 4710 H 437.038 4.07008 1.09191 0
M  V30 4711 H 435.762 2.89827 1.50558 0
M  V30 4712 H 434.421 3.6322 -0.49666 0
M  V30 4713 H 434.069 4.72486 1.72527 0
M  V30 4714 H 433.769 5.86317 0.388149 0
M  V30 4715 H 435.293 5.96266 1.31525 0
M  V30 4716 H 436.707 5.65617 -0.93541 0
M  V30 4717 H 435.104 5.74888 -1.72115 0
M  V30 4718 H 436.174 4.38114 -2.07807 0
M  V30 4719 N 437.518 0.538854 1.48102 0
M  V30 4720 C 438.448 -0.207654 2.32575 0
M  V30 4721 C 439.429 -0.926559 1.4265 0
M  V30 4722 O 440.614 -0.91061 1.71527 0
M  V30 4723 C 437.744 -1.24957 3.24042 0
M  V30 4724 C 436.698 -0.648263 4.23062 0
M  V30 4725 C 436.024 -1.79348 5.03725 0
M  V30 4726 C 437.324 0.385897 5.20872 0
M  V30 4727 H 439.018 0.497534 2.95237 0
M  V30 4728 H 436.564 0.240715 1.41974 0
M  V30 4729 H 438.517 -1.77983 3.81969 0
M  V30 4730 H 437.241 -1.98446 2.59397 0
M  V30 4731 H 435.9 -0.139452 3.66335 0
M  V30 4732 H 435.548 -2.51696 4.35498 0
M  V30 4733 H 435.248 -1.39702 5.70751 0
M  V30 4734 H 436.772 -2.32735 5.64506 0
M  V30 4735 H 438.186 -0.057607 5.73271 0
M  V30 4736 H 436.583 0.700227 5.96001 0
M  V30 4737 H 437.653 1.28848 4.67468 0
M  V30 4738 N 438.996 -1.55193 0.274407 0
M  V30 4739 C 439.959 -2.212 -0.600279 0
M  V30 4740 C 440.959 -1.18963 -1.08187 0
M  V30 4741 O 442.149 -1.43873 -0.982158 0
M  V30 4742 C 439.281 -2.87739 -1.82809 0
M  V30 4743 H 440.474 -2.9989 -0.0239682 0
M  V30 4744 H 438.027 -1.5628 0.0250192 0
M  V30 4745 H 438.762 -2.13058 -2.44493 0
M  V30 4746 H 438.547 -3.62658 -1.49069 0
M  V30 4747 H 440.037 -3.38171 -2.45011 0
M  V30 4748 N 440.474 -0.00167713 -1.576 0
M  V30 4749 C 441.437 0.974046 -2.07473 0
M  V30 4750 C 442.437 1.27143 -0.984444 0
M  V30 4751 O 443.627 1.21633 -1.24703 0
M  V30 4752 C 440.759 2.29849 -2.51759 0
M  V30 4753 H 441.952 0.54262 -2.9495 0
M  V30 4754 H 439.505 0.245829 -1.54355 0
M  V30 4755 H 440.24 2.77677 -1.67529 0
M  V30 4756 H 440.025 2.09584 -3.31386 0
M  V30 4757 H 441.515 2.9984 -2.90664 0
M  V30 4758 N 441.952 1.55251 0.271103 0
M  V30 4759 C 443.368 1.47133 0.618393 0
M  V30 4760 C 443.568 0.686994 1.89427 0
M  V30 4761 O 442.624 0.206609 2.51653 0
M  V30 4762 C 443.937 2.91361 0.743593 0
M  V30 4763 C 445.485 3.01587 0.837522 0
M  V30 4764 C 445.96 4.47073 0.994483 0
M  V30 4765 N 447.451 4.50909 1.05996 0
M  V30 4766 C 448.186 5.60698 1.20024 0
M  V30 4767 N 447.682 6.80348 1.30759 0
M  V30 4768 N 449.475 5.48444 1.23149 0
M  V30 4769 H 441.626 2.04698 -0.566784 0
M  V30 4770 H 443.889 0.928319 -0.192165 0
M  V30 4771 H 443.595 3.51483 -0.123493 0
M  V30 4772 H 443.469 3.40484 1.62328 0
M  V30 4773 H 445.856 2.4156 1.69507 0
M  V30 4774 H 445.937 2.55713 -0.0668086 0
M  V30 4775 H 445.581 5.07703 0.141582 0
M  V30 4776 H 445.511 4.90605 1.91349 0
M  V30 4777 H 448.002 3.6472 0.989316 0
M  V30 4778 H 448.315 7.59772 1.41303 0
M  V30 4779 H 446.66 6.83156 1.27761 0
M  V30 4780 H 449.851 4.53907 1.14394 0
M  V30 4781 H 450.024 6.34049 1.33738 0
M  V30 4782 N 443.43 -0.535701 1.48216 0
M  V30 4783 C 444.377 -1.64083 1.62312 0
M  V30 4784 C 445.347 -1.59448 0.465365 0
M  V30 4785 O 446.532 -1.77959 0.688135 0
M  V30 4786 C 443.672 -3.0236 1.66349 0
M  V30 4787 C 442.785 -3.17273 2.93193 0
M  V30 4788 C 441.92 -4.46075 2.88427 0
M  V30 4789 C 440.959 -4.54496 4.1 0
M  V30 4790 N 440.096 -5.7468 4.03345 0
M  V30 4791 H 444.936 -1.51374 2.5669 0
M  V30 4792 H 442.473 -0.737059 1.27302 0
M  V30 4793 H 444.431 -3.82461 1.66672 0
M  V30 4794 H 443.061 -3.13854 0.754672 0
M  V30 4795 H 442.113 -2.30462 3.02641 0
M  V30 4796 H 443.425 -3.19357 3.83162 0
M  V30 4797 H 442.579 -5.3446 2.87119 0
M  V30 4798 H 441.318 -4.46504 1.96177 0
M  V30 4799 H 440.323 -3.64519 4.11589 0
M  V30 4800 H 441.548 -4.5581 5.03402 0
M  V30 4801 H 439.494 -5.76017 3.13912 0
M  V30 4802 H 439.411 -5.78234 4.87013 0
M  V30 4803 H 440.679 -6.65367 4.06087 0
M  V30 4804 N 444.908 -1.36708 -0.784132 0
M  V30 4805 C 446.154 -1.31426 -1.54451 0
M  V30 4806 C 446.487 0.10476 -1.93917 0
M  V30 4807 O 445.762 1.05934 -1.6312 0
M  V30 4808 C 446.045 -2.24189 -2.818 0
M  V30 4809 C 445.898 -3.74813 -2.48667 0
M  V30 4810 C 447.217 -2.15626 -3.83658 0
M  V30 4811 H 444.336 -0.478739 -0.560337 0
M  V30 4812 H 446.978 -1.67305 -0.900498 0
M  V30 4813 H 445.128 -1.93722 -3.36755 0
M  V30 4814 H 446.8 -4.15823 -1.99722 0
M  V30 4815 H 445.043 -3.93989 -1.81535 0
M  V30 4816 H 445.714 -4.35138 -3.39646 0
M  V30 4817 H 448.19 -2.42456 -3.38163 0
M  V30 4818 H 447.066 -2.82694 -4.70506 0
M  V30 4819 H 447.327 -1.14522 -4.27009 0
M  V30 4820 N 446.386 1.0089 -1.21074 0
M  V30 4821 C 447.349 2.0775 -0.968129 0
M  V30 4822 C 448.349 1.6069 0.0593445 0
M  V30 4823 O 449.539 1.73293 -0.177525 0
M  V30 4824 C 446.671 3.37794 -0.459108 0
M  V30 4825 H 447.864 2.30707 -1.9161 0
M  V30 4826 H 445.417 1.17807 -1.02719 0
M  V30 4827 H 446.152 3.20516 0.49397 0
M  V30 4828 H 445.937 3.7328 -1.20019 0
M  V30 4829 H 447.427 4.16454 -0.309099 0
M  V30 4830 N 447.864 1.01787 1.20321 0
M  V30 4831 C 449.141 0.622978 1.85414 0
M  V30 4832 C 449.521 -0.898887 1.91006 0
M  V30 4833 O 448.869 -1.79112 1.41884 0
M  V30 4834 C 449.079 1.27226 3.24984 0
M  V30 4835 C 450.427 1.3885 4.01255 0
M  V30 4836 O 451.451 1.22857 3.34342 0
M  V30 4837 O 450.31 1.64705 5.2109 0
M  V30 4838 H 447.404 0.215116 0.798533 0
M  V30 4839 H 449.95 1.11533 1.27901 0
M  V30 4840 H 448.722 2.31209 3.15687 0
M  V30 4841 H 448.345 0.767069 3.90131 0
M  V30 4842 N 449.342 -1.36122 0.79427 0
M  V30 4843 C 450.292 -2.27373 0.169017 0
M  V30 4844 C 451.276 -1.4719 -0.649913 0
M  V30 4845 O 452.468 -1.69518 -0.50919 0
M  V30 4846 C 449.597 -3.36264 -0.691455 0
M  V30 4847 C 448.683 -4.2388 0.13653 0
M  V30 4848 N 449.074 -4.91519 1.19345 0
M  V30 4849 C 447.372 -4.45921 -0.0838499 0
M  V30 4850 C 448.073 -5.56369 1.6979 0
M  V30 4851 N 447.049 -5.34204 1.00634 0
M  V30 4852 H 450.851 -2.77154 0.977897 0
M  V30 4853 H 448.365 -1.49504 0.634208 0
M  V30 4854 H 450.362 -4.00572 -1.15534 0
M  V30 4855 H 449.022 -2.88037 -1.49883 0
M  V30 4856 H 450.033 -4.9334 1.57594 0
M  V30 4857 H 446.71 -4.08518 -0.861341 0
M  V30 4858 H 448.1 -6.20368 2.58055 0
M  V30 4859 N 450.82 -0.546701 -1.47814 0
M  V30 4860 C 452.069 -0.0166497 -2.01693 0
M  V30 4861 C 452.382 1.33721 -1.42752 0
M  V30 4862 O 453.588 1.95658 -1.8823 0
M  V30 4863 C 452.044 0.0206769 -3.59894 0
M  V30 4864 C 451.652 -1.3293 -4.27824 0
M  V30 4865 C 453.396 0.498674 -4.21561 0
M  V30 4866 C 451.303 -1.25165 -5.78003 0
M  V30 4867 H 450.233 -0.0024541 -0.753996 0
M  V30 4868 H 452.884 -0.692984 -1.69912 0
M  V30 4869 H 451.266 0.76244 -3.88591 0
M  V30 4870 H 452.44 -2.08795 -4.10781 0
M  V30 4871 H 450.755 -1.74438 -3.78101 0
M  V30 4872 H 453.352 0.575 -5.31599 0
M  V30 4873 H 453.695 1.5083 -3.88016 0
M  V30 4874 H 454.228 -0.18791 -3.97356 0
M  V30 4875 H 450.967 -2.23695 -6.1615 0
M  V30 4876 H 450.487 -0.53464 -5.97412 0
M  V30 4877 H 452.166 -0.949299 -6.39998 0
M  V30 4878 N 452.299 1.55045 -0.282633 0
M  V30 4879 C 453.547 1.99365 0.331334 0
M  V30 4880 C 453.868 1.1725 1.55812 0
M  V30 4881 O 453.138 0.263871 1.94115 0
M  V30 4882 H 451.718 0.736397 0.125414 0
M  V30 4883 H 454.38 1.90964 -0.389711 0
M  V30 4884 H 453.476 3.0596 0.616036 0
M  V30 4885 N 453.777 0.010035 1.57597 0
M  V30 4886 C 455.002 -0.687021 1.95691 0
M  V30 4887 C 455.427 -1.65952 0.885519 0
M  V30 4888 O 454.785 -1.80633 -0.15543 0
M  V30 4889 C 454.833 -1.3864 3.32884 0
M  V30 4890 O 453.937 -2.50115 3.27897 0
M  V30 4891 H 453.278 -0.181989 0.638573 0
M  V30 4892 H 455.808 0.0662122 2.04493 0
M  V30 4893 H 455.818 -1.74754 3.6868 0
M  V30 4894 H 454.493 -0.673411 4.10412 0
M  V30 4895 H 453.07 -2.16253 3.03791 0
M  V30 4896 N 455.255 -1.55392 -0.262866 0
M  V30 4897 C 456.165 -1.92077 -1.34698 0
M  V30 4898 C 457.181 -0.819227 -1.53508 0
M  V30 4899 O 458.357 -1.11921 -1.67439 0
M  V30 4900 C 455.422 -2.19407 -2.68443 0
M  V30 4901 C 454.483 -3.42905 -2.58292 0
M  V30 4902 C 453.716 -3.68921 -3.85659 0
M  V30 4903 O 453.939 -2.97275 -4.8681 0
M  V30 4904 O 452.873 -4.62455 -3.85252 0
M  V30 4905 H 456.699 -2.84384 -1.06581 0
M  V30 4906 H 454.284 -1.42069 -0.462264 0
M  V30 4907 H 456.166 -2.38365 -3.47506 0
M  V30 4908 H 454.841 -1.30282 -2.96325 0
M  V30 4909 H 453.748 -3.29272 -1.7757 0
M  V30 4910 H 455.081 -4.32282 -2.35358 0
M  V30 4911 N 456.733 0.527833 -1.48498 0
M  V30 4912 C 457.683 1.62844 -1.5958 0
M  V30 4913 C 458.667 1.54397 -0.452809 0
M  V30 4914 O 459.859 1.62381 -0.704364 0
M  V30 4915 C 456.988 3.01557 -1.64067 0
M  V30 4916 C 456.074 3.151 -2.83853 0
M  V30 4917 N 456.465 2.9861 -4.08247 0
M  V30 4918 C 454.763 3.46158 -2.8123 0
M  V30 4919 C 455.464 3.15626 -4.88626 0
M  V30 4920 N 454.44 3.43298 -4.21483 0
M  V30 4921 H 458.242 1.48708 -2.53502 0
M  V30 4922 H 455.756 0.733343 -1.44899 0
M  V30 4923 H 457.753 3.8062 -1.70101 0
M  V30 4924 H 456.413 3.16783 -0.712636 0
M  V30 4925 H 457.424 2.75329 -4.3865 0
M  V30 4926 H 454.101 3.67728 -1.97692 0
M  V30 4927 H 455.491 3.07596 -5.97356 0
M  V30 4928 N 458.211 1.37122 0.776871 0
M  V30 4929 C 459.441 1.35034 1.56363 0
M  V30 4930 C 459.849 -0.0674681 1.8908 0
M  V30 4931 O 459.192 -1.03826 1.51545 0
M  V30 4932 C 459.254 2.11894 2.90415 0
M  V30 4933 C 458.918 3.60897 2.80362 0
M  V30 4934 C 459.915 4.54887 2.51742 0
M  V30 4935 C 457.6 4.03951 2.98545 0
M  V30 4936 C 459.594 5.89909 2.41426 0
M  V30 4937 C 457.281 5.3906 2.87849 0
M  V30 4938 C 458.279 6.31852 2.5933 0
M  V30 4939 O 457.967 7.64479 2.48651 0
M  V30 4940 H 457.699 0.464402 0.49123 0
M  V30 4941 H 460.253 1.80992 0.971127 0
M  V30 4942 H 458.483 1.60618 3.51765 0
M  V30 4943 H 460.172 2.02505 3.51776 0
M  V30 4944 H 460.938 4.22934 2.37385 0
M  V30 4945 H 456.817 3.3209 3.19746 0
M  V30 4946 H 460.361 6.62304 2.19086 0
M  V30 4947 H 456.258 5.70617 3.01773 0
M  V30 4948 H 457.026 7.74742 2.64039 0
M  V30 4949 N 459.689 -1.00246 1.21608 0
M  V30 4950 C 460.599 -2.12515 0.993709 0
M  V30 4951 C 461.615 -1.73913 -0.0549939 0
M  V30 4952 O 462.791 -2.00943 0.135619 0
M  V30 4953 C 459.856 -3.42083 0.563953 0
M  V30 4954 C 458.917 -3.94843 1.68516 0
M  V30 4955 C 458.15 -5.18226 1.27582 0
M  V30 4956 O 458.373 -5.70201 0.150506 0
M  V30 4957 O 457.307 -5.64497 2.0887 0
M  V30 4958 H 461.133 -2.34152 1.93407 0
M  V30 4959 H 458.718 -1.10891 1.00118 0
M  V30 4960 H 460.6 -4.20073 0.334194 0
M  V30 4961 H 459.275 -3.21828 -0.347665 0
M  V30 4962 H 458.182 -3.18068 1.96935 0
M  V30 4963 H 459.515 -4.19512 2.5743 0
M  V30 4964 N 461.167 -1.02423 -1.1978 0
M  V30 4965 C 462.413 -0.719051 -1.89625 0
M  V30 4966 C 462.746 0.750083 -1.7913 0
M  V30 4967 O 462.021 1.54574 -1.18056 0
M  V30 4968 C 462.304 -1.16499 -3.40735 0
M  V30 4969 C 462.157 -2.695 -3.60125 0
M  V30 4970 C 463.476 -0.742166 -4.33797 0
M  V30 4971 H 460.595 -0.26269 -0.688595 0
M  V30 4972 H 463.237 -1.27333 -1.41018 0
M  V30 4973 H 461.387 -0.69341 -3.82262 0
M  V30 4974 H 463.059 -3.24569 -3.278 0
M  V30 4975 H 461.302 -3.10113 -3.03336 0
M  V30 4976 H 461.973 -2.95757 -4.66081 0
M  V30 4977 H 464.449 -1.1477 -3.99959 0
M  V30 4978 H 463.325 -1.08213 -5.38127 0
M  V30 4979 H 463.586 0.355747 -4.40666 0
M  V30 4980 N 462.645 1.35699 -0.801477 0
M  V30 4981 C 463.575 2.32436 -0.222658 0
M  V30 4982 C 464.556 1.5723 0.649057 0
M  V30 4983 O 465.741 1.85324 0.580387 0
M  V30 4984 C 462.871 3.41469 0.633719 0
M  V30 4985 C 461.825 4.27774 -0.139083 0
M  V30 4986 C 461.151 5.28082 0.838666 0
M  V30 4987 C 462.451 5.04946 -1.33517 0
M  V30 4988 H 464.145 2.81094 -1.03086 0
M  V30 4989 H 461.691 1.35146 -0.497155 0
M  V30 4990 H 463.644 4.08143 1.04868 0
M  V30 4991 H 462.368 2.91408 1.47475 0
M  V30 4992 H 461.027 3.62673 -0.535156 0
M  V30 4993 H 460.675 4.7429 1.67506 0
M  V30 4994 H 460.375 5.86695 0.32594 0
M  V30 4995 H 461.899 5.97628 1.25194 0
M  V30 4996 H 463.313 5.64593 -0.995349 0
M  V30 4997 H 461.71 5.7303 -1.78202 0
M  V30 4998 H 462.78 4.35886 -2.12442 0
M  V30 4999 N 464.123 0.554532 1.47522 0
M  V30 5000 C 465.37 0.029479 2.02479 0
M  V30 5001 C 465.698 -1.31929 1.42916 0
M  V30 5002 O 464.953 -1.87112 0.573385 0
M  V30 5003 C 465.252 -0.115927 3.57212 0
M  V30 5004 C 464.918 1.16161 4.3568 0
M  V30 5005 C 463.58 1.51168 4.56839 0
M  V30 5006 C 465.932 2.0083 4.80954 0
M  V30 5007 C 463.26 2.70696 5.2052 0
M  V30 5008 C 465.612 3.19559 5.45953 0
M  V30 5009 C 464.276 3.54882 5.65345 0
M  V30 5010 H 463.546 0.0107871 0.740921 0
M  V30 5011 H 466.193 0.725506 1.77225 0
M  V30 5012 H 464.498 -0.894902 3.81443 0
M  V30 5013 H 466.195 -0.53749 3.97381 0
M  V30 5014 H 462.785 0.879026 4.19489 0
M  V30 5015 H 466.969 1.75093 4.64388 0
M  V30 5016 H 462.225 2.98236 5.33728 0
M  V30 5017 H 466.399 3.85456 5.79997 0
M  V30 5018 H 464.026 4.47596 6.1446 0
M  V30 5019 N 465.601 -1.54893 0.290851 0
M  V30 5020 C 466.549 -2.24579 -0.605576 0
M  V30 5021 C 467.543 -1.24824 -1.14522 0
M  V30 5022 O 468.749 -1.42706 -1.09704 0
M  V30 5023 H 465.124 -0.720946 -0.213872 0
M  V30 5024 H 467.095 -2.984 0.0048173 0
M  V30 5025 C 465.844 -2.99224 -1.77088 0
M  V30 5026 H 465.167 -3.75782 -1.36484 0
M  V30 5027 H 466.607 -3.51281 -2.3744 0
M  V30 5028 C 465.066 -2.05602 -2.66888 0
M  V30 5029 O 465.596 -1.61745 -3.67698 0
M  V30 5030 N 463.802 -1.71771 -2.34399 0
M  V30 5031 H 463.349 -2.07633 -1.52468 0
M  V30 5032 H 463.307 -1.09403 -2.94751 0
M  V30 5033 N 467.08 -0.0183926 -1.57589 0
M  V30 5034 C 468.305 0.676634 -1.96052 0
M  V30 5035 C 468.73 1.6548 -0.894307 0
M  V30 5036 O 468.088 1.80712 0.145849 0
M  V30 5037 C 468.136 1.36872 -3.33614 0
M  V30 5038 O 467.24 2.48372 -3.29219 0
M  V30 5039 H 466.581 0.1786 -0.63953 0
M  V30 5040 H 469.111 -0.077056 -2.04455 0
M  V30 5041 H 469.121 1.72797 -3.69601 0
M  V30 5042 H 467.796 0.651636 -4.10763 0
M  V30 5043 H 466.373 2.14639 -3.04934 0
M  V30 5044 N 468.558 1.5553 0.254621 0
M  V30 5045 C 469.468 1.92789 1.33677 0
M  V30 5046 C 470.484 0.827356 1.53071 0
M  V30 5047 O 471.66 1.12807 1.66843 0
M  V30 5048 C 468.725 2.20827 2.67275 0
M  V30 5049 C 467.786 3.4427 2.5647 0
M  V30 5050 C 467.019 3.70961 3.83697 0
M  V30 5051 O 467.242 2.99852 4.85227 0
M  V30 5052 O 466.176 4.64491 3.82794 0
M  V30 5053 H 470.002 2.84945 1.05071 0
M  V30 5054 H 467.587 1.42312 0.454723 0
M  V30 5055 H 469.469 2.40204 3.46237 0
M  V30 5056 H 468.144 1.31851 2.9563 0
M  V30 5057 H 467.051 3.30209 1.75821 0
M  V30 5058 H 468.384 4.33524 2.33062 0
M  V30 5059 N 470.036 -0.519951 1.48776 0
M  V30 5060 C 470.946 -1.65025 1.66745 0
M  V30 5061 C 471.962 -1.6508 0.549954 0
M  V30 5062 O 473.138 -1.83848 0.822295 0
M  V30 5063 C 470.203 -3.0146 1.71238 0
M  V30 5064 C 469.264 -3.12182 2.94688 0
M  V30 5065 C 468.497 -4.42109 2.98958 0
M  V30 5066 O 468.72 -5.29799 2.1135 0
M  V30 5067 O 467.654 -4.57406 3.91233 0
M  V30 5068 H 471.48 -1.52801 2.62461 0
M  V30 5069 H 469.065 -0.694157 1.32294 0
M  V30 5070 H 470.947 -3.82584 1.76657 0
M  V30 5071 H 469.622 -3.13988 0.786975 0
M  V30 5072 H 468.529 -2.30316 2.94797 0
M  V30 5073 H 469.862 -3.04574 3.86646 0
M  V30 5074 N 471.514 -1.37532 -0.769588 0
M  V30 5075 C 472.762 -1.32597 -1.5252 0
M  V30 5076 C 473.083 0.0884294 -1.94799 0
M  V30 5077 O 472.353 1.03289 -1.66458 0
M  V30 5078 H 470.933 -0.487846 -0.565699 0
M  V30 5079 H 473.595 -1.72044 -0.915806 0
M  V30 5080 H 472.691 -1.96643 -2.42359 0
M  V30 5081 N 472.992 0.995999 -1.22138 0
M  V30 5082 C 474.241 1.72928 -1.03821 0
M  V30 5083 C 474.554 1.90872 0.427444 0
M  V30 5084 O 475.76 2.61496 0.730212 0
M  V30 5085 C 474.216 3.11124 -1.80913 0
M  V30 5086 C 473.824 3.01122 -3.31707 0
M  V30 5087 C 475.568 3.8852 -1.71035 0
M  V30 5088 C 473.475 4.34453 -4.01253 0
M  V30 5089 H 472.405 0.648376 -0.384869 0
M  V30 5090 H 475.056 1.11213 -1.45959 0
M  V30 5091 H 473.438 3.73503 -1.31573 0
M  V30 5092 H 474.612 2.47926 -3.88419 0
M  V30 5093 H 472.927 2.3721 -3.42228 0
M  V30 5094 H 475.524 4.872 -2.20318 0
M  V30 5095 H 475.867 4.1087 -0.670196 0
M  V30 5096 H 476.4 3.32812 -2.17902 0
M  V30 5097 H 473.139 4.17303 -5.05508 0
M  V30 5098 H 472.659 4.87574 -3.49331 0
M  V30 5099 H 474.338 5.03215 -4.06674 0
M  V30 5100 N 474.47 1.03057 1.19235 0
M  V30 5101 C 475.402 0.570932 2.21975 0
M  V30 5102 C 476.415 -0.354088 1.58903 0
M  V30 5103 O 477.604 -0.150211 1.77867 0
M  V30 5104 C 474.704 -0.187152 3.38383 0
M  V30 5105 C 473.877 0.743231 4.31039 0
M  V30 5106 C 472.936 0.0302493 5.26191 0
M  V30 5107 O 471.962 0.657371 5.65391 0
M  V30 5108 N 473.164 -1.23991 5.67104 0
M  V30 5109 H 475.929 1.45456 2.62036 0
M  V30 5110 H 473.49 0.909807 1.33918 0
M  V30 5111 H 475.482 -0.673715 3.99053 0
M  V30 5112 H 474.052 -0.972205 2.97098 0
M  V30 5113 H 473.272 1.40985 3.68126 0
M  V30 5114 H 474.56 1.3755 4.89854 0
M  V30 5115 H 473.958 -1.77011 5.37293 0
M  V30 5116 H 472.515 -1.67093 6.30018 0
M  V30 5117 N 475.948 -1.35272 0.808662 0
M  V30 5118 C 476.911 -2.28082 0.226093 0
M  V30 5119 C 477.911 -1.49673 -0.587762 0
M  V30 5120 O 479.101 -1.69404 -0.405943 0
M  V30 5121 C 476.233 -3.33955 -0.684596 0
M  V30 5122 H 477.426 -2.81116 1.04469 0
M  V30 5123 H 474.979 -1.45162 0.579466 0
M  V30 5124 H 475.714 -2.86111 -1.5268 0
M  V30 5125 H 475.499 -3.91965 -0.102699 0
M  V30 5126 H 476.989 -4.03219 -1.08646 0
M  V30 5127 N 477.426 -0.562348 -1.47226 0
M  V30 5128 C 478.356 0.170627 -2.32876 0
M  V30 5129 C 479.337 0.903748 -1.44106 0
M  V30 5130 O 480.522 0.883206 -1.72954 0
M  V30 5131 C 477.652 1.19786 -3.25989 0
M  V30 5132 C 476.606 0.580875 -4.2404 0
M  V30 5133 C 475.932 1.71311 -5.06514 0
M  V30 5134 C 477.232 -0.468714 -5.20193 0
M  V30 5135 H 478.926 -0.544441 -2.94408 0
M  V30 5136 H 476.472 -0.263271 -1.41573 0
M  V30 5137 H 478.425 1.71884 -3.84752 0
M  V30 5138 H 477.149 1.94294 -2.62521 0
M  V30 5139 H 475.808 0.0811538 -3.6651 0
M  V30 5140 H 475.456 2.44736 -4.39447 0
M  V30 5141 H 475.156 1.30604 -5.72902 0
M  V30 5142 H 476.68 2.23725 -5.68137 0
M  V30 5143 H 478.094 -0.0336028 -5.7329 0
M  V30 5144 H 476.491 -0.794957 -5.94811 0
M  V30 5145 H 477.561 -1.36269 -4.65359 0
M  V30 5146 N 478.904 1.54736 -0.299062 0
M  V30 5147 C 480.181 1.92187 0.363802 0
M  V30 5148 C 480.561 1.22607 1.71845 0
M  V30 5149 O 479.909 0.361141 2.25628 0
M  V30 5150 C 480.119 3.45678 0.480377 0
M  V30 5151 C 481.467 4.17885 0.752147 0
M  V30 5152 O 482.491 3.51702 0.564264 0
M  V30 5153 O 481.35 5.35048 1.11294 0
M  V30 5154 H 478.444 0.801681 0.203066 0
M  V30 5155 H 480.99 1.66115 -0.346978 0
M  V30 5156 H 479.762 3.88443 -0.471999 0
M  V30 5157 H 479.385 3.77779 1.2397 0
M  V30 5158 N 480.382 0.0267497 1.57577 0
M  V30 5159 C 481.292 -0.971633 2.13533 0
M  V30 5160 C 482.308 -1.35868 1.08701 0
M  V30 5161 O 483.484 -1.44058 1.40746 0
M  V30 5162 C 480.549 -2.23622 2.64941 0
M  V30 5163 C 479.61 -1.90982 3.8448 0
M  V30 5164 C 478.843 -3.11411 4.33427 0
M  V30 5165 O 479.066 -4.23992 3.81558 0
M  V30 5166 O 478 -2.93848 5.25297 0
M  V30 5167 H 481.826 -0.525853 2.99113 0
M  V30 5168 H 479.411 -0.193712 1.48139 0
M  V30 5169 H 481.293 -2.97864 2.98086 0
M  V30 5170 H 479.968 -2.67386 1.82446 0
M  V30 5171 H 478.875 -1.14132 3.56265 0
M  V30 5172 H 480.208 -1.52036 4.6813 0
M  V30 5173 N 481.861 -1.55662 -0.24637 0
M  V30 5174 C 483.107 -1.77782 -0.975779 0
M  V30 5175 C 483.44 -0.592103 -1.84953 0
M  V30 5176 O 482.715 0.409588 -1.90138 0
M  V30 5177 C 482.998 -3.09788 -1.83584 0
M  V30 5178 C 482.851 -4.38764 -0.990241 0
M  V30 5179 C 484.17 -3.38029 -2.81823 0
M  V30 5180 H 481.289 -0.646789 -0.353317 0
M  V30 5181 H 483.931 -1.88398 -0.246248 0
M  V30 5182 H 482.081 -3.00869 -2.45784 0
M  V30 5183 H 483.753 -4.59675 -0.386897 0
M  V30 5184 H 481.996 -4.32798 -0.294626 0
M  V30 5185 H 482.667 -5.27514 -1.62584 0
M  V30 5186 H 485.143 -3.46915 -2.2976 0
M  V30 5187 H 484.019 -4.3161 -3.39122 0
M  V30 5188 H 484.28 -2.58968 -3.58313 0
M  V30 5189 N 483.339 0.512053 -1.4905 0
M  V30 5190 C 484.588 1.26343 -1.57227 0
M  V30 5191 C 484.901 1.93876 -0.259155 0
M  V30 5192 O 486.107 2.70612 -0.219358 0
M  V30 5193 C 484.563 2.29343 -2.77362 0
M  V30 5194 C 484.171 1.67799 -4.15388 0
M  V30 5195 C 485.915 3.05378 -2.94864 0
M  V30 5196 C 483.822 2.68845 -5.2676 0
M  V30 5197 H 482.752 0.475231 -0.585382 0
M  V30 5198 H 485.403 0.53862 -1.75417 0
M  V30 5199 H 483.785 3.04938 -2.52643 0
M  V30 5200 H 484.959 0.982715 -4.50199 0
M  V30 5201 H 483.274 1.04194 -4.03153 0
M  V30 5202 H 485.871 3.80921 -3.75238 0
M  V30 5203 H 486.214 3.62327 -2.05 0
M  V30 5204 H 486.747 2.36898 -3.19569 0
M  V30 5205 H 483.486 2.16692 -6.18647 0
M  V30 5206 H 483.006 3.36647 -4.96416 0
M  V30 5207 H 484.685 3.31487 -5.5563 0
M  V30 5208 N 484.817 1.37938 0.762283 0
M  V30 5209 C 486.064 1.33668 1.52115 0
M  V30 5210 C 486.392 -0.0759538 1.94352 0
M  V30 5211 O 485.647 -1.05121 1.6507 0
M  V30 5212 C 485.946 2.23042 2.79261 0
M  V30 5213 C 485.612 3.71159 2.56031 0
M  V30 5214 C 484.274 4.11523 2.49404 0
M  V30 5215 C 486.626 4.64955 2.35513 0
M  V30 5216 C 483.954 5.43784 2.20263 0
M  V30 5217 C 486.306 5.97464 2.07894 0
M  V30 5218 C 484.97 6.36922 1.99718 0
M  V30 5219 H 484.24 0.489127 0.556629 0
M  V30 5220 H 486.887 1.70224 0.877262 0
M  V30 5221 H 485.192 1.79512 3.48256 0
M  V30 5222 H 486.889 2.17047 3.37182 0
M  V30 5223 H 483.479 3.39153 2.62056 0
M  V30 5224 H 487.663 4.34623 2.39617 0
M  V30 5225 H 482.919 5.73307 2.12435 0
M  V30 5226 H 487.093 6.6969 1.91019 0
M  V30 5227 H 484.72 7.39331 1.76902 0
M  V30 5228 N 486.295 -0.989507 1.22664 0
M  V30 5229 C 487.52 -1.77031 1.08051 0
M  V30 5230 C 487.945 -1.84535 -0.364483 0
M  V30 5231 O 487.303 -1.3003 -1.2634 0
M  V30 5232 C 487.351 -3.18 1.70024 0
M  V30 5233 O 486.455 -4.01161 0.956216 0
M  V30 5234 H 485.796 -0.545008 0.379292 0
M  V30 5235 H 488.326 -1.24277 1.62531 0
M  V30 5236 H 488.336 -3.68616 1.74888 0
M  V30 5237 H 487.011 -3.11853 2.75174 0
M  V30 5238 H 485.588 -3.59687 0.98384 0
M  V30 5239 N 487.773 -1.03688 -1.18687 0
M  V30 5240 C 488.703 -0.645407 -2.24403 0
M  V30 5241 C 489.684 0.349511 -1.66471 0
M  V30 5242 O 490.869 0.230453 -1.92828 0
M  V30 5243 C 487.999 -0.00365337 -3.473 0
M  V30 5244 C 486.953 -0.921705 -4.17958 0
M  V30 5245 C 486.279 -0.144629 -5.34504 0
M  V30 5246 C 487.579 -2.23909 -4.71871 0
M  V30 5247 H 489.273 -1.52917 -2.57404 0
M  V30 5248 H 486.819 -0.736711 -1.23728 0
M  V30 5249 H 488.772 0.281908 -4.20456 0
M  V30 5250 H 487.496 0.914963 -3.13522 0
M  V30 5251 H 486.155 -1.19159 -3.46694 0
M  V30 5252 H 485.803 0.776274 -4.96974 0
M  V30 5253 H 485.503 -0.756206 -5.82714 0
M  V30 5254 H 487.027 0.134004 -6.10453 0
M  V30 5255 H 488.441 -2.0145 -5.36741 0
M  V30 5256 H 486.838 -2.8033 -5.30599 0
M  V30 5257 H 487.908 -2.88822 -3.895 0
M  V30 5258 N 489.251 1.34841 -0.815825 0
M  V30 5259 C 490.161 2.33425 -0.234462 0
M  V30 5260 C 491.177 1.62295 0.627413 0
M  V30 5261 O 492.353 1.94109 0.536987 0
M  V30 5262 C 489.418 3.41471 0.599849 0
M  V30 5263 C 488.479 4.28362 -0.283596 0
M  V30 5264 C 487.712 5.31248 0.51099 0
M  V30 5265 O 487.935 5.43056 1.7449 0
M  V30 5266 O 486.869 6.01812 -0.10297 0
M  V30 5267 H 490.695 2.84962 -1.05024 0
M  V30 5268 H 488.28 1.37774 -0.577809 0
M  V30 5269 H 490.162 4.07464 1.07475 0
M  V30 5270 H 488.837 2.9219 1.39308 0
M  V30 5271 H 487.744 3.65318 -0.805836 0
M  V30 5272 H 489.077 4.81066 -1.041 0
M  V30 5273 N 490.729 0.570148 1.46925 0
M  V30 5274 C 491.957 0.0561966 2.06824 0
M  V30 5275 C 492.372 -1.24326 1.42086 0
M  V30 5276 O 491.729 -1.74882 0.521794 0
M  V30 5277 C 491.78 -0.129517 3.61268 0
M  V30 5278 O 491.501 1.1185 4.23581 0
M  V30 5279 C 493.002 -0.679266 4.38065 0
M  V30 5280 H 490.222 0.0517261 0.669003 0
M  V30 5281 H 492.766 0.787243 1.8874 0
M  V30 5282 H 490.921 -0.810739 3.78822 0
M  V30 5283 H 491.335 0.924375 5.1629 0
M  V30 5284 H 492.809 -0.758445 5.46765 0
M  V30 5285 H 493.286 -1.69346 4.05239 0
M  V30 5286 H 493.892 -0.0333237 4.25287 0
M  V30 5287 N 492.207 -1.54576 0.307264 0
M  V30 5288 C 493.437 -2.04378 -0.302158 0
M  V30 5289 C 493.845 -1.18381 -1.47589 0
M  V30 5290 O 493.188 -0.20352 -1.82569 0
M  V30 5291 C 493.25 -3.50133 -0.815305 0
M  V30 5292 C 492.914 -4.56401 0.233977 0
M  V30 5293 C 493.911 -5.08884 1.06456 0
M  V30 5294 C 491.596 -5.0088 0.377478 0
M  V30 5295 C 493.59 -6.04394 2.02452 0
M  V30 5296 C 491.277 -5.96208 1.34088 0
M  V30 5297 C 492.275 -6.47849 2.16288 0
M  V30 5298 O 491.963 -7.41308 3.10994 0
M  V30 5299 H 491.695 -0.672502 -0.0686839 0
M  V30 5300 H 494.249 -2.00484 0.446682 0
M  V30 5301 H 492.479 -3.51371 -1.61478 0
M  V30 5302 H 494.168 -3.83098 -1.34129 0
M  V30 5303 H 494.934 -4.75311 0.964596 0
M  V30 5304 H 490.813 -4.60309 -0.252405 0
M  V30 5305 H 494.357 -6.44626 2.66652 0
M  V30 5306 H 490.254 -6.29198 1.44154 0
M  V30 5307 H 491.022 -7.5913 3.06045 0
M  V30 5308 N 493.685 -0.035106 -1.57561 0
M  V30 5309 C 494.962 0.681212 -1.83354 0
M  V30 5310 C 495.342 1.89986 -0.920252 0
M  V30 5311 O 494.69 2.28489 0.0226815 0
M  V30 5312 C 494.9 1.05376 -3.32712 0
M  V30 5313 C 496.248 1.44286 -3.99333 0
M  V30 5314 O 497.272 1.14656 -3.37242 0
M  V30 5315 O 496.131 1.99518 -5.08778 0
M  V30 5316 H 493.225 0.334741 -0.756226 0
M  V30 5317 H 495.771 -0.0632448 -1.69582 0
M  V30 5318 H 494.543 0.186668 -3.90854 0
M  V30 5319 H 494.166 1.85619 -3.51613 0
M  V30 5320 N 495.163 1.55791 0.238111 0
M  V30 5321 C 496.412 1.77234 0.962868 0
M  V30 5322 C 496.725 0.600661 1.86149 0
M  V30 5323 O 497.931 0.698315 2.62366 0
M  V30 5324 C 496.387 3.13808 1.76218 0
M  V30 5325 C 495.995 4.3865 0.910518 0
M  V30 5326 C 497.739 3.44585 2.47914 0
M  V30 5327 C 495.646 5.66252 1.70623 0
M  V30 5328 H 494.576 0.660731 0.36325 0
M  V30 5329 H 497.227 1.8221 0.217242 0
M  V30 5330 H 495.609 3.02963 2.55009 0
M  V30 5331 H 496.783 4.60507 0.164316 0
M  V30 5332 H 495.098 4.15271 0.30647 0
M  V30 5333 H 497.695 4.3714 3.07917 0
M  V30 5334 H 498.038 2.66314 3.19973 0
M  V30 5335 H 498.571 3.56685 1.76127 0
M  V30 5336 H 495.31 6.47369 1.02923 0
M  V30 5337 H 494.83 5.48483 2.42748 0
M  V30 5338 H 496.509 6.05829 2.27114 0
M  V30 5339 N 496.642 -0.504142 1.49319 0
M  V30 5340 C 497.87 -1.28256 1.62351 0
M  V30 5341 C 498.285 -1.86502 0.293682 0
M  V30 5342 O 497.642 -1.67678 -0.720449 0
M  V30 5343 C 497.693 -2.41507 2.68992 0
M  V30 5344 O 497.414 -1.85656 3.96817 0
M  V30 5345 C 498.915 -3.32929 2.927 0
M  V30 5346 H 496.135 -0.389115 0.546654 0
M  V30 5347 H 498.679 -0.605531 1.95329 0
M  V30 5348 H 496.834 -3.05046 2.38801 0
M  V30 5349 H 497.248 -2.59981 4.55533 0
M  V30 5350 H 498.722 -4.0868 3.71058 0
M  V30 5351 H 499.199 -3.89733 2.02496 0
M  V30 5352 H 499.805 -2.75158 3.24296 0
M  V30 5353 N 498.12 -1.38341 -0.754957 0
M  V30 5354 C 499.348 -1.37704 -1.54419 0
M  V30 5355 C 499.763 0.0335243 -1.8877 0
M  V30 5356 O 499.12 0.999773 -1.52679 0
M  V30 5357 C 499.171 -2.23136 -2.84416 0
M  V30 5358 O 498.892 -3.58697 -2.51531 0
M  V30 5359 C 500.393 -2.30664 -3.78562 0
M  V30 5360 H 497.613 -0.471061 -0.477852 0
M  V30 5361 H 500.157 -1.81902 -0.934446 0
M  V30 5362 H 498.312 -1.82403 -3.41772 0
M  V30 5363 H 498.726 -4.03665 -3.34896 0
M  V30 5364 H 500.2 -2.9473 -4.66732 0
M  V30 5365 H 500.677 -1.3199 -4.18898 0
M  V30 5366 H 501.283 -2.71781 -3.27131 0
M  V30 5367 N 499.598 0.982988 -1.23187 0
M  V30 5368 C 500.844 1.72648 -1.06398 0
M  V30 5369 C 501.177 1.90066 0.398561 0
M  V30 5370 O 500.452 1.45105 1.29518 0
M  V30 5371 C 500.735 3.12627 -1.78707 0
M  V30 5372 C 500.588 3.02795 -3.32618 0
M  V30 5373 C 501.907 4.11997 -1.54747 0
M  V30 5374 H 499.026 0.626649 -0.387918 0
M  V30 5375 H 501.668 1.14455 -1.51658 0
M  V30 5376 H 499.818 3.62308 -1.40234 0
M  V30 5377 H 501.49 2.60659 -3.80598 0
M  V30 5378 H 499.733 2.39362 -3.61785 0
M  V30 5379 H 500.404 4.01893 -3.78399 0
M  V30 5380 H 502.88 3.71114 -1.88186 0
M  V30 5381 H 501.756 5.08037 -2.07821 0
M  V30 5382 H 502.017 4.39462 -0.482249 0
M  V30 5383 N 501.076 1.04316 1.18135 0
M  V30 5384 C 502.492 0.762858 1.40188 0
M  V30 5385 C 502.692 -0.646547 1.90846 0
M  V30 5386 O 501.748 -1.41036 2.0944 0
M  V30 5387 C 503.061 1.81106 2.40044 0
M  V30 5388 C 504.609 1.83226 2.53766 0
M  V30 5389 C 505.084 2.87044 3.56889 0
M  V30 5390 N 506.575 2.85951 3.64398 0
M  V30 5391 C 507.31 3.62932 4.43923 0
M  V30 5392 N 506.806 4.49672 5.27036 0
M  V30 5393 N 508.599 3.51411 4.38711 0
M  V30 5394 H 500.75 1.95264 0.835805 0
M  V30 5395 H 503.013 0.845017 0.429709 0
M  V30 5396 H 502.719 2.82214 2.09876 0
M  V30 5397 H 502.593 1.64529 3.39426 0
M  V30 5398 H 504.98 0.827869 2.8325 0
M  V30 5399 H 505.061 2.03879 1.54489 0
M  V30 5400 H 504.705 3.87663 3.28145 0
M  V30 5401 H 504.635 2.63645 4.5585 0
M  V30 5402 H 507.126 2.23051 3.05052 0
M  V30 5403 H 507.439 5.05116 5.84874 0
M  V30 5404 H 505.784 4.53738 5.26447 0
M  V30 5405 H 508.975 2.83047 3.72829 0
M  V30 5406 H 509.148 4.11654 5.00445 0
M  V30 5407 N 502.554 -1.34406 0.822964 0
M  V30 5408 C 503.517 -2.2783 0.250271 0
M  V30 5409 C 504.517 -1.50288 -0.571854 0
M  V30 5410 O 505.707 -1.69825 -0.387952 0
M  V30 5411 C 502.839 -3.34663 -0.649137 0
M  V30 5412 H 504.032 -2.79992 1.07444 0
M  V30 5413 H 501.585 -1.44539 0.594829 0
M  V30 5414 H 502.32 -2.87714 -1.49637 0
M  V30 5415 H 502.105 -3.92052 -0.0611199 0
M  V30 5416 H 503.595 -4.04349 -1.04363 0
M  V30 5417 N 504.032 -0.577932 -1.46621 0
M  V30 5418 C 505.257 -0.0652536 -2.07297 0
M  V30 5419 C 505.682 1.22828 -1.4246 0
M  V30 5420 O 505.04 1.74075 -0.506718 0
M  V30 5421 C 505.088 0.0920589 -3.60482 0
M  V30 5422 O 504.192 1.14972 -3.96049 0
M  V30 5423 H 503.533 -0.06065 -0.661224 0
M  V30 5424 H 506.063 -0.799515 -1.88332 0
M  V30 5425 H 506.073 0.299741 -4.06897 0
M  V30 5426 H 504.748 -0.852612 -4.07067 0
M  V30 5427 H 503.325 0.920879 -3.61351 0
M  V30 5428 N 505.51 1.54411 -0.315457 0
M  V30 5429 C 506.756 2.00716 0.289972 0
M  V30 5430 C 507.089 1.2034 1.5242 0
M  V30 5431 O 506.364 0.283579 1.92422 0
M  V30 5432 C 506.647 3.54507 0.632196 0
M  V30 5433 C 506.5 4.45615 -0.61218 0
M  V30 5434 C 507.819 4.15421 1.45305 0
M  V30 5435 H 504.938 0.729637 0.10392 0
M  V30 5436 H 507.58 1.8506 -0.430427 0
M  V30 5437 H 505.73 3.67979 1.24595 0
M  V30 5438 H 507.402 4.44026 -1.25053 0
M  V30 5439 H 505.645 4.15621 -1.24264 0
M  V30 5440 H 506.316 5.51022 -0.328379 0
M  V30 5441 H 508.792 4.05474 0.934331 0
M  V30 5442 H 507.668 5.23157 1.66127 0
M  V30 5443 H 507.929 3.68223 2.44671 0
M  V30 5444 N 506.988 0.0434614 1.5754 0
M  V30 5445 C 508.236 -0.630786 1.92004 0
M  V30 5446 C 508.557 -1.71836 0.921807 0
M  V30 5447 O 507.827 -1.9587 -0.034522 0
M  V30 5448 H 506.407 -0.235988 0.708745 0
M  V30 5449 H 509.069 0.0946462 1.9467 0
M  V30 5450 H 508.165 -1.07434 2.93026 0
M  V30 5451 N 508.466 -1.55915 -0.229846 0
M  V30 5452 C 509.399 -1.86734 -1.3117 0
M  V30 5453 C 510.377 -0.723947 -1.45595 0
M  V30 5454 O 511.561 -0.971462 -1.61539 0
M  V30 5455 C 508.688 -2.06707 -2.68309 0
M  V30 5456 C 507.734 -3.2938 -2.70944 0
M  V30 5457 S 508.567 -4.85547 -2.25842 0
M  V30 5458 C 509.723 -5.08546 -3.64873 0
M  V30 5459 H 509.956 -2.78204 -1.04832 0
M  V30 5460 H 507.489 -1.48243 -0.431681 0
M  V30 5461 H 509.447 -2.18898 -3.47267 0
M  V30 5462 H 508.108 -1.16049 -2.91876 0
M  V30 5463 H 507.301 -3.40374 -3.71701 0
M  V30 5464 H 506.903 -3.16004 -2.00044 0
M  V30 5465 H 509.195 -4.96935 -4.60502 0
M  V30 5466 H 510.138 -6.10465 -3.58801 0
M  V30 5467 H 510.546 -4.36314 -3.58176 0
M  V30 5468 N 509.944 0.496216 -1.49584 0
M  V30 5469 C 511.174 1.27209 -1.62793 0
M  V30 5470 C 511.582 1.86799 -0.300476 0
M  V30 5471 O 510.925 1.68802 0.724674 0
M  V30 5472 C 510.987 2.43812 -2.64189 0
M  V30 5473 C 510.651 2.05055 -4.08414 0
M  V30 5474 C 511.648 1.58752 -4.9507 0
M  V30 5475 C 509.333 2.14543 -4.54177 0
M  V30 5476 C 511.327 1.22448 -6.25528 0
M  V30 5477 C 509.014 1.77851 -5.84647 0
M  V30 5478 C 510.012 1.31878 -6.70147 0
M  V30 5479 O 509.7 0.956834 -7.98185 0
M  V30 5480 H 509.432 0.391848 -0.550846 0
M  V30 5481 H 511.986 0.601712 -1.96389 0
M  V30 5482 H 510.216 3.13941 -2.25783 0
M  V30 5483 H 511.905 3.05829 -2.66877 0
M  V30 5484 H 512.671 1.50863 -4.60939 0
M  V30 5485 H 508.55 2.49277 -3.87791 0
M  V30 5486 H 512.094 0.864933 -6.92217 0
M  V30 5487 H 507.991 1.8539 -6.18305 0
M  V30 5488 H 508.759 1.08789 -8.11238 0
M  V30 5489 N 511.423 1.38739 0.74761 0
M  V30 5490 C 512.353 1.39173 1.87492 0
M  V30 5491 C 513.334 0.256794 1.6815 0
M  V30 5492 O 514.519 0.460762 1.88655 0
M  V30 5493 C 511.649 1.22197 3.25093 0
M  V30 5494 C 510.603 2.32957 3.59047 0
M  V30 5495 C 509.929 2.01082 4.95449 0
M  V30 5496 C 511.229 3.75237 3.6331 0
M  V30 5497 H 512.923 2.3351 1.87386 0
M  V30 5498 H 510.469 1.12399 0.900134 0
M  V30 5499 H 512.422 1.21124 4.03617 0
M  V30 5500 H 511.146 0.243241 3.25693 0
M  V30 5501 H 509.805 2.33226 2.82845 0
M  V30 5502 H 509.453 1.01678 4.92616 0
M  V30 5503 H 509.153 2.75267 5.19136 0
M  V30 5504 H 510.677 2.01638 5.76346 0
M  V30 5505 H 512.091 3.76966 4.31937 0
M  V30 5506 H 510.488 4.48677 3.98509 0
M  V30 5507 H 511.558 4.07122 2.634 0
M  V30 5508 N 512.901 -0.976442 1.23707 0
M  V30 5509 C 514.15 -1.71254 1.06559 0
M  V30 5510 C 514.463 -1.91528 -0.397024 0
M  V30 5511 O 515.669 -2.62625 -0.688518 0
M  V30 5512 C 514.125 -3.08207 1.8584 0
M  V30 5513 C 513.733 -2.95806 3.36456 0
M  V30 5514 C 515.477 -3.85749 1.77194 0
M  V30 5515 C 513.384 -4.28015 4.08114 0
M  V30 5516 H 512.314 -0.642171 0.395136 0
M  V30 5517 H 514.965 -1.08877 1.4771 0
M  V30 5518 H 513.347 -3.71363 1.37498 0
M  V30 5519 H 514.521 -2.41716 3.92314 0
M  V30 5520 H 512.836 -2.31736 3.45959 0
M  V30 5521 H 515.433 -4.83633 2.28041 0
M  V30 5522 H 515.776 -4.09752 0.735477 0
M  V30 5523 H 516.309 -3.29303 2.23169 0
M  V30 5524 H 513.048 -4.09208 5.12083 0
M  V30 5525 H 512.568 -4.81955 3.57043 0
M  V30 5526 H 514.247 -4.96681 4.14629 0
M  V30 5527 N 514.379 -1.04941 -1.1758 0
M  V30 5528 C 515.604 -0.778253 -1.92245 0
M  V30 5529 C 516.029 0.659707 -1.76152 0
M  V30 5530 O 515.387 1.45803 -1.07755 0
M  V30 5531 C 515.435 -1.16051 -3.41416 0
M  V30 5532 O 514.539 -0.291153 -4.11371 0
M  V30 5533 H 513.88 -0.285619 -0.599431 0
M  V30 5534 H 516.41 -1.40159 -1.49052 0
M  V30 5535 H 516.42 -1.12619 -3.92149 0
M  V30 5536 H 515.095 -2.208 -3.52449 0
M  V30 5537 H 513.672 -0.385851 -3.70898 0
M  V30 5538 N 515.857 1.33968 -0.830081 0
M  V30 5539 C 516.804 2.29387 -0.255008 0
M  V30 5540 C 517.774 1.53923 0.624243 0
M  V30 5541 O 518.959 1.82262 0.564372 0
M  V30 5542 C 516.099 3.4034 0.571209 0
M  V30 5543 C 515.212 4.30729 -0.331083 0
M  V30 5544 C 514.347 5.2879 0.505389 0
M  V30 5545 C 513.386 6.10819 -0.395843 0
M  V30 5546 N 512.523 7.00948 0.401979 0
M  V30 5547 H 517.363 2.77972 -1.07404 0
M  V30 5548 H 514.9 1.36785 -0.541133 0
M  V30 5549 H 516.858 4.03361 1.06562 0
M  V30 5550 H 515.488 2.9297 1.35529 0
M  V30 5551 H 514.54 3.68507 -0.943759 0
M  V30 5552 H 515.852 4.88181 -1.02377 0
M  V30 5553 H 515.006 5.97297 1.06399 0
M  V30 5554 H 513.745 4.71894 1.23155 0
M  V30 5555 H 512.75 5.41238 -0.966529 0
M  V30 5556 H 513.975 6.69797 -1.12023 0
M  V30 5557 H 511.921 6.46512 1.11168 0
M  V30 5558 H 511.838 7.55643 -0.232167 0
M  V30 5559 H 513.106 7.73774 0.943102 0
M  V30 5560 N 517.335 0.585699 1.46312 0
M  V30 5561 C 518.565 0.0780166 2.06453 0
M  V30 5562 C 518.973 -1.2336 1.43454 0
M  V30 5563 O 518.316 -1.75734 0.535086 0
M  V30 5564 C 518.378 -0.158951 3.59148 0
M  V30 5565 C 518.042 1.06752 4.44357 0
M  V30 5566 C 519.039 1.98031 4.80708 0
M  V30 5567 C 516.724 1.2902 4.85447 0
M  V30 5568 C 518.718 3.09924 5.5698 0
M  V30 5569 C 516.405 2.41218 5.61478 0
M  V30 5570 C 517.403 3.31499 5.97158 0
M  V30 5571 O 517.091 4.41747 6.71651 0
M  V30 5572 H 516.823 0.0558894 0.673686 0
M  V30 5573 H 519.377 0.806994 1.88883 0
M  V30 5574 H 517.607 -0.942575 3.75037 0
M  V30 5575 H 519.296 -0.615513 4.01206 0
M  V30 5576 H 520.062 1.82043 4.49539 0
M  V30 5577 H 515.941 0.596567 4.57124 0
M  V30 5578 H 519.485 3.80415 5.84748 0
M  V30 5579 H 515.382 2.57167 5.9206 0
M  V30 5580 H 516.15 4.40152 6.90079 0
M  V30 5581 N 518.813 -1.54241 0.323641 0
M  V30 5582 C 520.062 -1.9975 -0.279806 0
M  V30 5583 C 520.375 -1.2156 -1.5324 0
M  V30 5584 O 521.581 -1.57447 -2.21185 0
M  V30 5585 C 520.037 -3.55686 -0.549115 0
M  V30 5586 C 519.645 -4.4271 0.686432 0
M  V30 5587 C 521.389 -4.09663 -1.11251 0
M  V30 5588 C 519.296 -5.90119 0.389022 0
M  V30 5589 H 518.226 -0.746177 -0.10833 0
M  V30 5590 H 520.877 -1.78248 0.435877 0
M  V30 5591 H 519.259 -3.73176 -1.32499 0
M  V30 5592 H 520.433 -4.36996 1.46188 0
M  V30 5593 H 518.748 -3.99623 1.17005 0
M  V30 5594 H 521.345 -5.17386 -1.34965 0
M  V30 5595 H 521.688 -3.61651 -2.06191 0
M  V30 5596 H 522.221 -3.95806 -0.39782 0
M  V30 5597 H 518.96 -6.42326 1.30759 0
M  V30 5598 H 518.48 -5.98785 -0.348722 0
M  V30 5599 H 520.159 -6.47 -0.0011164 0
M  V30 5600 N 520.291 -0.0518155 -1.57515 0
M  V30 5601 C 521.707 0.304735 -1.56664 0
M  V30 5602 C 521.907 1.71395 -1.05953 0
M  V30 5603 O 520.963 2.42123 -0.716414 0
M  V30 5604 C 522.276 0.132614 -3.00407 0
M  V30 5605 C 523.824 0.20367 -3.12337 0
M  V30 5606 C 524.299 0.0600706 -4.57961 0
M  V30 5607 N 525.79 0.116326 -4.63054 0
M  V30 5608 C 526.525 0.0293363 -5.73392 0
M  V30 5609 N 526.021 -0.110038 -6.92713 0
M  V30 5610 N 527.814 0.0849651 -5.62036 0
M  V30 5611 H 519.965 -0.973056 -1.888 0
M  V30 5612 H 522.228 -0.377781 -0.869474 0
M  V30 5613 H 521.934 -0.839019 -3.41546 0
M  V30 5614 H 521.808 0.893376 -3.66468 0
M  V30 5615 H 524.195 1.16578 -2.71097 0
M  V30 5616 H 524.276 -0.587857 -2.48954 0
M  V30 5617 H 523.92 -0.898715 -4.99886 0
M  V30 5618 H 523.85 0.87075 -5.19351 0
M  V30 5619 H 526.341 0.22327 -3.7724 0
M  V30 5620 H 526.654 -0.169104 -7.72615 0
M  V30 5621 H 524.999 -0.145132 -6.94848 0
M  V30 5622 H 528.19 0.192411 -4.67704 0
M  V30 5623 H 528.363 0.0137131 -6.47999 0
M  V30 5624 N 521.769 1.56035 0.221574 0
M  V30 5625 C 522.716 1.92413 1.27459 0
M  V30 5626 C 523.686 0.781323 1.46576 0
M  V30 5627 O 524.871 1.03721 1.60145 0
M  V30 5628 C 522.011 2.24617 2.61995 0
M  V30 5629 C 521.124 3.51831 2.50677 0
M  V30 5630 C 520.259 3.73482 3.77736 0
M  V30 5631 C 519.298 4.94211 3.6114 0
M  V30 5632 N 518.435 5.12252 4.80148 0
M  V30 5633 H 523.275 2.82203 0.957355 0
M  V30 5634 H 520.812 1.39676 0.461415 0
M  V30 5635 H 522.77 2.41298 3.40339 0
M  V30 5636 H 521.4 1.38 2.91815 0
M  V30 5637 H 520.452 3.43343 1.63767 0
M  V30 5638 H 521.764 4.40328 2.34334 0
M  V30 5639 H 520.918 3.9026 4.64523 0
M  V30 5640 H 519.657 2.83266 3.97003 0
M  V30 5641 H 518.662 4.77384 2.72736 0
M  V30 5642 H 519.887 5.85912 3.43343 0
M  V30 5643 H 517.833 4.24978 4.99729 0
M  V30 5644 H 517.75 5.94881 4.66532 0
M  V30 5645 H 519.018 5.33465 5.68362 0
M  V30 5646 N 523.247 -0.488276 1.49845 0
M  V30 5647 C 524.195 -1.60917 1.67954 0
M  V30 5648 C 525.189 -1.6038 0.54539 0
M  V30 5649 O 526.395 -1.64736 0.7254 0
M  V30 5650 H 522.77 -0.533658 0.529824 0
M  V30 5651 H 524.741 -1.428 2.62013 0
M  V30 5652 C 523.49 -2.98975 1.77509 0
M  V30 5653 H 522.813 -3.00099 2.6416 0
M  V30 5654 H 524.253 -3.76906 1.9421 0
M  V30 5655 C 522.712 -3.3282 0.522745 0
M  V30 5656 O 523.242 -4.00208 -0.345866 0
M  V30 5657 N 521.448 -2.8808 0.381882 0
M  V30 5658 H 520.995 -2.33415 1.08974 0
M  V30 5659 H 520.953 -3.11091 -0.454929 0
M  V30 5660 N 524.725 -1.39134 -0.740242 0
M  V30 5661 C 525.953 -1.39334 -1.5295 0
M  V30 5662 C 526.368 0.0135008 -1.88795 0
M  V30 5663 O 525.725 0.983524 -1.5373 0
M  V30 5664 C 525.776 -2.2614 -2.82034 0
M  V30 5665 O 525.497 -3.61345 -2.47712 0
M  V30 5666 C 526.998 -2.34666 -3.76094 0
M  V30 5667 H 524.218 -0.476103 -0.472828 0
M  V30 5668 H 526.762 -1.82883 -0.9151 0
M  V30 5669 H 524.917 -1.86018 -3.39818 0
M  V30 5670 H 525.331 -4.07194 -3.30595 0
M  V30 5671 H 526.805 -2.99663 -4.63579 0
M  V30 5672 H 527.282 -1.36426 -4.17474 0
M  V30 5673 H 527.888 -2.75236 -3.2423 0
M  V30 5674 N 526.204 0.969867 -1.24223 0
M  V30 5675 C 527.481 1.68774 -0.988664 0
M  V30 5676 C 527.861 2.05342 0.489673 0
M  V30 5677 O 527.209 1.75486 1.46345 0
M  V30 5678 C 527.419 2.92135 -1.90941 0
M  V30 5679 C 528.767 3.64422 -2.17903 0
M  V30 5680 O 529.791 3.02188 -1.88576 0
M  V30 5681 O 528.65 4.76446 -2.67697 0
M  V30 5682 H 525.744 0.737736 -0.37373 0
M  V30 5683 H 528.29 1.02415 -1.35312 0
M  V30 5684 H 527.062 2.61788 -2.90831 0
M  V30 5685 H 526.685 3.66228 -1.54798 0
M  V30 5686 N 527.682 1.05563 1.17022 0
M  V30 5687 C 528.907 0.788437 1.91829 0
M  V30 5688 C 529.332 -0.650356 1.76499 0
M  V30 5689 O 528.69 -1.45229 1.08527 0
M  V30 5690 C 528.738 1.1786 3.40795 0
M  V30 5691 O 527.842 0.312965 4.11211 0
M  V30 5692 H 527.183 0.288794 0.597908 0
M  V30 5693 H 529.713 1.40948 1.48307 0
M  V30 5694 H 529.723 1.14697 3.91546 0
M  V30 5695 H 528.398 2.22666 3.51273 0
M  V30 5696 H 526.975 0.405515 3.70689 0
M  V30 5697 N 529.16 -1.33526 0.837174 0
M  V30 5698 C 530.406 -1.9813 0.432704 0
M  V30 5699 C 530.739 -1.66168 -1.00508 0
M  V30 5700 O 530.014 -0.94069 -1.70239 0
M  V30 5701 C 530.297 -3.54151 0.651834 0
M  V30 5702 C 530.15 -3.95806 2.13676 0
M  V30 5703 C 531.469 -4.39993 0.0968937 0
M  V30 5704 H 528.588 -0.719713 0.15869 0
M  V30 5705 H 531.23 -1.58193 1.05237 0
M  V30 5706 H 529.38 -3.88301 0.124369 0
M  V30 5707 H 531.052 -3.71921 2.72896 0
M  V30 5708 H 529.295 -3.45599 2.62191 0
M  V30 5709 H 529.966 -5.0447 2.24084 0
M  V30 5710 H 532.442 -4.12479 0.547733 0
M  V30 5711 H 531.318 -5.48186 0.279917 0
M  V30 5712 H 531.579 -4.3066 -0.9992 0
M  V30 5713 N 530.638 -0.59345 -1.46 0
M  V30 5714 C 531.884 -0.0832754 -2.02629 0
M  V30 5715 C 532.217 1.27749 -1.46266 0
M  V30 5716 O 531.492 1.8395 -0.631866 0
M  V30 5717 C 531.775 -0.0290756 -3.60088 0
M  V30 5718 C 531.628 -1.41951 -4.26814 0
M  V30 5719 C 532.947 0.666055 -4.35031 0
M  V30 5720 H 530.066 -0.031736 -0.736316 0
M  V30 5721 H 532.708 -0.762711 -1.74019 0
M  V30 5722 H 530.858 0.549532 -3.84594 0
M  V30 5723 H 532.53 -2.04411 -4.13538 0
M  V30 5724 H 530.773 -1.98422 -3.8576 0
M  V30 5725 H 531.444 -1.33395 -5.3564 0
M  V30 5726 H 533.92 0.174401 -4.15734 0
M  V30 5727 H 532.796 0.673041 -5.44758 0
M  V30 5728 H 533.057 1.72946 -4.06869 0
M  V30 5729 N 532.116 1.54067 -0.331816 0
M  V30 5730 C 533.365 1.99895 0.269209 0
M  V30 5731 C 533.678 1.22371 1.52593 0
M  V30 5732 O 534.884 1.58618 2.20347 0
M  V30 5733 C 533.34 3.55972 0.530244 0
M  V30 5734 C 532.948 4.4234 -0.709901 0
M  V30 5735 C 534.692 4.10247 1.09077 0
M  V30 5736 C 532.599 5.89905 -0.420312 0
M  V30 5737 H 531.529 0.746741 0.104371 0
M  V30 5738 H 534.18 1.78014 -0.445324 0
M  V30 5739 H 532.562 3.73873 1.30518 0
M  V30 5740 H 533.736 4.36215 -1.48504 0
M  V30 5741 H 532.051 3.98997 -1.19123 0
M  V30 5742 H 534.648 5.18095 1.32219 0
M  V30 5743 H 534.991 3.62739 2.0427 0
M  V30 5744 H 535.524 3.96011 0.376824 0
M  V30 5745 H 532.263 6.41623 -1.34164 0
M  V30 5746 H 531.783 5.98962 0.316962 0
M  V30 5747 H 533.462 6.46991 -0.0331956 0
M  V30 5748 N 533.594 0.0601682 1.57485 0
M  V30 5749 C 534.841 -0.611594 1.93043 0
M  V30 5750 C 535.169 -1.70317 0.939274 0
M  V30 5751 O 534.424 -1.95644 -0.046996 0
M  V30 5752 C 534.723 -1.23831 3.35262 0
M  V30 5753 C 534.389 -0.274037 4.50066 0
M  V30 5754 C 533.051 -0.00872394 4.81199 0
M  V30 5755 C 535.403 0.386308 5.19766 0
M  V30 5756 C 532.731 0.924218 5.79375 0
M  V30 5757 C 535.083 1.3075 6.1894 0
M  V30 5758 C 533.747 1.58139 6.48497 0
M  V30 5759 H 533.017 -0.223798 0.706396 0
M  V30 5760 H 535.664 0.128566 1.91068 0
M  V30 5761 H 533.969 -2.05394 3.33647 0
M  V30 5762 H 535.666 -1.76517 3.60059 0
M  V30 5763 H 532.256 -0.491008 4.25778 0
M  V30 5764 H 536.44 0.194436 4.95919 0
M  V30 5765 H 531.696 1.1438 6.00606 0
M  V30 5766 H 535.87 1.82519 6.72056 0
M  V30 5767 H 533.497 2.30593 7.24383 0
M  V30 5768 N 535.072 -1.5615 -0.213296 0
M  V30 5769 C 536.297 -1.83986 -0.957282 0
M  V30 5770 C 536.722 -0.641526 -1.76822 0
M  V30 5771 O 536.08 0.409722 -1.7661 0
M  V30 5772 C 536.128 -3.09889 -1.84393 0
M  V30 5773 O 535.232 -2.89163 -2.94038 0
M  V30 5774 H 534.573 -0.606357 -0.270605 0
M  V30 5775 H 537.103 -2.03369 -0.224111 0
M  V30 5776 H 537.113 -3.40209 -2.25215 0
M  V30 5777 H 535.788 -3.96735 -1.24795 0
M  V30 5778 H 534.365 -2.70097 -2.57103 0
M  V30 5779 N 536.55 0.480323 -1.50102 0
M  V30 5780 C 537.798 1.23063 -1.60312 0
M  V30 5781 C 538.119 1.92659 -0.301226 0
M  V30 5782 O 537.389 1.83691 0.680753 0
M  V30 5783 H 535.969 0.457231 -0.590719 0
M  V30 5784 H 538.631 0.554893 -1.86834 0
M  V30 5785 H 537.727 1.9835 -2.40964 0
M  V30 5786 N 538.028 1.39524 0.732853 0
M  V30 5787 C 538.938 1.40695 1.87729 0
M  V30 5788 C 539.954 0.301496 1.71368 0
M  V30 5789 O 541.13 0.543313 1.93933 0
M  V30 5790 C 538.195 1.25098 3.23344 0
M  V30 5791 C 537.256 2.45634 3.52083 0
M  V30 5792 C 536.489 2.30772 4.81228 0
M  V30 5793 O 536.712 1.31233 5.55098 0
M  V30 5794 O 535.646 3.19799 5.09914 0
M  V30 5795 H 539.472 2.37168 1.89697 0
M  V30 5796 H 537.057 1.20663 0.880959 0
M  V30 5797 H 538.939 1.18541 4.04383 0
M  V30 5798 H 537.614 0.317209 3.22142 0
M  V30 5799 H 536.521 2.57767 2.71122 0
M  V30 5800 H 537.854 3.37712 3.58066 0
M  V30 5801 N 539.506 -0.963266 1.24736 0
M  V30 5802 C 540.754 -1.70343 1.08755 0
M  V30 5803 C 541.075 -1.91387 -0.373619 0
M  V30 5804 O 540.345 -1.4948 -1.2662 0
M  V30 5805 H 538.925 -0.631224 0.399456 0
M  V30 5806 H 541.587 -1.15859 1.56725 0
M  V30 5807 H 540.683 -2.68616 1.58909 0
M  V30 5808 N 540.985 -1.06182 -1.16461 0
M  V30 5809 C 542.21 -0.798599 -1.91408 0
M  V30 5810 C 542.635 0.640987 -1.76842 0
M  V30 5811 O 541.993 1.44652 -1.09296 0
M  V30 5812 C 542.041 -1.19665 -3.40165 0
M  V30 5813 O 541.145 -0.334768 -4.11039 0
M  V30 5814 H 540.486 -0.291961 -0.596368 0
M  V30 5815 H 543.016 -1.41732 -1.47557 0
M  V30 5816 H 543.026 -1.16772 -3.90933 0
M  V30 5817 H 541.701 -2.24526 -3.50087 0
M  V30 5818 H 540.278 -0.425168 -3.70468 0
M  V30 5819 N 542.463 1.3308 -0.844243 0
M  V30 5820 C 543.74 1.92178 -0.364261 0
M  V30 5821 C 544.12 1.76961 1.15101 0
M  V30 5822 O 543.468 1.16128 1.9679 0
M  V30 5823 C 543.678 3.393 -0.817106 0
M  V30 5824 C 545.026 4.16444 -0.828236 0
M  V30 5825 O 546.05 3.47975 -0.761062 0
M  V30 5826 O 544.909 5.38685 -0.920926 0
M  V30 5827 H 542.003 0.820411 -0.10419 0
M  V30 5828 H 544.549 1.41918 -0.930453 0
M  V30 5829 H 543.321 3.44272 -1.85991 0
M  V30 5830 H 542.944 3.96947 -0.227785 0
M  V30 5831 N 543.941 0.601185 1.45683 0
M  V30 5832 C 544.851 -0.123395 2.34275 0
M  V30 5833 C 545.867 -0.86702 1.5086 0
M  V30 5834 O 547.043 -0.826049 1.8368 0
M  V30 5835 C 544.108 -1.11237 3.2837 0
M  V30 5836 C 543.169 -0.371405 4.2769 0
M  V30 5837 C 542.402 -1.31327 5.1729 0
M  V30 5838 O 542.625 -2.55078 5.10188 0
M  V30 5839 O 541.559 -0.813811 5.96373 0
M  V30 5840 H 545.385 0.604483 2.97623 0
M  V30 5841 H 542.97 0.361477 1.44961 0
M  V30 5842 H 544.852 -1.68214 3.8637 0
M  V30 5843 H 543.527 -1.82139 2.67595 0
M  V30 5844 H 542.434 0.24067 3.73325 0
M  V30 5845 H 543.767 0.296998 4.91303 0
M  V30 5846 N 545.419 -1.53889 0.339982 0
M  V30 5847 C 546.349 -2.27843 -0.510856 0
M  V30 5848 C 547.33 -1.29267 -1.10563 0
M  V30 5849 O 548.515 -1.58104 -1.12768 0
M  V30 5850 C 545.645 -3.04857 -1.66372 0
M  V30 5851 C 544.599 -4.10907 -1.19746 0
M  V30 5852 C 543.925 -4.75855 -2.43857 0
M  V30 5853 C 545.225 -5.21435 -0.300501 0
M  V30 5854 H 546.919 -2.99212 0.106067 0
M  V30 5855 H 544.465 -1.43904 0.0524533 0
M  V30 5856 H 546.418 -3.5533 -2.26537 0
M  V30 5857 H 545.142 -2.31133 -2.30749 0
M  V30 5858 H 543.801 -3.61342 -0.618654 0
M  V30 5859 H 543.449 -3.9873 -3.06633 0
M  V30 5860 H 543.149 -5.47502 -2.13343 0
M  V30 5861 H 544.673 -5.2911 -3.04754 0
M  V30 5862 H 546.087 -5.67565 -0.80889 0
M  V30 5863 H 544.484 -6.00036 -0.0874076 0
M  V30 5864 H 545.554 -4.80328 0.664321 0
M  V30 5865 N 546.897 -0.0685191 -1.57451 0
M  V30 5866 C 548.125 0.610462 -1.97689 0
M  V30 5867 C 548.54 1.63346 -0.946758 0
M  V30 5868 O 547.897 1.82377 0.0669868 0
M  V30 5869 C 547.948 1.28196 -3.38006 0
M  V30 5870 O 547.669 0.299906 -4.37072 0
M  V30 5871 C 549.17 2.04907 -3.931 0
M  V30 5872 H 546.39 0.165689 -0.650222 0
M  V30 5873 H 548.934 -0.139953 -2.04021 0
M  V30 5874 H 547.089 1.98348 -3.32771 0
M  V30 5875 H 547.503 0.78126 -5.18649 0
M  V30 5876 H 548.977 2.47287 -4.93511 0
M  V30 5877 H 549.454 2.9043 -3.29465 0
M  V30 5878 H 550.06 1.39629 -4.01726 0
M  V30 5879 N 548.375 1.56261 0.205012 0
M  V30 5880 C 549.307 1.90266 1.27795 0
M  V30 5881 C 550.32 0.792397 1.42214 0
M  V30 5882 O 551.509 1.07077 1.42817 0
M  V30 5883 C 548.609 2.11074 2.65143 0
M  V30 5884 C 547.782 3.42176 2.7246 0
M  V30 5885 C 546.841 3.52216 3.90936 0
M  V30 5886 O 545.867 4.25119 3.78501 0
M  V30 5887 N 547.069 2.84573 5.05963 0
M  V30 5888 H 549.834 2.82896 0.989434 0
M  V30 5889 H 547.395 1.57008 0.394981 0
M  V30 5890 H 549.387 2.15089 3.4281 0
M  V30 5891 H 547.957 1.2499 2.86524 0
M  V30 5892 H 547.177 3.50116 1.81142 0
M  V30 5893 H 548.465 4.28509 2.74331 0
M  V30 5894 H 547.863 2.25152 5.18963 0
M  V30 5895 H 546.42 2.94228 5.81613 0
M  V30 5896 N 549.853 -0.472356 1.50355 0
M  V30 5897 C 551.101 -1.22211 1.60962 0
M  V30 5898 C 551.422 -1.92497 0.311439 0
M  V30 5899 O 550.692 -1.8405 -0.671002 0
M  V30 5900 H 549.272 -0.454092 0.593135 0
M  V30 5901 H 551.934 -0.544977 1.87126 0
M  V30 5902 H 551.03 -1.9707 2.42012 0
M  V30 5903 N 551.331 -1.39911 -0.725443 0
M  V30 5904 C 552.561 -1.40744 -1.51244 0
M  V30 5905 C 552.969 -0.00275403 -1.892 0
M  V30 5906 O 552.312 0.981299 -1.55294 0
M  V30 5907 C 552.374 -2.22527 -2.82351 0
M  V30 5908 C 552.038 -3.71053 -2.66774 0
M  V30 5909 C 553.035 -4.63916 -2.34686 0
M  V30 5910 C 550.72 -4.14753 -2.83347 0
M  V30 5911 C 552.714 -5.98463 -2.19366 0
M  V30 5912 C 550.401 -5.49372 -2.67644 0
M  V30 5913 C 551.399 -6.41042 -2.357 0
M  V30 5914 O 551.087 -7.73181 -2.20107 0
M  V30 5915 H 550.819 -0.482314 -0.473655 0
M  V30 5916 H 553.373 -1.84472 -0.903284 0
M  V30 5917 H 551.603 -1.73563 -3.45562 0
M  V30 5918 H 553.292 -2.15421 -3.44018 0
M  V30 5919 H 554.058 -4.31453 -2.21525 0
M  V30 5920 H 549.937 -3.43728 -3.072 0
M  V30 5921 H 553.481 -6.69979 -1.94354 0
M  V30 5922 H 549.378 -5.81424 -2.80387 0
M  V30 5923 H 550.146 -7.84008 -2.35103 0
M  V30 5924 N 552.809 0.956637 -1.25245 0
M  V30 5925 C 554.058 1.69537 -1.0927 0
M  V30 5926 C 554.371 1.92136 0.366503 0
M  V30 5927 O 555.577 2.63687 0.64665 0
M  V30 5928 C 554.033 3.05211 -1.9072 0
M  V30 5929 C 553.641 2.90416 -3.41119 0
M  V30 5930 C 555.385 3.82882 -1.83308 0
M  V30 5931 C 553.292 4.21468 -4.14872 0
M  V30 5932 H 552.222 0.635804 -0.405302 0
M  V30 5933 H 554.873 1.06513 -1.49423 0
M  V30 5934 H 553.255 3.69128 -1.43389 0
M  V30 5935 H 554.429 2.35444 -3.9611 0
M  V30 5936 H 552.744 2.26203 -3.49602 0
M  V30 5937 H 555.341 4.79944 -2.35706 0
M  V30 5938 H 555.684 4.0853 -0.800572 0
M  V30 5939 H 556.217 3.25711 -2.28379 0
M  V30 5940 H 552.956 4.01009 -5.18529 0
M  V30 5941 H 552.476 4.76213 -3.64665 0
M  V30 5942 H 554.155 4.90022 -4.22478 0
M  V30 5943 N 554.287 1.06798 1.15896 0
M  V30 5944 C 555.517 0.807522 1.90165 0
M  V30 5945 C 555.925 -0.642417 1.7796 0
M  V30 5946 O 555.268 -1.45193 1.12537 0
M  V30 5947 C 555.33 1.12939 3.41299 0
M  V30 5948 C 554.994 2.57879 3.7729 0
M  V30 5949 C 555.991 3.56118 3.78782 0
M  V30 5950 C 553.676 2.93311 4.07767 0
M  V30 5951 C 555.67 4.87827 4.10248 0
M  V30 5952 C 553.357 4.25219 4.38899 0
M  V30 5953 C 554.355 5.22287 4.4012 0
M  V30 5954 O 554.043 6.51826 4.70508 0
M  V30 5955 H 553.775 0.291946 0.609708 0
M  V30 5956 H 556.329 1.42627 1.47806 0
M  V30 5957 H 554.559 0.45359 3.84031 0
M  V30 5958 H 556.248 0.852363 3.9685 0
M  V30 5959 H 557.014 3.30086 3.55342 0
M  V30 5960 H 552.893 2.18409 4.05979 0
M  V30 5961 H 556.437 5.63586 4.11116 0
M  V30 5962 H 552.334 4.51006 4.61805 0
M  V30 5963 H 553.102 6.56893 4.88298 0
M  V30 5964 N 555.766 -1.3263 0.851289 0
M  V30 5965 C 557.013 -1.97368 0.453023 0
M  V30 5966 C 557.341 -1.67384 -0.990596 0
M  V30 5967 O 556.596 -0.952665 -1.70947 0
M  V30 5968 C 556.895 -3.51713 0.635015 0
M  V30 5969 C 556.561 -4.01676 2.04859 0
M  V30 5970 C 555.223 -4.15031 2.43522 0
M  V30 5971 C 557.575 -4.28206 2.97135 0
M  V30 5972 C 554.903 -4.52257 3.73739 0
M  V30 5973 C 557.255 -4.66889 4.26846 0
M  V30 5974 C 555.919 -4.7845 4.65448 0
M  V30 5975 H 555.189 -0.722219 0.165773 0
M  V30 5976 H 557.836 -1.58092 1.0807 0
M  V30 5977 H 556.141 -3.91726 -0.0759081 0
M  V30 5978 H 557.838 -3.99823 0.306964 0
M  V30 5979 H 554.428 -3.91764 1.73836 0
M  V30 5980 H 558.612 -4.174 2.68498 0
M  V30 5981 H 553.868 -4.59402 4.03435 0
M  V30 5982 H 558.042 -4.86372 4.98413 0
M  V30 5983 H 555.669 -5.07052 5.66395 0
M  V30 5984 N 557.244 -0.608902 -1.45362 0
M  V30 5985 C 558.194 0.130616 -2.27626 0
M  V30 5986 C 559.178 0.837323 -1.37396 0
M  V30 5987 O 560.37 0.727096 -1.61376 0
M  V30 5988 C 557.499 1.12646 -3.24293 0
M  V30 5989 C 556.585 0.42052 -4.2201 0
M  V30 5990 N 556.976 -0.538569 -5.02925 0
M  V30 5991 C 555.274 0.667901 -4.40971 0
M  V30 5992 C 555.975 -0.953625 -5.7383 0
M  V30 5993 N 554.951 -0.297097 -5.42788 0
M  V30 5994 H 558.753 -0.605996 -2.87585 0
M  V30 5995 H 556.267 -0.432672 -1.5653 0
M  V30 5996 H 558.264 1.67066 -3.81961 0
M  V30 5997 H 556.924 1.86361 -2.65894 0
M  V30 5998 H 557.935 -0.915375 -5.09746 0
M  V30 5999 H 554.612 1.38963 -3.93695 0
M  V30 6000 H 556.002 -1.74473 -6.48852 0
M  V30 6001 N 558.722 1.53707 -0.348139 0
M  V30 6002 C 559.669 2.25173 0.506518 0
M  V30 6003 C 560.639 1.25174 1.09182 0
M  V30 6004 O 561.824 1.53917 1.12757 0
M  V30 6005 C 558.964 3.03141 1.64923 0
M  V30 6006 C 558.077 4.18002 1.0908 0
M  V30 6007 C 557.212 4.83447 2.20119 0
M  V30 6008 C 556.251 5.90369 1.61651 0
M  V30 6009 N 555.388 6.49575 2.66451 0
M  V30 6010 H 560.228 2.97799 -0.109452 0
M  V30 6011 H 557.765 1.46953 -0.0657866 0
M  V30 6012 H 559.723 3.46607 2.32205 0
M  V30 6013 H 558.353 2.32803 2.23612 0
M  V30 6014 H 557.405 3.79145 0.308783 0
M  V30 6015 H 558.717 4.94892 0.623178 0
M  V30 6016 H 557.871 5.30008 2.95257 0
M  V30 6017 H 556.61 4.05991 2.70227 0
M  V30 6018 H 555.615 5.43186 0.850209 0
M  V30 6019 H 556.84 6.69735 1.1239 0
M  V30 6020 H 554.786 5.74981 3.15805 0
M  V30 6021 H 554.703 7.21952 2.24325 0
M  V30 6022 H 555.971 7.00789 3.41344 0
M  V30 6023 N 560.2 0.0768682 1.57412 0
M  V30 6024 C 561.163 -0.873949 2.11884 0
M  V30 6025 C 562.163 -1.22301 1.04398 0
M  V30 6026 O 563.353 -1.15545 1.30365 0
M  V30 6027 C 560.485 -2.17575 2.62438 0
M  V30 6028 H 561.678 -0.401278 2.97203 0
M  V30 6029 H 559.231 -0.171904 1.55352 0
M  V30 6030 H 559.966 -2.69368 1.80587 0
M  V30 6031 H 559.751 -1.93534 3.41009 0
M  V30 6032 H 561.241 -2.85631 3.04639 0
M  V30 6033 N 561.678 -1.56367 -0.196722 0
M  V30 6034 C 563.089 -1.70462 -0.761545 0
M  V30 6035 C 563.44 -0.683161 -1.83922 0
M  V30 6036 O 562.565 0.160753 -2.15802 0
M  V30 6037 C 563.16 -3.09057 -1.38814 0
M  V30 6038 C 561.719 -3.24922 -1.90007 0
M  V30 6039 C 560.866 -2.66412 -0.769399 0
M  V30 6040 H 563.817 -1.58675 0.0283263 0
M  V30 6041 H 563.838 -3.06296 -2.2575 0
M  V30 6042 H 563.35 -3.83378 -0.603559 0
M  V30 6043 H 561.451 -2.55514 -2.71189 0
M  V30 6044 H 561.564 -4.3241 -2.06297 0
M  V30 6045 H 559.928 -2.25546 -1.18326 0
M  V30 6046 H 560.711 -3.433 0.00291773 0
M  V30 6047 N 563.156 0.464375 -1.50603 0
M  V30 6048 C 564.381 1.24372 -1.65971 0
M  V30 6049 C 564.806 1.84901 -0.345453 0
M  V30 6050 O 564.164 1.67596 0.691457 0
M  V30 6051 C 564.212 2.32331 -2.7578 0
M  V30 6052 O 563.316 3.37146 -2.375 0
M  V30 6053 H 562.657 0.365604 -0.554283 0
M  V30 6054 H 565.187 0.55183 -1.97018 0
M  V30 6055 H 565.197 2.77539 -2.99059 0
M  V30 6056 H 563.872 1.87648 -3.71162 0
M  V30 6057 H 562.449 2.97602 -2.24694 0
M  V30 6058 N 564.634 1.40294 0.718013 0
M  V30 6059 C 566.045 1.34289 1.29705 0
M  V30 6060 C 566.396 0.0152228 1.96194 0
M  V30 6061 O 565.521 -0.88682 1.97394 0
M  V30 6062 C 566.116 2.43219 2.3586 0
M  V30 6063 C 564.675 2.40682 2.89394 0
M  V30 6064 C 563.822 2.24223 1.63154 0
M  V30 6065 H 566.773 1.50135 0.514312 0
M  V30 6066 H 566.794 2.10986 3.16647 0
M  V30 6067 H 566.306 3.39836 1.87439 0
M  V30 6068 H 564.407 1.47756 3.42051 0
M  V30 6069 H 564.52 3.36177 3.41353 0
M  V30 6070 H 562.884 1.71696 1.88129 0
M  V30 6071 H 563.667 3.22834 1.16761 0
M  V30 6072 N 566.112 -0.949982 1.2575 0
M  V30 6073 C 567.022 -2.08109 1.08295 0
M  V30 6074 C 568.038 -1.7399 0.0188181 0
M  V30 6075 O 569.214 -2.00187 0.220724 0
M  V30 6076 C 566.279 -3.39383 0.708534 0
M  V30 6077 C 565.34 -3.8734 1.85111 0
M  V30 6078 C 564.573 -5.12349 1.49447 0
M  V30 6079 O 564.796 -5.6905 0.392212 0
M  V30 6080 O 563.73 -5.5513 2.32624 0
M  V30 6081 H 567.556 -2.25738 2.03165 0
M  V30 6082 H 565.141 -1.06545 1.04731 0
M  V30 6083 H 567.023 -4.18277 0.512061 0
M  V30 6084 H 565.698 -3.23013 -0.210854 0
M  V30 6085 H 564.605 -3.09429 2.10248 0
M  V30 6086 H 565.938 -4.08216 2.74991 0
M  V30 6087 N 567.59 -1.07411 -1.15328 0
M  V30 6088 C 568.537 -0.694995 -2.20087 0
M  V30 6089 C 569.507 0.313904 -1.63107 0
M  V30 6090 O 570.692 0.200216 -1.89747 0
M  V30 6091 C 567.832 -0.0996218 -3.44956 0
M  V30 6092 C 566.945 -1.16007 -4.16133 0
M  V30 6093 C 566.08 -0.529636 -5.28553 0
M  V30 6094 C 565.119 -1.57283 -5.91548 0
M  V30 6095 N 564.256 -0.964932 -6.95438 0
M  V30 6096 H 569.096 -1.5927 -2.51867 0
M  V30 6097 H 566.633 -0.796115 -1.23695 0
M  V30 6098 H 568.591 0.263197 -4.16369 0
M  V30 6099 H 567.221 0.761435 -3.13691 0
M  V30 6100 H 566.273 -1.64045 -3.4321 0
M  V30 6101 H 567.585 -1.95101 -4.59061 0
M  V30 6102 H 566.739 -0.114487 -6.06592 0
M  V30 6103 H 565.478 0.29307 -4.86819 0
M  V30 6104 H 564.483 -1.99775 -5.12221 0
M  V30 6105 H 565.708 -2.39783 -6.35359 0
M  V30 6106 H 563.654 -0.16314 -6.55797 0
M  V30 6107 H 563.571 -1.69311 -7.36797 0
M  V30 6108 H 564.839 -0.575305 -7.77374 0
M  V30 6109 N 569.068 1.32177 -0.85831 0
M  V30 6110 C 570.031 2.27086 -0.310588 0
M  V30 6111 C 571.031 1.51751 0.531806 0
M  V30 6112 O 572.221 1.70794 0.34279 0
M  V30 6113 C 569.353 3.36266 0.560179 0
M  V30 6114 H 570.546 2.77045 -1.1483 0
M  V30 6115 H 568.099 1.42911 -0.632942 0
M  V30 6116 H 568.834 2.9158 1.41956 0
M  V30 6117 H 568.619 3.92077 -0.0428473 0
M  V30 6118 H 570.109 4.06974 0.936056 0
M  V30 6119 N 570.547 0.616602 1.45037 0
M  V30 6120 C 571.457 -0.0985401 2.34393 0
M  V30 6121 C 572.473 -0.850971 1.51771 0
M  V30 6122 O 573.649 -0.806521 1.84546 0
M  V30 6123 C 570.714 -1.07748 3.29532 0
M  V30 6124 C 569.775 -0.326022 4.2806 0
M  V30 6125 C 569.008 -1.25833 5.18654 0
M  V30 6126 O 569.231 -2.49652 5.12864 0
M  V30 6127 O 568.165 -0.750512 5.97203 0
M  V30 6128 H 571.991 0.636016 2.96966 0
M  V30 6129 H 569.576 0.376832 1.44569 0
M  V30 6130 H 571.458 -1.64107 3.88133 0
M  V30 6131 H 570.133 -1.79291 2.69512 0
M  V30 6132 H 569.04 0.280253 3.73049 0
M  V30 6133 H 570.373 0.349091 4.9096 0
M  V30 6134 N 572.025 -1.5352 0.356285 0
M  V30 6135 C 572.935 -2.29151 -0.502712 0
M  V30 6136 C 573.951 -1.34753 -1.1008 0
M  V30 6137 O 575.127 -1.67803 -1.11374 0
M  V30 6138 C 572.192 -3.05911 -1.63154 0
M  V30 6139 C 571.253 -4.15958 -1.06194 0
M  V30 6140 C 570.486 -4.8905 -2.13696 0
M  V30 6141 O 570.709 -4.61919 -3.34645 0
M  V30 6142 O 569.643 -5.75202 -1.77275 0
M  V30 6143 H 573.469 -3.03492 0.112466 0
M  V30 6144 H 571.054 -1.4891 0.120942 0
M  V30 6145 H 572.936 -3.53874 -2.28804 0
M  V30 6146 H 571.611 -2.34415 -2.23229 0
M  V30 6147 H 570.518 -3.7227 -0.369603 0
M  V30 6148 H 571.851 -4.89593 -0.505872 0
M  V30 6149 N 573.503 -0.0852151 -1.57369 0
M  V30 6150 C 574.413 0.891712 -2.16992 0
M  V30 6151 C 575.429 1.3174 -1.13669 0
M  V30 6152 O 576.605 1.38735 -1.45995 0
M  V30 6153 C 573.67 2.13635 -2.73059 0
M  V30 6154 C 572.731 1.7658 -3.91303 0
M  V30 6155 C 571.964 2.95111 -4.44686 0
M  V30 6156 O 572.187 4.09539 -3.97032 0
M  V30 6157 O 571.121 2.74149 -5.35841 0
M  V30 6158 H 574.947 0.414477 -3.00858 0
M  V30 6159 H 572.532 0.138598 -1.48756 0
M  V30 6160 H 574.414 2.86595 -3.08935 0
M  V30 6161 H 573.089 2.6043 -1.92244 0
M  V30 6162 H 571.996 1.00831 -3.60255 0
M  V30 6163 H 573.329 1.34557 -4.7345 0
M  V30 6164 N 574.981 1.5647 0.188427 0
M  V30 6165 C 576.206 1.85486 0.927891 0
M  V30 6166 C 576.631 0.669575 1.75779 0
M  V30 6167 O 575.989 -0.381573 1.77239 0
M  V30 6168 C 576.037 3.12784 1.7944 0
M  V30 6169 O 575.141 2.93805 2.894 0
M  V30 6170 H 574.482 0.610585 0.260925 0
M  V30 6171 H 577.012 2.037 0.191729 0
M  V30 6172 H 577.022 3.43749 2.19774 0
M  V30 6173 H 575.697 3.98671 1.18468 0
M  V30 6174 H 574.274 2.74153 2.52774 0
M  V30 6175 N 576.459 -0.456382 1.50847 0
M  V30 6176 C 577.369 -1.57805 1.73594 0
M  V30 6177 C 578.385 -1.62599 0.619476 0
M  V30 6178 O 579.561 -1.80195 0.899532 0
M  V30 6179 C 576.626 -2.93926 1.8387 0
M  V30 6180 C 575.687 -2.99402 3.07663 0
M  V30 6181 C 574.92 -4.29031 3.1744 0
M  V30 6182 O 575.143 -5.20358 2.33631 0
M  V30 6183 O 574.077 -4.40401 4.10281 0
M  V30 6184 H 577.903 -1.41531 2.68705 0
M  V30 6185 H 575.488 -0.637422 1.3512 0
M  V30 6186 H 577.37 -3.74747 1.92725 0
M  V30 6187 H 576.045 -3.10368 0.91944 0
M  V30 6188 H 574.952 -2.17606 3.043 0
M  V30 6189 H 576.285 -2.87901 3.99216 0
M  V30 6190 N 577.937 -1.40673 -0.710563 0
M  V30 6191 C 579.353 -1.22813 -1.01928 0
M  V30 6192 C 579.553 -0.10687 -2.01216 0
M  V30 6193 O 578.609 0.533614 -2.46797 0
M  V30 6194 C 579.922 -2.57178 -1.5582 0
M  V30 6195 C 581.47 -2.64233 -1.67779 0
M  V30 6196 C 581.945 -3.98879 -2.25076 0
M  V30 6197 N 583.436 -4.00647 -2.32456 0
M  V30 6198 C 584.171 -5.01621 -2.77784 0
M  V30 6199 N 583.667 -6.12989 -3.22826 0
M  V30 6200 N 585.46 -4.88988 -2.77213 0
M  V30 6201 H 577.611 -2.12335 -0.05253 0
M  V30 6202 H 579.874 -0.9441 -0.085898 0
M  V30 6203 H 579.58 -3.39903 -0.903249 0
M  V30 6204 H 579.454 -2.78618 -2.54267 0
M  V30 6205 H 581.841 -1.81876 -2.3239 0
M  V30 6206 H 581.922 -2.46619 -0.679178 0
M  V30 6207 H 581.566 -4.81678 -1.61086 0
M  V30 6208 H 581.496 -4.13826 -3.25661 0
M  V30 6209 H 583.987 -3.20231 -2.0065 0
M  V30 6210 H 584.3 -6.85921 -3.55995 0
M  V30 6211 H 582.645 -6.16547 -3.20773 0
M  V30 6212 H 585.836 -4.01075 -2.41363 0
M  V30 6213 H 586.009 -5.67822 -3.12221 0
M  V30 6214 N 579.415 0.9433 -1.26252 0
M  V30 6215 C 580.345 2.05902 -1.10122 0
M  V30 6216 C 581.326 1.70099 -0.00700552 0
M  V30 6217 O 582.511 1.93377 -0.178641 0
M  V30 6218 C 579.641 3.39516 -0.731175 0
M  V30 6219 C 578.595 3.89372 -1.77688 0
M  V30 6220 C 577.921 5.19613 -1.26122 0
M  V30 6221 C 579.221 4.14489 -3.17799 0
M  V30 6222 H 580.915 2.19655 -2.03451 0
M  V30 6223 H 578.461 1.05548 -0.979576 0
M  V30 6224 H 580.414 4.17031 -0.605215 0
M  V30 6225 H 579.138 3.25733 0.23782 0
M  V30 6226 H 577.797 3.14036 -1.89148 0
M  V30 6227 H 577.445 5.02208 -0.282128 0
M  V30 6228 H 577.145 5.53939 -1.96023 0
M  V30 6229 H 578.669 5.99713 -1.14789 0
M  V30 6230 H 580.083 4.82625 -3.09428 0
M  V30 6231 H 578.48 4.60094 -3.85271 0
M  V30 6232 H 579.55 3.20347 -3.64014 0
M  V30 6233 N 580.893 1.08022 1.14757 0
M  V30 6234 C 581.823 0.728248 2.21853 0
M  V30 6235 C 582.804 -0.287486 1.67653 0
M  V30 6236 O 583.989 -0.158727 1.9355 0
M  V30 6237 C 581.119 0.132549 3.47047 0
M  V30 6238 C 580.073 1.07619 4.14249 0
M  V30 6239 C 579.399 0.342907 5.33599 0
M  V30 6240 C 580.699 2.41268 4.63235 0
M  V30 6241 H 582.393 1.62365 2.51551 0
M  V30 6242 H 579.939 0.782125 1.20908 0
M  V30 6243 H 581.892 -0.125665 4.21213 0
M  V30 6244 H 580.616 -0.797971 3.16702 0
M  V30 6245 H 579.275 1.31944 3.42033 0
M  V30 6246 H 578.923 -0.59129 4.99513 0
M  V30 6247 H 578.623 0.971955 5.79506 0
M  V30 6248 H 580.147 0.0926538 6.1053 0
M  V30 6249 H 581.561 2.21232 5.28894 0
M  V30 6250 H 579.958 2.9983 5.19829 0
M  V30 6251 H 581.028 3.03079 3.78512 0
M  V30 6252 N 582.371 -1.3172 0.865308 0
M  V30 6253 C 583.787 -1.4958 0.556596 0
M  V30 6254 C 583.987 -1.79763 -0.910353 0
M  V30 6255 O 583.043 -1.87351 -1.6928 0
M  V30 6256 C 584.356 -2.63277 1.45279 0
M  V30 6257 C 585.904 -2.77161 1.45433 0
M  V30 6258 C 586.379 -3.93949 2.33598 0
M  V30 6259 N 587.87 -4.01228 2.31453 0
M  V30 6260 C 588.605 -4.90855 2.96393 0
M  V30 6261 N 588.101 -5.85416 3.70486 0
M  V30 6262 N 589.894 -4.84063 2.85726 0
M  V30 6263 H 582.045 -1.10396 1.81456 0
M  V30 6264 H 584.308 -0.54507 0.775631 0
M  V30 6265 H 584.014 -2.47734 2.49641 0
M  V30 6266 H 583.888 -3.59309 1.14792 0
M  V30 6267 H 586.275 -2.9212 0.41831 0
M  V30 6268 H 586.356 -1.8181 1.79941 0
M  V30 6269 H 586 -3.79748 3.37274 0
M  V30 6270 H 585.93 -4.88598 1.96417 0
M  V30 6271 H 588.421 -3.3357 1.77593 0
M  V30 6272 H 588.734 -6.50525 4.17178 0
M  V30 6273 H 587.079 -5.85409 3.74594 0
M  V30 6274 H 590.27 -4.09163 2.27384 0
M  V30 6275 H 590.443 -5.53708 3.36617 0
M  V30 6276 N 583.85 -0.624285 -1.44708 0
M  V30 6277 C 584.76 0.0861083 -2.34442 0
M  V30 6278 C 585.776 0.84291 -1.5222 0
M  V30 6279 O 586.952 0.796723 -1.84971 0
M  V30 6280 C 584.017 1.05999 -3.30099 0
M  V30 6281 C 583.077 0.303316 -4.28227 0
M  V30 6282 C 582.311 1.23081 -5.19314 0
M  V30 6283 O 582.534 2.46929 -5.14181 0
M  V30 6284 O 581.468 0.71883 -5.97592 0
M  V30 6285 H 585.293 -0.651756 -2.96624 0
M  V30 6286 H 582.879 -0.384493 -1.44368 0
M  V30 6287 H 584.76 1.62046 -3.88997 0
M  V30 6288 H 583.436 1.77859 -2.70459 0
M  V30 6289 H 582.343 -0.300033 -3.72895 0
M  V30 6290 H 583.676 -0.375123 -4.90768 0
M  V30 6291 N 585.328 1.53329 -0.364422 0
M  V30 6292 C 586.258 2.28627 0.474543 0
M  V30 6293 C 587.239 1.31009 1.08492 0
M  V30 6294 O 588.424 1.59878 1.10239 0
M  V30 6295 C 585.554 3.07465 1.61501 0
M  V30 6296 C 584.508 4.1276 1.13194 0
M  V30 6297 C 583.834 4.79674 2.36255 0
M  V30 6298 C 585.134 5.21847 0.217507 0
M  V30 6299 H 586.828 2.99005 -0.153656 0
M  V30 6300 H 584.374 1.43803 -0.0753406 0
M  V30 6301 H 586.327 3.58889 2.20855 0
M  V30 6302 H 585.051 2.34775 2.27042 0
M  V30 6303 H 583.71 3.62281 0.56109 0
M  V30 6304 H 583.358 4.03557 3.00251 0
M  V30 6305 H 583.058 5.50827 2.04606 0
M  V30 6306 H 584.582 5.33892 2.96297 0
M  V30 6307 H 585.996 5.6878 0.718493 0
M  V30 6308 H 584.393 6.00099 -0.00806408 0
M  V30 6309 H 585.463 4.7921 -0.740653 0
M  V30 6310 N 586.806 0.0935595 1.57322 0
M  V30 6311 C 588.036 -0.578095 1.98347 0
M  V30 6312 C 588.444 -1.62357 0.971441 0
M  V30 6313 O 587.787 -1.83639 -0.0473959 0
M  V30 6314 C 587.849 -1.28525 3.3574 0
M  V30 6315 C 587.513 -0.390714 4.55327 0
M  V30 6316 C 588.51 0.360522 5.18648 0
M  V30 6317 C 586.195 -0.309221 5.01347 0
M  V30 6318 C 588.189 1.18125 6.26359 0
M  V30 6319 C 585.876 0.515157 6.08925 0
M  V30 6320 C 586.874 1.25904 6.71295 0
M  V30 6321 O 586.562 2.06978 7.76798 0
M  V30 6322 H 586.294 -0.159767 0.656849 0
M  V30 6323 H 588.848 0.169058 2.04703 0
M  V30 6324 H 587.078 -2.07894 3.26063 0
M  V30 6325 H 588.767 -1.85128 3.61223 0
M  V30 6326 H 589.533 0.307285 4.84026 0
M  V30 6327 H 585.412 -0.877881 4.52564 0
M  V30 6328 H 588.956 1.76236 6.74971 0
M  V30 6329 H 584.853 0.56988 6.42979 0
M  V30 6330 H 585.621 1.99644 7.93779 0
M  V30 6331 N 588.284 -1.56567 -0.180126 0
M  V30 6332 C 589.214 -1.98753 -1.22553 0
M  V30 6333 C 590.195 -0.86175 -1.46656 0
M  V30 6334 O 591.38 -1.12719 -1.58139 0
M  V30 6335 C 588.51 -2.33988 -2.56645 0
M  V30 6336 C 587.464 -3.49445 -2.47128 0
M  V30 6337 C 586.79 -3.70397 -3.8563 0
M  V30 6338 C 588.09 -4.83171 -1.98352 0
M  V30 6339 H 589.784 -2.86332 -0.874896 0
M  V30 6340 H 587.33 -1.37757 -0.419414 0
M  V30 6341 H 589.283 -2.62097 -3.29974 0
M  V30 6342 H 588.007 -1.43309 -2.93479 0
M  V30 6343 H 586.666 -3.2145 -1.76254 0
M  V30 6344 H 586.314 -2.77023 -4.19842 0
M  V30 6345 H 586.014 -4.48077 -3.80132 0
M  V30 6346 H 587.538 -4.00897 -4.60558 0
M  V30 6347 H 588.952 -5.10213 -2.61449 0
M  V30 6348 H 587.349 -5.64425 -2.03823 0
M  V30 6349 H 588.419 -4.75753 -0.937402 0
M  V30 6350 N 589.762 0.448376 -1.51087 0
M  V30 6351 C 591.009 1.19872 -1.63209 0
M  V30 6352 C 591.337 1.91451 -0.343062 0
M  V30 6353 O 590.592 1.83789 0.672321 0
M  V30 6354 C 590.891 2.24866 -2.77795 0
M  V30 6355 C 590.557 1.70378 -4.17471 0
M  V30 6356 C 589.219 1.55241 -4.55471 0
M  V30 6357 C 591.571 1.30203 -5.04675 0
M  V30 6358 C 588.899 0.983844 -5.78392 0
M  V30 6359 C 591.251 0.747798 -6.28165 0
M  V30 6360 C 589.915 0.583233 -6.64947 0
M  V30 6361 H 589.185 0.438642 -0.597222 0
M  V30 6362 H 591.832 0.49136 -1.85089 0
M  V30 6363 H 590.137 3.01598 -2.50092 0
M  V30 6364 H 591.834 2.82723 -2.84374 0
M  V30 6365 H 588.424 1.83134 -3.87505 0
M  V30 6366 H 592.608 1.40723 -4.75932 0
M  V30 6367 H 587.864 0.844007 -6.05546 0
M  V30 6368 H 592.038 0.427927 -6.95084 0
M  V30 6369 H 589.665 0.140532 -7.6007 0
M  V30 6370 N 591.24 1.41047 0.703093 0
M  V30 6371 C 592.517 1.30493 1.45708 0
M  V30 6372 C 592.897 -0.0709892 2.10981 0
M  V30 6373 O 592.245 -1.08471 2.01113 0
M  V30 6374 C 592.455 2.45287 2.48265 0
M  V30 6375 C 593.803 2.86104 3.13735 0
M  V30 6376 O 594.827 2.44971 2.58587 0
M  V30 6377 O 593.686 3.57206 4.13601 0
M  V30 6378 H 590.78 0.513144 0.648546 0
M  V30 6379 H 593.326 1.52995 0.734208 0
M  V30 6380 H 592.098 3.37135 1.98635 0
M  V30 6381 H 591.721 2.24622 3.28071 0
M  V30 6382 N 592.718 -0.936591 1.26751 0
M  V30 6383 C 593.964 -1.6858 1.12733 0
M  V30 6384 C 594.297 -1.91414 -0.327745 0
M  V30 6385 O 593.572 -1.49812 -1.24043 0
M  V30 6386 C 593.855 -3.05779 1.90187 0
M  V30 6387 C 593.708 -2.90242 3.43627 0
M  V30 6388 C 595.027 -4.0597 1.69931 0
M  V30 6389 H 592.146 -0.61182 0.410908 0
M  V30 6390 H 594.788 -1.08747 1.55801 0
M  V30 6391 H 592.938 -3.56853 1.53584 0
M  V30 6392 H 594.61 -2.46354 3.9001 0
M  V30 6393 H 592.853 -2.2577 3.70419 0
M  V30 6394 H 593.524 -3.87572 3.93055 0
M  V30 6395 H 596 -3.63874 2.0183 0
M  V30 6396 H 594.876 -4.99974 2.26534 0
M  V30 6397 H 595.137 -4.37369 0.64502 0
M  V30 6398 N 594.196 -1.08629 -1.14182 0
M  V30 6399 C 595.126 -0.740003 -2.21464 0
M  V30 6400 C 596.107 0.278591 -1.67803 0
M  V30 6401 O 597.292 0.148461 -1.93632 0
M  V30 6402 C 594.422 -0.150952 -3.46972 0
M  V30 6403 C 593.376 -1.09815 -4.13672 0
M  V30 6404 C 592.702 -0.3712 -5.3341 0
M  V30 6405 C 594.002 -2.43722 -4.61949 0
M  V30 6406 H 595.696 -1.63697 -2.50686 0
M  V30 6407 H 593.242 -0.788526 -1.20492 0
M  V30 6408 H 595.195 0.103325 -4.21273 0
M  V30 6409 H 593.919 0.781164 -3.1712 0
M  V30 6410 H 592.578 -1.33756 -3.41328 0
M  V30 6411 H 592.226 0.564792 -4.99819 0
M  V30 6412 H 591.926 -1.00267 -5.78982 0
M  V30 6413 H 593.45 -0.12503 -6.10472 0
M  V30 6414 H 594.864 -2.24034 -5.27714 0
M  V30 6415 H 593.261 -3.02582 -5.18232 0
M  V30 6416 H 594.331 -3.05082 -3.76899 0
M  V30 6417 N 595.674 1.31259 -0.872281 0
M  V30 6418 C 597.09 1.49283 -0.564521 0
M  V30 6419 C 597.29 1.80243 0.900807 0
M  V30 6420 O 596.346 1.88246 1.68284 0
M  V30 6421 C 597.659 2.62503 -1.46673 0
M  V30 6422 C 599.207 2.76386 -1.46901 0
M  V30 6423 C 599.682 3.92705 -2.35684 0
M  V30 6424 N 601.173 3.99995 -2.33577 0
M  V30 6425 C 601.908 4.89276 -2.98992 0
M  V30 6426 N 601.404 5.83443 -3.73585 0
M  V30 6427 N 603.197 4.82541 -2.88289 0
M  V30 6428 H 595.348 1.09432 -1.82039 0
M  V30 6429 H 597.611 0.540949 -0.77851 0
M  V30 6430 H 597.317 2.46407 -2.50951 0
M  V30 6431 H 597.191 3.58695 -1.16696 0
M  V30 6432 H 599.578 2.91894 -0.433796 0
M  V30 6433 H 599.659 1.80853 -1.80903 0
M  V30 6434 H 599.303 3.77954 -3.39283 0
M  V30 6435 H 599.233 4.87549 -1.99006 0
M  V30 6436 H 601.724 3.32624 -1.7936 0
M  V30 6437 H 602.037 6.48303 -4.20622 0
M  V30 6438 H 600.382 5.83415 -3.77694 0
M  V30 6439 H 603.573 4.07951 -2.2955 0
M  V30 6440 H 603.746 5.51916 -3.39549 0
M  V30 6441 N 597.152 0.631951 1.44375 0
M  V30 6442 C 598.115 -0.0628142 2.29114 0
M  V30 6443 C 599.115 -0.771494 1.41084 0
M  V30 6444 O 600.305 -0.615959 1.62947 0
M  V30 6445 C 597.437 -1.09953 3.22681 0
M  V30 6446 H 598.63 0.682509 2.92031 0
M  V30 6447 H 596.183 0.392128 1.51301 0
M  V30 6448 H 596.918 -1.87481 2.64616 0
M  V30 6449 H 596.703 -0.595286 3.87555 0
M  V30 6450 H 598.193 -1.58538 3.86336 0
M  V30 6451 N 598.631 -1.53133 0.372548 0
M  V30 6452 C 599.908 -1.93704 -0.271693 0
M  V30 6453 C 600.288 -1.30667 -1.65799 0
M  V30 6454 O 599.636 -0.46838 -2.23648 0
M  V30 6455 C 599.846 -3.47576 -0.314903 0
M  V30 6456 C 601.194 -4.20998 -0.551912 0
M  V30 6457 O 602.218 -3.53994 -0.39582 0
M  V30 6458 O 601.077 -5.39748 -0.85639 0
M  V30 6459 H 598.171 -0.810457 -0.164586 0
M  V30 6460 H 600.717 -1.6427 0.425838 0
M  V30 6461 H 599.489 -3.85749 0.656792 0
M  V30 6462 H 599.112 -3.83264 -1.05804 0
M  V30 6463 N 600.109 -0.101901 -1.5727 0
M  V30 6464 C 601.525 0.254739 -1.57554 0
M  V30 6465 C 601.725 1.67937 -1.11352 0
M  V30 6466 O 600.781 2.39722 -0.793081 0
M  V30 6467 C 602.094 0.036975 -3.00677 0
M  V30 6468 C 603.642 0.104199 -3.12827 0
M  V30 6469 C 604.117 -0.0856565 -4.5792 0
M  V30 6470 N 605.608 -0.0310498 -4.6319 0
M  V30 6471 C 606.343 -0.153099 -5.73196 0
M  V30 6472 N 605.839 -0.330364 -6.92012 0
M  V30 6473 N 607.632 -0.0938854 -5.62022 0
M  V30 6474 H 599.783 -1.03263 -1.85609 0
M  V30 6475 H 602.046 -0.405251 -0.857016 0
M  V30 6476 H 601.752 -0.947254 -3.38703 0
M  V30 6477 H 601.626 0.776335 -3.69124 0
M  V30 6478 H 604.013 1.07894 -2.74669 0
M  V30 6479 H 604.094 -0.666762 -2.46957 0
M  V30 6480 H 603.738 -1.05729 -4.96773 0
M  V30 6481 H 603.668 0.705082 -5.21858 0
M  V30 6482 H 606.159 0.103141 -3.77759 0
M  V30 6483 H 606.472 -0.41482 -7.71686 0
M  V30 6484 H 604.817 -0.366119 -6.94035 0
M  V30 6485 H 608.008 0.0435168 -4.6808 0
M  V30 6486 H 608.181 -0.19245 -6.47714 0
M  V30 6487 N 601.587 1.56661 0.17182 0
M  V30 6488 C 602.815 1.861 0.904115 0
M  V30 6489 C 603.23 0.687227 1.75848 0
M  V30 6490 O 602.587 -0.343671 1.79235 0
M  V30 6491 C 602.638 3.14568 1.78127 0
M  V30 6492 O 602.359 4.27422 0.961366 0
M  V30 6493 C 603.86 3.5735 2.62327 0
M  V30 6494 H 601.08 0.617445 0.262684 0
M  V30 6495 H 603.624 2.03775 0.172068 0
M  V30 6496 H 601.779 2.98721 2.46666 0
M  V30 6497 H 602.193 5.00725 1.56123 0
M  V30 6498 H 603.667 4.50144 3.1949 0
M  V30 6499 H 604.144 2.81445 3.37173 0
M  V30 6500 H 604.75 3.75807 1.99121 0
M  V30 6501 N 603.065 -0.440357 1.51323 0
M  V30 6502 C 604.293 -1.21255 1.67645 0
M  V30 6503 C 604.708 -1.85088 0.37252 0
M  V30 6504 O 604.065 -1.70582 -0.648683 0
M  V30 6505 C 604.116 -2.29881 2.78993 0
M  V30 6506 O 603.837 -1.68659 4.04334 0
M  V30 6507 C 605.338 -3.20214 3.06558 0
M  V30 6508 H 602.558 -0.36558 0.562666 0
M  V30 6509 H 605.102 -0.52214 1.97722 0
M  V30 6510 H 603.257 -2.94643 2.51524 0
M  V30 6511 H 603.671 -2.40426 4.6615 0
M  V30 6512 H 605.145 -3.92575 3.88058 0
M  V30 6513 H 605.622 -3.80794 2.18844 0
M  V30 6514 H 606.228 -2.61156 3.35675 0
M  V30 6515 N 604.543 -1.41418 -0.695603 0
M  V30 6516 C 605.506 -1.42988 -1.79129 0
M  V30 6517 C 606.506 -0.320514 -1.57573 0
M  V30 6518 O 607.696 -0.58039 -1.64247 0
M  V30 6519 C 604.828 -1.24122 -3.175 0
M  V30 6520 H 606.021 -2.40526 -1.7913 0
M  V30 6521 H 603.574 -1.2756 -0.903225 0
M  V30 6522 H 604.309 -0.274253 -3.23138 0
M  V30 6523 H 604.094 -2.045 -3.34547 0
M  V30 6524 H 605.584 -1.28056 -3.97481 0
M  V30 6525 N 606.021 0.929856 -1.27246 0
M  V30 6526 C 606.984 2.01172 -1.09829 0
M  V30 6527 C 607.984 1.60743 -0.0429687 0
M  V30 6528 O 609.174 1.71813 -0.287373 0
M  V30 6529 C 606.306 3.34191 -0.673003 0
M  V30 6530 H 607.499 2.18054 -2.05895 0
M  V30 6531 H 605.052 1.11036 -1.10003 0
M  V30 6532 H 605.787 3.23009 0.289134 0
M  V30 6533 H 605.572 3.64892 -1.43515 0
M  V30 6534 H 607.062 4.13646 -0.573323 0
M  V30 6535 N 607.499 1.09233 1.13605 0
M  V30 6536 C 608.449 0.6994 2.17008 0
M  V30 6537 C 609.433 -0.285238 1.58352 0
M  V30 6538 O 610.625 -0.09592 1.7674 0
M  V30 6539 C 607.754 0.11938 3.43092 0
M  V30 6540 C 606.84 1.13031 4.0876 0
M  V30 6541 N 607.231 2.31673 4.49623 0
M  V30 6542 C 605.529 0.967999 4.35369 0
M  V30 6543 C 606.23 2.95964 5.00779 0
M  V30 6544 N 605.206 2.23534 4.95513 0
M  V30 6545 H 609.008 1.60272 2.46354 0
M  V30 6546 H 606.522 0.968257 1.30378 0
M  V30 6547 H 608.519 -0.180122 4.16511 0
M  V30 6548 H 607.179 -0.778816 3.15221 0
M  V30 6549 H 608.19 2.69277 4.42391 0
M  V30 6550 H 604.867 0.124319 4.17315 0
M  V30 6551 H 606.257 3.96813 5.42208 0
M  V30 6552 N 608.977 -1.30795 0.87923 0
M  V30 6553 C 610.225 -1.95974 0.493809 0
M  V30 6554 C 610.546 -1.69787 -0.959021 0
M  V30 6555 O 609.816 -1.01832 -1.67353 0
M  V30 6556 H 608.396 -0.725083 0.179622 0
M  V30 6557 H 611.058 -1.59432 1.12105 0
M  V30 6558 H 610.154 -3.05058 0.659263 0
M  V30 6559 N 610.455 -0.639598 -1.44038 0
M  V30 6560 C 611.385 0.0469443 -2.33453 0
M  V30 6561 C 612.366 0.82609 -1.48694 0
M  V30 6562 O 613.551 0.790285 -1.77393 0
M  V30 6563 C 610.681 1.02338 -3.3188 0
M  V30 6564 C 609.635 0.355284 -4.26523 0
M  V30 6565 C 608.961 1.44221 -5.14883 0
M  V30 6566 C 610.261 -0.743798 -5.16977 0
M  V30 6567 H 611.955 -0.699735 -2.91108 0
M  V30 6568 H 609.501 -0.337946 -1.39978 0
M  V30 6569 H 611.454 1.51247 -3.93322 0
M  V30 6570 H 610.178 1.80105 -2.72451 0
M  V30 6571 H 608.837 -0.113239 -3.66425 0
M  V30 6572 H 608.485 2.21097 -4.51802 0
M  V30 6573 H 608.185 1.00052 -5.79019 0
M  V30 6574 H 609.709 1.93295 -5.79197 0
M  V30 6575 H 611.123 -0.337444 -5.72306 0
M  V30 6576 H 609.52 -1.10914 -5.89761 0
M  V30 6577 H 610.59 -1.60745 -4.57481 0
M  V30 6578 N 611.933 1.52934 -0.380664 0
M  V30 6579 C 612.843 2.29921 0.466192 0
M  V30 6580 C 613.859 1.36488 1.07922 0
M  V30 6581 O 615.035 1.69553 1.0869 0
M  V30 6582 C 612.1 3.08468 1.58266 0
M  V30 6583 C 611.161 4.17595 0.995627 0
M  V30 6584 C 610.394 4.92387 2.05889 0
M  V30 6585 O 610.617 4.67184 3.27254 0
M  V30 6586 O 609.551 5.77949 1.68102 0
M  V30 6587 H 613.377 3.03274 -0.160735 0
M  V30 6588 H 610.962 1.48698 -0.144617 0
M  V30 6589 H 612.844 3.57469 2.23145 0
M  V30 6590 H 611.519 2.37937 2.19471 0
M  V30 6591 H 610.426 3.72811 0.310332 0
M  V30 6592 H 611.759 4.90336 0.427918 0
M  V30 6593 N 613.412 0.11024 1.57214 0
M  V30 6594 C 614.342 -0.840002 2.17867 0
M  V30 6595 C 615.323 -1.28352 1.11624 0
M  V30 6596 O 616.508 -1.3477 1.39824 0
M  V30 6597 C 613.638 -2.09349 2.77111 0
M  V30 6598 C 612.592 -1.78807 3.8886 0
M  V30 6599 C 611.918 -3.11112 4.34872 0
M  V30 6600 C 613.218 -1.0632 5.11364 0
M  V30 6601 H 614.912 -0.334608 2.97524 0
M  V30 6602 H 612.458 -0.159502 1.43114 0
M  V30 6603 H 614.411 -2.76275 3.18198 0
M  V30 6604 H 613.135 -2.62198 1.9473 0
M  V30 6605 H 611.794 -1.14273 3.48335 0
M  V30 6606 H 611.442 -3.61877 3.49362 0
M  V30 6607 H 611.142 -2.91453 5.10224 0
M  V30 6608 H 612.666 -3.79171 4.78604 0
M  V30 6609 H 614.08 -1.63383 5.49526 0
M  V30 6610 H 612.477 -0.967876 5.92243 0
M  V30 6611 H 613.547 -0.0484569 4.84876 0
M  V30 6612 N 614.89 -1.56749 -0.16351 0
M  V30 6613 C 616.306 -1.51043 -0.515567 0
M  V30 6614 C 616.506 -0.815855 -1.84245 0
M  V30 6615 O 615.562 -0.379477 -2.49632 0
M  V30 6616 C 616.875 -2.95791 -0.541114 0
M  V30 6617 C 618.423 -3.0664 -0.627776 0
M  V30 6618 C 618.898 -4.52861 -0.684141 0
M  V30 6619 N 620.389 -4.5714 -0.746818 0
M  V30 6620 C 621.124 -5.67634 -0.811137 0
M  V30 6621 N 620.62 -6.8774 -0.835811 0
M  V30 6622 N 622.413 -5.55624 -0.850756 0
M  V30 6623 H 614.564 -2.00307 0.70645 0
M  V30 6624 H 616.827 -0.912876 0.255659 0
M  V30 6625 H 616.533 -3.49797 0.365329 0
M  V30 6626 H 616.407 -3.50858 -1.38487 0
M  V30 6627 H 618.794 -2.52663 -1.52464 0
M  V30 6628 H 618.875 -2.54645 0.242805 0
M  V30 6629 H 618.519 -5.07472 0.2085 0
M  V30 6630 H 618.449 -5.02621 -1.57098 0
M  V30 6631 H 620.94 -3.70669 -0.735717 0
M  V30 6632 H 621.253 -7.67701 -0.886279 0
M  V30 6633 H 619.598 -6.90334 -0.803958 0
M  V30 6634 H 622.789 -4.60709 -0.828535 0
M  V30 6635 H 622.962 -6.41756 -0.897418 0
M  V30 6636 N 616.368 0.432326 -1.51554 0
M  V30 6637 C 617.614 1.18309 -1.64714 0
M  V30 6638 C 617.947 1.90745 -0.364696 0
M  V30 6639 O 617.222 1.8381 0.635936 0
M  V30 6640 C 617.505 2.1961 -2.85383 0
M  V30 6641 C 617.358 1.51223 -4.23617 0
M  V30 6642 C 618.677 3.20538 -3.01569 0
M  V30 6643 H 615.796 0.428751 -0.599451 0
M  V30 6644 H 618.438 0.471689 -1.84052 0
M  V30 6645 H 616.588 2.8028 -2.69027 0
M  V30 6646 H 618.26 0.938516 -4.51652 0
M  V30 6647 H 616.503 0.814501 -4.26085 0
M  V30 6648 H 617.174 2.25024 -5.04052 0
M  V30 6649 H 619.65 2.69926 -3.16669 0
M  V30 6650 H 618.526 3.88706 -3.87555 0
M  V30 6651 H 618.787 3.86933 -2.13859 0
M  V30 6652 N 617.846 1.41785 0.688094 0
M  V30 6653 C 619.257 1.3701 1.26828 0
M  V30 6654 C 619.608 0.056835 1.96118 0
M  V30 6655 O 618.733 -0.84475 1.99231 0
M  V30 6656 C 619.328 2.48168 2.30648 0
M  V30 6657 C 617.887 2.46766 2.84224 0
M  V30 6658 C 617.034 2.27633 1.58361 0
M  V30 6659 H 619.985 1.51192 0.482351 0
M  V30 6660 H 620.006 2.17655 3.121 0
M  V30 6661 H 619.518 3.43735 1.80188 0
M  V30 6662 H 617.619 1.54978 3.3884 0
M  V30 6663 H 617.732 3.43342 3.34145 0
M  V30 6664 H 616.096 1.75648 1.84445 0
M  V30 6665 H 616.879 3.25238 1.09887 0
M  V30 6666 N 619.324 -0.923095 1.27737 0
M  V30 6667 C 620.571 -1.67127 1.14345 0
M  V30 6668 C 620.899 -1.92017 -0.30982 0
M  V30 6669 O 620.154 -1.51185 -1.24264 0
M  V30 6670 C 620.453 -3.04125 1.8773 0
M  V30 6671 C 620.119 -2.98929 3.37568 0
M  V30 6672 C 618.781 -2.9722 3.78436 0
M  V30 6673 C 621.133 -2.89875 4.33154 0
M  V30 6674 C 618.461 -2.84244 5.13247 0
M  V30 6675 C 620.813 -2.7844 5.68026 0
M  V30 6676 C 619.477 -2.75083 6.08182 0
M  V30 6677 H 618.747 -0.611562 0.418417 0
M  V30 6678 H 621.394 -1.07618 1.584 0
M  V30 6679 H 619.699 -3.67366 1.36196 0
M  V30 6680 H 621.396 -3.609 1.74792 0
M  V30 6681 H 617.986 -3.0105 3.05069 0
M  V30 6682 H 622.17 -2.9029 4.02548 0
M  V30 6683 H 617.426 -2.80034 5.43499 0
M  V30 6684 H 621.6 -2.70401 6.4176 0
M  V30 6685 H 619.227 -2.64786 7.12596 0
M  V30 6686 N 620.802 -1.09834 -1.13024 0
M  V30 6687 C 621.732 -0.763451 -2.20666 0
M  V30 6688 C 622.713 0.260778 -1.68089 0
M  V30 6689 O 623.898 0.127915 -1.93778 0
M  V30 6690 C 621.028 -0.187744 -3.46792 0
M  V30 6691 C 619.982 -1.14196 -4.12484 0
M  V30 6692 C 619.308 -0.427755 -5.32986 0
M  V30 6693 C 620.608 -2.48607 -4.59338 0
M  V30 6694 H 622.302 -1.66347 -2.48936 0
M  V30 6695 H 619.848 -0.801261 -1.19649 0
M  V30 6696 H 621.801 0.0586375 -4.21359 0
M  V30 6697 H 620.525 0.747485 -3.17931 0
M  V30 6698 H 619.184 -1.37369 -3.3989 0
M  V30 6699 H 618.832 0.511747 -5.0039 0
M  V30 6700 H 618.532 -1.06403 -5.77886 0
M  V30 6701 H 620.056 -0.189772 -6.10305 0
M  V30 6702 H 621.47 -2.29618 -5.25308 0
M  V30 6703 H 619.867 -3.08062 -5.14993 0
M  V30 6704 H 620.937 -3.09062 -3.73642 0
M  V30 6705 N 622.28 1.30327 -0.886154 0
M  V30 6706 C 623.557 1.90922 -0.425217 0
M  V30 6707 C 623.937 1.80533 1.09413 0
M  V30 6708 O 623.285 1.2233 1.92996 0
M  V30 6709 C 623.495 3.36529 -0.924638 0
M  V30 6710 C 624.843 4.13598 -0.960305 0
M  V30 6711 O 625.867 3.45377 -0.871382 0
M  V30 6712 O 624.726 5.35482 -1.09184 0
M  V30 6713 H 621.82 0.81668 -0.130238 0
M  V30 6714 H 624.366 1.38886 -0.975132 0
M  V30 6715 H 623.138 3.38181 -1.96849 0
M  V30 6716 H 622.761 3.96021 -0.353955 0
M  V30 6717 N 623.758 0.647228 1.43697 0
M  V30 6718 C 624.708 -0.0702191 2.27892 0
M  V30 6719 C 625.692 -0.800601 1.39568 0
M  V30 6720 O 626.884 -0.684055 1.63247 0
M  V30 6721 C 624.013 -1.04008 3.27165 0
M  V30 6722 C 623.099 -0.308484 4.22977 0
M  V30 6723 N 623.49 0.671721 5.0132 0
M  V30 6724 C 621.788 -0.550751 4.42586 0
M  V30 6725 C 622.489 1.10543 5.711 0
M  V30 6726 N 621.465 0.440903 5.41809 0
M  V30 6727 H 625.267 0.682031 2.85877 0
M  V30 6728 H 622.781 0.474022 1.55328 0
M  V30 6729 H 624.778 -1.56881 3.86256 0
M  V30 6730 H 623.438 -1.79246 2.70742 0
M  V30 6731 H 624.449 1.0502 5.0714 0
M  V30 6732 H 621.126 -1.28476 3.97241 0
M  V30 6733 H 622.516 1.91614 6.43998 0
M  V30 6734 N 625.236 -1.5273 0.388769 0
M  V30 6735 C 626.652 -1.59553 0.0387049 0
M  V30 6736 C 626.852 -1.40278 -1.44652 0
M  V30 6737 O 625.908 -1.21951 -2.21098 0
M  V30 6738 C 627.221 -2.9625 0.515409 0
M  V30 6739 C 628.769 -3.09426 0.471621 0
M  V30 6740 C 629.244 -4.48572 0.924505 0
M  V30 6741 N 630.735 -4.54754 0.880496 0
M  V30 6742 C 631.47 -5.60653 1.20234 0
M  V30 6743 N 630.966 -6.74198 1.59463 0
M  V30 6744 N 632.759 -5.50755 1.12363 0
M  V30 6745 H 624.91 -1.63508 1.35569 0
M  V30 6746 H 627.173 -0.768097 0.555636 0
M  V30 6747 H 626.879 -3.15569 1.5527 0
M  V30 6748 H 626.753 -3.77102 -0.085792 0
M  V30 6749 H 629.14 -2.89804 -0.556588 0
M  V30 6750 H 629.221 -2.30528 1.10862 0
M  V30 6751 H 628.865 -4.68936 1.95094 0
M  V30 6752 H 628.795 -5.25935 0.264524 0
M  V30 6753 H 631.286 -3.73237 0.591815 0
M  V30 6754 H 631.599 -7.5097 1.82385 0
M  V30 6755 H 629.944 -6.75531 1.63349 0
M  V30 6756 H 633.135 -4.6093 0.816169 0
M  V30 6757 H 633.308 -6.33184 1.37777 0
M  V30 6758 N 626.714 -0.118576 -1.57153 0
M  V30 6759 C 627.961 0.539526 -1.9518 0
M  V30 6760 C 628.289 1.66714 -1.00184 0
M  V30 6761 O 627.544 1.95683 -0.0256482 0
M  V30 6762 C 627.843 1.11303 -3.39627 0
M  V30 6763 C 627.509 0.106809 -4.50773 0
M  V30 6764 C 626.171 -0.169876 -4.809 0
M  V30 6765 C 628.523 -0.57895 -5.17975 0
M  V30 6766 C 625.851 -1.13861 -5.75545 0
M  V30 6767 C 628.203 -1.53631 -6.13661 0
M  V30 6768 C 626.867 -1.82099 -6.42181 0
M  V30 6769 H 626.137 0.197427 -0.714215 0
M  V30 6770 H 628.784 -0.199391 -1.90459 0
M  V30 6771 H 627.089 1.92869 -3.4104 0
M  V30 6772 H 628.786 1.63032 -3.66363 0
M  V30 6773 H 625.376 0.332645 -4.27307 0
M  V30 6774 H 629.56 -0.378359 -4.94856 0
M  V30 6775 H 624.816 -1.36592 -5.95947 0
M  V30 6776 H 628.99 -2.07337 -6.64819 0
M  V30 6777 H 626.617 -2.57319 -7.15326 0
M  V30 6778 N 628.193 1.56834 0.155195 0
M  V30 6779 C 629.418 1.87412 0.888337 0
M  V30 6780 C 629.843 0.70671 1.74319 0
M  V30 6781 O 629.201 -0.343892 1.78009 0
M  V30 6782 C 629.249 3.1652 1.72765 0
M  V30 6783 O 628.353 2.99877 2.83103 0
M  V30 6784 H 627.694 0.615983 0.247914 0
M  V30 6785 H 630.224 2.04061 0.148478 0
M  V30 6786 H 630.234 3.48334 2.12433 0
M  V30 6787 H 628.909 4.01094 1.09985 0
M  V30 6788 H 627.486 2.79453 2.46902 0
M  V30 6789 N 629.671 -0.424282 1.51781 0
M  V30 6790 C 630.896 -1.19928 1.6921 0
M  V30 6791 C 631.321 -1.8392 0.394355 0
M  V30 6792 O 630.679 -1.69371 -0.646778 0
M  V30 6793 C 630.727 -2.24937 2.81843 0
M  V30 6794 O 629.831 -3.3073 2.46356 0
M  V30 6795 H 629.172 -0.35078 0.563781 0
M  V30 6796 H 631.702 -0.499401 1.98412 0
M  V30 6797 H 631.712 -2.69512 3.06312 0
M  V30 6798 H 630.387 -1.77742 3.76006 0
M  V30 6799 H 628.964 -2.9154 2.32505 0
M  V30 6800 N 631.149 -1.42148 -0.680565 0
M  V30 6801 C 632.379 -1.45485 -1.46689 0
M  V30 6802 C 632.787 -0.0629451 -1.89095 0
M  V30 6803 O 632.13 0.931397 -1.58337 0
M  V30 6804 C 632.192 -2.31397 -2.75129 0
M  V30 6805 C 631.856 -3.79353 -2.54834 0
M  V30 6806 C 632.853 -4.71148 -2.19808 0
M  V30 6807 C 630.538 -4.23557 -2.70008 0
M  V30 6808 C 632.532 -6.05139 -2.00215 0
M  V30 6809 C 630.219 -5.57609 -2.50031 0
M  V30 6810 C 631.217 -6.48216 -2.15187 0
M  V30 6811 O 630.905 -7.79792 -1.95397 0
M  V30 6812 H 630.637 -0.497139 -0.458071 0
M  V30 6813 H 633.191 -1.87252 -0.844139 0
M  V30 6814 H 631.421 -1.84468 -3.39865 0
M  V30 6815 H 633.11 -2.26257 -3.36991 0
M  V30 6816 H 633.876 -4.38282 -2.07686 0
M  V30 6817 H 629.755 -3.53327 -2.96109 0
M  V30 6818 H 633.299 -6.75823 -1.72941 0
M  V30 6819 H 629.196 -5.9005 -2.61748 0
M  V30 6820 H 629.964 -7.91091 -2.10042 0
M  V30 6821 N 632.627 0.916307 -1.28225 0
M  V30 6822 C 633.857 1.69654 -1.17902 0
M  V30 6823 C 634.265 1.87331 0.265268 0
M  V30 6824 O 633.608 1.39828 1.19137 0
M  V30 6825 C 633.67 3.11024 -1.80289 0
M  V30 6826 C 633.334 3.16643 -3.29525 0
M  V30 6827 C 634.331 2.98032 -4.25997 0
M  V30 6828 C 632.016 3.39238 -3.70436 0
M  V30 6829 C 634.01 3.01924 -5.61356 0
M  V30 6830 C 631.697 3.42762 -5.05922 0
M  V30 6831 C 632.695 3.24125 -6.01192 0
M  V30 6832 O 632.383 3.27406 -7.34208 0
M  V30 6833 H 632.115 0.537197 -0.41036 0
M  V30 6834 H 634.669 1.15547 -1.69817 0
M  V30 6835 H 632.899 3.66662 -1.22865 0
M  V30 6836 H 634.588 3.71063 -1.6452 0
M  V30 6837 H 635.354 2.80405 -3.95725 0
M  V30 6838 H 631.233 3.52791 -2.96749 0
M  V30 6839 H 634.777 2.87295 -6.35694 0
M  V30 6840 H 630.674 3.59916 -5.35846 0
M  V30 6841 H 631.442 3.43784 -7.42802 0
M  V30 6842 N 634.105 1.10431 1.1244 0
M  V30 6843 C 635.035 0.775143 2.20258 0
M  V30 6844 C 636.016 -0.25186 1.68225 0
M  V30 6845 O 637.201 -0.117637 1.93843 0
M  V30 6846 C 634.331 0.206133 3.46688 0
M  V30 6847 C 633.285 1.16382 4.11873 0
M  V30 6848 C 632.611 0.456014 5.32752 0
M  V30 6849 C 633.911 2.5104 4.58013 0
M  V30 6850 H 635.605 1.67665 2.4805 0
M  V30 6851 H 633.151 0.807595 1.19222 0
M  V30 6852 H 635.104 -0.036291 4.21384 0
M  V30 6853 H 633.828 -0.730614 3.18323 0
M  V30 6854 H 632.487 1.39169 3.39157 0
M  V30 6855 H 632.135 -0.485203 5.00654 0
M  V30 6856 H 631.835 1.09466 5.77314 0
M  V30 6857 H 633.359 0.222135 6.10196 0
M  V30 6858 H 634.773 2.32401 5.24083 0
M  V30 6859 H 633.17 3.10789 5.13352 0
M  V30 6860 H 634.24 3.11039 3.71998 0
M  V30 6861 N 635.583 -1.29855 0.893053 0
M  V30 6862 C 636.808 -2.00512 0.530066 0
M  V30 6863 C 637.233 -1.66446 -0.876199 0
M  V30 6864 O 636.591 -0.885446 -1.58207 0
M  V30 6865 C 636.639 -3.53308 0.721505 0
M  V30 6866 O 635.743 -4.11764 -0.228994 0
M  V30 6867 H 635.084 -0.630617 0.207891 0
M  V30 6868 H 637.614 -1.6551 1.20282 0
M  V30 6869 H 637.624 -4.03206 0.623599 0
M  V30 6870 H 636.299 -3.77439 1.74678 0
M  V30 6871 H 634.876 -3.72805 -0.0841034 0
M  V30 6872 N 637.061 -0.65484 -1.43351 0
M  V30 6873 C 637.991 0.0221809 -2.33489 0
M  V30 6874 C 638.972 0.810272 -1.49561 0
M  V30 6875 O 640.157 0.771426 -1.78221 0
M  V30 6876 C 637.287 0.988117 -3.32947 0
M  V30 6877 C 636.241 0.310026 -4.26876 0
M  V30 6878 C 635.567 1.38752 -5.16384 0
M  V30 6879 C 636.867 -0.798589 -5.16159 0
M  V30 6880 H 638.561 -0.730571 -2.9035 0
M  V30 6881 H 636.107 -0.352773 -1.39612 0
M  V30 6882 H 638.06 1.47067 -3.94904 0
M  V30 6883 H 636.784 1.77205 -2.74346 0
M  V30 6884 H 635.443 -0.152097 -3.66284 0
M  V30 6885 H 635.091 2.16293 -4.54121 0
M  V30 6886 H 634.791 0.939051 -5.80048 0
M  V30 6887 H 636.315 1.87141 -5.81215 0
M  V30 6888 H 637.729 -0.398126 -5.71916 0
M  V30 6889 H 636.126 -1.17163 -5.88552 0
M  V30 6890 H 637.196 -1.65588 -4.55751 0
M  V30 6891 N 638.539 1.52521 -0.396863 0
M  V30 6892 C 639.95 1.86547 0.0754868 0
M  V30 6893 C 640.301 1.31621 1.45501 0
M  V30 6894 O 639.426 0.650563 2.0639 0
M  V30 6895 C 640.021 3.38495 0.143754 0
M  V30 6896 C 638.58 3.72205 0.560413 0
M  V30 6897 C 637.727 2.75954 -0.272856 0
M  V30 6898 H 640.678 1.46323 -0.614434 0
M  V30 6899 H 640.699 3.68153 0.961425 0
M  V30 6900 H 640.211 3.78442 -0.860415 0
M  V30 6901 H 638.312 3.3783 1.57167 0
M  V30 6902 H 638.425 4.78074 0.313314 0
M  V30 6903 H 636.789 2.53339 0.263 0
M  V30 6904 H 637.572 3.1874 -1.27515 0
M  V30 6905 N 640.017 0.126909 1.57088 0
M  V30 6906 C 641.428 -0.397201 1.82426 0
M  V30 6907 C 641.779 -1.66084 1.04453 0
M  V30 6908 O 640.904 -2.14534 0.283552 0
M  V30 6909 C 641.499 -0.727411 3.30899 0
M  V30 6910 C 640.058 -1.19612 3.56889 0
M  V30 6911 C 639.205 -0.20885 2.76512 0
M  V30 6912 H 642.156 0.351924 1.54749 0
M  V30 6913 H 642.177 -1.58407 3.45959 0
M  V30 6914 H 641.689 0.19247 3.87622 0
M  V30 6915 H 639.79 -2.13263 3.05532 0
M  V30 6916 H 639.903 -1.13598 4.65438 0
M  V30 6917 H 638.267 -0.697479 2.44964 0
M  V30 6918 H 639.05 0.704267 3.35998 0
M  V30 6919 N 641.495 -1.56914 -0.146875 0
M  V30 6920 C 642.405 -2.0154 -1.20079 0
M  V30 6921 C 643.421 -0.930838 -1.47008 0
M  V30 6922 O 644.597 -1.24032 -1.58676 0
M  V30 6923 C 641.662 -2.38715 -2.51428 0
M  V30 6924 C 640.723 -3.6112 -2.32145 0
M  V30 6925 C 639.956 -3.96512 -3.57231 0
M  V30 6926 O 640.179 -3.32566 -4.63418 0
M  V30 6927 O 639.113 -4.89758 -3.49887 0
M  V30 6928 H 642.939 -2.91506 -0.851924 0
M  V30 6929 H 640.524 -1.45106 -0.355607 0
M  V30 6930 H 642.406 -2.63485 -3.28867 0
M  V30 6931 H 641.081 -1.51903 -2.85845 0
M  V30 6932 H 639.988 -3.41536 -1.52656 0
M  V30 6933 H 641.321 -4.48549 -2.02644 0
M  V30 6934 N 642.974 0.416227 -1.52004 0
M  V30 6935 C 643.907 1.52736 -1.6955 0
M  V30 6936 C 644.885 1.53264 -0.54305 0
M  V30 6937 O 646.069 1.72077 -0.769527 0
M  V30 6938 C 643.196 2.91283 -1.72835 0
M  V30 6939 C 642.242 3.08695 -2.94295 0
M  V30 6940 S 643.075 2.82758 -4.54762 0
M  V30 6941 C 644.231 4.23548 -4.60823 0
M  V30 6942 H 644.464 1.37623 -2.63528 0
M  V30 6943 H 641.997 0.607335 -1.41954 0
M  V30 6944 H 643.955 3.71134 -1.75413 0
M  V30 6945 H 642.616 3.03742 -0.799966 0
M  V30 6946 H 641.809 4.10042 -2.93056 0
M  V30 6947 H 641.411 2.36699 -2.89568 0
M  V30 6948 H 643.703 5.17078 -4.37763 0
M  V30 6949 H 644.646 4.29813 -5.62731 0
M  V30 6950 H 645.054 4.08188 -3.89927 0
M  V30 6951 N 644.452 1.42507 0.673017 0
M  V30 6952 C 645.868 1.25472 0.986355 0
M  V30 6953 C 646.068 0.160181 2.00862 0
M  V30 6954 O 645.124 -0.467993 2.48125 0
M  V30 6955 C 646.437 2.61219 1.48947 0
M  V30 6956 C 647.985 2.68589 1.60715 0
M  V30 6957 C 648.46 4.04707 2.14422 0
M  V30 6958 N 649.951 4.0667 2.21752 0
M  V30 6959 C 650.686 5.0881 2.64386 0
M  V30 6960 N 650.182 6.21332 3.0646 0
M  V30 6961 N 651.975 4.96166 2.64151 0
M  V30 6962 H 644.126 2.124 -0.00378532 0
M  V30 6963 H 646.389 0.946046 0.0608367 0
M  V30 6964 H 646.095 3.42179 0.812812 0
M  V30 6965 H 645.969 2.85261 2.46791 0
M  V30 6966 H 648.356 1.87974 2.27486 0
M  V30 6967 H 648.437 2.48333 0.613552 0
M  V30 6968 H 648.081 4.8578 1.48258 0
M  V30 6969 H 648.011 4.22315 3.14575 0
M  V30 6970 H 650.502 3.25438 1.92089 0
M  V30 6971 H 650.815 6.95118 3.37684 0
M  V30 6972 H 649.16 6.24835 3.04313 0
M  V30 6973 H 652.351 4.07334 2.30644 0
M  V30 6974 H 652.524 5.759 2.97057 0
M  V30 6975 N 645.93 -0.909495 1.28709 0
M  V30 6976 C 647.179 -1.65365 1.15487 0
M  V30 6977 C 647.492 -1.93364 -0.294941 0
M  V30 6978 O 648.698 -2.65905 -0.548338 0
M  V30 6979 C 647.154 -2.97923 2.01916 0
M  V30 6980 C 646.762 -2.77556 3.51663 0
M  V30 6981 C 648.506 -3.75814 1.97393 0
M  V30 6982 C 646.413 -4.0578 4.30229 0
M  V30 6983 H 645.343 -0.620323 0.42862 0
M  V30 6984 H 647.994 -1.00894 1.53273 0
M  V30 6985 H 646.376 -3.63552 1.5699 0
M  V30 6986 H 647.55 -2.2058 4.04575 0
M  V30 6987 H 645.865 -2.13072 3.57756 0
M  V30 6988 H 648.462 -4.70866 2.53357 0
M  V30 6989 H 648.805 -4.05277 0.951643 0
M  V30 6990 H 649.338 -3.1701 2.40311 0
M  V30 6991 H 646.077 -3.81488 5.33055 0
M  V30 6992 H 645.597 -4.62351 3.82089 0
M  V30 6993 H 647.276 -4.74004 4.40374 0
M  V30 6994 N 647.408 -1.11026 -1.11852 0
M  V30 6995 C 648.819 -0.873203 -1.65021 0
M  V30 6996 C 649.17 0.595364 -1.86949 0
M  V30 6997 O 648.295 1.45645 -1.60051 0
M  V30 6998 C 648.89 -1.57859 -2.99777 0
M  V30 6999 C 647.449 -1.38807 -3.49871 0
M  V30 7000 C 646.596 -1.62403 -2.24768 0
M  V30 7001 H 649.547 -1.26712 -0.955503 0
M  V30 7002 H 649.568 -1.02111 -3.66543 0
M  V30 7003 H 649.08 -2.6474 -2.83786 0
M  V30 7004 H 647.181 -0.341163 -3.71035 0
M  V30 7005 H 647.294 -2.13421 -4.28938 0
M  V30 7006 H 645.658 -1.04714 -2.32179 0
M  V30 7007 H 646.441 -2.70549 -2.11324 0
M  V30 7008 N 648.886 1.2938 -0.899927 0
M  V30 7009 C 649.833 2.27713 -0.376243 0
M  V30 7010 C 650.803 1.57016 0.541774 0
M  V30 7011 O 651.988 1.84997 0.466966 0
M  V30 7012 C 649.128 3.42889 0.39 0
M  V30 7013 C 648.241 4.28369 -0.558938 0
M  V30 7014 C 647.376 5.30726 0.224379 0
M  V30 7015 C 646.415 6.07862 -0.719068 0
M  V30 7016 N 645.552 7.02094 0.0298569 0
M  V30 7017 H 650.392 2.71888 -1.21988 0
M  V30 7018 H 647.929 1.33724 -0.612879 0
M  V30 7019 H 649.887 4.08443 0.850314 0
M  V30 7020 H 648.517 2.99743 1.19809 0
M  V30 7021 H 647.569 3.62986 -1.13777 0
M  V30 7022 H 648.881 4.82068 -1.2811 0
M  V30 7023 H 648.035 6.02098 0.745881 0
M  V30 7024 H 646.774 4.77759 0.979674 0
M  V30 7025 H 645.779 5.35353 -1.25207 0
M  V30 7026 H 647.004 6.62917 -1.4737 0
M  V30 7027 H 644.95 6.51496 0.767415 0
M  V30 7028 H 644.867 7.5335 -0.632391 0
M  V30 7029 H 646.135 7.77685 0.531615 0
M  V30 7030 N 650.364 0.662433 1.43002 0
M  V30 7031 C 651.312 -0.035345 2.32573 0
M  V30 7032 C 652.306 -0.803505 1.49131 0
M  V30 7033 O 653.512 -0.712865 1.65282 0
M  V30 7034 H 649.887 -0.0302194 0.751393 0
M  V30 7035 H 651.858 0.737686 2.89138 0
M  V30 7036 C 650.607 -0.981575 3.33557 0
M  V30 7037 H 649.93 -0.399914 3.97795 0
M  V30 7038 H 651.37 -1.43873 3.98844 0
M  V30 7039 C 649.829 -2.08204 2.64863 0
M  V30 7040 O 650.359 -3.16698 2.47113 0
M  V30 7041 N 648.565 -1.85022 2.24088 0
M  V30 7042 H 648.112 -0.967909 2.38724 0
M  V30 7043 H 648.07 -2.58845 1.78457 0
M  V30 7044 N 651.842 -1.52309 0.404946 0
M  V30 7045 C 653.09 -2.01368 -0.17186 0
M  V30 7046 C 653.411 -1.29261 -1.46002 0
M  V30 7047 O 652.681 -0.41729 -1.91404 0
M  V30 7048 H 651.261 -0.744034 -0.0664993 0
M  V30 7049 H 653.923 -1.87263 0.540228 0
M  V30 7050 H 653.019 -3.09888 -0.370957 0
M  V30 7051 N 653.32 -0.135238 -1.57019 0
M  V30 7052 C 654.569 0.518694 -1.94917 0
M  V30 7053 C 654.882 1.66783 -1.0219 0
M  V30 7054 O 656.088 2.38561 -1.29619 0
M  V30 7055 C 654.544 0.974123 -3.46466 0
M  V30 7056 C 654.152 -0.147439 -4.47757 0
M  V30 7057 C 655.896 1.59851 -3.93253 0
M  V30 7058 C 653.803 0.325599 -5.90503 0
M  V30 7059 H 652.733 0.19754 -0.727663 0
M  V30 7060 H 655.384 -0.217698 -1.82204 0
M  V30 7061 H 653.766 1.76542 -3.5447 0
M  V30 7062 H 654.94 -0.924122 -4.51438 0
M  V30 7063 H 653.255 -0.679496 -4.10818 0
M  V30 7064 H 655.852 1.96385 -4.9733 0
M  V30 7065 H 656.195 2.48306 -3.3414 0
M  V30 7066 H 656.728 0.872323 -3.88118 0
M  V30 7067 H 653.467 -0.523295 -6.53408 0
M  V30 7068 H 652.987 1.06841 -5.90208 0
M  V30 7069 H 654.666 0.781498 -6.42263 0
M  V30 7070 N 654.798 1.5699 0.138552 0
M  V30 7071 C 655.708 2.02174 1.19008 0
M  V30 7072 C 656.724 0.938622 1.46512 0
M  V30 7073 O 657.9 1.24872 1.58016 0
M  V30 7074 C 654.965 2.40045 2.50159 0
M  V30 7075 C 654.026 3.62346 2.30226 0
M  V30 7076 C 653.259 3.98401 3.55123 0
M  V30 7077 O 653.482 3.35019 4.61647 0
M  V30 7078 O 652.416 4.91606 3.47285 0
M  V30 7079 H 656.242 2.91954 0.836452 0
M  V30 7080 H 653.827 1.45293 0.347907 0
M  V30 7081 H 655.709 2.65225 3.27465 0
M  V30 7082 H 654.384 1.53417 2.85035 0
M  V30 7083 H 653.291 3.42341 1.50843 0
M  V30 7084 H 654.624 4.49617 2.00262 0
M  V30 7085 N 656.276 -0.40816 1.52223 0
M  V30 7086 C 657.223 -1.49737 1.75635 0
M  V30 7087 C 658.193 -1.5493 0.598824 0
M  V30 7088 O 659.378 -1.71487 0.83648 0
M  V30 7089 C 656.518 -2.87174 1.91376 0
M  V30 7090 C 655.631 -2.91283 3.19027 0
M  V30 7091 C 654.766 -4.20026 3.25195 0
M  V30 7092 C 653.805 -4.18113 4.47044 0
M  V30 7093 N 652.942 -5.38429 4.50598 0
M  V30 7094 H 657.782 -1.29075 2.68596 0
M  V30 7095 H 655.319 -0.626518 1.33091 0
M  V30 7096 H 657.277 -3.66959 1.98486 0
M  V30 7097 H 655.907 -3.06329 1.01795 0
M  V30 7098 H 654.959 -2.03984 3.21084 0
M  V30 7099 H 656.271 -2.85734 4.08849 0
M  V30 7100 H 655.425 -5.08204 3.31382 0
M  V30 7101 H 654.164 -4.28271 2.33313 0
M  V30 7102 H 653.169 -3.28325 4.41002 0
M  V30 7103 H 654.394 -4.11507 5.40221 0
M  V30 7104 H 652.34 -5.4734 3.616 0
M  V30 7105 H 652.257 -5.34879 5.34266 0
M  V30 7106 H 653.525 -6.28557 4.61016 0
M  V30 7107 N 657.755 -1.42862 -0.66545 0
M  V30 7108 C 658.705 -1.43521 -1.7716 0
M  V30 7109 C 659.689 -0.305267 -1.57978 0
M  V30 7110 O 660.881 -0.548176 -1.68297 0
M  V30 7111 C 658.01 -1.34914 -3.15679 0
M  V30 7112 C 657.096 -2.5289 -3.40452 0
M  V30 7113 N 657.487 -3.78284 -3.3576 0
M  V30 7114 C 655.785 -2.47351 -3.71124 0
M  V30 7115 C 656.486 -4.56701 -3.60276 0
M  V30 7116 N 655.462 -3.87249 -3.81496 0
M  V30 7117 H 659.264 -2.38357 -1.7194 0
M  V30 7118 H 656.778 -1.37342 -0.866653 0
M  V30 7119 H 658.775 -1.33468 -3.94958 0
M  V30 7120 H 657.435 -0.410881 -3.2209 0
M  V30 7121 H 658.446 -4.10746 -3.15448 0
M  V30 7122 H 655.123 -1.62152 -3.84725 0
M  V30 7123 H 656.513 -5.65704 -3.6253 0
M  V30 7124 N 659.233 0.902656 -1.29189 0
M  V30 7125 C 660.163 2.02294 -1.16616 0
M  V30 7126 C 661.144 1.6999 -0.0611175 0
M  V30 7127 O 662.329 1.9271 -0.240072 0
M  V30 7128 C 659.459 3.37018 -0.83882 0
M  V30 7129 C 658.413 3.83522 -1.89986 0
M  V30 7130 C 657.739 5.15337 -1.42589 0
M  V30 7131 C 659.039 4.04169 -3.30824 0
M  V30 7132 H 660.733 2.13071 -2.10336 0
M  V30 7133 H 658.279 1.02378 -1.01266 0
M  V30 7134 H 660.232 4.14895 -0.737584 0
M  V30 7135 H 658.956 3.26325 0.134071 0
M  V30 7136 H 657.615 3.07859 -1.99043 0
M  V30 7137 H 657.263 5.01056 -0.441759 0
M  V30 7138 H 656.963 5.47423 -2.13547 0
M  V30 7139 H 658.487 5.95758 -1.3381 0
M  V30 7140 H 659.901 4.72537 -3.24626 0
M  V30 7141 H 658.298 4.47604 -3.99713 0
M  V30 7142 H 659.368 3.08604 -3.74021 0
M  V30 7143 N 660.711 1.11618 1.11262 0
M  V30 7144 C 661.641 0.79846 2.19424 0
M  V30 7145 C 662.622 -0.234003 1.68483 0
M  V30 7146 O 663.807 -0.0970704 1.93957 0
M  V30 7147 C 660.937 0.242892 3.4645 0
M  V30 7148 C 659.891 1.20744 4.10615 0
M  V30 7149 C 659.217 0.512494 5.32238 0
M  V30 7150 C 660.517 2.55884 4.55325 0
M  V30 7151 H 662.211 1.70286 2.46258 0
M  V30 7152 H 659.757 0.820195 1.18359 0
M  V30 7153 H 661.71 0.00840447 4.21399 0
M  V30 7154 H 660.434 -0.696811 3.1908 0
M  V30 7155 H 659.093 1.42759 3.37662 0
M  V30 7156 H 658.741 -0.432075 5.01141 0
M  V30 7157 H 658.441 1.15583 5.7612 0
M  V30 7158 H 659.965 0.286842 6.09926 0
M  V30 7159 H 661.379 2.37946 5.21588 0
M  V30 7160 H 659.776 3.16216 5.10027 0
M  V30 7161 H 660.846 3.14968 3.68678 0
M  V30 7162 N 662.189 -1.289 0.906776 0
M  V30 7163 C 663.605 -1.47733 0.603902 0
M  V30 7164 C 663.805 -1.82568 -0.852702 0
M  V30 7165 O 662.861 -1.92642 -1.63234 0
M  V30 7166 C 664.174 -2.58522 1.53581 0
M  V30 7167 C 665.722 -2.72394 1.54177 0
M  V30 7168 C 666.197 -3.86318 2.46013 0
M  V30 7169 N 667.688 -3.93661 2.441 0
M  V30 7170 C 668.423 -4.81177 3.11859 0
M  V30 7171 N 667.919 -5.73333 3.88923 0
M  V30 7172 N 669.712 -4.74728 3.00981 0
M  V30 7173 H 661.863 -1.04567 1.84877 0
M  V30 7174 H 664.126 -0.520118 0.792579 0
M  V30 7175 H 663.832 -2.39667 2.57396 0
M  V30 7176 H 663.706 -3.55475 1.26165 0
M  V30 7177 H 666.093 -2.90641 0.511034 0
M  V30 7178 H 666.174 -1.75993 1.85634 0
M  V30 7179 H 665.818 -3.68826 3.49185 0
M  V30 7180 H 665.748 -4.82102 2.11862 0
M  V30 7181 H 668.239 -3.27751 1.88115 0
M  V30 7182 H 668.552 -6.36923 4.37663 0
M  V30 7183 H 666.897 -5.73196 3.93029 0
M  V30 7184 H 670.088 -4.01722 2.40286 0
M  V30 7185 H 670.261 -5.42719 3.54062 0
M  V30 7186 N 663.667 -0.670007 -1.42649 0
M  V30 7187 C 664.577 0.0114788 -2.34597 0
M  V30 7188 C 665.593 0.794055 -1.54825 0
M  V30 7189 O 666.769 0.737472 -1.87412 0
M  V30 7190 C 663.834 0.954436 -3.33304 0
M  V30 7191 C 662.895 0.166925 -4.28975 0
M  V30 7192 C 662.128 1.06497 -5.22967 0
M  V30 7193 O 662.351 2.30446 -5.21777 0
M  V30 7194 O 661.285 0.528347 -5.99577 0
M  V30 7195 H 665.111 -0.745794 -2.944 0
M  V30 7196 H 662.696 -0.430228 -1.43071 0
M  V30 7197 H 664.578 1.49589 -3.93956 0
M  V30 7198 H 663.253 1.69164 -2.7598 0
M  V30 7199 H 662.16 -0.418515 -3.71752 0
M  V30 7200 H 663.493 -0.531067 -4.89327 0
M  V30 7201 N 665.145 1.52092 -0.413018 0
M  V30 7202 C 666.373 2.06274 0.160881 0
M  V30 7203 C 666.788 1.28273 1.38533 0
M  V30 7204 O 666.145 0.33563 1.79387 0
M  V30 7205 C 666.196 3.57921 0.507443 0
M  V30 7206 O 665.917 4.32971 -0.668388 0
M  V30 7207 C 667.418 4.28533 1.13465 0
M  V30 7208 H 664.638 0.67074 0.0186759 0
M  V30 7209 H 667.182 1.95951 -0.585092 0
M  V30 7210 H 665.337 3.68238 1.20331 0
M  V30 7211 H 665.751 5.23135 -0.378169 0
M  V30 7212 H 667.225 5.35804 1.32732 0
M  V30 7213 H 667.702 3.85258 2.10886 0
M  V30 7214 H 668.308 4.22595 0.478876 0
M  V30 7215 N 666.623 0.143563 1.56945 0
M  V30 7216 C 667.87 -0.508407 1.96014 0
M  V30 7217 C 668.198 -1.65099 1.02824 0
M  V30 7218 O 667.453 -1.95618 0.0567764 0
M  V30 7219 C 667.752 -1.05885 3.41355 0
M  V30 7220 C 667.418 -0.0350809 4.50886 0
M  V30 7221 C 666.08 0.246362 4.80569 0
M  V30 7222 C 668.432 0.661282 5.16988 0
M  V30 7223 C 665.76 1.23003 5.73661 0
M  V30 7224 C 668.112 1.63375 6.11139 0
M  V30 7225 C 666.776 1.92292 6.39203 0
M  V30 7226 H 666.046 -0.186039 0.717266 0
M  V30 7227 H 668.693 0.229667 1.90118 0
M  V30 7228 H 666.998 -1.87419 3.44066 0
M  V30 7229 H 668.695 -1.57183 3.6891 0
M  V30 7230 H 665.285 -0.264622 4.27782 0
M  V30 7231 H 669.469 0.457038 4.94191 0
M  V30 7232 H 664.725 1.46056 5.93698 0
M  V30 7233 H 668.899 2.17887 6.61436 0
M  V30 7234 H 666.526 2.68666 7.11142 0
M  V30 7235 N 668.101 -1.57061 -0.130224 0
M  V30 7236 C 669.011 -2.02802 -1.17934 0
M  V30 7237 C 670.027 -0.946378 -1.46013 0
M  V30 7238 O 671.203 -1.25708 -1.57351 0
M  V30 7239 C 668.268 -2.41368 -2.48882 0
M  V30 7240 C 667.329 -3.63561 -2.28301 0
M  V30 7241 C 666.562 -4.00279 -3.53005 0
M  V30 7242 O 666.785 -3.37463 -4.59864 0
M  V30 7243 O 665.719 -4.93441 -3.44673 0
M  V30 7244 H 669.545 -2.92394 -0.820958 0
M  V30 7245 H 667.13 -1.45475 -0.340197 0
M  V30 7246 H 669.012 -2.66958 -3.26054 0
M  V30 7247 H 667.687 -1.54926 -2.84217 0
M  V30 7248 H 666.594 -3.43136 -1.49025 0
M  V30 7249 H 667.927 -4.50673 -1.97875 0
M  V30 7250 N 669.579 0.400081 -1.52437 0
M  V30 7251 C 670.856 1.15973 -1.57511 0
M  V30 7252 C 671.236 2.0798 -0.361572 0
M  V30 7253 O 670.584 2.19032 0.650929 0
M  V30 7254 C 670.794 1.92912 -2.90837 0
M  V30 7255 C 672.142 2.48662 -3.44169 0
M  V30 7256 O 673.166 2.03081 -2.92637 0
M  V30 7257 O 672.025 3.31894 -4.34176 0
M  V30 7258 H 669.119 0.530023 -0.634827 0
M  V30 7259 H 671.665 0.40613 -1.64769 0
M  V30 7260 H 670.437 1.25564 -3.70607 0
M  V30 7261 H 670.06 2.75257 -2.86913 0
M  V30 7262 N 671.057 1.43213 0.657864 0
M  V30 7263 C 672.282 1.48227 1.45064 0
M  V30 7264 C 672.707 0.0999939 1.87834 0
M  V30 7265 O 672.065 -0.905269 1.57081 0
M  V30 7266 C 672.113 2.42931 2.6649 0
M  V30 7267 O 671.217 1.91237 3.6538 0
M  V30 7268 H 670.558 0.501551 0.435135 0
M  V30 7269 H 673.088 1.8808 0.805431 0
M  V30 7270 H 673.098 2.6008 3.1436 0
M  V30 7271 H 671.773 3.43348 2.34701 0
M  V30 7272 H 670.35 1.83726 3.24498 0
M  V30 7273 N 672.536 -0.895792 1.29666 0
M  V30 7274 C 673.484 -2.02173 1.15017 0
M  V30 7275 C 674.478 -1.69276 0.0647651 0
M  V30 7276 O 675.684 -1.7859 0.224846 0
M  V30 7277 H 672.059 -0.662719 0.355397 0
M  V30 7278 H 674.03 -2.11666 2.10334 0
M  V30 7279 C 672.779 -3.37212 0.847555 0
M  V30 7280 H 672.102 -3.6303 1.67479 0
M  V30 7281 H 673.542 -4.16668 0.785106 0
M  V30 7282 C 672.001 -3.33891 -0.44929 0
M  V30 7283 O 672.531 -3.73673 -1.47415 0
M  V30 7284 N 670.737 -2.86991 -0.456547 0
M  V30 7285 H 670.284 -2.54813 0.377925 0
M  V30 7286 H 670.242 -2.85152 -1.32423 0
M  V30 7287 N 674.014 -1.12206 -1.10668 0
M  V30 7288 C 674.944 -0.810086 -2.18997 0
M  V30 7289 C 675.925 0.225065 -1.68604 0
M  V30 7290 O 677.11 0.086783 -1.94006 0
M  V30 7291 C 674.24 -0.261262 -3.46316 0
M  V30 7292 C 673.194 -1.2292 -4.09969 0
M  V30 7293 C 672.52 -0.540713 -5.31959 0
M  V30 7294 C 673.82 -2.58295 -4.53962 0
M  V30 7295 H 675.514 -1.7159 -2.45352 0
M  V30 7296 H 673.06 -0.82646 -1.17922 0
M  V30 7297 H 675.013 -0.0307522 -4.21389 0
M  V30 7298 H 673.737 0.679879 -3.19445 0
M  V30 7299 H 672.396 -1.44548 -3.369 0
M  V30 7300 H 672.044 0.405492 -5.01363 0
M  V30 7301 H 671.744 -1.18637 -5.75499 0
M  V30 7302 H 673.268 -0.319184 -6.09765 0
M  V30 7303 H 674.682 -2.40709 -5.20319 0
M  V30 7304 H 673.079 -3.18916 -5.08343 0
M  V30 7305 H 674.149 -3.16918 -3.67002 0
M  V30 7306 N 675.492 1.28418 -0.913599 0
M  V30 7307 C 676.741 1.94265 -0.542572 0
M  V30 7308 C 677.054 1.72709 0.918207 0
M  V30 7309 O 678.26 2.32778 1.39738 0
M  V30 7310 C 676.716 3.47956 -0.919507 0
M  V30 7311 C 676.324 3.78291 -2.4 0
M  V30 7312 C 678.068 4.19962 -0.619057 0
M  V30 7313 C 675.975 5.2529 -2.71707 0
M  V30 7314 H 674.905 0.727213 -0.199192 0
M  V30 7315 H 677.556 1.45931 -1.11249 0
M  V30 7316 H 675.938 3.9502 -0.278372 0
M  V30 7317 H 677.112 3.42035 -3.08786 0
M  V30 7318 H 675.427 3.19456 -2.67089 0
M  V30 7319 H 678.024 5.28178 -0.832623 0
M  V30 7320 H 678.367 4.13935 0.443126 0
M  V30 7321 H 678.9 3.78674 -1.21865 0
M  V30 7322 H 675.639 5.36394 -3.76778 0
M  V30 7323 H 675.159 5.62743 -2.07559 0
M  V30 7324 H 676.838 5.93027 -2.58703 0
M  V30 7325 N 676.97 0.677563 1.42291 0
M  V30 7326 C 678.381 0.277912 1.8462 0
M  V30 7327 C 678.732 -1.18048 1.56714 0
M  V30 7328 O 677.857 -1.90404 1.02836 0
M  V30 7329 C 678.452 0.497619 3.35126 0
M  V30 7330 C 677.011 0.152063 3.76093 0
M  V30 7331 C 676.158 0.78872 2.65847 0
M  V30 7332 H 679.109 0.879527 1.32098 0
M  V30 7333 H 679.13 -0.24939 3.79682 0
M  V30 7334 H 678.642 1.55913 3.55405 0
M  V30 7335 H 676.743 -0.905896 3.6142 0
M  V30 7336 H 676.856 0.594514 4.75397 0
M  V30 7337 H 675.22 0.219813 2.5375 0
M  V30 7338 H 676.003 1.85374 2.88949 0
M  V30 7339 N 678.448 -1.51871 0.421078 0
M  V30 7340 C 679.395 -2.27334 -0.398508 0
M  V30 7341 C 680.365 -1.30241 -1.03085 0
M  V30 7342 O 681.55 -1.59121 -1.05285 0
M  V30 7343 C 678.69 -3.10664 -1.50272 0
M  V30 7344 C 677.803 -4.2273 -0.890122 0
M  V30 7345 C 676.938 -4.93399 -1.96803 0
M  V30 7346 C 675.977 -5.97409 -1.333 0
M  V30 7347 N 675.114 -6.61548 -2.35156 0
M  V30 7348 H 679.954 -2.96938 0.251411 0
M  V30 7349 H 677.491 -1.46472 0.135825 0
M  V30 7350 H 679.449 -3.57292 -2.15403 0
M  V30 7351 H 678.079 -2.43207 -2.1225 0
M  V30 7352 H 677.131 -3.80186 -0.127537 0
M  V30 7353 H 678.443 -4.97302 -0.386349 0
M  V30 7354 H 677.597 -5.43491 -2.69633 0
M  V30 7355 H 676.336 -4.18421 -2.50549 0
M  V30 7356 H 675.341 -5.46624 -0.59008 0
M  V30 7357 H 676.566 -6.74335 -0.803076 0
M  V30 7358 H 674.512 -5.89394 -2.88012 0
M  V30 7359 H 674.429 -7.31832 -1.89624 0
M  V30 7360 H 675.697 -7.16276 -3.0752 0
M  V30 7361 N 679.926 -0.151884 -1.56866 0
M  V30 7362 C 680.836 0.798876 -2.20579 0
M  V30 7363 C 681.852 1.268 -1.19154 0
M  V30 7364 O 683.028 1.32418 -1.51748 0
M  V30 7365 C 680.093 2.01861 -2.81874 0
M  V30 7366 C 679.154 1.59825 -3.9844 0
M  V30 7367 C 678.387 2.75984 -4.56802 0
M  V30 7368 O 678.61 3.92331 -4.14044 0
M  V30 7369 O 677.544 2.51175 -5.46987 0
M  V30 7370 H 681.37 0.2865 -3.02346 0
M  V30 7371 H 678.955 0.0753806 -1.4921 0
M  V30 7372 H 680.837 2.73235 -3.20813 0
M  V30 7373 H 679.512 2.52042 -2.03117 0
M  V30 7374 H 678.419 0.854601 -3.64208 0
M  V30 7375 H 679.752 1.14355 -4.78731 0
M  V30 7376 N 681.404 1.57128 0.121893 0
M  V30 7377 C 682.653 1.83888 0.828748 0
M  V30 7378 C 682.966 0.737087 1.81181 0
M  V30 7379 O 684.172 0.891007 2.56463 0
M  V30 7380 C 682.628 3.26014 1.52455 0
M  V30 7381 C 682.236 4.44195 0.58263 0
M  V30 7382 C 683.98 3.62025 2.21671 0
M  V30 7383 C 681.887 5.77349 1.28149 0
M  V30 7384 H 680.817 0.685856 0.313238 0
M  V30 7385 H 683.468 1.83319 0.0814851 0
M  V30 7386 H 681.85 3.21044 2.31834 0
M  V30 7387 H 683.024 4.60457 -0.177729 0
M  V30 7388 H 681.339 4.164 -0.00241228 0
M  V30 7389 H 683.936 4.58776 2.74643 0
M  V30 7390 H 684.279 2.89315 2.99337 0
M  V30 7391 H 684.812 3.68767 1.49184 0
M  V30 7392 H 681.551 6.53221 0.546189 0
M  V30 7393 H 681.071 5.64978 2.01394 0
M  V30 7394 H 682.75 6.21006 1.81549 0
M  V30 7395 N 682.882 -0.391992 1.52647 0
M  V30 7396 C 683.812 -1.48517 1.8018 0
M  V30 7397 C 684.793 -1.57039 0.653667 0
M  V30 7398 O 685.978 -1.72036 0.900962 0
M  V30 7399 C 683.108 -2.86161 1.96797 0
M  V30 7400 C 682.062 -2.92481 3.12472 0
M  V30 7401 C 681.388 -4.32546 3.14338 0
M  V30 7402 C 682.688 -2.624 4.51601 0
M  V30 7403 H 684.382 -1.25726 2.71723 0
M  V30 7404 H 681.928 -0.603387 1.30749 0
M  V30 7405 H 683.881 -3.62639 2.14641 0
M  V30 7406 H 682.605 -3.10283 1.01941 0
M  V30 7407 H 681.264 -2.18451 2.94406 0
M  V30 7408 H 680.912 -4.53703 2.1717 0
M  V30 7409 H 680.612 -4.37695 3.92042 0
M  V30 7410 H 682.136 -5.10934 3.34333 0
M  V30 7411 H 683.55 -3.28596 4.69785 0
M  V30 7412 H 681.947 -2.78903 5.3135 0
M  V30 7413 H 683.017 -1.57754 4.58521 0
M  V30 7414 N 684.36 -1.4356 -0.65026 0
M  V30 7415 C 685.606 -1.46545 -1.41054 0
M  V30 7416 C 685.961 -0.0894113 -1.92192 0
M  V30 7417 O 685.254 0.892427 -1.69547 0
M  V30 7418 C 685.448 -2.44528 -2.60654 0
M  V30 7419 C 685.277 -3.91524 -2.21222 0
M  V30 7420 C 684.047 -4.59866 -2.09408 0
M  V30 7421 C 686.245 -4.81276 -1.81323 0
M  V30 7422 N 684.227 -5.91772 -1.63337 0
M  V30 7423 C 685.598 -6.02478 -1.46356 0
M  V30 7424 C 687.653 -4.6851 -1.68532 0
M  V30 7425 C 686.356 -7.12332 -0.998805 0
M  V30 7426 C 688.382 -5.78369 -1.23461 0
M  V30 7427 C 687.744 -6.98699 -0.894337 0
M  V30 7428 H 683.843 -0.59135 -0.511693 0
M  V30 7429 H 686.427 -1.79759 -0.747978 0
M  V30 7430 H 684.598 -2.13336 -3.24565 0
M  V30 7431 H 686.33 -2.37932 -3.27369 0
M  V30 7432 H 683.085 -4.14412 -2.29259 0
M  V30 7433 H 683.509 -6.61799 -1.42655 0
M  V30 7434 H 688.151 -3.75933 -1.93479 0
M  V30 7435 H 685.869 -8.04734 -0.736835 0
M  V30 7436 H 689.455 -5.70512 -1.1405 0
M  V30 7437 H 688.335 -7.82263 -0.550901 0
M  V30 7438 N 685.838 0.888903 -1.30139 0
M  V30 7439 C 687.254 1.17153 -1.08385 0
M  V30 7440 C 687.454 2.0088 0.157925 0
M  V30 7441 O 686.51 2.37668 0.852652 0
M  V30 7442 C 687.823 1.882 -2.34523 0
M  V30 7443 C 689.371 2.00981 -2.39949 0
M  V30 7444 C 689.846 2.75441 -3.65918 0
M  V30 7445 N 691.337 2.82989 -3.66704 0
M  V30 7446 C 692.072 3.41167 -4.60861 0
M  V30 7447 N 691.568 4.00425 -5.6536 0
M  V30 7448 N 693.361 3.38944 -4.48412 0
M  V30 7449 H 685.512 0.33053 -2.09812 0
M  V30 7450 H 687.775 0.208964 -0.924683 0
M  V30 7451 H 687.481 1.34119 -3.25123 0
M  V30 7452 H 687.355 2.88609 -2.42868 0
M  V30 7453 H 689.742 2.54234 -1.4983 0
M  V30 7454 H 689.823 0.996725 -2.35582 0
M  V30 7455 H 689.467 2.22861 -4.56394 0
M  V30 7456 H 689.397 3.77118 -3.67546 0
M  V30 7457 H 691.888 2.40912 -2.91153 0
M  V30 7458 H 692.201 4.42871 -6.33313 0
M  V30 7459 H 690.546 3.98856 -5.69157 0
M  V30 7460 H 693.737 2.91875 -3.6596 0
M  V30 7461 H 693.91 3.83989 -5.21974 0
M  V30 7462 N 687.317 1.12792 1.10072 0
M  V30 7463 C 688.728 0.899346 1.63611 0
M  V30 7464 C 689.079 -0.565547 1.87872 0
M  V30 7465 O 688.204 -1.43081 1.62348 0
M  V30 7466 C 688.799 1.62608 2.97227 0
M  V30 7467 C 687.358 1.44356 3.47618 0
M  V30 7468 C 686.505 1.65958 2.22156 0
M  V30 7469 H 689.456 1.28216 0.935223 0
M  V30 7470 H 689.477 1.0793 3.64872 0
M  V30 7471 H 688.989 2.69221 2.79538 0
M  V30 7472 H 687.09 0.400148 3.70445 0
M  V30 7473 H 687.203 2.20218 4.25489 0
M  V30 7474 H 685.567 1.08395 2.30484 0
M  V30 7475 H 686.35 2.73877 2.06993 0
M  V30 7476 N 688.795 -1.27931 0.920396 0
M  V30 7477 C 689.742 -2.27085 0.412422 0
M  V30 7478 C 690.712 -1.57858 -0.516725 0
M  V30 7479 O 691.897 -1.85717 -0.437475 0
M  V30 7480 C 689.037 -3.43466 -0.335399 0
M  V30 7481 C 688.15 -4.27425 0.627017 0
M  V30 7482 C 687.285 -5.31016 -0.139916 0
M  V30 7483 C 686.324 -6.06641 0.815683 0
M  V30 7484 N 685.461 -7.02052 0.0818439 0
M  V30 7485 H 690.301 -2.69913 1.26298 0
M  V30 7486 H 687.838 -1.32732 0.634076 0
M  V30 7487 H 689.796 -4.09744 -0.785226 0
M  V30 7488 H 688.426 -3.01611 -1.15025 0
M  V30 7489 H 687.478 -3.6113 1.19537 0
M  V30 7490 H 688.79 -4.79969 1.35763 0
M  V30 7491 H 687.944 -6.03208 -0.649998 0
M  V30 7492 H 686.683 -4.79257 -0.903543 0
M  V30 7493 H 685.688 -5.33294 1.33708 0
M  V30 7494 H 686.913 -6.60489 1.57897 0
M  V30 7495 H 684.859 -6.52634 -0.663671 0
M  V30 7496 H 684.776 -7.52249 0.752163 0
M  V30 7497 H 686.044 -7.78432 -0.407825 0
M  V30 7498 N 690.273 -0.685099 -1.4193 0
M  V30 7499 C 691.183 -0.013404 -2.34596 0
M  V30 7500 C 692.199 0.777589 -1.55658 0
M  V30 7501 O 693.375 0.717553 -1.88184 0
M  V30 7502 C 690.44 0.919031 -3.34297 0
M  V30 7503 C 689.501 0.121417 -4.29128 0
M  V30 7504 C 688.734 1.00944 -5.24067 0
M  V30 7505 O 688.957 2.24898 -5.24192 0
M  V30 7506 O 687.891 0.464724 -6.00103 0
M  V30 7507 H 691.717 -0.776978 -2.93593 0
M  V30 7508 H 689.302 -0.445379 -1.42607 0
M  V30 7509 H 691.184 1.45402 -3.9552 0
M  V30 7510 H 689.859 1.66228 -2.77759 0
M  V30 7511 H 688.766 -0.45792 -3.71287 0
M  V30 7512 H 690.099 -0.582937 -4.88736 0
M  V30 7513 N 691.751 1.51645 -0.429126 0
M  V30 7514 C 692.714 2.26116 0.374726 0
M  V30 7515 C 693.714 1.29242 0.956714 0
M  V30 7516 O 694.904 1.53022 0.832452 0
M  V30 7517 C 692.036 3.04669 1.52937 0
M  V30 7518 H 693.229 2.9861 -0.277818 0
M  V30 7519 H 690.782 1.55236 -0.182097 0
M  V30 7520 H 691.517 2.36571 2.21821 0
M  V30 7521 H 691.302 3.75814 1.11833 0
M  V30 7522 H 692.792 3.61102 2.09751 0
M  V30 7523 N 693.229 0.160201 1.56784 0
M  V30 7524 C 694.476 -0.487588 1.96542 0
M  V30 7525 C 694.804 -1.63999 1.04569 0
M  V30 7526 O 694.059 -1.95546 0.0775211 0
M  V30 7527 C 694.358 -1.02259 3.42459 0
M  V30 7528 C 694.024 0.0127436 4.50898 0
M  V30 7529 C 692.686 0.297318 4.80281 0
M  V30 7530 C 695.038 0.716078 5.16257 0
M  V30 7531 C 692.366 1.29081 5.72324 0
M  V30 7532 C 694.718 1.69847 6.09372 0
M  V30 7533 C 693.382 1.99061 6.37127 0
M  V30 7534 H 692.652 -0.178421 0.719199 0
M  V30 7535 H 695.299 0.249818 1.89864 0
M  V30 7536 H 693.604 -1.8376 3.46034 0
M  V30 7537 H 695.301 -1.53261 3.70556 0
M  V30 7538 H 691.891 -0.219235 4.28039 0
M  V30 7539 H 696.075 0.509428 4.93679 0
M  V30 7540 H 691.331 1.52344 5.92116 0
M  V30 7541 H 695.505 2.2489 6.59088 0
M  V30 7542 H 693.132 2.76194 7.08252 0
M  V30 7543 N 694.707 -1.5719 -0.113559 0
M  V30 7544 C 695.932 -1.89702 -0.838336 0
M  V30 7545 C 696.357 -0.752679 -1.72384 0
M  V30 7546 O 695.715 0.296575 -1.78858 0
M  V30 7547 C 695.763 -3.20989 -1.64312 0
M  V30 7548 O 694.867 -3.07278 -2.75053 0
M  V30 7549 H 694.208 -0.622339 -0.231496 0
M  V30 7550 H 696.738 -2.04382 -0.0943228 0
M  V30 7551 H 696.748 -3.53843 -2.03123 0
M  V30 7552 H 695.423 -4.03869 -0.993119 0
M  V30 7553 H 694 -2.85901 -2.39406 0
M  V30 7554 N 696.185 0.383891 -1.52853 0
M  V30 7555 C 697.462 1.14296 -1.58732 0
M  V30 7556 C 697.842 2.07585 -0.383611 0
M  V30 7557 O 697.19 2.1971 0.627661 0
M  V30 7558 C 697.4 1.89816 -2.92867 0
M  V30 7559 C 698.748 2.44998 -3.46787 0
M  V30 7560 O 699.772 1.99966 -2.94774 0
M  V30 7561 O 698.631 3.2727 -4.37672 0
M  V30 7562 H 695.725 0.52326 -0.640413 0
M  V30 7563 H 698.271 0.388631 -1.6519 0
M  V30 7564 H 697.043 1.21626 -3.71918 0
M  V30 7565 H 696.666 2.72199 -2.89816 0
M  V30 7566 N 697.663 1.43903 0.642637 0
M  V30 7567 C 698.911 1.45791 1.39962 0
M  V30 7568 C 699.232 0.0873144 1.94804 0
M  V30 7569 O 698.502 -0.878825 1.75081 0
M  V30 7570 H 697.082 0.536797 0.519479 0
M  V30 7571 H 699.744 1.7959 0.757189 0
M  V30 7572 H 698.84 2.17665 2.2367 0
M  V30 7573 N 699.141 -0.881989 1.30609 0
M  V30 7574 C 700.39 -1.62878 1.18969 0
M  V30 7575 C 700.703 -1.93946 -0.253859 0
M  V30 7576 O 701.909 -2.67008 -0.491813 0
M  V30 7577 C 700.365 -2.93573 2.0819 0
M  V30 7578 C 699.973 -2.70034 3.57471 0
M  V30 7579 C 701.717 -3.71543 2.0532 0
M  V30 7580 C 699.624 -3.96563 4.38739 0
M  V30 7581 H 698.554 -0.611092 0.441682 0
M  V30 7582 H 701.205 -0.976201 1.55379 0
M  V30 7583 H 699.587 -3.6014 1.64666 0
M  V30 7584 H 700.761 -2.11949 4.09163 0
M  V30 7585 H 699.076 -2.05435 3.62195 0
M  V30 7586 H 701.673 -4.65386 2.63288 0
M  V30 7587 H 702.016 -4.03167 1.03739 0
M  V30 7588 H 702.549 -3.11842 2.46981 0
M  V30 7589 H 699.288 -3.70095 5.41027 0
M  V30 7590 H 698.808 -4.54142 3.9181 0
M  V30 7591 H 700.487 -4.64557 4.50329 0
M  V30 7592 N 700.619 -1.13374 -1.09472 0
M  V30 7593 C 701.847 -0.918351 -1.85402 0
M  V30 7594 C 702.262 0.53281 -1.81126 0
M  V30 7595 O 701.619 1.36879 -1.20708 0
M  V30 7596 C 701.67 -1.39743 -3.33398 0
M  V30 7597 O 701.391 -2.79172 -3.37631 0
M  V30 7598 C 702.892 -1.22042 -4.2617 0
M  V30 7599 H 700.112 -0.327511 -0.585643 0
M  V30 7600 H 702.656 -1.50617 -1.38328 0
M  V30 7601 H 700.811 -0.852619 -3.77901 0
M  V30 7602 H 701.225 -3.00428 -4.29934 0
M  V30 7603 H 702.699 -1.60438 -5.2817 0
M  V30 7604 H 703.176 -0.162047 -4.38901 0
M  V30 7605 H 703.782 -1.75323 -3.87482 0
M  V30 7606 N 702.098 1.27442 -0.927168 0
M  V30 7607 C 703.323 1.99036 -0.583042 0
M  V30 7608 C 703.748 1.68711 0.83176 0
M  V30 7609 O 703.106 0.927081 1.55804 0
M  V30 7610 C 703.154 3.51271 -0.814925 0
M  V30 7611 O 702.258 4.12226 0.119742 0
M  V30 7612 H 701.599 0.624883 -0.224538 0
M  V30 7613 H 704.129 1.62263 -1.24628 0
M  V30 7614 H 704.139 4.01411 -0.730282 0
M  V30 7615 H 702.814 3.72676 -1.84623 0
M  V30 7616 H 701.391 3.72897 -0.0147688 0
M  V30 7617 N 703.576 0.692616 1.41565 0
M  V30 7618 C 704.822 0.222664 2.01574 0
M  V30 7619 C 705.155 -1.1737 1.54719 0
M  V30 7620 O 704.43 -1.79161 0.757084 0
M  V30 7621 C 704.713 0.277064 3.59033 0
M  V30 7622 C 704.566 1.71016 4.16021 0
M  V30 7623 C 705.885 -0.36479 4.38586 0
M  V30 7624 H 703.004 0.0823839 0.732381 0
M  V30 7625 H 705.646 0.880778 1.68352 0
M  V30 7626 H 703.796 -0.283288 3.87466 0
M  V30 7627 H 705.468 2.32413 3.98475 0
M  V30 7628 H 703.711 2.24525 3.71175 0
M  V30 7629 H 704.382 1.69978 5.25178 0
M  V30 7630 H 706.858 0.112404 4.15948 0
M  V30 7631 H 705.734 -0.296169 5.481 0
M  V30 7632 H 705.995 -1.44506 4.17816 0
M  V30 7633 N 705.054 -1.51416 0.437162 0
M  V30 7634 C 706.001 -2.27743 -0.374374 0
M  V30 7635 C 706.971 -1.31327 -1.01698 0
M  V30 7636 O 708.156 -1.60229 -1.03592 0
M  V30 7637 C 705.296 -3.12241 -1.46969 0
M  V30 7638 C 704.409 -4.23651 -0.845236 0
M  V30 7639 C 703.544 -4.95458 -1.91559 0
M  V30 7640 C 702.583 -5.98789 -1.26956 0
M  V30 7641 N 701.72 -6.64005 -2.28126 0
M  V30 7642 H 706.56 -2.96654 0.282892 0
M  V30 7643 H 704.097 -1.46319 0.151352 0
M  V30 7644 H 706.055 -3.59556 -2.11602 0
M  V30 7645 H 704.685 -2.45445 -2.09659 0
M  V30 7646 H 703.737 -3.803 -0.0872059 0
M  V30 7647 H 705.049 -4.97683 -0.333582 0
M  V30 7648 H 704.203 -5.46321 -2.63854 0
M  V30 7649 H 702.942 -4.21055 -2.46097 0
M  V30 7650 H 701.947 -5.47219 -0.53207 0
M  V30 7651 H 703.172 -6.75149 -0.731509 0
M  V30 7652 H 701.118 -5.92415 -2.81745 0
M  V30 7653 H 701.035 -7.33802 -1.81852 0
M  V30 7654 H 702.303 -7.19498 -2.99905 0
M  V30 7655 N 706.532 -0.168513 -1.56696 0
M  V30 7656 C 707.48 0.779791 -2.19139 0
M  V30 7657 C 708.474 1.23957 -1.1546 0
M  V30 7658 O 709.68 1.20555 -1.33666 0
M  V30 7659 H 706.055 0.269739 -0.701958 0
M  V30 7660 H 708.026 0.229156 -2.97519 0
M  V30 7661 C 706.775 2.00003 -2.84419 0
M  V30 7662 H 706.098 1.65527 -3.63924 0
M  V30 7663 H 707.538 2.64251 -3.31583 0
M  V30 7664 C 705.997 2.82187 -1.84044 0
M  V30 7665 O 706.527 3.79247 -1.32418 0
M  V30 7666 N 704.733 2.47145 -1.52864 0
M  V30 7667 H 704.28 1.68277 -1.9504 0
M  V30 7668 H 704.238 3.02422 -0.859569 0
M  V30 7669 N 708.01 1.57248 0.105221 0
M  V30 7670 C 709.235 1.90143 0.828264 0
M  V30 7671 C 709.66 0.761811 1.71983 0
M  V30 7672 O 709.018 -0.287086 1.79013 0
M  V30 7673 C 709.066 3.21856 1.62608 0
M  V30 7674 O 708.17 3.08732 2.7342 0
M  V30 7675 H 707.511 0.623558 0.228192 0
M  V30 7676 H 710.041 2.0443 0.0834826 0
M  V30 7677 H 710.051 3.54916 2.01243 0
M  V30 7678 H 708.726 4.0439 0.971687 0
M  V30 7679 H 707.303 2.87167 2.37886 0
M  V30 7680 N 709.488 -0.375779 1.53054 0
M  V30 7681 C 710.734 -1.11767 1.6994 0
M  V30 7682 C 711.089 -1.87288 0.440574 0
M  V30 7683 O 710.382 -1.83045 -0.566146 0
M  V30 7684 C 710.576 -2.11356 2.88207 0
M  V30 7685 C 710.405 -1.45619 4.25471 0
M  V30 7686 C 709.175 -1.21464 4.90484 0
M  V30 7687 C 711.373 -0.899276 5.06377 0
M  V30 7688 N 709.355 -0.519705 6.11696 0
M  V30 7689 C 710.726 -0.333138 6.19104 0
M  V30 7690 C 712.781 -0.79697 4.9148 0
M  V30 7691 C 711.484 0.325316 7.18564 0
M  V30 7692 C 713.51 -0.152315 5.91204 0
M  V30 7693 C 712.872 0.402994 7.03246 0
M  V30 7694 H 708.971 -0.394489 0.675206 0
M  V30 7695 H 711.555 -0.40541 1.90432 0
M  V30 7696 H 709.726 -2.79905 2.69272 0
M  V30 7697 H 711.458 -2.78148 2.93966 0
M  V30 7698 H 708.213 -1.49319 4.49445 0
M  V30 7699 H 708.637 -0.187896 6.76739 0
M  V30 7700 H 713.279 -1.21208 4.05054 0
M  V30 7701 H 710.997 0.752399 8.0459 0
M  V30 7702 H 714.583 -0.074223 5.81753 0
M  V30 7703 H 713.463 0.89394 7.79088 0
M  V30 7704 N 710.966 -1.44241 -0.634997 0
M  V30 7705 C 712.213 -1.46821 -1.39463 0
M  V30 7706 C 712.541 -0.0993362 -1.94246 0
M  V30 7707 O 711.796 0.898325 -1.73864 0
M  V30 7708 C 712.095 -2.47279 -2.58046 0
M  V30 7709 C 711.761 -3.92703 -2.21574 0
M  V30 7710 C 710.423 -4.32306 -2.1134 0
M  V30 7711 C 712.775 -4.84271 -1.92695 0
M  V30 7712 C 710.103 -5.61407 -1.70409 0
M  V30 7713 C 712.455 -6.13755 -1.53258 0
M  V30 7714 C 711.119 -6.52316 -1.41562 0
M  V30 7715 H 710.389 -0.537256 -0.51033 0
M  V30 7716 H 713.036 -1.77431 -0.720441 0
M  V30 7717 H 711.341 -2.10138 -3.3068 0
M  V30 7718 H 713.038 -2.46523 -3.16271 0
M  V30 7719 H 709.628 -3.61369 -2.30456 0
M  V30 7720 H 713.812 -4.54432 -1.99513 0
M  V30 7721 H 709.068 -5.90105 -1.59955 0
M  V30 7722 H 713.242 -6.84168 -1.29949 0
M  V30 7723 H 710.869 -7.52255 -1.09619 0
M  V30 7724 N 712.444 0.87505 -1.31075 0
M  V30 7725 C 713.391 1.98178 -1.18296 0
M  V30 7726 C 714.361 1.65952 -0.0699923 0
M  V30 7727 O 715.546 1.8926 -0.241951 0
M  V30 7728 C 712.686 3.33399 -0.891024 0
M  V30 7729 C 711.799 3.78253 -2.08684 0
M  V30 7730 C 710.934 5.02166 -1.73212 0
M  V30 7731 C 709.973 5.39455 -2.89231 0
M  V30 7732 N 709.11 6.54549 -2.53989 0
M  V30 7733 H 713.95 2.0844 -2.12971 0
M  V30 7734 H 711.487 1.02047 -1.05948 0
M  V30 7735 H 713.445 4.11246 -0.702338 0
M  V30 7736 H 712.075 3.22794 0.0188799 0
M  V30 7737 H 711.127 2.9623 -2.38646 0
M  V30 7738 H 712.439 4.01821 -2.95536 0
M  V30 7739 H 711.593 5.87666 -1.50777 0
M  V30 7740 H 710.332 4.80491 -0.83544 0
M  V30 7741 H 709.337 4.52477 -3.12321 0
M  V30 7742 H 710.562 5.63098 -3.79601 0
M  V30 7743 H 708.508 6.3443 -1.66838 0
M  V30 7744 H 708.425 6.78035 -3.34372 0
M  V30 7745 H 709.693 7.43254 -2.34934 0
M  V30 7746 N 713.922 1.13953 1.08869 0
M  V30 7747 C 715.171 0.899431 1.80536 0
M  V30 7748 C 715.484 -0.575781 1.86933 0
M  V30 7749 O 716.69 -0.932988 2.54966 0
M  V30 7750 C 715.146 1.55963 3.24351 0
M  V30 7751 C 714.754 3.07077 3.26202 0
M  V30 7752 C 716.498 1.40046 4.00733 0
M  V30 7753 C 714.405 3.65955 4.64576 0
M  V30 7754 H 713.335 0.332849 0.676556 0
M  V30 7755 H 715.986 1.3679 1.22314 0
M  V30 7756 H 714.368 1.01883 3.82669 0
M  V30 7757 H 715.542 3.67785 2.77617 0
M  V30 7758 H 713.857 3.22576 2.63312 0
M  V30 7759 H 716.454 1.81441 5.02974 0
M  V30 7760 H 716.797 0.345993 4.1486 0
M  V30 7761 H 717.33 1.91137 3.48872 0
M  V30 7762 H 714.069 4.71234 4.55652 0
M  V30 7763 H 713.589 3.10027 5.13462 0
M  V30 7764 H 715.268 3.65968 5.33551 0
M  V30 7765 N 715.4 -1.26948 0.933913 0
M  V30 7766 C 716.33 -2.29017 0.45534 0
M  V30 7767 C 717.311 -1.62961 -0.487605 0
M  V30 7768 O 718.496 -1.90223 -0.391022 0
M  V30 7769 C 715.626 -3.46112 -0.287015 0
M  V30 7770 C 714.58 -4.24205 0.568682 0
M  V30 7771 C 713.906 -5.3384 -0.303206 0
M  V30 7772 C 715.206 -4.88954 1.83633 0
M  V30 7773 H 716.9 -2.69298 1.30839 0
M  V30 7774 H 714.446 -1.29459 0.630579 0
M  V30 7775 H 716.399 -4.16622 -0.6328 0
M  V30 7776 H 715.123 -3.04765 -1.17414 0
M  V30 7777 H 713.782 -3.5545 0.897261 0
M  V30 7778 H 713.43 -4.88734 -1.18947 0
M  V30 7779 H 713.13 -5.86998 0.265879 0
M  V30 7780 H 714.654 -6.0719 -0.644423 0
M  V30 7781 H 716.068 -5.51717 1.55823 0
M  V30 7782 H 714.465 -5.52198 2.34941 0
M  V30 7783 H 715.535 -4.12305 2.55211 0
M  V30 7784 N 716.879 -0.700114 -1.41195 0
M  V30 7785 C 717.811 0.00155823 -2.292 0
M  V30 7786 C 718.824 0.739736 -1.45023 0
M  V30 7787 O 720.013 0.589684 -1.68478 0
M  V30 7788 C 717.113 1.02635 -3.22985 0
M  V30 7789 C 716.286 0.356871 -4.35942 0
M  V30 7790 C 715.345 1.28491 -5.10271 0
M  V30 7791 O 714.371 0.775562 -5.63892 0
M  V30 7792 N 715.573 2.61699 -5.18164 0
M  V30 7793 H 718.338 -0.754008 -2.9006 0
M  V30 7794 H 715.899 -0.546504 -1.52397 0
M  V30 7795 H 717.891 1.64902 -3.6958 0
M  V30 7796 H 716.461 1.68341 -2.63401 0
M  V30 7797 H 715.681 -0.445753 -3.91672 0
M  V30 7798 H 716.969 -0.108469 -5.08684 0
M  V30 7799 H 716.367 3.05594 -4.76056 0
M  V30 7800 H 714.924 3.19149 -5.6832 0
M  V30 7801 N 718.357 1.51182 -0.445186 0
M  V30 7802 C 719.267 2.31692 0.368255 0
M  V30 7803 C 720.283 1.40942 1.02036 0
M  V30 7804 O 721.459 1.74011 1.01401 0
M  V30 7805 C 718.524 3.14903 1.45041 0
M  V30 7806 C 717.585 4.21442 0.817615 0
M  V30 7807 C 716.818 5.00677 1.8482 0
M  V30 7808 O 717.041 4.80644 3.07145 0
M  V30 7809 O 715.975 5.84559 1.43438 0
M  V30 7810 H 719.801 3.0232 -0.289219 0
M  V30 7811 H 717.386 1.47951 -0.207555 0
M  V30 7812 H 719.268 3.66612 2.07783 0
M  V30 7813 H 717.943 2.47031 2.09182 0
M  V30 7814 H 716.85 3.73791 0.151931 0
M  V30 7815 H 718.183 4.9171 0.219564 0
M  V30 7816 N 719.835 0.176821 1.56605 0
M  V30 7817 C 721.065 -0.472142 2.01133 0
M  V30 7818 C 721.473 -1.56979 1.05614 0
M  V30 7819 O 720.816 -1.83632 0.0500137 0
M  V30 7820 C 720.878 -1.10547 3.42081 0
M  V30 7821 C 720.542 -0.148806 4.56758 0
M  V30 7822 C 721.539 0.634939 5.16008 0
M  V30 7823 C 719.224 -0.0430325 5.02282 0
M  V30 7824 C 721.218 1.5116 6.19217 0
M  V30 7825 C 718.905 0.83721 6.05338 0
M  V30 7826 C 719.903 1.61311 6.63677 0
M  V30 7827 O 719.591 2.47863 7.64735 0
M  V30 7828 H 719.323 -0.124725 0.664394 0
M  V30 7829 H 721.877 0.277329 2.03519 0
M  V30 7830 H 720.107 -1.90318 3.36625 0
M  V30 7831 H 721.796 -1.6572 3.70529 0
M  V30 7832 H 722.562 0.563424 4.81716 0
M  V30 7833 H 718.441 -0.636753 4.56581 0
M  V30 7834 H 721.985 2.11767 6.64681 0
M  V30 7835 H 717.882 0.909908 6.39055 0
M  V30 7836 H 718.65 2.4144 7.8208 0
M  V30 7837 N 721.313 -1.57302 -0.09688 0
M  V30 7838 C 722.559 -1.86273 -0.801885 0
M  V30 7839 C 722.892 -0.765694 -1.78468 0
M  V30 7840 O 722.167 0.226495 -1.93177 0
M  V30 7841 C 722.45 -3.25876 -1.53221 0
M  V30 7842 C 722.303 -4.46205 -0.567529 0
M  V30 7843 C 723.622 -3.63352 -2.48321 0
M  V30 7844 H 720.741 -0.67752 -0.29006 0
M  V30 7845 H 723.383 -1.89887 -0.0655577 0
M  V30 7846 H 721.533 -3.22926 -2.15988 0
M  V30 7847 H 723.205 -4.6127 0.0529982 0
M  V30 7848 H 721.448 -4.33636 0.119233 0
M  V30 7849 H 722.119 -5.40608 -1.11564 0
M  V30 7850 H 724.595 -3.67234 -1.95648 0
M  V30 7851 H 723.471 -4.61968 -2.9644 0
M  V30 7852 H 723.732 -2.91941 -3.31998 0
M  V30 7853 N 722.791 0.367657 -1.53252 0
M  V30 7854 C 723.701 1.47415 -1.82499 0
M  V30 7855 C 724.717 1.58711 -0.713222 0
M  V30 7856 O 725.893 1.74644 -1.00306 0
M  V30 7857 C 722.958 2.82706 -2.00694 0
M  V30 7858 C 722.019 2.80955 -3.24596 0
M  V30 7859 C 721.252 4.09793 -3.41914 0
M  V30 7860 O 721.475 5.05852 -2.63572 0
M  V30 7861 O 720.409 4.15731 -4.3526 0
M  V30 7862 H 724.235 1.25624 -2.765 0
M  V30 7863 H 721.82 0.557559 -1.38606 0
M  V30 7864 H 723.702 3.62873 -2.14246 0
M  V30 7865 H 722.377 3.04479 -1.09883 0
M  V30 7866 H 721.284 1.99494 -3.16469 0
M  V30 7867 H 722.617 2.64136 -4.15323 0
M  V30 7868 N 724.269 1.44576 0.627338 0
M  V30 7869 C 725.219 1.48168 1.73293 0
M  V30 7870 C 726.203 0.347045 1.57113 0
M  V30 7871 O 727.395 0.592605 1.66785 0
M  V30 7872 C 724.524 1.43236 3.11991 0
M  V30 7873 C 723.61 2.61828 3.33627 0
M  V30 7874 N 724.001 3.87053 3.25612 0
M  V30 7875 C 722.299 2.57104 3.64436 0
M  V30 7876 C 723 4.66093 3.48041 0
M  V30 7877 N 721.976 3.97228 3.71095 0
M  V30 7878 H 725.778 2.42832 1.6556 0
M  V30 7879 H 723.292 1.39592 0.829934 0
M  V30 7880 H 725.289 1.43893 3.91281 0
M  V30 7881 H 723.949 0.496133 3.20887 0
M  V30 7882 H 724.96 4.18966 3.04447 0
M  V30 7883 H 721.637 1.72295 3.8029 0
M  V30 7884 H 723.027 5.75117 3.47404 0
M  V30 7885 N 725.747 -0.868086 1.31537 0
M  V30 7886 C 726.679 -1.98165 1.15166 0
M  V30 7887 C 727.692 -1.6255 0.0902335 0
M  V30 7888 O 728.881 -1.75272 0.33791 0
M  V30 7889 C 725.981 -3.30772 0.737776 0
M  V30 7890 C 725.154 -3.94716 1.88462 0
M  V30 7891 C 724.213 -5.05641 1.45648 0
M  V30 7892 O 723.239 -5.2636 2.16642 0
M  V30 7893 N 724.441 -5.79474 0.34493 0
M  V30 7894 H 727.206 -2.12754 2.11083 0
M  V30 7895 H 724.767 -1.04217 1.23897 0
M  V30 7896 H 726.759 -4.02366 0.434032 0
M  V30 7897 H 725.329 -3.1233 -0.129834 0
M  V30 7898 H 724.549 -3.16079 2.35558 0
M  V30 7899 H 725.837 -4.34175 2.65273 0
M  V30 7900 H 725.235 -5.65164 -0.246259 0
M  V30 7901 H 723.792 -6.51722 0.100728 0
M  V30 7902 N 727.225 -1.14528 -1.08264 0
M  V30 7903 C 728.471 -0.91576 -1.80947 0
M  V30 7904 C 728.804 0.55623 -1.86064 0
M  V30 7905 O 728.079 1.41207 -1.33756 0
M  V30 7906 C 728.362 -1.51917 -3.26486 0
M  V30 7907 C 728.215 -3.06111 -3.2957 0
M  V30 7908 C 729.534 -1.19724 -4.23502 0
M  V30 7909 H 726.653 -0.334113 -0.656915 0
M  V30 7910 H 729.295 -1.41547 -1.26746 0
M  V30 7911 H 727.445 -1.0942 -3.72773 0
M  V30 7912 H 729.117 -3.57448 -2.91597 0
M  V30 7913 H 727.36 -3.40483 -2.688 0
M  V30 7914 H 728.031 -3.43438 -4.32151 0
M  V30 7915 H 730.507 -1.56467 -3.85561 0
M  V30 7916 H 729.383 -1.64575 -5.23647 0
M  V30 7917 H 729.644 -0.112771 -4.41956 0
M  V30 7918 N 728.703 1.26451 -0.940633 0
M  V30 7919 C 729.98 1.88947 -0.505811 0
M  V30 7920 C 730.36 1.85011 1.01657 0
M  V30 7921 O 729.708 1.30406 1.87634 0
M  V30 7922 C 729.918 3.32304 -1.06654 0
M  V30 7923 C 731.266 4.09153 -1.13486 0
M  V30 7924 O 732.29 3.41371 -1.01708 0
M  V30 7925 O 731.149 5.30369 -1.31797 0
M  V30 7926 H 728.243 0.810422 -0.164759 0
M  V30 7927 H 730.789 1.34625 -1.03316 0
M  V30 7928 H 729.561 3.29527 -2.11015 0
M  V30 7929 H 729.184 3.94164 -0.521603 0
M  V30 7930 N 730.181 0.707592 1.40822 0
M  V30 7931 C 731.458 0.171172 1.9485 0
M  V30 7932 C 731.838 -1.32143 1.64625 0
M  V30 7933 O 731.186 -2.07372 0.959647 0
M  V30 7934 C 731.396 0.475334 3.45748 0
M  V30 7935 C 732.744 0.409625 4.22619 0
M  V30 7936 O 733.768 0.410934 3.53822 0
M  V30 7937 O 732.627 0.380185 5.45176 0
M  V30 7938 H 729.721 0.022015 0.826707 0
M  V30 7939 H 732.267 0.784577 1.50474 0
M  V30 7940 H 731.039 1.50801 3.61075 0
M  V30 7941 H 730.662 -0.168439 3.97243 0
M  V30 7942 N 731.66 -1.50943 0.453197 0
M  V30 7943 C 732.623 -2.26684 -0.338705 0
M  V30 7944 C 733.623 -1.30748 -0.936032 0
M  V30 7945 O 734.813 -1.54327 -0.808002 0
M  V30 7946 C 731.945 -3.07063 -1.48071 0
M  V30 7947 H 733.138 -2.98131 0.325289 0
M  V30 7948 H 730.691 -1.54926 0.206771 0
M  V30 7949 H 731.426 -2.4007 -2.18029 0
M  V30 7950 H 731.211 -3.77545 -1.0584 0
M  V30 7951 H 732.701 -3.64393 -2.0398 0
M  V30 7952 N 733.138 -0.185124 -1.56509 0
M  V30 7953 C 734.071 0.77877 -2.145 0
M  V30 7954 C 735.049 1.21649 -1.07891 0
M  V30 7955 O 736.233 1.30579 -1.35946 0
M  V30 7956 C 733.36 2.05048 -2.69579 0
M  V30 7957 C 732.406 1.75569 -3.88687 0
M  V30 7958 S 733.239 0.912642 -5.27666 0
M  V30 7959 C 734.395 2.19471 -5.8616 0
M  V30 7960 H 734.628 0.285751 -2.95924 0
M  V30 7961 H 732.161 0.0297417 -1.54371 0
M  V30 7962 H 734.119 2.78085 -3.01958 0
M  V30 7963 H 732.78 2.51462 -1.88216 0
M  V30 7964 H 731.973 2.69962 -4.25601 0
M  V30 7965 H 731.575 1.10619 -3.57267 0
M  V30 7966 H 733.867 3.14815 -5.99915 0
M  V30 7967 H 734.81 1.87005 -6.8296 0
M  V30 7968 H 735.218 2.31862 -5.14685 0
M  V30 7969 N 734.616 1.57351 0.0885366 0
M  V30 7970 C 735.549 1.97786 1.13825 0
M  V30 7971 C 736.527 0.852091 1.38485 0
M  V30 7972 O 737.711 1.11296 1.52137 0
M  V30 7973 C 734.838 2.30024 2.48609 0
M  V30 7974 C 733.884 3.52437 2.40189 0
M  V30 7975 S 734.717 5.03908 1.81209 0
M  V30 7976 C 735.873 5.39331 3.17605 0
M  V30 7977 H 736.106 2.86513 0.793587 0
M  V30 7978 H 733.639 1.51527 0.29646 0
M  V30 7979 H 735.597 2.49274 3.26148 0
M  V30 7980 H 734.258 1.41856 2.80242 0
M  V30 7981 H 733.451 3.72457 3.39546 0
M  V30 7982 H 733.053 3.32731 1.70781 0
M  V30 7983 H 735.345 5.36378 4.13891 0
M  V30 7984 H 736.288 6.4029 3.02381 0
M  V30 7985 H 736.696 4.6679 3.17438 0
M  V30 7986 N 736.094 -0.359525 1.53444 0
M  V30 7987 C 737.057 -1.42357 1.7963 0
M  V30 7988 C 738.057 -1.46319 0.666884 0
M  V30 7989 O 739.247 -1.46974 0.935113 0
M  V30 7990 C 736.379 -2.81425 1.92387 0
M  V30 7991 H 737.572 -1.20409 2.74666 0
M  V30 7992 H 735.125 -0.593007 1.44614 0
M  V30 7993 H 735.86 -3.08679 0.994384 0
M  V30 7994 H 735.645 -2.79947 2.74539 0
M  V30 7995 H 737.135 -3.5847 2.14218 0
M  V30 7996 N 737.572 -1.44907 -0.619662 0
M  V30 7997 C 738.52 -1.52971 -1.75222 0
M  V30 7998 C 739.514 -0.400531 -1.64597 0
M  V30 7999 O 740.72 -0.575952 -1.70537 0
M  V30 8000 H 737.095 -0.480241 -0.578682 0
M  V30 8001 H 739.066 -2.48269 -1.65545 0
M  V30 8002 C 737.815 -1.50204 -3.13583 0
M  V30 8003 H 737.138 -2.36412 -3.22412 0
M  V30 8004 H 738.578 -1.59905 -3.92691 0
M  V30 8005 C 737.037 -0.22455 -3.36151 0
M  V30 8006 O 737.567 0.700574 -3.95544 0
M  V30 8007 N 735.773 -0.124052 -2.90335 0
M  V30 8008 H 735.32 -0.87774 -2.42185 0
M  V30 8009 H 735.278 0.729914 -3.0581 0
M  V30 8010 N 739.05 0.861098 -1.31996 0
M  V30 8011 C 740.013 1.95068 -1.20338 0
M  V30 8012 C 741.013 1.60289 -0.128114 0
M  V30 8013 O 742.203 1.70048 -0.378044 0
M  V30 8014 C 739.335 3.30153 -0.849205 0
M  V30 8015 H 740.528 2.06833 -2.17164 0
M  V30 8016 H 738.081 1.05049 -1.15734 0
M  V30 8017 H 738.816 3.24087 0.117508 0
M  V30 8018 H 738.601 3.56771 -1.62655 0
M  V30 8019 H 740.091 4.10025 -0.791782 0
M  V30 8020 N 740.528 1.15101 1.07655 0
M  V30 8021 C 741.491 0.847625 2.12951 0
M  V30 8022 C 742.491 -0.151227 1.60087 0
M  V30 8023 O 743.681 0.0780399 1.74025 0
M  V30 8024 C 740.813 0.265 3.39868 0
M  V30 8025 H 742.006 1.7809 2.41296 0
M  V30 8026 H 739.559 0.958072 1.23494 0
M  V30 8027 H 740.294 -0.676625 3.17163 0
M  V30 8028 H 740.079 0.984554 3.79538 0
M  V30 8029 H 741.569 0.0702121 4.17541 0
M  V30 8030 N 742.006 -1.2595 0.947325 0
M  V30 8031 C 742.938 -2.25336 0.41906 0
M  V30 8032 C 743.951 -1.56135 -0.461051 0
M  V30 8033 O 745.14 -1.76438 -0.270505 0
M  V30 8034 C 742.24 -3.36334 -0.416233 0
M  V30 8035 C 741.413 -4.35088 0.449162 0
M  V30 8036 C 740.472 -5.25185 -0.326716 0
M  V30 8037 O 739.498 -5.68548 0.272374 0
M  V30 8038 N 740.7 -5.57388 -1.6217 0
M  V30 8039 H 743.465 -2.71298 1.27348 0
M  V30 8040 H 741.026 -1.39781 0.81688 0
M  V30 8041 H 743.018 -3.93564 -0.942826 0
M  V30 8042 H 741.588 -2.89819 -1.17148 0
M  V30 8043 H 740.808 -3.76841 1.15692 0
M  V30 8044 H 742.096 -4.98056 1.04008 0
M  V30 8045 H 741.494 -5.2405 -2.13046 0
M  V30 8046 H 740.051 -6.17234 -2.0944 0
M  V30 8047 N 743.484 -0.715051 -1.40445 0
M  V30 8048 C 744.431 -0.0621393 -2.30716 0
M  V30 8049 C 745.401 0.750871 -1.48159 0
M  V30 8050 O 746.586 0.714928 -1.76899 0
M  V30 8051 C 743.726 0.854036 -3.34365 0
M  V30 8052 C 742.839 0.0305565 -4.31989 0
M  V30 8053 C 741.974 0.946162 -5.22706 0
M  V30 8054 C 741.013 0.116741 -6.11989 0
M  V30 8055 N 740.15 0.987194 -6.95125 0
M  V30 8056 H 744.99 -0.83764 -2.85985 0
M  V30 8057 H 742.527 -0.424759 -1.40834 0
M  V30 8058 H 744.485 1.39946 -3.93028 0
M  V30 8059 H 743.115 1.59572 -2.806 0
M  V30 8060 H 742.167 -0.632044 -3.75112 0
M  V30 8061 H 743.479 -0.611615 -4.95036 0
M  V30 8062 H 742.633 1.56014 -5.86297 0
M  V30 8063 H 741.372 1.62216 -4.59932 0
M  V30 8064 H 740.377 -0.510176 -5.47428 0
M  V30 8065 H 741.602 -0.555742 -6.76822 0
M  V30 8066 H 739.548 1.64885 -6.3494 0
M  V30 8067 H 739.465 0.401046 -7.54936 0
M  V30 8068 H 740.733 1.58737 -7.63166 0
M  V30 8069 N 744.962 1.50701 -0.461195 0
M  V30 8070 C 746.209 2.02267 0.0971971 0
M  V30 8071 C 746.537 1.34387 1.40608 0
M  V30 8072 O 745.792 0.455254 1.90331 0
M  V30 8073 C 746.091 3.55788 0.33908 0
M  V30 8074 C 745.757 4.42092 -0.886885 0
M  V30 8075 C 744.419 4.65398 -1.22304 0
M  V30 8076 C 746.771 4.92571 -1.70361 0
M  V30 8077 C 744.099 5.36429 -2.37616 0
M  V30 8078 C 746.451 5.64868 -2.84793 0
M  V30 8079 C 745.115 5.86431 -3.18834 0
M  V30 8080 H 744.385 0.740146 0.0355669 0
M  V30 8081 H 747.032 1.81415 -0.61326 0
M  V30 8082 H 745.337 3.751 1.13168 0
M  V30 8083 H 747.034 3.93243 0.784937 0
M  V30 8084 H 743.624 4.24165 -0.614981 0
M  V30 8085 H 747.808 4.74428 -1.4571 0
M  V30 8086 H 743.064 5.51333 -2.64276 0
M  V30 8087 H 747.238 6.02966 -3.48432 0
M  V30 8088 H 744.865 6.41248 -4.08296 0
M  V30 8089 N 746.441 0.193421 1.56409 0
M  V30 8090 C 747.852 -0.319471 1.83946 0
M  V30 8091 C 748.203 -1.61505 1.11403 0
M  V30 8092 O 747.328 -2.13139 0.374289 0
M  V30 8093 C 747.923 -0.586411 3.33686 0
M  V30 8094 C 746.482 -1.04368 3.61641 0
M  V30 8095 C 745.629 -0.0913834 2.77149 0
M  V30 8096 H 748.58 0.417242 1.53117 0
M  V30 8097 H 748.601 -1.43591 3.52366 0
M  V30 8098 H 748.113 0.356701 3.86457 0
M  V30 8099 H 746.214 -2.00113 3.14302 0
M  V30 8100 H 746.327 -0.937549 4.69837 0
M  V30 8101 H 744.691 -0.592954 2.47702 0
M  V30 8102 H 745.474 0.846142 3.32709 0
M  V30 8103 N 747.919 -1.57396 -0.0801906 0
M  V30 8104 C 749.166 -1.86836 -0.780927 0
M  V30 8105 C 749.494 -0.784012 -1.77999 0
M  V30 8106 O 748.749 0.220881 -1.94449 0
M  V30 8107 C 749.048 -3.22915 -1.53169 0
M  V30 8108 C 748.714 -4.45843 -0.67339 0
M  V30 8109 C 747.376 -4.79213 -0.436829 0
M  V30 8110 C 749.728 -5.21142 -0.0776786 0
M  V30 8111 C 747.056 -5.853 0.405062 0
M  V30 8112 C 749.408 -6.28119 0.751619 0
M  V30 8113 C 748.072 -6.59995 0.998131 0
M  V30 8114 H 747.342 -0.683682 -0.285761 0
M  V30 8115 H 749.989 -1.91454 -0.0419435 0
M  V30 8116 H 748.294 -3.14049 -2.34265 0
M  V30 8117 H 749.991 -3.42926 -2.07853 0
M  V30 8118 H 746.581 -4.19721 -0.867891 0
M  V30 8119 H 750.765 -4.95682 -0.247572 0
M  V30 8120 H 746.021 -6.084 0.60488 0
M  V30 8121 H 750.195 -6.8563 1.22 0
M  V30 8122 H 747.822 -7.42027 1.65227 0
M  V30 8123 N 749.397 0.351382 -1.53633 0
M  V30 8124 C 750.345 1.45142 -1.8176 0
M  V30 8125 C 751.339 1.54819 -0.687571 0
M  V30 8126 O 752.545 1.57536 -0.870772 0
M  V30 8127 H 748.92 0.483789 -0.575719 0
M  V30 8128 H 750.891 1.1863 -2.73806 0
M  V30 8129 C 749.64 2.81779 -2.03706 0
M  V30 8130 H 748.963 2.75097 -2.90107 0
M  V30 8131 H 750.403 3.5789 -2.27356 0
M  V30 8132 C 748.862 3.26762 -0.820271 0
M  V30 8133 O 749.392 4.01697 -0.0158603 0
M  V30 8134 N 747.598 2.83472 -0.639699 0
M  V30 8135 H 747.145 2.22655 -1.29547 0
M  V30 8136 H 747.103 3.13924 0.172995 0
M  V30 8137 N 750.875 1.45233 0.611969 0
M  V30 8138 C 752.103 1.52539 1.39784 0
M  V30 8139 C 752.518 0.156533 1.8815 0
M  V30 8140 O 751.875 -0.84112 1.61961 0
M  V30 8141 C 751.926 2.50614 2.60528 0
M  V30 8142 O 751.647 3.8218 2.14173 0
M  V30 8143 C 753.148 2.67574 3.53439 0
M  V30 8144 H 750.368 0.51674 0.428043 0
M  V30 8145 H 752.912 1.90379 0.746727 0
M  V30 8146 H 751.067 2.15858 3.2169 0
M  V30 8147 H 751.481 4.35305 2.92592 0
M  V30 8148 H 752.955 3.40184 4.34717 0
M  V30 8149 H 753.432 1.73458 4.03496 0
M  V30 8150 H 754.038 3.0331 2.98133 0
M  V30 8151 N 752.353 -0.854086 1.3245 0
M  V30 8152 C 753.764 -1.42427 1.20712 0
M  V30 8153 C 754.115 -1.95371 -0.18013 0
M  V30 8154 O 753.24 -1.87587 -1.07889 0
M  V30 8155 C 753.835 -2.58897 2.18536 0
M  V30 8156 C 752.394 -3.11913 2.10683 0
M  V30 8157 C 751.541 -1.84661 2.06871 0
M  V30 8158 H 754.492 -0.661192 1.4427 0
M  V30 8159 H 754.513 -3.36074 1.78422 0
M  V30 8160 H 754.025 -2.20333 3.19492 0
M  V30 8161 H 752.126 -3.55059 1.12977 0
M  V30 8162 H 752.239 -3.73119 3.00532 0
M  V30 8163 H 750.603 -2.04285 1.52118 0
M  V30 8164 H 751.386 -1.48314 3.09609 0
M  V30 8165 N 753.831 -1.1567 -1.07043 0
M  V30 8166 C 754.778 -0.856336 -2.14326 0
M  V30 8167 C 755.748 0.192051 -1.64986 0
M  V30 8168 O 756.933 0.0589148 -1.90709 0
M  V30 8169 C 754.073 -0.355227 -3.43267 0
M  V30 8170 C 753.186 -1.46555 -4.06381 0
M  V30 8171 C 752.321 -0.920245 -5.23168 0
M  V30 8172 C 751.36 -2.00729 -5.78251 0
M  V30 8173 N 750.497 -1.47813 -6.86364 0
M  V30 8174 H 755.337 -1.77514 -2.39359 0
M  V30 8175 H 752.874 -0.885676 -1.17449 0
M  V30 8176 H 754.832 -0.0463804 -4.17174 0
M  V30 8177 H 753.462 0.526649 -3.18475 0
M  V30 8178 H 752.514 -1.89052 -3.30096 0
M  V30 8179 H 753.826 -2.28616 -4.43324 0
M  V30 8180 H 752.98 -0.564127 -6.04072 0
M  V30 8181 H 751.719 -0.0688477 -4.87651 0
M  V30 8182 H 750.724 -2.3722 -4.95991 0
M  V30 8183 H 751.949 -2.86252 -6.15822 0
M  V30 8184 H 749.895 -0.649145 -6.5278 0
M  V30 8185 H 749.812 -2.23498 -7.22208 0
M  V30 8186 H 751.08 -1.15036 -7.70965 0
M  V30 8187 N 755.309 1.25446 -0.953992 0
M  V30 8188 C 756.537 1.97215 -0.625595 0
M  V30 8189 C 756.952 1.70911 0.802168 0
M  V30 8190 O 756.309 0.984782 1.5365 0
M  V30 8191 C 756.36 3.50777 -0.873943 0
M  V30 8192 O 756.081 3.76173 -2.24556 0
M  V30 8193 C 757.582 4.39776 -0.557845 0
M  V30 8194 H 754.802 0.628652 -0.2346 0
M  V30 8195 H 757.346 1.59632 -1.27819 0
M  V30 8196 H 755.501 3.86474 -0.267765 0
M  V30 8197 H 755.915 4.70636 -2.31522 0
M  V30 8198 H 757.389 5.46431 -0.782157 0
M  V30 8199 H 757.866 4.36257 0.507573 0
M  V30 8200 H 758.472 4.09644 -1.14332 0
M  V30 8201 N 756.787 0.722489 1.40064 0
M  V30 8202 C 757.734 0.0743738 2.3068 0
M  V30 8203 C 758.704 -0.743004 1.48555 0
M  V30 8204 O 759.889 -0.705536 1.77276 0
M  V30 8205 C 757.029 -0.836292 3.34814 0
M  V30 8206 C 756.142 -0.00764663 4.31999 0
M  V30 8207 C 755.277 -0.918428 5.232 0
M  V30 8208 C 754.316 -0.0842838 6.12042 0
M  V30 8209 N 753.453 -0.950316 6.95639 0
M  V30 8210 H 758.293 0.852794 2.85537 0
M  V30 8211 H 755.83 0.432222 1.40607 0
M  V30 8212 H 757.788 -1.3786 3.93765 0
M  V30 8213 H 756.418 -1.58082 2.81443 0
M  V30 8214 H 755.47 0.651928 3.74772 0
M  V30 8215 H 756.782 0.63786 4.94705 0
M  V30 8216 H 755.936 -1.52902 5.87116 0
M  V30 8217 H 754.675 -1.59774 4.60786 0
M  V30 8218 H 753.68 0.5392 5.4715 0
M  V30 8219 H 754.905 0.591628 6.76518 0
M  V30 8220 H 752.851 -1.61515 6.35806 0
M  V30 8221 H 752.768 -0.361004 7.55138 0
M  V30 8222 H 754.036 -1.54687 7.63997 0
M  V30 8223 N 758.265 -1.50454 0.469181 0
M  V30 8224 C 759.175 -2.32248 -0.331349 0
M  V30 8225 C 760.191 -1.42548 -0.997807 0
M  V30 8226 O 761.367 -1.75602 -0.9862 0
M  V30 8227 C 758.432 -3.17171 -1.40012 0
M  V30 8228 C 757.493 -4.2269 -0.750463 0
M  V30 8229 C 756.726 -5.03554 -1.76831 0
M  V30 8230 O 756.949 -4.85469 -2.99459 0
M  V30 8231 O 755.883 -5.86767 -1.3412 0
M  V30 8232 H 759.709 -3.01821 0.337279 0
M  V30 8233 H 757.294 -1.47602 0.231066 0
M  V30 8234 H 759.176 -3.69871 -2.01924 0
M  V30 8235 H 757.851 -2.50328 -2.05226 0
M  V30 8236 H 756.758 -3.73986 -0.0924446 0
M  V30 8237 H 758.091 -4.91997 -0.14131 0
M  V30 8238 N 759.743 -0.201713 -1.56304 0
M  V30 8239 C 760.991 0.434447 -1.97375 0
M  V30 8240 C 761.312 1.61692 -1.08998 0
M  V30 8241 O 760.582 1.95223 -0.162682 0
M  V30 8242 H 759.162 0.163497 -0.728888 0
M  V30 8243 H 761.824 -0.289988 -1.92731 0
M  V30 8244 H 760.92 0.774136 -3.02347 0
M  V30 8245 N 761.222 1.57436 0.0718424 0
M  V30 8246 C 762.452 1.91196 0.782795 0
M  V30 8247 C 762.86 0.795927 1.71644 0
M  V30 8248 O 762.203 -0.239604 1.82131 0
M  V30 8249 C 762.265 3.20421 1.63005 0
M  V30 8250 C 761.929 4.48724 0.865782 0
M  V30 8251 C 762.926 5.19571 0.185051 0
M  V30 8252 C 760.611 4.95345 0.832971 0
M  V30 8253 C 762.605 6.3529 -0.518264 0
M  V30 8254 C 760.292 6.1097 0.125884 0
M  V30 8255 C 761.29 6.80794 -0.548533 0
M  V30 8256 O 760.978 7.94213 -1.24423 0
M  V30 8257 H 760.71 0.636486 0.227731 0
M  V30 8258 H 763.264 2.05348 0.0464187 0
M  V30 8259 H 761.494 3.02478 2.40923 0
M  V30 8260 H 763.183 3.39831 2.21968 0
M  V30 8261 H 763.949 4.8458 0.201707 0
M  V30 8262 H 759.828 4.40871 1.34737 0
M  V30 8263 H 763.372 6.89725 -1.04523 0
M  V30 8264 H 759.269 6.45411 0.107155 0
M  V30 8265 H 760.037 8.10331 -1.1535 0
M  V30 8266 N 762.7 -0.34323 1.53817 0
M  V30 8267 C 763.93 -1.10188 1.74763 0
M  V30 8268 C 764.338 -1.82829 0.486856 0
M  V30 8269 O 763.681 -1.75236 -0.551198 0
M  V30 8270 C 763.743 -2.16 2.87375 0
M  V30 8271 C 763.407 -1.62931 4.26969 0
M  V30 8272 C 764.404 -1.08147 5.08528 0
M  V30 8273 C 762.089 -1.67769 4.73454 0
M  V30 8274 C 764.083 -0.589039 6.34672 0
M  V30 8275 C 761.77 -1.18138 5.99572 0
M  V30 8276 C 762.768 -0.637979 6.80014 0
M  V30 8277 O 762.456 -0.149073 8.03762 0
M  V30 8278 H 762.188 -0.33445 0.587469 0
M  V30 8279 H 764.742 -0.401109 2.01445 0
M  V30 8280 H 762.972 -2.89637 2.56218 0
M  V30 8281 H 764.661 -2.77432 2.96287 0
M  V30 8282 H 765.427 -1.03732 4.73777 0
M  V30 8283 H 761.306 -2.09004 4.10899 0
M  V30 8284 H 764.85 -0.164233 6.97407 0
M  V30 8285 H 760.747 -1.22254 6.33817 0
M  V30 8286 H 761.515 -0.266332 8.18067 0
M  V30 8287 N 764.178 -1.45556 -0.604258 0
M  V30 8288 C 765.408 -1.53056 -1.38771 0
M  V30 8289 C 765.816 -0.163092 -1.88496 0
M  V30 8290 O 765.159 0.846157 -1.63052 0
M  V30 8291 C 765.221 -2.45656 -2.62476 0
M  V30 8292 C 764.885 -3.92328 -2.34367 0
M  V30 8293 C 765.882 -4.82137 -1.94525 0
M  V30 8294 C 763.567 -4.37275 -2.47177 0
M  V30 8295 C 765.561 -6.14901 -1.67856 0
M  V30 8296 C 763.248 -5.70079 -2.20122 0
M  V30 8297 C 764.246 -6.58711 -1.80524 0
M  V30 8298 O 763.934 -7.89053 -1.53788 0
M  V30 8299 H 763.666 -0.520721 -0.431075 0
M  V30 8300 H 766.22 -1.91464 -0.743693 0
M  V30 8301 H 764.45 -2.02225 -3.29609 0
M  V30 8302 H 766.139 -2.43802 -3.24523 0
M  V30 8303 H 766.905 -4.48675 -1.84162 0
M  V30 8304 H 762.784 -3.68527 -2.76964 0
M  V30 8305 H 766.328 -6.8404 -1.36874 0
M  V30 8306 H 762.225 -6.03095 -2.30102 0
M  V30 8307 H 762.993 -8.01113 -1.67812 0
M  V30 8308 N 765.656 0.84705 -1.32902 0
M  V30 8309 C 767.072 1.13645 -1.12058 0
M  V30 8310 C 767.272 2.01281 0.093937 0
M  V30 8311 O 766.328 2.4026 0.776608 0
M  V30 8312 C 767.641 1.80644 -2.40392 0
M  V30 8313 C 769.189 1.93246 -2.46221 0
M  V30 8314 C 769.664 2.6366 -3.74496 0
M  V30 8315 N 771.155 2.71179 -3.75521 0
M  V30 8316 C 771.89 3.26332 -4.71482 0
M  V30 8317 N 771.386 3.82236 -5.77813 0
M  V30 8318 N 773.179 3.24507 -4.58968 0
M  V30 8319 H 765.33 0.263612 -2.10758 0
M  V30 8320 H 767.593 0.17944 -0.930863 0
M  V30 8321 H 767.299 1.23708 -3.29225 0
M  V30 8322 H 767.173 2.80736 -2.51926 0
M  V30 8323 H 769.56 2.49338 -1.57843 0
M  V30 8324 H 769.641 0.921272 -2.38634 0
M  V30 8325 H 769.285 2.08229 -4.63253 0
M  V30 8326 H 769.215 3.65234 -3.79357 0
M  V30 8327 H 771.706 2.31527 -2.9867 0
M  V30 8328 H 772.019 4.22499 -6.47082 0
M  V30 8329 H 770.364 3.80546 -5.81558 0
M  V30 8330 H 773.555 2.80085 -3.7506 0
M  V30 8331 H 773.728 3.67188 -5.33926 0
M  V30 8332 N 767.134 1.16236 1.06428 0
M  V30 8333 C 768.066 0.825446 2.1382 0
M  V30 8334 C 769.079 -0.166707 1.61944 0
M  V30 8335 O 770.268 0.0578606 1.78406 0
M  V30 8336 C 767.368 0.208023 3.38261 0
M  V30 8337 C 766.541 1.23994 4.19457 0
M  V30 8338 C 765.6 0.642569 5.22262 0
M  V30 8339 O 764.626 1.31106 5.53895 0
M  V30 8340 N 765.828 -0.571327 5.77682 0
M  V30 8341 H 768.593 1.7497 2.43322 0
M  V30 8342 H 766.154 1.05951 1.22417 0
M  V30 8343 H 768.146 -0.204608 4.04182 0
M  V30 8344 H 766.716 -0.619752 3.06395 0
M  V30 8345 H 765.936 1.82879 3.49212 0
M  V30 8346 H 767.224 1.93638 4.70512 0
M  V30 8347 H 766.622 -1.13263 5.54245 0
M  V30 8348 H 765.179 -0.926187 6.45186 0
M  V30 8349 N 768.612 -1.24939 0.960631 0
M  V30 8350 C 769.858 -1.93104 0.61958 0
M  V30 8351 C 770.191 -1.74991 -0.84212 0
M  V30 8352 O 769.466 -1.09867 -1.60498 0
M  V30 8353 C 769.749 -3.46326 0.986422 0
M  V30 8354 C 769.602 -3.73638 2.50429 0
M  V30 8355 C 770.921 -4.37067 0.515827 0
M  V30 8356 H 768.04 -0.701311 0.226566 0
M  V30 8357 H 770.682 -1.47442 1.19836 0
M  V30 8358 H 768.832 -3.85348 0.493907 0
M  V30 8359 H 770.504 -3.44217 3.07103 0
M  V30 8360 H 768.747 -3.19035 2.93937 0
M  V30 8361 H 769.418 -4.80815 2.71147 0
M  V30 8362 H 771.894 -4.05381 0.938389 0
M  V30 8363 H 770.77 -5.43022 0.80114 0
M  V30 8364 H 771.031 -4.38224 -0.584171 0
M  V30 8365 N 770.09 -0.729906 -1.39679 0
M  V30 8366 C 771.337 -0.275622 -2.00615 0
M  V30 8367 C 771.665 1.13559 -1.57907 0
M  V30 8368 O 770.92 1.78745 -0.796789 0
M  V30 8369 C 771.219 -0.319564 -3.55968 0
M  V30 8370 C 770.885 -1.68308 -4.1831 0
M  V30 8371 C 769.547 -2.05629 -4.35052 0
M  V30 8372 C 771.899 -2.57857 -4.52945 0
M  V30 8373 C 769.227 -3.32018 -4.83716 0
M  V30 8374 C 771.579 -3.83613 -5.03015 0
M  V30 8375 C 770.243 -4.21033 -5.17965 0
M  V30 8376 H 769.513 -0.100857 -0.734104 0
M  V30 8377 H 772.16 -0.93575 -1.67081 0
M  V30 8378 H 770.465 0.42414 -3.89497 0
M  V30 8379 H 772.162 0.0499905 -4.00969 0
M  V30 8380 H 768.752 -1.3829 -4.05677 0
M  V30 8381 H 772.936 -2.30295 -4.39634 0
M  V30 8382 H 768.192 -3.6096 -4.93475 0
M  V30 8383 H 772.366 -4.53162 -5.28788 0
M  V30 8384 H 769.993 -5.19034 -5.55435 0
M  V30 8385 N 771.568 1.50203 -0.477153 0
M  V30 8386 C 772.478 2.32421 0.319027 0
M  V30 8387 C 773.494 1.43075 0.990233 0
M  V30 8388 O 774.67 1.76123 0.976873 0
M  V30 8389 C 771.735 3.17909 1.38328 0
M  V30 8390 C 770.796 4.23082 0.728036 0
M  V30 8391 C 770.029 5.04484 1.74158 0
M  V30 8392 O 770.252 4.8705 2.96881 0
M  V30 8393 O 769.186 5.8747 1.31006 0
M  V30 8394 H 773.012 3.01638 -0.353281 0
M  V30 8395 H 770.597 1.47478 -0.238891 0
M  V30 8396 H 772.479 3.70937 1.9996 0
M  V30 8397 H 771.154 2.51413 2.03895 0
M  V30 8398 H 770.061 3.7403 0.07261 0
M  V30 8399 H 771.394 4.92065 0.115216 0
M  V30 8400 N 773.046 0.209999 1.56195 0
M  V30 8401 C 774.462 -0.145598 1.58934 0
M  V30 8402 C 774.662 -1.59868 1.22656 0
M  V30 8403 O 773.718 -2.33689 0.956336 0
M  V30 8404 C 775.031 0.170243 3.00218 0
M  V30 8405 C 776.579 0.111548 3.12801 0
M  V30 8406 C 777.054 0.400904 4.56242 0
M  V30 8407 N 778.545 0.350058 4.61875 0
M  V30 8408 C 779.28 0.547598 5.70779 0
M  V30 8409 N 778.776 0.806291 6.88092 0
M  V30 8410 N 780.569 0.480827 5.6004 0
M  V30 8411 H 772.72 1.15804 1.78054 0
M  V30 8412 H 774.983 0.463326 0.827063 0
M  V30 8413 H 774.689 1.17833 3.31373 0
M  V30 8414 H 774.563 -0.520208 3.73596 0
M  V30 8415 H 776.95 -0.887162 2.81449 0
M  V30 8416 H 777.031 0.835302 2.41777 0
M  V30 8417 H 776.675 1.397 4.8831 0
M  V30 8418 H 776.605 -0.34391 5.25476 0
M  V30 8419 H 779.096 0.157334 3.77572 0
M  V30 8420 H 779.409 0.945433 7.66995 0
M  V30 8421 H 777.754 0.843355 6.89864 0
M  V30 8422 H 780.945 0.279037 4.67268 0
M  V30 8423 H 781.118 0.638189 6.4485 0
M  V30 8424 N 774.524 -1.57472 -0.0634922 0
M  V30 8425 C 775.474 -2.00709 -1.08166 0
M  V30 8426 C 776.458 -0.890498 -1.34011 0
M  V30 8427 O 777.65 -1.15441 -1.34173 0
M  V30 8428 C 774.779 -2.46148 -2.39303 0
M  V30 8429 C 773.865 -3.64559 -2.16697 0
M  V30 8430 N 774.256 -4.78459 -1.64043 0
M  V30 8431 C 772.554 -3.71269 -2.47135 0
M  V30 8432 C 773.255 -5.60268 -1.56445 0
M  V30 8433 N 772.231 -5.04357 -2.02792 0
M  V30 8434 H 776.033 -2.86208 -0.668016 0
M  V30 8435 H 773.547 -1.60133 -0.270426 0
M  V30 8436 H 775.544 -2.75367 -3.13016 0
M  V30 8437 H 774.204 -1.62041 -2.81377 0
M  V30 8438 H 775.215 -5.00587 -1.32791 0
M  V30 8439 H 771.892 -2.97891 -2.92518 0
M  V30 8440 H 773.282 -6.6172 -1.16519 0
M  V30 8441 N 776.003 0.335068 -1.53997 0
M  V30 8442 C 777.233 1.0926 -1.75345 0
M  V30 8443 C 777.641 1.82568 -0.496545 0
M  V30 8444 O 776.984 1.75525 0.541897 0
M  V30 8445 C 777.046 2.14473 -2.88516 0
M  V30 8446 C 776.71 1.60665 -4.27827 0
M  V30 8447 C 777.707 1.05448 -5.09094 0
M  V30 8448 C 775.392 1.65255 -4.74337 0
M  V30 8449 C 777.386 0.555372 -6.34976 0
M  V30 8450 C 775.073 1.14956 -6.0019 0
M  V30 8451 C 776.071 0.601907 -6.80343 0
M  V30 8452 O 775.759 0.106445 -8.0383 0
M  V30 8453 H 775.491 0.331329 -0.589234 0
M  V30 8454 H 778.045 0.39042 -2.01655 0
M  V30 8455 H 776.275 2.88274 -2.5775 0
M  V30 8456 H 777.964 2.75857 -2.97755 0
M  V30 8457 H 778.73 1.01218 -4.74321 0
M  V30 8458 H 774.609 2.06822 -4.12002 0
M  V30 8459 H 778.153 0.127245 -6.97484 0
M  V30 8460 H 774.05 1.18891 -6.34457 0
M  V30 8461 H 774.818 0.222944 -8.18196 0
M  V30 8462 N 777.481 1.45874 0.596531 0
M  V30 8463 C 778.892 1.44798 1.17857 0
M  V30 8464 C 779.243 0.181443 1.95359 0
M  V30 8465 O 778.368 -0.716336 2.042 0
M  V30 8466 C 778.963 2.62333 2.14398 0
M  V30 8467 C 777.522 2.64342 2.67955 0
M  V30 8468 C 776.669 2.37244 1.43564 0
M  V30 8469 H 779.62 1.53954 0.385222 0
M  V30 8470 H 779.641 2.37063 2.97626 0
M  V30 8471 H 779.153 3.54499 1.57963 0
M  V30 8472 H 777.254 1.76213 3.28298 0
M  V30 8473 H 777.367 3.63897 3.11634 0
M  V30 8474 H 775.731 1.87022 1.72901 0
M  V30 8475 H 776.514 3.31568 0.889805 0
M  V30 8476 N 778.959 -0.83999 1.33349 0
M  V30 8477 C 780.207 -1.59202 1.24496 0
M  V30 8478 C 780.528 -1.94077 -0.189499 0
M  V30 8479 O 779.798 -1.60868 -1.11796 0
M  V30 8480 H 778.378 -0.590276 0.457802 0
M  V30 8481 H 781.04 -1.00394 1.67054 0
M  V30 8482 H 780.136 -2.52247 1.83788 0
M  V30 8483 N 780.437 -1.16799 -1.0581 0
M  V30 8484 C 781.853 -0.913935 -1.30841 0
M  V30 8485 C 782.053 0.430439 -1.96849 0
M  V30 8486 O 781.109 1.16885 -2.23817 0
M  V30 8487 C 782.422 -2.06662 -2.18429 0
M  V30 8488 C 783.97 -2.10294 -2.31831 0
M  V30 8489 C 784.445 -3.2493 -3.22776 0
M  V30 8490 N 785.936 -3.24678 -3.30361 0
M  V30 8491 C 786.671 -4.10021 -4.00837 0
M  V30 8492 N 786.167 -5.05461 -4.73795 0
M  V30 8493 N 787.96 -3.97991 -3.96937 0
M  V30 8494 H 780.111 -2.03343 -0.613613 0
M  V30 8495 H 782.374 -0.88754 -0.333133 0
M  V30 8496 H 782.08 -3.03791 -1.77211 0
M  V30 8497 H 781.954 -2.01233 -3.19038 0
M  V30 8498 H 784.341 -1.13754 -2.72294 0
M  V30 8499 H 784.422 -2.19786 -1.30873 0
M  V30 8500 H 784.066 -4.21731 -2.83028 0
M  V30 8501 H 783.996 -3.12674 -4.23725 0
M  V30 8502 H 786.487 -2.55573 -2.78372 0
M  V30 8503 H 786.8 -5.66989 -5.25113 0
M  V30 8504 H 785.145 -5.09436 -4.72758 0
M  V30 8505 H 788.336 -3.2273 -3.39062 0
M  V30 8506 H 788.509 -4.64722 -4.51594 0
M  V30 8507 N 781.915 1.24427 -0.967243 0
M  V30 8508 C 782.878 2.23637 -0.501927 0
M  V30 8509 C 783.878 1.55712 0.401283 0
M  V30 8510 O 785.068 1.73085 0.196808 0
M  V30 8511 C 782.2 3.39804 0.273176 0
M  V30 8512 H 783.393 2.66317 -1.37897 0
M  V30 8513 H 780.946 1.37033 -0.751783 0
M  V30 8514 H 781.681 3.02562 1.16733 0
M  V30 8515 H 781.466 3.90303 -0.37498 0
M  V30 8516 H 782.956 4.13443 0.587776 0
M  V30 8517 N 783.393 0.737304 1.3929 0
M  V30 8518 C 784.67 0.212464 1.94443 0
M  V30 8519 C 785.05 -1.28621 1.67391 0
M  V30 8520 O 784.398 -2.0529 1.00342 0
M  V30 8521 C 784.608 0.548565 3.44662 0
M  V30 8522 C 785.956 0.499177 4.21656 0
M  V30 8523 O 786.98 0.485892 3.5287 0
M  V30 8524 O 785.839 0.495739 5.44247 0
M  V30 8525 H 782.933 0.0395457 0.826054 0
M  V30 8526 H 785.479 0.816319 1.48776 0
M  V30 8527 H 784.251 1.58426 3.57795 0
M  V30 8528 H 783.874 -0.0841399 3.97511 0
M  V30 8529 N 784.871 -1.49948 0.485112 0
M  V30 8530 C 786.117 -2.0332 -0.0571625 0
M  V30 8531 C 786.472 -1.35951 -1.36144 0
M  V30 8532 O 785.765 -0.480871 -1.85467 0
M  V30 8533 C 785.959 -3.56282 -0.282434 0
M  V30 8534 C 785.788 -4.38476 0.998455 0
M  V30 8535 C 784.558 -4.81076 1.54576 0
M  V30 8536 C 786.756 -4.78013 1.89758 0
M  V30 8537 N 784.738 -5.47641 2.77421 0
M  V30 8538 C 786.109 -5.44133 2.97186 0
M  V30 8539 C 788.164 -4.59963 1.90627 0
M  V30 8540 C 786.867 -5.94113 4.0549 0
M  V30 8541 C 788.893 -5.10893 2.97897 0
M  V30 8542 C 788.255 -5.77 4.04043 0
M  V30 8543 H 784.354 -0.781758 0.0194642 0
M  V30 8544 H 786.938 -1.833 0.65644 0
M  V30 8545 H 785.109 -3.76219 -0.965083 0
M  V30 8546 H 786.841 -3.96299 -0.820298 0
M  V30 8547 H 783.596 -4.60814 1.09304 0
M  V30 8548 H 784.02 -5.85521 3.39844 0
M  V30 8549 H 788.662 -4.08274 1.09875 0
M  V30 8550 H 786.38 -6.44832 4.8705 0
M  V30 8551 H 789.966 -4.98748 2.9957 0
M  V30 8552 H 788.846 -6.15698 4.85681 0
M  V30 8553 N 786.349 -0.21828 -1.56081 0
M  V30 8554 C 787.279 0.687922 -2.23136 0
M  V30 8555 C 788.26 1.20357 -1.202 0
M  V30 8556 O 789.445 1.24817 -1.48776 0
M  V30 8557 C 786.575 1.89762 -2.90874 0
M  V30 8558 C 785.529 1.51595 -4.00254 0
M  V30 8559 C 784.855 2.80415 -4.55271 0
M  V30 8560 C 786.155 0.708404 -5.17474 0
M  V30 8561 H 787.849 0.128854 -2.99123 0
M  V30 8562 H 785.395 0.0605354 -1.43873 0
M  V30 8563 H 787.348 2.53699 -3.36474 0
M  V30 8564 H 786.072 2.4816 -2.1233 0
M  V30 8565 H 784.731 0.900058 -3.55379 0
M  V30 8566 H 784.379 3.36951 -3.73461 0
M  V30 8567 H 784.079 2.55613 -5.2909 0
M  V30 8568 H 785.603 3.453 -5.03587 0
M  V30 8569 H 787.017 1.2514 -5.59476 0
M  V30 8570 H 785.414 0.557593 -5.97504 0
M  V30 8571 H 786.484 -0.285679 -4.84058 0
M  V30 8572 N 787.827 1.57504 0.0551401 0
M  V30 8573 C 789.052 1.92682 0.767352 0
M  V30 8574 C 789.477 0.81614 1.69472 0
M  V30 8575 O 788.835 -0.229989 1.79835 0
M  V30 8576 C 788.883 3.26866 1.52286 0
M  V30 8577 O 787.987 3.17274 2.63459 0
M  V30 8578 H 787.328 0.630502 0.208238 0
M  V30 8579 H 789.858 2.04592 0.0184026 0
M  V30 8580 H 789.868 3.61138 1.8985 0
M  V30 8581 H 788.543 4.07276 0.842541 0
M  V30 8582 H 787.12 2.94589 2.2863 0
M  V30 8583 N 789.305 -0.326896 1.54172 0
M  V30 8584 C 790.255 -1.40319 1.79707 0
M  V30 8585 C 791.239 -1.47056 0.652938 0
M  V30 8586 O 792.431 -1.51645 0.91284 0
M  V30 8587 C 789.56 -2.77222 2.02491 0
M  V30 8588 C 788.646 -2.74811 3.23016 0
M  V30 8589 N 789.037 -2.42022 4.44138 0
M  V30 8590 C 787.335 -3.05943 3.24522 0
M  V30 8591 C 788.036 -2.48263 5.26061 0
M  V30 8592 N 787.012 -2.84567 4.63166 0
M  V30 8593 H 790.814 -1.13892 2.70935 0
M  V30 8594 H 788.328 -0.53536 1.53322 0
M  V30 8595 H 790.325 -3.54793 2.18923 0
M  V30 8596 H 788.985 -3.04582 1.12515 0
M  V30 8597 H 789.996 -2.14926 4.71197 0
M  V30 8598 H 786.673 -3.38367 2.44569 0
M  V30 8599 H 788.063 -2.2593 6.32776 0
M  V30 8600 N 790.784 -1.46188 -0.588786 0
M  V30 8601 C 792.014 -1.54519 -1.3714 0
M  V30 8602 C 792.422 -0.183075 -1.88312 0
M  V30 8603 O 791.765 0.828815 -1.6394 0
M  V30 8604 C 791.827 -2.48426 -2.59856 0
M  V30 8605 C 791.491 -3.94791 -2.30193 0
M  V30 8606 C 792.488 -4.84173 -1.894 0
M  V30 8607 C 790.173 -4.39872 -2.42525 0
M  V30 8608 C 792.167 -6.16647 -1.61325 0
M  V30 8609 C 789.854 -5.72381 -2.14063 0
M  V30 8610 C 790.852 -6.60589 -1.73527 0
M  V30 8611 O 790.54 -7.9064 -1.4541 0
M  V30 8612 H 790.272 -0.525264 -0.425527 0
M  V30 8613 H 792.826 -1.92242 -0.723344 0
M  V30 8614 H 791.056 -2.05709 -3.27446 0
M  V30 8615 H 792.745 -2.4723 -3.21919 0
M  V30 8616 H 793.511 -4.50603 -1.79393 0
M  V30 8617 H 789.39 -3.71444 -2.7304 0
M  V30 8618 H 792.934 -6.85454 -1.29611 0
M  V30 8619 H 788.831 -6.05501 -2.23693 0
M  V30 8620 H 789.599 -8.02847 -1.59306 0
M  V30 8621 N 792.262 0.832906 -1.33792 0
M  V30 8622 C 793.508 1.59053 -1.26782 0
M  V30 8623 C 793.863 1.91705 0.163399 0
M  V30 8624 O 793.156 1.5638 1.10706 0
M  V30 8625 C 793.35 2.9047 -2.08235 0
M  V30 8626 C 793.179 2.70656 -3.59132 0
M  V30 8627 C 791.949 2.67905 -4.28433 0
M  V30 8628 C 794.147 2.42871 -4.53341 0
M  V30 8629 N 792.129 2.39531 -5.65242 0
M  V30 8630 C 793.5 2.24101 -5.78082 0
M  V30 8631 C 795.555 2.28517 -4.42362 0
M  V30 8632 C 794.258 1.92432 -6.93082 0
M  V30 8633 C 796.284 1.98242 -5.57184 0
M  V30 8634 C 795.646 1.80288 -6.80937 0
M  V30 8635 H 791.745 0.584823 -0.51914 0
M  V30 8636 H 794.329 0.977252 -1.68398 0
M  V30 8637 H 792.5 3.49739 -1.6893 0
M  V30 8638 H 794.232 3.55744 -1.92947 0
M  V30 8639 H 790.987 2.81624 -3.80768 0
M  V30 8640 H 791.411 2.28211 -6.37377 0
M  V30 8641 H 796.053 2.41107 -3.47314 0
M  V30 8642 H 793.771 1.78579 -7.88121 0
M  V30 8643 H 797.357 1.87882 -5.50628 0
M  V30 8644 H 796.237 1.57199 -7.68283 0
M  V30 8645 N 793.74 1.17359 1.05189 0
M  V30 8646 C 794.673 0.833768 2.12423 0
M  V30 8647 C 795.651 -0.19945 1.61372 0
M  V30 8648 O 796.835 -0.080979 1.88326 0
M  V30 8649 C 793.962 0.243745 3.37822 0
M  V30 8650 C 793.008 1.25235 4.07699 0
M  V30 8651 S 793.841 2.80368 4.56239 0
M  V30 8652 C 794.997 2.22846 5.84885 0
M  V30 8653 H 795.23 1.74197 2.40921 0
M  V30 8654 H 792.763 0.998242 1.1779 0
M  V30 8655 H 794.721 -0.0901915 4.10401 0
M  V30 8656 H 793.382 -0.642396 3.07461 0
M  V30 8657 H 792.575 0.788168 4.97799 0
M  V30 8658 H 792.177 1.53194 3.41185 0
M  V30 8659 H 794.469 1.60403 6.58238 0
M  V30 8660 H 795.412 3.112 6.3605 0
M  V30 8661 H 795.82 1.66296 5.39449 0
M  V30 8662 N 795.218 -1.23913 0.973828 0
M  V30 8663 C 796.629 -1.73992 0.677021 0
M  V30 8664 C 796.98 -1.78833 -0.807036 0
M  V30 8665 O 796.105 -1.42183 -1.63135 0
M  V30 8666 C 796.7 -3.15985 1.22226 0
M  V30 8667 C 795.259 -3.63547 0.975228 0
M  V30 8668 C 794.406 -2.42001 1.35392 0
M  V30 8669 H 797.357 -1.09529 1.14844 0
M  V30 8670 H 797.378 -3.75875 0.591489 0
M  V30 8671 H 796.89 -3.12429 2.30238 0
M  V30 8672 H 794.991 -3.72493 -0.0891047 0
M  V30 8673 H 795.104 -4.50693 1.62518 0
M  V30 8674 H 793.468 -2.42708 0.772334 0
M  V30 8675 H 794.251 -2.41122 2.44367 0
M  V30 8676 N 796.696 -0.74468 -1.38897 0
M  V30 8677 C 797.643 -0.111064 -2.30533 0
M  V30 8678 C 798.613 0.719276 -1.49719 0
M  V30 8679 O 799.798 0.677244 -1.78376 0
M  V30 8680 C 796.938 0.78292 -3.36102 0
M  V30 8681 C 796.051 -0.0610817 -4.31957 0
M  V30 8682 C 795.186 0.835075 -5.24595 0
M  V30 8683 C 794.225 -0.0130974 -6.12099 0
M  V30 8684 N 793.362 0.839525 -6.97063 0
M  V30 8685 H 798.202 -0.898113 -2.84144 0
M  V30 8686 H 795.739 -0.454537 -1.39901 0
M  V30 8687 H 797.697 1.31578 -3.95908 0
M  V30 8688 H 796.327 1.53585 -2.83922 0
M  V30 8689 H 795.379 -0.711469 -3.73687 0
M  V30 8690 H 796.691 -0.716482 -4.93627 0
M  V30 8691 H 795.845 1.43542 -5.89475 0
M  V30 8692 H 794.584 1.52423 -4.63269 0
M  V30 8693 H 793.589 -0.626179 -5.46223 0
M  V30 8694 H 794.814 -0.699181 -6.75491 0
M  V30 8695 H 792.76 1.5138 -6.38295 0
M  V30 8696 H 792.677 0.240823 -7.55616 0
M  V30 8697 H 793.945 1.42513 -7.66362 0
M  V30 8698 N 798.174 1.49689 -0.493057 0
M  V30 8699 C 799.42 2.03347 0.0463792 0
M  V30 8700 C 799.775 1.36671 1.35421 0
M  V30 8701 O 799.068 0.4907 1.8521 0
M  V30 8702 C 799.262 3.56427 0.263536 0
M  V30 8703 C 799.091 4.3794 -1.02169 0
M  V30 8704 C 797.861 4.8025 -1.57125 0
M  V30 8705 C 800.059 4.77 -1.9229 0
M  V30 8706 N 798.041 5.46162 -2.80321 0
M  V30 8707 C 799.412 5.42549 -3.00067 0
M  V30 8708 C 801.467 4.58945 -1.93064 0
M  V30 8709 C 800.17 5.91954 -4.08635 0
M  V30 8710 C 802.196 5.09306 -3.00602 0
M  V30 8711 C 801.558 5.74849 -4.07097 0
M  V30 8712 H 797.657 0.781644 -0.0236097 0
M  V30 8713 H 800.241 1.82949 -0.666151 0
M  V30 8714 H 798.412 3.76725 0.945118 0
M  V30 8715 H 800.144 3.96729 0.79927 0
M  V30 8716 H 796.899 4.60228 -1.11746 0
M  V30 8717 H 797.323 5.83711 -3.42944 0
M  V30 8718 H 801.965 4.07685 -1.12039 0
M  V30 8719 H 799.683 6.4224 -4.90463 0
M  V30 8720 H 803.269 4.97152 -3.0221 0
M  V30 8721 H 802.149 6.13113 -4.88939 0
M  V30 8722 N 799.652 0.226554 1.55963 0
M  V30 8723 C 800.901 -0.40417 1.97609 0
M  V30 8724 C 801.214 -1.60541 1.1174 0
M  V30 8725 O 802.42 -2.30598 1.43307 0
M  V30 8726 C 800.876 -0.770466 3.51556 0
M  V30 8727 C 800.484 0.408244 4.46136 0
M  V30 8728 C 802.228 -1.36651 4.01904 0
M  V30 8729 C 800.135 0.0192347 5.91397 0
M  V30 8730 H 799.065 -0.15478 0.737943 0
M  V30 8731 H 801.716 0.323558 1.80625 0
M  V30 8732 H 800.098 -1.55575 3.6416 0
M  V30 8733 H 801.272 1.18575 4.45283 0
M  V30 8734 H 799.587 0.917859 4.06158 0
M  V30 8735 H 802.184 -1.67055 5.07934 0
M  V30 8736 H 802.527 -2.28403 3.48049 0
M  V30 8737 H 803.06 -0.644556 3.92543 0
M  V30 8738 H 799.799 0.90336 6.49245 0
M  V30 8739 H 799.319 -0.722485 5.95433 0
M  V30 8740 H 800.998 -0.405711 6.45727 0
M  V30 8741 N 801.13 -1.57531 -0.0467866 0
M  V30 8742 C 802.078 -2.06455 -1.0714 0
M  V30 8743 C 803.072 -0.974744 -1.38546 0
M  V30 8744 O 804.278 -1.15974 -1.37659 0
M  V30 8745 H 800.653 -0.658607 -0.362962 0
M  V30 8746 H 802.624 -2.91613 -0.632813 0
M  V30 8747 C 801.373 -2.54481 -2.36927 0
M  V30 8748 H 800.696 -3.37946 -2.13617 0
M  V30 8749 H 802.136 -2.92442 -3.07007 0
M  V30 8750 C 800.595 -1.43836 -3.04652 0
M  V30 8751 O 801.125 -0.794531 -3.93764 0
M  V30 8752 N 799.331 -1.17727 -2.65686 0
M  V30 8753 H 798.878 -1.70265 -1.93307 0
M  V30 8754 H 798.836 -0.439051 -3.11319 0
M  V30 8755 N 802.608 0.318715 -1.54344 0
M  V30 8756 C 803.571 1.37545 -1.83342 0
M  V30 8757 C 804.571 1.445 -0.705444 0
M  V30 8758 O 805.761 1.44443 -0.973752 0
M  V30 8759 C 802.893 2.76225 -1.99781 0
M  V30 8760 H 804.086 1.13084 -2.77762 0
M  V30 8761 H 801.639 0.554457 -1.46135 0
M  V30 8762 H 802.374 3.05934 -1.07588 0
M  V30 8763 H 802.159 2.7257 -2.81865 0
M  V30 8764 H 803.649 3.52664 -2.23647 0
M  V30 8765 N 804.086 1.46499 0.581025 0
M  V30 8766 C 805.314 1.5547 1.36517 0
M  V30 8767 C 805.729 0.196407 1.87776 0
M  V30 8768 O 805.086 -0.806577 1.63709 0
M  V30 8769 C 805.137 2.56084 2.55154 0
M  V30 8770 O 804.858 3.86637 2.06018 0
M  V30 8771 C 806.359 2.75011 3.47683 0
M  V30 8772 H 803.579 0.525703 0.416986 0
M  V30 8773 H 806.123 1.9192 0.706177 0
M  V30 8774 H 804.278 2.22633 3.17039 0
M  V30 8775 H 804.692 4.41413 2.83292 0
M  V30 8776 H 806.166 3.49329 4.27403 0
M  V30 8777 H 806.643 1.81978 3.99726 0
M  V30 8778 H 807.249 3.09565 2.91632 0
M  V30 8779 N 805.565 -0.825799 1.34232 0
M  V30 8780 C 806.842 -1.56741 1.17011 0
M  V30 8781 C 807.222 -2.09512 -0.258425 0
M  V30 8782 O 806.57 -1.90664 -1.25935 0
M  V30 8783 C 806.78 -2.69104 2.22225 0
M  V30 8784 C 808.128 -3.37947 2.57055 0
M  V30 8785 O 809.152 -2.79358 2.20992 0
M  V30 8786 O 808.011 -4.43743 3.1899 0
M  V30 8787 H 805.105 -0.69163 0.453405 0
M  V30 8788 H 807.651 -0.867422 1.45856 0
M  V30 8789 H 806.423 -2.27844 3.18124 0
M  V30 8790 H 806.046 -3.46756 1.94541 0
M  V30 8791 N 807.043 -1.17915 -1.04565 0
M  V30 8792 C 808.454 -0.976383 -1.59134 0
M  V30 8793 C 808.805 0.475267 -1.90357 0
M  V30 8794 O 807.93 1.35172 -1.6899 0
M  V30 8795 C 808.525 -1.76604 -2.89131 0
M  V30 8796 C 807.084 -1.60777 -3.40335 0
M  V30 8797 C 806.231 -1.76369 -2.13985 0
M  V30 8798 H 809.182 -1.32532 -0.872985 0
M  V30 8799 H 809.203 -1.25215 -3.59307 0
M  V30 8800 H 808.715 -2.82252 -2.66375 0
M  V30 8801 H 806.816 -0.576436 -3.68114 0
M  V30 8802 H 806.929 -2.40268 -4.14497 0
M  V30 8803 H 805.293 -1.19268 -2.25049 0
M  V30 8804 H 806.076 -2.83441 -1.9369 0
M  V30 8805 N 808.521 1.23394 -0.980386 0
M  V30 8806 C 809.746 1.96384 -0.666935 0
M  V30 8807 C 810.171 1.72087 0.759456 0
M  V30 8808 O 809.529 0.992328 1.51732 0
M  V30 8809 C 809.577 3.47499 -0.963177 0
M  V30 8810 O 808.681 4.12363 -0.0552051 0
M  V30 8811 H 808.022 0.614797 -0.250839 0
M  V30 8812 H 810.552 1.56831 -1.31398 0
M  V30 8813 H 810.562 3.97953 -0.899877 0
M  V30 8814 H 809.237 3.6451 -2.00264 0
M  V30 8815 H 807.814 3.72499 -0.172914 0
M  V30 8816 N 809.999 0.752036 1.385 0
M  V30 8817 C 810.962 0.131587 2.28822 0
M  V30 8818 C 811.962 -0.649149 1.47115 0
M  V30 8819 O 813.152 -0.475645 1.67581 0
M  V30 8820 C 810.284 -0.822101 3.30839 0
M  V30 8821 H 811.477 0.927551 2.85196 0
M  V30 8822 H 809.03 0.518945 1.47434 0
M  V30 8823 H 809.765 -1.6438 2.79553 0
M  V30 8824 H 809.55 -0.264689 3.91206 0
M  V30 8825 H 811.04 -1.25226 3.98382 0
M  V30 8826 N 811.477 -1.49425 0.500989 0
M  V30 8827 C 812.893 -1.58826 0.156951 0
M  V30 8828 C 813.093 -1.50622 -1.33848 0
M  V30 8829 O 812.149 -1.38016 -2.11442 0
M  V30 8830 C 813.462 -2.91611 0.73374 0
M  V30 8831 C 815.01 -3.05076 0.699846 0
M  V30 8832 C 815.485 -4.40479 1.2547 0
M  V30 8833 N 816.976 -4.4697 1.2154 0
M  V30 8834 C 817.711 -5.50189 1.6149 0
M  V30 8835 N 817.207 -6.60512 2.09034 0
M  V30 8836 N 819 -5.40903 1.52907 0
M  V30 8837 H 811.151 -1.53001 1.47324 0
M  V30 8838 H 813.414 -0.724765 0.61108 0
M  V30 8839 H 813.12 -3.03182 1.78251 0
M  V30 8840 H 812.994 -3.767 0.19417 0
M  V30 8841 H 815.381 -2.93134 -0.340085 0
M  V30 8842 H 815.462 -2.2167 1.27656 0
M  V30 8843 H 815.106 -4.53172 2.29341 0
M  V30 8844 H 815.036 -5.22524 0.653921 0
M  V30 8845 H 817.527 -3.67819 0.867043 0
M  V30 8846 H 817.84 -7.35372 2.37588 0
M  V30 8847 H 816.185 -6.61553 2.13008 0
M  V30 8848 H 819.376 -4.53606 1.15583 0
M  V30 8849 H 819.549 -6.21219 1.84365 0
M  V30 8850 N 812.955 -0.234822 -1.55841 0
M  V30 8851 C 814.183 0.397745 -2.03041 0
M  V30 8852 C 814.598 1.52405 -1.11437 0
M  V30 8853 O 813.955 1.82061 -0.126466 0
M  V30 8854 C 814.006 0.916919 -3.49678 0
M  V30 8855 O 813.727 -0.164493 -4.37791 0
M  V30 8856 C 815.228 1.62139 -4.12584 0
M  V30 8857 H 812.448 0.0959214 -0.664108 0
M  V30 8858 H 814.992 -0.355156 -2.01392 0
M  V30 8859 H 813.147 1.62004 -3.519 0
M  V30 8860 H 813.561 0.227794 -5.24005 0
M  V30 8861 H 815.035 1.93651 -5.16917 0
M  V30 8862 H 815.512 2.53918 -3.58361 0
M  V30 8863 H 816.118 0.963145 -4.14251 0
M  V30 8864 N 814.433 1.57553 0.0384317 0
M  V30 8865 C 815.363 2.0898 1.04161 0
M  V30 8866 C 816.344 0.99029 1.38301 0
M  V30 8867 O 817.529 1.26499 1.47349 0
M  V30 8868 C 814.659 2.56145 2.34536 0
M  V30 8869 C 813.613 3.70275 2.14663 0
M  V30 8870 C 812.939 4.03612 3.50715 0
M  V30 8871 C 814.239 4.99067 1.54045 0
M  V30 8872 H 815.933 2.93046 0.613548 0
M  V30 8873 H 813.479 1.40973 0.293684 0
M  V30 8874 H 815.432 2.90741 3.05037 0
M  V30 8875 H 814.156 1.6915 2.79385 0
M  V30 8876 H 812.815 3.36013 1.46597 0
M  V30 8877 H 812.463 3.13698 3.93195 0
M  V30 8878 H 812.163 4.80482 3.38247 0
M  V30 8879 H 813.687 4.40735 4.22593 0
M  V30 8880 H 815.101 5.3168 2.14451 0
M  V30 8881 H 813.498 5.80484 1.52178 0
M  V30 8882 H 814.568 4.8226 0.505259 0
M  V30 8883 N 815.911 -0.310526 1.54511 0
M  V30 8884 C 817.139 -1.06611 1.77318 0
M  V30 8885 C 817.554 -1.81265 0.528043 0
M  V30 8886 O 816.911 -1.75466 -0.50178 0
M  V30 8887 C 816.962 -2.05409 2.97472 0
M  V30 8888 O 816.683 -1.33785 4.17173 0
M  V30 8889 C 818.184 -2.93082 3.32593 0
M  V30 8890 H 815.404 -0.316578 0.591624 0
M  V30 8891 H 817.948 -0.352691 2.01436 0
M  V30 8892 H 816.103 -2.72266 2.7559 0
M  V30 8893 H 816.517 -2.00055 4.84849 0
M  V30 8894 H 817.991 -3.58274 4.19933 0
M  V30 8895 H 818.468 -3.60877 2.50329 0
M  V30 8896 H 819.074 -2.31768 3.566 0
M  V30 8897 N 817.389 -1.46805 -0.573248 0
M  V30 8898 C 818.339 -1.54497 -1.67674 0
M  V30 8899 C 819.323 -0.405117 -1.55716 0
M  V30 8900 O 820.515 -0.654097 -1.64471 0
M  V30 8901 C 817.644 -1.54717 -3.0646 0
M  V30 8902 C 816.73 -2.7403 -3.2368 0
M  V30 8903 N 817.121 -3.98871 -3.11023 0
M  V30 8904 C 815.419 -2.70453 -3.54642 0
M  V30 8905 C 816.12 -4.78689 -3.30502 0
M  V30 8906 N 815.096 -4.10727 -3.56096 0
M  V30 8907 H 818.898 -2.48809 -1.56433 0
M  V30 8908 H 816.412 -1.42576 -0.777554 0
M  V30 8909 H 818.409 -1.58316 -3.8567 0
M  V30 8910 H 817.069 -0.614886 -3.18825 0
M  V30 8911 H 818.08 -4.29976 -2.88688 0
M  V30 8912 H 814.757 -1.86291 -3.73633 0
M  V30 8913 H 816.147 -5.87615 -3.2582 0
M  V30 8914 N 818.867 0.818669 -1.34668 0
M  V30 8915 C 820.097 1.60441 -1.30162 0
M  V30 8916 C 820.505 1.88783 0.125579 0
M  V30 8917 O 819.848 1.48281 1.08437 0
M  V30 8918 C 819.91 2.96794 -2.02864 0
M  V30 8919 C 819.574 2.91327 -3.52105 0
M  V30 8920 C 820.571 2.65611 -4.4693 0
M  V30 8921 C 818.256 3.10825 -3.9458 0
M  V30 8922 C 820.25 2.59452 -5.82206 0
M  V30 8923 C 817.937 3.0429 -5.29954 0
M  V30 8924 C 818.935 2.78637 -6.23579 0
M  V30 8925 O 818.623 2.72042 -7.56471 0
M  V30 8926 H 818.355 0.505278 -0.449077 0
M  V30 8927 H 820.909 1.02632 -1.77921 0
M  V30 8928 H 819.139 3.56538 -1.49725 0
M  V30 8929 H 820.828 3.57837 -1.91592 0
M  V30 8930 H 821.594 2.50278 -4.15434 0
M  V30 8931 H 817.473 3.29807 -3.221 0
M  V30 8932 H 821.017 2.39349 -6.55254 0
M  V30 8933 H 816.914 3.19177 -5.61067 0
M  V30 8934 H 817.682 2.87738 -7.66257 0
M  V30 8935 N 820.346 1.18468 1.03938 0
M  V30 8936 C 821.293 0.912859 2.1198 0
M  V30 8937 C 822.263 -0.14824 1.65437 0
M  V30 8938 O 823.448 -0.008331 1.90798 0
M  V30 8939 C 820.588 0.446114 3.42204 0
M  V30 8940 C 819.701 1.57278 4.02353 0
M  V30 8941 C 818.836 1.05863 5.20544 0
M  V30 8942 C 817.875 2.1599 5.72726 0
M  V30 8943 N 817.012 1.65959 6.82204 0
M  V30 8944 H 821.852 1.83798 2.34569 0
M  V30 8945 H 819.389 0.916504 1.15059 0
M  V30 8946 H 821.347 0.15697 4.16905 0
M  V30 8947 H 819.977 -0.442025 3.19759 0
M  V30 8948 H 819.029 1.97737 3.24968 0
M  V30 8949 H 820.341 2.40289 4.37107 0
M  V30 8950 H 819.495 0.724087 6.02364 0
M  V30 8951 H 818.234 0.198116 4.87297 0
M  V30 8952 H 817.239 2.50287 4.89527 0
M  V30 8953 H 818.464 3.02479 6.08016 0
M  V30 8954 H 816.41 0.82199 6.5083 0
M  V30 8955 H 816.327 2.42567 7.16029 0
M  V30 8956 H 817.595 1.35436 7.67644 0
M  V30 8957 N 821.824 -1.22873 0.986916 0
M  V30 8958 C 823.049 -1.96028 0.677341 0
M  V30 8959 C 823.474 -1.72487 -0.750319 0
M  V30 8960 O 822.832 -1.00036 -1.51203 0
M  V30 8961 C 822.88 -3.46983 0.981593 0
M  V30 8962 O 821.984 -4.12328 0.0770729 0
M  V30 8963 H 821.325 -0.613458 0.254096 0
M  V30 8964 H 823.855 -1.56132 1.32227 0
M  V30 8965 H 823.865 -3.9747 0.920969 0
M  V30 8966 H 822.54 -3.63442 2.02194 0
M  V30 8967 H 821.117 -3.72402 0.192666 0
M  V30 8968 N 823.302 -0.75937 -1.38099 0
M  V30 8969 C 824.265 -0.14372 -2.28749 0
M  V30 8970 C 825.265 0.641338 -1.47457 0
M  V30 8971 O 826.455 0.466751 -1.67831 0
M  V30 8972 C 823.587 0.804545 -3.3127 0
M  V30 8973 H 824.78 -0.942663 -2.847 0
M  V30 8974 H 822.333 -0.526757 -1.47156 0
M  V30 8975 H 823.068 1.62895 -2.80421 0
M  V30 8976 H 822.853 0.243939 -3.9134 0
M  V30 8977 H 824.343 1.23111 -3.99041 0
M  V30 8978 N 824.78 1.49157 -0.508906 0
M  V30 8979 C 826.026 2.02773 0.0328469 0
M  V30 8980 C 826.359 1.38714 1.35912 0
M  V30 8981 O 825.634 0.525536 1.87266 0
M  V30 8982 C 825.917 3.59664 0.177088 0
M  V30 8983 C 825.77 4.34239 -1.17287 0
M  V30 8984 C 827.089 4.30505 0.913977 0
M  V30 8985 H 824.208 0.736926 0.0104631 0
M  V30 8986 H 826.85 1.781 -0.661851 0
M  V30 8987 H 825 3.80818 0.768774 0
M  V30 8988 H 826.672 4.24561 -1.80404 0
M  V30 8989 H 824.915 3.96486 -1.76016 0
M  V30 8990 H 825.586 5.42397 -1.02516 0
M  V30 8991 H 828.062 4.14054 0.412084 0
M  V30 8992 H 826.938 5.40012 0.983759 0
M  V30 8993 H 827.199 3.96302 1.95951 0
M  V30 8994 N 826.258 0.243083 1.55714 0
M  V30 8995 C 827.205 -0.658078 2.21219 0
M  V30 8996 C 828.175 -1.1742 1.17481 0
M  V30 8997 O 829.36 -1.22937 1.45915 0
M  V30 8998 C 826.5 -1.85104 2.91257 0
M  V30 8999 C 825.613 -1.3718 4.09641 0
M  V30 9000 C 824.748 -2.52403 4.67404 0
M  V30 9001 C 823.787 -2.01321 5.78045 0
M  V30 9002 N 822.924 -3.09896 6.30007 0
M  V30 9003 H 827.764 -0.0927854 2.97856 0
M  V30 9004 H 825.301 -0.0340375 1.47061 0
M  V30 9005 H 827.259 -2.55179 3.3006 0
M  V30 9006 H 825.889 -2.38887 2.17101 0
M  V30 9007 H 824.941 -0.565232 3.76177 0
M  V30 9008 H 826.253 -0.957409 4.89525 0
M  V30 9009 H 825.407 -3.30525 5.08761 0
M  V30 9010 H 824.146 -2.97142 3.86728 0
M  V30 9011 H 823.151 -1.21667 5.36169 0
M  V30 9012 H 824.376 -1.57556 6.6057 0
M  V30 9013 H 822.322 -3.54077 5.52237 0
M  V30 9014 H 822.239 -2.72776 7.05074 0
M  V30 9015 H 823.507 -3.8809 6.76023 0
M  V30 9016 N 827.736 -1.57571 -0.0300757 0
M  V30 9017 C 828.699 -2.05468 -1.01565 0
M  V30 9018 C 829.699 -0.958628 -1.29101 0
M  V30 9019 O 830.889 -1.22228 -1.24121 0
M  V30 9020 C 828.021 -2.47077 -2.34874 0
M  V30 9021 H 829.214 -2.93797 -0.601936 0
M  V30 9022 H 826.767 -1.53828 -0.276878 0
M  V30 9023 H 827.502 -1.61901 -2.80996 0
M  V30 9024 H 827.287 -3.27097 -2.16218 0
M  V30 9025 H 828.777 -2.84564 -3.05635 0
M  V30 9026 O 829.253 0.172939 -1.60571 0
M  V30 9027 H 829.944 0.809747 -1.75962 0
M  V30 END ATOM
M  V30 BEGIN BOND
M  V30 END BOND
M  V30 END CTAB
M  END
$$$$
