drugbank_target|P01579 Interferon gamma (DB01250; DB01296; DB05110; DB05111; DB10770; DB10772; DB14724)
 OpenBabel12092119443D

  0  0  0     0  0            999 V3000
M  V30 BEGIN CTAB
M  V30 COUNTS 2740 2763 0 0 0
M  V30 BEGIN ATOM
M  V30 1 H -0.908 1.98254 -0.117106 0
M  V30 2 N 0 1.576 0 0
M  V30 3 C 0.933 2.03868 1.02534 0
M  V30 4 C 1.911 0.928543 1.3348 0
M  V30 5 O 3.095 1.19667 1.45644 0
M  V30 6 C 0.222 2.43627 2.35294 0
M  V30 7 C -0.732 3.65373 2.2001 0
M  V30 8 S 0.101 5.13292 1.52614 0
M  V30 9 C 1.257 5.56322 2.86805 0
M  V30 10 H 1.49 2.90518 0.631377 0
M  V30 11 H -0.977 1.52953 0.210867 0
M  V30 12 H 0.981 2.67203 3.11629 0
M  V30 13 H -0.358 1.57376 2.7183 0
M  V30 14 H -1.165 3.90944 3.18086 0
M  V30 15 H -1.563 3.418 1.51819 0
M  V30 16 H 0.729 5.58782 3.83104 0
M  V30 17 H 1.672 6.56266 2.65933 0
M  V30 18 H 2.08 4.83886 2.90714 0
M  V30 19 N 1.4781 -0.272755 1.55222 0
M  V30 20 C 2.4251 -1.33716 1.88119 0
M  V30 21 C 3.3951 -1.49066 0.73271 0
M  V30 22 O 4.5801 -1.63469 0.984002 0
M  V30 23 C 1.7201 -2.69238 2.15882 0
M  V30 24 C 0.8331 -2.62108 3.43399 0
M  V30 25 C -0.0319 -3.89811 3.60861 0
M  V30 26 C -0.9929 -3.77193 4.8207 0
M  V30 27 N -1.8559 -4.9673 4.96189 0
M  V30 28 H 2.9841 -1.04962 2.78903 0
M  V30 29 H 0.5211 -0.507088 1.38083 0
M  V30 30 H 2.4791 -3.48089 2.29978 0
M  V30 31 H 1.1091 -2.96194 1.28331 0
M  V30 32 H 0.1611 -1.74967 3.37773 0
M  V30 33 H 1.4731 -2.48685 4.32386 0
M  V30 34 H 0.6271 -4.77103 3.74777 0
M  V30 35 H -0.6339 -4.06102 2.7006 0
M  V30 36 H -1.6289 -2.88284 4.68159 0
M  V30 37 H -0.4039 -3.62421 5.74307 0
M  V30 38 H -2.4579 -5.13431 4.08319 0
M  V30 39 H -2.5409 -4.85839 5.79221 0
M  V30 40 H -1.2729 -5.85594 5.1449 0
M  V30 41 N 2.9562 -1.48159 -0.537278 0
M  V30 42 C 4.1862 -1.59223 -1.3165 0
M  V30 43 C 4.5942 -0.248849 -1.87556 0
M  V30 44 O 3.9372 0.770949 -1.6674 0
M  V30 45 C 3.9992 -2.57365 -2.51005 0
M  V30 46 C 3.6632 -4.02603 -2.16239 0
M  V30 47 C 4.6602 -4.90503 -1.72344 0
M  V30 48 C 2.3452 -4.48088 -2.26986 0
M  V30 49 C 4.3392 -6.21913 -1.39651 0
M  V30 50 C 2.0262 -5.7952 -1.93906 0
M  V30 51 C 3.0242 -6.66255 -1.50309 0
M  V30 52 O 2.7122 -7.95243 -1.17659 0
M  V30 53 H 2.4442 -0.539831 -0.406889 0
M  V30 54 H 4.9982 -1.94655 -0.655641 0
M  V30 55 H 3.2282 -2.1704 -3.20048 0
M  V30 56 H 4.9172 -2.58342 -3.13072 0
M  V30 57 H 5.6832 -4.56604 -1.63517 0
M  V30 58 H 1.5622 -3.80769 -2.59877 0
M  V30 59 H 5.1062 -6.89569 -1.0555 0
M  V30 60 H 1.0032 -6.12957 -2.02371 0
M  V30 61 H 1.7712 -8.0793 -1.31119 0
M  V30 62 N 4.4343 0.785586 -1.36625 0
M  V30 63 C 5.6623 1.57448 -1.3423 0
M  V30 64 C 6.0773 1.88649 0.0755653 0
M  V30 65 O 5.4343 1.50414 1.03354 0
M  V30 66 C 5.4853 2.89316 -2.16745 0
M  V30 67 O 5.2063 2.59459 -3.53005 0
M  V30 68 C 6.7073 3.83606 -2.22174 0
M  V30 69 H 3.9273 0.488226 -0.4603 0
M  V30 70 H 6.4713 0.974733 -1.79775 0
M  V30 71 H 4.6263 3.4575 -1.74745 0
M  V30 72 H 5.0403 3.43804 -3.96105 0
M  V30 73 H 6.5143 4.73181 -2.8426 0
M  V30 74 H 6.9913 4.21734 -1.22627 0
M  V30 75 H 7.5973 3.33104 -2.64427 0
M  V30 76 N 5.9124 1.20967 1.01018 0
M  V30 77 C 7.1374 1.0503 1.78839 0
M  V30 78 C 7.5624 -0.395752 1.8389 0
M  V30 79 O 6.9204 -1.28529 1.27867 0
M  V30 80 C 6.9684 1.64602 3.2084 0
M  V30 81 O 6.0724 0.887988 4.02726 0
M  V30 82 H 5.4134 0.369987 0.551367 0
M  V30 83 H 7.9434 1.60399 1.27018 0
M  V30 84 H 7.9534 1.68607 3.71532 0
M  V30 85 H 6.6284 2.69841 3.16479 0
M  V30 86 H 5.2054 0.922648 3.61305 0
M  V30 87 N 7.3905 -1.2043 1.01659 0
M  V30 88 C 8.6205 -1.93496 0.724081 0
M  V30 89 C 9.0285 -1.74998 -0.71918 0
M  V30 90 O 8.3715 -1.06118 -1.49949 0
M  V30 91 C 8.4335 -3.45886 0.97994 0
M  V30 92 C 8.0975 -3.88145 2.41232 0
M  V30 93 C 9.0945 -3.93907 3.39313 0
M  V30 94 C 6.7795 -4.20134 2.75305 0
M  V30 95 C 8.7735 -4.31069 4.6953 0
M  V30 96 C 6.4605 -4.56971 4.05735 0
M  V30 97 C 7.4585 -4.62411 5.02658 0
M  V30 98 O 7.1465 -4.98403 6.30754 0
M  V30 99 H 6.8785 -0.621824 0.265162 0
M  V30 100 H 9.4325 -1.53867 1.36066 0
M  V30 101 H 7.6625 -3.85639 0.286198 0
M  V30 102 H 9.3515 -4.0018 0.679021 0
M  V30 103 H 10.1175 -3.69357 3.14325 0
M  V30 104 H 5.9965 -4.1509 2.00551 0
M  V30 105 H 9.5405 -4.3523 5.45179 0
M  V30 106 H 5.4375 -4.80977 4.30502 0
M  V30 107 H 6.2055 -5.16395 6.35042 0
M  V30 108 N 8.8686 -0.792821 -1.36206 0
M  V30 109 C 10.1176 -0.363353 -1.984 0
M  V30 110 C 10.4306 1.07172 -1.63626 0
M  V30 111 O 11.6366 1.60362 -2.19081 0
M  V30 112 C 10.0926 -0.59872 -3.54885 0
M  V30 113 C 9.7006 -2.04543 -3.9858 0
M  V30 114 C 11.4446 -0.233926 -4.23855 0
M  V30 115 C 9.3516 -2.22727 -5.47856 0
M  V30 116 H 8.2816 -0.13212 -0.742334 0
M  V30 117 H 10.9326 -0.974935 -1.55458 0
M  V30 118 H 9.3146 0.0826222 -3.95914 0
M  V30 119 H 10.4886 -2.76345 -3.68741 0
M  V30 120 H 8.8036 -2.36879 -3.42458 0
M  V30 121 H 11.4006 -0.348027 -5.33566 0
M  V30 122 H 11.7436 0.818351 -4.08177 0
M  V30 123 H 12.2766 -0.868639 -3.882 0
M  V30 124 H 9.0156 -3.2635 -5.68486 0
M  V30 125 H 8.5356 -1.55434 -5.7931 0
M  V30 126 H 10.2146 -2.03607 -6.14128 0
M  V30 127 N 10.3467 1.47872 -0.545128 0
M  V30 128 C 11.2767 2.32661 0.197793 0
M  V30 129 C 12.2577 1.43041 0.920504 0
M  V30 130 O 13.4427 1.71912 0.90333 0
M  V30 131 C 10.5727 3.24569 1.23582 0
M  V30 132 C 9.5267 4.23333 0.630323 0
M  V30 133 C 8.8527 5.0448 1.77211 0
M  V30 134 C 10.1527 5.20704 -0.407974 0
M  V30 135 H 11.8467 2.95024 -0.510045 0
M  V30 136 H 9.3927 1.4187 -0.246731 0
M  V30 137 H 11.3457 3.8272 1.76362 0
M  V30 138 H 10.0697 2.60236 1.97344 0
M  V30 139 H 8.7287 3.6639 0.123922 0
M  V30 140 H 8.3767 4.36561 2.49847 0
M  V30 141 H 8.0767 5.71339 1.37281 0
M  V30 142 H 9.6007 5.65487 2.3034 0
M  V30 143 H 11.0147 5.7329 0.033305 0
M  V30 144 H 9.4117 5.95699 -0.725486 0
M  V30 145 H 10.4817 4.66917 -1.30828 0
M  V30 146 N 11.8248 0.280983 1.55075 0
M  V30 147 C 12.7878 -0.590896 2.21452 0
M  V30 148 C 13.7878 -1.07682 1.19421 0
M  V30 149 O 14.9778 -0.97605 1.44288 0
M  V30 150 C 12.1098 -1.81587 2.88511 0
M  V30 151 H 13.3028 -0.0112554 2.99898 0
M  V30 152 H 10.8558 0.0316438 1.56268 0
M  V30 153 H 11.5908 -2.43587 2.14093 0
M  V30 154 H 11.3758 -1.4753 3.63287 0
M  V30 155 H 12.8658 -2.43575 3.39206 0
M  V30 156 N 13.3029 -1.57598 0.00835791 0
M  V30 157 C 14.5499 -1.90928 -0.674732 0
M  V30 158 C 14.8779 -0.88277 -1.73313 0
M  V30 159 O 14.1329 0.111294 -1.95383 0
M  V30 160 C 14.4319 -3.3101 -1.34787 0
M  V30 161 C 14.0979 -4.48922 -0.421861 0
M  V30 162 C 12.7599 -4.8091 -0.166927 0
M  V30 163 C 15.1119 -5.20755 0.215211 0
M  V30 164 C 12.4399 -5.821 0.733232 0
M  V30 165 C 14.7919 -6.22905 1.1033 0
M  V30 166 C 13.4559 -6.53346 1.36733 0
M  V30 167 H 12.7259 -0.698656 -0.246902 0
M  V30 168 H 15.3729 -1.91387 0.0656779 0
M  V30 169 H 13.6779 -3.26714 -2.16253 0
M  V30 170 H 15.3749 -3.54061 -1.8826 0
M  V30 171 H 11.9649 -4.23934 -0.630729 0
M  V30 172 H 16.1489 -4.9629 0.0312829 0
M  V30 173 H 11.4049 -6.04042 0.945712 0
M  V30 174 H 15.5789 -6.77694 1.60325 0
M  V30 175 H 13.2059 -7.31573 2.06652 0
M  V30 176 N 14.781 0.264519 -1.55364 0
M  V30 177 C 15.713 1.34965 -1.85248 0
M  V30 178 C 16.726 1.45136 -0.737525 0
M  V30 179 O 17.915 1.46801 -1.01547 0
M  V30 180 C 15.015 2.73008 -2.00797 0
M  V30 181 C 14.188 2.85324 -3.31525 0
M  V30 182 C 13.247 4.04097 -3.37034 0
M  V30 183 O 12.273 3.94455 -4.10358 0
M  V30 184 N 13.475 5.16458 -2.65049 0
M  V30 185 H 16.24 1.09672 -2.78913 0
M  V30 186 H 13.801 0.454635 -1.55386 0
M  V30 187 H 15.793 3.50772 -2.01844 0
M  V30 188 H 14.363 2.91087 -1.1396 0
M  V30 189 H 13.583 1.94377 -3.42945 0
M  V30 190 H 14.871 2.9049 -4.17724 0
M  V30 191 H 14.269 5.27181 -2.05175 0
M  V30 192 H 12.826 5.92422 -2.71809 0
M  V30 193 N 16.2591 1.48442 0.529413 0
M  V30 194 C 17.1891 1.65902 1.64313 0
M  V30 195 C 18.1701 0.507897 1.6234 0
M  V30 196 O 19.3551 0.740503 1.79528 0
M  V30 197 C 16.4851 1.69911 3.02898 0
M  V30 198 C 15.4391 2.8453 3.19729 0
M  V30 199 C 14.7651 2.73629 4.59381 0
M  V30 200 C 16.0651 4.25821 3.02447 0
M  V30 201 H 17.7591 2.5914 1.49955 0
M  V30 202 H 15.3051 1.24709 0.719982 0
M  V30 203 H 17.2581 1.80715 3.80684 0
M  V30 204 H 15.9821 0.732524 3.18279 0
M  V30 205 H 14.6411 2.73283 2.44361 0
M  V30 206 H 14.2891 1.74938 4.71599 0
M  V30 207 H 13.9891 3.50541 4.71588 0
M  V30 208 H 15.5131 2.86401 5.39265 0
M  V30 209 H 16.9271 4.37898 3.70024 0
M  V30 210 H 15.3241 5.03735 3.26146 0
M  V30 211 H 16.3941 4.42244 1.98867 0
M  V30 212 N 17.7372 -0.778329 1.37039 0
M  V30 213 C 18.9772 -1.54973 1.33276 0
M  V30 214 C 19.3412 -1.91816 -0.0839376 0
M  V30 215 O 20.5422 -2.6767 -0.246228 0
M  V30 216 C 18.8132 -2.78517 2.23971 0
M  V30 217 S 20.3722 -3.6865 2.37997 0
M  V30 218 H 17.1902 -0.530639 0.473226 0
M  V30 219 H 19.7922 -0.915806 1.72723 0
M  V30 220 H 18.4962 -2.4952 3.25835 0
M  V30 221 H 18.0272 -3.46875 1.85584 0
M  V30 222 H 20.0422 -4.70182 1.58567 0
M  V30 223 N 19.2153 -1.21501 -1.00376 0
M  V30 224 C 20.4643 -1.02718 -1.73586 0
M  V30 225 C 20.7773 0.439589 -1.90596 0
M  V30 226 O 21.9833 0.746848 -2.61026 0
M  V30 227 C 20.4393 -1.78929 -3.1227 0
M  V30 228 C 20.0473 -3.29783 -3.03228 0
M  V30 229 C 21.7913 -1.68557 -3.89601 0
M  V30 230 C 19.6983 -3.98479 -4.36999 0
M  V30 231 H 18.6283 -0.380733 -0.650814 0
M  V30 232 H 21.2793 -1.45248 -1.1214 0
M  V30 233 H 19.6613 -1.29192 -3.74333 0
M  V30 234 H 20.8353 -3.86832 -2.50395 0
M  V30 235 H 19.1503 -3.40711 -2.39385 0
M  V30 236 H 21.7473 -2.17211 -4.88593 0
M  V30 237 H 22.0903 -0.644021 -4.11288 0
M  V30 238 H 22.6233 -2.15778 -3.34193 0
M  V30 239 H 19.3623 -5.02841 -4.20513 0
M  V30 240 H 18.8823 -3.46219 -4.89788 0
M  V30 241 H 20.5613 -4.03462 -5.05794 0
M  V30 242 N 20.6934 1.19889 -1.02296 0
M  V30 243 C 21.9394 1.89701 -0.717033 0
M  V30 244 C 22.2724 1.7905 0.751989 0
M  V30 245 O 21.5474 1.17891 1.547 0
M  V30 246 C 21.8304 3.40858 -1.16136 0
M  V30 247 C 21.6834 3.60411 -2.69117 0
M  V30 248 C 23.0024 4.33876 -0.737549 0
M  V30 249 H 20.1214 0.688874 -0.261957 0
M  V30 250 H 22.7634 1.41154 -1.27183 0
M  V30 251 H 20.9134 3.82335 -0.689342 0
M  V30 252 H 22.5854 3.28145 -3.2422 0
M  V30 253 H 20.8284 3.03665 -3.0979 0
M  V30 254 H 21.4994 4.66396 -2.95261 0
M  V30 255 H 23.9754 4.00081 -1.14344 0
M  V30 256 H 22.8514 5.38242 -1.0764 0
M  V30 257 H 23.1124 4.40628 0.360436 0
M  V30 258 N 22.1715 0.800033 1.35784 0
M  V30 259 C 23.1015 0.220184 2.3246 0
M  V30 260 C 24.0825 -0.65073 1.57161 0
M  V30 261 O 25.2675 -0.582359 1.85263 0
M  V30 262 C 22.3975 -0.637353 3.41402 0
M  V30 263 C 21.3515 0.134531 4.27789 0
M  V30 264 C 20.6775 -0.844285 5.27992 0
M  V30 265 C 21.9775 1.32979 5.05088 0
M  V30 266 H 23.6715 1.02787 2.81203 0
M  V30 267 H 21.2175 0.495717 1.35199 0
M  V30 268 H 23.1705 -1.05302 4.08031 0
M  V30 269 H 21.8945 -1.47785 2.91251 0
M  V30 270 H 20.5535 0.531296 3.6273 0
M  V30 271 H 20.2015 -1.68011 4.74111 0
M  V30 272 H 19.9015 -0.332184 5.8666 0
M  V30 273 H 21.4255 -1.2583 5.97494 0
M  V30 274 H 22.8395 0.98934 5.64699 0
M  V30 275 H 21.2365 1.77593 5.7322 0
M  V30 276 H 22.3065 2.11978 4.36111 0
M  V30 277 N 23.6496 -1.47581 0.552962 0
M  V30 278 C 24.8976 -2.02082 0.0272703 0
M  V30 279 C 25.2186 -1.4301 -1.32563 0
M  V30 280 O 24.4886 -0.603745 -1.86365 0
M  V30 281 H 23.0686 -0.746966 0.00709182 0
M  V30 282 H 25.7306 -1.81033 0.722008 0
M  V30 283 H 24.8266 -3.12034 -0.0639951 0
M  V30 284 N 25.1277 -0.289203 -1.54924 0
M  V30 285 C 26.3527 0.329299 -2.04769 0
M  V30 286 C 26.7777 1.4763 -1.16564 0
M  V30 287 O 26.1357 1.80527 -0.167186 0
M  V30 288 C 26.1837 0.774438 -3.52186 0
M  V30 289 O 25.2877 1.88038 -3.67036 0
M  V30 290 H 24.6287 0.0659259 -0.660719 0
M  V30 291 H 27.1587 -0.42761 -2.00082 0
M  V30 292 H 27.1687 1.06642 -3.93816 0
M  V30 293 H 25.8437 -0.0646707 -4.1585 0
M  V30 294 H 24.4207 1.58985 -3.3731 0
M  V30 295 N 26.6058 1.57591 -0.0167156 0
M  V30 296 C 27.5358 2.12496 0.967858 0
M  V30 297 C 28.5168 1.03807 1.34752 0
M  V30 298 O 29.7018 1.31577 1.42833 0
M  V30 299 C 26.8318 2.64194 2.25431 0
M  V30 300 C 25.7858 3.77559 2.01576 0
M  V30 301 C 25.1118 4.15636 3.36379 0
M  V30 302 C 26.4118 5.04151 1.36489 0
M  V30 303 H 28.1058 2.95013 0.510643 0
M  V30 304 H 25.6518 1.41915 0.244181 0
M  V30 305 H 27.6048 3.01236 2.94678 0
M  V30 306 H 26.3288 1.78821 2.73296 0
M  V30 307 H 24.9878 3.40937 1.34751 0
M  V30 308 H 24.6358 3.27263 3.81979 0
M  V30 309 H 24.3358 4.92022 3.21229 0
M  V30 310 H 25.8598 4.5525 4.06915 0
M  V30 311 H 27.2738 5.38857 1.95718 0
M  V30 312 H 25.6708 5.85453 1.31776 0
M  V30 313 H 26.7408 4.83733 0.336219 0
M  V30 314 N 28.0839 -0.256276 1.55502 0
M  V30 315 C 29.3319 -0.983672 1.76545 0
M  V30 316 C 29.6529 -1.86206 0.578982 0
M  V30 317 O 28.9229 -1.91656 -0.405577 0
M  V30 318 H 27.5029 -0.366191 0.651086 0
M  V30 319 H 30.1649 -0.276479 1.92929 0
M  V30 320 H 29.2609 -1.61087 2.67315 0
M  V30 321 N 29.562 -1.4872 -0.521534 0
M  V30 322 C 30.802 -1.58771 -1.28729 0
M  V30 323 C 31.166 -0.259394 -1.9024 0
M  V30 324 O 32.367 -0.234942 -2.67771 0
M  V30 325 C 30.638 -2.70039 -2.34124 0
M  V30 326 S 32.197 -2.9991 -3.20312 0
M  V30 327 H 29.015 -0.560251 -0.437767 0
M  V30 328 H 31.617 -1.86283 -0.593188 0
M  V30 329 H 30.321 -3.65101 -1.87429 0
M  V30 330 H 29.852 -2.44455 -3.08229 0
M  V30 331 H 31.867 -2.39855 -4.34378 0
M  V30 332 N 31.0401 0.771051 -1.3745 0
M  V30 333 C 32.2701 1.55789 -1.35696 0
M  V30 334 C 32.6781 1.89107 0.0594523 0
M  V30 335 O 32.0211 1.51984 1.03183 0
M  V30 336 C 32.0831 2.89515 -2.13123 0
M  V30 337 C 31.7471 2.78829 -3.62082 0
M  V30 338 C 32.7441 2.49812 -4.5595 0
M  V30 339 C 30.4291 2.9683 -4.05213 0
M  V30 340 C 32.4231 2.38923 -5.90927 0
M  V30 341 C 30.1101 2.85562 -5.40276 0
M  V30 342 C 31.1081 2.56649 -6.32946 0
M  V30 343 O 30.7961 2.45408 -7.65526 0
M  V30 344 H 30.5281 0.489257 -0.466481 0
M  V30 345 H 33.0821 0.963446 -1.81403 0
M  V30 346 H 31.3121 3.51081 -1.62107 0
M  V30 347 H 33.0011 3.50915 -2.03994 0
M  V30 348 H 33.7671 2.3559 -4.23937 0
M  V30 349 H 29.6461 3.18335 -3.33442 0
M  V30 350 H 33.1901 2.16277 -6.63227 0
M  V30 351 H 29.0871 2.99351 -5.71891 0
M  V30 352 H 29.8551 2.60753 -7.75855 0
M  V30 353 N 32.5182 1.22032 0.997298 0
M  V30 354 C 33.7582 1.05375 1.75144 0
M  V30 355 C 34.1222 -0.404696 1.87686 0
M  V30 356 O 35.3232 -0.691998 2.5974 0
M  V30 357 C 33.5942 1.74046 3.12158 0
M  V30 358 S 35.1532 1.72745 4.03366 0
M  V30 359 H 31.9712 0.377449 0.602539 0
M  V30 360 H 34.5732 1.54902 1.19272 0
M  V30 361 H 33.2772 2.79332 3.00669 0
M  V30 362 H 32.8082 1.24731 3.73103 0
M  V30 363 H 34.8232 0.774015 4.90126 0
M  V30 364 N 33.9963 -1.19345 1.0293 0
M  V30 365 C 34.9283 -2.22036 0.56857 0
M  V30 366 C 35.9413 -1.58865 -0.355779 0
M  V30 367 O 37.1303 -1.77851 -0.152103 0
M  V30 368 C 34.2303 -3.38363 -0.190752 0
M  V30 369 C 33.4033 -4.31118 0.738643 0
M  V30 370 C 32.4623 -5.26194 0.0246497 0
M  V30 371 O 31.4883 -5.65461 0.651354 0
M  V30 372 N 32.6903 -5.66971 -1.24594 0
M  V30 373 H 35.4553 -2.6219 1.45177 0
M  V30 374 H 33.0163 -1.34015 0.908381 0
M  V30 375 H 35.0083 -3.98981 -0.677961 0
M  V30 376 H 33.5783 -2.96994 -0.975366 0
M  V30 377 H 32.7983 -3.68276 1.40593 0
M  V30 378 H 34.0863 -4.90001 1.37029 0
M  V30 379 H 33.4843 -5.37104 -1.77583 0
M  V30 380 H 32.0413 -6.2984 -1.67764 0
M  V30 381 N 35.4744 -0.807222 -1.35358 0
M  V30 382 C 36.7514 -0.311126 -1.9311 0
M  V30 383 C 37.1314 1.19937 -1.73719 0
M  V30 384 O 36.4794 1.99918 -1.10657 0
M  V30 385 C 36.6894 -0.723226 -3.41424 0
M  V30 386 C 38.0374 -0.713078 -4.18569 0
M  V30 387 O 39.0614 -0.664811 -3.49941 0
M  V30 388 O 37.9204 -0.772022 -5.41019 0
M  V30 389 H 35.0144 -0.081526 -0.822972 0
M  V30 390 H 37.5604 -0.890962 -1.4443 0
M  V30 391 H 36.3324 -1.76426 -3.4927 0
M  V30 392 H 35.9554 -0.118232 -3.97424 0
M  V30 393 N 36.9525 1.47285 -0.560781 0
M  V30 394 C 38.3635 1.86258 -0.128343 0
M  V30 395 C 38.7145 1.46699 1.30284 0
M  V30 396 O 37.8395 0.871698 1.98067 0
M  V30 397 C 38.4345 3.38044 -0.22614 0
M  V30 398 C 36.9935 3.76096 0.151283 0
M  V30 399 C 36.1405 2.71335 -0.572084 0
M  V30 400 H 39.0915 1.38752 -0.770297 0
M  V30 401 H 39.1125 3.76441 0.554322 0
M  V30 402 H 38.6245 3.66806 -1.26788 0
M  V30 403 H 36.7255 3.52951 1.19399 0
M  V30 404 H 36.8385 4.78641 -0.209765 0
M  V30 405 H 35.2025 2.54696 -0.0147653 0
M  V30 406 H 35.9855 3.02938 -1.61504 0
M  V30 407 N 38.4306 0.297415 1.54768 0
M  V30 408 C 39.6606 -0.315165 2.04182 0
M  V30 409 C 40.0686 -1.4834 1.17439 0
M  V30 410 O 39.4116 -1.82695 0.191891 0
M  V30 411 C 39.4736 -0.837583 3.49607 0
M  V30 412 C 39.1376 0.204912 4.5654 0
M  V30 413 C 40.1346 1.03214 5.09552 0
M  V30 414 C 37.8196 0.345578 5.0111 0
M  V30 415 C 39.8136 1.986 6.05671 0
M  V30 416 C 37.5006 1.30289 5.97049 0
M  V30 417 C 38.4986 2.12159 6.49213 0
M  V30 418 O 38.1866 3.06268 7.43273 0
M  V30 419 H 37.9186 -0.0729646 0.672051 0
M  V30 420 H 40.4726 0.433907 2.00765 0
M  V30 421 H 38.7026 -1.63712 3.50336 0
M  V30 422 H 40.3916 -1.36566 3.82236 0
M  V30 423 H 41.1576 0.934312 4.75916 0
M  V30 424 H 37.0366 -0.28171 4.60138 0
M  V30 425 H 40.5806 2.62542 6.46311 0
M  V30 426 H 36.4776 1.40145 6.30103 0
M  V30 427 H 37.2456 3.01205 7.61064 0
M  V30 428 N 39.9087 -1.5758 0.0250728 0
M  V30 429 C 41.1547 -1.91917 -0.655413 0
M  V30 430 C 41.4877 -0.901433 -1.72011 0
M  V30 431 O 40.7627 0.0764069 -1.9435 0
M  V30 432 C 41.0457 -3.36751 -1.27558 0
M  V30 433 C 40.8987 -4.49258 -0.220719 0
M  V30 434 C 42.2177 -3.81469 -2.19475 0
M  V30 435 H 39.3367 -0.697925 -0.23679 0
M  V30 436 H 41.9787 -1.89825 0.0815036 0
M  V30 437 H 40.1287 -3.38664 -1.90365 0
M  V30 438 H 41.8007 -4.59478 0.409601 0
M  V30 439 H 40.0437 -4.31415 0.454264 0
M  V30 440 H 40.7147 -5.47618 -0.694175 0
M  V30 441 H 43.1907 -3.81266 -1.66659 0
M  V30 442 H 42.0667 -4.83512 -2.59822 0
M  V30 443 H 42.3277 -3.16744 -3.08424 0
M  V30 444 N 41.3868 0.248026 -1.55636 0
M  V30 445 C 42.3338 1.30707 -1.90222 0
M  V30 446 C 43.3038 1.47881 -0.756332 0
M  V30 447 O 44.4888 1.61883 -1.00988 0
M  V30 448 C 41.6288 2.65769 -2.20138 0
M  V30 449 C 40.7418 2.56612 -3.47526 0
M  V30 450 C 39.8768 3.8402 -3.67017 0
M  V30 451 C 38.9158 3.69476 -4.8801 0
M  V30 452 N 38.0528 4.88774 -5.04029 0
M  V30 453 H 42.8928 1.00512 -2.80538 0
M  V30 454 H 40.4298 0.485055 -1.38873 0
M  V30 455 H 42.3878 3.44386 -2.35487 0
M  V30 456 H 41.0178 2.94115 -1.33027 0
M  V30 457 H 40.0698 1.69571 -3.40514 0
M  V30 458 H 41.3818 2.41774 -4.36287 0
M  V30 459 H 40.5358 4.7108 -3.8232 0
M  V30 460 H 39.2748 4.01754 -2.76487 0
M  V30 461 H 38.2798 2.80799 -4.72686 0
M  V30 462 H 39.5048 3.53238 -5.8 0
M  V30 463 H 37.4508 5.0687 -4.16435 0
M  V30 464 H 37.3678 4.76562 -5.86877 0
M  V30 465 H 38.6358 5.77335 -5.23741 0
M  V30 466 N 42.8649 1.48995 0.513639 0
M  V30 467 C 43.7749 1.67443 1.64317 0
M  V30 468 C 44.7909 0.556947 1.64846 0
M  V30 469 O 45.9669 0.830082 1.83498 0
M  V30 470 C 43.0319 1.72515 3.00732 0
M  V30 471 C 42.0929 2.96009 3.1093 0
M  V30 472 C 41.3259 3.00829 4.40837 0
M  V30 473 O 41.5489 2.13594 5.28898 0
M  V30 474 O 40.4829 3.93168 4.55744 0
M  V30 475 H 44.3089 2.63106 1.51687 0
M  V30 476 H 41.8939 1.32588 0.688543 0
M  V30 477 H 43.7759 1.78277 3.81831 0
M  V30 478 H 42.4509 0.800278 3.13651 0
M  V30 479 H 41.3579 2.9577 2.29065 0
M  V30 480 H 42.6909 3.87934 3.02933 0
M  V30 481 N 44.343 -0.763751 1.37857 0
M  V30 482 C 45.306 -1.85889 1.34081 0
M  V30 483 C 46.306 -1.58949 0.243277 0
M  V30 484 O 47.496 -1.66882 0.499589 0
M  V30 485 C 44.628 -3.23176 1.08489 0
M  V30 486 H 45.821 -1.90648 2.31502 0
M  V30 487 H 43.374 -0.964367 1.23003 0
M  V30 488 H 44.109 -3.24091 0.116318 0
M  V30 489 H 43.894 -3.44124 1.8794 0
M  V30 490 H 45.384 -4.03254 1.08517 0
M  V30 491 N 45.8211 -1.22559 -0.990812 0
M  V30 492 C 46.7311 -1.01394 -2.11557 0
M  V30 493 C 47.7471 0.0383962 -1.73958 0
M  V30 494 O 48.9231 -0.154787 -2.00804 0
M  V30 495 C 45.9881 -0.596569 -3.41529 0
M  V30 496 C 45.0491 -1.72276 -3.93217 0
M  V30 497 C 44.2821 -1.32521 -5.16985 0
M  V30 498 O 44.5051 -0.204909 -5.70032 0
M  V30 499 O 43.4391 -2.14247 -5.62478 0
M  V30 500 H 47.2651 -1.95633 -2.32296 0
M  V30 501 H 44.8501 -1.01172 -1.0993 0
M  V30 502 H 46.7321 -0.374263 -4.19735 0
M  V30 503 H 45.4071 0.316939 -3.22145 0
M  V30 504 H 44.3141 -1.99961 -3.16174 0
M  V30 505 H 45.6471 -2.61421 -4.17037 0
M  V30 506 N 47.2992 1.18797 -1.03562 0
M  V30 507 C 48.2472 2.24297 -0.615905 0
M  V30 508 C 49.2412 1.65643 0.354808 0
M  V30 509 O 50.4472 1.78618 0.22265 0
M  V30 510 H 46.8222 0.729909 -0.180934 0
M  V30 511 H 48.7932 2.5701 -1.5162 0
M  V30 512 C 47.5422 3.47698 0.0104735 0
M  V30 513 H 46.8652 3.93125 -0.727509 0
M  V30 514 H 48.3052 4.23159 0.266995 0
M  V30 515 C 46.7642 3.12489 1.25905 0
M  V30 516 O 47.2942 3.25761 2.35038 0
M  V30 517 N 45.5002 2.6686 1.15039 0
M  V30 518 H 45.0472 2.56261 0.262328 0
M  V30 519 H 45.0052 2.43674 1.98672 0
M  V30 520 N 48.7773 0.814389 1.34928 0
M  V30 521 C 49.7073 0.244827 2.32213 0
M  V30 522 C 50.6883 -0.634024 1.57842 0
M  V30 523 O 51.8733 -0.562676 1.8587 0
M  V30 524 C 49.0033 -0.601106 3.42058 0
M  V30 525 C 47.9573 0.179896 4.27622 0
M  V30 526 C 47.2833 -0.788237 5.28858 0
M  V30 527 C 48.5833 1.38329 5.03649 0
M  V30 528 H 50.2773 1.05763 2.80097 0
M  V30 529 H 47.8233 0.510029 1.34665 0
M  V30 530 H 49.7763 -1.00968 4.09125 0
M  V30 531 H 48.5003 -1.44688 2.92802 0
M  V30 532 H 47.1593 0.569739 3.62146 0
M  V30 533 H 46.8073 -1.62973 4.75866 0
M  V30 534 H 46.5073 -0.269942 5.8698 0
M  V30 535 H 48.0313 -1.19485 5.98795 0
M  V30 536 H 49.4453 1.04918 5.63618 0
M  V30 537 H 47.8423 1.83662 5.71304 0
M  V30 538 H 48.9123 2.16592 4.33839 0
M  V30 539 N 50.2554 -1.46986 0.568584 0
M  V30 540 C 51.2024 -2.30153 -0.172707 0
M  V30 541 C 52.1724 -1.39759 -0.897586 0
M  V30 542 O 53.3574 -1.68716 -0.891044 0
M  V30 543 C 50.4974 -3.23952 -1.1895 0
M  V30 544 C 49.6104 -4.29441 -0.469517 0
M  V30 545 C 48.7454 -5.1038 -1.47259 0
M  V30 546 C 47.7844 -6.07632 -0.738225 0
M  V30 547 N 46.9214 -6.8149 -1.68868 0
M  V30 548 H 51.7614 -2.93019 0.542596 0
M  V30 549 H 49.2984 -1.44422 0.279401 0
M  V30 550 H 51.2564 -3.76767 -1.79173 0
M  V30 551 H 49.8864 -2.62926 -1.87269 0
M  V30 552 H 48.9384 -3.79594 0.247467 0
M  V30 553 H 50.2504 -4.98689 0.105241 0
M  V30 554 H 49.4044 -5.67402 -2.14803 0
M  V30 555 H 48.1434 -4.4106 -2.08128 0
M  V30 556 H 47.1484 -5.49778 -0.0489293 0
M  V30 557 H 48.3734 -6.78966 -0.135129 0
M  V30 558 H 46.3194 -6.14891 -2.28573 0
M  V30 559 H 46.2364 -7.46948 -1.16636 0
M  V30 560 H 47.5044 -7.43078 -2.3549 0
M  V30 561 N 51.7335 -0.305618 -1.54608 0
M  V30 562 C 52.6805 0.568421 -2.23691 0
M  V30 563 C 53.6505 1.12592 -1.22116 0
M  V30 564 O 54.8355 1.16959 -1.50749 0
M  V30 565 C 51.9755 1.7322 -2.98477 0
M  V30 566 C 51.0885 1.20566 -4.14835 0
M  V30 567 C 50.2235 2.33368 -4.77193 0
M  V30 568 C 49.2625 1.7787 -5.85686 0
M  V30 569 N 48.3995 2.84263 -6.4198 0
M  V30 570 H 53.2395 -0.0272867 -2.97988 0
M  V30 571 H 50.7765 -0.0252363 -1.47078 0
M  V30 572 H 52.7345 2.41675 -3.40072 0
M  V30 573 H 51.3645 2.29947 -2.26548 0
M  V30 574 H 50.4165 0.413223 -3.78149 0
M  V30 575 H 51.7285 0.759417 -4.92985 0
M  V30 576 H 50.8825 3.09761 -5.21664 0
M  V30 577 H 49.6215 2.8132 -3.98385 0
M  V30 578 H 48.6265 0.99968 -5.40635 0
M  V30 579 H 49.8515 1.30816 -6.66381 0
M  V30 580 H 47.7975 3.31541 -5.66053 0
M  V30 581 H 47.7145 2.44149 -7.15491 0
M  V30 582 H 48.9825 3.6054 -6.91109 0
M  V30 583 N 53.2116 1.57565 -0.0334293 0
M  V30 584 C 54.4416 1.95996 0.653398 0
M  V30 585 C 54.8496 0.908749 1.65947 0
M  V30 586 O 54.1926 -0.117471 1.83324 0
M  V30 587 C 54.2546 3.30589 1.41249 0
M  V30 588 C 53.9186 4.53503 0.564263 0
M  V30 589 C 54.9156 5.19647 -0.16225 0
M  V30 590 C 52.6006 4.99801 0.500398 0
M  V30 591 C 54.5946 6.30412 -0.941255 0
M  V30 592 C 52.2816 6.10448 -0.282308 0
M  V30 593 C 53.2796 6.75612 -1.00184 0
M  V30 594 O 52.9676 7.84134 -1.77171 0
M  V30 595 H 52.6996 0.65027 0.184728 0
M  V30 596 H 55.2536 2.05199 -0.0907841 0
M  V30 597 H 53.4836 3.17888 2.20191 0
M  V30 598 H 55.1726 3.53892 1.98784 0
M  V30 599 H 55.9386 4.84846 -0.12227 0
M  V30 600 H 51.8176 4.48883 1.05002 0
M  V30 601 H 55.3616 6.81208 -1.50339 0
M  V30 602 H 51.2586 6.44686 -0.323989 0
M  V30 603 H 52.0266 8.00822 -1.69194 0
M  V30 604 N 54.6897 -0.239769 1.55765 0
M  V30 605 C 55.9367 -0.966801 1.7793 0
M  V30 606 C 56.2647 -1.85046 0.599015 0
M  V30 607 O 55.5197 -1.91197 -0.417395 0
M  V30 608 C 55.8187 -1.852 3.05672 0
M  V30 609 C 55.4847 -1.1231 4.36689 0
M  V30 610 C 54.1467 -0.921689 4.72291 0
M  V30 611 C 56.4987 -0.607019 5.17653 0
M  V30 612 C 53.8267 -0.191996 5.86386 0
M  V30 613 C 56.1787 0.109241 6.32506 0
M  V30 614 C 54.8427 0.322073 6.66723 0
M  V30 615 H 54.1127 -0.353778 0.651093 0
M  V30 616 H 56.7597 -0.23634 1.90036 0
M  V30 617 H 55.0647 -2.64975 2.8861 0
M  V30 618 H 56.7617 -2.41635 3.20021 0
M  V30 619 H 53.3517 -1.29004 4.08725 0
M  V30 620 H 57.5357 -0.750153 4.90598 0
M  V30 621 H 52.7917 -0.0166949 6.11398 0
M  V30 622 H 56.9657 0.516737 6.9448 0
M  V30 623 H 54.5927 0.88944 7.54979 0
M  V30 624 N 56.1678 -1.49265 -0.50573 0
M  V30 625 C 57.1158 -1.66065 -1.62866 0
M  V30 626 C 58.1098 -0.526636 -1.61006 0
M  V30 627 O 59.3158 -0.706126 -1.65571 0
M  V30 628 H 55.6908 -0.52356 -0.539805 0
M  V30 629 H 57.6618 -2.60329 -1.45848 0
M  V30 630 C 56.4108 -1.74008 -3.01026 0
M  V30 631 H 55.7338 -2.6064 -3.03161 0
M  V30 632 H 57.1738 -1.89798 -3.79147 0
M  V30 633 C 55.6328 -0.483868 -3.33407 0
M  V30 634 O 56.1628 0.392548 -3.99777 0
M  V30 635 N 54.3688 -0.348236 -2.88506 0
M  V30 636 H 53.9158 -1.06242 -2.34671 0
M  V30 637 H 53.8738 0.491204 -3.10539 0
M  V30 638 N 57.6459 0.756429 -1.3826 0
M  V30 639 C 58.6089 1.85176 -1.35065 0
M  V30 640 C 59.6089 1.58818 -0.251703 0
M  V30 641 O 60.7989 1.66615 -0.508433 0
M  V30 642 C 57.9309 3.22596 -1.10201 0
M  V30 643 H 59.1239 1.89417 -2.3251 0
M  V30 644 H 56.6769 0.95783 -1.23512 0
M  V30 645 H 57.4119 3.24025 -0.133504 0
M  V30 646 H 57.1969 3.43122 -1.89762 0
M  V30 647 H 58.6869 4.02673 -1.10654 0
M  V30 648 N 59.124 1.23083 0.984299 0
M  V30 649 C 60.372 1.05848 1.72165 0
M  V30 650 C 60.693 -0.406049 1.90726 0
M  V30 651 O 59.963 -1.29139 1.47309 0
M  V30 652 H 58.543 0.388685 0.637913 0
M  V30 653 H 61.205 1.54736 1.18503 0
M  V30 654 H 60.301 1.54327 2.71274 0
M  V30 655 N 60.6021 -1.18246 1.0419 0
M  V30 656 C 61.5521 -2.19843 0.604392 0
M  V30 657 C 62.5361 -1.56962 -0.353814 0
M  V30 658 O 63.7281 -1.76156 -0.17267 0
M  V30 659 C 60.8571 -3.43287 -0.0298975 0
M  V30 660 C 59.9431 -4.13288 0.951531 0
M  V30 661 N 60.3341 -4.59271 2.11906 0
M  V30 662 C 58.6321 -4.39165 0.7778 0
M  V30 663 C 59.3331 -5.13173 2.73912 0
M  V30 664 N 58.3091 -5.04763 2.01779 0
M  V30 665 H 62.1111 -2.53089 1.4941 0
M  V30 666 H 59.6251 -1.34465 0.910658 0
M  V30 667 H 61.6221 -4.15334 -0.361037 0
M  V30 668 H 60.2821 -3.11537 -0.915127 0
M  V30 669 H 61.2931 -4.5368 2.49789 0
M  V30 670 H 57.9701 -4.17461 -0.0572331 0
M  V30 671 H 59.3601 -5.58947 3.72864 0
M  V30 672 N 62.0802 -0.821533 -1.34494 0
M  V30 673 C 63.3052 -0.420873 -2.03085 0
M  V30 674 C 63.7302 0.964915 -1.61465 0
M  V30 675 O 63.0882 1.62763 -0.798607 0
M  V30 676 C 63.1362 -0.529414 -3.56693 0
M  V30 677 O 62.2402 0.451302 -4.09923 0
M  V30 678 H 61.5812 -0.173489 -0.640935 0
M  V30 679 H 64.1112 -1.11157 -1.71771 0
M  V30 680 H 64.1212 -0.404671 -4.05988 0
M  V30 681 H 62.7962 -1.54014 -3.86332 0
M  V30 682 H 61.3732 0.285558 -3.71805 0
M  V30 683 N 63.5583 1.46682 -0.576371 0
M  V30 684 C 64.8353 1.95599 0.00703437 0
M  V30 685 C 65.2153 1.51904 1.46589 0
M  V30 686 O 64.5633 0.766755 2.15251 0
M  V30 687 C 64.7733 3.4864 -0.158404 0
M  V30 688 C 66.1213 4.24594 -0.0229439 0
M  V30 689 O 67.1453 3.56094 -0.0869173 0
M  V30 690 O 66.0043 5.46373 0.118015 0
M  V30 691 H 63.0983 0.825275 0.053384 0
M  V30 692 H 65.6443 1.56996 -0.644244 0
M  V30 693 H 64.4163 3.7331 -1.17282 0
M  V30 694 H 64.0393 3.94057 0.5296 0
M  V30 695 N 65.0364 0.313813 1.54444 0
M  V30 696 C 66.2824 -0.292108 2.00685 0
M  V30 697 C 66.6154 -1.52548 1.20177 0
M  V30 698 O 65.8904 -1.92452 0.281531 0
M  V30 699 C 66.1734 -0.635968 3.5444 0
M  V30 700 C 66.0264 0.607437 4.4568 0
M  V30 701 C 67.3454 -1.45747 4.15266 0
M  V30 702 H 64.4644 -0.104697 0.729526 0
M  V30 703 H 67.1064 0.428457 1.85106 0
M  V30 704 H 65.2564 -1.24986 3.67846 0
M  V30 705 H 66.9284 1.24581 4.44159 0
M  V30 706 H 65.1714 1.23822 4.15753 0
M  V30 707 H 65.8424 0.322515 5.51057 0
M  V30 708 H 68.3184 -0.938645 4.05375 0
M  V30 709 H 67.1944 -1.66683 5.2298 0
M  V30 710 H 67.4554 -2.45063 3.67963 0
M  V30 711 N 66.5145 -1.57545 0.0417849 0
M  V30 712 C 67.4775 -2.09885 -0.92093 0
M  V30 713 C 68.4775 -1.01648 -1.24596 0
M  V30 714 O 69.6675 -1.27759 -1.1842 0
M  V30 715 C 66.7995 -2.57527 -2.23367 0
M  V30 716 H 67.9925 -2.96236 -0.467382 0
M  V30 717 H 65.5455 -1.5493 -0.206467 0
M  V30 718 H 66.2805 -1.74542 -2.73323 0
M  V30 719 H 66.0655 -3.36613 -2.01083 0
M  V30 720 H 67.5555 -2.98201 -2.92346 0
M  V30 721 N 67.9926 0.231505 -1.5589 0
M  V30 722 C 69.2696 0.981096 -1.69215 0
M  V30 723 C 69.6496 2.02799 -0.586164 0
M  V30 724 O 68.9976 2.24823 0.408253 0
M  V30 725 C 69.2076 1.60054 -3.10135 0
M  V30 726 C 70.5556 2.09658 -3.69227 0
M  V30 727 O 71.5796 1.69967 -3.13033 0
M  V30 728 O 70.4386 2.8258 -4.67772 0
M  V30 729 H 67.5326 0.457653 -0.688827 0
M  V30 730 H 70.0786 0.224073 -1.68214 0
M  V30 731 H 68.8506 0.844105 -3.82087 0
M  V30 732 H 68.4736 2.42336 -3.15212 0
M  V30 733 N 69.4707 1.49531 0.497807 0
M  V30 734 C 70.4187 1.66926 1.61983 0
M  V30 735 C 71.4127 0.535167 1.60724 0
M  V30 736 O 72.6187 0.714896 1.65195 0
M  V30 737 H 68.9937 0.526415 0.537021 0
M  V30 738 H 70.9647 2.61098 1.44465 0
M  V30 739 C 69.7137 1.75602 3.00099 0
M  V30 740 H 69.0367 2.62244 3.01775 0
M  V30 741 H 70.4767 1.91807 3.78135 0
M  V30 742 C 68.9357 0.501543 3.33146 0
M  V30 743 O 69.4657 -0.371342 3.9998 0
M  V30 744 N 67.6717 0.363531 2.88317 0
M  V30 745 H 67.2187 1.07485 2.34104 0
M  V30 746 H 67.1767 -0.474728 3.10795 0
M  V30 747 N 70.9488 -0.749086 1.3866 0
M  V30 748 C 72.1968 -1.50535 1.34847 0
M  V30 749 C 72.5178 -1.94909 -0.0595016 0
M  V30 750 O 71.7878 -1.67973 -1.00806 0
M  V30 751 H 70.3678 -0.558395 0.49619 0
M  V30 752 H 73.0298 -0.890165 1.73384 0
M  V30 753 H 72.1258 -2.39413 2.00219 0
M  V30 754 N 72.4269 -1.23603 -0.977757 0
M  V30 755 C 73.6549 -1.09646 -1.75458 0
M  V30 756 C 74.0699 0.351859 -1.85492 0
M  V30 757 O 73.4269 1.24327 -1.336 0
M  V30 758 C 73.4779 -1.71895 -3.18016 0
M  V30 759 O 73.1989 -3.11063 -3.08498 0
M  V30 760 C 74.6999 -1.63415 -4.12081 0
M  V30 761 H 71.9199 -0.38359 -0.550545 0
M  V30 762 H 74.4639 -1.63507 -1.22824 0
M  V30 763 H 72.6189 -1.22061 -3.67668 0
M  V30 764 H 73.0329 -3.41305 -3.9826 0
M  V30 765 H 74.5069 -2.11669 -5.09804 0
M  V30 766 H 74.9839 -0.593462 -4.35172 0
M  V30 767 H 75.5899 -2.12628 -3.68334 0
M  V30 768 N 73.905 1.17692 -1.04816 0
M  V30 769 C 74.835 2.23777 -0.666791 0
M  V30 770 C 75.816 1.66796 0.33361 0
M  V30 771 O 77.001 1.93039 0.212042 0
M  V30 772 C 74.131 3.47281 -0.0367933 0
M  V30 773 C 73.085 4.17059 -0.961546 0
M  V30 774 C 72.411 5.34342 -0.195626 0
M  V30 775 C 73.711 4.69713 -2.28402 0
M  V30 776 H 75.405 2.55933 -1.55367 0
M  V30 777 H 72.951 1.23019 -0.748484 0
M  V30 778 H 74.904 4.20706 0.241775 0
M  V30 779 H 73.628 3.14381 0.885004 0
M  V30 780 H 72.287 3.45541 -1.22462 0
M  V30 781 H 71.935 4.97692 0.728816 0
M  V30 782 H 71.635 5.81966 -0.811775 0
M  V30 783 H 73.159 6.10553 0.0757473 0
M  V30 784 H 74.573 5.34794 -2.06563 0
M  V30 785 H 72.97 5.279 -2.8538 0
M  V30 786 H 74.04 3.86726 -2.92525 0
M  V30 787 N 75.3831 0.828654 1.34056 0
M  V30 788 C 76.6301 0.419458 1.98108 0
M  V30 789 C 76.9581 -1.01886 1.65679 0
M  V30 790 O 76.2131 -1.72539 0.923512 0
M  V30 791 C 76.5121 0.575226 3.52741 0
M  V30 792 C 76.1781 1.98012 4.05095 0
M  V30 793 C 74.8401 2.36442 4.19104 0
M  V30 794 C 77.1921 2.89824 4.33188 0
M  V30 795 C 74.5201 3.66009 4.58535 0
M  V30 796 C 76.8721 4.1886 4.74066 0
M  V30 797 C 75.5361 4.5726 4.86281 0
M  V30 798 H 74.8061 0.153491 0.724929 0
M  V30 799 H 77.4531 1.05371 1.59904 0
M  V30 800 H 75.7581 -0.142385 3.91541 0
M  V30 801 H 77.4551 0.239057 4.00287 0
M  V30 802 H 74.0451 1.67162 3.94658 0
M  V30 803 H 78.2291 2.61375 4.21897 0
M  V30 804 H 73.4851 3.95579 4.66184 0
M  V30 805 H 77.6591 4.90086 4.94761 0
M  V30 806 H 75.2861 5.57707 5.16592 0
M  V30 807 N 76.8612 -1.46375 0.584142 0
M  V30 808 C 77.7912 -2.33103 -0.136037 0
M  V30 809 C 78.7722 -1.45431 -0.882255 0
M  V30 810 O 79.9572 -1.74246 -0.857434 0
M  V30 811 C 77.0872 -3.27731 -1.14933 0
M  V30 812 C 76.0412 -4.24855 -0.517862 0
M  V30 813 C 75.3672 -5.09001 -1.63773 0
M  V30 814 C 76.6672 -5.19439 0.545886 0
M  V30 815 H 78.3612 -2.93568 0.588086 0
M  V30 816 H 75.9072 -1.41166 0.284259 0
M  V30 817 H 77.8602 -3.87261 -1.66153 0
M  V30 818 H 76.5842 -2.65377 -1.90375 0
M  V30 819 H 75.2432 -3.6659 -0.0267361 0
M  V30 820 H 74.8912 -4.43031 -2.38185 0
M  V30 821 H 74.5912 -5.74777 -1.22085 0
M  V30 822 H 76.1152 -5.71396 -2.15266 0
M  V30 823 H 77.5292 -5.73177 0.118704 0
M  V30 824 H 75.9262 -5.93566 0.88317 0
M  V30 825 H 76.9962 -4.63285 1.43162 0
M  V30 826 N 78.3393 -0.321999 -1.54275 0
M  V30 827 C 79.5873 0.280489 -2.00144 0
M  V30 828 C 79.9083 1.52777 -1.21178 0
M  V30 829 O 79.1783 1.9338 -0.313187 0
M  V30 830 H 77.7583 0.106632 -0.73935 0
M  V30 831 H 80.4203 -0.438184 -1.8991 0
M  V30 832 H 79.5163 0.537972 -3.07428 0
M  V30 833 N 79.8174 1.5752 -0.0501392 0
M  V30 834 C 81.0664 1.91827 0.623328 0
M  V30 835 C 81.3794 0.930222 1.72065 0
M  V30 836 O 82.5854 1.1653 2.4522 0
M  V30 837 C 81.0414 3.40692 1.16003 0
M  V30 838 C 80.6494 4.479 0.0948811 0
M  V30 839 C 82.3934 3.84034 1.80881 0
M  V30 840 C 80.3004 5.87879 0.644411 0
M  V30 841 H 79.2304 0.715918 0.236596 0
M  V30 842 H 81.8814 1.83115 -0.118861 0
M  V30 843 H 80.2634 3.44405 1.9545 0
M  V30 844 H 81.4374 4.55775 -0.678675 0
M  V30 845 H 79.7524 4.13892 -0.45637 0
M  V30 846 H 82.3494 4.85984 2.22988 0
M  V30 847 H 82.6924 3.20225 2.6601 0
M  V30 848 H 83.2254 3.82833 1.0809 0
M  V30 849 H 79.9644 6.55282 -0.169229 0
M  V30 850 H 79.4844 5.83567 1.38598 0
M  V30 851 H 81.1634 6.37098 1.12763 0
M  V30 852 N 81.2955 -0.223234 1.56011 0
M  V30 853 C 82.2255 -1.27988 1.95298 0
M  V30 854 C 83.2065 -1.48976 0.820979 0
M  V30 855 O 84.3915 -1.61188 1.08315 0
M  V30 856 C 81.5215 -2.63 2.26822 0
M  V30 857 C 80.4755 -2.56671 3.42497 0
M  V30 858 C 79.8015 -3.95697 3.59622 0
M  V30 859 C 81.1015 -2.11601 4.77517 0
M  V30 860 H 82.7955 -0.953525 2.8381 0
M  V30 861 H 80.3415 -0.457244 1.36548 0
M  V30 862 H 82.2945 -3.37077 2.52898 0
M  V30 863 H 81.0185 -2.9732 1.35161 0
M  V30 864 H 79.6775 -1.85051 3.16467 0
M  V30 865 H 79.3255 -4.27322 2.6534 0
M  V30 866 H 79.0255 -3.92345 4.37424 0
M  V30 867 H 80.5495 -4.71438 3.88044 0
M  V30 868 H 81.9635 -2.7542 5.02809 0
M  V30 869 H 80.3605 -2.19311 5.5859 0
M  V30 870 H 81.4305 -1.06824 4.72987 0
M  V30 871 N 82.7736 -1.49793 -0.48987 0
M  V30 872 C 83.7206 -1.67281 -1.59014 0
M  V30 873 C 84.6906 -0.514177 -1.57941 0
M  V30 874 O 85.8756 -0.742533 -1.75759 0
M  V30 875 C 83.0156 -1.75569 -2.97102 0
M  V30 876 C 82.1286 -3.0281 -3.08107 0
M  V30 877 C 81.2636 -3.02008 -4.36995 0
M  V30 878 C 80.3026 -4.23782 -4.41673 0
M  V30 879 N 79.4396 -4.20826 -5.62005 0
M  V30 880 H 84.2796 -2.61224 -1.43409 0
M  V30 881 H 81.8166 -1.29508 -0.697565 0
M  V30 882 H 83.7746 -1.78354 -3.77155 0
M  V30 883 H 82.4046 -0.850827 -3.11385 0
M  V30 884 H 81.4566 -3.09584 -2.21047 0
M  V30 885 H 82.7686 -3.92801 -3.07423 0
M  V30 886 H 81.9226 -3.03418 -5.25378 0
M  V30 887 H 80.6616 -2.09815 -4.4026 0
M  V30 888 H 79.6666 -4.22604 -3.5169 0
M  V30 889 H 80.8916 -5.17181 -4.40115 0
M  V30 890 H 78.8376 -3.31476 -5.66091 0
M  V30 891 H 78.7546 -5.04564 -5.62984 0
M  V30 892 H 80.0226 -4.26355 -6.52565 0
M  V30 893 N 84.2517 0.741722 -1.39055 0
M  V30 894 C 85.1997 1.87702 -1.3737 0
M  V30 895 C 86.1937 1.67427 -0.257812 0
M  V30 896 O 87.3997 1.7485 -0.427489 0
M  V30 897 H 83.7747 0.617757 -0.428812 0
M  V30 898 H 85.7457 1.86239 -2.33147 0
M  V30 899 C 84.4947 3.25315 -1.22741 0
M  V30 900 H 83.8177 3.41509 -2.07873 0
M  V30 901 H 85.2577 4.04964 -1.25618 0
M  V30 902 C 83.7167 3.36838 0.0647316 0
M  V30 903 O 84.2467 3.88073 1.03741 0
M  V30 904 N 82.4527 2.90329 0.125544 0
M  V30 905 H 81.9997 2.48823 -0.666682 0
M  V30 906 H 81.9577 2.98418 0.989639 0
M  V30 907 N 85.7298 1.2412 0.971189 0
M  V30 908 C 86.9758 1.09048 1.71698 0
M  V30 909 C 87.3308 -0.367442 1.88859 0
M  V30 910 O 86.6238 -1.26792 1.43646 0
M  V30 911 C 86.8178 1.75983 3.11071 0
M  V30 912 C 86.6468 3.28133 3.07504 0
M  V30 913 C 85.4168 3.97331 3.1218 0
M  V30 914 C 87.6148 4.24773 2.89952 0
M  V30 915 N 85.5968 5.3639 2.98596 0
M  V30 916 C 86.9678 5.50806 2.84627 0
M  V30 917 C 89.0228 4.15392 2.74506 0
M  V30 918 C 87.7258 6.68533 2.65437 0
M  V30 919 C 89.7518 5.32793 2.56682 0
M  V30 920 C 89.1138 6.57756 2.52063 0
M  V30 921 H 85.2128 0.453632 0.636979 0
M  V30 922 H 87.7968 1.56983 1.15171 0
M  V30 923 H 85.9678 1.30566 3.65796 0
M  V30 924 H 87.6998 1.53803 3.74335 0
M  V30 925 H 84.4548 3.48473 3.20724 0
M  V30 926 H 84.8788 6.09321 2.95054 0
M  V30 927 H 89.5208 3.19543 2.76861 0
M  V30 928 H 87.2388 7.64509 2.61825 0
M  V30 929 H 90.8248 5.27383 2.4568 0
M  V30 930 H 89.7048 7.4707 2.38446 0
M  V30 931 N 87.2079 -1.17134 1.05439 0
M  V30 932 C 88.1549 -2.21235 0.657539 0
M  V30 933 C 89.1249 -1.62551 -0.341543 0
M  V30 934 O 90.3099 -1.89379 -0.232393 0
M  V30 935 C 87.4499 -3.45076 0.0410575 0
M  V30 936 C 86.5629 -4.18042 1.08927 0
M  V30 937 C 85.6979 -5.29376 0.439848 0
M  V30 938 C 84.7369 -5.94132 1.4722 0
M  V30 939 N 83.8739 -6.96975 0.846756 0
M  V30 940 H 88.7139 -2.54534 1.54972 0
M  V30 941 H 86.2509 -1.25028 0.775006 0
M  V30 942 H 88.2089 -4.15862 -0.33383 0
M  V30 943 H 86.8389 -3.12353 -0.814568 0
M  V30 944 H 85.8909 -3.45945 1.58196 0
M  V30 945 H 87.2029 -4.62306 1.87282 0
M  V30 946 H 86.3569 -6.06699 0.0115125 0
M  V30 947 H 85.0959 -4.86251 -0.375656 0
M  V30 948 H 84.1009 -5.15538 1.91052 0
M  V30 949 H 85.3259 -6.39337 2.28965 0
M  V30 950 H 83.2719 -6.5598 0.0518075 0
M  V30 951 H 83.1889 -7.39565 1.5678 0
M  V30 952 H 84.4569 -7.78239 0.443277 0
M  V30 953 N 88.686 -0.835752 -1.33615 0
M  V30 954 C 89.596 -0.269088 -2.33052 0
M  V30 955 C 90.612 0.603251 -1.63208 0
M  V30 956 O 91.788 0.508112 -1.94885 0
M  V30 957 C 88.853 0.549091 -3.42324 0
M  V30 958 C 87.914 -0.347156 -4.27894 0
M  V30 959 C 87.147 0.43207 -5.31948 0
M  V30 960 O 87.37 1.66409 -5.45586 0
M  V30 961 O 86.304 -0.192298 -6.01593 0
M  V30 962 H 90.13 -1.09243 -2.83372 0
M  V30 963 H 87.715 -0.598198 -1.36901 0
M  V30 964 H 89.597 1.01414 -4.09015 0
M  V30 965 H 88.272 1.34955 -2.94226 0
M  V30 966 H 87.179 -0.859979 -3.64081 0
M  V30 967 H 88.512 -1.1123 -4.79467 0
M  V30 968 N 90.1641 1.46063 -0.591896 0
M  V30 969 C 91.0741 2.34192 0.13831 0
M  V30 970 C 92.0901 1.50305 0.876608 0
M  V30 971 O 93.2661 1.8315 0.837728 0
M  V30 972 C 90.3311 3.27656 1.13326 0
M  V30 973 C 89.3921 4.27445 0.39863 0
M  V30 974 C 88.6251 5.16443 1.34618 0
M  V30 975 O 88.8481 5.08553 2.58321 0
M  V30 976 O 87.7821 5.95843 0.851768 0
M  V30 977 H 91.6081 2.98002 -0.58552 0
M  V30 978 H 89.1931 1.45188 -0.352239 0
M  V30 979 H 91.0751 3.85291 1.70671 0
M  V30 980 H 89.7501 2.6643 1.83839 0
M  V30 981 H 88.6571 3.73471 -0.216895 0
M  V30 982 H 89.9901 4.91482 -0.265709 0
M  V30 983 N 91.6422 0.330177 1.54103 0
M  V30 984 C 92.8672 -0.274893 2.0557 0
M  V30 985 C 93.2922 -1.44487 1.20437 0
M  V30 986 O 92.6502 -1.80021 0.214991 0
M  V30 987 C 92.6982 -0.68079 3.54115 0
M  V30 988 O 91.8022 -1.7824 3.71893 0
M  V30 989 H 91.1432 -0.0483849 0.662235 0
M  V30 990 H 93.6732 0.480508 1.98878 0
M  V30 991 H 93.6832 -0.961635 3.96505 0
M  V30 992 H 92.3582 0.174903 4.15532 0
M  V30 993 H 90.9352 -1.49985 3.41407 0
M  V30 994 N 93.1203 -1.57491 0.0584922 0
M  V30 995 C 94.3973 -1.84346 -0.653918 0
M  V30 996 C 94.7773 -0.948355 -1.88599 0
M  V30 997 O 94.1253 -0.0112403 -2.28497 0
M  V30 998 C 94.3353 -3.34239 -1.00425 0
M  V30 999 C 95.6833 -4.01431 -1.38342 0
M  V30 1000 O 96.7073 -3.38907 -1.09637 0
M  V30 1001 O 95.5663 -5.11683 -1.91943 0
M  V30 1002 H 92.6603 -0.761112 -0.323478 0
M  V30 1003 H 95.2063 -1.6947 0.0884125 0
M  V30 1004 H 93.9783 -3.91089 -0.128625 0
M  V30 1005 H 93.6013 -3.54329 -1.80378 0
M  V30 1006 N 94.5984 0.214957 -1.56127 0
M  V30 1007 C 96.0144 0.564948 -1.49267 0
M  V30 1008 C 96.2144 1.86827 -0.754838 0
M  V30 1009 O 95.2704 2.50745 -0.297198 0
M  V30 1010 C 96.5834 0.638071 -2.93852 0
M  V30 1011 C 98.1314 0.728253 -3.0441 0
M  V30 1012 C 98.6064 0.832663 -4.50367 0
M  V30 1013 N 100.097 0.896712 -4.54437 0
M  V30 1014 C 100.832 0.997324 -5.6466 0
M  V30 1015 N 100.328 1.06147 -6.8462 0
M  V30 1016 N 102.121 1.03297 -5.52527 0
M  V30 1017 H 94.2724 -0.640211 -2.02522 0
M  V30 1018 H 96.5354 -0.225507 -0.920788 0
M  V30 1019 H 96.2414 -0.250126 -3.50809 0
M  V30 1020 H 96.1154 1.49947 -3.46115 0
M  V30 1021 H 98.5024 1.60689 -2.47514 0
M  V30 1022 H 98.5834 -0.158952 -2.55306 0
M  V30 1023 H 98.2274 -0.0415417 -5.07883 0
M  V30 1024 H 98.1574 1.73538 -4.97184 0
M  V30 1025 H 100.648 0.857188 -3.6805 0
M  V30 1026 H 100.961 1.1382 -7.64372 0
M  V30 1027 H 99.3064 1.03049 -6.87318 0
M  V30 1028 H 102.497 0.979558 -4.57736 0
M  V30 1029 H 102.67 1.10793 -6.38458 0
M  V30 1030 N 96.0765 1.50051 0.48192 0
M  V30 1031 C 97.0235 1.68122 1.58125 0
M  V30 1032 C 97.9935 0.522545 1.57666 0
M  V30 1033 O 99.1785 0.751844 1.75362 0
M  V30 1034 C 96.3185 1.77142 2.96167 0
M  V30 1035 C 95.4315 3.0444 3.06497 0
M  V30 1036 C 94.5665 3.04321 4.35387 0
M  V30 1037 C 93.6055 4.26118 4.3942 0
M  V30 1038 N 92.7425 4.238 5.59766 0
M  V30 1039 H 97.5825 2.6198 1.42022 0
M  V30 1040 H 95.1195 1.29877 0.690687 0
M  V30 1041 H 97.0775 1.80352 3.76203 0
M  V30 1042 H 95.7075 0.867329 3.1093 0
M  V30 1043 H 94.7595 3.10752 2.19402 0
M  V30 1044 H 96.0715 3.94426 3.05336 0
M  V30 1045 H 95.2255 3.062 5.23762 0
M  V30 1046 H 93.9645 2.12147 4.39141 0
M  V30 1047 H 92.9695 4.24463 3.49444 0
M  V30 1048 H 94.1945 5.19507 4.37366 0
M  V30 1049 H 92.1405 3.34474 5.64326 0
M  V30 1050 H 92.0575 5.07542 5.60301 0
M  V30 1051 H 93.3255 4.2981 6.50295 0
M  V30 1052 N 97.5546 -0.734337 1.39446 0
M  V30 1053 C 98.8036 -1.48937 1.36017 0
M  V30 1054 C 99.1166 -1.95557 -0.0409005 0
M  V30 1055 O 100.323 -2.70779 -0.19778 0
M  V30 1056 C 98.7786 -2.69125 2.38955 0
M  V30 1057 C 98.3866 -2.29452 3.8478 0
M  V30 1058 C 100.131 -3.46944 2.44603 0
M  V30 1059 C 98.0376 -3.46366 4.79358 0
M  V30 1060 H 96.9676 -0.559296 0.505672 0
M  V30 1061 H 99.6186 -0.800983 1.65095 0
M  V30 1062 H 98.0006 -3.40041 2.02948 0
M  V30 1063 H 99.1746 -1.66077 4.29831 0
M  V30 1064 H 97.4896 -1.64723 3.82433 0
M  V30 1065 H 100.087 -4.33907 3.12456 0
M  V30 1066 H 100.43 -3.89454 1.47076 0
M  V30 1067 H 100.963 -2.83056 2.79507 0
M  V30 1068 H 97.7016 -3.08905 5.78151 0
M  V30 1069 H 97.2216 -4.08719 4.38986 0
M  V30 1070 H 98.9006 -4.12691 4.98292 0
M  V30 1071 N 99.0327 -1.24633 -0.964593 0
M  V30 1072 C 99.9657 -0.984662 -2.05863 0
M  V30 1073 C 100.944 0.0826554 -1.6239 0
M  V30 1074 O 102.128 -0.0549296 -1.8842 0
M  V30 1075 C 99.2547 -0.486529 -3.35187 0
M  V30 1076 C 98.3007 -1.54286 -3.97615 0
M  V30 1077 S 99.1337 -3.12513 -4.34851 0
M  V30 1078 C 100.29 -2.6441 -5.67308 0
M  V30 1079 H 100.523 -1.91104 -2.27743 0
M  V30 1080 H 98.0557 -1.08052 -1.10291 0
M  V30 1081 H 100.014 -0.205757 -4.09984 0
M  V30 1082 H 98.6747 0.419186 -3.1129 0
M  V30 1083 H 97.8677 -1.14481 -4.90826 0
M  V30 1084 H 97.4697 -1.7738 -3.2926 0
M  V30 1085 H 99.7617 -2.07416 -6.44969 0
M  V30 1086 H 100.705 -3.56222 -6.11973 0
M  V30 1087 H 101.113 -2.04734 -5.26065 0
M  V30 1088 N 100.511 1.16574 -1.06058 0
M  V30 1089 C 101.443 2.2045 -0.627239 0
M  V30 1090 C 102.456 1.59752 0.313534 0
M  V30 1091 O 103.645 1.78192 0.104896 0
M  V30 1092 C 100.745 3.3875 0.100974 0
M  V30 1093 C 99.9178 4.29008 -0.852687 0
M  V30 1094 C 98.9768 5.25944 -0.164152 0
M  V30 1095 O 98.0028 5.63535 -0.801047 0
M  V30 1096 N 99.2048 5.70075 1.09518 0
M  V30 1097 H 101.97 2.58249 -1.52077 0
M  V30 1098 H 99.5308 1.3156 -0.943594 0
M  V30 1099 H 101.523 4.00638 0.57194 0
M  V30 1100 H 100.093 2.99476 0.89628 0
M  V30 1101 H 99.3128 3.64419 -1.50308 0
M  V30 1102 H 100.601 4.86195 -1.49972 0
M  V30 1103 H 99.9988 5.41624 1.6328 0
M  V30 1104 H 98.5558 6.34067 1.51006 0
M  V30 1105 N 101.989 0.842826 1.3317 0
M  V30 1106 C 103.214 0.453129 2.02389 0
M  V30 1107 C 103.639 -0.939105 1.6298 0
M  V30 1108 O 102.997 -1.61472 0.8244 0
M  V30 1109 C 103.045 0.586094 3.55805 0
M  V30 1110 O 102.149 -0.386029 4.10589 0
M  V30 1111 H 101.49 0.183664 0.638094 0
M  V30 1112 H 104.02 1.13875 1.69981 0
M  V30 1113 H 104.03 0.469209 4.05293 0
M  V30 1114 H 102.705 1.6014 3.83833 0
M  V30 1115 H 101.282 -0.226371 3.72212 0
M  V30 1116 N 103.467 -1.45747 0.599634 0
M  V30 1117 C 104.399 -2.28628 -0.161879 0
M  V30 1118 C 105.412 -1.39494 -0.839367 0
M  V30 1119 O 106.601 -1.63941 -0.706089 0
M  V30 1120 C 103.701 -3.15014 -1.24976 0
M  V30 1121 C 102.874 -4.32378 -0.660935 0
M  V30 1122 C 101.933 -5.00033 -1.63869 0
M  V30 1123 O 100.959 -5.57085 -1.1681 0
M  V30 1124 N 102.161 -4.98589 -2.97303 0
M  V30 1125 H 104.926 -2.94624 0.549265 0
M  V30 1126 H 102.487 -1.55847 0.438565 0
M  V30 1127 H 104.479 -3.5714 -1.9035 0
M  V30 1128 H 103.049 -2.5098 -1.86354 0
M  V30 1129 H 102.269 -3.9383 0.170688 0
M  V30 1130 H 103.557 -5.08197 -0.247619 0
M  V30 1131 H 102.955 -4.53514 -3.38145 0
M  V30 1132 H 101.512 -5.44603 -3.58121 0
M  V30 1133 N 104.945 -0.338344 -1.53925 0
M  V30 1134 C 106.194 0.260732 -2.00008 0
M  V30 1135 C 106.507 1.52073 -1.23017 0
M  V30 1136 O 107.713 2.19672 -1.5955 0
M  V30 1137 C 106.169 0.51515 -3.56194 0
M  V30 1138 C 105.777 -0.728645 -4.42035 0
M  V30 1139 C 107.521 1.07337 -4.10706 0
M  V30 1140 C 105.428 -0.445315 -5.89721 0
M  V30 1141 H 104.358 0.101205 -0.747177 0
M  V30 1142 H 107.009 -0.452866 -1.77824 0
M  V30 1143 H 105.391 1.28932 -3.74423 0
M  V30 1144 H 106.565 -1.50352 -4.35581 0
M  V30 1145 H 104.88 -1.20813 -3.98489 0
M  V30 1146 H 107.477 1.30022 -5.18651 0
M  V30 1147 H 107.82 2.0273 -3.63602 0
M  V30 1148 H 108.353 0.360034 -3.96167 0
M  V30 1149 H 105.092 -1.36883 -6.41049 0
M  V30 1150 H 104.612 0.291569 -5.99091 0
M  V30 1151 H 106.291 -0.0606218 -6.46972 0
M  V30 1152 N 106.423 1.57458 -0.0668435 0
M  V30 1153 C 107.669 1.93587 0.6043 0
M  V30 1154 C 108.002 0.946722 1.69561 0
M  V30 1155 O 107.277 -0.0248516 1.94484 0
M  V30 1156 C 107.56 3.40014 1.18585 0
M  V30 1157 C 107.413 4.49685 0.101529 0
M  V30 1158 C 108.732 3.87154 2.09284 0
M  V30 1159 H 105.851 0.703958 0.218202 0
M  V30 1160 H 108.493 1.89542 -0.131804 0
M  V30 1161 H 106.643 3.43592 1.81319 0
M  V30 1162 H 108.315 4.5823 -0.531279 0
M  V30 1163 H 106.558 4.30059 -0.568487 0
M  V30 1164 H 107.229 5.49266 0.54874 0
M  V30 1165 H 109.705 3.85551 1.56491 0
M  V30 1166 H 108.581 4.90231 2.46911 0
M  V30 1167 H 108.842 3.2481 2.99918 0
M  V30 1168 N 107.901 -0.206675 1.56239 0
M  V30 1169 C 109.126 -0.949474 1.8439 0
M  V30 1170 C 109.551 -1.76549 0.649016 0
M  V30 1171 O 108.909 -1.76782 -0.402231 0
M  V30 1172 C 108.957 -1.83078 3.10668 0
M  V30 1173 O 108.061 -2.9281 2.90407 0
M  V30 1174 H 107.402 -0.268033 0.607499 0
M  V30 1175 H 109.932 -0.215488 2.03462 0
M  V30 1176 H 109.942 -2.2377 3.41161 0
M  V30 1177 H 108.617 -1.23112 3.97261 0
M  V30 1178 H 107.194 -2.55956 2.71184 0
M  V30 1179 N 109.379 -1.50304 -0.473955 0
M  V30 1180 C 110.626 -1.6115 -1.22625 0
M  V30 1181 C 110.954 -0.310517 -1.92005 0
M  V30 1182 O 110.209 0.703419 -1.82621 0
M  V30 1183 C 110.508 -2.73938 -2.29549 0
M  V30 1184 C 110.174 -4.14519 -1.7744 0
M  V30 1185 C 108.836 -4.5277 -1.62949 0
M  V30 1186 C 111.188 -5.02392 -1.3875 0
M  V30 1187 C 108.516 -5.76639 -1.08187 0
M  V30 1188 C 110.868 -6.26805 -0.854309 0
M  V30 1189 C 109.532 -6.63861 -0.696011 0
M  V30 1190 H 108.802 -0.589691 -0.448715 0
M  V30 1191 H 111.449 -1.84228 -0.522705 0
M  V30 1192 H 109.754 -2.44937 -3.05799 0
M  V30 1193 H 111.451 -2.79534 -2.87509 0
M  V30 1194 H 108.041 -3.8434 -1.89685 0
M  V30 1195 H 112.225 -4.73474 -1.4878 0
M  V30 1196 H 107.481 -6.04027 -0.946666 0
M  V30 1197 H 111.655 -6.94258 -0.545843 0
M  V30 1198 H 109.282 -7.59722 -0.26952 0
M  V30 1199 N 110.857 0.726932 -1.39834 0
M  V30 1200 C 112.087 1.51393 -1.40583 0
M  V30 1201 C 112.495 1.892 -0.000740625 0
M  V30 1202 O 111.838 1.55189 0.982951 0
M  V30 1203 C 111.9 2.82588 -2.22226 0
M  V30 1204 C 111.564 2.67169 -3.70769 0
M  V30 1205 C 112.561 2.3518 -4.63666 0
M  V30 1206 C 110.246 2.83788 -4.14451 0
M  V30 1207 C 112.24 2.20002 -5.98229 0
M  V30 1208 C 109.927 2.68229 -5.49087 0
M  V30 1209 C 110.925 2.36382 -6.4079 0
M  V30 1210 O 110.613 2.2093 -7.72946 0
M  V30 1211 H 110.345 0.474168 -0.48181 0
M  V30 1212 H 112.899 0.905247 -1.84376 0
M  V30 1213 H 111.129 3.45746 -1.73195 0
M  V30 1214 H 112.818 3.44247 -2.15055 0
M  V30 1215 H 113.584 2.21984 -4.31217 0
M  V30 1216 H 109.463 3.07566 -3.43401 0
M  V30 1217 H 113.007 1.95067 -6.69772 0
M  V30 1218 H 108.904 2.81006 -5.81125 0
M  V30 1219 H 109.672 2.35937 -7.83757 0
M  V30 1220 N 112.336 1.25143 0.95797 0
M  V30 1221 C 113.583 1.09692 1.70217 0
M  V30 1222 C 113.911 -0.362654 1.91089 0
M  V30 1223 O 113.166 -1.28386 1.47701 0
M  V30 1224 C 113.465 1.79272 3.09187 0
M  V30 1225 C 113.131 3.29196 3.08125 0
M  V30 1226 C 111.793 3.70096 3.07543 0
M  V30 1227 C 114.145 4.24995 3.0171 0
M  V30 1228 C 111.473 5.05213 2.9829 0
M  V30 1229 C 113.825 5.60132 2.93999 0
M  V30 1230 C 112.489 6.00365 2.9175 0
M  V30 1231 H 111.759 0.401393 0.622868 0
M  V30 1232 H 114.406 1.55372 1.11945 0
M  V30 1233 H 112.711 1.26014 3.70982 0
M  V30 1234 H 114.408 1.64773 3.65583 0
M  V30 1235 H 110.998 2.96651 3.09348 0
M  V30 1236 H 115.182 3.9439 3.01281 0
M  V30 1237 H 110.438 5.35569 2.94916 0
M  V30 1238 H 114.612 6.3406 2.87996 0
M  V30 1239 H 112.239 7.05023 2.84336 0
M  V30 1240 N 113.814 -1.1601 1.06675 0
M  V30 1241 C 114.761 -2.20525 0.680967 0
M  V30 1242 C 115.731 -1.62904 -0.324283 0
M  V30 1243 O 116.916 -1.89615 -0.212294 0
M  V30 1244 C 114.056 -3.45013 0.0776551 0
M  V30 1245 C 113.169 -4.16863 1.13355 0
M  V30 1246 C 112.304 -5.2888 0.49597 0
M  V30 1247 C 111.343 -5.92537 1.53513 0
M  V30 1248 N 110.48 -6.96038 0.920631 0
M  V30 1249 H 115.32 -2.52876 1.57663 0
M  V30 1250 H 112.857 -1.24199 0.788223 0
M  V30 1251 H 114.815 -4.16193 -0.289704 0
M  V30 1252 H 113.445 -3.132 -0.781393 0
M  V30 1253 H 112.497 -3.44248 1.61857 0
M  V30 1254 H 113.809 -4.60294 1.92174 0
M  V30 1255 H 112.963 -6.06653 0.0758604 0
M  V30 1256 H 111.702 -4.86622 -0.324062 0
M  V30 1257 H 110.707 -5.13482 1.9651 0
M  V30 1258 H 111.932 -6.36873 2.35733 0
M  V30 1259 H 109.878 -6.55888 0.12138 0
M  V30 1260 H 109.795 -7.3786 1.64616 0
M  V30 1261 H 111.063 -7.77725 0.525795 0
M  V30 1262 N 115.292 -0.849877 -1.32721 0
M  V30 1263 C 116.222 -0.306308 -2.31482 0
M  V30 1264 C 117.203 0.591952 -1.59468 0
M  V30 1265 O 118.388 0.513199 -1.87296 0
M  V30 1266 C 115.518 0.510204 -3.43532 0
M  V30 1267 C 114.472 -0.293209 -4.26994 0
M  V30 1268 C 113.798 0.647743 -5.30762 0
M  V30 1269 C 115.098 -1.51634 -4.99804 0
M  V30 1270 H 116.792 -1.13153 -2.77195 0
M  V30 1271 H 114.338 -0.545553 -1.33266 0
M  V30 1272 H 116.291 0.900856 -4.11658 0
M  V30 1273 H 115.015 1.36874 -2.96535 0
M  V30 1274 H 113.674 -0.665555 -3.60508 0
M  V30 1275 H 113.322 1.50299 -4.8002 0
M  V30 1276 H 113.022 0.11422 -5.87489 0
M  V30 1277 H 114.546 1.03567 -6.01753 0
M  V30 1278 H 115.96 -1.19824 -5.60638 0
M  V30 1279 H 114.357 -1.98745 -5.66234 0
M  V30 1280 H 115.427 -2.28018 -4.27943 0
M  V30 1281 N 116.77 1.45427 -0.607355 0
M  V30 1282 C 118.017 2.02241 -0.102455 0
M  V30 1283 C 118.345 1.4758 1.26691 0
M  V30 1284 O 117.6 0.640468 1.84923 0
M  V30 1285 C 117.899 3.57398 -0.0129263 0
M  V30 1286 C 117.565 4.3121 -1.31792 0
M  V30 1287 C 116.227 4.51092 -1.67539 0
M  V30 1288 C 118.579 4.73401 -2.18039 0
M  V30 1289 C 115.907 5.10422 -2.89285 0
M  V30 1290 C 118.259 5.34078 -3.39034 0
M  V30 1291 C 116.923 5.52184 -3.75033 0
M  V30 1292 H 116.193 0.740051 -0.037491 0
M  V30 1293 H 118.84 1.74494 -0.788926 0
M  V30 1294 H 117.145 3.84421 0.756806 0
M  V30 1295 H 118.842 3.99061 0.393881 0
M  V30 1296 H 115.432 4.16047 -1.02968 0
M  V30 1297 H 119.616 4.57774 -1.91721 0
M  V30 1298 H 114.872 5.22629 -3.17283 0
M  V30 1299 H 119.046 5.65724 -4.06115 0
M  V30 1300 H 116.673 5.97925 -4.69457 0
M  V30 1301 N 118.248 0.346503 1.53744 0
M  V30 1302 C 119.195 -0.508914 2.25119 0
M  V30 1303 C 120.165 -1.09315 1.25058 0
M  V30 1304 O 121.35 -1.12921 1.53797 0
M  V30 1305 C 118.49 -1.65246 3.02965 0
M  V30 1306 C 117.603 -1.09525 4.17886 0
M  V30 1307 C 116.738 -2.20634 4.83212 0
M  V30 1308 C 115.777 -1.62279 5.90196 0
M  V30 1309 N 114.914 -2.67143 6.49291 0
M  V30 1310 H 119.754 0.106283 2.9781 0
M  V30 1311 H 117.291 0.0642227 1.4696 0
M  V30 1312 H 119.249 -2.32574 3.4636 0
M  V30 1313 H 117.879 -2.2386 2.32565 0
M  V30 1314 H 116.931 -0.312818 3.79112 0
M  V30 1315 H 118.243 -0.628444 4.94825 0
M  V30 1316 H 117.397 -2.95821 5.29693 0
M  V30 1317 H 116.136 -2.70659 4.05703 0
M  V30 1318 H 115.141 -0.855989 5.43096 0
M  V30 1319 H 116.366 -1.13102 6.69615 0
M  V30 1320 H 114.312 -3.16417 5.74645 0
M  V30 1321 H 114.229 -2.25093 7.21713 0
M  V30 1322 H 115.497 -3.4209 7.00425 0
M  V30 1323 N 119.726 -1.57421 0.075193 0
M  V30 1324 C 120.674 -2.14124 -0.908508 0
M  V30 1325 C 121.668 -1.07898 -1.30592 0
M  V30 1326 O 122.874 -1.26273 -1.28277 0
M  V30 1327 H 119.249 -0.684707 -0.310935 0
M  V30 1328 H 121.22 -2.95634 -0.405374 0
M  V30 1329 C 119.969 -2.72044 -2.16535 0
M  V30 1330 H 119.292 -3.53456 -1.86839 0
M  V30 1331 H 120.732 -3.15311 -2.83469 0
M  V30 1332 C 119.191 -1.66968 -2.92615 0
M  V30 1333 O 119.721 -1.0967 -3.86439 0
M  V30 1334 N 117.927 -1.37923 -2.55784 0
M  V30 1335 H 117.474 -1.84706 -1.79559 0
M  V30 1336 H 117.432 -0.67852 -3.06991 0
M  V30 1337 N 121.204 0.198386 -1.56346 0
M  V30 1338 C 122.451 0.919286 -1.80431 0
M  V30 1339 C 122.779 1.83393 -0.647866 0
M  V30 1340 O 122.034 1.92236 0.366556 0
M  V30 1341 C 122.333 1.77031 -3.10475 0
M  V30 1342 C 121.999 1.00693 -4.39513 0
M  V30 1343 C 120.661 0.796145 -4.74568 0
M  V30 1344 C 123.013 0.469559 -5.19081 0
M  V30 1345 C 120.341 0.0364588 -5.86689 0
M  V30 1346 C 122.693 -0.2769 -6.31994 0
M  V30 1347 C 121.357 -0.49873 -6.65634 0
M  V30 1348 H 120.627 0.336391 -0.660244 0
M  V30 1349 H 123.274 0.185872 -1.90596 0
M  V30 1350 H 121.579 2.5723 -2.95533 0
M  V30 1351 H 123.276 2.33065 -3.26315 0
M  V30 1352 H 119.866 1.18122 -4.12001 0
M  V30 1353 H 124.05 0.619816 -4.92414 0
M  V30 1354 H 119.306 -0.145412 -6.11227 0
M  V30 1355 H 123.48 -0.700684 -6.92866 0
M  V30 1356 H 121.107 -1.0893 -7.52355 0
M  V30 1357 N 122.682 1.50554 0.465978 0
M  V30 1358 C 123.629 1.6979 1.56333 0
M  V30 1359 C 124.599 0.539239 1.57103 0
M  V30 1360 O 125.784 0.770401 1.74555 0
M  V30 1361 C 122.924 1.80273 2.94271 0
M  V30 1362 C 122.037 3.07674 3.0325 0
M  V30 1363 C 121.172 3.08922 4.32135 0
M  V30 1364 C 120.211 4.30755 4.34875 0
M  V30 1365 N 119.348 4.29714 5.55239 0
M  V30 1366 H 124.188 2.63472 1.39235 0
M  V30 1367 H 121.725 1.30602 0.676873 0
M  V30 1368 H 123.683 1.84332 3.74269 0
M  V30 1369 H 122.313 0.900258 3.09992 0
M  V30 1370 H 121.365 3.13062 2.16094 0
M  V30 1371 H 122.677 3.97642 3.01135 0
M  V30 1372 H 121.831 3.11738 5.20485 0
M  V30 1373 H 120.57 2.16792 4.36866 0
M  V30 1374 H 119.575 4.28146 3.44922 0
M  V30 1375 H 120.8 5.24117 4.31831 0
M  V30 1376 H 118.746 3.4044 5.60746 0
M  V30 1377 H 118.663 5.13456 5.54886 0
M  V30 1378 H 119.931 4.36683 6.457 0
M  V30 1379 N 124.16 -0.719506 1.40217 0
M  V30 1380 C 125.437 -1.47221 1.28784 0
M  V30 1381 C 125.817 -2.10883 -0.0956067 0
M  V30 1382 O 125.165 -1.99833 -1.10811 0
M  V30 1383 C 125.375 -2.5111 2.42373 0
M  V30 1384 C 126.723 -3.17053 2.82423 0
M  V30 1385 O 127.747 -2.61429 2.41937 0
M  V30 1386 O 126.606 -4.17742 3.52355 0
M  V30 1387 H 123.7 -0.654491 0.50554 0
M  V30 1388 H 126.246 -0.752014 1.52128 0
M  V30 1389 H 125.018 -2.02556 3.34793 0
M  V30 1390 H 124.641 -3.3067 2.20778 0
M  V30 1391 N 125.638 -1.25649 -0.95132 0
M  V30 1392 C 126.915 -1.01361 -1.67288 0
M  V30 1393 C 127.295 0.459135 -2.06046 0
M  V30 1394 O 126.643 1.43723 -1.7764 0
M  V30 1395 C 126.853 -1.95256 -2.89268 0
M  V30 1396 C 128.201 -2.23289 -3.61147 0
M  V30 1397 O 129.225 -1.93041 -2.99355 0
M  V30 1398 O 128.084 -2.74741 -4.72419 0
M  V30 1399 H 125.178 -0.38464 -0.732107 0
M  V30 1400 H 127.724 -1.36817 -1.00395 0
M  V30 1401 H 126.496 -2.94685 -2.57442 0
M  V30 1402 H 126.119 -1.60218 -3.6389 0
M  V30 1403 N 127.117 1.15442 -1.07289 0
M  V30 1404 C 128.049 2.19773 -0.650585 0
M  V30 1405 C 129.062 1.60076 0.296572 0
M  V30 1406 O 130.251 1.78293 0.0859905 0
M  V30 1407 C 127.351 3.38838 0.0650398 0
M  V30 1408 C 126.524 4.2808 -0.898141 0
M  V30 1409 C 125.583 5.2574 -0.219926 0
M  V30 1410 O 124.609 5.62654 -0.860773 0
M  V30 1411 N 125.811 5.71205 1.03466 0
M  V30 1412 H 128.576 2.56622 -1.54808 0
M  V30 1413 H 126.137 1.30551 -0.957494 0
M  V30 1414 H 128.129 4.01222 0.529415 0
M  V30 1415 H 126.699 3.00409 0.864466 0
M  V30 1416 H 125.919 3.62804 -1.54165 0
M  V30 1417 H 127.207 4.84577 -1.5512 0
M  V30 1418 H 126.605 5.43325 1.57526 0
M  V30 1419 H 125.162 6.35633 1.44272 0
M  V30 1420 N 128.595 0.856903 1.32268 0
M  V30 1421 C 129.82 0.474569 2.01897 0
M  V30 1422 C 130.245 -0.921766 1.63967 0
M  V30 1423 O 129.603 -1.60589 0.84148 0
M  V30 1424 C 129.651 0.623799 3.55164 0
M  V30 1425 O 128.755 -0.342459 4.10976 0
M  V30 1426 H 128.096 0.190422 0.63611 0
M  V30 1427 H 130.626 1.15672 1.68764 0
M  V30 1428 H 130.636 0.512169 4.04773 0
M  V30 1429 H 129.311 1.64202 3.82113 0
M  V30 1430 H 127.888 -0.18688 3.72431 0
M  V30 1431 N 130.073 -1.45103 0.615059 0
M  V30 1432 C 131.322 -2.01396 0.110718 0
M  V30 1433 C 131.635 -1.48834 -1.26916 0
M  V30 1434 O 132.841 -1.97152 -1.86664 0
M  V30 1435 C 131.297 -3.59599 0.14723 0
M  V30 1436 C 130.905 -4.21158 1.52743 0
M  V30 1437 C 132.649 -4.23428 -0.30148 0
M  V30 1438 C 130.556 -5.71535 1.51992 0
M  V30 1439 H 129.486 -0.753061 0.0376241 0
M  V30 1440 H 132.137 -1.66494 0.77149 0
M  V30 1441 H 130.519 -3.91724 -0.580339 0
M  V30 1442 H 131.693 -4.00594 2.2773 0
M  V30 1443 H 130.008 -3.69552 1.91886 0
M  V30 1444 H 132.605 -5.33703 -0.326392 0
M  V30 1445 H 132.948 -3.94629 -1.32565 0
M  V30 1446 H 133.481 -3.96047 0.373065 0
M  V30 1447 H 130.22 -6.05044 2.52193 0
M  V30 1448 H 129.74 -5.94268 0.81274 0
M  V30 1449 H 131.419 -6.34873 1.24681 0
M  V30 1450 N 131.551 -0.354651 -1.53558 0
M  V30 1451 C 132.483 0.5315 -2.22952 0
M  V30 1452 C 133.496 1.05503 -1.23988 0
M  V30 1453 O 134.685 0.963279 -1.50277 0
M  V30 1454 C 131.785 1.74538 -2.90499 0
M  V30 1455 C 130.958 1.35524 -4.15875 0
M  V30 1456 C 130.017 2.42999 -4.66731 0
M  V30 1457 O 129.043 2.05844 -5.30676 0
M  V30 1458 N 130.245 3.74423 -4.43608 0
M  V30 1459 H 133.01 -0.0628615 -2.99634 0
M  V30 1460 H 130.571 -0.179302 -1.60904 0
M  V30 1461 H 132.563 2.45892 -3.21433 0
M  V30 1462 H 131.133 2.24686 -2.17336 0
M  V30 1463 H 130.353 0.471998 -3.91364 0
M  V30 1464 H 131.641 1.07071 -4.97406 0
M  V30 1465 H 131.039 4.07391 -3.92491 0
M  V30 1466 H 129.596 4.41913 -4.7912 0
M  V30 1467 N 133.029 1.57378 -0.0835403 0
M  V30 1468 C 133.976 2.13384 0.879539 0
M  V30 1469 C 134.946 1.04936 1.28754 0
M  V30 1470 O 136.131 1.32662 1.37133 0
M  V30 1471 C 133.271 2.70932 2.13752 0
M  V30 1472 C 132.384 3.93575 1.7811 0
M  V30 1473 C 131.519 4.39326 2.98607 0
M  V30 1474 C 130.558 5.54587 2.59037 0
M  V30 1475 N 129.695 5.95243 3.72331 0
M  V30 1476 H 134.535 2.9537 0.395076 0
M  V30 1477 H 132.072 1.45953 0.183349 0
M  V30 1478 H 134.03 3.02411 2.87408 0
M  V30 1479 H 132.66 1.91693 2.59718 0
M  V30 1480 H 131.712 3.68483 0.94469 0
M  V30 1481 H 133.024 4.77258 1.45005 0
M  V30 1482 H 132.178 4.72528 3.80529 0
M  V30 1483 H 130.917 3.5452 3.34913 0
M  V30 1484 H 129.922 5.21024 1.75539 0
M  V30 1485 H 131.147 6.41133 2.23887 0
M  V30 1486 H 129.093 5.13385 4.08378 0
M  V30 1487 H 129.01 6.73694 3.43034 0
M  V30 1488 H 130.278 6.33072 4.54797 0
M  V30 1489 N 134.507 -0.190092 1.56449 0
M  V30 1490 C 135.732 -0.929864 1.85387 0
M  V30 1491 C 136.157 -1.7585 0.667704 0
M  V30 1492 O 135.515 -1.77198 -0.383459 0
M  V30 1493 C 135.563 -1.79773 3.12593 0
M  V30 1494 O 134.667 -2.89713 2.93496 0
M  V30 1495 H 134.008 -0.261574 0.610307 0
M  V30 1496 H 136.538 -0.193896 2.03679 0
M  V30 1497 H 136.548 -2.20139 3.43515 0
M  V30 1498 H 135.223 -1.18892 3.98544 0
M  V30 1499 H 133.8 -2.53065 2.73884 0
M  V30 1500 N 135.985 -1.50799 -0.457987 0
M  V30 1501 C 137.231 -1.62683 -1.21088 0
M  V30 1502 C 137.564 -0.332268 -1.91336 0
M  V30 1503 O 136.839 0.667043 -1.82704 0
M  V30 1504 C 137.122 -2.81615 -2.24422 0
M  V30 1505 C 136.975 -4.20989 -1.58392 0
M  V30 1506 C 138.294 -2.96085 -3.2561 0
M  V30 1507 H 135.413 -0.592087 -0.438864 0
M  V30 1508 H 138.055 -1.83225 -0.50286 0
M  V30 1509 H 136.205 -2.64231 -2.84806 0
M  V30 1510 H 137.877 -4.49994 -1.01504 0
M  V30 1511 H 136.12 -4.24641 -0.886704 0
M  V30 1512 H 136.791 -5.0016 -2.33547 0
M  V30 1513 H 139.267 -3.12042 -2.75262 0
M  V30 1514 H 138.143 -3.80902 -3.95228 0
M  V30 1515 H 138.404 -2.0726 -3.90507 0
M  V30 1516 N 137.463 0.71206 -1.40597 0
M  V30 1517 C 138.373 1.8562 -1.43466 0
M  V30 1518 C 139.389 1.70902 -0.326902 0
M  V30 1519 O 140.565 1.93105 -0.572043 0
M  V30 1520 C 137.63 3.21451 -1.29884 0
M  V30 1521 C 136.691 3.48398 -2.50833 0
M  V30 1522 C 135.924 4.77749 -2.3789 0
M  V30 1523 O 136.147 5.53089 -1.39459 0
M  V30 1524 O 135.081 5.05111 -3.27333 0
M  V30 1525 H 138.907 1.86155 -2.39958 0
M  V30 1526 H 136.492 0.86295 -1.21957 0
M  V30 1527 H 138.374 4.02579 -1.24531 0
M  V30 1528 H 137.049 3.21636 -0.364997 0
M  V30 1529 H 135.956 2.67265 -2.61763 0
M  V30 1530 H 137.289 3.53014 -3.4299 0
M  V30 1531 N 138.941 1.26152 0.944643 0
M  V30 1532 C 140.169 1.14259 1.72489 0
M  V30 1533 C 140.584 -0.302555 1.8636 0
M  V30 1534 O 139.941 -1.20741 1.36849 0
M  V30 1535 C 139.992 1.80266 3.13347 0
M  V30 1536 O 139.713 3.19133 3.00143 0
M  V30 1537 C 141.214 1.74283 4.07603 0
M  V30 1538 H 138.434 0.398051 0.540181 0
M  V30 1539 H 140.978 1.66706 1.18446 0
M  V30 1540 H 139.133 1.31766 3.64303 0
M  V30 1541 H 139.547 3.51744 3.89071 0
M  V30 1542 H 141.021 2.25111 5.04013 0
M  V30 1543 H 141.498 0.708631 4.33446 0
M  V30 1544 H 142.104 2.22319 3.62567 0
M  V30 1545 N 140.419 -1.14872 1.07899 0
M  V30 1546 C 141.668 -1.85135 0.800499 0
M  V30 1547 C 141.981 -1.83547 -0.676014 0
M  V30 1548 O 143.187 -2.49548 -1.06948 0
M  V30 1549 C 141.643 -3.3231 1.38197 0
M  V30 1550 C 141.251 -3.42329 2.8899 0
M  V30 1551 C 142.995 -4.0772 1.18174 0
M  V30 1552 C 140.902 -4.83684 3.403 0
M  V30 1553 H 139.832 -0.693563 0.29578 0
M  V30 1554 H 142.483 -1.29532 1.29976 0
M  V30 1555 H 140.865 -3.87618 0.810431 0
M  V30 1556 H 142.039 -2.97097 3.52236 0
M  V30 1557 H 140.354 -2.80369 3.07867 0
M  V30 1558 H 142.951 -5.12049 1.5398 0
M  V30 1559 H 143.294 -4.16124 0.12117 0
M  V30 1560 H 143.827 -3.58696 1.71994 0
M  V30 1561 H 140.566 -4.80465 4.45907 0
M  V30 1562 H 140.086 -5.29474 2.81811 0
M  V30 1563 H 141.765 -5.52558 3.36584 0
M  V30 1564 N 141.898 -0.863906 -1.31812 0
M  V30 1565 C 142.845 -0.313303 -2.28664 0
M  V30 1566 C 143.815 0.584868 -1.55462 0
M  V30 1567 O 145 0.517805 -1.83639 0
M  V30 1568 C 142.14 0.48441 -3.41683 0
M  V30 1569 C 141.253 -0.440594 -4.29747 0
M  V30 1570 C 140.388 0.370652 -5.29905 0
M  V30 1571 C 139.427 -0.551164 -6.09613 0
M  V30 1572 N 138.564 0.223462 -7.01744 0
M  V30 1573 H 143.404 -1.14444 -2.75148 0
M  V30 1574 H 140.941 -0.575769 -1.35364 0
M  V30 1575 H 142.899 0.962627 -4.05943 0
M  V30 1576 H 141.529 1.28029 -2.96325 0
M  V30 1577 H 140.581 -1.03724 -3.65986 0
M  V30 1578 H 141.893 -1.14767 -4.85417 0
M  V30 1579 H 141.047 0.911638 -5.99812 0
M  V30 1580 H 139.786 1.11105 -4.74876 0
M  V30 1581 H 138.791 -1.10396 -5.38603 0
M  V30 1582 H 140.016 -1.29032 -6.66729 0
M  V30 1583 H 137.962 0.946787 -6.49132 0
M  V30 1584 H 137.879 -0.424399 -7.54808 0
M  V30 1585 H 139.147 0.745876 -7.75923 0
M  V30 1586 N 143.376 1.44774 -0.622745 0
M  V30 1587 C 144.286 2.34433 0.0886031 0
M  V30 1588 C 145.302 1.52131 0.844529 0
M  V30 1589 O 146.478 1.84886 0.798691 0
M  V30 1590 C 143.543 3.29986 1.0635 0
M  V30 1591 C 142.604 4.28195 0.307873 0
M  V30 1592 C 141.837 5.19183 1.23633 0
M  V30 1593 O 142.06 5.13918 2.47476 0
M  V30 1594 O 140.994 5.97515 0.725189 0
M  V30 1595 H 144.82 2.96693 -0.648599 0
M  V30 1596 H 142.405 1.44408 -0.382957 0
M  V30 1597 H 144.287 3.88825 1.6246 0
M  V30 1598 H 142.962 2.70269 1.78146 0
M  V30 1599 H 141.869 3.72927 -0.296064 0
M  V30 1600 H 143.202 4.90808 -0.3699 0
M  V30 1601 N 144.854 0.36279 1.53368 0
M  V30 1602 C 146.131 -0.284021 1.93527 0
M  V30 1603 C 146.511 -1.66628 1.29608 0
M  V30 1604 O 145.859 -2.23942 0.45413 0
M  V30 1605 C 146.069 -0.337028 3.47369 0
M  V30 1606 C 147.417 -0.578708 4.20638 0
M  V30 1607 O 148.441 -0.418352 3.53735 0
M  V30 1608 O 147.3 -0.89074 5.39192 0
M  V30 1609 H 144.394 -0.169743 0.809393 0
M  V30 1610 H 146.94 0.41537 1.64538 0
M  V30 1611 H 145.712 0.632217 3.86159 0
M  V30 1612 H 145.335 -1.08243 3.82582 0
M  V30 1613 N 146.332 -1.57332 0.0918853 0
M  V30 1614 C 147.265 -2.09499 -0.904735 0
M  V30 1615 C 148.243 -1.00479 -1.27839 0
M  V30 1616 O 149.427 -1.27954 -1.38419 0
M  V30 1617 C 146.554 -2.56931 -2.2069 0
M  V30 1618 C 145.6 -3.77579 -1.98334 0
M  V30 1619 S 146.433 -5.21317 -1.22428 0
M  V30 1620 C 147.589 -5.72097 -2.53882 0
M  V30 1621 H 147.822 -2.93705 -0.460922 0
M  V30 1622 H 145.355 -1.53923 -0.121332 0
M  V30 1623 H 147.313 -2.84917 -2.95521 0
M  V30 1624 H 145.974 -1.72956 -2.62192 0
M  V30 1625 H 145.167 -4.08824 -2.94752 0
M  V30 1626 H 144.769 -3.5007 -1.31633 0
M  V30 1627 H 147.061 -5.80168 -3.49874 0
M  V30 1628 H 148.004 -6.70654 -2.27219 0
M  V30 1629 H 148.412 -5.00012 -2.62007 0
M  V30 1630 N 147.81 0.181792 -1.56548 0
M  V30 1631 C 148.758 1.24461 -1.965 0
M  V30 1632 C 149.752 1.464 -0.852261 0
M  V30 1633 O 150.958 1.47103 -1.03733 0
M  V30 1634 H 147.333 0.418138 -0.625031 0
M  V30 1635 H 149.304 0.880714 -2.85107 0
M  V30 1636 C 148.053 2.57891 -2.33212 0
M  V30 1637 H 147.376 2.41829 -3.18369 0
M  V30 1638 H 148.816 3.3097 -2.65019 0
M  V30 1639 C 147.275 3.15871 -1.17163 0
M  V30 1640 O 147.805 3.9913 -0.453708 0
M  V30 1641 N 146.011 2.74808 -0.944936 0
M  V30 1642 H 145.558 2.07205 -1.53049 0
M  V30 1643 H 145.516 3.13939 -0.170286 0
M  V30 1644 N 149.288 1.51039 0.449983 0
M  V30 1645 C 150.534 1.63322 1.20223 0
M  V30 1646 C 150.867 0.34241 1.91158 0
M  V30 1647 O 150.142 -0.657344 1.83055 0
M  V30 1648 C 150.425 2.82801 2.22925 0
M  V30 1649 C 150.278 4.21823 1.56157 0
M  V30 1650 C 151.597 2.97807 3.24035 0
M  V30 1651 H 148.716 0.594407 0.435718 0
M  V30 1652 H 151.358 1.83489 0.493136 0
M  V30 1653 H 149.508 2.65738 2.834 0
M  V30 1654 H 151.18 4.50526 0.991162 0
M  V30 1655 H 149.423 4.25105 0.864172 0
M  V30 1656 H 150.094 5.01391 2.30891 0
M  V30 1657 H 152.57 3.13497 2.73603 0
M  V30 1658 H 151.446 3.82992 3.93202 0
M  V30 1659 H 151.707 2.09328 3.89402 0
M  V30 1660 N 150.766 -0.704594 1.40972 0
M  V30 1661 C 151.713 -1.81862 1.42109 0
M  V30 1662 C 152.683 -1.63781 0.276593 0
M  V30 1663 O 153.868 -1.84759 0.4763 0
M  V30 1664 C 151.008 -3.19669 1.30022 0
M  V30 1665 C 150.121 -3.49246 2.54267 0
M  V30 1666 C 149.256 -4.76618 2.3454 0
M  V30 1667 C 148.295 -4.99133 3.54306 0
M  V30 1668 N 147.432 -6.17726 3.33706 0
M  V30 1669 H 152.272 -1.80226 2.37324 0
M  V30 1670 H 149.809 -0.880238 1.17857 0
M  V30 1671 H 151.767 -3.99263 1.21018 0
M  V30 1672 H 150.397 -3.20506 0.384192 0
M  V30 1673 H 149.449 -2.64125 2.73756 0
M  V30 1674 H 150.761 -3.61788 3.43381 0
M  V30 1675 H 149.915 -5.64249 2.22952 0
M  V30 1676 H 148.654 -4.66305 1.42867 0
M  V30 1677 H 147.659 -4.09953 3.66359 0
M  V30 1678 H 148.884 -5.11311 4.4692 0
M  V30 1679 H 146.83 -6.08642 2.44725 0
M  V30 1680 H 146.747 -6.30995 4.16391 0
M  V30 1681 H 148.015 -7.08115 3.25873 0
M  V30 1682 N 152.244 -1.26651 -0.937939 0
M  V30 1683 C 153.491 -1.12387 -1.6845 0
M  V30 1684 C 153.819 0.332208 -1.91642 0
M  V30 1685 O 153.074 1.2602 -1.49725 0
M  V30 1686 C 153.373 -1.84168 -3.06295 0
M  V30 1687 C 153.039 -3.34056 -3.02849 0
M  V30 1688 C 151.701 -3.74942 -3.01616 0
M  V30 1689 C 154.053 -4.29741 -2.9491 0
M  V30 1690 C 151.381 -5.09894 -2.90215 0
M  V30 1691 C 153.733 -5.64738 -2.8505 0
M  V30 1692 C 152.397 -6.0493 -2.82162 0
M  V30 1693 H 151.667 -0.411252 -0.616403 0
M  V30 1694 H 154.314 -1.57134 -1.09459 0
M  V30 1695 H 152.619 -1.319 -3.6893 0
M  V30 1696 H 154.316 -1.70569 -3.62915 0
M  V30 1697 H 150.906 -3.01534 -3.0459 0
M  V30 1698 H 155.09 -3.99133 -2.94969 0
M  V30 1699 H 150.346 -5.40194 -2.86358 0
M  V30 1700 H 154.52 -6.38561 -2.77872 0
M  V30 1701 H 152.147 -7.09457 -2.73084 0
M  V30 1702 N 153.722 1.14298 -1.08507 0
M  V30 1703 C 154.969 1.85359 -0.815373 0
M  V30 1704 C 155.297 1.83001 0.658865 0
M  V30 1705 O 154.552 1.25655 1.50031 0
M  V30 1706 C 154.851 3.33547 -1.28379 0
M  V30 1707 C 154.517 3.56093 -2.76602 0
M  V30 1708 C 153.179 3.61955 -3.17084 0
M  V30 1709 C 155.531 3.64834 -3.72217 0
M  V30 1710 C 152.859 3.74082 -4.51973 0
M  V30 1711 C 155.211 3.78487 -5.06883 0
M  V30 1712 C 153.875 3.82598 -5.46969 0
M  V30 1713 H 153.145 0.678276 -0.298366 0
M  V30 1714 H 155.792 1.35002 -1.35819 0
M  V30 1715 H 154.097 3.86191 -0.660593 0
M  V30 1716 H 155.794 3.86959 -1.05186 0
M  V30 1717 H 152.384 3.52179 -2.4427 0
M  V30 1718 H 156.568 3.59595 -3.42061 0
M  V30 1719 H 151.824 3.75527 -4.82483 0
M  V30 1720 H 155.998 3.84193 -5.80834 0
M  V30 1721 H 153.625 3.91747 -6.51489 0
M  V30 1722 N 155.201 0.870884 1.31352 0
M  V30 1723 C 156.149 0.316445 2.30437 0
M  V30 1724 C 157.143 -0.568965 1.59559 0
M  V30 1725 O 158.349 -0.454964 1.74155 0
M  V30 1726 H 154.724 0.0836521 0.747333 0
M  V30 1727 H 156.695 1.16606 2.74673 0
M  V30 1728 C 155.444 -0.46635 3.44558 0
M  V30 1729 H 154.767 0.205687 3.99271 0
M  V30 1730 H 156.207 -0.819614 4.16003 0
M  V30 1731 C 154.666 -1.65797 2.9328 0
M  V30 1732 O 155.196 -2.75728 2.92125 0
M  V30 1733 N 153.402 -1.49041 2.4947 0
M  V30 1734 H 152.949 -0.59612 2.50608 0
M  V30 1735 H 152.907 -2.28911 2.15516 0
M  V30 1736 N 156.679 -1.44442 0.630414 0
M  V30 1737 C 157.904 -2.06927 0.139944 0
M  V30 1738 C 158.329 -1.46795 -1.17613 0
M  V30 1739 O 157.687 -0.569144 -1.72135 0
M  V30 1740 C 157.735 -3.6058 0.0379581 0
M  V30 1741 O 156.839 -3.99937 -1.0062 0
M  V30 1742 H 156.18 -0.658608 0.0844483 0
M  V30 1743 H 158.71 -1.85327 0.866891 0
M  V30 1744 H 158.72 -4.07714 -0.152856 0
M  V30 1745 H 157.395 -4.03728 0.998809 0
M  V30 1746 H 155.972 -3.64436 -0.79001 0
M  V30 1747 N 158.157 -0.370918 -1.53173 0
M  V30 1748 C 159.105 0.488101 -2.27421 0
M  V30 1749 C 160.099 1.07884 -1.30604 0
M  V30 1750 O 161.305 1.02143 -1.48212 0
M  V30 1751 H 157.68 0.176134 -0.731082 0
M  V30 1752 H 159.651 -0.159815 -2.97972 0
M  V30 1753 C 158.4 1.61306 -3.08019 0
M  V30 1754 H 157.723 1.1678 -3.82364 0
M  V30 1755 H 159.163 2.18872 -3.63141 0
M  V30 1756 C 157.622 2.55848 -2.19188 0
M  V30 1757 O 158.152 3.58799 -1.80626 0
M  V30 1758 N 156.358 2.2516 -1.83715 0
M  V30 1759 H 155.905 1.41476 -2.15273 0
M  V30 1760 H 155.863 2.8867 -1.24567 0
M  V30 1761 N 159.635 1.57281 -0.100228 0
M  V30 1762 C 160.582 2.14305 0.856858 0
M  V30 1763 C 161.552 1.06296 1.27634 0
M  V30 1764 O 162.737 1.34109 1.35718 0
M  V30 1765 C 159.877 2.73184 2.10866 0
M  V30 1766 C 158.99 3.95442 1.73925 0
M  V30 1767 C 158.125 4.42468 2.93931 0
M  V30 1768 C 157.164 5.57303 2.5314 0
M  V30 1769 N 156.301 5.99158 3.65997 0
M  V30 1770 H 161.141 2.95772 0.363726 0
M  V30 1771 H 158.678 1.46139 0.167858 0
M  V30 1772 H 160.636 3.05442 2.84185 0
M  V30 1773 H 159.266 1.94437 2.57671 0
M  V30 1774 H 158.318 3.69464 0.905554 0
M  V30 1775 H 159.63 4.78769 1.39935 0
M  V30 1776 H 158.784 4.76537 3.75496 0
M  V30 1777 H 157.523 3.58052 3.31134 0
M  V30 1778 H 156.528 5.22857 1.70003 0
M  V30 1779 H 157.753 6.43471 2.17075 0
M  V30 1780 H 155.699 5.17687 4.02909 0
M  V30 1781 H 155.616 6.77295 3.35869 0
M  V30 1782 H 156.884 6.3786 4.48057 0
M  V30 1783 N 161.113 -0.173488 1.56642 0
M  V30 1784 C 162.06 -1.21482 1.96242 0
M  V30 1785 C 163.03 -1.44104 0.826027 0
M  V30 1786 O 164.215 -1.5688 1.08597 0
M  V30 1787 C 161.355 -2.54964 2.32567 0
M  V30 1788 C 160.468 -2.39739 3.59373 0
M  V30 1789 C 159.603 -3.66072 3.84921 0
M  V30 1790 C 158.642 -3.45771 5.05083 0
M  V30 1791 N 157.779 -4.64169 5.26775 0
M  V30 1792 H 162.619 -0.870123 2.85014 0
M  V30 1793 H 160.156 -0.418245 1.41029 0
M  V30 1794 H 162.114 -3.32758 2.5165 0
M  V30 1795 H 160.744 -2.87433 1.46908 0
M  V30 1796 H 159.796 -1.53131 3.48217 0
M  V30 1797 H 161.108 -2.20683 4.47326 0
M  V30 1798 H 160.262 -4.52303 4.0436 0
M  V30 1799 H 159.001 -3.88105 2.9534 0
M  V30 1800 H 158.006 -2.57927 4.85545 0
M  V30 1801 H 159.231 -3.25163 5.96193 0
M  V30 1802 H 157.177 -4.86425 4.40144 0
M  V30 1803 H 157.094 -4.48019 6.08946 0
M  V30 1804 H 158.362 -5.51689 5.5069 0
M  V30 1805 N 162.591 -1.51276 -0.441967 0
M  V30 1806 C 163.538 -1.72256 -1.53612 0
M  V30 1807 C 164.508 -0.564164 -1.56225 0
M  V30 1808 O 165.693 -0.798074 -1.73307 0
M  V30 1809 C 162.833 -1.84932 -2.91366 0
M  V30 1810 C 161.946 -3.12459 -2.98317 0
M  V30 1811 C 161.081 -3.15758 -4.27166 0
M  V30 1812 C 160.12 -4.37619 -4.27967 0
M  V30 1813 N 159.257 -4.38493 -5.48333 0
M  V30 1814 H 164.097 -2.65654 -1.35026 0
M  V30 1815 H 161.634 -1.31662 -0.656009 0
M  V30 1816 H 163.592 -1.90263 -3.7129 0
M  V30 1817 H 162.222 -0.949461 -3.08521 0
M  V30 1818 H 161.274 -3.1646 -2.11086 0
M  V30 1819 H 162.586 -4.02382 -2.94771 0
M  V30 1820 H 161.74 -3.19979 -5.15459 0
M  V30 1821 H 160.479 -2.23715 -4.33362 0
M  V30 1822 H 159.484 -4.33579 -3.38067 0
M  V30 1823 H 160.709 -5.30921 -4.23438 0
M  V30 1824 H 158.655 -3.49318 -5.55259 0
M  V30 1825 H 158.572 -5.22219 -5.46647 0
M  V30 1826 H 159.84 -4.469 -6.38671 0
M  V30 1827 N 164.069 0.697108 -1.41344 0
M  V30 1828 C 165.485 1.00751 -1.2378 0
M  V30 1829 C 165.685 2.01105 -0.126066 0
M  V30 1830 O 164.741 2.47295 0.51004 0
M  V30 1831 C 166.054 1.53359 -2.58653 0
M  V30 1832 C 167.602 1.6525 -2.65822 0
M  V30 1833 C 168.077 2.2126 -4.01009 0
M  V30 1834 N 169.568 2.28622 -4.02847 0
M  V30 1835 C 170.303 2.72984 -5.04249 0
M  V30 1836 N 169.799 3.16962 -6.16041 0
M  V30 1837 N 171.592 2.72534 -4.91611 0
M  V30 1838 H 163.743 0.0322662 -2.12375 0
M  V30 1839 H 166.006 0.0768853 -0.944877 0
M  V30 1840 H 165.712 0.870773 -3.4075 0
M  V30 1841 H 165.586 2.51597 -2.81032 0
M  V30 1842 H 167.973 2.30644 -1.84086 0
M  V30 1843 H 168.054 0.655614 -2.47256 0
M  V30 1844 H 167.698 1.56482 -4.83193 0
M  V30 1845 H 167.628 3.21698 -4.16915 0
M  V30 1846 H 170.119 1.97585 -3.22131 0
M  V30 1847 H 170.432 3.49434 -6.89287 0
M  V30 1848 H 168.777 3.14875 -6.1958 0
M  V30 1849 H 171.968 2.37525 -4.0336 0
M  V30 1850 H 172.141 3.06789 -5.70775 0
M  V30 1851 N 165.547 1.27147 0.931209 0
M  V30 1852 C 166.824 1.0401 1.65654 0
M  V30 1853 C 167.204 -0.426297 2.06751 0
M  V30 1854 O 166.552 -1.40879 1.79904 0
M  V30 1855 C 166.762 1.99834 2.86125 0
M  V30 1856 C 168.11 2.29007 3.57549 0
M  V30 1857 O 169.134 1.97779 2.96246 0
M  V30 1858 O 167.993 2.82222 4.67989 0
M  V30 1859 H 165.087 0.396239 0.725895 0
M  V30 1860 H 167.633 1.38397 0.982056 0
M  V30 1861 H 166.405 2.98744 2.52721 0
M  V30 1862 H 166.028 1.65987 3.61295 0
M  V30 1863 N 167.025 -1.13721 1.09112 0
M  V30 1864 C 168.302 -1.81155 0.737706 0
M  V30 1865 C 168.682 -1.96253 -0.777683 0
M  V30 1866 O 168.03 -1.52807 -1.69889 0
M  V30 1867 C 168.24 -3.16392 1.47299 0
M  V30 1868 C 169.588 -3.91787 1.63671 0
M  V30 1869 O 170.612 -3.26005 1.43524 0
M  V30 1870 O 169.471 -5.0977 1.96969 0
M  V30 1871 H 166.565 -0.783518 0.26463 0
M  V30 1872 H 169.111 -1.20676 1.19312 0
M  V30 1873 H 167.883 -3.0061 2.50498 0
M  V30 1874 H 167.506 -3.8457 1.00953 0
M  V30 1875 N 168.503 -0.877838 -1.30888 0
M  V30 1876 C 169.75 -0.492696 -1.96415 0
M  V30 1877 C 170.078 0.956671 -1.69346 0
M  V30 1878 O 169.333 1.68993 -0.986913 0
M  V30 1879 C 169.632 -0.705748 -3.50363 0
M  V30 1880 C 169.298 -2.1291 -3.97467 0
M  V30 1881 C 167.96 -2.51834 -4.1004 0
M  V30 1882 C 170.312 -3.05702 -4.22132 0
M  V30 1883 C 167.64 -3.82775 -4.44635 0
M  V30 1884 C 169.992 -4.36166 -4.58194 0
M  V30 1885 C 168.656 -4.74993 -4.68975 0
M  V30 1886 H 167.926 -0.18029 -0.718733 0
M  V30 1887 H 170.573 -1.11233 -1.55883 0
M  V30 1888 H 168.878 -0.00303058 -3.918 0
M  V30 1889 H 170.575 -0.387456 -3.99124 0
M  V30 1890 H 167.165 -1.81694 -3.88182 0
M  V30 1891 H 171.349 -2.76853 -4.11906 0
M  V30 1892 H 166.605 -4.12609 -4.51181 0
M  V30 1893 H 170.779 -5.08111 -4.76231 0
M  V30 1894 H 168.406 -5.76495 -4.95537 0
M  V30 1895 N 169.982 1.44106 -0.638065 0
M  V30 1896 C 170.892 2.34513 0.0637334 0
M  V30 1897 C 171.908 1.53018 0.828346 0
M  V30 1898 O 173.084 1.85723 0.779036 0
M  V30 1899 C 170.149 3.31095 1.02844 0
M  V30 1900 C 169.21 4.28497 0.26244 0
M  V30 1901 C 168.443 5.20465 1.1812 0
M  V30 1902 O 168.666 5.16514 2.42011 0
M  V30 1903 O 167.6 5.98251 0.661774 0
M  V30 1904 H 171.426 2.95989 -0.68003 0
M  V30 1905 H 169.011 1.43994 -0.398252 0
M  V30 1906 H 170.893 3.90526 1.58327 0
M  V30 1907 H 169.568 2.72144 1.7527 0
M  V30 1908 H 168.475 3.72592 -0.335602 0
M  V30 1909 H 169.808 4.90388 -0.421936 0
M  V30 1910 N 171.46 0.379036 1.52974 0
M  V30 1911 C 172.407 -0.461048 2.26148 0
M  V30 1912 C 173.377 -1.06637 1.27349 0
M  V30 1913 O 174.562 -1.09633 1.56157 0
M  V30 1914 C 171.702 -1.58782 3.06402 0
M  V30 1915 C 170.815 -1.00636 4.20115 0
M  V30 1916 C 169.95 -2.10334 4.87784 0
M  V30 1917 C 168.989 -1.49724 5.93506 0
M  V30 1918 N 168.126 -2.5331 6.54812 0
M  V30 1919 H 172.966 0.169429 2.97518 0
M  V30 1920 H 170.503 0.0953806 1.4679 0
M  V30 1921 H 172.461 -2.25174 3.51215 0
M  V30 1922 H 171.091 -2.18876 2.37261 0
M  V30 1923 H 170.143 -0.232332 3.7969 0
M  V30 1924 H 171.455 -0.523343 4.96047 0
M  V30 1925 H 170.609 -2.84519 5.35849 0
M  V30 1926 H 169.348 -2.61992 4.11353 0
M  V30 1927 H 168.353 -0.740598 5.44789 0
M  V30 1928 H 169.578 -0.988732 6.71864 0
M  V30 1929 H 167.524 -3.04156 5.81227 0
M  V30 1930 H 167.441 -2.09734 7.26325 0
M  V30 1931 H 168.709 -3.27155 7.07524 0
M  V30 1932 N 172.938 -1.57226 0.108567 0
M  V30 1933 C 173.868 -2.17778 -0.84232 0
M  V30 1934 C 174.849 -1.11487 -1.2847 0
M  V30 1935 O 176.034 -1.39681 -1.34918 0
M  V30 1936 C 173.164 -2.76888 -2.09644 0
M  V30 1937 C 172.118 -3.88669 -1.79221 0
M  V30 1938 C 171.444 -4.34541 -3.11574 0
M  V30 1939 C 172.744 -5.11251 -1.06864 0
M  V30 1940 H 174.438 -2.97489 -0.337774 0
M  V30 1941 H 171.984 -1.43097 -0.161025 0
M  V30 1942 H 173.937 -3.17904 -2.76614 0
M  V30 1943 H 172.661 -1.94451 -2.62405 0
M  V30 1944 H 171.32 -3.48213 -1.14644 0
M  V30 1945 H 170.968 -3.48977 -3.62249 0
M  V30 1946 H 170.668 -5.09914 -2.91996 0
M  V30 1947 H 172.192 -4.782 -3.7968 0
M  V30 1948 H 173.606 -5.49352 -1.63968 0
M  V30 1949 H 172.003 -5.9214 -0.974178 0
M  V30 1950 H 173.073 -4.8487 -0.0536168 0
M  V30 1951 N 174.416 0.165178 -1.56732 0
M  V30 1952 C 175.644 0.896218 -1.86482 0
M  V30 1953 C 176.059 1.75555 -0.694675 0
M  V30 1954 O 175.416 1.79379 0.33607 0
M  V30 1955 C 175.467 1.76792 -3.1532 0
M  V30 1956 O 175.188 0.943239 -4.27825 0
M  V30 1957 C 176.689 2.6081 -3.58459 0
M  V30 1958 H 173.909 0.260064 -0.618553 0
M  V30 1959 H 176.453 0.163428 -2.03846 0
M  V30 1960 H 174.608 2.45398 -2.99764 0
M  V30 1961 H 175.022 1.53998 -5.01383 0
M  V30 1962 H 176.496 3.17579 -4.51495 0
M  V30 1963 H 176.973 3.35977 -2.82872 0
M  V30 1964 H 177.579 1.97526 -3.76648 0
M  V30 1965 N 175.894 1.51508 0.433938 0
M  V30 1966 C 176.842 1.73646 1.54757 0
M  V30 1967 C 177.836 0.602854 1.5831 0
M  V30 1968 O 179.042 0.784318 1.62014 0
M  V30 1969 H 175.417 0.548718 0.51421 0
M  V30 1970 H 177.388 2.66991 1.33261 0
M  V30 1971 C 176.137 1.88172 2.92381 0
M  V30 1972 H 175.46 2.74808 2.90381 0
M  V30 1973 H 176.9 2.07672 3.6966 0
M  V30 1974 C 175.359 0.64239 3.30719 0
M  V30 1975 O 175.889 -0.201362 4.01195 0
M  V30 1976 N 174.095 0.485489 2.86516 0
M  V30 1977 H 173.642 1.17318 2.29334 0
M  V30 1978 H 173.6 -0.342482 3.12529 0
M  V30 1979 N 177.372 -0.689602 1.41712 0
M  V30 1980 C 178.602 -1.47613 1.44548 0
M  V30 1981 C 179.01 -1.89132 0.0509034 0
M  V30 1982 O 178.353 -1.57741 -0.94146 0
M  V30 1983 C 178.415 -2.76596 2.2964 0
M  V30 1984 C 178.079 -2.57245 3.77722 0
M  V30 1985 C 179.076 -2.22804 4.69739 0
M  V30 1986 C 176.761 -2.727 4.2183 0
M  V30 1987 C 178.755 -2.04064 6.03851 0
M  V30 1988 C 176.442 -2.53576 5.56006 0
M  V30 1989 C 177.44 -2.1931 6.46832 0
M  V30 1990 O 177.128 -2.00359 7.78532 0
M  V30 1991 H 176.86 -0.461227 0.494212 0
M  V30 1992 H 179.414 -0.856045 1.86711 0
M  V30 1993 H 177.644 -3.41033 1.82301 0
M  V30 1994 H 179.333 -3.38424 2.24107 0
M  V30 1995 H 180.099 -2.10473 4.36951 0
M  V30 1996 H 175.978 -2.98353 3.51435 0
M  V30 1997 H 179.522 -1.77241 6.74708 0
M  V30 1998 H 175.419 -2.65499 5.88371 0
M  V30 1999 H 176.187 -2.15075 7.89737 0
M  V30 2000 N 178.85 -1.27639 -0.924453 0
M  V30 2001 C 180.075 -1.17101 -1.71179 0
M  V30 2002 C 180.5 0.268134 -1.86179 0
M  V30 2003 O 179.858 1.19415 -1.36418 0
M  V30 2004 C 179.906 -1.86313 -3.08739 0
M  V30 2005 O 179.01 -1.16331 -3.95652 0
M  V30 2006 H 178.351 -0.407091 -0.524569 0
M  V30 2007 H 180.881 -1.68767 -1.15666 0
M  V30 2008 H 180.891 -1.938 -3.59034 0
M  V30 2009 H 179.566 -2.91001 -2.97138 0
M  V30 2010 H 178.143 -1.16935 -3.54091 0
M  V30 2011 N 180.328 1.1314 -1.09713 0
M  V30 2012 C 181.574 1.84757 -0.836224 0
M  V30 2013 C 181.907 1.8347 0.636598 0
M  V30 2014 O 181.182 1.27491 1.46889 0
M  V30 2015 C 181.465 3.32782 -1.37578 0
M  V30 2016 C 181.318 3.42567 -2.91493 0
M  V30 2017 C 182.637 4.28307 -1.01198 0
M  V30 2018 H 179.756 0.67082 -0.305236 0
M  V30 2019 H 182.398 1.3278 -1.35903 0
M  V30 2020 H 180.548 3.77177 -0.931097 0
M  V30 2021 H 182.22 3.06862 -3.44432 0
M  V30 2022 H 180.463 2.83349 -3.28475 0
M  V30 2023 H 181.134 4.46674 -3.24324 0
M  V30 2024 H 183.61 3.91999 -1.39556 0
M  V30 2025 H 182.486 5.30307 -1.41653 0
M  V30 2026 H 182.747 4.42029 0.0794833 0
M  V30 2027 N 181.806 0.884767 1.30421 0
M  V30 2028 C 183.034 0.518044 2.0031 0
M  V30 2029 C 183.449 -0.893408 1.66324 0
M  V30 2030 O 182.806 -1.5875 0.900262 0
M  V30 2031 C 182.857 0.682997 3.54989 0
M  V30 2032 O 182.578 2.03888 3.87764 0
M  V30 2033 C 184.079 0.31924 4.42149 0
M  V30 2034 H 181.299 0.200265 0.640418 0
M  V30 2035 H 183.843 1.19001 1.6631 0
M  V30 2036 H 181.998 0.0584052 3.87356 0
M  V30 2037 H 182.412 2.05735 4.82466 0
M  V30 2038 H 183.886 0.485555 5.4986 0
M  V30 2039 H 184.363 -0.742717 4.32875 0
M  V30 2040 H 184.969 0.920147 4.15227 0
M  V30 2041 N 183.284 -1.43765 0.645699 0
M  V30 2042 C 184.561 -1.9541 0.0862963 0
M  V30 2043 C 184.941 -1.58725 -1.39175 0
M  V30 2044 O 184.289 -0.868581 -2.11348 0
M  V30 2045 C 184.499 -3.47488 0.324565 0
M  V30 2046 C 185.847 -4.24001 0.225497 0
M  V30 2047 O 186.871 -3.55274 0.256715 0
M  V30 2048 O 185.73 -5.46313 0.142801 0
M  V30 2049 H 182.824 -0.826882 -0.0139483 0
M  V30 2050 H 185.37 -1.53743 0.718415 0
M  V30 2051 H 184.142 -3.67289 1.3496 0
M  V30 2052 H 183.765 -3.96135 -0.340987 0
M  V30 2053 N 184.763 -0.387143 -1.52771 0
M  V30 2054 C 185.693 0.440551 -2.29306 0
M  V30 2055 C 186.674 1.06535 -1.32606 0
M  V30 2056 O 187.859 1.07853 -1.61497 0
M  V30 2057 C 184.989 1.56919 -3.09829 0
M  V30 2058 C 183.943 1.07054 -4.14395 0
M  V30 2059 C 183.269 2.29109 -4.83129 0
M  V30 2060 C 184.569 0.140015 -5.22112 0
M  V30 2061 H 186.263 -0.198026 -2.98744 0
M  V30 2062 H 183.809 -0.09668 -1.43675 0
M  V30 2063 H 185.762 2.15503 -3.62128 0
M  V30 2064 H 184.486 2.23532 -2.3812 0
M  V30 2065 H 183.145 0.507247 -3.63074 0
M  V30 2066 H 182.793 2.94227 -4.0797 0
M  V30 2067 H 182.493 1.96406 -5.53804 0
M  V30 2068 H 184.017 2.88339 -5.38231 0
M  V30 2069 H 185.431 0.633978 -5.69784 0
M  V30 2070 H 183.828 -0.0971485 -6.00021 0
M  V30 2071 H 184.898 -0.811711 -4.78058 0
M  V30 2072 N 186.241 1.57166 -0.116904 0
M  V30 2073 C 187.189 2.16457 0.851418 0
M  V30 2074 C 188.183 1.11323 1.27686 0
M  V30 2075 O 189.389 1.2963 1.24884 0
M  V30 2076 H 185.764 0.69271 0.292672 0
M  V30 2077 H 187.735 2.96605 0.32685 0
M  V30 2078 C 186.484 2.77689 2.09246 0
M  V30 2079 H 185.807 3.58285 1.77402 0
M  V30 2080 H 187.247 3.22716 2.7501 0
M  V30 2081 C 185.706 1.74667 2.88085 0
M  V30 2082 O 186.236 1.19877 3.83396 0
M  V30 2083 N 184.442 1.44656 2.52038 0
M  V30 2084 H 183.989 1.89402 1.74599 0
M  V30 2085 H 183.947 0.759675 3.05084 0
M  V30 2086 N 187.719 -0.156864 1.56817 0
M  V30 2087 C 188.965 -0.872416 1.83076 0
M  V30 2088 C 189.298 -1.81261 0.697001 0
M  V30 2089 O 188.573 -1.92171 -0.30008 0
M  V30 2090 C 188.856 -1.65551 3.19789 0
M  V30 2091 C 188.709 -0.737467 4.43713 0
M  V30 2092 C 190.028 -2.62012 3.53606 0
M  V30 2093 H 187.147 -0.315715 0.665953 0
M  V30 2094 H 189.789 -0.138004 1.89498 0
M  V30 2095 H 187.939 -2.28159 3.14445 0
M  V30 2096 H 189.611 -0.123143 4.61136 0
M  V30 2097 H 187.854 -0.0464067 4.33775 0
M  V30 2098 H 188.525 -1.32122 5.35955 0
M  V30 2099 H 191.001 -2.09525 3.59497 0
M  V30 2100 H 189.877 -3.13861 4.50314 0
M  V30 2101 H 190.138 -3.42902 2.79053 0
M  V30 2102 N 189.197 -1.51736 -0.425897 0
M  V30 2103 C 190.129 -1.70083 -1.53638 0
M  V30 2104 C 191.142 -0.581349 -1.52066 0
M  V30 2105 O 192.331 -0.856017 -1.56635 0
M  V30 2106 C 189.431 -1.71078 -2.9255 0
M  V30 2107 C 188.604 -2.99795 -3.185 0
M  V30 2108 C 187.663 -2.92825 -4.37196 0
M  V30 2109 O 186.689 -3.66756 -4.35291 0
M  V30 2110 N 187.891 -2.0946 -5.41393 0
M  V30 2111 H 190.656 -2.65882 -1.383 0
M  V30 2112 H 188.217 -1.49765 -0.614988 0
M  V30 2113 H 190.209 -1.63969 -3.69995 0
M  V30 2114 H 188.779 -0.828242 -3.01428 0
M  V30 2115 H 187.999 -3.20684 -2.2925 0
M  V30 2116 H 189.287 -3.84977 -3.32671 0
M  V30 2117 H 188.685 -1.48792 -5.45781 0
M  V30 2118 H 187.242 -2.08221 -6.17647 0
M  V30 2119 N 190.675 0.682077 -1.42076 0
M  V30 2120 C 192.091 0.994324 -1.24841 0
M  V30 2121 C 192.291 2.0096 -0.147389 0
M  V30 2122 O 191.347 2.47822 0.483782 0
M  V30 2123 C 192.66 1.50607 -2.60265 0
M  V30 2124 C 194.208 1.62421 -2.6756 0
M  V30 2125 C 194.683 2.16994 -4.03333 0
M  V30 2126 N 196.174 2.24337 -4.0525 0
M  V30 2127 C 196.909 2.67621 -5.07116 0
M  V30 2128 N 196.405 3.1041 -6.19368 0
M  V30 2129 N 198.198 2.67305 -4.94474 0
M  V30 2130 H 190.349 0.00973908 -2.12398 0
M  V30 2131 H 192.612 0.0668593 -0.945639 0
M  V30 2132 H 192.318 0.834583 -3.41654 0
M  V30 2133 H 192.192 2.48602 -2.83684 0
M  V30 2134 H 194.579 2.28678 -1.86521 0
M  V30 2135 H 194.66 0.629352 -2.47937 0
M  V30 2136 H 194.304 1.51349 -4.84826 0
M  V30 2137 H 194.234 3.17258 -4.20304 0
M  V30 2138 H 196.725 1.94158 -3.24209 0
M  V30 2139 H 197.038 3.42103 -6.92954 0
M  V30 2140 H 195.383 3.08286 -6.22884 0
M  V30 2141 H 198.574 2.33233 -4.05857 0
M  V30 2142 H 198.747 3.00718 -5.73997 0
M  V30 2143 N 192.153 1.28127 0.917671 0
M  V30 2144 C 193.1 1.11717 2.0196 0
M  V30 2145 C 194.07 0.0153929 1.66093 0
M  V30 2146 O 195.255 0.179596 1.89953 0
M  V30 2147 C 192.395 0.780927 3.36148 0
M  V30 2148 C 191.508 1.96135 3.84909 0
M  V30 2149 C 190.643 1.56609 5.0759 0
M  V30 2150 C 189.682 2.71339 5.48673 0
M  V30 2151 N 188.819 2.32332 6.62545 0
M  V30 2152 H 193.659 2.06003 2.15329 0
M  V30 2153 H 191.196 1.02535 1.05475 0
M  V30 2154 H 193.154 0.56675 4.13333 0
M  V30 2155 H 191.784 -0.124998 3.22558 0
M  V30 2156 H 190.836 2.28777 3.03916 0
M  V30 2157 H 192.148 2.82165 4.1132 0
M  V30 2158 H 191.302 1.31374 5.92305 0
M  V30 2159 H 190.041 0.677014 4.82978 0
M  V30 2160 H 189.046 2.97276 4.62501 0
M  V30 2161 H 190.271 3.60882 5.75274 0
M  V30 2162 H 188.217 1.45889 6.39572 0
M  V30 2163 H 188.134 3.11899 6.88662 0
M  V30 2164 H 189.402 2.10371 7.50576 0
M  V30 2165 N 193.631 -1.12557 1.10312 0
M  V30 2166 C 194.594 -2.16434 0.75424 0
M  V30 2167 C 195.594 -1.59278 -0.220685 0
M  V30 2168 O 196.784 -1.742 0.00230591 0
M  V30 2169 C 193.916 -3.40699 0.116987 0
M  V30 2170 H 195.109 -2.48811 1.67431 0
M  V30 2171 H 192.662 -1.27542 0.903475 0
M  V30 2172 H 193.397 -3.13921 -0.813877 0
M  V30 2173 H 193.182 -3.83459 0.818613 0
M  V30 2174 H 194.672 -4.17451 -0.111387 0
M  V30 2175 N 195.109 -0.891671 -1.2995 0
M  V30 2176 C 196.358 -0.509521 -1.95158 0
M  V30 2177 C 196.671 0.947388 -1.71125 0
M  V30 2178 O 197.877 1.43669 -2.30372 0
M  V30 2179 C 196.333 -0.860315 -3.49466 0
M  V30 2180 C 195.941 -2.33545 -3.8231 0
M  V30 2181 C 197.685 -0.547687 -4.20952 0
M  V30 2182 C 195.592 -2.62752 -5.29826 0
M  V30 2183 H 194.522 -0.18682 -0.730489 0
M  V30 2184 H 197.173 -1.08756 -1.47798 0
M  V30 2185 H 195.555 -0.211285 -3.95436 0
M  V30 2186 H 196.729 -3.02936 -3.47227 0
M  V30 2187 H 195.044 -2.61629 -3.23944 0
M  V30 2188 H 197.641 -0.742854 -5.29515 0
M  V30 2189 H 197.984 0.51332 -4.13123 0
M  V30 2190 H 198.517 -1.1542 -3.80688 0
M  V30 2191 H 195.256 -3.6762 -5.42712 0
M  V30 2192 H 194.776 -1.97977 -5.66185 0
M  V30 2193 H 196.455 -2.48601 -5.97333 0
M  V30 2194 N 196.587 1.43421 -0.653314 0
M  V30 2195 C 197.537 2.2792 0.060558 0
M  V30 2196 C 198.521 1.39906 0.794677 0
M  V30 2197 O 199.713 1.63536 0.677128 0
M  V30 2198 C 196.842 3.27603 1.0262 0
M  V30 2199 C 195.928 4.23104 0.290551 0
M  V30 2200 N 196.319 5.01031 -0.692967 0
M  V30 2201 C 194.617 4.42816 0.531984 0
M  V30 2202 C 195.318 5.70626 -1.12963 0
M  V30 2203 N 194.294 5.41617 -0.463867 0
M  V30 2204 H 198.096 2.85585 -0.694143 0
M  V30 2205 H 195.61 1.55126 -0.480602 0
M  V30 2206 H 197.607 3.86918 1.55242 0
M  V30 2207 H 196.267 2.71499 1.78096 0
M  V30 2208 H 197.278 5.0669 -1.07169 0
M  V30 2209 H 193.955 3.97782 1.26791 0
M  V30 2210 H 195.345 6.4318 -1.94343 0
M  V30 2211 N 198.065 0.39524 1.52563 0
M  V30 2212 C 198.975 -0.444232 2.30356 0
M  V30 2213 C 199.991 -1.06615 1.37511 0
M  V30 2214 O 201.167 -1.07067 1.70583 0
M  V30 2215 C 198.232 -1.55315 3.09964 0
M  V30 2216 C 197.293 -0.955734 4.18526 0
M  V30 2217 C 196.526 -2.01181 4.9433 0
M  V30 2218 O 196.749 -3.22781 4.70285 0
M  V30 2219 O 195.683 -1.62579 5.79527 0
M  V30 2220 H 199.509 0.189667 3.03107 0
M  V30 2221 H 197.094 0.1588 1.48554 0
M  V30 2222 H 198.976 -2.19724 3.59582 0
M  V30 2223 H 197.651 -2.17191 2.4002 0
M  V30 2224 H 196.558 -0.274743 3.7309 0
M  V30 2225 H 197.891 -0.381109 4.90722 0
M  V30 2226 N 199.544 -1.57102 0.125237 0
M  V30 2227 C 200.474 -2.18659 -0.819174 0
M  V30 2228 C 201.455 -1.12843 -1.27281 0
M  V30 2229 O 202.64 -1.41104 -1.33429 0
M  V30 2230 C 199.77 -2.79096 -2.06695 0
M  V30 2231 C 198.724 -3.90548 -1.75088 0
M  V30 2232 C 198.05 -4.37821 -3.06948 0
M  V30 2233 C 199.35 -5.12356 -1.01435 0
M  V30 2234 H 201.044 -2.9783 -0.306202 0
M  V30 2235 H 198.59 -1.4326 -0.145839 0
M  V30 2236 H 200.543 -3.2082 -2.73226 0
M  V30 2237 H 199.267 -1.97223 -2.60328 0
M  V30 2238 H 197.926 -3.49409 -1.10944 0
M  V30 2239 H 197.574 -3.52799 -3.58527 0
M  V30 2240 H 197.274 -5.12982 -2.86571 0
M  V30 2241 H 198.798 -4.822 -3.74587 0
M  V30 2242 H 200.212 -5.5106 -1.58132 0
M  V30 2243 H 198.609 -5.9314 -0.911319 0
M  V30 2244 H 199.679 -4.849 -0.00218681 0
M  V30 2245 N 201.022 0.148545 -1.56898 0
M  V30 2246 C 202.271 0.85984 -1.82454 0
M  V30 2247 C 202.584 1.82406 -0.706229 0
M  V30 2248 O 203.79 2.57938 -0.847349 0
M  V30 2249 C 202.246 1.57967 -3.2338 0
M  V30 2250 C 201.854 0.65794 -4.43142 0
M  V30 2251 C 203.598 2.27784 -3.58211 0
M  V30 2252 C 201.505 1.3793 -5.75091 0
M  V30 2253 H 200.435 0.324834 -0.68044 0
M  V30 2254 H 203.086 0.112588 -1.83154 0
M  V30 2255 H 201.468 2.37249 -3.17063 0
M  V30 2256 H 202.642 -0.0995497 -4.60692 0
M  V30 2257 H 200.957 0.0682643 -4.16344 0
M  V30 2258 H 203.554 2.8239 -4.54048 0
M  V30 2259 H 203.897 3.04204 -2.84193 0
M  V30 2260 H 204.43 1.55421 -3.66182 0
M  V30 2261 H 201.169 0.656982 -6.52199 0
M  V30 2262 H 200.689 2.10954 -5.61479 0
M  V30 2263 H 202.368 1.92063 -6.17835 0
M  V30 2264 N 202.5 1.5196 0.417844 0
M  V30 2265 C 203.432 1.70895 1.52733 0
M  V30 2266 C 204.445 0.589405 1.51756 0
M  V30 2267 O 205.634 0.864312 1.56179 0
M  V30 2268 C 202.734 1.72627 2.91639 0
M  V30 2269 C 201.907 3.01479 3.16905 0
M  V30 2270 C 200.966 2.95139 4.35637 0
M  V30 2271 O 199.992 3.69059 4.3334 0
M  V30 2272 N 201.194 2.12328 5.40275 0
M  V30 2273 H 203.959 2.66612 1.36888 0
M  V30 2274 H 201.52 1.50089 0.607037 0
M  V30 2275 H 203.512 1.65928 3.6912 0
M  V30 2276 H 202.082 0.844216 3.00985 0
M  V30 2277 H 201.302 3.21895 2.27546 0
M  V30 2278 H 202.59 3.86736 3.30625 0
M  V30 2279 H 201.988 1.51685 5.44985 0
M  V30 2280 H 200.545 2.11494 6.16534 0
M  V30 2281 N 203.978 -0.674533 1.42435 0
M  V30 2282 C 205.224 -1.43671 1.43131 0
M  V30 2283 C 205.557 -1.94142 0.0476021 0
M  V30 2284 O 204.832 -1.70924 -0.928188 0
M  V30 2285 C 205.115 -2.63355 2.45594 0
M  V30 2286 C 204.968 -2.18514 3.93156 0
M  V30 2287 C 206.287 -3.65571 2.45043 0
M  V30 2288 H 203.406 -0.521077 0.521198 0
M  V30 2289 H 206.048 -0.766551 1.7385 0
M  V30 2290 H 204.198 -3.2053 2.19528 0
M  V30 2291 H 205.87 -1.66504 4.30202 0
M  V30 2292 H 204.113 -1.50086 4.07009 0
M  V30 2293 H 204.784 -3.04484 4.60428 0
M  V30 2294 H 207.26 -3.18113 2.68223 0
M  V30 2295 H 206.136 -4.46893 3.18713 0
M  V30 2296 H 206.397 -4.16716 1.47649 0
M  V30 2297 N 205.456 -1.28612 -0.910864 0
M  V30 2298 C 206.389 -1.07109 -2.01502 0
M  V30 2299 C 207.367 0.013706 -1.62594 0
M  V30 2300 O 208.551 -0.134796 -1.88017 0
M  V30 2301 C 205.678 -0.628255 -3.32822 0
M  V30 2302 C 204.724 -1.71012 -3.90714 0
M  V30 2303 S 205.557 -3.30676 -4.21205 0
M  V30 2304 C 206.713 -2.88234 -5.55583 0
M  V30 2305 H 206.946 -2.00591 -2.19432 0
M  V30 2306 H 204.479 -1.12633 -1.05609 0
M  V30 2307 H 206.437 -0.37946 -4.08742 0
M  V30 2308 H 205.098 0.28678 -3.12788 0
M  V30 2309 H 204.291 -1.35195 -4.85529 0
M  V30 2310 H 203.893 -1.91186 -3.21441 0
M  V30 2311 H 206.185 -2.34584 -6.35591 0
M  V30 2312 H 207.128 -3.81857 -5.96314 0
M  V30 2313 H 207.536 -2.26862 -5.16908 0
M  V30 2314 N 206.934 1.1197 -1.10907 0
M  V30 2315 C 207.897 2.16031 -0.765707 0
M  V30 2316 C 208.897 1.59393 0.212235 0
M  V30 2317 O 210.087 1.74196 -0.0115441 0
M  V30 2318 C 207.219 3.40632 -0.135053 0
M  V30 2319 H 208.412 2.47919 -1.68748 0
M  V30 2320 H 205.965 1.27061 -0.910226 0
M  V30 2321 H 206.7 3.14348 0.797218 0
M  V30 2322 H 206.485 3.8302 -0.838937 0
M  V30 2323 H 207.975 4.17505 0.0892469 0
M  V30 2324 N 208.412 0.89855 1.29475 0
M  V30 2325 C 209.322 0.379974 2.31502 0
M  V30 2326 C 210.338 -0.524695 1.659 0
M  V30 2327 O 211.514 -0.414551 1.97087 0
M  V30 2328 C 208.579 -0.385138 3.44554 0
M  V30 2329 C 207.64 0.550914 4.2575 0
M  V30 2330 C 206.873 -0.177778 5.33404 0
M  V30 2331 O 207.096 -1.40189 5.52904 0
M  V30 2332 O 206.03 0.479106 5.9999 0
M  V30 2333 H 209.856 1.22639 2.77837 0
M  V30 2334 H 207.441 0.662834 1.33891 0
M  V30 2335 H 209.323 -0.817841 4.13388 0
M  V30 2336 H 207.998 -1.20763 3.0033 0
M  V30 2337 H 206.905 1.03271 3.59564 0
M  V30 2338 H 208.238 1.33979 4.73614 0
M  V30 2339 N 209.89 -1.43072 0.660911 0
M  V30 2340 C 210.82 -2.33497 -0.0122829 0
M  V30 2341 C 211.801 -1.49903 -0.803925 0
M  V30 2342 O 212.986 -1.78546 -0.763864 0
M  V30 2343 C 210.116 -3.33363 -0.973994 0
M  V30 2344 C 209.07 -4.27003 -0.291928 0
M  V30 2345 C 208.396 -5.16967 -1.36562 0
M  V30 2346 C 209.696 -5.15816 0.820462 0
M  V30 2347 H 211.39 -2.90038 0.742873 0
M  V30 2348 H 208.936 -1.39461 0.358688 0
M  V30 2349 H 210.889 -3.95524 -1.45392 0
M  V30 2350 H 209.613 -2.75095 -1.7604 0
M  V30 2351 H 208.272 -3.66217 0.167623 0
M  V30 2352 H 207.92 -4.55034 -2.14366 0
M  V30 2353 H 207.62 -5.80441 -0.914454 0
M  V30 2354 H 209.144 -5.82003 -1.84675 0
M  V30 2355 H 210.558 -5.71742 0.422366 0
M  V30 2356 H 208.955 -5.8805 1.19656 0
M  V30 2357 H 210.025 -4.55045 1.67518 0
M  V30 2358 N 211.368 -0.403325 -1.52352 0
M  V30 2359 C 212.593 0.176499 -2.06648 0
M  V30 2360 C 213.018 1.38577 -1.27193 0
M  V30 2361 O 212.376 1.7879 -0.300637 0
M  V30 2362 C 212.424 0.511061 -3.5696 0
M  V30 2363 O 211.528 1.60294 -3.79973 0
M  V30 2364 H 210.869 0.0167337 -0.663789 0
M  V30 2365 H 213.399 -0.574848 -1.96359 0
M  V30 2366 H 213.409 0.771362 -4.00642 0
M  V30 2367 H 212.084 -0.37296 -4.14224 0
M  V30 2368 H 210.661 1.33526 -3.48174 0
M  V30 2369 N 212.846 1.57033 -0.133567 0
M  V30 2370 C 214.257 1.82593 0.389464 0
M  V30 2371 C 214.608 1.05156 1.6564 0
M  V30 2372 O 213.733 0.292644 2.14412 0
M  V30 2373 C 214.328 3.31204 0.713377 0
M  V30 2374 C 212.887 3.57393 1.18098 0
M  V30 2375 C 212.034 2.76598 0.197126 0
M  V30 2376 H 214.985 1.54598 -0.358481 0
M  V30 2377 H 215.006 3.46627 1.56939 0
M  V30 2378 H 214.518 3.87537 -0.2089 0
M  V30 2379 H 212.619 3.06433 2.11966 0
M  V30 2380 H 212.732 4.65915 1.11624 0
M  V30 2381 H 211.096 2.45257 0.687088 0
M  V30 2382 H 211.879 3.35697 -0.718504 0
M  V30 2383 N 214.325 -0.140222 1.56975 0
M  V30 2384 C 215.288 -1.15689 1.97861 0
M  V30 2385 C 216.288 -1.3549 0.865974 0
M  V30 2386 O 217.478 -1.32367 1.13246 0
M  V30 2387 C 214.61 -2.51582 2.30042 0
M  V30 2388 H 215.803 -0.805971 2.88867 0
M  V30 2389 H 213.356 -0.383801 1.51515 0
M  V30 2390 H 214.091 -2.91632 1.41849 0
M  V30 2391 H 213.876 -2.38569 3.11171 0
M  V30 2392 H 215.366 -3.24792 2.62488 0
M  V30 2393 N 215.803 -1.52179 -0.40978 0
M  V30 2394 C 216.766 -1.74853 -1.48186 0
M  V30 2395 C 217.766 -0.618417 -1.48433 0
M  V30 2396 O 218.956 -0.886286 -1.49969 0
M  V30 2397 C 216.088 -1.8303 -2.87598 0
M  V30 2398 H 217.281 -2.70559 -1.29374 0
M  V30 2399 H 214.834 -1.42586 -0.640233 0
M  V30 2400 H 215.569 -0.89236 -3.11781 0
M  V30 2401 H 215.354 -2.65187 -2.88822 0
M  V30 2402 H 216.844 -2.02316 -3.65319 0
M  V30 2403 N 217.281 0.66697 -1.42791 0
M  V30 2404 C 218.228 1.7803 -1.4688 0
M  V30 2405 C 219.198 1.6299 -0.319919 0
M  V30 2406 O 220.383 1.83432 -0.525118 0
M  V30 2407 C 217.523 3.1611 -1.38451 0
M  V30 2408 C 216.636 3.42381 -2.63437 0
M  V30 2409 C 215.771 4.70232 -2.47094 0
M  V30 2410 C 214.81 4.89564 -3.67415 0
M  V30 2411 N 213.947 6.08661 -3.49966 0
M  V30 2412 H 218.787 1.7387 -2.42019 0
M  V30 2413 H 216.324 0.84868 -1.20149 0
M  V30 2414 H 218.282 3.95914 -1.31561 0
M  V30 2415 H 216.912 3.19374 -0.469033 0
M  V30 2416 H 215.964 2.56774 -2.80662 0
M  V30 2417 H 217.276 3.52557 -3.52853 0
M  V30 2418 H 216.43 5.5814 -2.37834 0
M  V30 2419 H 215.169 4.62353 -1.5518 0
M  V30 2420 H 214.174 4.00096 -3.77099 0
M  V30 2421 H 215.399 4.99282 -4.6032 0
M  V30 2422 H 213.345 6.0194 -2.60776 0
M  V30 2423 H 213.262 6.19733 -4.32975 0
M  V30 2424 H 214.53 6.99226 -3.44532 0
M  V30 2425 N 218.759 1.29093 0.90403 0
M  V30 2426 C 219.987 1.19689 1.68766 0
M  V30 2427 C 220.402 -0.243113 1.87228 0
M  V30 2428 O 219.759 -1.16326 1.40621 0
M  V30 2429 C 219.81 1.90144 3.07453 0
M  V30 2430 O 219.531 3.2852 2.89838 0
M  V30 2431 C 221.032 1.87162 4.01852 0
M  V30 2432 H 218.252 0.415035 0.527244 0
M  V30 2433 H 220.796 1.7039 1.13082 0
M  V30 2434 H 218.951 1.43289 3.59926 0
M  V30 2435 H 219.365 3.63944 3.77684 0
M  V30 2436 H 220.839 2.41032 4.96596 0
M  V30 2437 H 221.316 0.84617 4.30972 0
M  V30 2438 H 221.922 2.33741 3.5531 0
M  V30 2439 N 220.237 -1.11381 1.11499 0
M  V30 2440 C 221.485 -1.8277 0.862524 0
M  V30 2441 C 221.806 -1.85097 -0.613534 0
M  V30 2442 O 221.076 -1.32198 -1.4457 0
M  V30 2443 H 219.656 -0.676823 0.316101 0
M  V30 2444 H 222.318 -1.34816 1.4075 0
M  V30 2445 H 221.414 -2.86614 1.23527 0
M  V30 2446 N 221.715 -0.905404 -1.28997 0
M  V30 2447 C 222.662 -0.385892 -2.27551 0
M  V30 2448 C 223.632 0.535113 -1.57244 0
M  V30 2449 O 224.817 0.459119 -1.85194 0
M  V30 2450 C 221.957 0.375461 -3.43051 0
M  V30 2451 C 221.07 -0.577092 -4.28128 0
M  V30 2452 C 220.205 0.201879 -5.30816 0
M  V30 2453 C 219.244 -0.744829 -6.07551 0
M  V30 2454 N 218.381 9.42587e-05 -7.021 0
M  V30 2455 H 223.221 -1.23139 -2.71368 0
M  V30 2456 H 220.758 -0.618542 -1.33463 0
M  V30 2457 H 222.716 0.832992 -4.088 0
M  V30 2458 H 221.346 1.18537 -3.00248 0
M  V30 2459 H 220.398 -1.15315 -3.62501 0
M  V30 2460 H 221.71 -1.30152 -4.8152 0
M  V30 2461 H 220.864 0.720351 -6.02408 0
M  V30 2462 H 219.603 0.959413 -4.7817 0
M  V30 2463 H 218.608 -1.27475 -5.34818 0
M  V30 2464 H 219.833 -1.50178 -6.62286 0
M  V30 2465 H 217.779 0.739791 -6.51815 0
M  V30 2466 H 217.696 -0.664321 -7.53076 0
M  V30 2467 H 218.964 0.498644 -7.77903 0
M  V30 2468 N 223.193 1.4272 -0.668489 0
M  V30 2469 C 224.609 1.55992 -0.33745 0
M  V30 2470 C 224.809 1.64933 1.15756 0
M  V30 2471 O 223.865 1.61278 1.94282 0
M  V30 2472 C 225.178 2.81314 -1.06222 0
M  V30 2473 C 226.726 2.95078 -1.04394 0
M  V30 2474 C 227.201 4.23252 -1.74991 0
M  V30 2475 N 228.692 4.3015 -1.71829 0
M  V30 2476 C 229.427 5.28127 -2.23315 0
M  V30 2477 N 228.923 6.32293 -2.83156 0
M  V30 2478 N 230.716 5.19882 -2.13726 0
M  V30 2479 H 222.867 1.3516 -1.63846 0
M  V30 2480 H 225.13 0.650174 -0.689912 0
M  V30 2481 H 224.836 2.80823 -2.11734 0
M  V30 2482 H 224.71 3.72012 -0.62344 0
M  V30 2483 H 227.097 2.951 0.0028244 0
M  V30 2484 H 227.178 2.05627 -1.52155 0
M  V30 2485 H 226.822 4.2399 -2.79633 0
M  V30 2486 H 226.752 5.11626 -1.24685 0
M  V30 2487 H 229.243 3.55499 -1.28175 0
M  V30 2488 H 229.556 7.03398 -3.20079 0
M  V30 2489 H 227.901 6.32873 -2.87223 0
M  V30 2490 H 231.092 4.37423 -1.66669 0
M  V30 2491 H 231.265 5.96077 -2.54158 0
M  V30 2492 N 224.671 0.411399 1.52136 0
M  V30 2493 C 225.618 -0.412975 2.27075 0
M  V30 2494 C 226.588 -1.03912 1.29582 0
M  V30 2495 O 227.773 -1.06296 1.58448 0
M  V30 2496 C 224.913 -1.52247 3.09701 0
M  V30 2497 C 224.026 -0.917021 4.22155 0
M  V30 2498 C 223.161 -1.9994 4.92135 0
M  V30 2499 C 222.2 -1.37101 5.96548 0
M  V30 2500 N 221.337 -2.39364 6.60038 0
M  V30 2501 H 226.177 0.232499 2.97092 0
M  V30 2502 H 223.714 0.126496 1.46555 0
M  V30 2503 H 225.672 -2.17674 3.55913 0
M  V30 2504 H 224.302 -2.13794 2.41851 0
M  V30 2505 H 223.354 -0.151742 3.80097 0
M  V30 2506 H 224.666 -0.418006 4.97045 0
M  V30 2507 H 223.82 -2.73088 5.41763 0
M  V30 2508 H 222.559 -2.53208 4.16818 0
M  V30 2509 H 221.564 -0.624873 5.46237 0
M  V30 2510 H 222.789 -0.845998 6.7381 0
M  V30 2511 H 220.735 -2.91759 5.87548 0
M  V30 2512 H 220.652 -1.9428 7.3061 0
M  V30 2513 H 221.92 -3.12074 7.14304 0
M  V30 2514 N 226.149 -1.5696 0.141893 0
M  V30 2515 C 227.565 -1.58151 -0.21456 0
M  V30 2516 C 227.765 -1.1559 -1.65049 0
M  V30 2517 O 226.821 -0.853832 -2.37626 0
M  V30 2518 C 228.134 -3.00674 0.0395576 0
M  V30 2519 C 229.682 -3.1299 -0.0245529 0
M  V30 2520 C 230.157 -4.57554 0.202167 0
M  V30 2521 N 231.648 -4.62961 0.148919 0
M  V30 2522 C 232.383 -5.7262 0.298924 0
M  V30 2523 N 231.879 -6.90947 0.50637 0
M  V30 2524 N 233.672 -5.61601 0.236886 0
M  V30 2525 H 225.823 -1.8292 1.07953 0
M  V30 2526 H 228.086 -0.846425 0.42693 0
M  V30 2527 H 227.792 -3.36183 1.03315 0
M  V30 2528 H 227.666 -3.70981 -0.682143 0
M  V30 2529 H 230.053 -2.77326 -1.00869 0
M  V30 2530 H 230.134 -2.4518 0.729396 0
M  V30 2531 H 229.778 -4.93922 1.18338 0
M  V30 2532 H 229.708 -5.23484 -0.572044 0
M  V30 2533 H 232.199 -3.77899 -0.00697015 0
M  V30 2534 H 232.512 -7.7038 0.611076 0
M  V30 2535 H 230.857 -6.92878 0.542628 0
M  V30 2536 H 234.048 -4.68039 0.0756209 0
M  V30 2537 H 234.221 -6.47015 0.357227 0
M  V30 2538 N 227.627 0.131896 -1.57047 0
M  V30 2539 C 228.852 0.860418 -1.8871 0
M  V30 2540 C 229.277 1.73251 -0.73251 0
M  V30 2541 O 228.635 1.785 0.317429 0
M  V30 2542 C 228.683 1.68047 -3.19049 0
M  V30 2543 O 227.787 2.7862 -3.04047 0
M  V30 2544 H 227.128 0.238743 -0.619595 0
M  V30 2545 H 229.658 0.118169 -2.04258 0
M  V30 2546 H 229.668 2.07238 -3.51449 0
M  V30 2547 H 228.343 1.04018 -4.02682 0
M  V30 2548 H 226.92 2.42726 -2.83088 0
M  V30 2549 N 229.106 1.52395 0.401703 0
M  V30 2550 C 230.038 1.72505 1.50912 0
M  V30 2551 C 231.051 0.605468 1.51122 0
M  V30 2552 O 232.24 0.880828 1.55254 0
M  V30 2553 C 229.34 1.75711 2.89791 0
M  V30 2554 C 228.513 3.04824 3.1369 0
M  V30 2555 C 227.572 2.99743 4.32482 0
M  V30 2556 O 226.598 3.73635 4.29402 0
M  V30 2557 N 227.8 2.18047 5.37992 0
M  V30 2558 H 230.565 2.68049 1.34052 0
M  V30 2559 H 228.126 1.50724 0.591084 0
M  V30 2560 H 230.118 1.69834 3.6734 0
M  V30 2561 H 228.688 0.876092 3.00072 0
M  V30 2562 H 227.908 3.2429 2.24119 0
M  V30 2563 H 229.196 3.90221 3.26504 0
M  V30 2564 H 228.594 1.57456 5.43345 0
M  V30 2565 H 227.151 2.18021 6.14256 0
M  V30 2566 N 230.584 -0.659388 1.43143 0
M  V30 2567 C 231.517 -1.78425 1.42267 0
M  V30 2568 C 232.495 -1.60085 0.284894 0
M  V30 2569 O 233.679 -1.82351 0.477527 0
M  V30 2570 C 230.806 -3.15642 1.22833 0
M  V30 2571 C 229.852 -3.52698 2.39806 0
M  V30 2572 S 230.685 -3.53372 4.02353 0
M  V30 2573 C 231.841 -4.93256 3.85291 0
M  V30 2574 H 232.074 -1.78897 2.37452 0
M  V30 2575 H 229.607 -0.831469 1.301 0
M  V30 2576 H 231.565 -3.94838 1.12308 0
M  V30 2577 H 230.226 -3.12739 0.29207 0
M  V30 2578 H 229.419 -4.52475 2.21996 0
M  V30 2579 H 229.021 -2.80899 2.46925 0
M  V30 2580 H 231.313 -5.81751 3.47235 0
M  V30 2581 H 232.256 -5.16115 4.84799 0
M  V30 2582 H 232.664 -4.665 3.17865 0
M  V30 2583 N 232.062 -1.29571 -0.897171 0
M  V30 2584 C 232.992 -1.17473 -2.01798 0
M  V30 2585 C 233.973 -0.068323 -1.69963 0
M  V30 2586 O 235.158 -0.248239 -1.92607 0
M  V30 2587 C 232.288 -0.853099 -3.36659 0
M  V30 2588 C 231.242 -1.9161 -3.82713 0
M  V30 2589 C 230.568 -1.44773 -5.14728 0
M  V30 2590 C 231.868 -3.32535 -4.02763 0
M  V30 2591 H 233.562 -2.11237 -2.12177 0
M  V30 2592 H 231.108 -1.01699 -1.01948 0
M  V30 2593 H 233.061 -0.755165 -4.14578 0
M  V30 2594 H 231.785 0.120236 -3.26379 0
M  V30 2595 H 230.444 -2.00346 -3.07013 0
M  V30 2596 H 230.092 -0.462995 -5.00865 0
M  V30 2597 H 229.792 -2.15865 -5.46513 0
M  V30 2598 H 231.316 -1.36334 -5.95185 0
M  V30 2599 H 232.73 -3.26626 -4.71156 0
M  V30 2600 H 231.127 -4.01607 -4.45905 0
M  V30 2601 H 232.197 -3.75326 -3.07016 0
M  V30 2602 N 233.54 1.10788 -1.12088 0
M  V30 2603 C 234.787 1.82671 -0.873931 0
M  V30 2604 C 235.115 1.85004 0.600311 0
M  V30 2605 O 234.37 1.30365 1.45957 0
M  V30 2606 C 234.669 3.29294 -1.38926 0
M  V30 2607 C 234.335 3.47113 -2.87791 0
M  V30 2608 C 232.997 3.51684 -3.28439 0
M  V30 2609 C 235.349 3.52808 -3.83635 0
M  V30 2610 C 232.677 3.59513 -4.63646 0
M  V30 2611 C 235.029 3.62169 -5.18668 0
M  V30 2612 C 233.693 3.65003 -5.58864 0
M  V30 2613 H 232.963 0.668441 -0.319794 0
M  V30 2614 H 235.61 1.30613 -1.40045 0
M  V30 2615 H 233.915 3.83894 -0.783122 0
M  V30 2616 H 235.612 3.83416 -1.17443 0
M  V30 2617 H 232.202 3.4423 -2.5535 0
M  V30 2618 H 236.386 3.4853 -3.53328 0
M  V30 2619 H 231.642 3.59987 -4.94185 0
M  V30 2620 H 235.816 3.6552 -5.92763 0
M  V30 2621 H 233.443 3.70822 -6.63623 0
M  V30 2622 N 235.018 0.912232 1.28515 0
M  V30 2623 C 236.434 0.610159 1.47476 0
M  V30 2624 C 236.634 -0.844955 1.82928 0
M  V30 2625 O 235.69 -1.62416 1.93332 0
M  V30 2626 C 237.003 1.54675 2.57868 0
M  V30 2627 C 238.551 1.55331 2.71738 0
M  V30 2628 C 239.026 2.47649 3.85272 0
M  V30 2629 N 240.517 2.45767 3.92623 0
M  V30 2630 C 241.252 3.13896 4.79851 0
M  V30 2631 N 240.748 3.9135 5.71679 0
M  V30 2632 N 242.541 3.02991 4.73448 0
M  V30 2633 H 234.692 1.85318 1.03783 0
M  V30 2634 H 236.955 0.794777 0.516753 0
M  V30 2635 H 236.661 2.5841 2.38574 0
M  V30 2636 H 236.535 1.27671 3.54937 0
M  V30 2637 H 238.922 0.52335 2.90422 0
M  V30 2638 H 239.003 1.86378 1.75205 0
M  V30 2639 H 238.647 3.50745 3.67342 0
M  V30 2640 H 238.577 2.13904 4.81199 0
M  V30 2641 H 241.068 1.89503 3.26951 0
M  V30 2642 H 241.381 4.40359 6.35062 0
M  V30 2643 H 239.726 3.95455 5.71524 0
M  V30 2644 H 242.917 2.41987 4.007 0
M  V30 2645 H 243.09 3.5636 5.41213 0
M  V30 2646 N 236.496 -1.42363 0.676048 0
M  V30 2647 C 237.744 -2.01123 0.198437 0
M  V30 2648 C 238.065 -1.53731 -1.19966 0
M  V30 2649 O 237.335 -0.759518 -1.80577 0
M  V30 2650 H 235.915 -0.743678 0.0703721 0
M  V30 2651 H 238.577 -1.74263 0.872837 0
M  V30 2652 H 237.673 -3.11454 0.200686 0
M  V30 2653 N 237.974 -0.419461 -1.51915 0
M  V30 2654 C 239.39 -0.0708431 -1.59443 0
M  V30 2655 C 239.59 1.41796 -1.43164 0
M  V30 2656 O 238.646 2.18596 -1.26381 0
M  V30 2657 C 239.959 -0.574991 -2.95151 0
M  V30 2658 C 241.507 -0.533867 -3.08413 0
M  V30 2659 C 241.982 -1.01469 -4.46618 0
M  V30 2660 N 243.473 -0.971939 -4.52888 0
M  V30 2661 C 244.208 -1.31505 -5.58116 0
M  V30 2662 N 243.704 -1.73014 -6.70849 0
M  V30 2663 N 245.497 -1.23436 -5.48379 0
M  V30 2664 H 237.648 -1.38836 -1.60743 0
M  V30 2665 H 239.911 -0.570998 -0.756747 0
M  V30 2666 H 239.617 -1.61597 -3.12377 0
M  V30 2667 H 239.491 0.00979777 -3.77199 0
M  V30 2668 H 241.878 0.498086 -2.90866 0
M  V30 2669 H 241.959 -1.15484 -2.28248 0
M  V30 2670 H 241.603 -2.04502 -4.6491 0
M  V30 2671 H 241.533 -0.370433 -5.25295 0
M  V30 2672 H 244.024 -0.666893 -3.71969 0
M  V30 2673 H 244.337 -1.97479 -7.47143 0
M  V30 2674 H 242.682 -1.76926 -6.72103 0
M  V30 2675 H 245.873 -0.908869 -4.59192 0
M  V30 2676 H 246.046 -1.50506 -6.30279 0
M  V30 2677 N 239.452 1.56882 -0.150215 0
M  V30 2678 C 240.868 1.58263 0.20617 0
M  V30 2679 C 241.068 1.16464 1.64434 0
M  V30 2680 O 240.124 0.866422 2.3717 0
M  V30 2681 C 241.437 3.00649 -0.0555025 0
M  V30 2682 C 242.985 3.12999 0.00795388 0
M  V30 2683 C 243.46 4.5744 -0.226429 0
M  V30 2684 N 244.951 4.62875 -0.173469 0
M  V30 2685 C 245.686 5.72454 -0.329288 0
M  V30 2686 N 245.182 6.90669 -0.543005 0
M  V30 2687 N 246.975 5.61467 -0.266666 0
M  V30 2688 H 239.126 1.82345 -1.08922 0
M  V30 2689 H 241.389 0.844149 -0.431413 0
M  V30 2690 H 241.095 3.3563 -1.05096 0
M  V30 2691 H 240.969 3.71337 0.66246 0
M  V30 2692 H 243.356 2.77857 0.993966 0
M  V30 2693 H 243.437 2.4479 -0.742388 0
M  V30 2694 H 243.081 4.93287 -1.20956 0
M  V30 2695 H 243.011 5.2378 0.544274 0
M  V30 2696 H 245.502 3.77898 -0.0130709 0
M  V30 2697 H 245.815 7.70045 -0.651922 0
M  V30 2698 H 244.16 6.92581 -0.579366 0
M  V30 2699 H 247.351 4.67992 -0.100441 0
M  V30 2700 H 247.524 6.46816 -0.391535 0
M  V30 2701 N 240.93 -0.123565 1.57115 0
M  V30 2702 C 241.893 -1.13583 1.99076 0
M  V30 2703 C 242.893 -1.34564 0.880296 0
M  V30 2704 O 244.083 -1.31158 1.14644 0
M  V30 2705 C 241.215 -2.49128 2.32698 0
M  V30 2706 H 242.408 -0.775287 2.89706 0
M  V30 2707 H 239.961 -0.36771 1.51913 0
M  V30 2708 H 240.696 -2.90111 1.44934 0
M  V30 2709 H 240.481 -2.35255 3.13684 0
M  V30 2710 H 241.971 -3.2199 2.65918 0
M  V30 2711 N 242.408 -1.52605 -0.393616 0
M  V30 2712 C 243.633 -1.71592 -1.16495 0
M  V30 2713 C 244.058 -0.43133 -1.83088 0
M  V30 2714 O 243.416 0.612523 -1.7064 0
M  V30 2715 C 243.464 -2.86318 -2.19213 0
M  V30 2716 O 242.568 -2.52969 -3.257 0
M  V30 2717 H 241.909 -0.570734 -0.33935 0
M  V30 2718 H 244.439 -1.99377 -0.459324 0
M  V30 2719 H 244.449 -3.1168 -2.63286 0
M  V30 2720 H 243.124 -3.79511 -1.7013 0
M  V30 2721 H 241.701 -2.38332 -2.86797 0
M  V30 2722 N 243.887 0.651787 -1.4349 0
M  V30 2723 C 244.819 1.77725 -1.44729 0
M  V30 2724 C 245.832 1.59141 -0.343231 0
M  V30 2725 O 247.021 1.67835 -0.607751 0
M  V30 2726 C 244.121 3.15172 -1.24579 0
M  V30 2727 C 243.294 3.60402 -2.47849 0
M  V30 2728 C 242.353 4.76656 -2.22902 0
M  V30 2729 O 241.379 4.86022 -2.96263 0
M  V30 2730 N 242.581 5.66958 -1.24656 0
M  V30 2731 H 245.346 1.77141 -2.41746 0
M  V30 2732 H 242.907 0.835678 -1.38665 0
M  V30 2733 H 244.899 3.90634 -1.0577 0
M  V30 2734 H 243.469 3.1052 -0.360015 0
M  V30 2735 H 242.689 2.75369 -2.82073 0
M  V30 2736 H 243.977 3.87368 -3.29884 0
M  V30 2737 H 243.375 5.62065 -0.640265 0
M  V30 2738 H 241.932 6.42135 -1.1183 0
M  V30 2739 O 245.404 1.40586 0.794848 0
M  V30 2740 H 246.095 1.29493 1.44053 0
M  V30 END ATOM
M  V30 BEGIN BOND
M  V30 END BOND
M  V30 END CTAB
M  END
$$$$
