drugbank_target|P04818 Thymidylate synthase (DB00293; DB00322; DB00432; DB00441; DB00544; DB00563; DB00642; DB01101; DB01643; DB03541; DB03800; DB04530; DB05116; DB05308; DB05457; DB06813; DB07577; DB08478; DB08479; DB08734; DB09256; DB09327)
 OpenBabel12092119293D

  0  0  0     0  0            999 V3000
M  V30 BEGIN CTAB
M  V30 COUNTS 5007 5073 0 0 0
M  V30 BEGIN ATOM
M  V30 1 H -0.908 1.98254 -0.117106 0
M  V30 2 N 0 1.576 0 0
M  V30 3 C 0.933 2.03868 1.02534 0
M  V30 4 C 1.911 0.928543 1.3348 0
M  V30 5 O 3.095 1.19667 1.45644 0
M  V30 6 C 0.222 2.43627 2.35294 0
M  V30 7 C -0.732 3.65373 2.2001 0
M  V30 8 S 0.101 5.13292 1.52614 0
M  V30 9 C 1.257 5.56322 2.86805 0
M  V30 10 H 1.49 2.90518 0.631377 0
M  V30 11 H -0.977 1.52953 0.210867 0
M  V30 12 H 0.981 2.67203 3.11629 0
M  V30 13 H -0.358 1.57376 2.7183 0
M  V30 14 H -1.165 3.90944 3.18086 0
M  V30 15 H -1.563 3.418 1.51819 0
M  V30 16 H 0.729 5.58782 3.83104 0
M  V30 17 H 1.672 6.56266 2.65933 0
M  V30 18 H 2.08 4.83886 2.90714 0
M  V30 19 N 1.4781 -0.272755 1.55222 0
M  V30 20 C 2.8891 -0.84378 1.66545 0
M  V30 21 C 3.2401 -1.87035 0.592641 0
M  V30 22 O 2.3651 -2.14761 -0.265818 0
M  V30 23 C 2.9601 -1.53723 3.01918 0
M  V30 24 C 1.5191 -2.05628 3.15268 0
M  V30 25 C 0.6661 -0.898424 2.62343 0
M  V30 26 H 3.6171 -0.0490998 1.58624 0
M  V30 27 H 3.6381 -2.40421 2.94921 0
M  V30 28 H 3.1501 -0.78983 3.79978 0
M  V30 29 H 1.2511 -2.83329 2.41983 0
M  V30 30 H 1.3641 -2.27142 4.21833 0
M  V30 31 H -0.2719 -1.29186 2.19506 0
M  V30 32 H 0.5111 -0.164528 3.42906 0
M  V30 33 N 2.9562 -1.48159 -0.537278 0
M  V30 34 C 4.2022 -1.56035 -1.29541 0
M  V30 35 C 4.5352 -0.230377 -1.92829 0
M  V30 36 O 3.8102 0.762952 -1.78911 0
M  V30 37 C 4.0932 -2.69323 -2.39034 0
M  V30 38 C 3.9462 -4.12002 -1.80485 0
M  V30 39 C 5.2652 -2.78408 -3.40847 0
M  V30 40 H 2.3842 -0.567992 -0.469632 0
M  V30 41 H 5.0262 -1.80302 -0.599277 0
M  V30 42 H 3.1762 -2.48763 -2.98412 0
M  V30 43 H 4.8482 -4.43981 -1.25215 0
M  V30 44 H 3.0912 -4.19344 -1.11055 0
M  V30 45 H 3.7622 -4.87077 -2.59731 0
M  V30 46 H 6.2382 -2.97012 -2.91416 0
M  V30 47 H 5.1142 -3.59416 -4.14863 0
M  V30 48 H 5.3752 -1.86269 -4.00944 0
M  V30 49 N 4.4343 0.785586 -1.36625 0
M  V30 50 C 5.3973 1.87999 -1.31107 0
M  V30 51 C 6.3973 1.59316 -0.217959 0
M  V30 52 O 7.5873 1.67656 -0.472977 0
M  V30 53 C 4.7193 3.24861 -1.03334 0
M  V30 54 H 5.9123 1.94307 -2.2844 0
M  V30 55 H 3.4653 0.983813 -1.21453 0
M  V30 56 H 4.2003 3.24235 -0.0647432 0
M  V30 57 H 3.9853 3.4707 -1.82441 0
M  V30 58 H 5.4753 4.04929 -1.02088 0
M  V30 59 N 5.9124 1.20967 1.01018 0
M  V30 60 C 7.1604 1.02172 1.74371 0
M  V30 61 C 7.4814 -0.446414 1.89821 0
M  V30 62 O 6.7514 -1.32234 1.44537 0
M  V30 63 H 5.3314 0.375066 0.646014 0
M  V30 64 H 7.9934 1.52187 1.21758 0
M  V30 65 H 7.0894 1.48538 2.74487 0
M  V30 66 N 7.3905 -1.2043 1.01659 0
M  V30 67 C 8.6155 -1.94318 0.724942 0
M  V30 68 C 9.0405 -1.74266 -0.708034 0
M  V30 69 O 8.3985 -1.03694 -1.48719 0
M  V30 70 C 8.4465 -3.44486 1.06591 0
M  V30 71 O 7.5505 -4.12017 0.177599 0
M  V30 72 H 6.8915 -0.60708 0.26898 0
M  V30 73 H 9.4215 -1.52861 1.35995 0
M  V30 74 H 9.4315 -3.95106 1.01762 0
M  V30 75 H 8.1065 -3.58404 2.10997 0
M  V30 76 H 6.6835 -3.71821 0.283421 0
M  V30 77 N 8.8686 -0.792821 -1.36206 0
M  V30 78 C 9.7786 -0.194808 -2.3379 0
M  V30 79 C 10.7946 0.654869 -1.61206 0
M  V30 80 O 11.9706 0.569856 -1.9317 0
M  V30 81 C 9.0356 0.657721 -3.40404 0
M  V30 82 C 8.0966 -0.210849 -4.28782 0
M  V30 83 C 7.3296 0.601086 -5.30304 0
M  V30 84 O 7.5526 1.83682 -5.40016 0
M  V30 85 O 6.4866 -0.000808277 -6.019 0
M  V30 86 H 10.3126 -1.00172 -2.86704 0
M  V30 87 H 7.8976 -0.554341 -1.38735 0
M  V30 88 H 9.7796 1.14375 -4.05581 0
M  V30 89 H 8.4546 1.44247 -2.89784 0
M  V30 90 H 7.3616 -0.743714 -3.66633 0
M  V30 91 H 8.6946 -0.959195 -4.82763 0
M  V30 92 N 10.3467 1.47872 -0.545128 0
M  V30 93 C 11.2767 2.32661 0.197793 0
M  V30 94 C 12.2577 1.43041 0.920504 0
M  V30 95 O 13.4427 1.71912 0.90333 0
M  V30 96 C 10.5727 3.24569 1.23582 0
M  V30 97 C 9.5267 4.23333 0.630323 0
M  V30 98 C 8.8527 5.0448 1.77211 0
M  V30 99 C 10.1527 5.20704 -0.407974 0
M  V30 100 H 11.8467 2.95024 -0.510045 0
M  V30 101 H 9.3927 1.4187 -0.246731 0
M  V30 102 H 11.3457 3.8272 1.76362 0
M  V30 103 H 10.0697 2.60236 1.97344 0
M  V30 104 H 8.7287 3.6639 0.123922 0
M  V30 105 H 8.3767 4.36561 2.49847 0
M  V30 106 H 8.0767 5.71339 1.37281 0
M  V30 107 H 9.6007 5.65487 2.3034 0
M  V30 108 H 11.0147 5.7329 0.033305 0
M  V30 109 H 9.4117 5.95699 -0.725486 0
M  V30 110 H 10.4817 4.66917 -1.30828 0
M  V30 111 N 11.8248 0.280983 1.55075 0
M  V30 112 C 13.2358 -0.215629 1.85451 0
M  V30 113 C 13.5868 -1.54991 1.203 0
M  V30 114 O 12.7118 -2.10699 0.493435 0
M  V30 115 C 13.3068 -0.398026 3.36454 0
M  V30 116 C 11.8658 -0.838866 3.66933 0
M  V30 117 C 11.0128 0.064458 2.77225 0
M  V30 118 H 13.9638 0.502601 1.50531 0
M  V30 119 H 13.9848 -1.23569 3.59876 0
M  V30 120 H 13.4968 0.573241 3.83843 0
M  V30 121 H 11.5978 -1.8214 3.25048 0
M  V30 122 H 11.7108 -0.672123 4.74362 0
M  V30 123 H 10.0748 -0.452863 2.50642 0
M  V30 124 H 10.8578 1.03172 3.2743 0
M  V30 125 N 13.3029 -1.57598 0.00835791 0
M  V30 126 C 14.7189 -1.55764 -0.347822 0
M  V30 127 C 14.9189 -1.01186 -1.74252 0
M  V30 128 O 13.9749 -0.649371 -2.44007 0
M  V30 129 C 15.2879 -2.99927 -0.215407 0
M  V30 130 C 16.8359 -3.11656 -0.289725 0
M  V30 131 C 17.3109 -4.57621 -0.18634 0
M  V30 132 N 18.8019 -4.62557 -0.243978 0
M  V30 133 C 19.5369 -5.73094 -0.18745 0
M  V30 134 N 19.0329 -6.92753 -0.0810331 0
M  V30 135 N 20.8259 -5.61588 -0.239925 0
M  V30 136 H 12.9769 -1.91411 0.92062 0
M  V30 137 H 15.2399 -0.879562 0.353659 0
M  V30 138 H 14.9459 -3.43729 0.744512 0
M  V30 139 H 14.8199 -3.63865 -0.994097 0
M  V30 140 H 17.2069 -2.67779 -1.24009 0
M  V30 141 H 17.2879 -2.5048 0.51898 0
M  V30 142 H 16.9319 -5.02174 0.760519 0
M  V30 143 H 16.8619 -5.16752 -1.01364 0
M  V30 144 H 19.3529 -3.76481 -0.327217 0
M  V30 145 H 19.6659 -7.72787 -0.0440241 0
M  V30 146 H 18.0109 -6.94984 -0.0465419 0
M  V30 147 H 21.2019 -4.66996 -0.321317 0
M  V30 148 H 21.3749 -6.47714 -0.192407 0
M  V30 149 N 14.781 0.264519 -1.55364 0
M  V30 150 C 16.197 0.61215 -1.47394 0
M  V30 151 C 16.397 1.89134 -0.695018 0
M  V30 152 O 15.453 2.51563 -0.217275 0
M  V30 153 C 16.766 0.731235 -2.91674 0
M  V30 154 C 18.314 0.82473 -3.01939 0
M  V30 155 C 18.789 0.975522 -4.4749 0
M  V30 156 N 20.28 1.04083 -4.51354 0
M  V30 157 C 21.015 1.17646 -5.61201 0
M  V30 158 N 20.511 1.27874 -6.80896 0
M  V30 159 N 22.304 1.20823 -5.48961 0
M  V30 160 H 14.455 -0.575456 -2.04456 0
M  V30 161 H 16.718 -0.196099 -0.927496 0
M  V30 162 H 16.424 -0.138392 -3.51428 0
M  V30 163 H 16.298 1.60883 -3.41169 0
M  V30 164 H 18.685 1.68482 -2.42276 0
M  V30 165 H 18.766 -0.0776479 -2.55682 0
M  V30 166 H 18.41 0.120058 -5.07758 0
M  V30 167 H 18.34 1.89268 -4.91412 0
M  V30 168 H 20.831 0.973846 -3.65136 0
M  V30 169 H 21.144 1.38081 -7.60364 0
M  V30 170 H 19.489 1.24863 -6.83692 0
M  V30 171 H 22.68 1.12469 -4.54388 0
M  V30 172 H 22.853 1.31049 -6.3461 0
M  V30 173 N 16.2591 1.48442 0.529413 0
M  V30 174 C 17.6701 1.5002 1.11134 0
M  V30 175 C 18.0211 0.27031 1.94329 0
M  V30 176 O 17.1461 -0.622507 2.07253 0
M  V30 177 C 17.7411 2.71834 2.02217 0
M  V30 178 C 16.3001 2.76283 2.55627 0
M  V30 179 C 15.4471 2.43542 1.326 0
M  V30 180 H 18.3981 1.5555 0.314641 0
M  V30 181 H 18.4191 2.50384 2.8651 0
M  V30 182 H 17.9311 3.61331 1.41639 0
M  V30 183 H 16.0321 1.90995 3.19924 0
M  V30 184 H 16.1451 3.77725 2.94721 0
M  V30 185 H 14.5091 1.94709 1.64196 0
M  V30 186 H 15.2921 3.3528 0.737734 0
M  V30 187 N 17.7372 -0.778329 1.37039 0
M  V30 188 C 18.6672 -1.90546 1.34962 0
M  V30 189 C 19.6482 -1.68681 0.219274 0
M  V30 190 O 20.8332 -1.89634 0.418624 0
M  V30 191 C 17.9632 -3.27734 1.14925 0
M  V30 192 C 16.9172 -3.64147 2.24902 0
M  V30 193 C 16.2432 -4.99806 1.89996 0
M  V30 194 C 17.5432 -3.71579 3.67051 0
M  V30 195 H 19.2372 -1.92541 2.29277 0
M  V30 196 H 16.7832 -0.924948 1.10366 0
M  V30 197 H 18.7362 -4.06215 1.12104 0
M  V30 198 H 17.4602 -3.26154 0.170631 0
M  V30 199 H 16.1192 -2.8797 2.26868 0
M  V30 200 H 15.7672 -4.94759 0.906796 0
M  V30 201 H 15.4672 -5.25139 2.63634 0
M  V30 202 H 16.9912 -5.80694 1.88749 0
M  V30 203 H 18.4052 -4.40227 3.67251 0
M  V30 204 H 16.8022 -4.08405 4.39688 0
M  V30 205 H 17.8722 -2.72404 4.01154 0
M  V30 206 N 19.2153 -1.21501 -1.00376 0
M  V30 207 C 20.6263 -1.03146 -1.55621 0
M  V30 208 C 20.9773 0.408375 -1.91903 0
M  V30 209 O 20.1023 1.29177 -1.73616 0
M  V30 210 C 20.6973 -1.86612 -2.82775 0
M  V30 211 C 19.2563 -1.72586 -3.34501 0
M  V30 212 C 18.4033 -1.83747 -2.07683 0
M  V30 213 H 21.3543 -1.35505 -0.826081 0
M  V30 214 H 21.3753 -1.3771 -3.54706 0
M  V30 215 H 20.8873 -2.91399 -2.56336 0
M  V30 216 H 18.9883 -0.704877 -3.65872 0
M  V30 217 H 19.1013 -2.54623 -4.05837 0
M  V30 218 H 17.4653 -1.27069 -2.20739 0
M  V30 219 H 18.2483 -2.90044 -1.83655 0
M  V30 220 N 20.6934 1.19889 -1.02296 0
M  V30 221 C 22.1044 1.71124 -0.746568 0
M  V30 222 C 22.4554 1.81939 0.734335 0
M  V30 223 O 21.5804 1.48639 1.57275 0
M  V30 224 C 22.1754 3.10804 -1.34857 0
M  V30 225 C 20.7344 3.59323 -1.1209 0
M  V30 226 C 19.8814 2.3635 -1.45031 0
M  V30 227 H 22.8324 1.04813 -1.19163 0
M  V30 228 H 22.8534 3.73186 -0.742437 0
M  V30 229 H 22.3654 3.029 -2.42638 0
M  V30 230 H 20.4664 3.7255 -0.0610337 0
M  V30 231 H 20.5794 4.4378 -1.80544 0
M  V30 232 H 18.9434 2.39399 -0.869487 0
M  V30 233 H 19.7264 2.31081 -2.53883 0
M  V30 234 N 22.1715 0.800033 1.35784 0
M  V30 235 C 23.1345 0.211565 2.28221 0
M  V30 236 C 24.1345 -0.59728 1.49296 0
M  V30 237 O 25.3245 -0.416721 1.69142 0
M  V30 238 C 22.4565 -0.705846 3.33513 0
M  V30 239 H 23.6495 1.02677 2.81776 0
M  V30 240 H 21.2025 0.570211 1.45528 0
M  V30 241 H 21.9375 -1.54498 2.85133 0
M  V30 242 H 21.7225 -0.127655 3.91892 0
M  V30 243 H 23.2125 -1.11211 4.02519 0
M  V30 244 N 23.6496 -1.47581 0.552962 0
M  V30 245 C 24.6126 -2.28439 -0.186605 0
M  V30 246 C 25.6126 -1.36706 -0.84665 0
M  V30 247 O 26.8026 -1.59378 -0.703164 0
M  V30 248 C 23.9346 -3.16264 -1.2724 0
M  V30 249 H 25.1276 -2.95294 0.523609 0
M  V30 250 H 22.6806 -1.532 0.309745 0
M  V30 251 H 23.4156 -2.54091 -2.01514 0
M  V30 252 H 23.2006 -3.83769 -0.803968 0
M  V30 253 H 24.6906 -3.77198 -1.79196 0
M  V30 254 N 25.1277 -0.289203 -1.54924 0
M  V30 255 C 26.0597 0.625583 -2.20497 0
M  V30 256 C 27.0727 1.10667 -1.19402 0
M  V30 257 O 28.2617 1.02615 -1.46056 0
M  V30 258 C 25.3617 1.86702 -2.82835 0
M  V30 259 C 24.5347 1.5304 -4.09753 0
M  V30 260 C 23.5937 2.62576 -4.56005 0
M  V30 261 O 22.6197 2.28167 -5.21468 0
M  V30 262 N 23.8217 3.92901 -4.27328 0
M  V30 263 H 26.5867 0.0642801 -2.99631 0
M  V30 264 H 24.1477 -0.110896 -1.6152 0
M  V30 265 H 26.1397 2.59304 -3.10715 0
M  V30 266 H 24.7097 2.33702 -2.07611 0
M  V30 267 H 23.9297 0.637564 -3.8901 0
M  V30 268 H 25.2177 1.28072 -4.92418 0
M  V30 269 H 24.6157 4.23671 -3.74859 0
M  V30 270 H 23.1727 4.61837 -4.59946 0
M  V30 271 N 26.6058 1.57591 -0.0167156 0
M  V30 272 C 27.5158 2.1291 0.98521 0
M  V30 273 C 28.5318 1.07834 1.36557 0
M  V30 274 O 29.7078 1.39826 1.44951 0
M  V30 275 C 26.7728 2.63512 2.25305 0
M  V30 276 C 25.8338 3.83256 1.93426 0
M  V30 277 C 25.0668 4.31435 3.14165 0
M  V30 278 O 25.2898 3.78851 4.26413 0
M  V30 279 O 24.2238 5.23416 2.97186 0
M  V30 280 H 28.0498 2.98772 0.544888 0
M  V30 281 H 25.6348 1.48012 0.203141 0
M  V30 282 H 27.5168 2.96183 2.99756 0
M  V30 283 H 26.1918 1.8074 2.68542 0
M  V30 284 H 25.0988 3.55531 1.16398 0
M  V30 285 H 26.4318 4.67153 1.55013 0
M  V30 286 N 28.0839 -0.256276 1.55502 0
M  V30 287 C 29.4999 -0.604325 1.47716 0
M  V30 288 C 29.6999 -1.88763 0.705039 0
M  V30 289 O 28.7559 -2.51445 0.230613 0
M  V30 290 C 30.0689 -0.715756 2.92057 0
M  V30 291 C 31.6169 -0.808706 3.02372 0
M  V30 292 C 32.0919 -0.951777 4.48001 0
M  V30 293 N 33.5829 -1.01688 4.519 0
M  V30 294 C 34.3179 -1.14668 5.61817 0
M  V30 295 N 33.8139 -1.24261 6.81565 0
M  V30 296 N 35.6069 -1.1791 5.49594 0
M  V30 297 H 27.7579 0.586291 2.04148 0
M  V30 298 H 30.0209 0.201015 0.926443 0
M  V30 299 H 29.7269 0.157027 3.51349 0
M  V30 300 H 29.6009 -1.59071 3.42018 0
M  V30 301 H 31.9879 -1.67195 2.43166 0
M  V30 302 H 32.0689 0.0912063 2.55637 0
M  V30 303 H 31.7129 -0.0931291 5.07815 0
M  V30 304 H 31.6429 -1.86659 4.92408 0
M  V30 305 H 34.1339 -0.954468 3.65648 0
M  V30 306 H 34.4469 -1.34046 7.61086 0
M  V30 307 H 32.7919 -1.21236 6.84344 0
M  V30 308 H 35.9829 -1.10057 4.54978 0
M  V30 309 H 36.1559 -1.27681 6.35296 0
M  V30 310 N 29.562 -1.4872 -0.521534 0
M  V30 311 C 30.839 -1.4766 -1.2828 0
M  V30 312 C 31.219 -0.19292 -2.10217 0
M  V30 313 O 30.567 0.825193 -2.13079 0
M  V30 314 C 30.777 -2.74358 -2.15705 0
M  V30 315 C 32.125 -3.23028 -2.75569 0
M  V30 316 O 33.149 -2.75333 -2.25987 0
M  V30 317 O 32.008 -4.0604 -3.65778 0
M  V30 318 H 29.102 -0.590085 -0.579421 0
M  V30 319 H 31.648 -1.60963 -0.537492 0
M  V30 320 H 30.42 -3.59292 -1.54999 0
M  V30 321 H 30.043 -2.63816 -2.97467 0
M  V30 322 N 31.0401 0.771051 -1.3745 0
M  V30 323 C 32.0031 1.86598 -1.33093 0
M  V30 324 C 33.0031 1.59076 -0.234845 0
M  V30 325 O 34.1931 1.67145 -0.490732 0
M  V30 326 C 31.3251 3.23747 -1.06773 0
M  V30 327 H 32.5181 1.91873 -2.30488 0
M  V30 328 H 30.0711 0.970876 -1.2249 0
M  V30 329 H 30.8061 3.24148 -0.099129 0
M  V30 330 H 30.5911 3.45115 -1.86112 0
M  V30 331 H 32.0811 4.03824 -1.06377 0
M  V30 332 N 32.5182 1.22032 0.997298 0
M  V30 333 C 33.4282 1.00271 2.12092 0
M  V30 334 C 34.4442 -0.047621 1.73935 0
M  V30 335 O 35.6202 0.144136 2.00884 0
M  V30 336 C 32.6852 0.578449 3.4184 0
M  V30 337 C 31.7462 1.70189 3.94125 0
M  V30 338 C 30.9792 1.29778 5.17681 0
M  V30 339 O 31.2022 0.174676 5.70132 0
M  V30 340 O 30.1362 2.11261 5.63607 0
M  V30 341 H 33.9622 1.94398 2.3333 0
M  V30 342 H 31.5472 1.00587 1.10465 0
M  V30 343 H 33.4292 0.351998 4.19927 0
M  V30 344 H 32.1042 -0.334019 3.21972 0
M  V30 345 H 31.0112 1.98282 3.1723 0
M  V30 346 H 32.3442 2.59206 4.18417 0
M  V30 347 N 33.9963 -1.19345 1.0293 0
M  V30 348 C 35.4073 -1.70725 0.755633 0
M  V30 349 C 35.7583 -1.82326 -0.724676 0
M  V30 350 O 34.8833 -1.49471 -1.56484 0
M  V30 351 C 35.4783 -3.10084 1.36503 0
M  V30 352 C 34.0373 -3.58723 1.13994 0
M  V30 353 C 33.1843 -2.35577 1.46283 0
M  V30 354 H 36.1353 -1.0418 1.19718 0
M  V30 355 H 36.1563 -3.72787 0.762217 0
M  V30 356 H 35.6683 -3.01609 2.44241 0
M  V30 357 H 33.7693 -3.72512 0.0807901 0
M  V30 358 H 33.8823 -4.42816 1.82894 0
M  V30 359 H 32.2463 -2.38935 0.88217 0
M  V30 360 H 33.0293 -2.29731 2.55105 0
M  V30 361 N 35.4744 -0.807222 -1.35358 0
M  V30 362 C 36.8904 -0.491038 -1.51858 0
M  V30 363 C 37.0904 0.987648 -1.75635 0
M  V30 364 O 36.1464 1.77265 -1.79815 0
M  V30 365 C 37.4594 -1.33695 -2.69344 0
M  V30 366 C 39.0074 -1.33246 -2.83222 0
M  V30 367 C 39.4824 -2.1625 -4.03733 0
M  V30 368 N 40.9734 -2.1379 -4.10911 0
M  V30 369 C 41.7084 -2.74772 -5.03277 0
M  V30 370 N 41.2044 -3.44684 -6.0097 0
M  V30 371 N 42.9974 -2.6441 -4.96028 0
M  V30 372 H 35.1484 -1.76485 -1.18181 0
M  V30 373 H 37.4114 -0.751199 -0.578276 0
M  V30 374 H 37.1174 -2.38634 -2.58354 0
M  V30 375 H 36.9914 -0.990618 -3.6396 0
M  V30 376 H 39.3784 -0.290911 -2.93663 0
M  V30 377 H 39.4594 -1.71866 -1.89461 0
M  V30 378 H 39.1034 -3.20445 -3.94052 0
M  V30 379 H 39.0334 -1.74989 -4.96675 0
M  V30 380 H 41.5244 -1.62923 -3.40976 0
M  V30 381 H 41.8374 -3.88501 -6.68047 0
M  V30 382 H 40.1824 -3.48788 -6.01142 0
M  V30 383 H 43.3734 -2.0938 -4.18662 0
M  V30 384 H 43.5464 -3.12225 -5.6782 0
M  V30 385 N 36.9525 1.47285 -0.560781 0
M  V30 386 C 38.3635 1.86258 -0.128343 0
M  V30 387 C 38.7145 1.46699 1.30284 0
M  V30 388 O 37.8395 0.871698 1.98067 0
M  V30 389 C 38.4345 3.38044 -0.22614 0
M  V30 390 C 36.9935 3.76096 0.151283 0
M  V30 391 C 36.1405 2.71335 -0.572084 0
M  V30 392 H 39.0915 1.38752 -0.770297 0
M  V30 393 H 39.1125 3.76441 0.554322 0
M  V30 394 H 38.6245 3.66806 -1.26788 0
M  V30 395 H 36.7255 3.52951 1.19399 0
M  V30 396 H 36.8385 4.78641 -0.209765 0
M  V30 397 H 35.2025 2.54696 -0.0147653 0
M  V30 398 H 35.9855 3.02938 -1.61504 0
M  V30 399 N 38.4306 0.297415 1.54768 0
M  V30 400 C 39.8416 -0.195947 1.85669 0
M  V30 401 C 40.1926 -1.53707 1.21937 0
M  V30 402 O 39.3176 -2.10164 0.515754 0
M  V30 403 C 39.9126 -0.362318 3.36857 0
M  V30 404 C 38.4716 -0.799901 3.67802 0
M  V30 405 C 37.6186 0.0938578 2.77141 0
M  V30 406 H 40.5696 0.518538 1.4999 0
M  V30 407 H 40.5906 -1.19745 3.61167 0
M  V30 408 H 40.1026 0.613921 3.83214 0
M  V30 409 H 38.2036 -1.78682 3.26961 0
M  V30 410 H 38.3166 -0.621773 4.75048 0
M  V30 411 H 36.6806 -0.426254 2.51108 0
M  V30 412 H 37.4636 1.06639 3.26318 0
M  V30 413 N 39.9087 -1.5758 0.0250728 0
M  V30 414 C 40.8587 -2.06468 -0.967201 0
M  V30 415 C 41.8427 -0.964376 -1.28797 0
M  V30 416 O 43.0347 -1.22797 -1.27475 0
M  V30 417 C 40.1637 -2.59203 -2.25097 0
M  V30 418 C 39.2497 -3.76157 -1.95874 0
M  V30 419 N 39.6407 -4.86919 -1.36905 0
M  V30 420 C 37.9387 -3.84566 -2.25887 0
M  V30 421 C 38.6397 -5.68172 -1.24724 0
M  V30 422 N 37.6157 -5.14953 -1.74138 0
M  V30 423 H 41.4177 -2.89508 -0.506176 0
M  V30 424 H 38.9317 -1.61399 -0.18004 0
M  V30 425 H 40.9287 -2.92517 -2.97052 0
M  V30 426 H 39.5887 -1.77592 -2.71829 0
M  V30 427 H 40.5997 -5.07256 -1.04459 0
M  V30 428 H 37.2767 -3.13854 -2.75321 0
M  V30 429 H 38.6667 -6.67221 -0.791605 0
M  V30 430 N 41.3868 0.248026 -1.55636 0
M  V30 431 C 42.6348 0.974295 -1.77065 0
M  V30 432 C 42.9558 1.85897 -0.588849 0
M  V30 433 O 42.2258 1.91868 0.395407 0
M  V30 434 H 40.8058 0.362733 -0.653019 0
M  V30 435 H 43.4678 0.266244 -1.93073 0
M  V30 436 H 42.5638 1.59667 -2.68166 0
M  V30 437 N 42.8649 1.48995 0.513639 0
M  V30 438 C 43.7749 1.67443 1.64317 0
M  V30 439 C 44.7909 0.556947 1.64846 0
M  V30 440 O 45.9669 0.830082 1.83498 0
M  V30 441 C 43.0319 1.72515 3.00732 0
M  V30 442 C 42.0929 2.96009 3.1093 0
M  V30 443 C 41.3259 3.00829 4.40837 0
M  V30 444 O 41.5489 2.13594 5.28898 0
M  V30 445 O 40.4829 3.93168 4.55744 0
M  V30 446 H 44.3089 2.63106 1.51687 0
M  V30 447 H 41.8939 1.32588 0.688543 0
M  V30 448 H 43.7759 1.78277 3.81831 0
M  V30 449 H 42.4509 0.800278 3.13651 0
M  V30 450 H 41.3579 2.9577 2.29065 0
M  V30 451 H 42.6909 3.87934 3.02933 0
M  V30 452 N 44.343 -0.763751 1.37857 0
M  V30 453 C 45.273 -1.89103 1.36975 0
M  V30 454 C 46.254 -1.68439 0.237152 0
M  V30 455 O 47.439 -1.8918 0.438713 0
M  V30 456 C 44.569 -3.26496 1.18395 0
M  V30 457 C 43.523 -3.61741 2.28751 0
M  V30 458 C 42.849 -4.97762 1.95286 0
M  V30 459 C 44.149 -3.67665 3.70972 0
M  V30 460 H 45.843 -1.90099 2.31307 0
M  V30 461 H 43.389 -0.91319 1.11341 0
M  V30 462 H 45.342 -4.05003 1.16406 0
M  V30 463 H 44.066 -3.25955 0.205215 0
M  V30 464 H 42.725 -2.85547 2.29909 0
M  V30 465 H 42.373 -4.93769 0.959221 0
M  V30 466 H 42.073 -5.22313 2.69189 0
M  V30 467 H 43.597 -5.7866 1.94898 0
M  V30 468 H 45.011 -4.36307 3.719 0
M  V30 469 H 43.408 -4.03718 4.43995 0
M  V30 470 H 44.478 -2.68134 4.0402 0
M  V30 471 N 45.8211 -1.22559 -0.990812 0
M  V30 472 C 46.7531 -0.955325 -2.08342 0
M  V30 473 C 47.7661 0.0668408 -1.62663 0
M  V30 474 O 48.9551 -0.167421 -1.77713 0
M  V30 475 C 46.0551 -0.415566 -3.36342 0
M  V30 476 C 45.2281 -1.49544 -4.11042 0
M  V30 477 C 44.2871 -0.962399 -5.17324 0
M  V30 478 O 43.3131 -1.64907 -5.44788 0
M  V30 479 N 44.5151 0.215134 -5.80101 0
M  V30 480 H 47.2801 -1.89596 -2.32106 0
M  V30 481 H 44.8411 -1.13276 -1.15673 0
M  V30 482 H 46.8331 -0.0442386 -4.04676 0
M  V30 483 H 45.4031 0.430232 -3.09625 0
M  V30 484 H 44.6231 -2.04 -3.37309 0
M  V30 485 H 45.9111 -2.22195 -4.57719 0
M  V30 486 H 45.3091 0.789779 -5.6016 0
M  V30 487 H 43.8661 0.527826 -6.49659 0
M  V30 488 N 47.2992 1.18797 -1.03562 0
M  V30 489 C 48.5292 1.92319 -0.754773 0
M  V30 490 C 48.9372 1.7612 0.691248 0
M  V30 491 O 48.2802 1.08491 1.48241 0
M  V30 492 C 48.3422 3.44284 -1.03484 0
M  V30 493 C 48.0062 3.84258 -2.47376 0
M  V30 494 C 49.0032 3.88459 -3.45537 0
M  V30 495 C 46.6882 4.15701 -2.81954 0
M  V30 496 C 48.6822 4.23545 -4.76328 0
M  V30 497 C 46.3692 4.50458 -4.12954 0
M  V30 498 C 47.3672 4.54356 -5.09951 0
M  V30 499 O 47.0552 4.88305 -6.38603 0
M  V30 500 H 46.7872 0.617527 -0.275021 0
M  V30 501 H 49.3412 1.51683 -1.38497 0
M  V30 502 H 47.5712 3.85135 -0.347513 0
M  V30 503 H 49.2602 3.99049 -0.7426 0
M  V30 504 H 50.0262 3.6431 -3.20162 0
M  V30 505 H 45.9052 4.11847 -2.0713 0
M  V30 506 H 49.4492 4.26502 -5.52035 0
M  V30 507 H 45.3462 4.74067 -4.38099 0
M  V30 508 H 46.1142 5.06227 -6.43177 0
M  V30 509 N 48.7773 0.814389 1.34928 0
M  V30 510 C 49.7073 0.244827 2.32213 0
M  V30 511 C 50.6883 -0.634024 1.57842 0
M  V30 512 O 51.8733 -0.562676 1.8587 0
M  V30 513 C 49.0033 -0.601106 3.42058 0
M  V30 514 C 47.9573 0.179896 4.27622 0
M  V30 515 C 47.2833 -0.788237 5.28858 0
M  V30 516 C 48.5833 1.38329 5.03649 0
M  V30 517 H 50.2773 1.05763 2.80097 0
M  V30 518 H 47.8233 0.510029 1.34665 0
M  V30 519 H 49.7763 -1.00968 4.09125 0
M  V30 520 H 48.5003 -1.44688 2.92802 0
M  V30 521 H 47.1593 0.569739 3.62146 0
M  V30 522 H 46.8073 -1.62973 4.75866 0
M  V30 523 H 46.5073 -0.269942 5.8698 0
M  V30 524 H 48.0313 -1.19485 5.98795 0
M  V30 525 H 49.4453 1.04918 5.63618 0
M  V30 526 H 47.8423 1.83662 5.71304 0
M  V30 527 H 48.9123 2.16592 4.33839 0
M  V30 528 N 50.2554 -1.46986 0.568584 0
M  V30 529 C 51.5034 -2.02041 0.0487022 0
M  V30 530 C 51.8244 -1.44408 -1.31039 0
M  V30 531 O 51.0944 -0.623477 -1.85714 0
M  V30 532 H 49.6744 -0.746849 0.015014 0
M  V30 533 H 52.3364 -1.80257 0.741168 0
M  V30 534 H 51.4324 -3.12085 -0.0308961 0
M  V30 535 N 51.7335 -0.305618 -1.54608 0
M  V30 536 C 52.6655 0.602161 -2.21149 0
M  V30 537 C 53.6785 1.09394 -1.20569 0
M  V30 538 O 54.8675 1.0106 -1.47136 0
M  V30 539 C 51.9675 1.83692 -2.84799 0
M  V30 540 C 51.1405 1.48686 -4.11353 0
M  V30 541 C 50.1995 2.57725 -4.58764 0
M  V30 542 O 49.2255 2.22623 -5.23858 0
M  V30 543 N 50.4275 3.88346 -4.31471 0
M  V30 544 H 53.1925 0.0324966 -2.99682 0
M  V30 545 H 50.7535 -0.128021 -1.61393 0
M  V30 546 H 52.7455 2.55994 -3.13448 0
M  V30 547 H 51.3155 2.31486 -2.10078 0
M  V30 548 H 50.5355 0.596269 -3.89664 0
M  V30 549 H 51.8235 1.22842 -4.93748 0
M  V30 550 H 51.2215 4.19671 -3.79331 0
M  V30 551 H 49.7785 4.56932 -4.64818 0
M  V30 552 N 53.2116 1.57565 -0.0334293 0
M  V30 553 C 54.4606 1.91155 0.643639 0
M  V30 554 C 54.7736 0.91192 1.73042 0
M  V30 555 O 55.9796 1.13923 2.46442 0
M  V30 556 C 54.4356 3.39443 1.1961 0
M  V30 557 C 54.0436 4.47774 0.142381 0
M  V30 558 C 55.7876 3.82094 1.84944 0
M  V30 559 C 53.6946 5.87162 0.706727 0
M  V30 560 H 52.6246 0.713368 0.244176 0
M  V30 561 H 55.2756 1.8323 -0.0994323 0
M  V30 562 H 53.6576 3.42313 1.99092 0
M  V30 563 H 54.8316 4.56469 -0.630296 0
M  V30 564 H 53.1466 4.14352 -0.412446 0
M  V30 565 H 55.7436 4.83591 2.2813 0
M  V30 566 H 56.0866 3.17386 2.69392 0
M  V30 567 H 56.6196 3.81665 1.12145 0
M  V30 568 H 53.3586 6.55424 -0.0997178 0
M  V30 569 H 52.8786 5.82064 1.44779 0
M  V30 570 H 54.5576 6.35866 1.19514 0
M  V30 571 N 54.6897 -0.239769 1.55765 0
M  V30 572 C 55.6217 -1.32001 1.87372 0
M  V30 573 C 56.6347 -1.43944 0.760522 0
M  V30 574 O 57.8237 -1.45167 1.0387 0
M  V30 575 C 54.9237 -2.69779 2.05115 0
M  V30 576 C 54.0967 -2.80014 3.36022 0
M  V30 577 C 53.1557 -3.98684 3.4342 0
M  V30 578 O 52.1817 -3.87877 4.16582 0
M  V30 579 N 53.3837 -5.12176 2.73232 0
M  V30 580 H 56.1487 -1.0522 2.80622 0
M  V30 581 H 53.7097 -0.429857 1.56089 0
M  V30 582 H 55.7017 -3.47517 2.07399 0
M  V30 583 H 54.2717 -2.89237 1.18577 0
M  V30 584 H 53.4917 -1.88896 3.45994 0
M  V30 585 H 54.7797 -2.83808 4.22292 0
M  V30 586 H 54.1777 -5.2385 2.13536 0
M  V30 587 H 52.7347 -5.88022 2.81199 0
M  V30 588 N 56.1678 -1.49265 -0.50573 0
M  V30 589 C 57.1178 -1.6198 -1.60457 0
M  V30 590 C 58.1018 -0.47568 -1.53708 0
M  V30 591 O 59.2938 -0.728392 -1.61318 0
M  V30 592 C 56.4228 -1.68526 -2.99089 0
M  V30 593 C 55.5088 -2.885 -3.10852 0
M  V30 594 N 55.8998 -4.12635 -2.92517 0
M  V30 595 C 54.1978 -2.86338 -3.41945 0
M  V30 596 C 54.8988 -4.93258 -3.08337 0
M  V30 597 N 53.8748 -4.26533 -3.37003 0
M  V30 598 H 57.6768 -2.55681 -1.44928 0
M  V30 599 H 55.1908 -1.45972 -0.711752 0
M  V30 600 H 57.1878 -1.75732 -3.78053 0
M  V30 601 H 55.8478 -0.759584 -3.1569 0
M  V30 602 H 56.8588 -4.42689 -2.68787 0
M  V30 603 H 53.5358 -2.03129 -3.64753 0
M  V30 604 H 54.9258 -6.01856 -2.98695 0
M  V30 605 N 57.6459 0.756429 -1.3826 0
M  V30 606 C 58.8949 1.51082 -1.3363 0
M  V30 607 C 59.2079 1.95467 0.0720068 0
M  V30 608 O 60.4139 2.7043 0.240834 0
M  V30 609 C 58.8699 2.72893 -2.34644 0
M  V30 610 C 58.4779 2.35544 -3.81081 0
M  V30 611 C 60.2219 3.50791 -2.39052 0
M  V30 612 C 58.1289 3.53948 -4.73787 0
M  V30 613 H 57.0589 0.56727 -0.49671 0
M  V30 614 H 59.7099 0.827147 -1.638 0
M  V30 615 H 58.0919 3.43227 -1.97513 0
M  V30 616 H 59.2659 1.72894 -4.27135 0
M  V30 617 H 57.5809 1.70786 -3.79764 0
M  V30 618 H 60.1779 4.38823 -3.05513 0
M  V30 619 H 60.5209 3.91745 -1.40861 0
M  V30 620 H 61.0539 2.87467 -2.74968 0
M  V30 621 H 57.7929 3.18064 -5.73163 0
M  V30 622 H 57.3129 4.15651 -4.32428 0
M  V30 623 H 58.9919 4.20566 -4.91663 0
M  V30 624 N 59.124 1.23083 0.984299 0
M  V30 625 C 60.054 1.03292 2.09411 0
M  V30 626 C 61.035 -0.048923 1.7003 0
M  V30 627 O 62.22 0.114967 1.93859 0
M  V30 628 C 59.35 0.619155 3.41736 0
M  V30 629 C 58.304 1.64791 3.95004 0
M  V30 630 C 57.63 1.0897 5.23478 0
M  V30 631 C 58.93 3.03999 4.24714 0
M  V30 632 H 60.624 1.96119 2.26225 0
M  V30 633 H 58.17 0.944344 1.08711 0
M  V30 634 H 60.123 0.467777 4.18796 0
M  V30 635 H 58.847 -0.344786 3.24775 0
M  V30 636 H 57.506 1.78721 3.20085 0
M  V30 637 H 57.154 0.11686 5.02864 0
M  V30 638 H 56.854 1.77704 5.60085 0
M  V30 639 H 58.378 0.950093 6.03163 0
M  V30 640 H 59.792 2.93393 4.92538 0
M  V30 641 H 58.189 3.69936 4.72512 0
M  V30 642 H 59.259 3.53285 3.32142 0
M  V30 643 N 60.6021 -1.18246 1.0419 0
M  V30 644 C 62.0181 -1.40269 0.761366 0
M  V30 645 C 62.2181 -1.90777 -0.648578 0
M  V30 646 O 61.2741 -2.0929 -1.41258 0
M  V30 647 C 62.5871 -2.40237 1.8085 0
M  V30 648 C 64.1351 -2.53961 1.82955 0
M  V30 649 C 64.6101 -3.57194 2.86664 0
M  V30 650 N 66.1011 -3.64702 2.85563 0
M  V30 651 C 66.8361 -4.44309 3.6246 0
M  V30 652 N 66.3321 -5.27514 4.49111 0
M  V30 653 N 68.1251 -4.39084 3.50944 0
M  V30 654 H 60.2761 -0.837882 1.95175 0
M  V30 655 H 62.5391 -0.430608 0.84456 0
M  V30 656 H 62.2451 -2.10176 2.81991 0
M  V30 657 H 62.1191 -3.39601 1.64168 0
M  V30 658 H 64.5061 -2.83338 0.824855 0
M  V30 659 H 64.5871 -1.54706 2.03715 0
M  V30 660 H 64.2311 -3.28558 3.87314 0
M  V30 661 H 64.1611 -4.5613 2.6316 0
M  V30 662 H 66.6521 -3.05289 2.22727 0
M  V30 663 H 66.9651 -5.85411 5.04493 0
M  V30 664 H 65.3101 -5.2693 4.53178 0
M  V30 665 H 68.5011 -3.7313 2.82651 0
M  V30 666 H 68.6741 -5.00883 4.11121 0
M  V30 667 N 62.0802 -0.821533 -1.34494 0
M  V30 668 C 63.3202 -0.414785 -2.00147 0
M  V30 669 C 63.6842 1.00299 -1.6372 0
M  V30 670 O 64.8852 1.51255 -2.22206 0
M  V30 671 C 63.1562 -0.609403 -3.52166 0
M  V30 672 S 64.7152 -0.295297 -4.37805 0
M  V30 673 H 61.5332 -0.15679 -0.693497 0
M  V30 674 H 64.1352 -1.06705 -1.63812 0
M  V30 675 H 62.8392 -1.64096 -3.76166 0
M  V30 676 H 62.3702 0.0576414 -3.93358 0
M  V30 677 H 64.3852 0.891531 -4.88125 0
M  V30 678 N 63.5583 1.46682 -0.576371 0
M  V30 679 C 64.8063 2.02013 -0.0594163 0
M  V30 680 C 65.1273 1.45101 1.30271 0
M  V30 681 O 64.3973 0.633317 1.8538 0
M  V30 682 H 62.9773 0.746759 -0.0189745 0
M  V30 683 H 65.6393 1.79862 -0.750717 0
M  V30 684 H 64.7353 3.12097 0.014345 0
M  V30 685 N 65.0364 0.313813 1.54444 0
M  V30 686 C 66.2824 -0.292108 2.00685 0
M  V30 687 C 66.6154 -1.52548 1.20177 0
M  V30 688 O 65.8904 -1.92452 0.281531 0
M  V30 689 C 66.1734 -0.635968 3.5444 0
M  V30 690 C 66.0264 0.607437 4.4568 0
M  V30 691 C 67.3454 -1.45747 4.15266 0
M  V30 692 H 64.4644 -0.104697 0.729526 0
M  V30 693 H 67.1064 0.428457 1.85106 0
M  V30 694 H 65.2564 -1.24986 3.67846 0
M  V30 695 H 66.9284 1.24581 4.44159 0
M  V30 696 H 65.1714 1.23822 4.15753 0
M  V30 697 H 65.8424 0.322515 5.51057 0
M  V30 698 H 68.3184 -0.938645 4.05375 0
M  V30 699 H 67.1944 -1.66683 5.2298 0
M  V30 700 H 67.4554 -2.45063 3.67963 0
M  V30 701 N 66.5145 -1.57545 0.0417849 0
M  V30 702 C 67.9305 -1.56467 -0.314704 0
M  V30 703 C 68.1305 -1.04859 -1.72066 0
M  V30 704 O 67.1865 -0.700983 -2.42575 0
M  V30 705 C 68.4995 -3.00317 -0.15174 0
M  V30 706 C 70.0475 -3.12201 -0.223553 0
M  V30 707 C 70.5225 -4.57913 -0.0892295 0
M  V30 708 N 72.0135 -4.6297 -0.145808 0
M  V30 709 C 72.7485 -5.73362 -0.0658459 0
M  V30 710 N 72.2445 -6.92769 0.0659282 0
M  V30 711 N 74.0375 -5.6197 -0.12075 0
M  V30 712 H 66.1885 -1.89416 0.961014 0
M  V30 713 H 68.4515 -0.871862 0.372237 0
M  V30 714 H 68.1575 -3.42073 0.817254 0
M  V30 715 H 68.0315 -3.65892 -0.916692 0
M  V30 716 H 70.4185 -2.70349 -1.18301 0
M  V30 717 H 70.4995 -2.49323 0.571994 0
M  V30 718 H 70.1435 -5.00448 0.866867 0
M  V30 719 H 70.0735 -5.18786 -0.903802 0
M  V30 720 H 72.5645 -3.7709 -0.247286 0
M  V30 721 H 72.8775 -7.72707 0.119905 0
M  V30 722 H 71.2225 -6.94927 0.100885 0
M  V30 723 H 74.4135 -4.67572 -0.222187 0
M  V30 724 H 74.5865 -6.47977 -0.0549735 0
M  V30 725 N 67.9926 0.231505 -1.5589 0
M  V30 726 C 68.9396 1.28682 -1.91598 0
M  V30 727 C 69.9096 1.47071 -0.771974 0
M  V30 728 O 71.0946 1.60802 -1.027 0
M  V30 729 C 68.2346 2.6342 -2.22944 0
M  V30 730 C 67.3476 2.52912 -3.50228 0
M  V30 731 C 66.4826 3.80106 -3.7107 0
M  V30 732 C 65.5216 3.64279 -4.91902 0
M  V30 733 N 64.6586 4.834 -5.09184 0
M  V30 734 H 69.4986 0.975305 -2.81588 0
M  V30 735 H 67.0356 0.470299 -1.39379 0
M  V30 736 H 68.9936 3.41869 -2.39126 0
M  V30 737 H 67.6236 2.92687 -1.36139 0
M  V30 738 H 66.6756 1.6595 -3.42294 0
M  V30 739 H 67.9876 2.37133 -4.38827 0
M  V30 740 H 67.1416 4.66999 -3.87295 0
M  V30 741 H 65.8806 3.98799 -2.80733 0
M  V30 742 H 64.8856 2.7577 -4.75637 0
M  V30 743 H 66.1106 3.47067 -5.83714 0
M  V30 744 H 64.0566 5.02425 -4.21788 0
M  V30 745 H 63.9736 4.70311 -5.91898 0
M  V30 746 H 65.2416 5.71747 -5.29835 0
M  V30 747 N 69.4707 1.49531 0.497807 0
M  V30 748 C 70.7477 1.49682 1.25915 0
M  V30 749 C 71.1277 0.226339 2.09883 0
M  V30 750 O 70.4757 -0.791189 2.14365 0
M  V30 751 C 70.6857 2.77755 2.11313 0
M  V30 752 C 72.0337 3.27371 2.70395 0
M  V30 753 O 73.0577 2.78894 2.21578 0
M  V30 754 O 71.9167 4.11808 3.59272 0
M  V30 755 H 69.0107 0.599228 0.56996 0
M  V30 756 H 71.5567 1.61798 0.511816 0
M  V30 757 H 70.3287 3.61713 1.49264 0
M  V30 758 H 69.9517 2.68515 2.93233 0
M  V30 759 N 70.9488 -0.749086 1.3866 0
M  V30 760 C 72.2258 -1.4992 1.25632 0
M  V30 761 C 72.6058 -2.10633 -0.140317 0
M  V30 762 O 71.9538 -1.97437 -1.15025 0
M  V30 763 C 72.1638 -2.56195 2.36992 0
M  V30 764 C 73.5118 -3.22972 2.75634 0
M  V30 765 O 74.5358 -2.66502 2.36337 0
M  V30 766 O 73.3948 -4.25122 3.43415 0
M  V30 767 H 70.4888 -0.665067 0.491544 0
M  V30 768 H 73.0348 -0.784113 1.50498 0
M  V30 769 H 71.8068 -2.09612 3.30422 0
M  V30 770 H 71.4298 -3.35279 2.13714 0
M  V30 771 N 72.4269 -1.23603 -0.977757 0
M  V30 772 C 73.8429 -0.999251 -1.24447 0
M  V30 773 C 74.0429 0.298053 -1.99283 0
M  V30 774 O 73.0989 1.01681 -2.31122 0
M  V30 775 C 74.4119 -2.20784 -2.04144 0
M  V30 776 C 75.9599 -2.25303 -2.17273 0
M  V30 777 C 76.4349 -3.45755 -3.00362 0
M  V30 778 N 77.9259 -3.4601 -3.07947 0
M  V30 779 C 78.6609 -4.35868 -3.72568 0
M  V30 780 N 78.1569 -5.35966 -4.38991 0
M  V30 781 N 79.9499 -4.23605 -3.6948 0
M  V30 782 H 72.1009 -2.06986 -0.476483 0
M  V30 783 H 74.3639 -0.907801 -0.273134 0
M  V30 784 H 74.0699 -3.14945 -1.56533 0
M  V30 785 H 73.9439 -2.22085 -3.04891 0
M  V30 786 H 76.3309 -1.3168 -2.64092 0
M  V30 787 H 76.4119 -2.28033 -1.15907 0
M  V30 788 H 76.0559 -4.39687 -2.5424 0
M  V30 789 H 75.9859 -3.40266 -4.01904 0
M  V30 790 H 78.4769 -2.73588 -2.60688 0
M  V30 791 H 78.7899 -6.00783 -4.86086 0
M  V30 792 H 77.1349 -5.39863 -4.37691 0
M  V30 793 H 80.3259 -3.44647 -3.16759 0
M  V30 794 H 80.4989 -4.93836 -4.1956 0
M  V30 795 N 73.905 1.17692 -1.04816 0
M  V30 796 C 75.133 1.91786 -0.776254 0
M  V30 797 C 75.548 1.76604 0.667577 0
M  V30 798 O 74.905 1.10067 1.45573 0
M  V30 799 C 74.956 3.42967 -1.14263 0
M  V30 800 O 74.677 3.57678 -2.52978 0
M  V30 801 C 76.178 4.34144 -0.896311 0
M  V30 802 H 73.398 0.608624 -0.282519 0
M  V30 803 H 75.942 1.49268 -1.39783 0
M  V30 804 H 74.097 3.83245 -0.565874 0
M  V30 805 H 74.511 4.51319 -2.67229 0
M  V30 806 H 75.985 5.38744 -1.20244 0
M  V30 807 H 76.462 4.38876 0.168636 0
M  V30 808 H 77.068 3.99574 -1.45672 0
M  V30 809 N 75.3831 0.828654 1.34056 0
M  V30 810 C 76.6311 0.41863 1.97717 0
M  V30 811 C 76.9521 -1.02314 1.66002 0
M  V30 812 O 76.2221 -1.71119 0.953683 0
M  V30 813 H 74.8021 0.151809 0.731412 0
M  V30 814 H 77.4641 1.05936 1.63596 0
M  V30 815 H 76.5601 0.542318 3.07352 0
M  V30 816 N 76.8612 -1.46375 0.584142 0
M  V30 817 C 78.0892 -2.06761 0.0759296 0
M  V30 818 C 78.5042 -1.43266 -1.22965 0
M  V30 819 O 77.8612 -0.538458 -1.74376 0
M  V30 820 C 77.9122 -3.61375 -0.0950384 0
M  V30 821 O 77.6332 -4.22495 1.15887 0
M  V30 822 C 79.1342 -4.38693 -0.637434 0
M  V30 823 H 76.3542 -0.668479 0.0581075 0
M  V30 824 H 78.8982 -1.8798 0.805218 0
M  V30 825 H 77.0532 -3.79578 -0.774554 0
M  V30 826 H 77.4672 -5.15385 0.973598 0
M  V30 827 H 78.9412 -5.47464 -0.706237 0
M  V30 828 H 79.4182 -4.06836 -1.65472 0
M  V30 829 H 80.0242 -4.25299 0.00725967 0
M  V30 830 N 78.3393 -0.321999 -1.54275 0
M  V30 831 C 79.5873 0.280489 -2.00144 0
M  V30 832 C 79.9083 1.52777 -1.21178 0
M  V30 833 O 79.1783 1.9338 -0.313187 0
M  V30 834 H 77.7583 0.106632 -0.73935 0
M  V30 835 H 80.4203 -0.438184 -1.8991 0
M  V30 836 H 79.5163 0.537972 -3.07428 0
M  V30 837 N 79.8174 1.5752 -0.0501392 0
M  V30 838 C 81.0454 1.96963 0.633492 0
M  V30 839 C 81.4604 0.927631 1.6444 0
M  V30 840 O 80.8174 -0.0882665 1.82286 0
M  V30 841 C 80.8684 3.36487 1.32132 0
M  V30 842 O 80.5894 4.36693 0.350894 0
M  V30 843 C 82.0904 3.90682 2.09481 0
M  V30 844 H 79.3104 0.648244 0.173266 0
M  V30 845 H 81.8544 2.0417 -0.116134 0
M  V30 846 H 80.0094 3.30434 2.02218 0
M  V30 847 H 80.4234 5.17702 0.841735 0
M  V30 848 H 81.8974 4.90591 2.5303 0
M  V30 849 H 82.3744 3.26053 2.94255 0
M  V30 850 H 82.9804 4.00069 1.44307 0
M  V30 851 N 81.2955 -0.223234 1.56011 0
M  V30 852 C 82.2255 -1.27988 1.95298 0
M  V30 853 C 83.2065 -1.48976 0.820979 0
M  V30 854 O 84.3915 -1.61188 1.08315 0
M  V30 855 C 81.5215 -2.63 2.26822 0
M  V30 856 C 80.4755 -2.56671 3.42497 0
M  V30 857 C 79.8015 -3.95697 3.59622 0
M  V30 858 C 81.1015 -2.11601 4.77517 0
M  V30 859 H 82.7955 -0.953525 2.8381 0
M  V30 860 H 80.3415 -0.457244 1.36548 0
M  V30 861 H 82.2945 -3.37077 2.52898 0
M  V30 862 H 81.0185 -2.9732 1.35161 0
M  V30 863 H 79.6775 -1.85051 3.16467 0
M  V30 864 H 79.3255 -4.27322 2.6534 0
M  V30 865 H 79.0255 -3.92345 4.37424 0
M  V30 866 H 80.5495 -4.71438 3.88044 0
M  V30 867 H 81.9635 -2.7542 5.02809 0
M  V30 868 H 80.3605 -2.19311 5.5859 0
M  V30 869 H 81.4305 -1.06824 4.72987 0
M  V30 870 N 82.7736 -1.49793 -0.48987 0
M  V30 871 C 83.9986 -1.63836 -1.27172 0
M  V30 872 C 84.4236 -0.31402 -1.8546 0
M  V30 873 O 83.7816 0.719803 -1.66399 0
M  V30 874 C 83.8296 -2.71797 -2.36978 0
M  V30 875 O 82.9336 -2.31744 -3.41128 0
M  V30 876 H 82.2746 -0.547997 -0.37496 0
M  V30 877 H 84.8046 -1.96053 -0.585191 0
M  V30 878 H 84.8146 -2.94305 -2.82575 0
M  V30 879 H 83.4896 -3.67923 -1.93921 0
M  V30 880 H 82.0666 -2.1961 -3.01373 0
M  V30 881 N 84.2517 0.741722 -1.39055 0
M  V30 882 C 85.4977 1.50336 -1.36113 0
M  V30 883 C 85.8307 1.94148 0.0450796 0
M  V30 884 O 85.1057 1.66301 1.00868 0
M  V30 885 C 85.3887 2.74773 -2.32749 0
M  V30 886 C 85.2417 2.37023 -3.82283 0
M  V30 887 C 86.5607 3.76846 -2.27322 0
M  V30 888 H 83.6797 0.545351 -0.495743 0
M  V30 889 H 86.3217 0.848624 -1.69995 0
M  V30 890 H 84.4717 3.30639 -2.03986 0
M  V30 891 H 86.1437 1.8684 -4.21768 0
M  V30 892 H 84.3867 1.69334 -3.99385 0
M  V30 893 H 85.0577 3.26104 -4.45376 0
M  V30 894 H 87.5337 3.30548 -2.5274 0
M  V30 895 H 86.4097 4.6159 -2.97028 0
M  V30 896 H 86.6707 4.23286 -1.27599 0
M  V30 897 N 85.7298 1.2412 0.971189 0
M  V30 898 C 86.9768 1.07881 1.71371 0
M  V30 899 C 87.3048 -0.382901 1.90694 0
M  V30 900 O 86.5598 -1.29945 1.46331 0
M  V30 901 C 86.8588 1.75983 3.11071 0
M  V30 902 C 86.5248 3.25909 3.11599 0
M  V30 903 C 85.1868 3.66813 3.11451 0
M  V30 904 C 87.5388 4.21771 3.062 0
M  V30 905 C 84.8668 5.02021 3.03631 0
M  V30 906 C 87.2188 5.56982 2.99923 0
M  V30 907 C 85.8828 5.97237 2.98102 0
M  V30 908 H 85.1528 0.394764 0.62709 0
M  V30 909 H 87.7998 1.54176 1.13587 0
M  V30 910 H 86.1048 1.22072 3.72298 0
M  V30 911 H 87.8018 1.60887 3.6731 0
M  V30 912 H 84.3918 2.93353 3.12477 0
M  V30 913 H 88.5758 3.91172 3.05447 0
M  V30 914 H 83.8318 5.32411 3.0058 0
M  V30 915 H 88.0058 6.30969 2.94704 0
M  V30 916 H 85.6328 7.01967 2.91798 0
M  V30 917 N 87.2079 -1.17134 1.05439 0
M  V30 918 C 88.4559 -1.87085 0.764429 0
M  V30 919 C 88.7769 -1.81584 -0.710787 0
M  V30 920 O 88.0469 -1.24349 -1.51374 0
M  V30 921 H 86.6269 -0.692627 0.279779 0
M  V30 922 H 89.2889 -1.42087 1.33406 0
M  V30 923 H 88.3849 -2.92759 1.0816 0
M  V30 924 N 88.686 -0.835752 -1.33615 0
M  V30 925 C 89.619 -0.211815 -2.27215 0
M  V30 926 C 90.597 0.639249 -1.49507 0
M  V30 927 O 91.781 0.600193 -1.78689 0
M  V30 928 C 88.908 0.702893 -3.31326 0
M  V30 929 C 87.954 -0.0723049 -4.26439 0
M  V30 930 S 88.787 -1.42811 -5.16106 0
M  V30 931 C 89.943 -0.518613 -6.23748 0
M  V30 932 H 90.176 -1.00533 -2.79786 0
M  V30 933 H 87.709 -0.632336 -1.40858 0
M  V30 934 H 89.667 1.22505 -3.91794 0
M  V30 935 H 88.328 1.47004 -2.77576 0
M  V30 936 H 87.521 0.62359 -5.00127 0
M  V30 937 H 87.123 -0.525424 -3.70291 0
M  V30 938 H 89.415 0.284778 -6.76901 0
M  V30 939 H 90.358 -1.22556 -6.97413 0
M  V30 940 H 90.766 -0.101344 -5.64409 0
M  V30 941 N 90.1641 1.46063 -0.591896 0
M  V30 942 C 91.0961 2.28539 0.174001 0
M  V30 943 C 92.1091 1.39047 0.846753 0
M  V30 944 O 93.2981 1.63564 0.714774 0
M  V30 945 C 90.3981 3.14347 1.26645 0
M  V30 946 C 89.5711 4.32021 0.683856 0
M  V30 947 C 88.6301 4.99157 1.66518 0
M  V30 948 O 87.6561 5.56458 1.19763 0
M  V30 949 N 88.8581 4.97005 2.99943 0
M  V30 950 H 91.6231 2.94911 -0.533633 0
M  V30 951 H 89.1841 1.56077 -0.430294 0
M  V30 952 H 91.1761 3.56125 1.92242 0
M  V30 953 H 89.7461 2.49988 1.87682 0
M  V30 954 H 88.9661 3.93915 -0.1498 0
M  V30 955 H 90.2541 5.08059 0.274567 0
M  V30 956 H 89.6521 4.51714 3.40545 0
M  V30 957 H 88.2091 5.42696 3.61004 0
M  V30 958 N 91.6422 0.330177 1.54103 0
M  V30 959 C 92.6052 -0.520144 2.2322 0
M  V30 960 C 93.6052 -1.03828 1.22786 0
M  V30 961 O 94.7952 -0.929652 1.4732 0
M  V30 962 C 91.9272 -1.72317 2.94142 0
M  V30 963 H 93.1202 0.0841605 2.99782 0
M  V30 964 H 90.6732 0.0813433 1.56088 0
M  V30 965 H 91.4082 -2.36653 2.21734 0
M  V30 966 H 91.1932 -1.35898 3.67796 0
M  V30 967 H 92.6832 -2.3266 3.46784 0
M  V30 968 N 93.1203 -1.57491 0.0584922 0
M  V30 969 C 94.5363 -1.56792 -0.298091 0
M  V30 970 C 94.7363 -1.06679 -1.70944 0
M  V30 971 O 93.7923 -0.726672 -2.41818 0
M  V30 972 C 95.1053 -3.00461 -0.119879 0
M  V30 973 C 96.6533 -3.1242 -0.190428 0
M  V30 974 C 97.1283 -4.57982 -0.0406567 0
M  V30 975 N 98.6193 -4.63099 -0.0966958 0
M  V30 976 C 99.3543 -5.734 -0.00502943 0
M  V30 977 N 98.8503 -6.9266 0.139402 0
M  V30 978 N 100.643 -5.62067 -0.0611391 0
M  V30 979 H 92.7943 -1.88386 0.98105 0
M  V30 980 H 95.0573 -0.867865 0.381463 0
M  V30 981 H 94.7633 -3.41187 0.85349 0
M  V30 982 H 94.6373 -3.66843 -0.877833 0
M  V30 983 H 97.0243 -2.71589 -1.15427 0
M  V30 984 H 97.1053 -2.48702 0.598405 0
M  V30 985 H 96.7493 -4.995 0.919897 0
M  V30 986 H 96.6793 -5.19715 -0.848727 0
M  V30 987 H 99.1703 -3.77331 -0.207277 0
M  V30 988 H 99.4833 -7.72536 0.201855 0
M  V30 989 H 97.8283 -6.94781 0.174586 0
M  V30 990 H 101.019 -4.67782 -0.172583 0
M  V30 991 H 101.192 -6.47999 0.0137562 0
M  V30 992 N 94.5984 0.214957 -1.56127 0
M  V30 993 C 95.8284 0.953707 -1.8327 0
M  V30 994 C 96.2364 1.78181 -0.636262 0
M  V30 995 O 95.5794 1.79191 0.404516 0
M  V30 996 C 95.6414 1.91516 -3.0424 0
M  V30 997 C 95.3054 1.27094 -4.38972 0
M  V30 998 C 96.3024 0.657575 -5.15725 0
M  V30 999 C 93.9874 1.28073 -4.85698 0
M  V30 1000 C 95.9814 0.0625968 -6.37369 0
M  V30 1001 C 93.6684 0.681914 -6.07283 0
M  V30 1002 C 94.6664 0.0739046 -6.8296 0
M  V30 1003 O 94.3544 -0.515582 -8.02245 0
M  V30 1004 H 94.0864 0.284764 -0.613095 0
M  V30 1005 H 96.6404 0.233283 -2.04071 0
M  V30 1006 H 94.8704 2.67475 -2.79274 0
M  V30 1007 H 96.5594 2.52001 -3.18198 0
M  V30 1008 H 97.3254 0.642288 -4.80728 0
M  V30 1009 H 93.2044 1.74337 -4.26764 0
M  V30 1010 H 96.7484 -0.412593 -6.96379 0
M  V30 1011 H 92.6454 0.694636 -6.41752 0
M  V30 1012 H 93.4134 -0.410544 -8.1747 0
M  V30 1013 N 96.0765 1.50051 0.48192 0
M  V30 1014 C 97.3015 1.64508 1.26301 0
M  V30 1015 C 97.7265 0.323851 1.85291 0
M  V30 1016 O 97.0845 -0.710969 1.66778 0
M  V30 1017 C 97.1325 2.7305 2.35533 0
M  V30 1018 O 96.2365 2.3355 3.39895 0
M  V30 1019 H 95.5775 0.549978 0.372048 0
M  V30 1020 H 98.1075 1.9636 0.574786 0
M  V30 1021 H 98.1175 2.95799 2.8101 0
M  V30 1022 H 96.7925 3.68946 1.91967 0
M  V30 1023 H 95.3695 2.21205 3.00204 0
M  V30 1024 N 97.5546 -0.734337 1.39446 0
M  V30 1025 C 98.4846 -1.86155 1.40955 0
M  V30 1026 C 99.4656 -1.67898 0.272827 0
M  V30 1027 O 100.651 -1.88207 0.478743 0
M  V30 1028 C 97.7806 -3.23912 1.25294 0
M  V30 1029 C 96.7346 -3.56808 2.36373 0
M  V30 1030 C 96.0606 -4.93508 2.058 0
M  V30 1031 C 97.3606 -3.59713 3.78687 0
M  V30 1032 H 99.0546 -1.8515 2.35287 0
M  V30 1033 H 96.6006 -0.889367 1.13253 0
M  V30 1034 H 98.5536 -4.02443 1.2497 0
M  V30 1035 H 97.2776 -3.25446 0.274308 0
M  V30 1036 H 95.9366 -2.80606 2.35914 0
M  V30 1037 H 95.5846 -4.91623 1.06374 0
M  V30 1038 H 95.2846 -5.16486 2.80208 0
M  V30 1039 H 96.8086 -5.74396 2.07128 0
M  V30 1040 H 98.2226 -4.2832 3.81071 0
M  V30 1041 H 96.6196 -3.94209 4.52459 0
M  V30 1042 H 97.6896 -2.59504 4.09617 0
M  V30 1043 N 99.0327 -1.24633 -0.964593 0
M  V30 1044 C 100.449 -1.01239 -1.2338 0
M  V30 1045 C 100.649 0.2769 -1.99588 0
M  V30 1046 O 99.7047 0.992241 -2.32187 0
M  V30 1047 C 101.018 -2.22937 -2.01791 0
M  V30 1048 C 102.566 -2.27594 -2.14872 0
M  V30 1049 C 103.041 -3.48921 -2.96678 0
M  V30 1050 N 104.532 -3.49257 -3.04259 0
M  V30 1051 C 105.267 -4.39795 -3.67924 0
M  V30 1052 N 104.763 -5.40591 -4.33281 0
M  V30 1053 N 106.556 -4.275 -3.64966 0
M  V30 1054 H 98.7067 -2.0748 -0.454502 0
M  V30 1055 H 100.97 -0.910647 -0.26349 0
M  V30 1056 H 100.676 -3.16587 -1.53184 0
M  V30 1057 H 100.55 -2.25306 -3.02518 0
M  V30 1058 H 102.937 -1.34473 -2.6268 0
M  V30 1059 H 103.018 -2.2925 -1.13482 0
M  V30 1060 H 102.662 -4.42359 -2.49562 0
M  V30 1061 H 102.592 -3.4451 -3.98272 0
M  V30 1062 H 105.083 -2.76337 -2.57771 0
M  V30 1063 H 105.396 -6.05904 -4.79687 0
M  V30 1064 H 103.741 -5.44475 -4.3194 0
M  V30 1065 H 106.932 -3.47987 -3.13086 0
M  V30 1066 H 107.105 -4.98258 -4.14298 0
M  V30 1067 N 100.511 1.16574 -1.06058 0
M  V30 1068 C 101.788 1.83048 -0.689416 0
M  V30 1069 C 102.168 1.94122 0.829443 0
M  V30 1070 O 101.516 1.48249 1.7388 0
M  V30 1071 C 101.726 3.20186 -1.38859 0
M  V30 1072 C 103.074 3.95989 -1.53226 0
M  V30 1073 O 104.098 3.29696 -1.3483 0
M  V30 1074 O 102.957 5.14813 -1.83384 0
M  V30 1075 H 100.051 0.790258 -0.243764 0
M  V30 1076 H 102.597 1.23797 -1.16071 0
M  V30 1077 H 101.369 3.07146 -2.4244 0
M  V30 1078 H 100.992 3.87112 -0.907216 0
M  V30 1079 N 101.989 0.842826 1.3317 0
M  V30 1080 C 102.899 0.281444 2.32906 0
M  V30 1081 C 103.915 -0.594587 1.63526 0
M  V30 1082 O 105.091 -0.49777 1.95152 0
M  V30 1083 C 102.156 -0.530929 3.42611 0
M  V30 1084 C 101.217 0.369843 4.27704 0
M  V30 1085 C 100.45 -0.403853 5.3217 0
M  V30 1086 O 100.673 -1.63513 5.46461 0
M  V30 1087 O 99.6069 0.224199 6.01482 0
M  V30 1088 H 103.433 1.10744 2.82789 0
M  V30 1089 H 101.018 0.60545 1.36582 0
M  V30 1090 H 102.9 -0.992437 4.09547 0
M  V30 1091 H 101.575 -1.33392 2.94938 0
M  V30 1092 H 100.482 0.879275 3.6362 0
M  V30 1093 H 101.815 1.13771 4.78871 0
M  V30 1094 N 103.467 -1.45747 0.599634 0
M  V30 1095 C 104.714 -2.02292 0.0917284 0
M  V30 1096 C 105.042 -1.46906 -1.27472 0
M  V30 1097 O 104.297 -0.630652 -1.8526 0
M  V30 1098 C 104.596 -3.57399 -0.00602758 0
M  V30 1099 C 104.262 -4.31902 1.29503 0
M  V30 1100 C 102.924 -4.51974 1.65144 0
M  V30 1101 C 105.276 -4.74551 2.15525 0
M  V30 1102 C 102.604 -5.11949 2.86574 0
M  V30 1103 C 104.956 -5.35868 3.36196 0
M  V30 1104 C 103.62 -5.54165 3.72099 0
M  V30 1105 H 102.89 -0.740239 0.0335658 0
M  V30 1106 H 105.537 -1.7491 0.779661 0
M  V30 1107 H 103.842 -3.84014 -0.777183 0
M  V30 1108 H 105.539 -3.98846 -0.415038 0
M  V30 1109 H 102.129 -4.16588 1.00761 0
M  V30 1110 H 106.313 -4.58784 1.8929 0
M  V30 1111 H 101.569 -5.24305 3.14507 0
M  V30 1112 H 105.743 -5.6787 4.03109 0
M  V30 1113 H 103.37 -6.00406 4.6628 0
M  V30 1114 N 104.945 -0.338344 -1.53925 0
M  V30 1115 C 106.356 0.146651 -1.86123 0
M  V30 1116 C 106.707 1.5042 -1.2597 0
M  V30 1117 O 105.832 2.08723 -0.571294 0
M  V30 1118 C 106.427 0.272879 -3.37699 0
M  V30 1119 C 104.986 0.702103 -3.69794 0
M  V30 1120 C 104.133 -0.167304 -2.76795 0
M  V30 1121 H 107.084 -0.558123 -1.48562 0
M  V30 1122 H 107.105 1.10128 -3.64214 0
M  V30 1123 H 106.617 -0.715307 -3.81451 0
M  V30 1124 H 104.718 1.6995 -3.31584 0
M  V30 1125 H 104.831 0.495604 -4.7653 0
M  V30 1126 H 103.195 0.359527 -2.5215 0
M  V30 1127 H 103.978 -1.15253 -3.23375 0
M  V30 1128 N 106.423 1.57458 -0.0668435 0
M  V30 1129 C 107.353 2.15468 0.899764 0
M  V30 1130 C 108.334 1.08042 1.31381 0
M  V30 1131 O 109.519 1.36054 1.38574 0
M  V30 1132 C 106.649 2.71232 2.16911 0
M  V30 1133 C 105.603 3.83781 1.89463 0
M  V30 1134 C 104.929 4.26127 3.22986 0
M  V30 1135 C 106.229 5.08238 1.20381 0
M  V30 1136 H 107.923 2.96488 0.416529 0
M  V30 1137 H 105.469 1.4262 0.198908 0
M  V30 1138 H 107.422 3.10458 2.84945 0
M  V30 1139 H 106.146 1.87426 2.67468 0
M  V30 1140 H 104.805 3.45051 1.23836 0
M  V30 1141 H 104.453 3.39249 3.71374 0
M  V30 1142 H 104.153 5.01993 3.05413 0
M  V30 1143 H 105.677 4.67966 3.92225 0
M  V30 1144 H 107.091 5.44811 1.78475 0
M  V30 1145 H 105.488 5.89349 1.13083 0
M  V30 1146 H 106.558 4.84558 0.182153 0
M  V30 1147 N 107.901 -0.206675 1.56239 0
M  V30 1148 C 108.831 -1.25909 1.96645 0
M  V30 1149 C 109.812 -1.48097 0.836734 0
M  V30 1150 O 110.997 -1.6003 1.10019 0
M  V30 1151 C 108.127 -2.6058 2.29599 0
M  V30 1152 C 107.081 -2.53024 3.452 0
M  V30 1153 C 106.407 -3.91861 3.63798 0
M  V30 1154 C 107.707 -2.06524 4.79734 0
M  V30 1155 H 109.401 -0.923369 2.84806 0
M  V30 1156 H 106.947 -0.442735 1.37025 0
M  V30 1157 H 108.9 -3.34375 2.56459 0
M  V30 1158 H 107.624 -2.95869 1.38307 0
M  V30 1159 H 106.283 -1.81684 3.18412 0
M  V30 1160 H 105.931 -4.24483 2.69857 0
M  V30 1161 H 105.631 -3.87683 4.4156 0
M  V30 1162 H 107.155 -4.67296 3.93022 0
M  V30 1163 H 108.569 -2.70072 5.05702 0
M  V30 1164 H 106.966 -2.13374 5.60885 0
M  V30 1165 H 108.036 -1.01802 4.74093 0
M  V30 1166 N 109.379 -1.50304 -0.473955 0
M  V30 1167 C 110.607 -1.64902 -1.24959 0
M  V30 1168 C 111.022 -0.331198 -1.85872 0
M  V30 1169 O 110.379 0.68652 -1.69095 0
M  V30 1170 C 110.43 -2.73803 -2.36038 0
M  V30 1171 O 110.151 -4.00477 -1.77624 0
M  V30 1172 C 111.652 -2.99349 -3.26964 0
M  V30 1173 H 108.872 -0.554383 -0.378022 0
M  V30 1174 H 111.416 -1.9651 -0.566054 0
M  V30 1175 H 109.571 -2.44898 -3.00173 0
M  V30 1176 H 109.985 -4.60678 -2.5075 0
M  V30 1177 H 111.459 -3.79217 -4.01121 0
M  V30 1178 H 111.936 -2.10307 -3.85574 0
M  V30 1179 H 112.542 -3.29774 -2.68569 0
M  V30 1180 N 110.857 0.726932 -1.39834 0
M  V30 1181 C 112.085 1.51613 -1.40787 0
M  V30 1182 C 112.5 1.88799 -0.00451505 0
M  V30 1183 O 111.857 1.54662 0.968809 0
M  V30 1184 C 111.908 2.79863 -2.28821 0
M  V30 1185 O 111.629 2.44253 -3.63692 0
M  V30 1186 C 113.13 3.73837 -2.38245 0
M  V30 1187 H 110.35 0.468264 -0.480593 0
M  V30 1188 H 112.894 0.897607 -1.83748 0
M  V30 1189 H 111.049 3.38027 -1.89252 0
M  V30 1190 H 111.463 3.26695 -4.1033 0
M  V30 1191 H 112.937 4.60699 -3.04073 0
M  V30 1192 H 113.414 4.16153 -1.40403 0
M  V30 1193 H 114.02 3.21589 -2.78317 0
M  V30 1194 N 112.336 1.25143 0.95797 0
M  V30 1195 C 113.283 1.05235 2.05412 0
M  V30 1196 C 114.253 -0.0374561 1.66058 0
M  V30 1197 O 115.438 0.119073 1.90428 0
M  V30 1198 C 112.578 0.673589 3.38462 0
M  V30 1199 C 111.691 1.8379 3.90954 0
M  V30 1200 C 110.826 1.40381 5.12315 0
M  V30 1201 C 109.865 2.53746 5.57027 0
M  V30 1202 N 109.002 2.11136 6.69601 0
M  V30 1203 H 113.842 1.99048 2.21774 0
M  V30 1204 H 111.379 0.991277 1.08683 0
M  V30 1205 H 113.337 0.434964 4.14926 0
M  V30 1206 H 111.967 -0.227554 3.21997 0
M  V30 1207 H 111.019 2.18992 3.11041 0
M  V30 1208 H 112.331 2.68937 4.20089 0
M  V30 1209 H 111.485 1.12464 5.96185 0
M  V30 1210 H 110.224 0.523015 4.84887 0
M  V30 1211 H 109.229 2.82412 4.71724 0
M  V30 1212 H 110.454 3.42398 5.86464 0
M  V30 1213 H 108.4 1.25468 6.4389 0
M  V30 1214 H 108.317 2.89832 6.98236 0
M  V30 1215 H 109.585 1.86385 7.56889 0
M  V30 1216 N 113.814 -1.1601 1.06675 0
M  V30 1217 C 115.23 -1.38622 0.790948 0
M  V30 1218 C 115.43 -1.92109 -0.607965 0
M  V30 1219 O 114.486 -2.12239 -1.36787 0
M  V30 1220 C 115.799 -2.36347 1.85905 0
M  V30 1221 C 117.347 -2.50023 1.88301 0
M  V30 1222 C 117.822 -3.51033 2.94176 0
M  V30 1223 N 119.313 -3.58563 2.93235 0
M  V30 1224 C 120.048 -4.36521 3.71803 0
M  V30 1225 N 119.544 -5.17869 4.602 0
M  V30 1226 N 121.337 -4.31541 3.60178 0
M  V30 1227 H 113.488 -0.796294 1.96908 0
M  V30 1228 H 115.751 -0.412597 0.853503 0
M  V30 1229 H 115.457 -2.04147 2.86386 0
M  V30 1230 H 115.331 -3.36042 1.71334 0
M  V30 1231 H 117.718 -2.81524 0.884769 0
M  V30 1232 H 117.799 -1.5035 2.06951 0
M  V30 1233 H 117.443 -3.20268 3.94196 0
M  V30 1234 H 117.373 -4.50445 2.72776 0
M  V30 1235 H 119.864 -3.00496 2.29152 0
M  V30 1236 H 120.177 -5.74578 5.16797 0
M  V30 1237 H 118.522 -5.17199 4.64253 0
M  V30 1238 H 121.713 -3.67051 2.90502 0
M  V30 1239 H 121.886 -4.9205 4.21653 0
M  V30 1240 N 115.292 -0.849877 -1.32721 0
M  V30 1241 C 116.538 -0.451591 -1.97708 0
M  V30 1242 C 116.871 0.989175 -1.6712 0
M  V30 1243 O 116.146 1.69334 -0.956891 0
M  V30 1244 C 116.429 -0.685598 -3.53513 0
M  V30 1245 C 116.282 -2.17444 -3.93749 0
M  V30 1246 C 117.601 -0.138874 -4.39881 0
M  V30 1247 H 114.72 -0.16555 -0.718166 0
M  V30 1248 H 117.362 -1.06742 -1.57182 0
M  V30 1249 H 115.512 -0.161416 -3.88165 0
M  V30 1250 H 117.184 -2.76433 -3.693 0
M  V30 1251 H 115.427 -2.65476 -3.43081 0
M  V30 1252 H 116.098 -2.28888 -5.02309 0
M  V30 1253 H 118.574 -0.587068 -4.11938 0
M  V30 1254 H 117.45 -0.332213 -5.47894 0
M  V30 1255 H 117.711 0.95806 -4.31594 0
M  V30 1256 N 116.77 1.45427 -0.607355 0
M  V30 1257 C 118.017 2.02241 -0.102455 0
M  V30 1258 C 118.345 1.4758 1.26691 0
M  V30 1259 O 117.6 0.640468 1.84923 0
M  V30 1260 C 117.899 3.57398 -0.0129263 0
M  V30 1261 C 117.565 4.3121 -1.31792 0
M  V30 1262 C 116.227 4.51092 -1.67539 0
M  V30 1263 C 118.579 4.73401 -2.18039 0
M  V30 1264 C 115.907 5.10422 -2.89285 0
M  V30 1265 C 118.259 5.34078 -3.39034 0
M  V30 1266 C 116.923 5.52184 -3.75033 0
M  V30 1267 H 116.193 0.740051 -0.037491 0
M  V30 1268 H 118.84 1.74494 -0.788926 0
M  V30 1269 H 117.145 3.84421 0.756806 0
M  V30 1270 H 118.842 3.99061 0.393881 0
M  V30 1271 H 115.432 4.16047 -1.02968 0
M  V30 1272 H 119.616 4.57774 -1.91721 0
M  V30 1273 H 114.872 5.22629 -3.17283 0
M  V30 1274 H 119.046 5.65724 -4.06115 0
M  V30 1275 H 116.673 5.97925 -4.69457 0
M  V30 1276 N 118.248 0.346503 1.53744 0
M  V30 1277 C 119.494 -0.242135 2.01954 0
M  V30 1278 C 119.849 -1.47962 1.22984 0
M  V30 1279 O 119.142 -1.89077 0.309924 0
M  V30 1280 C 119.336 -0.605809 3.52228 0
M  V30 1281 C 119.165 0.594882 4.45748 0
M  V30 1282 C 117.935 1.1011 4.93157 0
M  V30 1283 C 120.133 1.45425 4.93311 0
M  V30 1284 N 118.115 2.26381 5.70636 0
M  V30 1285 C 119.486 2.46383 5.68942 0
M  V30 1286 C 121.541 1.47935 4.75415 0
M  V30 1287 C 120.244 3.49684 6.28581 0
M  V30 1288 C 122.27 2.50119 5.35905 0
M  V30 1289 C 121.632 3.49803 6.11406 0
M  V30 1290 H 117.731 -0.0518296 0.780281 0
M  V30 1291 H 120.315 0.486736 1.88518 0
M  V30 1292 H 118.486 -1.30378 3.65864 0
M  V30 1293 H 120.218 -1.17789 3.87179 0
M  V30 1294 H 116.973 0.668721 4.68855 0
M  V30 1295 H 117.397 2.85094 6.14044 0
M  V30 1296 H 122.039 0.722274 4.16585 0
M  V30 1297 H 119.757 4.26285 6.86518 0
M  V30 1298 H 123.343 2.52892 5.23963 0
M  V30 1299 H 122.223 4.27576 6.5738 0
M  V30 1300 N 119.726 -1.57421 0.075193 0
M  V30 1301 C 120.673 -2.12915 -0.890843 0
M  V30 1302 C 121.643 -1.04252 -1.29309 0
M  V30 1303 O 122.828 -1.31933 -1.37834 0
M  V30 1304 C 119.968 -2.69795 -2.15186 0
M  V30 1305 C 119.081 -3.92624 -1.80194 0
M  V30 1306 C 118.216 -4.37736 -3.00933 0
M  V30 1307 C 117.255 -5.53205 -2.61974 0
M  V30 1308 N 116.392 -5.9326 -3.75483 0
M  V30 1309 H 121.232 -2.95156 -0.410735 0
M  V30 1310 H 118.769 -1.45854 -0.191086 0
M  V30 1311 H 120.727 -3.00883 -2.89008 0
M  V30 1312 H 119.357 -1.90313 -2.60731 0
M  V30 1313 H 118.409 -3.67977 -0.964218 0
M  V30 1314 H 119.721 -4.76482 -1.47534 0
M  V30 1315 H 118.875 -4.70503 -3.8303 0
M  V30 1316 H 117.614 -3.52739 -3.36789 0
M  V30 1317 H 116.619 -5.20086 -1.783 0
M  V30 1318 H 117.844 -6.39936 -2.27284 0
M  V30 1319 H 115.79 -5.11212 -4.11094 0
M  V30 1320 H 115.707 -6.71865 -3.46602 0
M  V30 1321 H 116.975 -6.30651 -4.58148 0
M  V30 1322 N 121.204 0.198386 -1.56346 0
M  V30 1323 C 122.452 0.91747 -1.80075 0
M  V30 1324 C 122.773 1.83929 -0.647692 0
M  V30 1325 O 122.043 1.93029 0.334166 0
M  V30 1326 H 120.623 0.341774 -0.664228 0
M  V30 1327 H 123.285 0.204684 -1.93822 0
M  V30 1328 H 122.381 1.51055 -2.7311 0
M  V30 1329 N 122.682 1.50554 0.465978 0
M  V30 1330 C 123.928 1.62038 1.21949 0
M  V30 1331 C 124.261 0.322116 1.9151 0
M  V30 1332 O 123.536 -0.676723 1.82348 0
M  V30 1333 C 123.819 2.80421 2.25912 0
M  V30 1334 C 123.672 4.20144 1.60622 0
M  V30 1335 C 124.991 2.94354 3.27176 0
M  V30 1336 H 122.11 0.589752 0.441998 0
M  V30 1337 H 124.752 1.82956 0.51257 0
M  V30 1338 H 122.902 2.62717 2.86203 0
M  V30 1339 H 124.574 4.49449 1.03889 0
M  V30 1340 H 122.817 4.24165 0.909211 0
M  V30 1341 H 123.488 4.98914 2.36196 0
M  V30 1342 H 125.964 3.10578 2.76913 0
M  V30 1343 H 124.84 3.788 3.97242 0
M  V30 1344 H 125.101 2.05186 3.916 0
M  V30 1345 N 124.16 -0.719506 1.40217 0
M  V30 1346 C 125.09 -1.8465 1.42922 0
M  V30 1347 C 126.071 -1.67599 0.29062 0
M  V30 1348 O 127.256 -1.87688 0.498677 0
M  V30 1349 C 124.386 -3.22565 1.28722 0
M  V30 1350 C 123.34 -3.54281 2.40144 0
M  V30 1351 C 122.666 -4.91298 2.11023 0
M  V30 1352 C 123.966 -3.55676 3.82481 0
M  V30 1353 H 125.66 -1.82644 2.37237 0
M  V30 1354 H 123.206 -0.877305 1.1419 0
M  V30 1355 H 125.159 -4.01095 1.29232 0
M  V30 1356 H 123.883 -3.25137 0.308811 0
M  V30 1357 H 122.542 -2.78088 2.38877 0
M  V30 1358 H 122.19 -4.90468 1.11582 0
M  V30 1359 H 121.89 -5.13485 2.8567 0
M  V30 1360 H 123.414 -5.72166 2.13209 0
M  V30 1361 H 124.828 -4.24254 3.85592 0
M  V30 1362 H 123.225 -3.89388 4.56614 0
M  V30 1363 H 124.295 -2.55144 4.12346 0
M  V30 1364 N 125.638 -1.25649 -0.95132 0
M  V30 1365 C 126.548 -1.08073 -2.08224 0
M  V30 1366 C 127.564 -0.0169666 -1.73992 0
M  V30 1367 O 128.74 -0.218593 -2.0021 0
M  V30 1368 C 125.805 -0.704922 -3.39458 0
M  V30 1369 C 124.866 -1.84699 -3.87537 0
M  V30 1370 C 124.099 -1.48902 -5.12508 0
M  V30 1371 O 124.322 -0.386156 -5.69091 0
M  V30 1372 O 123.256 -2.32033 -5.55378 0
M  V30 1373 H 127.082 -2.02924 -2.25954 0
M  V30 1374 H 124.667 -1.04618 -1.06656 0
M  V30 1375 H 126.549 -0.507609 -4.18332 0
M  V30 1376 H 125.224 0.214291 -3.2299 0
M  V30 1377 H 124.131 -2.09919 -3.09653 0
M  V30 1378 H 125.464 -2.74557 -4.08509 0
M  V30 1379 N 127.117 1.15442 -1.07289 0
M  V30 1380 C 128.027 2.23786 -0.704057 0
M  V30 1381 C 129.043 1.7166 0.284413 0
M  V30 1382 O 130.219 2.00972 0.131205 0
M  V30 1383 C 127.284 3.46535 -0.106792 0
M  V30 1384 C 126.345 4.13654 -1.14842 0
M  V30 1385 C 125.578 5.30544 -0.57956 0
M  V30 1386 O 125.801 5.67187 0.604585 0
M  V30 1387 O 124.735 5.87154 -1.32414 0
M  V30 1388 H 128.561 2.57664 -1.60757 0
M  V30 1389 H 126.146 1.23152 -0.845803 0
M  V30 1390 H 128.028 4.20804 0.224048 0
M  V30 1391 H 126.703 3.14407 0.770049 0
M  V30 1392 H 125.61 3.4131 -1.5316 0
M  V30 1393 H 126.943 4.49861 -1.99714 0
M  V30 1394 N 128.595 0.856903 1.32268 0
M  V30 1395 C 129.525 0.31858 2.31316 0
M  V30 1396 C 130.506 -0.583487 1.59779 0
M  V30 1397 O 131.691 -0.503259 1.87566 0
M  V30 1398 C 128.821 -0.491979 3.43798 0
M  V30 1399 C 127.775 0.315849 4.26833 0
M  V30 1400 C 127.101 -0.619586 5.31098 0
M  V30 1401 C 128.401 1.54282 4.98993 0
M  V30 1402 H 130.095 1.14621 2.76591 0
M  V30 1403 H 127.641 0.552613 1.32974 0
M  V30 1404 H 129.594 -0.879012 4.1213 0
M  V30 1405 H 128.318 -1.35299 2.97257 0
M  V30 1406 H 126.977 0.684664 3.6015 0
M  V30 1407 H 126.625 -1.47751 4.8081 0
M  V30 1408 H 126.325 -0.0830621 5.87541 0
M  V30 1409 H 127.849 -1.00375 6.02293 0
M  V30 1410 H 129.263 1.22796 5.59995 0
M  V30 1411 H 127.66 2.01745 5.65172 0
M  V30 1412 H 128.73 2.30285 4.26728 0
M  V30 1413 N 130.073 -1.45103 0.615059 0
M  V30 1414 C 131.003 -2.33339 -0.0865619 0
M  V30 1415 C 131.984 -1.4727 -0.851209 0
M  V30 1416 O 133.169 -1.76026 -0.820281 0
M  V30 1417 C 130.299 -3.30095 -1.07956 0
M  V30 1418 C 129.253 -4.25858 -0.427628 0
M  V30 1419 C 128.579 -5.12361 -1.5294 0
M  V30 1420 C 129.879 -5.18165 0.655944 0
M  V30 1421 H 131.573 -2.92254 0.650224 0
M  V30 1422 H 129.119 -1.40532 0.314138 0
M  V30 1423 H 131.072 -3.90698 -1.57901 0
M  V30 1424 H 129.796 -2.69355 -1.84703 0
M  V30 1425 H 128.455 -3.66564 0.0510292 0
M  V30 1426 H 128.103 -4.47984 -2.28734 0
M  V30 1427 H 127.803 -5.77238 -1.09865 0
M  V30 1428 H 129.327 -5.75833 -2.03098 0
M  V30 1429 H 130.741 -5.72796 0.240257 0
M  V30 1430 H 129.138 -5.91559 1.00888 0
M  V30 1431 H 130.208 -4.60144 1.52957 0
M  V30 1432 N 131.551 -0.354651 -1.53558 0
M  V30 1433 C 132.797 0.231422 -2.02079 0
M  V30 1434 C 133.152 1.47308 -1.23767 0
M  V30 1435 O 132.445 1.8891 -0.319947 0
M  V30 1436 C 132.639 0.587121 -3.52545 0
M  V30 1437 C 132.468 -0.618513 -4.45426 0
M  V30 1438 C 131.238 -1.12724 -4.92566 0
M  V30 1439 C 133.436 -1.48039 -4.92533 0
M  V30 1440 N 131.418 -2.29404 -5.69427 0
M  V30 1441 C 132.789 -2.49397 -5.67628 0
M  V30 1442 C 134.844 -1.50454 -4.74624 0
M  V30 1443 C 133.547 -3.53013 -6.26717 0
M  V30 1444 C 135.573 -2.52958 -5.34571 0
M  V30 1445 C 134.935 -3.5304 -6.09543 0
M  V30 1446 H 131.034 0.0476909 -0.780544 0
M  V30 1447 H 133.618 -0.496727 -1.88257 0
M  V30 1448 H 131.789 1.28436 -3.6655 0
M  V30 1449 H 133.521 1.15734 -3.87799 0
M  V30 1450 H 130.276 -0.693577 -4.68494 0
M  V30 1451 H 130.7 -2.88347 -6.12524 0
M  V30 1452 H 135.342 -0.744356 -4.16196 0
M  V30 1453 H 133.06 -4.2992 -6.84247 0
M  V30 1454 H 136.646 -2.55667 -5.22614 0
M  V30 1455 H 135.526 -4.31056 -6.55103 0
M  V30 1456 N 133.029 1.57378 -0.0835403 0
M  V30 1457 C 134.276 1.9393 0.58287 0
M  V30 1458 C 134.604 0.964455 1.68904 0
M  V30 1459 O 133.859 -0.0179474 1.95692 0
M  V30 1460 C 134.158 3.37063 1.1884 0
M  V30 1461 C 133.824 4.50424 0.207194 0
M  V30 1462 C 132.486 4.81159 -0.0627115 0
M  V30 1463 C 134.838 5.19136 -0.463426 0
M  V30 1464 C 132.166 5.77939 -1.01012 0
M  V30 1465 C 134.518 6.16931 -1.39924 0
M  V30 1466 C 133.182 6.46078 -1.67749 0
M  V30 1467 H 132.452 0.70964 0.213287 0
M  V30 1468 H 135.099 1.90856 -0.156916 0
M  V30 1469 H 133.404 3.3666 2.00418 0
M  V30 1470 H 135.101 3.6264 1.71153 0
M  V30 1471 H 131.691 4.2646 0.427747 0
M  V30 1472 H 135.875 4.95576 -0.268034 0
M  V30 1473 H 131.131 5.98842 -1.23283 0
M  V30 1474 H 135.305 6.69273 -1.92476 0
M  V30 1475 H 132.932 7.2088 -2.41321 0
M  V30 1476 N 134.507 -0.190092 1.56449 0
M  V30 1477 C 135.756 -0.907912 1.80111 0
M  V30 1478 C 136.069 -1.84214 0.657619 0
M  V30 1479 O 137.275 -2.60094 0.778663 0
M  V30 1480 C 135.731 -1.66485 3.19078 0
M  V30 1481 C 135.339 -0.7752 4.41242 0
M  V30 1482 C 137.083 -2.37201 3.52045 0
M  V30 1483 C 134.99 -1.53129 5.71231 0
M  V30 1484 H 133.92 -0.34276 0.671589 0
M  V30 1485 H 136.571 -0.161109 1.82791 0
M  V30 1486 H 134.953 -2.45572 3.10661 0
M  V30 1487 H 136.127 -0.0226298 4.60794 0
M  V30 1488 H 134.442 -0.178627 4.16017 0
M  V30 1489 H 137.039 -2.94329 4.46402 0
M  V30 1490 H 137.382 -3.11632 2.76028 0
M  V30 1491 H 137.915 -1.65075 3.61932 0
M  V30 1492 H 134.654 -0.82967 6.50228 0
M  V30 1493 H 134.174 -2.25767 5.55688 0
M  V30 1494 H 135.853 -2.08377 6.12526 0
M  V30 1495 N 135.985 -1.50799 -0.457987 0
M  V30 1496 C 136.932 -1.70617 -1.5543 0
M  V30 1497 C 137.902 -0.547562 -1.56815 0
M  V30 1498 O 139.087 -0.779647 -1.74144 0
M  V30 1499 C 136.227 -1.81831 -2.93311 0
M  V30 1500 C 135.34 -3.09278 -3.01615 0
M  V30 1501 C 134.475 -3.11209 -4.30491 0
M  V30 1502 C 133.514 -4.33055 -4.32585 0
M  V30 1503 N 132.651 -4.32652 -5.52952 0
M  V30 1504 H 137.491 -2.64207 -1.37836 0
M  V30 1505 H 135.028 -1.30959 -0.669937 0
M  V30 1506 H 136.986 -1.86314 -3.73287 0
M  V30 1507 H 135.616 -0.916685 -3.0951 0
M  V30 1508 H 134.668 -3.14203 -2.1443 0
M  V30 1509 H 135.98 -3.99233 -2.99022 0
M  V30 1510 H 135.134 -3.14494 -5.18824 0
M  V30 1511 H 133.873 -2.19106 -4.35711 0
M  V30 1512 H 132.878 -4.29969 -3.42647 0
M  V30 1513 H 134.103 -5.264 -4.29046 0
M  V30 1514 H 132.049 -3.43409 -5.58933 0
M  V30 1515 H 131.966 -5.16392 -5.52155 0
M  V30 1516 H 133.234 -4.40101 -6.43375 0
M  V30 1517 N 137.463 0.71206 -1.40597 0
M  V30 1518 C 138.711 1.46907 -1.38791 0
M  V30 1519 C 139.032 1.94998 0.00780391 0
M  V30 1520 O 138.302 1.70587 0.963174 0
M  V30 1521 H 136.882 0.545043 -0.51082 0
M  V30 1522 H 139.544 0.843882 -1.75683 0
M  V30 1523 H 138.64 2.34021 -2.06496 0
M  V30 1524 N 138.941 1.26152 0.944643 0
M  V30 1525 C 140.166 1.14363 1.7302 0
M  V30 1526 C 140.591 -0.29772 1.85729 0
M  V30 1527 O 139.949 -1.2157 1.34501 0
M  V30 1528 C 139.997 1.81378 3.11664 0
M  V30 1529 O 139.101 1.10022 3.97453 0
M  V30 1530 H 138.442 0.398694 0.53098 0
M  V30 1531 H 140.972 1.66906 1.18337 0
M  V30 1532 H 140.982 1.88064 3.62072 0
M  V30 1533 H 139.657 2.86237 3.0173 0
M  V30 1534 H 138.234 1.11287 3.55907 0
M  V30 1535 N 140.419 -1.14872 1.07899 0
M  V30 1536 C 141.647 -1.89661 0.82683 0
M  V30 1537 C 142.062 -1.78312 -0.620519 0
M  V30 1538 O 141.419 -1.13888 -1.42604 0
M  V30 1539 C 141.47 -3.39817 1.23316 0
M  V30 1540 O 141.191 -3.50845 2.62372 0
M  V30 1541 C 142.692 -4.31615 1.0111 0
M  V30 1542 H 139.912 -0.60092 0.298557 0
M  V30 1543 H 142.456 -1.4551 1.43691 0
M  V30 1544 H 140.611 -3.8161 0.667286 0
M  V30 1545 H 141.025 -4.44076 2.79101 0
M  V30 1546 H 142.499 -5.35367 1.34486 0
M  V30 1547 H 142.976 -4.39169 -0.0522168 0
M  V30 1548 H 143.582 -3.95572 1.56215 0
M  V30 1549 N 141.898 -0.863906 -1.31812 0
M  V30 1550 C 142.846 -0.30422 -2.30602 0
M  V30 1551 C 143.84 0.577419 -1.59255 0
M  V30 1552 O 145.046 0.464194 -1.73912 0
M  V30 1553 H 141.421 -0.0796877 -0.747766 0
M  V30 1554 H 143.392 -1.15148 -2.75288 0
M  V30 1555 C 142.141 0.484617 -3.44306 0
M  V30 1556 H 141.464 -0.18451 -3.99374 0
M  V30 1557 H 142.904 0.841664 -4.15562 0
M  V30 1558 C 141.363 1.6735 -2.92396 0
M  V30 1559 O 141.893 2.77273 -2.90659 0
M  V30 1560 N 140.099 1.50362 -2.48676 0
M  V30 1561 H 139.646 0.609402 -2.50288 0
M  V30 1562 H 139.604 2.30051 -2.14299 0
M  V30 1563 N 143.376 1.44774 -0.622745 0
M  V30 1564 C 144.339 2.29069 0.0774015 0
M  V30 1565 C 145.339 1.4059 0.780461 0
M  V30 1566 O 146.529 1.62551 0.626322 0
M  V30 1567 C 143.661 3.21974 1.12006 0
M  V30 1568 H 144.854 2.92459 -0.663901 0
M  V30 1569 H 142.407 1.51548 -0.382486 0
M  V30 1570 H 143.142 2.63417 1.89162 0
M  V30 1571 H 142.927 3.87168 0.619951 0
M  V30 1572 H 144.417 3.85318 1.60995 0
M  V30 1573 N 144.854 0.36279 1.53368 0
M  V30 1574 C 145.801 -0.485008 2.25646 0
M  V30 1575 C 146.771 -1.07982 1.2621 0
M  V30 1576 O 147.956 -1.11284 1.54986 0
M  V30 1577 C 145.096 -1.62023 3.04701 0
M  V30 1578 C 144.209 -1.05086 4.19024 0
M  V30 1579 C 143.344 -2.15496 4.85525 0
M  V30 1580 C 142.383 -1.5601 5.91884 0
M  V30 1581 N 141.52 -2.60241 6.52088 0
M  V30 1582 H 146.36 0.137864 2.97681 0
M  V30 1583 H 143.897 0.0798061 1.46883 0
M  V30 1584 H 145.855 -2.28887 3.48807 0
M  V30 1585 H 144.485 -2.2138 2.34927 0
M  V30 1586 H 143.537 -0.27259 3.79422 0
M  V30 1587 H 144.849 -0.575926 4.95464 0
M  V30 1588 H 144.003 -2.90186 5.32801 0
M  V30 1589 H 142.742 -2.66341 4.08551 0
M  V30 1590 H 141.747 -0.798338 5.43973 0
M  V30 1591 H 142.972 -1.05994 6.70777 0
M  V30 1592 H 140.918 -3.10304 5.77968 0
M  V30 1593 H 140.835 -2.17426 7.24059 0
M  V30 1594 H 142.103 -3.34641 7.04014 0
M  V30 1595 N 146.332 -1.57332 0.0918853 0
M  V30 1596 C 147.242 -2.17368 -0.882505 0
M  V30 1597 C 148.258 -1.14226 -1.31257 0
M  V30 1598 O 149.434 -1.46582 -1.38115 0
M  V30 1599 C 146.499 -2.73962 -2.12476 0
M  V30 1600 C 145.56 -3.92048 -1.7492 0
M  V30 1601 C 144.793 -4.45933 -2.93223 0
M  V30 1602 O 145.016 -3.98764 -4.07852 0
M  V30 1603 O 143.95 -5.36999 -2.71875 0
M  V30 1604 H 147.776 -3.01031 -0.40172 0
M  V30 1605 H 145.361 -1.48813 -0.132291 0
M  V30 1606 H 147.243 -3.10147 -2.85283 0
M  V30 1607 H 145.918 -1.93347 -2.59613 0
M  V30 1608 H 144.825 -3.6068 -0.993025 0
M  V30 1609 H 146.158 -4.74017 -1.32548 0
M  V30 1610 N 147.81 0.181792 -1.56548 0
M  V30 1611 C 148.74 1.22765 -1.98623 0
M  V30 1612 C 149.721 1.46747 -0.860189 0
M  V30 1613 O 150.906 1.58259 -1.12551 0
M  V30 1614 C 148.036 2.56894 -2.33715 0
M  V30 1615 C 146.99 2.475 -3.49182 0
M  V30 1616 C 146.316 3.86023 -3.69986 0
M  V30 1617 C 147.616 1.98866 -4.82959 0
M  V30 1618 H 149.31 0.877942 -2.86239 0
M  V30 1619 H 146.856 0.42088 -1.37712 0
M  V30 1620 H 148.809 3.30253 -2.61746 0
M  V30 1621 H 147.533 2.93632 -1.42997 0
M  V30 1622 H 146.192 1.76596 -3.21262 0
M  V30 1623 H 145.84 4.20136 -2.76576 0
M  V30 1624 H 145.54 3.80609 -4.47672 0
M  V30 1625 H 147.064 4.60984 -4.00407 0
M  V30 1626 H 148.478 2.61992 -5.09934 0
M  V30 1627 H 146.875 2.04424 -5.64208 0
M  V30 1628 H 147.945 0.942465 -4.75653 0
M  V30 1629 N 149.288 1.51039 0.449983 0
M  V30 1630 C 150.513 1.6715 1.22783 0
M  V30 1631 C 150.938 0.363081 1.84563 0
M  V30 1632 O 150.296 -0.675433 1.68249 0
M  V30 1633 C 150.344 2.77985 2.29689 0
M  V30 1634 O 149.448 2.40707 3.34864 0
M  V30 1635 H 148.789 0.557746 0.360299 0
M  V30 1636 H 151.319 1.97535 0.533005 0
M  V30 1637 H 151.329 3.01693 2.74673 0
M  V30 1638 H 150.004 3.72935 1.84098 0
M  V30 1639 H 148.581 2.27523 2.95445 0
M  V30 1640 N 150.766 -0.704594 1.40972 0
M  V30 1641 C 151.991 -1.49858 1.43378 0
M  V30 1642 C 152.416 -1.88061 0.038184 0
M  V30 1643 O 151.774 -1.5402 -0.956425 0
M  V30 1644 C 151.822 -2.74333 2.34038 0
M  V30 1645 O 150.926 -3.7147 1.7912 0
M  V30 1646 H 150.267 -0.45139 0.486974 0
M  V30 1647 H 152.797 -0.866832 1.8533 0
M  V30 1648 H 152.807 -3.22741 2.49604 0
M  V30 1649 H 151.482 -2.45863 3.35446 0
M  V30 1650 H 150.059 -3.30363 1.72958 0
M  V30 1651 N 152.244 -1.26651 -0.937939 0
M  V30 1652 C 153.191 -1.0849 -2.03712 0
M  V30 1653 C 154.161 0.011033 -1.66096 0
M  V30 1654 O 155.346 -0.149353 -1.90215 0
M  V30 1655 C 152.486 -0.72735 -3.37348 0
M  V30 1656 C 151.599 -1.89986 -3.87981 0
M  V30 1657 C 150.734 -1.48513 -5.10017 0
M  V30 1658 C 149.773 -2.62575 -5.5292 0
M  V30 1659 N 148.91 -2.21762 -6.66158 0
M  V30 1660 H 153.75 -2.02551 -2.18579 0
M  V30 1661 H 151.287 -1.00844 -1.07093 0
M  V30 1662 H 153.245 -0.50092 -4.14182 0
M  V30 1663 H 151.875 0.176298 -3.22318 0
M  V30 1664 H 150.927 -2.23913 -3.07518 0
M  V30 1665 H 152.239 -2.75586 -4.15757 0
M  V30 1666 H 151.393 -1.21934 -5.94321 0
M  V30 1667 H 150.132 -0.60009 -4.83994 0
M  V30 1668 H 149.137 -2.8988 -4.67172 0
M  V30 1669 H 150.362 -3.51685 -5.80943 0
M  V30 1670 H 148.308 -1.35696 -6.41812 0
M  V30 1671 H 148.225 -3.00903 -6.93537 0
M  V30 1672 H 149.493 -1.98403 -7.53828 0
M  V30 1673 N 153.722 1.14298 -1.08507 0
M  V30 1674 C 154.97 1.84993 -0.813763 0
M  V30 1675 C 155.291 1.83405 0.662393 0
M  V30 1676 O 154.561 1.28319 1.48024 0
M  V30 1677 H 153.141 0.684966 -0.298045 0
M  V30 1678 H 155.803 1.385 -1.37126 0
M  V30 1679 H 154.899 2.89788 -1.15884 0
M  V30 1680 N 155.201 0.870884 1.31352 0
M  V30 1681 C 156.447 0.482987 1.96965 0
M  V30 1682 C 156.78 -0.962462 1.68672 0
M  V30 1683 O 156.055 -1.6779 0.98371 0
M  V30 1684 C 156.338 0.741752 3.52378 0
M  V30 1685 C 156.191 2.2368 3.9024 0
M  V30 1686 C 157.51 0.208838 4.39604 0
M  V30 1687 H 154.629 0.176955 0.715441 0
M  V30 1688 H 157.271 1.09229 1.55464 0
M  V30 1689 H 155.421 0.223149 3.87859 0
M  V30 1690 H 157.093 2.82273 3.64856 0
M  V30 1691 H 155.336 2.70901 3.38814 0
M  V30 1692 H 156.007 2.3685 4.98604 0
M  V30 1693 H 158.483 0.652529 4.10952 0
M  V30 1694 H 157.359 0.419336 5.47296 0
M  V30 1695 H 157.62 -0.889275 4.33064 0
M  V30 1696 N 156.679 -1.44442 0.630414 0
M  V30 1697 C 157.626 -2.30678 -0.0749355 0
M  V30 1698 C 158.596 -1.4344 -0.837502 0
M  V30 1699 O 159.781 -1.72343 -0.818684 0
M  V30 1700 C 156.921 -3.28706 -1.05103 0
M  V30 1701 C 156.034 -4.31046 -0.286954 0
M  V30 1702 C 155.169 -5.16167 -1.2548 0
M  V30 1703 C 154.208 -6.10216 -0.479843 0
M  V30 1704 N 153.345 -6.88039 -1.39811 0
M  V30 1705 H 158.185 -2.90454 0.666386 0
M  V30 1706 H 155.722 -1.43107 0.340404 0
M  V30 1707 H 157.68 -3.84027 -1.63031 0
M  V30 1708 H 156.31 -2.70632 -1.75949 0
M  V30 1709 H 155.362 -3.78203 0.408243 0
M  V30 1710 H 156.674 -4.97794 0.316657 0
M  V30 1711 H 155.828 -5.76002 -1.90544 0
M  V30 1712 H 154.567 -4.49491 -1.89233 0
M  V30 1713 H 153.572 -5.49491 0.184295 0
M  V30 1714 H 154.797 -6.78928 0.152965 0
M  V30 1715 H 152.743 -6.24032 -2.02287 0
M  V30 1716 H 152.66 -7.51223 -0.848508 0
M  V30 1717 H 153.928 -7.52397 -2.03762 0
M  V30 1718 N 158.157 -0.370918 -1.53173 0
M  V30 1719 C 159.406 0.218249 -2.00516 0
M  V30 1720 C 159.719 1.49429 -1.26215 0
M  V30 1721 O 160.925 2.16239 -1.64174 0
M  V30 1722 C 159.381 0.43948 -3.57207 0
M  V30 1723 C 158.989 -0.822244 -4.4039 0
M  V30 1724 C 160.733 0.986012 -4.1289 0
M  V30 1725 C 158.64 -0.570304 -5.88644 0
M  V30 1726 H 157.57 0.0853333 -0.749156 0
M  V30 1727 H 160.221 -0.490483 -1.76823 0
M  V30 1728 H 158.603 1.20961 -3.77074 0
M  V30 1729 H 159.777 -1.59557 -4.32294 0
M  V30 1730 H 158.092 -1.29238 -3.95836 0
M  V30 1731 H 160.689 1.18991 -5.21292 0
M  V30 1732 H 161.032 1.94972 -3.6782 0
M  V30 1733 H 161.565 0.27592 -3.96842 0
M  V30 1734 H 158.304 -1.50449 -6.38001 0
M  V30 1735 H 157.824 0.164427 -5.99575 0
M  V30 1736 H 159.503 -0.19784 -6.46697 0
M  V30 1737 N 159.635 1.57281 -0.100228 0
M  V30 1738 C 160.881 1.95626 0.556946 0
M  V30 1739 C 161.236 0.981655 1.65473 0
M  V30 1740 O 160.529 0.00849847 1.91598 0
M  V30 1741 C 160.723 3.38305 1.15259 0
M  V30 1742 C 160.552 4.49555 0.114035 0
M  V30 1743 C 159.322 5.0434 -0.311266 0
M  V30 1744 C 161.52 5.10051 -0.659768 0
M  V30 1745 N 159.502 5.99152 -1.33755 0
M  V30 1746 C 160.873 6.00628 -1.53774 0
M  V30 1747 C 162.928 4.92772 -0.712723 0
M  V30 1748 C 161.631 6.7578 -2.46403 0
M  V30 1749 C 163.657 5.6859 -1.62663 0
M  V30 1750 C 163.019 6.58838 -2.49222 0
M  V30 1751 H 159.118 0.7624 0.173982 0
M  V30 1752 H 161.702 1.93829 -0.183988 0
M  V30 1753 H 159.873 3.40786 1.86332 0
M  V30 1754 H 161.605 3.63817 1.77254 0
M  V30 1755 H 158.36 4.73537 0.0774812 0
M  V30 1756 H 158.784 6.5126 -1.84905 0
M  V30 1757 H 163.426 4.22761 -0.0576648 0
M  V30 1758 H 161.144 7.4505 -3.12931 0
M  V30 1759 H 164.73 5.57233 -1.67281 0
M  V30 1760 H 163.61 7.16479 -3.18791 0
M  V30 1761 N 161.113 -0.173488 1.56642 0
M  V30 1762 C 162.39 -0.917617 1.7274 0
M  V30 1763 C 162.77 -2.00484 0.661027 0
M  V30 1764 O 162.118 -2.26184 -0.32453 0
M  V30 1765 C 162.328 -1.48433 3.15862 0
M  V30 1766 C 163.676 -1.95809 3.76754 0
M  V30 1767 O 164.7 -1.58231 3.19126 0
M  V30 1768 O 163.559 -2.65024 4.77938 0
M  V30 1769 H 160.653 -0.431772 0.705338 0
M  V30 1770 H 163.199 -0.161487 1.6893 0
M  V30 1771 H 161.971 -0.701715 3.84957 0
M  V30 1772 H 161.594 -2.30471 3.23989 0
M  V30 1773 N 162.591 -1.51276 -0.441967 0
M  V30 1774 C 163.554 -1.7167 -1.51862 0
M  V30 1775 C 164.554 -0.586793 -1.49711 0
M  V30 1776 O 165.744 -0.854276 -1.51815 0
M  V30 1777 C 162.876 -1.76889 -2.91416 0
M  V30 1778 H 164.069 -2.67754 -1.35084 0
M  V30 1779 H 161.622 -1.41196 -0.670333 0
M  V30 1780 H 162.357 -0.826026 -3.13604 0
M  V30 1781 H 162.142 -2.59001 -2.94382 0
M  V30 1782 H 163.632 -1.94522 -3.69528 0
M  V30 1783 N 164.069 0.697108 -1.41344 0
M  V30 1784 C 165.017 1.83237 -1.43272 0
M  V30 1785 C 166.011 1.66522 -0.310947 0
M  V30 1786 O 167.217 1.73402 -0.482899 0
M  V30 1787 H 163.592 0.603802 -0.448249 0
M  V30 1788 H 165.563 1.78727 -2.38954 0
M  V30 1789 C 164.312 3.21245 -1.33029 0
M  V30 1790 H 163.635 3.34723 -2.18633 0
M  V30 1791 H 165.075 4.00763 -1.38439 0
M  V30 1792 C 163.534 3.36873 -0.0424635 0
M  V30 1793 O 164.064 3.91177 0.913421 0
M  V30 1794 N 162.27 2.90581 0.0331145 0
M  V30 1795 H 161.817 2.46577 -0.745506 0
M  V30 1796 H 161.775 3.01416 0.894199 0
M  V30 1797 N 165.547 1.27147 0.931209 0
M  V30 1798 C 166.795 1.13055 1.6752 0
M  V30 1799 C 167.116 -0.324791 1.92276 0
M  V30 1800 O 166.386 -1.22775 1.52654 0
M  V30 1801 H 164.966 0.415391 0.620854 0
M  V30 1802 H 167.628 1.59623 1.11833 0
M  V30 1803 H 166.724 1.65694 2.64485 0
M  V30 1804 N 167.025 -1.13721 1.09112 0
M  V30 1805 C 168.25 -1.89314 0.847053 0
M  V30 1806 C 168.675 -1.78416 -0.595774 0
M  V30 1807 O 168.033 -1.12942 -1.41823 0
M  V30 1808 C 168.081 -3.3701 1.28284 0
M  V30 1809 O 167.185 -4.10054 0.439267 0
M  V30 1810 H 166.526 -0.588745 0.307044 0
M  V30 1811 H 169.056 -1.43902 1.45442 0
M  V30 1812 H 169.066 -3.87834 1.26683 0
M  V30 1813 H 167.741 -3.4426 2.33363 0
M  V30 1814 H 166.318 -3.69266 0.519312 0
M  V30 1815 N 168.503 -0.877838 -1.30888 0
M  V30 1816 C 169.919 -0.570844 -1.49042 0
M  V30 1817 C 170.119 0.893159 -1.80624 0
M  V30 1818 O 169.175 1.67485 -1.88958 0
M  V30 1819 C 170.488 -1.47784 -2.61878 0
M  V30 1820 C 172.036 -1.48071 -2.75761 0
M  V30 1821 C 172.511 -2.37347 -3.91702 0
M  V30 1822 N 174.002 -2.35271 -3.99001 0
M  V30 1823 C 174.737 -3.01063 -4.88004 0
M  V30 1824 N 174.233 -3.76055 -5.81854 0
M  V30 1825 N 176.026 -2.90332 -4.81315 0
M  V30 1826 H 168.177 -1.82502 -1.0866 0
M  V30 1827 H 170.44 -0.780797 -0.537644 0
M  V30 1828 H 170.146 -2.51993 -2.45341 0
M  V30 1829 H 170.02 -1.18215 -3.58197 0
M  V30 1830 H 172.407 -0.446166 -2.91708 0
M  V30 1831 H 172.488 -1.81668 -1.80085 0
M  V30 1832 H 172.132 -3.40883 -3.76512 0
M  V30 1833 H 172.062 -2.01071 -4.86701 0
M  V30 1834 H 174.553 -1.80768 -3.3186 0
M  V30 1835 H 174.866 -4.23366 -6.46514 0
M  V30 1836 H 173.211 -3.80163 -5.81808 0
M  V30 1837 H 176.402 -2.31278 -4.06974 0
M  V30 1838 H 176.575 -3.41885 -5.50471 0
M  V30 1839 N 169.982 1.44106 -0.638065 0
M  V30 1840 C 171.259 1.95453 -0.0759321 0
M  V30 1841 C 171.639 1.57984 1.40015 0
M  V30 1842 O 170.987 0.857361 2.11806 0
M  V30 1843 C 171.197 3.47655 -0.306132 0
M  V30 1844 C 172.545 4.24114 -0.203008 0
M  V30 1845 O 173.569 3.55405 -0.237871 0
M  V30 1846 O 172.428 5.46381 -0.113827 0
M  V30 1847 H 169.522 0.826797 0.0183332 0
M  V30 1848 H 172.068 1.54122 -0.710251 0
M  V30 1849 H 170.84 3.68 -1.3301 0
M  V30 1850 H 170.463 3.95949 0.361991 0
M  V30 1851 N 171.46 0.379036 1.52974 0
M  V30 1852 C 172.707 -0.206421 2.01445 0
M  V30 1853 C 173.035 -1.47668 1.26587 0
M  V30 1854 O 172.29 -1.92514 0.351675 0
M  V30 1855 C 172.589 -0.53096 3.53434 0
M  V30 1856 C 172.255 0.646546 4.46241 0
M  V30 1857 C 170.917 0.969604 4.7133 0
M  V30 1858 C 173.269 1.43479 5.01062 0
M  V30 1859 C 170.597 2.08263 5.48492 0
M  V30 1860 C 172.949 2.53834 5.7944 0
M  V30 1861 C 171.613 2.86659 6.02812 0
M  V30 1862 H 170.883 -0.0755349 0.73714 0
M  V30 1863 H 173.53 0.514271 1.84465 0
M  V30 1864 H 171.835 -1.33285 3.68432 0
M  V30 1865 H 173.532 -0.996417 3.88423 0
M  V30 1866 H 170.122 0.384734 4.2687 0
M  V30 1867 H 174.306 1.19844 4.81613 0
M  V30 1868 H 169.562 2.34078 5.64816 0
M  V30 1869 H 173.736 3.15319 6.20924 0
M  V30 1870 H 171.363 3.73026 6.62387 0
M  V30 1871 N 172.938 -1.57226 0.108567 0
M  V30 1872 C 173.868 -2.17778 -0.84232 0
M  V30 1873 C 174.849 -1.11487 -1.2847 0
M  V30 1874 O 176.034 -1.39681 -1.34918 0
M  V30 1875 C 173.164 -2.76888 -2.09644 0
M  V30 1876 C 172.118 -3.88669 -1.79221 0
M  V30 1877 C 171.444 -4.34541 -3.11574 0
M  V30 1878 C 172.744 -5.11251 -1.06864 0
M  V30 1879 H 174.438 -2.97489 -0.337774 0
M  V30 1880 H 171.984 -1.43097 -0.161025 0
M  V30 1881 H 173.937 -3.17904 -2.76614 0
M  V30 1882 H 172.661 -1.94451 -2.62405 0
M  V30 1883 H 171.32 -3.48213 -1.14644 0
M  V30 1884 H 170.968 -3.48977 -3.62249 0
M  V30 1885 H 170.668 -5.09914 -2.91996 0
M  V30 1886 H 172.192 -4.782 -3.7968 0
M  V30 1887 H 173.606 -5.49352 -1.63968 0
M  V30 1888 H 172.003 -5.9214 -0.974178 0
M  V30 1889 H 173.073 -4.8487 -0.0536168 0
M  V30 1890 N 174.416 0.165178 -1.56732 0
M  V30 1891 C 175.693 0.908443 -1.73224 0
M  V30 1892 C 176.073 2.0013 -0.67165 0
M  V30 1893 O 175.421 2.26353 0.31253 0
M  V30 1894 C 175.631 1.46756 -3.16644 0
M  V30 1895 C 176.979 1.93809 -3.77787 0
M  V30 1896 O 178.003 1.56537 -3.1996 0
M  V30 1897 O 176.862 2.62486 -4.79336 0
M  V30 1898 H 173.956 0.428025 -0.707618 0
M  V30 1899 H 176.502 0.152526 -1.69013 0
M  V30 1900 H 175.274 0.68129 -3.85323 0
M  V30 1901 H 174.897 2.28749 -3.25207 0
M  V30 1902 N 175.894 1.51508 0.433938 0
M  V30 1903 C 177.119 1.68443 1.21003 0
M  V30 1904 C 177.544 0.382636 1.84167 0
M  V30 1905 O 176.902 -0.65755 1.68956 0
M  V30 1906 C 176.95 2.80405 2.26727 0
M  V30 1907 O 176.054 2.44245 3.32292 0
M  V30 1908 H 175.395 0.561536 0.354363 0
M  V30 1909 H 177.925 1.9809 0.512024 0
M  V30 1910 H 177.935 3.0459 2.71457 0
M  V30 1911 H 176.61 3.74867 1.80132 0
M  V30 1912 H 175.187 2.30644 2.93015 0
M  V30 1913 N 177.372 -0.689602 1.41712 0
M  V30 1914 C 178.302 -1.81577 1.46806 0
M  V30 1915 C 179.283 -1.66945 0.326105 0
M  V30 1916 O 180.468 -1.86588 0.538377 0
M  V30 1917 C 177.598 -3.19762 1.35535 0
M  V30 1918 C 176.552 -3.49107 2.47605 0
M  V30 1919 C 175.878 -4.86711 2.21397 0
M  V30 1920 C 177.178 -3.47483 3.89939 0
M  V30 1921 H 178.872 -1.7757 2.41058 0
M  V30 1922 H 176.418 -0.852887 1.16025 0
M  V30 1923 H 178.371 -3.98263 1.3771 0
M  V30 1924 H 177.095 -3.24409 0.377708 0
M  V30 1925 H 175.754 -2.72959 2.44722 0
M  V30 1926 H 175.402 -4.8799 1.21961 0
M  V30 1927 H 175.102 -5.0731 2.96497 0
M  V30 1928 H 176.626 -5.67515 2.25297 0
M  V30 1929 H 178.04 -4.1598 3.94505 0
M  V30 1930 H 176.437 -3.79615 4.64771 0
M  V30 1931 H 177.507 -2.46341 4.17665 0
M  V30 1932 N 178.85 -1.27639 -0.924453 0
M  V30 1933 C 180.098 -1.13941 -1.66918 0
M  V30 1934 C 180.419 0.314589 -1.92446 0
M  V30 1935 O 179.689 1.21964 -1.53303 0
M  V30 1936 H 178.269 -0.418678 -0.618642 0
M  V30 1937 H 180.931 -1.60213 -1.10985 0
M  V30 1938 H 180.027 -1.67094 -2.63602 0
M  V30 1939 N 180.328 1.1314 -1.09713 0
M  V30 1940 C 181.575 1.84484 -0.834987 0
M  V30 1941 C 181.903 1.83689 0.639418 0
M  V30 1942 O 181.158 1.2724 1.4869 0
M  V30 1943 C 181.457 3.32167 -1.3191 0
M  V30 1944 C 181.123 3.53139 -2.80363 0
M  V30 1945 C 179.785 3.58571 -3.20905 0
M  V30 1946 C 182.137 3.60866 -3.76065 0
M  V30 1947 C 179.465 3.69267 -4.55916 0
M  V30 1948 C 181.817 3.73089 -5.10869 0
M  V30 1949 C 180.481 3.76775 -5.50996 0
M  V30 1950 H 179.751 0.675073 -0.305544 0
M  V30 1951 H 182.398 1.33554 -1.37243 0
M  V30 1952 H 180.703 3.85469 -0.701517 0
M  V30 1953 H 182.4 3.85821 -1.09284 0
M  V30 1954 H 178.99 3.49569 -2.47991 0
M  V30 1955 H 183.174 3.55946 -3.45855 0
M  V30 1956 H 178.43 3.70388 -4.86438 0
M  V30 1957 H 182.604 3.78011 -5.84877 0
M  V30 1958 H 180.231 3.84815 -6.55608 0
M  V30 1959 N 181.806 0.884767 1.30421 0
M  V30 1960 C 183.031 0.517288 2.00845 0
M  V30 1961 C 183.456 -0.886779 1.65885 0
M  V30 1962 O 182.814 -1.58768 0.875354 0
M  V30 1963 C 182.862 0.698994 3.5376 0
M  V30 1964 O 181.966 -0.255208 4.1161 0
M  V30 1965 H 181.307 0.203872 0.631927 0
M  V30 1966 H 183.837 1.19225 1.66272 0
M  V30 1967 H 183.847 0.597912 4.03595 0
M  V30 1968 H 182.522 1.72271 3.78544 0
M  V30 1969 H 181.099 -0.10784 3.72744 0
M  V30 1970 N 183.284 -1.43765 0.645699 0
M  V30 1971 C 184.512 -2.06253 0.163556 0
M  V30 1972 C 184.927 -1.48352 -1.16778 0
M  V30 1973 O 184.284 -0.611932 -1.71935 0
M  V30 1974 C 184.335 -3.61453 0.0583186 0
M  V30 1975 O 184.056 -4.172 1.33702 0
M  V30 1976 C 185.557 -4.41002 -0.450795 0
M  V30 1977 H 182.777 -0.665413 0.0864077 0
M  V30 1978 H 185.321 -1.84396 0.884222 0
M  V30 1979 H 183.476 -3.82522 -0.612865 0
M  V30 1980 H 183.89 -5.10791 1.19131 0
M  V30 1981 H 185.364 -5.49966 -0.473403 0
M  V30 1982 H 185.841 -4.13488 -1.48068 0
M  V30 1983 H 186.447 -4.24886 0.187637 0
M  V30 1984 N 184.763 -0.387143 -1.52771 0
M  V30 1985 C 186.179 -0.037007 -1.59557 0
M  V30 1986 C 186.379 1.44801 -1.40124 0
M  V30 1987 O 185.435 2.21227 -1.21716 0
M  V30 1988 C 186.748 -0.512256 -2.96305 0
M  V30 1989 C 188.296 -0.468328 -3.09476 0
M  V30 1990 C 188.771 -0.919731 -4.4867 0
M  V30 1991 N 190.262 -0.875656 -4.54848 0
M  V30 1992 C 190.997 -1.19637 -5.6078 0
M  V30 1993 N 190.493 -1.58745 -6.74368 0
M  V30 1994 N 192.286 -1.11776 -5.50874 0
M  V30 1995 H 184.437 -1.35395 -1.63652 0
M  V30 1996 H 186.7 -0.554818 -0.768688 0
M  V30 1997 H 186.406 -1.54935 -3.15734 0
M  V30 1998 H 186.28 0.089805 -3.77093 0
M  V30 1999 H 188.667 0.559671 -2.89744 0
M  V30 2000 H 188.748 -1.10616 -2.30646 0
M  V30 2001 H 188.392 -1.94595 -4.69143 0
M  V30 2002 H 188.322 -0.258927 -5.25963 0
M  V30 2003 H 190.813 -0.587843 -3.733 0
M  V30 2004 H 191.126 -1.81586 -7.51163 0
M  V30 2005 H 189.471 -1.6263 -6.75705 0
M  V30 2006 H 192.662 -0.811264 -4.61016 0
M  V30 2007 H 192.835 -1.37103 -6.3333 0
M  V30 2008 N 186.241 1.57166 -0.116904 0
M  V30 2009 C 187.151 2.18745 0.847812 0
M  V30 2010 C 188.167 1.163 1.29423 0
M  V30 2011 O 189.343 1.48761 1.35765 0
M  V30 2012 C 186.408 2.77307 2.0809 0
M  V30 2013 C 185.469 3.94781 1.68661 0
M  V30 2014 C 184.702 4.50541 2.86091 0
M  V30 2015 O 184.925 4.05202 4.01456 0
M  V30 2016 O 183.859 5.41256 2.63298 0
M  V30 2017 H 187.685 3.01632 0.353778 0
M  V30 2018 H 185.27 1.49005 0.108599 0
M  V30 2019 H 187.152 3.14647 2.80313 0
M  V30 2020 H 185.827 1.97452 2.56504 0
M  V30 2021 H 184.734 3.62214 0.935518 0
M  V30 2022 H 186.067 4.76065 1.24991 0
M  V30 2023 N 187.719 -0.156864 1.56817 0
M  V30 2024 C 188.629 -1.2136 2.00771 0
M  V30 2025 C 189.645 -1.47598 0.921459 0
M  V30 2026 O 190.821 -1.59462 1.2302 0
M  V30 2027 C 187.886 -2.52943 2.37109 0
M  V30 2028 C 186.947 -2.34439 3.59634 0
M  V30 2029 C 186.18 -3.59748 3.94229 0
M  V30 2030 O 186.403 -4.65526 3.29609 0
M  V30 2031 O 185.337 -3.52998 4.8752 0
M  V30 2032 H 189.163 -0.870468 2.90958 0
M  V30 2033 H 186.748 -0.36484 1.44877 0
M  V30 2034 H 188.63 -3.30538 2.61386 0
M  V30 2035 H 187.305 -2.86806 1.5008 0
M  V30 2036 H 186.212 -1.54828 3.40557 0
M  V30 2037 H 187.545 -2.05496 4.4725 0
M  V30 2038 N 189.197 -1.51736 -0.425897 0
M  V30 2039 C 190.445 -1.64644 -1.17204 0
M  V30 2040 C 190.766 -0.370486 -1.91448 0
M  V30 2041 O 190.036 0.614088 -1.86026 0
M  V30 2042 H 188.616 -0.606819 -0.435638 0
M  V30 2043 H 191.278 -1.88713 -0.487177 0
M  V30 2044 H 190.374 -2.47958 -1.89534 0
M  V30 2045 N 190.675 0.682077 -1.42076 0
M  V30 2046 C 191.952 1.43755 -1.32642 0
M  V30 2047 C 192.332 2.11063 0.0396611 0
M  V30 2048 O 191.68 2.02701 1.05474 0
M  V30 2049 C 191.89 2.44596 -2.48946 0
M  V30 2050 C 193.238 3.09454 -2.9073 0
M  V30 2051 O 194.262 2.54922 -2.48783 0
M  V30 2052 O 193.121 4.08253 -3.63307 0
M  V30 2053 H 190.215 0.640857 -0.522715 0
M  V30 2054 H 192.761 0.711415 -1.54068 0
M  V30 2055 H 191.533 1.93609 -3.40046 0
M  V30 2056 H 191.156 3.24701 -2.29467 0
M  V30 2057 N 192.153 1.28127 0.917671 0
M  V30 2058 C 193.083 1.14248 2.03641 0
M  V30 2059 C 194.064 0.0412748 1.7005 0
M  V30 2060 O 195.249 0.217566 1.92977 0
M  V30 2061 C 192.379 0.799431 3.37974 0
M  V30 2062 C 191.333 1.85497 3.85713 0
M  V30 2063 C 190.659 1.36565 5.16966 0
M  V30 2064 C 191.959 3.26085 4.08002 0
M  V30 2065 H 193.653 2.07835 2.15511 0
M  V30 2066 H 191.199 1.00064 1.03553 0
M  V30 2067 H 193.152 0.689114 4.15727 0
M  V30 2068 H 191.876 -0.172145 3.26146 0
M  V30 2069 H 190.535 1.95437 3.10161 0
M  V30 2070 H 190.183 0.383253 5.01538 0
M  V30 2071 H 189.883 2.07143 5.49878 0
M  V30 2072 H 191.407 1.26848 5.97279 0
M  V30 2073 H 192.821 3.19089 4.76293 0
M  V30 2074 H 191.218 3.94462 4.52238 0
M  V30 2075 H 192.288 3.70394 3.12948 0
M  V30 2076 N 193.631 -1.12557 1.10312 0
M  V30 2077 C 194.879 -1.83675 0.843091 0
M  V30 2078 C 195.2 -1.84435 -0.633131 0
M  V30 2079 O 194.47 -1.30657 -1.45964 0
M  V30 2080 H 193.05 -0.680138 0.308904 0
M  V30 2081 H 195.712 -1.36301 1.39313 0
M  V30 2082 H 194.808 -2.87908 1.2048 0
M  V30 2083 N 195.109 -0.891671 -1.2995 0
M  V30 2084 C 196.52 -0.563104 -1.78006 0
M  V30 2085 C 196.871 0.920978 -1.73241 0
M  V30 2086 O 195.996 1.71987 -1.31337 0
M  V30 2087 C 196.591 -1.01539 -3.23226 0
M  V30 2088 C 195.15 -0.738124 -3.69092 0
M  V30 2089 C 194.297 -1.19461 -2.50249 0
M  V30 2090 H 197.248 -1.07522 -1.16725 0
M  V30 2091 H 197.269 -0.347217 -3.78912 0
M  V30 2092 H 196.781 -2.09555 -3.26662 0
M  V30 2093 H 194.882 0.329766 -3.71138 0
M  V30 2094 H 194.995 -1.33037 -4.60259 0
M  V30 2095 H 193.359 -0.613787 -2.47194 0
M  V30 2096 H 194.142 -2.28265 -2.56417 0
M  V30 2097 N 196.587 1.43421 -0.653314 0
M  V30 2098 C 197.833 2.02111 -0.166992 0
M  V30 2099 C 198.166 1.51423 1.21592 0
M  V30 2100 O 197.441 0.707389 1.8118 0
M  V30 2101 C 197.724 3.5966 -0.177948 0
M  V30 2102 C 197.577 4.20579 -1.59478 0
M  V30 2103 C 198.896 4.37413 0.4856 0
M  V30 2104 H 196.015 0.734374 -0.0621557 0
M  V30 2105 H 198.657 1.70717 -0.834016 0
M  V30 2106 H 196.807 3.86537 0.390032 0
M  V30 2107 H 198.479 4.04732 -2.21336 0
M  V30 2108 H 196.722 3.77226 -2.14204 0
M  V30 2109 H 197.393 5.29665 -1.5543 0
M  V30 2110 H 199.869 4.161 0.00234528 0
M  V30 2111 H 198.745 5.47075 0.447207 0
M  V30 2112 H 199.006 4.13672 1.55974 0
M  V30 2113 N 198.065 0.39524 1.52563 0
M  V30 2114 C 199.295 -0.184675 2.05773 0
M  V30 2115 C 199.703 -1.40571 1.26635 0
M  V30 2116 O 199.046 -1.81105 0.30769 0
M  V30 2117 C 199.108 -0.613551 3.54226 0
M  V30 2118 C 198.772 0.49484 4.54313 0
M  V30 2119 C 199.769 1.3541 5.01956 0
M  V30 2120 C 197.454 0.663565 4.97898 0
M  V30 2121 C 199.448 2.36716 5.91814 0
M  V30 2122 C 197.135 1.67996 5.87555 0
M  V30 2123 C 198.133 2.53017 6.34406 0
M  V30 2124 O 197.821 3.52917 7.22291 0
M  V30 2125 H 197.553 -0.030077 0.675331 0
M  V30 2126 H 200.107 0.560708 1.97599 0
M  V30 2127 H 198.337 -1.411 3.60038 0
M  V30 2128 H 200.026 -1.11981 3.90148 0
M  V30 2129 H 200.792 1.23509 4.6901 0
M  V30 2130 H 196.671 0.0114913 4.60999 0
M  V30 2131 H 200.215 3.03113 6.28306 0
M  V30 2132 H 196.112 1.79933 6.19915 0
M  V30 2133 H 196.88 3.48996 7.40367 0
M  V30 2134 N 199.544 -1.57102 0.125237 0
M  V30 2135 C 200.792 -1.95021 -0.530198 0
M  V30 2136 C 201.113 -1.00982 -1.66816 0
M  V30 2137 O 200.383 -0.0672693 -1.95784 0
M  V30 2138 H 198.963 -0.720046 -0.198853 0
M  V30 2139 H 201.625 -1.93916 0.19564 0
M  V30 2140 H 200.721 -2.98211 -0.920681 0
M  V30 2141 N 201.022 0.148545 -1.56898 0
M  V30 2142 C 202.269 0.861418 -1.83264 0
M  V30 2143 C 202.597 1.81239 -0.705883 0
M  V30 2144 O 201.852 1.93305 0.305212 0
M  V30 2145 C 202.151 1.67064 -3.1595 0
M  V30 2146 C 201.817 0.866591 -4.42494 0
M  V30 2147 C 200.479 0.644762 -4.76861 0
M  V30 2148 C 202.831 0.30418 -5.20312 0
M  V30 2149 C 200.159 -0.15021 -5.86508 0
M  V30 2150 C 202.511 -0.477824 -6.30793 0
M  V30 2151 C 201.175 -0.710244 -6.63711 0
M  V30 2152 H 200.445 0.315215 -0.670612 0
M  V30 2153 H 203.092 0.125142 -1.91091 0
M  V30 2154 H 201.397 2.47698 -3.03567 0
M  V30 2155 H 203.094 2.22566 -3.33565 0
M  V30 2156 H 199.684 1.04955 -4.15551 0
M  V30 2157 H 203.868 0.462844 -4.94137 0
M  V30 2158 H 199.124 -0.339796 -6.10455 0
M  V30 2159 H 203.298 -0.92076 -6.90286 0
M  V30 2160 H 200.925 -1.3281 -7.48509 0
M  V30 2161 N 202.5 1.5196 0.417844 0
M  V30 2162 C 203.432 1.70895 1.52733 0
M  V30 2163 C 204.445 0.589405 1.51756 0
M  V30 2164 O 205.634 0.864312 1.56179 0
M  V30 2165 C 202.734 1.72627 2.91639 0
M  V30 2166 C 201.907 3.01479 3.16905 0
M  V30 2167 C 200.966 2.95139 4.35637 0
M  V30 2168 O 199.992 3.69059 4.3334 0
M  V30 2169 N 201.194 2.12328 5.40275 0
M  V30 2170 H 203.959 2.66612 1.36888 0
M  V30 2171 H 201.52 1.50089 0.607037 0
M  V30 2172 H 203.512 1.65928 3.6912 0
M  V30 2173 H 202.082 0.844216 3.00985 0
M  V30 2174 H 201.302 3.21895 2.27546 0
M  V30 2175 H 202.59 3.86736 3.30625 0
M  V30 2176 H 201.988 1.51685 5.44985 0
M  V30 2177 H 200.545 2.11494 6.16534 0
M  V30 2178 N 203.978 -0.674533 1.42435 0
M  V30 2179 C 205.224 -1.43521 1.4413 0
M  V30 2180 C 205.579 -1.92316 0.0567773 0
M  V30 2181 O 204.872 -1.68008 -0.921076 0
M  V30 2182 C 205.066 -2.64767 2.40069 0
M  V30 2183 C 204.895 -2.27836 3.87713 0
M  V30 2184 C 203.665 -2.17183 4.56245 0
M  V30 2185 C 205.863 -1.89466 4.78129 0
M  V30 2186 N 203.845 -1.73358 5.88915 0
M  V30 2187 C 205.216 -1.56561 5.99907 0
M  V30 2188 C 207.271 -1.7646 4.65582 0
M  V30 2189 C 205.974 -1.11957 7.10534 0
M  V30 2190 C 208 -1.3326 5.76191 0
M  V30 2191 C 207.362 -1.0128 6.97081 0
M  V30 2192 H 203.461 -0.521656 0.582579 0
M  V30 2193 H 206.045 -0.778381 1.78464 0
M  V30 2194 H 204.216 -3.28139 2.07796 0
M  V30 2195 H 205.948 -3.3136 2.32342 0
M  V30 2196 H 202.703 -2.3626 4.10461 0
M  V30 2197 H 203.127 -1.53867 6.59283 0
M  V30 2198 H 207.769 -1.99831 3.72595 0
M  V30 2199 H 205.487 -0.873318 8.03367 0
M  V30 2200 H 209.073 -1.23717 5.68494 0
M  V30 2201 H 207.953 -0.683597 7.81215 0
M  V30 2202 N 205.456 -1.28612 -0.910864 0
M  V30 2203 C 206.872 -1.06381 -1.18976 0
M  V30 2204 C 207.072 0.191998 -2.00583 0
M  V30 2205 O 206.128 0.892869 -2.36187 0
M  V30 2206 C 207.441 -2.31295 -1.92154 0
M  V30 2207 C 208.989 -2.36503 -2.05025 0
M  V30 2208 C 209.464 -3.61191 -2.81612 0
M  V30 2209 N 210.955 -3.61847 -2.89172 0
M  V30 2210 C 211.69 -4.55004 -3.4894 0
M  V30 2211 N 211.186 -5.58482 -4.09963 0
M  V30 2212 N 212.979 -4.42594 -3.46506 0
M  V30 2213 H 205.13 -2.09221 -0.366094 0
M  V30 2214 H 207.393 -0.921003 -0.224629 0
M  V30 2215 H 207.099 -3.228 -1.39618 0
M  V30 2216 H 206.973 -2.37934 -2.9269 0
M  V30 2217 H 209.36 -1.45494 -2.5674 0
M  V30 2218 H 209.441 -2.33857 -1.03657 0
M  V30 2219 H 209.085 -4.52545 -2.30576 0
M  V30 2220 H 209.015 -3.61092 -3.83302 0
M  V30 2221 H 211.506 -2.87022 -2.45819 0
M  V30 2222 H 211.819 -6.25704 -4.53557 0
M  V30 2223 H 210.164 -5.62305 -4.08459 0
M  V30 2224 H 213.355 -3.60953 -2.98045 0
M  V30 2225 H 213.528 -5.15381 -3.92793 0
M  V30 2226 N 206.934 1.1197 -1.10907 0
M  V30 2227 C 207.884 2.15946 -0.731538 0
M  V30 2228 C 208.868 1.58758 0.261699 0
M  V30 2229 O 210.06 1.76863 0.0696722 0
M  V30 2230 C 207.189 3.42877 -0.170299 0
M  V30 2231 C 206.275 4.07037 -1.19087 0
M  V30 2232 N 206.666 4.46135 -2.38322 0
M  V30 2233 C 204.964 4.33884 -1.03252 0
M  V30 2234 C 205.665 4.96331 -3.03366 0
M  V30 2235 N 204.641 4.9214 -2.30865 0
M  V30 2236 H 208.443 2.43947 -1.63912 0
M  V30 2237 H 205.957 1.28927 -0.987505 0
M  V30 2238 H 207.954 4.16732 0.118271 0
M  V30 2239 H 206.614 3.16343 0.731935 0
M  V30 2240 H 207.625 4.38345 -2.75815 0
M  V30 2241 H 204.302 4.17084 -0.186256 0
M  V30 2242 H 205.692 5.36257 -4.04818 0
M  V30 2243 N 208.412 0.89855 1.29475 0
M  V30 2244 C 209.659 0.523882 1.95606 0
M  V30 2245 C 209.987 -0.929608 1.70847 0
M  V30 2246 O 209.242 -1.67401 1.01367 0
M  V30 2247 C 209.541 0.761398 3.49195 0
M  V30 2248 C 209.207 2.19207 3.94029 0
M  V30 2249 C 207.869 2.58326 4.05982 0
M  V30 2250 C 210.221 3.12379 4.17216 0
M  V30 2251 C 207.549 3.898 4.38489 0
M  V30 2252 C 209.901 4.43401 4.51197 0
M  V30 2253 C 208.565 4.82394 4.61359 0
M  V30 2254 H 207.835 0.191702 0.715773 0
M  V30 2255 H 210.482 1.13699 1.54094 0
M  V30 2256 H 208.787 0.0653622 3.91745 0
M  V30 2257 H 210.484 0.450904 3.98457 0
M  V30 2258 H 207.074 1.87846 3.85242 0
M  V30 2259 H 211.258 2.83371 4.07449 0
M  V30 2260 H 206.514 4.19734 4.44559 0
M  V30 2261 H 210.688 5.15623 4.68087 0
M  V30 2262 H 208.315 5.84306 4.86303 0
M  V30 2263 N 209.89 -1.43072 0.660911 0
M  V30 2264 C 211.138 -2.01323 0.177094 0
M  V30 2265 C 211.459 -1.5245 -1.2159 0
M  V30 2266 O 210.729 -0.740322 -1.81373 0
M  V30 2267 H 209.309 -0.744382 0.0624804 0
M  V30 2268 H 211.971 -1.75179 0.854305 0
M  V30 2269 H 211.067 -3.11649 0.167641 0
M  V30 2270 N 211.368 -0.403325 -1.52352 0
M  V30 2271 C 212.331 0.413051 -2.25447 0
M  V30 2272 C 213.331 0.978513 -1.276 0
M  V30 2273 O 214.521 0.858305 -1.51587 0
M  V30 2274 C 211.653 1.58087 -3.02029 0
M  V30 2275 H 212.846 -0.227094 -2.99039 0
M  V30 2276 H 210.399 -0.155722 -1.55522 0
M  V30 2277 H 211.134 2.25804 -2.32772 0
M  V30 2278 H 210.919 1.18195 -3.73861 0
M  V30 2279 H 212.409 2.1585 -3.57489 0
M  V30 2280 N 212.846 1.57033 -0.133567 0
M  V30 2281 C 213.756 2.19632 0.824564 0
M  V30 2282 C 214.772 1.17666 1.28182 0
M  V30 2283 O 215.948 1.50193 1.3418 0
M  V30 2284 C 213.013 2.79499 2.05137 0
M  V30 2285 C 212.074 3.96548 1.64464 0
M  V30 2286 C 211.307 4.5355 2.81297 0
M  V30 2287 O 211.53 4.09438 3.97136 0
M  V30 2288 O 210.464 5.44018 2.57542 0
M  V30 2289 H 214.29 3.01991 0.321766 0
M  V30 2290 H 211.875 1.49112 0.0927889 0
M  V30 2291 H 213.757 3.17602 2.7696 0
M  V30 2292 H 212.432 2.00162 2.54395 0
M  V30 2293 H 211.339 3.63186 0.897048 0
M  V30 2294 H 212.672 4.77364 1.19934 0
M  V30 2295 N 214.325 -0.140222 1.56975 0
M  V30 2296 C 215.555 -0.865181 1.87612 0
M  V30 2297 C 215.963 -1.74942 0.72055 0
M  V30 2298 O 215.306 -1.80917 -0.318561 0
M  V30 2299 C 215.368 -1.76782 3.13031 0
M  V30 2300 C 215.032 -1.06005 4.44536 0
M  V30 2301 C 216.029 -0.410768 5.18275 0
M  V30 2302 C 213.714 -1.04754 4.91255 0
M  V30 2303 C 215.708 0.241572 6.36942 0
M  V30 2304 C 213.395 -0.391394 6.09845 0
M  V30 2305 C 214.393 0.252029 6.82535 0
M  V30 2306 O 214.081 0.897757 7.98871 0
M  V30 2307 H 213.813 -0.255188 0.625983 0
M  V30 2308 H 216.367 -0.135653 2.04952 0
M  V30 2309 H 214.597 -2.53846 2.91718 0
M  V30 2310 H 216.286 -2.36533 3.29859 0
M  V30 2311 H 217.052 -0.412195 4.83245 0
M  V30 2312 H 212.931 -1.53777 4.34596 0
M  V30 2313 H 216.475 0.744375 6.93617 0
M  V30 2314 H 212.372 -0.387656 6.44335 0
M  V30 2315 H 213.14 0.800102 8.1458 0
M  V30 2316 N 215.803 -1.52179 -0.40978 0
M  V30 2317 C 217.219 -1.40968 -0.74835 0
M  V30 2318 C 217.419 -0.513657 -1.94843 0
M  V30 2319 O 216.475 0.0208026 -2.52491 0
M  V30 2320 C 217.788 -2.83483 -1.0029 0
M  V30 2321 C 219.336 -2.92821 -1.10565 0
M  V30 2322 C 219.811 -4.36303 -1.39296 0
M  V30 2323 N 221.302 -4.39535 -1.46162 0
M  V30 2324 C 222.037 -5.47614 -1.70018 0
M  V30 2325 N 221.533 -6.65812 -1.91483 0
M  V30 2326 N 223.326 -5.35129 -1.72027 0
M  V30 2327 H 215.477 -2.0897 0.380186 0
M  V30 2328 H 217.74 -0.94185 0.107805 0
M  V30 2329 H 217.446 -3.51168 -0.193461 0
M  V30 2330 H 217.32 -3.24487 -1.92323 0
M  V30 2331 H 219.707 -2.25318 -1.90568 0
M  V30 2332 H 219.788 -2.55276 -0.16369 0
M  V30 2333 H 219.432 -5.04366 -0.598109 0
M  V30 2334 H 219.362 -4.71385 -2.34743 0
M  V30 2335 H 221.853 -3.54332 -1.31367 0
M  V30 2336 H 222.166 -7.43964 -2.09134 0
M  V30 2337 H 220.511 -6.68879 -1.88749 0
M  V30 2338 H 223.702 -4.41764 -1.54796 0
M  V30 2339 H 223.875 -6.19433 -1.9028 0
M  V30 2340 N 217.281 0.66697 -1.42791 0
M  V30 2341 C 218.558 1.4234 -1.34159 0
M  V30 2342 C 218.938 2.11093 0.0172729 0
M  V30 2343 O 218.286 2.03808 1.03318 0
M  V30 2344 C 218.496 2.41942 -2.51526 0
M  V30 2345 C 219.844 3.06353 -2.93995 0
M  V30 2346 O 220.868 2.52269 -2.51473 0
M  V30 2347 O 219.727 4.04376 -3.67617 0
M  V30 2348 H 216.821 0.635277 -0.529483 0
M  V30 2349 H 219.367 0.695034 -1.54814 0
M  V30 2350 H 218.139 1.89991 -3.42081 0
M  V30 2351 H 217.762 3.22249 -2.32898 0
M  V30 2352 N 218.759 1.29093 0.90403 0
M  V30 2353 C 219.692 1.08176 2.00931 0
M  V30 2354 C 220.67 -0.005083 1.62599 0
M  V30 2355 O 221.854 0.144765 1.87943 0
M  V30 2356 C 218.981 0.645897 3.32484 0
M  V30 2357 C 218.027 1.73081 3.89801 0
M  V30 2358 S 218.86 3.32905 4.19446 0
M  V30 2359 C 220.016 2.91176 5.54046 0
M  V30 2360 H 220.249 2.01752 2.18365 0
M  V30 2361 H 217.782 1.13191 1.0501 0
M  V30 2362 H 219.74 0.401131 4.08535 0
M  V30 2363 H 218.401 -0.270188 3.12936 0
M  V30 2364 H 217.594 1.37768 4.84805 0
M  V30 2365 H 217.196 1.92888 3.20422 0
M  V30 2366 H 219.488 2.37952 6.34338 0
M  V30 2367 H 220.431 3.85014 5.94281 0
M  V30 2368 H 220.839 2.296 5.15698 0
M  V30 2369 N 220.237 -1.11381 1.11499 0
M  V30 2370 C 221.147 -2.21019 0.786628 0
M  V30 2371 C 222.163 -1.72597 -0.220507 0
M  V30 2372 O 223.339 -2.01321 -0.0565251 0
M  V30 2373 C 220.404 -3.459 0.235333 0
M  V30 2374 C 219.465 -4.09107 1.30115 0
M  V30 2375 C 218.698 -5.28027 0.776068 0
M  V30 2376 O 218.921 -5.6904 -0.393661 0
M  V30 2377 O 217.855 -5.81835 1.54114 0
M  V30 2378 H 221.681 -2.51521 1.70209 0
M  V30 2379 H 219.266 -1.19928 0.890928 0
M  V30 2380 H 221.148 -4.21346 -0.067715 0
M  V30 2381 H 219.823 -3.17049 -0.652828 0
M  V30 2382 H 218.73 -3.35391 1.65722 0
M  V30 2383 H 220.063 -4.42139 2.16273 0
M  V30 2384 N 221.715 -0.905404 -1.28997 0
M  V30 2385 C 222.94 -0.549175 -1.99997 0
M  V30 2386 C 223.365 0.860276 -1.67275 0
M  V30 2387 O 222.723 1.57355 -0.900502 0
M  V30 2388 C 222.771 -0.755185 -3.52604 0
M  V30 2389 O 221.875 0.189692 -4.11964 0
M  V30 2390 H 221.216 -0.213899 -0.628604 0
M  V30 2391 H 223.746 -1.21856 -1.64354 0
M  V30 2392 H 223.756 -0.662045 -4.02593 0
M  V30 2393 H 222.431 -1.78271 -3.75755 0
M  V30 2394 H 221.008 0.0485257 -3.72868 0
M  V30 2395 N 223.193 1.4272 -0.668489 0
M  V30 2396 C 224.47 1.95248 -0.117373 0
M  V30 2397 C 224.85 1.60919 1.36632 0
M  V30 2398 O 224.198 0.902095 2.09939 0
M  V30 2399 C 224.408 3.46927 -0.379806 0
M  V30 2400 C 225.756 4.23588 -0.292923 0
M  V30 2401 O 226.78 3.5482 -0.313204 0
M  V30 2402 O 225.639 5.46017 -0.229697 0
M  V30 2403 H 222.733 0.827 0.00079152 0
M  V30 2404 H 225.279 1.52581 -0.742783 0
M  V30 2405 H 224.051 3.65096 -1.40786 0
M  V30 2406 H 223.674 3.96627 0.277923 0
M  V30 2407 N 224.671 0.411399 1.52136 0
M  V30 2408 C 225.901 -0.16284 2.05957 0
M  V30 2409 C 226.309 -1.3922 1.28119 0
M  V30 2410 O 225.652 -1.80768 0.326881 0
M  V30 2411 C 225.714 -0.575946 3.54856 0
M  V30 2412 C 225.378 0.542998 4.53763 0
M  V30 2413 C 226.375 1.40726 5.00492 0
M  V30 2414 C 224.06 0.716337 4.97166 0
M  V30 2415 C 226.054 2.4298 5.8927 0
M  V30 2416 C 223.741 1.74218 5.8574 0
M  V30 2417 C 224.739 2.59731 6.31687 0
M  V30 2418 O 224.427 3.60558 7.18507 0
M  V30 2419 H 224.159 -0.0229125 0.675612 0
M  V30 2420 H 226.713 0.581634 1.96993 0
M  V30 2421 H 224.943 -1.37274 3.61515 0
M  V30 2422 H 226.632 -1.07836 3.91313 0
M  V30 2423 H 227.398 1.28476 4.67674 0
M  V30 2424 H 223.277 0.0603857 4.6096 0
M  V30 2425 H 226.821 3.0976 6.25055 0
M  V30 2426 H 222.718 1.86498 6.17971 0
M  V30 2427 H 223.486 3.56829 7.36624 0
M  V30 2428 N 226.149 -1.5696 0.141893 0
M  V30 2429 C 227.374 -2.00754 -0.520838 0
M  V30 2430 C 227.799 -1.0213 -1.57959 0
M  V30 2431 O 227.157 0.00371324 -1.813 0
M  V30 2432 C 227.205 -3.43318 -1.10294 0
M  V30 2433 O 226.309 -3.47679 -2.21795 0
M  V30 2434 H 225.65 -0.651564 -0.127908 0
M  V30 2435 H 228.18 -2.03221 0.23712 0
M  V30 2436 H 228.19 -3.82012 -1.43287 0
M  V30 2437 H 226.865 -4.14608 -0.327574 0
M  V30 2438 H 225.442 -3.20824 -1.9007 0
M  V30 2439 N 227.627 0.131896 -1.57047 0
M  V30 2440 C 228.875 0.840269 -1.83804 0
M  V30 2441 C 229.196 1.81017 -0.72512 0
M  V30 2442 O 228.466 1.94272 0.251995 0
M  V30 2443 H 227.046 0.313294 -0.678127 0
M  V30 2444 H 229.708 0.122294 -1.94516 0
M  V30 2445 H 228.804 1.39335 -2.79271 0
M  V30 2446 N 229.106 1.52395 0.401703 0
M  V30 2447 C 230.038 1.72505 1.50912 0
M  V30 2448 C 231.051 0.605468 1.51122 0
M  V30 2449 O 232.24 0.880828 1.55254 0
M  V30 2450 C 229.34 1.75711 2.89791 0
M  V30 2451 C 228.513 3.04824 3.1369 0
M  V30 2452 C 227.572 2.99743 4.32482 0
M  V30 2453 O 226.598 3.73635 4.29402 0
M  V30 2454 N 227.8 2.18047 5.37992 0
M  V30 2455 H 230.565 2.68049 1.34052 0
M  V30 2456 H 228.126 1.50724 0.591084 0
M  V30 2457 H 230.118 1.69834 3.6734 0
M  V30 2458 H 228.688 0.876092 3.00072 0
M  V30 2459 H 227.908 3.2429 2.24119 0
M  V30 2460 H 229.196 3.90221 3.26504 0
M  V30 2461 H 228.594 1.57456 5.43345 0
M  V30 2462 H 227.151 2.18021 6.14256 0
M  V30 2463 N 230.584 -0.659388 1.43143 0
M  V30 2464 C 231.832 -1.41654 1.44147 0
M  V30 2465 C 232.153 -1.94893 0.0645739 0
M  V30 2466 O 231.423 -1.74044 -0.899198 0
M  V30 2467 H 230.003 -0.525708 0.530697 0
M  V30 2468 H 232.665 -0.778097 1.78694 0
M  V30 2469 H 231.761 -2.26195 2.1504 0
M  V30 2470 N 232.062 -1.29571 -0.897171 0
M  V30 2471 C 233.308 -1.17863 -1.65034 0
M  V30 2472 C 233.641 0.268729 -1.92332 0
M  V30 2473 O 232.916 1.19378 -1.53555 0
M  V30 2474 C 233.199 -1.995 -2.99786 0
M  V30 2475 C 233.052 -3.5239 -2.79538 0
M  V30 2476 C 234.371 -1.82335 -4.00552 0
M  V30 2477 H 231.49 -0.429528 -0.598895 0
M  V30 2478 H 234.132 -1.59072 -1.03905 0
M  V30 2479 H 232.282 -1.64485 -3.51962 0
M  V30 2480 H 233.954 -3.97401 -2.34244 0
M  V30 2481 H 232.197 -3.77187 -2.14273 0
M  V30 2482 H 232.868 -4.04787 -3.75302 0
M  V30 2483 H 235.344 -2.12924 -3.57495 0
M  V30 2484 H 234.22 -2.41801 -4.92771 0
M  V30 2485 H 234.481 -0.779209 -4.35179 0
M  V30 2486 N 233.54 1.10788 -1.12088 0
M  V30 2487 C 234.817 1.79136 -0.785476 0
M  V30 2488 C 235.197 1.98246 0.725377 0
M  V30 2489 O 234.545 1.57258 1.65778 0
M  V30 2490 C 234.755 3.12375 -1.55636 0
M  V30 2491 C 236.103 3.8731 -1.74001 0
M  V30 2492 O 237.127 3.22085 -1.52117 0
M  V30 2493 O 235.986 5.04369 -2.10415 0
M  V30 2494 H 233.08 0.776226 -0.285311 0
M  V30 2495 H 235.626 1.1747 -1.2247 0
M  V30 2496 H 234.398 2.93863 -2.5838 0
M  V30 2497 H 234.021 3.81758 -1.11114 0
M  V30 2498 N 235.018 0.912232 1.28515 0
M  V30 2499 C 235.95 0.35676 2.26406 0
M  V30 2500 C 236.963 -0.503933 1.54804 0
M  V30 2501 O 238.152 -0.319059 1.75625 0
M  V30 2502 C 235.252 -0.508825 3.35058 0
M  V30 2503 C 234.425 0.329007 4.36161 0
M  V30 2504 C 233.484 -0.471422 5.24084 0
M  V30 2505 O 232.51 0.115482 5.69083 0
M  V30 2506 N 233.712 -1.77479 5.52704 0
M  V30 2507 H 236.477 1.19818 2.74707 0
M  V30 2508 H 234.038 0.778022 1.4198 0
M  V30 2509 H 236.03 -1.051 3.90815 0
M  V30 2510 H 234.6 -1.25095 2.86478 0
M  V30 2511 H 233.82 1.05256 3.79888 0
M  V30 2512 H 235.108 0.90234 5.00735 0
M  V30 2513 H 234.506 -2.27417 5.17975 0
M  V30 2514 H 233.063 -2.26382 6.11224 0
M  V30 2515 N 236.496 -1.42363 0.676048 0
M  V30 2516 C 237.426 -2.33497 0.0124832 0
M  V30 2517 C 238.407 -1.50748 -0.787981 0
M  V30 2518 O 239.592 -1.79346 -0.744884 0
M  V30 2519 C 236.722 -3.34377 -0.938582 0
M  V30 2520 C 235.676 -4.27289 -0.246622 0
M  V30 2521 C 235.002 -5.18386 -1.31071 0
M  V30 2522 C 236.302 -5.14916 0.875125 0
M  V30 2523 H 237.996 -2.89233 0.773593 0
M  V30 2524 H 235.542 -1.39073 0.37346 0
M  V30 2525 H 237.495 -3.97044 -1.41188 0
M  V30 2526 H 236.219 -2.76947 -1.73113 0
M  V30 2527 H 234.878 -3.66018 0.206456 0
M  V30 2528 H 234.526 -4.57282 -2.09528 0
M  V30 2529 H 234.226 -5.81378 -0.852839 0
M  V30 2530 H 235.75 -5.83929 -1.78492 0
M  V30 2531 H 237.164 -5.71262 0.482983 0
M  V30 2532 H 235.561 -5.86747 1.25887 0
M  V30 2533 H 236.631 -4.53242 1.72335 0
M  V30 2534 N 237.974 -0.419461 -1.51915 0
M  V30 2535 C 238.906 0.43646 -2.25006 0
M  V30 2536 C 239.919 1.00149 -1.28351 0
M  V30 2537 O 241.108 0.898674 -1.54227 0
M  V30 2538 C 238.208 1.6206 -2.9764 0
M  V30 2539 C 237.381 1.17763 -4.21249 0
M  V30 2540 C 236.44 2.22985 -4.76617 0
M  V30 2541 O 235.466 1.83151 -5.38929 0
M  V30 2542 N 236.668 3.55271 -4.59089 0
M  V30 2543 H 239.433 -0.18989 -2.99098 0
M  V30 2544 H 236.994 -0.247386 -1.59999 0
M  V30 2545 H 238.986 2.32038 -3.31573 0
M  V30 2546 H 237.556 2.15266 -2.2667 0
M  V30 2547 H 236.776 0.305582 -3.93014 0
M  V30 2548 H 238.064 0.858781 -5.015 0
M  V30 2549 H 237.462 3.90377 -4.09417 0
M  V30 2550 H 236.019 4.21195 -4.97432 0
M  V30 2551 N 239.452 1.56882 -0.150215 0
M  V30 2552 C 240.868 1.58263 0.20617 0
M  V30 2553 C 241.068 1.16464 1.64434 0
M  V30 2554 O 240.124 0.866422 2.3717 0
M  V30 2555 C 241.437 3.00649 -0.0555025 0
M  V30 2556 C 242.985 3.12999 0.00795388 0
M  V30 2557 C 243.46 4.5744 -0.226429 0
M  V30 2558 N 244.951 4.62875 -0.173469 0
M  V30 2559 C 245.686 5.72454 -0.329288 0
M  V30 2560 N 245.182 6.90669 -0.543005 0
M  V30 2561 N 246.975 5.61467 -0.266666 0
M  V30 2562 H 239.126 1.82345 -1.08922 0
M  V30 2563 H 241.389 0.844149 -0.431413 0
M  V30 2564 H 241.095 3.3563 -1.05096 0
M  V30 2565 H 240.969 3.71337 0.66246 0
M  V30 2566 H 243.356 2.77857 0.993966 0
M  V30 2567 H 243.437 2.4479 -0.742388 0
M  V30 2568 H 243.081 4.93287 -1.20956 0
M  V30 2569 H 243.011 5.2378 0.544274 0
M  V30 2570 H 245.502 3.77898 -0.0130709 0
M  V30 2571 H 245.815 7.70045 -0.651922 0
M  V30 2572 H 244.16 6.92581 -0.579366 0
M  V30 2573 H 247.351 4.67992 -0.100441 0
M  V30 2574 H 247.524 6.46816 -0.391535 0
M  V30 2575 N 240.93 -0.123565 1.57115 0
M  V30 2576 C 242.176 -0.833386 1.84885 0
M  V30 2577 C 242.509 -1.79742 0.735292 0
M  V30 2578 O 241.784 -1.92764 -0.25925 0
M  V30 2579 C 242.067 -1.5873 3.23228 0
M  V30 2580 C 241.92 -0.643183 4.45178 0
M  V30 2581 C 243.239 -2.54453 3.59085 0
M  V30 2582 H 240.358 -0.301518 0.6725 0
M  V30 2583 H 243 -0.097778 1.89748 0
M  V30 2584 H 241.15 -2.21438 3.19214 0
M  V30 2585 H 242.822 -0.0253015 4.61293 0
M  V30 2586 H 241.065 0.0456139 4.33776 0
M  V30 2587 H 241.736 -1.20724 5.38637 0
M  V30 2588 H 244.212 -2.01853 3.63861 0
M  V30 2589 H 243.088 -3.04238 4.5687 0
M  V30 2590 H 243.349 -3.36906 2.86264 0
M  V30 2591 N 242.408 -1.52605 -0.393616 0
M  V30 2592 C 243.657 -1.66649 -1.13627 0
M  V30 2593 C 243.97 -0.410364 -1.91247 0
M  V30 2594 O 245.176 -0.430854 -2.68059 0
M  V30 2595 C 243.632 -2.9449 -2.06891 0
M  V30 2596 C 243.24 -4.27266 -1.34714 0
M  V30 2597 C 244.984 -3.17899 -2.81319 0
M  V30 2598 C 242.891 -5.46217 -2.26717 0
M  V30 2599 H 241.821 -0.62084 -0.427871 0
M  V30 2600 H 244.472 -1.791 -0.399428 0
M  V30 2601 H 242.854 -2.75774 -2.84191 0
M  V30 2602 H 244.028 -4.56518 -0.626714 0
M  V30 2603 H 242.343 -4.10081 -0.722643 0
M  V30 2604 H 244.94 -4.03949 -3.50328 0
M  V30 2605 H 245.283 -2.32777 -3.45139 0
M  V30 2606 H 245.816 -3.37159 -2.11113 0
M  V30 2607 H 242.555 -6.33733 -1.67521 0
M  V30 2608 H 242.075 -5.21283 -2.96689 0
M  V30 2609 H 243.754 -5.7991 -2.86903 0
M  V30 2610 N 243.887 0.651787 -1.4349 0
M  V30 2611 C 245.164 1.40909 -1.35661 0
M  V30 2612 C 245.544 2.11099 -0.00511733 0
M  V30 2613 O 244.892 2.04892 1.0115 0
M  V30 2614 C 245.102 2.3926 -2.54078 0
M  V30 2615 C 246.45 3.03217 -2.97228 0
M  V30 2616 O 247.474 2.49588 -2.54135 0
M  V30 2617 O 246.333 4.00455 -3.71885 0
M  V30 2618 H 243.427 0.629625 -0.536191 0
M  V30 2619 H 245.973 0.678575 -1.55542 0
M  V30 2620 H 244.745 1.86352 -3.44076 0
M  V30 2621 H 244.368 3.1976 -2.36303 0
M  V30 2622 N 245.365 1.30045 0.890287 0
M  V30 2623 C 246.593 1.21472 1.67487 0
M  V30 2624 C 247.008 -0.223241 1.87476 0
M  V30 2625 O 246.365 -1.14828 1.41847 0
M  V30 2626 C 246.416 1.93394 3.05419 0
M  V30 2627 O 246.137 3.31576 2.86337 0
M  V30 2628 C 247.638 1.91414 3.99844 0
M  V30 2629 H 244.858 0.420604 0.522813 0
M  V30 2630 H 247.402 1.7158 1.11268 0
M  V30 2631 H 245.557 1.47099 3.58386 0
M  V30 2632 H 245.971 3.67929 3.73802 0
M  V30 2633 H 247.445 2.46285 4.94012 0
M  V30 2634 H 247.922 0.891833 4.3005 0
M  V30 2635 H 248.528 2.37496 3.52811 0
M  V30 2636 N 246.843 -1.10192 1.12674 0
M  V30 2637 C 248.092 -1.81573 0.8783 0
M  V30 2638 C 248.405 -1.86249 -0.597557 0
M  V30 2639 O 249.611 -2.5386 -0.962681 0
M  V30 2640 C 248.067 -3.26149 1.52167 0
M  V30 2641 C 247.675 -3.29763 3.03249 0
M  V30 2642 C 249.419 -4.0234 1.3536 0
M  V30 2643 C 247.326 -4.68815 3.60508 0
M  V30 2644 H 246.256 -0.680394 0.324931 0
M  V30 2645 H 248.907 -1.23902 1.35353 0
M  V30 2646 H 247.289 -3.83832 0.974104 0
M  V30 2647 H 248.463 -2.8189 3.6452 0
M  V30 2648 H 246.778 -2.67059 3.19481 0
M  V30 2649 H 249.375 -5.05058 1.75559 0
M  V30 2650 H 249.718 -4.15235 0.297554 0
M  V30 2651 H 250.251 -3.51079 1.87052 0
M  V30 2652 H 246.99 -4.61121 4.65884 0
M  V30 2653 H 246.51 -5.17045 3.04014 0
M  V30 2654 H 248.189 -5.37785 3.59717 0
M  V30 2655 N 248.321 -0.919034 -1.28029 0
M  V30 2656 C 249.268 -0.410005 -2.27129 0
M  V30 2657 C 250.238 0.518405 -1.57803 0
M  V30 2658 O 251.423 0.439451 -1.8567 0
M  V30 2659 C 248.563 0.339054 -3.4343 0
M  V30 2660 C 247.676 -0.622468 -4.27492 0
M  V30 2661 C 246.811 0.145567 -5.31001 0
M  V30 2662 C 245.85 -0.809226 -6.06727 0
M  V30 2663 N 244.987 -0.0743728 -7.02061 0
M  V30 2664 H 249.827 -1.26011 -2.70047 0
M  V30 2665 H 247.364 -0.632663 -1.328 0
M  V30 2666 H 249.322 0.789586 -4.0966 0
M  V30 2667 H 247.952 1.15346 -3.01488 0
M  V30 2668 H 247.004 -1.19153 -3.61257 0
M  V30 2669 H 248.316 -1.35252 -4.80113 0
M  V30 2670 H 247.47 0.656417 -6.03139 0
M  V30 2671 H 246.209 0.908643 -4.79161 0
M  V30 2672 H 245.214 -1.3314 -5.33436 0
M  V30 2673 H 246.439 -1.57194 -6.60656 0
M  V30 2674 H 244.385 0.670616 -6.52563 0
M  V30 2675 H 244.302 -0.744157 -7.52329 0
M  V30 2676 H 245.57 0.416109 -7.78389 0
M  V30 2677 N 249.799 1.42003 -0.683588 0
M  V30 2678 C 251.027 2.05746 -0.218182 0
M  V30 2679 C 251.442 1.51396 1.12804 0
M  V30 2680 O 250.799 0.657303 1.70252 0
M  V30 2681 C 250.85 3.61171 -0.154131 0
M  V30 2682 O 250.571 4.13508 -1.44716 0
M  V30 2683 C 252.072 4.42042 0.333713 0
M  V30 2684 H 249.292 0.662888 -0.10402 0
M  V30 2685 H 251.836 1.81987 -0.9328 0
M  V30 2686 H 249.991 3.84012 0.511231 0
M  V30 2687 H 250.405 5.07453 -1.32632 0
M  V30 2688 H 251.879 5.51028 0.327423 0
M  V30 2689 H 252.356 4.17269 1.37053 0
M  V30 2690 H 252.962 4.24239 -0.300222 0
M  V30 2691 N 251.277 0.427512 1.51691 0
M  V30 2692 C 252.225 -0.403359 2.29076 0
M  V30 2693 C 253.219 -1.02962 1.34518 0
M  V30 2694 O 254.425 -0.965715 1.51901 0
M  V30 2695 H 250.8 -0.148879 0.737115 0
M  V30 2696 H 252.771 0.270295 2.97173 0
M  V30 2697 C 251.52 -1.49763 3.13794 0
M  V30 2698 H 250.843 -1.02508 3.86435 0
M  V30 2699 H 252.283 -2.05244 3.71014 0
M  V30 2700 C 250.742 -2.47536 2.28533 0
M  V30 2701 O 251.272 -3.51848 1.93819 0
M  V30 2702 N 249.478 -2.18187 1.91945 0
M  V30 2703 H 249.025 -1.33389 2.20375 0
M  V30 2704 H 248.983 -2.83848 1.35195 0
M  V30 2705 N 252.755 -1.56801 0.158532 0
M  V30 2706 C 254.166 -1.83189 -0.360366 0
M  V30 2707 C 254.517 -1.07778 -1.63946 0
M  V30 2708 O 253.642 -0.326718 -2.13919 0
M  V30 2709 C 254.237 -3.32297 -0.660595 0
M  V30 2710 C 252.796 -3.59227 -1.12398 0
M  V30 2711 C 251.943 -2.76877 -0.153097 0
M  V30 2712 H 254.894 -1.54008 0.383031 0
M  V30 2713 H 254.915 -3.4908 -1.51405 0
M  V30 2714 H 254.427 -3.87156 0.270527 0
M  V30 2715 H 252.528 -3.09766 -2.07064 0
M  V30 2716 H 252.641 -4.67632 -1.04197 0
M  V30 2717 H 251.005 -2.46319 -0.647983 0
M  V30 2718 H 251.788 -3.34511 0.77182 0
M  V30 2719 N 254.233 0.115231 -1.57178 0
M  V30 2720 C 255.51 0.852873 -1.76027 0
M  V30 2721 C 255.89 1.97892 -0.73498 0
M  V30 2722 O 255.238 2.27232 0.24036 0
M  V30 2723 C 255.448 1.36608 -3.21153 0
M  V30 2724 C 256.796 1.81692 -3.83762 0
M  V30 2725 O 257.82 1.46278 -3.24779 0
M  V30 2726 O 256.679 2.47104 -4.87444 0
M  V30 2727 H 253.773 0.405296 -0.720877 0
M  V30 2728 H 256.319 0.0986785 -1.69413 0
M  V30 2729 H 255.091 0.558357 -3.87296 0
M  V30 2730 H 254.714 2.18287 -3.3232 0
M  V30 2731 N 255.711 1.52812 0.385517 0
M  V30 2732 C 256.988 1.5861 1.14465 0
M  V30 2733 C 257.368 0.381402 2.07626 0
M  V30 2734 O 256.716 -0.629999 2.19643 0
M  V30 2735 C 256.926 2.92664 1.90128 0
M  V30 2736 C 258.274 3.46526 2.45367 0
M  V30 2737 O 259.298 2.94562 2.0028 0
M  V30 2738 O 258.157 4.37323 3.27736 0
M  V30 2739 H 255.251 0.639855 0.523941 0
M  V30 2740 H 257.797 1.65149 0.390389 0
M  V30 2741 H 256.569 3.71788 1.22022 0
M  V30 2742 H 256.192 2.89527 2.72507 0
M  V30 2743 N 257.189 -0.644168 1.43834 0
M  V30 2744 C 258.605 -0.960875 1.27434 0
M  V30 2745 C 258.805 -2.00499 0.200618 0
M  V30 2746 O 257.861 -2.49018 -0.417906 0
M  V30 2747 C 259.174 -1.43653 2.64167 0
M  V30 2748 C 260.722 -1.55271 2.71772 0
M  V30 2749 C 261.197 -2.06224 4.08944 0
M  V30 2750 N 262.688 -2.13513 4.11055 0
M  V30 2751 C 263.423 -2.54081 5.14033 0
M  V30 2752 N 262.919 -2.9388 6.27381 0
M  V30 2753 N 264.712 -2.54101 5.01387 0
M  V30 2754 H 256.863 0.0465779 2.12349 0
M  V30 2755 H 259.126 -0.0417638 0.94708 0
M  V30 2756 H 258.832 -0.743706 3.43747 0
M  V30 2757 H 258.706 -2.40993 2.90176 0
M  V30 2758 H 261.093 -2.23653 1.92519 0
M  V30 2759 H 261.174 -0.563395 2.49519 0
M  V30 2760 H 260.818 -1.38441 4.88668 0
M  V30 2761 H 260.748 -3.06003 4.28567 0
M  V30 2762 H 263.239 -1.85493 3.29242 0
M  V30 2763 H 263.552 -3.2361 7.01781 0
M  V30 2764 H 261.897 -2.91663 6.30839 0
M  V30 2765 H 265.088 -2.22391 4.11898 0
M  V30 2766 H 265.261 -2.85394 5.81768 0
M  V30 2767 N 258.668 -1.30515 -0.883378 0
M  V30 2768 C 260.084 -1.08881 -1.16692 0
M  V30 2769 C 260.284 0.149409 -2.00945 0
M  V30 2770 O 259.34 0.84257 -2.38027 0
M  V30 2771 C 260.653 -2.35319 -1.87204 0
M  V30 2772 C 262.201 -2.40799 -1.99962 0
M  V30 2773 C 262.676 -3.67083 -2.73887 0
M  V30 2774 N 264.167 -3.679 -2.81432 0
M  V30 2775 C 264.902 -4.62303 -3.3921 0
M  V30 2776 N 264.398 -5.67052 -3.98025 0
M  V30 2777 N 266.191 -4.49845 -3.3704 0
M  V30 2778 H 258.342 -2.09951 -0.321633 0
M  V30 2779 H 260.605 -0.92556 -0.205043 0
M  V30 2780 H 260.311 -3.25689 -1.3274 0
M  V30 2781 H 260.185 -2.44089 -2.87577 0
M  V30 2782 H 262.572 -1.50907 -2.53597 0
M  V30 2783 H 262.653 -2.36003 -0.98673 0
M  V30 2784 H 262.297 -4.57334 -2.20925 0
M  V30 2785 H 262.227 -3.69141 -3.75556 0
M  V30 2786 H 264.718 -2.92171 -2.39676 0
M  V30 2787 H 265.031 -6.35184 -4.40183 0
M  V30 2788 H 263.376 -5.70842 -3.96439 0
M  V30 2789 H 266.567 -3.67194 -2.90321 0
M  V30 2790 H 266.74 -5.23597 -3.81772 0
M  V30 2791 N 260.146 1.09593 -1.13257 0
M  V30 2792 C 261.395 1.81105 -0.887917 0
M  V30 2793 C 261.708 1.86563 0.587672 0
M  V30 2794 O 262.914 2.54367 0.949204 0
M  V30 2795 C 261.37 3.25338 -1.53895 0
M  V30 2796 C 260.978 3.28151 -3.04994 0
M  V30 2797 C 262.722 4.01617 -1.37492 0
M  V30 2798 C 260.629 4.66897 -3.6299 0
M  V30 2799 H 259.559 0.678661 -0.328534 0
M  V30 2800 H 262.21 1.23183 -1.36008 0
M  V30 2801 H 260.592 3.8331 -0.994446 0
M  V30 2802 H 261.766 2.79953 -3.66009 0
M  V30 2803 H 260.081 2.65361 -3.20893 0
M  V30 2804 H 262.678 5.04119 -1.78235 0
M  V30 2805 H 263.021 4.15072 -0.31957 0
M  V30 2806 H 263.554 3.50082 -1.88912 0
M  V30 2807 H 260.293 4.58643 -4.68323 0
M  V30 2808 H 259.813 5.15426 -3.06752 0
M  V30 2809 H 261.492 5.3587 -3.62563 0
M  V30 2810 N 261.624 0.925811 1.2754 0
M  V30 2811 C 262.873 0.561084 1.93739 0
M  V30 2812 C 263.186 -0.901685 1.73577 0
M  V30 2813 O 264.392 -1.37511 2.34101 0
M  V30 2814 C 262.848 0.952668 3.47062 0
M  V30 2815 C 262.456 2.43599 3.75983 0
M  V30 2816 C 264.2 0.659103 4.19352 0
M  V30 2817 C 262.107 2.76707 5.22673 0
M  V30 2818 H 261.037 0.206122 0.725279 0
M  V30 2819 H 263.688 1.12637 1.44863 0
M  V30 2820 H 262.07 0.316053 3.94737 0
M  V30 2821 H 263.244 3.12035 3.39073 0
M  V30 2822 H 261.559 2.70125 3.16893 0
M  V30 2823 H 264.156 0.882985 5.27359 0
M  V30 2824 H 264.499 -0.403607 4.14339 0
M  V30 2825 H 265.032 1.25473 3.77494 0
M  V30 2826 H 261.771 3.8188 5.32774 0
M  V30 2827 H 261.291 2.12919 5.60737 0
M  V30 2828 H 262.97 2.6435 5.90532 0
M  V30 2829 N 263.102 -1.41638 0.69111 0
M  V30 2830 C 264.035 -2.28183 -0.0274913 0
M  V30 2831 C 265.013 -1.41984 -0.792424 0
M  V30 2832 O 266.197 -1.71415 -0.784169 0
M  V30 2833 C 263.324 -3.22135 -1.04628 0
M  V30 2834 C 262.37 -4.24848 -0.375037 0
M  V30 2835 S 263.203 -5.28231 0.879321 0
M  V30 2836 C 264.359 -6.25748 -0.137983 0
M  V30 2837 H 264.592 -2.88782 0.706553 0
M  V30 2838 H 262.125 -1.46709 0.481222 0
M  V30 2839 H 264.083 -3.76797 -1.62894 0
M  V30 2840 H 262.744 -2.6064 -1.75287 0
M  V30 2841 H 261.937 -4.90837 -1.14433 0
M  V30 2842 H 261.539 -3.73758 0.134434 0
M  V30 2843 H 263.831 -6.70188 -0.992659 0
M  V30 2844 H 264.774 -7.06417 0.487867 0
M  V30 2845 H 265.182 -5.62363 -0.490762 0
M  V30 2846 N 264.58 -0.43555 -1.51462 0
M  V30 2847 C 265.82 0.130708 -2.03982 0
M  V30 2848 C 266.184 1.40117 -1.31268 0
M  V30 2849 O 267.385 2.04755 -1.74152 0
M  V30 2850 C 265.656 0.346102 -3.5572 0
M  V30 2851 S 267.215 0.876022 -4.29967 0
M  V30 2852 H 264.033 0.0326881 -0.710248 0
M  V30 2853 H 266.635 -0.594544 -1.8624 0
M  V30 2854 H 265.339 -0.584911 -4.0621 0
M  V30 2855 H 264.87 1.09849 -3.77752 0
M  V30 2856 H 266.885 2.15379 -4.47019 0
M  V30 2857 N 266.058 1.56714 -0.166846 0
M  V30 2858 C 267.021 2.16539 0.751232 0
M  V30 2859 C 268.021 1.11228 1.16125 0
M  V30 2860 O 269.211 1.36765 1.07894 0
M  V30 2861 C 266.343 2.74462 2.02196 0
M  V30 2862 H 267.536 2.99013 0.230499 0
M  V30 2863 H 265.089 1.56081 0.0826982 0
M  V30 2864 H 265.824 1.95709 2.58589 0
M  V30 2865 H 265.609 3.51527 1.73698 0
M  V30 2866 H 267.099 3.20489 2.67725 0
M  V30 2867 N 267.536 -0.106894 1.57237 0
M  V30 2868 C 268.782 -0.808678 1.86633 0
M  V30 2869 C 269.137 -1.76917 0.756178 0
M  V30 2870 O 268.43 -1.90055 -0.242834 0
M  V30 2871 C 268.624 -1.58628 3.20268 0
M  V30 2872 C 268.453 -0.702592 4.44178 0
M  V30 2873 C 267.223 -0.352808 5.04067 0
M  V30 2874 C 269.421 -0.0148031 5.14298 0
M  V30 2875 N 267.403 0.540279 6.11518 0
M  V30 2876 C 268.774 0.736809 6.15606 0
M  V30 2877 C 270.829 0.0603524 4.97863 0
M  V30 2878 C 269.532 1.55654 7.02257 0
M  V30 2879 C 271.558 0.866942 5.85011 0
M  V30 2880 C 270.92 1.60671 6.85831 0
M  V30 2881 H 267.019 -0.27246 0.733001 0
M  V30 2882 H 269.603 -0.0717858 1.94568 0
M  V30 2883 H 267.774 -2.29413 3.13408 0
M  V30 2884 H 269.506 -2.23434 3.3743 0
M  V30 2885 H 266.261 -0.697802 4.68431 0
M  V30 2886 H 266.685 0.979029 6.69884 0
M  V30 2887 H 271.327 -0.497236 4.19866 0
M  V30 2888 H 269.045 2.12524 7.79653 0
M  V30 2889 H 272.631 0.927612 5.74358 0
M  V30 2890 H 271.511 2.2208 7.52097 0
M  V30 2891 N 269.014 -1.53014 -0.377408 0
M  V30 2892 C 269.962 -1.7927 -1.48206 0
M  V30 2893 C 270.956 -0.661195 -1.55963 0
M  V30 2894 O 272.162 -0.843908 -1.58991 0
M  V30 2895 H 268.537 -0.567425 -0.493491 0
M  V30 2896 H 270.508 -2.71753 -1.2326 0
M  V30 2897 C 269.257 -1.98894 -2.85196 0
M  V30 2898 H 268.58 -2.85395 -2.79981 0
M  V30 2899 H 270.02 -2.21249 -3.61698 0
M  V30 2900 C 268.479 -0.764691 -3.28107 0
M  V30 2901 O 269.009 0.0523226 -4.01666 0
M  V30 2902 N 267.215 -0.591493 -2.84517 0
M  V30 2903 H 266.762 -1.25749 -2.24822 0
M  V30 2904 H 266.72 0.226253 -3.13585 0
M  V30 2905 N 270.492 0.636531 -1.44174 0
M  V30 2906 C 271.903 1.21806 -1.41493 0
M  V30 2907 C 272.254 1.95785 -0.1275 0
M  V30 2908 O 271.379 2.02147 0.772376 0
M  V30 2909 C 271.974 2.21551 -2.56321 0
M  V30 2910 C 270.533 2.75143 -2.56853 0
M  V30 2911 C 269.68 1.50052 -2.33195 0
M  V30 2912 H 272.631 0.427531 -1.52833 0
M  V30 2913 H 272.652 3.0405 -2.28765 0
M  V30 2914 H 272.164 1.67679 -3.50008 0
M  V30 2915 H 270.265 3.33033 -1.67093 0
M  V30 2916 H 270.378 3.2155 -3.55165 0
M  V30 2917 H 268.742 1.77993 -1.82183 0
M  V30 2918 H 269.525 0.980903 -3.28988 0
M  V30 2919 N 271.97 1.30982 0.876444 0
M  V30 2920 C 273.386 1.09498 1.16113 0
M  V30 2921 C 273.586 -0.13875 2.01022 0
M  V30 2922 O 272.642 -0.829935 2.38471 0
M  V30 2923 C 273.955 2.36308 1.85954 0
M  V30 2924 C 275.503 2.41856 1.98683 0
M  V30 2925 C 275.978 3.6853 2.71937 0
M  V30 2926 N 277.469 3.69387 2.79477 0
M  V30 2927 C 278.204 4.64096 3.36753 0
M  V30 2928 N 277.7 5.69155 3.95012 0
M  V30 2929 N 279.493 4.51626 3.3465 0
M  V30 2930 H 271.644 2.10118 0.310494 0
M  V30 2931 H 273.907 0.926634 0.200131 0
M  V30 2932 H 273.613 3.26388 1.31011 0
M  V30 2933 H 273.487 2.4561 2.86278 0
M  V30 2934 H 275.874 1.52249 2.52793 0
M  V30 2935 H 275.955 2.36523 0.9742 0
M  V30 2936 H 275.599 4.58499 2.18496 0
M  V30 2937 H 275.529 3.71127 3.73593 0
M  V30 2938 H 278.02 2.93438 2.38123 0
M  V30 2939 H 278.333 6.3751 4.36808 0
M  V30 2940 H 276.678 5.72937 3.93406 0
M  V30 2941 H 279.869 3.68728 2.8837 0
M  V30 2942 H 280.042 5.25614 3.7899 0
M  V30 2943 N 273.449 -1.08991 1.13837 0
M  V30 2944 C 274.726 -1.77863 0.813876 0
M  V30 2945 C 275.106 -1.99375 -0.693746 0
M  V30 2946 O 274.454 -1.59875 -1.63255 0
M  V30 2947 C 274.664 -3.0986 1.60586 0
M  V30 2948 C 276.012 -3.84493 1.8014 0
M  V30 2949 O 277.036 -3.19624 1.57222 0
M  V30 2950 O 275.895 -5.00957 2.18413 0
M  V30 2951 H 272.989 -0.771589 0.297624 0
M  V30 2952 H 275.535 -1.15507 1.24323 0
M  V30 2953 H 274.307 -2.89715 2.63022 0
M  V30 2954 H 273.93 -3.79942 1.17173 0
M  V30 2955 N 274.927 -0.932562 -1.27047 0
M  V30 2956 C 275.857 -0.452902 -2.29066 0
M  V30 2957 C 276.838 0.489338 -1.62909 0
M  V30 2958 O 278.023 0.393046 -1.90181 0
M  V30 2959 C 275.153 0.290698 -3.46081 0
M  V30 2960 C 274.107 -0.564168 -4.24265 0
M  V30 2961 C 273.433 0.308886 -5.33807 0
M  V30 2962 C 274.733 -1.83112 -4.89149 0
M  V30 2963 H 276.427 -1.30552 -2.69437 0
M  V30 2964 H 273.973 -0.629201 -1.29526 0
M  V30 2965 H 275.926 0.637233 -4.16554 0
M  V30 2966 H 274.65 1.17738 -3.0464 0
M  V30 2967 H 273.309 -0.893477 -3.55545 0
M  V30 2968 H 272.957 1.19467 -4.88607 0
M  V30 2969 H 272.657 -0.259633 -5.87026 0
M  V30 2970 H 274.181 0.650884 -6.07121 0
M  V30 2971 H 275.595 -1.55236 -5.51883 0
M  V30 2972 H 273.992 -2.34353 -5.52448 0
M  V30 2973 H 275.062 -2.54772 -4.12576 0
M  V30 2974 N 276.405 1.4127 -0.698611 0
M  V30 2975 C 277.816 1.84187 -0.305289 0
M  V30 2976 C 278.167 1.58449 1.15708 0
M  V30 2977 O 277.292 1.05651 1.88856 0
M  V30 2978 C 277.887 3.3435 -0.547314 0
M  V30 2979 C 276.446 3.75826 -0.207878 0
M  V30 2980 C 275.593 2.64647 -0.828099 0
M  V30 2981 H 278.544 1.30778 -0.89904 0
M  V30 2982 H 278.565 3.8001 0.192998 0
M  V30 2983 H 278.077 3.53051 -1.61172 0
M  V30 2984 H 276.178 3.62725 0.852143 0
M  V30 2985 H 276.291 4.74462 -0.665021 0
M  V30 2986 H 274.655 2.53395 -0.257458 0
M  V30 2987 H 275.438 2.86165 -1.89643 0
M  V30 2988 N 277.883 0.443576 1.51229 0
M  V30 2989 C 278.813 -0.355142 2.30783 0
M  V30 2990 C 279.794 -1.0154 1.36468 0
M  V30 2991 O 280.979 -1.01785 1.65389 0
M  V30 2992 C 278.109 -1.45312 3.15439 0
M  V30 2993 C 277.063 -0.916002 4.18083 0
M  V30 2994 C 276.389 -2.1102 4.91299 0
M  V30 2995 C 277.689 0.0538602 5.22272 0
M  V30 2996 H 279.383 0.308767 2.97804 0
M  V30 2997 H 276.929 0.149937 1.43217 0
M  V30 2998 H 278.882 -2.01914 3.69876 0
M  V30 2999 H 277.606 -2.14541 2.46252 0
M  V30 3000 H 276.265 -0.372145 3.64706 0
M  V30 3001 H 275.913 -2.78882 4.18609 0
M  V30 3002 H 275.613 -1.75717 5.60712 0
M  V30 3003 H 277.137 -2.68164 5.48562 0
M  V30 3004 H 278.551 -0.422069 5.71744 0
M  V30 3005 H 276.948 0.319776 5.99247 0
M  V30 3006 H 278.018 0.98858 4.74716 0
M  V30 3007 N 279.361 -1.56624 0.175154 0
M  V30 3008 C 280.294 -2.14 -0.792412 0
M  V30 3009 C 281.272 -1.07114 -1.22333 0
M  V30 3010 O 282.456 -1.35112 -1.31442 0
M  V30 3011 C 279.583 -2.68268 -2.0676 0
M  V30 3012 C 278.629 -3.87562 -1.7804 0
M  V30 3013 S 279.462 -5.27074 -0.946222 0
M  V30 3014 C 280.618 -5.8475 -2.23199 0
M  V30 3015 H 280.851 -2.95736 -0.304588 0
M  V30 3016 H 278.384 -1.54349 -0.0395705 0
M  V30 3017 H 280.342 -3.00182 -2.80002 0
M  V30 3018 H 279.003 -1.86612 -2.52656 0
M  V30 3019 H 278.196 -4.23874 -2.72666 0
M  V30 3020 H 277.798 -3.56555 -1.12891 0
M  V30 3021 H 280.09 -5.97898 -3.18629 0
M  V30 3022 H 281.033 -6.81756 -1.91349 0
M  V30 3023 H 281.441 -5.13198 -2.35134 0
M  V30 3024 N 280.839 0.0985539 -1.57292 0
M  V30 3025 C 281.802 1.10402 -2.00858 0
M  V30 3026 C 282.802 1.33146 -0.901593 0
M  V30 3027 O 283.992 1.29318 -1.16716 0
M  V30 3028 C 281.124 2.45394 -2.36632 0
M  V30 3029 H 282.317 0.729099 -2.90902 0
M  V30 3030 H 279.87 0.343495 -1.52479 0
M  V30 3031 H 280.605 2.87769 -1.49531 0
M  V30 3032 H 280.39 2.30235 -3.17387 0
M  V30 3033 H 281.88 3.17718 -2.71007 0
M  V30 3034 N 282.317 1.53212 0.369288 0
M  V30 3035 C 283.247 1.82365 1.45826 0
M  V30 3036 C 284.228 0.676907 1.56051 0
M  V30 3037 O 285.413 0.926401 1.70679 0
M  V30 3038 C 282.543 2.01023 2.83208 0
M  V30 3039 C 281.497 3.1678 2.8781 0
M  V30 3040 C 280.823 3.20724 4.27832 0
M  V30 3041 C 282.123 4.55447 2.55667 0
M  V30 3042 H 283.817 2.73559 1.21678 0
M  V30 3043 H 281.363 1.3163 0.583911 0
M  V30 3044 H 283.316 2.20001 3.59413 0
M  V30 3045 H 282.04 1.06536 3.08736 0
M  V30 3046 H 280.699 2.97616 2.14056 0
M  V30 3047 H 280.347 2.23882 4.50429 0
M  V30 3048 H 280.047 3.98496 4.31827 0
M  V30 3049 H 281.571 3.41881 5.05915 0
M  V30 3050 H 282.985 4.74611 3.21586 0
M  V30 3051 H 281.382 5.35432 2.70984 0
M  V30 3052 H 282.452 4.60812 1.5093 0
M  V30 3053 N 283.795 -0.628877 1.44509 0
M  V30 3054 C 285.206 -1.21054 1.42137 0
M  V30 3055 C 285.557 -1.95715 0.137881 0
M  V30 3056 O 284.682 -2.02554 -0.761645 0
M  V30 3057 C 285.277 -2.20189 2.57493 0
M  V30 3058 C 283.836 -2.73777 2.58308 0
M  V30 3059 C 282.983 -1.48813 2.33987 0
M  V30 3060 H 285.934 -0.41942 1.53057 0
M  V30 3061 H 285.955 -3.02833 2.30375 0
M  V30 3062 H 285.467 -1.6582 3.50892 0
M  V30 3063 H 283.568 -3.32142 1.68856 0
M  V30 3064 H 283.681 -3.19662 3.56865 0
M  V30 3065 H 282.045 -1.77024 1.83124 0
M  V30 3066 H 282.828 -0.963442 3.29504 0
M  V30 3067 N 285.273 -1.31445 -0.869486 0
M  V30 3068 C 286.684 -1.19042 -1.43826 0
M  V30 3069 C 287.035 0.202919 -1.95148 0
M  V30 3070 O 286.16 1.10071 -1.86315 0
M  V30 3071 C 286.755 -2.15499 -2.6143 0
M  V30 3072 C 285.314 -2.07028 -3.14351 0
M  V30 3073 C 284.461 -2.04701 -1.87063 0
M  V30 3074 H 287.412 -1.43489 -0.677984 0
M  V30 3075 H 287.433 -1.74488 -3.38134 0
M  V30 3076 H 286.945 -3.16899 -2.24046 0
M  V30 3077 H 285.046 -1.08825 -3.56354 0
M  V30 3078 H 285.159 -2.96157 -3.766 0
M  V30 3079 H 283.523 -1.49724 -2.06046 0
M  V30 3080 H 284.306 -3.07857 -1.51917 0
M  V30 3081 N 286.751 1.08385 -1.14413 0
M  V30 3082 C 287.991 1.8238 -0.922868 0
M  V30 3083 C 288.355 1.84225 0.540842 0
M  V30 3084 O 289.556 2.53985 0.880058 0
M  V30 3085 C 287.827 3.24048 -1.50757 0
M  V30 3086 S 289.386 4.14917 -1.4279 0
M  V30 3087 H 286.204 0.628524 -0.332384 0
M  V30 3088 H 288.806 1.30278 -1.45766 0
M  V30 3089 H 287.51 3.20288 -2.56601 0
M  V30 3090 H 287.041 3.81224 -0.971178 0
M  V30 3091 H 289.056 4.94473 -0.413582 0
M  V30 3092 N 288.23 0.939286 1.26551 0
M  V30 3093 C 289.18 0.418284 2.2413 0
M  V30 3094 C 290.164 -0.483935 1.5345 0
M  V30 3095 O 291.356 -0.319489 1.74093 0
M  V30 3096 C 288.485 -0.31709 3.41832 0
M  V30 3097 C 287.571 0.602311 4.19801 0
M  V30 3098 N 287.962 1.72726 4.75394 0
M  V30 3099 C 286.26 0.407534 4.44134 0
M  V30 3100 C 286.961 2.30004 5.34297 0
M  V30 3101 N 285.937 1.58828 5.1988 0
M  V30 3102 H 289.739 1.27705 2.64705 0
M  V30 3103 H 287.253 0.794929 1.41614 0
M  V30 3104 H 289.25 -0.707364 4.10855 0
M  V30 3105 H 287.91 -1.17264 3.02786 0
M  V30 3106 H 288.921 2.10944 4.72994 0
M  V30 3107 H 285.598 -0.406406 4.15517 0
M  V30 3108 H 286.988 3.24778 5.88191 0
M  V30 3109 N 289.708 -1.40897 0.706093 0
M  V30 3110 C 290.671 -2.29131 0.0562841 0
M  V30 3111 C 291.671 -1.44901 -0.697166 0
M  V30 3112 O 292.861 -1.65926 -0.530484 0
M  V30 3113 C 289.993 -3.27957 -0.93043 0
M  V30 3114 H 291.186 -2.88091 0.833284 0
M  V30 3115 H 288.739 -1.4906 0.470192 0
M  V30 3116 H 289.474 -2.73997 -1.73482 0
M  V30 3117 H 289.259 -3.90124 -0.393166 0
M  V30 3118 H 290.749 -3.94049 -1.38256 0
M  V30 3119 N 291.186 -0.45159 -1.50991 0
M  V30 3120 C 292.116 0.342898 -2.30969 0
M  V30 3121 C 293.097 1.00815 -1.37005 0
M  V30 3122 O 294.282 1.00907 -1.65926 0
M  V30 3123 C 291.412 1.43637 -3.16205 0
M  V30 3124 C 290.366 0.893818 -4.18563 0
M  V30 3125 C 289.692 2.08411 -4.92411 0
M  V30 3126 C 290.992 -0.0815568 -5.22236 0
M  V30 3127 H 292.686 -0.324556 -2.97636 0
M  V30 3128 H 290.232 -0.157531 -1.43136 0
M  V30 3129 H 292.185 1.9995 -3.70942 0
M  V30 3130 H 290.909 2.13232 -2.47386 0
M  V30 3131 H 289.568 0.352798 -3.64898 0
M  V30 3132 H 289.216 2.76658 -4.20082 0
M  V30 3133 H 288.916 1.72741 -5.61636 0
M  V30 3134 H 290.44 2.65251 -5.49976 0
M  V30 3135 H 291.854 0.391742 -5.7196 0
M  V30 3136 H 290.251 -0.351551 -5.99069 0
M  V30 3137 H 291.321 -1.01374 -4.74185 0
M  V30 3138 N 292.664 1.56529 -0.183458 0
M  V30 3139 C 293.904 1.99141 0.460667 0
M  V30 3140 C 294.268 1.06736 1.59597 0
M  V30 3141 O 295.469 1.38538 2.30349 0
M  V30 3142 C 293.74 3.45358 0.919939 0
M  V30 3143 S 295.299 4.09999 1.56354 0
M  V30 3144 H 292.117 0.695479 0.147748 0
M  V30 3145 H 294.719 1.93429 -0.283782 0
M  V30 3146 H 293.423 4.10315 0.0834208 0
M  V30 3147 H 292.954 3.54862 1.69814 0
M  V30 3148 H 294.969 4.06046 2.85203 0
M  V30 3149 N 294.142 -0.090211 1.57342 0
M  V30 3150 C 295.074 -1.13541 1.99101 0
M  V30 3151 C 296.087 -1.3604 0.894258 0
M  V30 3152 O 297.276 -1.34606 1.17233 0
M  V30 3153 C 294.376 -2.49001 2.29895 0
M  V30 3154 C 293.549 -2.46712 3.61182 0
M  V30 3155 C 292.608 -3.64136 3.79857 0
M  V30 3156 O 291.634 -3.46405 4.51655 0
M  V30 3157 N 292.836 -4.83802 3.20806 0
M  V30 3158 H 295.601 -0.779942 2.89373 0
M  V30 3159 H 293.162 -0.279125 1.59476 0
M  V30 3160 H 295.154 -3.26166 2.39578 0
M  V30 3161 H 293.724 -2.76619 1.45605 0
M  V30 3162 H 292.944 -1.55058 3.62423 0
M  V30 3163 H 294.232 -2.42265 4.4742 0
M  V30 3164 H 293.63 -5.01112 2.62494 0
M  V30 3165 H 292.187 -5.58543 3.35966 0
M  V30 3166 N 295.62 -1.53406 -0.361157 0
M  V30 3167 C 296.867 -1.69802 -1.10333 0
M  V30 3168 C 297.195 -0.452087 -1.89173 0
M  V30 3169 O 296.45 0.566017 -1.87336 0
M  V30 3170 C 296.749 -2.90211 -2.08596 0
M  V30 3171 C 296.415 -4.26539 -1.46203 0
M  V30 3172 C 295.077 -4.6361 -1.28915 0
M  V30 3173 C 297.429 -5.113 -1.01101 0
M  V30 3174 C 294.757 -5.83075 -0.651157 0
M  V30 3175 C 297.109 -6.31415 -0.387007 0
M  V30 3176 C 295.773 -6.67195 -0.201657 0
M  V30 3177 H 295.043 -0.621351 -0.403737 0
M  V30 3178 H 297.69 -1.87598 -0.384609 0
M  V30 3179 H 295.995 -2.66946 -2.86788 0
M  V30 3180 H 297.692 -3.00091 -2.65982 0
M  V30 3181 H 294.282 -3.97352 -1.60653 0
M  V30 3182 H 298.466 -4.83206 -1.13249 0
M  V30 3183 H 293.722 -6.09385 -0.496006 0
M  V30 3184 H 297.896 -6.96394 -0.0293563 0
M  V30 3185 H 295.523 -7.59628 0.294766 0
M  V30 3186 N 297.098 0.621204 -1.44841 0
M  V30 3187 C 298.328 1.40548 -1.51426 0
M  V30 3188 C 298.736 1.88673 -0.141083 0
M  V30 3189 O 298.079 1.62053 0.865128 0
M  V30 3190 C 298.141 2.65325 -2.42576 0
M  V30 3191 C 297.805 2.3893 -3.89566 0
M  V30 3192 C 298.802 2.00138 -4.79834 0
M  V30 3193 C 296.487 2.52263 -4.3436 0
M  V30 3194 C 298.481 1.75021 -6.129 0
M  V30 3195 C 296.168 2.2676 -5.67471 0
M  V30 3196 C 297.166 1.88199 -6.56559 0
M  V30 3197 O 296.854 1.62986 -7.87204 0
M  V30 3198 H 296.586 0.437122 -0.515655 0
M  V30 3199 H 299.14 0.765987 -1.90583 0
M  V30 3200 H 297.37 3.31947 -1.98364 0
M  V30 3201 H 299.059 3.27347 -2.39998 0
M  V30 3202 H 299.825 1.89386 -4.46495 0
M  V30 3203 H 295.704 2.81246 -3.65269 0
M  V30 3204 H 299.248 1.44848 -6.82396 0
M  V30 3205 H 295.145 2.37125 -6.00368 0
M  V30 3206 H 295.913 1.7715 -7.991 0
M  V30 3207 N 298.576 1.31904 0.862503 0
M  V30 3208 C 299.822 1.22197 1.61851 0
M  V30 3209 C 300.155 -0.217641 1.92977 0
M  V30 3210 O 299.43 -1.15264 1.56666 0
M  V30 3211 C 299.713 2.07378 2.94391 0
M  V30 3212 C 299.566 3.59678 2.70096 0
M  V30 3213 C 300.885 1.92891 3.95577 0
M  V30 3214 H 298.004 0.445255 0.587296 0
M  V30 3215 H 300.646 1.6177 0.99651 0
M  V30 3216 H 298.796 1.73758 3.47477 0
M  V30 3217 H 300.468 4.03472 2.23625 0
M  V30 3218 H 298.711 3.82735 2.04197 0
M  V30 3219 H 299.382 4.14595 3.64438 0
M  V30 3220 H 301.858 2.22327 3.51724 0
M  V30 3221 H 300.734 2.54781 4.86187 0
M  V30 3222 H 300.995 0.894315 4.3296 0
M  V30 3223 N 300.054 -1.07777 1.14986 0
M  V30 3224 C 301.3 -1.80557 0.923422 0
M  V30 3225 C 301.633 -1.86298 -0.548337 0
M  V30 3226 O 300.908 -1.34354 -1.40639 0
M  V30 3227 C 301.191 -3.25839 1.53299 0
M  V30 3228 C 301.044 -3.28269 3.07505 0
M  V30 3229 C 302.363 -4.22991 1.21518 0
M  V30 3230 H 299.482 -0.655493 0.336894 0
M  V30 3231 H 302.124 -1.26144 1.42083 0
M  V30 3232 H 300.274 -3.72306 1.10999 0
M  V30 3233 H 301.946 -2.90079 3.58681 0
M  V30 3234 H 300.189 -2.67355 3.4162 0
M  V30 3235 H 300.86 -4.30691 3.45266 0
M  V30 3236 H 303.336 -3.84894 1.581 0
M  V30 3237 H 302.212 -5.22945 1.66793 0
M  V30 3238 H 302.473 -4.41904 0.131505 0
M  V30 3239 N 301.532 -0.945985 -1.26051 0
M  V30 3240 C 302.48 -0.450259 -2.282 0
M  V30 3241 C 303.474 0.47497 -1.62605 0
M  V30 3242 O 304.68 0.352653 -1.76512 0
M  V30 3243 H 301.055 -0.127081 -0.741184 0
M  V30 3244 H 303.026 -1.32422 -2.67408 0
M  V30 3245 C 301.775 0.26467 -3.46691 0
M  V30 3246 H 301.098 -0.438123 -3.97392 0
M  V30 3247 H 302.538 0.575678 -4.20074 0
M  V30 3248 C 300.997 1.48416 -3.02447 0
M  V30 3249 O 301.527 2.58227 -3.07704 0
M  V30 3250 N 299.733 1.34243 -2.57735 0
M  V30 3251 H 299.28 0.448994 -2.53657 0
M  V30 3252 H 299.238 2.15957 -2.28495 0
M  V30 3253 N 303.011 1.40521 -0.713556 0
M  V30 3254 C 304.236 2.05759 -0.26035 0
M  V30 3255 C 304.661 1.53403 1.08854 0
M  V30 3256 O 304.019 0.668535 1.68524 0
M  V30 3257 C 304.067 3.59745 -0.248122 0
M  V30 3258 O 303.171 4.05123 0.77131 0
M  V30 3259 H 302.512 0.652564 -0.122703 0
M  V30 3260 H 305.042 1.79958 -0.973467 0
M  V30 3261 H 305.052 4.07911 -0.0851129 0
M  V30 3262 H 303.727 3.97218 -1.2325 0
M  V30 3263 H 302.304 3.68422 0.57619 0
M  V30 3264 N 304.489 0.459591 1.5075 0
M  V30 3265 C 305.399 -0.34613 2.32033 0
M  V30 3266 C 306.415 -1.00686 1.41909 0
M  V30 3267 O 307.591 -0.997361 1.7497 0
M  V30 3268 C 304.656 -1.42029 3.16273 0
M  V30 3269 C 303.717 -0.777362 4.22203 0
M  V30 3270 C 302.95 -1.80034 5.02418 0
M  V30 3271 O 303.173 -3.02544 4.83553 0
M  V30 3272 O 302.107 -1.37853 5.85901 0
M  V30 3273 H 305.933 0.318054 3.0203 0
M  V30 3274 H 303.518 0.221663 1.47746 0
M  V30 3275 H 305.4 -2.04275 3.68578 0
M  V30 3276 H 304.075 -2.06815 2.49016 0
M  V30 3277 H 302.982 -0.116256 3.73919 0
M  V30 3278 H 304.315 -0.172634 4.91897 0
M  V30 3279 N 305.967 -1.56429 0.191757 0
M  V30 3280 C 306.897 -2.21937 -0.725696 0
M  V30 3281 C 307.878 -1.1814 -1.2238 0
M  V30 3282 O 309.063 -1.46636 -1.27325 0
M  V30 3283 C 306.193 -2.87611 -1.94672 0
M  V30 3284 C 305.147 -3.97623 -1.58366 0
M  V30 3285 C 304.473 -4.50446 -2.88102 0
M  V30 3286 C 305.773 -5.16197 -0.796133 0
M  V30 3287 H 307.467 -2.98861 -0.179606 0
M  V30 3288 H 305.013 -1.43749 -0.0849464 0
M  V30 3289 H 306.966 -3.3212 -2.59373 0
M  V30 3290 H 305.69 -2.08087 -2.51728 0
M  V30 3291 H 304.349 -3.53801 -0.960247 0
M  V30 3292 H 303.997 -3.67688 -3.43241 0
M  V30 3293 H 303.697 -5.24675 -2.64556 0
M  V30 3294 H 305.221 -4.97654 -3.53798 0
M  V30 3295 H 306.635 -5.57271 -1.34618 0
M  V30 3296 H 305.032 -5.96471 -0.658928 0
M  V30 3297 H 306.102 -4.84473 0.203478 0
M  V30 3298 N 307.445 0.0818655 -1.57387 0
M  V30 3299 C 308.67 0.799946 -1.91352 0
M  V30 3300 C 309.095 1.70833 -0.787258 0
M  V30 3301 O 308.453 1.79419 0.26048 0
M  V30 3302 C 308.501 1.57812 -3.24234 0
M  V30 3303 O 307.605 2.68806 -3.12757 0
M  V30 3304 H 306.946 0.21891 -0.626877 0
M  V30 3305 H 309.476 0.0531256 -2.04531 0
M  V30 3306 H 309.486 1.95952 -3.57864 0
M  V30 3307 H 308.161 0.911548 -4.05788 0
M  V30 3308 H 306.738 2.33597 -2.90666 0
M  V30 3309 N 308.923 1.53595 0.353017 0
M  V30 3310 C 310.163 1.72094 1.10286 0
M  V30 3311 C 310.527 0.469217 1.86178 0
M  V30 3312 O 311.728 0.531083 2.63501 0
M  V30 3313 C 309.999 2.94386 2.02661 0
M  V30 3314 S 311.558 3.33651 2.84996 0
M  V30 3315 H 308.376 0.605433 0.372789 0
M  V30 3316 H 310.978 1.91722 0.38248 0
M  V30 3317 H 309.682 3.83669 1.45691 0
M  V30 3318 H 309.213 2.77197 2.79152 0
M  V30 3319 H 311.228 2.86645 4.0503 0
M  V30 3320 N 310.401 -0.613514 1.45168 0
M  V30 3321 C 311.333 -1.73825 1.4939 0
M  V30 3322 C 312.346 -1.58175 0.385304 0
M  V30 3323 O 313.535 -1.66165 0.652036 0
M  V30 3324 C 310.635 -3.11758 1.32891 0
M  V30 3325 C 309.808 -3.53704 2.57317 0
M  V30 3326 C 308.867 -4.70579 2.35462 0
M  V30 3327 O 307.893 -4.77996 3.09044 0
M  V30 3328 N 309.095 -5.63454 1.39644 0
M  V30 3329 H 311.86 -1.70669 2.46358 0
M  V30 3330 H 309.421 -0.79862 1.40832 0
M  V30 3331 H 311.413 -3.87692 1.1609 0
M  V30 3332 H 309.983 -3.09456 0.442218 0
M  V30 3333 H 309.203 -2.67794 2.89275 0
M  V30 3334 H 310.491 -3.78486 3.40038 0
M  V30 3335 H 309.889 -5.6017 0.789062 0
M  V30 3336 H 308.446 -6.38944 1.28816 0
M  V30 3337 N 311.879 -1.3236 -0.855495 0
M  V30 3338 C 312.809 -1.23833 -1.97958 0
M  V30 3339 C 313.79 -0.122361 -1.69659 0
M  V30 3340 O 314.975 -0.30939 -1.9172 0
M  V30 3341 C 312.105 -0.959772 -3.33775 0
M  V30 3342 C 311.059 -2.03689 -3.76424 0
M  V30 3343 C 310.385 -1.61075 -5.09862 0
M  V30 3344 C 311.685 -3.4518 -3.9198 0
M  V30 3345 H 313.379 -2.1788 -2.0535 0
M  V30 3346 H 310.925 -1.04891 -0.986605 0
M  V30 3347 H 312.878 -0.886678 -4.11966 0
M  V30 3348 H 311.602 0.0163404 -3.26596 0
M  V30 3349 H 310.261 -2.10012 -3.00484 0
M  V30 3350 H 309.909 -0.622107 -4.99138 0
M  V30 3351 H 309.609 -2.33143 -5.39368 0
M  V30 3352 H 311.133 -1.55201 -5.90546 0
M  V30 3353 H 312.547 -3.4145 -4.60526 0
M  V30 3354 H 310.944 -4.1559 -4.32903 0
M  V30 3355 H 312.014 -3.84903 -2.94919 0
M  V30 3356 N 313.357 1.07166 -1.15556 0
M  V30 3357 C 314.587 1.83248 -0.954133 0
M  V30 3358 C 314.995 1.82449 0.500911 0
M  V30 3359 O 314.338 1.23575 1.35923 0
M  V30 3360 C 314.4 3.31393 -1.39351 0
M  V30 3361 C 314.064 3.5591 -2.86666 0
M  V30 3362 C 315.061 3.49695 -3.8472 0
M  V30 3363 C 312.746 3.83515 -3.24379 0
M  V30 3364 C 314.74 3.70737 -5.18491 0
M  V30 3365 C 312.427 4.04209 -4.58321 0
M  V30 3366 C 313.425 3.97815 -5.55186 0
M  V30 3367 O 313.113 4.17954 -6.86709 0
M  V30 3368 H 312.845 0.584941 -0.338851 0
M  V30 3369 H 315.399 1.36169 -1.53777 0
M  V30 3370 H 313.629 3.79292 -0.75329 0
M  V30 3371 H 315.318 3.88945 -1.16089 0
M  V30 3372 H 316.084 3.28368 -3.56931 0
M  V30 3373 H 311.963 3.87605 -2.49567 0
M  V30 3374 H 315.507 3.65663 -5.94085 0
M  V30 3375 H 311.404 4.25023 -4.85825 0
M  V30 3376 H 312.172 4.35291 -6.93155 0
M  V30 3377 N 314.835 0.952656 1.25548 0
M  V30 3378 C 315.767 0.428609 2.25157 0
M  V30 3379 C 316.78 -0.454428 1.56329 0
M  V30 3380 O 317.969 -0.263023 1.76552 0
M  V30 3381 C 315.069 -0.401972 3.36508 0
M  V30 3382 C 314.242 0.467601 4.34893 0
M  V30 3383 C 313.301 -0.30445 5.25319 0
M  V30 3384 O 312.327 0.296473 5.68427 0
M  V30 3385 N 313.529 -1.59805 5.5807 0
M  V30 3386 H 316.294 1.28497 2.70756 0
M  V30 3387 H 313.855 0.822798 1.39433 0
M  V30 3388 H 315.847 -0.926134 3.9396 0
M  V30 3389 H 314.417 -1.15918 2.90313 0
M  V30 3390 H 313.637 1.17288 3.76347 0
M  V30 3391 H 314.925 1.06119 4.97611 0
M  V30 3392 H 314.323 -2.10823 5.24948 0
M  V30 3393 H 312.88 -2.06822 6.18116 0
M  V30 3394 N 316.313 -1.40141 0.720998 0
M  V30 3395 C 317.729 -1.54632 0.395113 0
M  V30 3396 C 317.929 -1.69115 -1.09555 0
M  V30 3397 O 316.985 -1.68377 -1.88163 0
M  V30 3398 C 318.298 -2.77177 1.1659 0
M  V30 3399 C 319.846 -2.91 1.15274 0
M  V30 3400 C 320.321 -4.16465 1.90579 0
M  V30 3401 N 321.812 -4.23476 1.87675 0
M  V30 3402 C 322.547 -5.19475 2.42762 0
M  V30 3403 N 322.043 -6.21348 3.06428 0
M  V30 3404 N 323.836 -5.11592 2.32874 0
M  V30 3405 H 315.987 -1.28986 1.68749 0
M  V30 3406 H 318.25 -0.62412 0.713567 0
M  V30 3407 H 317.956 -2.72771 2.22011 0
M  V30 3408 H 317.83 -3.69442 0.76108 0
M  V30 3409 H 320.217 -2.94907 0.106702 0
M  V30 3410 H 320.298 -1.99838 1.59682 0
M  V30 3411 H 319.942 -4.1332 2.95176 0
M  V30 3412 H 319.872 -5.06646 1.43587 0
M  V30 3413 H 322.363 -3.50497 1.41281 0
M  V30 3414 H 322.676 -6.91034 3.45965 0
M  V30 3415 H 321.021 -6.21777 3.10514 0
M  V30 3416 H 324.212 -4.30936 1.82789 0
M  V30 3417 H 324.385 -5.86233 2.76106 0
M  V30 3418 N 317.792 -0.46758 -1.50504 0
M  V30 3419 C 319.017 0.0886943 -2.0721 0
M  V30 3420 C 319.442 1.33057 -1.32956 0
M  V30 3421 O 318.8 1.77354 -0.376197 0
M  V30 3422 C 318.848 0.359202 -3.58806 0
M  V30 3423 O 317.952 1.44034 -3.8643 0
M  V30 3424 H 317.293 -0.0114349 -0.663902 0
M  V30 3425 H 319.823 -0.657613 -1.93744 0
M  V30 3426 H 319.833 0.600742 -4.03553 0
M  V30 3427 H 318.508 -0.548311 -4.1227 0
M  V30 3428 H 317.085 1.18638 -3.53524 0
M  V30 3429 N 319.27 1.56325 -0.20005 0
M  V30 3430 C 320.518 1.97329 0.436547 0
M  V30 3431 C 320.839 1.08826 1.61808 0
M  V30 3432 O 320.109 0.160604 1.95241 0
M  V30 3433 H 318.689 0.728714 0.164272 0
M  V30 3434 H 321.351 1.92761 -0.287937 0
M  V30 3435 H 320.447 3.02264 0.777353 0
M  V30 3436 N 320.748 -0.0735177 1.57428 0
M  V30 3437 C 322.025 -0.805903 1.78226 0
M  V30 3438 C 322.405 -1.95874 0.787189 0
M  V30 3439 O 321.753 -2.2779 -0.180029 0
M  V30 3440 C 321.963 -1.28045 3.24662 0
M  V30 3441 C 323.311 -1.71453 3.88444 0
M  V30 3442 O 324.335 -1.37616 3.28543 0
M  V30 3443 O 323.194 -2.34093 4.93825 0
M  V30 3444 H 320.288 -0.386041 0.73137 0
M  V30 3445 H 322.834 -0.0537269 1.69615 0
M  V30 3446 H 321.606 -0.455476 3.8864 0
M  V30 3447 H 321.229 -2.094 3.37991 0
M  V30 3448 N 322.226 -1.5378 -0.344866 0
M  V30 3449 C 323.159 -1.7649 -1.4466 0
M  V30 3450 C 324.137 -0.613954 -1.50563 0
M  V30 3451 O 325.321 -0.84896 -1.683 0
M  V30 3452 C 322.448 -1.86235 -2.82903 0
M  V30 3453 C 321.494 -3.08375 -2.94631 0
M  V30 3454 S 322.327 -4.67457 -2.61236 0
M  V30 3455 C 323.483 -4.80079 -4.0159 0
M  V30 3456 H 323.716 -2.69661 -1.2518 0
M  V30 3457 H 321.249 -1.44632 -0.540455 0
M  V30 3458 H 323.207 -1.92535 -3.62547 0
M  V30 3459 H 321.868 -0.940786 -2.9968 0
M  V30 3460 H 321.061 -3.11865 -3.95925 0
M  V30 3461 H 320.663 -3.00294 -2.22934 0
M  V30 3462 H 322.955 -4.61407 -4.96094 0
M  V30 3463 H 323.898 -5.82168 -4.03095 0
M  V30 3464 H 324.306 -4.08544 -3.89554 0
M  V30 3465 N 323.704 0.605807 -1.45491 0
M  V30 3466 C 324.952 1.36207 -1.49305 0
M  V30 3467 C 325.273 1.94519 -0.136863 0
M  V30 3468 O 324.543 1.77261 0.833983 0
M  V30 3469 H 323.123 0.50565 -0.549843 0
M  V30 3470 H 325.785 0.711239 -1.81459 0
M  V30 3471 H 324.881 2.18058 -2.23287 0
M  V30 3472 N 325.182 1.32811 0.848464 0
M  V30 3473 C 326.112 1.24882 1.97299 0
M  V30 3474 C 327.093 0.131357 1.69592 0
M  V30 3475 O 328.278 0.319553 1.91553 0
M  V30 3476 C 325.408 0.97746 3.33261 0
M  V30 3477 C 324.362 2.05682 3.75338 0
M  V30 3478 C 323.688 1.63777 5.09 0
M  V30 3479 C 324.988 3.47254 3.90144 0
M  V30 3480 H 326.682 2.18966 2.04191 0
M  V30 3481 H 324.228 1.05413 0.981029 0
M  V30 3482 H 326.181 0.908513 4.1149 0
M  V30 3483 H 324.905 0.000980011 3.266 0
M  V30 3484 H 323.564 2.11603 2.99366 0
M  V30 3485 H 323.212 0.648569 4.98801 0
M  V30 3486 H 322.912 2.36 5.38124 0
M  V30 3487 H 324.436 1.5833 5.89715 0
M  V30 3488 H 325.85 3.43888 4.58709 0
M  V30 3489 H 324.247 4.1788 4.30693 0
M  V30 3490 H 325.317 3.86462 2.92874 0
M  V30 3491 N 326.66 -1.06551 1.16123 0
M  V30 3492 C 327.908 -1.78947 0.939267 0
M  V30 3493 C 328.229 -1.87532 -0.534476 0
M  V30 3494 O 327.499 -1.38211 -1.38833 0
M  V30 3495 H 326.079 -0.662807 0.344523 0
M  V30 3496 H 328.741 -1.28725 1.46342 0
M  V30 3497 H 327.837 -2.81117 1.35572 0
M  V30 3498 N 328.138 -0.959301 -1.25041 0
M  V30 3499 C 329.384 -0.617525 -1.9317 0
M  V30 3500 C 329.717 0.843981 -1.74902 0
M  V30 3501 O 328.992 1.60615 -1.09696 0
M  V30 3502 C 329.275 -0.982736 -3.46431 0
M  V30 3503 C 329.128 -2.50032 -3.73904 0
M  V30 3504 C 330.447 -0.511176 -4.37121 0
M  V30 3505 H 327.566 -0.22582 -0.701552 0
M  V30 3506 H 330.208 -1.19679 -1.4757 0
M  V30 3507 H 328.358 -0.489806 -3.854 0
M  V30 3508 H 330.03 -3.06737 -3.44544 0
M  V30 3509 H 328.273 -2.93598 -3.19348 0
M  V30 3510 H 328.944 -2.70635 -4.81103 0
M  V30 3511 H 331.42 -0.934075 -4.0548 0
M  V30 3512 H 330.296 -0.795361 -5.43107 0
M  V30 3513 H 330.557 0.588834 -4.38161 0
M  V30 3514 N 329.616 1.39756 -0.72842 0
M  V30 3515 C 331.027 1.83498 -0.344289 0
M  V30 3516 C 331.378 1.60868 1.12321 0
M  V30 3517 O 330.503 1.09634 1.86573 0
M  V30 3518 C 331.098 3.33114 -0.618112 0
M  V30 3519 C 329.657 3.753 -0.287549 0
M  V30 3520 C 328.804 2.62831 -0.884048 0
M  V30 3521 H 331.755 1.28842 -0.926578 0
M  V30 3522 H 331.776 3.80334 0.112349 0
M  V30 3523 H 331.288 3.49553 -1.68625 0
M  V30 3524 H 329.389 3.64451 0.775012 0
M  V30 3525 H 329.502 4.72945 -0.765512 0
M  V30 3526 H 327.866 2.52792 -0.311149 0
M  V30 3527 H 328.649 2.82078 -1.95671 0
M  V30 3528 N 331.094 0.475555 1.50254 0
M  V30 3529 C 332.341 -0.0778919 2.0235 0
M  V30 3530 C 332.669 -1.39319 1.35722 0
M  V30 3531 O 331.924 -1.89888 0.473395 0
M  V30 3532 C 332.223 -0.305114 3.56095 0
M  V30 3533 C 331.889 0.92903 4.41225 0
M  V30 3534 C 330.551 1.26739 4.6421 0
M  V30 3535 C 332.903 1.75054 4.90923 0
M  V30 3536 C 330.231 2.42724 5.34137 0
M  V30 3537 C 332.583 2.9017 5.62125 0
M  V30 3538 C 331.247 3.24416 5.83362 0
M  V30 3539 H 330.517 -0.0285027 0.740452 0
M  V30 3540 H 333.164 0.630543 1.80821 0
M  V30 3541 H 331.469 -1.09584 3.76163 0
M  V30 3542 H 333.166 -0.747377 3.93974 0
M  V30 3543 H 329.756 0.655428 4.23559 0
M  V30 3544 H 333.94 1.50231 4.73016 0
M  V30 3545 H 329.196 2.69525 5.48786 0
M  V30 3546 H 333.37 3.54169 5.99614 0
M  V30 3547 H 330.997 4.14396 6.37323 0
M  V30 3548 N 332.573 -1.56217 0.208337 0
M  V30 3549 C 333.521 -2.21053 -0.723769 0
M  V30 3550 C 334.515 -1.18578 -1.20978 0
M  V30 3551 O 335.721 -1.36691 -1.17114 0
M  V30 3552 H 332.096 -0.708595 -0.251788 0
M  V30 3553 H 334.067 -2.98006 -0.153365 0
M  V30 3554 C 332.816 -2.89417 -1.927 0
M  V30 3555 H 332.139 -3.68019 -1.56212 0
M  V30 3556 H 333.579 -3.38201 -2.55727 0
M  V30 3557 C 332.038 -1.91166 -2.77411 0
M  V30 3558 O 332.568 -1.42026 -3.75754 0
M  V30 3559 N 330.774 -1.59105 -2.43175 0
M  V30 3560 H 330.321 -1.99259 -1.63259 0
M  V30 3561 H 330.279 -0.936255 -3.00136 0
M  V30 3562 N 334.051 0.0651679 -1.57465 0
M  V30 3563 C 335.3 0.761916 -1.86756 0
M  V30 3564 C 335.613 1.78406 -0.801925 0
M  V30 3565 O 336.819 2.53084 -0.982885 0
M  V30 3566 C 335.275 1.40603 -3.31299 0
M  V30 3567 C 334.883 0.422115 -4.46007 0
M  V30 3568 C 336.627 2.08476 -3.69781 0
M  V30 3569 C 334.534 1.07252 -5.81593 0
M  V30 3570 H 333.464 0.288308 -0.696702 0
M  V30 3571 H 336.115 0.015344 -1.83494 0
M  V30 3572 H 334.497 2.20109 -3.29193 0
M  V30 3573 H 335.671 -0.343613 -4.59517 0
M  V30 3574 H 333.986 -0.152527 -4.16121 0
M  V30 3575 H 336.583 2.57925 -4.68379 0
M  V30 3576 H 336.926 2.88712 -2.99919 0
M  V30 3577 H 337.459 1.35792 -3.73905 0
M  V30 3578 H 334.198 0.310342 -6.54765 0
M  V30 3579 H 333.718 1.80895 -5.71872 0
M  V30 3580 H 335.397 1.59043 -6.27148 0
M  V30 3581 N 335.529 1.53961 0.336706 0
M  V30 3582 C 336.492 1.81724 1.39675 0
M  V30 3583 C 337.492 0.688532 1.45313 0
M  V30 3584 O 338.682 0.956829 1.45569 0
M  V30 3585 C 335.814 1.96543 2.78538 0
M  V30 3586 H 337.007 2.76424 1.16318 0
M  V30 3587 H 334.56 1.45478 0.571474 0
M  V30 3588 H 335.295 1.0401 3.07168 0
M  V30 3589 H 335.08 2.78665 2.75841 0
M  V30 3590 H 336.57 2.19516 3.5525 0
M  V30 3591 N 337.007 -0.598083 1.45811 0
M  V30 3592 C 338.232 -1.3881 1.54099 0
M  V30 3593 C 338.657 -1.8726 0.177578 0
M  V30 3594 O 338.015 -1.6069 -0.839541 0
M  V30 3595 C 338.063 -2.56217 2.53743 0
M  V30 3596 O 337.167 -3.5716 2.06182 0
M  V30 3597 H 336.508 -0.414024 0.519115 0
M  V30 3598 H 339.038 -0.726971 1.91249 0
M  V30 3599 H 339.048 -3.03337 2.72856 0
M  V30 3600 H 337.723 -2.20303 3.5276 0
M  V30 3601 H 336.3 -3.16624 1.96987 0
M  V30 3602 N 338.485 -1.33259 -0.841409 0
M  V30 3603 C 339.715 -1.2742 -1.62628 0
M  V30 3604 C 340.123 0.157604 -1.88542 0
M  V30 3605 O 339.466 1.10938 -1.46419 0
M  V30 3606 C 339.528 -1.97797 -3.00194 0
M  V30 3607 C 339.192 -3.47109 -2.97261 0
M  V30 3608 C 340.189 -4.42358 -2.73159 0
M  V30 3609 C 337.874 -3.89247 -3.17478 0
M  V30 3610 C 339.868 -5.77718 -2.69296 0
M  V30 3611 C 337.555 -5.24713 -3.13241 0
M  V30 3612 C 338.553 -6.1876 -2.89181 0
M  V30 3613 O 338.241 -7.51745 -2.84843 0
M  V30 3614 H 337.973 -0.440436 -0.512827 0
M  V30 3615 H 340.527 -1.76153 -1.05638 0
M  V30 3616 H 338.757 -1.43652 -3.59028 0
M  V30 3617 H 340.446 -1.8549 -3.61038 0
M  V30 3618 H 341.212 -4.11127 -2.57294 0
M  V30 3619 H 337.091 -3.16456 -3.35226 0
M  V30 3620 H 340.635 -6.51097 -2.50436 0
M  V30 3621 H 336.532 -5.55569 -3.28654 0
M  V30 3622 H 337.3 -7.61262 -3.00702 0
M  V30 3623 N 339.963 1.05934 -1.16686 0
M  V30 3624 C 340.926 2.11669 -0.879144 0
M  V30 3625 C 341.926 1.60294 0.127445 0
M  V30 3626 O 343.116 1.7389 -0.103865 0
M  V30 3627 C 340.248 3.39438 -0.315425 0
M  V30 3628 H 341.441 2.38626 -1.81653 0
M  V30 3629 H 338.994 1.22058 -0.976299 0
M  V30 3630 H 339.729 3.18132 0.629468 0
M  V30 3631 H 339.514 3.78034 -1.04079 0
M  V30 3632 H 341.004 4.17391 -0.132189 0
M  V30 3633 N 341.441 0.965919 1.2453 0
M  V30 3634 C 342.371 0.513476 2.27784 0
M  V30 3635 C 343.352 -0.445974 1.6415 0
M  V30 3636 O 344.537 -0.342485 1.91156 0
M  V30 3637 C 341.667 -0.198839 3.4673 0
M  V30 3638 C 340.621 0.676456 4.2262 0
M  V30 3639 C 339.947 -0.167248 5.34438 0
M  V30 3640 C 341.247 1.96017 4.84123 0
M  V30 3641 H 342.941 1.3765 2.65881 0
M  V30 3642 H 340.487 0.663321 1.27813 0
M  V30 3643 H 342.44 -0.526567 4.18097 0
M  V30 3644 H 341.164 -1.0962 3.07654 0
M  V30 3645 H 339.823 0.98743 3.53052 0
M  V30 3646 H 339.471 -1.0647 4.91603 0
M  V30 3647 H 339.171 0.415181 5.86131 0
M  V30 3648 H 340.695 -0.489688 6.08633 0
M  V30 3649 H 342.109 1.69814 5.47573 0
M  V30 3650 H 340.506 2.48918 5.4604 0
M  V30 3651 H 341.576 2.65622 4.05676 0
M  V30 3652 N 342.919 -1.39368 0.735821 0
M  V30 3653 C 343.849 -2.33234 0.111506 0
M  V30 3654 C 344.83 -1.53954 -0.723334 0
M  V30 3655 O 346.015 -1.82344 -0.668147 0
M  V30 3656 C 343.145 -3.38057 -0.795917 0
M  V30 3657 C 342.099 -4.2795 -0.065172 0
M  V30 3658 C 341.425 -5.23479 -1.08967 0
M  V30 3659 C 342.725 -5.10741 1.09273 0
M  V30 3660 H 344.419 -2.85692 0.895571 0
M  V30 3661 H 341.965 -1.37364 0.432109 0
M  V30 3662 H 343.918 -4.02675 -1.24221 0
M  V30 3663 H 342.642 -2.8404 -1.61211 0
M  V30 3664 H 341.301 -3.64813 0.361511 0
M  V30 3665 H 340.949 -4.65758 -1.89944 0
M  V30 3666 H 340.649 -5.84472 -0.605489 0
M  V30 3667 H 342.173 -5.90974 -1.53565 0
M  V30 3668 H 343.587 -5.68699 0.724841 0
M  V30 3669 H 341.984 -5.8088 1.50659 0
M  V30 3670 H 343.054 -4.45525 1.91404 0
M  V30 3671 N 344.397 -0.483516 -1.5 0
M  V30 3672 C 345.625 0.0644831 -2.06799 0
M  V30 3673 C 346.04 1.32399 -1.34596 0
M  V30 3674 O 345.397 1.77626 -0.418946 0
M  V30 3675 C 345.448 0.339927 -3.59898 0
M  V30 3676 O 345.169 -0.869635 -4.29382 0
M  V30 3677 C 346.67 0.933515 -4.33359 0
M  V30 3678 H 343.89 -0.0126333 -0.670881 0
M  V30 3679 H 346.434 -0.675864 -1.93009 0
M  V30 3680 H 344.589 1.03022 -3.7345 0
M  V30 3681 H 345.003 -0.62179 -5.20801 0
M  V30 3682 H 346.477 1.07593 -5.41413 0
M  V30 3683 H 346.954 1.92685 -3.94676 0
M  V30 3684 H 347.56 0.281221 -4.24369 0
M  V30 3685 N 345.875 1.56104 -0.216619 0
M  V30 3686 C 347.105 2.02269 0.420802 0
M  V30 3687 C 347.513 1.09575 1.5424 0
M  V30 3688 O 346.856 0.0967308 1.83445 0
M  V30 3689 C 346.918 3.44784 1.01806 0
M  V30 3690 C 346.582 4.56988 0.0325154 0
M  V30 3691 C 347.579 5.14225 -0.766055 0
M  V30 3692 C 345.264 5.02228 -0.0848092 0
M  V30 3693 C 347.258 6.15169 -1.6687 0
M  V30 3694 C 344.945 6.03011 -0.990994 0
M  V30 3695 C 345.943 6.59357 -1.78149 0
M  V30 3696 O 345.631 7.58179 -2.67245 0
M  V30 3697 H 345.363 0.667353 0.107776 0
M  V30 3698 H 347.917 2.02747 -0.329034 0
M  V30 3699 H 346.147 3.41359 1.81689 0
M  V30 3700 H 347.836 3.74626 1.56237 0
M  V30 3701 H 348.602 4.80126 -0.685836 0
M  V30 3702 H 344.481 4.58054 0.520349 0
M  V30 3703 H 348.025 6.59076 -2.28615 0
M  V30 3704 H 343.922 6.36532 -1.07225 0
M  V30 3705 H 344.69 7.75682 -2.61265 0
M  V30 3706 N 347.353 -0.0568162 1.57498 0
M  V30 3707 C 348.286 -1.09817 2.00039 0
M  V30 3708 C 349.264 -1.3674 0.879819 0
M  V30 3709 O 350.448 -1.49863 1.14338 0
M  V30 3710 C 347.575 -2.43924 2.34986 0
M  V30 3711 C 346.621 -2.33039 3.57204 0
M  V30 3712 S 347.454 -1.7102 5.07457 0
M  V30 3713 C 348.61 -3.06674 5.45621 0
M  V30 3714 H 348.843 -0.735701 2.88053 0
M  V30 3715 H 346.376 -0.265871 1.52094 0
M  V30 3716 H 348.334 -3.2106 2.55795 0
M  V30 3717 H 346.995 -2.77327 1.47474 0
M  V30 3718 H 346.188 -3.31973 3.79223 0
M  V30 3719 H 345.79 -1.64043 3.36104 0
M  V30 3720 H 348.082 -4.03 5.44608 0
M  V30 3721 H 349.025 -2.8942 6.46252 0
M  V30 3722 H 349.433 -3.07969 4.73091 0
M  V30 3723 N 348.832 -1.54138 -0.328536 0
M  V30 3724 C 350.081 -1.71318 -1.06456 0
M  V30 3725 C 350.394 -0.491109 -1.89334 0
M  V30 3726 O 351.6 -0.54416 -2.65991 0
M  V30 3727 C 350.056 -3.03 -1.94214 0
M  V30 3728 C 349.664 -4.32595 -1.16471 0
M  V30 3729 C 351.408 -3.29544 -2.67583 0
M  V30 3730 C 349.315 -5.55341 -2.03347 0
M  V30 3731 H 348.245 -0.638429 -0.401155 0
M  V30 3732 H 350.896 -1.80633 -0.323106 0
M  V30 3733 H 349.278 -2.87579 -2.72239 0
M  V30 3734 H 350.452 -4.58766 -0.432525 0
M  V30 3735 H 348.767 -4.12777 -0.548063 0
M  V30 3736 H 351.364 -4.18444 -3.3288 0
M  V30 3737 H 351.707 -2.47206 -3.34955 0
M  V30 3738 H 352.24 -3.45809 -1.96623 0
M  V30 3739 H 348.979 -6.40268 -1.40491 0
M  V30 3740 H 348.499 -5.33397 -2.74313 0
M  V30 3741 H 350.178 -5.91557 -2.62049 0
M  V30 3742 N 350.31 0.590341 -1.46126 0
M  V30 3743 C 351.273 1.68194 -1.55703 0
M  V30 3744 C 352.273 1.54808 -0.434868 0
M  V30 3745 O 353.463 1.59564 -0.698928 0
M  V30 3746 C 350.595 3.07575 -1.47005 0
M  V30 3747 H 351.788 1.61064 -2.52979 0
M  V30 3748 H 349.341 0.807541 -1.33823 0
M  V30 3749 H 350.076 3.20268 -0.509785 0
M  V30 3750 H 349.861 3.187 -2.28414 0
M  V30 3751 H 351.351 3.87055 -1.56776 0
M  V30 3752 N 351.788 1.33704 0.83433 0
M  V30 3753 C 352.738 1.20899 1.93306 0
M  V30 3754 C 353.722 0.110783 1.60518 0
M  V30 3755 O 354.914 0.339331 1.73717 0
M  V30 3756 C 352.043 0.955018 3.29749 0
M  V30 3757 C 351.129 2.09587 3.68692 0
M  V30 3758 N 351.52 3.34621 3.79292 0
M  V30 3759 C 349.818 2.00358 3.98463 0
M  V30 3760 C 350.519 4.09472 4.13167 0
M  V30 3761 N 349.495 3.37954 4.25779 0
M  V30 3762 H 353.297 2.15665 1.99664 0
M  V30 3763 H 350.811 1.25777 1.02732 0
M  V30 3764 H 352.808 0.844208 4.08263 0
M  V30 3765 H 351.468 0.0159317 3.24696 0
M  V30 3766 H 352.479 3.69313 3.63082 0
M  V30 3767 H 349.156 1.14137 4.01596 0
M  V30 3768 H 350.546 5.17391 4.28668 0
M  V30 3769 N 353.266 -1.05314 1.17247 0
M  V30 3770 C 354.515 -1.77685 0.954521 0
M  V30 3771 C 354.828 -1.88616 -0.518025 0
M  V30 3772 O 356.034 -2.57714 -0.854144 0
M  V30 3773 C 354.49 -3.19402 1.65863 0
M  V30 3774 C 354.098 -3.16605 3.16963 0
M  V30 3775 C 355.842 -3.96237 1.52303 0
M  V30 3776 C 353.749 -4.53103 3.80068 0
M  V30 3777 H 352.679 -0.666 0.353496 0
M  V30 3778 H 355.33 -1.1805 1.40486 0
M  V30 3779 H 353.712 -3.79355 1.13602 0
M  V30 3780 H 354.886 -2.66176 3.76148 0
M  V30 3781 H 353.201 -2.53268 3.30521 0
M  V30 3782 H 355.798 -4.97157 1.96822 0
M  V30 3783 H 356.141 -4.136 0.473401 0
M  V30 3784 H 356.674 -3.42829 2.01775 0
M  V30 3785 H 353.413 -4.40946 4.85023 0
M  V30 3786 H 352.933 -5.03686 3.2567 0
M  V30 3787 H 354.612 -5.22045 3.82202 0
M  V30 3788 N 354.744 -0.972509 -1.24016 0
M  V30 3789 C 355.972 -0.654803 -1.96265 0
M  V30 3790 C 356.387 0.776708 -1.72083 0
M  V30 3791 O 355.744 1.52171 -1.00748 0
M  V30 3792 C 355.795 -0.92592 -3.49441 0
M  V30 3793 O 355.516 -2.30116 -3.72798 0
M  V30 3794 C 357.017 -0.623068 -4.38899 0
M  V30 3795 H 354.237 -0.243907 -0.6251 0
M  V30 3796 H 356.781 -1.30175 -1.57717 0
M  V30 3797 H 354.936 -0.325108 -3.86033 0
M  V30 3798 H 355.35 -2.38483 -4.67147 0
M  V30 3799 H 356.824 -0.863189 -5.45209 0
M  V30 3800 H 357.301 0.442754 -4.36963 0
M  V30 3801 H 357.907 -1.204 -4.07902 0
M  V30 3802 N 356.222 1.38976 -0.743202 0
M  V30 3803 C 357.47 1.99948 -0.29417 0
M  V30 3804 C 357.791 1.59279 1.12495 0
M  V30 3805 O 357.061 0.844808 1.76748 0
M  V30 3806 H 355.641 0.739473 -0.105774 0
M  V30 3807 H 358.303 1.699 -0.954986 0
M  V30 3808 H 357.399 3.10142 -0.349056 0
M  V30 3809 N 357.7 0.491464 1.49741 0
M  V30 3810 C 358.63 -0.28154 2.31796 0
M  V30 3811 C 359.611 -0.971473 1.3963 0
M  V30 3812 O 360.796 -0.964719 1.68543 0
M  V30 3813 C 357.926 -1.35203 3.19902 0
M  V30 3814 C 356.88 -0.782529 4.20786 0
M  V30 3815 C 356.206 -1.95283 4.97764 0
M  V30 3816 C 357.506 0.21999 5.21837 0
M  V30 3817 H 359.2 0.403355 2.96671 0
M  V30 3818 H 356.746 0.195425 1.42668 0
M  V30 3819 H 358.699 -1.90045 3.76113 0
M  V30 3820 H 357.423 -2.06598 2.52953 0
M  V30 3821 H 356.082 -0.255928 3.65706 0
M  V30 3822 H 355.73 -2.65423 4.2727 0
M  V30 3823 H 355.43 -1.57789 5.66018 0
M  V30 3824 H 356.954 -2.50577 5.56816 0
M  V30 3825 H 358.368 -0.23996 5.72798 0
M  V30 3826 H 356.765 0.51026 5.97927 0
M  V30 3827 H 357.835 1.13911 4.7133 0
M  V30 3828 N 359.178 -1.55987 0.224894 0
M  V30 3829 C 360.125 -2.20436 -0.68385 0
M  V30 3830 C 361.095 -1.16102 -1.18783 0
M  V30 3831 O 362.28 -1.4447 -1.24632 0
M  V30 3832 C 359.42 -2.89076 -1.88491 0
M  V30 3833 C 358.533 -4.08012 -1.41951 0
M  V30 3834 C 357.668 -4.64426 -2.5784 0
M  V30 3835 C 356.707 -5.75656 -2.08053 0
M  V30 3836 N 355.844 -6.26347 -3.17227 0
M  V30 3837 H 360.684 -2.97727 -0.12754 0
M  V30 3838 H 358.221 -1.47011 -0.0511978 0
M  V30 3839 H 360.179 -3.27059 -2.59014 0
M  V30 3840 H 358.809 -2.14298 -2.41405 0
M  V30 3841 H 357.861 -3.75492 -0.609095 0
M  V30 3842 H 359.173 -4.88375 -1.01447 0
M  V30 3843 H 358.327 -5.04869 -3.3644 0
M  V30 3844 H 357.066 -3.83233 -3.01635 0
M  V30 3845 H 356.071 -5.34712 -1.27916 0
M  V30 3846 H 357.296 -6.58686 -1.65255 0
M  V30 3847 H 355.242 -5.48067 -3.60497 0
M  V30 3848 H 355.159 -7.01843 -2.80986 0
M  V30 3849 H 356.427 -6.71447 -3.95953 0
M  V30 3850 N 360.656 0.0484629 -1.57525 0
M  V30 3851 C 362.067 0.597486 -1.76881 0
M  V30 3852 C 362.418 1.76664 -0.853475 0
M  V30 3853 O 361.543 2.16357 -0.0433656 0
M  V30 3854 C 362.138 1.09066 -3.20765 0
M  V30 3855 C 360.697 1.58535 -3.41385 0
M  V30 3856 C 359.844 0.514868 -2.72478 0
M  V30 3857 H 362.795 -0.177758 -1.57701 0
M  V30 3858 H 362.816 1.95875 -3.2621 0
M  V30 3859 H 362.328 0.239521 -3.8736 0
M  V30 3860 H 360.429 2.45898 -2.79937 0
M  V30 3861 H 360.542 1.64622 -4.49929 0
M  V30 3862 H 358.906 0.965407 -2.35695 0
M  V30 3863 H 359.689 -0.32648 -3.41744 0
M  V30 3864 N 362.134 1.5431 0.320358 0
M  V30 3865 C 363.382 1.72327 1.05583 0
M  V30 3866 C 363.703 0.50149 1.88441 0
M  V30 3867 O 362.973 -0.48448 1.89815 0
M  V30 3868 H 361.553 0.635387 0.3928 0
M  V30 3869 H 364.215 1.91621 0.356019 0
M  V30 3870 H 363.311 2.60426 1.72003 0
M  V30 3871 N 363.613 -0.582584 1.46437 0
M  V30 3872 C 364.89 -1.34276 1.4223 0
M  V30 3873 C 365.27 -2.10835 0.10583 0
M  V30 3874 O 364.618 -2.09485 -0.912596 0
M  V30 3875 C 364.828 -2.26865 2.65204 0
M  V30 3876 C 366.176 -2.88691 3.11356 0
M  V30 3877 O 367.2 -2.37178 2.65753 0
M  V30 3878 O 366.059 -3.82255 3.90568 0
M  V30 3879 H 363.153 -0.603326 0.565621 0
M  V30 3880 H 365.699 -0.603591 1.58603 0
M  V30 3881 H 364.471 -1.69724 3.52576 0
M  V30 3882 H 364.094 -3.08122 2.5129 0
M  V30 3883 N 365.091 -1.34144 -0.827227 0
M  V30 3884 C 366.338 -1.26258 -1.58319 0
M  V30 3885 C 366.666 0.168595 -1.93768 0
M  V30 3886 O 365.921 1.12877 -1.59866 0
M  V30 3887 C 366.22 -2.09464 -2.89585 0
M  V30 3888 C 365.886 -3.58521 -2.73448 0
M  V30 3889 C 364.548 -3.99155 -2.68754 0
M  V30 3890 C 366.9 -4.53189 -2.57428 0
M  V30 3891 C 364.228 -5.32656 -2.45957 0
M  V30 3892 C 366.58 -5.86864 -2.36163 0
M  V30 3893 C 365.244 -6.26667 -2.29879 0
M  V30 3894 H 364.514 -0.462013 -0.579332 0
M  V30 3895 H 367.161 -1.65845 -0.95748 0
M  V30 3896 H 365.466 -1.62692 -3.56425 0
M  V30 3897 H 367.163 -2.00712 -3.47154 0
M  V30 3898 H 363.753 -3.26264 -2.77939 0
M  V30 3899 H 367.937 -4.22696 -2.60081 0
M  V30 3900 H 363.193 -5.62519 -2.39546 0
M  V30 3901 H 367.367 -6.59813 -2.22754 0
M  V30 3902 H 364.994 -7.30049 -2.11975 0
M  V30 3903 N 366.569 1.04691 -1.17803 0
M  V30 3904 C 367.818 1.77176 -0.963931 0
M  V30 3905 C 368.131 1.88888 0.508015 0
M  V30 3906 O 369.337 2.58164 0.840465 0
M  V30 3907 C 367.793 3.18518 -1.67555 0
M  V30 3908 C 367.401 3.14919 -3.18637 0
M  V30 3909 C 369.145 3.95424 -1.54402 0
M  V30 3910 C 367.052 4.51081 -3.82466 0
M  V30 3911 H 365.982 0.664116 -0.357023 0
M  V30 3912 H 368.633 1.17303 -1.4111 0
M  V30 3913 H 367.015 3.78748 -1.15613 0
M  V30 3914 H 368.189 2.64178 -3.77554 0
M  V30 3915 H 366.504 2.51512 -3.31859 0
M  V30 3916 H 369.101 4.96106 -1.99456 0
M  V30 3917 H 369.444 4.13343 -0.495329 0
M  V30 3918 H 369.977 3.41754 -2.0359 0
M  V30 3919 H 366.716 4.38368 -4.87354 0
M  V30 3920 H 366.236 5.01951 -3.28337 0
M  V30 3921 H 367.915 5.2001 -3.84965 0
M  V30 3922 N 368.047 0.979072 1.23499 0
M  V30 3923 C 368.997 0.489378 2.22686 0
M  V30 3924 C 369.981 -0.434871 1.54912 0
M  V30 3925 O 371.173 -0.263941 1.75021 0
M  V30 3926 C 368.302 -0.208178 3.42668 0
M  V30 3927 C 367.388 0.735563 4.17672 0
M  V30 3928 N 367.779 1.87763 4.69658 0
M  V30 3929 C 366.077 0.548625 4.42613 0
M  V30 3930 C 366.778 2.46886 5.26709 0
M  V30 3931 N 365.754 1.75287 5.14563 0
M  V30 3932 H 369.556 1.36062 2.60508 0
M  V30 3933 H 367.07 0.83958 1.39014 0
M  V30 3934 H 369.067 -0.576295 4.12898 0
M  V30 3935 H 367.727 -1.07572 3.06363 0
M  V30 3936 H 368.738 2.25885 4.66043 0
M  V30 3937 H 365.415 -0.274006 4.166 0
M  V30 3938 H 366.805 3.43326 5.77561 0
M  V30 3939 N 369.525 -1.3858 0.750561 0
M  V30 3940 C 370.753 -2.04471 0.316098 0
M  V30 3941 C 371.168 -1.56606 -1.05452 0
M  V30 3942 O 370.525 -0.737784 -1.66922 0
M  V30 3943 C 370.576 -3.60025 0.326275 0
M  V30 3944 O 370.297 -4.06133 1.6428 0
M  V30 3945 C 371.798 -4.43131 -0.122429 0
M  V30 3946 H 369.018 -0.65717 0.135528 0
M  V30 3947 H 371.562 -1.77329 1.01857 0
M  V30 3948 H 369.717 -3.86014 -0.327431 0
M  V30 3949 H 370.131 -5.00547 1.56693 0
M  V30 3950 H 371.605 -5.51963 -0.0641473 0
M  V30 3951 H 372.082 -4.23333 -1.16988 0
M  V30 3952 H 372.688 -4.22323 0.50229 0
M  V30 3953 N 371.003 -0.499398 -1.49478 0
M  V30 3954 C 371.933 0.269244 -2.31943 0
M  V30 3955 C 372.914 0.964054 -1.40143 0
M  V30 3956 O 374.099 0.955767 -1.69052 0
M  V30 3957 C 371.229 1.33504 -3.20615 0
M  V30 3958 C 370.183 0.760202 -4.21195 0
M  V30 3959 C 369.509 1.9264 -4.98792 0
M  V30 3960 C 370.809 -0.247661 -5.21712 0
M  V30 3961 H 372.503 -0.419082 -2.96452 0
M  V30 3962 H 370.049 -0.202988 -1.42562 0
M  V30 3963 H 372.002 1.88048 -3.77115 0
M  V30 3964 H 370.726 2.05253 -2.54045 0
M  V30 3965 H 369.385 0.23653 -3.65836 0
M  V30 3966 H 369.033 2.63154 -4.28671 0
M  V30 3967 H 368.733 1.54785 -5.66847 0
M  V30 3968 H 370.257 2.4762 -5.58137 0
M  V30 3969 H 371.671 0.209579 -5.72917 0
M  V30 3970 H 370.068 -0.541962 -5.97648 0
M  V30 3971 H 371.138 -1.16409 -4.7072 0
M  V30 3972 N 372.481 1.55866 -0.233164 0
M  V30 3973 C 373.729 1.9821 0.394593 0
M  V30 3974 C 374.05 1.12234 1.59463 0
M  V30 3975 O 373.32 0.201981 1.94856 0
M  V30 3976 H 371.9 0.732034 0.148778 0
M  V30 3977 H 374.562 1.92107 -0.32876 0
M  V30 3978 H 373.658 3.03845 0.713063 0
M  V30 3979 N 373.959 -0.0401083 1.57549 0
M  V30 3980 C 375.236 -0.767917 1.79896 0
M  V30 3981 C 375.616 -1.9416 0.82856 0
M  V30 3982 O 374.964 -2.2812 -0.131671 0
M  V30 3983 C 375.174 -1.2113 3.27305 0
M  V30 3984 C 376.522 -1.63175 3.91994 0
M  V30 3985 O 377.546 -1.30616 3.31388 0
M  V30 3986 O 376.405 -2.23565 4.98679 0
M  V30 3987 H 373.499 -0.370441 0.739393 0
M  V30 3988 H 376.045 -0.017737 1.69691 0
M  V30 3989 H 374.817 -0.372937 3.89519 0
M  V30 3990 H 374.44 -2.02183 3.42356 0
M  V30 3991 N 375.437 -1.54477 -0.31217 0
M  V30 3992 C 376.4 -1.83923 -1.36766 0
M  V30 3993 C 377.4 -0.711563 -1.44199 0
M  V30 3994 O 378.59 -0.979866 -1.44029 0
M  V30 3995 C 375.722 -2.0095 -2.75376 0
M  V30 3996 H 376.915 -2.78239 -1.11906 0
M  V30 3997 H 374.468 -1.46369 -0.548257 0
M  V30 3998 H 375.203 -1.08883 -3.05475 0
M  V30 3999 H 374.988 -2.83018 -2.71373 0
M  V30 4000 H 376.478 -2.2514 -3.51713 0
M  V30 4001 N 376.915 0.57481 -1.46744 0
M  V30 4002 C 377.865 1.67838 -1.54319 0
M  V30 4003 C 378.849 1.55759 -0.40346 0
M  V30 4004 O 380.041 1.6454 -0.652347 0
M  V30 4005 C 377.17 3.06624 -1.5439 0
M  V30 4006 C 376.256 3.23971 -2.73685 0
M  V30 4007 N 376.647 3.11447 -3.9854 0
M  V30 4008 C 374.945 3.5493 -2.70075 0
M  V30 4009 C 375.646 3.31011 -4.78337 0
M  V30 4010 N 374.622 3.56533 -4.10348 0
M  V30 4011 H 378.424 1.56698 -2.48642 0
M  V30 4012 H 375.938 0.779071 -1.42493 0
M  V30 4013 H 377.935 3.85839 -1.57905 0
M  V30 4014 H 376.595 3.1889 -0.611493 0
M  V30 4015 H 377.606 2.89145 -4.29669 0
M  V30 4016 H 374.283 3.73832 -1.85893 0
M  V30 4017 H 375.673 3.26445 -5.87268 0
M  V30 4018 N 378.394 1.34581 0.820102 0
M  V30 4019 C 379.643 1.26437 1.57151 0
M  V30 4020 C 379.956 -0.163111 1.94919 0
M  V30 4021 O 381.162 -0.366722 2.69012 0
M  V30 4022 C 379.618 2.21658 2.83541 0
M  V30 4023 C 379.226 3.69679 2.53065 0
M  V30 4024 C 380.97 2.22428 3.61561 0
M  V30 4025 C 378.877 4.56761 3.75664 0
M  V30 4026 H 377.807 0.469707 0.589823 0
M  V30 4027 H 380.458 1.59763 0.902656 0
M  V30 4028 H 378.84 1.81287 3.52067 0
M  V30 4029 H 380.014 4.18605 1.92631 0
M  V30 4030 H 378.329 3.71384 1.88316 0
M  V30 4031 H 380.926 2.8471 4.52597 0
M  V30 4032 H 381.269 1.22434 3.97889 0
M  V30 4033 H 381.802 2.61259 2.99981 0
M  V30 4034 H 378.541 5.57702 3.44454 0
M  V30 4035 H 378.061 4.12568 4.35371 0
M  V30 4036 H 379.74 4.71509 4.43044 0
M  V30 4037 N 379.872 -1.04064 1.18357 0
M  V30 4038 C 381.102 -1.80654 1.00238 0
M  V30 4039 C 381.51 -1.83713 -0.452362 0
M  V30 4040 O 380.853 -1.27135 -1.32599 0
M  V30 4041 C 380.915 -3.27582 1.48088 0
M  V30 4042 C 380.579 -3.48184 2.96002 0
M  V30 4043 C 381.576 -3.39372 3.93856 0
M  V30 4044 C 379.261 -3.7478 3.34433 0
M  V30 4045 C 381.255 -3.5686 5.28138 0
M  V30 4046 C 378.942 -3.91915 4.68877 0
M  V30 4047 C 379.94 -3.82956 5.65539 0
M  V30 4048 O 379.628 -3.996 6.97549 0
M  V30 4049 H 379.36 -0.575751 0.354241 0
M  V30 4050 H 381.914 -1.32044 1.57333 0
M  V30 4051 H 380.144 -3.77161 0.853588 0
M  V30 4052 H 381.833 -3.8573 1.2636 0
M  V30 4053 H 382.599 -3.18789 3.65511 0
M  V30 4054 H 378.478 -3.80852 2.59756 0
M  V30 4055 H 382.022 -3.49783 6.03571 0
M  V30 4056 H 377.919 -4.11992 4.96923 0
M  V30 4057 H 378.687 -4.1676 7.04452 0
M  V30 4058 N 381.35 -0.985608 -1.22978 0
M  V30 4059 C 382.28 -0.549649 -2.26939 0
M  V30 4060 C 383.261 0.419803 -1.64838 0
M  V30 4061 O 384.446 0.31203 -1.91677 0
M  V30 4062 C 381.576 0.143652 -3.47003 0
M  V30 4063 C 380.53 -0.743606 -4.21491 0
M  V30 4064 C 379.856 0.0822027 -5.34637 0
M  V30 4065 C 381.156 -2.03694 -4.80943 0
M  V30 4066 H 382.85 -1.41862 -2.63658 0
M  V30 4067 H 380.396 -0.683571 -1.26741 0
M  V30 4068 H 382.349 0.459985 -4.18882 0
M  V30 4069 H 381.073 1.04711 -3.09359 0
M  V30 4070 H 379.732 -1.04347 -3.51436 0
M  V30 4071 H 379.38 0.986359 -4.93234 0
M  V30 4072 H 379.08 -0.508377 -5.85397 0
M  V30 4073 H 380.604 0.392797 -6.09335 0
M  V30 4074 H 382.018 -1.78504 -5.44802 0
M  V30 4075 H 380.415 -2.57573 -5.42011 0
M  V30 4076 H 381.485 -2.72042 -4.01399 0
M  V30 4077 N 382.828 1.3818 -0.7579 0
M  V30 4078 C 383.776 2.32277 -0.122482 0
M  V30 4079 C 384.77 1.54238 0.700505 0
M  V30 4080 O 385.976 1.69737 0.599119 0
M  V30 4081 H 382.351 0.751712 -0.0208143 0
M  V30 4082 H 384.322 2.83469 -0.932099 0
M  V30 4083 C 383.071 3.39447 0.753076 0
M  V30 4084 H 382.394 3.99591 0.129184 0
M  V30 4085 H 383.834 4.07684 1.16489 0
M  V30 4086 C 382.293 2.78375 1.8976 0
M  V30 4087 O 382.823 2.68025 2.99208 0
M  V30 4088 N 381.029 2.36121 1.69397 0
M  V30 4089 H 380.576 2.4474 0.803762 0
M  V30 4090 H 380.534 1.95602 2.46145 0
M  V30 4091 N 384.306 0.507319 1.49211 0
M  V30 4092 C 385.256 -0.287112 2.26185 0
M  V30 4093 C 386.24 -0.929983 1.31302 0
M  V30 4094 O 387.432 -0.836538 1.55984 0
M  V30 4095 C 384.561 -1.34718 3.15763 0
M  V30 4096 C 383.647 -0.710235 4.18111 0
M  V30 4097 N 384.038 0.190836 5.0544 0
M  V30 4098 C 382.336 -0.97009 4.35322 0
M  V30 4099 C 383.037 0.55606 5.79036 0
M  V30 4100 N 382.013 -0.0775232 5.43545 0
M  V30 4101 H 385.815 0.406445 2.91076 0
M  V30 4102 H 383.329 0.323814 1.59139 0
M  V30 4103 H 385.326 -1.92982 3.69545 0
M  V30 4104 H 383.986 -2.04235 2.52424 0
M  V30 4105 H 384.997 0.562047 5.14841 0
M  V30 4106 H 381.674 -1.65753 3.83187 0
M  V30 4107 H 383.064 1.2936 6.5933 0
M  V30 4108 N 385.784 -1.5574 0.241426 0
M  V30 4109 C 387.033 -1.97986 -0.385295 0
M  V30 4110 C 387.346 -1.13267 -1.59468 0
M  V30 4111 O 388.552 -1.45501 -2.2922 0
M  V30 4112 C 387.008 -3.52275 -0.736884 0
M  V30 4113 C 386.616 -4.45726 0.450796 0
M  V30 4114 C 388.36 -4.03189 -1.3281 0
M  V30 4115 C 386.267 -5.91352 0.0756662 0
M  V30 4116 H 385.197 -0.739386 -0.147731 0
M  V30 4117 H 387.848 -1.80308 0.340779 0
M  V30 4118 H 386.23 -3.65628 -1.52094 0
M  V30 4119 H 387.404 -4.44131 1.22819 0
M  V30 4120 H 385.719 -4.05264 0.956573 0
M  V30 4121 H 388.316 -5.09505 -1.62201 0
M  V30 4122 H 388.659 -3.50212 -2.25071 0
M  V30 4123 H 389.192 -3.93141 -0.607069 0
M  V30 4124 H 385.931 -6.48354 0.965272 0
M  V30 4125 H 385.451 -5.96095 -0.665635 0
M  V30 4126 H 387.13 -6.46084 -0.344075 0
M  V30 4127 N 387.262 0.0317525 -1.57568 0
M  V30 4128 C 388.172 1.05021 -2.0978 0
M  V30 4129 C 389.188 1.39809 -1.03583 0
M  V30 4130 O 390.364 1.49182 -1.35302 0
M  V30 4131 C 387.429 2.33301 -2.56459 0
M  V30 4132 C 386.49 2.0512 -3.77127 0
M  V30 4133 C 385.723 3.27283 -4.2157 0
M  V30 4134 O 385.946 4.37861 -3.65559 0
M  V30 4135 O 384.88 3.13141 -5.14029 0
M  V30 4136 H 388.706 0.636505 -2.96955 0
M  V30 4137 H 386.291 0.248559 -1.47318 0
M  V30 4138 H 388.173 3.08722 -2.86825 0
M  V30 4139 H 386.848 2.73973 -1.72397 0
M  V30 4140 H 385.755 1.27276 -3.51784 0
M  V30 4141 H 387.088 1.69305 -4.62165 0
M  V30 4142 N 388.74 1.54641 0.303973 0
M  V30 4143 C 390.151 1.64811 0.877163 0
M  V30 4144 C 390.502 0.554838 1.88191 0
M  V30 4145 O 389.627 -0.309033 2.14182 0
M  V30 4146 C 390.222 2.9876 1.59775 0
M  V30 4147 C 388.781 3.11061 2.11938 0
M  V30 4148 C 387.928 2.60479 0.951097 0
M  V30 4149 H 390.879 1.58493 0.0810486 0
M  V30 4150 H 390.9 2.90017 2.46314 0
M  V30 4151 H 390.412 3.7831 0.866226 0
M  V30 4152 H 388.513 2.36225 2.88146 0
M  V30 4153 H 388.626 4.17171 2.35595 0
M  V30 4154 H 386.99 2.16859 1.33583 0
M  V30 4155 H 387.773 3.42504 0.233581 0
M  V30 4156 N 390.218 -0.567019 1.47046 0
M  V30 4157 C 391.148 -1.68482 1.61667 0
M  V30 4158 C 392.129 -1.6358 0.466418 0
M  V30 4159 O 393.314 -1.81354 0.694574 0
M  V30 4160 C 390.444 -3.07124 1.62148 0
M  V30 4161 C 389.398 -3.26867 2.76301 0
M  V30 4162 C 388.724 -4.66196 2.61849 0
M  V30 4163 C 390.024 -3.13186 4.17986 0
M  V30 4164 H 391.718 -1.56502 2.5524 0
M  V30 4165 H 389.264 -0.751486 1.22836 0
M  V30 4166 H 391.217 -3.8516 1.70968 0
M  V30 4167 H 389.941 -3.2004 0.651287 0
M  V30 4168 H 388.6 -2.51237 2.66975 0
M  V30 4169 H 388.248 -4.75898 1.62879 0
M  V30 4170 H 387.948 -4.80356 3.38425 0
M  V30 4171 H 389.472 -5.46379 2.72584 0
M  V30 4172 H 390.886 -3.81049 4.2834 0
M  V30 4173 H 389.283 -3.3886 4.95272 0
M  V30 4174 H 390.353 -2.10057 4.3704 0
M  V30 4175 N 391.696 -1.35014 -0.812953 0
M  V30 4176 C 392.643 -1.27412 -1.92444 0
M  V30 4177 C 393.613 -0.14733 -1.65445 0
M  V30 4178 O 394.798 -0.329974 -1.87925 0
M  V30 4179 C 391.938 -1.04558 -3.28879 0
M  V30 4180 C 391.051 -2.26101 -3.68106 0
M  V30 4181 C 390.186 -1.96449 -4.9354 0
M  V30 4182 C 389.225 -3.14081 -5.25376 0
M  V30 4183 N 388.362 -2.84246 -6.41988 0
M  V30 4184 H 393.202 -2.22463 -1.98278 0
M  V30 4185 H 390.739 -1.10593 -0.969933 0
M  V30 4186 H 392.697 -0.893413 -4.07522 0
M  V30 4187 H 391.327 -0.131719 -3.22531 0
M  V30 4188 H 390.379 -2.52204 -2.84775 0
M  V30 4189 H 391.691 -3.13959 -3.87597 0
M  V30 4190 H 390.845 -1.78026 -5.79993 0
M  V30 4191 H 389.584 -1.05867 -4.76071 0
M  V30 4192 H 388.589 -3.33089 -4.37415 0
M  V30 4193 H 389.814 -4.05455 -5.44778 0
M  V30 4194 H 387.76 -1.96252 -6.25956 0
M  V30 4195 H 387.677 -3.65637 -6.61699 0
M  V30 4196 H 388.945 -2.6935 -7.31485 0
M  V30 4197 N 393.175 1.03435 -1.18907 0
M  V30 4198 C 394.424 1.76143 -0.982669 0
M  V30 4199 C 394.737 1.89416 0.487953 0
M  V30 4200 O 395.943 2.59041 0.813036 0
M  V30 4201 C 394.399 3.16722 -1.70924 0
M  V30 4202 C 394.007 3.11522 -3.21959 0
M  V30 4203 C 395.751 3.93764 -1.58588 0
M  V30 4204 C 393.658 4.46999 -3.87228 0
M  V30 4205 H 392.588 0.660292 -0.364047 0
M  V30 4206 H 395.239 1.158 -1.42347 0
M  V30 4207 H 393.621 3.775 -1.19623 0
M  V30 4208 H 394.795 2.60158 -3.80335 0
M  V30 4209 H 393.11 2.47978 -3.34508 0
M  V30 4210 H 395.707 4.93963 -2.04707 0
M  V30 4211 H 396.05 4.12794 -0.539142 0
M  V30 4212 H 396.583 3.39576 -2.07203 0
M  V30 4213 H 393.322 4.33174 -4.91976 0
M  V30 4214 H 392.842 4.98441 -3.33642 0
M  V30 4215 H 394.521 5.15898 -3.90459 0
M  V30 4216 N 394.653 0.992116 1.22453 0
M  V30 4217 C 395.585 0.500024 2.23679 0
M  V30 4218 C 396.598 -0.404463 1.57696 0
M  V30 4219 O 397.787 -0.206722 1.77299 0
M  V30 4220 C 394.887 -0.294711 3.37616 0
M  V30 4221 C 394.06 0.605723 4.33186 0
M  V30 4222 C 393.119 -0.13717 5.26021 0
M  V30 4223 O 392.145 0.477164 5.67196 0
M  V30 4224 N 393.347 -1.4197 5.62872 0
M  V30 4225 H 396.112 1.37045 2.66531 0
M  V30 4226 H 393.673 0.866741 1.36745 0
M  V30 4227 H 395.665 -0.800329 3.96707 0
M  V30 4228 H 394.235 -1.06623 2.93854 0
M  V30 4229 H 393.455 1.29202 3.72425 0
M  V30 4230 H 394.743 1.21896 4.93983 0
M  V30 4231 H 394.141 -1.94015 5.31389 0
M  V30 4232 H 392.698 -1.87052 6.24383 0
M  V30 4233 N 396.131 -1.37776 0.765217 0
M  V30 4234 C 397.061 -2.32945 0.160953 0
M  V30 4235 C 398.042 -1.55454 -0.690516 0
M  V30 4236 O 399.227 -1.83721 -0.629318 0
M  V30 4237 C 396.357 -3.39669 -0.724031 0
M  V30 4238 C 395.311 -4.27992 0.0256173 0
M  V30 4239 C 394.637 -5.25673 -0.978383 0
M  V30 4240 C 395.937 -5.08309 1.20082 0
M  V30 4241 H 397.631 -2.83728 0.955969 0
M  V30 4242 H 395.177 -1.36416 0.461149 0
M  V30 4243 H 397.13 -4.05219 -1.15652 0
M  V30 4244 H 395.854 -2.87396 -1.5515 0
M  V30 4245 H 394.513 -3.63964 0.438812 0
M  V30 4246 H 394.161 -4.69682 -1.80022 0
M  V30 4247 H 393.861 -5.85625 -0.481378 0
M  V30 4248 H 395.385 -5.94098 -1.40995 0
M  V30 4249 H 396.799 -5.67034 0.845307 0
M  V30 4250 H 395.196 -5.77554 1.62947 0
M  V30 4251 H 396.266 -4.41365 2.00811 0
M  V30 4252 N 397.609 -0.515225 -1.4894 0
M  V30 4253 C 398.541 0.292481 -2.27326 0
M  V30 4254 C 399.554 0.917838 -1.3446 0
M  V30 4255 O 400.743 0.798772 -1.5963 0
M  V30 4256 C 397.843 1.42803 -3.07344 0
M  V30 4257 C 397.016 0.907347 -4.27885 0
M  V30 4258 C 396.075 1.92222 -4.89834 0
M  V30 4259 O 395.101 1.48506 -5.49486 0
M  V30 4260 N 396.303 3.25355 -4.80754 0
M  V30 4261 H 399.068 -0.379721 -2.97285 0
M  V30 4262 H 396.629 -0.348638 -1.58102 0
M  V30 4263 H 398.621 2.10481 -3.45658 0
M  V30 4264 H 397.191 2.00414 -2.39902 0
M  V30 4265 H 396.411 0.0550218 -3.94162 0
M  V30 4266 H 397.699 0.538108 -5.05946 0
M  V30 4267 H 397.097 3.6355 -4.33414 0
M  V30 4268 H 395.654 3.88707 -5.23211 0
M  V30 4269 N 399.087 1.5561 -0.249682 0
M  V30 4270 C 400.503 1.59254 0.105103 0
M  V30 4271 C 400.703 1.26685 1.56694 0
M  V30 4272 O 399.759 1.0155 2.31179 0
M  V30 4273 C 401.072 2.99687 -0.246592 0
M  V30 4274 C 402.62 3.12416 -0.191118 0
M  V30 4275 C 403.095 4.55074 -0.516885 0
M  V30 4276 N 404.586 4.60835 -0.467489 0
M  V30 4277 C 405.321 5.69201 -0.69268 0
M  V30 4278 N 404.817 6.85817 -0.981146 0
M  V30 4279 N 406.61 5.58635 -0.623198 0
M  V30 4280 H 398.761 1.75049 -1.20298 0
M  V30 4281 H 401.024 0.815003 -0.484225 0
M  V30 4282 H 400.73 3.28267 -1.26228 0
M  V30 4283 H 400.604 3.74798 0.424962 0
M  V30 4284 H 402.991 2.83615 0.815247 0
M  V30 4285 H 403.072 2.39573 -0.896563 0
M  V30 4286 H 402.716 4.84596 -1.52082 0
M  V30 4287 H 402.646 5.26181 0.210068 0
M  V30 4288 H 405.137 3.7705 -0.253373 0
M  V30 4289 H 405.45 7.64341 -1.14032 0
M  V30 4290 H 403.795 6.87494 -1.01865 0
M  V30 4291 H 406.986 4.66406 -0.397863 0
M  V30 4292 H 407.159 6.43017 -0.802093 0
M  V30 4293 N 400.565 -0.0233959 1.57583 0
M  V30 4294 C 401.475 -1.03907 2.10334 0
M  V30 4295 C 402.491 -1.39257 1.04323 0
M  V30 4296 O 403.667 -1.48462 1.36091 0
M  V30 4297 C 400.732 -2.31938 2.57693 0
M  V30 4298 C 399.793 -2.03117 3.78209 0
M  V30 4299 C 399.026 -3.25043 4.233 0
M  V30 4300 O 399.249 -4.35916 3.67876 0
M  V30 4301 O 398.183 -3.10411 5.15683 0
M  V30 4302 H 402.009 -0.620748 2.97288 0
M  V30 4303 H 399.594 -0.240743 1.47448 0
M  V30 4304 H 401.476 -3.07196 2.88458 0
M  V30 4305 H 400.151 -2.73055 1.73847 0
M  V30 4306 H 399.058 -1.25408 3.52454 0
M  V30 4307 H 400.391 -1.66852 4.63056 0
M  V30 4308 N 402.043 -1.548 -0.295768 0
M  V30 4309 C 403.454 -1.65274 -0.868411 0
M  V30 4310 C 403.805 -0.56481 -1.87894 0
M  V30 4311 O 402.93 0.29767 -2.14343 0
M  V30 4312 C 403.525 -2.99603 -1.58188 0
M  V30 4313 C 402.084 -3.12181 -2.10286 0
M  V30 4314 C 401.231 -2.6098 -0.93727 0
M  V30 4315 H 404.182 -1.58534 -0.0726422 0
M  V30 4316 H 404.203 -2.91319 -2.44772 0
M  V30 4317 H 403.715 -3.78764 -0.846151 0
M  V30 4318 H 401.816 -2.3775 -2.8689 0
M  V30 4319 H 401.929 -4.18415 -2.33379 0
M  V30 4320 H 400.293 -2.17564 -1.32431 0
M  V30 4321 H 401.076 -3.42623 -0.215414 0
M  V30 4322 N 403.521 0.559213 -1.47345 0
M  V30 4323 C 404.937 0.884943 -1.32819 0
M  V30 4324 C 405.137 1.98988 -0.317173 0
M  V30 4325 O 404.193 2.51031 0.272011 0
M  V30 4326 C 405.506 1.28007 -2.72093 0
M  V30 4327 C 407.054 1.39161 -2.80363 0
M  V30 4328 C 407.529 1.82031 -4.20272 0
M  V30 4329 N 409.02 1.89185 -4.22804 0
M  V30 4330 C 409.755 2.2368 -5.27973 0
M  V30 4331 N 409.251 2.56802 -6.43447 0
M  V30 4332 N 411.044 2.24436 -5.15349 0
M  V30 4333 H 403.195 -0.170304 -2.11716 0
M  V30 4334 H 405.458 -0.0135247 -0.947904 0
M  V30 4335 H 405.164 0.542027 -3.47498 0
M  V30 4336 H 405.038 2.23665 -3.03733 0
M  V30 4337 H 407.425 2.12048 -2.05231 0
M  V30 4338 H 407.506 0.41696 -2.52379 0
M  V30 4339 H 407.15 1.09715 -4.95908 0
M  V30 4340 H 407.08 2.80495 -4.45679 0
M  V30 4341 H 409.571 1.65982 -3.39497 0
M  V30 4342 H 409.884 2.82144 -7.19454 0
M  V30 4343 H 408.229 2.54387 -6.46771 0
M  V30 4344 H 411.42 1.97998 -4.24163 0
M  V30 4345 H 411.593 2.50989 -5.97418 0
M  V30 4346 N 404.999 1.35443 0.805782 0
M  V30 4347 C 406.41 1.25768 1.37983 0
M  V30 4348 C 406.761 -0.10958 1.95894 0
M  V30 4349 O 405.886 -1.01056 1.91355 0
M  V30 4350 C 406.481 2.27727 2.5085 0
M  V30 4351 C 405.04 2.2179 3.04115 0
M  V30 4352 C 404.187 2.13393 1.77084 0
M  V30 4353 H 407.138 1.4656 0.608752 0
M  V30 4354 H 407.159 1.90422 3.29424 0
M  V30 4355 H 406.671 3.27227 2.08671 0
M  V30 4356 H 404.772 1.25703 3.50756 0
M  V30 4357 H 404.885 3.13788 3.62042 0
M  V30 4358 H 403.249 1.59384 1.98668 0
M  V30 4359 H 404.032 3.14755 1.37056 0
M  V30 4360 N 406.477 -1.02803 1.19454 0
M  V30 4361 C 407.724 -1.76217 0.997693 0
M  V30 4362 C 408.052 -1.887 -0.47144 0
M  V30 4363 O 407.307 -1.4011 -1.3663 0
M  V30 4364 C 407.606 -3.18941 1.6128 0
M  V30 4365 C 407.272 -3.26463 3.11019 0
M  V30 4366 C 405.934 -3.28223 3.51885 0
M  V30 4367 C 408.286 -3.25542 4.07028 0
M  V30 4368 C 405.614 -3.26719 4.8731 0
M  V30 4369 C 407.966 -3.25579 5.42385 0
M  V30 4370 C 406.63 -3.25637 5.82681 0
M  V30 4371 H 405.9 -0.644823 0.365082 0
M  V30 4372 H 408.547 -1.20655 1.4871 0
M  V30 4373 H 406.852 -3.77587 1.04572 0
M  V30 4374 H 408.549 -3.74415 1.43577 0
M  V30 4375 H 405.139 -3.25822 2.78457 0
M  V30 4376 H 409.323 -3.23362 3.76498 0
M  V30 4377 H 404.579 -3.25089 5.1781 0
M  V30 4378 H 408.753 -3.23817 6.16535 0
M  V30 4379 H 406.38 -3.24226 6.87591 0
M  V30 4380 N 407.956 -0.998596 -1.21925 0
M  V30 4381 C 409.367 -0.711939 -1.72593 0
M  V30 4382 C 409.718 0.770842 -1.80423 0
M  V30 4383 O 408.843 1.60237 -1.4544 0
M  V30 4384 C 409.438 -1.28567 -3.13458 0
M  V30 4385 C 407.997 -1.04828 -3.61508 0
M  V30 4386 C 407.144 -1.4024 -2.39224 0
M  V30 4387 H 410.095 -1.17027 -1.07193 0
M  V30 4388 H 410.116 -0.667098 -3.74607 0
M  V30 4389 H 409.628 -2.36486 -3.07727 0
M  V30 4390 H 407.729 0.0140383 -3.72597 0
M  V30 4391 H 407.842 -1.71566 -4.47328 0
M  V30 4392 H 406.206 -0.821077 -2.41103 0
M  V30 4393 H 406.989 -2.49176 -2.36149 0
M  V30 4394 N 409.434 1.37368 -0.772513 0
M  V30 4395 C 410.381 2.30262 -0.157488 0
M  V30 4396 C 411.351 1.51137 0.688965 0
M  V30 4397 O 412.536 1.79704 0.641168 0
M  V30 4398 C 409.676 3.37611 0.715045 0
M  V30 4399 C 408.789 4.31746 -0.148098 0
M  V30 4400 C 407.924 5.26171 0.729213 0
M  V30 4401 C 406.963 6.11948 -0.136418 0
M  V30 4402 N 406.1 6.98613 0.698914 0
M  V30 4403 H 410.94 2.82277 -0.955179 0
M  V30 4404 H 408.477 1.38957 -0.482631 0
M  V30 4405 H 410.435 3.98479 1.23575 0
M  V30 4406 H 409.065 2.86959 1.47833 0
M  V30 4407 H 408.117 3.72178 -0.786613 0
M  V30 4408 H 409.429 4.92084 -0.81579 0
M  V30 4409 H 408.583 5.92247 1.31637 0
M  V30 4410 H 407.322 4.66246 1.43059 0
M  V30 4411 H 406.327 5.4485 -0.736102 0
M  V30 4412 H 407.552 6.73945 -0.835134 0
M  V30 4413 H 405.498 6.41215 1.38489 0
M  V30 4414 H 405.415 7.55948 0.0885358 0
M  V30 4415 H 406.683 7.69077 1.27044 0
M  V30 4416 N 410.912 0.523116 1.48665 0
M  V30 4417 C 411.842 -0.23231 2.32342 0
M  V30 4418 C 412.823 -0.941637 1.41659 0
M  V30 4419 O 414.008 -0.928751 1.70552 0
M  V30 4420 C 411.138 -1.28387 3.22698 0
M  V30 4421 C 410.092 -0.693098 4.22351 0
M  V30 4422 C 409.418 -1.8468 5.01794 0
M  V30 4423 C 410.718 0.33063 5.21252 0
M  V30 4424 H 412.412 0.466192 2.95748 0
M  V30 4425 H 409.958 0.225643 1.42221 0
M  V30 4426 H 411.911 -1.82024 3.80059 0
M  V30 4427 H 410.635 -2.01186 2.57278 0
M  V30 4428 H 409.294 -0.178299 3.66166 0
M  V30 4429 H 408.942 -2.56301 4.32804 0
M  V30 4430 H 408.642 -1.45747 5.69238 0
M  V30 4431 H 410.166 -2.38709 5.62006 0
M  V30 4432 H 411.58 -0.118407 5.73178 0
M  V30 4433 H 409.977 0.636974 5.9671 0
M  V30 4434 H 411.047 1.23883 4.68808 0
M  V30 4435 N 412.39 -1.55475 0.257931 0
M  V30 4436 C 413.806 -1.59307 -0.0966563 0
M  V30 4437 C 414.006 -1.27514 -1.5602 0
M  V30 4438 O 413.062 -1.02774 -2.30637 0
M  V30 4439 C 414.375 -2.99552 0.262481 0
M  V30 4440 C 415.923 -3.1231 0.207683 0
M  V30 4441 C 416.398 -4.54793 0.541012 0
M  V30 4442 N 417.889 -4.6058 0.491921 0
M  V30 4443 C 418.624 -5.68825 0.722857 0
M  V30 4444 N 418.12 -6.85287 1.0175 0
M  V30 4445 N 419.913 -5.58296 0.652815 0
M  V30 4446 H 412.064 -1.74409 1.21224 0
M  V30 4447 H 414.327 -0.812424 0.48854 0
M  V30 4448 H 414.033 -3.27593 1.27967 0
M  V30 4449 H 413.907 -3.75019 -0.40508 0
M  V30 4450 H 416.294 -2.84044 -0.800195 0
M  V30 4451 H 416.375 -2.39095 0.909255 0
M  V30 4452 H 416.019 -4.83783 1.5465 0
M  V30 4453 H 415.949 -5.26285 -0.18216 0
M  V30 4454 H 418.44 -3.7691 0.273366 0
M  V30 4455 H 418.753 -7.63725 1.18084 0
M  V30 4456 H 417.098 -6.86945 1.05509 0
M  V30 4457 H 420.289 -4.66189 0.422592 0
M  V30 4458 H 420.462 -6.42582 0.836182 0
M  V30 4459 N 413.868 0.0150385 -1.57593 0
M  V30 4460 C 415.117 0.702115 -1.89085 0
M  V30 4461 C 415.43 1.75764 -0.858277 0
M  V30 4462 O 416.636 2.49829 -1.0629 0
M  V30 4463 C 415.092 1.29992 -3.35604 0
M  V30 4464 C 414.7 0.280007 -4.47124 0
M  V30 4465 C 416.444 1.96606 -3.76227 0
M  V30 4466 C 414.351 0.886949 -5.84711 0
M  V30 4467 H 413.281 0.265997 -0.705522 0
M  V30 4468 H 415.932 -0.0430408 -1.8345 0
M  V30 4469 H 414.314 2.09525 -3.36029 0
M  V30 4470 H 415.488 -0.489631 -4.58191 0
M  V30 4471 H 413.803 -0.284835 -4.15425 0
M  V30 4472 H 416.4 2.42893 -4.76347 0
M  V30 4473 H 416.743 2.79024 -3.08952 0
M  V30 4474 H 417.276 1.23828 -3.78036 0
M  V30 4475 H 414.015 0.101876 -6.55421 0
M  V30 4476 H 413.535 1.6261 -5.77337 0
M  V30 4477 H 415.214 1.39011 -6.3189 0
M  V30 4478 N 415.346 1.54954 0.287554 0
M  V30 4479 C 416.276 1.89839 1.35954 0
M  V30 4480 C 417.257 0.758675 1.52244 0
M  V30 4481 O 418.442 1.01557 1.65529 0
M  V30 4482 C 415.572 2.15753 2.72154 0
M  V30 4483 C 414.526 3.3159 2.70614 0
M  V30 4484 C 413.852 3.42952 4.10229 0
M  V30 4485 C 415.152 4.68359 2.31165 0
M  V30 4486 H 416.846 2.79625 1.07007 0
M  V30 4487 H 414.392 1.3454 0.513316 0
M  V30 4488 H 416.345 2.38743 3.47246 0
M  V30 4489 H 415.069 1.22752 3.02654 0
M  V30 4490 H 413.728 3.08545 1.97979 0
M  V30 4491 H 413.376 2.47443 4.37928 0
M  V30 4492 H 413.076 4.20826 4.10097 0
M  V30 4493 H 414.6 3.68218 4.87081 0
M  V30 4494 H 416.014 4.9099 2.95976 0
M  V30 4495 H 414.411 5.49044 2.42221 0
M  V30 4496 H 415.481 4.68165 1.26291 0
M  V30 4497 N 416.824 -0.551391 1.4764 0
M  V30 4498 C 418.24 -0.877887 1.33287 0
M  V30 4499 C 418.44 -1.98817 0.327721 0
M  V30 4500 O 417.496 -2.51171 -0.258695 0
M  V30 4501 C 418.809 -1.26563 2.72768 0
M  V30 4502 C 420.357 -1.37673 2.81097 0
M  V30 4503 C 420.832 -1.79799 4.21232 0
M  V30 4504 N 422.323 -1.8694 4.23802 0
M  V30 4505 C 423.058 -2.20876 5.29151 0
M  V30 4506 N 422.554 -2.53386 6.448 0
M  V30 4507 N 424.347 -2.217 5.16532 0
M  V30 4508 H 416.498 0.18153 2.11623 0
M  V30 4509 H 418.761 0.0185514 0.947818 0
M  V30 4510 H 418.467 -0.523591 3.47781 0
M  V30 4511 H 418.341 -2.22052 3.04915 0
M  V30 4512 H 420.728 -2.10956 2.06353 0
M  V30 4513 H 420.809 -0.40357 2.52596 0
M  V30 4514 H 420.453 -1.07083 4.96483 0
M  V30 4515 H 420.383 -2.78128 4.4716 0
M  V30 4516 H 422.874 -1.64179 3.40373 0
M  V30 4517 H 423.187 -2.78325 7.20941 0
M  V30 4518 H 421.532 -2.50953 6.48111 0
M  V30 4519 H 424.723 -1.95745 4.25207 0
M  V30 4520 H 424.896 -2.47818 5.98741 0
M  V30 4521 N 418.302 -1.35869 -0.798587 0
M  V30 4522 C 419.249 -1.29446 -1.91082 0
M  V30 4523 C 420.219 -0.16487 -1.6528 0
M  V30 4524 O 421.404 -0.349888 -1.87564 0
M  V30 4525 C 418.544 -1.0804 -3.27752 0
M  V30 4526 C 417.657 -2.29993 -3.65687 0
M  V30 4527 C 416.792 -2.01673 -4.91428 0
M  V30 4528 C 415.831 -3.19636 -5.22015 0
M  V30 4529 N 414.968 -2.91039 -6.38937 0
M  V30 4530 H 419.808 -2.24553 -1.95907 0
M  V30 4531 H 417.345 -1.11615 -0.958148 0
M  V30 4532 H 419.303 -0.936586 -4.06551 0
M  V30 4533 H 417.933 -0.16592 -3.22373 0
M  V30 4534 H 416.985 -2.55211 -2.82085 0
M  V30 4535 H 418.297 -3.18052 -3.84245 0
M  V30 4536 H 417.451 -1.84168 -5.78072 0
M  V30 4537 H 416.19 -1.10911 -4.74921 0
M  V30 4538 H 415.195 -3.37709 -4.33858 0
M  V30 4539 H 416.42 -4.11211 -5.40447 0
M  V30 4540 H 414.366 -2.0288 -6.2384 0
M  V30 4541 H 414.283 -3.72635 -6.57784 0
M  V30 4542 H 415.551 -2.77093 -7.28587 0
M  V30 4543 N 419.78 1.02168 -1.19998 0
M  V30 4544 C 421.026 1.75945 -1.00852 0
M  V30 4545 C 421.359 1.88702 0.458828 0
M  V30 4546 O 420.634 1.40911 1.34069 0
M  V30 4547 C 420.917 3.18154 -1.68671 0
M  V30 4548 C 420.77 3.13224 -3.22817 0
M  V30 4549 C 422.089 4.16711 -1.41561 0
M  V30 4550 H 419.208 0.638673 -0.367785 0
M  V30 4551 H 421.85 1.19222 -1.4794 0
M  V30 4552 H 420 3.66586 -1.28636 0
M  V30 4553 H 421.672 2.72635 -3.72112 0
M  V30 4554 H 419.915 2.50751 -3.53986 0
M  V30 4555 H 420.586 4.13728 -3.65422 0
M  V30 4556 H 423.062 3.76913 -1.76284 0
M  V30 4557 H 421.938 5.14391 -1.91553 0
M  V30 4558 H 422.199 4.40774 -0.342193 0
M  V30 4559 N 421.258 1.00505 1.21394 0
M  V30 4560 C 422.168 0.574806 2.27449 0
M  V30 4561 C 423.184 -0.382206 1.6975 0
M  V30 4562 O 424.36 -0.246027 1.99892 0
M  V30 4563 C 421.425 -0.0917414 3.46579 0
M  V30 4564 C 420.486 0.909758 4.1955 0
M  V30 4565 C 419.719 0.274924 5.32991 0
M  V30 4566 O 419.942 -0.928254 5.62796 0
M  V30 4567 O 418.876 0.985877 5.93771 0
M  V30 4568 H 422.702 1.45744 2.66444 0
M  V30 4569 H 420.287 0.773923 1.27792 0
M  V30 4570 H 422.169 -0.464551 4.18832 0
M  V30 4571 H 420.844 -0.948755 3.09484 0
M  V30 4572 H 419.751 1.33372 3.49518 0
M  V30 4573 H 421.084 1.73636 4.60555 0
M  V30 4574 N 422.737 -1.36956 0.779787 0
M  V30 4575 C 423.684 -2.30175 0.169697 0
M  V30 4576 C 424.654 -1.51501 -0.68094 0
M  V30 4577 O 425.839 -1.80042 -0.631629 0
M  V30 4578 C 422.979 -3.37985 -0.697131 0
M  V30 4579 C 422.092 -4.31661 0.170992 0
M  V30 4580 C 421.227 -5.2655 -0.701298 0
M  V30 4581 C 420.266 -6.11867 0.168869 0
M  V30 4582 N 419.403 -6.98973 -0.661855 0
M  V30 4583 H 424.243 -2.81767 0.970135 0
M  V30 4584 H 421.78 -1.38699 0.489994 0
M  V30 4585 H 423.738 -3.99128 -1.2146 0
M  V30 4586 H 422.368 -2.87739 -1.46309 0
M  V30 4587 H 421.42 -3.71756 0.80634 0
M  V30 4588 H 422.732 -4.91644 0.841875 0
M  V30 4589 H 421.886 -5.92937 -1.28494 0
M  V30 4590 H 420.625 -4.66998 -1.40584 0
M  V30 4591 H 419.63 -5.44452 0.764986 0
M  V30 4592 H 420.855 -6.73493 0.870863 0
M  V30 4593 H 418.801 -6.41941 -1.35086 0
M  V30 4594 H 418.718 -7.55984 -0.0484447 0
M  V30 4595 H 419.986 -7.6974 -1.22963 0
M  V30 4596 N 424.215 -0.530993 -1.48385 0
M  V30 4597 C 425.464 0.00474348 -2.01699 0
M  V30 4598 C 425.777 1.35227 -1.41325 0
M  V30 4599 O 426.983 1.97643 -1.86144 0
M  V30 4600 C 425.439 0.0588473 -3.59852 0
M  V30 4601 C 425.047 -1.28385 -4.2921 0
M  V30 4602 C 426.791 0.543358 -4.21008 0
M  V30 4603 C 424.698 -1.19028 -5.79298 0
M  V30 4604 H 423.628 0.00554317 -0.75398 0
M  V30 4605 H 426.279 -0.674924 -1.70637 0
M  V30 4606 H 424.661 0.803612 -3.8776 0
M  V30 4607 H 425.835 -2.04426 -4.12973 0
M  V30 4608 H 424.15 -1.70418 -3.7993 0
M  V30 4609 H 426.747 0.631351 -5.3096 0
M  V30 4610 H 427.09 1.54937 -3.86394 0
M  V30 4611 H 427.623 -0.145754 -3.97533 0
M  V30 4612 H 424.362 -2.17147 -6.18488 0
M  V30 4613 H 423.882 -0.471246 -5.97946 0
M  V30 4614 H 425.561 -0.881365 -6.40969 0
M  V30 4615 N 425.693 1.55336 -0.266172 0
M  V30 4616 C 426.97 1.91372 0.404486 0
M  V30 4617 C 427.35 1.18935 1.74407 0
M  V30 4618 O 426.698 0.3132 2.26343 0
M  V30 4619 C 426.908 3.44581 0.553593 0
M  V30 4620 C 428.256 4.16196 0.840618 0
M  V30 4621 O 429.28 3.50426 0.638739 0
M  V30 4622 O 428.139 5.32567 1.22618 0
M  V30 4623 H 425.233 0.797194 0.220025 0
M  V30 4624 H 427.779 1.66813 -0.311664 0
M  V30 4625 H 426.551 3.89357 -0.389498 0
M  V30 4626 H 426.174 3.75065 1.31955 0
M  V30 4627 N 427.171 -0.0066808 1.57599 0
M  V30 4628 C 428.448 -0.729586 1.81484 0
M  V30 4629 C 428.828 -1.92359 0.869558 0
M  V30 4630 O 428.176 -2.28348 -0.0832533 0
M  V30 4631 C 428.386 -1.1416 3.29801 0
M  V30 4632 C 429.734 -1.54823 3.95367 0
M  V30 4633 O 430.758 -1.23558 3.34084 0
M  V30 4634 O 429.617 -2.12937 5.03309 0
M  V30 4635 H 426.711 -0.354674 0.747085 0
M  V30 4636 H 429.257 0.0182609 1.6969 0
M  V30 4637 H 428.029 -0.290231 3.90222 0
M  V30 4638 H 427.652 -1.94876 3.46568 0
M  V30 4639 N 428.649 -1.55105 -0.279332 0
M  V30 4640 C 429.896 -1.75412 -1.01177 0
M  V30 4641 C 430.224 -0.551728 -1.86511 0
M  V30 4642 O 429.479 0.465919 -1.90073 0
M  V30 4643 C 429.778 -3.0086 -1.92919 0
M  V30 4644 C 429.444 -4.33689 -1.23387 0
M  V30 4645 C 428.106 -4.69792 -1.04159 0
M  V30 4646 C 430.458 -5.15941 -0.738562 0
M  V30 4647 C 427.786 -5.85707 -0.341166 0
M  V30 4648 C 430.138 -6.32579 -0.0517636 0
M  V30 4649 C 428.802 -6.67326 0.152292 0
M  V30 4650 H 428.072 -0.641879 -0.370233 0
M  V30 4651 H 430.719 -1.89373 -0.284627 0
M  V30 4652 H 429.024 -2.81773 -2.72234 0
M  V30 4653 H 430.721 -3.13768 -2.49701 0
M  V30 4654 H 427.311 -4.05309 -1.39364 0
M  V30 4655 H 431.495 -4.8853 -0.874764 0
M  V30 4656 H 426.751 -6.11157 -0.172287 0
M  V30 4657 H 430.925 -6.9557 0.339828 0
M  V30 4658 H 428.552 -7.56998 0.697014 0
M  V30 4659 N 430.127 0.543554 -1.4793 0
M  V30 4660 C 431.074 1.64942 -1.6144 0
M  V30 4661 C 432.044 1.59692 -0.456903 0
M  V30 4662 O 433.229 1.78321 -0.678688 0
M  V30 4663 C 430.369 3.03238 -1.64744 0
M  V30 4664 C 429.482 3.18823 -2.91506 0
M  V30 4665 C 428.617 4.47599 -2.86057 0
M  V30 4666 C 427.656 4.56664 -4.07584 0
M  V30 4667 N 426.793 5.76811 -4.00292 0
M  V30 4668 H 431.633 1.52733 -2.55884 0
M  V30 4669 H 429.17 0.7438 -1.2691 0
M  V30 4670 H 431.128 3.83339 -1.64641 0
M  V30 4671 H 429.758 3.1425 -0.738017 0
M  V30 4672 H 428.81 2.32064 -3.01414 0
M  V30 4673 H 430.122 3.21384 -3.81463 0
M  V30 4674 H 429.276 5.35975 -2.84281 0
M  V30 4675 H 428.015 4.47538 -1.93807 0
M  V30 4676 H 427.02 3.66697 -4.09651 0
M  V30 4677 H 428.245 4.58474 -5.00978 0
M  V30 4678 H 426.191 5.77673 -3.10853 0
M  V30 4679 H 426.108 5.80808 -4.8394 0
M  V30 4680 H 427.376 6.67512 -4.02553 0
M  V30 4681 N 431.605 1.3629 0.791371 0
M  V30 4682 C 432.568 1.30309 1.88553 0
M  V30 4683 C 433.568 0.211204 1.59407 0
M  V30 4684 O 434.758 0.465865 1.67855 0
M  V30 4685 C 431.89 1.01956 3.25297 0
M  V30 4686 H 433.083 2.27614 1.95273 0
M  V30 4687 H 430.636 1.21035 0.988953 0
M  V30 4688 H 431.371 0.050998 3.2426 0
M  V30 4689 H 431.156 1.80968 3.4784 0
M  V30 4690 H 432.646 1.0037 4.05359 0
M  V30 4691 N 433.083 -1.0153 1.20538 0
M  V30 4692 C 433.993 -2.13557 0.971113 0
M  V30 4693 C 435.009 -1.73845 -0.0734366 0
M  V30 4694 O 436.185 -2.01075 0.114299 0
M  V30 4695 C 433.25 -3.42661 0.527639 0
M  V30 4696 C 432.311 -3.96608 1.64319 0
M  V30 4697 C 431.544 -5.1955 1.22078 0
M  V30 4698 O 431.767 -5.70329 0.0900198 0
M  V30 4699 O 430.701 -5.66681 2.02871 0
M  V30 4700 H 434.527 -2.3619 1.90913 0
M  V30 4701 H 432.112 -1.11946 0.989362 0
M  V30 4702 H 433.994 -4.20404 0.289621 0
M  V30 4703 H 432.669 -3.21441 -0.381779 0
M  V30 4704 H 431.576 -3.20139 1.93551 0
M  V30 4705 H 432.909 -4.22219 2.52966 0
M  V30 4706 N 434.561 -1.01147 -1.20859 0
M  V30 4707 C 435.838 -0.613136 -1.85742 0
M  V30 4708 C 436.218 0.909004 -1.90526 0
M  V30 4709 O 435.566 1.79862 -1.40932 0
M  V30 4710 C 435.776 -1.255 -3.25654 0
M  V30 4711 C 437.124 -1.3672 -4.01986 0
M  V30 4712 O 438.148 -1.21082 -3.34989 0
M  V30 4713 O 437.007 -1.6194 -5.21956 0
M  V30 4714 H 434.101 -0.210878 -0.799662 0
M  V30 4715 H 436.647 -1.10853 -1.2849 0
M  V30 4716 H 435.419 -2.29532 -3.16908 0
M  V30 4717 H 435.042 -0.746369 -3.90532 0
M  V30 4718 N 436.039 1.36541 -0.78704 0
M  V30 4719 C 437.286 1.99304 -0.358341 0
M  V30 4720 C 437.614 1.62467 1.06933 0
M  V30 4721 O 436.869 0.870019 1.75297 0
M  V30 4722 C 437.168 3.54343 -0.466485 0
M  V30 4723 C 436.834 4.10993 -1.85461 0
M  V30 4724 C 435.496 4.26177 -2.23443 0
M  V30 4725 C 437.848 4.41895 -2.76366 0
M  V30 4726 C 435.176 4.69573 -3.51736 0
M  V30 4727 C 437.528 4.86722 -4.04084 0
M  V30 4728 C 436.192 5.00112 -4.42091 0
M  V30 4729 H 435.462 0.729306 -0.131126 0
M  V30 4730 H 438.109 1.63068 -1.00404 0
M  V30 4731 H 436.414 3.90918 0.262719 0
M  V30 4732 H 438.111 4.00833 -0.115854 0
M  V30 4733 H 434.701 3.99612 -1.54946 0
M  V30 4734 H 438.885 4.29735 -2.48277 0
M  V30 4735 H 434.141 4.78127 -3.81057 0
M  V30 4736 H 438.315 5.09598 -4.7464 0
M  V30 4737 H 435.942 5.33498 -5.41557 0
M  V30 4738 N 437.518 0.538854 1.48102 0
M  V30 4739 C 438.45 -0.256278 2.27763 0
M  V30 4740 C 439.463 -0.89633 1.35904 0
M  V30 4741 O 440.652 -0.773275 1.60881 0
M  V30 4742 C 437.752 -1.37896 3.09577 0
M  V30 4743 C 436.925 -0.839159 4.29275 0
M  V30 4744 C 435.984 -1.84405 4.9283 0
M  V30 4745 O 435.01 -1.39746 5.51779 0
M  V30 4746 N 436.212 -3.17666 4.85869 0
M  V30 4747 H 438.977 0.426968 2.96643 0
M  V30 4748 H 436.538 0.373747 1.57527 0
M  V30 4749 H 438.53 -2.04955 3.48963 0
M  V30 4750 H 437.1 -1.96572 2.4306 0
M  V30 4751 H 436.32 0.00769287 3.94199 0
M  V30 4752 H 437.608 -0.457548 5.06739 0
M  V30 4753 H 437.006 -3.56609 4.39143 0
M  V30 4754 H 435.563 -3.80334 5.29329 0
M  V30 4755 N 438.996 -1.55193 0.274407 0
M  V30 4756 C 440.245 -1.98758 -0.343213 0
M  V30 4757 C 440.558 -1.16624 -1.5703 0
M  V30 4758 O 441.764 -1.5033 -2.26082 0
M  V30 4759 C 440.22 -3.53759 -0.661996 0
M  V30 4760 C 439.828 -4.4467 0.54524 0
M  V30 4761 C 441.572 -4.05916 -1.24228 0
M  V30 4762 C 439.479 -5.91058 0.201084 0
M  V30 4763 H 438.409 -0.742353 -0.132014 0
M  V30 4764 H 441.06 -1.79545 0.378948 0
M  V30 4765 H 439.442 -3.68772 -1.44304 0
M  V30 4766 H 440.616 -4.41426 1.32212 0
M  V30 4767 H 438.931 -4.03143 1.04232 0
M  V30 4768 H 441.528 -5.12831 -1.51357 0
M  V30 4769 H 441.871 -3.54908 -2.17592 0
M  V30 4770 H 442.404 -3.9434 -0.523542 0
M  V30 4771 H 439.143 -6.46161 1.10258 0
M  V30 4772 H 438.663 -5.97373 -0.539045 0
M  V30 4773 H 440.342 -6.46669 -0.206954 0
M  V30 4774 N 440.474 -0.00167713 -1.576 0
M  V30 4775 C 441.384 1.00548 -2.1196 0
M  V30 4776 C 442.4 1.3758 -1.06526 0
M  V30 4777 O 443.576 1.46278 -1.38436 0
M  V30 4778 C 440.641 2.27809 -2.6135 0
M  V30 4779 C 439.702 1.97074 -3.81393 0
M  V30 4780 C 438.935 3.18267 -4.28417 0
M  V30 4781 O 439.158 4.30009 -3.74765 0
M  V30 4782 O 438.092 3.02167 -5.20556 0
M  V30 4783 H 441.918 0.573373 -2.98238 0
M  V30 4784 H 439.503 0.217255 -1.47812 0
M  V30 4785 H 441.385 3.02568 -2.93309 0
M  V30 4786 H 440.06 2.70254 -1.78169 0
M  V30 4787 H 438.967 1.19785 -3.54404 0
M  V30 4788 H 440.3 1.59464 -4.65652 0
M  V30 4789 N 441.952 1.55251 0.271103 0
M  V30 4790 C 443.2 1.75599 1.00047 0
M  V30 4791 C 443.521 0.561188 1.8675 0
M  V30 4792 O 442.791 -0.423846 1.9126 0
M  V30 4793 H 441.371 0.647562 0.372387 0
M  V30 4794 H 444.033 1.92656 0.294876 0
M  V30 4795 H 443.129 2.65766 1.6363 0
M  V30 4796 N 443.43 -0.535701 1.48216 0
M  V30 4797 C 444.66 -1.3148 1.59363 0
M  V30 4798 C 445.068 -1.8753 0.250844 0
M  V30 4799 O 444.411 -1.66821 -0.769174 0
M  V30 4800 C 444.473 -2.50731 2.57632 0
M  V30 4801 C 444.137 -2.15811 4.02833 0
M  V30 4802 C 445.134 -1.71822 4.90686 0
M  V30 4803 C 442.819 -2.26509 4.48329 0
M  V30 4804 C 444.813 -1.3899 6.22062 0
M  V30 4805 C 442.5 -1.93289 5.79726 0
M  V30 4806 C 443.498 -1.49599 6.66415 0
M  V30 4807 O 443.186 -1.16812 7.95368 0
M  V30 4808 H 442.918 -0.406315 0.540263 0
M  V30 4809 H 445.472 -0.653569 1.94725 0
M  V30 4810 H 443.702 -3.19817 2.1738 0
M  V30 4811 H 445.391 -3.12797 2.58675 0
M  V30 4812 H 446.157 -1.63031 4.56778 0
M  V30 4813 H 442.036 -2.59471 3.81045 0
M  V30 4814 H 445.58 -1.04816 6.89681 0
M  V30 4815 H 441.477 -2.01718 6.13172 0
M  V30 4816 H 442.245 -1.30259 8.08069 0
M  V30 4817 N 444.908 -1.36708 -0.784132 0
M  V30 4818 C 445.856 -1.31533 -1.91838 0
M  V30 4819 C 446.85 -0.206205 -1.6814 0
M  V30 4820 O 448.056 -0.373519 -1.76082 0
M  V30 4821 H 444.431 -0.409613 -0.630651 0
M  V30 4822 H 446.402 -2.2731 -1.9332 0
M  V30 4823 C 445.151 -1.12679 -3.28936 0
M  V30 4824 H 444.474 -1.97274 -3.4774 0
M  V30 4825 H 445.914 -1.13106 -4.08636 0
M  V30 4826 C 444.373 0.168281 -3.36479 0
M  V30 4827 O 444.903 1.15625 -3.84699 0
M  V30 4828 N 443.109 0.214762 -2.89805 0
M  V30 4829 H 442.656 -0.589852 -2.50756 0
M  V30 4830 H 442.614 1.08094 -2.95234 0
M  V30 4831 N 446.386 1.0089 -1.21074 0
M  V30 4832 C 447.797 1.56056 -1.02486 0
M  V30 4833 C 448.148 1.91728 0.416506 0
M  V30 4834 O 447.273 1.73066 1.29912 0
M  V30 4835 C 447.868 2.83563 -1.85411 0
M  V30 4836 C 446.427 3.3523 -1.71166 0
M  V30 4837 C 445.574 2.0846 -1.82865 0
M  V30 4838 H 448.525 0.831818 -1.35154 0
M  V30 4839 H 448.546 3.55286 -1.36205 0
M  V30 4840 H 448.058 2.57569 -2.9031 0
M  V30 4841 H 446.159 3.66167 -0.689361 0
M  V30 4842 H 446.272 4.06913 -2.52901 0
M  V30 4843 H 444.636 2.21275 -1.26132 0
M  V30 4844 H 445.419 1.84883 -2.89263 0
M  V30 4845 N 447.864 1.01787 1.20321 0
M  V30 4846 C 448.814 0.559976 2.21016 0
M  V30 4847 C 449.798 -0.385366 1.56217 0
M  V30 4848 O 450.99 -0.208126 1.75772 0
M  V30 4849 C 448.119 -0.0990553 3.43157 0
M  V30 4850 C 447.205 0.86807 4.15121 0
M  V30 4851 N 447.596 2.0261 4.63447 0
M  V30 4852 C 445.894 0.689162 4.40643 0
M  V30 4853 C 446.595 2.63518 5.18588 0
M  V30 4854 N 445.571 1.91569 5.08726 0
M  V30 4855 H 449.373 1.44281 2.56048 0
M  V30 4856 H 446.887 0.883381 1.36272 0
M  V30 4857 H 448.884 -0.444643 4.14522 0
M  V30 4858 H 447.544 -0.977709 3.0963 0
M  V30 4859 H 448.555 2.40598 4.58621 0
M  V30 4860 H 445.232 -0.14133 4.17261 0
M  V30 4861 H 446.622 3.61527 5.66346 0
M  V30 4862 N 449.342 -1.36122 0.79427 0
M  V30 4863 C 450.753 -1.81646 0.431446 0
M  V30 4864 C 451.104 -1.66043 -1.04518 0
M  V30 4865 O 450.229 -1.1841 -1.8113 0
M  V30 4866 C 450.824 -3.29785 0.776341 0
M  V30 4867 C 449.383 -3.73501 0.466282 0
M  V30 4868 C 448.53 -2.58313 1.00844 0
M  V30 4869 H 451.481 -1.24274 0.986995 0
M  V30 4870 H 451.502 -3.80437 0.0692413 0
M  V30 4871 H 451.014 -3.4111 1.8511 0
M  V30 4872 H 449.115 -3.67733 -0.600245 0
M  V30 4873 H 449.228 -4.68754 0.990288 0
M  V30 4874 H 447.592 -2.5102 0.431406 0
M  V30 4875 H 448.375 -2.72421 2.08906 0
M  V30 4876 N 450.82 -0.546701 -1.47814 0
M  V30 4877 C 452.048 -0.0232857 -2.06887 0
M  V30 4878 C 452.463 1.26571 -1.4009 0
M  V30 4879 O 451.82 1.7569 -0.493906 0
M  V30 4880 C 451.871 0.186975 -3.61016 0
M  V30 4881 O 451.592 -1.05097 -4.25307 0
M  V30 4882 C 453.093 0.748872 -4.36929 0
M  V30 4883 H 450.313 -0.0410763 -0.669742 0
M  V30 4884 H 452.857 -0.757117 -1.89968 0
M  V30 4885 H 451.012 0.870903 -3.77484 0
M  V30 4886 H 451.426 -0.842121 -5.17695 0
M  V30 4887 H 452.9 0.845334 -5.45489 0
M  V30 4888 H 453.377 1.75772 -4.02493 0
M  V30 4889 H 453.983 0.100979 -4.2518 0
M  V30 4890 N 452.299 1.55045 -0.282633 0
M  V30 4891 C 453.548 1.98938 0.332667 0
M  V30 4892 C 453.861 1.17455 1.56409 0
M  V30 4893 O 455.067 1.51527 2.25282 0
M  V30 4894 C 453.523 3.54105 0.643226 0
M  V30 4895 C 453.131 4.44374 -0.568814 0
M  V30 4896 C 454.875 4.06569 1.22074 0
M  V30 4897 C 452.782 5.90943 -0.232426 0
M  V30 4898 H 451.712 0.743043 0.128075 0
M  V30 4899 H 454.363 1.79341 -0.388464 0
M  V30 4900 H 452.745 3.69532 1.42346 0
M  V30 4901 H 453.919 4.40718 -1.34551 0
M  V30 4902 H 452.234 4.02585 -1.06369 0
M  V30 4903 H 454.831 5.13626 1.48635 0
M  V30 4904 H 455.174 3.56057 2.15707 0
M  V30 4905 H 455.707 3.94612 0.502621 0
M  V30 4906 H 452.446 6.45567 -1.13683 0
M  V30 4907 H 451.966 5.9765 0.507357 0
M  V30 4908 H 453.645 6.4677 0.172657 0
M  V30 4909 N 453.777 0.010035 1.57597 0
M  V30 4910 C 454.724 -0.978122 2.09049 0
M  V30 4911 C 455.694 -1.33509 0.988159 0
M  V30 4912 O 456.879 -1.43172 1.26121 0
M  V30 4913 C 454.019 -2.26158 2.60666 0
M  V30 4914 C 453.132 -1.96275 3.84838 0
M  V30 4915 C 452.267 -3.18776 4.24918 0
M  V30 4916 C 451.306 -2.84625 5.41899 0
M  V30 4917 N 450.443 -3.99693 5.77226 0
M  V30 4918 H 455.283 -0.532431 2.93205 0
M  V30 4919 H 452.82 -0.251234 1.44939 0
M  V30 4920 H 454.778 -3.01202 2.88675 0
M  V30 4921 H 453.408 -2.68378 1.79369 0
M  V30 4922 H 452.46 -1.11555 3.63675 0
M  V30 4923 H 453.772 -1.67111 4.69974 0
M  V30 4924 H 452.926 -4.02157 4.54262 0
M  V30 4925 H 451.665 -3.51087 3.38511 0
M  V30 4926 H 450.67 -1.99653 5.12268 0
M  V30 4927 H 451.895 -2.53551 6.29991 0
M  V30 4928 H 449.841 -4.31882 4.93776 0
M  V30 4929 H 449.758 -3.74087 6.56959 0
M  V30 4930 H 451.026 -4.83834 6.11167 0
M  V30 4931 N 455.255 -1.55392 -0.262866 0
M  V30 4932 C 456.188 -1.8391 -1.35101 0
M  V30 4933 C 457.166 -0.692901 -1.47097 0
M  V30 4934 O 458.35 -0.936979 -1.63563 0
M  V30 4935 C 455.477 -2.00969 -2.72634 0
M  V30 4936 C 454.523 -3.23559 -2.7787 0
M  V30 4937 S 455.356 -4.80647 -2.3609 0
M  V30 4938 C 456.512 -5.00692 -3.75578 0
M  V30 4939 H 456.745 -2.75918 -1.1071 0
M  V30 4940 H 454.278 -1.47294 -0.463029 0
M  V30 4941 H 456.236 -2.11482 -3.51832 0
M  V30 4942 H 454.897 -1.09832 -2.94272 0
M  V30 4943 H 454.09 -3.32413 -3.78837 0
M  V30 4944 H 453.692 -3.11689 -2.06702 0
M  V30 4945 H 455.984 -4.87055 -4.70939 0
M  V30 4946 H 456.927 -6.02717 -3.71669 0
M  V30 4947 H 457.335 -4.28619 -3.6735 0
M  V30 4948 N 456.733 0.527833 -1.48498 0
M  V30 4949 C 457.643 1.65907 -1.65867 0
M  V30 4950 C 458.659 1.6537 -0.541192 0
M  V30 4951 O 459.835 1.84282 -0.812534 0
M  V30 4952 C 456.9 3.02364 -1.69637 0
M  V30 4953 C 455.961 3.1374 -2.93028 0
M  V30 4954 C 455.194 4.43688 -2.96609 0
M  V30 4955 O 455.417 5.30913 -2.08538 0
M  V30 4956 O 454.351 4.59475 -3.88802 0
M  V30 4957 H 458.177 1.5419 -2.61647 0
M  V30 4958 H 455.762 0.701163 -1.31924 0
M  V30 4959 H 457.644 3.83515 -1.74625 0
M  V30 4960 H 456.319 3.14401 -0.770312 0
M  V30 4961 H 455.226 2.31877 -2.93571 0
M  V30 4962 H 456.559 3.06621 -3.85026 0
M  V30 4963 N 458.211 1.37122 0.776871 0
M  V30 4964 C 459.144 1.26835 1.89705 0
M  V30 4965 C 460.122 0.14992 1.61907 0
M  V30 4966 O 461.306 0.323242 1.85708 0
M  V30 4967 C 458.433 0.95986 3.24814 0
M  V30 4968 C 457.479 2.09447 3.7153 0
M  V30 4969 S 458.312 3.71368 3.85806 0
M  V30 4970 C 459.468 3.42659 5.23771 0
M  V30 4971 H 459.701 2.21647 1.98141 0
M  V30 4972 H 457.234 1.22685 0.937433 0
M  V30 4973 H 459.192 0.788696 4.02852 0
M  V30 4974 H 457.853 0.0293137 3.14086 0
M  V30 4975 H 457.046 1.8335 4.69467 0
M  V30 4976 H 456.648 2.2255 3.00578 0
M  V30 4977 H 458.94 2.9733 6.0877 0
M  V30 4978 H 459.883 4.39905 5.54878 0
M  V30 4979 H 460.291 2.77708 4.91466 0
M  V30 4980 N 459.689 -1.00246 1.21608 0
M  V30 4981 C 460.652 -2.07233 0.979133 0
M  V30 4982 C 461.652 -1.6072 -0.0508219 0
M  V30 4983 O 462.842 -1.73196 0.186712 0
M  V30 4984 C 459.974 -3.37546 0.477016 0
M  V30 4985 H 461.167 -2.29687 1.92831 0
M  V30 4986 H 458.72 -1.17261 1.03342 0
M  V30 4987 H 459.455 -3.20773 -0.476966 0
M  V30 4988 H 459.24 -3.72638 1.21997 0
M  V30 4989 H 460.73 -4.16285 0.331181 0
M  V30 4990 N 461.167 -1.02423 -1.1978 0
M  V30 4991 C 462.413 -0.719051 -1.89625 0
M  V30 4992 C 462.746 0.750083 -1.7913 0
M  V30 4993 O 462.021 1.54574 -1.18056 0
M  V30 4994 C 462.304 -1.16499 -3.40735 0
M  V30 4995 C 462.157 -2.695 -3.60125 0
M  V30 4996 C 463.476 -0.742166 -4.33797 0
M  V30 4997 H 460.595 -0.26269 -0.688595 0
M  V30 4998 H 463.237 -1.27333 -1.41018 0
M  V30 4999 H 461.387 -0.69341 -3.82262 0
M  V30 5000 H 463.059 -3.24569 -3.278 0
M  V30 5001 H 461.302 -3.10113 -3.03336 0
M  V30 5002 H 461.973 -2.95757 -4.66081 0
M  V30 5003 H 464.449 -1.1477 -3.99959 0
M  V30 5004 H 463.325 -1.08213 -5.38127 0
M  V30 5005 H 463.586 0.355747 -4.40666 0
M  V30 5006 O 462.684 1.31512 -0.937375 0
M  V30 5007 H 463.375 1.85319 -0.563611 0
M  V30 END ATOM
M  V30 BEGIN BOND
M  V30 END BOND
M  V30 END CTAB
M  END
$$$$
