drugbank_target|A0A0F7R7F9 Sortase (DB07590)
 OpenBabel12092120443D

  0  0  0     0  0            999 V3000
M  V30 BEGIN CTAB
M  V30 COUNTS 4167 4211 0 0 0
M  V30 BEGIN ATOM
M  V30 1 H -0.908 1.98254 -0.117106 0
M  V30 2 N 0 1.576 0 0
M  V30 3 C 0.933 2.03868 1.02534 0
M  V30 4 C 1.911 0.928543 1.3348 0
M  V30 5 O 3.095 1.19667 1.45644 0
M  V30 6 C 0.222 2.43627 2.35294 0
M  V30 7 C -0.732 3.65373 2.2001 0
M  V30 8 S 0.101 5.13292 1.52614 0
M  V30 9 C 1.257 5.56322 2.86805 0
M  V30 10 H 1.49 2.90518 0.631377 0
M  V30 11 H -0.977 1.52953 0.210867 0
M  V30 12 H 0.981 2.67203 3.11629 0
M  V30 13 H -0.358 1.57376 2.7183 0
M  V30 14 H -1.165 3.90944 3.18086 0
M  V30 15 H -1.563 3.418 1.51819 0
M  V30 16 H 0.729 5.58782 3.83104 0
M  V30 17 H 1.672 6.56266 2.65933 0
M  V30 18 H 2.08 4.83886 2.90714 0
M  V30 19 N 1.4781 -0.272755 1.55222 0
M  V30 20 C 2.7031 -1.02683 1.80197 0
M  V30 21 C 3.1281 -1.79142 0.573551 0
M  V30 22 O 2.4861 -1.74917 -0.476849 0
M  V30 23 C 2.5341 -1.9609 3.02624 0
M  V30 24 O 1.6381 -3.04863 2.77727 0
M  V30 25 H 0.9791 -0.293557 0.595584 0
M  V30 26 H 3.5091 -0.30159 2.02365 0
M  V30 27 H 3.5191 -2.38039 3.31363 0
M  V30 28 H 2.1941 -1.39851 3.91682 0
M  V30 29 H 0.7711 -2.67228 2.60084 0
M  V30 30 N 2.9562 -1.48159 -0.537278 0
M  V30 31 C 4.1812 -1.59707 -1.32319 0
M  V30 32 C 4.6062 -0.254859 -1.86365 0
M  V30 33 O 3.9642 0.772378 -1.64024 0
M  V30 34 C 4.0122 -2.6412 -2.45505 0
M  V30 35 O 3.1162 -2.20774 -3.48328 0
M  V30 36 H 2.4572 -0.535791 -0.392204 0
M  V30 37 H 4.9872 -1.94092 -0.647268 0
M  V30 38 H 4.9972 -2.85166 -2.91795 0
M  V30 39 H 3.6722 -3.61567 -2.05528 0
M  V30 40 H 2.2492 -2.09911 -3.08207 0
M  V30 41 N 4.4343 0.785586 -1.36625 0
M  V30 42 C 5.3443 1.92964 -1.33425 0
M  V30 43 C 6.3603 1.72394 -0.235851 0
M  V30 44 O 7.5363 1.95866 -0.468878 0
M  V30 45 C 4.6013 3.27884 -1.12662 0
M  V30 46 C 3.6623 3.61204 -2.32013 0
M  V30 47 C 2.8953 4.89687 -2.12231 0
M  V30 48 O 3.1183 5.59704 -1.09945 0
M  V30 49 O 2.0523 5.21752 -3.00098 0
M  V30 50 H 5.8783 1.98613 -2.29753 0
M  V30 51 H 3.4633 0.926384 -1.17211 0
M  V30 52 H 5.3453 4.08614 -1.03016 0
M  V30 53 H 4.0203 3.23118 -0.193991 0
M  V30 54 H 2.9273 2.80765 -2.47228 0
M  V30 55 H 4.2603 3.70698 -3.23796 0
M  V30 56 N 5.9124 1.20967 1.01018 0
M  V30 57 C 6.8594 0.964281 2.09691 0
M  V30 58 C 7.8294 -0.107853 1.65749 0
M  V30 59 O 9.0144 0.0381987 1.90762 0
M  V30 60 C 6.1544 0.52943 3.41015 0
M  V30 61 C 5.2674 1.67043 3.98398 0
M  V30 62 C 4.4024 1.18525 5.17808 0
M  V30 63 C 3.4414 2.29892 5.67288 0
M  V30 64 N 2.5784 1.82546 6.77954 0
M  V30 65 H 7.4184 1.89463 2.30017 0
M  V30 66 H 4.9554 0.944289 1.1279 0
M  V30 67 H 6.9134 0.258588 4.16398 0
M  V30 68 H 5.5434 -0.363919 3.20742 0
M  V30 69 H 4.5954 2.05603 3.20049 0
M  V30 70 H 5.9074 2.50877 4.31117 0
M  V30 71 H 5.0614 0.870762 6.00419 0
M  V30 72 H 3.8004 0.316887 4.86669 0
M  V30 73 H 2.8054 2.6215 4.83278 0
M  V30 74 H 4.0304 3.17216 6.00459 0
M  V30 75 H 1.9764 0.980454 6.48632 0
M  V30 76 H 1.8934 2.59956 7.09901 0
M  V30 77 H 3.1614 1.54115 7.64113 0
M  V30 78 N 7.3905 -1.2043 1.01659 0
M  V30 79 C 8.3005 -2.2689 0.596484 0
M  V30 80 C 9.3165 -1.70107 -0.36599 0
M  V30 81 O 10.4925 -2.00117 -0.226942 0
M  V30 82 C 7.5575 -3.4665 -0.0586659 0
M  V30 83 C 6.6185 -4.18662 0.949751 0
M  V30 84 C 5.8515 -5.32705 0.32577 0
M  V30 85 O 6.0745 -5.63656 -0.874509 0
M  V30 86 O 5.0085 -5.92803 1.04249 0
M  V30 87 H 8.8345 -2.65041 1.4828 0
M  V30 88 H 6.4195 -1.27048 0.786082 0
M  V30 89 H 8.3015 -4.19256 -0.424564 0
M  V30 90 H 6.9765 -3.10375 -0.91918 0
M  V30 91 H 5.8835 -3.48229 1.36702 0
M  V30 92 H 7.2165 -4.58878 1.78023 0
M  V30 93 N 8.8686 -0.792821 -1.36206 0
M  V30 94 C 10.2846 -0.474903 -1.52371 0
M  V30 95 C 10.4846 1.00622 -1.74578 0
M  V30 96 O 9.5406 1.79162 -1.77924 0
M  V30 97 C 10.8536 -1.3083 -2.70747 0
M  V30 98 C 12.4016 -1.30234 -2.84619 0
M  V30 99 C 12.8766 -2.11956 -4.06004 0
M  V30 100 N 14.3676 -2.09419 -4.13156 0
M  V30 101 C 15.1026 -2.69419 -5.06163 0
M  V30 102 N 14.5986 -3.3829 -6.04592 0
M  V30 103 N 16.3916 -2.59134 -4.98804 0
M  V30 104 H 8.5426 -1.75222 -1.20046 0
M  V30 105 H 10.8056 -0.745024 -0.586211 0
M  V30 106 H 10.5116 -2.35881 -2.6087 0
M  V30 107 H 10.3856 -0.95196 -3.6499 0
M  V30 108 H 12.7726 -0.259748 -2.93955 0
M  V30 109 H 12.8536 -1.69847 -1.91274 0
M  V30 110 H 12.4976 -3.16248 -3.97429 0
M  V30 111 H 12.4276 -1.69711 -4.98503 0
M  V30 112 H 14.9186 -1.59297 -3.42685 0
M  V30 113 H 15.2316 -3.81394 -6.7213 0
M  V30 114 H 13.5766 -3.42393 -6.04807 0
M  V30 115 H 16.7676 -2.04927 -4.20859 0
M  V30 116 H 16.9406 -3.06185 -5.711 0
M  V30 117 N 10.3467 1.47872 -0.545128 0
M  V30 118 C 11.2937 2.29849 0.2093 0
M  V30 119 C 12.2637 1.38313 0.919707 0
M  V30 120 O 13.4487 1.67277 0.917772 0
M  V30 121 C 10.5887 3.22019 1.24088 0
M  V30 122 C 9.7017 4.2864 0.537778 0
M  V30 123 C 8.8367 5.07973 1.5536 0
M  V30 124 C 7.8757 6.06381 0.8348 0
M  V30 125 N 7.0127 6.78717 1.79688 0
M  V30 126 H 11.8527 2.93845 -0.49591 0
M  V30 127 H 9.3897 1.44848 -0.256389 0
M  V30 128 H 11.3477 3.73868 1.85144 0
M  V30 129 H 9.9777 2.59914 1.91428 0
M  V30 130 H 9.0297 3.7994 -0.187046 0
M  V30 131 H 10.3417 4.98793 -0.0258907 0
M  V30 132 H 9.4957 5.63912 2.23803 0
M  V30 133 H 8.2347 4.37693 2.15118 0
M  V30 134 H 7.2397 5.49631 0.136388 0
M  V30 135 H 8.4647 6.78665 0.24313 0
M  V30 136 H 6.4107 6.11177 2.38326 0
M  V30 137 H 6.3277 7.44998 1.28505 0
M  V30 138 H 7.5957 7.39237 2.47282 0
M  V30 139 N 11.8248 0.280983 1.55075 0
M  V30 140 C 12.7718 -0.603937 2.22758 0
M  V30 141 C 13.7418 -1.1452 1.20309 0
M  V30 142 O 14.9268 -1.19343 1.48869 0
M  V30 143 C 12.0668 -1.77947 2.95684 0
M  V30 144 C 11.1798 -1.2715 4.12864 0
M  V30 145 C 10.3148 -2.4093 4.7342 0
M  V30 146 C 9.3538 -1.87165 5.82783 0
M  V30 147 N 8.4908 -2.94441 6.37377 0
M  V30 148 H 13.3308 -0.020124 2.97993 0
M  V30 149 H 10.8678 0.00183425 1.471 0
M  V30 150 H 12.8258 -2.47055 3.36184 0
M  V30 151 H 11.4558 -2.33522 2.22861 0
M  V30 152 H 10.5078 -0.473331 3.77444 0
M  V30 153 H 11.8198 -0.837751 4.91715 0
M  V30 154 H 10.9738 -3.18021 5.1667 0
M  V30 155 H 9.7128 -2.87623 3.93859 0
M  V30 156 H 8.7178 -1.08556 5.38976 0
M  V30 157 H 9.9428 -1.41401 6.64216 0
M  V30 158 H 7.8888 -3.40505 5.60707 0
M  V30 159 H 7.8058 -2.55501 7.11516 0
M  V30 160 H 9.0738 -3.71489 6.85285 0
M  V30 161 N 13.3029 -1.57598 0.00835791 0
M  V30 162 C 14.2499 -2.08945 -0.980346 0
M  V30 163 C 15.2199 -0.986738 -1.33614 0
M  V30 164 O 16.4049 -1.25968 -1.43306 0
M  V30 165 C 13.5449 -2.60425 -2.26435 0
M  V30 166 C 12.6579 -3.84628 -1.96685 0
M  V30 167 C 11.7929 -4.24579 -3.19228 0
M  V30 168 C 10.8319 -5.41596 -2.85202 0
M  V30 169 N 9.9689 -5.768 -4.00307 0
M  V30 170 H 14.8089 -2.93148 -0.535551 0
M  V30 171 H 12.3459 -1.44912 -0.252776 0
M  V30 172 H 14.3039 -2.88354 -3.01509 0
M  V30 173 H 12.9339 -1.79083 -2.68568 0
M  V30 174 H 11.9859 -3.63556 -1.11942 0
M  V30 175 H 13.2979 -4.69796 -1.67611 0
M  V30 176 H 12.4519 -4.53834 -4.02641 0
M  V30 177 H 11.1909 -3.38137 -3.51447 0
M  V30 178 H 10.1959 -5.12056 -2.00198 0
M  V30 179 H 11.4209 -6.29721 -2.54222 0
M  V30 180 H 9.3669 -4.93316 -4.32407 0
M  V30 181 H 9.2839 -6.5656 -3.74786 0
M  V30 182 H 10.5519 -6.10652 -4.84484 0
M  V30 183 N 14.781 0.264519 -1.55364 0
M  V30 184 C 16.03 0.992812 -1.75574 0
M  V30 185 C 16.343 1.87142 -0.568979 0
M  V30 186 O 17.549 2.63513 -0.653682 0
M  V30 187 C 16.005 1.81519 -3.10771 0
M  V30 188 C 15.613 0.984839 -4.37041 0
M  V30 189 C 17.357 2.53727 -3.40327 0
M  V30 190 C 15.264 1.80209 -5.63275 0
M  V30 191 H 14.194 0.374412 -0.65447 0
M  V30 192 H 16.845 0.248138 -1.81815 0
M  V30 193 H 15.227 2.60115 -2.98591 0
M  V30 194 H 16.401 0.242455 -4.60162 0
M  V30 195 H 14.716 0.37691 -4.14691 0
M  V30 196 H 17.313 3.15292 -4.3185 0
M  V30 197 H 17.656 3.24447 -2.60845 0
M  V30 198 H 18.189 1.82156 -3.53644 0
M  V30 199 H 14.928 1.13896 -6.45529 0
M  V30 200 H 14.448 2.52022 -5.44284 0
M  V30 201 H 16.127 2.37364 -6.01887 0
M  V30 202 N 16.2591 1.48442 0.529413 0
M  V30 203 C 17.5061 1.56488 1.28521 0
M  V30 204 C 17.8341 0.239042 1.93025 0
M  V30 205 O 17.0891 -0.770713 1.79885 0
M  V30 206 C 17.3881 2.6523 2.39558 0
M  V30 207 C 17.0541 4.07648 1.92702 0
M  V30 208 C 15.7161 4.46411 1.79641 0
M  V30 209 C 18.0681 4.96896 1.573 0
M  V30 210 C 15.3961 5.72226 1.29514 0
M  V30 211 C 17.7481 6.23202 1.08636 0
M  V30 212 C 16.4121 6.60821 0.941919 0
M  V30 213 H 15.6821 0.572631 0.470292 0
M  V30 214 H 18.3291 1.82161 0.59072 0
M  V30 215 H 16.6341 2.33419 3.14679 0
M  V30 216 H 18.3311 2.68671 2.97686 0
M  V30 217 H 14.9211 3.77036 2.03819 0
M  V30 218 H 19.1051 4.67626 1.66251 0
M  V30 219 H 14.3611 6.00097 1.17019 0
M  V30 220 H 18.5351 6.91753 0.803136 0
M  V30 221 H 16.1621 7.58198 0.5513 0
M  V30 222 N 17.7372 -0.778329 1.37039 0
M  V30 223 C 18.9842 -1.53665 1.31884 0
M  V30 224 C 19.3122 -1.9425 -0.0986303 0
M  V30 225 O 18.5672 -1.63832 -1.07041 0
M  V30 226 C 18.8662 -2.81845 2.19768 0
M  V30 227 C 18.5322 -2.60345 3.68146 0
M  V30 228 C 17.1942 -2.5419 4.08584 0
M  V30 229 C 19.5462 -2.40923 4.62175 0
M  V30 230 C 16.8742 -2.26594 5.41177 0
M  V30 231 C 19.2262 -2.14852 5.94997 0
M  V30 232 C 17.8902 -2.07137 6.34547 0
M  V30 233 H 17.1602 -0.562299 0.482598 0
M  V30 234 H 19.8072 -0.897069 1.69189 0
M  V30 235 H 18.1122 -3.50328 1.75436 0
M  V30 236 H 19.8092 -3.39692 2.13097 0
M  V30 237 H 16.3992 -2.65996 3.36072 0
M  V30 238 H 20.5832 -2.44673 4.31797 0
M  V30 239 H 15.8392 -2.19111 5.70789 0
M  V30 240 H 20.0132 -1.98822 6.67415 0
M  V30 241 H 17.6402 -1.85518 7.37216 0
M  V30 242 N 19.2153 -1.21501 -1.00376 0
M  V30 243 C 20.1473 -0.933174 -2.09343 0
M  V30 244 C 21.1603 0.0840896 -1.62583 0
M  V30 245 O 22.3493 -0.148563 -1.77881 0
M  V30 246 C 19.4493 -0.379869 -3.36764 0
M  V30 247 C 18.6223 -1.45176 -4.12605 0
M  V30 248 C 17.6813 -0.907476 -5.18316 0
M  V30 249 O 16.7073 -1.5912 -5.46507 0
M  V30 250 N 17.9093 0.276649 -5.7984 0
M  V30 251 H 20.6743 -1.87124 -2.34104 0
M  V30 252 H 18.2353 -1.12043 -1.16867 0
M  V30 253 H 20.2273 -0.00131488 -4.047 0
M  V30 254 H 18.7973 0.463048 -3.09151 0
M  V30 255 H 18.0173 -2.00411 -3.39454 0
M  V30 256 H 19.3053 -2.17328 -4.6005 0
M  V30 257 H 18.7033 0.849147 -5.59291 0
M  V30 258 H 17.2603 0.596702 -6.49063 0
M  V30 259 N 20.6934 1.19889 -1.02296 0
M  V30 260 C 22.1094 1.41462 -0.738954 0
M  V30 261 C 22.3094 1.89721 0.678846 0
M  V30 262 O 21.3654 2.07016 1.4457 0
M  V30 263 C 22.6784 2.43083 -1.77005 0
M  V30 264 C 24.2264 2.5684 -1.78892 0
M  V30 265 C 24.7014 3.61709 -2.80945 0
M  V30 266 N 26.1924 3.69199 -2.79725 0
M  V30 267 C 26.9274 4.50019 -3.55345 0
M  V30 268 N 26.4234 5.34592 -4.40662 0
M  V30 269 N 28.2164 4.44612 -3.43914 0
M  V30 270 H 20.3674 0.868827 -1.93817 0
M  V30 271 H 22.6304 0.44399 -0.837602 0
M  V30 272 H 22.3364 2.14636 -2.78612 0
M  V30 273 H 22.2104 3.4217 -1.58744 0
M  V30 274 H 24.5974 2.84614 -0.779674 0
M  V30 275 H 24.6784 1.57927 -2.01228 0
M  V30 276 H 24.3224 3.34678 -3.82038 0
M  V30 277 H 24.2524 4.60259 -2.5587 0
M  V30 278 H 26.7434 3.08794 -2.17842 0
M  V30 279 H 27.0564 5.93363 -4.95116 0
M  V30 280 H 25.4014 5.34073 -4.44737 0
M  V30 281 H 28.5924 3.7758 -2.76679 0
M  V30 282 H 28.7654 5.0736 -4.031 0
M  V30 283 N 22.1715 0.800033 1.35784 0
M  V30 284 C 23.4205 0.37387 1.98205 0
M  V30 285 C 23.7335 -1.06302 1.64193 0
M  V30 286 O 24.9395 -1.59198 2.19928 0
M  V30 287 C 23.3955 0.617532 3.54562 0
M  V30 288 C 23.0035 2.06654 3.9749 0
M  V30 289 C 24.7475 0.256401 4.23725 0
M  V30 290 C 22.6545 2.2563 5.46667 0
M  V30 291 H 21.5845 0.136055 0.741623 0
M  V30 292 H 24.2355 0.983166 1.54939 0
M  V30 293 H 22.6175 -0.0616248 3.95952 0
M  V30 294 H 23.7915 2.78296 3.67271 0
M  V30 295 H 22.1065 2.38691 3.41197 0
M  V30 296 H 24.7035 0.376318 5.33374 0
M  V30 297 H 25.0465 -0.796692 4.08606 0
M  V30 298 H 25.5795 0.889214 3.87734 0
M  V30 299 H 22.3185 3.2936 5.66747 0
M  V30 300 H 21.8385 1.58504 5.78478 0
M  V30 301 H 23.5175 2.06861 6.1304 0
M  V30 302 N 23.6496 -1.47581 0.552962 0
M  V30 303 C 24.5796 -2.32762 -0.185451 0
M  V30 304 C 25.5606 -1.43527 -0.912905 0
M  V30 305 O 26.7456 -1.72388 -0.894201 0
M  V30 306 C 23.8756 -3.25219 -1.21859 0
M  V30 307 C 22.8296 -4.23661 -0.607864 0
M  V30 308 C 22.1556 -5.05413 -1.74533 0
M  V30 309 C 23.4556 -5.20481 0.435582 0
M  V30 310 H 25.1496 -2.94749 0.525684 0
M  V30 311 H 22.6956 -1.41738 0.254251 0
M  V30 312 H 24.6486 -3.8365 -1.7433 0
M  V30 313 H 23.3726 -2.61279 -1.95961 0
M  V30 314 H 22.0316 -3.66451 -0.104489 0
M  V30 315 H 21.6796 -4.3788 -2.47529 0
M  V30 316 H 21.3796 -5.72059 -1.34249 0
M  V30 317 H 22.9036 -5.66701 -2.27338 0
M  V30 318 H 24.3176 -5.733 -0.00290157 0
M  V30 319 H 22.7146 -5.95305 0.757067 0
M  V30 320 H 23.7846 -4.66217 1.33303 0
M  V30 321 N 25.1277 -0.289203 -1.54924 0
M  V30 322 C 26.3557 0.326463 -2.04308 0
M  V30 323 C 26.7707 1.48413 -1.16701 0
M  V30 324 O 26.1277 1.81507 -0.190087 0
M  V30 325 C 26.1787 0.794014 -3.52672 0
M  V30 326 O 25.8997 -0.317564 -4.36948 0
M  V30 327 C 27.4007 1.47605 -4.18004 0
M  V30 328 H 24.6207 0.0726272 -0.667058 0
M  V30 329 H 27.1647 -0.425401 -2.00026 0
M  V30 330 H 25.3197 1.49593 -3.57352 0
M  V30 331 H 25.7337 0.0443186 -5.24481 0
M  V30 332 H 27.2077 1.75447 -5.23376 0
M  V30 333 H 27.6847 2.41224 -3.67025 0
M  V30 334 H 28.2907 0.81762 -4.17367 0
M  V30 335 N 26.6058 1.57591 -0.0167156 0
M  V30 336 C 27.8518 1.91567 0.665582 0
M  V30 337 C 28.1848 0.892298 1.72487 0
M  V30 338 O 27.4598 -0.0867127 1.94307 0
M  V30 339 C 27.7428 3.36069 1.29342 0
M  V30 340 C 27.5958 4.49135 0.244541 0
M  V30 341 C 28.9148 3.803 2.21495 0
M  V30 342 H 26.0338 0.69666 0.240488 0
M  V30 343 H 28.6758 1.89866 -0.0714356 0
M  V30 344 H 26.8258 3.3765 1.92158 0
M  V30 345 H 28.4978 4.59689 -0.385228 0
M  V30 346 H 26.7408 4.3165 -0.431379 0
M  V30 347 H 27.4118 5.47242 0.723207 0
M  V30 348 H 29.8878 3.80377 1.68678 0
M  V30 349 H 28.7638 4.82127 2.62382 0
M  V30 350 H 29.0248 3.15104 3.101 0
M  V30 351 N 28.0839 -0.256276 1.55502 0
M  V30 352 C 29.3299 -0.987079 1.77157 0
M  V30 353 C 29.6629 -1.85327 0.580315 0
M  V30 354 O 28.9379 -1.89874 -0.421686 0
M  V30 355 C 29.2209 -1.85553 3.08613 0
M  V30 356 C 29.0739 -1.01816 4.38125 0
M  V30 357 C 30.3929 -2.8397 3.36228 0
M  V30 358 H 27.5119 -0.357428 0.644526 0
M  V30 359 H 30.1539 -0.258239 1.88237 0
M  V30 360 H 28.3039 -2.47695 2.99298 0
M  V30 361 H 29.9759 -0.416159 4.59419 0
M  V30 362 H 28.2189 -0.322178 4.32602 0
M  V30 363 H 28.8899 -1.65939 5.26468 0
M  V30 364 H 31.3659 -2.31964 3.45445 0
M  V30 365 H 30.2419 -3.41864 4.29442 0
M  V30 366 H 30.5029 -3.59955 2.56681 0
M  V30 367 N 29.562 -1.4872 -0.521534 0
M  V30 368 C 30.809 -1.57168 -1.27689 0
M  V30 369 C 31.137 -0.249275 -1.92896 0
M  V30 370 O 30.392 0.761162 -1.80291 0
M  V30 371 C 30.691 -2.66497 -2.38148 0
M  V30 372 C 30.357 -4.08664 -1.90538 0
M  V30 373 C 29.019 -4.47357 -1.77271 0
M  V30 374 C 31.371 -4.97724 -1.54663 0
M  V30 375 C 28.699 -5.72905 -1.26478 0
M  V30 376 C 31.051 -6.2377 -1.05329 0
M  V30 377 C 29.715 -6.61311 -0.906861 0
M  V30 378 H 28.985 -0.575117 -0.467249 0
M  V30 379 H 31.632 -1.82472 -0.581051 0
M  V30 380 H 29.937 -2.35085 -3.13437 0
M  V30 381 H 31.634 -2.70246 -2.96257 0
M  V30 382 H 28.224 -3.78111 -2.01816 0
M  V30 383 H 32.408 -4.68501 -1.63768 0
M  V30 384 H 27.664 -6.00709 -1.13835 0
M  V30 385 H 31.838 -6.9217 -0.76644 0
M  V30 386 H 29.465 -7.5848 -0.511083 0
M  V30 387 N 31.0401 0.771051 -1.3745 0
M  V30 388 C 31.9701 1.89827 -1.3597 0
M  V30 389 C 32.9511 1.68562 -0.228216 0
M  V30 390 O 34.1361 1.8941 -0.428675 0
M  V30 391 C 31.2661 3.2712 -1.16662 0
M  V30 392 C 30.2201 3.6295 -2.2683 0
M  V30 393 C 29.5461 4.98791 -1.92644 0
M  V30 394 C 30.8461 3.69627 -3.69017 0
M  V30 395 H 32.5401 1.91323 -2.30295 0
M  V30 396 H 30.0861 0.919082 -1.10855 0
M  V30 397 H 32.0391 4.05615 -1.14256 0
M  V30 398 H 30.7631 3.26059 -0.187926 0
M  V30 399 H 29.4221 2.86763 -2.28392 0
M  V30 400 H 29.0701 4.94271 -0.933021 0
M  V30 401 H 28.7701 5.23733 -2.66416 0
M  V30 402 H 30.2941 5.79685 -1.91826 0
M  V30 403 H 31.7081 4.38273 -3.69581 0
M  V30 404 H 30.1051 4.06067 -4.41848 0
M  V30 405 H 31.1751 2.70273 -4.02592 0
M  V30 406 N 32.5182 1.22032 0.997298 0
M  V30 407 C 33.7662 1.04016 1.73278 0
M  V30 408 C 34.0872 -0.426255 1.90284 0
M  V30 409 O 33.3572 -1.30694 1.45931 0
M  V30 410 H 31.9372 0.381897 0.642 0
M  V30 411 H 34.5992 1.5347 1.20137 0
M  V30 412 H 33.6952 1.51441 2.72896 0
M  V30 413 N 33.9963 -1.19345 1.0293 0
M  V30 414 C 35.2243 -1.92997 0.745644 0
M  V30 415 C 35.6393 -1.75519 -0.695589 0
M  V30 416 O 34.9963 -1.07737 -1.47306 0
M  V30 417 C 35.0473 -3.44741 1.08792 0
M  V30 418 O 34.7683 -3.61658 2.47256 0
M  V30 419 C 36.2693 -4.35515 0.827129 0
M  V30 420 H 33.4893 -0.613042 0.272801 0
M  V30 421 H 36.0333 -1.51473 1.3739 0
M  V30 422 H 34.1883 -3.84097 0.504832 0
M  V30 423 H 34.6023 -4.55514 2.60015 0
M  V30 424 H 36.0763 -5.40589 1.11658 0
M  V30 425 H 36.5533 -4.38552 -0.238436 0
M  V30 426 H 37.1593 -4.01841 1.39297 0
M  V30 427 N 35.4744 -0.807222 -1.35358 0
M  V30 428 C 36.7214 -0.387888 -1.9875 0
M  V30 429 C 37.0494 1.04509 -1.64037 0
M  V30 430 O 36.3044 1.73986 -0.895946 0
M  V30 431 C 36.6034 -0.519036 -3.53611 0
M  V30 432 C 36.2694 -1.91542 -4.08194 0
M  V30 433 C 34.9314 -2.29745 -4.22813 0
M  V30 434 C 37.2834 -2.82896 -4.37744 0
M  V30 435 C 34.6114 -3.58668 -4.643 0
M  V30 436 C 36.9634 -4.11265 -4.8067 0
M  V30 437 C 35.6274 -4.49466 -4.93494 0
M  V30 438 H 34.8974 -0.141938 -0.727279 0
M  V30 439 H 37.5444 -1.02814 -1.6156 0
M  V30 440 H 35.8494 0.204658 -3.91265 0
M  V30 441 H 37.5464 -0.175345 -4.00616 0
M  V30 442 H 34.1364 -1.60862 -3.97268 0
M  V30 443 H 38.3204 -2.54629 -4.26002 0
M  V30 444 H 33.5764 -3.88113 -4.72418 0
M  V30 445 H 37.7504 -4.82153 -5.02496 0
M  V30 446 H 35.3774 -5.49418 -5.25399 0
M  V30 447 N 36.9525 1.47285 -0.560781 0
M  V30 448 C 38.1995 2.02464 -0.038062 0
M  V30 449 C 38.5275 1.43474 1.31322 0
M  V30 450 O 37.7825 0.581311 1.86867 0
M  V30 451 C 38.0815 3.57258 0.100784 0
M  V30 452 C 37.7475 4.35184 -1.18007 0
M  V30 453 C 36.4095 4.56194 -1.53103 0
M  V30 454 C 38.7615 4.80098 -2.02867 0
M  V30 455 C 36.0895 5.19367 -2.729 0
M  V30 456 C 38.4415 5.44593 -3.21871 0
M  V30 457 C 37.1055 5.63835 -3.57276 0
M  V30 458 H 36.3755 0.740869 -0.0139279 0
M  V30 459 H 39.0225 1.76916 -0.733012 0
M  V30 460 H 37.3275 3.81819 0.878724 0
M  V30 461 H 39.0245 3.97606 0.520639 0
M  V30 462 H 35.6145 4.19113 -0.8968 0
M  V30 463 H 39.7985 4.63642 -1.7706 0
M  V30 464 H 35.0545 5.32459 -3.00496 0
M  V30 465 H 39.2285 5.78358 -3.87911 0
M  V30 466 H 36.8555 6.12557 -4.50197 0
M  V30 467 N 38.4306 0.297415 1.54768 0
M  V30 468 C 39.6606 -0.315165 2.04182 0
M  V30 469 C 40.0686 -1.4834 1.17439 0
M  V30 470 O 39.4116 -1.82695 0.191891 0
M  V30 471 C 39.4736 -0.837583 3.49607 0
M  V30 472 C 39.1376 0.204912 4.5654 0
M  V30 473 C 40.1346 1.03214 5.09552 0
M  V30 474 C 37.8196 0.345578 5.0111 0
M  V30 475 C 39.8136 1.986 6.05671 0
M  V30 476 C 37.5006 1.30289 5.97049 0
M  V30 477 C 38.4986 2.12159 6.49213 0
M  V30 478 O 38.1866 3.06268 7.43273 0
M  V30 479 H 37.9186 -0.0729646 0.672051 0
M  V30 480 H 40.4726 0.433907 2.00765 0
M  V30 481 H 38.7026 -1.63712 3.50336 0
M  V30 482 H 40.3916 -1.36566 3.82236 0
M  V30 483 H 41.1576 0.934312 4.75916 0
M  V30 484 H 37.0366 -0.28171 4.60138 0
M  V30 485 H 40.5806 2.62542 6.46311 0
M  V30 486 H 36.4776 1.40145 6.30103 0
M  V30 487 H 37.2456 3.01205 7.61064 0
M  V30 488 N 39.9087 -1.5758 0.0250728 0
M  V30 489 C 41.1337 -1.96337 -0.668317 0
M  V30 490 C 41.5587 -0.901314 -1.651 0
M  V30 491 O 40.9167 0.138187 -1.80773 0
M  V30 492 C 40.9647 -3.34191 -1.35457 0
M  V30 493 O 40.0687 -3.30269 -2.46974 0
M  V30 494 H 39.4097 -0.640281 -0.175887 0
M  V30 495 H 41.9397 -2.0442 0.0857224 0
M  V30 496 H 41.9497 -3.70331 -1.71228 0
M  V30 497 H 40.6247 -4.11036 -0.634218 0
M  V30 498 H 39.2017 -3.05841 -2.13344 0
M  V30 499 N 41.3868 0.248026 -1.55636 0
M  V30 500 C 42.6328 0.97767 -1.77678 0
M  V30 501 C 42.9658 1.85016 -0.590135 0
M  V30 502 O 42.2408 1.90095 0.411611 0
M  V30 503 C 42.5238 1.83914 -3.09593 0
M  V30 504 C 42.3768 0.99491 -4.38659 0
M  V30 505 C 43.6958 2.82183 -3.37729 0
M  V30 506 H 40.8148 0.354005 -0.646413 0
M  V30 507 H 43.4568 0.248253 -1.88371 0
M  V30 508 H 41.6068 2.46104 -3.00608 0
M  V30 509 H 43.2788 0.391789 -4.59633 0
M  V30 510 H 41.5218 0.299231 -4.32767 0
M  V30 511 H 42.1928 1.63145 -5.2734 0
M  V30 512 H 44.6688 2.30129 -3.4667 0
M  V30 513 H 43.5448 3.39582 -4.31249 0
M  V30 514 H 43.8058 3.58588 -2.58586 0
M  V30 515 N 42.8649 1.48995 0.513639 0
M  V30 516 C 44.0949 1.61297 1.291 0
M  V30 517 C 44.5029 0.278656 1.87137 0
M  V30 518 O 43.8459 -0.744325 1.67945 0
M  V30 519 C 43.9079 2.61326 2.46879 0
M  V30 520 C 43.5719 4.05993 2.09807 0
M  V30 521 C 44.5689 4.93183 1.64519 0
M  V30 522 C 42.2539 4.51642 2.19829 0
M  V30 523 C 44.2479 6.24056 1.2974 0
M  V30 524 C 41.9349 5.82532 1.84662 0
M  V30 525 C 42.9329 6.68562 1.3969 0
M  V30 526 O 42.6209 7.97014 1.04992 0
M  V30 527 H 42.3529 0.546236 0.39825 0
M  V30 528 H 44.9069 1.95673 0.62459 0
M  V30 529 H 43.1369 2.22104 3.16554 0
M  V30 530 H 44.8259 2.6329 3.08923 0
M  V30 531 H 45.5919 4.59147 1.56233 0
M  V30 532 H 41.4709 3.84855 2.53786 0
M  V30 533 H 45.0149 6.91161 0.945659 0
M  V30 534 H 40.9119 6.16099 1.92594 0
M  V30 535 H 41.6799 8.09913 1.18249 0
M  V30 536 N 44.343 -0.763751 1.37857 0
M  V30 537 C 45.253 -1.90817 1.36478 0
M  V30 538 C 46.269 -1.71997 0.263248 0
M  V30 539 O 47.445 -1.95095 0.499979 0
M  V30 540 C 44.51 -3.2605 1.17864 0
M  V30 541 C 43.571 -3.57467 2.3773 0
M  V30 542 C 42.804 -4.86249 2.19995 0
M  V30 543 O 43.027 -5.57884 1.18836 0
M  V30 544 O 41.961 -5.16911 3.08361 0
M  V30 545 H 45.787 -1.94933 2.32884 0
M  V30 546 H 43.372 -0.907619 1.1867 0
M  V30 547 H 45.254 -4.06924 1.09504 0
M  V30 548 H 43.929 -3.22769 0.245372 0
M  V30 549 H 42.836 -2.76796 2.51664 0
M  V30 550 H 44.169 -3.655 3.29652 0
M  V30 551 N 45.8211 -1.22559 -0.990812 0
M  V30 552 C 46.7511 -1.0218 -2.09956 0
M  V30 553 C 47.7321 0.0579394 -1.70001 0
M  V30 554 O 48.9171 -0.104684 -1.93918 0
M  V30 555 C 46.0471 -0.601023 -3.4206 0
M  V30 556 C 45.0011 -1.62694 -3.95872 0
M  V30 557 C 44.3271 -1.06193 -5.24049 0
M  V30 558 C 45.6271 -3.01743 -4.2632 0
M  V30 559 H 47.3211 -1.94916 -2.27262 0
M  V30 560 H 44.8671 -0.938566 -1.09211 0
M  V30 561 H 46.8201 -0.445561 -4.19038 0
M  V30 562 H 45.5441 0.362005 -3.24588 0
M  V30 563 H 44.2031 -1.77021 -3.21028 0
M  V30 564 H 43.8511 -0.0901903 -5.02919 0
M  V30 565 H 43.5511 -1.74732 -5.61019 0
M  V30 566 H 45.0751 -0.918092 -6.03658 0
M  V30 567 H 46.4891 -2.90777 -4.94087 0
M  V30 568 H 44.8861 -3.67425 -4.74467 0
M  V30 569 H 45.9561 -3.51518 -3.34011 0
M  V30 570 N 47.2992 1.18797 -1.03562 0
M  V30 571 C 48.5472 1.88278 -0.734569 0
M  V30 572 C 48.8682 1.8043 0.739586 0
M  V30 573 O 48.1382 1.21925 1.53333 0
M  V30 574 H 46.7182 0.696991 -0.268725 0
M  V30 575 H 49.3802 1.44192 -1.31129 0
M  V30 576 H 48.4762 2.94443 -1.03489 0
M  V30 577 N 48.7773 0.814389 1.34928 0
M  V30 578 C 50.0543 0.321363 1.92942 0
M  V30 579 C 50.4343 -1.19014 1.74353 0
M  V30 580 O 49.7823 -1.99328 1.11716 0
M  V30 581 C 49.9923 0.741323 3.41036 0
M  V30 582 C 51.3403 0.735266 4.18185 0
M  V30 583 O 52.3643 0.68336 3.49584 0
M  V30 584 O 51.2233 0.800703 5.40602 0
M  V30 585 H 48.3173 0.0858893 0.822528 0
M  V30 586 H 50.8633 0.898609 1.43955 0
M  V30 587 H 49.6353 1.78276 3.4833 0
M  V30 588 H 49.2583 0.139307 3.97356 0
M  V30 589 N 50.2554 -1.46986 0.568584 0
M  V30 590 C 51.5044 -2.01646 0.0465894 0
M  V30 591 C 51.8174 -1.44721 -1.31587 0
M  V30 592 O 53.0234 -1.91113 -1.92842 0
M  V30 593 C 51.4794 -3.59885 0.032752 0
M  V30 594 C 51.0874 -4.25804 1.39266 0
M  V30 595 C 52.8314 -4.22255 -0.436038 0
M  V30 596 C 50.7384 -5.76081 1.33732 0
M  V30 597 H 49.6684 -0.753876 0.013647 0
M  V30 598 H 52.3194 -1.68864 0.718131 0
M  V30 599 H 50.7014 -3.8968 -0.704669 0
M  V30 600 H 51.8754 -4.07637 2.1487 0
M  V30 601 H 50.1904 -3.7547 1.80032 0
M  V30 602 H 52.7874 -5.32394 -0.49602 0
M  V30 603 H 53.1304 -3.90212 -1.45053 0
M  V30 604 H 53.6634 -3.97033 0.246877 0
M  V30 605 H 50.4024 -6.12761 2.32817 0
M  V30 606 H 49.9224 -5.96553 0.623267 0
M  V30 607 H 51.6014 -6.38518 1.0442 0
M  V30 608 N 51.7335 -0.305618 -1.54608 0
M  V30 609 C 52.9805 0.302298 -2.00231 0
M  V30 610 C 53.3085 1.5354 -1.19398 0
M  V30 611 O 52.5635 1.93973 -0.259423 0
M  V30 612 C 52.8625 0.698983 -3.50498 0
M  V30 613 C 52.5285 -0.432903 -4.48817 0
M  V30 614 C 51.1905 -0.743622 -4.75419 0
M  V30 615 C 53.5425 -1.19409 -5.07337 0
M  V30 616 C 50.8705 -1.81857 -5.57804 0
M  V30 617 C 53.2225 -2.25899 -5.90891 0
M  V30 618 C 51.8865 -2.57572 -6.15803 0
M  V30 619 H 51.1565 0.110619 -0.732697 0
M  V30 620 H 53.8035 -0.425674 -1.86709 0
M  V30 621 H 52.1085 1.50711 -3.61654 0
M  V30 622 H 53.8055 1.1806 -3.83227 0
M  V30 623 H 50.3955 -0.18063 -4.28219 0
M  V30 624 H 54.5795 -0.967295 -4.86782 0
M  V30 625 H 49.8355 -2.06864 -5.75341 0
M  V30 626 H 54.0095 -2.85335 -6.35261 0
M  V30 627 H 51.6365 -3.40998 -6.7943 0
M  V30 628 N 53.2116 1.57565 -0.0334293 0
M  V30 629 C 54.1446 2.05997 0.981866 0
M  V30 630 C 55.1226 0.956647 1.3148 0
M  V30 631 O 56.3066 1.22729 1.43073 0
M  V30 632 C 53.4336 2.48564 2.30074 0
M  V30 633 C 52.4796 3.69958 2.12211 0
M  V30 634 S 53.3126 5.16414 1.41692 0
M  V30 635 C 54.4686 5.6228 2.7494 0
M  V30 636 H 54.7016 2.91792 0.569612 0
M  V30 637 H 52.2346 1.53366 0.178376 0
M  V30 638 H 54.1926 2.73753 3.05892 0
M  V30 639 H 52.8536 1.63106 2.68431 0
M  V30 640 H 52.0466 3.97603 3.09722 0
M  V30 641 H 51.6486 3.44943 1.44535 0
M  V30 642 H 53.9406 5.66783 3.71165 0
M  V30 643 H 54.8836 6.61759 2.51953 0
M  V30 644 H 55.2916 4.89944 2.80384 0
M  V30 645 N 54.6897 -0.239769 1.55765 0
M  V30 646 C 55.9667 -0.990056 1.68693 0
M  V30 647 C 56.3467 -2.03107 0.5754 0
M  V30 648 O 55.6947 -2.24604 -0.42017 0
M  V30 649 C 55.9047 -1.61696 3.09282 0
M  V30 650 C 57.2527 -2.11613 3.6811 0
M  V30 651 O 58.2767 -1.71624 3.12127 0
M  V30 652 O 57.1357 -2.85057 4.66267 0
M  V30 653 H 54.2297 -0.461299 0.686391 0
M  V30 654 H 56.7757 -0.232991 1.68093 0
M  V30 655 H 55.5477 -0.864357 3.81634 0
M  V30 656 H 55.1707 -2.44005 3.13923 0
M  V30 657 N 56.1678 -1.49265 -0.50573 0
M  V30 658 C 57.3978 -1.61979 -1.28243 0
M  V30 659 C 57.8058 -0.288576 -1.86986 0
M  V30 660 O 57.1488 0.735408 -1.68337 0
M  V30 661 C 57.2108 -2.62632 -2.45489 0
M  V30 662 C 56.8748 -4.071 -2.07651 0
M  V30 663 C 57.8718 -4.94049 -1.61901 0
M  V30 664 C 55.5568 -4.52801 -2.17431 0
M  V30 665 C 57.5508 -6.24736 -1.26428 0
M  V30 666 C 55.2378 -5.83503 -1.8157 0
M  V30 667 C 56.2358 -6.69294 -1.36142 0
M  V30 668 O 55.9238 -7.9756 -1.00764 0
M  V30 669 H 55.6558 -0.54834 -0.395347 0
M  V30 670 H 58.2098 -1.96002 -0.614204 0
M  V30 671 H 56.4398 -2.2378 -3.15372 0
M  V30 672 H 58.1288 -2.64925 -3.07522 0
M  V30 673 H 58.8948 -4.5997 -1.53795 0
M  V30 674 H 54.7738 -3.86196 -2.51742 0
M  V30 675 H 58.3178 -6.91652 -0.908992 0
M  V30 676 H 54.2148 -6.17112 -1.89324 0
M  V30 677 H 54.9828 -8.10529 -1.13952 0
M  V30 678 N 57.6459 0.756429 -1.3826 0
M  V30 679 C 58.8759 1.54341 -1.3734 0
M  V30 680 C 59.2839 1.89159 0.0393917 0
M  V30 681 O 58.6269 1.5307 1.01565 0
M  V30 682 C 58.6889 2.87238 -2.16182 0
M  V30 683 C 58.3529 2.74973 -3.65019 0
M  V30 684 C 59.3499 2.44962 -4.58574 0
M  V30 685 C 57.0349 2.92515 -4.08338 0
M  V30 686 C 59.0289 2.32642 -5.93428 0
M  V30 687 C 56.7159 2.79815 -5.43274 0
M  V30 688 C 57.7139 2.49921 -6.35632 0
M  V30 689 O 57.4019 2.37275 -7.68086 0
M  V30 690 H 57.1339 0.484281 -0.471643 0
M  V30 691 H 59.6879 0.944152 -1.82414 0
M  V30 692 H 57.9179 3.49342 -1.65822 0
M  V30 693 H 59.6069 3.48731 -2.07705 0
M  V30 694 H 60.3729 2.31081 -4.26412 0
M  V30 695 H 56.2519 3.14781 -3.368 0
M  V30 696 H 59.7959 2.0923 -6.65484 0
M  V30 697 H 55.6929 2.93269 -5.75034 0
M  V30 698 H 56.4609 2.52509 -7.78577 0
M  V30 699 N 59.124 1.23083 0.984299 0
M  V30 700 C 60.034 1.02515 2.11016 0
M  V30 701 C 61.05 -0.0291702 1.73976 0
M  V30 702 O 62.226 0.165434 2.00719 0
M  V30 703 C 59.291 0.614673 3.41208 0
M  V30 704 C 58.352 1.74359 3.92297 0
M  V30 705 C 57.585 1.35261 5.16275 0
M  V30 706 O 57.808 0.235136 5.69915 0
M  V30 707 O 56.742 2.17227 5.61334 0
M  V30 708 H 60.568 1.96862 2.31255 0
M  V30 709 H 58.153 1.01753 1.09392 0
M  V30 710 H 60.035 0.396518 4.1953 0
M  V30 711 H 58.71 -0.299851 3.22308 0
M  V30 712 H 57.617 2.01635 3.1511 0
M  V30 713 H 58.95 2.63629 4.15645 0
M  V30 714 N 60.6021 -1.18246 1.0419 0
M  V30 715 C 61.5501 -2.23968 0.627792 0
M  V30 716 C 62.5441 -1.65828 -0.346019 0
M  V30 717 O 63.7501 -1.78733 -0.213175 0
M  V30 718 H 60.1251 -0.728939 0.184802 0
M  V30 719 H 62.0961 -2.56202 1.52981 0
M  V30 720 C 60.8451 -3.47699 0.00796591 0
M  V30 721 H 60.1681 -3.92734 0.748347 0
M  V30 722 H 61.6081 -4.23294 -0.24455 0
M  V30 723 C 60.0671 -3.13153 -1.24246 0
M  V30 724 O 60.5971 -3.27003 -2.33307 0
M  V30 725 N 58.8031 -2.67467 -1.13622 0
M  V30 726 H 58.3501 -2.56396 -0.248734 0
M  V30 727 H 58.3081 -2.44724 -1.97377 0
M  V30 728 N 62.0802 -0.821533 -1.34494 0
M  V30 729 C 63.4962 -0.507117 -1.51329 0
M  V30 730 C 63.6962 0.968964 -1.76673 0
M  V30 731 O 62.7522 1.75348 -1.81685 0
M  V30 732 C 64.0652 -1.36544 -2.67911 0
M  V30 733 C 65.6132 -1.36242 -2.81793 0
M  V30 734 C 66.0882 -2.2052 -4.01416 0
M  V30 735 N 67.5792 -2.18136 -4.08621 0
M  V30 736 C 68.3142 -2.80095 -5.00334 0
M  V30 737 N 67.8102 -3.51039 -5.9728 0
M  V30 738 N 69.6032 -2.69656 -4.93196 0
M  V30 739 H 61.7542 -1.77729 -1.16302 0
M  V30 740 H 64.0172 -0.757291 -0.570276 0
M  V30 741 H 63.7232 -2.41361 -2.55808 0
M  V30 742 H 63.5972 -1.02917 -3.62888 0
M  V30 743 H 65.9842 -0.322041 -2.93338 0
M  V30 744 H 66.0652 -1.73866 -1.87628 0
M  V30 745 H 65.7092 -3.24607 -3.90631 0
M  V30 746 H 65.6392 -1.80247 -4.94791 0
M  V30 747 H 68.1302 -1.6653 -3.39229 0
M  V30 748 H 68.4432 -3.95565 -6.63889 0
M  V30 749 H 66.7882 -3.55145 -5.97409 0
M  V30 750 H 69.9792 -2.13808 -4.16418 0
M  V30 751 H 70.1522 -3.1823 -5.64476 0
M  V30 752 N 63.5583 1.46682 -0.576371 0
M  V30 753 C 64.5053 2.30241 0.160499 0
M  V30 754 C 65.4753 1.40233 0.890162 0
M  V30 755 O 66.6603 1.69186 0.882084 0
M  V30 756 C 63.8003 3.24578 1.1723 0
M  V30 757 C 62.9133 4.29684 0.446736 0
M  V30 758 C 62.0483 5.11154 1.44551 0
M  V30 759 C 61.0873 6.08015 0.70599 0
M  V30 760 N 60.2243 6.82376 1.65251 0
M  V30 761 H 65.0643 2.92727 -0.558127 0
M  V30 762 H 62.6013 1.44272 -0.287056 0
M  V30 763 H 64.5593 3.77711 1.77172 0
M  V30 764 H 63.1893 2.63916 1.85872 0
M  V30 765 H 62.2413 3.79458 -0.267594 0
M  V30 766 H 63.5533 4.98626 -0.131686 0
M  V30 767 H 62.7073 5.68533 2.11791 0
M  V30 768 H 61.4463 4.42158 2.05786 0
M  V30 769 H 60.4513 5.49796 0.0197725 0
M  V30 770 H 61.6763 6.79028 0.09912 0
M  V30 771 H 59.6223 6.16094 2.25308 0
M  V30 772 H 59.5393 7.47556 1.12673 0
M  V30 773 H 60.8073 7.44316 2.31546 0
M  V30 774 N 65.0364 0.313813 1.54444 0
M  V30 775 C 66.2824 -0.292108 2.00685 0
M  V30 776 C 66.6154 -1.52548 1.20177 0
M  V30 777 O 65.8904 -1.92452 0.281531 0
M  V30 778 C 66.1734 -0.635968 3.5444 0
M  V30 779 C 66.0264 0.607437 4.4568 0
M  V30 780 C 67.3454 -1.45747 4.15266 0
M  V30 781 H 64.4644 -0.104697 0.729526 0
M  V30 782 H 67.1064 0.428457 1.85106 0
M  V30 783 H 65.2564 -1.24986 3.67846 0
M  V30 784 H 66.9284 1.24581 4.44159 0
M  V30 785 H 65.1714 1.23822 4.15753 0
M  V30 786 H 65.8424 0.322515 5.51057 0
M  V30 787 H 68.3184 -0.938645 4.05375 0
M  V30 788 H 67.1944 -1.66683 5.2298 0
M  V30 789 H 67.4554 -2.45063 3.67963 0
M  V30 790 N 66.5145 -1.57545 0.0417849 0
M  V30 791 C 67.4475 -2.06514 -0.970928 0
M  V30 792 C 68.4255 -0.963607 -1.30971 0
M  V30 793 O 69.6095 -1.23486 -1.4242 0
M  V30 794 C 66.7365 -2.4978 -2.28752 0
M  V30 795 C 65.7825 -3.71078 -2.10246 0
M  V30 796 S 66.6155 -5.17158 -1.38952 0
M  V30 797 C 67.7715 -5.6373 -2.71954 0
M  V30 798 H 68.0045 -2.9209 -0.554129 0
M  V30 799 H 65.5375 -1.53459 -0.17024 0
M  V30 800 H 67.4955 -2.75371 -3.04435 0
M  V30 801 H 66.1565 -1.64527 -2.67562 0
M  V30 802 H 65.3495 -3.9924 -3.07609 0
M  V30 803 H 64.9515 -3.45705 -1.42704 0
M  V30 804 H 67.2435 -5.68743 -3.68154 0
M  V30 805 H 68.1865 -6.63086 -2.4844 0
M  V30 806 H 68.5945 -4.91424 -2.77782 0
M  V30 807 N 67.9926 0.231505 -1.5589 0
M  V30 808 C 68.9556 1.27028 -1.90779 0
M  V30 809 C 69.9556 1.40308 -0.785507 0
M  V30 810 O 71.1456 1.38744 -1.05336 0
M  V30 811 C 68.2776 2.64566 -2.14983 0
M  V30 812 H 69.4706 0.973017 -2.83677 0
M  V30 813 H 67.0236 0.471486 -1.49019 0
M  V30 814 H 67.7586 2.99406 -1.24604 0
M  V30 815 H 67.5436 2.56305 -2.96732 0
M  V30 816 H 69.0336 3.39543 -2.43105 0
M  V30 817 N 69.4707 1.49531 0.497807 0
M  V30 818 C 70.3807 1.69176 1.62532 0
M  V30 819 C 71.3967 0.5744 1.64246 0
M  V30 820 O 72.5727 0.849497 1.82608 0
M  V30 821 C 69.6377 1.75695 2.98885 0
M  V30 822 C 68.6987 2.9929 3.07773 0
M  V30 823 C 67.9317 3.05488 4.37622 0
M  V30 824 O 68.1547 2.19192 5.26603 0
M  V30 825 O 67.0887 3.9798 4.51548 0
M  V30 826 H 70.9147 2.647 1.48887 0
M  V30 827 H 68.4997 1.3331 0.674441 0
M  V30 828 H 70.3817 1.82317 3.79919 0
M  V30 829 H 69.0567 0.8335 3.12785 0
M  V30 830 H 67.9637 2.98183 2.25915 0
M  V30 831 H 69.2967 3.91125 2.98801 0
M  V30 832 N 70.9488 -0.749086 1.3866 0
M  V30 833 C 71.9118 -1.84457 1.36045 0
M  V30 834 C 72.9118 -1.58682 0.260122 0
M  V30 835 O 74.1018 -1.66343 0.517261 0
M  V30 836 C 71.2338 -3.22008 1.11911 0
M  V30 837 H 72.4268 -1.88182 2.33512 0
M  V30 838 H 69.9798 -0.951266 1.24019 0
M  V30 839 H 70.7148 -3.2395 0.150686 0
M  V30 840 H 70.4998 -3.42111 1.91579 0
M  V30 841 H 71.9898 -4.0208 1.12788 0
M  V30 842 N 72.4269 -1.23603 -0.977757 0
M  V30 843 C 73.3589 -0.977369 -2.07317 0
M  V30 844 C 74.3719 0.0495845 -1.62724 0
M  V30 845 O 75.5609 -0.186261 -1.77526 0
M  V30 846 C 72.6609 -0.451216 -3.35883 0
M  V30 847 C 71.8339 -1.53896 -4.09432 0
M  V30 848 C 70.8929 -1.01721 -5.16274 0
M  V30 849 O 69.9189 -1.70676 -5.43009 0
M  V30 850 N 71.1209 0.153594 -5.80297 0
M  V30 851 H 73.8859 -1.92047 -2.30082 0
M  V30 852 H 71.4469 -1.14497 -1.14465 0
M  V30 853 H 73.4389 -0.0871574 -4.04606 0
M  V30 854 H 72.0089 0.397368 -3.10064 0
M  V30 855 H 71.2289 -2.07566 -3.35127 0
M  V30 856 H 72.5169 -2.27037 -4.55337 0
M  V30 857 H 71.9149 0.730323 -5.60966 0
M  V30 858 H 70.4719 0.458892 -6.50183 0
M  V30 859 N 73.905 1.17692 -1.04816 0
M  V30 860 C 74.853 2.23632 -0.63966 0
M  V30 861 C 75.847 1.6601 0.337219 0
M  V30 862 O 77.053 1.78844 0.203693 0
M  V30 863 H 73.428 0.727949 -0.188665 0
M  V30 864 H 75.399 2.55387 -1.54337 0
M  V30 865 C 74.148 3.4769 -0.0264051 0
M  V30 866 H 73.471 3.92331 -0.769164 0
M  V30 867 H 74.911 4.23418 0.222098 0
M  V30 868 C 73.37 3.13807 1.22584 0
M  V30 869 O 73.9 3.28236 2.31569 0
M  V30 870 N 72.106 2.68065 1.12202 0
M  V30 871 H 71.653 2.56525 0.235133 0
M  V30 872 H 71.611 2.45767 1.96076 0
M  V30 873 N 75.3831 0.828654 1.34056 0
M  V30 874 C 76.6321 0.415828 1.97367 0
M  V30 875 C 76.9451 -1.02796 1.6641 0
M  V30 876 O 78.1511 -1.54497 2.23255 0
M  V30 877 C 76.6071 0.692601 3.53173 0
M  V30 878 C 76.2151 2.15038 3.93017 0
M  V30 879 C 77.9591 0.346222 4.23086 0
M  V30 880 C 75.8661 2.37174 5.41758 0
M  V30 881 H 74.7961 0.151755 0.738571 0
M  V30 882 H 77.4471 1.01581 1.52819 0
M  V30 883 H 75.8291 0.0223764 3.95994 0
M  V30 884 H 77.0031 2.86024 3.61285 0
M  V30 885 H 75.3181 2.45875 3.36057 0
M  V30 886 H 77.9151 0.48937 5.32456 0
M  V30 887 H 78.2581 -0.709842 4.10204 0
M  V30 888 H 78.7911 0.971258 3.85761 0
M  V30 889 H 75.5301 3.41308 5.59633 0
M  V30 890 H 75.0501 1.70738 5.74986 0
M  V30 891 H 76.7291 2.19818 6.08514 0
M  V30 892 N 76.8612 -1.46375 0.584142 0
M  V30 893 C 78.0912 -2.06461 0.0758195 0
M  V30 894 C 78.4992 -1.43322 -1.23512 0
M  V30 895 O 77.8422 -0.533216 -1.75791 0
M  V30 896 C 77.9042 -3.59131 -0.162773 0
M  V30 897 C 77.5682 -4.4447 1.06279 0
M  V30 898 C 78.5652 -4.80918 1.97519 0
M  V30 899 C 76.2502 -4.85584 1.28504 0
M  V30 900 C 78.2442 -5.57309 3.09331 0
M  V30 901 C 75.9312 -5.61734 2.4062 0
M  V30 902 C 76.9292 -5.9751 3.30863 0
M  V30 903 O 76.6172 -6.72121 4.41032 0
M  V30 904 H 76.3492 -0.673745 0.0551725 0
M  V30 905 H 78.9032 -1.88969 0.804984 0
M  V30 906 H 77.1332 -3.74936 -0.946565 0
M  V30 907 H 78.8222 -4.0114 -0.619782 0
M  V30 908 H 79.5882 -4.49732 1.81565 0
M  V30 909 H 75.4672 -4.57187 0.591702 0
M  V30 910 H 79.0112 -5.85152 3.79793 0
M  V30 911 H 74.9082 -5.92334 2.56537 0
M  V30 912 H 75.6762 -6.90547 4.39417 0
M  V30 913 N 78.3393 -0.321999 -1.54275 0
M  V30 914 C 79.2493 0.553631 -2.27974 0
M  V30 915 C 80.2653 1.13054 -1.32268 0
M  V30 916 O 81.4413 1.15084 -1.6528 0
M  V30 917 C 78.5063 1.69927 -3.02201 0
M  V30 918 C 77.5673 1.15433 -4.1349 0
M  V30 919 C 76.8003 2.24537 -4.84168 0
M  V30 920 O 77.0233 3.44852 -4.5435 0
M  V30 921 O 75.9573 1.90044 -5.7111 0
M  V30 922 H 79.7833 -0.0448345 -3.03667 0
M  V30 923 H 77.3683 -0.0877418 -1.49142 0
M  V30 924 H 79.2503 2.3663 -3.48689 0
M  V30 925 H 77.9253 2.28395 -2.29385 0
M  V30 926 H 76.8323 0.452436 -3.71354 0
M  V30 927 H 78.1653 0.614805 -4.88345 0
M  V30 928 N 79.8174 1.5752 -0.0501392 0
M  V30 929 C 80.7644 2.1147 0.924603 0
M  V30 930 C 81.7344 1.02182 1.30951 0
M  V30 931 O 82.9194 1.29723 1.39916 0
M  V30 932 C 80.0594 2.66337 2.19451 0
M  V30 933 C 79.1724 3.89708 1.86418 0
M  V30 934 C 78.3074 4.32893 3.07859 0
M  V30 935 C 77.3464 5.48967 2.70742 0
M  V30 936 N 76.4834 5.87211 3.84874 0
M  V30 937 H 81.3234 2.94465 0.457639 0
M  V30 938 H 78.8604 1.45531 0.214266 0
M  V30 939 H 80.8184 2.96247 2.93758 0
M  V30 940 H 79.4484 1.86141 2.63726 0
M  V30 941 H 78.5004 3.66396 1.02264 0
M  V30 942 H 79.8124 4.74074 1.55096 0
M  V30 943 H 78.9664 4.6435 3.90466 0
M  V30 944 H 77.7054 3.47336 3.42358 0
M  V30 945 H 76.7104 5.17183 1.86551 0
M  V30 946 H 77.9354 6.3624 2.37436 0
M  V30 947 H 75.8814 5.04607 4.19175 0
M  V30 948 H 75.7984 6.66266 3.57247 0
M  V30 949 H 77.0664 6.23282 4.68123 0
M  V30 950 N 81.2955 -0.223234 1.56011 0
M  V30 951 C 82.5205 -0.968978 1.83373 0
M  V30 952 C 82.9455 -1.77227 0.630254 0
M  V30 953 O 82.3035 -1.76345 -0.420959 0
M  V30 954 C 82.3515 -1.86363 3.08709 0
M  V30 955 O 81.4555 -2.95873 2.87285 0
M  V30 956 H 80.7965 -0.274461 0.604622 0
M  V30 957 H 83.3265 -0.237056 2.03222 0
M  V30 958 H 83.3365 -2.27376 3.38768 0
M  V30 959 H 82.0115 -1.27319 3.95933 0
M  V30 960 H 80.5885 -2.58818 2.68454 0
M  V30 961 N 82.7736 -1.49793 -0.48987 0
M  V30 962 C 84.1846 -1.52914 -1.07118 0
M  V30 963 C 84.5356 -0.321738 -1.93544 0
M  V30 964 O 83.6606 0.567338 -2.08831 0
M  V30 965 C 84.2556 -2.771 -1.94938 0
M  V30 966 C 82.8146 -2.82963 -2.48212 0
M  V30 967 C 81.9616 -2.46972 -1.26096 0
M  V30 968 H 84.9126 -1.56329 -0.273289 0
M  V30 969 H 84.9336 -2.57892 -2.79771 0
M  V30 970 H 84.4456 -3.64959 -1.32009 0
M  V30 971 H 82.5466 -1.99411 -3.14748 0
M  V30 972 H 82.6596 -3.85406 -2.84603 0
M  V30 973 H 81.0236 -1.98994 -1.58976 0
M  V30 974 H 81.8066 -3.37118 -0.648581 0
M  V30 975 N 84.2517 0.741722 -1.39055 0
M  V30 976 C 85.1847 1.86416 -1.31622 0
M  V30 977 C 86.1627 1.61473 -0.191076 0
M  V30 978 O 87.3467 1.84825 -0.370399 0
M  V30 979 C 84.4737 3.22266 -1.04221 0
M  V30 980 C 83.5197 3.66079 -2.18834 0
M  V30 981 S 84.3527 3.7623 -3.81066 0
M  V30 982 C 85.5087 5.14881 -3.55877 0
M  V30 983 H 85.7417 1.92437 -2.26617 0
M  V30 984 H 83.2747 0.905907 -1.25031 0
M  V30 985 H 85.2327 4.00714 -0.890964 0
M  V30 986 H 83.8937 3.1391 -0.109237 0
M  V30 987 H 83.0867 4.64648 -1.95238 0
M  V30 988 H 82.6887 2.94817 -2.30128 0
M  V30 989 H 84.9807 6.01006 -3.12726 0
M  V30 990 H 85.9237 5.43503 -4.53884 0
M  V30 991 H 86.3317 4.84239 -2.90126 0
M  V30 992 N 85.7298 1.2412 0.971189 0
M  V30 993 C 86.6398 1.04747 2.09917 0
M  V30 994 C 87.6558 -0.0107162 1.73997 0
M  V30 995 O 88.8318 0.186714 2.00533 0
M  V30 996 C 85.8968 0.650828 3.40537 0
M  V30 997 C 84.9578 1.7851 3.90426 0
M  V30 998 C 84.1908 1.40729 5.14812 0
M  V30 999 O 84.4138 0.29557 5.69634 0
M  V30 1000 O 83.3478 2.23168 5.58999 0
M  V30 1001 H 87.1738 1.99304 2.29154 0
M  V30 1002 H 84.7588 1.02908 1.08307 0
M  V30 1003 H 86.6408 0.440992 4.19086 0
M  V30 1004 H 85.3158 -0.265649 3.22608 0
M  V30 1005 H 84.2228 2.04966 3.12953 0
M  V30 1006 H 85.5558 2.68023 4.12825 0
M  V30 1007 N 87.2079 -1.17134 1.05439 0
M  V30 1008 C 88.1179 -2.24878 0.668365 0
M  V30 1009 C 89.1339 -1.71186 -0.311687 0
M  V30 1010 O 90.3099 -2.00738 -0.163161 0
M  V30 1011 C 87.3749 -3.46662 0.051648 0
M  V30 1012 C 86.4359 -4.15429 1.08246 0
M  V30 1013 C 85.6689 -5.31399 0.495082 0
M  V30 1014 O 85.8919 -5.66153 -0.694743 0
M  V30 1015 O 84.8259 -5.89187 1.23056 0
M  V30 1016 H 88.6519 -2.60189 1.56637 0
M  V30 1017 H 86.2369 -1.24482 0.826104 0
M  V30 1018 H 88.1189 -4.20394 -0.290966 0
M  V30 1019 H 86.7939 -3.13142 -0.819971 0
M  V30 1020 H 85.7009 -3.43704 1.47711 0
M  V30 1021 H 87.0339 -4.52982 1.92532 0
M  V30 1022 N 88.686 -0.835752 -1.33615 0
M  V30 1023 C 89.618 -0.224151 -2.28101 0
M  V30 1024 C 90.631 0.593331 -1.51603 0
M  V30 1025 O 91.82 0.420911 -1.73466 0
M  V30 1026 C 88.92 0.703309 -3.31522 0
M  V30 1027 C 88.093 -0.0741528 -4.37337 0
M  V30 1028 C 87.152 0.776176 -5.20444 0
M  V30 1029 O 86.178 0.216506 -5.68788 0
M  V30 1030 N 87.38 2.09401 -5.41416 0
M  V30 1031 H 90.145 -1.03598 -2.81225 0
M  V30 1032 H 87.706 -0.69392 -1.46275 0
M  V30 1033 H 89.698 1.27707 -3.84022 0
M  V30 1034 H 88.268 1.41585 -2.78698 0
M  V30 1035 H 87.488 -0.82928 -3.85378 0
M  V30 1036 H 88.776 -0.608863 -5.05144 0
M  V30 1037 H 88.174 2.57229 -5.03835 0
M  V30 1038 H 86.731 2.61633 -5.96985 0
M  V30 1039 N 90.1641 1.46063 -0.591896 0
M  V30 1040 C 91.3891 2.07226 -0.0850314 0
M  V30 1041 C 91.8141 1.43625 1.21463 0
M  V30 1042 O 91.1721 0.523305 1.73583 0
M  V30 1043 C 91.2201 3.60554 0.0576567 0
M  V30 1044 O 90.3241 3.97128 1.11188 0
M  V30 1045 H 89.6651 0.660615 -0.0669568 0
M  V30 1046 H 92.1951 1.8756 -0.81745 0
M  V30 1047 H 92.2051 4.07165 0.2609 0
M  V30 1048 H 90.8801 4.06235 -0.891416 0
M  V30 1049 H 89.4571 3.62213 0.886356 0
M  V30 1050 N 91.6422 0.330177 1.54103 0
M  V30 1051 C 92.5742 -0.566902 2.22079 0
M  V30 1052 C 93.5872 -1.07462 1.22294 0
M  V30 1053 O 94.7762 -0.987065 1.48726 0
M  V30 1054 C 91.8762 -1.79138 2.87685 0
M  V30 1055 C 91.0492 -1.42123 4.13666 0
M  V30 1056 C 90.1082 -2.50394 4.62806 0
M  V30 1057 O 89.1342 -2.14261 5.27334 0
M  V30 1058 N 90.3362 -3.81433 4.37595 0
M  V30 1059 H 93.1012 0.0151844 2.99696 0
M  V30 1060 H 90.6622 0.153681 1.61169 0
M  V30 1061 H 92.6542 -2.50975 3.1748 0
M  V30 1062 H 91.2242 -2.28115 2.13734 0
M  V30 1063 H 90.4442 -0.534201 3.90564 0
M  V30 1064 H 91.7322 -1.14971 4.9564 0
M  V30 1065 H 91.1302 -4.13584 3.8596 0
M  V30 1066 H 89.6872 -4.4948 4.72029 0
M  V30 1067 N 93.1203 -1.57491 0.0584922 0
M  V30 1068 C 94.3973 -1.84346 -0.653918 0
M  V30 1069 C 94.7773 -0.948355 -1.88599 0
M  V30 1070 O 94.1253 -0.0112403 -2.28497 0
M  V30 1071 C 94.3353 -3.34239 -1.00425 0
M  V30 1072 C 95.6833 -4.01431 -1.38342 0
M  V30 1073 O 96.7073 -3.38907 -1.09637 0
M  V30 1074 O 95.5663 -5.11683 -1.91943 0
M  V30 1075 H 92.6603 -0.761112 -0.323478 0
M  V30 1076 H 95.2063 -1.6947 0.0884125 0
M  V30 1077 H 93.9783 -3.91089 -0.128625 0
M  V30 1078 H 93.6013 -3.54329 -1.80378 0
M  V30 1079 N 94.5984 0.214957 -1.56127 0
M  V30 1080 C 95.8464 0.936518 -1.79091 0
M  V30 1081 C 96.1674 1.84606 -0.628148 0
M  V30 1082 O 95.4374 1.92664 0.35462 0
M  V30 1083 H 94.0174 0.3488 -0.660566 0
M  V30 1084 H 96.6794 0.22523 -1.93594 0
M  V30 1085 H 95.7754 1.53943 -2.71492 0
M  V30 1086 N 96.0765 1.50051 0.48192 0
M  V30 1087 C 96.9865 1.7089 1.60728 0
M  V30 1088 C 98.0025 0.591788 1.63627 0
M  V30 1089 O 99.1785 0.868817 1.81696 0
M  V30 1090 C 96.2435 1.78855 2.97005 0
M  V30 1091 C 95.3045 3.02537 3.04581 0
M  V30 1092 C 94.5375 3.10112 4.34357 0
M  V30 1093 O 94.7605 2.24765 5.24249 0
M  V30 1094 O 93.6945 4.02747 4.47301 0
M  V30 1095 H 97.5205 2.66264 1.46072 0
M  V30 1096 H 95.1055 1.34018 0.660264 0
M  V30 1097 H 96.9875 1.86336 3.77964 0
M  V30 1098 H 95.6625 0.866628 3.11883 0
M  V30 1099 H 94.5695 3.00563 2.22739 0
M  V30 1100 H 95.9025 3.94272 2.94636 0
M  V30 1101 N 97.5546 -0.734337 1.39446 0
M  V30 1102 C 98.8006 -1.49613 1.36908 0
M  V30 1103 C 99.1336 -1.94169 -0.0347829 0
M  V30 1104 O 98.4086 -1.66833 -0.999847 0
M  V30 1105 C 98.6916 -2.73534 2.34203 0
M  V30 1106 C 98.5446 -2.34993 3.83534 0
M  V30 1107 C 99.8636 -3.75635 2.29317 0
M  V30 1108 H 96.9826 -0.542714 0.498629 0
M  V30 1109 H 99.6246 -0.839597 1.70443 0
M  V30 1110 H 97.7746 -3.29553 2.05736 0
M  V30 1111 H 99.4466 -1.84601 4.22753 0
M  V30 1112 H 97.6896 -1.67213 4.00278 0
M  V30 1113 H 98.3606 -3.23738 4.47099 0
M  V30 1114 H 100.837 -3.29203 2.54489 0
M  V30 1115 H 99.7126 -4.60008 2.99472 0
M  V30 1116 H 99.9736 -4.22603 1.29842 0
M  V30 1117 N 99.0327 -1.24633 -0.964593 0
M  V30 1118 C 100.449 -1.01239 -1.2338 0
M  V30 1119 C 100.649 0.2769 -1.99588 0
M  V30 1120 O 99.7047 0.992241 -2.32187 0
M  V30 1121 C 101.018 -2.22937 -2.01791 0
M  V30 1122 C 102.566 -2.27594 -2.14872 0
M  V30 1123 C 103.041 -3.48921 -2.96678 0
M  V30 1124 N 104.532 -3.49257 -3.04259 0
M  V30 1125 C 105.267 -4.39795 -3.67924 0
M  V30 1126 N 104.763 -5.40591 -4.33281 0
M  V30 1127 N 106.556 -4.275 -3.64966 0
M  V30 1128 H 98.7067 -2.0748 -0.454502 0
M  V30 1129 H 100.97 -0.910647 -0.26349 0
M  V30 1130 H 100.676 -3.16587 -1.53184 0
M  V30 1131 H 100.55 -2.25306 -3.02518 0
M  V30 1132 H 102.937 -1.34473 -2.6268 0
M  V30 1133 H 103.018 -2.2925 -1.13482 0
M  V30 1134 H 102.662 -4.42359 -2.49562 0
M  V30 1135 H 102.592 -3.4451 -3.98272 0
M  V30 1136 H 105.083 -2.76337 -2.57771 0
M  V30 1137 H 105.396 -6.05904 -4.79687 0
M  V30 1138 H 103.741 -5.44475 -4.3194 0
M  V30 1139 H 106.932 -3.47987 -3.13086 0
M  V30 1140 H 107.105 -4.98258 -4.14298 0
M  V30 1141 N 100.511 1.16574 -1.06058 0
M  V30 1142 C 101.458 2.20883 -0.669263 0
M  V30 1143 C 102.428 1.62729 0.332918 0
M  V30 1144 O 103.613 1.895 0.222346 0
M  V30 1145 C 100.753 3.45049 -0.0593572 0
M  V30 1146 C 99.8658 4.17458 -1.11143 0
M  V30 1147 C 99.0008 5.29135 -0.467916 0
M  V30 1148 C 98.0398 5.93343 -1.50369 0
M  V30 1149 N 97.1768 6.96516 -0.883706 0
M  V30 1150 H 102.017 2.53709 -1.5632 0
M  V30 1151 H 99.5538 1.24616 -0.781625 0
M  V30 1152 H 101.512 4.16033 0.311771 0
M  V30 1153 H 100.142 3.12781 0.797992 0
M  V30 1154 H 99.1938 3.45101 -1.60029 0
M  V30 1155 H 100.506 4.61307 -1.89731 0
M  V30 1156 H 99.6598 6.06684 -0.0436871 0
M  V30 1157 H 98.3988 4.86443 0.349864 0
M  V30 1158 H 97.4038 5.14517 -1.93784 0
M  V30 1159 H 98.6288 6.38114 -2.32352 0
M  V30 1160 H 96.5748 6.55943 -0.086595 0
M  V30 1161 H 96.4918 7.38723 -1.607 0
M  V30 1162 H 97.7598 7.77993 -0.484543 0
M  V30 1163 N 101.989 0.842826 1.3317 0
M  V30 1164 C 102.921 0.236245 2.27979 0
M  V30 1165 C 103.934 -0.585282 1.51915 0
M  V30 1166 O 105.123 -0.411705 1.73687 0
M  V30 1167 C 102.223 -0.685717 3.3189 0
M  V30 1168 C 101.396 0.0973448 4.37292 0
M  V30 1169 C 100.455 -0.748565 5.20848 0
M  V30 1170 O 99.4809 -0.186339 5.68895 0
M  V30 1171 N 100.683 -2.06527 5.42519 0
M  V30 1172 H 103.448 1.05088 2.80672 0
M  V30 1173 H 101.009 0.701667 1.45905 0
M  V30 1174 H 103.001 -1.25669 3.84694 0
M  V30 1175 H 101.571 -1.40105 2.79445 0
M  V30 1176 H 100.791 0.849706 3.84933 0
M  V30 1177 H 102.079 0.635643 5.04814 0
M  V30 1178 H 101.477 -2.54554 5.05192 0
M  V30 1179 H 100.034 -2.58464 5.98364 0
M  V30 1180 N 103.467 -1.45747 0.599634 0
M  V30 1181 C 104.714 -2.02292 0.0917284 0
M  V30 1182 C 105.042 -1.46906 -1.27472 0
M  V30 1183 O 104.297 -0.630652 -1.8526 0
M  V30 1184 C 104.596 -3.57399 -0.00602758 0
M  V30 1185 C 104.262 -4.31902 1.29503 0
M  V30 1186 C 102.924 -4.51974 1.65144 0
M  V30 1187 C 105.276 -4.74551 2.15525 0
M  V30 1188 C 102.604 -5.11949 2.86574 0
M  V30 1189 C 104.956 -5.35868 3.36196 0
M  V30 1190 C 103.62 -5.54165 3.72099 0
M  V30 1191 H 102.89 -0.740239 0.0335658 0
M  V30 1192 H 105.537 -1.7491 0.779661 0
M  V30 1193 H 103.842 -3.84014 -0.777183 0
M  V30 1194 H 105.539 -3.98846 -0.415038 0
M  V30 1195 H 102.129 -4.16588 1.00761 0
M  V30 1196 H 106.313 -4.58784 1.8929 0
M  V30 1197 H 101.569 -5.24305 3.14507 0
M  V30 1198 H 105.743 -5.6787 4.03109 0
M  V30 1199 H 103.37 -6.00406 4.6628 0
M  V30 1200 N 104.945 -0.338344 -1.53925 0
M  V30 1201 C 105.892 0.520845 -2.24846 0
M  V30 1202 C 106.862 1.09976 -1.24477 0
M  V30 1203 O 108.047 1.13735 -1.53196 0
M  V30 1204 C 105.187 1.6685 -3.02084 0
M  V30 1205 C 104.3 1.11739 -4.17299 0
M  V30 1206 C 103.435 2.23193 -4.82036 0
M  V30 1207 C 102.474 1.65407 -5.89328 0
M  V30 1208 N 101.611 2.70582 -6.47866 0
M  V30 1209 H 106.451 -0.0904881 -2.97863 0
M  V30 1210 H 103.988 -0.0564282 -1.46992 0
M  V30 1211 H 105.946 2.34407 -3.45122 0
M  V30 1212 H 104.576 2.2509 -2.31375 0
M  V30 1213 H 103.628 0.332919 -3.7894 0
M  V30 1214 H 104.94 0.654677 -4.94485 0
M  V30 1215 H 104.094 2.98626 -5.28117 0
M  V30 1216 H 102.833 2.72807 -4.04262 0
M  V30 1217 H 101.838 0.884779 -5.42634 0
M  V30 1218 H 103.063 1.16652 -6.69006 0
M  V30 1219 H 101.009 3.1946 -5.72959 0
M  V30 1220 H 100.926 2.28917 -7.20509 0
M  V30 1221 H 102.194 3.45799 -6.98601 0
M  V30 1222 N 106.423 1.57458 -0.0668435 0
M  V30 1223 C 107.386 2.11323 0.887422 0
M  V30 1224 C 108.386 1.03618 1.22964 0
M  V30 1225 O 109.576 1.29626 1.16373 0
M  V30 1226 C 106.708 2.61048 2.19242 0
M  V30 1227 H 107.901 2.96942 0.420194 0
M  V30 1228 H 105.454 1.55239 0.181793 0
M  V30 1229 H 106.189 1.78868 2.70512 0
M  V30 1230 H 105.974 3.39769 1.95702 0
M  V30 1231 H 107.464 3.02814 2.87565 0
M  V30 1232 N 107.901 -0.206675 1.56239 0
M  V30 1233 C 108.831 -1.25909 1.96645 0
M  V30 1234 C 109.812 -1.48097 0.836734 0
M  V30 1235 O 110.997 -1.6003 1.10019 0
M  V30 1236 C 108.127 -2.6058 2.29599 0
M  V30 1237 C 107.081 -2.53024 3.452 0
M  V30 1238 C 106.407 -3.91861 3.63798 0
M  V30 1239 C 107.707 -2.06524 4.79734 0
M  V30 1240 H 109.401 -0.923369 2.84806 0
M  V30 1241 H 106.947 -0.442735 1.37025 0
M  V30 1242 H 108.9 -3.34375 2.56459 0
M  V30 1243 H 107.624 -2.95869 1.38307 0
M  V30 1244 H 106.283 -1.81684 3.18412 0
M  V30 1245 H 105.931 -4.24483 2.69857 0
M  V30 1246 H 105.631 -3.87683 4.4156 0
M  V30 1247 H 107.155 -4.67296 3.93022 0
M  V30 1248 H 108.569 -2.70072 5.05702 0
M  V30 1249 H 106.966 -2.13374 5.60885 0
M  V30 1250 H 108.036 -1.01802 4.74093 0
M  V30 1251 N 109.379 -1.50304 -0.473955 0
M  V30 1252 C 110.311 -1.65109 -1.58971 0
M  V30 1253 C 111.324 -0.532676 -1.53839 0
M  V30 1254 O 112.513 -0.805751 -1.59279 0
M  V30 1255 C 109.613 -1.61684 -2.97845 0
M  V30 1256 C 108.786 -2.8951 -3.27876 0
M  V30 1257 C 107.845 -2.78768 -4.4629 0
M  V30 1258 O 106.871 -3.52722 -4.46739 0
M  V30 1259 N 108.073 -1.9213 -5.47783 0
M  V30 1260 H 110.838 -2.61347 -1.46689 0
M  V30 1261 H 108.399 -1.47732 -0.662324 0
M  V30 1262 H 110.391 -1.52114 -3.75024 0
M  V30 1263 H 108.961 -0.731925 -3.03911 0
M  V30 1264 H 108.181 -3.13228 -2.39336 0
M  V30 1265 H 109.469 -3.74199 -3.4475 0
M  V30 1266 H 108.867 -1.31353 -5.50239 0
M  V30 1267 H 107.424 -1.88466 -6.23958 0
M  V30 1268 N 110.857 0.726932 -1.39834 0
M  V30 1269 C 111.789 1.85147 -1.35104 0
M  V30 1270 C 112.802 1.60736 -0.258392 0
M  V30 1271 O 113.991 1.70821 -0.517931 0
M  V30 1272 C 111.091 3.21332 -1.07697 0
M  V30 1273 C 110.264 3.73033 -2.28396 0
M  V30 1274 C 109.323 4.87802 -1.97322 0
M  V30 1275 O 108.349 5.01043 -2.70083 0
M  V30 1276 N 109.551 5.72768 -0.944273 0
M  V30 1277 H 112.316 1.89706 -2.32017 0
M  V30 1278 H 109.877 0.908006 -1.3404 0
M  V30 1279 H 111.869 3.95691 -0.849144 0
M  V30 1280 H 110.439 3.11992 -0.194909 0
M  V30 1281 H 109.659 2.89934 -2.6708 0
M  V30 1282 H 110.947 4.0431 -3.08887 0
M  V30 1283 H 110.345 5.64669 -0.341427 0
M  V30 1284 H 108.902 6.4716 -0.776346 0
M  V30 1285 N 112.336 1.25143 0.95797 0
M  V30 1286 C 113.585 1.0909 1.69654 0
M  V30 1287 C 113.898 -0.368548 1.92097 0
M  V30 1288 O 115.104 -0.649455 2.63618 0
M  V30 1289 C 113.56 1.90395 3.05414 0
M  V30 1290 C 113.168 3.4081 2.90779 0
M  V30 1291 C 114.912 1.82901 3.83076 0
M  V30 1292 C 112.819 4.14423 4.21909 0
M  V30 1293 H 111.749 0.404625 0.636235 0
M  V30 1294 H 114.4 1.4931 1.06672 0
M  V30 1295 H 112.782 1.42996 3.69281 0
M  V30 1296 H 113.956 3.95859 2.35865 0
M  V30 1297 H 112.271 3.49361 2.26575 0
M  V30 1298 H 114.868 2.35196 4.80195 0
M  V30 1299 H 115.211 0.796224 4.08615 0
M  V30 1300 H 115.744 2.28033 3.25954 0
M  V30 1301 H 112.483 5.18102 4.01561 0
M  V30 1302 H 112.003 3.64159 4.76601 0
M  V30 1303 H 113.682 4.21956 4.90471 0
M  V30 1304 N 113.814 -1.1601 1.06675 0
M  V30 1305 C 114.762 -2.22586 0.675157 0
M  V30 1306 C 115.756 -1.66525 -0.310766 0
M  V30 1307 O 116.962 -1.79145 -0.175215 0
M  V30 1308 H 113.337 -0.724855 0.200223 0
M  V30 1309 H 115.308 -2.52899 1.58381 0
M  V30 1310 C 114.057 -3.47604 0.0817162 0
M  V30 1311 H 113.38 -3.91058 0.831484 0
M  V30 1312 H 114.82 -4.23718 -0.154708 0
M  V30 1313 C 113.279 -3.15718 -1.17576 0
M  V30 1314 O 113.809 -3.31878 -2.26318 0
M  V30 1315 N 112.015 -2.69816 -1.07923 0
M  V30 1316 H 111.562 -2.56866 -0.194293 0
M  V30 1317 H 111.52 -2.48855 -1.92141 0
M  V30 1318 N 115.292 -0.849877 -1.32721 0
M  V30 1319 C 116.224 -0.248332 -2.27851 0
M  V30 1320 C 117.237 0.577218 -1.52224 0
M  V30 1321 O 118.426 0.402489 -1.73903 0
M  V30 1322 C 115.526 0.668107 -3.32249 0
M  V30 1323 C 114.699 -0.120534 -4.37234 0
M  V30 1324 C 113.758 0.720932 -5.21238 0
M  V30 1325 O 112.784 0.156166 -5.68986 0
M  V30 1326 N 113.986 2.03647 -5.43607 0
M  V30 1327 H 116.751 -1.06575 -2.80111 0
M  V30 1328 H 114.312 -0.709395 -1.45531 0
M  V30 1329 H 116.304 1.23627 -3.85355 0
M  V30 1330 H 114.874 1.38621 -2.80184 0
M  V30 1331 H 114.094 -0.870108 -3.84477 0
M  V30 1332 H 115.382 -0.662406 -5.0447 0
M  V30 1333 H 114.78 2.51871 -5.06535 0
M  V30 1334 H 113.337 2.55287 -5.99727 0
M  V30 1335 N 116.77 1.45427 -0.607355 0
M  V30 1336 C 117.68 2.34325 0.113463 0
M  V30 1337 C 118.696 1.51226 0.860617 0
M  V30 1338 O 119.872 1.84029 0.818255 0
M  V30 1339 C 116.937 3.28839 1.09844 0
M  V30 1340 C 115.998 4.27844 0.353271 0
M  V30 1341 C 115.231 5.17842 1.29133 0
M  V30 1342 O 115.454 5.11264 2.52913 0
M  V30 1343 O 114.388 5.96713 0.788523 0
M  V30 1344 H 118.214 2.97364 -0.617094 0
M  V30 1345 H 115.799 1.44807 -0.367619 0
M  V30 1346 H 117.681 3.8708 1.66575 0
M  V30 1347 H 116.356 2.68365 1.81003 0
M  V30 1348 H 115.263 3.7322 -0.256494 0
M  V30 1349 H 116.596 4.91173 -0.317822 0
M  V30 1350 N 118.248 0.346503 1.53744 0
M  V30 1351 C 119.497 -0.250122 2.00143 0
M  V30 1352 C 119.81 -1.51418 1.23822 0
M  V30 1353 O 121.016 -2.18823 1.60713 0
M  V30 1354 C 119.472 -0.496252 3.56462 0
M  V30 1355 C 119.08 0.752077 4.41642 0
M  V30 1356 C 120.824 -1.05157 4.11269 0
M  V30 1357 C 118.731 0.476583 5.89477 0
M  V30 1358 H 117.661 -0.0972409 0.747703 0
M  V30 1359 H 120.312 0.46229 1.77581 0
M  V30 1360 H 118.694 -1.26944 3.75102 0
M  V30 1361 H 119.868 1.5266 4.34778 0
M  V30 1362 H 118.183 1.22925 3.97842 0
M  V30 1363 H 120.78 -1.27269 5.19333 0
M  V30 1364 H 121.123 -2.00799 3.64672 0
M  V30 1365 H 121.656 -0.339019 3.96353 0
M  V30 1366 H 118.395 1.4028 6.40314 0
M  V30 1367 H 117.915 -0.259794 5.99237 0
M  V30 1368 H 119.594 0.0949315 6.4693 0
M  V30 1369 N 119.726 -1.57421 0.075193 0
M  V30 1370 C 120.972 -1.93905 -0.594025 0
M  V30 1371 C 121.305 -0.955701 -1.69056 0
M  V30 1372 O 120.58 0.0145373 -1.94495 0
M  V30 1373 C 120.863 -3.40638 -1.1678 0
M  V30 1374 C 120.716 -4.49733 -0.0776792 0
M  V30 1375 C 122.035 -3.88259 -2.07228 0
M  V30 1376 H 119.154 -0.705105 -0.214466 0
M  V30 1377 H 121.796 -1.8947 0.141854 0
M  V30 1378 H 119.946 -3.44549 -1.79494 0
M  V30 1379 H 121.618 -4.57942 0.555573 0
M  V30 1380 H 119.861 -4.29751 0.591286 0
M  V30 1381 H 120.532 -5.49549 -0.519603 0
M  V30 1382 H 123.008 -3.86376 -1.54445 0
M  V30 1383 H 121.884 -4.91533 -2.44308 0
M  V30 1384 H 122.145 -3.26396 -2.98191 0
M  V30 1385 N 121.204 0.198386 -1.56346 0
M  V30 1386 C 122.452 0.91747 -1.80075 0
M  V30 1387 C 122.773 1.83929 -0.647692 0
M  V30 1388 O 122.043 1.93029 0.334166 0
M  V30 1389 H 120.623 0.341774 -0.664228 0
M  V30 1390 H 123.285 0.204684 -1.93822 0
M  V30 1391 H 122.381 1.51055 -2.7311 0
M  V30 1392 N 122.682 1.50554 0.465978 0
M  V30 1393 C 123.928 1.63006 1.21658 0
M  V30 1394 C 124.283 0.328613 1.89573 0
M  V30 1395 O 123.576 -0.673813 1.79361 0
M  V30 1396 C 123.77 2.75152 2.28093 0
M  V30 1397 C 123.599 4.16075 1.7062 0
M  V30 1398 C 122.369 4.82408 1.50368 0
M  V30 1399 C 124.567 5.00145 1.1983 0
M  V30 1400 N 122.549 6.07532 0.881924 0
M  V30 1401 C 123.92 6.16035 0.700083 0
M  V30 1402 C 125.975 4.85882 1.08733 0
M  V30 1403 C 124.678 7.19228 0.101835 0
M  V30 1404 C 126.704 5.89257 0.503016 0
M  V30 1405 C 126.066 7.04398 0.0152005 0
M  V30 1406 H 122.165 0.650596 0.433877 0
M  V30 1407 H 124.749 1.8769 0.517746 0
M  V30 1408 H 122.92 2.52181 2.95397 0
M  V30 1409 H 124.652 2.76935 2.95109 0
M  V30 1410 H 121.407 4.39788 1.75737 0
M  V30 1411 H 121.831 6.7443 0.589312 0
M  V30 1412 H 126.473 3.97144 1.4504 0
M  V30 1413 H 124.191 8.07637 -0.273426 0
M  V30 1414 H 127.777 5.80286 0.419451 0
M  V30 1415 H 126.657 7.83021 -0.429856 0
M  V30 1416 N 124.16 -0.719506 1.40217 0
M  V30 1417 C 125.409 -1.47486 1.37589 0
M  V30 1418 C 125.722 -1.9559 -0.0201568 0
M  V30 1419 O 126.928 -2.70973 -0.169049 0
M  V30 1420 C 125.384 -2.66575 2.41796 0
M  V30 1421 C 124.992 -2.25358 3.87192 0
M  V30 1422 C 126.736 -3.4433 2.48269 0
M  V30 1423 C 124.643 -3.41262 4.83005 0
M  V30 1424 H 123.573 -0.553901 0.511576 0
M  V30 1425 H 126.224 -0.783427 1.65936 0
M  V30 1426 H 124.606 -3.3787 2.06543 0
M  V30 1427 H 125.78 -1.61509 4.31569 0
M  V30 1428 H 124.095 -1.60657 3.84159 0
M  V30 1429 H 126.692 -4.30569 3.17041 0
M  V30 1430 H 127.035 -3.87872 1.51198 0
M  V30 1431 H 127.568 -2.80076 2.82493 0
M  V30 1432 H 124.307 -3.02755 5.81394 0
M  V30 1433 H 123.827 -4.0404 4.43297 0
M  V30 1434 H 125.506 -4.07383 5.02641 0
M  V30 1435 N 125.638 -1.25649 -0.95132 0
M  V30 1436 C 126.866 -1.13343 -1.73092 0
M  V30 1437 C 127.281 0.312434 -1.86197 0
M  V30 1438 O 126.638 1.21465 -1.36207 0
M  V30 1439 C 126.689 -1.78602 -3.14299 0
M  V30 1440 O 126.41 -3.17537 -3.01831 0
M  V30 1441 C 127.911 -1.72119 -4.08522 0
M  V30 1442 H 125.131 -0.395181 -0.542285 0
M  V30 1443 H 127.675 -1.66076 -1.19328 0
M  V30 1444 H 125.83 -1.29832 -3.64996 0
M  V30 1445 H 126.244 -3.49676 -3.90931 0
M  V30 1446 H 127.718 -2.22435 -5.052 0
M  V30 1447 H 128.195 -0.685635 -4.33815 0
M  V30 1448 H 128.801 -2.20393 -3.63741 0
M  V30 1449 N 127.117 1.15442 -1.07289 0
M  V30 1450 C 128.05 2.19135 -0.636798 0
M  V30 1451 C 129.028 1.58884 0.34562 0
M  V30 1452 O 130.212 1.86805 0.252195 0
M  V30 1453 C 127.339 3.38638 0.0650014 0
M  V30 1454 C 126.385 4.17412 -0.87576 0
M  V30 1455 S 127.218 4.79882 -2.37642 0
M  V30 1456 C 128.374 6.02753 -1.6864 0
M  V30 1457 H 128.607 2.55787 -1.51526 0
M  V30 1458 H 126.14 1.26394 -0.886793 0
M  V30 1459 H 128.098 4.07873 0.463664 0
M  V30 1460 H 126.759 3.00331 0.919801 0
M  V30 1461 H 125.952 5.02909 -0.33143 0
M  V30 1462 H 125.554 3.53722 -1.21478 0
M  V30 1463 H 127.846 6.70113 -0.997753 0
M  V30 1464 H 128.789 6.61754 -2.51967 0
M  V30 1465 H 129.197 5.52355 -1.16465 0
M  V30 1466 N 128.595 0.856903 1.32268 0
M  V30 1467 C 129.872 0.382583 1.91822 0
M  V30 1468 C 130.252 -1.13407 1.78051 0
M  V30 1469 O 129.6 -1.95673 1.18001 0
M  V30 1470 C 129.81 0.849446 3.38505 0
M  V30 1471 C 131.158 0.867936 4.15634 0
M  V30 1472 O 132.182 0.794232 3.47232 0
M  V30 1473 O 131.041 0.972286 5.37781 0
M  V30 1474 H 128.135 0.112014 0.819379 0
M  V30 1475 H 130.681 0.943952 1.41024 0
M  V30 1476 H 129.453 1.89267 3.42482 0
M  V30 1477 H 129.076 0.265652 3.96712 0
M  V30 1478 N 130.073 -1.45103 0.615059 0
M  V30 1479 C 131.35 -1.95549 0.0448276 0
M  V30 1480 C 131.73 -1.55737 -1.4251 0
M  V30 1481 O 131.078 -0.823556 -2.13143 0
M  V30 1482 C 131.288 -3.48098 0.250785 0
M  V30 1483 C 132.636 -4.24384 0.135509 0
M  V30 1484 O 133.66 -3.55738 0.181299 0
M  V30 1485 O 132.519 -5.46493 0.0268878 0
M  V30 1486 H 129.613 -0.8264 -0.0314845 0
M  V30 1487 H 132.159 -1.55232 0.685642 0
M  V30 1488 H 130.931 -3.7007 1.27139 0
M  V30 1489 H 130.554 -3.95323 -0.424937 0
M  V30 1490 N 131.551 -0.354651 -1.53558 0
M  V30 1491 C 132.779 0.239515 -2.05509 0
M  V30 1492 C 133.194 1.4333 -1.2289 0
M  V30 1493 O 132.551 1.80538 -0.266899 0
M  V30 1494 C 132.602 0.643719 -3.55723 0
M  V30 1495 O 132.323 -0.502602 -4.35207 0
M  V30 1496 C 133.824 1.29743 -4.23889 0
M  V30 1497 H 131.044 0.0442697 -0.669538 0
M  V30 1498 H 133.588 -0.509856 -1.98042 0
M  V30 1499 H 131.743 1.34302 -3.63376 0
M  V30 1500 H 132.157 -0.178172 -5.24197 0
M  V30 1501 H 133.631 1.53091 -5.30346 0
M  V30 1502 H 134.108 2.25441 -3.76926 0
M  V30 1503 H 134.714 0.639865 -4.20459 0
M  V30 1504 N 133.029 1.57378 -0.0835403 0
M  V30 1505 C 133.961 2.10389 0.909338 0
M  V30 1506 C 134.974 1.03858 1.25369 0
M  V30 1507 O 136.163 1.31338 1.20882 0
M  V30 1508 C 133.263 2.55908 2.2218 0
M  V30 1509 C 132.436 3.86145 2.05453 0
M  V30 1510 C 131.495 4.17633 3.20108 0
M  V30 1511 O 130.521 4.87043 2.94581 0
M  V30 1512 N 131.723 3.72113 4.45547 0
M  V30 1513 H 134.488 2.962 0.456657 0
M  V30 1514 H 132.049 1.61579 0.101877 0
M  V30 1515 H 134.041 2.74027 2.97811 0
M  V30 1516 H 132.611 1.75171 2.58909 0
M  V30 1517 H 131.831 3.7729 1.1422 0
M  V30 1518 H 133.119 4.7137 1.91541 0
M  V30 1519 H 132.517 3.16062 4.69171 0
M  V30 1520 H 131.074 3.95409 5.18165 0
M  V30 1521 N 134.507 -0.190092 1.56449 0
M  V30 1522 C 135.756 -0.907912 1.80111 0
M  V30 1523 C 136.069 -1.84214 0.657619 0
M  V30 1524 O 137.275 -2.60094 0.778663 0
M  V30 1525 C 135.731 -1.66485 3.19078 0
M  V30 1526 C 135.339 -0.7752 4.41242 0
M  V30 1527 C 137.083 -2.37201 3.52045 0
M  V30 1528 C 134.99 -1.53129 5.71231 0
M  V30 1529 H 133.92 -0.34276 0.671589 0
M  V30 1530 H 136.571 -0.161109 1.82791 0
M  V30 1531 H 134.953 -2.45572 3.10661 0
M  V30 1532 H 136.127 -0.0226298 4.60794 0
M  V30 1533 H 134.442 -0.178627 4.16017 0
M  V30 1534 H 137.039 -2.94329 4.46402 0
M  V30 1535 H 137.382 -3.11632 2.76028 0
M  V30 1536 H 137.915 -1.65075 3.61932 0
M  V30 1537 H 134.654 -0.82967 6.50228 0
M  V30 1538 H 134.174 -2.25767 5.55688 0
M  V30 1539 H 135.853 -2.08377 6.12526 0
M  V30 1540 N 135.985 -1.50799 -0.457987 0
M  V30 1541 C 136.933 -1.71162 -1.575 0
M  V30 1542 C 137.927 -0.577592 -1.59249 0
M  V30 1543 O 139.133 -0.758443 -1.63241 0
M  V30 1544 H 135.508 -0.540468 -0.522875 0
M  V30 1545 H 137.479 -2.64837 -1.37492 0
M  V30 1546 C 136.228 -1.83496 -2.95338 0
M  V30 1547 H 135.551 -2.70153 -2.94716 0
M  V30 1548 H 136.991 -2.01765 -3.72917 0
M  V30 1549 C 135.45 -0.589694 -3.31699 0
M  V30 1550 O 135.98 0.265163 -4.00824 0
M  V30 1551 N 134.186 -0.439845 -2.87252 0
M  V30 1552 H 133.733 -1.13655 -2.31172 0
M  V30 1553 H 133.691 0.392159 -3.11945 0
M  V30 1554 N 137.463 0.71206 -1.40597 0
M  V30 1555 C 138.693 1.49894 -1.42181 0
M  V30 1556 C 139.101 1.89189 -0.0208078 0
M  V30 1557 O 138.444 1.56223 0.966436 0
M  V30 1558 C 138.506 2.80215 -2.25211 0
M  V30 1559 C 138.17 2.63221 -3.73582 0
M  V30 1560 C 139.167 2.30249 -4.66135 0
M  V30 1561 C 136.852 2.79376 -4.17438 0
M  V30 1562 C 138.846 2.13645 -6.00529 0
M  V30 1563 C 136.533 2.6239 -5.51901 0
M  V30 1564 C 137.531 2.29573 -6.43262 0
M  V30 1565 O 137.219 2.12719 -7.75246 0
M  V30 1566 H 136.951 0.469031 -0.486812 0
M  V30 1567 H 139.505 0.88564 -1.85326 0
M  V30 1568 H 137.735 3.4389 -1.76852 0
M  V30 1569 H 139.424 3.41947 -2.18694 0
M  V30 1570 H 140.19 2.17398 -4.33547 0
M  V30 1571 H 136.069 3.03906 -3.46644 0
M  V30 1572 H 139.613 1.87953 -6.71803 0
M  V30 1573 H 135.51 2.74826 -5.84073 0
M  V30 1574 H 136.278 2.27611 -7.86216 0
M  V30 1575 N 138.941 1.26152 0.944643 0
M  V30 1576 C 140.352 1.10454 1.50522 0
M  V30 1577 C 140.703 -0.31635 1.93633 0
M  V30 1578 O 139.828 -1.20746 1.79581 0
M  V30 1579 C 140.423 1.99891 2.73549 0
M  V30 1580 C 138.982 1.88348 3.25886 0
M  V30 1581 C 138.129 1.93447 1.9868 0
M  V30 1582 H 141.08 1.39292 0.760489 0
M  V30 1583 H 141.101 1.54477 3.47732 0
M  V30 1584 H 140.613 3.03297 2.42141 0
M  V30 1585 H 138.714 0.878636 3.62092 0
M  V30 1586 H 138.827 2.73696 3.93227 0
M  V30 1587 H 137.191 1.37456 2.14425 0
M  V30 1588 H 137.974 2.98476 1.69607 0
M  V30 1589 N 140.419 -1.14872 1.07899 0
M  V30 1590 C 141.668 -1.85135 0.800499 0
M  V30 1591 C 141.981 -1.83547 -0.676014 0
M  V30 1592 O 143.187 -2.49548 -1.06948 0
M  V30 1593 C 141.643 -3.3231 1.38197 0
M  V30 1594 C 141.251 -3.42329 2.8899 0
M  V30 1595 C 142.995 -4.0772 1.18174 0
M  V30 1596 C 140.902 -4.83684 3.403 0
M  V30 1597 H 139.832 -0.693563 0.29578 0
M  V30 1598 H 142.483 -1.29532 1.29976 0
M  V30 1599 H 140.865 -3.87618 0.810431 0
M  V30 1600 H 142.039 -2.97097 3.52236 0
M  V30 1601 H 140.354 -2.80369 3.07867 0
M  V30 1602 H 142.951 -5.12049 1.5398 0
M  V30 1603 H 143.294 -4.16124 0.12117 0
M  V30 1604 H 143.827 -3.58696 1.71994 0
M  V30 1605 H 140.566 -4.80465 4.45907 0
M  V30 1606 H 140.086 -5.29474 2.81811 0
M  V30 1607 H 141.765 -5.52558 3.36584 0
M  V30 1608 N 141.898 -0.863906 -1.31812 0
M  V30 1609 C 143.144 -0.472535 -1.97218 0
M  V30 1610 C 143.477 0.971394 -1.68159 0
M  V30 1611 O 142.752 1.68309 -0.974798 0
M  V30 1612 C 143.035 -0.723054 -3.52766 0
M  V30 1613 C 142.888 -2.21608 -3.91421 0
M  V30 1614 C 144.207 -0.185522 -4.39709 0
M  V30 1615 H 141.326 -0.173158 -0.71637 0
M  V30 1616 H 143.968 -1.08403 -1.56041 0
M  V30 1617 H 142.118 -0.202577 -3.87971 0
M  V30 1618 H 143.79 -2.80334 -3.66347 0
M  V30 1619 H 142.033 -2.691 -3.40246 0
M  V30 1620 H 142.704 -2.34203 -4.99853 0
M  V30 1621 H 145.18 -0.630726 -4.11292 0
M  V30 1622 H 144.056 -0.390306 -5.47511 0
M  V30 1623 H 144.317 0.912229 -4.32586 0
M  V30 1624 N 143.376 1.44774 -0.622745 0
M  V30 1625 C 144.308 2.28856 0.125485 0
M  V30 1626 C 145.321 1.40811 0.817069 0
M  V30 1627 O 146.51 1.65044 0.679918 0
M  V30 1628 C 143.61 3.16963 1.19949 0
M  V30 1629 C 142.783 4.33374 0.592064 0
M  V30 1630 C 141.842 5.02577 1.55893 0
M  V30 1631 O 140.868 5.58873 1.07933 0
M  V30 1632 N 142.07 5.03256 2.89334 0
M  V30 1633 H 144.835 2.93713 -0.596068 0
M  V30 1634 H 142.396 1.55129 -0.463303 0
M  V30 1635 H 144.388 3.60123 1.84644 0
M  V30 1636 H 142.958 2.53913 1.82337 0
M  V30 1637 H 142.178 3.93509 -0.233322 0
M  V30 1638 H 143.466 5.08527 0.166738 0
M  V30 1639 H 142.864 4.58836 3.30887 0
M  V30 1640 H 141.421 5.50232 3.49412 0
M  V30 1641 N 144.854 0.36279 1.53368 0
M  V30 1642 C 145.817 -0.472679 2.24273 0
M  V30 1643 C 146.817 -1.012 1.24961 0
M  V30 1644 O 148.007 -0.898194 1.49259 0
M  V30 1645 C 145.139 -1.66039 2.97731 0
M  V30 1646 H 146.332 0.14773 2.99536 0
M  V30 1647 H 143.885 0.114434 1.55881 0
M  V30 1648 H 144.62 -2.31896 2.26704 0
M  V30 1649 H 144.405 -1.28066 3.70596 0
M  V30 1650 H 145.895 -2.25252 3.51641 0
M  V30 1651 N 146.332 -1.57332 0.0918853 0
M  V30 1652 C 147.279 -2.13847 -0.868211 0
M  V30 1653 C 148.249 -1.05618 -1.28196 0
M  V30 1654 O 149.434 -1.33387 -1.36427 0
M  V30 1655 C 146.574 -2.72062 -2.12312 0
M  V30 1656 C 145.687 -3.94514 -1.7602 0
M  V30 1657 C 144.822 -4.40903 -2.96273 0
M  V30 1658 C 143.861 -5.55953 -2.56092 0
M  V30 1659 N 142.998 -5.97209 -3.69169 0
M  V30 1660 H 147.838 -2.95575 -0.379406 0
M  V30 1661 H 145.375 -1.46048 -0.175606 0
M  V30 1662 H 147.333 -3.03931 -2.858 0
M  V30 1663 H 145.963 -1.93068 -2.58698 0
M  V30 1664 H 145.015 -3.68979 -0.925135 0
M  V30 1665 H 146.327 -4.7802 -1.42472 0
M  V30 1666 H 145.481 -4.74539 -3.78018 0
M  V30 1667 H 144.22 -3.56291 -3.33029 0
M  V30 1668 H 143.225 -5.21948 -1.72773 0
M  V30 1669 H 144.45 -6.42311 -2.20484 0
M  V30 1670 H 142.396 -5.15543 -4.05649 0
M  V30 1671 H 142.313 -6.75504 -3.39456 0
M  V30 1672 H 143.581 -6.35475 -4.51434 0
M  V30 1673 N 147.81 0.181792 -1.56548 0
M  V30 1674 C 149.087 0.926765 -1.72251 0
M  V30 1675 C 149.467 2.00831 -0.650386 0
M  V30 1676 O 148.815 2.26008 0.336521 0
M  V30 1677 C 149.025 1.50106 -3.1507 0
M  V30 1678 C 150.373 1.97805 -3.75711 0
M  V30 1679 O 151.397 1.59922 -3.18282 0
M  V30 1680 O 150.256 2.67555 -4.76525 0
M  V30 1681 H 147.35 0.435506 -0.703039 0
M  V30 1682 H 149.896 0.170443 -1.68842 0
M  V30 1683 H 148.668 0.72212 -3.84579 0
M  V30 1684 H 148.291 2.32186 -3.22763 0
M  V30 1685 N 149.288 1.51039 0.449983 0
M  V30 1686 C 150.236 1.71995 1.5659 0
M  V30 1687 C 151.23 0.586029 1.5894 0
M  V30 1688 O 152.436 0.76709 1.62837 0
M  V30 1689 H 148.811 0.543233 0.520001 0
M  V30 1690 H 150.782 2.65562 1.36085 0
M  V30 1691 C 149.531 1.8506 2.9436 0
M  V30 1692 H 148.854 2.71712 2.93279 0
M  V30 1693 H 150.294 2.0374 3.71842 0
M  V30 1694 C 148.753 0.607277 3.31382 0
M  V30 1695 O 149.283 -0.243903 4.00959 0
M  V30 1696 N 147.489 0.455073 2.87015 0
M  V30 1697 H 147.036 1.14879 2.30566 0
M  V30 1698 H 146.994 -0.375611 3.12148 0
M  V30 1699 N 150.766 -0.704594 1.40972 0
M  V30 1700 C 152.043 -1.45847 1.30338 0
M  V30 1701 C 152.423 -2.10973 -0.0732344 0
M  V30 1702 O 151.771 -2.00997 -1.08685 0
M  V30 1703 C 151.981 -2.48525 2.45023 0
M  V30 1704 C 153.329 -3.1404 2.8577 0
M  V30 1705 O 154.353 -2.58848 2.44696 0
M  V30 1706 O 153.212 -4.13981 3.56766 0
M  V30 1707 H 150.306 -0.649092 0.512454 0
M  V30 1708 H 152.852 -0.735836 1.52917 0
M  V30 1709 H 151.624 -1.98994 3.36923 0
M  V30 1710 H 151.247 -3.2831 2.24272 0
M  V30 1711 N 152.244 -1.26651 -0.937939 0
M  V30 1712 C 153.474 -1.15006 -1.71631 0
M  V30 1713 C 153.882 0.297026 -1.86854 0
M  V30 1714 O 153.225 1.21493 -1.37786 0
M  V30 1715 C 153.287 -1.74984 -3.14039 0
M  V30 1716 C 152.951 -3.24103 -3.2219 0
M  V30 1717 C 153.948 -4.20877 -3.05219 0
M  V30 1718 C 151.633 -3.64625 -3.45476 0
M  V30 1719 C 153.627 -5.56151 -3.11408 0
M  V30 1720 C 151.314 -5.00032 -3.513 0
M  V30 1721 C 152.312 -5.95604 -3.34282 0
M  V30 1722 O 152 -7.28545 -3.3982 0
M  V30 1723 H 151.732 -0.401183 -0.544085 0
M  V30 1724 H 154.286 -1.67832 -1.18413 0
M  V30 1725 H 152.516 -1.16624 -3.68695 0
M  V30 1726 H 154.205 -1.58199 -3.73802 0
M  V30 1727 H 154.971 -3.90908 -2.87081 0
M  V30 1728 H 150.85 -2.90718 -3.57777 0
M  V30 1729 H 154.394 -6.30727 -2.98043 0
M  V30 1730 H 150.291 -5.29659 -3.68959 0
M  V30 1731 H 151.059 -7.3686 -3.56343 0
M  V30 1732 N 153.722 1.14298 -1.08507 0
M  V30 1733 C 154.952 1.88945 -0.835663 0
M  V30 1734 C 155.36 1.78894 0.615928 0
M  V30 1735 O 154.703 1.1468 1.43506 0
M  V30 1736 C 154.765 3.39585 -1.17994 0
M  V30 1737 C 154.429 3.7342 -2.63451 0
M  V30 1738 C 155.426 3.73454 -3.61702 0
M  V30 1739 C 153.111 4.03368 -2.99332 0
M  V30 1740 C 155.105 4.02961 -4.93864 0
M  V30 1741 C 152.792 4.32538 -4.31687 0
M  V30 1742 C 153.79 4.32318 -5.28763 0
M  V30 1743 O 153.478 4.6078 -6.58739 0
M  V30 1744 H 153.21 0.605307 -0.300965 0
M  V30 1745 H 155.764 1.45673 -1.44806 0
M  V30 1746 H 153.994 3.83315 -0.51055 0
M  V30 1747 H 155.683 3.9554 -0.911182 0
M  V30 1748 H 156.449 3.50403 -3.35325 0
M  V30 1749 H 152.328 4.02692 -2.24411 0
M  V30 1750 H 155.872 4.02704 -5.69627 0
M  V30 1751 H 151.769 4.55059 -4.57812 0
M  V30 1752 H 152.537 4.78492 -6.64069 0
M  V30 1753 N 155.201 0.870884 1.31352 0
M  V30 1754 C 156.131 0.343096 2.30966 0
M  V30 1755 C 157.112 -0.566507 1.60389 0
M  V30 1756 O 158.297 -0.483336 1.88089 0
M  V30 1757 C 155.427 -0.455487 3.443 0
M  V30 1758 C 154.381 0.361103 4.26474 0
M  V30 1759 C 153.707 -0.563221 5.31725 0
M  V30 1760 C 155.007 1.59566 4.97329 0
M  V30 1761 H 156.701 1.17548 2.75359 0
M  V30 1762 H 154.247 0.566686 1.32381 0
M  V30 1763 H 156.2 -0.83525 4.13039 0
M  V30 1764 H 154.924 -1.32139 2.98675 0
M  V30 1765 H 153.583 0.722825 3.59403 0
M  V30 1766 H 153.231 -1.42643 4.82351 0
M  V30 1767 H 152.931 -0.0207409 5.87596 0
M  V30 1768 H 154.455 -0.939808 6.03324 0
M  V30 1769 H 155.869 1.28728 5.58661 0
M  V30 1770 H 154.266 2.07728 5.63 0
M  V30 1771 H 155.336 2.34798 4.24262 0
M  V30 1772 N 156.679 -1.44442 0.630414 0
M  V30 1773 C 157.926 -2.02052 0.134617 0
M  V30 1774 C 158.254 -1.49576 -1.24327 0
M  V30 1775 O 157.509 -0.669806 -1.83881 0
M  V30 1776 C 157.808 -3.57332 0.0697835 0
M  V30 1777 C 157.474 -4.29058 1.38635 0
M  V30 1778 C 156.136 -4.4837 1.74694 0
M  V30 1779 C 158.488 -4.69872 2.25543 0
M  V30 1780 C 155.816 -5.05756 2.97369 0
M  V30 1781 C 158.168 -5.28616 3.47487 0
M  V30 1782 C 156.832 -5.46147 3.8377 0
M  V30 1783 H 156.102 -0.739361 0.0492598 0
M  V30 1784 H 158.749 -1.73217 0.816586 0
M  V30 1785 H 157.054 -3.85577 -0.695553 0
M  V30 1786 H 158.751 -3.99637 -0.330344 0
M  V30 1787 H 155.341 -4.14357 1.09574 0
M  V30 1788 H 159.525 -4.54666 1.98979 0
M  V30 1789 H 154.781 -5.17515 3.25558 0
M  V30 1790 H 158.955 -5.59192 4.15063 0
M  V30 1791 H 156.582 -5.9038 4.7891 0
M  V30 1792 N 158.157 -0.370918 -1.53173 0
M  V30 1793 C 159.573 -0.0200818 -1.59587 0
M  V30 1794 C 159.773 1.46279 -1.38581 0
M  V30 1795 O 158.829 2.22506 -1.19363 0
M  V30 1796 C 160.142 -0.4808 -2.96831 0
M  V30 1797 C 161.69 -0.435477 -3.09956 0
M  V30 1798 C 162.165 -0.872092 -4.4962 0
M  V30 1799 N 163.656 -0.827364 -4.55751 0
M  V30 1800 C 164.391 -1.13683 -5.62018 0
M  V30 1801 N 163.887 -1.51584 -6.76014 0
M  V30 1802 N 165.68 -1.05927 -5.52029 0
M  V30 1803 H 157.831 -1.33652 -1.65079 0
M  V30 1804 H 160.094 -0.546634 -0.774529 0
M  V30 1805 H 159.8 -1.51577 -3.1736 0
M  V30 1806 H 159.674 0.129796 -3.76977 0
M  V30 1807 H 162.061 0.590371 -2.89134 0
M  V30 1808 H 162.142 -1.08164 -2.31806 0
M  V30 1809 H 161.786 -1.89608 -4.71181 0
M  V30 1810 H 161.716 -0.203127 -5.26208 0
M  V30 1811 H 164.207 -0.548216 -3.73902 0
M  V30 1812 H 164.52 -1.73609 -7.53047 0
M  V30 1813 H 162.865 -1.55454 -6.77391 0
M  V30 1814 H 166.056 -0.762321 -4.61851 0
M  V30 1815 H 166.229 -1.30378 -6.34749 0
M  V30 1816 N 159.635 1.57281 -0.100228 0
M  V30 1817 C 160.583 2.15542 0.874328 0
M  V30 1818 C 161.577 1.09962 1.28859 0
M  V30 1819 O 162.783 1.28298 1.26252 0
M  V30 1820 H 159.158 0.689567 0.300003 0
M  V30 1821 H 161.129 2.96241 0.35829 0
M  V30 1822 C 159.878 2.75454 2.1218 0
M  V30 1823 H 159.201 3.56384 1.81193 0
M  V30 1824 H 160.641 3.19781 2.78417 0
M  V30 1825 C 159.1 1.71602 2.89921 0
M  V30 1826 O 159.63 1.15804 3.84646 0
M  V30 1827 N 157.836 1.41975 2.53558 0
M  V30 1828 H 157.383 1.87539 1.76598 0
M  V30 1829 H 157.341 0.727274 3.05873 0
M  V30 1830 N 161.113 -0.173488 1.56642 0
M  V30 1831 C 162.343 -0.904781 1.85734 0
M  V30 1832 C 162.751 -1.76431 0.68328 0
M  V30 1833 O 162.094 -1.802 -0.356865 0
M  V30 1834 C 162.156 -1.83382 3.09211 0
M  V30 1835 C 161.82 -1.15411 4.42187 0
M  V30 1836 C 162.817 -0.520609 5.17287 0
M  V30 1837 C 160.502 -1.15151 4.88923 0
M  V30 1838 C 162.496 0.106412 6.37311 0
M  V30 1839 C 160.183 -0.520664 6.08878 0
M  V30 1840 C 161.181 0.107196 6.82916 0
M  V30 1841 O 160.869 0.728102 8.00596 0
M  V30 1842 H 160.601 -0.268408 0.62043 0
M  V30 1843 H 163.155 -0.179096 2.04618 0
M  V30 1844 H 161.385 -2.59976 2.86268 0
M  V30 1845 H 163.074 -2.43476 3.24768 0
M  V30 1846 H 163.84 -0.514606 4.82262 0
M  V30 1847 H 159.719 -1.62961 4.31236 0
M  V30 1848 H 163.263 0.597081 6.9504 0
M  V30 1849 H 159.16 -0.524242 6.43368 0
M  V30 1850 H 159.928 0.627138 8.16094 0
M  V30 1851 N 162.591 -1.51276 -0.441967 0
M  V30 1852 C 163.538 -1.72256 -1.53612 0
M  V30 1853 C 164.508 -0.564164 -1.56225 0
M  V30 1854 O 165.693 -0.798074 -1.73307 0
M  V30 1855 C 162.833 -1.84932 -2.91366 0
M  V30 1856 C 161.946 -3.12459 -2.98317 0
M  V30 1857 C 161.081 -3.15758 -4.27166 0
M  V30 1858 C 160.12 -4.37619 -4.27967 0
M  V30 1859 N 159.257 -4.38493 -5.48333 0
M  V30 1860 H 164.097 -2.65654 -1.35026 0
M  V30 1861 H 161.634 -1.31662 -0.656009 0
M  V30 1862 H 163.592 -1.90263 -3.7129 0
M  V30 1863 H 162.222 -0.949461 -3.08521 0
M  V30 1864 H 161.274 -3.1646 -2.11086 0
M  V30 1865 H 162.586 -4.02382 -2.94771 0
M  V30 1866 H 161.74 -3.19979 -5.15459 0
M  V30 1867 H 160.479 -2.23715 -4.33362 0
M  V30 1868 H 159.484 -4.33579 -3.38067 0
M  V30 1869 H 160.709 -5.30921 -4.23438 0
M  V30 1870 H 158.655 -3.49318 -5.55259 0
M  V30 1871 H 158.572 -5.22219 -5.46647 0
M  V30 1872 H 159.84 -4.469 -6.38671 0
M  V30 1873 N 164.069 0.697108 -1.41344 0
M  V30 1874 C 165.317 1.45426 -1.40341 0
M  V30 1875 C 165.638 1.94996 -0.0128787 0
M  V30 1876 O 164.908 1.71599 0.945027 0
M  V30 1877 H 163.488 0.539594 -0.516573 0
M  V30 1878 H 166.15 0.825201 -1.76569 0
M  V30 1879 H 165.246 2.31817 -2.08967 0
M  V30 1880 N 165.547 1.27147 0.931209 0
M  V30 1881 C 166.457 1.11372 2.06478 0
M  V30 1882 C 167.473 0.044645 1.73943 0
M  V30 1883 O 168.649 0.250417 1.99837 0
M  V30 1884 C 165.714 0.758838 3.38294 0
M  V30 1885 C 164.775 1.90841 3.84549 0
M  V30 1886 C 164.008 1.57036 5.10074 0
M  V30 1887 O 164.231 0.476645 5.68405 0
M  V30 1888 O 163.165 2.40839 5.51616 0
M  V30 1889 H 166.991 2.06493 2.22698 0
M  V30 1890 H 164.576 1.06301 1.04978 0
M  V30 1891 H 166.458 0.574098 4.17471 0
M  V30 1892 H 165.133 -0.162879 3.2329 0
M  V30 1893 H 164.04 2.14819 3.06274 0
M  V30 1894 H 165.373 2.81021 4.04089 0
M  V30 1895 N 167.025 -1.13721 1.09112 0
M  V30 1896 C 168.302 -1.81155 0.737706 0
M  V30 1897 C 168.682 -1.96253 -0.777683 0
M  V30 1898 O 168.03 -1.52807 -1.69889 0
M  V30 1899 C 168.24 -3.16392 1.47299 0
M  V30 1900 C 169.588 -3.91787 1.63671 0
M  V30 1901 O 170.612 -3.26005 1.43524 0
M  V30 1902 O 169.471 -5.0977 1.96969 0
M  V30 1903 H 166.565 -0.783518 0.26463 0
M  V30 1904 H 169.111 -1.20676 1.19312 0
M  V30 1905 H 167.883 -3.0061 2.50498 0
M  V30 1906 H 167.506 -3.8457 1.00953 0
M  V30 1907 N 168.503 -0.877838 -1.30888 0
M  V30 1908 C 169.436 -0.283995 -2.26426 0
M  V30 1909 C 170.414 0.591361 -1.51465 0
M  V30 1910 O 171.598 0.54304 -1.80509 0
M  V30 1911 C 168.725 0.597129 -3.33395 0
M  V30 1912 C 167.771 -0.207937 -4.25993 0
M  V30 1913 S 168.604 -1.59158 -5.11301 0
M  V30 1914 C 169.76 -0.716791 -6.21782 0
M  V30 1915 H 169.993 -1.09383 -2.76446 0
M  V30 1916 H 167.526 -0.676828 -1.38775 0
M  V30 1917 H 169.484 1.09978 -3.95493 0
M  V30 1918 H 168.145 1.38099 -2.82113 0
M  V30 1919 H 167.338 0.464163 -5.01858 0
M  V30 1920 H 166.94 -0.642963 -3.68432 0
M  V30 1921 H 169.232 0.0692833 -6.77465 0
M  V30 1922 H 170.175 -1.44682 -6.93161 0
M  V30 1923 H 170.583 -0.280855 -5.63801 0
M  V30 1924 N 169.982 1.44106 -0.638065 0
M  V30 1925 C 171.398 1.56672 -0.304286 0
M  V30 1926 C 171.598 1.6244 1.19228 0
M  V30 1927 O 170.654 1.57121 1.9766 0
M  V30 1928 C 171.967 2.83503 -1.00231 0
M  V30 1929 C 173.515 2.97226 -0.981116 0
M  V30 1930 C 173.99 4.26868 -1.65974 0
M  V30 1931 N 175.481 4.33698 -1.62666 0
M  V30 1932 C 176.216 5.32745 -2.12063 0
M  V30 1933 N 175.712 6.38157 -2.6968 0
M  V30 1934 N 177.505 5.24299 -2.02651 0
M  V30 1935 H 169.656 1.38605 -1.60942 0
M  V30 1936 H 171.919 0.664661 -0.675965 0
M  V30 1937 H 171.625 2.85251 -2.0573 0
M  V30 1938 H 171.499 3.73251 -0.54439 0
M  V30 1939 H 173.886 2.95027 0.0654188 0
M  V30 1940 H 173.967 2.08808 -1.47759 0
M  V30 1941 H 173.611 4.29826 -2.70576 0
M  V30 1942 H 173.541 5.14156 -1.13804 0
M  V30 1943 H 176.032 3.58138 -1.20606 0
M  V30 1944 H 176.345 7.10029 -3.05087 0
M  V30 1945 H 174.69 6.38823 -2.73734 0
M  V30 1946 H 177.881 4.4086 -1.57353 0
M  V30 1947 H 178.054 6.01334 -2.41457 0
M  V30 1948 N 171.46 0.379036 1.52974 0
M  V30 1949 C 172.423 -0.448865 2.24762 0
M  V30 1950 C 173.423 -0.998689 1.26027 0
M  V30 1951 O 174.613 -0.882313 1.50203 0
M  V30 1952 C 171.745 -1.62872 2.99476 0
M  V30 1953 H 172.938 0.179491 2.99362 0
M  V30 1954 H 170.491 0.13096 1.5575 0
M  V30 1955 H 171.226 -2.29479 2.29151 0
M  V30 1956 H 171.011 -1.24128 3.71934 0
M  V30 1957 H 172.501 -2.2151 3.5401 0
M  V30 1958 N 172.938 -1.57226 0.108567 0
M  V30 1959 C 174.186 -1.94448 -0.550853 0
M  V30 1960 C 174.507 -0.992074 -1.67878 0
M  V30 1961 O 173.777 -0.0465 -1.95845 0
M  V30 1962 H 172.357 -0.717897 -0.206479 0
M  V30 1963 H 175.019 -1.94112 0.175062 0
M  V30 1964 H 174.115 -2.97218 -0.952259 0
M  V30 1965 N 174.416 0.165178 -1.56732 0
M  V30 1966 C 175.641 0.900253 -1.86843 0
M  V30 1967 C 176.066 1.74766 -0.695596 0
M  V30 1968 O 175.424 1.77786 0.35522 0
M  V30 1969 C 175.472 1.74777 -3.15413 0
M  V30 1970 O 174.576 2.85007 -2.98068 0
M  V30 1971 H 173.917 0.251832 -0.614391 0
M  V30 1972 H 176.447 0.161468 -2.03962 0
M  V30 1973 H 176.457 2.14646 -3.46974 0
M  V30 1974 H 175.132 1.12537 -4.00385 0
M  V30 1975 H 173.709 2.48676 -2.77875 0
M  V30 1976 N 175.894 1.51508 0.433938 0
M  V30 1977 C 177.143 1.63578 1.18005 0
M  V30 1978 C 177.456 0.359514 1.92268 0
M  V30 1979 O 178.662 0.359632 2.69108 0
M  V30 1980 C 177.118 2.88901 2.14626 0
M  V30 1981 C 176.726 4.23544 1.45995 0
M  V30 1982 C 178.47 3.10328 2.89649 0
M  V30 1983 C 176.377 5.40014 2.4112 0
M  V30 1984 H 175.307 0.609277 0.444182 0
M  V30 1985 H 177.958 1.77978 0.446773 0
M  V30 1986 H 176.34 2.68142 2.91403 0
M  V30 1987 H 177.514 4.54696 0.747532 0
M  V30 1988 H 175.829 4.08021 0.831115 0
M  V30 1989 H 178.426 3.94518 3.60915 0
M  V30 1990 H 178.769 2.23544 3.51189 0
M  V30 1991 H 179.302 3.31443 2.19978 0
M  V30 1992 H 176.041 6.29068 1.84264 0
M  V30 1993 H 175.561 5.13233 3.10406 0
M  V30 1994 H 177.24 5.72099 3.02177 0
M  V30 1995 N 177.372 -0.689602 1.41712 0
M  V30 1996 C 178.619 -1.44966 1.4139 0
M  V30 1997 C 178.947 -1.94484 0.025105 0
M  V30 1998 O 178.202 -1.70307 -0.964048 0
M  V30 1999 C 178.501 -2.67298 2.37247 0
M  V30 2000 C 178.167 -2.36405 3.83958 0
M  V30 2001 C 176.829 -2.27691 4.23923 0
M  V30 2002 C 179.181 -2.11043 4.76561 0
M  V30 2003 C 176.509 -1.91719 5.54492 0
M  V30 2004 C 178.861 -1.76578 6.07456 0
M  V30 2005 C 177.525 -1.66363 6.46436 0
M  V30 2006 H 176.795 -0.53047 0.517381 0
M  V30 2007 H 179.442 -0.787655 1.74552 0
M  V30 2008 H 177.747 -3.38461 1.9736 0
M  V30 2009 H 179.444 -3.25452 2.34269 0
M  V30 2010 H 176.034 -2.44085 3.52308 0
M  V30 2011 H 180.218 -2.16717 4.46483 0
M  V30 2012 H 175.474 -1.82367 5.83568 0
M  V30 2013 H 179.648 -1.55974 6.78708 0
M  V30 2014 H 177.275 -1.38258 7.47522 0
M  V30 2015 N 178.85 -1.27639 -0.924453 0
M  V30 2016 C 179.783 -1.04966 -2.02626 0
M  V30 2017 C 180.761 0.0309505 -1.62571 0
M  V30 2018 O 181.945 -0.114846 -1.8815 0
M  V30 2019 C 179.072 -0.59292 -3.3347 0
M  V30 2020 C 178.118 -1.66858 -3.92506 0
M  V30 2021 S 178.951 -3.2619 -4.24689 0
M  V30 2022 C 180.107 -2.82325 -5.58609 0
M  V30 2023 H 180.34 -1.98252 -2.21547 0
M  V30 2024 H 177.873 -1.11506 -1.06798 0
M  V30 2025 H 179.831 -0.336086 -4.09122 0
M  V30 2026 H 178.492 0.319939 -3.12466 0
M  V30 2027 H 177.685 -1.30038 -4.86935 0
M  V30 2028 H 177.287 -1.87766 -3.2345 0
M  V30 2029 H 179.579 -2.2783 -6.38044 0
M  V30 2030 H 180.522 -3.75511 -6.00331 0
M  V30 2031 H 180.93 -2.21367 -5.19285 0
M  V30 2032 N 180.328 1.1314 -1.09713 0
M  V30 2033 C 181.605 1.80762 -0.747302 0
M  V30 2034 C 181.985 1.96663 0.767265 0
M  V30 2035 O 181.333 1.53706 1.69076 0
M  V30 2036 C 181.543 3.15606 -1.48975 0
M  V30 2037 C 182.891 3.90914 -1.65746 0
M  V30 2038 O 183.915 3.25239 -1.45251 0
M  V30 2039 O 182.774 5.08718 -1.9967 0
M  V30 2040 H 179.868 0.782103 -0.268782 0
M  V30 2041 H 182.414 1.20041 -1.19951 0
M  V30 2042 H 181.186 2.99278 -2.52088 0
M  V30 2043 H 180.809 3.84029 -1.02991 0
M  V30 2044 N 181.806 0.884767 1.30421 0
M  V30 2045 C 183.036 0.517293 2.00019 0
M  V30 2046 C 183.444 -0.898632 1.66497 0
M  V30 2047 O 182.787 -1.60245 0.898181 0
M  V30 2048 C 182.849 0.612025 3.54252 0
M  V30 2049 C 182.513 1.99222 4.1129 0
M  V30 2050 C 183.51 2.9616 4.273 0
M  V30 2051 C 181.195 2.29755 4.46674 0
M  V30 2052 C 183.189 4.21764 4.77906 0
M  V30 2053 C 180.876 3.55606 4.96979 0
M  V30 2054 C 181.874 4.51425 5.12547 0
M  V30 2055 O 181.562 5.75043 5.61766 0
M  V30 2056 H 181.294 0.198529 0.64619 0
M  V30 2057 H 183.848 1.1919 1.67281 0
M  V30 2058 H 182.078 -0.119561 3.86515 0
M  V30 2059 H 183.767 0.255859 4.05093 0
M  V30 2060 H 184.533 2.73882 4.00267 0
M  V30 2061 H 180.412 1.55942 4.33824 0
M  V30 2062 H 183.956 4.96561 4.89972 0
M  V30 2063 H 179.853 3.7772 5.23448 0
M  V30 2064 H 180.621 5.77422 5.80109 0
M  V30 2065 N 183.284 -1.43765 0.645699 0
M  V30 2066 C 184.7 -1.56509 0.312591 0
M  V30 2067 C 184.9 -1.6307 -1.18365 0
M  V30 2068 O 183.956 -1.58167 -1.96824 0
M  V30 2069 C 185.269 -2.82968 1.01733 0
M  V30 2070 C 186.817 -2.96701 0.996865 0
M  V30 2071 C 187.292 -4.25982 1.68236 0
M  V30 2072 N 188.783 -4.32829 1.64964 0
M  V30 2073 C 189.518 -5.31613 2.14885 0
M  V30 2074 N 189.014 -6.36718 2.73061 0
M  V30 2075 N 190.807 -5.23217 2.05428 0
M  V30 2076 H 182.958 -1.3775 1.61675 0
M  V30 2077 H 185.221 -0.661067 0.679481 0
M  V30 2078 H 184.927 -2.84156 2.0724 0
M  V30 2079 H 184.801 -3.72957 0.564177 0
M  V30 2080 H 187.188 -2.95058 -0.0497719 0
M  V30 2081 H 187.269 -2.08022 1.48865 0
M  V30 2082 H 186.913 -4.28386 2.72852 0
M  V30 2083 H 186.843 -5.13545 1.16529 0
M  V30 2084 H 189.334 -3.57493 1.22503 0
M  V30 2085 H 189.647 -7.08401 3.08848 0
M  V30 2086 H 187.992 -6.37362 2.77118 0
M  V30 2087 H 191.183 -4.40019 1.59689 0
M  V30 2088 H 191.356 -6.00045 2.44643 0
M  V30 2089 N 184.763 -0.387143 -1.52771 0
M  V30 2090 C 185.711 0.463953 -2.27926 0
M  V30 2091 C 186.705 1.06493 -1.31741 0
M  V30 2092 O 187.911 1.00565 -1.49287 0
M  V30 2093 H 184.286 0.16837 -0.732909 0
M  V30 2094 H 186.257 -0.19141 -2.97785 0
M  V30 2095 C 185.006 1.5803 -3.09713 0
M  V30 2096 H 184.329 1.12718 -3.83581 0
M  V30 2097 H 185.769 2.15008 -3.65442 0
M  V30 2098 C 184.228 2.53509 -2.2189 0
M  V30 2099 O 184.758 3.56863 -1.84422 0
M  V30 2100 N 182.964 2.23199 -1.86093 0
M  V30 2101 H 182.511 1.39185 -2.16761 0
M  V30 2102 H 182.469 2.87333 -1.27621 0
M  V30 2103 N 186.241 1.57166 -0.116904 0
M  V30 2104 C 187.518 1.86645 0.585049 0
M  V30 2105 C 187.898 1.0177 1.84949 0
M  V30 2106 O 187.246 0.0960379 2.28298 0
M  V30 2107 C 187.456 3.37736 0.879507 0
M  V30 2108 C 188.804 4.06289 1.23348 0
M  V30 2109 O 189.828 3.42743 0.969836 0
M  V30 2110 O 188.687 5.18455 1.7282 0
M  V30 2111 H 185.781 0.772593 0.295007 0
M  V30 2112 H 188.327 1.69025 -0.151249 0
M  V30 2113 H 187.099 3.91296 -0.0166136 0
M  V30 2114 H 186.722 3.6078 1.67103 0
M  V30 2115 N 187.719 -0.156864 1.56817 0
M  V30 2116 C 188.965 -0.872416 1.83076 0
M  V30 2117 C 189.298 -1.81261 0.697001 0
M  V30 2118 O 188.573 -1.92171 -0.30008 0
M  V30 2119 C 188.856 -1.65551 3.19789 0
M  V30 2120 C 188.709 -0.737467 4.43713 0
M  V30 2121 C 190.028 -2.62012 3.53606 0
M  V30 2122 H 187.147 -0.315715 0.665953 0
M  V30 2123 H 189.789 -0.138004 1.89498 0
M  V30 2124 H 187.939 -2.28159 3.14445 0
M  V30 2125 H 189.611 -0.123143 4.61136 0
M  V30 2126 H 187.854 -0.0464067 4.33775 0
M  V30 2127 H 188.525 -1.32122 5.35955 0
M  V30 2128 H 191.001 -2.09525 3.59497 0
M  V30 2129 H 189.877 -3.13861 4.50314 0
M  V30 2130 H 190.138 -3.42902 2.79053 0
M  V30 2131 N 189.197 -1.51736 -0.425897 0
M  V30 2132 C 190.144 -1.73875 -1.51776 0
M  V30 2133 C 191.114 -0.580702 -1.55618 0
M  V30 2134 O 192.299 -0.81641 -1.72451 0
M  V30 2135 C 189.439 -1.88012 -2.89388 0
M  V30 2136 C 188.552 -3.15606 -2.94986 0
M  V30 2137 C 187.687 -3.20271 -4.23793 0
M  V30 2138 C 186.726 -4.42134 -4.23302 0
M  V30 2139 N 185.863 -4.44284 -5.43651 0
M  V30 2140 H 190.703 -2.67071 -1.32201 0
M  V30 2141 H 188.24 -1.32351 -0.642008 0
M  V30 2142 H 190.198 -1.9419 -3.69251 0
M  V30 2143 H 188.828 -0.98213 -3.07496 0
M  V30 2144 H 187.88 -3.18681 -2.07717 0
M  V30 2145 H 189.192 -4.05486 -2.90486 0
M  V30 2146 H 188.346 -3.25428 -5.12036 0
M  V30 2147 H 187.085 -2.28299 -4.30965 0
M  V30 2148 H 186.09 -4.3714 -3.3345 0
M  V30 2149 H 187.315 -5.35382 -4.17783 0
M  V30 2150 H 185.261 -3.55188 -5.51523 0
M  V30 2151 H 185.178 -5.27988 -5.41078 0
M  V30 2152 H 186.446 -4.53649 -6.33895 0
M  V30 2153 N 190.675 0.682077 -1.42076 0
M  V30 2154 C 191.9 1.47558 -1.45744 0
M  V30 2155 C 192.325 1.87977 -0.0680981 0
M  V30 2156 O 191.683 1.55522 0.9318 0
M  V30 2157 C 191.731 2.70575 -2.38373 0
M  V30 2158 O 190.835 3.68573 -1.85007 0
M  V30 2159 H 190.176 0.443585 -0.494093 0
M  V30 2160 H 192.706 0.837238 -1.86686 0
M  V30 2161 H 192.716 3.18729 -2.54707 0
M  V30 2162 H 191.391 2.40495 -3.39315 0
M  V30 2163 H 189.968 3.2757 -1.78192 0
M  V30 2164 N 192.153 1.28127 0.917671 0
M  V30 2165 C 193.085 1.07517 2.02417 0
M  V30 2166 C 194.098 0.0281099 1.62776 0
M  V30 2167 O 195.287 0.270748 1.76435 0
M  V30 2168 C 192.387 0.610957 3.33347 0
M  V30 2169 C 191.56 1.73255 4.01624 0
M  V30 2170 C 190.619 1.26238 5.10833 0
M  V30 2171 O 189.645 1.96389 5.34247 0
M  V30 2172 N 190.847 0.123448 5.80369 0
M  V30 2173 H 193.612 2.02806 2.20658 0
M  V30 2174 H 191.173 1.19827 1.08871 0
M  V30 2175 H 193.165 0.280101 4.0373 0
M  V30 2176 H 191.735 -0.24898 3.11607 0
M  V30 2177 H 190.955 2.23319 3.24842 0
M  V30 2178 H 192.243 2.48503 4.43986 0
M  V30 2179 H 191.641 -0.461847 5.63812 0
M  V30 2180 H 190.198 -0.148158 6.51632 0
M  V30 2181 N 193.631 -1.12557 1.10312 0
M  V30 2182 C 194.579 -2.20325 0.745629 0
M  V30 2183 C 195.573 -1.67429 -0.25763 0
M  V30 2184 O 196.779 -1.79612 -0.118132 0
M  V30 2185 H 193.154 -0.718118 0.223182 0
M  V30 2186 H 195.125 -2.47733 1.66346 0
M  V30 2187 C 193.874 -3.47168 0.192262 0
M  V30 2188 H 193.197 -3.88215 0.955475 0
M  V30 2189 H 194.637 -4.23995 -0.0198274 0
M  V30 2190 C 193.096 -3.19298 -1.07472 0
M  V30 2191 O 193.626 -3.3891 -2.15645 0
M  V30 2192 N 191.832 -2.73113 -0.992847 0
M  V30 2193 H 191.379 -2.57354 -0.112474 0
M  V30 2194 H 191.337 -2.54842 -1.84127 0
M  V30 2195 N 195.109 -0.891671 -1.2995 0
M  V30 2196 C 196.525 -0.58662 -1.48428 0
M  V30 2197 C 196.725 0.873951 -1.81561 0
M  V30 2198 O 195.781 1.65471 -1.90724 0
M  V30 2199 C 197.094 -1.50553 -2.60296 0
M  V30 2200 C 198.642 -1.50988 -2.74175 0
M  V30 2201 C 199.117 -2.41488 -3.89163 0
M  V30 2202 N 200.608 -2.39489 -3.96483 0
M  V30 2203 C 201.343 -3.06223 -4.84784 0
M  V30 2204 N 200.839 -3.82206 -5.77833 0
M  V30 2205 N 202.632 -2.95421 -4.78208 0
M  V30 2206 H 194.783 -1.83644 -1.06718 0
M  V30 2207 H 197.046 -0.786455 -0.529332 0
M  V30 2208 H 196.752 -2.54581 -2.42654 0
M  V30 2209 H 196.626 -1.22008 -3.56923 0
M  V30 2210 H 199.013 -0.47708 -2.91218 0
M  V30 2211 H 199.094 -1.83567 -1.78148 0
M  V30 2212 H 198.738 -3.44857 -3.72876 0
M  V30 2213 H 198.668 -2.06222 -4.84541 0
M  V30 2214 H 201.159 -1.84278 -3.29924 0
M  V30 2215 H 201.472 -4.302 -6.41988 0
M  V30 2216 H 199.817 -3.86313 -5.77743 0
M  V30 2217 H 203.008 -2.35581 -4.04499 0
M  V30 2218 H 203.181 -3.47704 -5.46814 0
M  V30 2219 N 196.587 1.43421 -0.653314 0
M  V30 2220 C 197.535 2.32546 0.0501531 0
M  V30 2221 C 198.529 1.48617 0.812985 0
M  V30 2222 O 199.735 1.64825 0.723375 0
M  V30 2223 H 196.11 0.751185 0.0350032 0
M  V30 2224 H 198.081 2.89602 -0.719261 0
M  V30 2225 C 196.83 3.32925 1.00279 0
M  V30 2226 H 196.153 3.97532 0.425236 0
M  V30 2227 H 197.593 3.9792 1.46409 0
M  V30 2228 C 196.052 2.63532 2.09886 0
M  V30 2229 O 196.582 2.45092 3.18265 0
M  V30 2230 N 194.788 2.22905 1.86445 0
M  V30 2231 H 194.335 2.38103 0.98309 0
M  V30 2232 H 194.293 1.76805 2.59976 0
M  V30 2233 N 198.065 0.39524 1.52563 0
M  V30 2234 C 199.293 -0.184943 2.06072 0
M  V30 2235 C 199.708 -1.40021 1.26647 0
M  V30 2236 O 199.065 -1.79767 0.314672 0
M  V30 2237 C 199.116 -0.549179 3.57304 0
M  V30 2238 O 198.837 0.617813 4.33722 0
M  V30 2239 C 200.338 -1.18459 4.2718 0
M  V30 2240 H 197.558 -0.0265025 0.670476 0
M  V30 2241 H 200.102 0.562184 1.96621 0
M  V30 2242 H 198.257 -1.2462 3.66809 0
M  V30 2243 H 198.671 0.317091 5.23541 0
M  V30 2244 H 200.145 -1.38976 5.34219 0
M  V30 2245 H 200.622 -2.15368 3.82771 0
M  V30 2246 H 201.228 -0.528163 4.22008 0
M  V30 2247 N 199.544 -1.57102 0.125237 0
M  V30 2248 C 200.793 -1.94582 -0.531095 0
M  V30 2249 C 201.106 -1.01126 -1.6743 0
M  V30 2250 O 202.312 -1.28097 -2.39381 0
M  V30 2251 C 200.768 -3.45839 -0.996164 0
M  V30 2252 C 200.376 -4.47842 0.118926 0
M  V30 2253 C 202.12 -3.92227 -1.62352 0
M  V30 2254 C 200.027 -5.90284 -0.363192 0
M  V30 2255 H 198.957 -0.726391 -0.20217 0
M  V30 2256 H 201.608 -1.82339 0.206092 0
M  V30 2257 H 199.99 -3.53338 -1.78796 0
M  V30 2258 H 201.164 -4.52018 0.895358 0
M  V30 2259 H 199.479 -4.11243 0.653324 0
M  V30 2260 H 202.076 -4.96069 -1.99548 0
M  V30 2261 H 202.419 -3.32552 -2.50429 0
M  V30 2262 H 202.952 -3.87554 -0.897019 0
M  V30 2263 H 199.691 -6.53728 0.481679 0
M  V30 2264 H 199.211 -5.89515 -1.10597 0
M  V30 2265 H 200.89 -6.41752 -0.822377 0
M  V30 2266 N 201.022 0.148545 -1.56898 0
M  V30 2267 C 201.952 1.18524 -2.01182 0
M  V30 2268 C 202.933 1.4489 -0.891123 0
M  V30 2269 O 204.118 1.55836 -1.15882 0
M  V30 2270 C 201.248 2.51879 -2.39112 0
M  V30 2271 C 200.202 2.40038 -3.54353 0
M  V30 2272 C 199.528 3.78089 -3.78091 0
M  V30 2273 C 200.828 1.88577 -4.87069 0
M  V30 2274 H 202.522 0.817029 -2.88036 0
M  V30 2275 H 200.068 0.391575 -1.38574 0
M  V30 2276 H 202.021 3.24627 -2.68692 0
M  V30 2277 H 200.745 2.90532 -1.49193 0
M  V30 2278 H 199.404 1.69742 -3.24936 0
M  V30 2279 H 199.052 4.14175 -2.85426 0
M  V30 2280 H 198.752 3.71028 -4.55645 0
M  V30 2281 H 200.276 4.52387 -4.10095 0
M  V30 2282 H 201.69 2.51117 -5.15377 0
M  V30 2283 H 200.087 1.9241 -5.68417 0
M  V30 2284 H 201.157 0.84136 -4.77545 0
M  V30 2285 N 202.5 1.5196 0.417844 0
M  V30 2286 C 203.73 1.69181 1.18581 0
M  V30 2287 C 204.138 0.397104 1.84986 0
M  V30 2288 O 203.481 -0.636011 1.72339 0
M  V30 2289 C 203.543 2.76497 2.29759 0
M  V30 2290 C 203.207 4.18514 1.83563 0
M  V30 2291 C 204.204 5.02648 1.32821 0
M  V30 2292 C 201.889 4.64708 1.90661 0
M  V30 2293 C 203.883 6.31044 0.897894 0
M  V30 2294 C 201.57 5.93096 1.47241 0
M  V30 2295 C 202.568 6.76093 0.968891 0
M  V30 2296 O 202.256 8.02078 0.540924 0
M  V30 2297 H 201.988 0.570457 0.362705 0
M  V30 2298 H 204.542 1.99249 0.498885 0
M  V30 2299 H 202.772 2.41786 3.01789 0
M  V30 2300 H 204.461 2.82403 2.91553 0
M  V30 2301 H 205.227 4.68154 1.26716 0
M  V30 2302 H 201.106 4.00216 2.28797 0
M  V30 2303 H 204.65 6.95776 0.504192 0
M  V30 2304 H 200.547 6.271 1.53022 0
M  V30 2305 H 201.315 8.15794 0.66502 0
M  V30 2306 N 203.978 -0.674533 1.42435 0
M  V30 2307 C 205.226 -1.43175 1.42637 0
M  V30 2308 C 205.547 -1.94951 0.0438992 0
M  V30 2309 O 204.817 -1.7308 -0.917607 0
M  V30 2310 H 203.397 -0.531307 0.525092 0
M  V30 2311 H 206.059 -0.797006 1.77859 0
M  V30 2312 H 205.155 -2.28463 2.12629 0
M  V30 2313 N 205.456 -1.28612 -0.910864 0
M  V30 2314 C 206.406 -1.09423 -2.00026 0
M  V30 2315 C 207.39 -0.0170079 -1.60891 0
M  V30 2316 O 208.582 -0.237472 -1.754 0
M  V30 2317 C 205.711 -0.76114 -3.34756 0
M  V30 2318 C 204.797 -1.87735 -3.80285 0
M  V30 2319 N 205.188 -3.11938 -3.98156 0
M  V30 2320 C 203.486 -1.76786 -4.09467 0
M  V30 2321 C 204.187 -3.84687 -4.36338 0
M  V30 2322 N 203.163 -3.12555 -4.44759 0
M  V30 2323 H 206.965 -2.03658 -2.11898 0
M  V30 2324 H 204.479 -1.19573 -1.09891 0
M  V30 2325 H 206.476 -0.604743 -4.12491 0
M  V30 2326 H 205.136 0.173403 -3.24237 0
M  V30 2327 H 206.147 -3.47516 -3.83996 0
M  V30 2328 H 202.824 -0.905284 -4.07567 0
M  V30 2329 H 204.214 -4.91518 -4.58104 0
M  V30 2330 N 206.934 1.1197 -1.10907 0
M  V30 2331 C 208.35 1.35591 -0.841852 0
M  V30 2332 C 208.55 1.94233 0.536246 0
M  V30 2333 O 207.606 2.1717 1.28816 0
M  V30 2334 C 208.919 2.29284 -1.94549 0
M  V30 2335 C 210.467 2.42862 -1.97451 0
M  V30 2336 C 210.942 3.39873 -3.07002 0
M  V30 2337 N 212.433 3.47433 -3.06341 0
M  V30 2338 C 213.168 4.22421 -3.87748 0
M  V30 2339 N 212.664 5.00432 -4.79103 0
M  V30 2340 N 214.457 4.17876 -3.75946 0
M  V30 2341 H 206.608 0.722664 -1.99728 0
M  V30 2342 H 208.871 0.380635 -0.868229 0
M  V30 2343 H 208.577 1.93378 -2.93765 0
M  V30 2344 H 208.451 3.29452 -1.83688 0
M  V30 2345 H 210.838 2.78046 -0.988645 0
M  V30 2346 H 210.919 1.42566 -2.12388 0
M  V30 2347 H 210.563 3.05417 -4.05811 0
M  V30 2348 H 210.493 4.40011 -2.89306 0
M  V30 2349 H 212.984 2.91784 -2.40147 0
M  V30 2350 H 213.297 5.55002 -5.37766 0
M  V30 2351 H 211.642 4.99612 -4.83128 0
M  V30 2352 H 214.833 3.56016 -3.03924 0
M  V30 2353 H 215.006 4.76061 -4.39624 0
M  V30 2354 N 208.412 0.89855 1.29475 0
M  V30 2355 C 209.345 0.319981 2.25945 0
M  V30 2356 C 210.323 -0.567189 1.52387 0
M  V30 2357 O 211.507 -0.514254 1.8135 0
M  V30 2358 C 208.634 -0.544013 3.34303 0
M  V30 2359 C 207.68 0.275682 4.25608 0
M  V30 2360 S 208.513 1.67272 5.08704 0
M  V30 2361 C 209.669 0.815621 6.20563 0
M  V30 2362 H 209.902 1.13767 2.74671 0
M  V30 2363 H 207.435 0.69882 1.3768 0
M  V30 2364 H 209.393 -1.03673 3.97193 0
M  V30 2365 H 208.054 -1.33593 2.84274 0
M  V30 2366 H 207.247 -0.384263 5.02533 0
M  V30 2367 H 206.849 0.701496 3.67362 0
M  V30 2368 H 209.141 0.0385042 6.77489 0
M  V30 2369 H 210.084 1.55691 6.90772 0
M  V30 2370 H 210.492 0.370516 5.63283 0
M  V30 2371 N 209.89 -1.43072 0.660911 0
M  V30 2372 C 210.837 -2.30785 -0.0259884 0
M  V30 2373 C 211.807 -1.45184 -0.806888 0
M  V30 2374 O 212.992 -1.74041 -0.781943 0
M  V30 2375 C 210.132 -3.30861 -0.981067 0
M  V30 2376 C 209.245 -4.31558 -0.195458 0
M  V30 2377 C 208.38 -5.18712 -1.14503 0
M  V30 2378 C 207.419 -6.11097 -0.350299 0
M  V30 2379 N 206.556 -6.90849 -1.25186 0
M  V30 2380 H 211.396 -2.88975 0.727846 0
M  V30 2381 H 208.933 -1.42353 0.370682 0
M  V30 2382 H 210.891 -3.87399 -1.54849 0
M  V30 2383 H 209.521 -2.74304 -1.70169 0
M  V30 2384 H 208.573 -3.77252 0.488374 0
M  V30 2385 H 209.885 -4.9701 0.422176 0
M  V30 2386 H 209.039 -5.79914 -1.78284 0
M  V30 2387 H 207.778 -4.53404 -1.79656 0
M  V30 2388 H 206.783 -5.48976 0.300808 0
M  V30 2389 H 208.008 -6.7845 0.296941 0
M  V30 2390 H 205.954 -6.28182 -1.89005 0
M  V30 2391 H 205.871 -7.52854 -0.688971 0
M  V30 2392 H 207.139 -7.5655 -1.87757 0
M  V30 2393 N 211.368 -0.403325 -1.52352 0
M  V30 2394 C 212.645 0.232611 -1.94212 0
M  V30 2395 C 213.025 1.63133 -1.33981 0
M  V30 2396 O 212.373 2.22659 -0.513344 0
M  V30 2397 C 212.583 0.244811 -3.4814 0
M  V30 2398 C 213.931 0.46698 -4.22024 0
M  V30 2399 O 214.955 0.324419 -3.5472 0
M  V30 2400 O 213.814 0.74747 -5.41364 0
M  V30 2401 H 210.908 0.148223 -0.813609 0
M  V30 2402 H 213.454 -0.458848 -1.63379 0
M  V30 2403 H 212.226 -0.734378 -3.84347 0
M  V30 2404 H 211.849 0.980611 -3.85318 0
M  V30 2405 N 212.846 1.57033 -0.133567 0
M  V30 2406 C 214.094 1.953 0.519848 0
M  V30 2407 C 214.415 1.01866 1.66278 0
M  V30 2408 O 213.685 0.0776513 1.95746 0
M  V30 2409 H 212.265 0.721091 0.195032 0
M  V30 2410 H 214.927 1.93809 -0.205921 0
M  V30 2411 H 214.023 2.98695 0.904854 0
M  V30 2412 N 214.325 -0.140222 1.56975 0
M  V30 2413 C 215.55 -0.870414 1.88251 0
M  V30 2414 C 215.975 -1.73637 0.723312 0
M  V30 2415 O 215.333 -1.78329 -0.32689 0
M  V30 2416 C 215.381 -1.69737 3.18154 0
M  V30 2417 O 214.485 -2.80229 3.02565 0
M  V30 2418 H 213.826 -0.242025 0.61832 0
M  V30 2419 H 216.356 -0.128999 2.04193 0
M  V30 2420 H 216.366 -2.09099 3.50345 0
M  V30 2421 H 215.041 -1.06152 4.02125 0
M  V30 2422 H 213.618 -2.44224 2.81796 0
M  V30 2423 N 215.803 -1.52179 -0.40978 0
M  V30 2424 C 216.736 -1.70196 -1.52015 0
M  V30 2425 C 217.714 -0.549542 -1.53032 0
M  V30 2426 O 218.898 -0.776815 -1.71749 0
M  V30 2427 C 216.025 -1.74069 -2.90547 0
M  V30 2428 C 215.071 -2.95601 -3.07445 0
M  V30 2429 S 215.904 -4.55956 -2.80827 0
M  V30 2430 C 217.06 -4.62614 -4.21591 0
M  V30 2431 H 217.293 -2.64109 -1.36504 0
M  V30 2432 H 214.826 -1.4221 -0.601312 0
M  V30 2433 H 216.784 -1.76985 -3.70387 0
M  V30 2434 H 215.445 -0.812835 -3.034 0
M  V30 2435 H 214.638 -2.94791 -4.08796 0
M  V30 2436 H 214.24 -2.90569 -2.35469 0
M  V30 2437 H 216.532 -4.39951 -5.15218 0
M  V30 2438 H 217.475 -5.64548 -4.27424 0
M  V30 2439 H 217.883 -3.91654 -4.06531 0
M  V30 2440 N 217.281 0.66697 -1.42791 0
M  V30 2441 C 218.528 1.42699 -1.43678 0
M  V30 2442 C 218.856 1.94419 -0.0560425 0
M  V30 2443 O 218.111 1.7182 0.936831 0
M  V30 2444 C 218.41 2.6349 -2.4147 0
M  V30 2445 C 218.076 2.30267 -3.8767 0
M  V30 2446 C 216.738 2.20918 -4.27491 0
M  V30 2447 C 219.09 2.03435 -4.79858 0
M  V30 2448 C 216.418 1.82873 -5.57471 0
M  V30 2449 C 218.77 1.66892 -6.10188 0
M  V30 2450 C 217.434 1.56058 -6.49001 0
M  V30 2451 H 216.704 0.522171 -0.525755 0
M  V30 2452 H 219.351 0.759785 -1.75783 0
M  V30 2453 H 217.656 3.35279 -2.0272 0
M  V30 2454 H 219.353 3.21684 -2.39417 0
M  V30 2455 H 215.943 2.38449 -3.56146 0
M  V30 2456 H 220.127 2.09586 -4.49875 0
M  V30 2457 H 215.383 1.7306 -5.86396 0
M  V30 2458 H 219.557 1.45157 -6.81104 0
M  V30 2459 H 217.184 1.26348 -7.49627 0
M  V30 2460 N 218.759 1.29093 0.90403 0
M  V30 2461 C 220.007 1.16583 1.65085 0
M  V30 2462 C 220.328 -0.283933 1.92922 0
M  V30 2463 O 219.598 -1.19509 1.55224 0
M  V30 2464 H 218.178 0.428467 0.611903 0
M  V30 2465 H 220.84 1.61959 1.08422 0
M  V30 2466 H 219.936 1.71266 2.6091 0
M  V30 2467 N 220.237 -1.11381 1.11499 0
M  V30 2468 C 221.462 -1.87475 0.887019 0
M  V30 2469 C 221.887 -1.79639 -0.557796 0
M  V30 2470 O 221.245 -1.15924 -1.39396 0
M  V30 2471 C 221.293 -3.34213 1.35403 0
M  V30 2472 O 220.397 -4.0903 0.526146 0
M  V30 2473 H 219.738 -0.582099 0.319463 0
M  V30 2474 H 222.268 -1.40785 1.48461 0
M  V30 2475 H 222.278 -3.8506 1.34881 0
M  V30 2476 H 220.953 -3.39232 2.40612 0
M  V30 2477 H 219.53 -3.68082 0.597522 0
M  V30 2478 N 221.715 -0.905404 -1.28997 0
M  V30 2479 C 222.645 -0.404212 -2.29975 0
M  V30 2480 C 223.626 0.523784 -1.61835 0
M  V30 2481 O 224.811 0.433298 -1.89304 0
M  V30 2482 C 221.941 0.364042 -3.45387 0
M  V30 2483 C 220.895 -0.474048 -4.25367 0
M  V30 2484 C 220.221 0.422045 -5.33032 0
M  V30 2485 C 221.521 -1.72696 -4.92923 0
M  V30 2486 H 223.215 -1.24807 -2.72146 0
M  V30 2487 H 220.761 -0.601585 -1.30832 0
M  V30 2488 H 222.714 0.725447 -4.15109 0
M  V30 2489 H 221.438 1.24174 -3.02074 0
M  V30 2490 H 220.097 -0.81786 -3.57361 0
M  V30 2491 H 219.745 1.29804 -4.85963 0
M  V30 2492 H 219.445 -0.135057 -5.87445 0
M  V30 2493 H 220.969 0.779517 -6.05604 0
M  V30 2494 H 222.383 -1.43495 -5.55051 0
M  V30 2495 H 220.78 -2.22582 -5.57295 0
M  V30 2496 H 221.85 -2.45964 -4.17887 0
M  V30 2497 N 223.193 1.4272 -0.668489 0
M  V30 2498 C 224.14 2.30796 0.0137489 0
M  V30 2499 C 225.11 1.4561 0.799177 0
M  V30 2500 O 226.295 1.74453 0.772702 0
M  V30 2501 C 223.435 3.31377 0.963507 0
M  V30 2502 C 222.548 4.31655 0.172569 0
M  V30 2503 C 221.683 5.19312 1.1175 0
M  V30 2504 C 220.722 6.11274 0.317886 0
M  V30 2505 N 219.859 6.91504 1.2152 0
M  V30 2506 H 224.699 2.88585 -0.743161 0
M  V30 2507 H 222.236 1.42154 -0.378226 0
M  V30 2508 H 224.194 3.88214 1.52792 0
M  V30 2509 H 222.824 2.75202 1.68712 0
M  V30 2510 H 221.876 3.76988 -0.508374 0
M  V30 2511 H 223.188 4.96779 -0.448527 0
M  V30 2512 H 222.342 5.80851 1.75206 0
M  V30 2513 H 221.081 4.5435 1.77249 0
M  V30 2514 H 220.086 5.48809 -0.329918 0
M  V30 2515 H 221.311 6.78283 -0.332917 0
M  V30 2516 H 219.257 6.29176 1.85671 0
M  V30 2517 H 219.174 7.53209 0.649036 0
M  V30 2518 H 220.442 7.57535 1.83742 0
M  V30 2519 N 224.671 0.411399 1.52136 0
M  V30 2520 C 225.618 -0.412975 2.27075 0
M  V30 2521 C 226.588 -1.03912 1.29582 0
M  V30 2522 O 227.773 -1.06296 1.58448 0
M  V30 2523 C 224.913 -1.52247 3.09701 0
M  V30 2524 C 224.026 -0.917021 4.22155 0
M  V30 2525 C 223.161 -1.9994 4.92135 0
M  V30 2526 C 222.2 -1.37101 5.96548 0
M  V30 2527 N 221.337 -2.39364 6.60038 0
M  V30 2528 H 226.177 0.232499 2.97092 0
M  V30 2529 H 223.714 0.126496 1.46555 0
M  V30 2530 H 225.672 -2.17674 3.55913 0
M  V30 2531 H 224.302 -2.13794 2.41851 0
M  V30 2532 H 223.354 -0.151742 3.80097 0
M  V30 2533 H 224.666 -0.418006 4.97045 0
M  V30 2534 H 223.82 -2.73088 5.41763 0
M  V30 2535 H 222.559 -2.53208 4.16818 0
M  V30 2536 H 221.564 -0.624873 5.46237 0
M  V30 2537 H 222.789 -0.845998 6.7381 0
M  V30 2538 H 220.735 -2.91759 5.87548 0
M  V30 2539 H 220.652 -1.9428 7.3061 0
M  V30 2540 H 221.92 -3.12074 7.14304 0
M  V30 2541 N 226.149 -1.5696 0.141893 0
M  V30 2542 C 227.082 -2.12271 -0.837627 0
M  V30 2543 C 228.06 -1.04495 -1.24578 0
M  V30 2544 O 229.244 -1.32293 -1.34278 0
M  V30 2545 C 226.371 -2.63822 -2.12404 0
M  V30 2546 C 225.417 -3.83698 -1.86221 0
M  V30 2547 S 226.25 -5.24948 -1.05781 0
M  V30 2548 C 227.406 -5.79884 -2.35552 0
M  V30 2549 H 227.639 -2.95023 -0.367249 0
M  V30 2550 H 225.172 -1.54231 -0.0723014 0
M  V30 2551 H 227.13 -2.94175 -2.86307 0
M  V30 2552 H 225.791 -1.8121 -2.56557 0
M  V30 2553 H 224.984 -4.17995 -2.81596 0
M  V30 2554 H 224.586 -3.5408 -1.20429 0
M  V30 2555 H 226.878 -5.91005 -3.31239 0
M  V30 2556 H 227.821 -6.77544 -2.05767 0
M  V30 2557 H 228.229 -5.08095 -2.45967 0
M  V30 2558 N 227.627 0.131896 -1.57047 0
M  V30 2559 C 228.557 1.16384 -2.02428 0
M  V30 2560 C 229.538 1.43936 -0.90644 0
M  V30 2561 O 230.723 1.54599 -1.17528 0
M  V30 2562 C 227.853 2.49328 -2.4177 0
M  V30 2563 C 226.807 2.36266 -3.56879 0
M  V30 2564 C 226.133 3.74057 -3.8208 0
M  V30 2565 C 227.433 1.834 -4.89042 0
M  V30 2566 H 229.127 0.786433 -2.88887 0
M  V30 2567 H 226.673 0.376855 -1.38981 0
M  V30 2568 H 228.626 3.21759 -2.7212 0
M  V30 2569 H 227.35 2.88934 -1.52266 0
M  V30 2570 H 226.009 1.66286 -3.26718 0
M  V30 2571 H 225.657 4.11125 -2.89803 0
M  V30 2572 H 225.357 3.66174 -4.59554 0
M  V30 2573 H 226.881 4.48012 -4.1487 0
M  V30 2574 H 228.295 2.45636 -5.18011 0
M  V30 2575 H 226.692 1.8637 -5.70426 0
M  V30 2576 H 227.762 0.790662 -4.7841 0
M  V30 2577 N 229.106 1.52395 0.401703 0
M  V30 2578 C 230.383 1.57387 1.16141 0
M  V30 2579 C 230.763 0.359359 2.08019 0
M  V30 2580 O 230.111 -0.65326 2.18963 0
M  V30 2581 C 230.321 2.90631 1.93221 0
M  V30 2582 C 231.669 3.43904 2.49028 0
M  V30 2583 O 232.693 2.92421 2.03393 0
M  V30 2584 O 231.552 4.33823 3.32356 0
M  V30 2585 H 228.646 0.634262 0.530698 0
M  V30 2586 H 231.192 1.64725 0.407883 0
M  V30 2587 H 229.964 3.70473 1.25958 0
M  V30 2588 H 229.587 2.8662 2.75563 0
M  V30 2589 N 230.584 -0.659388 1.43143 0
M  V30 2590 C 231.494 -1.80167 1.50256 0
M  V30 2591 C 232.51 -1.69571 0.390106 0
M  V30 2592 O 233.686 -1.90849 0.643319 0
M  V30 2593 C 230.751 -3.16409 1.41725 0
M  V30 2594 C 229.812 -3.38848 2.63591 0
M  V30 2595 C 229.045 -4.68591 2.55458 0
M  V30 2596 O 229.268 -5.47532 1.59891 0
M  V30 2597 O 228.202 -4.92614 3.45854 0
M  V30 2598 H 232.028 -1.77121 2.46702 0
M  V30 2599 H 229.613 -0.817092 1.25076 0
M  V30 2600 H 231.495 -3.9768 1.39387 0
M  V30 2601 H 230.17 -3.20059 0.484118 0
M  V30 2602 H 229.077 -2.57366 2.71502 0
M  V30 2603 H 230.41 -3.4004 3.55856 0
M  V30 2604 N 232.062 -1.29571 -0.897171 0
M  V30 2605 C 232.972 -1.16808 -2.03453 0
M  V30 2606 C 233.988 -0.0907471 -1.73763 0
M  V30 2607 O 235.164 -0.303312 -1.99103 0
M  V30 2608 C 232.229 -0.848264 -3.36163 0
M  V30 2609 C 231.29 -2.0097 -3.79354 0
M  V30 2610 C 230.523 -1.70505 -5.05731 0
M  V30 2611 O 230.746 -0.62718 -5.66941 0
M  V30 2612 O 229.68 -2.5538 -5.45036 0
M  V30 2613 H 233.506 -2.12325 -2.17144 0
M  V30 2614 H 231.091 -1.09047 -1.02123 0
M  V30 2615 H 232.973 -0.684581 -4.15802 0
M  V30 2616 H 231.648 0.0771071 -3.23608 0
M  V30 2617 H 230.555 -2.22863 -3.00471 0
M  V30 2618 H 231.888 -2.91636 -3.96496 0
M  V30 2619 N 233.54 1.10788 -1.12088 0
M  V30 2620 C 234.787 1.82671 -0.873931 0
M  V30 2621 C 235.115 1.85004 0.600311 0
M  V30 2622 O 234.37 1.30365 1.45957 0
M  V30 2623 C 234.669 3.29294 -1.38926 0
M  V30 2624 C 234.335 3.47113 -2.87791 0
M  V30 2625 C 232.997 3.51684 -3.28439 0
M  V30 2626 C 235.349 3.52808 -3.83635 0
M  V30 2627 C 232.677 3.59513 -4.63646 0
M  V30 2628 C 235.029 3.62169 -5.18668 0
M  V30 2629 C 233.693 3.65003 -5.58864 0
M  V30 2630 H 232.963 0.668441 -0.319794 0
M  V30 2631 H 235.61 1.30613 -1.40045 0
M  V30 2632 H 233.915 3.83894 -0.783122 0
M  V30 2633 H 235.612 3.83416 -1.17443 0
M  V30 2634 H 232.202 3.4423 -2.5535 0
M  V30 2635 H 236.386 3.4853 -3.53328 0
M  V30 2636 H 231.642 3.59987 -4.94185 0
M  V30 2637 H 235.816 3.6552 -5.92763 0
M  V30 2638 H 233.443 3.70822 -6.63623 0
M  V30 2639 N 235.018 0.912232 1.28515 0
M  V30 2640 C 236.265 0.544599 1.95039 0
M  V30 2641 C 236.593 -0.911435 1.71823 0
M  V30 2642 O 235.848 -1.66317 1.03137 0
M  V30 2643 C 236.147 0.798392 3.48368 0
M  V30 2644 C 235.813 2.23374 3.91682 0
M  V30 2645 C 234.475 2.62617 4.03219 0
M  V30 2646 C 236.827 3.16786 4.13879 0
M  V30 2647 C 234.155 3.94429 4.3433 0
M  V30 2648 C 236.507 4.48161 4.46469 0
M  V30 2649 C 235.171 4.8726 4.56217 0
M  V30 2650 H 234.441 0.199283 0.7137 0
M  V30 2651 H 237.088 1.15327 1.52879 0
M  V30 2652 H 235.393 0.106908 3.91654 0
M  V30 2653 H 237.09 0.493141 3.97956 0
M  V30 2654 H 233.68 1.91922 3.83228 0
M  V30 2655 H 237.864 2.87677 4.0442 0
M  V30 2656 H 233.12 4.24426 4.40082 0
M  V30 2657 H 237.294 5.20559 4.62592 0
M  V30 2658 H 234.921 5.89431 4.80078 0
M  V30 2659 N 236.496 -1.42363 0.676048 0
M  V30 2660 C 237.429 -2.28141 -0.0516916 0
M  V30 2661 C 238.407 -1.41135 -0.807439 0
M  V30 2662 O 239.591 -1.70573 -0.802305 0
M  V30 2663 C 236.718 -3.21007 -1.08039 0
M  V30 2664 C 235.764 -4.24426 -0.420076 0
M  V30 2665 S 236.597 -5.29134 0.823246 0
M  V30 2666 C 237.753 -6.25566 -0.204344 0
M  V30 2667 H 237.986 -2.89515 0.675884 0
M  V30 2668 H 235.519 -1.47211 0.465635 0
M  V30 2669 H 237.477 -3.75048 -1.66881 0
M  V30 2670 H 236.138 -2.58766 -1.78042 0
M  V30 2671 H 235.331 -4.89596 -1.19633 0
M  V30 2672 H 234.933 -3.7388 0.0947845 0
M  V30 2673 H 237.225 -6.69098 -1.06369 0
M  V30 2674 H 238.168 -7.06895 0.412915 0
M  V30 2675 H 238.576 -5.61811 -0.55038 0
M  V30 2676 N 237.974 -0.419461 -1.51915 0
M  V30 2677 C 239.199 0.154572 -2.06823 0
M  V30 2678 C 239.624 1.3722 -1.28656 0
M  V30 2679 O 238.982 1.78461 -0.319583 0
M  V30 2680 C 239.03 0.473172 -3.57482 0
M  V30 2681 O 238.134 1.56255 -3.81652 0
M  V30 2682 H 237.475 0.0096924 -0.663929 0
M  V30 2683 H 240.005 -0.595642 -1.95738 0
M  V30 2684 H 240.015 0.728825 -4.01438 0
M  V30 2685 H 238.69 -0.416873 -4.13805 0
M  V30 2686 H 237.267 1.29825 -3.49571 0
M  V30 2687 N 239.452 1.56882 -0.150215 0
M  V30 2688 C 240.402 2.13501 0.800071 0
M  V30 2689 C 241.386 1.06368 1.20726 0
M  V30 2690 O 242.578 1.32538 1.17314 0
M  V30 2691 C 239.707 2.76271 2.03787 0
M  V30 2692 C 238.793 3.90533 1.65364 0
M  V30 2693 N 239.184 4.96259 0.977794 0
M  V30 2694 C 237.482 4.013 1.94613 0
M  V30 2695 C 238.183 5.76286 0.791794 0
M  V30 2696 N 237.159 5.27163 1.32666 0
M  V30 2697 H 240.961 2.92615 0.274517 0
M  V30 2698 H 238.475 1.62319 0.0512144 0
M  V30 2699 H 240.472 3.15197 2.72867 0
M  V30 2700 H 239.132 1.98631 2.56857 0
M  V30 2701 H 240.143 5.13953 0.638193 0
M  V30 2702 H 236.82 3.3474 2.4951 0
M  V30 2703 H 238.21 6.71401 0.258894 0
M  V30 2704 N 240.93 -0.123565 1.57115 0
M  V30 2705 C 242.346 -0.476961 1.52306 0
M  V30 2706 C 242.546 -1.82109 0.86248 0
M  V30 2707 O 241.602 -2.48586 0.442884 0
M  V30 2708 C 242.915 -0.465661 2.97073 0
M  V30 2709 C 244.463 -0.549534 3.08138 0
M  V30 2710 C 244.938 -0.568669 4.54456 0
M  V30 2711 N 246.429 -0.630237 4.58892 0
M  V30 2712 C 247.164 -0.666415 5.69514 0
M  V30 2713 N 246.66 -0.660514 6.89644 0
M  V30 2714 N 248.453 -0.709077 5.5761 0
M  V30 2715 H 240.604 0.757198 1.98445 0
M  V30 2716 H 242.867 0.278808 0.906074 0
M  V30 2717 H 242.573 0.454232 3.48754 0
M  V30 2718 H 242.447 -1.29513 3.54269 0
M  V30 2719 H 244.834 -1.45985 2.56461 0
M  V30 2720 H 244.915 0.307532 2.53945 0
M  V30 2721 H 244.559 0.337581 5.06777 0
M  V30 2722 H 244.489 -1.44256 5.06456 0
M  V30 2723 H 246.98 -0.641146 3.72421 0
M  V30 2724 H 247.293 -0.690616 7.69708 0
M  V30 2725 H 245.638 -0.628012 6.92157 0
M  V30 2726 H 248.829 -0.711019 4.62668 0
M  V30 2727 H 249.002 -0.733804 6.43832 0
M  V30 2728 N 242.408 -1.52605 -0.393616 0
M  V30 2729 C 243.355 -1.77055 -1.48054 0
M  V30 2730 C 244.325 -0.61358 -1.54352 0
M  V30 2731 O 245.51 -0.852806 -1.70681 0
M  V30 2732 C 242.65 -1.94108 -2.85335 0
M  V30 2733 C 241.763 -3.21792 -2.88226 0
M  V30 2734 C 240.898 -3.29188 -4.16904 0
M  V30 2735 C 239.937 -4.51013 -4.13828 0
M  V30 2736 N 239.074 -4.55716 -5.34105 0
M  V30 2737 H 243.914 -2.69815 -1.26506 0
M  V30 2738 H 241.451 -1.33683 -0.61379 0
M  V30 2739 H 243.409 -2.01979 -3.65049 0
M  V30 2740 H 242.039 -1.04713 -3.05344 0
M  V30 2741 H 241.091 -3.23015 -2.00911 0
M  V30 2742 H 242.403 -4.11557 -2.8182 0
M  V30 2743 H 241.557 -3.36216 -5.05018 0
M  V30 2744 H 240.296 -2.37389 -4.26026 0
M  V30 2745 H 239.301 -4.44115 -3.24102 0
M  V30 2746 H 240.526 -5.44123 -4.06333 0
M  V30 2747 H 238.472 -3.66807 -5.43865 0
M  V30 2748 H 238.389 -5.39346 -5.29756 0
M  V30 2749 H 239.657 -4.66993 -6.2413 0
M  V30 2750 N 243.887 0.651787 -1.4349 0
M  V30 2751 C 244.817 1.77621 -1.51569 0
M  V30 2752 C 245.798 1.66022 -0.370253 0
M  V30 2753 O 246.983 1.85095 -0.587658 0
M  V30 2754 C 244.113 3.16056 -1.43966 0
M  V30 2755 C 243.067 3.4242 -2.56774 0
M  V30 2756 C 242.393 4.8067 -2.34223 0
M  V30 2757 C 243.693 3.37023 -3.99015 0
M  V30 2758 H 245.387 1.71117 -2.45681 0
M  V30 2759 H 242.933 0.821825 -1.18246 0
M  V30 2760 H 244.886 3.94472 -1.48221 0
M  V30 2761 H 243.61 3.23293 -0.463586 0
M  V30 2762 H 242.269 2.66375 -2.51873 0
M  V30 2763 H 241.917 4.84585 -1.34856 0
M  V30 2764 H 241.617 4.9927 -3.09844 0
M  V30 2765 H 243.141 5.61342 -2.40265 0
M  V30 2766 H 244.555 4.05374 -4.05395 0
M  V30 2767 H 242.952 3.67159 -4.74673 0
M  V30 2768 H 244.022 2.3518 -4.2405 0
M  V30 2769 N 245.365 1.30045 0.890287 0
M  V30 2770 C 246.595 1.21296 1.67245 0
M  V30 2771 C 247.003 -0.227471 1.87828 0
M  V30 2772 O 246.346 -1.16296 1.422 0
M  V30 2773 C 246.408 1.86519 3.07329 0
M  V30 2774 C 246.072 3.35837 3.09939 0
M  V30 2775 C 247.069 4.31915 2.89389 0
M  V30 2776 C 244.754 3.77196 3.31706 0
M  V30 2777 C 246.748 5.67325 2.90552 0
M  V30 2778 C 244.435 5.12725 3.32499 0
M  V30 2779 C 245.433 6.076 3.11947 0
M  V30 2780 O 245.121 7.40655 3.12547 0
M  V30 2781 H 244.853 0.4211 0.528821 0
M  V30 2782 H 247.407 1.72111 1.12103 0
M  V30 2783 H 245.637 1.30228 3.64112 0
M  V30 2784 H 247.326 1.71963 3.67673 0
M  V30 2785 H 248.092 4.01294 2.72375 0
M  V30 2786 H 243.971 3.03796 3.4674 0
M  V30 2787 H 247.515 6.41354 2.74429 0
M  V30 2788 H 243.412 5.42988 3.49047 0
M  V30 2789 H 244.18 7.49577 3.28749 0
M  V30 2790 N 246.843 -1.10192 1.12674 0
M  V30 2791 C 248.073 -1.85713 0.905213 0
M  V30 2792 C 248.481 -1.81056 -0.549108 0
M  V30 2793 O 247.824 -1.19927 -1.39151 0
M  V30 2794 C 247.886 -3.34972 1.30516 0
M  V30 2795 C 247.55 -3.63385 2.77129 0
M  V30 2796 C 248.547 -3.59772 3.75313 0
M  V30 2797 C 246.232 -3.91981 3.14096 0
M  V30 2798 C 248.226 -3.84354 5.08479 0
M  V30 2799 C 245.913 -4.16218 4.47443 0
M  V30 2800 C 246.911 -4.12395 5.44444 0
M  V30 2801 O 246.599 -4.36014 6.75387 0
M  V30 2802 H 246.331 -0.593719 0.323223 0
M  V30 2803 H 248.885 -1.40198 1.50112 0
M  V30 2804 H 247.115 -3.81156 0.652463 0
M  V30 2805 H 248.804 -3.91886 1.05736 0
M  V30 2806 H 249.57 -3.37716 3.48099 0
M  V30 2807 H 245.449 -3.94085 2.39202 0
M  V30 2808 H 248.993 -3.81285 5.84181 0
M  V30 2809 H 244.89 -4.37754 4.74386 0
M  V30 2810 H 245.658 -4.53516 6.8137 0
M  V30 2811 N 248.321 -0.919034 -1.28029 0
M  V30 2812 C 249.598 -0.473668 -1.89778 0
M  V30 2813 C 249.978 1.04783 -1.83259 0
M  V30 2814 O 249.326 1.8982 -1.27202 0
M  V30 2815 C 249.536 -1.00998 -3.34066 0
M  V30 2816 C 250.884 -1.06525 -4.1102 0
M  V30 2817 O 251.908 -0.958996 -3.43048 0
M  V30 2818 O 250.767 -1.22776 -5.3253 0
M  V30 2819 H 247.861 -0.15098 -0.813101 0
M  V30 2820 H 250.407 -1.01016 -1.36359 0
M  V30 2821 H 249.179 -2.05392 -3.33061 0
M  V30 2822 H 248.802 -0.454626 -3.94992 0
M  V30 2823 N 249.799 1.42003 -0.683588 0
M  V30 2824 C 251.027 2.05746 -0.218182 0
M  V30 2825 C 251.442 1.51396 1.12804 0
M  V30 2826 O 250.799 0.657303 1.70252 0
M  V30 2827 C 250.85 3.61171 -0.154131 0
M  V30 2828 O 250.571 4.13508 -1.44716 0
M  V30 2829 C 252.072 4.42042 0.333713 0
M  V30 2830 H 249.292 0.662888 -0.10402 0
M  V30 2831 H 251.836 1.81987 -0.9328 0
M  V30 2832 H 249.991 3.84012 0.511231 0
M  V30 2833 H 250.405 5.07453 -1.32632 0
M  V30 2834 H 251.879 5.51028 0.327423 0
M  V30 2835 H 252.356 4.17269 1.37053 0
M  V30 2836 H 252.962 4.24239 -0.300222 0
M  V30 2837 N 251.277 0.427512 1.51691 0
M  V30 2838 C 252.207 -0.3796 2.30394 0
M  V30 2839 C 253.188 -1.02982 1.35384 0
M  V30 2840 O 254.373 -1.03534 1.643 0
M  V30 2841 C 251.503 -1.48649 3.1388 0
M  V30 2842 C 250.457 -0.960294 4.17088 0
M  V30 2843 C 249.783 -2.16219 4.89033 0
M  V30 2844 C 251.083 -0.00153679 5.223 0
M  V30 2845 H 252.777 0.277164 2.98114 0
M  V30 2846 H 250.323 0.134739 1.43368 0
M  V30 2847 H 252.276 -2.05826 3.67714 0
M  V30 2848 H 251 -2.1714 2.43962 0
M  V30 2849 H 249.659 -0.410806 3.64291 0
M  V30 2850 H 249.307 -2.83307 4.15628 0
M  V30 2851 H 249.007 -1.81654 5.58816 0
M  V30 2852 H 250.531 -2.73968 5.45687 0
M  V30 2853 H 251.945 -0.482687 5.71264 0
M  V30 2854 H 250.342 0.256199 5.99553 0
M  V30 2855 H 251.412 0.938174 4.75738 0
M  V30 2856 N 252.755 -1.56801 0.158532 0
M  V30 2857 C 254.002 -1.9649 -0.489679 0
M  V30 2858 C 254.33 -1.04394 -1.6411 0
M  V30 2859 O 253.585 -0.0754401 -1.95555 0
M  V30 2860 C 253.884 -3.4235 -1.02623 0
M  V30 2861 C 253.55 -4.50899 0.00794526 0
M  V30 2862 C 252.212 -4.80312 0.292207 0
M  V30 2863 C 254.564 -5.16333 0.710584 0
M  V30 2864 C 251.892 -5.72461 1.28472 0
M  V30 2865 C 254.244 -6.09553 1.69199 0
M  V30 2866 C 252.908 -6.37339 1.98383 0
M  V30 2867 H 252.178 -0.719009 -0.179186 0
M  V30 2868 H 254.825 -1.8989 0.247798 0
M  V30 2869 H 253.13 -3.45838 -1.84128 0
M  V30 2870 H 254.827 -3.70393 -1.53656 0
M  V30 2871 H 251.417 -4.28015 -0.22379 0
M  V30 2872 H 255.601 -4.93732 0.504174 0
M  V30 2873 H 250.857 -5.92278 1.51714 0
M  V30 2874 H 255.031 -6.59327 2.24189 0
M  V30 2875 H 252.658 -7.08546 2.7544 0
M  V30 2876 N 254.233 0.115231 -1.57178 0
M  V30 2877 C 255.143 1.15994 -2.03918 0
M  V30 2878 C 256.159 1.45103 -0.960268 0
M  V30 2879 O 257.335 1.56144 -1.27204 0
M  V30 2880 C 254.4 2.46568 -2.43732 0
M  V30 2881 C 253.461 2.24822 -3.65723 0
M  V30 2882 C 252.694 3.4917 -4.03629 0
M  V30 2883 O 252.917 4.56623 -3.41835 0
M  V30 2884 O 251.851 3.39949 -4.96708 0
M  V30 2885 H 255.677 0.793019 -2.93164 0
M  V30 2886 H 253.262 0.3263 -1.45793 0
M  V30 2887 H 255.144 3.23492 -2.70057 0
M  V30 2888 H 253.819 2.82726 -1.57631 0
M  V30 2889 H 252.726 1.45744 -3.44542 0
M  V30 2890 H 254.059 1.93566 -4.52541 0
M  V30 2891 N 255.711 1.52812 0.385517 0
M  V30 2892 C 256.959 1.67694 1.12797 0
M  V30 2893 C 257.28 0.421115 1.90399 0
M  V30 2894 O 256.55 -0.564551 1.87589 0
M  V30 2895 H 255.13 0.618155 0.419396 0
M  V30 2896 H 257.792 1.89938 0.436972 0
M  V30 2897 H 256.888 2.52896 1.82894 0
M  V30 2898 N 257.189 -0.644168 1.43834 0
M  V30 2899 C 258.419 -1.42939 1.49171 0
M  V30 2900 C 258.827 -1.88874 0.111048 0
M  V30 2901 O 258.17 -1.60656 -0.8908 0
M  V30 2902 C 258.232 -2.69151 2.38324 0
M  V30 2903 C 257.896 -2.45097 3.85715 0
M  V30 2904 C 258.893 -2.07747 4.76589 0
M  V30 2905 C 256.578 -2.59141 4.30292 0
M  V30 2906 C 258.572 -1.8475 6.10038 0
M  V30 2907 C 256.259 -2.35759 5.63792 0
M  V30 2908 C 257.257 -1.9862 6.53482 0
M  V30 2909 O 256.945 -1.75489 7.84512 0
M  V30 2910 H 256.677 -0.445271 0.508635 0
M  V30 2911 H 259.231 -0.79621 1.8934 0
M  V30 2912 H 257.461 -3.3506 1.93058 0
M  V30 2913 H 259.15 -3.31123 2.3476 0
M  V30 2914 H 259.916 -1.96465 4.43426 0
M  V30 2915 H 255.795 -2.87022 3.60749 0
M  V30 2916 H 259.339 -1.55686 6.80006 0
M  V30 2917 H 255.236 -2.46646 5.9652 0
M  V30 2918 H 256.004 -1.89841 7.9618 0
M  V30 2919 N 258.668 -1.30515 -0.883378 0
M  V30 2920 C 259.945 -1.10086 -1.6168 0
M  V30 2921 C 260.325 0.349269 -2.08191 0
M  V30 2922 O 259.673 1.34105 -1.85008 0
M  V30 2923 C 259.883 -2.10315 -2.78511 0
M  V30 2924 C 261.231 -2.42119 -3.48803 0
M  V30 2925 O 262.255 -2.08638 -2.88702 0
M  V30 2926 O 261.114 -2.99396 -4.57192 0
M  V30 2927 H 258.208 -0.422907 -0.710689 0
M  V30 2928 H 260.754 -1.41947 -0.930015 0
M  V30 2929 H 259.526 -3.07917 -2.41459 0
M  V30 2930 H 259.149 -1.79282 -3.54886 0
M  V30 2931 N 260.146 1.09593 -1.13257 0
M  V30 2932 C 261.076 2.18214 -0.830946 0
M  V30 2933 C 262.057 1.68812 0.208966 0
M  V30 2934 O 263.242 1.9408 0.0682666 0
M  V30 2935 C 260.372 3.46051 -0.294296 0
M  V30 2936 C 259.326 4.08778 -1.26826 0
M  V30 2937 C 258.652 5.31419 -0.591449 0
M  V30 2938 C 259.952 4.51476 -2.62615 0
M  V30 2939 H 261.646 2.43703 -1.73923 0
M  V30 2940 H 259.192 1.17128 -0.837675 0
M  V30 2941 H 261.145 4.2134 -0.0709606 0
M  V30 2942 H 259.869 3.20079 0.649366 0
M  V30 2943 H 258.528 3.35505 -1.47756 0
M  V30 2944 H 258.176 5.01727 0.357633 0
M  V30 2945 H 257.876 5.74341 -1.24123 0
M  V30 2946 H 259.4 6.09433 -0.377355 0
M  V30 2947 H 260.814 5.17999 -2.45663 0
M  V30 2948 H 259.211 5.05277 -3.23752 0
M  V30 2949 H 260.281 3.63962 -3.20406 0
M  V30 2950 N 261.624 0.925811 1.2754 0
M  V30 2951 C 262.534 0.428993 2.30644 0
M  V30 2952 C 263.55 -0.489387 1.66976 0
M  V30 2953 O 264.726 -0.372653 1.97922 0
M  V30 2954 C 261.791 -0.311967 3.45294 0
M  V30 2955 C 260.852 0.641098 4.24486 0
M  V30 2956 C 260.085 -0.0645955 5.33661 0
M  V30 2957 O 260.308 -1.28429 5.55754 0
M  V30 2958 O 259.242 0.606265 5.98839 0
M  V30 2959 H 263.068 1.28504 2.75173 0
M  V30 2960 H 260.653 0.691086 1.32455 0
M  V30 2961 H 262.535 -0.729972 4.15029 0
M  V30 2962 H 261.21 -1.14365 3.02824 0
M  V30 2963 H 260.117 1.10874 3.57292 0
M  V30 2964 H 261.45 1.43995 4.70666 0
M  V30 2965 N 263.102 -1.41638 0.69111 0
M  V30 2966 C 264.348 -2.01598 0.220519 0
M  V30 2967 C 264.681 -1.54594 -1.17535 0
M  V30 2968 O 263.956 -0.755177 -1.79241 0
M  V30 2969 C 264.239 -3.59062 0.273243 0
M  V30 2970 C 264.092 -4.16203 1.70573 0
M  V30 2971 C 265.411 -4.38546 -0.369457 0
M  V30 2972 H 262.53 -0.732468 0.0816045 0
M  V30 2973 H 265.172 -1.68445 0.878986 0
M  V30 2974 H 263.322 -3.87435 -0.287411 0
M  V30 2975 H 264.994 -3.98722 2.31989 0
M  V30 2976 H 263.237 -3.71414 2.2413 0
M  V30 2977 H 263.908 -5.25358 1.69419 0
M  V30 2978 H 266.384 -4.1596 0.107977 0
M  V30 2979 H 265.26 -5.48069 -0.302002 0
M  V30 2980 H 265.521 -4.17662 -1.44951 0
M  V30 2981 N 264.58 -0.43555 -1.51462 0
M  V30 2982 C 265.827 0.131514 -2.02072 0
M  V30 2983 C 266.155 1.42868 -1.31981 0
M  V30 2984 O 265.41 1.91076 -0.422883 0
M  V30 2985 C 265.709 0.39942 -3.55161 0
M  V30 2986 C 265.375 -0.81172 -4.43533 0
M  V30 2987 C 264.037 -1.14387 -4.67407 0
M  V30 2988 C 266.389 -1.61976 -4.95392 0
M  V30 2989 C 263.717 -2.28477 -5.40384 0
M  V30 2990 C 266.069 -2.75164 -5.6962 0
M  V30 2991 C 264.733 -3.08835 -5.91758 0
M  V30 2992 H 264.003 0.0481244 -0.739436 0
M  V30 2993 H 266.65 -0.58238 -1.8243 0
M  V30 2994 H 264.955 1.19519 -3.73125 0
M  V30 2995 H 266.652 0.85157 -3.91854 0
M  V30 2996 H 263.242 -0.542898 -4.25148 0
M  V30 2997 H 267.426 -1.37637 -4.76833 0
M  V30 2998 H 262.682 -2.5488 -5.55739 0
M  V30 2999 H 266.856 -3.38147 -6.08793 0
M  V30 3000 H 264.483 -3.97353 -6.48086 0
M  V30 3001 N 266.058 1.56714 -0.166846 0
M  V30 3002 C 267.283 2.01557 0.488833 0
M  V30 3003 C 267.708 1.0463 1.56314 0
M  V30 3004 O 267.066 0.0251304 1.81283 0
M  V30 3005 C 267.114 3.4503 1.04818 0
M  V30 3006 O 266.218 3.51163 2.16236 0
M  V30 3007 H 265.559 0.653516 0.117526 0
M  V30 3008 H 268.089 2.02818 -0.269421 0
M  V30 3009 H 268.099 3.84243 1.37191 0
M  V30 3010 H 266.774 4.15077 0.261572 0
M  V30 3011 H 265.351 3.23807 1.84942 0
M  V30 3012 N 267.536 -0.106894 1.57237 0
M  V30 3013 C 268.782 -0.81373 1.85759 0
M  V30 3014 C 269.115 -1.78952 0.754315 0
M  V30 3015 O 268.39 -1.93029 -0.23879 0
M  V30 3016 C 268.673 -1.55293 3.24894 0
M  V30 3017 C 268.526 -0.595929 4.45835 0
M  V30 3018 C 269.845 -2.5063 3.61763 0
M  V30 3019 H 266.964 -0.294369 0.67566 0
M  V30 3020 H 269.606 -0.0776472 1.89841 0
M  V30 3021 H 267.756 -2.1804 3.21544 0
M  V30 3022 H 269.428 0.0236262 4.61294 0
M  V30 3023 H 267.671 0.0916191 4.33703 0
M  V30 3024 H 268.342 -1.15004 5.39887 0
M  V30 3025 H 270.818 -1.97982 3.65981 0
M  V30 3026 H 269.694 -2.99376 4.60071 0
M  V30 3027 H 269.955 -3.3385 2.89821 0
M  V30 3028 N 269.014 -1.53014 -0.377408 0
M  V30 3029 C 270.244 -1.72265 -1.14054 0
M  V30 3030 C 270.652 -0.44601 -1.83868 0
M  V30 3031 O 269.995 0.590095 -1.73964 0
M  V30 3032 C 270.057 -2.82492 -2.22348 0
M  V30 3033 C 269.721 -4.23233 -1.72402 0
M  V30 3034 C 270.718 -5.05992 -1.19448 0
M  V30 3035 C 268.403 -4.696 -1.78273 0
M  V30 3036 C 270.397 -6.33203 -0.730268 0
M  V30 3037 C 268.084 -5.96792 -1.31464 0
M  V30 3038 C 269.082 -6.78424 -0.789297 0
M  V30 3039 O 268.77 -8.0323 -0.328077 0
M  V30 3040 H 268.502 -0.579873 -0.347453 0
M  V30 3041 H 271.056 -2.00502 -0.445882 0
M  V30 3042 H 269.286 -2.49702 -2.95272 0
M  V30 3043 H 270.975 -2.90034 -2.83963 0
M  V30 3044 H 271.741 -4.71349 -1.14259 0
M  V30 3045 H 267.62 -4.06142 -2.18106 0
M  V30 3046 H 271.164 -6.96868 -0.319542 0
M  V30 3047 H 267.061 -6.30937 -1.36342 0
M  V30 3048 H 267.829 -8.1727 -0.448493 0
M  V30 3049 N 270.492 0.636531 -1.44174 0
M  V30 3050 C 271.72 1.42353 -1.50144 0
M  V30 3051 C 272.135 1.88389 -0.124575 0
M  V30 3052 O 271.492 1.6051 0.868489 0
M  V30 3053 C 271.543 2.64744 -2.46156 0
M  V30 3054 O 271.264 2.20629 -3.7849 0
M  V30 3055 C 272.765 3.57929 -2.61537 0
M  V30 3056 H 269.985 0.436752 -0.5094 0
M  V30 3057 H 272.529 0.778933 -1.89084 0
M  V30 3058 H 270.684 3.25307 -2.10366 0
M  V30 3059 H 271.098 2.99938 -4.30276 0
M  V30 3060 H 272.572 4.40428 -3.32757 0
M  V30 3061 H 273.049 4.06382 -1.66585 0
M  V30 3062 H 273.655 3.03238 -2.98206 0
M  V30 3063 N 271.97 1.30982 0.876444 0
M  V30 3064 C 273.198 1.23242 1.6619 0
M  V30 3065 C 273.613 -0.203345 1.87702 0
M  V30 3066 O 272.97 -1.13317 1.43057 0
M  V30 3067 C 273.021 1.96623 3.03351 0
M  V30 3068 O 272.742 3.34594 2.82804 0
M  V30 3069 C 274.243 1.95644 3.97792 0
M  V30 3070 H 271.463 0.426126 0.518322 0
M  V30 3071 H 274.007 1.7275 1.09442 0
M  V30 3072 H 272.162 1.50892 3.56806 0
M  V30 3073 H 272.576 3.71873 3.69879 0
M  V30 3074 H 274.05 2.51511 4.91372 0
M  V30 3075 H 274.527 0.937395 4.2908 0
M  V30 3076 H 275.133 2.41225 3.50272 0
M  V30 3077 N 273.449 -1.08991 1.13837 0
M  V30 3078 C 274.677 -1.85011 0.926202 0
M  V30 3079 C 275.092 -1.8135 -0.525127 0
M  V30 3080 O 274.449 -1.21287 -1.36366 0
M  V30 3081 C 274.5 -3.32802 1.41155 0
M  V30 3082 O 274.221 -3.36444 2.80601 0
M  V30 3083 C 275.722 -4.25649 1.23847 0
M  V30 3084 H 272.942 -0.584249 0.32999 0
M  V30 3085 H 275.486 -1.37688 1.51202 0
M  V30 3086 H 273.641 -3.77536 0.868631 0
M  V30 3087 H 274.055 -4.28657 3.02248 0
M  V30 3088 H 275.529 -5.27485 1.62675 0
M  V30 3089 H 276.006 -4.38828 0.18065 0
M  V30 3090 H 276.612 -3.86735 1.76964 0
M  V30 3091 N 274.927 -0.932562 -1.27047 0
M  V30 3092 C 276.155 -0.592031 -1.98249 0
M  V30 3093 C 276.57 0.831062 -1.69525 0
M  V30 3094 O 275.927 1.55299 -0.958561 0
M  V30 3095 C 275.978 -0.814279 -3.5221 0
M  V30 3096 O 275.699 -2.18139 -3.7993 0
M  V30 3097 C 277.2 -0.483121 -4.4066 0
M  V30 3098 H 274.42 -0.223896 -0.632544 0
M  V30 3099 H 276.964 -1.25091 -1.61779 0
M  V30 3100 H 275.119 -0.20213 -3.86872 0
M  V30 3101 H 275.533 -2.235 -4.74498 0
M  V30 3102 H 277.007 -0.689298 -5.47679 0
M  V30 3103 H 277.484 0.581546 -4.35333 0
M  V30 3104 H 278.09 -1.07362 -4.11526 0
M  V30 3105 N 276.405 1.4127 -0.698611 0
M  V30 3106 C 277.682 1.94955 -0.158762 0
M  V30 3107 C 278.062 1.63781 1.33188 0
M  V30 3108 O 277.41 0.946423 2.07979 0
M  V30 3109 C 277.62 3.46044 -0.453309 0
M  V30 3110 C 278.968 4.22872 -0.382707 0
M  V30 3111 O 279.992 3.54076 -0.388396 0
M  V30 3112 O 278.851 5.45407 -0.345463 0
M  V30 3113 H 275.945 0.82683 -0.0167505 0
M  V30 3114 H 278.491 1.50971 -0.77498 0
M  V30 3115 H 277.263 3.62028 -1.48498 0
M  V30 3116 H 276.886 3.97128 0.19373 0
M  V30 3117 N 277.883 0.443576 1.51229 0
M  V30 3118 C 279.13 -0.120796 2.02139 0
M  V30 3119 C 279.458 -1.42166 1.32736 0
M  V30 3120 O 278.713 -1.90849 0.43301 0
M  V30 3121 C 279.012 -0.380579 3.55368 0
M  V30 3122 C 278.678 0.83523 4.43097 0
M  V30 3123 C 277.34 1.16864 4.66794 0
M  V30 3124 C 279.692 1.64601 4.94526 0
M  V30 3125 C 277.02 2.31339 5.39165 0
M  V30 3126 C 279.372 2.78181 5.68153 0
M  V30 3127 C 278.036 3.11969 5.90112 0
M  V30 3128 H 277.306 -0.0442023 0.73968 0
M  V30 3129 H 279.953 0.592046 1.82118 0
M  V30 3130 H 278.258 -1.17538 3.73754 0
M  V30 3131 H 279.955 -0.830777 3.923 0
M  V30 3132 H 276.545 0.565437 4.24854 0
M  V30 3133 H 280.729 1.40163 4.76097 0
M  V30 3134 H 275.985 2.57823 5.5438 0
M  V30 3135 H 280.159 3.41371 6.06992 0
M  V30 3136 H 277.786 4.00784 6.45969 0
M  V30 3137 N 279.361 -1.56624 0.175154 0
M  V30 3138 C 280.591 -2.01082 -0.474283 0
M  V30 3139 C 280.999 -1.05447 -1.57091 0
M  V30 3140 O 280.342 -0.0480595 -1.83637 0
M  V30 3141 C 280.404 -3.41963 -1.10911 0
M  V30 3142 C 280.068 -4.56742 -0.153666 0
M  V30 3143 C 281.065 -5.16076 0.629448 0
M  V30 3144 C 278.75 -5.02277 -0.0483776 0
M  V30 3145 C 280.744 -6.19377 1.50501 0
M  V30 3146 C 278.431 -6.05427 0.830768 0
M  V30 3147 C 279.429 -6.63849 1.60605 0
M  V30 3148 O 279.117 -7.64998 2.47049 0
M  V30 3149 H 278.849 -0.664261 -0.125432 0
M  V30 3150 H 281.403 -2.03549 0.275163 0
M  V30 3151 H 279.633 -3.36422 -1.90676 0
M  V30 3152 H 281.322 -3.70352 -1.66114 0
M  V30 3153 H 282.088 -4.81776 0.558297 0
M  V30 3154 H 277.967 -4.56513 -0.641611 0
M  V30 3155 H 281.511 -6.64906 2.1106 0
M  V30 3156 H 277.408 -6.39151 0.903107 0
M  V30 3157 H 278.176 -7.82336 2.40607 0
M  V30 3158 N 280.839 0.0985539 -1.57292 0
M  V30 3159 C 282.069 0.815135 -1.8984 0
M  V30 3160 C 282.477 1.7297 -0.766679 0
M  V30 3161 O 281.82 1.81698 0.270483 0
M  V30 3162 C 281.882 1.6842 -3.17608 0
M  V30 3163 C 281.546 0.94182 -4.4719 0
M  V30 3164 C 282.543 0.273212 -5.19182 0
M  V30 3165 C 280.228 0.916927 -4.9386 0
M  V30 3166 C 282.222 -0.410361 -6.36078 0
M  V30 3167 C 279.909 0.229567 -6.10669 0
M  V30 3168 C 280.907 -0.432902 -6.81627 0
M  V30 3169 O 280.595 -1.10925 -7.9621 0
M  V30 3170 H 280.327 0.238501 -0.632529 0
M  V30 3171 H 282.881 0.0812659 -2.05239 0
M  V30 3172 H 281.111 2.46022 -2.98345 0
M  V30 3173 H 282.8 2.27704 -3.36015 0
M  V30 3174 H 283.566 0.283927 -4.84168 0
M  V30 3175 H 279.445 1.42201 -4.3852 0
M  V30 3176 H 282.989 -0.928013 -6.914 0
M  V30 3177 H 278.886 0.216686 -6.45136 0
M  V30 3178 H 279.654 -1.01579 -8.12172 0
M  V30 3179 N 282.317 1.53212 0.369288 0
M  V30 3180 C 283.566 1.68436 1.10961 0
M  V30 3181 C 283.879 0.440738 1.9057 0
M  V30 3182 O 285.085 0.473446 2.6734 0
M  V30 3183 C 283.541 2.97744 2.0218 0
M  V30 3184 C 283.149 4.29355 1.279 0
M  V30 3185 C 284.893 3.22334 2.76226 0
M  V30 3186 C 282.8 5.49755 2.17999 0
M  V30 3187 H 281.73 0.627568 0.41794 0
M  V30 3188 H 284.381 1.79713 0.370884 0
M  V30 3189 H 282.763 2.8026 2.79768 0
M  V30 3190 H 283.937 4.57458 0.554007 0
M  V30 3191 H 282.252 4.11179 0.657311 0
M  V30 3192 H 284.849 4.09471 3.43857 0
M  V30 3193 H 285.192 2.38238 3.41392 0
M  V30 3194 H 285.725 3.40475 2.05723 0
M  V30 3195 H 282.464 6.36318 1.57417 0
M  V30 3196 H 281.984 5.25937 2.88359 0
M  V30 3197 H 283.663 5.84401 2.77641 0
M  V30 3198 N 283.795 -0.628877 1.44509 0
M  V30 3199 C 284.705 -1.7694 1.54044 0
M  V30 3200 C 285.721 -1.68705 0.425987 0
M  V30 3201 O 286.897 -1.89442 0.683656 0
M  V30 3202 C 283.962 -3.13332 1.48405 0
M  V30 3203 C 283.023 -3.33181 2.70719 0
M  V30 3204 C 282.256 -4.63067 2.6534 0
M  V30 3205 O 282.479 -5.44017 1.71469 0
M  V30 3206 O 281.413 -4.85167 3.56226 0
M  V30 3207 H 285.239 -1.71848 2.50403 0
M  V30 3208 H 282.824 -0.790378 1.26781 0
M  V30 3209 H 284.706 -3.94634 1.47791 0
M  V30 3210 H 283.381 -3.1896 0.551898 0
M  V30 3211 H 282.288 -2.51549 2.769 0
M  V30 3212 H 283.621 -3.32416 3.62988 0
M  V30 3213 N 285.273 -1.31445 -0.869486 0
M  V30 3214 C 286.501 -1.24122 -1.65534 0
M  V30 3215 C 286.916 0.193387 -1.87807 0
M  V30 3216 O 286.273 1.12557 -1.43656 0
M  V30 3217 C 286.324 -1.98229 -3.02304 0
M  V30 3218 O 286.045 -3.3609 -2.81026 0
M  V30 3219 C 287.546 -1.97751 -3.96749 0
M  V30 3220 H 284.766 -0.428868 -0.516055 0
M  V30 3221 H 287.31 -1.73328 -1.08525 0
M  V30 3222 H 285.465 -1.52782 -3.56001 0
M  V30 3223 H 285.879 -3.7383 -3.67902 0
M  V30 3224 H 287.353 -2.54114 -4.90031 0
M  V30 3225 H 287.83 -0.960137 -4.28577 0
M  V30 3226 H 288.436 -2.43079 -3.48988 0
M  V30 3227 N 286.751 1.08385 -1.14413 0
M  V30 3228 C 288.028 1.77429 -0.823297 0
M  V30 3229 C 288.408 1.9974 0.683163 0
M  V30 3230 O 287.756 1.60739 1.62405 0
M  V30 3231 C 287.966 3.09004 -1.62227 0
M  V30 3232 C 289.314 3.83532 -1.82177 0
M  V30 3233 O 290.338 3.18786 -1.58915 0
M  V30 3234 O 289.197 4.99792 -2.21067 0
M  V30 3235 H 286.291 0.769999 -0.301712 0
M  V30 3236 H 288.837 1.14846 -1.24934 0
M  V30 3237 H 287.609 2.88316 -2.64555 0
M  V30 3238 H 287.232 3.79316 -1.19187 0
M  V30 3239 N 288.23 0.939286 1.26551 0
M  V30 3240 C 289.477 0.585847 1.9384 0
M  V30 3241 C 289.805 -0.874784 1.73718 0
M  V30 3242 O 289.06 -1.64092 1.06642 0
M  V30 3243 C 289.359 0.872106 3.46596 0
M  V30 3244 C 289.025 2.31632 3.86856 0
M  V30 3245 C 287.687 2.71111 3.97558 0
M  V30 3246 C 290.039 3.25494 4.07066 0
M  V30 3247 C 287.367 4.03553 4.25866 0
M  V30 3248 C 289.719 4.57531 4.36862 0
M  V30 3249 C 288.383 4.96828 4.45778 0
M  V30 3250 H 287.653 0.214377 0.709312 0
M  V30 3251 H 290.3 1.18544 1.50398 0
M  V30 3252 H 288.605 0.18996 3.91339 0
M  V30 3253 H 290.302 0.577442 3.96821 0
M  V30 3254 H 286.892 2.00008 3.79071 0
M  V30 3255 H 291.076 2.9619 3.98227 0
M  V30 3256 H 286.332 4.33665 4.30981 0
M  V30 3257 H 290.506 5.30254 4.51446 0
M  V30 3258 H 288.133 5.99482 4.67468 0
M  V30 3259 N 289.708 -1.40897 0.706093 0
M  V30 3260 C 290.933 -2.05895 0.249435 0
M  V30 3261 C 291.358 -1.52823 -1.09666 0
M  V30 3262 O 290.716 -0.659589 -1.68876 0
M  V30 3263 C 290.764 -3.59872 0.22904 0
M  V30 3264 O 289.868 -4.04708 -0.792784 0
M  V30 3265 H 289.209 -0.653206 0.119241 0
M  V30 3266 H 291.739 -1.80471 0.96391 0
M  V30 3267 H 291.749 -4.07951 0.0634791 0
M  V30 3268 H 290.424 -3.97866 1.21141 0
M  V30 3269 H 289.001 -3.68111 -0.59572 0
M  V30 3270 N 291.186 -0.45159 -1.50991 0
M  V30 3271 C 292.411 0.110667 -2.07105 0
M  V30 3272 C 292.836 1.3446 -1.31538 0
M  V30 3273 O 292.194 1.77743 -0.357365 0
M  V30 3274 C 292.242 0.397238 -3.58405 0
M  V30 3275 O 291.346 1.48124 -3.84881 0
M  V30 3276 H 290.687 -0.00439271 -0.663985 0
M  V30 3277 H 293.217 -0.637026 -1.9443 0
M  V30 3278 H 293.227 0.64351 -4.02893 0
M  V30 3279 H 291.902 -0.504553 -4.12828 0
M  V30 3280 H 290.479 1.22381 -3.52246 0
M  V30 3281 N 292.664 1.56529 -0.183458 0
M  V30 3282 C 293.941 1.88959 0.50536 0
M  V30 3283 C 294.321 1.09523 1.80466 0
M  V30 3284 O 293.669 0.19278 2.27685 0
M  V30 3285 C 293.879 3.41162 0.73547 0
M  V30 3286 C 295.227 4.11155 1.06005 0
M  V30 3287 O 296.251 3.46548 0.823594 0
M  V30 3288 O 295.11 5.25318 1.50675 0
M  V30 3289 H 292.204 0.78441 0.261973 0
M  V30 3290 H 294.75 1.68231 -0.222802 0
M  V30 3291 H 293.522 3.90874 -0.182561 0
M  V30 3292 H 293.145 3.67543 1.51651 0
M  V30 3293 N 294.142 -0.090211 1.57342 0
M  V30 3294 C 295.37 -0.806224 1.90546 0
M  V30 3295 C 295.785 -1.72041 0.777644 0
M  V30 3296 O 295.142 -1.80778 -0.250103 0
M  V30 3297 C 295.193 -1.61546 3.23396 0
M  V30 3298 O 294.914 -0.738043 4.31839 0
M  V30 3299 C 296.415 -2.4341 3.70495 0
M  V30 3300 H 293.635 -0.230256 0.630257 0
M  V30 3301 H 296.179 -0.0659843 2.04394 0
M  V30 3302 H 294.334 -2.30816 3.11131 0
M  V30 3303 H 294.748 -1.29901 5.08159 0
M  V30 3304 H 296.222 -2.95676 4.66133 0
M  V30 3305 H 296.699 -3.22098 2.98579 0
M  V30 3306 H 297.305 -1.79331 3.85643 0
M  V30 3307 N 295.62 -1.53406 -0.361157 0
M  V30 3308 C 296.53 -1.83122 -1.4664 0
M  V30 3309 C 297.546 -0.719943 -1.58407 0
M  V30 3310 O 298.722 -1.01046 -1.74218 0
M  V30 3311 C 295.787 -2.01891 -2.81853 0
M  V30 3312 C 294.848 -3.25784 -2.79577 0
M  V30 3313 C 294.081 -3.43648 -4.0834 0
M  V30 3314 O 294.304 -2.65714 -5.0473 0
M  V30 3315 O 293.238 -4.37018 -4.13883 0
M  V30 3316 H 297.064 -2.7703 -1.24451 0
M  V30 3317 H 294.649 -1.38841 -0.551678 0
M  V30 3318 H 296.531 -2.15782 -3.61962 0
M  V30 3319 H 295.206 -1.11173 -3.0401 0
M  V30 3320 H 294.113 -3.17312 -1.98151 0
M  V30 3321 H 295.446 -4.16439 -2.62373 0
M  V30 3322 N 297.098 0.621204 -1.44841 0
M  V30 3323 C 298.328 1.40548 -1.51426 0
M  V30 3324 C 298.736 1.88673 -0.141083 0
M  V30 3325 O 298.079 1.62053 0.865128 0
M  V30 3326 C 298.141 2.65325 -2.42576 0
M  V30 3327 C 297.805 2.3893 -3.89566 0
M  V30 3328 C 298.802 2.00138 -4.79834 0
M  V30 3329 C 296.487 2.52263 -4.3436 0
M  V30 3330 C 298.481 1.75021 -6.129 0
M  V30 3331 C 296.168 2.2676 -5.67471 0
M  V30 3332 C 297.166 1.88199 -6.56559 0
M  V30 3333 O 296.854 1.62986 -7.87204 0
M  V30 3334 H 296.586 0.437122 -0.515655 0
M  V30 3335 H 299.14 0.765987 -1.90583 0
M  V30 3336 H 297.37 3.31947 -1.98364 0
M  V30 3337 H 299.059 3.27347 -2.39998 0
M  V30 3338 H 299.825 1.89386 -4.46495 0
M  V30 3339 H 295.704 2.81246 -3.65269 0
M  V30 3340 H 299.248 1.44848 -6.82396 0
M  V30 3341 H 295.145 2.37125 -6.00368 0
M  V30 3342 H 295.913 1.7715 -7.991 0
M  V30 3343 N 298.576 1.31904 0.862503 0
M  V30 3344 C 299.804 1.24998 1.64873 0
M  V30 3345 C 300.219 -0.183425 1.87907 0
M  V30 3346 O 299.576 -1.11794 1.44251 0
M  V30 3347 C 299.627 1.99829 3.01248 0
M  V30 3348 O 299.348 3.37575 2.79239 0
M  V30 3349 C 300.849 1.99852 3.95694 0
M  V30 3350 H 298.069 0.431599 0.513773 0
M  V30 3351 H 300.613 1.73901 1.07604 0
M  V30 3352 H 298.768 1.54668 3.55185 0
M  V30 3353 H 299.182 3.75776 3.65914 0
M  V30 3354 H 300.656 2.56709 4.88676 0
M  V30 3355 H 301.133 0.982852 4.28062 0
M  V30 3356 H 301.739 2.44926 3.47694 0
M  V30 3357 N 300.054 -1.07777 1.14986 0
M  V30 3358 C 301.279 -1.84558 0.946213 0
M  V30 3359 C 301.704 -1.81323 -0.500362 0
M  V30 3360 O 301.062 -1.20301 -1.35637 0
M  V30 3361 C 301.11 -3.29736 1.45968 0
M  V30 3362 O 300.214 -4.07149 0.65601 0
M  V30 3363 H 299.555 -0.571641 0.33782 0
M  V30 3364 H 302.085 -1.35991 1.52865 0
M  V30 3365 H 302.095 -3.80574 1.47063 0
M  V30 3366 H 300.77 -3.31406 2.51283 0
M  V30 3367 H 299.347 -3.65994 0.714322 0
M  V30 3368 N 301.532 -0.945985 -1.26051 0
M  V30 3369 C 302.779 -0.596118 -1.93527 0
M  V30 3370 C 303.107 0.865559 -1.74179 0
M  V30 3371 O 302.362 1.63524 -1.0751 0
M  V30 3372 C 302.661 -0.890475 -3.46129 0
M  V30 3373 C 302.327 -2.3368 -3.85622 0
M  V30 3374 C 300.989 -2.73216 -3.96114 0
M  V30 3375 C 303.341 -3.27648 -4.05334 0
M  V30 3376 C 300.669 -4.05806 -4.2372 0
M  V30 3377 C 303.021 -4.59841 -4.3443 0
M  V30 3378 C 301.685 -4.99185 -4.43137 0
M  V30 3379 H 300.955 -0.218135 -0.708165 0
M  V30 3380 H 303.602 -1.1934 -1.49768 0
M  V30 3381 H 301.907 -0.210711 -3.91233 0
M  V30 3382 H 303.604 -0.598478 -3.96509 0
M  V30 3383 H 300.194 -2.02015 -3.78005 0
M  V30 3384 H 304.378 -2.98298 -3.96651 0
M  V30 3385 H 299.634 -4.35945 -4.28675 0
M  V30 3386 H 303.808 -5.32641 -4.48628 0
M  V30 3387 H 301.435 -6.01952 -4.64282 0
M  V30 3388 N 303.011 1.40521 -0.713556 0
M  V30 3389 C 303.941 2.33381 -0.0743864 0
M  V30 3390 C 304.922 1.52784 0.747735 0
M  V30 3391 O 306.107 1.81258 0.697071 0
M  V30 3392 C 303.237 3.36748 0.849598 0
M  V30 3393 C 302.191 4.27793 0.133247 0
M  V30 3394 C 301.517 5.21679 1.17281 0
M  V30 3395 C 302.817 5.12415 -1.01134 0
M  V30 3396 H 304.511 2.87081 -0.850007 0
M  V30 3397 H 302.057 1.38034 -0.410201 0
M  V30 3398 H 304.01 4.00648 1.30612 0
M  V30 3399 H 302.734 2.81439 1.65709 0
M  V30 3400 H 301.393 3.65342 -0.303426 0
M  V30 3401 H 301.041 4.62677 1.9733 0
M  V30 3402 H 300.741 5.83435 0.698397 0
M  V30 3403 H 302.265 5.88456 1.62947 0
M  V30 3404 H 303.679 5.69781 -0.634274 0
M  V30 3405 H 302.076 5.83203 -1.41399 0
M  V30 3406 H 303.146 4.48514 -1.84292 0
M  V30 3407 N 304.489 0.459591 1.5075 0
M  V30 3408 C 305.399 -0.34613 2.32033 0
M  V30 3409 C 306.415 -1.00686 1.41909 0
M  V30 3410 O 307.591 -0.997361 1.7497 0
M  V30 3411 C 304.656 -1.42029 3.16273 0
M  V30 3412 C 303.717 -0.777362 4.22203 0
M  V30 3413 C 302.95 -1.80034 5.02418 0
M  V30 3414 O 303.173 -3.02544 4.83553 0
M  V30 3415 O 302.107 -1.37853 5.85901 0
M  V30 3416 H 305.933 0.318054 3.0203 0
M  V30 3417 H 303.518 0.221663 1.47746 0
M  V30 3418 H 305.4 -2.04275 3.68578 0
M  V30 3419 H 304.075 -2.06815 2.49016 0
M  V30 3420 H 302.982 -0.116256 3.73919 0
M  V30 3421 H 304.315 -0.172634 4.91897 0
M  V30 3422 N 305.967 -1.56429 0.191757 0
M  V30 3423 C 306.914 -2.18936 -0.730454 0
M  V30 3424 C 307.884 -1.13557 -1.21219 0
M  V30 3425 O 309.069 -1.41794 -1.27668 0
M  V30 3426 C 306.209 -2.85013 -1.9458 0
M  V30 3427 C 305.322 -4.04909 -1.50574 0
M  V30 3428 C 304.457 -4.58853 -2.67634 0
M  V30 3429 C 303.496 -5.71114 -2.20217 0
M  V30 3430 N 302.633 -6.19478 -3.30442 0
M  V30 3431 H 307.473 -2.97389 -0.190664 0
M  V30 3432 H 305.01 -1.46869 -0.0823694 0
M  V30 3433 H 306.968 -3.21492 -2.65893 0
M  V30 3434 H 305.598 -2.09129 -2.45896 0
M  V30 3435 H 304.65 -3.74115 -0.688605 0
M  V30 3436 H 305.962 -4.86113 -1.11784 0
M  V30 3437 H 305.116 -4.97619 -3.47074 0
M  V30 3438 H 303.855 -3.76749 -3.09696 0
M  V30 3439 H 302.86 -5.31879 -1.3923 0
M  V30 3440 H 304.085 -6.55033 -1.79189 0
M  V30 3441 H 302.031 -5.40297 -3.72041 0
M  V30 3442 H 301.948 -6.95725 -2.9581 0
M  V30 3443 H 303.216 -6.62898 -4.10106 0
M  V30 3444 N 307.445 0.0818655 -1.57387 0
M  V30 3445 C 308.694 0.781681 -1.85937 0
M  V30 3446 C 309.007 1.79246 -0.782957 0
M  V30 3447 O 310.213 2.54112 -0.955987 0
M  V30 3448 C 308.669 1.44109 -3.29789 0
M  V30 3449 C 308.277 0.469396 -4.45534 0
M  V30 3450 C 310.021 2.12386 -3.67549 0
M  V30 3451 C 307.928 1.13415 -5.80423 0
M  V30 3452 H 306.858 0.295682 -0.693605 0
M  V30 3453 H 309.509 0.0348051 -1.83467 0
M  V30 3454 H 307.891 2.23588 -3.2684 0
M  V30 3455 H 309.065 -0.294856 -4.59856 0
M  V30 3456 H 307.38 -0.108383 -4.16259 0
M  V30 3457 H 309.977 2.62878 -4.65617 0
M  V30 3458 H 310.32 2.91877 -2.96839 0
M  V30 3459 H 310.853 1.39751 -3.72444 0
M  V30 3460 H 307.592 0.379771 -6.54399 0
M  V30 3461 H 307.112 1.8695 -5.69921 0
M  V30 3462 H 308.791 1.65686 -6.25426 0
M  V30 3463 N 308.923 1.53595 0.353017 0
M  V30 3464 C 309.855 1.77219 1.45348 0
M  V30 3465 C 310.868 0.65324 1.49119 0
M  V30 3466 O 312.057 0.929775 1.52373 0
M  V30 3467 C 309.157 1.84841 2.84055 0
M  V30 3468 C 308.33 3.14649 3.03833 0
M  V30 3469 C 307.389 3.13351 4.22727 0
M  V30 3470 O 306.415 3.87107 4.17297 0
M  V30 3471 N 307.617 2.35052 5.30783 0
M  V30 3472 H 310.382 2.72178 1.25457 0
M  V30 3473 H 307.943 1.52528 0.542833 0
M  V30 3474 H 309.935 1.81435 3.61751 0
M  V30 3475 H 308.505 0.971114 2.97133 0
M  V30 3476 H 307.725 3.31256 2.13689 0
M  V30 3477 H 309.013 4.00411 3.13925 0
M  V30 3478 H 308.411 1.74663 5.38061 0
M  V30 3479 H 306.968 2.37453 6.07009 0
M  V30 3480 N 310.401 -0.613514 1.45168 0
M  V30 3481 C 311.311 -1.75296 1.55912 0
M  V30 3482 C 312.327 -1.68244 0.443856 0
M  V30 3483 O 313.503 -1.88706 0.70371 0
M  V30 3484 C 310.568 -3.1174 1.5172 0
M  V30 3485 C 309.629 -3.30291 2.74238 0
M  V30 3486 C 308.862 -4.60226 2.70236 0
M  V30 3487 O 309.085 -5.42168 1.77229 0
M  V30 3488 O 308.019 -4.81361 3.61352 0
M  V30 3489 H 311.845 -1.69183 2.52212 0
M  V30 3490 H 309.43 -0.776886 1.27612 0
M  V30 3491 H 311.312 -3.93044 1.51968 0
M  V30 3492 H 309.987 -3.18357 0.585697 0
M  V30 3493 H 308.894 -2.48598 2.79553 0
M  V30 3494 H 310.227 -3.28547 3.66494 0
M  V30 3495 N 311.879 -1.3236 -0.855495 0
M  V30 3496 C 312.826 -1.21225 -1.964 0
M  V30 3497 C 313.796 -0.0946204 -1.6583 0
M  V30 3498 O 314.981 -0.27002 -1.8888 0
M  V30 3499 C 312.121 -0.940419 -3.32039 0
M  V30 3500 C 311.234 -2.14276 -3.75113 0
M  V30 3501 C 310.369 -1.80648 -4.9954 0
M  V30 3502 C 309.408 -2.97208 -5.35102 0
M  V30 3503 N 308.545 -2.63678 -6.50706 0
M  V30 3504 H 313.385 -2.16042 -2.05255 0
M  V30 3505 H 310.922 -1.07451 -1.00463 0
M  V30 3506 H 312.88 -0.763311 -4.10158 0
M  V30 3507 H 311.51 -0.0290413 -3.22787 0
M  V30 3508 H 310.562 -2.43017 -2.92655 0
M  V30 3509 H 311.874 -3.01468 -3.97389 0
M  V30 3510 H 311.028 -1.59484 -5.85363 0
M  V30 3511 H 309.767 -0.906678 -4.79198 0
M  V30 3512 H 308.772 -3.19004 -4.47791 0
M  V30 3513 H 309.997 -3.87918 -5.57401 0
M  V30 3514 H 307.943 -1.76238 -6.31883 0
M  V30 3515 H 307.86 -3.444 -6.72997 0
M  V30 3516 H 309.128 -2.45942 -7.39684 0
M  V30 3517 N 313.357 1.07166 -1.15556 0
M  V30 3518 C 314.582 1.84053 -0.955988 0
M  V30 3519 C 315.007 1.81586 0.490739 0
M  V30 3520 O 314.365 1.21018 1.34997 0
M  V30 3521 C 314.413 3.28957 -1.47714 0
M  V30 3522 O 313.517 4.06795 -0.677593 0
M  V30 3523 H 312.858 0.569842 -0.340847 0
M  V30 3524 H 315.388 1.35178 -1.53584 0
M  V30 3525 H 315.398 3.79788 -1.4908 0
M  V30 3526 H 314.073 3.30068 -2.53037 0
M  V30 3527 H 312.65 3.6561 -0.733721 0
M  V30 3528 N 314.835 0.952656 1.25548 0
M  V30 3529 C 315.765 0.489287 2.28316 0
M  V30 3530 C 316.746 -0.463359 1.63667 0
M  V30 3531 O 317.931 -0.36274 1.90782 0
M  V30 3532 C 315.061 -0.235603 3.465 0
M  V30 3533 C 314.015 0.631593 4.23314 0
M  V30 3534 C 313.341 -0.223923 5.34231 0
M  V30 3535 C 314.641 1.90871 4.86174 0
M  V30 3536 H 316.335 1.34822 2.67326 0
M  V30 3537 H 313.881 0.649728 1.28509 0
M  V30 3538 H 315.834 -0.570882 4.17515 0
M  V30 3539 H 314.558 -1.12877 3.06474 0
M  V30 3540 H 313.217 0.949929 3.54079 0
M  V30 3541 H 312.865 -1.11678 4.90446 0
M  V30 3542 H 312.565 0.35299 5.86539 0
M  V30 3543 H 314.089 -0.554214 6.0808 0
M  V30 3544 H 315.503 1.63997 5.49343 0
M  V30 3545 H 313.9 2.43112 5.4865 0
M  V30 3546 H 314.97 2.61304 4.08471 0
M  V30 3547 N 316.313 -1.40141 0.720998 0
M  V30 3548 C 317.543 -2.04798 0.27226 0
M  V30 3549 C 317.951 -1.54442 -1.09289 0
M  V30 3550 O 317.294 -0.698342 -1.69908 0
M  V30 3551 C 317.356 -3.59048 0.18027 0
M  V30 3552 C 317.02 -4.32317 1.48159 0
M  V30 3553 C 318.017 -4.59902 2.42458 0
M  V30 3554 C 315.702 -4.71125 1.74202 0
M  V30 3555 C 317.696 -5.25288 3.61042 0
M  V30 3556 C 315.383 -5.36242 2.93066 0
M  V30 3557 C 316.381 -5.63254 3.86308 0
M  V30 3558 O 316.069 -6.27024 5.03086 0
M  V30 3559 H 315.801 -0.665419 0.119139 0
M  V30 3560 H 318.355 -1.80436 0.981432 0
M  V30 3561 H 316.585 -3.82251 -0.58489 0
M  V30 3562 H 318.274 -4.05221 -0.234618 0
M  V30 3563 H 319.04 -4.30379 2.23604 0
M  V30 3564 H 314.919 -4.49466 1.02477 0
M  V30 3565 H 318.463 -5.46289 4.33837 0
M  V30 3566 H 314.36 -5.65185 3.11826 0
M  V30 3567 H 315.128 -6.4552 5.03235 0
M  V30 3568 N 317.792 -0.46758 -1.50504 0
M  V30 3569 C 318.739 0.328413 -2.28452 0
M  V30 3570 C 319.709 0.990313 -1.33349 0
M  V30 3571 O 320.894 1.00343 -1.62284 0
M  V30 3572 C 318.034 1.40648 -3.15138 0
M  V30 3573 C 317.147 0.759709 -4.25267 0
M  V30 3574 C 316.282 1.81537 -4.99217 0
M  V30 3575 C 315.321 1.14866 -6.01226 0
M  V30 3576 N 314.458 2.14702 -6.68467 0
M  V30 3577 H 319.298 -0.342603 -2.96024 0
M  V30 3578 H 316.835 -0.180801 -1.45985 0
M  V30 3579 H 318.793 2.04315 -3.63746 0
M  V30 3580 H 317.423 2.04671 -2.49619 0
M  V30 3581 H 316.475 0.0105671 -3.80399 0
M  V30 3582 H 317.787 0.233243 -4.98254 0
M  V30 3583 H 316.941 2.52793 -5.51526 0
M  V30 3584 H 315.68 2.37564 -4.25928 0
M  V30 3585 H 314.685 0.42171 -5.4818 0
M  V30 3586 H 315.91 0.595334 -6.76485 0
M  V30 3587 H 313.856 2.69752 -5.97972 0
M  V30 3588 H 313.773 1.6703 -7.37317 0
M  V30 3589 H 315.041 2.85348 -7.25394 0
M  V30 3590 N 319.27 1.56325 -0.20005 0
M  V30 3591 C 320.498 2.02105 0.442874 0
M  V30 3592 C 320.913 1.08014 1.5485 0
M  V30 3593 O 320.27 0.0858797 1.82298 0
M  V30 3594 C 320.321 3.47549 0.994583 0
M  V30 3595 O 320.042 4.38049 -0.0669322 0
M  V30 3596 C 321.543 4.0887 1.7129 0
M  V30 3597 H 318.763 0.661807 0.110691 0
M  V30 3598 H 321.307 2.02134 -0.310207 0
M  V30 3599 H 319.462 3.48204 1.69803 0
M  V30 3600 H 319.876 5.23368 0.344462 0
M  V30 3601 H 321.35 5.12475 2.05118 0
M  V30 3602 H 321.827 3.52615 2.61838 0
M  V30 3603 H 322.433 4.12002 1.05518 0
M  V30 3604 N 320.748 -0.0735177 1.57428 0
M  V30 3605 C 322.025 -0.805903 1.78226 0
M  V30 3606 C 322.405 -1.95874 0.787189 0
M  V30 3607 O 321.753 -2.2779 -0.180029 0
M  V30 3608 C 321.963 -1.28045 3.24662 0
M  V30 3609 C 323.311 -1.71453 3.88444 0
M  V30 3610 O 324.335 -1.37616 3.28543 0
M  V30 3611 O 323.194 -2.34093 4.93825 0
M  V30 3612 H 320.288 -0.386041 0.73137 0
M  V30 3613 H 322.834 -0.0537269 1.69615 0
M  V30 3614 H 321.606 -0.455476 3.8864 0
M  V30 3615 H 321.229 -2.094 3.37991 0
M  V30 3616 N 322.226 -1.5378 -0.344866 0
M  V30 3617 C 323.454 -1.74899 -1.10534 0
M  V30 3618 C 323.869 -0.487534 -1.82397 0
M  V30 3619 O 323.226 0.540741 -1.74305 0
M  V30 3620 C 323.277 -2.92822 -2.11984 0
M  V30 3621 O 322.998 -4.14089 -1.43044 0
M  V30 3622 C 324.499 -3.25982 -3.00417 0
M  V30 3623 H 321.719 -0.584426 -0.329678 0
M  V30 3624 H 324.263 -2.006 -0.397474 0
M  V30 3625 H 322.418 -2.69457 -2.78338 0
M  V30 3626 H 322.832 -4.80272 -2.10805 0
M  V30 3627 H 324.306 -4.11848 -3.67539 0
M  V30 3628 H 324.783 -2.42228 -3.66363 0
M  V30 3629 H 325.389 -3.51349 -2.39654 0
M  V30 3630 N 323.704 0.605807 -1.45491 0
M  V30 3631 C 324.932 1.39136 -1.5313 0
M  V30 3632 C 325.347 1.88082 -0.164507 0
M  V30 3633 O 324.704 1.62316 0.834247 0
M  V30 3634 C 324.755 2.59463 -2.51716 0
M  V30 3635 O 324.476 2.12551 -3.83084 0
M  V30 3636 C 325.977 3.52301 -2.6907 0
M  V30 3637 H 323.197 0.425849 -0.51855 0
M  V30 3638 H 325.741 0.73865 -1.90694 0
M  V30 3639 H 323.896 3.20772 -2.17219 0
M  V30 3640 H 324.31 2.90744 -4.36541 0
M  V30 3641 H 325.784 4.33271 -3.42024 0
M  V30 3642 H 326.261 4.02757 -1.75167 0
M  V30 3643 H 326.867 2.96845 -3.04571 0
M  V30 3644 N 325.182 1.32811 0.848464 0
M  V30 3645 C 326.428 1.23907 1.60546 0
M  V30 3646 C 326.761 -0.197161 1.93197 0
M  V30 3647 O 326.036 -1.13596 1.5788 0
M  V30 3648 C 326.319 2.10489 2.92175 0
M  V30 3649 C 326.172 3.62522 2.66266 0
M  V30 3650 C 327.491 1.97075 3.93509 0
M  V30 3651 H 324.61 0.451459 0.58254 0
M  V30 3652 H 327.252 1.62818 0.979296 0
M  V30 3653 H 325.402 1.77434 3.45614 0
M  V30 3654 H 327.074 4.05821 2.19334 0
M  V30 3655 H 325.317 3.84879 2.00126 0
M  V30 3656 H 325.988 4.18437 3.6002 0
M  V30 3657 H 328.464 2.26045 3.49346 0
M  V30 3658 H 327.34 2.59923 4.83457 0
M  V30 3659 H 327.601 0.940186 4.31987 0
M  V30 3660 N 326.66 -1.06551 1.16123 0
M  V30 3661 C 327.888 -1.83005 0.965237 0
M  V30 3662 C 328.303 -1.82423 -0.486542 0
M  V30 3663 O 327.66 -1.24152 -1.33763 0
M  V30 3664 C 327.711 -3.29733 1.48183 0
M  V30 3665 O 327.432 -3.30416 2.87674 0
M  V30 3666 C 328.933 -4.22926 1.32848 0
M  V30 3667 H 326.153 -0.577118 0.342309 0
M  V30 3668 H 328.697 -1.3445 1.54089 0
M  V30 3669 H 326.852 -3.75609 0.948517 0
M  V30 3670 H 327.266 -4.22149 3.11272 0
M  V30 3671 H 328.74 -5.23916 1.73827 0
M  V30 3672 H 329.217 -4.38346 0.273692 0
M  V30 3673 H 329.823 -3.82894 1.85127 0
M  V30 3674 N 328.138 -0.959301 -1.25041 0
M  V30 3675 C 329.101 -0.487677 -2.23952 0
M  V30 3676 C 330.101 0.41119 -1.55454 0
M  V30 3677 O 331.291 0.207825 -1.72956 0
M  V30 3678 C 328.423 0.294807 -3.39623 0
M  V30 3679 H 329.616 -1.36198 -2.67189 0
M  V30 3680 H 327.169 -0.743042 -1.37508 0
M  V30 3681 H 327.904 1.18658 -3.01813 0
M  V30 3682 H 327.689 -0.35012 -3.90534 0
M  V30 3683 H 329.179 0.614089 -4.1306 0
M  V30 3684 N 329.616 1.39756 -0.72842 0
M  V30 3685 C 330.864 2.00248 -0.272946 0
M  V30 3686 C 331.185 1.58077 1.14178 0
M  V30 3687 O 330.455 0.826014 1.77634 0
M  V30 3688 H 329.035 0.740554 -0.0979247 0
M  V30 3689 H 331.697 1.70903 -0.936912 0
M  V30 3690 H 330.793 3.10495 -0.316142 0
M  V30 3691 N 331.094 0.475555 1.50254 0
M  V30 3692 C 332.371 -0.139685 1.95101 0
M  V30 3693 C 332.751 -1.56555 1.41611 0
M  V30 3694 O 332.099 -2.19956 0.618993 0
M  V30 3695 C 332.309 -0.0784298 3.48912 0
M  V30 3696 C 333.657 -0.265095 4.23772 0
M  V30 3697 O 334.681 -0.154808 3.55863 0
M  V30 3698 O 333.54 -0.488327 5.44314 0
M  V30 3699 H 330.634 -0.109236 0.819754 0
M  V30 3700 H 333.18 0.536276 1.61004 0
M  V30 3701 H 331.952 0.916918 3.80405 0
M  V30 3702 H 331.575 -0.795655 3.89558 0
M  V30 3703 N 332.573 -1.56217 0.208337 0
M  V30 3704 C 333.505 -2.1695 -0.739276 0
M  V30 3705 C 334.518 -1.13492 -1.1672 0
M  V30 3706 O 335.707 -1.40529 -1.10063 0
M  V30 3707 C 332.807 -2.72755 -2.01142 0
M  V30 3708 C 331.98 -4.0125 -1.74118 0
M  V30 3709 C 331.039 -4.41749 -2.85909 0
M  V30 3710 O 330.065 -5.08912 -2.54946 0
M  V30 3711 N 331.267 -4.06342 -4.14568 0
M  V30 3712 H 334.032 -2.98893 -0.219837 0
M  V30 3713 H 331.593 -1.61878 0.0268445 0
M  V30 3714 H 333.585 -2.96826 -2.75094 0
M  V30 3715 H 332.155 -1.95191 -2.4417 0
M  V30 3716 H 331.375 -3.85173 -0.838775 0
M  V30 3717 H 332.663 -4.851 -1.53477 0
M  V30 3718 H 332.061 -3.52345 -4.42571 0
M  V30 3719 H 330.618 -4.35335 -4.85105 0
M  V30 3720 N 334.051 0.0651679 -1.57465 0
M  V30 3721 C 335.3 0.761916 -1.86756 0
M  V30 3722 C 335.613 1.78406 -0.801925 0
M  V30 3723 O 336.819 2.53084 -0.982885 0
M  V30 3724 C 335.275 1.40603 -3.31299 0
M  V30 3725 C 334.883 0.422115 -4.46007 0
M  V30 3726 C 336.627 2.08476 -3.69781 0
M  V30 3727 C 334.534 1.07252 -5.81593 0
M  V30 3728 H 333.464 0.288308 -0.696702 0
M  V30 3729 H 336.115 0.015344 -1.83494 0
M  V30 3730 H 334.497 2.20109 -3.29193 0
M  V30 3731 H 335.671 -0.343613 -4.59517 0
M  V30 3732 H 333.986 -0.152527 -4.16121 0
M  V30 3733 H 336.583 2.57925 -4.68379 0
M  V30 3734 H 336.926 2.88712 -2.99919 0
M  V30 3735 H 337.459 1.35792 -3.73905 0
M  V30 3736 H 334.198 0.310342 -6.54765 0
M  V30 3737 H 333.718 1.80895 -5.71872 0
M  V30 3738 H 335.397 1.59043 -6.27148 0
M  V30 3739 N 335.529 1.53961 0.336706 0
M  V30 3740 C 336.775 1.7179 1.07777 0
M  V30 3741 C 337.108 0.483263 1.88091 0
M  V30 3742 O 336.383 -0.519747 1.87427 0
M  V30 3743 C 336.666 2.98558 2.01334 0
M  V30 3744 C 336.519 4.32245 1.24437 0
M  V30 3745 C 337.838 3.21023 3.01052 0
M  V30 3746 H 334.957 0.625089 0.390426 0
M  V30 3747 H 337.599 1.86641 0.35567 0
M  V30 3748 H 335.749 2.86028 2.62908 0
M  V30 3749 H 337.421 4.56637 0.654243 0
M  V30 3750 H 335.664 4.30344 0.546458 0
M  V30 3751 H 336.335 5.17137 1.93063 0
M  V30 3752 H 338.811 3.32929 2.49595 0
M  V30 3753 H 337.687 4.11104 3.6371 0
M  V30 3754 H 337.948 2.37637 3.72802 0
M  V30 3755 N 337.007 -0.598083 1.45811 0
M  V30 3756 C 338.235 -1.38322 1.53866 0
M  V30 3757 C 338.65 -1.87992 0.174479 0
M  V30 3758 O 338.007 -1.62756 -0.825627 0
M  V30 3759 C 338.058 -2.58125 2.53089 0
M  V30 3760 O 337.779 -2.10516 3.84206 0
M  V30 3761 C 339.28 -3.50869 2.70935 0
M  V30 3762 H 336.5 -0.423093 0.520801 0
M  V30 3763 H 339.044 -0.728527 1.91083 0
M  V30 3764 H 337.199 -3.19615 2.18917 0
M  V30 3765 H 337.613 -2.88425 4.38077 0
M  V30 3766 H 339.087 -4.31451 3.44317 0
M  V30 3767 H 339.564 -4.01822 1.77301 0
M  V30 3768 H 340.17 -2.95225 3.06141 0
M  V30 3769 N 338.485 -1.33259 -0.841409 0
M  V30 3770 C 339.415 -1.25926 -1.96634 0
M  V30 3771 C 340.396 -0.140349 -1.6952 0
M  V30 3772 O 341.581 -0.329707 -1.91381 0
M  V30 3773 C 338.711 -0.99512 -3.32738 0
M  V30 3774 C 337.665 -2.0767 -3.74242 0
M  V30 3775 C 336.991 -1.66474 -5.08125 0
M  V30 3776 C 338.291 -3.49318 -3.88297 0
M  V30 3777 H 339.985 -2.20046 -2.03027 0
M  V30 3778 H 337.531 -1.05931 -0.975425 0
M  V30 3779 H 339.484 -0.930323 -4.11002 0
M  V30 3780 H 338.208 -0.0183004 -3.26595 0
M  V30 3781 H 336.867 -2.13187 -2.98239 0
M  V30 3782 H 336.515 -0.675012 -4.9845 0
M  V30 3783 H 336.215 -2.3885 -5.36865 0
M  V30 3784 H 337.739 -1.61455 -5.88867 0
M  V30 3785 H 339.153 -3.46316 -4.56879 0
M  V30 3786 H 337.55 -4.20158 -4.28471 0
M  V30 3787 H 338.62 -3.8801 -2.9082 0
M  V30 3788 N 339.963 1.05934 -1.16686 0
M  V30 3789 C 341.188 1.83029 -0.975455 0
M  V30 3790 C 341.613 1.82096 0.471452 0
M  V30 3791 O 340.971 1.22443 1.33706 0
M  V30 3792 C 341.019 3.27372 -1.51195 0
M  V30 3793 O 340.123 4.06054 -0.720701 0
M  V30 3794 H 339.464 0.566194 -0.346872 0
M  V30 3795 H 341.994 1.33541 -1.55009 0
M  V30 3796 H 342.004 3.78186 -1.53099 0
M  V30 3797 H 340.679 3.27366 -2.56523 0
M  V30 3798 H 339.256 3.64812 -0.772458 0
M  V30 3799 N 341.441 0.965919 1.2453 0
M  V30 3800 C 342.669 0.644385 1.96609 0
M  V30 3801 C 343.084 -0.785823 1.71669 0
M  V30 3802 O 342.441 -1.52703 0.999399 0
M  V30 3803 C 342.492 0.907375 3.49927 0
M  V30 3804 O 342.213 2.28136 3.74013 0
M  V30 3805 C 343.714 0.599784 4.39224 0
M  V30 3806 H 340.934 0.240588 0.626385 0
M  V30 3807 H 343.478 1.29337 1.58405 0
M  V30 3808 H 341.633 0.304631 3.862 0
M  V30 3809 H 342.047 2.36002 4.68405 0
M  V30 3810 H 343.521 0.834263 5.45659 0
M  V30 3811 H 343.998 -0.465921 4.36722 0
M  V30 3812 H 344.604 1.18235 4.08535 0
M  V30 3813 N 342.919 -1.39368 0.735821 0
M  V30 3814 C 344.159 -2.02349 0.288813 0
M  V30 3815 C 344.523 -1.57127 -1.10341 0
M  V30 3816 O 345.724 -2.12312 -1.64854 0
M  V30 3817 C 343.995 -3.55288 0.387986 0
M  V30 3818 S 345.554 -4.38795 0.0209408 0
M  V30 3819 H 342.372 -0.701944 0.113115 0
M  V30 3820 H 344.974 -1.70164 0.962518 0
M  V30 3821 H 343.678 -3.85691 1.40252 0
M  V30 3822 H 343.209 -3.92227 -0.303512 0
M  V30 3823 H 345.224 -4.81595 -1.19503 0
M  V30 3824 N 344.397 -0.483516 -1.5 0
M  V30 3825 C 345.674 0.129337 -1.95172 0
M  V30 3826 C 346.054 1.55802 -1.4244 0
M  V30 3827 O 345.402 2.19625 -0.630649 0
M  V30 3828 C 345.612 0.0599251 -3.48949 0
M  V30 3829 C 346.96 0.242617 -4.23906 0
M  V30 3830 O 347.984 0.135933 -3.55941 0
M  V30 3831 O 346.843 0.459454 -5.44565 0
M  V30 3832 H 343.937 0.104887 -0.820322 0
M  V30 3833 H 346.483 -0.544807 -1.60717 0
M  V30 3834 H 345.255 -0.937079 -3.79914 0
M  V30 3835 H 344.878 0.774984 -3.89974 0
M  V30 3836 N 345.875 1.56104 -0.216619 0
M  V30 3837 C 347.105 2.02269 0.420802 0
M  V30 3838 C 347.513 1.09575 1.5424 0
M  V30 3839 O 346.856 0.0967308 1.83445 0
M  V30 3840 C 346.918 3.44784 1.01806 0
M  V30 3841 C 346.582 4.56988 0.0325154 0
M  V30 3842 C 347.579 5.14225 -0.766055 0
M  V30 3843 C 345.264 5.02228 -0.0848092 0
M  V30 3844 C 347.258 6.15169 -1.6687 0
M  V30 3845 C 344.945 6.03011 -0.990994 0
M  V30 3846 C 345.943 6.59357 -1.78149 0
M  V30 3847 O 345.631 7.58179 -2.67245 0
M  V30 3848 H 345.363 0.667353 0.107776 0
M  V30 3849 H 347.917 2.02747 -0.329034 0
M  V30 3850 H 346.147 3.41359 1.81689 0
M  V30 3851 H 347.836 3.74626 1.56237 0
M  V30 3852 H 348.602 4.80126 -0.685836 0
M  V30 3853 H 344.481 4.58054 0.520349 0
M  V30 3854 H 348.025 6.59076 -2.28615 0
M  V30 3855 H 343.922 6.36532 -1.07225 0
M  V30 3856 H 344.69 7.75682 -2.61265 0
M  V30 3857 N 347.353 -0.0568162 1.57498 0
M  V30 3858 C 348.316 -1.05038 2.03715 0
M  V30 3859 C 349.316 -1.30709 0.936577 0
M  V30 3860 O 350.506 -1.26178 1.20103 0
M  V30 3861 C 347.638 -2.39034 2.43055 0
M  V30 3862 H 348.831 -0.651715 2.92733 0
M  V30 3863 H 346.384 -0.302947 1.53336 0
M  V30 3864 H 347.119 -2.83703 1.57108 0
M  V30 3865 H 346.904 -2.21739 3.2338 0
M  V30 3866 H 348.394 -3.10421 2.79336 0
M  V30 3867 N 348.832 -1.54138 -0.328536 0
M  V30 3868 C 349.762 -1.86167 -1.40939 0
M  V30 3869 C 350.743 -0.718044 -1.54202 0
M  V30 3870 O 351.928 -0.971328 -1.68163 0
M  V30 3871 C 349.058 -2.08461 -2.77779 0
M  V30 3872 C 348.012 -3.24299 -2.7931 0
M  V30 3873 C 347.338 -3.31955 -4.19178 0
M  V30 3874 C 348.638 -4.62065 -2.43502 0
M  V30 3875 H 350.332 -2.76689 -1.14383 0
M  V30 3876 H 347.878 -1.33132 -0.548806 0
M  V30 3877 H 349.831 -2.29453 -3.53454 0
M  V30 3878 H 348.555 -1.14684 -3.05802 0
M  V30 3879 H 347.214 -3.03187 -2.0609 0
M  V30 3880 H 346.862 -2.35745 -4.44335 0
M  V30 3881 H 346.562 -4.09805 -4.2111 0
M  V30 3882 H 348.086 -3.55175 -4.96672 0
M  V30 3883 H 349.5 -4.8297 -3.08889 0
M  V30 3884 H 347.897 -5.42429 -2.56693 0
M  V30 3885 H 348.967 -4.64652 -1.38659 0
M  V30 3886 N 350.31 0.590341 -1.46126 0
M  V30 3887 C 351.587 1.35029 -1.41515 0
M  V30 3888 C 351.967 2.10888 -0.0946472 0
M  V30 3889 O 351.315 2.08998 0.923693 0
M  V30 3890 C 351.525 2.28269 -2.63997 0
M  V30 3891 C 352.873 2.90338 -3.09821 0
M  V30 3892 O 353.897 2.38585 -2.64492 0
M  V30 3893 O 352.756 3.84321 -3.88535 0
M  V30 3894 H 349.85 0.606317 -0.562413 0
M  V30 3895 H 352.396 0.611994 -1.58281 0
M  V30 3896 H 351.168 1.71591 -3.51671 0
M  V30 3897 H 350.791 3.0945 -2.49652 0
M  V30 3898 N 351.788 1.33704 0.83433 0
M  V30 3899 C 353.199 1.22813 1.4062 0
M  V30 3900 C 353.55 -0.151107 1.95617 0
M  V30 3901 O 352.675 -1.05092 1.89168 0
M  V30 3902 C 353.27 2.22355 2.55624 0
M  V30 3903 C 351.829 2.1529 3.08751 0
M  V30 3904 C 350.976 2.09589 1.8157 0
M  V30 3905 H 353.927 1.45236 0.639702 0
M  V30 3906 H 353.948 1.83391 3.33389 0
M  V30 3907 H 353.46 3.22728 2.15566 0
M  V30 3908 H 351.561 1.18235 3.53343 0
M  V30 3909 H 351.674 3.06038 3.68616 0
M  V30 3910 H 350.038 1.55134 2.02004 0
M  V30 3911 H 350.821 3.11777 1.43701 0
M  V30 3912 N 353.266 -1.05314 1.17247 0
M  V30 3913 C 354.176 -2.16538 0.90268 0
M  V30 3914 C 355.192 -1.73523 -0.128707 0
M  V30 3915 O 356.368 -2.01337 0.0502701 0
M  V30 3916 C 353.433 -3.44167 0.418356 0
M  V30 3917 C 352.494 -4.01635 1.51618 0
M  V30 3918 C 351.727 -5.23171 1.05487 0
M  V30 3919 O 351.95 -5.70327 -0.0914715 0
M  V30 3920 O 350.884 -5.72848 1.8474 0
M  V30 3921 H 354.71 -2.42145 1.83302 0
M  V30 3922 H 352.295 -1.15037 0.953246 0
M  V30 3923 H 354.177 -4.21112 0.155726 0
M  V30 3924 H 352.852 -3.20063 -0.48385 0
M  V30 3925 H 351.759 -3.26135 1.83268 0
M  V30 3926 H 353.092 -4.30053 2.39405 0
M  V30 3927 N 354.744 -0.972509 -1.24016 0
M  V30 3928 C 355.707 -0.511403 -2.23422 0
M  V30 3929 C 356.707 0.394679 -1.55881 0
M  V30 3930 O 357.897 0.189469 -1.73167 0
M  V30 3931 C 355.029 0.258769 -3.39916 0
M  V30 3932 H 356.222 -1.39024 -2.6573 0
M  V30 3933 H 353.775 -0.757585 -1.36713 0
M  V30 3934 H 354.51 1.1545 -3.03054 0
M  V30 3935 H 354.295 -0.391522 -3.9014 0
M  V30 3936 H 355.785 0.570244 -4.13688 0
M  V30 3937 N 356.222 1.38976 -0.743202 0
M  V30 3938 C 357.47 1.99948 -0.29417 0
M  V30 3939 C 357.791 1.59279 1.12495 0
M  V30 3940 O 357.061 0.844808 1.76748 0
M  V30 3941 H 355.641 0.739473 -0.105774 0
M  V30 3942 H 358.303 1.699 -0.954986 0
M  V30 3943 H 357.399 3.10142 -0.349056 0
M  V30 3944 N 357.7 0.491464 1.49741 0
M  V30 3945 C 359.116 0.146835 1.58923 0
M  V30 3946 C 359.316 -1.34804 1.49767 0
M  V30 3947 O 358.372 -2.12317 1.36667 0
M  V30 3948 C 359.685 0.715157 2.92072 0
M  V30 3949 C 361.233 0.680407 3.05515 0
M  V30 3950 C 361.708 1.22663 4.41269 0
M  V30 3951 N 363.199 1.18691 4.47735 0
M  V30 3952 C 363.934 1.57984 5.51207 0
M  V30 3953 N 363.43 2.04824 6.6183 0
M  V30 3954 N 365.223 1.49459 5.41866 0
M  V30 3955 H 357.374 1.46347 1.53936 0
M  V30 3956 H 359.637 0.606453 0.728642 0
M  V30 3957 H 359.343 1.76317 3.04311 0
M  V30 3958 H 359.217 0.17018 3.76816 0
M  V30 3959 H 361.604 -0.358743 2.92911 0
M  V30 3960 H 361.685 1.26242 2.22478 0
M  V30 3961 H 361.329 2.26451 4.54623 0
M  V30 3962 H 361.259 0.620637 5.2293 0
M  V30 3963 H 363.75 0.843605 3.68364 0
M  V30 3964 H 364.063 2.32901 7.3687 0
M  V30 3965 H 362.408 2.08791 6.62896 0
M  V30 3966 H 365.599 1.12692 4.54333 0
M  V30 3967 H 365.772 1.80406 6.22381 0
M  V30 3968 N 359.178 -1.55987 0.224894 0
M  V30 3969 C 360.108 -2.23426 -0.678457 0
M  V30 3970 C 361.089 -1.20709 -1.19847 0
M  V30 3971 O 362.274 -1.49304 -1.24186 0
M  V30 3972 C 359.404 -2.91676 -1.88527 0
M  V30 3973 C 358.358 -4.00893 -1.49896 0
M  V30 3974 C 357.684 -4.56455 -2.78483 0
M  V30 3975 C 358.984 -5.17769 -0.686461 0
M  V30 3976 H 360.678 -2.99175 -0.116173 0
M  V30 3977 H 358.224 -1.43897 -0.054436 0
M  V30 3978 H 360.177 -3.37547 -2.5227 0
M  V30 3979 H 358.901 -2.1338 -2.47258 0
M  V30 3980 H 357.56 -3.55758 -0.884985 0
M  V30 3981 H 357.208 -3.74886 -3.35365 0
M  V30 3982 H 356.908 -5.30169 -2.53368 0
M  V30 3983 H 358.432 -5.05047 -3.43162 0
M  V30 3984 H 359.846 -5.60001 -1.22767 0
M  V30 3985 H 358.243 -5.97735 -0.532259 0
M  V30 3986 H 359.313 -4.83932 0.306196 0
M  V30 3987 N 360.656 0.0484629 -1.57525 0
M  V30 3988 C 361.902 0.744226 -1.88651 0
M  V30 3989 C 362.235 1.76029 -0.820212 0
M  V30 3990 O 361.51 1.93782 0.166985 0
M  V30 3991 C 361.793 1.43128 -3.30434 0
M  V30 3992 C 361.646 0.43005 -4.47739 0
M  V30 3993 C 362.965 2.37031 -3.70816 0
M  V30 3994 H 360.084 0.269089 -0.68612 0
M  V30 3995 H 362.726 0.00713532 -1.89999 0
M  V30 3996 H 360.876 2.05956 -3.29415 0
M  V30 3997 H 362.548 -0.194816 -4.60888 0
M  V30 3998 H 360.791 -0.252522 -4.33064 0
M  V30 3999 H 361.462 0.948874 -5.43783 0
M  V30 4000 H 363.938 1.84263 -3.73077 0
M  V30 4001 H 362.814 2.82094 -4.70865 0
M  V30 4002 H 363.075 3.22864 -3.02012 0
M  V30 4003 N 362.134 1.5431 0.320358 0
M  V30 4004 C 363.38 1.72924 1.05949 0
M  V30 4005 C 363.713 0.503185 1.87568 0
M  V30 4006 O 362.988 -0.499839 1.87968 0
M  V30 4007 C 363.271 3.00676 1.98156 0
M  V30 4008 C 363.124 4.3354 1.19845 0
M  V30 4009 C 364.443 3.24198 2.9763 0
M  V30 4010 H 361.562 0.629195 0.383774 0
M  V30 4011 H 364.204 1.87008 0.335854 0
M  V30 4012 H 362.354 2.888 2.59859 0
M  V30 4013 H 364.026 4.57305 0.605773 0
M  V30 4014 H 362.269 4.309 0.500784 0
M  V30 4015 H 362.94 5.19156 1.87567 0
M  V30 4016 H 365.416 3.35557 2.4605 0
M  V30 4017 H 364.292 4.14938 3.59329 0
M  V30 4018 H 364.553 2.41577 3.7026 0
M  V30 4019 N 363.613 -0.582584 1.46437 0
M  V30 4020 C 364.563 -1.68654 1.53426 0
M  V30 4021 C 365.547 -1.55971 0.395194 0
M  V30 4022 O 366.739 -1.64884 0.643612 0
M  V30 4023 C 363.868 -3.07439 1.52762 0
M  V30 4024 C 362.954 -3.25418 2.71963 0
M  V30 4025 N 363.345 -3.13556 3.96883 0
M  V30 4026 C 361.643 -3.56357 2.68189 0
M  V30 4027 C 362.344 -3.33543 4.76575 0
M  V30 4028 N 361.32 -3.58704 4.08451 0
M  V30 4029 H 365.122 -1.58014 2.47808 0
M  V30 4030 H 362.636 -0.786617 1.42078 0
M  V30 4031 H 364.633 -3.86671 1.55857 0
M  V30 4032 H 363.293 -3.1921 0.594573 0
M  V30 4033 H 364.304 -2.9142 4.28129 0
M  V30 4034 H 360.981 -3.74812 1.83908 0
M  V30 4035 H 362.371 -3.29555 5.85528 0
M  V30 4036 N 365.091 -1.34144 -0.827227 0
M  V30 4037 C 366.054 -1.25264 -1.91942 0
M  V30 4038 C 367.054 -0.168866 -1.59911 0
M  V30 4039 O 368.244 -0.421198 -1.69031 0
M  V30 4040 C 365.376 -0.932952 -3.27885 0
M  V30 4041 H 366.569 -2.22357 -2.0124 0
M  V30 4042 H 364.122 -1.1837 -1.0207 0
M  V30 4043 H 364.857 0.0349917 -3.24281 0
M  V30 4044 H 364.642 -1.71682 -3.52516 0
M  V30 4045 H 366.132 -0.895874 -4.07877 0
M  V30 4046 N 366.569 1.04691 -1.17803 0
M  V30 4047 C 367.516 2.12557 -0.899343 0
M  V30 4048 C 368.486 1.65339 0.158771 0
M  V30 4049 O 369.671 1.90789 0.0204797 0
M  V30 4050 C 366.811 3.42481 -0.424315 0
M  V30 4051 C 365.924 4.03346 -1.54713 0
M  V30 4052 C 365.059 5.21208 -1.02546 0
M  V30 4053 C 364.098 5.74089 -2.12339 0
M  V30 4054 N 363.235 6.83247 -1.61612 0
M  V30 4055 H 368.075 2.35734 -1.823 0
M  V30 4056 H 365.612 1.1564 -0.909159 0
M  V30 4057 H 367.57 4.16996 -0.130421 0
M  V30 4058 H 366.2 3.19471 0.462377 0
M  V30 4059 H 365.252 3.2622 -1.95664 0
M  V30 4060 H 366.564 4.38628 -2.37501 0
M  V30 4061 H 365.718 6.02812 -0.685718 0
M  V30 4062 H 364.457 4.87414 -0.167084 0
M  V30 4063 H 363.462 4.91111 -2.47165 0
M  V30 4064 H 364.687 6.0993 -2.98601 0
M  V30 4065 H 362.633 6.5134 -0.780533 0
M  V30 4066 H 362.55 7.17559 -2.38003 0
M  V30 4067 H 363.818 7.68491 -1.30545 0
M  V30 4068 N 368.047 0.979072 1.23499 0
M  V30 4069 C 368.977 0.537606 2.27227 0
M  V30 4070 C 369.958 -0.428539 1.64613 0
M  V30 4071 O 371.143 -0.322191 1.91509 0
M  V30 4072 C 368.273 -0.162052 3.46922 0
M  V30 4073 C 367.227 0.721242 4.21879 0
M  V30 4074 C 366.553 -0.110555 5.34586 0
M  V30 4075 C 367.853 2.01141 4.82016 0
M  V30 4076 H 369.547 1.40462 2.64406 0
M  V30 4077 H 367.093 0.67684 1.27102 0
M  V30 4078 H 369.046 -0.482192 4.18632 0
M  V30 4079 H 367.77 -1.06351 3.08799 0
M  V30 4080 H 366.429 1.02482 3.51984 0
M  V30 4081 H 366.077 -1.0125 4.92704 0
M  V30 4082 H 365.777 0.477325 5.85658 0
M  V30 4083 H 367.301 -0.425107 6.09118 0
M  V30 4084 H 368.715 1.75612 5.45741 0
M  V30 4085 H 367.112 2.54695 5.43369 0
M  V30 4086 H 368.182 2.69909 4.02836 0
M  V30 4087 N 369.525 -1.3858 0.750561 0
M  V30 4088 C 370.771 -2.00481 0.305825 0
M  V30 4089 C 371.104 -1.5944 -1.10872 0
M  V30 4090 O 370.379 -0.83052 -1.75877 0
M  V30 4091 C 370.662 -3.5758 0.425287 0
M  V30 4092 C 370.515 -4.08594 1.88072 0
M  V30 4093 C 371.834 -4.39719 -0.183122 0
M  V30 4094 H 368.953 -0.728348 0.112598 0
M  V30 4095 H 371.595 -1.64566 0.949638 0
M  V30 4096 H 369.745 -3.88306 -0.122828 0
M  V30 4097 H 371.417 -3.88523 2.48691 0
M  V30 4098 H 369.66 -3.61574 2.39681 0
M  V30 4099 H 370.331 -5.177 1.91548 0
M  V30 4100 H 372.807 -4.15128 0.284303 0
M  V30 4101 H 371.683 -5.48856 -0.0692757 0
M  V30 4102 H 371.944 -4.23434 -1.27106 0
M  V30 4103 N 371.003 -0.499398 -1.49478 0
M  V30 4104 C 371.95 0.279881 -2.29097 0
M  V30 4105 C 372.92 0.961805 -1.3542 0
M  V30 4106 O 374.105 0.968777 -1.64376 0
M  V30 4107 C 371.245 1.33932 -3.18051 0
M  V30 4108 C 370.358 0.669333 -4.26783 0
M  V30 4109 C 369.493 1.70907 -5.02955 0
M  V30 4110 C 368.532 1.02087 -6.03527 0
M  V30 4111 N 367.669 2.00474 -6.7287 0
M  V30 4112 H 372.509 -0.405317 -2.95231 0
M  V30 4113 H 370.046 -0.211726 -1.45568 0
M  V30 4114 H 372.004 1.96553 -3.67998 0
M  V30 4115 H 370.634 1.9933 -2.53904 0
M  V30 4116 H 369.686 -0.0701234 -3.80335 0
M  V30 4117 H 370.998 0.127503 -4.98637 0
M  V30 4118 H 370.152 2.41037 -5.56764 0
M  V30 4119 H 368.891 2.28476 -4.30871 0
M  V30 4120 H 367.896 0.305338 -5.48951 0
M  V30 4121 H 369.121 0.451708 -6.77596 0
M  V30 4122 H 367.067 2.57007 -6.03559 0
M  V30 4123 H 366.984 1.51353 -7.40694 0
M  V30 4124 H 368.252 2.69897 -7.31284 0
M  V30 4125 N 372.481 1.55866 -0.233164 0
M  V30 4126 C 373.897 1.59133 0.121988 0
M  V30 4127 C 374.097 1.25016 1.58029 0
M  V30 4128 O 373.153 0.990922 2.32243 0
M  V30 4129 C 374.466 2.99932 -0.214792 0
M  V30 4130 C 376.014 3.12601 -0.157971 0
M  V30 4131 C 376.489 4.55597 -0.46859 0
M  V30 4132 N 377.98 4.61305 -0.418585 0
M  V30 4133 C 378.715 5.69903 -0.63227 0
M  V30 4134 N 378.211 6.86819 -0.90835 0
M  V30 4135 N 380.004 5.59264 -0.563913 0
M  V30 4136 H 372.155 1.76315 -1.18434 0
M  V30 4137 H 374.418 0.820093 -0.475553 0
M  V30 4138 H 374.124 3.29588 -1.22739 0
M  V30 4139 H 373.998 3.74327 0.464691 0
M  V30 4140 H 376.385 2.82735 0.845283 0
M  V30 4141 H 376.466 2.40511 -0.871102 0
M  V30 4142 H 376.11 4.86182 -1.46934 0
M  V30 4143 H 376.04 5.25928 0.265865 0
M  V30 4144 H 378.531 3.77297 -0.213368 0
M  V30 4145 H 378.844 7.65507 -1.05919 0
M  V30 4146 H 377.189 6.88536 -0.945673 0
M  V30 4147 H 380.38 4.66802 -0.348372 0
M  V30 4148 H 380.553 6.43831 -0.733847 0
M  V30 4149 N 373.959 -0.0401083 1.57549 0
M  V30 4150 C 374.891 -1.07149 2.02612 0
M  V30 4151 C 375.904 -1.33126 0.937085 0
M  V30 4152 O 377.093 -1.30808 1.21456 0
M  V30 4153 C 374.193 -2.41561 2.37701 0
M  V30 4154 C 373.366 -2.35096 3.68848 0
M  V30 4155 C 372.425 -3.51867 3.91249 0
M  V30 4156 O 371.451 -3.3186 4.62447 0
M  V30 4157 N 372.653 -4.73351 3.36035 0
M  V30 4158 H 375.418 -0.687485 2.91708 0
M  V30 4159 H 372.979 -0.228248 1.60283 0
M  V30 4160 H 374.971 -3.18379 2.49833 0
M  V30 4161 H 373.541 -2.71846 1.54332 0
M  V30 4162 H 372.761 -1.4345 3.67173 0
M  V30 4163 H 374.049 -2.27908 4.54901 0
M  V30 4164 H 373.447 -4.92507 2.78304 0
M  V30 4165 H 372.004 -5.47572 3.53565 0
M  V30 4166 O 375.476 -1.60458 -0.183159 0
M  V30 4167 H 376.167 -1.75443 -0.820934 0
M  V30 END ATOM
M  V30 BEGIN BOND
M  V30 END BOND
M  V30 END CTAB
M  END
$$$$
