drugbank_target|Q44244 o-succinylbenzoate synthase (DB01646; DB02251; DB03299; DB04511)
 OpenBabel12092120223D

  0  0  0     0  0            999 V3000
M  V30 BEGIN CTAB
M  V30 COUNTS 5582 5638 0 0 0
M  V30 BEGIN ATOM
M  V30 1 H -0.908 1.98254 -0.117106 0
M  V30 2 N 0 1.576 0 0
M  V30 3 C 0.933 2.03868 1.02534 0
M  V30 4 C 1.911 0.928543 1.3348 0
M  V30 5 O 3.095 1.19667 1.45644 0
M  V30 6 C 0.222 2.43627 2.35294 0
M  V30 7 C -0.732 3.65373 2.2001 0
M  V30 8 S 0.101 5.13292 1.52614 0
M  V30 9 C 1.257 5.56322 2.86805 0
M  V30 10 H 1.49 2.90518 0.631377 0
M  V30 11 H -0.977 1.52953 0.210867 0
M  V30 12 H 0.981 2.67203 3.11629 0
M  V30 13 H -0.358 1.57376 2.7183 0
M  V30 14 H -1.165 3.90944 3.18086 0
M  V30 15 H -1.563 3.418 1.51819 0
M  V30 16 H 0.729 5.58782 3.83104 0
M  V30 17 H 1.672 6.56266 2.65933 0
M  V30 18 H 2.08 4.83886 2.90714 0
M  V30 19 N 1.4781 -0.272755 1.55222 0
M  V30 20 C 2.4251 -1.33716 1.88119 0
M  V30 21 C 3.3951 -1.49066 0.73271 0
M  V30 22 O 4.5801 -1.63469 0.984002 0
M  V30 23 C 1.7201 -2.69238 2.15882 0
M  V30 24 C 0.8331 -2.62108 3.43399 0
M  V30 25 C -0.0319 -3.89811 3.60861 0
M  V30 26 C -0.9929 -3.77193 4.8207 0
M  V30 27 N -1.8559 -4.9673 4.96189 0
M  V30 28 H 2.9841 -1.04962 2.78903 0
M  V30 29 H 0.5211 -0.507088 1.38083 0
M  V30 30 H 2.4791 -3.48089 2.29978 0
M  V30 31 H 1.1091 -2.96194 1.28331 0
M  V30 32 H 0.1611 -1.74967 3.37773 0
M  V30 33 H 1.4731 -2.48685 4.32386 0
M  V30 34 H 0.6271 -4.77103 3.74777 0
M  V30 35 H -0.6339 -4.06102 2.7006 0
M  V30 36 H -1.6289 -2.88284 4.68159 0
M  V30 37 H -0.4039 -3.62421 5.74307 0
M  V30 38 H -2.4579 -5.13431 4.08319 0
M  V30 39 H -2.5409 -4.85839 5.79221 0
M  V30 40 H -1.2729 -5.85594 5.1449 0
M  V30 41 N 2.9562 -1.48159 -0.537278 0
M  V30 42 C 3.8862 -1.65029 -1.6519 0
M  V30 43 C 4.8672 -0.499281 -1.62607 0
M  V30 44 O 6.0522 -0.730972 -1.79918 0
M  V30 45 C 3.1822 -1.68303 -3.03795 0
M  V30 46 C 2.1362 -2.8283 -3.21234 0
M  V30 47 C 1.4622 -2.71189 -4.60826 0
M  V30 48 C 2.7622 -4.24211 -3.04701 0
M  V30 49 H 4.4562 -2.58341 -1.51328 0
M  V30 50 H 2.0022 -1.24325 -0.726585 0
M  V30 51 H 3.9552 -1.78693 -3.81637 0
M  V30 52 H 2.6792 -0.715635 -3.18663 0
M  V30 53 H 1.3382 -2.71983 -2.45807 0
M  V30 54 H 0.9862 -1.72435 -4.7252 0
M  V30 55 H 0.6862 -3.48035 -4.7344 0
M  V30 56 H 2.2102 -2.83537 -5.40777 0
M  V30 57 H 3.6242 -4.3593 -3.72341 0
M  V30 58 H 2.0212 -5.01998 -3.28813 0
M  V30 59 H 3.0912 -4.41184 -2.01209 0
M  V30 60 N 4.4343 0.785586 -1.36625 0
M  V30 61 C 5.6593 1.57963 -1.34397 0
M  V30 62 C 6.0843 1.87964 0.071526 0
M  V30 63 O 5.4423 1.48182 1.0446 0
M  V30 64 C 5.4903 2.87511 -2.17646 0
M  V30 65 O 4.5943 3.81281 -1.57158 0
M  V30 66 H 3.9353 0.479014 -0.459828 0
M  V30 67 H 6.4653 0.973411 -1.79961 0
M  V30 68 H 6.4753 3.36745 -2.30362 0
M  V30 69 H 5.1503 2.65002 -3.20541 0
M  V30 70 H 3.7273 3.39885 -1.53403 0
M  V30 71 N 5.9124 1.20967 1.01018 0
M  V30 72 C 7.1604 1.02172 1.74371 0
M  V30 73 C 7.4814 -0.446414 1.89821 0
M  V30 74 O 6.7514 -1.32234 1.44537 0
M  V30 75 H 5.3314 0.375066 0.646014 0
M  V30 76 H 7.9934 1.52187 1.21758 0
M  V30 77 H 7.0894 1.48538 2.74487 0
M  V30 78 N 7.3905 -1.2043 1.01659 0
M  V30 79 C 8.6365 -1.90079 0.706963 0
M  V30 80 C 8.9695 -1.78648 -0.761474 0
M  V30 81 O 8.2445 -1.17069 -1.55323 0
M  V30 82 C 8.5275 -3.41469 1.14327 0
M  V30 83 C 8.3805 -3.61833 2.67201 0
M  V30 84 C 9.6995 -4.34261 0.714529 0
M  V30 85 H 6.8185 -0.690254 0.2583 0
M  V30 86 H 9.4605 -1.41826 1.26433 0
M  V30 87 H 7.6105 -3.82696 0.669056 0
M  V30 88 H 9.2825 -3.2986 3.22475 0
M  V30 89 H 7.5255 -3.05304 3.08175 0
M  V30 90 H 8.1965 -4.67955 2.92783 0
M  V30 91 H 10.6725 -4.00682 1.12221 0
M  V30 92 H 9.5485 -5.38806 1.04784 0
M  V30 93 H 9.8095 -4.40431 -0.383799 0
M  V30 94 N 8.8686 -0.792821 -1.36206 0
M  V30 95 C 9.7786 -0.194808 -2.3379 0
M  V30 96 C 10.7946 0.654869 -1.61206 0
M  V30 97 O 11.9706 0.569856 -1.9317 0
M  V30 98 C 9.0356 0.657721 -3.40404 0
M  V30 99 C 8.0966 -0.210849 -4.28782 0
M  V30 100 C 7.3296 0.601086 -5.30304 0
M  V30 101 O 7.5526 1.83682 -5.40016 0
M  V30 102 O 6.4866 -0.000808277 -6.019 0
M  V30 103 H 10.3126 -1.00172 -2.86704 0
M  V30 104 H 7.8976 -0.554341 -1.38735 0
M  V30 105 H 9.7796 1.14375 -4.05581 0
M  V30 106 H 8.4546 1.44247 -2.89784 0
M  V30 107 H 7.3616 -0.743714 -3.66633 0
M  V30 108 H 8.6946 -0.959195 -4.82763 0
M  V30 109 N 10.3467 1.47872 -0.545128 0
M  V30 110 C 11.2767 2.32661 0.197793 0
M  V30 111 C 12.2577 1.43041 0.920504 0
M  V30 112 O 13.4427 1.71912 0.90333 0
M  V30 113 C 10.5727 3.24569 1.23582 0
M  V30 114 C 9.5267 4.23333 0.630323 0
M  V30 115 C 8.8527 5.0448 1.77211 0
M  V30 116 C 10.1527 5.20704 -0.407974 0
M  V30 117 H 11.8467 2.95024 -0.510045 0
M  V30 118 H 9.3927 1.4187 -0.246731 0
M  V30 119 H 11.3457 3.8272 1.76362 0
M  V30 120 H 10.0697 2.60236 1.97344 0
M  V30 121 H 8.7287 3.6639 0.123922 0
M  V30 122 H 8.3767 4.36561 2.49847 0
M  V30 123 H 8.0767 5.71339 1.37281 0
M  V30 124 H 9.6007 5.65487 2.3034 0
M  V30 125 H 11.0147 5.7329 0.033305 0
M  V30 126 H 9.4117 5.95699 -0.725486 0
M  V30 127 H 10.4817 4.66917 -1.30828 0
M  V30 128 N 11.8248 0.280983 1.55075 0
M  V30 129 C 13.2408 -0.0729964 1.59433 0
M  V30 130 C 13.4408 -1.5411 1.29817 0
M  V30 131 O 12.4968 -2.29086 1.06187 0
M  V30 132 C 13.8098 0.306921 2.9913 0
M  V30 133 C 15.3578 0.254023 3.11968 0
M  V30 134 C 15.8328 0.608467 4.5394 0
M  V30 135 N 17.3238 0.560241 4.59799 0
M  V30 136 C 18.0588 0.80722 5.6769 0
M  V30 137 N 17.5548 1.11912 6.83701 0
M  V30 138 N 19.3478 0.735623 5.57266 0
M  V30 139 H 11.4988 1.238 1.7259 0
M  V30 140 H 13.7618 0.500547 0.805082 0
M  V30 141 H 13.4678 1.32816 3.25657 0
M  V30 142 H 13.3418 -0.349363 3.75579 0
M  V30 143 H 15.7288 -0.75794 2.852 0
M  V30 144 H 15.8098 0.944649 2.37718 0
M  V30 145 H 15.4538 1.61814 4.81434 0
M  V30 146 H 15.3838 -0.104013 5.26497 0
M  V30 147 H 17.8748 0.329288 3.76463 0
M  V30 148 H 18.1878 1.29409 7.61888 0
M  V30 149 H 16.5328 1.15695 6.85303 0
M  V30 150 H 19.7238 0.491752 4.6551 0
M  V30 151 H 19.8968 0.931482 6.4127 0
M  V30 152 N 13.3029 -1.57598 0.00835791 0
M  V30 153 C 14.7189 -1.55764 -0.347822 0
M  V30 154 C 14.9189 -1.01186 -1.74252 0
M  V30 155 O 13.9749 -0.649371 -2.44007 0
M  V30 156 C 15.2879 -2.99927 -0.215407 0
M  V30 157 C 16.8359 -3.11656 -0.289725 0
M  V30 158 C 17.3109 -4.57621 -0.18634 0
M  V30 159 N 18.8019 -4.62557 -0.243978 0
M  V30 160 C 19.5369 -5.73094 -0.18745 0
M  V30 161 N 19.0329 -6.92753 -0.0810331 0
M  V30 162 N 20.8259 -5.61588 -0.239925 0
M  V30 163 H 12.9769 -1.91411 0.92062 0
M  V30 164 H 15.2399 -0.879562 0.353659 0
M  V30 165 H 14.9459 -3.43729 0.744512 0
M  V30 166 H 14.8199 -3.63865 -0.994097 0
M  V30 167 H 17.2069 -2.67779 -1.24009 0
M  V30 168 H 17.2879 -2.5048 0.51898 0
M  V30 169 H 16.9319 -5.02174 0.760519 0
M  V30 170 H 16.8619 -5.16752 -1.01364 0
M  V30 171 H 19.3529 -3.76481 -0.327217 0
M  V30 172 H 19.6659 -7.72787 -0.0440241 0
M  V30 173 H 18.0109 -6.94984 -0.0465419 0
M  V30 174 H 21.2019 -4.66996 -0.321317 0
M  V30 175 H 21.3749 -6.47714 -0.192407 0
M  V30 176 N 14.781 0.264519 -1.55364 0
M  V30 177 C 16.027 0.99646 -1.76631 0
M  V30 178 C 16.36 1.85632 -0.570478 0
M  V30 179 O 15.635 1.89647 0.43175 0
M  V30 180 C 15.918 1.87187 -3.07625 0
M  V30 181 C 15.771 1.04138 -4.37579 0
M  V30 182 C 17.09 2.85749 -3.34717 0
M  V30 183 H 14.209 0.360841 -0.642622 0
M  V30 184 H 16.851 0.268218 -1.88097 0
M  V30 185 H 15.001 2.49279 -2.9798 0
M  V30 186 H 16.673 0.440517 -4.59192 0
M  V30 187 H 14.916 0.345115 -4.32425 0
M  V30 188 H 15.587 1.68729 -5.2558 0
M  V30 189 H 18.063 2.33793 -3.4421 0
M  V30 190 H 16.939 3.44136 -4.27623 0
M  V30 191 H 17.2 3.61311 -2.54768 0
M  V30 192 N 16.2591 1.48442 0.529413 0
M  V30 193 C 17.1911 1.59095 1.64989 0
M  V30 194 C 18.2041 0.475212 1.5571 0
M  V30 195 O 19.3931 0.746081 1.6216 0
M  V30 196 C 16.4931 1.50518 3.0364 0
M  V30 197 C 15.6661 2.77142 3.38395 0
M  V30 198 C 14.7251 2.62012 4.56329 0
M  V30 199 O 13.7511 3.35898 4.59522 0
M  V30 200 N 14.9531 1.71667 5.54536 0
M  V30 201 H 17.7181 2.55723 1.56287 0
M  V30 202 H 15.2791 1.45173 0.716697 0
M  V30 203 H 17.2711 1.38091 3.80412 0
M  V30 204 H 15.8411 0.618627 3.06418 0
M  V30 205 H 15.0611 3.0413 2.50796 0
M  V30 206 H 16.3491 3.61146 3.58401 0
M  V30 207 H 15.7471 1.10841 5.54735 0
M  V30 208 H 14.3041 1.65178 6.30523 0
M  V30 209 N 17.7372 -0.778329 1.37039 0
M  V30 210 C 18.6702 -1.8984 1.26633 0
M  V30 211 C 19.6482 -1.61923 0.148197 0
M  V30 212 O 20.8322 -1.85742 0.321265 0
M  V30 213 C 17.9592 -3.24916 0.956403 0
M  V30 214 C 17.0052 -3.71752 2.09051 0
M  V30 215 S 17.8382 -3.86201 3.70957 0
M  V30 216 C 18.9942 -5.24135 3.42101 0
M  V30 217 H 19.2272 -1.98377 2.21436 0
M  V30 218 H 16.7602 -0.938738 1.22585 0
M  V30 219 H 18.7182 -4.02936 0.784409 0
M  V30 220 H 17.3792 -3.14089 0.0259713 0
M  V30 221 H 16.5722 -4.69661 1.8285 0
M  V30 222 H 16.1742 -3.00815 2.2223 0
M  V30 223 H 18.4662 -6.09086 2.96682 0
M  V30 224 H 19.4092 -5.55346 4.39314 0
M  V30 225 H 19.8172 -4.91761 2.77185 0
M  V30 226 N 19.2153 -1.21501 -1.00376 0
M  V30 227 C 20.6263 -1.03146 -1.55621 0
M  V30 228 C 20.9773 0.408375 -1.91903 0
M  V30 229 O 20.1023 1.29177 -1.73616 0
M  V30 230 C 20.6973 -1.86612 -2.82775 0
M  V30 231 C 19.2563 -1.72586 -3.34501 0
M  V30 232 C 18.4033 -1.83747 -2.07683 0
M  V30 233 H 21.3543 -1.35505 -0.826081 0
M  V30 234 H 21.3753 -1.3771 -3.54706 0
M  V30 235 H 20.8873 -2.91399 -2.56336 0
M  V30 236 H 18.9883 -0.704877 -3.65872 0
M  V30 237 H 19.1013 -2.54623 -4.05837 0
M  V30 238 H 17.4653 -1.27069 -2.20739 0
M  V30 239 H 18.2483 -2.90044 -1.83655 0
M  V30 240 N 20.6934 1.19889 -1.02296 0
M  V30 241 C 21.6234 2.25141 -0.619174 0
M  V30 242 C 22.6044 1.66051 0.368915 0
M  V30 243 O 23.7894 1.92546 0.252941 0
M  V30 244 C 20.9194 3.4728 0.0368783 0
M  V30 245 C 19.8734 4.19005 -0.872865 0
M  V30 246 C 19.1994 5.34637 -0.0822402 0
M  V30 247 C 20.4994 4.74452 -2.18387 0
M  V30 248 H 22.1934 2.59171 -1.49903 0
M  V30 249 H 19.7394 1.24579 -0.722222 0
M  V30 250 H 21.6924 4.20098 0.330958 0
M  V30 251 H 20.4164 3.12433 0.95149 0
M  V30 252 H 19.0754 3.48061 -1.15105 0
M  V30 253 H 18.7234 4.96034 0.83422 0
M  V30 254 H 18.4234 5.83557 -0.688149 0
M  V30 255 H 19.9474 6.10255 0.205238 0
M  V30 256 H 21.3614 5.39055 -1.95172 0
M  V30 257 H 19.7584 5.33834 -2.74119 0
M  V30 258 H 20.8284 3.92844 -2.84257 0
M  V30 259 N 22.1715 0.800033 1.35784 0
M  V30 260 C 23.4175 0.377901 1.99248 0
M  V30 261 C 23.7505 -1.05052 1.63333 0
M  V30 262 O 23.0255 -1.72768 0.893385 0
M  V30 263 C 23.3085 0.553922 3.55814 0
M  V30 264 C 23.1615 2.0268 4.01548 0
M  V30 265 C 24.4805 -0.0244802 4.40093 0
M  V30 266 H 21.5995 0.138782 0.723815 0
M  V30 267 H 24.2415 1.00835 1.61035 0
M  V30 268 H 22.3915 0.0172398 3.88496 0
M  V30 269 H 24.0635 2.62536 3.79305 0
M  V30 270 H 22.3065 2.5256 3.52698 0
M  V30 271 H 22.9775 2.10087 5.10458 0
M  V30 272 H 25.4535 0.433775 4.13833 0
M  V30 273 H 24.3295 0.128637 5.48749 0
M  V30 274 H 24.5905 -1.11758 4.27741 0
M  V30 275 N 23.6496 -1.47581 0.552962 0
M  V30 276 C 24.6126 -2.28439 -0.186605 0
M  V30 277 C 25.6126 -1.36706 -0.84665 0
M  V30 278 O 26.8026 -1.59378 -0.703164 0
M  V30 279 C 23.9346 -3.16264 -1.2724 0
M  V30 280 H 25.1276 -2.95294 0.523609 0
M  V30 281 H 22.6806 -1.532 0.309745 0
M  V30 282 H 23.4156 -2.54091 -2.01514 0
M  V30 283 H 23.2006 -3.83769 -0.803968 0
M  V30 284 H 24.6906 -3.77198 -1.79196 0
M  V30 285 N 25.1277 -0.289203 -1.54924 0
M  V30 286 C 26.5387 0.205791 -1.85562 0
M  V30 287 C 26.8897 1.54351 -1.2112 0
M  V30 288 O 26.0147 2.10435 -0.504601 0
M  V30 289 C 26.6097 0.380177 -3.3666 0
M  V30 290 C 25.1687 0.819395 -3.67373 0
M  V30 291 C 24.3157 -0.079159 -2.77187 0
M  V30 292 H 27.2667 -0.510577 -1.50262 0
M  V30 293 H 27.2877 1.21659 -3.60526 0
M  V30 294 H 26.7997 -0.593589 -3.83534 0
M  V30 295 H 24.9007 1.80413 -3.26009 0
M  V30 296 H 25.0137 0.646957 -4.74712 0
M  V30 297 H 23.3777 0.439565 -2.50878 0
M  V30 298 H 24.1607 -1.04906 -3.26878 0
M  V30 299 N 26.6058 1.57591 -0.0167156 0
M  V30 300 C 27.8528 1.91283 0.664597 0
M  V30 301 C 28.1808 0.891949 1.72842 0
M  V30 302 O 27.4358 -0.100931 1.9544 0
M  V30 303 C 27.7348 3.3172 1.33029 0
M  V30 304 C 27.4008 4.4914 0.398047 0
M  V30 305 C 26.0628 4.80992 0.141421 0
M  V30 306 C 28.4148 5.20634 -0.242825 0
M  V30 307 C 25.7428 5.81703 -0.764092 0
M  V30 308 C 28.0948 6.22311 -1.13632 0
M  V30 309 C 26.7588 6.52611 -1.40196 0
M  V30 310 H 26.0288 0.699956 0.243193 0
M  V30 311 H 28.6758 1.9135 -0.0758267 0
M  V30 312 H 26.9808 3.27856 2.14517 0
M  V30 313 H 28.6778 3.55055 1.86379 0
M  V30 314 H 25.2678 4.24262 0.608238 0
M  V30 315 H 29.4518 4.96267 -0.0576019 0
M  V30 316 H 24.7078 6.03532 -0.977732 0
M  V30 317 H 28.8818 6.76834 -1.63917 0
M  V30 318 H 26.5088 7.30467 -2.10529 0
M  V30 319 N 28.0839 -0.256276 1.55502 0
M  V30 320 C 29.4999 -0.604325 1.47716 0
M  V30 321 C 29.6999 -1.88763 0.705039 0
M  V30 322 O 28.7559 -2.51445 0.230613 0
M  V30 323 C 30.0689 -0.715756 2.92057 0
M  V30 324 C 31.6169 -0.808706 3.02372 0
M  V30 325 C 32.0919 -0.951777 4.48001 0
M  V30 326 N 33.5829 -1.01688 4.519 0
M  V30 327 C 34.3179 -1.14668 5.61817 0
M  V30 328 N 33.8139 -1.24261 6.81565 0
M  V30 329 N 35.6069 -1.1791 5.49594 0
M  V30 330 H 27.7579 0.586291 2.04148 0
M  V30 331 H 30.0209 0.201015 0.926443 0
M  V30 332 H 29.7269 0.157027 3.51349 0
M  V30 333 H 29.6009 -1.59071 3.42018 0
M  V30 334 H 31.9879 -1.67195 2.43166 0
M  V30 335 H 32.0689 0.0912063 2.55637 0
M  V30 336 H 31.7129 -0.0931291 5.07815 0
M  V30 337 H 31.6429 -1.86659 4.92408 0
M  V30 338 H 34.1339 -0.954468 3.65648 0
M  V30 339 H 34.4469 -1.34046 7.61086 0
M  V30 340 H 32.7919 -1.21236 6.84344 0
M  V30 341 H 35.9829 -1.10057 4.54978 0
M  V30 342 H 36.1559 -1.27681 6.35296 0
M  V30 343 N 29.562 -1.4872 -0.521534 0
M  V30 344 C 30.79 -1.60843 -1.30142 0
M  V30 345 C 31.205 -0.271897 -1.86832 0
M  V30 346 O 30.562 0.739969 -1.66825 0
M  V30 347 C 30.613 -2.66155 -2.4463 0
M  V30 348 O 30.334 -3.94623 -1.90275 0
M  V30 349 C 31.835 -2.88795 -3.36322 0
M  V30 350 H 29.055 -0.542075 -0.395468 0
M  V30 351 H 31.599 -1.94609 -0.628285 0
M  V30 352 H 29.754 -2.35224 -3.07812 0
M  V30 353 H 30.168 -4.52468 -2.65279 0
M  V30 354 H 31.642 -3.66264 -4.12983 0
M  V30 355 H 32.119 -1.97934 -3.9207 0
M  V30 356 H 32.725 -3.21063 -2.78924 0
M  V30 357 N 31.0401 0.771051 -1.3745 0
M  V30 358 C 32.2651 1.56529 -1.36065 0
M  V30 359 C 32.6901 1.88029 0.0515859 0
M  V30 360 O 32.0481 1.49282 1.02882 0
M  V30 361 C 32.0961 2.85187 -2.20683 0
M  V30 362 O 31.2001 3.79593 -1.61193 0
M  V30 363 H 30.5411 0.47411 -0.464883 0
M  V30 364 H 33.0711 0.954269 -1.80983 0
M  V30 365 H 33.0811 3.34283 -2.33921 0
M  V30 366 H 31.7561 2.61588 -3.23334 0
M  V30 367 H 30.3331 3.38239 -1.56999 0
M  V30 368 N 32.5182 1.22032 0.997298 0
M  V30 369 C 33.7652 1.04222 1.73621 0
M  V30 370 C 34.0932 -0.423264 1.89839 0
M  V30 371 O 33.3482 -1.3302 1.43542 0
M  V30 372 C 33.6472 1.69345 3.14733 0
M  V30 373 C 33.3132 3.19226 3.18442 0
M  V30 374 C 31.9752 3.60124 3.19161 0
M  V30 375 C 34.3272 4.15181 3.15078 0
M  V30 376 C 31.6552 4.95467 3.14212 0
M  V30 377 C 34.0072 5.50495 3.1167 0
M  V30 378 C 32.6712 5.90779 3.10703 0
M  V30 379 H 31.9412 0.381374 0.635323 0
M  V30 380 H 34.5882 1.51732 1.16831 0
M  V30 381 H 32.8932 1.14147 3.74803 0
M  V30 382 H 34.5902 1.53059 3.7064 0
M  V30 383 H 31.1802 2.86659 3.18629 0
M  V30 384 H 35.3642 3.84605 3.13676 0
M  V30 385 H 30.6202 5.25916 3.11805 0
M  V30 386 H 34.7942 6.24576 3.08022 0
M  V30 387 H 32.4212 6.9562 3.06622 0
M  V30 388 N 33.9963 -1.19345 1.0293 0
M  V30 389 C 35.2443 -1.88665 0.724574 0
M  V30 390 C 35.5653 -1.80036 -0.749144 0
M  V30 391 O 34.8353 -1.2111 -1.53978 0
M  V30 392 H 33.4153 -0.698406 0.265025 0
M  V30 393 H 36.0773 -1.44885 1.30362 0
M  V30 394 H 35.1733 -2.94987 1.01926 0
M  V30 395 N 35.4744 -0.807222 -1.35358 0
M  V30 396 C 36.7024 -0.400377 -2.02989 0
M  V30 397 C 37.1174 0.988859 -1.60832 0
M  V30 398 O 36.4744 1.63729 -0.806175 0
M  V30 399 C 36.5254 -0.474867 -3.58368 0
M  V30 400 O 36.2464 -1.80933 -3.98992 0
M  V30 401 C 37.7474 -0.0609112 -4.43258 0
M  V30 402 H 34.9674 -0.162587 -0.651004 0
M  V30 403 H 37.5114 -1.09102 -1.72965 0
M  V30 404 H 35.6664 0.167534 -3.87038 0
M  V30 405 H 36.0804 -1.77256 -4.9364 0
M  V30 406 H 37.5544 -0.164145 -5.51756 0
M  V30 407 H 38.0314 0.993831 -4.27808 0
M  V30 408 H 38.6374 -0.676492 -4.19885 0
M  V30 409 N 36.9525 1.47285 -0.560781 0
M  V30 410 C 37.8845 2.28118 0.222438 0
M  V30 411 C 38.8975 1.37219 0.876056 0
M  V30 412 O 40.0865 1.62011 0.749307 0
M  V30 413 C 37.1865 3.1159 1.33285 0
M  V30 414 C 36.3595 4.30473 0.77534 0
M  V30 415 C 35.4185 4.95513 1.77069 0
M  V30 416 O 34.4445 5.53792 1.31539 0
M  V30 417 N 35.6465 4.90531 3.10418 0
M  V30 418 H 38.4115 2.95976 -0.470958 0
M  V30 419 H 35.9725 1.56955 -0.39709 0
M  V30 420 H 37.9645 3.51967 1.99752 0
M  V30 421 H 36.5345 2.45951 1.92943 0
M  V30 422 H 35.7545 3.94144 -0.0662113 0
M  V30 423 H 37.0425 5.07362 0.382272 0
M  V30 424 H 36.4405 4.44389 3.5005 0
M  V30 425 H 34.9975 5.34917 3.72434 0
M  V30 426 N 38.4306 0.297415 1.54768 0
M  V30 427 C 39.6556 -0.318435 2.04941 0
M  V30 428 C 40.0806 -1.4701 1.17345 0
M  V30 429 O 39.4386 -1.80436 0.176758 0
M  V30 430 C 39.4866 -0.755749 3.52592 0
M  V30 431 O 38.5906 -1.86088 3.68028 0
M  V30 432 H 37.9316 -0.062421 0.661059 0
M  V30 433 H 40.4616 0.438215 1.99852 0
M  V30 434 H 40.4716 -1.04552 3.94376 0
M  V30 435 H 39.1466 0.0867233 4.1581 0
M  V30 436 H 37.7236 -1.57193 3.38149 0
M  V30 437 N 39.9087 -1.5758 0.0250728 0
M  V30 438 C 41.1547 -1.91917 -0.655413 0
M  V30 439 C 41.4877 -0.901433 -1.72011 0
M  V30 440 O 40.7627 0.0764069 -1.9435 0
M  V30 441 C 41.0457 -3.36751 -1.27558 0
M  V30 442 C 40.8987 -4.49258 -0.220719 0
M  V30 443 C 42.2177 -3.81469 -2.19475 0
M  V30 444 H 39.3367 -0.697925 -0.23679 0
M  V30 445 H 41.9787 -1.89825 0.0815036 0
M  V30 446 H 40.1287 -3.38664 -1.90365 0
M  V30 447 H 41.8007 -4.59478 0.409601 0
M  V30 448 H 40.0437 -4.31415 0.454264 0
M  V30 449 H 40.7147 -5.47618 -0.694175 0
M  V30 450 H 43.1907 -3.81266 -1.66659 0
M  V30 451 H 42.0667 -4.83512 -2.59822 0
M  V30 452 H 42.3277 -3.16744 -3.08424 0
M  V30 453 N 41.3868 0.248026 -1.55636 0
M  V30 454 C 42.8028 0.596483 -1.48035 0
M  V30 455 C 43.0028 1.88386 -0.715039 0
M  V30 456 O 42.0588 2.51319 -0.243944 0
M  V30 457 C 43.3718 0.700258 -2.92433 0
M  V30 458 C 44.9198 0.792659 -3.02797 0
M  V30 459 C 45.3948 0.928005 -4.485 0
M  V30 460 N 46.8858 0.992903 -4.52433 0
M  V30 461 C 47.6208 1.11687 -5.62418 0
M  V30 462 N 47.1168 1.20645 -6.82214 0
M  V30 463 N 48.9098 1.14994 -5.50212 0
M  V30 464 H 41.0608 -0.597109 -2.03834 0
M  V30 465 H 43.3238 -0.205925 -0.925364 0
M  V30 466 H 43.0298 -0.175658 -3.51261 0
M  V30 467 H 42.9038 1.57255 -3.42857 0
M  V30 468 H 45.2908 1.65903 -2.4405 0
M  V30 469 H 45.3718 -0.104762 -2.55585 0
M  V30 470 H 45.0158 0.0661971 -5.07857 0
M  V30 471 H 44.9458 1.84045 -4.93391 0
M  V30 472 H 47.4368 0.935064 -3.66149 0
M  V30 473 H 47.7498 1.30008 -7.61786 0
M  V30 474 H 46.0948 1.17605 -6.84977 0
M  V30 475 H 49.2858 1.07643 -4.55555 0
M  V30 476 H 49.4588 1.24311 -6.35965 0
M  V30 477 N 42.8649 1.48995 0.513639 0
M  V30 478 C 43.7749 1.67443 1.64317 0
M  V30 479 C 44.7909 0.556947 1.64846 0
M  V30 480 O 45.9669 0.830082 1.83498 0
M  V30 481 C 43.0319 1.72515 3.00732 0
M  V30 482 C 42.0929 2.96009 3.1093 0
M  V30 483 C 41.3259 3.00829 4.40837 0
M  V30 484 O 41.5489 2.13594 5.28898 0
M  V30 485 O 40.4829 3.93168 4.55744 0
M  V30 486 H 44.3089 2.63106 1.51687 0
M  V30 487 H 41.8939 1.32588 0.688543 0
M  V30 488 H 43.7759 1.78277 3.81831 0
M  V30 489 H 42.4509 0.800278 3.13651 0
M  V30 490 H 41.3579 2.9577 2.29065 0
M  V30 491 H 42.6909 3.87934 3.02933 0
M  V30 492 N 44.343 -0.763751 1.37857 0
M  V30 493 C 45.273 -1.89103 1.36975 0
M  V30 494 C 46.254 -1.68439 0.237152 0
M  V30 495 O 47.439 -1.8918 0.438713 0
M  V30 496 C 44.569 -3.26496 1.18395 0
M  V30 497 C 43.523 -3.61741 2.28751 0
M  V30 498 C 42.849 -4.97762 1.95286 0
M  V30 499 C 44.149 -3.67665 3.70972 0
M  V30 500 H 45.843 -1.90099 2.31307 0
M  V30 501 H 43.389 -0.91319 1.11341 0
M  V30 502 H 45.342 -4.05003 1.16406 0
M  V30 503 H 44.066 -3.25955 0.205215 0
M  V30 504 H 42.725 -2.85547 2.29909 0
M  V30 505 H 42.373 -4.93769 0.959221 0
M  V30 506 H 42.073 -5.22313 2.69189 0
M  V30 507 H 43.597 -5.7866 1.94898 0
M  V30 508 H 45.011 -4.36307 3.719 0
M  V30 509 H 43.408 -4.03718 4.43995 0
M  V30 510 H 44.478 -2.68134 4.0402 0
M  V30 511 N 45.8211 -1.22559 -0.990812 0
M  V30 512 C 46.7511 -1.0218 -2.09956 0
M  V30 513 C 47.7321 0.0579394 -1.70001 0
M  V30 514 O 48.9171 -0.104684 -1.93918 0
M  V30 515 C 46.0471 -0.601023 -3.4206 0
M  V30 516 C 45.0011 -1.62694 -3.95872 0
M  V30 517 C 44.3271 -1.06193 -5.24049 0
M  V30 518 C 45.6271 -3.01743 -4.2632 0
M  V30 519 H 47.3211 -1.94916 -2.27262 0
M  V30 520 H 44.8671 -0.938566 -1.09211 0
M  V30 521 H 46.8201 -0.445561 -4.19038 0
M  V30 522 H 45.5441 0.362005 -3.24588 0
M  V30 523 H 44.2031 -1.77021 -3.21028 0
M  V30 524 H 43.8511 -0.0901903 -5.02919 0
M  V30 525 H 43.5511 -1.74732 -5.61019 0
M  V30 526 H 45.0751 -0.918092 -6.03658 0
M  V30 527 H 46.4891 -2.90777 -4.94087 0
M  V30 528 H 44.8861 -3.67425 -4.74467 0
M  V30 529 H 45.9561 -3.51518 -3.34011 0
M  V30 530 N 47.2992 1.18797 -1.03562 0
M  V30 531 C 48.2292 2.24472 -0.643019 0
M  V30 532 C 49.2102 1.66433 0.351283 0
M  V30 533 O 50.3952 1.92803 0.232505 0
M  V30 534 C 47.5252 3.473 4.24935e-05 0
M  V30 535 C 46.4792 4.18055 -0.917257 0
M  V30 536 C 45.8052 5.34519 -0.138941 0
M  V30 537 C 47.1052 4.72109 -2.23407 0
M  V30 538 H 48.7992 2.57566 -1.52643 0
M  V30 539 H 46.3452 1.23806 -0.735394 0
M  V30 540 H 48.2982 4.20426 0.286383 0
M  V30 541 H 47.0222 3.13424 0.918299 0
M  V30 542 H 45.6812 3.46821 -1.1879 0
M  V30 543 H 45.3292 4.96891 0.781562 0
M  V30 544 H 45.0292 5.82794 -0.750005 0
M  V30 545 H 46.5532 6.10438 0.1405 0
M  V30 546 H 47.9672 5.36955 -2.00879 0
M  V30 547 H 46.3642 5.30897 -2.79765 0
M  V30 548 H 47.4342 3.89807 -2.88407 0
M  V30 549 N 48.7773 0.814389 1.34928 0
M  V30 550 C 49.7073 0.244827 2.32213 0
M  V30 551 C 50.6883 -0.634024 1.57842 0
M  V30 552 O 51.8733 -0.562676 1.8587 0
M  V30 553 C 49.0033 -0.601106 3.42058 0
M  V30 554 C 47.9573 0.179896 4.27622 0
M  V30 555 C 47.2833 -0.788237 5.28858 0
M  V30 556 C 48.5833 1.38329 5.03649 0
M  V30 557 H 50.2773 1.05763 2.80097 0
M  V30 558 H 47.8233 0.510029 1.34665 0
M  V30 559 H 49.7763 -1.00968 4.09125 0
M  V30 560 H 48.5003 -1.44688 2.92802 0
M  V30 561 H 47.1593 0.569739 3.62146 0
M  V30 562 H 46.8073 -1.62973 4.75866 0
M  V30 563 H 46.5073 -0.269942 5.8698 0
M  V30 564 H 48.0313 -1.19485 5.98795 0
M  V30 565 H 49.4453 1.04918 5.63618 0
M  V30 566 H 47.8423 1.83662 5.71304 0
M  V30 567 H 48.9123 2.16592 4.33839 0
M  V30 568 N 50.2554 -1.46986 0.568584 0
M  V30 569 C 51.6714 -1.57946 0.229189 0
M  V30 570 C 51.8714 -1.56567 -1.26843 0
M  V30 571 O 50.9274 -1.47511 -2.04931 0
M  V30 572 C 52.2404 -2.87963 0.865909 0
M  V30 573 C 53.7884 -3.01568 0.838188 0
M  V30 574 C 54.2634 -4.34301 1.45419 0
M  V30 575 N 55.7544 -4.40965 1.41788 0
M  V30 576 C 56.4894 -5.42256 1.86403 0
M  V30 577 N 55.9854 -6.50297 2.38926 0
M  V30 578 N 57.7784 -5.3337 1.77405 0
M  V30 579 H 49.9294 -1.46126 1.54146 0
M  V30 580 H 52.1924 -0.696156 0.643484 0
M  V30 581 H 51.8984 -2.94742 1.91886 0
M  V30 582 H 51.7724 -3.75423 0.365687 0
M  V30 583 H 54.1594 -2.94379 -0.206106 0
M  V30 584 H 54.2404 -2.1562 1.37629 0
M  V30 585 H 53.8844 -4.42247 2.49761 0
M  V30 586 H 53.8144 -5.19 0.891435 0
M  V30 587 H 56.3054 -3.63484 1.03381 0
M  V30 588 H 56.6184 -7.23777 2.70863 0
M  V30 589 H 54.9634 -6.51155 2.42944 0
M  V30 590 H 58.1544 -4.47865 1.3614 0
M  V30 591 H 58.3274 -6.12169 2.12492 0
M  V30 592 N 51.7335 -0.305618 -1.54608 0
M  V30 593 C 52.6965 0.555591 -2.22364 0
M  V30 594 C 53.6965 1.05768 -1.21119 0
M  V30 595 O 54.8865 0.952972 -1.45822 0
M  V30 596 C 52.0185 1.76974 -2.91364 0
M  V30 597 H 53.2115 -0.0364572 -2.99878 0
M  V30 598 H 50.7645 -0.0565007 -1.56198 0
M  V30 599 H 51.4995 2.40151 -2.17941 0
M  V30 600 H 51.2845 1.41732 -3.65588 0
M  V30 601 H 52.7745 2.38148 -3.43038 0
M  V30 602 N 53.2116 1.57565 -0.0334293 0
M  V30 603 C 54.4576 1.92262 0.645226 0
M  V30 604 C 54.7906 0.910543 1.71531 0
M  V30 605 O 54.0656 -0.066099 1.94388 0
M  V30 606 C 54.3486 3.37422 1.2577 0
M  V30 607 C 54.2016 4.49369 0.196891 0
M  V30 608 C 55.5206 3.82628 2.17449 0
M  V30 609 H 52.6396 0.699171 0.233085 0
M  V30 610 H 55.2816 1.89779 -0.0915694 0
M  V30 611 H 53.4316 3.39669 1.88566 0
M  V30 612 H 55.1036 4.59254 -0.433962 0
M  V30 613 H 53.3466 4.31168 -0.477137 0
M  V30 614 H 54.0176 5.47978 0.665124 0
M  V30 615 H 56.4936 3.82145 1.64634 0
M  V30 616 H 55.3696 4.84883 2.57254 0
M  V30 617 H 55.6306 3.18376 3.0674 0
M  V30 618 N 54.6897 -0.239769 1.55765 0
M  V30 619 C 55.9177 -0.98417 1.81994 0
M  V30 620 C 56.3327 -1.7867 0.610124 0
M  V30 621 O 55.6897 -1.77571 -0.421271 0
M  V30 622 C 55.7407 -1.91635 3.06526 0
M  V30 623 O 55.4617 -1.14629 4.22838 0
M  V30 624 C 56.9627 -2.77616 3.45607 0
M  V30 625 H 54.1827 -0.28928 0.605441 0
M  V30 626 H 56.7267 -0.260499 2.02834 0
M  V30 627 H 54.8817 -2.5942 2.87715 0
M  V30 628 H 55.2957 -1.77745 4.93464 0
M  V30 629 H 56.7697 -3.38759 4.35828 0
M  V30 630 H 57.2467 -3.4909 2.6652 0
M  V30 631 H 57.8527 -2.15271 3.66795 0
M  V30 632 N 56.1678 -1.49265 -0.50573 0
M  V30 633 C 57.5788 -1.51769 -1.08734 0
M  V30 634 C 57.9298 -0.301192 -1.93874 0
M  V30 635 O 57.0548 0.589456 -2.08217 0
M  V30 636 C 57.6498 -2.75017 -1.97867 0
M  V30 637 C 56.2088 -2.80314 -2.51199 0
M  V30 638 C 55.3558 -2.4562 -1.28709 0
M  V30 639 H 58.3068 -1.56031 -0.289855 0
M  V30 640 H 58.3278 -2.5491 -2.82491 0
M  V30 641 H 57.8398 -3.63539 -1.35873 0
M  V30 642 H 55.9408 -1.96061 -3.16845 0
M  V30 643 H 56.0538 -3.82366 -2.88675 0
M  V30 644 H 54.4178 -1.97297 -1.61078 0
M  V30 645 H 55.2008 -3.36411 -0.6843 0
M  V30 646 N 57.6459 0.756429 -1.3826 0
M  V30 647 C 58.6089 1.85176 -1.35065 0
M  V30 648 C 59.6089 1.58818 -0.251703 0
M  V30 649 O 60.7989 1.66615 -0.508433 0
M  V30 650 C 57.9309 3.22596 -1.10201 0
M  V30 651 H 59.1239 1.89417 -2.3251 0
M  V30 652 H 56.6769 0.95783 -1.23512 0
M  V30 653 H 57.4119 3.24025 -0.133504 0
M  V30 654 H 57.1969 3.43122 -1.89762 0
M  V30 655 H 58.6869 4.02673 -1.10654 0
M  V30 656 N 59.124 1.23083 0.984299 0
M  V30 657 C 60.372 1.05848 1.72165 0
M  V30 658 C 60.693 -0.406049 1.90726 0
M  V30 659 O 59.963 -1.29139 1.47309 0
M  V30 660 H 58.543 0.388685 0.637913 0
M  V30 661 H 61.205 1.54736 1.18503 0
M  V30 662 H 60.301 1.54327 2.71274 0
M  V30 663 N 60.6021 -1.18246 1.0419 0
M  V30 664 C 61.5121 -2.25574 0.644476 0
M  V30 665 C 62.5281 -1.70845 -0.329826 0
M  V30 666 O 63.7041 -2.00554 -0.184443 0
M  V30 667 C 60.7691 -3.46697 0.014877 0
M  V30 668 C 59.8301 -4.16554 1.03834 0
M  V30 669 C 59.0631 -5.31894 0.438692 0
M  V30 670 O 59.2861 -5.65385 -0.754752 0
M  V30 671 O 58.2201 -5.90459 1.168 0
M  V30 672 H 62.0461 -2.61836 1.53869 0
M  V30 673 H 59.6311 -1.25352 0.812854 0
M  V30 674 H 61.5131 -4.20062 -0.335538 0
M  V30 675 H 60.1881 -3.12255 -0.853138 0
M  V30 676 H 59.0951 -3.45251 1.44057 0
M  V30 677 H 60.4281 -4.54998 1.87716 0
M  V30 678 N 62.0802 -0.821533 -1.34494 0
M  V30 679 C 63.3282 -0.408139 -1.97936 0
M  V30 680 C 63.6492 1.03193 -1.65457 0
M  V30 681 O 62.9192 1.71622 -0.944595 0
M  V30 682 H 61.4992 -0.147928 -0.732206 0
M  V30 683 H 64.1612 -1.05067 -1.64155 0
M  V30 684 H 63.2572 -0.52601 -3.07635 0
M  V30 685 N 63.5583 1.46682 -0.576371 0
M  V30 686 C 64.8043 2.03287 -0.0679305 0
M  V30 687 C 65.1593 1.44063 1.27529 0
M  V30 688 O 64.4523 0.593973 1.82161 0
M  V30 689 C 64.6463 3.57345 0.062886 0
M  V30 690 C 64.4753 4.31509 -1.26611 0
M  V30 691 C 63.2453 4.70664 -1.83856 0
M  V30 692 C 65.4433 4.65444 -2.18783 0
M  V30 693 N 63.4253 5.29552 -3.10561 0
M  V30 694 C 64.7963 5.24835 -3.30072 0
M  V30 695 C 66.8513 4.47375 -2.18542 0
M  V30 696 C 65.5543 5.68063 -4.41244 0
M  V30 697 C 67.5803 4.91614 -3.28739 0
M  V30 698 C 66.9423 5.51071 -4.38748 0
M  V30 699 H 63.0413 0.779083 -0.0674836 0
M  V30 700 H 65.6253 1.78918 -0.767877 0
M  V30 701 H 63.7963 3.8144 0.731988 0
M  V30 702 H 65.5283 4.00592 0.575134 0
M  V30 703 H 62.2833 4.53224 -1.37424 0
M  V30 704 H 62.7073 5.63523 -3.75195 0
M  V30 705 H 67.3493 4.00747 -1.34765 0
M  V30 706 H 65.0673 6.13672 -5.25768 0
M  V30 707 H 68.6533 4.79389 -3.29662 0
M  V30 708 H 67.5333 5.84678 -5.22611 0
M  V30 709 N 65.0364 0.313813 1.54444 0
M  V30 710 C 66.2844 -0.291099 1.99993 0
M  V30 711 C 66.6054 -1.53418 1.20366 0
M  V30 712 O 65.8754 -1.93544 0.302927 0
M  V30 713 H 64.4554 -0.110552 0.738774 0
M  V30 714 H 67.1174 0.428106 1.9014 0
M  V30 715 H 66.2134 -0.554268 3.07139 0
M  V30 716 N 66.5145 -1.57545 0.0417849 0
M  V30 717 C 67.4245 -2.14451 -0.951213 0
M  V30 718 C 68.4405 -1.09992 -1.34825 0
M  V30 719 O 69.6165 -1.42114 -1.42708 0
M  V30 720 C 66.6815 -2.67063 -2.21084 0
M  V30 721 C 65.7425 -3.86284 -1.87304 0
M  V30 722 C 64.9755 -4.36378 -3.07261 0
M  V30 723 O 65.1985 -3.85587 -4.20332 0
M  V30 724 O 64.1325 -5.28077 -2.88822 0
M  V30 725 H 67.9585 -2.99601 -0.497287 0
M  V30 726 H 65.5435 -1.48317 -0.179567 0
M  V30 727 H 67.4255 -3.00914 -2.95006 0
M  V30 728 H 66.1005 -1.84989 -2.65633 0
M  V30 729 H 65.0075 -3.57338 -1.10727 0
M  V30 730 H 66.3405 -4.6956 -1.47562 0
M  V30 731 N 67.9926 0.231505 -1.5589 0
M  V30 732 C 69.2326 0.964533 -1.80211 0
M  V30 733 C 69.5966 1.81926 -0.613744 0
M  V30 734 O 70.7976 2.58526 -0.736045 0
M  V30 735 C 69.0686 1.78956 -3.09369 0
M  V30 736 S 70.6276 2.57959 -3.54969 0
M  V30 737 H 67.4456 0.324173 -0.632798 0
M  V30 738 H 70.0476 0.230985 -1.94131 0
M  V30 739 H 68.7516 1.15161 -3.93911 0
M  V30 740 H 68.2826 2.56559 -2.9823 0
M  V30 741 H 70.2976 3.81309 -3.17519 0
M  V30 742 N 69.4707 1.49531 0.497807 0
M  V30 743 C 70.7167 1.59415 1.25358 0
M  V30 744 C 71.0497 0.281422 1.9215 0
M  V30 745 O 70.3247 -0.715249 1.80871 0
M  V30 746 C 70.6077 2.75566 2.3181 0
M  V30 747 C 70.4607 4.16642 1.69498 0
M  V30 748 C 71.7797 2.87347 3.33346 0
M  V30 749 H 68.8987 0.580244 0.454408 0
M  V30 750 H 71.5407 1.81827 0.551262 0
M  V30 751 H 69.6907 2.56587 2.91711 0
M  V30 752 H 71.3627 4.47145 1.13399 0
M  V30 753 H 69.6057 4.22141 0.998978 0
M  V30 754 H 70.2767 4.93792 2.46725 0
M  V30 755 H 72.7527 3.04634 2.83438 0
M  V30 756 H 71.6287 3.70289 4.05188 0
M  V30 757 H 71.8897 1.96834 3.95865 0
M  V30 758 N 70.9488 -0.749086 1.3866 0
M  V30 759 C 72.1768 -1.53834 1.38358 0
M  V30 760 C 72.5918 -1.88783 -0.0255219 0
M  V30 761 O 71.9488 -1.53101 -0.993292 0
M  V30 762 C 71.9998 -2.83468 2.2434 0
M  V30 763 O 71.7208 -2.50008 3.5976 0
M  V30 764 C 73.2218 -3.7758 2.32267 0
M  V30 765 H 70.4418 -0.47585 0.473083 0
M  V30 766 H 72.9858 -0.926726 1.82297 0
M  V30 767 H 71.1408 -3.40995 1.83851 0
M  V30 768 H 71.5548 -3.33182 4.05081 0
M  V30 769 H 73.0288 -4.65478 2.96706 0
M  V30 770 H 73.5058 -4.18334 1.33765 0
M  V30 771 H 74.1118 -3.25976 2.73166 0
M  V30 772 N 72.4269 -1.23603 -0.977757 0
M  V30 773 C 73.3599 -0.962772 -2.06896 0
M  V30 774 C 74.3379 0.0998743 -1.62293 0
M  V30 775 O 75.5219 -0.0349421 -1.88468 0
M  V30 776 C 72.6489 -0.45095 -3.35685 0
M  V30 777 C 71.6949 -1.50061 -3.99229 0
M  V30 778 S 72.5279 -3.07884 -4.38142 0
M  V30 779 C 73.6839 -2.58378 -5.7008 0
M  V30 780 H 73.9169 -1.88677 -2.29757 0
M  V30 781 H 71.4499 -1.06876 -1.11431 0
M  V30 782 H 73.4079 -0.162261 -4.10179 0
M  V30 783 H 72.0689 0.452179 -3.10828 0
M  V30 784 H 71.2619 -1.09269 -4.92013 0
M  V30 785 H 70.8639 -1.73878 -3.31123 0
M  V30 786 H 73.1559 -2.00563 -6.47133 0
M  V30 787 H 74.0989 -3.49711 -6.15717 0
M  V30 788 H 74.5069 -1.99143 -5.28207 0
M  V30 789 N 73.905 1.17692 -1.04816 0
M  V30 790 C 74.868 2.19787 -0.650117 0
M  V30 791 C 75.868 1.58044 0.296427 0
M  V30 792 O 77.058 1.74012 0.0808097 0
M  V30 793 C 74.19 3.40869 0.0456987 0
M  V30 794 H 75.383 2.56516 -1.5537 0
M  V30 795 H 72.936 1.31708 -0.841594 0
M  V30 796 H 73.671 3.09681 0.962726 0
M  V30 797 H 73.456 3.86928 -0.634727 0
M  V30 798 H 74.946 4.16445 0.310432 0
M  V30 799 N 75.3831 0.828654 1.34056 0
M  V30 800 C 76.6311 0.41863 1.97717 0
M  V30 801 C 76.9521 -1.02314 1.66002 0
M  V30 802 O 76.2221 -1.71119 0.953683 0
M  V30 803 H 74.8021 0.151809 0.731412 0
M  V30 804 H 77.4641 1.05936 1.63596 0
M  V30 805 H 76.5601 0.542318 3.07352 0
M  V30 806 N 76.8612 -1.46375 0.584142 0
M  V30 807 C 78.2722 -1.86031 0.157959 0
M  V30 808 C 78.6232 -1.48753 -1.27933 0
M  V30 809 O 77.7482 -0.903098 -1.96655 0
M  V30 810 C 78.3432 -3.37642 0.279892 0
M  V30 811 C 76.9022 -3.76289 -0.09143 0
M  V30 812 C 76.0492 -2.7039 0.615178 0
M  V30 813 H 79.0002 -1.37509 0.792274 0
M  V30 814 H 79.0212 -3.77275 -0.494364 0
M  V30 815 H 78.5332 -3.64742 1.32607 0
M  V30 816 H 76.6342 -3.54806 -1.13769 0
M  V30 817 H 76.7472 -4.78246 0.285886 0
M  V30 818 H 75.1112 -2.5464 0.0552833 0
M  V30 819 H 75.8942 -3.0033 1.66303 0
M  V30 820 N 78.3393 -0.321999 -1.54275 0
M  V30 821 C 79.2693 0.537411 -2.27231 0
M  V30 822 C 80.2503 1.12064 -1.27968 0
M  V30 823 O 81.4353 1.14606 -1.56777 0
M  V30 824 C 78.5653 1.69919 -3.02894 0
M  V30 825 C 77.5193 1.24534 -4.09482 0
M  V30 826 C 76.8453 2.49394 -4.72977 0
M  V30 827 C 78.1453 0.361335 -5.21049 0
M  V30 828 H 79.8393 -0.0711406 -2.99315 0
M  V30 829 H 77.3853 -0.0356555 -1.43956 0
M  V30 830 H 79.3383 2.30668 -3.52662 0
M  V30 831 H 78.0623 2.33431 -2.28424 0
M  V30 832 H 76.7213 0.660782 -3.60596 0
M  V30 833 H 76.3693 3.11265 -3.95124 0
M  V30 834 H 76.0693 2.19718 -5.44975 0
M  V30 835 H 77.5933 3.10908 -5.25517 0
M  V30 836 H 79.0073 0.875072 -5.66582 0
M  V30 837 H 77.4043 0.157428 -5.99893 0
M  V30 838 H 78.4743 -0.60822 -4.8107 0
M  V30 839 N 79.8174 1.5752 -0.0501392 0
M  V30 840 C 81.0474 1.96678 0.632573 0
M  V30 841 C 81.4554 0.926298 1.64974 0
M  V30 842 O 80.7984 -0.09802 1.83438 0
M  V30 843 C 80.8604 3.32068 1.37735 0
M  V30 844 C 80.5244 4.54076 0.516131 0
M  V30 845 C 81.5214 5.19445 -0.217357 0
M  V30 846 C 79.2064 5.00304 0.44736 0
M  V30 847 C 81.2004 6.29378 -1.00807 0
M  V30 848 C 78.8874 6.10114 -0.347038 0
M  V30 849 C 79.8854 6.74512 -1.07344 0
M  V30 850 O 79.5734 7.82211 -1.85477 0
M  V30 851 H 79.3054 0.652193 0.177821 0
M  V30 852 H 81.8594 2.05091 -0.112543 0
M  V30 853 H 80.0894 3.20206 2.16807 0
M  V30 854 H 81.7784 3.55981 1.95019 0
M  V30 855 H 82.5444 4.84689 -0.173688 0
M  V30 856 H 78.4234 4.49971 1.00235 0
M  V30 857 H 81.9674 6.79575 -1.57556 0
M  V30 858 H 77.8644 6.44307 -0.392349 0
M  V30 859 H 78.6324 7.98982 -1.77678 0
M  V30 860 N 81.2955 -0.223234 1.56011 0
M  V30 861 C 82.5205 -0.968978 1.83373 0
M  V30 862 C 82.9455 -1.77227 0.630254 0
M  V30 863 O 82.3035 -1.76345 -0.420959 0
M  V30 864 C 82.3515 -1.86363 3.08709 0
M  V30 865 O 81.4555 -2.95873 2.87285 0
M  V30 866 H 80.7965 -0.274461 0.604622 0
M  V30 867 H 83.3265 -0.237056 2.03222 0
M  V30 868 H 83.3365 -2.27376 3.38768 0
M  V30 869 H 82.0115 -1.27319 3.95933 0
M  V30 870 H 80.5885 -2.58818 2.68454 0
M  V30 871 N 82.7736 -1.49793 -0.48987 0
M  V30 872 C 83.9986 -1.63836 -1.27172 0
M  V30 873 C 84.4236 -0.31402 -1.8546 0
M  V30 874 O 83.7816 0.719803 -1.66399 0
M  V30 875 C 83.8296 -2.71797 -2.36978 0
M  V30 876 O 82.9336 -2.31744 -3.41128 0
M  V30 877 H 82.2746 -0.547997 -0.37496 0
M  V30 878 H 84.8046 -1.96053 -0.585191 0
M  V30 879 H 84.8146 -2.94305 -2.82575 0
M  V30 880 H 83.4896 -3.67923 -1.93921 0
M  V30 881 H 82.0666 -2.1961 -3.01373 0
M  V30 882 N 84.2517 0.741722 -1.39055 0
M  V30 883 C 85.1617 1.88621 -1.39496 0
M  V30 884 C 86.1777 1.71557 -0.290578 0
M  V30 885 O 87.3537 1.94275 -0.530954 0
M  V30 886 C 84.4187 3.24134 -1.23037 0
M  V30 887 C 83.4797 3.5364 -2.43387 0
M  V30 888 C 82.7127 4.82687 -2.27703 0
M  V30 889 O 82.9357 5.55922 -1.27696 0
M  V30 890 O 81.8697 5.1194 -3.16545 0
M  V30 891 H 85.6957 1.91203 -2.35956 0
M  V30 892 H 83.2807 0.888625 -1.20099 0
M  V30 893 H 85.1627 4.0513 -1.15964 0
M  V30 894 H 83.8377 3.22337 -0.296691 0
M  V30 895 H 82.7447 2.72758 -2.56035 0
M  V30 896 H 84.0777 3.60209 -3.35425 0
M  V30 897 N 85.7298 1.2412 0.971189 0
M  V30 898 C 86.9598 1.10415 1.7462 0
M  V30 899 C 87.3678 -0.346462 1.86001 0
M  V30 900 O 86.7108 -1.25104 1.34517 0
M  V30 901 C 86.7728 1.66596 3.18568 0
M  V30 902 C 86.4368 3.15446 3.3067 0
M  V30 903 C 87.4338 4.12636 3.16271 0
M  V30 904 C 85.1188 3.55337 3.55022 0
M  V30 905 C 87.1128 5.47699 3.26044 0
M  V30 906 C 84.7998 4.90542 3.64434 0
M  V30 907 C 85.7978 5.86532 3.49956 0
M  V30 908 O 85.4858 7.19279 3.59017 0
M  V30 909 H 85.2178 0.386616 0.55453 0
M  V30 910 H 87.7718 1.64633 1.22821 0
M  V30 911 H 86.0018 1.06808 3.71657 0
M  V30 912 H 87.6908 1.48232 3.77865 0
M  V30 913 H 88.4568 3.8316 2.97344 0
M  V30 914 H 84.3358 2.8113 3.65359 0
M  V30 915 H 87.8798 6.22603 3.14661 0
M  V30 916 H 83.7768 5.19691 3.82873 0
M  V30 917 H 84.5448 7.27153 3.75754 0
M  V30 918 N 87.2079 -1.17134 1.05439 0
M  V30 919 C 88.1559 -2.23289 0.651511 0
M  V30 920 C 89.1499 -1.66186 -0.328411 0
M  V30 921 O 90.3559 -1.78949 -0.194206 0
M  V30 922 H 86.7309 -0.726938 0.192523 0
M  V30 923 H 88.7019 -2.54565 1.55689 0
M  V30 924 C 87.4509 -3.47671 0.0448436 0
M  V30 925 H 86.7739 -3.91918 0.78996 0
M  V30 926 H 88.2139 -4.2353 -0.19964 0
M  V30 927 C 86.6729 -3.14453 -1.20918 0
M  V30 928 O 87.2029 -3.29459 -2.29825 0
M  V30 929 N 85.4089 -2.68657 -1.10779 0
M  V30 930 H 84.9559 -2.56646 -0.221526 0
M  V30 931 H 84.9139 -2.46804 -1.9477 0
M  V30 932 N 88.686 -0.835752 -1.33615 0
M  V30 933 C 89.963 -0.352017 -1.92406 0
M  V30 934 C 90.343 1.16225 -1.76224 0
M  V30 935 O 89.691 1.97526 -1.14873 0
M  V30 936 C 89.901 -0.795485 -3.39813 0
M  V30 937 C 91.249 -0.801703 -4.16963 0
M  V30 938 O 92.273 -0.738889 -3.48452 0
M  V30 939 O 91.132 -0.886607 -5.3926 0
M  V30 940 H 88.226 -0.0989641 -0.821057 0
M  V30 941 H 90.772 -0.921397 -1.42507 0
M  V30 942 H 89.544 -1.83795 -3.45449 0
M  V30 943 H 89.167 -0.202505 -3.97084 0
M  V30 944 N 90.1641 1.46063 -0.591896 0
M  V30 945 C 91.4121 2.01938 -0.0808391 0
M  V30 946 C 91.7331 1.46475 1.28725 0
M  V30 947 O 91.0031 0.652944 1.84698 0
M  V30 948 H 89.5831 0.746516 -0.0268938 0
M  V30 949 H 92.2451 1.79055 -0.769752 0
M  V30 950 H 91.3411 3.12094 -0.0187578 0
M  V30 951 N 91.6422 0.330177 1.54103 0
M  V30 952 C 92.6052 -0.520144 2.2322 0
M  V30 953 C 93.6052 -1.03828 1.22786 0
M  V30 954 O 94.7952 -0.929652 1.4732 0
M  V30 955 C 91.9272 -1.72317 2.94142 0
M  V30 956 H 93.1202 0.0841605 2.99782 0
M  V30 957 H 90.6732 0.0813433 1.56088 0
M  V30 958 H 91.4082 -2.36653 2.21734 0
M  V30 959 H 91.1932 -1.35898 3.67796 0
M  V30 960 H 92.6832 -2.3266 3.46784 0
M  V30 961 N 93.1203 -1.57491 0.0584922 0
M  V30 962 C 94.0303 -2.15448 -0.928414 0
M  V30 963 C 95.0463 -1.11416 -1.3365 0
M  V30 964 O 96.2223 -1.4362 -1.41193 0
M  V30 965 C 93.2873 -2.69393 -2.18239 0
M  V30 966 C 92.3483 -3.88249 -1.83196 0
M  V30 967 C 91.5813 -4.39613 -3.02616 0
M  V30 968 O 91.8043 -3.90023 -4.16219 0
M  V30 969 O 90.7383 -5.31111 -2.83204 0
M  V30 970 H 94.5643 -3.00112 -0.465483 0
M  V30 971 H 92.1493 -1.48499 -0.163826 0
M  V30 972 H 94.0313 -3.04026 -2.91798 0
M  V30 973 H 92.7063 -1.87796 -2.63656 0
M  V30 974 H 91.6133 -3.58492 -1.06931 0
M  V30 975 H 92.9463 -4.71098 -1.42573 0
M  V30 976 N 94.5984 0.214957 -1.56127 0
M  V30 977 C 95.5484 1.27006 -1.8935 0
M  V30 978 C 96.5324 1.41969 -0.757202 0
M  V30 979 O 97.7244 1.44673 -1.01973 0
M  V30 980 C 94.8534 2.61911 -2.2194 0
M  V30 981 C 93.9394 2.50822 -3.41978 0
M  V30 982 N 94.3304 2.09391 -4.60423 0
M  V30 983 C 92.6284 2.81765 -3.45723 0
M  V30 984 C 93.3294 2.09712 -5.42582 0
M  V30 985 N 92.3054 2.50454 -4.82466 0
M  V30 986 H 96.1074 0.940734 -2.78437 0
M  V30 987 H 93.6214 0.423492 -1.56781 0
M  V30 988 H 95.6184 3.38096 -2.43919 0
M  V30 989 H 94.2784 2.95684 -1.34169 0
M  V30 990 H 95.2894 1.80416 -4.85459 0
M  V30 991 H 91.9664 3.19865 -2.68314 0
M  V30 992 H 93.3564 1.79748 -6.4741 0
M  V30 993 N 96.0765 1.50051 0.48192 0
M  V30 994 C 97.3225 1.60736 1.2366 0
M  V30 995 C 97.6555 0.301786 1.91841 0
M  V30 996 O 96.9305 -0.696025 1.8162 0
M  V30 997 C 97.2135 2.78009 2.28874 0
M  V30 998 C 97.0665 4.18416 1.65069 0
M  V30 999 C 98.3855 2.90867 3.30279 0
M  V30 1000 H 95.5045 0.585031 0.448228 0
M  V30 1001 H 98.1465 1.82402 0.531946 0
M  V30 1002 H 96.2965 2.59667 2.88973 0
M  V30 1003 H 97.9685 4.48322 1.0865 0
M  V30 1004 H 96.2115 4.23177 0.954148 0
M  V30 1005 H 96.8825 4.96381 2.41474 0
M  V30 1006 H 99.3585 3.07623 2.80191 0
M  V30 1007 H 98.2345 3.74566 4.01238 0
M  V30 1008 H 98.4955 2.01021 3.93755 0
M  V30 1009 N 97.5546 -0.734337 1.39446 0
M  V30 1010 C 98.4846 -1.86155 1.40955 0
M  V30 1011 C 99.4656 -1.67898 0.272827 0
M  V30 1012 O 100.651 -1.88207 0.478743 0
M  V30 1013 C 97.7806 -3.23912 1.25294 0
M  V30 1014 C 96.7346 -3.56808 2.36373 0
M  V30 1015 C 96.0606 -4.93508 2.058 0
M  V30 1016 C 97.3606 -3.59713 3.78687 0
M  V30 1017 H 99.0546 -1.8515 2.35287 0
M  V30 1018 H 96.6006 -0.889367 1.13253 0
M  V30 1019 H 98.5536 -4.02443 1.2497 0
M  V30 1020 H 97.2776 -3.25446 0.274308 0
M  V30 1021 H 95.9366 -2.80606 2.35914 0
M  V30 1022 H 95.5846 -4.91623 1.06374 0
M  V30 1023 H 95.2846 -5.16486 2.80208 0
M  V30 1024 H 96.8086 -5.74396 2.07128 0
M  V30 1025 H 98.2226 -4.2832 3.81071 0
M  V30 1026 H 96.6196 -3.94209 4.52459 0
M  V30 1027 H 97.6896 -2.59504 4.09617 0
M  V30 1028 N 99.0327 -1.24633 -0.964593 0
M  V30 1029 C 100.449 -1.01239 -1.2338 0
M  V30 1030 C 100.649 0.2769 -1.99588 0
M  V30 1031 O 99.7047 0.992241 -2.32187 0
M  V30 1032 C 101.018 -2.22937 -2.01791 0
M  V30 1033 C 102.566 -2.27594 -2.14872 0
M  V30 1034 C 103.041 -3.48921 -2.96678 0
M  V30 1035 N 104.532 -3.49257 -3.04259 0
M  V30 1036 C 105.267 -4.39795 -3.67924 0
M  V30 1037 N 104.763 -5.40591 -4.33281 0
M  V30 1038 N 106.556 -4.275 -3.64966 0
M  V30 1039 H 98.7067 -2.0748 -0.454502 0
M  V30 1040 H 100.97 -0.910647 -0.26349 0
M  V30 1041 H 100.676 -3.16587 -1.53184 0
M  V30 1042 H 100.55 -2.25306 -3.02518 0
M  V30 1043 H 102.937 -1.34473 -2.6268 0
M  V30 1044 H 103.018 -2.2925 -1.13482 0
M  V30 1045 H 102.662 -4.42359 -2.49562 0
M  V30 1046 H 102.592 -3.4451 -3.98272 0
M  V30 1047 H 105.083 -2.76337 -2.57771 0
M  V30 1048 H 105.396 -6.05904 -4.79687 0
M  V30 1049 H 103.741 -5.44475 -4.3194 0
M  V30 1050 H 106.932 -3.47987 -3.13086 0
M  V30 1051 H 107.105 -4.98258 -4.14298 0
M  V30 1052 N 100.511 1.16574 -1.06058 0
M  V30 1053 C 101.461 2.18854 -0.63929 0
M  V30 1054 C 102.445 1.57505 0.328798 0
M  V30 1055 O 103.637 1.76408 0.144623 0
M  V30 1056 C 100.766 3.43291 -0.0247203 0
M  V30 1057 C 99.8518 4.11722 -1.01716 0
M  V30 1058 N 100.243 4.55841 -2.19186 0
M  V30 1059 C 98.5408 4.37872 -0.847569 0
M  V30 1060 C 99.2418 5.08751 -2.82042 0
M  V30 1061 N 98.2178 5.01489 -2.09784 0
M  V30 1062 H 102.02 2.5068 -1.53417 0
M  V30 1063 H 99.5338 1.32999 -0.931935 0
M  V30 1064 H 101.531 4.15856 0.294915 0
M  V30 1065 H 100.191 3.12954 0.865448 0
M  V30 1066 H 101.202 4.49649 -2.56975 0
M  V30 1067 H 97.8788 4.17499 -0.00918848 0
M  V30 1068 H 99.2688 5.52944 -3.81709 0
M  V30 1069 N 101.989 0.842826 1.3317 0
M  V30 1070 C 103.219 0.453397 2.01564 0
M  V30 1071 C 103.627 -0.951147 1.63554 0
M  V30 1072 O 102.97 -1.63021 0.846746 0
M  V30 1073 C 103.032 0.499013 3.5602 0
M  V30 1074 C 102.696 1.86037 4.1742 0
M  V30 1075 C 103.693 2.82416 4.36506 0
M  V30 1076 C 101.378 2.15428 4.53757 0
M  V30 1077 C 103.372 4.06346 4.91082 0
M  V30 1078 C 101.059 3.39615 5.0804 0
M  V30 1079 C 102.057 4.3489 5.26649 0
M  V30 1080 O 101.745 5.5688 5.79776 0
M  V30 1081 H 101.477 0.177871 0.652179 0
M  V30 1082 H 104.031 1.13808 1.70988 0
M  V30 1083 H 102.261 -0.242467 3.85939 0
M  V30 1084 H 103.95 0.126852 4.05702 0
M  V30 1085 H 104.716 2.6101 4.08777 0
M  V30 1086 H 100.595 1.42061 4.38565 0
M  V30 1087 H 104.139 4.80722 5.05522 0
M  V30 1088 H 100.036 3.60876 5.352 0
M  V30 1089 H 100.804 5.58674 5.98185 0
M  V30 1090 N 103.467 -1.45747 0.599634 0
M  V30 1091 C 104.397 -2.33235 -0.111306 0
M  V30 1092 C 105.378 -1.46359 -0.866781 0
M  V30 1093 O 106.563 -1.75146 -0.838904 0
M  V30 1094 C 103.693 -3.28932 -1.11451 0
M  V30 1095 C 102.647 -4.25381 -0.472772 0
M  V30 1096 C 101.973 -5.1071 -1.58365 0
M  V30 1097 C 103.273 -5.18831 0.600948 0
M  V30 1098 H 104.967 -2.92927 0.61919 0
M  V30 1099 H 102.513 -1.40857 0.299215 0
M  V30 1100 H 104.466 -3.89002 -1.62036 0
M  V30 1101 H 103.19 -2.67381 -1.8755 0
M  V30 1102 H 101.849 -3.66598 0.0121472 0
M  V30 1103 H 101.497 -4.45533 -2.33473 0
M  V30 1104 H 101.197 -5.7604 -1.15982 0
M  V30 1105 H 102.721 -5.73647 -2.09194 0
M  V30 1106 H 104.135 -5.73019 0.179491 0
M  V30 1107 H 102.532 -5.92595 0.946076 0
M  V30 1108 H 103.602 -4.6174 1.48068 0
M  V30 1109 N 104.945 -0.338344 -1.53925 0
M  V30 1110 C 106.194 0.260732 -2.00008 0
M  V30 1111 C 106.507 1.52073 -1.23017 0
M  V30 1112 O 107.713 2.19672 -1.5955 0
M  V30 1113 C 106.169 0.51515 -3.56194 0
M  V30 1114 C 105.777 -0.728645 -4.42035 0
M  V30 1115 C 107.521 1.07337 -4.10706 0
M  V30 1116 C 105.428 -0.445315 -5.89721 0
M  V30 1117 H 104.358 0.101205 -0.747177 0
M  V30 1118 H 107.009 -0.452866 -1.77824 0
M  V30 1119 H 105.391 1.28932 -3.74423 0
M  V30 1120 H 106.565 -1.50352 -4.35581 0
M  V30 1121 H 104.88 -1.20813 -3.98489 0
M  V30 1122 H 107.477 1.30022 -5.18651 0
M  V30 1123 H 107.82 2.0273 -3.63602 0
M  V30 1124 H 108.353 0.360034 -3.96167 0
M  V30 1125 H 105.092 -1.36883 -6.41049 0
M  V30 1126 H 104.612 0.291569 -5.99091 0
M  V30 1127 H 106.291 -0.0606218 -6.46972 0
M  V30 1128 N 106.423 1.57458 -0.0668435 0
M  V30 1129 C 107.834 1.80776 0.466558 0
M  V30 1130 C 108.185 0.980361 1.69951 0
M  V30 1131 O 107.31 0.201441 2.1546 0
M  V30 1132 C 107.905 3.27881 0.85321 0
M  V30 1133 C 106.464 3.52062 1.3315 0
M  V30 1134 C 105.611 2.75513 0.314264 0
M  V30 1135 H 108.562 1.5598 -0.292588 0
M  V30 1136 H 108.583 3.39659 1.715 0
M  V30 1137 H 108.095 3.88075 -0.0443439 0
M  V30 1138 H 106.196 2.97167 2.24772 0
M  V30 1139 H 106.309 4.60762 1.31285 0
M  V30 1140 H 104.673 2.42123 0.790492 0
M  V30 1141 H 105.456 3.38442 -0.575477 0
M  V30 1142 N 107.901 -0.206675 1.56239 0
M  V30 1143 C 108.864 -1.23976 1.92776 0
M  V30 1144 C 109.864 -1.39041 0.807729 0
M  V30 1145 O 111.054 -1.37051 1.0753 0
M  V30 1146 C 108.186 -2.61112 2.19165 0
M  V30 1147 H 109.379 -0.927764 2.85189 0
M  V30 1148 H 106.932 -0.447718 1.4975 0
M  V30 1149 H 107.667 -2.97386 1.29352 0
M  V30 1150 H 107.452 -2.51552 3.00772 0
M  V30 1151 H 108.942 -3.35633 2.48476 0
M  V30 1152 N 109.379 -1.50304 -0.473955 0
M  V30 1153 C 110.309 -1.71886 -1.58042 0
M  V30 1154 C 111.29 -0.567799 -1.60344 0
M  V30 1155 O 112.475 -0.806623 -1.76656 0
M  V30 1156 C 109.605 -1.81036 -2.96384 0
M  V30 1157 C 108.559 -2.962 -3.08949 0
M  V30 1158 C 107.885 -2.9049 -4.48909 0
M  V30 1159 C 109.185 -4.36752 -2.86434 0
M  V30 1160 H 110.879 -2.64527 -1.40234 0
M  V30 1161 H 108.425 -1.27295 -0.673201 0
M  V30 1162 H 110.378 -1.94719 -3.73714 0
M  V30 1163 H 109.102 -0.850147 -3.15341 0
M  V30 1164 H 107.761 -2.82164 -2.3405 0
M  V30 1165 H 107.409 -1.92321 -4.64781 0
M  V30 1166 H 107.109 -3.67802 -4.58253 0
M  V30 1167 H 108.633 -3.06218 -5.28264 0
M  V30 1168 H 110.047 -4.5133 -3.53517 0
M  V30 1169 H 108.444 -5.15493 -3.07225 0
M  V30 1170 H 109.514 -4.49321 -1.82316 0
M  V30 1171 N 110.857 0.726932 -1.39834 0
M  V30 1172 C 111.787 1.85405 -1.41941 0
M  V30 1173 C 112.768 1.67751 -0.281728 0
M  V30 1174 O 113.953 1.8795 -0.488717 0
M  V30 1175 C 111.083 3.23243 -1.2701 0
M  V30 1176 C 110.037 3.55549 -2.38262 0
M  V30 1177 C 109.363 4.9241 -2.08415 0
M  V30 1178 C 110.663 3.577 -3.80589 0
M  V30 1179 H 112.357 1.83899 -2.36266 0
M  V30 1180 H 109.903 0.883349 -1.13723 0
M  V30 1181 H 111.856 4.01775 -1.27103 0
M  V30 1182 H 110.58 3.25296 -0.291564 0
M  V30 1183 H 109.239 2.79351 -2.37399 0
M  V30 1184 H 108.887 4.91052 -1.0898 0
M  V30 1185 H 108.587 5.14992 -2.82943 0
M  V30 1186 H 110.111 5.73289 -2.10171 0
M  V30 1187 H 111.525 4.26293 -3.83337 0
M  V30 1188 H 109.922 3.91804 -4.54543 0
M  V30 1189 H 110.992 2.57328 -4.10987 0
M  V30 1190 N 112.336 1.25143 0.95797 0
M  V30 1191 C 113.299 1.05321 2.03569 0
M  V30 1192 C 114.299 0.007152 1.60798 0
M  V30 1193 O 115.489 0.24903 1.72411 0
M  V30 1194 C 112.621 0.598394 3.35607 0
M  V30 1195 H 113.814 2.00986 2.22586 0
M  V30 1196 H 111.367 1.07502 1.13459 0
M  V30 1197 H 112.102 -0.361014 3.22284 0
M  V30 1198 H 111.887 1.35351 3.67998 0
M  V30 1199 H 113.377 0.48104 4.1482 0
M  V30 1200 N 113.814 -1.1601 1.06675 0
M  V30 1201 C 114.777 -2.18724 0.685001 0
M  V30 1202 C 115.777 -1.58496 -0.271246 0
M  V30 1203 O 116.967 -1.74119 -0.0531156 0
M  V30 1204 C 114.099 -3.40899 0.00853648 0
M  V30 1205 H 115.292 -2.54011 1.59431 0
M  V30 1206 H 112.845 -1.30352 0.862441 0
M  V30 1207 H 113.58 -3.11173 -0.913337 0
M  V30 1208 H 113.365 -3.8587 0.696204 0
M  V30 1209 H 114.855 -4.16886 -0.24414 0
M  V30 1210 N 115.292 -0.849877 -1.32721 0
M  V30 1211 C 116.202 -0.293791 -2.32753 0
M  V30 1212 C 117.218 0.585906 -1.63839 0
M  V30 1213 O 118.394 0.487413 -1.95413 0
M  V30 1214 C 115.459 0.512752 -3.42887 0
M  V30 1215 C 114.52 -0.39252 -4.27502 0
M  V30 1216 C 113.753 0.375625 -5.32377 0
M  V30 1217 O 113.976 1.60613 -5.4732 0
M  V30 1218 O 112.91 -0.256094 -6.01355 0
M  V30 1219 H 116.736 -1.12242 -2.82197 0
M  V30 1220 H 114.321 -0.612685 -1.36259 0
M  V30 1221 H 116.203 0.970704 -4.10067 0
M  V30 1222 H 114.878 1.31826 -2.95641 0
M  V30 1223 H 113.785 -0.898547 -3.63149 0
M  V30 1224 H 115.118 -1.16309 -4.7826 0
M  V30 1225 N 116.77 1.45427 -0.607355 0
M  V30 1226 C 118.047 1.9557 -0.0344566 0
M  V30 1227 C 118.427 1.54979 1.43334 0
M  V30 1228 O 117.775 0.812241 2.13576 0
M  V30 1229 C 117.985 3.48226 -0.232321 0
M  V30 1230 C 119.333 4.2445 -0.113001 0
M  V30 1231 O 120.357 3.55829 -0.162431 0
M  V30 1232 O 119.216 5.465 0.00209442 0
M  V30 1233 H 116.31 0.826222 0.0358667 0
M  V30 1234 H 118.856 1.55594 -0.6774 0
M  V30 1235 H 117.628 3.70739 -1.25174 0
M  V30 1236 H 117.251 3.95092 0.445896 0
M  V30 1237 N 118.248 0.346503 1.53744 0
M  V30 1238 C 119.497 -0.250122 2.00143 0
M  V30 1239 C 119.81 -1.51418 1.23822 0
M  V30 1240 O 121.016 -2.18823 1.60713 0
M  V30 1241 C 119.472 -0.496252 3.56462 0
M  V30 1242 C 119.08 0.752077 4.41642 0
M  V30 1243 C 120.824 -1.05157 4.11269 0
M  V30 1244 C 118.731 0.476583 5.89477 0
M  V30 1245 H 117.661 -0.0972409 0.747703 0
M  V30 1246 H 120.312 0.46229 1.77581 0
M  V30 1247 H 118.694 -1.26944 3.75102 0
M  V30 1248 H 119.868 1.5266 4.34778 0
M  V30 1249 H 118.183 1.22925 3.97842 0
M  V30 1250 H 120.78 -1.27269 5.19333 0
M  V30 1251 H 121.123 -2.00799 3.64672 0
M  V30 1252 H 121.656 -0.339019 3.96353 0
M  V30 1253 H 118.395 1.4028 6.40314 0
M  V30 1254 H 117.915 -0.259794 5.99237 0
M  V30 1255 H 119.594 0.0949315 6.4693 0
M  V30 1256 N 119.726 -1.57421 0.075193 0
M  V30 1257 C 120.954 -1.97946 -0.602076 0
M  V30 1258 C 121.369 -0.953674 -1.62943 0
M  V30 1259 O 120.726 0.0592551 -1.82404 0
M  V30 1260 C 120.777 -3.38546 -1.26762 0
M  V30 1261 O 120.498 -4.37195 -0.281376 0
M  V30 1262 C 121.999 -3.93966 -2.03239 0
M  V30 1263 H 119.219 -0.650918 -0.162931 0
M  V30 1264 H 121.763 -2.03959 0.148601 0
M  V30 1265 H 119.918 -3.33609 -1.96936 0
M  V30 1266 H 120.332 -5.18975 -0.759267 0
M  V30 1267 H 121.806 -4.94555 -2.45193 0
M  V30 1268 H 122.283 -3.30693 -2.8903 0
M  V30 1269 H 122.889 -4.02315 -1.37924 0
M  V30 1270 N 121.204 0.198386 -1.56346 0
M  V30 1271 C 122.167 1.22952 -1.93431 0
M  V30 1272 C 123.167 1.38611 -0.815092 0
M  V30 1273 O 124.357 1.36479 -1.08255 0
M  V30 1274 C 121.489 2.59946 -2.20546 0
M  V30 1275 H 122.682 0.912626 -2.85677 0
M  V30 1276 H 120.235 0.43977 -1.49986 0
M  V30 1277 H 120.97 2.96696 -1.30927 0
M  V30 1278 H 120.755 2.49953 -3.02102 0
M  V30 1279 H 122.245 3.3431 -2.50253 0
M  V30 1280 N 122.682 1.50554 0.465978 0
M  V30 1281 C 123.645 1.69233 1.54574 0
M  V30 1282 C 124.645 0.562901 1.50626 0
M  V30 1283 O 125.835 0.830016 1.53155 0
M  V30 1284 C 122.967 1.7223 2.94193 0
M  V30 1285 H 124.16 2.65571 1.39327 0
M  V30 1286 H 121.713 1.40111 0.692711 0
M  V30 1287 H 122.448 0.77603 3.14878 0
M  V30 1288 H 122.233 2.54285 2.98466 0
M  V30 1289 H 123.723 1.88618 3.72576 0
M  V30 1290 N 124.16 -0.719506 1.40217 0
M  V30 1291 C 125.107 -1.83359 1.40172 0
M  V30 1292 C 126.077 -1.64065 0.259206 0
M  V30 1293 O 127.262 -1.85254 0.456677 0
M  V30 1294 C 124.402 -3.2103 1.26624 0
M  V30 1295 C 123.515 -3.51923 2.50548 0
M  V30 1296 C 122.65 -4.79079 2.29471 0
M  V30 1297 C 121.689 -5.02863 3.48992 0
M  V30 1298 N 120.826 -6.2123 3.27135 0
M  V30 1299 H 125.666 -1.82733 2.35399 0
M  V30 1300 H 123.203 -0.892688 1.16917 0
M  V30 1301 H 125.161 -4.00524 1.16776 0
M  V30 1302 H 123.791 -3.20895 0.350176 0
M  V30 1303 H 122.843 -2.67014 2.70939 0
M  V30 1304 H 124.155 -3.6541 3.39525 0
M  V30 1305 H 123.309 -5.66582 2.16955 0
M  V30 1306 H 122.048 -4.67794 1.37913 0
M  V30 1307 H 121.053 -4.13816 3.6199 0
M  V30 1308 H 122.278 -5.16023 4.41472 0
M  V30 1309 H 120.224 -6.11204 2.38256 0
M  V30 1310 H 120.141 -6.35375 4.09675 0
M  V30 1311 H 121.409 -7.11532 3.18344 0
M  V30 1312 N 125.638 -1.25649 -0.95132 0
M  V30 1313 C 126.884 -1.10757 -1.69884 0
M  V30 1314 C 127.217 0.350061 -1.91019 0
M  V30 1315 O 126.492 1.25783 -1.48354 0
M  V30 1316 C 126.775 -1.86606 -3.07978 0
M  V30 1317 C 126.628 -3.40217 -2.94232 0
M  V30 1318 C 127.947 -1.65182 -4.07925 0
M  V30 1319 H 125.066 -0.40374 -0.616574 0
M  V30 1320 H 127.708 -1.54521 -1.10558 0
M  V30 1321 H 125.858 -1.49409 -3.58621 0
M  V30 1322 H 127.53 -3.87108 -2.50889 0
M  V30 1323 H 125.773 -3.67759 -2.30078 0
M  V30 1324 H 126.444 -3.88505 -3.92133 0
M  V30 1325 H 128.92 -1.9757 -3.66204 0
M  V30 1326 H 127.796 -2.20683 -5.02583 0
M  V30 1327 H 128.057 -0.593933 -4.38092 0
M  V30 1328 N 127.117 1.15442 -1.07289 0
M  V30 1329 C 128.345 1.90096 -0.81676 0
M  V30 1330 C 128.76 1.7798 0.629966 0
M  V30 1331 O 128.117 1.1313 1.43206 0
M  V30 1332 C 128.168 3.40466 -1.21512 0
M  V30 1333 O 127.889 3.52232 -2.60508 0
M  V30 1334 C 129.39 4.32145 -0.988198 0
M  V30 1335 H 126.61 0.602495 -0.295366 0
M  V30 1336 H 129.154 1.4627 -1.42918 0
M  V30 1337 H 127.309 3.81958 -0.647039 0
M  V30 1338 H 127.723 4.45549 -2.76742 0
M  V30 1339 H 129.197 5.36072 -1.31645 0
M  V30 1340 H 129.674 4.39135 0.0755063 0
M  V30 1341 H 130.28 3.96395 -1.54115 0
M  V30 1342 N 128.595 0.856903 1.32268 0
M  V30 1343 C 130.006 0.515711 1.79436 0
M  V30 1344 C 130.357 -0.966586 1.70738 0
M  V30 1345 O 129.482 -1.75409 1.26731 0
M  V30 1346 C 130.077 0.929335 3.25805 0
M  V30 1347 C 128.636 0.640006 3.70919 0
M  V30 1348 C 127.783 1.12784 2.53328 0
M  V30 1349 H 130.734 1.04389 1.19535 0
M  V30 1350 H 130.755 0.246633 3.797 0
M  V30 1351 H 130.267 2.00821 3.32103 0
M  V30 1352 H 128.368 -0.428051 3.70133 0
M  V30 1353 H 128.481 1.20788 4.63624 0
M  V30 1354 H 126.845 0.548033 2.48734 0
M  V30 1355 H 127.628 2.21387 2.62379 0
M  V30 1356 N 130.073 -1.45103 0.615059 0
M  V30 1357 C 131.003 -2.33339 -0.0865619 0
M  V30 1358 C 131.984 -1.4727 -0.851209 0
M  V30 1359 O 133.169 -1.76026 -0.820281 0
M  V30 1360 C 130.299 -3.30095 -1.07956 0
M  V30 1361 C 129.253 -4.25858 -0.427628 0
M  V30 1362 C 128.579 -5.12361 -1.5294 0
M  V30 1363 C 129.879 -5.18165 0.655944 0
M  V30 1364 H 131.573 -2.92254 0.650224 0
M  V30 1365 H 129.119 -1.40532 0.314138 0
M  V30 1366 H 131.072 -3.90698 -1.57901 0
M  V30 1367 H 129.796 -2.69355 -1.84703 0
M  V30 1368 H 128.455 -3.66564 0.0510292 0
M  V30 1369 H 128.103 -4.47984 -2.28734 0
M  V30 1370 H 127.803 -5.77238 -1.09865 0
M  V30 1371 H 129.327 -5.75833 -2.03098 0
M  V30 1372 H 130.741 -5.72796 0.240257 0
M  V30 1373 H 129.138 -5.91559 1.00888 0
M  V30 1374 H 130.208 -4.60144 1.52957 0
M  V30 1375 N 131.551 -0.354651 -1.53558 0
M  V30 1376 C 132.481 0.489091 -2.2832 0
M  V30 1377 C 133.462 1.09324 -1.30316 0
M  V30 1378 O 134.647 1.11255 -1.59173 0
M  V30 1379 C 131.777 1.63456 -3.0643 0
M  V30 1380 C 130.731 1.1582 -4.12031 0
M  V30 1381 C 130.057 2.39305 -4.7816 0
M  V30 1382 C 131.357 0.250731 -5.21698 0
M  V30 1383 H 133.051 -0.134614 -2.99097 0
M  V30 1384 H 130.597 -0.0661826 -1.43848 0
M  V30 1385 H 132.55 2.23136 -3.57475 0
M  V30 1386 H 131.274 2.28533 -2.33325 0
M  V30 1387 H 129.933 0.584146 -3.61916 0
M  V30 1388 H 129.581 3.02814 -4.01637 0
M  V30 1389 H 129.281 2.08109 -5.49513 0
M  V30 1390 H 130.805 2.99691 -5.31994 0
M  V30 1391 H 132.219 0.754695 -5.68311 0
M  V30 1392 H 130.616 0.0301468 -6.00092 0
M  V30 1393 H 131.686 -0.710125 -4.79672 0
M  V30 1394 N 133.029 1.57378 -0.0835403 0
M  V30 1395 C 133.992 2.12252 0.864959 0
M  V30 1396 C 134.992 1.04916 1.21858 0
M  V30 1397 O 136.182 1.30853 1.14991 0
M  V30 1398 C 133.314 2.63358 2.16461 0
M  V30 1399 H 134.507 2.97371 0.388676 0
M  V30 1400 H 132.06 1.55423 0.165317 0
M  V30 1401 H 132.795 1.81727 2.686 0
M  V30 1402 H 132.58 3.41826 1.92087 0
M  V30 1403 H 134.07 3.05847 2.84337 0
M  V30 1404 N 134.507 -0.190092 1.56449 0
M  V30 1405 C 135.454 -1.23557 1.94942 0
M  V30 1406 C 136.424 -1.44972 0.810696 0
M  V30 1407 O 137.609 -1.58023 1.06927 0
M  V30 1408 C 134.749 -2.57416 2.2985 0
M  V30 1409 C 133.862 -2.43537 3.5681 0
M  V30 1410 C 132.997 -3.70134 3.81017 0
M  V30 1411 C 132.036 -3.51109 5.01387 0
M  V30 1412 N 131.173 -4.6973 5.21822 0
M  V30 1413 H 136.013 -0.900304 2.84075 0
M  V30 1414 H 133.55 -0.43318 1.40577 0
M  V30 1415 H 135.508 -3.35409 2.48106 0
M  V30 1416 H 134.138 -2.88975 1.43852 0
M  V30 1417 H 133.19 -1.56816 3.46573 0
M  V30 1418 H 134.502 -2.25415 4.4496 0
M  V30 1419 H 133.656 -4.56566 3.9954 0
M  V30 1420 H 132.395 -3.91215 2.91207 0
M  V30 1421 H 131.4 -2.63063 4.82782 0
M  V30 1422 H 132.625 -3.31468 5.9271 0
M  V30 1423 H 130.571 -4.91065 4.34961 0
M  V30 1424 H 130.488 -4.54452 6.0416 0
M  V30 1425 H 131.756 -5.57499 5.44808 0
M  V30 1426 N 135.985 -1.50799 -0.457987 0
M  V30 1427 C 137.232 -1.62442 -1.20908 0
M  V30 1428 C 137.56 -0.330865 -1.91665 0
M  V30 1429 O 136.815 0.68401 -1.83357 0
M  V30 1430 C 137.114 -2.76358 -2.2663 0
M  V30 1431 C 136.78 -4.16378 -1.73033 0
M  V30 1432 C 135.442 -4.54473 -1.58138 0
M  V30 1433 C 137.794 -5.03836 -1.33413 0
M  V30 1434 C 135.122 -5.77754 -1.02065 0
M  V30 1435 C 137.474 -6.27676 -0.78778 0
M  V30 1436 C 136.138 -6.64562 -0.625561 0
M  V30 1437 H 135.408 -0.594417 -0.442435 0
M  V30 1438 H 138.055 -1.84772 -0.503136 0
M  V30 1439 H 136.36 -2.48167 -3.03184 0
M  V30 1440 H 138.057 -2.82568 -2.84528 0
M  V30 1441 H 134.647 -3.86331 -1.85598 0
M  V30 1442 H 138.831 -4.75026 -1.4375 0
M  V30 1443 H 134.087 -6.04997 -0.882547 0
M  V30 1444 H 138.261 -6.94797 -0.472177 0
M  V30 1445 H 135.888 -7.59965 -0.188926 0
M  V30 1446 N 137.463 0.71206 -1.40597 0
M  V30 1447 C 138.41 1.82613 -1.41142 0
M  V30 1448 C 139.38 1.63925 -0.267903 0
M  V30 1449 O 140.565 1.85009 -0.466495 0
M  V30 1450 C 137.705 3.20354 -1.28324 0
M  V30 1451 C 136.818 3.50589 -2.52411 0
M  V30 1452 C 135.953 4.77855 -2.32009 0
M  V30 1453 C 134.992 5.01005 -3.51654 0
M  V30 1454 N 134.129 6.19487 -3.30425 0
M  V30 1455 H 138.969 1.81482 -2.36365 0
M  V30 1456 H 136.506 0.886475 -1.17388 0
M  V30 1457 H 138.464 3.99899 -1.18899 0
M  V30 1458 H 137.094 3.20705 -0.367189 0
M  V30 1459 H 136.146 2.65573 -2.72351 0
M  V30 1460 H 137.458 3.63604 -3.41458 0
M  V30 1461 H 136.612 5.65424 -2.19956 0
M  V30 1462 H 135.351 4.67056 -1.40392 0
M  V30 1463 H 134.356 4.1189 -3.64179 0
M  V30 1464 H 135.581 5.13674 -4.44202 0
M  V30 1465 H 133.527 6.09932 -2.41494 0
M  V30 1466 H 133.444 6.33194 -4.13039 0
M  V30 1467 H 134.712 7.09834 -3.22113 0
M  V30 1468 N 138.941 1.26152 0.944643 0
M  V30 1469 C 140.189 1.11271 1.6871 0
M  V30 1470 C 140.51 -0.345166 1.91921 0
M  V30 1471 O 139.78 -1.24387 1.51343 0
M  V30 1472 H 138.36 0.408783 0.625224 0
M  V30 1473 H 141.022 1.58427 1.1352 0
M  V30 1474 H 140.118 1.62879 2.66227 0
M  V30 1475 N 140.419 -1.14872 1.07899 0
M  V30 1476 C 141.369 -2.17809 0.674027 0
M  V30 1477 C 142.353 -1.58008 -0.303699 0
M  V30 1478 O 143.545 -1.76616 -0.11654 0
M  V30 1479 C 140.674 -3.43208 0.0793318 0
M  V30 1480 C 139.76 -4.10051 1.08253 0
M  V30 1481 N 140.151 -4.52296 2.2641 0
M  V30 1482 C 138.449 -4.36469 0.917124 0
M  V30 1483 C 139.15 -5.04199 2.901 0
M  V30 1484 N 138.126 -4.98088 2.17736 0
M  V30 1485 H 141.928 -2.48207 1.57386 0
M  V30 1486 H 139.442 -1.315 0.952976 0
M  V30 1487 H 141.439 -4.16272 -0.228719 0
M  V30 1488 H 140.099 -3.14291 -0.815551 0
M  V30 1489 H 141.11 -4.45504 2.64096 0
M  V30 1490 H 137.787 -4.17432 0.0756078 0
M  V30 1491 H 139.177 -5.46802 3.90458 0
M  V30 1492 N 141.898 -0.863906 -1.31812 0
M  V30 1493 C 143.314 -0.555004 -1.49639 0
M  V30 1494 C 143.514 0.912266 -1.79666 0
M  V30 1495 O 142.57 1.69479 -1.87171 0
M  V30 1496 C 143.883 -1.44998 -2.63431 0
M  V30 1497 C 145.431 -1.45138 -2.77316 0
M  V30 1498 C 145.906 -2.33179 -3.94197 0
M  V30 1499 N 147.397 -2.31025 -4.01474 0
M  V30 1500 C 148.132 -2.95871 -4.9117 0
M  V30 1501 N 147.628 -3.69863 -5.8581 0
M  V30 1502 N 149.421 -2.85211 -4.84367 0
M  V30 1503 H 141.572 -1.81339 -1.10589 0
M  V30 1504 H 143.835 -0.77505 -0.545895 0
M  V30 1505 H 143.541 -2.49377 -2.48 0
M  V30 1506 H 143.415 -1.14409 -3.59431 0
M  V30 1507 H 145.802 -0.415201 -2.92164 0
M  V30 1508 H 145.883 -1.79747 -1.82001 0
M  V30 1509 H 145.527 -3.3687 -3.80107 0
M  V30 1510 H 145.457 -1.95897 -4.88807 0
M  V30 1511 H 147.948 -1.77238 -3.33759 0
M  V30 1512 H 148.261 -4.16486 -6.50968 0
M  V30 1513 H 146.606 -3.73971 -5.85808 0
M  V30 1514 H 149.797 -2.26948 -4.09405 0
M  V30 1515 H 149.97 -3.36027 -5.54066 0
M  V30 1516 N 143.376 1.44774 -0.622745 0
M  V30 1517 C 144.309 2.27792 0.136329 0
M  V30 1518 C 145.287 1.38041 0.859264 0
M  V30 1519 O 146.471 1.67478 0.86506 0
M  V30 1520 C 143.598 3.16776 1.19878 0
M  V30 1521 C 142.644 4.22575 0.57731 0
M  V30 1522 S 143.477 5.31825 -0.626294 0
M  V30 1523 C 144.633 6.24377 0.436378 0
M  V30 1524 H 144.866 2.91824 -0.567967 0
M  V30 1525 H 142.399 1.48838 -0.410677 0
M  V30 1526 H 144.357 3.68596 1.80686 0
M  V30 1527 H 143.018 2.5198 1.87523 0
M  V30 1528 H 142.211 4.84818 1.37721 0
M  V30 1529 H 141.813 3.73974 0.0440439 0
M  V30 1530 H 144.105 6.64689 1.31128 0
M  V30 1531 H 145.048 7.07941 -0.150271 0
M  V30 1532 H 145.456 5.59381 0.758513 0
M  V30 1533 N 144.854 0.36279 1.53368 0
M  V30 1534 C 145.817 -0.472679 2.24273 0
M  V30 1535 C 146.817 -1.012 1.24961 0
M  V30 1536 O 148.007 -0.898194 1.49259 0
M  V30 1537 C 145.139 -1.66039 2.97731 0
M  V30 1538 H 146.332 0.14773 2.99536 0
M  V30 1539 H 143.885 0.114434 1.55881 0
M  V30 1540 H 144.62 -2.31896 2.26704 0
M  V30 1541 H 144.405 -1.28066 3.70596 0
M  V30 1542 H 145.895 -2.25252 3.51641 0
M  V30 1543 N 146.332 -1.57332 0.0918853 0
M  V30 1544 C 147.279 -2.13847 -0.868211 0
M  V30 1545 C 148.249 -1.05618 -1.28196 0
M  V30 1546 O 149.434 -1.33387 -1.36427 0
M  V30 1547 C 146.574 -2.72062 -2.12312 0
M  V30 1548 C 145.687 -3.94514 -1.7602 0
M  V30 1549 C 144.822 -4.40903 -2.96273 0
M  V30 1550 C 143.861 -5.55953 -2.56092 0
M  V30 1551 N 142.998 -5.97209 -3.69169 0
M  V30 1552 H 147.838 -2.95575 -0.379406 0
M  V30 1553 H 145.375 -1.46048 -0.175606 0
M  V30 1554 H 147.333 -3.03931 -2.858 0
M  V30 1555 H 145.963 -1.93068 -2.58698 0
M  V30 1556 H 145.015 -3.68979 -0.925135 0
M  V30 1557 H 146.327 -4.7802 -1.42472 0
M  V30 1558 H 145.481 -4.74539 -3.78018 0
M  V30 1559 H 144.22 -3.56291 -3.33029 0
M  V30 1560 H 143.225 -5.21948 -1.72773 0
M  V30 1561 H 144.45 -6.42311 -2.20484 0
M  V30 1562 H 142.396 -5.15543 -4.05649 0
M  V30 1563 H 142.313 -6.75504 -3.39456 0
M  V30 1564 H 143.581 -6.35475 -4.51434 0
M  V30 1565 N 147.81 0.181792 -1.56548 0
M  V30 1566 C 149.058 0.89832 -1.81038 0
M  V30 1567 C 149.379 1.83232 -0.667164 0
M  V30 1568 O 148.649 1.93372 0.313673 0
M  V30 1569 H 147.229 0.33471 -0.667816 0
M  V30 1570 H 149.891 0.184116 -1.94028 0
M  V30 1571 H 148.987 1.4815 -2.74696 0
M  V30 1572 N 149.288 1.51039 0.449983 0
M  V30 1573 C 150.251 1.70863 1.5277 0
M  V30 1574 C 151.251 0.578846 1.5002 0
M  V30 1575 O 152.441 0.846213 1.52266 0
M  V30 1576 C 149.573 1.75341 2.9235 0
M  V30 1577 H 150.766 2.67034 1.36502 0
M  V30 1578 H 148.319 1.40838 0.677812 0
M  V30 1579 H 149.054 0.809383 3.14037 0
M  V30 1580 H 148.839 2.57436 2.95752 0
M  V30 1581 H 150.329 1.92559 3.70555 0
M  V30 1582 N 150.766 -0.704594 1.40972 0
M  V30 1583 C 151.696 -1.83124 1.44872 0
M  V30 1584 C 152.677 -1.67281 0.30838 0
M  V30 1585 O 153.862 -1.87149 0.518556 0
M  V30 1586 C 150.992 -3.21181 1.32136 0
M  V30 1587 C 149.946 -3.51714 2.43888 0
M  V30 1588 C 149.272 -4.89032 2.16222 0
M  V30 1589 C 150.572 -3.516 3.86232 0
M  V30 1590 H 152.266 -1.80117 2.39161 0
M  V30 1591 H 149.812 -0.865145 1.15114 0
M  V30 1592 H 151.765 -3.99702 1.33479 0
M  V30 1593 H 150.489 -3.24791 0.343279 0
M  V30 1594 H 149.148 -2.75539 2.41813 0
M  V30 1595 H 148.796 -4.89256 1.16778 0
M  V30 1596 H 148.496 -5.10426 2.911 0
M  V30 1597 H 150.02 -5.69873 2.19265 0
M  V30 1598 H 151.434 -4.2014 3.9007 0
M  V30 1599 H 149.831 -3.84523 4.60719 0
M  V30 1600 H 150.901 -2.50757 4.15029 0
M  V30 1601 N 152.244 -1.26651 -0.937939 0
M  V30 1602 C 153.154 -1.10276 -2.07066 0
M  V30 1603 C 154.17 -0.0354197 -1.73964 0
M  V30 1604 O 155.346 -0.239816 -1.99967 0
M  V30 1605 C 152.411 -0.740887 -3.38691 0
M  V30 1606 C 151.472 -1.88799 -3.85556 0
M  V30 1607 C 150.705 -1.54329 -5.10899 0
M  V30 1608 O 150.928 -0.446494 -5.6865 0
M  V30 1609 O 149.862 -2.37911 -5.52885 0
M  V30 1610 H 153.688 -2.05309 -2.23789 0
M  V30 1611 H 151.273 -1.05743 -1.0554 0
M  V30 1612 H 153.155 -0.55195 -4.1777 0
M  V30 1613 H 151.83 0.180022 -3.23199 0
M  V30 1614 H 150.737 -2.13191 -3.07409 0
M  V30 1615 H 152.07 -2.78874 -4.05574 0
M  V30 1616 N 153.722 1.14298 -1.08507 0
M  V30 1617 C 154.655 2.18447 -0.660004 0
M  V30 1618 C 155.633 1.59242 0.328749 0
M  V30 1619 O 156.817 1.87062 0.232367 0
M  V30 1620 C 153.944 3.38688 0.0290807 0
M  V30 1621 C 152.99 4.1646 -0.919982 0
M  V30 1622 S 153.823 4.77334 -2.42718 0
M  V30 1623 C 154.979 6.00931 -1.75024 0
M  V30 1624 H 155.212 2.54166 -1.54231 0
M  V30 1625 H 152.745 1.25446 -0.900149 0
M  V30 1626 H 154.703 4.08342 0.420378 0
M  V30 1627 H 153.364 3.01289 0.887895 0
M  V30 1628 H 152.557 5.02529 -0.384751 0
M  V30 1629 H 152.159 3.52414 -1.25223 0
M  V30 1630 H 154.451 6.69017 -1.06877 0
M  V30 1631 H 155.394 6.59044 -2.58971 0
M  V30 1632 H 155.802 5.51089 -1.22317 0
M  V30 1633 N 155.201 0.870884 1.31352 0
M  V30 1634 C 156.164 0.332243 2.26779 0
M  V30 1635 C 157.164 -0.517302 1.52252 0
M  V30 1636 O 158.354 -0.326477 1.71113 0
M  V30 1637 C 155.486 -0.528066 3.36785 0
M  V30 1638 H 156.679 1.17469 2.75937 0
M  V30 1639 H 154.232 0.64655 1.423 0
M  V30 1640 H 154.967 -1.39167 2.92922 0
M  V30 1641 H 154.752 0.0802582 3.92018 0
M  V30 1642 H 156.242 -0.897179 4.07849 0
M  V30 1643 N 156.679 -1.44442 0.630414 0
M  V30 1644 C 157.925 -2.02351 0.134816 0
M  V30 1645 C 158.258 -1.4947 -1.23986 0
M  V30 1646 O 157.533 -0.678475 -1.82283 0
M  V30 1647 C 157.816 -3.59898 0.120707 0
M  V30 1648 C 157.669 -4.23063 1.52767 0
M  V30 1649 C 158.988 -4.36585 -0.555127 0
M  V30 1650 H 156.107 -0.73527 0.0504646 0
M  V30 1651 H 158.749 -1.72022 0.806751 0
M  V30 1652 H 156.899 -3.85868 -0.451477 0
M  V30 1653 H 158.571 -4.08202 2.14869 0
M  V30 1654 H 156.814 -3.80586 2.08175 0
M  V30 1655 H 157.485 -5.32071 1.46984 0
M  V30 1656 H 159.961 -4.16044 -0.0685429 0
M  V30 1657 H 158.837 -5.46294 -0.534185 0
M  V30 1658 H 159.098 -4.11138 -1.62535 0
M  V30 1659 N 158.157 -0.370918 -1.53173 0
M  V30 1660 C 159.087 0.464847 -2.28826 0
M  V30 1661 C 160.068 1.07936 -1.31468 0
M  V30 1662 O 161.253 1.0956 -1.60344 0
M  V30 1663 C 158.383 1.60196 -3.08147 0
M  V30 1664 C 157.337 1.11443 -4.13237 0
M  V30 1665 C 156.663 2.3422 -4.80672 0
M  V30 1666 C 157.963 0.195384 -5.21934 0
M  V30 1667 H 159.657 -0.166329 -2.98938 0
M  V30 1668 H 157.203 -0.0814359 -1.4377 0
M  V30 1669 H 159.156 2.19332 -3.59822 0
M  V30 1670 H 157.88 2.26045 -2.35735 0
M  V30 1671 H 156.539 0.545727 -3.62515 0
M  V30 1672 H 156.187 2.98537 -4.04827 0
M  V30 1673 H 155.887 2.02269 -5.51689 0
M  V30 1674 H 157.411 2.94032 -5.35143 0
M  V30 1675 H 158.825 0.694375 -5.69079 0
M  V30 1676 H 157.222 -0.0335027 -6.00091 0
M  V30 1677 H 158.292 -0.760961 -4.78892 0
M  V30 1678 N 159.635 1.57281 -0.100228 0
M  V30 1679 C 160.912 1.86014 0.604812 0
M  V30 1680 C 161.292 0.998025 1.86018 0
M  V30 1681 O 160.64 0.0718184 2.28387 0
M  V30 1682 C 160.85 3.36784 0.915278 0
M  V30 1683 C 162.198 4.04957 1.27651 0
M  V30 1684 O 163.222 3.41695 1.00613 0
M  V30 1685 O 162.081 5.16593 1.7831 0
M  V30 1686 H 159.175 0.76942 0.303185 0
M  V30 1687 H 161.721 1.69176 -0.133313 0
M  V30 1688 H 160.493 3.91292 0.0248896 0
M  V30 1689 H 160.116 3.58987 1.70921 0
M  V30 1690 N 161.113 -0.173488 1.56642 0
M  V30 1691 C 162.076 -1.19859 1.95362 0
M  V30 1692 C 163.076 -1.37296 0.83704 0
M  V30 1693 O 164.266 -1.34739 1.10413 0
M  V30 1694 C 161.398 -2.56405 2.24654 0
M  V30 1695 H 162.591 -0.867062 2.87092 0
M  V30 1696 H 160.144 -0.415853 1.50666 0
M  V30 1697 H 160.879 -2.94576 1.35631 0
M  V30 1698 H 160.664 -2.45115 3.06041 0
M  V30 1699 H 162.154 -3.30287 2.5554 0
M  V30 1700 N 162.591 -1.51276 -0.441967 0
M  V30 1701 C 163.501 -1.75092 -1.56141 0
M  V30 1702 C 164.517 -0.634963 -1.62001 0
M  V30 1703 O 165.693 -0.916686 -1.79329 0
M  V30 1704 C 162.758 -1.86666 -2.92158 0
M  V30 1705 C 161.819 -3.10506 -2.96453 0
M  V30 1706 C 161.052 -3.21519 -4.25982 0
M  V30 1707 O 161.275 -2.38586 -5.18105 0
M  V30 1708 O 160.209 -4.14465 -4.36466 0
M  V30 1709 H 164.035 -2.70044 -1.38961 0
M  V30 1710 H 161.62 -1.35722 -0.624499 0
M  V30 1711 H 163.502 -1.96292 -3.72891 0
M  V30 1712 H 162.177 -0.949014 -3.09476 0
M  V30 1713 H 161.084 -3.06363 -2.14692 0
M  V30 1714 H 162.417 -4.01945 -2.84079 0
M  V30 1715 N 164.069 0.697108 -1.41344 0
M  V30 1716 C 164.999 1.82353 -1.45841 0
M  V30 1717 C 165.98 1.67115 -0.317247 0
M  V30 1718 O 167.165 1.86871 -0.528474 0
M  V30 1719 C 164.295 3.20476 -1.33838 0
M  V30 1720 C 163.249 3.50415 -2.4575 0
M  V30 1721 C 162.575 4.87878 -2.18813 0
M  V30 1722 C 163.875 3.49546 -3.88091 0
M  V30 1723 H 165.569 1.78846 -2.40113 0
M  V30 1724 H 163.115 0.859028 -1.15571 0
M  V30 1725 H 165.068 3.98988 -1.35596 0
M  V30 1726 H 163.792 3.24604 -0.360498 0
M  V30 1727 H 162.451 2.74253 -2.43271 0
M  V30 1728 H 162.099 4.8863 -1.19371 0
M  V30 1729 H 161.799 5.08875 -2.93803 0
M  V30 1730 H 163.323 5.68702 -2.22284 0
M  V30 1731 H 164.737 4.18066 -3.92293 0
M  V30 1732 H 163.134 3.82075 -4.62751 0
M  V30 1733 H 164.204 2.48552 -4.16353 0
M  V30 1734 N 165.547 1.27147 0.931209 0
M  V30 1735 C 166.963 1.04475 1.20653 0
M  V30 1736 C 167.163 -0.223885 2.00252 0
M  V30 1737 O 166.219 -0.930332 2.34736 0
M  V30 1738 C 167.532 2.28209 1.95809 0
M  V30 1739 C 169.08 2.33211 2.08762 0
M  V30 1740 C 169.555 3.56665 2.87323 0
M  V30 1741 N 171.046 3.57201 2.94892 0
M  V30 1742 C 171.781 4.49395 3.56134 0
M  V30 1743 N 171.277 5.51889 4.18796 0
M  V30 1744 N 173.07 4.37026 3.53504 0
M  V30 1745 H 165.221 2.08612 0.399333 0
M  V30 1746 H 167.484 0.917312 0.239253 0
M  V30 1747 H 167.19 3.20538 1.44736 0
M  V30 1748 H 167.064 2.33247 2.96438 0
M  V30 1749 H 169.451 1.41391 2.59023 0
M  V30 1750 H 169.532 2.32178 1.07364 0
M  V30 1751 H 169.176 4.4882 2.37746 0
M  V30 1752 H 169.106 3.54948 3.88998 0
M  V30 1753 H 171.597 2.83074 2.50354 0
M  V30 1754 H 171.91 6.18409 4.63454 0
M  V30 1755 H 170.255 5.55735 4.17353 0
M  V30 1756 H 173.446 3.56166 3.03749 0
M  V30 1757 H 173.619 5.09067 4.00942 0
M  V30 1758 N 167.025 -1.13721 1.09112 0
M  V30 1759 C 167.988 -2.17222 0.731241 0
M  V30 1760 C 168.988 -1.59035 -0.237566 0
M  V30 1761 O 170.178 -1.74192 -0.0161704 0
M  V30 1762 C 167.31 -3.40804 0.0808443 0
M  V30 1763 H 168.503 -2.50573 1.64783 0
M  V30 1764 H 166.056 -1.28493 0.889897 0
M  V30 1765 H 166.791 -3.1304 -0.847127 0
M  V30 1766 H 166.576 -3.84306 0.777896 0
M  V30 1767 H 168.066 -4.1731 -0.155657 0
M  V30 1768 N 168.503 -0.877838 -1.30888 0
M  V30 1769 C 169.453 -0.310872 -2.25871 0
M  V30 1770 C 170.437 0.556596 -1.50966 0
M  V30 1771 O 171.629 0.402187 -1.7237 0
M  V30 1772 C 168.758 0.479821 -3.3993 0
M  V30 1773 C 167.844 -0.401333 -4.22197 0
M  V30 1774 N 168.235 -1.49848 -4.83093 0
M  V30 1775 C 166.533 -0.195167 -4.45573 0
M  V30 1776 C 167.234 -2.0425 -5.44662 0
M  V30 1777 N 166.21 -1.33843 -5.26865 0
M  V30 1778 H 170.012 -1.1493 -2.70496 0
M  V30 1779 H 167.526 -0.726458 -1.45246 0
M  V30 1780 H 169.523 0.902582 -4.07012 0
M  V30 1781 H 168.183 1.31577 -2.96846 0
M  V30 1782 H 169.194 -1.88137 -4.82519 0
M  V30 1783 H 165.871 0.604192 -4.13105 0
M  V30 1784 H 167.261 -2.96345 -6.03017 0
M  V30 1785 N 169.982 1.44106 -0.638065 0
M  V30 1786 C 170.892 2.34513 0.0637334 0
M  V30 1787 C 171.908 1.53018 0.828346 0
M  V30 1788 O 173.084 1.85723 0.779036 0
M  V30 1789 C 170.149 3.31095 1.02844 0
M  V30 1790 C 169.21 4.28497 0.26244 0
M  V30 1791 C 168.443 5.20465 1.1812 0
M  V30 1792 O 168.666 5.16514 2.42011 0
M  V30 1793 O 167.6 5.98251 0.661774 0
M  V30 1794 H 171.426 2.95989 -0.68003 0
M  V30 1795 H 169.011 1.43994 -0.398252 0
M  V30 1796 H 170.893 3.90526 1.58327 0
M  V30 1797 H 169.568 2.72144 1.7527 0
M  V30 1798 H 168.475 3.72592 -0.335602 0
M  V30 1799 H 169.808 4.90388 -0.421936 0
M  V30 1800 N 171.46 0.379036 1.52974 0
M  V30 1801 C 172.876 0.0285448 1.59574 0
M  V30 1802 C 173.076 -1.45542 1.39355 0
M  V30 1803 O 172.132 -2.2187 1.20541 0
M  V30 1804 C 173.445 0.496535 2.96572 0
M  V30 1805 C 174.993 0.451909 3.0972 0
M  V30 1806 C 175.468 0.895924 4.49152 0
M  V30 1807 N 176.959 0.851522 4.55306 0
M  V30 1808 C 177.694 1.16661 5.61407 0
M  V30 1809 N 177.19 1.55166 6.752 0
M  V30 1810 N 178.983 1.08853 5.51459 0
M  V30 1811 H 171.134 1.34525 1.64367 0
M  V30 1812 H 173.397 0.550733 0.771619 0
M  V30 1813 H 173.103 1.53258 3.16552 0
M  V30 1814 H 172.977 -0.109802 3.7704 0
M  V30 1815 H 175.364 -0.575029 2.89443 0
M  V30 1816 H 175.445 1.09392 2.3123 0
M  V30 1817 H 175.089 1.92104 4.70168 0
M  V30 1818 H 175.019 0.23103 5.26093 0
M  V30 1819 H 177.51 0.568038 3.73606 0
M  V30 1820 H 177.823 1.776 7.52116 0
M  V30 1821 H 176.168 1.59044 6.76557 0
M  V30 1822 H 179.359 0.786803 4.6144 0
M  V30 1823 H 179.532 1.33742 6.34048 0
M  V30 1824 N 172.938 -1.57226 0.108567 0
M  V30 1825 C 174.163 -1.99604 -0.563303 0
M  V30 1826 C 174.588 -0.987563 -1.6009 0
M  V30 1827 O 173.946 0.0421687 -1.81251 0
M  V30 1828 C 173.994 -3.40902 -1.17552 0
M  V30 1829 O 173.098 -3.42896 -2.2912 0
M  V30 1830 H 172.439 -0.648704 -0.1417 0
M  V30 1831 H 174.969 -2.03679 0.193961 0
M  V30 1832 H 174.979 -3.78886 -1.51357 0
M  V30 1833 H 173.654 -4.1382 -0.415445 0
M  V30 1834 H 172.231 -3.1672 -1.96832 0
M  V30 1835 N 174.416 0.165178 -1.56732 0
M  V30 1836 C 175.663 0.880807 -1.8234 0
M  V30 1837 C 175.991 1.81977 -0.686621 0
M  V30 1838 O 175.246 1.92971 0.325697 0
M  V30 1839 C 175.545 1.70405 -3.1416 0
M  V30 1840 C 175.211 0.913475 -4.4155 0
M  V30 1841 C 173.873 0.695303 -4.7615 0
M  V30 1842 C 176.225 0.359349 -5.1996 0
M  V30 1843 C 173.553 -0.0879947 -5.86634 0
M  V30 1844 C 175.905 -0.410893 -6.31264 0
M  V30 1845 C 174.569 -0.639808 -6.64427 0
M  V30 1846 H 173.839 0.32231 -0.667231 0
M  V30 1847 H 176.486 0.145402 -1.90947 0
M  V30 1848 H 174.791 2.50903 -3.00923 0
M  V30 1849 H 176.488 2.26091 -3.31186 0
M  V30 1850 H 173.078 1.09357 -4.14414 0
M  V30 1851 H 177.262 0.515228 -4.93618 0
M  V30 1852 H 172.518 -0.27503 -6.10781 0
M  V30 1853 H 176.692 -0.847494 -6.91224 0
M  V30 1854 H 174.319 -1.24864 -7.49875 0
M  V30 1855 N 175.894 1.51508 0.433938 0
M  V30 1856 C 176.857 1.72473 1.50949 0
M  V30 1857 C 177.857 0.594725 1.49398 0
M  V30 1858 O 179.047 0.862315 1.5136 0
M  V30 1859 C 176.179 1.78431 2.90474 0
M  V30 1860 H 177.372 2.68467 1.33662 0
M  V30 1861 H 174.925 1.41549 0.662836 0
M  V30 1862 H 175.66 0.842645 3.13161 0
M  V30 1863 H 175.445 2.60558 2.93005 0
M  V30 1864 H 176.935 1.96479 3.68491 0
M  V30 1865 N 177.372 -0.689602 1.41712 0
M  V30 1866 C 178.335 -1.78521 1.43746 0
M  V30 1867 C 179.335 -1.57436 0.327191 0
M  V30 1868 O 180.525 -1.64 0.587348 0
M  V30 1869 C 177.657 -3.16971 1.25467 0
M  V30 1870 H 178.85 -1.78108 2.41283 0
M  V30 1871 H 176.403 -0.89781 1.27942 0
M  V30 1872 H 177.138 -3.23019 0.287948 0
M  V30 1873 H 176.923 -3.33678 2.05917 0
M  V30 1874 H 178.413 -3.96935 1.2974 0
M  V30 1875 N 178.85 -1.27639 -0.924453 0
M  V30 1876 C 179.76 -1.12466 -2.05885 0
M  V30 1877 C 180.776 -0.053869 -1.73917 0
M  V30 1878 O 181.952 -0.261012 -1.99702 0
M  V30 1879 C 179.017 -0.776768 -3.37886 0
M  V30 1880 C 178.078 -1.92878 -3.83532 0
M  V30 1881 C 177.311 -1.59739 -5.09234 0
M  V30 1882 O 177.534 -0.506782 -5.68144 0
M  V30 1883 O 176.468 -2.43761 -5.50331 0
M  V30 1884 H 180.294 -2.07671 -2.21599 0
M  V30 1885 H 177.879 -1.06857 -1.04413 0
M  V30 1886 H 179.761 -0.596229 -4.17161 0
M  V30 1887 H 178.436 0.145732 -3.23372 0
M  V30 1888 H 177.343 -2.1644 -3.0513 0
M  V30 1889 H 178.676 -2.8316 -4.02593 0
M  V30 1890 N 180.328 1.1314 -1.09713 0
M  V30 1891 C 181.258 2.20748 -0.761102 0
M  V30 1892 C 182.239 1.68061 0.262566 0
M  V30 1893 O 183.424 1.93765 0.129977 0
M  V30 1894 C 180.554 3.46812 -0.184054 0
M  V30 1895 C 179.508 4.12606 -1.13757 0
M  V30 1896 C 178.834 5.33031 -0.422083 0
M  V30 1897 C 180.134 4.59603 -2.48118 0
M  V30 1898 H 181.828 2.49113 -1.66082 0
M  V30 1899 H 179.374 1.19734 -0.799987 0
M  V30 1900 H 181.327 4.21353 0.0631215 0
M  V30 1901 H 180.051 3.17851 0.750868 0
M  V30 1902 H 178.71 3.40036 -1.37007 0
M  V30 1903 H 178.358 5.00335 0.517072 0
M  V30 1904 H 178.058 5.77999 -1.05788 0
M  V30 1905 H 179.582 6.10325 -0.183277 0
M  V30 1906 H 180.996 5.25552 -2.29059 0
M  V30 1907 H 179.393 5.15321 -3.07514 0
M  V30 1908 H 180.463 3.73971 -3.08665 0
M  V30 1909 N 181.806 0.884767 1.30421 0
M  V30 1910 C 183.054 0.502112 1.95763 0
M  V30 1911 C 183.375 -0.951815 1.70192 0
M  V30 1912 O 182.645 -1.6692 1.0254 0
M  V30 1913 H 181.225 0.182694 0.724315 0
M  V30 1914 H 183.887 1.1278 1.58955 0
M  V30 1915 H 182.983 0.672188 3.04775 0
M  V30 1916 N 183.284 -1.43765 0.645699 0
M  V30 1917 C 184.509 -2.06767 0.161883 0
M  V30 1918 C 184.934 -1.48034 -1.16049 0
M  V30 1919 O 184.292 -0.587369 -1.71522 0
M  V30 1920 C 184.34 -3.60519 0.0762003 0
M  V30 1921 O 183.444 -4.00982 -0.963721 0
M  V30 1922 H 182.785 -0.657675 0.091429 0
M  V30 1923 H 185.315 -1.84397 0.886499 0
M  V30 1924 H 185.325 -4.07853 -0.109604 0
M  V30 1925 H 184 -4.02646 1.04157 0
M  V30 1926 H 182.577 -3.65253 -0.751312 0
M  V30 1927 N 184.763 -0.387143 -1.52771 0
M  V30 1928 C 186.009 0.196025 -2.0185 0
M  V30 1929 C 186.342 1.46641 -1.27319 0
M  V30 1930 O 185.617 1.90889 -0.373032 0
M  V30 1931 C 185.9 0.466136 -3.5707 0
M  V30 1932 C 185.753 -0.819385 -4.42274 0
M  V30 1933 C 187.072 1.25768 -4.21747 0
M  V30 1934 H 184.191 0.0697708 -0.73369 0
M  V30 1935 H 186.833 -0.516286 -1.82851 0
M  V30 1936 H 184.983 1.07293 -3.7339 0
M  V30 1937 H 186.655 -1.4563 -4.37709 0
M  V30 1938 H 184.898 -1.43517 -4.09372 0
M  V30 1939 H 185.569 -0.585065 -5.48891 0
M  V30 1940 H 188.045 0.744167 -4.09391 0
M  V30 1941 H 186.921 1.41541 -5.30337 0
M  V30 1942 H 187.182 2.27228 -3.79236 0
M  V30 1943 N 186.241 1.57166 -0.116904 0
M  V30 1944 C 187.657 1.5779 0.239693 0
M  V30 1945 C 187.857 1.1295 1.66867 0
M  V30 1946 O 186.913 0.81592 2.38954 0
M  V30 1947 C 188.226 3.00699 0.00828202 0
M  V30 1948 C 189.774 3.12912 0.0743438 0
M  V30 1949 C 190.249 4.57817 -0.129348 0
M  V30 1950 N 191.74 4.63139 -0.075247 0
M  V30 1951 C 192.475 5.73023 -0.207788 0
M  V30 1952 N 191.971 6.91665 -0.396382 0
M  V30 1953 N 193.764 5.61906 -0.14751 0
M  V30 1954 H 185.915 1.84615 -1.05029 0
M  V30 1955 H 188.178 0.85311 -0.41341 0
M  V30 1956 H 187.884 3.37784 -0.979531 0
M  V30 1957 H 187.758 3.69848 0.741077 0
M  V30 1958 H 190.145 2.75686 1.05268 0
M  V30 1959 H 190.226 2.4631 -0.690297 0
M  V30 1960 H 189.87 4.95742 -1.10465 0
M  V30 1961 H 189.8 5.22507 0.655253 0
M  V30 1962 H 192.291 3.7784 0.0670898 0
M  V30 1963 H 192.604 7.71255 -0.488437 0
M  V30 1964 H 190.949 6.93654 -0.432329 0
M  V30 1965 H 194.14 4.681 -0.00115036 0
M  V30 1966 H 194.313 6.47501 -0.254247 0
M  V30 1967 N 187.719 -0.156864 1.56817 0
M  V30 1968 C 188.996 -0.899244 1.73704 0
M  V30 1969 C 189.376 -1.99771 0.682254 0
M  V30 1970 O 188.724 -2.26515 -0.300522 0
M  V30 1971 C 188.934 -1.45075 3.17418 0
M  V30 1972 C 190.282 -1.91802 3.7881 0
M  V30 1973 O 191.306 -1.54838 3.20786 0
M  V30 1974 O 190.165 -2.5994 4.80722 0
M  V30 1975 H 187.259 -0.424267 0.709878 0
M  V30 1976 H 189.805 -0.143561 1.69092 0
M  V30 1977 H 188.577 -0.660846 3.85679 0
M  V30 1978 H 188.2 -2.27021 3.26416 0
M  V30 1979 N 189.197 -1.51736 -0.425897 0
M  V30 1980 C 190.422 -1.69082 -1.20108 0
M  V30 1981 C 190.847 -0.392398 -1.83962 0
M  V30 1982 O 190.205 0.64858 -1.69302 0
M  V30 1983 C 190.253 -2.81604 -2.25237 0
M  V30 1984 O 189.357 -2.46004 -3.30992 0
M  V30 1985 H 188.698 -0.563408 -0.35138 0
M  V30 1986 H 191.228 -1.98358 -0.501512 0
M  V30 1987 H 191.238 -3.06025 -2.69838 0
M  V30 1988 H 189.913 -3.75817 -1.78142 0
M  V30 1989 H 188.49 -2.32195 -2.91787 0
M  V30 1990 N 190.675 0.682077 -1.42076 0
M  V30 1991 C 191.921 1.44428 -1.42367 0
M  V30 1992 C 192.254 1.94164 -0.0373056 0
M  V30 1993 O 191.529 1.70429 0.937239 0
M  V30 1994 C 191.812 2.64654 -2.44194 0
M  V30 1995 C 191.665 2.20596 -3.91991 0
M  V30 1996 C 192.984 3.66865 -2.431 0
M  V30 1997 H 190.103 0.523834 -0.518428 0
M  V30 1998 H 192.745 0.77576 -1.73442 0
M  V30 1999 H 190.895 3.2169 -2.17826 0
M  V30 2000 H 192.567 1.68783 -4.29313 0
M  V30 2001 H 190.81 1.52242 -4.06208 0
M  V30 2002 H 191.481 3.06921 -4.58807 0
M  V30 2003 H 193.957 3.19531 -2.66532 0
M  V30 2004 H 192.833 4.48577 -3.16339 0
M  V30 2005 H 193.094 4.17493 -1.45437 0
M  V30 2006 N 192.153 1.28127 0.917671 0
M  V30 2007 C 193.564 1.13622 1.48145 0
M  V30 2008 C 193.915 -0.275207 1.9426 0
M  V30 2009 O 193.04 -1.1691 1.82102 0
M  V30 2010 C 193.635 2.05648 2.69248 0
M  V30 2011 C 192.194 1.95219 3.21818 0
M  V30 2012 C 191.341 1.97618 1.94532 0
M  V30 2013 H 194.292 1.40874 0.730772 0
M  V30 2014 H 194.313 1.61818 3.44377 0
M  V30 2015 H 193.825 3.08365 2.35653 0
M  V30 2016 H 191.926 0.955244 3.60147 0
M  V30 2017 H 192.039 2.81976 3.87333 0
M  V30 2018 H 190.403 1.41973 2.11461 0
M  V30 2019 H 191.186 3.02007 1.63238 0
M  V30 2020 N 193.631 -1.12557 1.10312 0
M  V30 2021 C 194.871 -1.8568 0.854543 0
M  V30 2022 C 195.235 -1.82091 -0.608843 0
M  V30 2023 O 196.436 -2.50544 -0.973717 0
M  V30 2024 C 194.707 -3.2942 1.38626 0
M  V30 2025 S 196.266 -4.19931 1.27293 0
M  V30 2026 H 193.084 -0.640427 0.308827 0
M  V30 2027 H 195.686 -1.35599 1.40831 0
M  V30 2028 H 194.39 -3.2959 2.44537 0
M  V30 2029 H 193.921 -3.84566 0.82902 0
M  V30 2030 H 195.936 -4.95668 0.229776 0
M  V30 2031 N 195.109 -0.891671 -1.2995 0
M  V30 2032 C 196.357 -0.512486 -1.95494 0
M  V30 2033 C 196.678 0.942776 -1.70695 0
M  V30 2034 O 195.948 1.66374 -1.03424 0
M  V30 2035 H 194.528 -0.186533 -0.723336 0
M  V30 2036 H 197.19 -1.13621 -1.58355 0
M  V30 2037 H 196.286 -0.688342 -3.04415 0
M  V30 2038 N 196.587 1.43421 -0.653314 0
M  V30 2039 C 197.833 2.02111 -0.166992 0
M  V30 2040 C 198.166 1.51423 1.21592 0
M  V30 2041 O 197.441 0.707389 1.8118 0
M  V30 2042 C 197.724 3.5966 -0.177948 0
M  V30 2043 C 197.577 4.20579 -1.59478 0
M  V30 2044 C 198.896 4.37413 0.4856 0
M  V30 2045 H 196.015 0.734374 -0.0621557 0
M  V30 2046 H 198.657 1.70717 -0.834016 0
M  V30 2047 H 196.807 3.86537 0.390032 0
M  V30 2048 H 198.479 4.04732 -2.21336 0
M  V30 2049 H 196.722 3.77226 -2.14204 0
M  V30 2050 H 197.393 5.29665 -1.5543 0
M  V30 2051 H 199.869 4.161 0.00234528 0
M  V30 2052 H 198.745 5.47075 0.447207 0
M  V30 2053 H 199.006 4.13672 1.55974 0
M  V30 2054 N 198.065 0.39524 1.52563 0
M  V30 2055 C 199.29 -0.187456 2.06551 0
M  V30 2056 C 199.715 -1.39249 1.26457 0
M  V30 2057 O 199.073 -1.78947 0.291151 0
M  V30 2058 C 199.121 -0.529985 3.56684 0
M  V30 2059 O 198.225 -1.62307 3.79118 0
M  V30 2060 H 197.566 -0.0202537 0.663691 0
M  V30 2061 H 200.096 0.564426 1.96661 0
M  V30 2062 H 200.106 -0.792598 4.00227 0
M  V30 2063 H 198.781 0.350987 4.14416 0
M  V30 2064 H 197.358 -1.3537 3.47461 0
M  V30 2065 N 199.544 -1.57102 0.125237 0
M  V30 2066 C 200.79 -1.95697 -0.532035 0
M  V30 2067 C 201.123 -1.009 -1.6593 0
M  V30 2068 O 200.398 -0.047347 -1.94442 0
M  V30 2069 C 200.681 -3.44181 -1.05884 0
M  V30 2070 C 200.534 -4.49752 0.0654392 0
M  V30 2071 C 201.853 -3.94655 -1.9477 0
M  V30 2072 H 198.972 -0.711571 -0.191925 0
M  V30 2073 H 201.614 -1.88923 0.20206 0
M  V30 2074 H 199.764 -3.50085 -1.68442 0
M  V30 2075 H 201.436 -4.55943 0.700982 0
M  V30 2076 H 199.679 -4.27653 0.727709 0
M  V30 2077 H 200.35 -5.50924 -0.344505 0
M  V30 2078 H 202.826 -3.91094 -1.42074 0
M  V30 2079 H 201.702 -4.99057 -2.28546 0
M  V30 2080 H 201.963 -3.35718 -2.87656 0
M  V30 2081 N 201.022 0.148545 -1.56898 0
M  V30 2082 C 202.27 0.859717 -1.82902 0
M  V30 2083 C 202.591 1.81775 -0.70588 0
M  V30 2084 O 201.861 1.93994 0.272586 0
M  V30 2085 H 200.441 0.320469 -0.674766 0
M  V30 2086 H 203.103 0.142918 -1.94375 0
M  V30 2087 H 202.199 1.4229 -2.77777 0
M  V30 2088 N 202.5 1.5196 0.417844 0
M  V30 2089 C 203.749 1.6482 1.16264 0
M  V30 2090 C 204.062 0.379886 1.91876 0
M  V30 2091 O 205.268 0.388154 2.68711 0
M  V30 2092 C 203.724 2.91161 2.1155 0
M  V30 2093 C 203.332 4.25068 1.41495 0
M  V30 2094 C 205.076 3.13383 2.86341 0
M  V30 2095 C 202.983 5.42541 2.35379 0
M  V30 2096 H 201.913 0.613954 0.437694 0
M  V30 2097 H 204.564 1.78442 0.427871 0
M  V30 2098 H 202.946 2.71218 2.88543 0
M  V30 2099 H 204.12 4.55463 0.699263 0
M  V30 2100 H 202.435 4.0888 0.787792 0
M  V30 2101 H 205.032 3.98324 3.5671 0
M  V30 2102 H 205.375 2.27256 3.48798 0
M  V30 2103 H 205.908 3.33757 2.1645 0
M  V30 2104 H 202.647 6.30987 1.77582 0
M  V30 2105 H 202.167 5.16497 3.04945 0
M  V30 2106 H 203.846 5.75272 2.96093 0
M  V30 2107 N 203.978 -0.674533 1.42435 0
M  V30 2108 C 204.911 -1.79924 1.40366 0
M  V30 2109 C 205.889 -1.60378 0.267899 0
M  V30 2110 O 207.073 -1.82847 0.458159 0
M  V30 2111 C 204.2 -3.16927 1.19478 0
M  V30 2112 C 203.246 -3.55221 2.36051 0
M  V30 2113 S 204.079 -3.5762 3.98583 0
M  V30 2114 C 205.235 -4.97315 3.80038 0
M  V30 2115 H 205.468 -1.81405 2.35541 0
M  V30 2116 H 203.001 -0.845221 1.29211 0
M  V30 2117 H 204.959 -3.96007 1.08114 0
M  V30 2118 H 203.62 -3.13031 0.258883 0
M  V30 2119 H 202.813 -4.54804 2.17185 0
M  V30 2120 H 202.415 -2.83502 2.43932 0
M  V30 2121 H 204.707 -5.85401 3.41045 0
M  V30 2122 H 205.65 -5.21228 4.79298 0
M  V30 2123 H 206.058 -4.69845 3.12899 0
M  V30 2124 N 205.456 -1.28612 -0.910864 0
M  V30 2125 C 206.733 -1.06632 -1.63979 0
M  V30 2126 C 207.113 0.393351 -2.07403 0
M  V30 2127 O 206.461 1.37999 -1.82122 0
M  V30 2128 C 206.671 -2.0436 -2.8291 0
M  V30 2129 C 208.019 -2.34666 -3.5386 0
M  V30 2130 O 209.043 -2.02467 -2.93062 0
M  V30 2131 O 207.902 -2.89631 -4.63439 0
M  V30 2132 H 204.996 -0.407737 -0.7195 0
M  V30 2133 H 207.542 -1.39942 -0.959914 0
M  V30 2134 H 206.314 -3.02727 -2.47936 0
M  V30 2135 H 205.937 -1.71714 -3.58609 0
M  V30 2136 N 206.934 1.1197 -1.10907 0
M  V30 2137 C 208.162 1.87402 -0.876824 0
M  V30 2138 C 208.577 1.79894 0.573025 0
M  V30 2139 O 207.934 1.17629 1.39534 0
M  V30 2140 C 207.985 3.36428 -1.32282 0
M  V30 2141 O 207.706 3.43765 -2.71582 0
M  V30 2142 C 209.207 4.28783 -1.12518 0
M  V30 2143 H 206.427 0.592793 -0.314384 0
M  V30 2144 H 208.971 1.41649 -1.47499 0
M  V30 2145 H 207.126 3.79706 -0.768229 0
M  V30 2146 H 207.54 4.3652 -2.90776 0
M  V30 2147 H 209.014 5.31613 -1.48633 0
M  V30 2148 H 209.491 4.39153 -0.0642394 0
M  V30 2149 H 210.097 3.91291 -1.66648 0
M  V30 2150 N 208.412 0.89855 1.29475 0
M  V30 2151 C 209.661 0.519863 1.94885 0
M  V30 2152 C 209.974 -0.9383 1.71625 0
M  V30 2153 O 211.18 -1.42445 2.31131 0
M  V30 2154 C 209.636 0.878836 3.49005 0
M  V30 2155 C 209.244 2.35569 3.81066 0
M  V30 2156 C 210.988 0.570004 4.20656 0
M  V30 2157 C 208.895 2.65558 5.28425 0
M  V30 2158 H 207.825 0.190692 0.729488 0
M  V30 2159 H 210.476 1.09539 1.47219 0
M  V30 2160 H 208.858 0.232253 3.95318 0
M  V30 2161 H 210.032 3.04773 3.45616 0
M  V30 2162 H 208.347 2.63343 3.22552 0
M  V30 2163 H 210.944 0.770925 5.29113 0
M  V30 2164 H 211.287 -0.491404 4.1339 0
M  V30 2165 H 211.82 1.17438 3.8007 0
M  V30 2166 H 208.559 3.70493 5.40754 0
M  V30 2167 H 208.079 2.00977 5.65127 0
M  V30 2168 H 209.758 2.51765 5.96006 0
M  V30 2169 N 209.89 -1.43072 0.660911 0
M  V30 2170 C 211.301 -1.84932 0.256348 0
M  V30 2171 C 211.652 -1.55325 -1.19868 0
M  V30 2172 O 210.777 -1.00607 -1.91591 0
M  V30 2173 C 211.372 -3.35684 0.458475 0
M  V30 2174 C 209.931 -3.76245 0.108161 0
M  V30 2175 C 209.078 -2.66749 0.757641 0
M  V30 2176 H 212.029 -1.33116 0.864051 0
M  V30 2177 H 212.05 -3.79365 -0.293683 0
M  V30 2178 H 211.562 -3.572 1.51755 0
M  V30 2179 H 209.663 -3.60338 -0.948014 0
M  V30 2180 H 209.776 -4.76058 0.538992 0
M  V30 2181 H 208.14 -2.53989 0.190185 0
M  V30 2182 H 208.923 -2.91092 1.81989 0
M  V30 2183 N 211.368 -0.403325 -1.52352 0
M  V30 2184 C 212.3 0.4603 -2.2453 0
M  V30 2185 C 213.313 1.01505 -1.27282 0
M  V30 2186 O 214.502 0.914982 -1.53266 0
M  V30 2187 C 211.602 1.65208 -2.95905 0
M  V30 2188 C 210.775 1.22224 -4.19976 0
M  V30 2189 C 209.834 2.28028 -4.74226 0
M  V30 2190 O 208.86 1.88857 -5.36956 0
M  V30 2191 N 210.062 3.6012 -4.55295 0
M  V30 2192 H 212.827 -0.158156 -2.99282 0
M  V30 2193 H 210.388 -0.230402 -1.60252 0
M  V30 2194 H 212.38 2.35541 -3.29093 0
M  V30 2195 H 210.95 2.17658 -2.24374 0
M  V30 2196 H 210.17 0.34725 -3.92668 0
M  V30 2197 H 211.458 0.911924 -5.00561 0
M  V30 2198 H 210.856 3.94698 -4.05253 0
M  V30 2199 H 209.413 4.26447 -4.92936 0
M  V30 2200 N 212.846 1.57033 -0.133567 0
M  V30 2201 C 213.776 2.1909 0.807567 0
M  V30 2202 C 214.757 1.13517 1.26681 0
M  V30 2203 O 215.942 1.41809 1.32679 0
M  V30 2204 C 213.072 2.80188 2.05212 0
M  V30 2205 C 212.026 3.91471 1.73015 0
M  V30 2206 C 211.352 4.39443 3.04622 0
M  V30 2207 C 212.652 5.12886 0.987168 0
M  V30 2208 H 214.346 2.97988 0.290403 0
M  V30 2209 H 211.892 1.43335 0.138239 0
M  V30 2210 H 213.845 3.22264 2.71521 0
M  V30 2211 H 212.569 1.98601 2.59278 0
M  V30 2212 H 211.228 3.49993 1.0909 0
M  V30 2213 H 210.876 3.54695 3.56651 0
M  V30 2214 H 210.576 5.14495 2.83847 0
M  V30 2215 H 212.1 4.8418 3.72024 0
M  V30 2216 H 213.514 5.51891 1.55208 0
M  V30 2217 H 211.911 5.93615 0.87985 0
M  V30 2218 H 212.981 4.84894 -0.0235286 0
M  V30 2219 N 214.325 -0.140222 1.56975 0
M  V30 2220 C 215.255 -1.17456 2.01808 0
M  V30 2221 C 216.236 -1.44415 0.898794 0
M  V30 2222 O 217.421 -1.5522 1.16707 0
M  V30 2223 C 214.551 -2.50607 2.40444 0
M  V30 2224 C 213.505 -2.38155 3.55621 0
M  V30 2225 C 212.831 -3.76078 3.80091 0
M  V30 2226 C 214.131 -1.85991 4.88062 0
M  V30 2227 H 215.825 -0.801743 2.88466 0
M  V30 2228 H 213.371 -0.38422 1.38779 0
M  V30 2229 H 215.324 -3.23197 2.7041 0
M  V30 2230 H 214.048 -2.89737 1.50732 0
M  V30 2231 H 212.707 -1.68016 3.25832 0
M  V30 2232 H 212.355 -4.12656 2.87618 0
M  V30 2233 H 212.055 -3.68606 4.57606 0
M  V30 2234 H 213.579 -4.50206 4.12488 0
M  V30 2235 H 214.993 -2.4838 5.16701 0
M  V30 2236 H 213.39 -1.89393 5.6943 0
M  V30 2237 H 214.46 -0.816023 4.77984 0
M  V30 2238 N 215.803 -1.52179 -0.40978 0
M  V30 2239 C 217.08 -1.56769 -1.16974 0
M  V30 2240 C 217.46 -0.348322 -2.08206 0
M  V30 2241 O 216.808 0.664862 -2.18613 0
M  V30 2242 C 217.018 -2.89603 -1.9476 0
M  V30 2243 C 218.366 -3.42579 -2.50849 0
M  V30 2244 O 219.39 -2.91338 -2.04941 0
M  V30 2245 O 218.249 -4.32054 -3.34652 0
M  V30 2246 H 215.343 -0.631439 -0.534054 0
M  V30 2247 H 217.889 -1.64507 -0.416613 0
M  V30 2248 H 216.661 -3.698 -1.27921 0
M  V30 2249 H 216.284 -2.85155 -2.77079 0
M  V30 2250 N 217.281 0.66697 -1.42791 0
M  V30 2251 C 218.527 1.4291 -1.43891 0
M  V30 2252 C 218.86 1.94114 -0.0578972 0
M  V30 2253 O 218.135 1.71414 0.91911 0
M  V30 2254 C 218.418 2.62049 -2.46987 0
M  V30 2255 C 218.271 2.16426 -3.94309 0
M  V30 2256 C 219.59 3.64266 -2.46978 0
M  V30 2257 H 216.709 0.518306 -0.523954 0
M  V30 2258 H 219.351 0.757321 -1.74255 0
M  V30 2259 H 217.501 3.19361 -2.21225 0
M  V30 2260 H 219.173 1.64221 -4.31079 0
M  V30 2261 H 217.416 1.47925 -4.078 0
M  V30 2262 H 218.087 3.02038 -4.62036 0
M  V30 2263 H 220.563 3.16686 -2.69906 0
M  V30 2264 H 219.439 4.45196 -3.21079 0
M  V30 2265 H 219.7 4.15927 -1.49857 0
M  V30 2266 N 218.759 1.29093 0.90403 0
M  V30 2267 C 220.005 1.16986 1.65656 0
M  V30 2268 C 220.338 -0.278925 1.92186 0
M  V30 2269 O 219.613 -1.2019 1.5292 0
M  V30 2270 C 219.896 1.97908 3.0084 0
M  V30 2271 C 219.749 3.50903 2.81403 0
M  V30 2272 C 221.068 1.80208 4.01513 0
M  V30 2273 H 218.187 0.426346 0.601164 0
M  V30 2274 H 220.829 1.58518 1.04747 0
M  V30 2275 H 218.979 1.62616 3.52829 0
M  V30 2276 H 220.651 3.96153 2.36348 0
M  V30 2277 H 218.894 3.76045 2.1627 0
M  V30 2278 H 219.565 4.02791 3.77443 0
M  V30 2279 H 222.041 2.11025 3.58619 0
M  V30 2280 H 220.917 2.39184 4.94047 0
M  V30 2281 H 221.178 0.756119 4.35586 0
M  V30 2282 N 220.237 -1.11381 1.11499 0
M  V30 2283 C 221.485 -1.8277 0.862524 0
M  V30 2284 C 221.806 -1.85097 -0.613534 0
M  V30 2285 O 221.076 -1.32198 -1.4457 0
M  V30 2286 H 219.656 -0.676823 0.316101 0
M  V30 2287 H 222.318 -1.34816 1.4075 0
M  V30 2288 H 221.414 -2.86614 1.23527 0
M  V30 2289 N 221.715 -0.905404 -1.28997 0
M  V30 2290 C 222.963 -0.533192 -1.9494 0
M  V30 2291 C 223.284 0.924618 -1.71685 0
M  V30 2292 O 222.554 1.65268 -1.05183 0
M  V30 2293 H 221.134 -0.194194 -0.721317 0
M  V30 2294 H 223.796 -1.15294 -1.57141 0
M  V30 2295 H 222.892 -0.72059 -3.03667 0
M  V30 2296 N 223.193 1.4272 -0.668489 0
M  V30 2297 C 224.423 2.05668 -0.196063 0
M  V30 2298 C 224.831 1.5028 1.14946 0
M  V30 2299 O 224.174 0.6348 1.72383 0
M  V30 2300 C 224.236 3.59469 -0.0468879 0
M  V30 2301 C 223.9 4.37518 -1.32012 0
M  V30 2302 C 224.897 4.68584 -2.25222 0
M  V30 2303 C 222.582 4.77266 -1.56596 0
M  V30 2304 C 224.576 5.38326 -3.41297 0
M  V30 2305 C 222.263 5.4675 -2.72962 0
M  V30 2306 C 223.261 5.77204 -3.65137 0
M  V30 2307 O 222.949 6.45264 -4.79468 0
M  V30 2308 H 222.681 0.669382 -0.0943599 0
M  V30 2309 H 225.235 1.83954 -0.913788 0
M  V30 2310 H 223.465 3.79817 0.726357 0
M  V30 2311 H 225.154 4.04071 0.384852 0
M  V30 2312 H 225.92 4.38382 -2.07477 0
M  V30 2313 H 221.799 4.52959 -0.857249 0
M  V30 2314 H 225.343 5.62014 -4.13263 0
M  V30 2315 H 221.24 5.76369 -2.90635 0
M  V30 2316 H 222.008 6.63753 -4.78931 0
M  V30 2317 N 224.671 0.411399 1.52136 0
M  V30 2318 C 225.601 -0.404015 2.29978 0
M  V30 2319 C 226.582 -1.04412 1.34284 0
M  V30 2320 O 227.767 -1.0527 1.63192 0
M  V30 2321 C 224.897 -1.5197 3.12286 0
M  V30 2322 C 223.851 -1.00448 4.16046 0
M  V30 2323 C 223.177 -2.21393 4.86712 0
M  V30 2324 C 224.477 -0.0569336 5.22269 0
M  V30 2325 H 226.171 0.245529 2.98392 0
M  V30 2326 H 223.717 0.119525 1.43503 0
M  V30 2327 H 225.67 -2.09715 3.6551 0
M  V30 2328 H 224.394 -2.19716 2.41646 0
M  V30 2329 H 223.053 -0.449421 3.63835 0
M  V30 2330 H 222.701 -2.87699 4.12599 0
M  V30 2331 H 222.401 -1.87571 5.56858 0
M  V30 2332 H 223.925 -2.7974 5.4275 0
M  V30 2333 H 225.339 -0.54325 5.7072 0
M  V30 2334 H 223.736 0.192594 5.99791 0
M  V30 2335 H 224.806 0.887663 4.76706 0
M  V30 2336 N 226.149 -1.5696 0.141893 0
M  V30 2337 C 227.426 -1.87553 -0.555281 0
M  V30 2338 C 227.806 -1.04699 -1.83306 0
M  V30 2339 O 227.154 -0.132346 -2.28116 0
M  V30 2340 C 227.364 -3.39093 -0.825664 0
M  V30 2341 C 228.712 -4.08199 -1.16869 0
M  V30 2342 O 229.736 -3.44242 -0.915185 0
M  V30 2343 O 228.595 -5.21139 -1.6455 0
M  V30 2344 H 225.689 -0.777188 -0.282679 0
M  V30 2345 H 228.235 -1.68763 0.17812 0
M  V30 2346 H 227.007 -3.91221 0.0788633 0
M  V30 2347 H 226.63 -3.63393 -1.61343 0
M  V30 2348 N 227.627 0.131896 -1.57047 0
M  V30 2349 C 228.537 1.1815 -2.02676 0
M  V30 2350 C 229.553 1.46113 -0.944824 0
M  V30 2351 O 230.729 1.57485 -1.25541 0
M  V30 2352 C 227.794 2.49139 -2.41103 0
M  V30 2353 C 226.855 2.28688 -3.63318 0
M  V30 2354 C 226.088 3.53431 -3.99903 0
M  V30 2355 O 226.311 4.60223 -3.36973 0
M  V30 2356 O 225.245 3.45198 -4.93074 0
M  V30 2357 H 229.071 0.824069 -2.92306 0
M  V30 2358 H 226.656 0.341745 -1.45439 0
M  V30 2359 H 228.538 3.26338 -2.66611 0
M  V30 2360 H 227.213 2.84382 -1.54624 0
M  V30 2361 H 226.12 1.4939 -3.42977 0
M  V30 2362 H 227.453 1.98355 -4.50462 0
M  V30 2363 N 229.106 1.52395 0.401703 0
M  V30 2364 C 230.354 1.66488 1.14569 0
M  V30 2365 C 230.675 0.400897 1.90835 0
M  V30 2366 O 229.945 -0.584415 1.8698 0
M  V30 2367 H 228.525 0.613672 0.425929 0
M  V30 2368 H 231.187 1.89464 0.457093 0
M  V30 2369 H 230.283 2.50942 1.85566 0
M  V30 2370 N 230.584 -0.659388 1.43143 0
M  V30 2371 C 231.814 -1.44513 1.47646 0
M  V30 2372 C 232.222 -1.88981 0.0910095 0
M  V30 2373 O 231.565 -1.59702 -0.907789 0
M  V30 2374 C 231.627 -2.71663 2.35456 0
M  V30 2375 C 231.291 -2.49175 3.83094 0
M  V30 2376 C 232.288 -2.1279 4.74359 0
M  V30 2377 C 229.973 -2.63691 4.27519 0
M  V30 2378 C 231.967 -1.9121 6.08044 0
M  V30 2379 C 229.654 -2.41726 5.61259 0
M  V30 2380 C 230.652 -2.0554 6.51339 0
M  V30 2381 O 230.34 -1.838 7.82606 0
M  V30 2382 H 230.072 -0.45064 0.503884 0
M  V30 2383 H 232.626 -0.816248 1.88485 0
M  V30 2384 H 230.856 -3.37089 1.89493 0
M  V30 2385 H 232.545 -3.33595 2.31235 0
M  V30 2386 H 233.311 -2.01157 4.41317 0
M  V30 2387 H 229.19 -2.90832 3.57684 0
M  V30 2388 H 232.734 -1.62889 6.78316 0
M  V30 2389 H 228.631 -2.52959 5.9387 0
M  V30 2390 H 229.399 -1.98275 7.94122 0
M  V30 2391 N 232.062 -1.29571 -0.897171 0
M  V30 2392 C 233.308 -1.17863 -1.65034 0
M  V30 2393 C 233.641 0.268729 -1.92332 0
M  V30 2394 O 232.916 1.19378 -1.53555 0
M  V30 2395 C 233.199 -1.995 -2.99786 0
M  V30 2396 C 233.052 -3.5239 -2.79538 0
M  V30 2397 C 234.371 -1.82335 -4.00552 0
M  V30 2398 H 231.49 -0.429528 -0.598895 0
M  V30 2399 H 234.132 -1.59072 -1.03905 0
M  V30 2400 H 232.282 -1.64485 -3.51962 0
M  V30 2401 H 233.954 -3.97401 -2.34244 0
M  V30 2402 H 232.197 -3.77187 -2.14273 0
M  V30 2403 H 232.868 -4.04787 -3.75302 0
M  V30 2404 H 235.344 -2.12924 -3.57495 0
M  V30 2405 H 234.22 -2.41801 -4.92771 0
M  V30 2406 H 234.481 -0.779209 -4.35179 0
M  V30 2407 N 233.54 1.10788 -1.12088 0
M  V30 2408 C 234.956 1.34691 -0.856186 0
M  V30 2409 C 235.156 1.94791 0.515615 0
M  V30 2410 O 234.212 2.18524 1.26505 0
M  V30 2411 C 235.525 2.27208 -1.9697 0
M  V30 2412 C 237.073 2.40755 -2.00016 0
M  V30 2413 C 237.548 3.36598 -3.1059 0
M  V30 2414 N 239.039 3.44164 -3.10008 0
M  V30 2415 C 239.774 4.18284 -3.92206 0
M  V30 2416 N 239.27 4.95322 -4.84384 0
M  V30 2417 N 241.063 4.13865 -3.80357 0
M  V30 2418 H 233.214 0.70144 -2.00483 0
M  V30 2419 H 235.477 0.371405 -0.872217 0
M  V30 2420 H 235.183 1.90251 -2.958 0
M  V30 2421 H 235.057 3.27485 -1.87172 0
M  V30 2422 H 237.444 2.76982 -1.01808 0
M  V30 2423 H 237.525 1.40305 -2.13888 0
M  V30 2424 H 237.169 3.01096 -4.09028 0
M  V30 2425 H 237.099 4.36918 -2.93956 0
M  V30 2426 H 239.59 2.8922 -2.43228 0
M  V30 2427 H 239.903 5.49267 -5.43623 0
M  V30 2428 H 238.248 4.94459 -4.884 0
M  V30 2429 H 241.439 3.52773 -3.07683 0
M  V30 2430 H 241.612 4.71372 -4.44649 0
M  V30 2431 N 235.018 0.912232 1.28515 0
M  V30 2432 C 236.267 0.540504 1.94323 0
M  V30 2433 C 236.58 -0.920044 1.72611 0
M  V30 2434 O 237.786 -1.39986 2.32629 0
M  V30 2435 C 236.242 0.915803 3.48053 0
M  V30 2436 C 235.85 2.39598 3.78546 0
M  V30 2437 C 237.594 0.614588 4.20027 0
M  V30 2438 C 235.501 2.71148 5.25578 0
M  V30 2439 H 234.431 0.198418 0.727424 0
M  V30 2440 H 237.082 1.11094 1.46049 0
M  V30 2441 H 235.464 0.274168 3.9505 0
M  V30 2442 H 236.638 3.08422 3.42364 0
M  V30 2443 H 234.953 2.66749 3.1974 0
M  V30 2444 H 237.55 0.827002 5.28266 0
M  V30 2445 H 237.893 -0.447531 4.13887 0
M  V30 2446 H 238.426 1.21462 3.78803 0
M  V30 2447 H 235.165 3.76207 5.36794 0
M  V30 2448 H 234.685 2.0696 5.62963 0
M  V30 2449 H 236.364 2.58072 5.93302 0
M  V30 2450 N 236.496 -1.42363 0.676048 0
M  V30 2451 C 237.443 -2.308 -0.00150904 0
M  V30 2452 C 238.413 -1.46032 -0.791444 0
M  V30 2453 O 239.598 -1.74861 -0.76344 0
M  V30 2454 C 236.738 -3.31883 -0.945919 0
M  V30 2455 C 235.851 -4.31741 -0.149675 0
M  V30 2456 C 234.986 -5.19898 -1.08995 0
M  V30 2457 C 234.025 -6.11434 -0.285465 0
M  V30 2458 N 233.162 -6.92138 -1.17851 0
M  V30 2459 H 238.002 -2.88187 0.758455 0
M  V30 2460 H 235.539 -1.41952 0.38576 0
M  V30 2461 H 237.497 -3.89019 -1.50731 0
M  V30 2462 H 236.127 -2.76093 -1.6725 0
M  V30 2463 H 235.179 -3.76713 0.528359 0
M  V30 2464 H 236.491 -4.96534 0.474866 0
M  V30 2465 H 235.645 -5.81772 -1.72123 0
M  V30 2466 H 234.384 -4.55284 -1.74837 0
M  V30 2467 H 233.389 -5.48627 0.359018 0
M  V30 2468 H 234.614 -6.78097 0.368883 0
M  V30 2469 H 232.56 -6.30152 -1.82332 0
M  V30 2470 H 232.477 -7.53542 -0.609082 0
M  V30 2471 H 233.745 -7.58499 -1.79722 0
M  V30 2472 N 237.974 -0.419461 -1.51915 0
M  V30 2473 C 238.904 0.391813 -2.30189 0
M  V30 2474 C 239.885 1.03699 -1.34836 0
M  V30 2475 O 241.07 1.04403 -1.63748 0
M  V30 2476 C 238.2 1.50312 -3.13087 0
M  V30 2477 C 237.154 0.9824 -4.16573 0
M  V30 2478 C 236.48 2.18809 -4.8788 0
M  V30 2479 C 237.78 0.0292356 -5.22292 0
M  V30 2480 H 239.474 -0.26135 -2.98257 0
M  V30 2481 H 237.02 -0.127134 -1.43438 0
M  V30 2482 H 238.973 2.07773 -3.66617 0
M  V30 2483 H 237.697 2.18431 -2.42807 0
M  V30 2484 H 236.356 0.430119 -3.64068 0
M  V30 2485 H 236.004 2.85507 -4.14119 0
M  V30 2486 H 235.704 1.84615 -5.57845 0
M  V30 2487 H 237.228 2.76858 -5.44226 0
M  V30 2488 H 238.642 0.512976 -5.71 0
M  V30 2489 H 237.039 -0.2244 -5.9968 0
M  V30 2490 H 238.109 -0.912931 -4.76228 0
M  V30 2491 N 239.452 1.56882 -0.150215 0
M  V30 2492 C 240.399 2.16922 0.788244 0
M  V30 2493 C 241.369 1.10303 1.24187 0
M  V30 2494 O 242.554 1.38359 1.31383 0
M  V30 2495 C 239.694 2.79754 2.02068 0
M  V30 2496 C 238.807 4.00775 1.61257 0
M  V30 2497 C 237.942 4.51595 2.79705 0
M  V30 2498 C 236.981 5.65074 2.35282 0
M  V30 2499 N 236.118 6.10499 3.4675 0
M  V30 2500 H 240.958 2.96779 0.269444 0
M  V30 2501 H 238.495 1.46599 0.12128 0
M  V30 2502 H 240.453 3.14329 2.74323 0
M  V30 2503 H 239.083 2.02536 2.51354 0
M  V30 2504 H 238.135 3.72158 0.787553 0
M  V30 2505 H 239.447 4.82978 1.24633 0
M  V30 2506 H 238.601 4.88242 3.60145 0
M  V30 2507 H 237.34 3.68406 3.19576 0
M  V30 2508 H 236.345 5.28 1.53283 0
M  V30 2509 H 237.57 6.50052 1.96493 0
M  V30 2510 H 235.516 5.30243 3.86236 0
M  V30 2511 H 235.433 6.87637 3.14152 0
M  V30 2512 H 236.701 6.51791 4.27537 0
M  V30 2513 N 240.93 -0.123565 1.57115 0
M  V30 2514 C 242.179 -0.830704 1.83799 0
M  V30 2515 C 242.492 -1.81259 0.735158 0
M  V30 2516 O 243.698 -2.56558 0.888278 0
M  V30 2517 C 242.154 -1.52802 3.25852 0
M  V30 2518 C 241.762 -0.587356 4.44133 0
M  V30 2519 C 243.506 -2.22056 3.61789 0
M  V30 2520 C 241.413 -1.28764 5.77212 0
M  V30 2521 H 240.343 -0.313967 0.685522 0
M  V30 2522 H 242.994 -0.0834359 1.8331 0
M  V30 2523 H 241.376 -2.32175 3.20797 0
M  V30 2524 H 242.55 0.172829 4.60476 0
M  V30 2525 H 240.865 -0.00201892 4.164 0
M  V30 2526 H 243.462 -2.75131 4.58483 0
M  V30 2527 H 243.805 -2.99644 2.88997 0
M  V30 2528 H 244.338 -1.49576 3.68608 0
M  V30 2529 H 241.077 -0.55314 6.53162 0
M  V30 2530 H 240.597 -2.01995 5.64764 0
M  V30 2531 H 242.276 -1.8221 6.20813 0
M  V30 2532 N 242.408 -1.52605 -0.393616 0
M  V30 2533 C 243.318 -1.79971 -1.50492 0
M  V30 2534 C 244.334 -0.686181 -1.59899 0
M  V30 2535 O 245.51 -0.973274 -1.76322 0
M  V30 2536 C 242.575 -1.95867 -2.86072 0
M  V30 2537 C 241.636 -3.19781 -2.86424 0
M  V30 2538 C 240.869 -3.34909 -4.15538 0
M  V30 2539 O 241.092 -2.54948 -5.10253 0
M  V30 2540 O 240.026 -4.28141 -4.23059 0
M  V30 2541 H 243.852 -2.74328 -1.30299 0
M  V30 2542 H 241.437 -1.3764 -0.581005 0
M  V30 2543 H 243.319 -2.08056 -3.66457 0
M  V30 2544 H 241.994 -1.04699 -3.063 0
M  V30 2545 H 240.901 -3.13038 -2.04837 0
M  V30 2546 H 242.234 -4.1078 -2.71147 0
M  V30 2547 N 243.887 0.651787 -1.4349 0
M  V30 2548 C 245.298 1.233 -1.40193 0
M  V30 2549 C 245.649 1.9591 -0.106727 0
M  V30 2550 O 244.774 2.01316 0.793773 0
M  V30 2551 C 245.369 2.24257 -2.53957 0
M  V30 2552 C 243.928 2.77852 -2.5392 0
M  V30 2553 C 243.075 1.52517 -2.3159 0
M  V30 2554 H 246.026 0.443717 -1.52371 0
M  V30 2555 H 246.047 3.0646 -2.25528 0
M  V30 2556 H 245.559 1.71382 -3.4821 0
M  V30 2557 H 243.66 3.34786 -1.63551 0
M  V30 2558 H 243.773 3.25299 -3.51735 0
M  V30 2559 H 242.137 1.79915 -1.80285 0
M  V30 2560 H 242.92 1.01574 -3.27929 0
M  V30 2561 N 245.365 1.30045 0.890287 0
M  V30 2562 C 246.613 1.18327 1.63839 0
M  V30 2563 C 246.934 -0.263455 1.93212 0
M  V30 2564 O 246.204 -1.17856 1.56482 0
M  V30 2565 H 244.784 0.434933 0.607324 0
M  V30 2566 H 247.446 1.631 1.06698 0
M  V30 2567 H 246.542 1.74024 2.59079 0
M  V30 2568 N 246.843 -1.10192 1.12674 0
M  V30 2569 C 248.089 -1.82658 0.894847 0
M  V30 2570 C 248.444 -1.83666 -0.573107 0
M  V30 2571 O 247.737 -1.28816 -1.41835 0
M  V30 2572 C 247.931 -3.28552 1.4067 0
M  V30 2573 C 247.76 -3.41756 2.92289 0
M  V30 2574 C 246.53 -3.54021 3.60551 0
M  V30 2575 C 248.728 -3.34949 3.90274 0
M  V30 2576 N 246.71 -3.55827 5.0026 0
M  V30 2577 C 248.081 -3.43531 5.16127 0
M  V30 2578 C 250.136 -3.18565 3.8265 0
M  V30 2579 C 248.839 -3.37416 6.3525 0
M  V30 2580 C 250.865 -3.13772 5.01299 0
M  V30 2581 C 250.227 -3.22938 6.26012 0
M  V30 2582 H 246.326 -0.683044 0.380756 0
M  V30 2583 H 248.91 -1.31752 1.43351 0
M  V30 2584 H 247.081 -3.77946 0.895055 0
M  V30 2585 H 248.813 -3.88991 1.11661 0
M  V30 2586 H 245.568 -3.57135 3.1105 0
M  V30 2587 H 245.992 -3.60335 5.73138 0
M  V30 2588 H 250.634 -3.10354 2.87124 0
M  V30 2589 H 248.352 -3.44391 7.3104 0
M  V30 2590 H 251.938 -3.02242 4.97133 0
M  V30 2591 H 250.818 -3.19235 7.16281 0
M  V30 2592 N 248.321 -0.919034 -1.28029 0
M  V30 2593 C 249.598 -0.473668 -1.89778 0
M  V30 2594 C 249.978 1.04783 -1.83259 0
M  V30 2595 O 249.326 1.8982 -1.27202 0
M  V30 2596 C 249.536 -1.00998 -3.34066 0
M  V30 2597 C 250.884 -1.06525 -4.1102 0
M  V30 2598 O 251.908 -0.958996 -3.43048 0
M  V30 2599 O 250.767 -1.22776 -5.3253 0
M  V30 2600 H 247.861 -0.15098 -0.813101 0
M  V30 2601 H 250.407 -1.01016 -1.36359 0
M  V30 2602 H 249.179 -2.05392 -3.33061 0
M  V30 2603 H 248.802 -0.454626 -3.94992 0
M  V30 2604 N 249.799 1.42003 -0.683588 0
M  V30 2605 C 251.045 2.01712 -0.209825 0
M  V30 2606 C 251.378 1.53968 1.18353 0
M  V30 2607 O 250.653 0.745661 1.79639 0
M  V30 2608 C 250.936 3.59202 -0.254197 0
M  V30 2609 C 250.789 4.17102 -1.68363 0
M  V30 2610 C 252.108 4.38344 0.392709 0
M  V30 2611 H 249.227 0.732891 -0.0777189 0
M  V30 2612 H 251.869 1.68909 -0.87004 0
M  V30 2613 H 250.019 3.87278 0.307954 0
M  V30 2614 H 251.691 3.99946 -2.29871 0
M  V30 2615 H 249.934 3.72597 -2.22157 0
M  V30 2616 H 250.605 5.26249 -1.6663 0
M  V30 2617 H 253.081 4.16011 -0.0859162 0
M  V30 2618 H 251.957 5.47901 0.331063 0
M  V30 2619 H 252.218 4.16887 1.47164 0
M  V30 2620 N 251.277 0.427512 1.51691 0
M  V30 2621 C 252.187 -0.39527 2.31246 0
M  V30 2622 C 253.203 -1.03674 1.39742 0
M  V30 2623 O 254.379 -1.03425 1.72816 0
M  V30 2624 C 251.444 -1.48706 3.13189 0
M  V30 2625 C 250.505 -0.866743 4.20459 0
M  V30 2626 C 249.738 -1.90651 4.98486 0
M  V30 2627 O 249.961 -3.12733 4.77026 0
M  V30 2628 O 248.895 -1.5025 5.82845 0
M  V30 2629 H 252.721 0.253918 3.02637 0
M  V30 2630 H 250.306 0.190274 1.48183 0
M  V30 2631 H 252.188 -2.12047 3.64162 0
M  V30 2632 H 250.863 -2.12051 2.44573 0
M  V30 2633 H 249.77 -0.195544 3.73589 0
M  V30 2634 H 251.103 -0.276934 4.9142 0
M  V30 2635 N 252.755 -1.56801 0.158532 0
M  V30 2636 C 254.166 -1.83189 -0.360366 0
M  V30 2637 C 254.517 -1.07778 -1.63946 0
M  V30 2638 O 253.642 -0.326718 -2.13919 0
M  V30 2639 C 254.237 -3.32297 -0.660595 0
M  V30 2640 C 252.796 -3.59227 -1.12398 0
M  V30 2641 C 251.943 -2.76877 -0.153097 0
M  V30 2642 H 254.894 -1.54008 0.383031 0
M  V30 2643 H 254.915 -3.4908 -1.51405 0
M  V30 2644 H 254.427 -3.87156 0.270527 0
M  V30 2645 H 252.528 -3.09766 -2.07064 0
M  V30 2646 H 252.641 -4.67632 -1.04197 0
M  V30 2647 H 251.005 -2.46319 -0.647983 0
M  V30 2648 H 251.788 -3.34511 0.77182 0
M  V30 2649 N 254.233 0.115231 -1.57178 0
M  V30 2650 C 255.479 0.82357 -1.85325 0
M  V30 2651 C 255.812 1.79349 -0.744814 0
M  V30 2652 O 255.087 1.92899 0.249024 0
M  V30 2653 C 255.37 1.57014 -3.24066 0
M  V30 2654 C 255.223 0.619565 -4.45513 0
M  V30 2655 C 256.542 2.52545 -3.60429 0
M  V30 2656 H 253.661 0.297948 -0.674089 0
M  V30 2657 H 256.303 0.0877138 -1.89797 0
M  V30 2658 H 254.453 2.19742 -3.20383 0
M  V30 2659 H 256.125 0.000837639 -4.613 0
M  V30 2660 H 254.368 -0.0686174 -4.33746 0
M  V30 2661 H 255.039 1.17866 -5.3927 0
M  V30 2662 H 257.515 1.9992 -3.64926 0
M  V30 2663 H 256.391 3.01811 -4.58477 0
M  V30 2664 H 256.652 3.35383 -2.88047 0
M  V30 2665 N 255.711 1.52812 0.385517 0
M  V30 2666 C 257.127 1.4214 0.725829 0
M  V30 2667 C 257.327 0.544589 1.94001 0
M  V30 2668 O 256.383 0.0193693 2.52493 0
M  V30 2669 C 257.696 2.85042 0.957668 0
M  V30 2670 C 259.244 2.94543 1.05892 0
M  V30 2671 C 259.719 4.38464 1.32337 0
M  V30 2672 N 261.21 4.41804 1.39151 0
M  V30 2673 C 261.945 5.5025 1.61285 0
M  V30 2674 N 261.441 6.68775 1.80866 0
M  V30 2675 N 263.234 5.37798 1.63492 0
M  V30 2676 H 255.385 2.08338 -0.413383 0
M  V30 2677 H 257.648 0.940016 -0.122775 0
M  V30 2678 H 257.354 3.51431 0.137568 0
M  V30 2679 H 257.228 3.27505 1.87137 0
M  V30 2680 H 259.615 2.28321 1.86959 0
M  V30 2681 H 259.696 2.55504 0.123057 0
M  V30 2682 H 259.34 5.05254 0.517793 0
M  V30 2683 H 259.27 4.75059 2.27214 0
M  V30 2684 H 261.761 3.56377 1.25713 0
M  V30 2685 H 262.074 7.47197 1.97271 0
M  V30 2686 H 260.419 6.71797 1.78083 0
M  V30 2687 H 263.61 4.44171 1.47749 0
M  V30 2688 H 263.783 6.22382 1.80402 0
M  V30 2689 N 257.189 -0.644168 1.43834 0
M  V30 2690 C 258.152 -1.73857 1.49353 0
M  V30 2691 C 259.152 -1.56315 0.377112 0
M  V30 2692 O 260.342 -1.62048 0.639226 0
M  V30 2693 C 257.474 -3.12819 1.35488 0
M  V30 2694 H 258.667 -1.70342 2.46827 0
M  V30 2695 H 256.22 -0.856652 1.30733 0
M  V30 2696 H 256.955 -3.2194 0.390569 0
M  V30 2697 H 256.74 -3.26958 2.16428 0
M  V30 2698 H 258.23 -3.92606 1.42302 0
M  V30 2699 N 258.668 -1.30515 -0.883378 0
M  V30 2700 C 259.914 -1.19607 -1.63774 0
M  V30 2701 C 260.247 0.248314 -1.92606 0
M  V30 2702 O 259.522 1.17742 -1.54813 0
M  V30 2703 C 259.805 -2.02669 -2.97653 0
M  V30 2704 C 259.658 -3.55335 -2.75784 0
M  V30 2705 C 260.977 -1.86573 -3.98596 0
M  V30 2706 H 258.096 -0.435856 -0.594305 0
M  V30 2707 H 260.738 -1.60165 -1.02212 0
M  V30 2708 H 258.888 -1.68208 -3.50197 0
M  V30 2709 H 260.56 -3.99863 -2.30016 0
M  V30 2710 H 258.803 -3.79438 -2.1026 0
M  V30 2711 H 259.474 -4.08745 -3.70988 0
M  V30 2712 H 261.95 -2.16703 -3.55217 0
M  V30 2713 H 260.826 -2.47014 -4.90179 0
M  V30 2714 H 261.087 -0.825321 -4.34328 0
M  V30 2715 N 260.146 1.09593 -1.13257 0
M  V30 2716 C 261.562 1.33775 -0.870423 0
M  V30 2717 C 261.762 1.95327 0.494926 0
M  V30 2718 O 260.818 2.19853 1.2418 0
M  V30 2719 C 262.131 2.25106 -1.99369 0
M  V30 2720 C 263.679 2.3862 -2.02558 0
M  V30 2721 C 264.154 3.33285 -3.14142 0
M  V30 2722 N 265.645 3.40857 -3.13641 0
M  V30 2723 C 266.38 4.14101 -3.96621 0
M  V30 2724 N 265.876 4.90157 -4.8961 0
M  V30 2725 N 267.669 4.09808 -3.84726 0
M  V30 2726 H 259.82 0.680136 -2.01216 0
M  V30 2727 H 262.083 0.362133 -0.876107 0
M  V30 2728 H 261.789 1.87103 -2.97801 0
M  V30 2729 H 261.663 3.25481 -1.90635 0
M  V30 2730 H 264.05 2.75887 -1.0474 0
M  V30 2731 H 264.131 1.38028 -2.15364 0
M  V30 2732 H 263.775 2.96741 -4.12198 0
M  V30 2733 H 263.705 4.33776 -2.98574 0
M  V30 2734 H 266.196 2.86624 -2.46282 0
M  V30 2735 H 266.509 5.4347 -5.49418 0
M  V30 2736 H 264.854 4.89251 -4.93617 0
M  V30 2737 H 268.045 3.4949 -3.11408 0
M  V30 2738 H 268.218 4.66629 -4.49623 0
M  V30 2739 N 261.624 0.925811 1.2754 0
M  V30 2740 C 262.534 0.428993 2.30644 0
M  V30 2741 C 263.55 -0.489387 1.66976 0
M  V30 2742 O 264.726 -0.372653 1.97922 0
M  V30 2743 C 261.791 -0.311967 3.45294 0
M  V30 2744 C 260.852 0.641098 4.24486 0
M  V30 2745 C 260.085 -0.0645955 5.33661 0
M  V30 2746 O 260.308 -1.28429 5.55754 0
M  V30 2747 O 259.242 0.606265 5.98839 0
M  V30 2748 H 263.068 1.28504 2.75173 0
M  V30 2749 H 260.653 0.691086 1.32455 0
M  V30 2750 H 262.535 -0.729972 4.15029 0
M  V30 2751 H 261.21 -1.14365 3.02824 0
M  V30 2752 H 260.117 1.10874 3.57292 0
M  V30 2753 H 261.45 1.43995 4.70666 0
M  V30 2754 N 263.102 -1.41638 0.69111 0
M  V30 2755 C 264.518 -1.55435 0.362224 0
M  V30 2756 C 264.718 -1.66754 -1.13117 0
M  V30 2757 O 263.774 -1.64348 -1.91692 0
M  V30 2758 C 265.087 -2.79588 1.10684 0
M  V30 2759 C 266.635 -2.9338 1.09075 0
M  V30 2760 C 267.11 -4.20414 1.81703 0
M  V30 2761 N 268.601 -4.27362 1.7865 0
M  V30 2762 C 269.336 -5.24507 2.31689 0
M  V30 2763 N 268.832 -6.27708 2.93179 0
M  V30 2764 N 270.625 -5.16416 2.2197 0
M  V30 2765 H 262.776 -1.32536 1.65976 0
M  V30 2766 H 265.039 -0.639115 0.700168 0
M  V30 2767 H 264.745 -2.77419 2.16175 0
M  V30 2768 H 264.619 -3.70973 0.682545 0
M  V30 2769 H 267.006 -2.95067 0.0441238 0
M  V30 2770 H 267.087 -2.0318 1.55407 0
M  V30 2771 H 266.731 -4.19488 2.86343 0
M  V30 2772 H 266.661 -5.09578 1.32808 0
M  V30 2773 H 269.152 -3.53415 1.33815 0
M  V30 2774 H 269.465 -6.98217 3.31229 0
M  V30 2775 H 267.81 -6.28223 2.97255 0
M  V30 2776 H 271.001 -4.34716 1.73607 0
M  V30 2777 H 271.174 -5.91958 2.63609 0
M  V30 2778 N 264.58 -0.43555 -1.51462 0
M  V30 2779 C 265.827 0.131514 -2.02072 0
M  V30 2780 C 266.155 1.42868 -1.31981 0
M  V30 2781 O 265.41 1.91076 -0.422883 0
M  V30 2782 C 265.709 0.39942 -3.55161 0
M  V30 2783 C 265.375 -0.81172 -4.43533 0
M  V30 2784 C 264.037 -1.14387 -4.67407 0
M  V30 2785 C 266.389 -1.61976 -4.95392 0
M  V30 2786 C 263.717 -2.28477 -5.40384 0
M  V30 2787 C 266.069 -2.75164 -5.6962 0
M  V30 2788 C 264.733 -3.08835 -5.91758 0
M  V30 2789 H 264.003 0.0481244 -0.739436 0
M  V30 2790 H 266.65 -0.58238 -1.8243 0
M  V30 2791 H 264.955 1.19519 -3.73125 0
M  V30 2792 H 266.652 0.85157 -3.91854 0
M  V30 2793 H 263.242 -0.542898 -4.25148 0
M  V30 2794 H 267.426 -1.37637 -4.76833 0
M  V30 2795 H 262.682 -2.5488 -5.55739 0
M  V30 2796 H 266.856 -3.38147 -6.08793 0
M  V30 2797 H 264.483 -3.97353 -6.48086 0
M  V30 2798 N 266.058 1.56714 -0.166846 0
M  V30 2799 C 267.306 1.96358 0.478305 0
M  V30 2800 C 267.627 1.0537 1.6408 0
M  V30 2801 O 266.897 0.119154 1.95537 0
M  V30 2802 H 265.477 0.725065 0.179692 0
M  V30 2803 H 268.139 1.93329 -0.246985 0
M  V30 2804 H 267.235 3.00547 0.841292 0
M  V30 2805 N 267.536 -0.106894 1.57237 0
M  V30 2806 C 268.813 -0.843526 1.76477 0
M  V30 2807 C 269.193 -1.97499 0.745464 0
M  V30 2808 O 268.541 -2.27357 -0.228306 0
M  V30 2809 C 268.751 -1.34903 3.21873 0
M  V30 2810 C 270.099 -1.79654 3.8472 0
M  V30 2811 O 271.123 -1.44554 3.2555 0
M  V30 2812 O 269.982 -2.44515 4.88748 0
M  V30 2813 H 267.076 -0.401468 0.723016 0
M  V30 2814 H 269.622 -0.0896927 1.69463 0
M  V30 2815 H 268.394 -0.53781 3.87586 0
M  V30 2816 H 268.017 -2.16522 3.33473 0
M  V30 2817 N 269.014 -1.53014 -0.377408 0
M  V30 2818 C 270.291 -1.59215 -1.13622 0
M  V30 2819 C 270.671 -0.392407 -2.07421 0
M  V30 2820 O 270.019 0.618342 -2.19975 0
M  V30 2821 C 270.229 -2.93669 -1.88573 0
M  V30 2822 C 271.577 -3.47822 -2.43526 0
M  V30 2823 O 272.601 -2.9562 -1.98715 0
M  V30 2824 O 271.46 -4.39055 -3.25412 0
M  V30 2825 H 268.554 -0.642625 -0.52054 0
M  V30 2826 H 271.1 -1.65353 -0.381625 0
M  V30 2827 H 269.872 -3.7243 -1.20048 0
M  V30 2828 H 269.495 -2.90968 -2.70968 0
M  V30 2829 N 270.492 0.636531 -1.44174 0
M  V30 2830 C 271.738 1.39826 -1.4689 0
M  V30 2831 C 272.071 1.93947 -0.0990585 0
M  V30 2832 O 271.346 1.73325 0.882544 0
M  V30 2833 C 271.629 2.56751 -2.5249 0
M  V30 2834 C 271.482 2.08014 -3.98811 0
M  V30 2835 C 272.801 3.58946 -2.54649 0
M  V30 2836 H 269.92 0.507075 -0.53483 0
M  V30 2837 H 272.562 0.720188 -1.75822 0
M  V30 2838 H 270.712 3.14597 -2.2795 0
M  V30 2839 H 272.384 1.5504 -4.34466 0
M  V30 2840 H 270.627 1.39242 -4.10846 0
M  V30 2841 H 271.298 2.92169 -4.68339 0
M  V30 2842 H 273.774 3.1089 -2.76563 0
M  V30 2843 H 272.65 4.38286 -3.3045 0
M  V30 2844 H 272.911 4.12655 -1.58646 0
M  V30 2845 N 271.97 1.30982 0.876444 0
M  V30 2846 C 272.9 1.20668 1.99903 0
M  V30 2847 C 273.881 0.095354 1.69833 0
M  V30 2848 O 275.066 0.27885 1.92188 0
M  V30 2849 C 272.196 0.90655 3.3526 0
M  V30 2850 C 271.15 1.97675 3.79617 0
M  V30 2851 C 270.476 1.52943 5.1236 0
M  V30 2852 C 271.776 3.389 3.97422 0
M  V30 2853 H 273.47 2.14586 2.0879 0
M  V30 2854 H 271.016 1.03308 1.00317 0
M  V30 2855 H 272.969 0.821025 4.13324 0
M  V30 2856 H 271.693 -0.0682969 3.26529 0
M  V30 2857 H 270.352 2.05205 3.03787 0
M  V30 2858 H 270 0.54262 5.00065 0
M  V30 2859 H 269.7 2.24532 5.43009 0
M  V30 2860 H 271.224 1.45786 5.92941 0
M  V30 2861 H 272.638 3.34081 4.659 0
M  V30 2862 H 271.035 4.0865 4.3946 0
M  V30 2863 H 272.105 3.80163 3.01006 0
M  V30 2864 N 273.449 -1.08991 1.13837 0
M  V30 2865 C 274.379 -2.17771 0.842507 0
M  V30 2866 C 275.36 -1.6892 -0.20001 0
M  V30 2867 O 276.545 -1.94113 -0.0579731 0
M  V30 2868 C 273.675 -3.4589 0.312644 0
M  V30 2869 C 272.629 -4.08099 1.28992 0
M  V30 2870 C 271.955 -5.31098 0.619623 0
M  V30 2871 C 273.255 -4.50077 2.65005 0
M  V30 2872 H 274.949 -2.42777 1.75213 0
M  V30 2873 H 272.495 -1.16682 0.843875 0
M  V30 2874 H 274.448 -4.21297 0.0933043 0
M  V30 2875 H 273.172 -3.20419 -0.632382 0
M  V30 2876 H 271.831 -3.34717 1.49533 0
M  V30 2877 H 271.479 -5.0191 -0.33102 0
M  V30 2878 H 271.179 -5.73674 1.27167 0
M  V30 2879 H 272.703 -6.09224 0.409669 0
M  V30 2880 H 274.117 -5.16688 2.48407 0
M  V30 2881 H 272.514 -5.03553 3.26427 0
M  V30 2882 H 273.584 -3.62257 3.22332 0
M  V30 2883 N 274.927 -0.932562 -1.27047 0
M  V30 2884 C 275.859 -0.392734 -2.2581 0
M  V30 2885 C 276.872 0.479241 -1.55586 0
M  V30 2886 O 278.061 0.291078 -1.76111 0
M  V30 2887 C 275.161 0.455456 -3.35826 0
M  V30 2888 C 274.334 -0.398355 -4.35582 0
M  V30 2889 C 273.393 0.387985 -5.24768 0
M  V30 2890 O 272.419 -0.206003 -5.68827 0
M  V30 2891 N 273.621 1.68664 -5.55457 0
M  V30 2892 H 276.386 -1.24173 -2.72766 0
M  V30 2893 H 273.947 -0.800511 -1.40725 0
M  V30 2894 H 275.939 0.988692 -3.92437 0
M  V30 2895 H 274.509 1.20522 -2.88432 0
M  V30 2896 H 273.729 -1.11286 -3.78165 0
M  V30 2897 H 275.017 -0.981889 -4.99236 0
M  V30 2898 H 274.415 2.19147 -5.21528 0
M  V30 2899 H 272.972 2.1663 -6.14748 0
M  V30 2900 N 276.405 1.4127 -0.698611 0
M  V30 2901 C 277.651 2.01478 -0.231207 0
M  V30 2902 C 277.984 1.55215 1.16713 0
M  V30 2903 O 277.259 0.764672 1.78838 0
M  V30 2904 C 277.542 3.58912 -0.292281 0
M  V30 2905 C 277.395 4.15293 -1.72778 0
M  V30 2906 C 278.714 4.38736 0.346194 0
M  V30 2907 H 275.833 0.732025 -0.0854878 0
M  V30 2908 H 278.475 1.67977 -0.887906 0
M  V30 2909 H 276.625 3.87582 0.26686 0
M  V30 2910 H 278.297 3.97486 -2.341 0
M  V30 2911 H 276.54 3.7022 -2.26096 0
M  V30 2912 H 277.211 5.24452 -1.72202 0
M  V30 2913 H 279.687 4.15897 -0.130035 0
M  V30 2914 H 278.563 5.48221 0.272932 0
M  V30 2915 H 278.824 4.18425 1.42734 0
M  V30 2916 N 277.883 0.443576 1.51229 0
M  V30 2917 C 279.16 -0.181038 1.9476 0
M  V30 2918 C 279.54 -1.59523 1.38259 0
M  V30 2919 O 278.888 -2.2122 0.572198 0
M  V30 2920 C 279.098 -0.152422 3.48667 0
M  V30 2921 C 280.446 -0.354923 4.23114 0
M  V30 2922 O 281.47 -0.230257 3.55455 0
M  V30 2923 O 280.329 -0.603674 5.43156 0
M  V30 2924 H 277.423 -0.1266 0.817252 0
M  V30 2925 H 279.969 0.502004 1.62105 0
M  V30 2926 H 278.741 0.836022 3.82265 0
M  V30 2927 H 278.364 -0.878107 3.87782 0
M  V30 2928 N 279.361 -1.56624 0.175154 0
M  V30 2929 C 280.324 -2.16934 -0.739738 0
M  V30 2930 C 281.324 -1.11842 -1.15533 0
M  V30 2931 O 282.514 -1.37335 -1.07167 0
M  V30 2932 C 279.646 -2.75531 -2.00738 0
M  V30 2933 H 280.839 -2.99131 -0.214639 0
M  V30 2934 H 278.392 -1.56123 -0.0744197 0
M  V30 2935 H 279.127 -1.97078 -2.57548 0
M  V30 2936 H 278.912 -3.52444 -1.71831 0
M  V30 2937 H 280.402 -3.21904 -2.66021 0
M  V30 2938 N 280.839 0.0985539 -1.57292 0
M  V30 2939 C 281.787 1.1387 -2.02821 0
M  V30 2940 C 282.781 1.41676 -0.928666 0
M  V30 2941 O 283.987 1.41398 -1.11385 0
M  V30 2942 H 280.362 0.384419 -0.646317 0
M  V30 2943 H 282.333 0.728347 -2.89375 0
M  V30 2944 C 281.082 2.45166 -2.46554 0
M  V30 2945 H 280.405 2.24613 -3.3074 0
M  V30 2946 H 281.845 3.16456 -2.8219 0
M  V30 2947 C 280.304 3.09216 -1.33742 0
M  V30 2948 O 280.834 3.96163 -0.66464 0
M  V30 2949 N 279.04 2.69413 -1.08928 0
M  V30 2950 H 278.587 1.98801 -1.63817 0
M  V30 2951 H 278.545 3.12594 -0.336458 0
M  V30 2952 N 282.317 1.53212 0.369288 0
M  V30 2953 C 283.545 1.73119 1.13303 0
M  V30 2954 C 283.96 0.458455 1.83149 0
M  V30 2955 O 283.317 -0.568403 1.73423 0
M  V30 2956 C 283.368 2.89413 2.16616 0
M  V30 2957 O 283.089 4.11761 1.49614 0
M  V30 2958 C 284.59 3.21161 3.05566 0
M  V30 2959 H 281.81 0.579107 0.338934 0
M  V30 2960 H 284.354 1.99942 0.429338 0
M  V30 2961 H 282.509 2.64994 2.82589 0
M  V30 2962 H 282.923 4.76858 2.18419 0
M  V30 2963 H 284.397 4.05949 3.74045 0
M  V30 2964 H 284.874 2.36369 3.70171 0
M  V30 2965 H 285.48 3.47492 2.45213 0
M  V30 2966 N 283.795 -0.628877 1.44509 0
M  V30 2967 C 284.758 -1.72263 1.51188 0
M  V30 2968 C 285.758 -1.55907 0.39367 0
M  V30 2969 O 286.948 -1.61361 0.656377 0
M  V30 2970 C 284.08 -3.11365 1.38798 0
M  V30 2971 H 285.273 -1.67714 2.4862 0
M  V30 2972 H 282.826 -0.842737 1.31634 0
M  V30 2973 H 283.561 -3.21507 0.424693 0
M  V30 2974 H 283.346 -3.24644 2.19884 0
M  V30 2975 H 284.836 -3.91075 1.46458 0
M  V30 2976 N 285.273 -1.31445 -0.869486 0
M  V30 2977 C 286.503 -1.23942 -1.65294 0
M  V30 2978 C 286.911 0.197561 -1.88166 0
M  V30 2979 O 286.254 1.14019 -1.44033 0
M  V30 2980 C 286.316 -1.91385 -3.04322 0
M  V30 2981 C 285.98 -3.40726 -3.04557 0
M  V30 2982 C 286.977 -4.36464 -2.82481 0
M  V30 2983 C 284.662 -3.82425 -3.25663 0
M  V30 2984 C 286.656 -5.71876 -2.8149 0
M  V30 2985 C 284.343 -5.1795 -3.243 0
M  V30 2986 C 285.341 -6.12486 -3.02241 0
M  V30 2987 O 285.029 -7.45534 -3.00724 0
M  V30 2988 H 284.761 -0.429459 -0.522054 0
M  V30 2989 H 287.315 -1.73873 -1.0935 0
M  V30 2990 H 285.545 -1.36004 -3.61994 0
M  V30 2991 H 287.234 -1.77791 -3.64891 0
M  V30 2992 H 288 -4.05576 -2.65956 0
M  V30 2993 H 283.879 -3.09274 -3.41863 0
M  V30 2994 H 287.423 -6.45638 -2.64191 0
M  V30 2995 H 283.32 -5.48473 -3.40365 0
M  V30 2996 H 284.088 -7.54713 -3.16782 0
M  V30 2997 N 286.751 1.08385 -1.14413 0
M  V30 2998 C 287.979 1.84517 -0.936001 0
M  V30 2999 C 288.394 1.81626 0.515503 0
M  V30 3000 O 287.751 1.22008 1.35721 0
M  V30 3001 C 287.802 3.32049 -1.42918 0
M  V30 3002 O 287.523 3.34951 -2.82381 0
M  V30 3003 C 289.024 4.24986 -1.26103 0
M  V30 3004 H 286.244 0.582491 -0.333084 0
M  V30 3005 H 288.788 1.36885 -1.5193 0
M  V30 3006 H 286.943 3.7707 -0.888641 0
M  V30 3007 H 287.357 4.27048 -3.04517 0
M  V30 3008 H 288.831 5.26615 -1.6547 0
M  V30 3009 H 289.308 4.38726 -0.20392 0
M  V30 3010 H 289.914 3.85791 -1.79012 0
M  V30 3011 N 288.23 0.939286 1.26551 0
M  V30 3012 C 289.16 0.465044 2.28822 0
M  V30 3013 C 290.141 -0.480692 1.63167 0
M  V30 3014 O 291.326 -0.382955 1.90387 0
M  V30 3015 C 288.456 -0.27234 3.46231 0
M  V30 3016 C 287.41 0.58666 4.2396 0
M  V30 3017 C 286.736 -0.280573 5.33963 0
M  V30 3018 C 288.036 1.85704 4.88171 0
M  V30 3019 H 289.73 1.31979 2.68741 0
M  V30 3020 H 287.276 0.636061 1.29191 0
M  V30 3021 H 289.229 -0.615133 4.16886 0
M  V30 3022 H 287.953 -1.16121 3.0526 0
M  V30 3023 H 286.612 0.91232 3.55067 0
M  V30 3024 H 286.26 -1.16874 4.89234 0
M  V30 3025 H 285.96 0.29076 5.8688 0
M  V30 3026 H 287.484 -0.618678 6.07458 0
M  V30 3027 H 288.898 1.58161 5.51052 0
M  V30 3028 H 287.295 2.37279 5.51197 0
M  V30 3029 H 288.365 2.56957 4.11219 0
M  V30 3030 N 289.708 -1.40897 0.706093 0
M  V30 3031 C 290.956 -2.00657 0.241054 0
M  V30 3032 C 291.277 -1.56241 -1.16678 0
M  V30 3033 O 290.547 -0.79765 -1.78926 0
M  V30 3034 H 289.127 -0.742018 0.0861308 0
M  V30 3035 H 291.789 -1.72372 0.909604 0
M  V30 3036 H 290.885 -3.10958 0.266705 0
M  V30 3037 N 291.186 -0.45159 -1.50991 0
M  V30 3038 C 292.463 0.170707 -1.94854 0
M  V30 3039 C 292.843 1.58788 -1.39103 0
M  V30 3040 O 292.191 2.20913 -0.583921 0
M  V30 3041 C 292.401 0.133929 -3.48743 0
M  V30 3042 C 293.749 0.33248 -4.23296 0
M  V30 3043 O 294.773 0.211403 -3.55572 0
M  V30 3044 O 293.632 0.57486 -5.43468 0
M  V30 3045 H 290.726 0.122264 -0.817912 0
M  V30 3046 H 293.272 -0.510594 -1.61836 0
M  V30 3047 H 292.044 -0.856283 -3.81816 0
M  V30 3048 H 291.667 0.857529 -3.88242 0
M  V30 3049 N 292.664 1.56529 -0.183458 0
M  V30 3050 C 293.627 2.17324 0.728223 0
M  V30 3051 C 294.627 1.12453 1.14939 0
M  V30 3052 O 295.817 1.37902 1.06437 0
M  V30 3053 C 292.949 2.76591 1.99274 0
M  V30 3054 H 294.142 2.99241 0.198772 0
M  V30 3055 H 291.695 1.5616 0.0661391 0
M  V30 3056 H 292.43 1.98441 2.56499 0
M  V30 3057 H 292.215 3.5335 1.69959 0
M  V30 3058 H 293.705 3.23311 2.6431 0
M  V30 3059 N 294.142 -0.090211 1.57342 0
M  V30 3060 C 295.553 -0.644173 1.75235 0
M  V30 3061 C 295.904 -1.78865 0.806335 0
M  V30 3062 O 295.029 -2.16395 -0.0140128 0
M  V30 3063 C 295.624 -1.17532 3.1776 0
M  V30 3064 C 294.183 -1.67531 3.37061 0
M  V30 3065 C 293.33 -0.58693 2.71017 0
M  V30 3066 H 296.281 0.135884 1.58117 0
M  V30 3067 H 296.302 -2.04455 3.20902 0
M  V30 3068 H 295.814 -0.342138 3.86589 0
M  V30 3069 H 293.915 -2.53234 2.73319 0
M  V30 3070 H 294.028 -1.76493 4.45406 0
M  V30 3071 H 292.392 -1.02756 2.33052 0
M  V30 3072 H 293.175 0.235758 3.4249 0
M  V30 3073 N 295.62 -1.53406 -0.361157 0
M  V30 3074 C 296.552 -1.76446 -1.46286 0
M  V30 3075 C 297.565 -0.645322 -1.49464 0
M  V30 3076 O 298.754 -0.921681 -1.52864 0
M  V30 3077 C 295.854 -1.83332 -2.85031 0
M  V30 3078 C 295.027 -3.13033 -3.05498 0
M  V30 3079 C 294.086 -3.11104 -4.24383 0
M  V30 3080 O 293.112 -3.84888 -4.19344 0
M  V30 3081 N 294.314 -2.32234 -5.32022 0
M  V30 3082 H 297.079 -2.71508 -1.26899 0
M  V30 3083 H 294.64 -1.52238 -0.550915 0
M  V30 3084 H 296.632 -1.79514 -3.62708 0
M  V30 3085 H 295.202 -0.955342 -2.97644 0
M  V30 3086 H 294.422 -3.30119 -2.15442 0
M  V30 3087 H 295.71 -3.9874 -3.16044 0
M  V30 3088 H 295.108 -1.71807 -5.38979 0
M  V30 3089 H 293.665 -2.3423 -6.08259 0
M  V30 3090 N 297.098 0.621204 -1.44841 0
M  V30 3091 C 298.028 1.74366 -1.55303 0
M  V30 3092 C 299.009 1.65199 -0.405385 0
M  V30 3093 O 300.194 1.83807 -0.626787 0
M  V30 3094 C 297.324 3.12931 -1.50637 0
M  V30 3095 C 296.278 3.36896 -2.63979 0
M  V30 3096 C 295.604 4.75594 -2.44366 0
M  V30 3097 C 296.904 3.28483 -4.06074 0
M  V30 3098 H 298.598 1.65867 -2.49256 0
M  V30 3099 H 296.144 0.796558 -1.19962 0
M  V30 3100 H 298.097 3.9124 -1.56555 0
M  V30 3101 H 296.821 3.22237 -0.532057 0
M  V30 3102 H 295.48 2.60972 -2.57467 0
M  V30 3103 H 295.128 4.81616 -1.45105 0
M  V30 3104 H 294.828 4.92586 -3.20364 0
M  V30 3105 H 296.352 5.5612 -2.52117 0
M  V30 3106 H 297.766 3.96684 -4.13902 0
M  V30 3107 H 296.163 3.57008 -4.82354 0
M  V30 3108 H 297.233 2.26133 -4.28943 0
M  V30 3109 N 298.576 1.31904 0.862503 0
M  V30 3110 C 299.539 1.20131 1.95195 0
M  V30 3111 C 300.539 0.126409 1.60302 0
M  V30 3112 O 301.729 0.376234 1.70089 0
M  V30 3113 C 298.861 0.845691 3.30244 0
M  V30 3114 H 300.054 2.16943 2.07064 0
M  V30 3115 H 297.607 1.15622 1.05172 0
M  V30 3116 H 298.342 -0.120957 3.24074 0
M  V30 3117 H 298.127 1.62276 3.56944 0
M  V30 3118 H 299.617 0.787418 4.10109 0
M  V30 3119 N 300.054 -1.07777 1.14986 0
M  V30 3120 C 301.47 -1.32373 0.891596 0
M  V30 3121 C 301.67 -1.9609 -0.463788 0
M  V30 3122 O 300.726 -2.21801 -1.20667 0
M  V30 3123 C 302.039 -2.21905 2.02925 0
M  V30 3124 C 303.587 -2.35367 2.06329 0
M  V30 3125 C 304.062 -3.28245 3.19405 0
M  V30 3126 N 305.553 -3.35824 3.19024 0
M  V30 3127 C 306.288 -4.07739 4.03158 0
M  V30 3128 N 305.784 -4.82306 4.97346 0
M  V30 3129 N 307.577 -4.03635 3.91197 0
M  V30 3130 H 299.728 -0.648039 2.02273 0
M  V30 3131 H 301.991 -0.348149 0.881757 0
M  V30 3132 H 301.697 -1.82342 3.0074 0
M  V30 3133 H 301.571 -3.22407 1.95789 0
M  V30 3134 H 303.958 -2.74186 1.09116 0
M  V30 3135 H 304.039 -1.34585 2.17533 0
M  V30 3136 H 303.683 -2.90146 4.16867 0
M  V30 3137 H 303.613 -4.28971 3.05437 0
M  V30 3138 H 306.104 -2.8267 2.50811 0
M  V30 3139 H 306.417 -5.34661 5.57994 0
M  V30 3140 H 304.762 -4.81337 5.01338 0
M  V30 3141 H 307.953 -3.44491 3.16928 0
M  V30 3142 H 308.126 -4.59417 4.5699 0
M  V30 3143 N 301.532 -0.945985 -1.26051 0
M  V30 3144 C 302.462 -0.477172 -2.28572 0
M  V30 3145 C 303.443 0.472032 -1.63419 0
M  V30 3146 O 304.628 0.372853 -1.90587 0
M  V30 3147 C 301.758 0.253975 -3.4637 0
M  V30 3148 C 300.712 -0.609135 -4.23643 0
M  V30 3149 C 300.038 0.252252 -5.34105 0
M  V30 3150 C 301.338 -1.8829 -4.8718 0
M  V30 3151 H 303.032 -1.33402 -2.68038 0
M  V30 3152 H 300.578 -0.642904 -1.28852 0
M  V30 3153 H 302.531 0.593016 -4.17207 0
M  V30 3154 H 301.255 1.145 -3.05871 0
M  V30 3155 H 299.914 -0.931138 -3.54578 0
M  V30 3156 H 299.562 1.14278 -4.89846 0
M  V30 3157 H 299.262 -0.32188 -5.86718 0
M  V30 3158 H 300.786 0.586454 -6.07777 0
M  V30 3159 H 302.2 -1.61081 -5.50205 0
M  V30 3160 H 300.597 -2.40199 -5.49931 0
M  V30 3161 H 301.667 -2.59134 -4.09851 0
M  V30 3162 N 303.011 1.40521 -0.713556 0
M  V30 3163 C 304.288 1.94775 -0.17943 0
M  V30 3164 C 304.668 1.65184 1.31444 0
M  V30 3165 O 304.016 0.968429 2.06963 0
M  V30 3166 C 304.226 3.45543 -0.489986 0
M  V30 3167 C 305.574 4.22442 -0.427536 0
M  V30 3168 O 306.598 3.53644 -0.425929 0
M  V30 3169 O 305.457 5.4501 -0.403292 0
M  V30 3170 H 302.551 0.826606 -0.0255192 0
M  V30 3171 H 305.097 1.5014 -0.790949 0
M  V30 3172 H 303.869 3.60432 -1.5233 0
M  V30 3173 H 303.492 3.97311 0.151598 0
M  V30 3174 N 304.489 0.459591 1.5075 0
M  V30 3175 C 305.9 0.00171547 1.867 0
M  V30 3176 C 306.251 -1.39934 1.37525 0
M  V30 3177 O 305.376 -2.03523 0.735349 0
M  V30 3178 C 305.971 -0.00366298 3.388 0
M  V30 3179 C 304.53 -0.406026 3.74204 0
M  V30 3180 C 303.677 0.38673 2.7459 0
M  V30 3181 H 306.628 0.674413 1.43657 0
M  V30 3182 H 306.649 -0.808371 3.71814 0
M  V30 3183 H 306.161 1.01617 3.74561 0
M  V30 3184 H 304.262 -1.43063 3.4404 0
M  V30 3185 H 304.375 -0.115362 4.78961 0
M  V30 3186 H 302.739 -0.158019 2.54209 0
M  V30 3187 H 303.522 1.40585 3.13194 0
M  V30 3188 N 305.967 -1.56429 0.191757 0
M  V30 3189 C 307.214 -1.97485 -0.447891 0
M  V30 3190 C 307.542 -1.07852 -1.61859 0
M  V30 3191 O 306.797 -0.116903 -1.95351 0
M  V30 3192 C 307.096 -3.44449 -0.953384 0
M  V30 3193 C 306.762 -4.50781 0.103586 0
M  V30 3194 C 305.424 -4.79584 0.394023 0
M  V30 3195 C 307.776 -5.1471 0.819946 0
M  V30 3196 C 305.104 -5.69607 1.40585 0
M  V30 3197 C 307.456 -6.05827 1.8209 0
M  V30 3198 C 306.12 -6.32987 2.11857 0
M  V30 3199 H 305.39 -0.722648 -0.163895 0
M  V30 3200 H 308.037 -1.89322 0.28802 0
M  V30 3201 H 306.342 -3.49666 -1.76751 0
M  V30 3202 H 308.039 -3.73569 -1.45765 0
M  V30 3203 H 304.629 -4.28394 -0.132951 0
M  V30 3204 H 308.813 -4.92552 0.608789 0
M  V30 3205 H 304.069 -5.88926 1.64243 0
M  V30 3206 H 308.243 -6.54424 2.38123 0
M  V30 3207 H 305.87 -7.02544 2.90407 0
M  V30 3208 N 307.445 0.0818655 -1.57387 0
M  V30 3209 C 308.693 0.781368 -1.86384 0
M  V30 3210 C 309.014 1.78618 -0.782342 0
M  V30 3211 O 308.284 1.94976 0.190061 0
M  V30 3212 H 306.864 0.291562 -0.687751 0
M  V30 3213 H 309.526 0.060348 -1.94807 0
M  V30 3214 H 308.622 1.3038 -2.83562 0
M  V30 3215 N 308.923 1.53595 0.353017 0
M  V30 3216 C 309.853 1.83902 1.43883 0
M  V30 3217 C 310.834 0.693421 1.55324 0
M  V30 3218 O 312.019 0.944452 1.69687 0
M  V30 3219 C 309.149 2.04016 2.8106 0
M  V30 3220 C 308.103 3.19814 2.84434 0
M  V30 3221 C 307.429 3.25244 4.24406 0
M  V30 3222 C 308.729 4.58133 2.50822 0
M  V30 3223 H 310.423 2.74835 1.1877 0
M  V30 3224 H 307.969 1.32242 0.569917 0
M  V30 3225 H 309.922 2.238 3.57059 0
M  V30 3226 H 308.646 1.09804 3.07588 0
M  V30 3227 H 307.305 2.9987 2.10887 0
M  V30 3228 H 306.953 2.28646 4.48029 0
M  V30 3229 H 306.653 4.03054 4.27576 0
M  V30 3230 H 308.177 3.47228 5.0226 0
M  V30 3231 H 309.591 4.77995 3.16534 0
M  V30 3232 H 307.988 5.38276 2.6529 0
M  V30 3233 H 309.058 4.62387 1.46034 0
M  V30 3234 N 310.401 -0.613514 1.45168 0
M  V30 3235 C 311.331 -1.7354 1.56225 0
M  V30 3236 C 312.312 -1.64981 0.41414 0
M  V30 3237 O 313.497 -1.83472 0.636526 0
M  V30 3238 C 310.627 -3.12128 1.52295 0
M  V30 3239 C 309.581 -3.35491 2.65762 0
M  V30 3240 C 308.907 -4.74291 2.46885 0
M  V30 3241 C 310.207 -3.26325 4.0781 0
M  V30 3242 H 311.901 -1.64543 2.50132 0
M  V30 3243 H 309.447 -0.790185 1.20383 0
M  V30 3244 H 311.4 -3.90404 1.58628 0
M  V30 3245 H 310.124 -3.2195 0.549139 0
M  V30 3246 H 308.783 -2.59603 2.58847 0
M  V30 3247 H 308.431 -4.80839 1.47657 0
M  V30 3248 H 308.131 -4.9088 3.22972 0
M  V30 3249 H 309.655 -5.54775 2.55063 0
M  V30 3250 H 311.069 -3.94483 4.16 0
M  V30 3251 H 309.466 -3.54445 4.8424 0
M  V30 3252 H 310.536 -2.23855 4.30136 0
M  V30 3253 N 311.879 -1.3236 -0.855495 0
M  V30 3254 C 312.809 -1.23833 -1.97958 0
M  V30 3255 C 313.79 -0.122361 -1.69659 0
M  V30 3256 O 314.975 -0.30939 -1.9172 0
M  V30 3257 C 312.105 -0.959772 -3.33775 0
M  V30 3258 C 311.059 -2.03689 -3.76424 0
M  V30 3259 C 310.385 -1.61075 -5.09862 0
M  V30 3260 C 311.685 -3.4518 -3.9198 0
M  V30 3261 H 313.379 -2.1788 -2.0535 0
M  V30 3262 H 310.925 -1.04891 -0.986605 0
M  V30 3263 H 312.878 -0.886678 -4.11966 0
M  V30 3264 H 311.602 0.0163404 -3.26596 0
M  V30 3265 H 310.261 -2.10012 -3.00484 0
M  V30 3266 H 309.909 -0.622107 -4.99138 0
M  V30 3267 H 309.609 -2.33143 -5.39368 0
M  V30 3268 H 311.133 -1.55201 -5.90546 0
M  V30 3269 H 312.547 -3.4145 -4.60526 0
M  V30 3270 H 310.944 -4.1559 -4.32903 0
M  V30 3271 H 312.014 -3.84903 -2.94919 0
M  V30 3272 N 313.357 1.07166 -1.15556 0
M  V30 3273 C 314.606 1.79181 -0.926132 0
M  V30 3274 C 314.919 1.87768 0.547967 0
M  V30 3275 O 316.125 2.56323 0.895036 0
M  V30 3276 C 314.581 3.22 -1.60761 0
M  V30 3277 C 314.189 3.21607 -3.11886 0
M  V30 3278 C 315.933 3.9861 -1.4598 0
M  V30 3279 C 313.84 4.59092 -3.72812 0
M  V30 3280 H 312.77 0.67154 -0.342856 0
M  V30 3281 H 315.421 1.2027 -1.3859 0
M  V30 3282 H 313.803 3.81115 -1.07553 0
M  V30 3283 H 314.977 2.72127 -3.71865 0
M  V30 3284 H 313.292 2.58495 -3.2645 0
M  V30 3285 H 315.889 5.00225 -1.88888 0
M  V30 3286 H 316.232 4.143 -0.407541 0
M  V30 3287 H 316.765 3.45996 -1.96295 0
M  V30 3288 H 313.504 4.48606 -4.77946 0
M  V30 3289 H 313.024 5.08803 -3.17616 0
M  V30 3290 H 314.703 5.28059 -3.73848 0
M  V30 3291 N 314.835 0.952656 1.25548 0
M  V30 3292 C 315.745 0.47782 2.29682 0
M  V30 3293 C 316.761 -0.453859 1.67977 0
M  V30 3294 O 317.937 -0.330587 1.98668 0
M  V30 3295 C 315.002 -0.238655 3.45878 0
M  V30 3296 C 314.063 0.730994 4.23031 0
M  V30 3297 C 313.296 0.0486165 5.33678 0
M  V30 3298 O 313.519 -1.16612 5.58353 0
M  V30 3299 O 312.453 0.733152 5.97418 0
M  V30 3300 H 316.279 1.34312 2.72386 0
M  V30 3301 H 313.864 0.719026 1.30959 0
M  V30 3302 H 315.746 -0.641774 4.16484 0
M  V30 3303 H 314.421 -1.07916 3.05181 0
M  V30 3304 H 313.328 1.18428 3.5486 0
M  V30 3305 H 314.661 1.53946 4.67506 0
M  V30 3306 N 316.313 -1.40141 0.720998 0
M  V30 3307 C 317.245 -2.29177 0.0324669 0
M  V30 3308 C 318.258 -1.46105 -0.718126 0
M  V30 3309 O 319.447 -1.69335 -0.564608 0
M  V30 3310 C 316.547 -3.24473 -0.978292 0
M  V30 3311 C 315.72 -4.36423 -0.292115 0
M  V30 3312 C 314.779 -5.12122 -1.20901 0
M  V30 3313 O 313.805 -5.64981 -0.691766 0
M  V30 3314 N 315.007 -5.21992 -2.53978 0
M  V30 3315 H 317.772 -2.88909 0.796984 0
M  V30 3316 H 315.333 -1.51569 0.569068 0
M  V30 3317 H 317.325 -3.71987 -1.59398 0
M  V30 3318 H 315.895 -2.65871 -1.64413 0
M  V30 3319 H 315.115 -3.90967 0.503847 0
M  V30 3320 H 316.403 -5.08467 0.183971 0
M  V30 3321 H 315.801 -4.8054 -2.98493 0
M  V30 3322 H 314.358 -5.72995 -3.10677 0
M  V30 3323 N 317.792 -0.46758 -1.50504 0
M  V30 3324 C 319.203 -0.0116166 -1.86696 0
M  V30 3325 C 319.554 1.39202 -1.38265 0
M  V30 3326 O 318.679 2.0313 -0.746132 0
M  V30 3327 C 319.274 -0.0143044 -3.38797 0
M  V30 3328 C 317.833 0.386175 -3.74414 0
M  V30 3329 C 316.98 -0.401287 -2.74381 0
M  V30 3330 H 319.931 -0.682022 -1.43297 0
M  V30 3331 H 319.952 0.788641 -3.72237 0
M  V30 3332 H 319.464 -1.03602 -3.74016 0
M  V30 3333 H 317.565 1.41237 -3.44794 0
M  V30 3334 H 317.678 0.0899596 -4.79016 0
M  V30 3335 H 316.042 0.144536 -2.5429 0
M  V30 3336 H 316.825 -1.42244 -3.12444 0
M  V30 3337 N 319.27 1.56325 -0.20005 0
M  V30 3338 C 320.2 2.22318 0.713916 0
M  V30 3339 C 321.181 1.18788 1.21752 0
M  V30 3340 O 322.366 1.47309 1.26545 0
M  V30 3341 C 319.496 2.88639 1.93144 0
M  V30 3342 C 318.45 3.98457 1.56255 0
M  V30 3343 C 317.776 4.51967 2.85709 0
M  V30 3344 C 319.076 5.16612 0.768747 0
M  V30 3345 H 320.77 2.98952 0.163755 0
M  V30 3346 H 318.316 1.43792 0.0773219 0
M  V30 3347 H 320.269 3.33491 2.57608 0
M  V30 3348 H 318.993 2.09419 2.50621 0
M  V30 3349 H 317.652 3.54305 0.941471 0
M  V30 3350 H 317.3 3.69503 3.41287 0
M  V30 3351 H 317 5.26071 2.6177 0
M  V30 3352 H 318.524 4.99523 3.51154 0
M  V30 3353 H 319.938 5.57977 1.3166 0
M  V30 3354 H 318.335 5.96812 0.627286 0
M  V30 3355 H 319.405 4.84358 -0.229168 0
M  V30 3356 N 320.748 -0.0735177 1.57428 0
M  V30 3357 C 321.658 -1.10547 2.06922 0
M  V30 3358 C 322.674 -1.42506 0.998402 0
M  V30 3359 O 323.85 -1.52717 1.31299 0
M  V30 3360 C 320.915 -2.40019 2.50184 0
M  V30 3361 C 319.976 -2.15046 3.71556 0
M  V30 3362 C 319.209 -3.38345 4.12745 0
M  V30 3363 O 319.432 -4.47399 3.53822 0
M  V30 3364 O 318.366 -3.2666 5.05546 0
M  V30 3365 H 322.192 -0.715013 2.95163 0
M  V30 3366 H 319.777 -0.287531 1.46607 0
M  V30 3367 H 321.659 -3.16218 2.78539 0
M  V30 3368 H 320.334 -2.78447 1.65072 0
M  V30 3369 H 319.241 -1.36558 3.48285 0
M  V30 3370 H 320.574 -1.81499 4.57514 0
M  V30 3371 N 322.226 -1.5378 -0.344866 0
M  V30 3372 C 323.136 -1.84667 -1.4469 0
M  V30 3373 C 324.152 -0.736704 -1.57635 0
M  V30 3374 O 325.328 -1.02888 -1.73136 0
M  V30 3375 C 322.393 -2.04869 -2.79696 0
M  V30 3376 C 321.454 -3.28731 -2.76106 0
M  V30 3377 C 320.687 -3.4796 -4.04673 0
M  V30 3378 O 320.91 -2.71052 -5.01883 0
M  V30 3379 O 319.844 -4.41383 -4.09224 0
M  V30 3380 H 323.67 -2.78334 -1.21506 0
M  V30 3381 H 321.255 -1.39418 -0.536921 0
M  V30 3382 H 323.137 -2.19609 -3.59652 0
M  V30 3383 H 321.812 -1.14391 -3.02814 0
M  V30 3384 H 320.719 -3.19396 -1.94774 0
M  V30 3385 H 322.052 -4.19198 -2.57941 0
M  V30 3386 N 323.704 0.605807 -1.45491 0
M  V30 3387 C 324.614 1.74466 -1.56839 0
M  V30 3388 C 325.63 1.68006 -0.452772 0
M  V30 3389 O 326.806 1.8833 -0.713708 0
M  V30 3390 C 323.871 3.10931 -1.53371 0
M  V30 3391 C 322.932 3.28832 -2.75986 0
M  V30 3392 C 322.165 4.58787 -2.72673 0
M  V30 3393 O 322.388 5.4122 -1.80102 0
M  V30 3394 O 321.322 4.79438 -3.63899 0
M  V30 3395 H 325.148 1.67843 -2.53106 0
M  V30 3396 H 322.733 0.770108 -1.28022 0
M  V30 3397 H 324.615 3.92233 -1.54051 0
M  V30 3398 H 323.29 3.18042 -0.602572 0
M  V30 3399 H 322.197 2.47112 -2.80867 0
M  V30 3400 H 323.53 3.26599 -3.68231 0
M  V30 3401 N 325.182 1.32811 0.848464 0
M  V30 3402 C 326.459 1.14334 1.58704 0
M  V30 3403 C 326.839 -0.293948 2.09043 0
M  V30 3404 O 326.187 -1.29153 1.88499 0
M  V30 3405 C 326.397 2.17626 2.72837 0
M  V30 3406 C 327.745 2.51282 3.42261 0
M  V30 3407 O 328.769 2.16219 2.83068 0
M  V30 3408 O 327.628 3.11413 4.49093 0
M  V30 3409 H 324.722 0.441601 0.699226 0
M  V30 3410 H 327.268 1.44362 0.892053 0
M  V30 3411 H 326.04 3.14211 2.3321 0
M  V30 3412 H 325.663 1.88628 3.50008 0
M  V30 3413 N 326.66 -1.06551 1.16123 0
M  V30 3414 C 327.906 -1.79567 0.94252 0
M  V30 3415 C 328.239 -1.86869 -0.528547 0
M  V30 3416 O 327.514 -1.35838 -1.39206 0
M  V30 3417 C 327.797 -3.24195 1.56747 0
M  V30 3418 C 327.65 -3.24989 3.10969 0
M  V30 3419 C 328.969 -4.21678 1.25998 0
M  V30 3420 H 326.088 -0.651883 0.343828 0
M  V30 3421 H 328.73 -1.2463 1.43413 0
M  V30 3422 H 326.88 -3.71107 1.14942 0
M  V30 3423 H 328.552 -2.86258 3.61737 0
M  V30 3424 H 326.795 -2.63716 3.44436 0
M  V30 3425 H 327.466 -4.27005 3.49815 0
M  V30 3426 H 329.942 -3.83196 1.62174 0
M  V30 3427 H 328.818 -5.21146 1.7233 0
M  V30 3428 H 329.079 -4.4174 0.178367 0
M  V30 3429 N 328.138 -0.959301 -1.25041 0
M  V30 3430 C 329.068 -0.501388 -2.28053 0
M  V30 3431 C 330.049 0.454673 -1.63911 0
M  V30 3432 O 331.234 0.352618 -1.90972 0
M  V30 3433 C 328.364 0.217224 -3.4662 0
M  V30 3434 C 327.318 -0.654034 -4.22973 0
M  V30 3435 C 326.644 0.195589 -5.34342 0
M  V30 3436 C 327.944 -1.93447 -4.85155 0
M  V30 3437 H 329.638 -1.36238 -2.66608 0
M  V30 3438 H 327.184 -0.656534 -1.28163 0
M  V30 3439 H 329.137 0.548732 -4.17812 0
M  V30 3440 H 327.861 1.1125 -3.07068 0
M  V30 3441 H 326.52 -0.968693 -3.5357 0
M  V30 3442 H 326.168 1.09076 -4.91031 0
M  V30 3443 H 325.868 -0.384091 -5.86343 0
M  V30 3444 H 327.392 0.521958 -6.08365 0
M  V30 3445 H 328.806 -1.66908 -5.48466 0
M  V30 3446 H 327.203 -2.46018 -5.47353 0
M  V30 3447 H 328.273 -2.63466 -4.07079 0
M  V30 3448 N 329.616 1.39756 -0.72842 0
M  V30 3449 C 330.864 2.00248 -0.272946 0
M  V30 3450 C 331.185 1.58077 1.14178 0
M  V30 3451 O 330.455 0.826014 1.77634 0
M  V30 3452 H 329.035 0.740554 -0.0979247 0
M  V30 3453 H 331.697 1.70903 -0.936912 0
M  V30 3454 H 330.793 3.10495 -0.316142 0
M  V30 3455 N 331.094 0.475555 1.50254 0
M  V30 3456 C 332.044 -0.335025 2.25525 0
M  V30 3457 C 333.028 -0.957625 1.29299 0
M  V30 3458 O 334.22 -0.869436 1.54175 0
M  V30 3459 C 331.349 -1.41385 3.12834 0
M  V30 3460 C 330.435 -0.798762 4.1651 0
M  V30 3461 N 330.826 0.0835815 5.05731 0
M  V30 3462 C 329.124 -1.06221 4.33166 0
M  V30 3463 C 329.825 0.433113 5.80085 0
M  V30 3464 N 328.801 -0.1928 5.43258 0
M  V30 3465 H 332.603 0.344612 2.91873 0
M  V30 3466 H 330.117 0.289986 1.5979 0
M  V30 3467 H 332.114 -2.00777 3.65368 0
M  V30 3468 H 330.774 -2.09543 2.48036 0
M  V30 3469 H 331.785 0.452715 5.15918 0
M  V30 3470 H 328.462 -1.73844 3.79585 0
M  V30 3471 H 329.852 1.15346 6.61925 0
M  V30 3472 N 332.573 -1.56217 0.208337 0
M  V30 3473 C 333.536 -2.18455 -0.693557 0
M  V30 3474 C 334.536 -1.14268 -1.13135 0
M  V30 3475 O 335.726 -1.39577 -1.0423 0
M  V30 3476 C 332.858 -2.79727 -1.94848 0
M  V30 3477 H 334.051 -2.99519 -0.15114 0
M  V30 3478 H 331.604 -1.56245 -0.041287 0
M  V30 3479 H 332.339 -2.02497 -2.53309 0
M  V30 3480 H 332.124 -3.56009 -1.64316 0
M  V30 3481 H 333.614 -3.27475 -2.59133 0
M  V30 3482 N 334.051 0.0651679 -1.57465 0
M  V30 3483 C 334.961 1.09448 -2.07505 0
M  V30 3484 C 335.977 1.41974 -1.00595 0
M  V30 3485 O 337.153 1.52018 -1.32107 0
M  V30 3486 C 334.218 2.38689 -2.51453 0
M  V30 3487 C 333.279 2.13073 -3.72691 0
M  V30 3488 C 332.512 3.36152 -4.14533 0
M  V30 3489 O 332.735 4.45517 -3.56189 0
M  V30 3490 O 331.669 3.23974 -5.07272 0
M  V30 3491 H 335.495 0.69935 -2.95538 0
M  V30 3492 H 333.08 0.279752 -1.46757 0
M  V30 3493 H 334.962 3.14736 -2.80212 0
M  V30 3494 H 333.637 2.77568 -1.66546 0
M  V30 3495 H 332.544 1.34709 -3.49005 0
M  V30 3496 H 333.877 1.79071 -4.5847 0
M  V30 3497 N 335.529 1.53961 0.336706 0
M  V30 3498 C 336.459 1.85417 1.41925 0
M  V30 3499 C 337.44 0.709856 1.5458 0
M  V30 3500 O 338.625 0.962396 1.68676 0
M  V30 3501 C 335.755 2.06985 2.78881 0
M  V30 3502 C 334.709 3.22813 2.81026 0
M  V30 3503 C 334.035 3.29727 4.20932 0
M  V30 3504 C 335.335 4.60767 2.45949 0
M  V30 3505 H 337.029 2.76079 1.15848 0
M  V30 3506 H 334.575 1.32839 0.555859 0
M  V30 3507 H 336.528 2.27575 3.54665 0
M  V30 3508 H 335.252 1.13061 3.06406 0
M  V30 3509 H 333.911 3.0209 2.07695 0
M  V30 3510 H 333.559 2.33385 4.45579 0
M  V30 3511 H 333.259 4.07566 4.23277 0
M  V30 3512 H 334.783 3.52536 4.98549 0
M  V30 3513 H 336.197 4.81325 3.11446 0
M  V30 3514 H 334.594 5.4106 2.59566 0
M  V30 3515 H 335.664 4.6391 1.41122 0
M  V30 3516 N 337.007 -0.598083 1.45811 0
M  V30 3517 C 337.97 -1.69018 1.54808 0
M  V30 3518 C 338.97 -1.55037 0.426652 0
M  V30 3519 O 340.16 -1.59932 0.690456 0
M  V30 3520 C 337.292 -3.0835 1.45371 0
M  V30 3521 H 338.485 -1.62403 2.52121 0
M  V30 3522 H 336.038 -0.814626 1.33392 0
M  V30 3523 H 336.773 -3.20534 0.492793 0
M  V30 3524 H 336.558 -3.19907 2.26721 0
M  V30 3525 H 338.048 -3.8788 1.54721 0
M  V30 3526 N 338.485 -1.33259 -0.841409 0
M  V30 3527 C 339.901 -1.12538 -1.13169 0
M  V30 3528 C 340.101 0.0854037 -2.01319 0
M  V30 3529 O 339.157 0.766417 -2.40587 0
M  V30 3530 C 340.47 -2.41156 -1.79623 0
M  V30 3531 C 342.018 -2.47038 -1.922 0
M  V30 3532 C 342.493 -3.7561 -2.6207 0
M  V30 3533 N 343.984 -3.76667 -2.69585 0
M  V30 3534 C 344.719 -4.72861 -3.2433 0
M  V30 3535 N 344.215 -5.79428 -3.79783 0
M  V30 3536 N 346.008 -4.6034 -3.22558 0
M  V30 3537 H 338.159 -2.10868 -0.254676 0
M  V30 3538 H 340.422 -0.931615 -0.175493 0
M  V30 3539 H 340.128 -3.29747 -1.22311 0
M  V30 3540 H 340.002 -2.53114 -2.79666 0
M  V30 3541 H 342.389 -1.58898 -2.48667 0
M  V30 3542 H 342.47 -2.39022 -0.911148 0
M  V30 3543 H 342.114 -4.64131 -2.06263 0
M  V30 3544 H 342.044 -3.80902 -3.63622 0
M  V30 3545 H 344.535 -2.99648 -2.30259 0
M  V30 3546 H 344.848 -6.48867 -4.19752 0
M  V30 3547 H 343.193 -5.83166 -3.78078 0
M  V30 3548 H 346.384 -3.76244 -2.78492 0
M  V30 3549 H 346.557 -5.35478 -3.64921 0
M  V30 3550 N 339.963 1.05934 -1.16686 0
M  V30 3551 C 341.379 1.30938 -0.912542 0
M  V30 3552 C 341.579 1.96803 0.432533 0
M  V30 3553 O 340.635 2.23693 1.17123 0
M  V30 3554 C 341.948 2.18649 -2.06429 0
M  V30 3555 C 343.496 2.32055 -2.10047 0
M  V30 3556 C 343.971 3.23122 -3.24586 0
M  V30 3557 N 345.462 3.30706 -3.24327 0
M  V30 3558 C 346.197 4.01273 -4.09594 0
M  V30 3559 N 345.693 4.74332 -5.04956 0
M  V30 3560 N 347.486 3.97361 -3.97569 0
M  V30 3561 H 339.637 0.615777 -2.03278 0
M  V30 3562 H 341.9 0.334077 -0.887185 0
M  V30 3563 H 341.606 1.77534 -3.03603 0
M  V30 3564 H 341.48 3.19252 -2.00894 0
M  V30 3565 H 343.867 2.72415 -1.13464 0
M  V30 3566 H 343.948 1.31107 -2.19647 0
M  V30 3567 H 343.592 2.83477 -4.2143 0
M  V30 3568 H 343.522 4.24057 -3.12223 0
M  V30 3569 H 346.013 2.78644 -2.55276 0
M  V30 3570 H 346.326 5.25716 -5.6643 0
M  V30 3571 H 344.671 4.733 -5.08933 0
M  V30 3572 H 347.862 3.39405 -3.22369 0
M  V30 3573 H 348.035 4.52089 -4.64241 0
M  V30 3574 N 341.441 0.965919 1.2453 0
M  V30 3575 C 342.69 0.622437 1.91856 0
M  V30 3576 C 343.003 -0.846006 1.76358 0
M  V30 3577 O 344.209 -1.29993 2.38357 0
M  V30 3578 C 342.665 1.0626 3.43856 0
M  V30 3579 C 342.273 2.55437 3.68043 0
M  V30 3580 C 344.017 0.792183 4.17043 0
M  V30 3581 C 341.924 2.93196 5.13605 0
M  V30 3582 H 340.854 0.229092 0.718354 0
M  V30 3583 H 343.505 1.17189 1.41206 0
M  V30 3584 H 341.887 0.441476 3.93531 0
M  V30 3585 H 343.061 3.22665 3.28974 0
M  V30 3586 H 341.376 2.8007 3.08139 0
M  V30 3587 H 343.973 1.05031 5.24283 0
M  V30 3588 H 344.316 -0.271584 4.15413 0
M  V30 3589 H 344.849 1.37419 3.73311 0
M  V30 3590 H 341.588 3.98636 5.20355 0
M  V30 3591 H 341.108 2.30651 5.53679 0
M  V30 3592 H 342.787 2.83004 5.81823 0
M  V30 3593 N 342.919 -1.39368 0.735821 0
M  V30 3594 C 343.851 -2.2913 0.0567723 0
M  V30 3595 C 344.864 -1.46859 -0.702589 0
M  V30 3596 O 346.053 -1.69925 -0.546616 0
M  V30 3597 C 343.153 -3.25492 -0.943823 0
M  V30 3598 C 342.326 -4.36709 -0.24581 0
M  V30 3599 C 341.385 -5.13376 -1.15463 0
M  V30 3600 O 340.411 -5.65683 -0.631803 0
M  V30 3601 N 341.613 -5.24656 -2.48427 0
M  V30 3602 H 344.378 -2.88047 0.827582 0
M  V30 3603 H 341.939 -1.50957 0.585112 0
M  V30 3604 H 343.931 -3.73657 -1.55443 0
M  V30 3605 H 342.501 -2.676 -1.61583 0
M  V30 3606 H 341.721 -3.9041 0.545286 0
M  V30 3607 H 343.009 -5.08244 0.237891 0
M  V30 3608 H 342.407 -4.83679 -2.93379 0
M  V30 3609 H 340.964 -5.76258 -3.04582 0
M  V30 3610 N 344.397 -0.483516 -1.5 0
M  V30 3611 C 345.625 0.0644831 -2.06799 0
M  V30 3612 C 346.04 1.32399 -1.34596 0
M  V30 3613 O 345.397 1.77626 -0.418946 0
M  V30 3614 C 345.448 0.339927 -3.59898 0
M  V30 3615 O 345.169 -0.869635 -4.29382 0
M  V30 3616 C 346.67 0.933515 -4.33359 0
M  V30 3617 H 343.89 -0.0126333 -0.670881 0
M  V30 3618 H 346.434 -0.675864 -1.93009 0
M  V30 3619 H 344.589 1.03022 -3.7345 0
M  V30 3620 H 345.003 -0.62179 -5.20801 0
M  V30 3621 H 346.477 1.07593 -5.41413 0
M  V30 3622 H 346.954 1.92685 -3.94676 0
M  V30 3623 H 347.56 0.281221 -4.24369 0
M  V30 3624 N 345.875 1.56104 -0.216619 0
M  V30 3625 C 347.286 1.844 0.292128 0
M  V30 3626 C 347.637 1.13788 1.59833 0
M  V30 3627 O 346.762 0.405888 2.12559 0
M  V30 3628 C 347.357 3.3452 0.53681 0
M  V30 3629 C 345.916 3.63151 0.989876 0
M  V30 3630 C 345.063 2.77255 0.0502302 0
M  V30 3631 H 348.014 1.52481 -0.439926 0
M  V30 3632 H 348.035 3.54459 1.38345 0
M  V30 3633 H 347.547 3.85885 -0.414031 0
M  V30 3634 H 345.648 3.17238 1.95425 0
M  V30 3635 H 345.761 4.71177 0.867698 0
M  V30 3636 H 344.125 2.48555 0.556117 0
M  V30 3637 H 344.908 3.31416 -0.89544 0
M  V30 3638 N 347.353 -0.0568162 1.57498 0
M  V30 3639 C 348.602 -0.752001 1.87157 0
M  V30 3640 C 348.915 -1.77978 0.811375 0
M  V30 3641 O 350.121 -2.52559 0.996293 0
M  V30 3642 C 348.577 -1.38844 3.3204 0
M  V30 3643 C 348.185 -0.398456 4.46225 0
M  V30 3644 C 349.929 -2.06512 3.70882 0
M  V30 3645 C 347.836 -1.04166 5.82154 0
M  V30 3646 H 346.766 -0.28461 0.698222 0
M  V30 3647 H 349.417 -0.00561272 1.83499 0
M  V30 3648 H 347.799 -2.1836 3.30356 0
M  V30 3649 H 348.973 0.367977 4.59328 0
M  V30 3650 H 347.288 0.174592 4.16034 0
M  V30 3651 H 349.885 -2.55437 4.6974 0
M  V30 3652 H 350.228 -2.87117 3.01445 0
M  V30 3653 H 350.761 -1.33808 3.7462 0
M  V30 3654 H 347.5 -0.275614 6.5492 0
M  V30 3655 H 347.02 -1.7786 5.72823 0
M  V30 3656 H 348.699 -1.55715 6.27982 0
M  V30 3657 N 348.832 -1.54138 -0.328536 0
M  V30 3658 C 350.072 -1.73827 -1.07534 0
M  V30 3659 C 350.436 -0.498777 -1.85408 0
M  V30 3660 O 351.637 -0.572937 -2.62623 0
M  V30 3661 C 349.908 -2.97573 -1.97952 0
M  V30 3662 S 351.467 -3.38143 -2.79652 0
M  V30 3663 H 348.285 -0.611287 -0.36311 0
M  V30 3664 H 350.887 -1.92306 -0.351931 0
M  V30 3665 H 349.591 -3.85939 -1.39569 0
M  V30 3666 H 349.122 -2.81603 -2.74706 0
M  V30 3667 H 351.137 -2.93052 -4.00418 0
M  V30 3668 N 350.31 0.590341 -1.46126 0
M  V30 3669 C 351.24 1.71032 -1.58966 0
M  V30 3670 C 352.221 1.64302 -0.440335 0
M  V30 3671 O 353.406 1.82436 -0.665634 0
M  V30 3672 C 350.536 3.09665 -1.57241 0
M  V30 3673 C 349.49 3.31221 -2.71066 0
M  V30 3674 C 348.816 4.70303 -2.54399 0
M  V30 3675 C 350.116 3.19796 -4.1295 0
M  V30 3676 H 351.81 1.60543 -2.52718 0
M  V30 3677 H 349.356 0.770933 -1.21625 0
M  V30 3678 H 351.309 3.87831 -1.64819 0
M  V30 3679 H 350.033 3.21036 -0.600289 0
M  V30 3680 H 348.692 2.55452 -2.62944 0
M  V30 3681 H 348.34 4.78429 -1.55288 0
M  V30 3682 H 348.04 4.85679 -3.30741 0
M  V30 3683 H 349.564 5.50647 -2.63857 0
M  V30 3684 H 350.978 3.87815 -4.22223 0
M  V30 3685 H 349.375 3.46696 -4.89818 0
M  V30 3686 H 350.445 2.16983 -4.33643 0
M  V30 3687 N 351.788 1.33704 0.83433 0
M  V30 3688 C 353.065 1.16011 1.57483 0
M  V30 3689 C 353.445 -0.27176 2.09343 0
M  V30 3690 O 352.793 -1.27146 1.89858 0
M  V30 3691 C 353.003 2.20507 2.70514 0
M  V30 3692 C 354.351 2.54898 3.39577 0
M  V30 3693 O 355.375 2.19209 2.80759 0
M  V30 3694 O 354.234 3.16158 4.45765 0
M  V30 3695 H 351.328 0.448992 0.694503 0
M  V30 3696 H 353.874 1.453 0.876691 0
M  V30 3697 H 352.646 3.16667 2.29865 0
M  V30 3698 H 352.269 1.92329 3.47987 0
M  V30 3699 N 353.266 -1.05314 1.17247 0
M  V30 3700 C 354.176 -2.16538 0.90268 0
M  V30 3701 C 355.192 -1.73523 -0.128707 0
M  V30 3702 O 356.368 -2.01337 0.0502701 0
M  V30 3703 C 353.433 -3.44167 0.418356 0
M  V30 3704 C 352.494 -4.01635 1.51618 0
M  V30 3705 C 351.727 -5.23171 1.05487 0
M  V30 3706 O 351.95 -5.70327 -0.0914715 0
M  V30 3707 O 350.884 -5.72848 1.8474 0
M  V30 3708 H 354.71 -2.42145 1.83302 0
M  V30 3709 H 352.295 -1.15037 0.953246 0
M  V30 3710 H 354.177 -4.21112 0.155726 0
M  V30 3711 H 352.852 -3.20063 -0.48385 0
M  V30 3712 H 351.759 -3.26135 1.83268 0
M  V30 3713 H 353.092 -4.30053 2.39405 0
M  V30 3714 N 354.744 -0.972509 -1.24016 0
M  V30 3715 C 355.969 -0.654417 -1.96805 0
M  V30 3716 C 356.394 0.770398 -1.716 0
M  V30 3717 O 355.752 1.52361 -0.982647 0
M  V30 3718 C 355.8 -0.941031 -3.48105 0
M  V30 3719 O 354.904 -0.0289472 -4.1239 0
M  V30 3720 H 354.245 -0.24692 -0.616382 0
M  V30 3721 H 356.775 -1.30396 -1.57664 0
M  V30 3722 H 356.785 -0.87452 -3.98517 0
M  V30 3723 H 355.46 -1.97939 -3.65777 0
M  V30 3724 H 354.037 -0.149192 -3.72601 0
M  V30 3725 N 356.222 1.38976 -0.743202 0
M  V30 3726 C 357.471 1.99581 -0.291592 0
M  V30 3727 C 357.784 1.59656 1.13001 0
M  V30 3728 O 358.99 2.13157 1.68156 0
M  V30 3729 C 357.446 3.56813 -0.470391 0
M  V30 3730 C 357.054 4.05695 -1.90041 0
M  V30 3731 C 358.798 4.24423 -0.0809709 0
M  V30 3732 C 356.705 5.5553 -2.02832 0
M  V30 3733 H 355.635 0.746615 -0.105272 0
M  V30 3734 H 358.286 1.58872 -0.918258 0
M  V30 3735 H 356.668 3.95359 0.225299 0
M  V30 3736 H 357.842 3.78464 -2.62872 0
M  V30 3737 H 356.157 3.50775 -2.24379 0
M  V30 3738 H 358.754 5.34474 -0.155445 0
M  V30 3739 H 359.097 4.04962 0.96497 0
M  V30 3740 H 359.63 3.9108 -0.728124 0
M  V30 3741 H 356.369 5.79881 -3.05643 0
M  V30 3742 H 355.889 5.84537 -1.34448 0
M  V30 3743 H 357.568 6.21069 -1.81335 0
M  V30 3744 N 357.7 0.491464 1.49741 0
M  V30 3745 C 358.946 -0.0565092 2.02721 0
M  V30 3746 C 359.279 -1.37522 1.37118 0
M  V30 3747 O 358.554 -1.87866 0.503645 0
M  V30 3748 C 358.837 -0.219051 3.59433 0
M  V30 3749 C 358.69 1.12211 4.35579 0
M  V30 3750 C 360.009 -0.964157 4.29409 0
M  V30 3751 H 357.128 -0.0190627 0.736753 0
M  V30 3752 H 359.77 0.641021 1.7886 0
M  V30 3753 H 357.92 -0.813165 3.79895 0
M  V30 3754 H 359.592 1.75437 4.26637 0
M  V30 3755 H 357.835 1.71377 3.98513 0
M  V30 3756 H 358.506 0.961794 5.43556 0
M  V30 3757 H 360.982 -0.460378 4.13545 0
M  V30 3758 H 359.858 -1.04671 5.38828 0
M  V30 3759 H 360.119 -2.00563 3.93988 0
M  V30 3760 N 359.178 -1.55987 0.224894 0
M  V30 3761 C 360.403 -2.03232 -0.41369 0
M  V30 3762 C 360.828 -1.10359 -1.52323 0
M  V30 3763 O 360.186 -0.092395 -1.81064 0
M  V30 3764 C 360.234 -3.48682 -0.919405 0
M  V30 3765 O 359.338 -3.58947 -2.03054 0
M  V30 3766 H 358.679 -0.657428 -0.0931903 0
M  V30 3767 H 361.209 -2.01679 0.34451 0
M  V30 3768 H 361.219 -3.8907 -1.22835 0
M  V30 3769 H 359.894 -4.15761 -0.107339 0
M  V30 3770 H 358.471 -3.30448 -1.72796 0
M  V30 3771 N 360.656 0.0484629 -1.57525 0
M  V30 3772 C 361.619 1.03956 -2.04269 0
M  V30 3773 C 362.619 1.30211 -0.943496 0
M  V30 3774 O 363.809 1.25539 -1.20771 0
M  V30 3775 C 360.941 2.37742 -2.44319 0
M  V30 3776 H 362.134 0.636182 -2.93075 0
M  V30 3777 H 359.687 0.294811 -1.53494 0
M  V30 3778 H 360.422 2.82866 -1.5861 0
M  V30 3779 H 360.207 2.20021 -3.24551 0
M  V30 3780 H 361.697 3.08936 -2.80978 0
M  V30 3781 N 362.134 1.5431 0.320358 0
M  V30 3782 C 363.55 1.45091 0.664889 0
M  V30 3783 C 363.75 0.626382 1.91517 0
M  V30 3784 O 362.806 0.126443 2.52183 0
M  V30 3785 C 364.119 2.88848 0.83591 0
M  V30 3786 C 365.667 2.9877 0.933046 0
M  V30 3787 C 366.142 4.43683 1.13621 0
M  V30 3788 N 367.633 4.47309 1.20287 0
M  V30 3789 C 368.368 5.56595 1.37801 0
M  V30 3790 N 367.864 6.75844 1.52338 0
M  V30 3791 N 369.657 5.44248 1.40535 0
M  V30 3792 H 361.808 2.06398 -0.501374 0
M  V30 3793 H 364.071 0.933963 -0.162534 0
M  V30 3794 H 363.777 3.51698 -0.0116092 0
M  V30 3795 H 363.651 3.35148 1.73078 0
M  V30 3796 H 366.038 2.36045 1.77107 0
M  V30 3797 H 366.119 2.55796 0.0145782 0
M  V30 3798 H 365.763 5.06995 0.303032 0
M  V30 3799 H 365.693 4.84269 2.0686 0
M  V30 3800 H 368.184 3.61388 1.10485 0
M  V30 3801 H 368.497 7.54892 1.65403 0
M  V30 3802 H 366.842 6.78746 1.4943 0
M  V30 3803 H 370.033 4.50038 1.28777 0
M  V30 3804 H 370.206 6.29473 1.53842 0
M  V30 3805 N 363.613 -0.582584 1.46437 0
M  V30 3806 C 364.576 -1.67366 1.56592 0
M  V30 3807 C 365.576 -1.54575 0.443072 0
M  V30 3808 O 366.766 -1.59191 0.707381 0
M  V30 3809 C 363.898 -3.06791 1.48634 0
M  V30 3810 H 365.091 -1.5972 2.5383 0
M  V30 3811 H 362.644 -0.800432 1.34249 0
M  V30 3812 H 363.379 -3.19993 0.526763 0
M  V30 3813 H 363.164 -3.17484 2.30101 0
M  V30 3814 H 364.654 -3.86218 1.58826 0
M  V30 3815 N 365.091 -1.34144 -0.827227 0
M  V30 3816 C 366.054 -1.25264 -1.91942 0
M  V30 3817 C 367.054 -0.168866 -1.59911 0
M  V30 3818 O 368.244 -0.421198 -1.69031 0
M  V30 3819 C 365.376 -0.932952 -3.27885 0
M  V30 3820 H 366.569 -2.22357 -2.0124 0
M  V30 3821 H 364.122 -1.1837 -1.0207 0
M  V30 3822 H 364.857 0.0349917 -3.24281 0
M  V30 3823 H 364.642 -1.71682 -3.52516 0
M  V30 3824 H 366.132 -0.895874 -4.07877 0
M  V30 3825 N 366.569 1.04691 -1.17803 0
M  V30 3826 C 367.532 2.10724 -0.901545 0
M  V30 3827 C 368.532 1.6042 0.110437 0
M  V30 3828 O 369.722 1.7377 -0.122303 0
M  V30 3829 C 366.854 3.39084 -0.351409 0
M  V30 3830 H 368.047 2.36686 -1.84174 0
M  V30 3831 H 365.6 1.21015 -0.98919 0
M  V30 3832 H 366.335 3.18782 0.59569 0
M  V30 3833 H 366.12 3.76909 -1.08083 0
M  V30 3834 H 367.61 4.17227 -0.176451 0
M  V30 3835 N 368.047 0.979072 1.23499 0
M  V30 3836 C 369.324 0.563674 1.87302 0
M  V30 3837 C 369.704 -0.959199 1.88049 0
M  V30 3838 O 369.052 -1.83535 1.36114 0
M  V30 3839 C 369.262 1.16822 3.28867 0
M  V30 3840 C 370.61 1.26014 4.0547 0
M  V30 3841 O 371.634 1.12158 3.38082 0
M  V30 3842 O 370.493 1.48044 5.26066 0
M  V30 3843 H 367.587 0.189602 0.804972 0
M  V30 3844 H 370.133 1.07407 1.31384 0
M  V30 3845 H 368.905 2.21049 3.22883 0
M  V30 3846 H 368.528 0.642564 3.92373 0
M  V30 3847 N 369.525 -1.3858 0.750561 0
M  V30 3848 C 370.488 -2.28836 0.129152 0
M  V30 3849 C 371.488 -1.47045 -0.650714 0
M  V30 3850 O 372.678 -1.6753 -0.477428 0
M  V30 3851 C 369.81 -3.30751 -0.825622 0
M  V30 3852 H 371.003 -2.85294 0.924516 0
M  V30 3853 H 368.556 -1.47489 0.517376 0
M  V30 3854 H 369.291 -2.79378 -1.64677 0
M  V30 3855 H 369.076 -3.91177 -0.268852 0
M  V30 3856 H 370.566 -3.98249 -1.2565 0
M  V30 3857 N 371.003 -0.499398 -1.49478 0
M  V30 3858 C 372.252 0.0475259 -2.01644 0
M  V30 3859 C 372.565 1.38195 -1.38425 0
M  V30 3860 O 373.771 2.01547 -1.8191 0
M  V30 3861 C 372.227 0.135164 -3.59646 0
M  V30 3862 C 371.835 -1.19252 -4.31837 0
M  V30 3863 C 373.579 0.632538 -4.19761 0
M  V30 3864 C 371.486 -1.06713 -5.81693 0
M  V30 3865 H 370.416 0.0215349 -0.753692 0
M  V30 3866 H 373.067 -0.638577 -1.7203 0
M  V30 3867 H 371.449 0.885681 -3.85969 0
M  V30 3868 H 372.623 -1.9562 -4.17216 0
M  V30 3869 H 370.938 -1.62321 -3.83459 0
M  V30 3870 H 373.535 0.743833 -5.29501 0
M  V30 3871 H 373.878 1.63098 -3.83021 0
M  V30 3872 H 374.411 -0.0613987 -3.97753 0
M  V30 3873 H 371.15 -2.03979 -6.22955 0
M  V30 3874 H 370.67 -0.344307 -5.98811 0
M  V30 3875 H 372.349 -0.745208 -6.42694 0
M  V30 3876 N 372.481 1.55866 -0.233164 0
M  V30 3877 C 373.428 2.20796 0.67215 0
M  V30 3878 C 374.398 1.16731 1.18166 0
M  V30 3879 O 375.583 1.45129 1.23864 0
M  V30 3880 C 372.723 2.90072 1.86955 0
M  V30 3881 C 371.836 4.08759 1.39786 0
M  V30 3882 C 370.971 4.65787 2.55374 0
M  V30 3883 C 370.01 5.76752 2.04998 0
M  V30 3884 N 369.147 6.28021 3.13901 0
M  V30 3885 H 373.987 2.9779 0.111749 0
M  V30 3886 H 371.524 1.47036 0.0434007 0
M  V30 3887 H 373.482 3.28428 2.57276 0
M  V30 3888 H 372.112 2.15575 2.40265 0
M  V30 3889 H 371.164 3.7581 0.589173 0
M  V30 3890 H 372.476 4.88906 0.98856 0
M  V30 3891 H 371.63 5.06646 3.33758 0
M  V30 3892 H 370.369 3.84828 2.99598 0
M  V30 3893 H 369.374 5.35383 1.25079 0
M  V30 3894 H 370.599 6.59553 1.61759 0
M  V30 3895 H 368.545 5.49971 3.57586 0
M  V30 3896 H 368.462 7.03323 2.7726 0
M  V30 3897 H 369.73 6.73538 3.92386 0
M  V30 3898 N 373.959 -0.0401083 1.57549 0
M  V30 3899 C 374.889 -1.04384 2.08869 0
M  V30 3900 C 375.87 -1.38407 0.988817 0
M  V30 3901 O 377.055 -1.47483 1.26342 0
M  V30 3902 C 374.185 -2.34808 2.55895 0
M  V30 3903 C 373.139 -2.15057 3.70047 0
M  V30 3904 C 372.465 -3.51145 4.03239 0
M  V30 3905 C 373.765 -1.54576 4.98902 0
M  V30 3906 H 375.459 -0.616666 2.92981 0
M  V30 3907 H 373.005 -0.295184 1.40942 0
M  V30 3908 H 374.958 -3.05346 2.90417 0
M  V30 3909 H 373.682 -2.79565 1.68853 0
M  V30 3910 H 372.341 -1.46954 3.35857 0
M  V30 3911 H 371.989 -3.93529 3.13279 0
M  V30 3912 H 371.689 -3.38758 4.80122 0
M  V30 3913 H 373.213 -4.23062 4.40285 0
M  V30 3914 H 374.627 -2.15017 5.31451 0
M  V30 3915 H 373.024 -1.52796 5.80322 0
M  V30 3916 H 374.094 -0.51039 4.82206 0
M  V30 3917 N 375.437 -1.54477 -0.31217 0
M  V30 3918 C 376.685 -1.72884 -1.04668 0
M  V30 3919 C 377.006 -0.511477 -1.88173 0
M  V30 3920 O 376.276 0.474407 -1.90069 0
M  V30 3921 H 374.856 -0.637461 -0.389425 0
M  V30 3922 H 377.518 -1.91807 -0.345852 0
M  V30 3923 H 376.614 -2.61334 -1.70619 0
M  V30 3924 N 376.915 0.57481 -1.46744 0
M  V30 3925 C 377.878 1.66533 -1.57478 0
M  V30 3926 C 378.878 1.54338 -0.451263 0
M  V30 3927 O 380.068 1.58814 -0.715813 0
M  V30 3928 C 377.2 3.05999 -1.50259 0
M  V30 3929 H 378.393 1.58372 -2.54673 0
M  V30 3930 H 375.946 0.793301 -1.34672 0
M  V30 3931 H 376.681 3.19709 -0.543725 0
M  V30 3932 H 376.466 3.16259 -2.31781 0
M  V30 3933 H 377.956 3.8537 -1.60872 0
M  V30 3934 N 378.394 1.34581 0.820102 0
M  V30 3935 C 379.64 1.27285 1.57881 0
M  V30 3936 C 379.973 -0.156137 1.93571 0
M  V30 3937 O 379.248 -1.10222 1.60254 0
M  V30 3938 C 379.531 2.16639 2.87645 0
M  V30 3939 C 379.384 3.68088 2.58517 0
M  V30 3940 C 380.703 2.05378 3.8924 0
M  V30 3941 H 377.822 0.463714 0.572833 0
M  V30 3942 H 380.464 1.64859 0.944539 0
M  V30 3943 H 378.614 1.84725 3.41773 0
M  V30 3944 H 380.286 4.10382 2.10676 0
M  V30 3945 H 378.529 3.89038 1.91917 0
M  V30 3946 H 379.2 4.2598 3.51063 0
M  V30 3947 H 381.676 2.33404 3.44473 0
M  V30 3948 H 380.552 2.7012 4.77835 0
M  V30 3949 H 380.813 1.0316 4.29896 0
M  V30 3950 N 379.872 -1.04064 1.18357 0
M  V30 3951 C 380.804 -2.12114 0.868358 0
M  V30 3952 C 381.817 -1.62247 -0.134045 0
M  V30 3953 O 383.006 -1.78253 0.0937933 0
M  V30 3954 C 380.106 -3.37773 0.276132 0
M  V30 3955 C 379.279 -4.16874 1.3242 0
M  V30 3956 C 378.338 -5.20861 0.747662 0
M  V30 3957 O 377.364 -5.51141 1.42239 0
M  V30 3958 N 378.566 -5.78715 -0.454823 0
M  V30 3959 H 381.331 -2.39748 1.79836 0
M  V30 3960 H 378.892 -1.20258 1.08396 0
M  V30 3961 H 380.884 -4.04513 -0.123133 0
M  V30 3962 H 379.454 -3.07581 -0.557895 0
M  V30 3963 H 378.674 -3.45456 1.89878 0
M  V30 3964 H 379.962 -4.66516 2.03078 0
M  V30 3965 H 379.36 -5.56415 -1.02073 0
M  V30 3966 H 377.917 -6.46921 -0.79601 0
M  V30 3967 N 381.35 -0.985608 -1.22978 0
M  V30 3968 C 382.599 -0.652881 -1.90841 0
M  V30 3969 C 382.912 0.817842 -1.77681 0
M  V30 3970 O 384.118 1.26185 -2.40395 0
M  V30 3971 C 382.574 -1.11717 -3.42122 0
M  V30 3972 C 382.182 -2.6126 -3.63933 0
M  V30 3973 C 383.926 -0.85843 -4.1573 0
M  V30 3974 C 381.833 -3.0133 -5.08876 0
M  V30 3975 H 380.763 -0.240491 -0.714619 0
M  V30 3976 H 383.414 -1.1942 -1.39324 0
M  V30 3977 H 381.796 -0.504027 -3.92779 0
M  V30 3978 H 382.97 -3.27858 -3.23799 0
M  V30 3979 H 381.285 -2.84937 -3.03644 0
M  V30 3980 H 383.882 -1.13359 -5.22546 0
M  V30 3981 H 384.225 0.205461 -4.15793 0
M  V30 3982 H 384.758 -1.43341 -3.71077 0
M  V30 3983 H 381.497 -4.06864 -5.13947 0
M  V30 3984 H 381.017 -2.3943 -5.49939 0
M  V30 3985 H 382.696 -2.92224 -5.77247 0
M  V30 3986 N 382.828 1.3818 -0.7579 0
M  V30 3987 C 384.074 2.00316 -0.316453 0
M  V30 3988 C 384.407 1.60026 1.10025 0
M  V30 3989 O 383.682 0.839835 1.75434 0
M  V30 3990 C 383.965 3.57349 -0.444245 0
M  V30 3991 C 383.818 4.07591 -1.90236 0
M  V30 3992 C 385.137 4.3981 0.1598 0
M  V30 3993 H 382.256 0.727741 -0.116459 0
M  V30 3994 H 384.898 1.6406 -0.958352 0
M  V30 3995 H 383.048 3.88365 0.102233 0
M  V30 3996 H 384.72 3.87199 -2.50748 0
M  V30 3997 H 382.963 3.60297 -2.41595 0
M  V30 3998 H 383.634 5.16677 -1.94291 0
M  V30 3999 H 386.11 4.14971 -0.306314 0
M  V30 4000 H 384.986 5.48885 0.0401675 0
M  V30 4001 H 385.247 4.24102 1.24859 0
M  V30 4002 N 384.306 0.507319 1.49211 0
M  V30 4003 C 385.254 -0.281364 2.30892 0
M  V30 4004 C 386.248 -0.95687 1.39787 0
M  V30 4005 O 387.454 -0.883838 1.56807 0
M  V30 4006 H 383.829 -0.109597 0.743971 0
M  V30 4007 H 385.8 0.42744 2.95323 0
M  V30 4008 C 384.549 -1.32918 3.21291 0
M  V30 4009 H 383.872 -0.818799 3.91326 0
M  V30 4010 H 385.312 -1.85288 3.81372 0
M  V30 4011 C 383.771 -2.35074 2.41333 0
M  V30 4012 O 384.301 -3.4108 2.12197 0
M  V30 4013 N 382.507 -2.07705 2.03241 0
M  V30 4014 H 382.054 -1.2152 2.27136 0
M  V30 4015 H 382.012 -2.76283 1.50051 0
M  V30 4016 N 385.784 -1.5574 0.241426 0
M  V30 4017 C 387.033 -1.97986 -0.385295 0
M  V30 4018 C 387.346 -1.13267 -1.59468 0
M  V30 4019 O 388.552 -1.45501 -2.2922 0
M  V30 4020 C 387.008 -3.52275 -0.736884 0
M  V30 4021 C 386.616 -4.45726 0.450796 0
M  V30 4022 C 388.36 -4.03189 -1.3281 0
M  V30 4023 C 386.267 -5.91352 0.0756662 0
M  V30 4024 H 385.197 -0.739386 -0.147731 0
M  V30 4025 H 387.848 -1.80308 0.340779 0
M  V30 4026 H 386.23 -3.65628 -1.52094 0
M  V30 4027 H 387.404 -4.44131 1.22819 0
M  V30 4028 H 385.719 -4.05264 0.956573 0
M  V30 4029 H 388.316 -5.09505 -1.62201 0
M  V30 4030 H 388.659 -3.50212 -2.25071 0
M  V30 4031 H 389.192 -3.93141 -0.607069 0
M  V30 4032 H 385.931 -6.48354 0.965272 0
M  V30 4033 H 385.451 -5.96095 -0.665635 0
M  V30 4034 H 387.13 -6.46084 -0.344075 0
M  V30 4035 N 387.262 0.0317525 -1.57568 0
M  V30 4036 C 388.209 1.0332 -2.06382 0
M  V30 4037 C 389.179 1.36082 -0.952414 0
M  V30 4038 O 390.364 1.46466 -1.2228 0
M  V30 4039 C 387.504 2.32989 -2.54578 0
M  V30 4040 C 386.617 2.0641 -3.79498 0
M  V30 4041 C 385.752 3.2993 -4.16317 0
M  V30 4042 C 384.791 2.98893 -5.34162 0
M  V30 4043 N 383.928 4.14857 -5.66426 0
M  V30 4044 H 388.768 0.609982 -2.9169 0
M  V30 4045 H 386.305 0.289573 -1.44222 0
M  V30 4046 H 388.263 3.0875 -2.80587 0
M  V30 4047 H 386.893 2.73039 -1.7219 0
M  V30 4048 H 385.945 1.21158 -3.6059 0
M  V30 4049 H 387.257 1.79513 -4.65378 0
M  V30 4050 H 386.411 4.1406 -4.4344 0
M  V30 4051 H 385.15 3.59938 -3.29083 0
M  V30 4052 H 384.155 2.13164 -5.06795 0
M  V30 4053 H 385.38 2.70165 -6.23047 0
M  V30 4054 H 383.326 4.44821 -4.82151 0
M  V30 4055 H 383.243 3.91374 -6.4681 0
M  V30 4056 H 384.511 4.99868 -5.98124 0
M  V30 4057 N 388.74 1.54641 0.303973 0
M  V30 4058 C 390.151 1.64811 0.877163 0
M  V30 4059 C 390.502 0.554838 1.88191 0
M  V30 4060 O 389.627 -0.309033 2.14182 0
M  V30 4061 C 390.222 2.9876 1.59775 0
M  V30 4062 C 388.781 3.11061 2.11938 0
M  V30 4063 C 387.928 2.60479 0.951097 0
M  V30 4064 H 390.879 1.58493 0.0810486 0
M  V30 4065 H 390.9 2.90017 2.46314 0
M  V30 4066 H 390.412 3.7831 0.866226 0
M  V30 4067 H 388.513 2.36225 2.88146 0
M  V30 4068 H 388.626 4.17171 2.35595 0
M  V30 4069 H 386.99 2.16859 1.33583 0
M  V30 4070 H 387.773 3.42504 0.233581 0
M  V30 4071 N 390.218 -0.567019 1.47046 0
M  V30 4072 C 391.466 -1.322 1.52864 0
M  V30 4073 C 391.787 -1.94088 0.188388 0
M  V30 4074 O 391.057 -1.7941 -0.786693 0
M  V30 4075 H 389.637 -0.490894 0.563056 0
M  V30 4076 H 392.299 -0.662879 1.83281 0
M  V30 4077 H 391.395 -2.12062 2.2899 0
M  V30 4078 N 391.696 -1.35014 -0.812953 0
M  V30 4079 C 393.112 -1.14914 -1.10757 0
M  V30 4080 C 393.312 0.0426818 -2.01455 0
M  V30 4081 O 392.368 0.715212 -2.42159 0
M  V30 4082 C 393.681 -2.44911 -1.74468 0
M  V30 4083 C 395.229 -2.5106 -1.86917 0
M  V30 4084 C 395.704 -3.81085 -2.54044 0
M  V30 4085 N 397.195 -3.82301 -2.61535 0
M  V30 4086 C 397.93 -4.79634 -3.14227 0
M  V30 4087 N 397.426 -5.87353 -3.67407 0
M  V30 4088 N 399.219 -4.67078 -3.12721 0
M  V30 4089 H 391.37 -2.1136 -0.20989 0
M  V30 4090 H 393.633 -0.935128 -0.155692 0
M  V30 4091 H 393.339 -3.32267 -1.15289 0
M  V30 4092 H 393.213 -2.58989 -2.74234 0
M  V30 4093 H 395.6 -1.64137 -2.45241 0
M  V30 4094 H 395.681 -2.40901 -0.860242 0
M  V30 4095 H 395.325 -4.68402 -1.96372 0
M  V30 4096 H 395.255 -3.88529 -3.55461 0
M  V30 4097 H 397.746 -3.04465 -2.23851 0
M  V30 4098 H 398.059 -6.57624 -4.05894 0
M  V30 4099 H 396.404 -5.91054 -3.65623 0
M  V30 4100 H 399.595 -3.82067 -2.70449 0
M  V30 4101 H 399.768 -5.43098 -3.53481 0
M  V30 4102 N 393.175 1.03435 -1.18907 0
M  V30 4103 C 394.421 1.77005 -0.989798 0
M  V30 4104 C 394.754 1.88205 0.478816 0
M  V30 4105 O 394.029 1.39481 1.35556 0
M  V30 4106 C 394.312 3.19925 -1.65287 0
M  V30 4107 C 394.165 3.1663 -3.19477 0
M  V30 4108 C 395.484 4.18189 -1.37134 0
M  V30 4109 H 392.603 0.642538 -0.360991 0
M  V30 4110 H 395.245 1.20784 -1.46667 0
M  V30 4111 H 393.395 3.67929 -1.24741 0
M  V30 4112 H 395.067 2.76567 -3.692 0
M  V30 4113 H 393.31 2.54491 -3.51307 0
M  V30 4114 H 393.981 4.1758 -3.61013 0
M  V30 4115 H 396.457 3.78761 -1.72276 0
M  V30 4116 H 395.333 5.16394 -1.86087 0
M  V30 4117 H 395.594 4.41112 -0.295424 0
M  V30 4118 N 394.653 0.992116 1.22453 0
M  V30 4119 C 395.901 0.666215 1.90804 0
M  V30 4120 C 396.222 -0.804152 1.77647 0
M  V30 4121 O 395.492 -1.57629 1.16318 0
M  V30 4122 H 394.072 0.243423 0.706225 0
M  V30 4123 H 396.734 1.25845 1.48825 0
M  V30 4124 H 395.83 0.928069 2.97982 0
M  V30 4125 N 396.131 -1.37776 0.765217 0
M  V30 4126 C 397.379 -1.99454 0.325943 0
M  V30 4127 C 397.7 -1.61049 -1.09947 0
M  V30 4128 O 396.97 -0.872821 -1.75381 0
M  V30 4129 H 395.55 -0.737697 0.117525 0
M  V30 4130 H 398.212 -1.68359 0.981895 0
M  V30 4131 H 397.308 -3.09547 0.398353 0
M  V30 4132 N 397.609 -0.515225 -1.4894 0
M  V30 4133 C 398.839 0.0205735 -2.0659 0
M  V30 4134 C 399.247 1.30064 -1.37405 0
M  V30 4135 O 398.59 1.78087 -0.450632 0
M  V30 4136 C 398.652 0.330124 -3.57981 0
M  V30 4137 C 398.316 -0.854295 -4.48944 0
M  V30 4138 C 399.313 -1.7487 -4.89609 0
M  V30 4139 C 396.998 -1.05712 -4.9105 0
M  V30 4140 C 398.992 -2.82996 -5.71132 0
M  V30 4141 C 396.679 -2.14154 -5.72347 0
M  V30 4142 C 397.677 -3.0263 -6.12294 0
M  V30 4143 O 397.365 -4.09198 -6.91962 0
M  V30 4144 H 397.097 -0.0236833 -0.675585 0
M  V30 4145 H 399.651 -0.715956 -1.92518 0
M  V30 4146 H 397.881 1.12044 -3.70112 0
M  V30 4147 H 399.57 0.806233 -3.97812 0
M  V30 4148 H 400.336 -1.60388 -4.57712 0
M  V30 4149 H 396.215 -0.377788 -4.59449 0
M  V30 4150 H 399.759 -3.52083 -6.02232 0
M  V30 4151 H 395.656 -2.28626 -6.03656 0
M  V30 4152 H 396.424 -4.06726 -7.10293 0
M  V30 4153 N 399.087 1.5561 -0.249682 0
M  V30 4154 C 400.017 2.24477 0.642826 0
M  V30 4155 C 400.998 1.22601 1.17911 0
M  V30 4156 O 402.183 1.5126 1.21795 0
M  V30 4157 C 399.313 2.94638 1.83863 0
M  V30 4158 C 398.267 4.03227 1.435 0
M  V30 4159 C 397.593 4.60828 2.71186 0
M  V30 4160 C 398.893 5.18796 0.604002 0
M  V30 4161 H 400.587 2.99321 0.0685625 0
M  V30 4162 H 398.133 1.43965 0.0315363 0
M  V30 4163 H 400.086 3.41517 2.46868 0
M  V30 4164 H 398.81 2.17287 2.43832 0
M  V30 4165 H 397.469 3.57121 0.828275 0
M  V30 4166 H 397.117 3.80174 3.29358 0
M  V30 4167 H 396.817 5.34132 2.44901 0
M  V30 4168 H 398.341 5.10442 3.35084 0
M  V30 4169 H 399.755 5.61883 1.13842 0
M  V30 4170 H 398.152 5.98506 0.437097 0
M  V30 4171 H 399.222 4.83384 -0.383147 0
M  V30 4172 N 400.565 -0.0233959 1.57583 0
M  V30 4173 C 401.475 -1.03907 2.10334 0
M  V30 4174 C 402.491 -1.39257 1.04323 0
M  V30 4175 O 403.667 -1.48462 1.36091 0
M  V30 4176 C 400.732 -2.31938 2.57693 0
M  V30 4177 C 399.793 -2.03117 3.78209 0
M  V30 4178 C 399.026 -3.25043 4.233 0
M  V30 4179 O 399.249 -4.35916 3.67876 0
M  V30 4180 O 398.183 -3.10411 5.15683 0
M  V30 4181 H 402.009 -0.620748 2.97288 0
M  V30 4182 H 399.594 -0.240743 1.47448 0
M  V30 4183 H 401.476 -3.07196 2.88458 0
M  V30 4184 H 400.151 -2.73055 1.73847 0
M  V30 4185 H 399.058 -1.25408 3.52454 0
M  V30 4186 H 400.391 -1.66852 4.63056 0
M  V30 4187 N 402.043 -1.548 -0.295768 0
M  V30 4188 C 403.006 -1.85363 -1.34808 0
M  V30 4189 C 404.006 -0.726817 -1.43436 0
M  V30 4190 O 405.196 -0.995088 -1.42981 0
M  V30 4191 C 402.328 -2.03859 -2.73229 0
M  V30 4192 H 403.521 -2.7941 -1.08949 0
M  V30 4193 H 401.074 -1.46942 -0.532702 0
M  V30 4194 H 401.809 -1.12117 -3.04303 0
M  V30 4195 H 401.594 -2.8588 -2.68356 0
M  V30 4196 H 403.084 -2.28857 -3.49305 0
M  V30 4197 N 403.521 0.559213 -1.47345 0
M  V30 4198 C 404.937 0.884943 -1.32819 0
M  V30 4199 C 405.137 1.98988 -0.317173 0
M  V30 4200 O 404.193 2.51031 0.272011 0
M  V30 4201 C 405.506 1.28007 -2.72093 0
M  V30 4202 C 407.054 1.39161 -2.80363 0
M  V30 4203 C 407.529 1.82031 -4.20272 0
M  V30 4204 N 409.02 1.89185 -4.22804 0
M  V30 4205 C 409.755 2.2368 -5.27973 0
M  V30 4206 N 409.251 2.56802 -6.43447 0
M  V30 4207 N 411.044 2.24436 -5.15349 0
M  V30 4208 H 403.195 -0.170304 -2.11716 0
M  V30 4209 H 405.458 -0.0135247 -0.947904 0
M  V30 4210 H 405.164 0.542027 -3.47498 0
M  V30 4211 H 405.038 2.23665 -3.03733 0
M  V30 4212 H 407.425 2.12048 -2.05231 0
M  V30 4213 H 407.506 0.41696 -2.52379 0
M  V30 4214 H 407.15 1.09715 -4.95908 0
M  V30 4215 H 407.08 2.80495 -4.45679 0
M  V30 4216 H 409.571 1.65982 -3.39497 0
M  V30 4217 H 409.884 2.82144 -7.19454 0
M  V30 4218 H 408.229 2.54387 -6.46771 0
M  V30 4219 H 411.42 1.97998 -4.24163 0
M  V30 4220 H 411.593 2.50989 -5.97418 0
M  V30 4221 N 404.999 1.35443 0.805782 0
M  V30 4222 C 406.415 1.15499 1.10146 0
M  V30 4223 C 406.615 -0.0319975 2.01475 0
M  V30 4224 O 405.671 -0.70236 2.42535 0
M  V30 4225 C 406.984 2.45833 1.73166 0
M  V30 4226 C 408.532 2.52047 1.85583 0
M  V30 4227 C 409.007 3.82427 2.52019 0
M  V30 4228 N 410.498 3.83682 2.59504 0
M  V30 4229 C 411.233 4.81294 3.11679 0
M  V30 4230 N 410.729 5.89294 3.64287 0
M  V30 4231 N 412.522 4.6873 3.1024 0
M  V30 4232 H 404.673 2.11469 0.198678 0
M  V30 4233 H 406.936 0.93594 0.150731 0
M  V30 4234 H 406.642 3.32874 1.13526 0
M  V30 4235 H 406.516 2.6044 2.72857 0
M  V30 4236 H 408.903 1.65435 2.44367 0
M  V30 4237 H 408.984 2.41354 0.847455 0
M  V30 4238 H 408.628 4.69437 1.93885 0
M  V30 4239 H 408.558 3.90409 3.53395 0
M  V30 4240 H 411.049 3.05648 2.22234 0
M  V30 4241 H 411.362 6.59768 4.02401 0
M  V30 4242 H 409.707 5.92985 3.62483 0
M  V30 4243 H 412.898 3.83496 2.68419 0
M  V30 4244 H 413.071 5.44965 3.50596 0
M  V30 4245 N 406.477 -1.02803 1.19454 0
M  V30 4246 C 407.723 -1.76478 0.999171 0
M  V30 4247 C 408.056 -1.88456 -0.468828 0
M  V30 4248 O 407.331 -1.40198 -1.34814 0
M  V30 4249 C 407.614 -3.19044 1.66981 0
M  V30 4250 C 407.467 -3.14932 3.21151 0
M  V30 4251 C 408.786 -4.17456 1.39349 0
M  V30 4252 H 405.905 -0.640614 0.364393 0
M  V30 4253 H 408.547 -1.20005 1.47305 0
M  V30 4254 H 406.697 -3.67263 1.2669 0
M  V30 4255 H 408.369 -2.74605 3.70661 0
M  V30 4256 H 406.612 -2.52625 3.52652 0
M  V30 4257 H 407.283 -4.1566 3.63223 0
M  V30 4258 H 409.759 -3.77842 1.74283 0
M  V30 4259 H 408.635 -5.154 1.88823 0
M  V30 4260 H 408.896 -4.40949 0.318813 0
M  V30 4261 N 407.956 -0.998596 -1.21925 0
M  V30 4262 C 408.906 -0.524743 -2.21879 0
M  V30 4263 C 409.89 0.41017 -1.55584 0
M  V30 4264 O 411.082 0.236063 -1.75419 0
M  V30 4265 C 408.211 0.153636 -3.42956 0
M  V30 4266 C 407.297 -0.801918 -4.16449 0
M  V30 4267 N 407.688 -1.95211 -4.66611 0
M  V30 4268 C 405.986 -0.618972 -4.41684 0
M  V30 4269 C 406.687 -2.55234 -5.22715 0
M  V30 4270 N 405.663 -1.83451 -5.1171 0
M  V30 4271 H 409.465 -1.40189 -2.58311 0
M  V30 4272 H 406.979 -0.86159 -1.3766 0
M  V30 4273 H 408.976 0.510534 -4.13762 0
M  V30 4274 H 407.636 1.02684 -3.08036 0
M  V30 4275 H 408.647 -2.33271 -4.62391 0
M  V30 4276 H 405.324 0.207694 -4.16983 0
M  V30 4277 H 406.714 -3.52471 -5.72026 0
M  V30 4278 N 409.434 1.37368 -0.772513 0
M  V30 4279 C 410.711 1.93839 -0.26188 0
M  V30 4280 C 411.091 1.7061 1.24319 0
M  V30 4281 O 410.439 1.05534 2.02669 0
M  V30 4282 C 410.649 3.43154 -0.636102 0
M  V30 4283 C 411.997 4.20249 -0.606324 0
M  V30 4284 O 413.021 3.5152 -0.575538 0
M  V30 4285 O 411.88 5.42809 -0.634086 0
M  V30 4286 H 408.974 0.82478 -0.0605555 0
M  V30 4287 H 411.52 1.4665 -0.853917 0
M  V30 4288 H 410.292 3.53647 -1.6748 0
M  V30 4289 H 409.915 3.97596 -0.0170516 0
M  V30 4290 N 410.912 0.523116 1.48665 0
M  V30 4291 C 412.158 -0.0134963 2.02796 0
M  V30 4292 C 412.491 -1.34582 1.40004 0
M  V30 4293 O 411.766 -1.86756 0.543381 0
M  V30 4294 C 412.049 -0.14276 3.59817 0
M  V30 4295 C 411.902 1.21425 4.331 0
M  V30 4296 C 413.221 -0.872856 4.31357 0
M  V30 4297 H 410.34 -0.00343074 0.736992 0
M  V30 4298 H 412.982 0.678816 1.7746 0
M  V30 4299 H 411.132 -0.732401 3.81534 0
M  V30 4300 H 412.804 1.84447 4.2282 0
M  V30 4301 H 411.047 1.79791 3.94788 0
M  V30 4302 H 411.718 1.07687 5.41394 0
M  V30 4303 H 414.194 -0.372555 4.14429 0
M  V30 4304 H 413.07 -0.932185 5.40927 0
M  V30 4305 H 413.331 -1.92161 3.98154 0
M  V30 4306 N 412.39 -1.55475 0.257931 0
M  V30 4307 C 413.63 -2.01112 -0.365129 0
M  V30 4308 C 413.994 -1.1423 -1.54323 0
M  V30 4309 O 415.195 -1.49371 -2.23477 0
M  V30 4310 C 413.466 -3.49353 -0.754117 0
M  V30 4311 S 415.025 -4.16992 -1.36614 0
M  V30 4312 H 411.843 -0.701737 -0.114397 0
M  V30 4313 H 414.445 -1.91855 0.375747 0
M  V30 4314 H 413.149 -4.10246 0.112441 0
M  V30 4315 H 412.68 -3.6256 -1.52689 0
M  V30 4316 H 414.695 -4.19191 -2.65505 0
M  V30 4317 N 413.868 0.0150385 -1.57593 0
M  V30 4318 C 414.831 0.995996 -2.06428 0
M  V30 4319 C 415.831 1.2818 -0.970903 0
M  V30 4320 O 417.021 1.22949 -1.23406 0
M  V30 4321 C 414.153 2.32506 -2.49307 0
M  V30 4322 H 415.346 0.573873 -2.94358 0
M  V30 4323 H 412.899 0.262186 -1.54085 0
M  V30 4324 H 413.634 2.79438 -1.64575 0
M  V30 4325 H 413.419 2.13087 -3.29145 0
M  V30 4326 H 414.909 3.02906 -2.87468 0
M  V30 4327 N 415.346 1.54954 0.287554 0
M  V30 4328 C 416.309 1.86076 1.33823 0
M  V30 4329 C 417.309 0.734414 1.43049 0
M  V30 4330 O 418.499 1.00266 1.42452 0
M  V30 4331 C 415.631 2.05305 2.72144 0
M  V30 4332 H 416.824 2.79984 1.07465 0
M  V30 4333 H 414.377 1.47223 0.524902 0
M  V30 4334 H 415.112 1.1373 3.03704 0
M  V30 4335 H 414.897 2.873 2.66836 0
M  V30 4336 H 416.387 2.30706 3.48087 0
M  V30 4337 N 416.824 -0.551391 1.4764 0
M  V30 4338 C 417.774 -1.65362 1.56969 0
M  V30 4339 C 418.758 -1.55098 0.428189 0
M  V30 4340 O 419.95 -1.63481 0.678441 0
M  V30 4341 C 417.079 -3.04129 1.59249 0
M  V30 4342 C 416.165 -3.19576 2.78804 0
M  V30 4343 N 416.556 -3.05067 4.03445 0
M  V30 4344 C 414.854 -3.50588 2.75688 0
M  V30 4345 C 415.555 -3.2336 4.83543 0
M  V30 4346 N 414.531 -3.4996 4.15968 0
M  V30 4347 H 418.333 -1.52722 2.51104 0
M  V30 4348 H 415.847 -0.756303 1.43714 0
M  V30 4349 H 417.844 -3.83278 1.64024 0
M  V30 4350 H 416.504 -3.17877 0.662148 0
M  V30 4351 H 417.515 -2.82273 4.34215 0
M  V30 4352 H 414.192 -3.70827 1.91817 0
M  V30 4353 H 415.582 -3.17061 5.92387 0
M  V30 4354 N 418.302 -1.35869 -0.798587 0
M  V30 4355 C 419.55 -1.29332 -1.55298 0
M  V30 4356 C 419.871 0.129729 -1.94568 0
M  V30 4357 O 419.141 1.06796 -1.6423 0
M  V30 4358 H 417.721 -0.475737 -0.57592 0
M  V30 4359 H 420.383 -1.70062 -0.952093 0
M  V30 4360 H 419.479 -1.91458 -2.46476 0
M  V30 4361 N 419.78 1.02168 -1.19998 0
M  V30 4362 C 421.029 1.75091 -1.0013 0
M  V30 4363 C 421.342 1.89923 0.467835 0
M  V30 4364 O 422.548 2.59888 0.785515 0
M  V30 4365 C 421.004 3.14892 -1.74273 0
M  V30 4366 C 420.612 3.0809 -3.25245 0
M  V30 4367 C 422.356 3.9206 -1.62755 0
M  V30 4368 C 420.263 4.42867 -3.91948 0
M  V30 4369 H 419.193 0.656394 -0.37103 0
M  V30 4370 H 421.844 1.14284 -1.43567 0
M  V30 4371 H 420.226 3.7621 -1.2362 0
M  V30 4372 H 421.4 2.5611 -3.83072 0
M  V30 4373 H 419.715 2.44416 -3.3712 0
M  V30 4374 H 422.312 4.91764 -2.09934 0
M  V30 4375 H 422.655 4.12199 -0.582894 0
M  V30 4376 H 423.188 3.37359 -2.10793 0
M  V30 4377 H 419.927 4.27931 -4.96543 0
M  V30 4378 H 419.447 4.94874 -3.3891 0
M  V30 4379 H 421.126 5.11728 -3.95909 0
M  V30 4380 N 421.258 1.00505 1.21394 0
M  V30 4381 C 422.669 0.721082 1.72213 0
M  V30 4382 C 423.02 -0.761263 1.80829 0
M  V30 4383 O 422.145 -1.59464 1.46288 0
M  V30 4384 C 422.74 1.30228 3.12772 0
M  V30 4385 C 421.299 1.06743 3.60947 0
M  V30 4386 C 420.446 1.41507 2.38477 0
M  V30 4387 H 423.397 1.17594 1.06571 0
M  V30 4388 H 423.418 0.686955 3.74247 0
M  V30 4389 H 422.93 2.38115 3.06468 0
M  V30 4390 H 421.031 0.00572162 3.726 0
M  V30 4391 H 421.144 1.73936 4.46411 0
M  V30 4392 H 419.508 0.833852 2.40664 0
M  V30 4393 H 420.291 2.50424 2.34824 0
M  V30 4394 N 422.737 -1.36956 0.779787 0
M  V30 4395 C 423.983 -1.99787 0.348281 0
M  V30 4396 C 424.316 -1.61756 -1.07465 0
M  V30 4397 O 423.591 -0.867639 -1.74075 0
M  V30 4398 C 423.874 -3.56597 0.50104 0
M  V30 4399 C 423.727 -4.04513 1.96697 0
M  V30 4400 C 425.046 -4.40008 -0.0898097 0
M  V30 4401 H 422.165 -0.725796 0.128022 0
M  V30 4402 H 424.807 -1.62514 0.984331 0
M  V30 4403 H 422.957 -3.88479 -0.0404347 0
M  V30 4404 H 424.629 -3.83161 2.56876 0
M  V30 4405 H 422.872 -3.56408 2.47297 0
M  V30 4406 H 423.543 -5.1352 2.02486 0
M  V30 4407 H 426.019 -4.14431 0.372293 0
M  V30 4408 H 424.895 -5.4888 0.0471605 0
M  V30 4409 H 425.156 -4.26035 -1.18096 0
M  V30 4410 N 424.215 -0.530993 -1.48385 0
M  V30 4411 C 425.461 -0.00538653 -2.03399 0
M  V30 4412 C 425.816 1.31899 -1.40073 0
M  V30 4413 O 425.109 1.83901 -0.537676 0
M  V30 4414 C 425.303 0.172742 -3.56982 0
M  V30 4415 C 425.132 -1.13282 -4.35198 0
M  V30 4416 C 423.902 -1.69296 -4.76096 0
M  V30 4417 C 426.1 -2.04367 -4.71952 0
M  V30 4418 N 424.082 -2.9413 -5.38851 0
M  V30 4419 C 425.453 -3.13777 -5.34737 0
M  V30 4420 C 427.508 -2.04681 -4.53883 0
M  V30 4421 C 426.211 -4.23567 -5.81363 0
M  V30 4422 C 428.237 -3.13466 -5.01491 0
M  V30 4423 C 427.599 -4.21595 -5.64302 0
M  V30 4424 H 423.698 -0.0434945 -0.780789 0
M  V30 4425 H 426.282 -0.712495 -1.81195 0
M  V30 4426 H 424.453 0.848937 -3.79009 0
M  V30 4427 H 426.185 0.698046 -3.98634 0
M  V30 4428 H 422.94 -1.23422 -4.57235 0
M  V30 4429 H 423.364 -3.57689 -5.74794 0
M  V30 4430 H 428.006 -1.22378 -4.04702 0
M  V30 4431 H 425.724 -5.06648 -6.2955 0
M  V30 4432 H 429.31 -3.14765 -4.893 0
M  V30 4433 H 428.19 -5.04384 -6.00472 0
M  V30 4434 N 425.693 1.55336 -0.266172 0
M  V30 4435 C 426.933 2.01303 0.354459 0
M  V30 4436 C 427.297 1.15046 1.53715 0
M  V30 4437 O 428.498 1.50554 2.22681 0
M  V30 4438 C 426.769 3.49748 0.735579 0
M  V30 4439 S 428.328 4.1771 1.34401 0
M  V30 4440 H 425.146 0.702333 0.110674 0
M  V30 4441 H 427.748 1.91653 -0.385916 0
M  V30 4442 H 426.452 4.10181 -0.134196 0
M  V30 4443 H 425.983 3.63364 1.50764 0
M  V30 4444 H 427.998 4.20594 2.63278 0
M  V30 4445 N 427.171 -0.0066808 1.57599 0
M  V30 4446 C 428.419 -0.691552 1.899 0
M  V30 4447 C 428.74 -1.74682 0.866672 0
M  V30 4448 O 428.01 -1.95661 -0.0968189 0
M  V30 4449 H 426.59 -0.258416 0.700878 0
M  V30 4450 H 429.252 0.0326655 1.94873 0
M  V30 4451 H 428.348 -1.16702 2.8946 0
M  V30 4452 N 428.649 -1.55105 -0.279332 0
M  V30 4453 C 429.897 -1.75066 -1.00977 0
M  V30 4454 C 430.218 -0.551276 -1.87045 0
M  V30 4455 O 429.488 0.433984 -1.91032 0
M  V30 4456 H 428.068 -0.645578 -0.375816 0
M  V30 4457 H 430.73 -1.92497 -0.305089 0
M  V30 4458 H 429.826 -2.64894 -1.65038 0
M  V30 4459 N 430.127 0.543554 -1.4793 0
M  V30 4460 C 431.06 1.66556 -1.55995 0
M  V30 4461 C 432.038 1.57315 -0.411205 0
M  V30 4462 O 433.222 1.7798 -0.620922 0
M  V30 4463 C 430.349 3.04883 -1.47527 0
M  V30 4464 C 429.395 3.32526 -2.67074 0
M  V30 4465 S 430.228 3.20282 -4.29162 0
M  V30 4466 C 431.384 4.61079 -4.23269 0
M  V30 4467 H 431.617 1.59462 -2.50917 0
M  V30 4468 H 429.15 0.725456 -1.36296 0
M  V30 4469 H 431.108 3.84665 -1.43328 0
M  V30 4470 H 429.769 3.09429 -0.539665 0
M  V30 4471 H 428.962 4.33403 -2.5725 0
M  V30 4472 H 428.564 2.60389 -2.68466 0
M  V30 4473 H 430.856 5.52318 -3.92365 0
M  V30 4474 H 431.799 4.75959 -5.24279 0
M  V30 4475 H 432.207 4.39766 -3.5393 0
M  V30 4476 N 431.605 1.3629 0.791371 0
M  V30 4477 C 432.854 1.29742 1.54434 0
M  V30 4478 C 433.167 -0.121729 1.95221 0
M  V30 4479 O 434.373 -0.309579 2.69729 0
M  V30 4480 C 432.829 2.27623 2.78776 0
M  V30 4481 C 432.437 3.74963 2.45166 0
M  V30 4482 C 434.181 2.30047 3.56761 0
M  V30 4483 C 432.088 4.64626 3.65891 0
M  V30 4484 H 431.018 0.482113 0.579727 0
M  V30 4485 H 433.669 1.61642 0.868565 0
M  V30 4486 H 432.051 1.88714 3.48142 0
M  V30 4487 H 433.225 4.22596 1.83709 0
M  V30 4488 H 431.54 3.75295 1.80396 0
M  V30 4489 H 434.137 2.94247 4.46456 0
M  V30 4490 H 434.48 1.30846 3.95203 0
M  V30 4491 H 435.013 2.67563 2.94372 0
M  V30 4492 H 431.752 5.64883 3.32547 0
M  V30 4493 H 431.272 4.2171 4.26521 0
M  V30 4494 H 432.951 4.80801 4.32943 0
M  V30 4495 N 433.083 -1.0153 1.20538 0
M  V30 4496 C 433.993 -2.13557 0.971113 0
M  V30 4497 C 435.009 -1.73845 -0.0734366 0
M  V30 4498 O 436.185 -2.01075 0.114299 0
M  V30 4499 C 433.25 -3.42661 0.527639 0
M  V30 4500 C 432.311 -3.96608 1.64319 0
M  V30 4501 C 431.544 -5.1955 1.22078 0
M  V30 4502 O 431.767 -5.70329 0.0900198 0
M  V30 4503 O 430.701 -5.66681 2.02871 0
M  V30 4504 H 434.527 -2.3619 1.90913 0
M  V30 4505 H 432.112 -1.11946 0.989362 0
M  V30 4506 H 433.994 -4.20404 0.289621 0
M  V30 4507 H 432.669 -3.21441 -0.381779 0
M  V30 4508 H 431.576 -3.20139 1.93551 0
M  V30 4509 H 432.909 -4.22219 2.52966 0
M  V30 4510 N 434.561 -1.01147 -1.20859 0
M  V30 4511 C 435.789 -0.716911 -1.94082 0
M  V30 4512 C 436.204 0.721568 -1.74467 0
M  V30 4513 O 435.561 1.48889 -1.05539 0
M  V30 4514 C 435.612 -1.03662 -3.46318 0
M  V30 4515 O 435.333 -2.4186 -3.65288 0
M  V30 4516 C 436.834 -0.762386 -4.36695 0
M  V30 4517 H 434.054 -0.26367 -0.617024 0
M  V30 4518 H 436.598 -1.35127 -1.53496 0
M  V30 4519 H 434.753 -0.447757 -3.84804 0
M  V30 4520 H 435.167 -2.53224 -4.59323 0
M  V30 4521 H 436.641 -1.03621 -5.42187 0
M  V30 4522 H 437.118 0.303514 -4.3815 0
M  V30 4523 H 437.724 -1.33316 -4.03865 0
M  V30 4524 N 436.039 1.36541 -0.78704 0
M  V30 4525 C 437.287 1.98911 -0.357633 0
M  V30 4526 C 437.608 1.62778 1.07371 0
M  V30 4527 O 436.878 0.900612 1.73971 0
M  V30 4528 H 435.458 0.735734 -0.129246 0
M  V30 4529 H 438.12 1.66776 -1.00855 0
M  V30 4530 H 437.216 3.08874 -0.447549 0
M  V30 4531 N 437.518 0.538854 1.48102 0
M  V30 4532 C 438.448 -0.207654 2.32575 0
M  V30 4533 C 439.429 -0.926559 1.4265 0
M  V30 4534 O 440.614 -0.91061 1.71527 0
M  V30 4535 C 437.744 -1.24957 3.24042 0
M  V30 4536 C 436.698 -0.648263 4.23062 0
M  V30 4537 C 436.024 -1.79348 5.03725 0
M  V30 4538 C 437.324 0.385897 5.20872 0
M  V30 4539 H 439.018 0.497534 2.95237 0
M  V30 4540 H 436.564 0.240715 1.41974 0
M  V30 4541 H 438.517 -1.77983 3.81969 0
M  V30 4542 H 437.241 -1.98446 2.59397 0
M  V30 4543 H 435.9 -0.139452 3.66335 0
M  V30 4544 H 435.548 -2.51696 4.35498 0
M  V30 4545 H 435.248 -1.39702 5.70751 0
M  V30 4546 H 436.772 -2.32735 5.64506 0
M  V30 4547 H 438.186 -0.057607 5.73271 0
M  V30 4548 H 436.583 0.700227 5.96001 0
M  V30 4549 H 437.653 1.28848 4.67468 0
M  V30 4550 N 438.996 -1.55193 0.274407 0
M  V30 4551 C 440.244 -1.99187 -0.341902 0
M  V30 4552 C 440.565 -1.16422 -1.56431 0
M  V30 4553 O 439.835 -0.253573 -1.94252 0
M  V30 4554 H 438.415 -0.735721 -0.129317 0
M  V30 4555 H 441.077 -1.91168 0.379578 0
M  V30 4556 H 440.173 -3.05629 -0.632253 0
M  V30 4557 N 440.474 -0.00167713 -1.576 0
M  V30 4558 C 441.89 0.354422 -1.55615 0
M  V30 4559 C 442.09 1.74679 -1.00447 0
M  V30 4560 O 441.146 2.4428 -0.639022 0
M  V30 4561 C 442.459 0.22812 -2.99833 0
M  V30 4562 C 444.007 0.302934 -3.11531 0
M  V30 4563 C 444.482 0.205737 -4.57538 0
M  V30 4564 N 445.973 0.263584 -4.62449 0
M  V30 4565 C 446.708 0.211742 -5.73009 0
M  V30 4566 N 446.204 0.110399 -6.92712 0
M  V30 4567 N 447.997 0.263729 -5.61481 0
M  V30 4568 H 440.148 -0.912498 -1.918 0
M  V30 4569 H 442.411 -0.349928 -0.881053 0
M  V30 4570 H 442.117 -0.729934 -3.44042 0
M  V30 4571 H 441.991 1.00951 -3.6344 0
M  V30 4572 H 444.378 1.25143 -2.67251 0
M  V30 4573 H 444.459 -0.508357 -2.50698 0
M  V30 4574 H 444.103 -0.739225 -5.02492 0
M  V30 4575 H 444.033 1.03554 -5.16318 0
M  V30 4576 H 446.524 0.343173 -3.76339 0
M  V30 4577 H 446.837 0.0767828 -7.72762 0
M  V30 4578 H 445.182 0.0760025 -6.94958 0
M  V30 4579 H 448.373 0.34111 -4.66855 0
M  V30 4580 H 448.546 0.219862 -6.47627 0
M  V30 4581 N 441.952 1.55251 0.271103 0
M  V30 4582 C 442.915 1.87484 1.31842 0
M  V30 4583 C 443.915 0.749545 1.42262 0
M  V30 4584 O 445.105 1.01771 1.4138 0
M  V30 4585 C 442.237 2.0818 2.69951 0
M  V30 4586 H 443.43 2.81108 1.0449 0
M  V30 4587 H 440.983 1.47771 0.509258 0
M  V30 4588 H 441.718 1.16944 3.02481 0
M  V30 4589 H 441.503 2.90114 2.63774 0
M  V30 4590 H 442.993 2.34385 3.4562 0
M  V30 4591 N 443.43 -0.535701 1.48216 0
M  V30 4592 C 444.393 -1.623 1.61838 0
M  V30 4593 C 445.393 -1.53087 0.492024 0
M  V30 4594 O 446.583 -1.5686 0.757668 0
M  V30 4595 C 443.715 -3.01907 1.58319 0
M  V30 4596 H 444.908 -1.51564 2.58783 0
M  V30 4597 H 442.461 -0.757317 1.36727 0
M  V30 4598 H 443.196 -3.18155 0.628299 0
M  V30 4599 H 442.981 -3.10003 2.40085 0
M  V30 4600 H 444.471 -3.80969 1.71033 0
M  V30 4601 N 444.908 -1.36708 -0.784132 0
M  V30 4602 C 445.856 -1.31533 -1.91838 0
M  V30 4603 C 446.85 -0.206205 -1.6814 0
M  V30 4604 O 448.056 -0.373519 -1.76082 0
M  V30 4605 H 444.431 -0.409613 -0.630651 0
M  V30 4606 H 446.402 -2.2731 -1.9332 0
M  V30 4607 C 445.151 -1.12679 -3.28936 0
M  V30 4608 H 444.474 -1.97274 -3.4774 0
M  V30 4609 H 445.914 -1.13106 -4.08636 0
M  V30 4610 C 444.373 0.168281 -3.36479 0
M  V30 4611 O 444.903 1.15625 -3.84699 0
M  V30 4612 N 443.109 0.214762 -2.89805 0
M  V30 4613 H 442.656 -0.589852 -2.50756 0
M  V30 4614 H 442.614 1.08094 -2.95234 0
M  V30 4615 N 446.386 1.0089 -1.21074 0
M  V30 4616 C 447.632 1.74866 -1.02712 0
M  V30 4617 C 447.965 1.89178 0.438787 0
M  V30 4618 O 447.24 1.42325 1.32567 0
M  V30 4619 C 447.523 3.16347 -1.72036 0
M  V30 4620 C 447.376 3.09782 -3.26121 0
M  V30 4621 C 448.695 4.15187 -1.45973 0
M  V30 4622 H 445.814 0.634736 -0.374539 0
M  V30 4623 H 448.456 1.17646 -1.49196 0
M  V30 4624 H 446.606 3.65201 -1.32517 0
M  V30 4625 H 448.278 2.68673 -3.74983 0
M  V30 4626 H 446.521 2.46982 -3.56626 0
M  V30 4627 H 447.192 4.09829 -3.6979 0
M  V30 4628 H 449.668 3.75022 -1.80272 0
M  V30 4629 H 448.544 5.12331 -1.96999 0
M  V30 4630 H 448.805 4.40386 -0.388924 0
M  V30 4631 N 447.864 1.01787 1.20321 0
M  V30 4632 C 448.827 0.593972 2.2137 0
M  V30 4633 C 449.827 -0.336553 1.57239 0
M  V30 4634 O 451.017 -0.125069 1.7375 0
M  V30 4635 C 448.149 -0.132433 3.40643 0
M  V30 4636 H 449.342 1.48791 2.60387 0
M  V30 4637 H 446.895 0.807803 1.33807 0
M  V30 4638 H 447.63 -1.04123 3.0713 0
M  V30 4639 H 447.415 0.53605 3.88418 0
M  V30 4640 H 448.905 -0.416314 4.1552 0
M  V30 4641 N 449.342 -1.36122 0.79427 0
M  V30 4642 C 450.272 -2.32551 0.210328 0
M  V30 4643 C 451.253 -1.56884 -0.657386 0
M  V30 4644 O 452.438 -1.85014 -0.590207 0
M  V30 4645 C 449.568 -3.41128 -0.651819 0
M  V30 4646 C 448.522 -4.27842 0.116395 0
M  V30 4647 C 447.848 -5.2763 -0.86666 0
M  V30 4648 C 449.148 -5.05647 1.30837 0
M  V30 4649 H 450.842 -2.81636 1.01594 0
M  V30 4650 H 448.388 -1.35407 0.489981 0
M  V30 4651 H 450.341 -4.07581 -1.07031 0
M  V30 4652 H 449.065 -2.90622 -1.49019 0
M  V30 4653 H 447.724 -3.62952 0.515915 0
M  V30 4654 H 447.372 -4.73395 -1.70019 0
M  V30 4655 H 447.072 -5.86514 -0.35705 0
M  V30 4656 H 448.596 -5.96955 -1.28361 0
M  V30 4657 H 450.01 -5.65113 0.965393 0
M  V30 4658 H 448.407 -5.73967 1.75161 0
M  V30 4659 H 449.477 -4.37006 2.10128 0
M  V30 4660 N 450.82 -0.546701 -1.47814 0
M  V30 4661 C 451.783 0.196287 -2.28358 0
M  V30 4662 C 452.783 0.852437 -1.36346 0
M  V30 4663 O 453.973 0.709913 -1.59078 0
M  V30 4664 C 451.105 1.28579 -3.15722 0
M  V30 4665 H 452.298 -0.511086 -2.95513 0
M  V30 4666 H 449.851 -0.303248 -1.5333 0
M  V30 4667 H 450.586 2.0259 -2.53235 0
M  V30 4668 H 450.371 0.820229 -3.83425 0
M  V30 4669 H 451.861 1.80793 -3.76435 0
M  V30 4670 N 452.299 1.55045 -0.282633 0
M  V30 4671 C 453.524 2.04628 0.337977 0
M  V30 4672 C 453.949 1.15937 1.48123 0
M  V30 4673 O 453.307 0.159532 1.80597 0
M  V30 4674 C 453.355 3.51854 0.78936 0
M  V30 4675 O 452.459 3.66236 1.89592 0
M  V30 4676 H 451.8 0.660434 0.0687261 0
M  V30 4677 H 454.33 2.00261 -0.419124 0
M  V30 4678 H 454.34 3.93361 1.08311 0
M  V30 4679 H 453.015 4.15873 -0.0470419 0
M  V30 4680 H 451.592 3.36633 1.60413 0
M  V30 4681 N 453.777 0.010035 1.57597 0
M  V30 4682 C 454.707 -0.976857 2.12084 0
M  V30 4683 C 455.688 -1.35191 1.03235 0
M  V30 4684 O 456.873 -1.43389 1.3097 0
M  V30 4685 C 454.003 -2.26548 2.63236 0
M  V30 4686 C 452.957 -2.03175 3.76701 0
M  V30 4687 C 452.283 -3.38138 4.14206 0
M  V30 4688 C 453.583 -1.38625 5.03568 0
M  V30 4689 H 455.277 -0.523145 2.94794 0
M  V30 4690 H 452.823 -0.250195 1.4181 0
M  V30 4691 H 454.776 -2.95952 2.99984 0
M  V30 4692 H 453.5 -2.74051 1.77661 0
M  V30 4693 H 452.159 -1.36195 3.40362 0
M  V30 4694 H 451.807 -3.83363 3.25641 0
M  V30 4695 H 451.507 -3.23312 4.90656 0
M  V30 4696 H 453.031 -4.08841 4.53521 0
M  V30 4697 H 454.445 -1.98 5.38023 0
M  V30 4698 H 452.842 -1.34256 5.84889 0
M  V30 4699 H 453.912 -0.356722 4.83586 0
M  V30 4700 N 455.255 -1.55392 -0.262866 0
M  V30 4701 C 456.666 -1.67079 -0.833158 0
M  V30 4702 C 457.017 -0.604539 -1.86654 0
M  V30 4703 O 456.142 0.252138 -2.14926 0
M  V30 4704 C 456.737 -3.02891 -1.51797 0
M  V30 4705 C 455.296 -3.16571 -2.03617 0
M  V30 4706 C 454.443 -2.62909 -0.881701 0
M  V30 4707 H 457.394 -1.58652 -0.0389986 0
M  V30 4708 H 457.415 -2.96445 -2.38538 0
M  V30 4709 H 456.927 -3.80473 -0.765619 0
M  V30 4710 H 455.028 -2.43782 -2.81782 0
M  V30 4711 H 455.141 -4.23271 -2.24452 0
M  V30 4712 H 453.505 -2.20324 -1.27786 0
M  V30 4713 H 454.288 -3.43003 -0.14269 0
M  V30 4714 N 456.733 0.527833 -1.48498 0
M  V30 4715 C 457.681 1.65313 -1.63628 0
M  V30 4716 C 458.675 1.6177 -0.502676 0
M  V30 4717 O 459.881 1.66601 -0.681469 0
M  V30 4718 H 456.256 0.547518 -0.515488 0
M  V30 4719 H 458.227 1.49696 -2.58135 0
M  V30 4720 C 456.976 3.03576 -1.6952 0
M  V30 4721 H 456.299 3.06997 -2.56111 0
M  V30 4722 H 457.739 3.81923 -1.84149 0
M  V30 4723 C 456.198 3.34089 -0.43432 0
M  V30 4724 O 456.728 3.99151 0.451852 0
M  V30 4725 N 454.934 2.88991 -0.305368 0
M  V30 4726 H 454.481 2.36222 -1.02747 0
M  V30 4727 H 454.439 3.09776 0.537249 0
M  V30 4728 N 458.211 1.37122 0.776871 0
M  V30 4729 C 459.458 1.32047 1.53524 0
M  V30 4730 C 459.786 -0.0965631 1.9426 0
M  V30 4731 O 459.041 -1.06866 1.63945 0
M  V30 4732 C 459.34 2.20068 2.81611 0
M  V30 4733 C 459.006 3.68423 2.59953 0
M  V30 4734 C 457.668 4.08854 2.53755 0
M  V30 4735 C 460.02 4.62431 2.40431 0
M  V30 4736 C 457.348 5.41417 2.26018 0
M  V30 4737 C 459.7 5.95225 2.14219 0
M  V30 4738 C 458.364 6.34767 2.06462 0
M  V30 4739 H 457.634 0.483196 0.561785 0
M  V30 4740 H 460.281 1.69284 0.895268 0
M  V30 4741 H 458.586 1.75809 3.50141 0
M  V30 4742 H 460.283 2.13458 3.39465 0
M  V30 4743 H 456.873 3.36354 2.65638 0
M  V30 4744 H 461.057 4.32057 2.44213 0
M  V30 4745 H 456.313 5.71022 2.18504 0
M  V30 4746 H 460.487 6.67626 1.98112 0
M  V30 4747 H 458.114 7.37413 1.84733 0
M  V30 4748 N 459.689 -1.00246 1.21608 0
M  V30 4749 C 460.917 -1.77631 1.06089 0
M  V30 4750 C 461.332 -1.84746 -0.38916 0
M  V30 4751 O 460.689 -1.31068 -1.26994 0
M  V30 4752 C 460.74 -3.21415 1.65453 0
M  V30 4753 O 460.461 -3.14703 3.04785 0
M  V30 4754 C 461.962 -4.15289 1.55079 0
M  V30 4755 H 459.182 -0.558162 0.37242 0
M  V30 4756 H 461.726 -1.26093 1.60999 0
M  V30 4757 H 459.881 -3.70053 1.14629 0
M  V30 4758 H 460.295 -4.05056 3.33212 0
M  V30 4759 H 461.769 -5.13965 2.01355 0
M  V30 4760 H 462.246 -4.36279 0.505665 0
M  V30 4761 H 462.852 -3.72543 2.05163 0
M  V30 4762 N 461.167 -1.02423 -1.1978 0
M  V30 4763 C 462.097 -0.62157 -2.25075 0
M  V30 4764 C 463.078 0.367148 -1.6609 0
M  V30 4765 O 464.263 0.250892 -1.92573 0
M  V30 4766 C 461.393 0.0331826 -3.47284 0
M  V30 4767 C 460.347 -0.877323 -4.18912 0
M  V30 4768 C 459.673 -0.0879296 -5.34628 0
M  V30 4769 C 460.973 -2.18892 -4.74219 0
M  V30 4770 H 462.667 -1.50179 -2.59011 0
M  V30 4771 H 460.213 -0.723547 -1.24502 0
M  V30 4772 H 462.166 0.326488 -4.20133 0
M  V30 4773 H 460.89 0.948164 -3.12534 0
M  V30 4774 H 459.549 -1.15475 -3.47938 0
M  V30 4775 H 459.197 0.828941 -4.96123 0
M  V30 4776 H 458.897 -0.694359 -5.83483 0
M  V30 4777 H 460.421 0.198743 -6.10276 0
M  V30 4778 H 461.835 -1.95746 -5.38847 0
M  V30 4779 H 460.232 -2.74686 -5.33542 0
M  V30 4780 H 461.302 -2.84674 -3.92541 0
M  V30 4781 N 462.645 1.35699 -0.801477 0
M  V30 4782 C 464.056 1.81415 -0.441073 0
M  V30 4783 C 464.407 1.66595 1.03636 0
M  V30 4784 O 463.532 1.19369 1.80499 0
M  V30 4785 C 464.127 3.29369 -0.793819 0
M  V30 4786 C 462.686 3.73248 -0.486083 0
M  V30 4787 C 461.833 2.57775 -1.02213 0
M  V30 4788 H 464.784 1.23749 -0.993572 0
M  V30 4789 H 464.805 3.80395 -0.0894158 0
M  V30 4790 H 464.317 3.40123 -1.86917 0
M  V30 4791 H 462.418 3.68046 0.580735 0
M  V30 4792 H 462.531 4.68222 -1.01513 0
M  V30 4793 H 460.895 2.50788 -0.444712 0
M  V30 4794 H 461.678 2.71309 -2.10348 0
M  V30 4795 N 464.123 0.554532 1.47522 0
M  V30 4796 C 465.371 0.0294208 2.02079 0
M  V30 4797 C 465.692 -1.32411 1.43151 0
M  V30 4798 O 464.962 -1.863 0.605728 0
M  V30 4799 H 463.542 0.00788672 0.746958 0
M  V30 4800 H 466.204 0.723934 1.80956 0
M  V30 4801 H 465.3 -0.0606745 3.12041 0
M  V30 4802 N 465.601 -1.54893 0.290851 0
M  V30 4803 C 466.878 -1.91991 -0.373989 0
M  V30 4804 C 467.258 -1.21694 -1.72493 0
M  V30 4805 O 466.606 -0.34917 -2.25816 0
M  V30 4806 C 466.816 -3.45419 -0.498703 0
M  V30 4807 C 468.164 -4.1748 -0.774298 0
M  V30 4808 O 469.188 -3.51398 -0.582908 0
M  V30 4809 O 468.047 -5.3445 -1.14129 0
M  V30 4810 H 465.141 -0.800593 -0.207315 0
M  V30 4811 H 467.687 -1.66297 0.338164 0
M  V30 4812 H 466.459 -3.88688 0.451392 0
M  V30 4813 H 466.082 -3.77117 -1.25972 0
M  V30 4814 N 467.08 -0.0183926 -1.57589 0
M  V30 4815 C 468.308 0.673046 -1.95647 0
M  V30 4816 C 468.723 1.66275 -0.894312 0
M  V30 4817 O 468.08 1.82072 0.124975 0
M  V30 4818 C 468.131 1.38884 -3.33756 0
M  V30 4819 O 467.852 0.438806 -4.35897 0
M  V30 4820 C 469.353 2.1731 -3.86383 0
M  V30 4821 H 466.573 0.186292 -0.644621 0
M  V30 4822 H 469.117 -0.0749748 -2.04363 0
M  V30 4823 H 467.272 2.08835 -3.26293 0
M  V30 4824 H 467.686 0.945869 -5.15901 0
M  V30 4825 H 469.16 2.62863 -4.85394 0
M  V30 4826 H 469.637 3.00764 -3.20059 0
M  V30 4827 H 470.243 1.52339 -3.97081 0
M  V30 4828 N 468.558 1.5553 0.254621 0
M  V30 4829 C 469.783 1.81383 1.00573 0
M  V30 4830 C 470.208 0.594419 1.78461 0
M  V30 4831 O 469.566 -0.456403 1.75461 0
M  V30 4832 C 469.614 3.04892 1.92545 0
M  V30 4833 O 468.718 2.81266 3.01601 0
M  V30 4834 H 468.059 0.598969 0.286587 0
M  V30 4835 H 470.589 2.02703 0.277952 0
M  V30 4836 H 470.599 3.34119 2.34155 0
M  V30 4837 H 469.274 3.93287 1.3527 0
M  V30 4838 H 467.851 2.63185 2.64174 0
M  V30 4839 N 470.036 -0.519951 1.48776 0
M  V30 4840 C 470.999 -1.60574 1.6355 0
M  V30 4841 C 471.999 -1.52557 0.508234 0
M  V30 4842 O 473.189 -1.56047 0.774262 0
M  V30 4843 C 470.321 -3.00211 1.61512 0
M  V30 4844 H 471.514 -1.4881 2.60376 0
M  V30 4845 H 469.067 -0.742772 1.37523 0
M  V30 4846 H 469.802 -3.17471 0.662009 0
M  V30 4847 H 469.587 -3.07439 2.43359 0
M  V30 4848 H 471.077 -3.79134 1.75064 0
M  V30 4849 N 471.514 -1.37532 -0.769588 0
M  V30 4850 C 472.739 -1.36231 -1.56384 0
M  V30 4851 C 473.164 0.0495849 -1.88035 0
M  V30 4852 O 472.522 1.02723 -1.49391 0
M  V30 4853 C 472.57 -2.20986 -2.84952 0
M  V30 4854 O 471.674 -1.61597 -3.79421 0
M  V30 4855 H 471.015 -0.465387 -0.473615 0
M  V30 4856 H 473.545 -1.81085 -0.952342 0
M  V30 4857 H 473.555 -2.34277 -3.34034 0
M  V30 4858 H 472.23 -3.23612 -2.61243 0
M  V30 4859 H 470.807 -1.57359 -3.38072 0
M  V30 4860 N 472.992 0.995999 -1.22138 0
M  V30 4861 C 474.269 1.70834 -0.952642 0
M  V30 4862 C 474.649 2.04257 0.533119 0
M  V30 4863 O 473.997 1.72343 1.50034 0
M  V30 4864 C 474.207 2.96119 -1.84701 0
M  V30 4865 C 475.555 3.68962 -2.10124 0
M  V30 4866 O 476.579 3.0612 -1.82124 0
M  V30 4867 O 475.438 4.82017 -2.57531 0
M  V30 4868 H 472.532 0.745498 -0.357997 0
M  V30 4869 H 475.078 1.05262 -1.33109 0
M  V30 4870 H 473.85 2.67898 -2.85213 0
M  V30 4871 H 473.473 3.6943 -1.46995 0
M  V30 4872 N 474.47 1.03057 1.19235 0
M  V30 4873 C 475.886 0.747947 1.40989 0
M  V30 4874 C 476.086 -0.666752 1.90149 0
M  V30 4875 O 475.142 -1.43249 2.07933 0
M  V30 4876 C 476.455 1.7855 2.41951 0
M  V30 4877 C 478.003 1.80524 2.55695 0
M  V30 4878 C 478.478 2.83243 3.59913 0
M  V30 4879 N 479.969 2.8207 3.67411 0
M  V30 4880 C 480.704 3.58204 4.47747 0
M  V30 4881 N 480.2 4.44057 5.31775 0
M  V30 4882 N 481.993 3.46738 4.42413 0
M  V30 4883 H 474.144 1.94367 0.856468 0
M  V30 4884 H 476.407 0.840412 0.438647 0
M  V30 4885 H 476.113 2.79973 2.12857 0
M  V30 4886 H 475.987 1.6092 3.41152 0
M  V30 4887 H 478.374 0.79778 2.84112 0
M  V30 4888 H 478.455 2.02229 1.56643 0
M  V30 4889 H 478.099 3.84161 3.32239 0
M  V30 4890 H 478.029 2.58795 4.5862 0
M  V30 4891 H 480.52 2.19803 3.074 0
M  V30 4892 H 480.833 4.98884 5.90199 0
M  V30 4893 H 479.178 4.48129 5.3123 0
M  V30 4894 H 482.369 2.79077 3.75811 0
M  V30 4895 H 482.542 4.06322 5.04783 0
M  V30 4896 N 475.948 -1.35272 0.808662 0
M  V30 4897 C 477.195 -1.98709 0.390003 0
M  V30 4898 C 477.523 -1.64148 -1.04335 0
M  V30 4899 O 476.778 -0.897797 -1.73891 0
M  V30 4900 C 477.077 -3.53556 0.522798 0
M  V30 4901 C 476.743 -4.0799 1.91977 0
M  V30 4902 C 475.405 -4.22568 2.30195 0
M  V30 4903 C 477.757 -4.37442 2.83361 0
M  V30 4904 C 475.085 -4.63918 3.59162 0
M  V30 4905 C 477.437 -4.80232 4.11776 0
M  V30 4906 C 476.101 -4.93016 4.49991 0
M  V30 4907 H 475.371 -0.727127 0.142712 0
M  V30 4908 H 478.018 -1.6145 1.02985 0
M  V30 4909 H 476.323 -3.91287 -0.200494 0
M  V30 4910 H 478.02 -4.00598 0.179608 0
M  V30 4911 H 474.61 -3.97096 1.61284 0
M  V30 4912 H 478.794 -4.25731 2.55083 0
M  V30 4913 H 474.05 -4.72005 3.88615 0
M  V30 4914 H 478.224 -5.01982 4.82687 0
M  V30 4915 H 475.851 -5.24814 5.49976 0
M  V30 4916 N 477.426 -0.562348 -1.47226 0
M  V30 4917 C 478.656 -0.0451619 -2.06551 0
M  V30 4918 C 479.064 1.25626 -1.41473 0
M  V30 4919 O 478.407 1.76563 -0.507061 0
M  V30 4920 C 478.469 0.216068 -3.5885 0
M  V30 4921 C 478.133 -0.996691 -4.45999 0
M  V30 4922 C 479.13 -1.90358 -4.83797 0
M  V30 4923 C 476.815 -1.21281 -4.87438 0
M  V30 4924 C 478.809 -3.01023 -5.6184 0
M  V30 4925 C 476.496 -2.32255 -5.65244 0
M  V30 4926 C 477.494 -3.21956 -6.02356 0
M  V30 4927 O 477.182 -4.31005 -6.78594 0
M  V30 4928 H 476.914 -0.0451646 -0.67449 0
M  V30 4929 H 479.468 -0.776842 -1.90143 0
M  V30 4930 H 477.698 1.00212 -3.7349 0
M  V30 4931 H 479.387 0.679264 -4.00176 0
M  V30 4932 H 480.153 -1.74868 -4.52378 0
M  V30 4933 H 476.032 -0.523767 -4.58015 0
M  V30 4934 H 479.576 -3.71064 -5.90726 0
M  V30 4935 H 475.473 -2.47715 -5.96077 0
M  V30 4936 H 476.241 -4.29118 -6.96994 0
M  V30 4937 N 478.904 1.54736 -0.299062 0
M  V30 4938 C 479.851 2.23448 0.577899 0
M  V30 4939 C 480.821 1.21637 1.13109 0
M  V30 4940 O 482.006 1.50252 1.17597 0
M  V30 4941 C 479.146 2.9774 1.74484 0
M  V30 4942 C 478.259 4.1432 1.22323 0
M  V30 4943 C 477.394 4.76199 2.35388 0
M  V30 4944 C 476.433 5.84927 1.80351 0
M  V30 4945 N 475.57 6.4077 2.86982 0
M  V30 4946 H 480.41 2.97996 -0.0146545 0
M  V30 4947 H 477.947 1.47088 -0.0190013 0
M  V30 4948 H 479.905 3.39045 2.43114 0
M  V30 4949 H 478.535 2.25572 2.30905 0
M  V30 4950 H 477.587 3.7797 0.429249 0
M  V30 4951 H 478.899 4.92659 0.780309 0
M  V30 4952 H 478.053 5.20346 3.11969 0
M  V30 4953 H 476.792 3.97188 2.83006 0
M  V30 4954 H 475.797 5.40207 1.02259 0
M  V30 4955 H 477.022 6.65821 1.3364 0
M  V30 4956 H 474.968 5.64643 3.33938 0
M  V30 4957 H 474.885 7.1445 2.4718 0
M  V30 4958 H 476.153 6.89574 3.63466 0
M  V30 4959 N 480.382 0.0267497 1.57577 0
M  V30 4960 C 481.61 -0.662661 1.96001 0
M  V30 4961 C 482.025 -1.65799 0.903117 0
M  V30 4962 O 481.382 -1.82135 -0.115317 0
M  V30 4963 C 481.433 -1.37112 3.34488 0
M  V30 4964 O 481.154 -0.415683 4.36123 0
M  V30 4965 C 482.655 -2.15257 3.8753 0
M  V30 4966 H 479.875 -0.18287 0.6456 0
M  V30 4967 H 482.419 0.0858116 2.0432 0
M  V30 4968 H 480.574 -2.07101 3.27395 0
M  V30 4969 H 480.988 -0.918496 5.16395 0
M  V30 4970 H 482.462 -2.60285 4.86781 0
M  V30 4971 H 482.939 -2.99063 3.21649 0
M  V30 4972 H 483.545 -1.50231 3.97883 0
M  V30 4973 N 481.861 -1.55662 -0.24637 0
M  V30 4974 C 483.138 -1.68272 -0.997198 0
M  V30 4975 C 483.518 -0.566785 -2.03349 0
M  V30 4976 O 482.866 0.429688 -2.24424 0
M  V30 4977 C 483.076 -3.08594 -1.63006 0
M  V30 4978 C 484.424 -3.6721 -2.13171 0
M  V30 4979 O 485.448 -3.11397 -1.72946 0
M  V30 4980 O 484.307 -4.65054 -2.87031 0
M  V30 4981 H 481.401 -0.684429 -0.464205 0
M  V30 4982 H 483.947 -1.67993 -0.240114 0
M  V30 4983 H 482.719 -3.81264 -0.880527 0
M  V30 4984 H 482.342 -3.12886 -2.45333 0
M  V30 4985 N 483.339 0.512053 -1.4905 0
M  V30 4986 C 484.588 1.26343 -1.57227 0
M  V30 4987 C 484.901 1.93876 -0.259155 0
M  V30 4988 O 486.107 2.70612 -0.219358 0
M  V30 4989 C 484.563 2.29343 -2.77362 0
M  V30 4990 C 484.171 1.67799 -4.15388 0
M  V30 4991 C 485.915 3.05378 -2.94864 0
M  V30 4992 C 483.822 2.68845 -5.2676 0
M  V30 4993 H 482.752 0.475231 -0.585382 0
M  V30 4994 H 485.403 0.53862 -1.75417 0
M  V30 4995 H 483.785 3.04938 -2.52643 0
M  V30 4996 H 484.959 0.982715 -4.50199 0
M  V30 4997 H 483.274 1.04194 -4.03153 0
M  V30 4998 H 485.871 3.80921 -3.75238 0
M  V30 4999 H 486.214 3.62327 -2.05 0
M  V30 5000 H 486.747 2.36898 -3.19569 0
M  V30 5001 H 483.486 2.16692 -6.18647 0
M  V30 5002 H 483.006 3.36647 -4.96416 0
M  V30 5003 H 484.685 3.31487 -5.5563 0
M  V30 5004 N 484.817 1.37938 0.762283 0
M  V30 5005 C 486.045 1.36883 1.55147 0
M  V30 5006 C 486.46 -0.0435348 1.8875 0
M  V30 5007 O 485.817 -1.00786 1.52146 0
M  V30 5008 C 485.868 2.21624 2.85596 0
M  V30 5009 O 485.589 3.57358 2.5343 0
M  V30 5010 C 487.09 2.28653 3.7978 0
M  V30 5011 H 484.31 0.468521 0.480343 0
M  V30 5012 H 486.854 1.81404 0.944079 0
M  V30 5013 H 485.009 1.80588 3.42734 0
M  V30 5014 H 485.423 4.01883 3.37032 0
M  V30 5015 H 486.897 2.9225 4.68288 0
M  V30 5016 H 487.374 1.29767 4.19592 0
M  V30 5017 H 487.98 2.70043 3.28568 0
M  V30 5018 N 486.295 -0.989507 1.22664 0
M  V30 5019 C 487.205 -2.11449 1.01619 0
M  V30 5020 C 488.221 -1.73962 -0.036545 0
M  V30 5021 O 489.397 -2.00788 0.156924 0
M  V30 5022 C 486.462 -3.41465 0.600204 0
M  V30 5023 C 485.523 -3.93033 1.72695 0
M  V30 5024 C 484.756 -5.16844 1.33071 0
M  V30 5025 O 484.979 -5.7001 0.210975 0
M  V30 5026 O 483.913 -5.6225 2.14845 0
M  V30 5027 H 487.739 -2.32088 1.9588 0
M  V30 5028 H 485.324 -1.09823 1.01289 0
M  V30 5029 H 487.206 -4.19695 0.37873 0
M  V30 5030 H 485.881 -3.22178 -0.313511 0
M  V30 5031 H 484.788 -3.15961 2.00298 0
M  V30 5032 H 486.121 -4.16758 2.61865 0
M  V30 5033 N 487.773 -1.03688 -1.18687 0
M  V30 5034 C 489.184 -0.766488 -1.70241 0
M  V30 5035 C 489.535 0.713052 -1.82784 0
M  V30 5036 O 488.66 1.55529 -1.50465 0
M  V30 5037 C 489.255 -1.38475 -3.09209 0
M  V30 5038 C 487.814 -1.16276 -3.5799 0
M  V30 5039 C 486.961 -1.4778 -2.34641 0
M  V30 5040 H 489.912 -1.20378 -1.03415 0
M  V30 5041 H 489.933 -0.785939 -3.72295 0
M  V30 5042 H 489.445 -2.46157 -3.00048 0
M  V30 5043 H 487.546 -0.104508 -3.72453 0
M  V30 5044 H 487.659 -1.8571 -4.41643 0
M  V30 5045 H 486.023 -0.897366 -2.38368 0
M  V30 5046 H 486.806 -2.56562 -2.28102 0
M  V30 5047 N 489.251 1.34841 -0.815825 0
M  V30 5048 C 490.498 1.98499 -0.400535 0
M  V30 5049 C 490.826 1.64699 1.03463 0
M  V30 5050 O 490.081 0.907006 1.73412 0
M  V30 5051 C 490.38 3.53273 -0.541541 0
M  V30 5052 C 490.046 4.06966 -1.94138 0
M  V30 5053 C 488.708 4.21341 -2.32433 0
M  V30 5054 C 491.06 4.35933 -2.85677 0
M  V30 5055 C 488.388 4.62007 -3.61617 0
M  V30 5056 C 490.74 4.78042 -4.14317 0
M  V30 5057 C 489.404 4.90622 -4.52599 0
M  V30 5058 H 488.674 0.72636 -0.146566 0
M  V30 5059 H 491.321 1.60902 -1.0384 0
M  V30 5060 H 489.626 3.91387 0.179741 0
M  V30 5061 H 491.323 4.00497 -0.20085 0
M  V30 5062 H 487.913 3.96235 -1.63388 0
M  V30 5063 H 492.097 4.24372 -2.57337 0
M  V30 5064 H 487.353 4.69937 -3.91113 0
M  V30 5065 H 491.527 4.99415 -4.85342 0
M  V30 5066 H 489.154 5.2189 -5.52752 0
M  V30 5067 N 490.729 0.570148 1.46925 0
M  V30 5068 C 491.975 0.0510284 2.02736 0
M  V30 5069 C 492.308 -1.3006 1.44215 0
M  V30 5070 O 491.583 -1.84932 0.602521 0
M  V30 5071 C 491.866 -0.028215 3.60089 0
M  V30 5072 C 491.719 1.35142 4.29018 0
M  V30 5073 C 493.038 -0.735181 4.33916 0
M  V30 5074 H 490.157 0.0200178 0.736728 0
M  V30 5075 H 492.799 0.73493 1.75211 0
M  V30 5076 H 490.949 -0.610648 3.83671 0
M  V30 5077 H 492.621 1.97806 4.16738 0
M  V30 5078 H 490.864 1.9226 3.88868 0
M  V30 5079 H 491.535 1.24857 5.37694 0
M  V30 5080 H 494.011 -0.240519 4.15404 0
M  V30 5081 H 492.887 -0.759622 5.43618 0
M  V30 5082 H 493.148 -1.79397 4.04066 0
M  V30 5083 N 492.207 -1.54576 0.307264 0
M  V30 5084 C 493.137 -2.26708 -0.55907 0
M  V30 5085 C 494.118 -1.26893 -1.1328 0
M  V30 5086 O 495.303 -1.55677 -1.16097 0
M  V30 5087 C 492.433 -3.01259 -1.72801 0
M  V30 5088 C 491.387 -4.08275 -1.28435 0
M  V30 5089 C 490.713 -4.70575 -2.53895 0
M  V30 5090 C 492.013 -5.2068 -0.411038 0
M  V30 5091 H 493.707 -2.9937 0.042576 0
M  V30 5092 H 491.253 -1.43983 0.0219173 0
M  V30 5093 H 493.206 -3.50444 -2.34023 0
M  V30 5094 H 491.93 -2.26187 -2.356 0
M  V30 5095 H 490.589 -3.59949 -0.695161 0
M  V30 5096 H 490.237 -3.92136 -3.15021 0
M  V30 5097 H 489.937 -5.42854 -2.24908 0
M  V30 5098 H 491.461 -5.22527 -3.15908 0
M  V30 5099 H 492.875 -5.65721 -0.929097 0
M  V30 5100 H 491.272 -5.99716 -0.214664 0
M  V30 5101 H 492.342 -4.81629 0.562287 0
M  V30 5102 N 493.685 -0.035106 -1.57561 0
M  V30 5103 C 494.91 0.655802 -1.96759 0
M  V30 5104 C 495.335 1.64523 -0.911809 0
M  V30 5105 O 494.693 1.80857 0.126673 0
M  V30 5106 C 494.741 1.33326 -3.35047 0
M  V30 5107 O 493.845 2.44866 -3.31835 0
M  V30 5108 H 493.186 0.171807 -0.641388 0
M  V30 5109 H 495.716 -0.0987369 -2.04362 0
M  V30 5110 H 495.726 1.68867 -3.71413 0
M  V30 5111 H 494.401 0.608033 -4.11431 0
M  V30 5112 H 492.978 2.11392 -3.07193 0
M  V30 5113 N 495.163 1.55791 0.238111 0
M  V30 5114 C 496.411 1.77681 0.963001 0
M  V30 5115 C 496.732 0.600674 1.85518 0
M  V30 5116 O 496.002 -0.383182 1.92116 0
M  V30 5117 H 494.582 0.655315 0.358568 0
M  V30 5118 H 497.244 1.93239 0.253945 0
M  V30 5119 H 496.34 2.69177 1.57956 0
M  V30 5120 N 496.642 -0.504142 1.49319 0
M  V30 5121 C 497.89 -1.25598 1.58334 0
M  V30 5122 C 498.211 -1.93114 0.270538 0
M  V30 5123 O 497.481 -1.82585 -0.709891 0
M  V30 5124 H 496.061 -0.466571 0.58337 0
M  V30 5125 H 498.723 -0.584547 1.85928 0
M  V30 5126 H 497.819 -2.02159 2.37778 0
M  V30 5127 N 498.12 -1.38341 -0.754957 0
M  V30 5128 C 499.07 -1.31964 -1.85929 0
M  V30 5129 C 500.054 -0.204181 -1.59599 0
M  V30 5130 O 501.246 -0.440036 -1.71443 0
M  V30 5131 C 498.375 -1.14565 -3.2362 0
M  V30 5132 C 497.461 -2.30727 -3.55846 0
M  V30 5133 N 497.852 -3.56165 -3.59138 0
M  V30 5134 C 496.15 -2.23249 -3.86104 0
M  V30 5135 C 496.851 -4.32865 -3.88591 0
M  V30 5136 N 495.827 -3.62203 -4.05351 0
M  V30 5137 H 499.629 -2.2694 -1.8675 0
M  V30 5138 H 497.143 -1.31553 -0.952243 0
M  V30 5139 H 499.14 -1.0808 -4.02647 0
M  V30 5140 H 497.8 -0.205212 -3.24051 0
M  V30 5141 H 498.811 -3.89854 -3.40932 0
M  V30 5142 H 495.488 -1.37357 -3.94258 0
M  V30 5143 H 496.878 -5.41504 -3.97773 0
M  V30 5144 N 499.598 0.982988 -1.23187 0
M  V30 5145 C 500.528 2.09301 -1.03515 0
M  V30 5146 C 501.509 1.70035 0.0471136 0
M  V30 5147 O 502.694 1.93847 -0.117029 0
M  V30 5148 C 499.824 3.4167 -0.622791 0
M  V30 5149 C 498.778 3.94828 -1.65211 0
M  V30 5150 C 498.104 5.23362 -1.09527 0
M  V30 5151 C 499.404 4.2439 -3.04451 0
M  V30 5152 H 501.098 2.26016 -1.96359 0
M  V30 5153 H 498.644 1.08611 -0.945501 0
M  V30 5154 H 500.597 4.18746 -0.472233 0
M  V30 5155 H 499.321 3.24811 0.341329 0
M  V30 5156 H 497.98 3.19895 -1.79061 0
M  V30 5157 H 497.628 5.02852 -0.122211 0
M  V30 5158 H 497.328 5.59895 -1.783 0
M  V30 5159 H 498.852 6.03062 -0.956511 0
M  V30 5160 H 500.266 4.92225 -2.93917 0
M  V30 5161 H 498.663 4.72118 -3.70438 0
M  V30 5162 H 499.733 3.31765 -3.53638 0
M  V30 5163 N 501.076 1.04316 1.18135 0
M  V30 5164 C 502.487 0.775505 1.69832 0
M  V30 5165 C 502.838 -0.703348 1.8316 0
M  V30 5166 O 501.963 -1.54729 1.51287 0
M  V30 5167 C 502.558 1.40112 3.0847 0
M  V30 5168 C 501.117 1.18172 3.57368 0
M  V30 5169 C 500.264 1.49022 2.33854 0
M  V30 5170 H 503.215 1.20925 1.02775 0
M  V30 5171 H 503.236 0.805672 3.71873 0
M  V30 5172 H 502.748 2.47744 2.98738 0
M  V30 5173 H 500.849 0.124258 3.72393 0
M  V30 5174 H 500.962 1.8805 4.40652 0
M  V30 5175 H 499.326 0.909995 2.37889 0
M  V30 5176 H 500.109 2.57768 2.26738 0
M  V30 5177 N 502.554 -1.34406 0.822964 0
M  V30 5178 C 503.8 -1.98578 0.411666 0
M  V30 5179 C 504.133 -1.65093 -1.02264 0
M  V30 5180 O 503.408 -0.92258 -1.71227 0
M  V30 5181 C 503.691 -3.54823 0.614235 0
M  V30 5182 C 503.544 -3.9805 2.09466 0
M  V30 5183 C 504.863 -4.40071 0.050221 0
M  V30 5184 H 501.982 -0.721355 0.151047 0
M  V30 5185 H 504.624 -1.59301 1.03554 0
M  V30 5186 H 502.774 -3.88411 0.0831774 0
M  V30 5187 H 504.446 -3.74795 2.68936 0
M  V30 5188 H 502.689 -3.4836 2.5851 0
M  V30 5189 H 503.36 -5.06819 2.18721 0
M  V30 5190 H 505.836 -4.13037 0.503953 0
M  V30 5191 H 504.712 -5.48452 0.221759 0
M  V30 5192 H 504.973 -4.29576 -1.04482 0
M  V30 5193 N 504.032 -0.577932 -1.46621 0
M  V30 5194 C 505.443 -0.150071 -1.86096 0
M  V30 5195 C 505.794 1.28563 -1.48209 0
M  V30 5196 O 504.919 1.97036 -0.894754 0
M  V30 5197 C 505.514 -0.265576 -3.37758 0
M  V30 5198 C 504.073 0.10738 -3.76247 0
M  V30 5199 C 503.22 -0.603711 -2.70649 0
M  V30 5200 H 506.171 -0.786438 -1.37844 0
M  V30 5201 H 506.192 0.510352 -3.77062 0
M  V30 5202 H 505.704 -1.3106 -3.65301 0
M  V30 5203 H 503.805 1.15272 -3.54321 0
M  V30 5204 H 503.918 -0.26561 -4.78363 0
M  V30 5205 H 502.282 -0.0444884 -2.54661 0
M  V30 5206 H 503.065 -1.65029 -3.01032 0
M  V30 5207 N 505.51 1.54411 -0.315457 0
M  V30 5208 C 506.738 2.04833 0.291738 0
M  V30 5209 C 507.153 1.19203 1.46411 0
M  V30 5210 O 506.51 0.220867 1.81159 0
M  V30 5211 C 506.561 3.53969 0.73404 0
M  V30 5212 O 506.282 4.36346 -0.391682 0
M  V30 5213 C 507.783 4.2045 1.40489 0
M  V30 5214 H 505.003 0.668195 0.0612947 0
M  V30 5215 H 507.547 1.99276 -0.45929 0
M  V30 5216 H 505.702 3.5984 1.43506 0
M  V30 5217 H 506.116 5.24481 -0.0447088 0
M  V30 5218 H 507.59 5.26278 1.66539 0
M  V30 5219 H 508.067 3.71067 2.3496 0
M  V30 5220 H 508.673 4.18694 0.746662 0
M  V30 5221 N 506.988 0.0434614 1.5754 0
M  V30 5222 C 508.236 -0.630786 1.92004 0
M  V30 5223 C 508.557 -1.71836 0.921807 0
M  V30 5224 O 507.827 -1.9587 -0.034522 0
M  V30 5225 H 506.407 -0.235988 0.708745 0
M  V30 5226 H 509.069 0.0946462 1.9467 0
M  V30 5227 H 508.165 -1.07434 2.93026 0
M  V30 5228 N 508.466 -1.55915 -0.229846 0
M  V30 5229 C 509.877 -1.68809 -0.797531 0
M  V30 5230 C 510.228 -0.643995 -1.8533 0
M  V30 5231 O 509.353 0.206492 -2.15413 0
M  V30 5232 C 509.948 -3.06043 -1.45338 0
M  V30 5233 C 508.507 -3.20819 -1.96856 0
M  V30 5234 C 507.654 -2.6472 -0.825736 0
M  V30 5235 H 510.605 -1.58699 -0.00533733 0
M  V30 5236 H 510.626 -3.01438 -2.32196 0
M  V30 5237 H 510.138 -3.82012 -0.684743 0
M  V30 5238 H 508.239 -2.49704 -2.76548 0
M  V30 5239 H 508.352 -4.27937 -2.15423 0
M  V30 5240 H 506.716 -2.22985 -1.23084 0
M  V30 5241 H 507.499 -3.43229 -0.0699019 0
M  V30 5242 N 509.944 0.496216 -1.49584 0
M  V30 5243 C 511.192 1.24756 -1.58998 0
M  V30 5244 C 511.513 1.92968 -0.280775 0
M  V30 5245 O 510.783 1.82959 0.700198 0
M  V30 5246 H 509.363 0.463471 -0.585836 0
M  V30 5247 H 512.025 0.574678 -1.86235 0
M  V30 5248 H 511.121 2.00895 -2.38847 0
M  V30 5249 N 511.423 1.38739 0.74761 0
M  V30 5250 C 512.353 1.39173 1.87492 0
M  V30 5251 C 513.334 0.256794 1.6815 0
M  V30 5252 O 514.519 0.460762 1.88655 0
M  V30 5253 C 511.649 1.22197 3.25093 0
M  V30 5254 C 510.603 2.32957 3.59047 0
M  V30 5255 C 509.929 2.01082 4.95449 0
M  V30 5256 C 511.229 3.75237 3.6331 0
M  V30 5257 H 512.923 2.3351 1.87386 0
M  V30 5258 H 510.469 1.12399 0.900134 0
M  V30 5259 H 512.422 1.21124 4.03617 0
M  V30 5260 H 511.146 0.243241 3.25693 0
M  V30 5261 H 509.805 2.33226 2.82845 0
M  V30 5262 H 509.453 1.01678 4.92616 0
M  V30 5263 H 509.153 2.75267 5.19136 0
M  V30 5264 H 510.677 2.01638 5.76346 0
M  V30 5265 H 512.091 3.76966 4.31937 0
M  V30 5266 H 510.488 4.48677 3.98509 0
M  V30 5267 H 511.558 4.07122 2.634 0
M  V30 5268 N 512.901 -0.976442 1.23707 0
M  V30 5269 C 514.149 -1.71487 1.06942 0
M  V30 5270 C 514.47 -1.9098 -0.393897 0
M  V30 5271 O 513.74 -1.48128 -1.28198 0
M  V30 5272 H 512.32 -0.635425 0.392739 0
M  V30 5273 H 514.982 -1.17515 1.55487 0
M  V30 5274 H 514.078 -2.70286 1.56051 0
M  V30 5275 N 514.379 -1.04941 -1.1758 0
M  V30 5276 C 515.625 -0.759112 -1.88057 0
M  V30 5277 C 515.958 0.711918 -1.8068 0
M  V30 5278 O 515.233 1.52035 -1.21308 0
M  V30 5279 C 515.516 -1.237 -3.38187 0
M  V30 5280 C 515.369 -2.77078 -3.54327 0
M  V30 5281 C 516.688 -0.834014 -4.32125 0
M  V30 5282 H 513.807 -0.277237 -0.682868 0
M  V30 5283 H 516.449 -1.30296 -1.38286 0
M  V30 5284 H 514.599 -0.774337 -3.80705 0
M  V30 5285 H 516.271 -3.31449 -3.20842 0
M  V30 5286 H 514.514 -3.16477 -2.96689 0
M  V30 5287 H 515.185 -3.05577 -4.59703 0
M  V30 5288 H 517.661 -1.23228 -3.97434 0
M  V30 5289 H 516.537 -1.19603 -5.35711 0
M  V30 5290 H 516.798 0.262195 -4.41322 0
M  V30 5291 N 515.857 1.33968 -0.830081 0
M  V30 5292 C 516.82 2.27694 -0.26235 0
M  V30 5293 C 517.82 1.50589 0.563876 0
M  V30 5294 O 519.01 1.70028 0.378941 0
M  V30 5295 C 516.142 3.35002 0.63138 0
M  V30 5296 H 517.335 2.79419 -1.08928 0
M  V30 5297 H 514.888 1.44221 -0.602486 0
M  V30 5298 H 515.623 2.88504 1.48109 0
M  V30 5299 H 515.408 3.92079 0.0403276 0
M  V30 5300 H 516.898 4.04897 1.02217 0
M  V30 5301 N 517.335 0.585699 1.46312 0
M  V30 5302 C 518.746 0.159938 1.86014 0
M  V30 5303 C 519.097 -1.27775 1.48889 0
M  V30 5304 O 518.222 -1.96559 0.90519 0
M  V30 5305 C 518.817 0.283485 3.37612 0
M  V30 5306 C 517.376 -0.0874256 3.76298 0
M  V30 5307 C 516.523 0.618055 2.70325 0
M  V30 5308 H 519.474 0.793737 1.37425 0
M  V30 5309 H 519.495 -0.490348 3.77327 0
M  V30 5310 H 519.007 1.32995 3.64601 0
M  V30 5311 H 517.108 -1.13391 3.54927 0
M  V30 5312 H 517.221 0.290975 4.78216 0
M  V30 5313 H 515.585 0.057993 2.54634 0
M  V30 5314 H 516.368 1.66623 3.00153 0
M  V30 5315 N 518.813 -1.54241 0.323641 0
M  V30 5316 C 520.062 -1.9975 -0.279806 0
M  V30 5317 C 520.375 -1.2156 -1.5324 0
M  V30 5318 O 521.581 -1.57447 -2.21185 0
M  V30 5319 C 520.037 -3.55686 -0.549115 0
M  V30 5320 C 519.645 -4.4271 0.686432 0
M  V30 5321 C 521.389 -4.09663 -1.11251 0
M  V30 5322 C 519.296 -5.90119 0.389022 0
M  V30 5323 H 518.226 -0.746177 -0.10833 0
M  V30 5324 H 520.877 -1.78248 0.435877 0
M  V30 5325 H 519.259 -3.73176 -1.32499 0
M  V30 5326 H 520.433 -4.36996 1.46188 0
M  V30 5327 H 518.748 -3.99623 1.17005 0
M  V30 5328 H 521.345 -5.17386 -1.34965 0
M  V30 5329 H 521.688 -3.61651 -2.06191 0
M  V30 5330 H 522.221 -3.95806 -0.39782 0
M  V30 5331 H 518.96 -6.42326 1.30759 0
M  V30 5332 H 518.48 -5.98785 -0.348722 0
M  V30 5333 H 520.159 -6.47 -0.0011164 0
M  V30 5334 N 520.291 -0.0518155 -1.57515 0
M  V30 5335 C 521.702 0.483787 -1.80323 0
M  V30 5336 C 522.053 1.70879 -0.964099 0
M  V30 5337 O 521.178 2.15643 -0.180872 0
M  V30 5338 C 521.773 0.884459 -3.27052 0
M  V30 5339 C 520.332 1.36504 -3.50776 0
M  V30 5340 C 519.479 0.340539 -2.75201 0
M  V30 5341 H 522.43 -0.277691 -1.56252 0
M  V30 5342 H 522.451 1.74733 -3.38007 0
M  V30 5343 H 521.963 -0.00731093 -3.88099 0
M  V30 5344 H 520.064 2.27598 -2.95009 0
M  V30 5345 H 520.177 1.35675 -4.59488 0
M  V30 5346 H 518.541 0.81356 -2.41357 0
M  V30 5347 H 519.324 -0.543156 -3.38976 0
M  V30 5348 N 521.769 1.56035 0.221574 0
M  V30 5349 C 522.679 1.95581 1.29558 0
M  V30 5350 C 523.695 0.859639 1.51282 0
M  V30 5351 O 524.871 1.16321 1.64413 0
M  V30 5352 C 521.936 2.26447 2.62531 0
M  V30 5353 C 520.997 3.49632 2.4911 0
M  V30 5354 C 520.23 3.79017 3.75742 0
M  V30 5355 O 520.453 3.10077 4.78757 0
M  V30 5356 O 519.387 4.72507 3.72855 0
M  V30 5357 H 523.213 2.8711 0.990035 0
M  V30 5358 H 520.798 1.43244 0.424434 0
M  V30 5359 H 522.68 2.47494 3.41064 0
M  V30 5360 H 521.355 1.38092 2.92766 0
M  V30 5361 H 520.262 3.33864 1.68777 0
M  V30 5362 H 521.595 4.3837 2.23814 0
M  V30 5363 N 523.247 -0.488276 1.49845 0
M  V30 5364 C 524.177 -1.59675 1.70371 0
M  V30 5365 C 525.158 -1.60878 0.552473 0
M  V30 5366 O 526.343 -1.77417 0.78973 0
M  V30 5367 C 523.473 -2.98098 1.782 0
M  V30 5368 C 522.427 -3.11761 2.93239 0
M  V30 5369 C 521.753 -4.51661 2.86193 0
M  V30 5370 C 523.053 -2.90589 4.33999 0
M  V30 5371 H 524.747 -1.42752 2.63177 0
M  V30 5372 H 522.293 -0.685317 1.26647 0
M  V30 5373 H 524.246 -3.75555 1.91144 0
M  V30 5374 H 522.97 -3.16138 0.820018 0
M  V30 5375 H 521.629 -2.36732 2.79917 0
M  V30 5376 H 521.277 -4.66595 1.87877 0
M  V30 5377 H 520.977 -4.61742 3.63412 0
M  V30 5378 H 522.501 -5.31162 3.01163 0
M  V30 5379 H 523.915 -3.57807 4.47936 0
M  V30 5380 H 522.312 -3.1213 5.12538 0
M  V30 5381 H 523.382 -1.86595 4.4756 0
M  V30 5382 N 524.725 -1.39134 -0.740242 0
M  V30 5383 C 525.655 -1.40165 -1.86751 0
M  V30 5384 C 526.636 -0.265708 -1.68012 0
M  V30 5385 O 527.821 -0.47076 -1.88408 0
M  V30 5386 C 524.951 -1.2392 -3.2444 0
M  V30 5387 C 523.905 -2.34858 -3.57807 0
M  V30 5388 C 523.231 -2.03707 -4.94376 0
M  V30 5389 C 524.531 -3.77159 -3.61315 0
M  V30 5390 H 526.225 -2.345 -1.86145 0
M  V30 5391 H 523.771 -1.12875 -0.89416 0
M  V30 5392 H 525.724 -1.23263 -4.02969 0
M  V30 5393 H 524.448 -0.26051 -3.25559 0
M  V30 5394 H 523.107 -2.34723 -2.81604 0
M  V30 5395 H 522.755 -1.04289 -4.9207 0
M  V30 5396 H 522.455 -2.78016 -5.17669 0
M  V30 5397 H 523.979 -2.04691 -5.75268 0
M  V30 5398 H 525.393 -3.79252 -4.29931 0
M  V30 5399 H 523.79 -4.50784 -3.96124 0
M  V30 5400 H 524.86 -4.08513 -2.61238 0
M  V30 5401 N 526.204 0.969867 -1.24223 0
M  V30 5402 C 527.481 1.68774 -0.988664 0
M  V30 5403 C 527.861 2.05342 0.489673 0
M  V30 5404 O 527.209 1.75486 1.46345 0
M  V30 5405 C 527.419 2.92135 -1.90941 0
M  V30 5406 C 528.767 3.64422 -2.17903 0
M  V30 5407 O 529.791 3.02188 -1.88576 0
M  V30 5408 O 528.65 4.76446 -2.67697 0
M  V30 5409 H 525.744 0.737736 -0.37373 0
M  V30 5410 H 528.29 1.02415 -1.35312 0
M  V30 5411 H 527.062 2.61788 -2.90831 0
M  V30 5412 H 526.685 3.66228 -1.54798 0
M  V30 5413 N 527.682 1.05563 1.17022 0
M  V30 5414 C 528.592 0.670758 2.24807 0
M  V30 5415 C 529.608 -0.309865 1.71219 0
M  V30 5416 O 530.784 -0.161025 2.00755 0
M  V30 5417 C 527.849 0.055337 3.46656 0
M  V30 5418 C 526.91 1.08688 4.15314 0
M  V30 5419 C 526.143 0.500736 5.31346 0
M  V30 5420 O 526.366 -0.688718 5.66227 0
M  V30 5421 O 525.3 1.23683 5.89055 0
M  V30 5422 H 529.126 1.56914 2.60023 0
M  V30 5423 H 526.711 0.827428 1.24395 0
M  V30 5424 H 528.593 -0.286492 4.20425 0
M  V30 5425 H 527.268 -0.816638 3.13229 0
M  V30 5426 H 526.175 1.48077 3.43546 0
M  V30 5427 H 527.508 1.93014 4.52777 0
M  V30 5428 N 529.16 -1.33526 0.837174 0
M  V30 5429 C 530.406 -1.9813 0.432704 0
M  V30 5430 C 530.739 -1.66168 -1.00508 0
M  V30 5431 O 530.014 -0.94069 -1.70239 0
M  V30 5432 C 530.297 -3.54151 0.651834 0
M  V30 5433 C 530.15 -3.95806 2.13676 0
M  V30 5434 C 531.469 -4.39993 0.0968937 0
M  V30 5435 H 528.588 -0.719713 0.15869 0
M  V30 5436 H 531.23 -1.58193 1.05237 0
M  V30 5437 H 529.38 -3.88301 0.124369 0
M  V30 5438 H 531.052 -3.71921 2.72896 0
M  V30 5439 H 529.295 -3.45599 2.62191 0
M  V30 5440 H 529.966 -5.0447 2.24084 0
M  V30 5441 H 532.442 -4.12479 0.547733 0
M  V30 5442 H 531.318 -5.48186 0.279917 0
M  V30 5443 H 531.579 -4.3066 -0.9992 0
M  V30 5444 N 530.638 -0.59345 -1.46 0
M  V30 5445 C 531.866 -0.0890934 -2.06708 0
M  V30 5446 C 532.281 1.2205 -1.44046 0
M  V30 5447 O 531.638 1.74029 -0.549551 0
M  V30 5448 C 531.689 0.0720263 -3.61428 0
M  V30 5449 O 531.41 -1.18574 -4.21748 0
M  V30 5450 C 532.911 0.609487 -4.3909 0
M  V30 5451 H 530.131 -0.0623628 -0.668096 0
M  V30 5452 H 532.675 -0.817171 -1.87464 0
M  V30 5453 H 530.83 0.750369 -3.80063 0
M  V30 5454 H 531.244 -1.0064 -5.14754 0
M  V30 5455 H 532.718 0.671363 -5.47902 0
M  V30 5456 H 533.195 1.62878 -4.07882 0
M  V30 5457 H 533.801 -0.03434 -4.25286 0
M  V30 5458 N 532.116 1.54067 -0.331816 0
M  V30 5459 C 533.344 2.05131 0.269996 0
M  V30 5460 C 533.759 1.20749 1.45138 0
M  V30 5461 O 533.116 0.240069 1.80914 0
M  V30 5462 C 533.167 3.54728 0.696456 0
M  V30 5463 O 532.888 4.35906 -0.43794 0
M  V30 5464 C 534.389 4.21916 1.36021 0
M  V30 5465 H 531.609 0.668807 0.0542042 0
M  V30 5466 H 534.153 1.98777 -0.4804 0
M  V30 5467 H 532.308 3.61342 1.39681 0
M  V30 5468 H 532.722 5.24404 -0.100334 0
M  V30 5469 H 534.196 5.28015 1.60947 0
M  V30 5470 H 534.673 3.73538 2.31011 0
M  V30 5471 H 535.279 4.19463 0.702212 0
M  V30 5472 N 533.594 0.0601682 1.57485 0
M  V30 5473 C 534.557 -0.896373 2.10945 0
M  V30 5474 C 535.557 -1.23402 1.03095 0
M  V30 5475 O 536.747 -1.16921 1.29132 0
M  V30 5476 C 533.879 -2.20346 2.60116 0
M  V30 5477 H 535.072 -0.432778 2.96761 0
M  V30 5478 H 532.625 -0.188372 1.55161 0
M  V30 5479 H 533.36 -2.71268 1.7772 0
M  V30 5480 H 533.145 -1.9714 3.38937 0
M  V30 5481 H 534.635 -2.88846 3.01592 0
M  V30 5482 N 535.072 -1.5615 -0.213296 0
M  V30 5483 C 536.019 -1.93086 -1.26437 0
M  V30 5484 C 536.989 -0.789086 -1.4616 0
M  V30 5485 O 538.174 -1.04569 -1.59593 0
M  V30 5486 C 535.314 -2.26003 -2.608 0
M  V30 5487 C 534.427 -3.53156 -2.48807 0
M  V30 5488 C 533.562 -3.7548 -3.7575 0
M  V30 5489 C 532.601 -4.96119 -3.58514 0
M  V30 5490 N 531.738 -5.14791 -4.77425 0
M  V30 5491 H 536.578 -2.82707 -0.942376 0
M  V30 5492 H 534.115 -1.39919 -0.454001 0
M  V30 5493 H 536.073 -2.431 -3.39055 0
M  V30 5494 H 534.703 -1.39546 -2.91079 0
M  V30 5495 H 533.755 -3.44207 -1.61944 0
M  V30 5496 H 535.067 -4.41565 -2.31996 0
M  V30 5497 H 534.221 -3.92718 -4.62447 0
M  V30 5498 H 532.96 -2.85368 -3.95495 0
M  V30 5499 H 531.965 -4.78823 -2.70201 0
M  V30 5500 H 533.19 -5.87724 -3.40231 0
M  V30 5501 H 531.136 -4.27623 -4.97468 0
M  V30 5502 H 531.053 -5.97347 -4.63371 0
M  V30 5503 H 532.321 -5.36471 -5.65525 0
M  V30 5504 N 536.55 0.480323 -1.50102 0
M  V30 5505 C 537.796 1.23489 -1.60867 0
M  V30 5506 C 538.129 1.91809 -0.303827 0
M  V30 5507 O 537.404 1.81694 0.694092 0
M  V30 5508 C 537.687 2.28578 -2.78252 0
M  V30 5509 C 537.54 1.64624 -4.18592 0
M  V30 5510 C 538.859 3.2997 -2.91218 0
M  V30 5511 H 535.978 0.447605 -0.585507 0
M  V30 5512 H 538.62 0.530005 -1.82458 0
M  V30 5513 H 536.77 2.88697 -2.59974 0
M  V30 5514 H 538.442 1.08173 -4.48438 0
M  V30 5515 H 536.685 0.949645 -4.23278 0
M  V30 5516 H 537.356 2.40946 -4.96638 0
M  V30 5517 H 539.832 2.79864 -3.07921 0
M  V30 5518 H 538.708 4.00839 -3.74993 0
M  V30 5519 H 538.969 3.93541 -2.0144 0
M  V30 5520 N 538.028 1.39524 0.732853 0
M  V30 5521 C 539.274 1.38072 1.49358 0
M  V30 5522 C 539.629 -0.0227943 1.92386 0
M  V30 5523 O 538.922 -0.98976 1.64056 0
M  V30 5524 C 539.116 2.28916 2.74468 0
M  V30 5525 C 538.945 3.7796 2.43673 0
M  V30 5526 C 537.715 4.46874 2.35863 0
M  V30 5527 C 539.913 4.69886 2.09074 0
M  V30 5528 N 537.895 5.81242 1.97561 0
M  V30 5529 C 539.266 5.9292 1.81234 0
M  V30 5530 C 541.321 4.57887 1.95561 0
M  V30 5531 C 540.024 7.05297 1.41242 0
M  V30 5532 C 542.05 5.70187 1.56972 0
M  V30 5533 C 541.412 6.92297 1.30018 0
M  V30 5534 H 537.511 0.56051 0.5453 0
M  V30 5535 H 540.095 1.75093 0.85151 0
M  V30 5536 H 538.266 1.9405 3.36451 0
M  V30 5537 H 539.998 2.18441 3.40684 0
M  V30 5538 H 536.753 4.00341 2.5303 0
M  V30 5539 H 537.177 6.52356 1.80997 0
M  V30 5540 H 541.819 3.64014 2.15067 0
M  V30 5541 H 539.537 7.99069 1.20476 0
M  V30 5542 H 543.123 5.62892 1.47119 0
M  V30 5543 H 542.003 7.7772 1.00605 0
M  V30 5544 N 539.506 -0.963266 1.24736 0
M  V30 5545 C 540.755 -1.70115 1.08369 0
M  V30 5546 C 541.068 -1.91939 -0.376688 0
M  V30 5547 O 542.274 -2.6334 -0.660624 0
M  V30 5548 C 540.73 -3.06218 1.89099 0
M  V30 5549 C 540.338 -2.92221 3.39574 0
M  V30 5550 C 542.082 -3.83848 1.81275 0
M  V30 5551 C 539.989 -4.23662 4.12631 0
M  V30 5552 H 538.919 -0.637944 0.401924 0
M  V30 5553 H 541.57 -1.07304 1.48856 0
M  V30 5554 H 539.952 -3.69884 1.41429 0
M  V30 5555 H 541.126 -2.37541 3.94856 0
M  V30 5556 H 539.441 -2.28054 3.48397 0
M  V30 5557 H 542.038 -4.81188 2.33158 0
M  V30 5558 H 542.381 -4.08949 0.778895 0
M  V30 5559 H 542.914 -3.26918 2.26649 0
M  V30 5560 H 539.653 -4.03753 5.16395 0
M  V30 5561 H 539.173 -4.78141 3.62135 0
M  V30 5562 H 540.852 -4.92256 4.19873 0
M  V30 5563 N 540.985 -1.06182 -1.16461 0
M  V30 5564 C 542.233 -0.776326 -1.86595 0
M  V30 5565 C 542.554 0.69921 -1.82033 0
M  V30 5566 O 541.824 1.50579 -1.2531 0
M  V30 5567 H 540.404 -0.284184 -0.690832 0
M  V30 5568 H 543.066 -1.34308 -1.41235 0
M  V30 5569 H 542.162 -1.10022 -2.92064 0
M  V30 5570 N 542.463 1.3308 -0.844243 0
M  V30 5571 C 543.688 2.02341 -0.455282 0
M  V30 5572 C 544.113 1.6308 0.93737 0
M  V30 5573 O 543.471 0.826118 1.61385 0
M  V30 5574 C 543.519 3.55743 -0.58988 0
M  V30 5575 O 542.623 4.1063 0.38166 0
M  V30 5576 H 541.964 0.637898 -0.184343 0
M  V30 5577 H 544.494 1.6986 -1.14056 0
M  V30 5578 H 544.504 4.05243 -0.473522 0
M  V30 5579 H 543.179 3.83662 -1.60549 0
M  V30 5580 H 541.756 3.72236 0.22241 0
M  V30 5581 O 543.98 0.741641 1.43464 0
M  V30 5582 H 544.671 0.295431 1.91434 0
M  V30 END ATOM
M  V30 BEGIN BOND
M  V30 END BOND
M  V30 END CTAB
M  END
$$$$
