drugbank_target|Q01468 2-hydroxymuconate tautomerase (DB02005)
 OpenBabel12092119533D

  0  0  0     0  0            999 V3000
M  V30 BEGIN CTAB
M  V30 COUNTS 996 1000 0 0 0
M  V30 BEGIN ATOM
M  V30 1 H -0.908 1.98254 -0.117106 0
M  V30 2 N 0 1.576 0 0
M  V30 3 C 0.933 2.03868 1.02534 0
M  V30 4 C 1.911 0.928543 1.3348 0
M  V30 5 O 3.095 1.19667 1.45644 0
M  V30 6 C 0.222 2.43627 2.35294 0
M  V30 7 C -0.732 3.65373 2.2001 0
M  V30 8 S 0.101 5.13292 1.52614 0
M  V30 9 C 1.257 5.56322 2.86805 0
M  V30 10 H 1.49 2.90518 0.631377 0
M  V30 11 H -0.977 1.52953 0.210867 0
M  V30 12 H 0.981 2.67203 3.11629 0
M  V30 13 H -0.358 1.57376 2.7183 0
M  V30 14 H -1.165 3.90944 3.18086 0
M  V30 15 H -1.563 3.418 1.51819 0
M  V30 16 H 0.729 5.58782 3.83104 0
M  V30 17 H 1.672 6.56266 2.65933 0
M  V30 18 H 2.08 4.83886 2.90714 0
M  V30 19 N 1.4781 -0.272755 1.55222 0
M  V30 20 C 2.8891 -0.84378 1.66545 0
M  V30 21 C 3.2401 -1.87035 0.592641 0
M  V30 22 O 2.3651 -2.14761 -0.265818 0
M  V30 23 C 2.9601 -1.53723 3.01918 0
M  V30 24 C 1.5191 -2.05628 3.15268 0
M  V30 25 C 0.6661 -0.898424 2.62343 0
M  V30 26 H 3.6171 -0.0490998 1.58624 0
M  V30 27 H 3.6381 -2.40421 2.94921 0
M  V30 28 H 3.1501 -0.78983 3.79978 0
M  V30 29 H 1.2511 -2.83329 2.41983 0
M  V30 30 H 1.3641 -2.27142 4.21833 0
M  V30 31 H -0.2719 -1.29186 2.19506 0
M  V30 32 H 0.5111 -0.164528 3.42906 0
M  V30 33 N 2.9562 -1.48159 -0.537278 0
M  V30 34 C 4.2052 -1.5506 -1.28993 0
M  V30 35 C 4.5182 -0.226211 -1.94288 0
M  V30 36 O 5.7242 -0.173395 -2.70946 0
M  V30 37 C 4.1802 -2.73429 -2.34018 0
M  V30 38 C 3.7882 -4.1248 -1.74825 0
M  V30 39 C 5.5322 -2.89638 -3.10339 0
M  V30 40 C 3.4392 -5.22121 -2.77747 0
M  V30 41 H 2.3692 -0.577231 -0.485098 0
M  V30 42 H 5.0202 -1.74478 -0.568317 0
M  V30 43 H 3.4022 -2.47431 -3.09182 0
M  V30 44 H 4.5762 -4.48466 -1.05899 0
M  V30 45 H 2.8912 -4.01327 -1.11022 0
M  V30 46 H 5.4882 -3.68718 -3.87235 0
M  V30 47 H 5.8312 -1.9882 -3.65754 0
M  V30 48 H 6.3642 -3.15502 -2.42288 0
M  V30 49 H 3.1032 -6.1488 -2.27161 0
M  V30 50 H 2.6232 -4.90631 -3.45024 0
M  V30 51 H 4.3022 -5.49924 -3.4087 0
M  V30 52 N 4.4343 0.785586 -1.36625 0
M  V30 53 C 5.3973 1.87999 -1.31107 0
M  V30 54 C 6.3973 1.59316 -0.217959 0
M  V30 55 O 7.5873 1.67656 -0.472977 0
M  V30 56 C 4.7193 3.24861 -1.03334 0
M  V30 57 H 5.9123 1.94307 -2.2844 0
M  V30 58 H 3.4653 0.983813 -1.21453 0
M  V30 59 H 4.2003 3.24235 -0.0647432 0
M  V30 60 H 3.9853 3.4707 -1.82441 0
M  V30 61 H 5.4753 4.04929 -1.02088 0
M  V30 62 N 5.9124 1.20967 1.01018 0
M  V30 63 C 6.8444 0.922059 2.09835 0
M  V30 64 C 7.8574 -0.0927106 1.62536 0
M  V30 65 O 9.0464 0.139127 1.77957 0
M  V30 66 C 6.1464 0.362004 3.36961 0
M  V30 67 C 5.3194 1.42986 4.13369 0
M  V30 68 C 4.3784 0.879976 5.1879 0
M  V30 69 O 3.4044 1.56219 5.47343 0
M  V30 70 N 4.6064 -0.307396 5.79686 0
M  V30 71 H 7.3714 1.8588 2.35093 0
M  V30 72 H 4.9324 1.11422 1.1746 0
M  V30 73 H 6.9244 -0.0201474 4.04695 0
M  V30 74 H 5.4944 -0.479437 3.08902 0
M  V30 75 H 4.7144 1.98608 3.40512 0
M  V30 76 H 6.0024 2.14885 4.61196 0
M  V30 77 H 5.4004 -0.878796 5.58832 0
M  V30 78 H 3.9574 -0.631115 6.48737 0
M  V30 79 N 7.3905 -1.2043 1.01659 0
M  V30 80 C 8.6395 -1.89118 0.701237 0
M  V30 81 C 8.9525 -1.79705 -0.772358 0
M  V30 82 O 10.1585 -2.43528 -1.20026 0
M  V30 83 C 8.6145 -3.39168 1.20388 0
M  V30 84 C 8.2225 -3.57166 2.70438 0
M  V30 85 C 9.9665 -4.1341 0.963953 0
M  V30 86 C 7.8735 -5.01042 3.14183 0
M  V30 87 H 6.8035 -0.708267 0.2586 0
M  V30 88 H 9.4545 -1.36239 1.22927 0
M  V30 89 H 7.8365 -3.91369 0.603824 0
M  V30 90 H 9.0105 -3.15351 3.35992 0
M  V30 91 H 7.3255 -2.96294 2.92572 0
M  V30 92 H 9.9225 -5.19491 1.26621 0
M  V30 93 H 10.2655 -4.16181 -0.099578 0
M  V30 94 H 10.7985 -3.67309 1.52738 0
M  V30 95 H 7.5375 -5.03426 4.19812 0
M  V30 96 H 7.0575 -5.43668 2.53348 0
M  V30 97 H 8.7365 -5.69623 3.0682 0
M  V30 98 N 8.8686 -0.792821 -1.36206 0
M  V30 99 C 9.8186 -0.166598 -2.27391 0
M  V30 100 C 10.8026 0.651479 -1.47121 0
M  V30 101 O 11.9946 0.510994 -1.69463 0
M  V30 102 C 9.1236 0.695033 -3.36191 0
M  V30 103 C 8.2096 -0.132019 -4.23894 0
M  V30 104 N 8.6006 -1.18822 -4.91645 0
M  V30 105 C 6.8986 0.0885952 -4.45912 0
M  V30 106 C 7.5996 -1.69198 -5.56549 0
M  V30 107 N 6.5756 -1.00065 -5.34311 0
M  V30 108 H 10.3776 -0.974947 -2.77258 0
M  V30 109 H 7.8916 -0.632616 -1.49572 0
M  V30 110 H 9.8886 1.1596 -4.00448 0
M  V30 111 H 8.5486 1.50189 -2.87877 0
M  V30 112 H 9.5596 -1.57069 -4.93507 0
M  V30 113 H 6.2366 0.865688 -4.08426 0
M  V30 114 H 7.6266 -2.57395 -6.20643 0
M  V30 115 N 10.3467 1.47872 -0.545128 0
M  V30 116 C 11.5957 2.01695 -0.0145033 0
M  V30 117 C 11.9087 1.42609 1.33873 0
M  V30 118 O 13.1147 1.88021 1.95858 0
M  V30 119 C 11.5707 3.59892 0.0245068 0
M  V30 120 C 11.1787 4.27966 -1.32475 0
M  V30 121 C 12.9227 4.21507 0.50316 0
M  V30 122 C 10.8297 5.78136 -1.2455 0
M  V30 123 H 9.7597 0.753998 -0.00165172 0
M  V30 124 H 12.4107 1.69985 -0.691175 0
M  V30 125 H 10.7927 3.88509 0.766575 0
M  V30 126 H 11.9667 4.11003 -2.08357 0
M  V30 127 H 10.2817 3.78286 -1.74036 0
M  V30 128 H 12.8787 5.31538 0.580656 0
M  V30 129 H 13.2217 3.87855 1.51243 0
M  V30 130 H 13.7547 3.97376 -0.183681 0
M  V30 131 H 10.4937 6.16388 -2.23039 0
M  V30 132 H 10.0137 5.97469 -0.528282 0
M  V30 133 H 11.6927 6.40099 -0.942488 0
M  V30 134 N 11.8248 0.280983 1.55075 0
M  V30 135 C 12.7548 -0.597469 2.25727 0
M  V30 136 C 13.7358 -1.15417 1.24952 0
M  V30 137 O 14.9208 -1.18722 1.53684 0
M  V30 138 C 12.0508 -1.7789 2.98283 0
M  V30 139 C 11.0048 -1.35347 4.06036 0
M  V30 140 C 10.3308 -2.61846 4.66198 0
M  V30 141 C 11.6308 -0.499354 5.19907 0
M  V30 142 H 13.3248 -0.00824265 2.99399 0
M  V30 143 H 10.8708 -0.0025244 1.44 0
M  V30 144 H 12.8238 -2.39937 3.46422 0
M  V30 145 H 11.5478 -2.39405 2.22155 0
M  V30 146 H 10.2068 -0.756156 3.58717 0
M  V30 147 H 9.8548 -3.21632 3.86732 0
M  V30 148 H 9.5548 -2.3409 5.38958 0
M  V30 149 H 11.0788 -3.24732 5.1709 0
M  V30 150 H 12.4928 -1.02498 5.64063 0
M  V30 151 H 10.8898 -0.316424 5.99265 0
M  V30 152 H 11.9598 0.480459 4.82514 0
M  V30 153 N 13.3029 -1.57598 0.00835791 0
M  V30 154 C 14.2129 -2.12385 -0.996487 0
M  V30 155 C 15.2289 -1.07108 -1.37127 0
M  V30 156 O 16.4049 -1.39055 -1.4569 0
M  V30 157 C 13.4699 -2.62314 -2.26699 0
M  V30 158 C 12.5309 -3.82225 -1.95456 0
M  V30 159 C 11.7639 -4.29763 -3.16449 0
M  V30 160 O 11.9869 -3.76584 -4.28416 0
M  V30 161 O 10.9209 -5.21832 -2.99958 0
M  V30 162 H 14.7469 -2.98479 -0.560725 0
M  V30 163 H 12.3319 -1.47903 -0.210987 0
M  V30 164 H 14.2139 -2.94589 -3.01322 0
M  V30 165 H 12.8889 -1.79313 -2.69497 0
M  V30 166 H 11.7959 -3.54909 -1.18282 0
M  V30 167 H 13.1289 -4.66324 -1.57489 0
M  V30 168 N 14.781 0.264519 -1.55364 0
M  V30 169 C 16.029 0.993021 -1.76021 0
M  V30 170 C 16.35 1.86511 -0.569099 0
M  V30 171 O 15.62 1.91438 0.415735 0
M  V30 172 H 14.2 0.369639 -0.649135 0
M  V30 173 H 16.862 0.286707 -1.9278 0
M  V30 174 H 15.958 1.62502 -2.66457 0
M  V30 175 N 16.2591 1.48442 0.529413 0
M  V30 176 C 17.6751 1.34575 0.858004 0
M  V30 177 C 17.8751 0.3572 1.98309 0
M  V30 178 O 16.9311 -0.221379 2.51528 0
M  V30 179 C 18.2441 2.74617 1.22499 0
M  V30 180 C 19.7921 2.83109 1.33484 0
M  V30 181 C 20.2671 4.23854 1.73526 0
M  V30 182 N 21.7581 4.2653 1.80628 0
M  V30 183 C 22.4931 5.32372 2.12997 0
M  V30 184 N 21.9891 6.48491 2.43786 0
M  V30 185 N 23.7821 5.19766 2.14008 0
M  V30 186 H 15.9331 2.1133 -0.212925 0
M  V30 187 H 18.1961 0.947439 -0.0326199 0
M  V30 188 H 17.9021 3.4852 0.471905 0
M  V30 189 H 17.7761 3.08177 2.17501 0
M  V30 190 H 20.1631 2.09462 2.0787 0
M  V30 191 H 20.2441 2.53168 0.366027 0
M  V30 192 H 19.8881 4.98018 0.997013 0
M  V30 193 H 19.8181 4.5124 2.71459 0
M  V30 194 H 22.3091 3.42772 1.59108 0
M  V30 195 H 22.6221 7.24993 2.67592 0
M  V30 196 H 20.9671 6.51765 2.41304 0
M  V30 197 H 24.1581 4.28066 1.89412 0
M  V30 198 H 24.3311 6.02354 2.38902 0
M  V30 199 N 17.7372 -0.778329 1.37039 0
M  V30 200 C 18.9622 -1.57248 1.35233 0
M  V30 201 C 19.3872 -1.87999 -0.0615568 0
M  V30 202 O 18.7452 -1.48734 -1.03672 0
M  V30 203 C 18.7932 -2.86353 2.19167 0
M  V30 204 O 17.8972 -3.80442 1.59178 0
M  V30 205 H 17.2382 -0.476569 0.462362 0
M  V30 206 H 19.7682 -0.963853 1.80474 0
M  V30 207 H 19.7782 -3.35519 2.32145 0
M  V30 208 H 18.4532 -2.63299 3.21942 0
M  V30 209 H 17.0302 -3.39067 1.55203 0
M  V30 210 N 19.2153 -1.21501 -1.00376 0
M  V30 211 C 20.4923 -0.941745 -1.71437 0
M  V30 212 C 20.8723 0.546114 -2.03914 0
M  V30 213 O 20.2203 1.51128 -1.71384 0
M  V30 214 C 20.4303 -1.82812 -2.97289 0
M  V30 215 C 21.7783 -2.07771 -3.70292 0
M  V30 216 O 22.8023 -1.80171 -3.07273 0
M  V30 217 O 21.6613 -2.54456 -4.83647 0
M  V30 218 H 18.7553 -0.353243 -0.747762 0
M  V30 219 H 21.3013 -1.32436 -1.06108 0
M  V30 220 H 20.0733 -2.83501 -2.69709 0
M  V30 221 H 19.6963 -1.4464 -3.70358 0
M  V30 222 N 20.6934 1.19889 -1.02296 0
M  V30 223 C 21.6034 2.26571 -0.608508 0
M  V30 224 C 22.6194 1.70299 0.356964 0
M  V30 225 O 23.7954 2.00235 0.216326 0
M  V30 226 C 20.8604 3.46677 0.0402814 0
M  V30 227 C 19.9214 4.18153 -0.97194 0
M  V30 228 C 19.1544 5.32525 -0.354016 0
M  V30 229 O 19.3774 5.64112 0.844604 0
M  V30 230 O 18.3114 5.92242 -1.07391 0
M  V30 231 H 22.1374 2.64251 -1.49684 0
M  V30 232 H 19.7224 1.26629 -0.792809 0
M  V30 233 H 21.6044 4.19475 0.402324 0
M  V30 234 H 20.2794 3.10858 0.902707 0
M  V30 235 H 19.1864 3.47499 -1.38546 0
M  V30 236 H 20.5194 4.57927 -1.80454 0
M  V30 237 N 22.1715 0.800033 1.35784 0
M  V30 238 C 23.1035 0.163596 2.28615 0
M  V30 239 C 24.1165 -0.633317 1.49976 0
M  V30 240 O 25.3055 -0.466754 1.72289 0
M  V30 241 C 22.4055 -0.790958 3.29541 0
M  V30 242 C 21.5785 -0.0418255 4.3738 0
M  V30 243 C 20.6375 -0.91389 5.18203 0
M  V30 244 O 19.6635 -0.367234 5.68014 0
M  V30 245 N 20.8655 -2.23682 5.35674 0
M  V30 246 H 23.6305 0.96105 2.83873 0
M  V30 247 H 21.1915 0.654894 1.48063 0
M  V30 248 H 23.1835 -1.37844 3.80501 0
M  V30 249 H 21.7535 -1.48925 2.74846 0
M  V30 250 H 20.9735 0.726813 3.87442 0
M  V30 251 H 22.2615 0.474719 5.06581 0
M  V30 252 H 21.6595 -2.70497 4.96838 0
M  V30 253 H 20.2165 -2.77369 5.89839 0
M  V30 254 N 23.6496 -1.47581 0.552962 0
M  V30 255 C 24.5966 -2.29957 -0.197108 0
M  V30 256 C 25.5666 -1.38799 -0.912359 0
M  V30 257 O 26.7516 -1.67761 -0.908888 0
M  V30 258 C 23.8916 -3.22672 -1.22379 0
M  V30 259 C 23.0046 -4.28919 -0.515038 0
M  V30 260 C 22.1396 -5.0879 -1.52664 0
M  V30 261 C 21.1786 -6.06815 -0.802631 0
M  V30 262 N 20.3156 -6.7966 -1.76086 0
M  V30 263 H 25.1556 -2.93578 0.511486 0
M  V30 264 H 22.6926 -1.4471 0.264067 0
M  V30 265 H 24.6506 -3.74845 -1.83159 0
M  V30 266 H 23.2806 -2.60925 -1.90047 0
M  V30 267 H 22.3326 -3.79835 0.207192 0
M  V30 268 H 23.6446 -4.98773 0.0523425 0
M  V30 269 H 22.7986 -5.65091 -2.20809 0
M  V30 270 H 21.5376 -4.38828 -2.12794 0
M  V30 271 H 20.5426 -5.49695 -0.107238 0
M  V30 272 H 21.7676 -6.78784 -0.207135 0
M  V30 273 H 19.7136 -6.12432 -2.35081 0
M  V30 274 H 19.6306 -7.45669 -1.24552 0
M  V30 275 H 20.8986 -7.40538 -2.43359 0
M  V30 276 N 25.1277 -0.289203 -1.54924 0
M  V30 277 C 26.0377 0.601863 -2.26748 0
M  V30 278 C 27.0537 1.15834 -1.2984 0
M  V30 279 O 28.2297 1.18564 -1.62802 0
M  V30 280 C 25.2947 1.76299 -2.98529 0
M  V30 281 C 24.3557 1.24178 -4.10948 0
M  V30 282 C 23.5887 2.34757 -4.79296 0
M  V30 283 O 23.8117 3.54411 -4.46933 0
M  V30 284 O 22.7457 2.02115 -5.66951 0
M  V30 285 H 26.5717 0.0195879 -3.03694 0
M  V30 286 H 24.1567 -0.0560868 -1.49295 0
M  V30 287 H 26.0387 2.43973 -3.43592 0
M  V30 288 H 24.7137 2.33209 -2.24488 0
M  V30 289 H 23.6207 0.531104 -3.70311 0
M  V30 290 H 24.9537 0.718252 -4.86931 0
M  V30 291 N 26.6058 1.57591 -0.0167156 0
M  V30 292 C 27.8338 1.95575 0.675128 0
M  V30 293 C 28.2488 0.892542 1.6637 0
M  V30 294 O 27.6058 -0.126912 1.82058 0
M  V30 295 C 27.6568 3.33608 1.39239 0
M  V30 296 O 27.3778 4.3585 0.443444 0
M  V30 297 C 28.8788 3.86151 2.17721 0
M  V30 298 H 26.0988 0.644423 0.186978 0
M  V30 299 H 28.6428 2.0437 -0.0728 0
M  V30 300 H 26.7978 3.2607 2.09182 0
M  V30 301 H 27.2118 5.158 0.951358 0
M  V30 302 H 28.6858 4.85114 2.63379 0
M  V30 303 H 29.1628 3.19738 3.01105 0
M  V30 304 H 29.7688 3.96918 1.52761 0
M  V30 305 N 28.0839 -0.256276 1.55502 0
M  V30 306 C 29.0139 -1.32102 1.92539 0
M  V30 307 C 29.9949 -1.50684 0.789194 0
M  V30 308 O 31.1799 -1.63449 1.04872 0
M  V30 309 C 28.3099 -2.67752 2.21192 0
M  V30 310 C 27.2639 -2.63878 3.36975 0
M  V30 311 C 26.5899 -4.03236 3.51147 0
M  V30 312 C 27.8899 -2.21682 4.72921 0
M  V30 313 H 29.5839 -1.01351 2.81724 0
M  V30 314 H 27.1299 -0.486105 1.35547 0
M  V30 315 H 29.0829 -3.42365 2.45691 0
M  V30 316 H 27.8069 -3.0012 1.28824 0
M  V30 317 H 26.4659 -1.91722 3.12471 0
M  V30 318 H 26.1139 -4.32854 2.56216 0
M  V30 319 H 25.8139 -4.01535 4.29003 0
M  V30 320 H 27.3379 -4.79563 3.77957 0
M  V30 321 H 28.7519 -2.86023 4.96854 0
M  V30 322 H 27.1489 -2.3111 5.53812 0
M  V30 323 H 28.2189 -1.16833 4.70615 0
M  V30 324 N 29.562 -1.4872 -0.521534 0
M  V30 325 C 30.811 -1.56419 -1.27341 0
M  V30 326 C 31.124 -0.246805 -1.94037 0
M  V30 327 O 32.33 -0.202122 -2.70747 0
M  V30 328 C 30.786 -2.75896 -2.31105 0
M  V30 329 C 30.394 -4.14311 -1.70441 0
M  V30 330 C 32.138 -2.92913 -3.07249 0
M  V30 331 C 30.045 -5.25038 -2.72194 0
M  V30 332 H 28.975 -0.582344 -0.478949 0
M  V30 333 H 31.626 -1.75071 -0.549779 0
M  V30 334 H 30.008 -2.50697 -3.06541 0
M  V30 335 H 31.182 -4.49564 -1.01136 0
M  V30 336 H 29.497 -4.02482 -1.06759 0
M  V30 337 H 32.094 -3.72805 -3.83302 0
M  V30 338 H 32.437 -2.02689 -3.63625 0
M  V30 339 H 32.97 -3.18054 -2.38928 0
M  V30 340 H 29.709 -6.17255 -2.20627 0
M  V30 341 H 29.229 -4.94263 -3.39801 0
M  V30 342 H 30.908 -5.53508 -3.35019 0
M  V30 343 N 31.0401 0.771051 -1.3745 0
M  V30 344 C 32.4561 1.07171 -1.18265 0
M  V30 345 C 32.6561 2.01491 -0.019287 0
M  V30 346 O 31.7121 2.44244 0.640408 0
M  V30 347 C 33.0251 1.66854 -2.50161 0
M  V30 348 C 34.5731 1.79109 -2.56689 0
M  V30 349 C 35.0481 2.42205 -3.88717 0
M  V30 350 N 36.5391 2.49655 -3.90162 0
M  V30 351 C 37.2741 2.9933 -4.8907 0
M  V30 352 N 36.7701 3.49172 -5.98374 0
M  V30 353 N 38.5631 2.9821 -4.76474 0
M  V30 354 H 30.7141 0.144796 -2.11906 0
M  V30 355 H 32.9771 0.126863 -0.939473 0
M  V30 356 H 32.6831 1.05017 -3.35655 0
M  V30 357 H 32.5571 2.6614 -2.673 0
M  V30 358 H 34.9441 2.40077 -1.71601 0
M  V30 359 H 35.0251 0.785757 -2.43433 0
M  V30 360 H 34.6691 1.81875 -4.74219 0
M  V30 361 H 34.5991 3.43345 -3.99276 0
M  V30 362 H 37.0901 2.14383 -3.11205 0
M  V30 363 H 37.4031 3.8548 -6.69795 0
M  V30 364 H 35.7481 3.47275 -6.02018 0
M  V30 365 H 38.9391 2.58572 -3.90203 0
M  V30 366 H 39.1121 3.36613 -5.53711 0
M  V30 367 N 32.5182 1.22032 0.997298 0
M  V30 368 C 33.4282 1.00271 2.12092 0
M  V30 369 C 34.4442 -0.047621 1.73935 0
M  V30 370 O 35.6202 0.144136 2.00884 0
M  V30 371 C 32.6852 0.578449 3.4184 0
M  V30 372 C 31.7462 1.70189 3.94125 0
M  V30 373 C 30.9792 1.29778 5.17681 0
M  V30 374 O 31.2022 0.174676 5.70132 0
M  V30 375 O 30.1362 2.11261 5.63607 0
M  V30 376 H 33.9622 1.94398 2.3333 0
M  V30 377 H 31.5472 1.00587 1.10465 0
M  V30 378 H 33.4292 0.351998 4.19927 0
M  V30 379 H 32.1042 -0.334019 3.21972 0
M  V30 380 H 31.0112 1.98282 3.1723 0
M  V30 381 H 32.3442 2.59206 4.18417 0
M  V30 382 N 33.9963 -1.19345 1.0293 0
M  V30 383 C 35.2423 -1.89318 0.727083 0
M  V30 384 C 35.5753 -1.79446 -0.742483 0
M  V30 385 O 34.8503 -1.1871 -1.54072 0
M  V30 386 C 35.1333 -3.40238 1.17942 0
M  V30 387 C 34.9863 -3.58979 2.71024 0
M  V30 388 C 36.3053 -4.33479 0.760548 0
M  V30 389 H 33.4243 -0.687475 0.265606 0
M  V30 390 H 36.0663 -1.40477 1.2793 0
M  V30 391 H 34.2163 -3.81964 0.709608 0
M  V30 392 H 35.8883 -3.26421 3.25955 0
M  V30 393 H 34.1313 -3.02018 3.11396 0
M  V30 394 H 34.8023 -4.64823 2.9773 0
M  V30 395 H 37.2783 -3.99469 1.16464 0
M  V30 396 H 36.1543 -5.37664 1.10493 0
M  V30 397 H 36.4153 -4.40813 -0.337063 0
M  V30 398 N 35.4744 -0.807222 -1.35358 0
M  V30 399 C 36.6994 -0.399309 -2.0352 0
M  V30 400 C 37.1244 0.981986 -1.60433 0
M  V30 401 O 36.4824 1.63601 -0.781299 0
M  V30 402 C 36.5304 -0.491552 -3.57234 0
M  V30 403 O 35.6344 0.494754 -4.09421 0
M  V30 404 H 34.9754 -0.166682 -0.642739 0
M  V30 405 H 37.5054 -1.09328 -1.72941 0
M  V30 406 H 37.5154 -0.361588 -4.06395 0
M  V30 407 H 36.1904 -1.49907 -3.87944 0
M  V30 408 H 34.7674 0.324977 -3.71481 0
M  V30 409 N 36.9525 1.47285 -0.560781 0
M  V30 410 C 37.8625 2.33846 0.187954 0
M  V30 411 C 38.8785 1.48412 0.908293 0
M  V30 412 O 40.0545 1.81332 0.876388 0
M  V30 413 C 37.1195 3.25178 1.2025 0
M  V30 414 C 36.1805 4.26504 0.489208 0
M  V30 415 C 35.4135 5.13472 1.45542 0
M  V30 416 O 35.6365 5.02959 2.6905 0
M  V30 417 O 34.5705 5.93902 0.977963 0
M  V30 418 H 38.3965 2.99177 -0.522177 0
M  V30 419 H 35.9815 1.45903 -0.321364 0
M  V30 420 H 37.8635 3.81584 1.78805 0
M  V30 421 H 36.5385 2.6247 1.89449 0
M  V30 422 H 35.4455 3.73847 -0.137627 0
M  V30 423 H 36.7785 4.91935 -0.161399 0
M  V30 424 N 38.4306 0.297415 1.54768 0
M  V30 425 C 39.3936 -0.567375 2.22066 0
M  V30 426 C 40.3936 -1.06409 1.20556 0
M  V30 427 O 41.5836 -0.960691 1.45315 0
M  V30 428 C 38.7156 -1.78517 2.90421 0
M  V30 429 H 39.9086 0.0205534 2.99893 0
M  V30 430 H 37.4616 0.0482163 1.56226 0
M  V30 431 H 38.1966 -2.41303 2.16664 0
M  V30 432 H 37.9816 -1.43669 3.64831 0
M  V30 433 H 39.4716 -2.39964 3.41771 0
M  V30 434 N 39.9087 -1.5758 0.0250728 0
M  V30 435 C 41.1577 -1.90811 -0.653767 0
M  V30 436 C 41.4707 -0.90273 -1.73523 0
M  V30 437 O 42.6767 -1.12614 -2.47043 0
M  V30 438 C 41.1327 -3.38804 -1.21409 0
M  V30 439 C 40.7407 -4.47692 -0.166126 0
M  V30 440 C 42.4847 -3.81108 -1.86967 0
M  V30 441 C 40.3917 -5.86779 -0.737856 0
M  V30 442 H 39.3217 -0.712063 -0.247956 0
M  V30 443 H 41.9727 -1.83281 0.0897137 0
M  V30 444 H 40.3547 -3.41252 -2.00905 0
M  V30 445 H 41.5287 -4.56797 0.606079 0
M  V30 446 H 39.8437 -4.14565 0.390466 0
M  V30 447 H 42.4407 -4.82375 -2.30692 0
M  V30 448 H 42.7837 -3.15953 -2.71071 0
M  V30 449 H 43.3167 -3.81065 -1.14167 0
M  V30 450 H 40.0557 -6.55468 0.0649577 0
M  V30 451 H 39.5757 -5.81288 -1.47864 0
M  V30 452 H 41.2547 -6.35223 -1.22884 0
M  V30 453 N 41.3868 0.248026 -1.55636 0
M  V30 454 C 42.6118 0.998028 -1.81808 0
M  V30 455 C 43.0368 1.78207 -0.601979 0
M  V30 456 O 42.3948 1.75653 0.448961 0
M  V30 457 C 42.4428 1.9125 -3.05705 0
M  V30 458 O 41.5468 3.00406 -2.82542 0
M  V30 459 H 40.8878 0.284045 -0.600179 0
M  V30 460 H 43.4178 0.269357 -2.02819 0
M  V30 461 H 43.4278 2.32737 -3.35108 0
M  V30 462 H 42.1028 1.33602 -3.93857 0
M  V30 463 H 40.6798 2.63056 -2.64303 0
M  V30 464 N 42.8649 1.48995 0.513639 0
M  V30 465 C 44.2809 1.35478 0.843682 0
M  V30 466 C 44.4809 0.378213 1.97919 0
M  V30 467 O 43.5369 -0.194689 2.51748 0
M  V30 468 C 44.8499 2.75901 1.1958 0
M  V30 469 C 46.3979 2.84509 1.30474 0
M  V30 470 C 46.8729 4.25671 1.69021 0
M  V30 471 N 48.3639 4.28422 1.76094 0
M  V30 472 C 49.0989 5.34601 2.07338 0
M  V30 473 N 48.5949 6.5104 2.36894 0
M  V30 474 N 50.3879 5.22007 2.08483 0
M  V30 475 H 42.5389 2.11092 -0.235328 0
M  V30 476 H 44.8019 0.947039 -0.0426669 0
M  V30 477 H 44.5079 3.49001 0.434913 0
M  V30 478 H 44.3819 3.10467 2.1422 0
M  V30 479 H 46.7689 2.11655 2.05637 0
M  V30 480 H 46.8499 2.53542 0.339155 0
M  V30 481 H 46.4939 4.99048 0.944135 0
M  V30 482 H 46.4239 4.54094 2.66658 0
M  V30 483 H 48.9149 3.44441 1.55464 0
M  V30 484 H 49.2279 7.2779 2.59887 0
M  V30 485 H 47.5729 6.54287 2.34378 0
M  V30 486 H 50.7639 4.30051 1.84861 0
M  V30 487 H 50.9369 6.04854 2.325 0
M  V30 488 N 44.343 -0.763751 1.37857 0
M  V30 489 C 45.568 -1.55805 1.36893 0
M  V30 490 C 45.993 -1.88054 -0.0416135 0
M  V30 491 O 45.351 -1.49825 -1.02089 0
M  V30 492 C 45.399 -2.84012 2.22192 0
M  V30 493 O 44.503 -3.78732 1.63204 0
M  V30 494 H 43.844 -0.471638 0.46739 0
M  V30 495 H 46.374 -0.944657 1.81487 0
M  V30 496 H 46.384 -3.33037 2.35691 0
M  V30 497 H 45.059 -2.59869 3.24716 0
M  V30 498 H 43.636 -3.37402 1.58791 0
M  V30 499 N 45.8211 -1.22559 -0.990812 0
M  V30 500 C 46.7511 -1.0218 -2.09956 0
M  V30 501 C 47.7321 0.0579394 -1.70001 0
M  V30 502 O 48.9171 -0.104684 -1.93918 0
M  V30 503 C 46.0471 -0.601023 -3.4206 0
M  V30 504 C 45.0011 -1.62694 -3.95872 0
M  V30 505 C 44.3271 -1.06193 -5.24049 0
M  V30 506 C 45.6271 -3.01743 -4.2632 0
M  V30 507 H 47.3211 -1.94916 -2.27262 0
M  V30 508 H 44.8671 -0.938566 -1.09211 0
M  V30 509 H 46.8201 -0.445561 -4.19038 0
M  V30 510 H 45.5441 0.362005 -3.24588 0
M  V30 511 H 44.2031 -1.77021 -3.21028 0
M  V30 512 H 43.8511 -0.0901903 -5.02919 0
M  V30 513 H 43.5511 -1.74732 -5.61019 0
M  V30 514 H 45.0751 -0.918092 -6.03658 0
M  V30 515 H 46.4891 -2.90777 -4.94087 0
M  V30 516 H 44.8861 -3.67425 -4.74467 0
M  V30 517 H 45.9561 -3.51518 -3.34011 0
M  V30 518 N 47.2992 1.18797 -1.03562 0
M  V30 519 C 48.5762 1.84469 -0.650434 0
M  V30 520 C 48.9562 1.92319 0.870433 0
M  V30 521 O 48.3042 1.44528 1.76986 0
M  V30 522 C 48.5142 3.2306 -1.32036 0
M  V30 523 C 49.8622 3.9915 -1.44792 0
M  V30 524 O 50.8862 3.32481 -1.27806 0
M  V30 525 O 49.7452 5.18587 -1.72423 0
M  V30 526 H 46.8392 0.795251 -0.226946 0
M  V30 527 H 49.3852 1.26231 -1.13419 0
M  V30 528 H 48.1572 3.1222 -2.3587 0
M  V30 529 H 47.7802 3.88949 -0.8249 0
M  V30 530 N 48.7773 0.814389 1.34928 0
M  V30 531 C 49.7403 0.235759 2.27984 0
M  V30 532 C 50.7403 -0.581412 1.49921 0
M  V30 533 O 51.9303 -0.398758 1.69575 0
M  V30 534 C 49.0623 -0.670433 3.34242 0
M  V30 535 H 50.2553 1.05659 2.80671 0
M  V30 536 H 47.8083 0.585614 1.44915 0
M  V30 537 H 48.5433 -1.51466 2.86755 0
M  V30 538 H 48.3283 -0.0860822 3.92005 0
M  V30 539 H 49.8183 -1.06935 4.03676 0
M  V30 540 N 50.2554 -1.46986 0.568584 0
M  V30 541 C 51.6664 -1.86188 0.138219 0
M  V30 542 C 52.0174 -1.47388 -1.29504 0
M  V30 543 O 51.1424 -0.88219 -1.97602 0
M  V30 544 C 51.7374 -3.3792 0.244065 0
M  V30 545 C 50.2964 -3.76171 -0.131335 0
M  V30 546 C 49.4434 -2.71027 0.586465 0
M  V30 547 H 52.3944 -1.38342 0.777645 0
M  V30 548 H 52.4154 -3.76729 -0.534351 0
M  V30 549 H 51.9274 -3.66128 1.28731 0
M  V30 550 H 50.0284 -3.5358 -1.17526 0
M  V30 551 H 50.1414 -4.78523 0.235146 0
M  V30 552 H 48.5054 -2.54684 0.0282722 0
M  V30 553 H 49.2884 -3.02077 1.63109 0
M  V30 554 N 51.7335 -0.305618 -1.54608 0
M  V30 555 C 52.6635 0.561482 -2.26649 0
M  V30 556 C 53.6445 1.13415 -1.26772 0
M  V30 557 O 54.8295 1.16262 -1.55553 0
M  V30 558 C 51.9595 1.73122 -3.01075 0
M  V30 559 C 50.9135 1.2887 -4.08138 0
M  V30 560 C 50.2395 2.54396 -4.70305 0
M  V30 561 C 51.5395 0.416578 -5.20636 0
M  V30 562 H 53.2335 -0.0393902 -2.99374 0
M  V30 563 H 50.7795 -0.020385 -1.43986 0
M  V30 564 H 52.7325 2.34396 -3.50195 0
M  V30 565 H 51.4565 2.3584 -2.25936 0
M  V30 566 H 50.1155 0.698991 -3.59875 0
M  V30 567 H 49.7635 3.15439 -3.918 0
M  V30 568 H 49.4635 2.25486 -5.42614 0
M  V30 569 H 50.9875 3.16464 -5.2219 0
M  V30 570 H 52.4015 0.935116 -5.65622 0
M  V30 571 H 50.7985 0.221046 -5.99693 0
M  V30 572 H 51.8685 -0.557162 -4.81688 0
M  V30 573 N 53.2116 1.57565 -0.0334293 0
M  V30 574 C 54.4396 1.9628 0.654347 0
M  V30 575 C 54.8546 0.910138 1.65414 0
M  V30 576 O 54.2116 -0.107595 1.82183 0
M  V30 577 C 54.2626 3.35067 1.35693 0
M  V30 578 O 53.9836 4.36296 0.397191 0
M  V30 579 C 55.4846 3.88439 2.13613 0
M  V30 580 H 52.7046 0.646369 0.180132 0
M  V30 581 H 55.2486 2.04282 -0.0944721 0
M  V30 582 H 53.4036 3.2827 2.05712 0
M  V30 583 H 53.8176 5.1678 0.896597 0
M  V30 584 H 55.2916 4.8788 2.58219 0
M  V30 585 H 55.7686 3.22914 2.97696 0
M  V30 586 H 56.3746 3.98516 1.48543 0
M  V30 587 N 54.6897 -0.239769 1.55765 0
M  V30 588 C 55.9147 -0.988373 1.82335 0
M  V30 589 C 56.3397 -1.77886 0.611421 0
M  V30 590 O 55.6977 -1.75889 -0.439639 0
M  V30 591 C 55.7457 -1.89627 3.06715 0
M  V30 592 O 54.8497 -2.98904 2.84131 0
M  V30 593 H 54.1907 -0.280858 0.601677 0
M  V30 594 H 56.7207 -0.258597 2.02959 0
M  V30 595 H 56.7307 -2.30957 3.36338 0
M  V30 596 H 55.4057 -1.31511 3.9456 0
M  V30 597 H 53.9827 -2.61651 2.65694 0
M  V30 598 N 56.1678 -1.49265 -0.50573 0
M  V30 599 C 57.4138 -1.58748 -1.26202 0
M  V30 600 C 57.7468 -0.271227 -1.92297 0
M  V30 601 O 57.0218 0.724831 -1.80489 0
M  V30 602 C 57.3048 -2.74332 -2.33268 0
M  V30 603 C 57.1578 -4.15737 -1.71705 0
M  V30 604 C 58.4768 -2.85576 -3.34865 0
M  V30 605 H 55.5958 -0.577826 -0.457478 0
M  V30 606 H 58.2378 -1.81532 -0.560897 0
M  V30 607 H 56.3878 -2.55036 -2.93068 0
M  V30 608 H 58.0598 -4.46537 -1.15769 0
M  V30 609 H 56.3028 -4.21605 -1.02135 0
M  V30 610 H 56.9738 -4.92477 -2.49341 0
M  V30 611 H 59.4498 -3.03127 -2.8505 0
M  V30 612 H 58.3258 -3.68135 -4.07146 0
M  V30 613 H 58.5868 -1.94732 -3.96903 0
M  V30 614 N 57.6459 0.756429 -1.3826 0
M  V30 615 C 59.0619 1.0591 -1.19395 0
M  V30 616 C 59.2619 2.01459 -0.0406567 0
M  V30 617 O 58.3179 2.44909 0.614467 0
M  V30 618 C 59.6309 1.64191 -2.51916 0
M  V30 619 C 61.1789 1.76376 -2.58574 0
M  V30 620 C 61.6539 2.38069 -3.91264 0
M  V30 621 N 63.1449 2.45503 -3.92788 0
M  V30 622 C 63.8799 2.94126 -4.92217 0
M  V30 623 N 63.3759 3.42805 -6.02043 0
M  V30 624 N 65.1689 2.9314 -4.7961 0
M  V30 625 H 57.3199 0.122313 -2.12048 0
M  V30 626 H 59.5829 0.116892 -0.940766 0
M  V30 627 H 59.2889 1.01451 -3.3675 0
M  V30 628 H 59.1629 2.6329 -2.70108 0
M  V30 629 H 61.5499 2.38244 -1.74137 0
M  V30 630 H 61.6309 0.759894 -2.44252 0
M  V30 631 H 61.2749 1.76835 -4.76121 0
M  V30 632 H 61.2049 3.39091 -4.02895 0
M  V30 633 H 63.6959 2.1107 -3.13461 0
M  V30 634 H 64.0089 3.78354 -6.73846 0
M  V30 635 H 62.3539 3.4087 -6.05667 0
M  V30 636 H 65.5449 2.54419 -3.92923 0
M  V30 637 H 65.7179 3.30721 -5.5725 0
M  V30 638 N 59.124 1.23083 0.984299 0
M  V30 639 C 60.37 1.06214 1.72761 0
M  V30 640 C 60.703 -0.400584 1.90024 0
M  V30 641 O 59.978 -1.29672 1.44967 0
M  V30 642 C 60.261 1.78375 3.12817 0
M  V30 643 C 60.114 3.32296 3.03149 0
M  V30 644 C 61.433 1.54309 4.12161 0
M  V30 645 H 58.552 0.387251 0.627061 0
M  V30 646 H 61.194 1.51536 1.14616 0
M  V30 647 H 59.344 1.39848 3.62457 0
M  V30 648 H 61.016 3.8032 2.61064 0
M  V30 649 H 59.259 3.6153 2.39747 0
M  V30 650 H 59.93 3.77972 4.02295 0
M  V30 651 H 62.406 1.87791 3.71314 0
M  V30 652 H 61.282 2.07281 5.08258 0
M  V30 653 H 61.543 0.477572 4.39513 0
M  V30 654 N 60.6021 -1.18246 1.0419 0
M  V30 655 C 61.8511 -1.87588 0.741194 0
M  V30 656 C 62.1641 -1.81303 -0.734066 0
M  V30 657 O 63.3701 -2.46019 -1.14834 0
M  V30 658 C 61.8261 -3.36538 1.27555 0
M  V30 659 C 61.4341 -3.51349 2.77953 0
M  V30 660 C 63.1781 -4.11273 1.05143 0
M  V30 661 C 61.0851 -4.94265 3.2474 0
M  V30 662 H 60.0151 -0.702622 0.273565 0
M  V30 663 H 62.6661 -1.33601 1.25789 0
M  V30 664 H 61.0481 -3.9 0.686703 0
M  V30 665 H 62.2221 -3.08153 3.42605 0
M  V30 666 H 60.5371 -2.90022 2.98791 0
M  V30 667 H 63.1341 -5.16689 1.37611 0
M  V30 668 H 63.4771 -4.16298 -0.0112774 0
M  V30 669 H 64.0101 -3.63987 1.60495 0
M  V30 670 H 60.7491 -4.94408 4.30396 0
M  V30 671 H 60.2691 -5.38172 2.64823 0
M  V30 672 H 61.9481 -5.62987 3.18834 0
M  V30 673 N 62.0802 -0.821533 -1.34494 0
M  V30 674 C 63.3292 -0.405355 -1.97585 0
M  V30 675 C 63.6422 1.03677 -1.65863 0
M  V30 676 O 64.8482 1.55679 -2.22433 0
M  V30 677 C 63.3042 -0.673861 -3.53535 0
M  V30 678 C 62.9122 -2.12951 -3.94152 0
M  V30 679 C 64.6562 -0.32378 -4.23263 0
M  V30 680 C 62.5632 -2.34298 -5.43009 0
M  V30 681 H 61.4932 -0.147836 -0.739365 0
M  V30 682 H 64.1442 -1.00769 -1.53355 0
M  V30 683 H 62.5262 -0.00137554 -3.96 0
M  V30 684 H 63.7002 -2.84104 -3.62797 0
M  V30 685 H 62.0152 -2.44089 -3.37356 0
M  V30 686 H 64.6122 -0.461126 -5.32708 0
M  V30 687 H 64.9552 0.731586 -4.09821 0
M  V30 688 H 65.4882 -0.950786 -3.8627 0
M  V30 689 H 62.2272 -3.38335 -5.61435 0
M  V30 690 H 61.7472 -1.67687 -5.75883 0
M  V30 691 H 63.4262 -2.16588 -6.09671 0
M  V30 692 N 63.5583 1.46682 -0.576371 0
M  V30 693 C 64.7863 2.06798 -0.0649635 0
M  V30 694 C 65.2013 1.42612 1.23723 0
M  V30 695 O 64.5583 0.529203 1.74659 0
M  V30 696 C 64.6093 3.6132 0.114202 0
M  V30 697 O 64.3303 4.23104 -1.13644 0
M  V30 698 C 65.8313 4.38349 0.66069 0
M  V30 699 H 63.0513 0.668778 -0.0545616 0
M  V30 700 H 65.5953 1.88404 -0.795237 0
M  V30 701 H 63.7503 3.79162 0.794673 0
M  V30 702 H 64.1643 5.15894 -0.946253 0
M  V30 703 H 65.6383 5.47081 0.73526 0
M  V30 704 H 66.1153 4.05953 1.67627 0
M  V30 705 H 66.7213 4.25297 0.0152951 0
M  V30 706 N 65.0364 0.313813 1.54444 0
M  V30 707 C 65.9464 -0.565714 2.27677 0
M  V30 708 C 66.9624 -1.13754 1.31666 0
M  V30 709 O 68.1384 -1.15959 1.64668 0
M  V30 710 C 65.2034 -1.71528 3.01296 0
M  V30 711 C 64.2644 -1.17624 4.12872 0
M  V30 712 C 63.4974 -2.27102 4.8297 0
M  V30 713 O 63.7204 -3.47256 4.52514 0
M  V30 714 O 62.6544 -1.9307 5.70094 0
M  V30 715 H 66.4804 0.0287296 3.03686 0
M  V30 716 H 64.0654 0.0798312 1.49187 0
M  V30 717 H 65.9474 -2.38476 3.4743 0
M  V30 718 H 64.6224 -2.29608 2.2817 0
M  V30 719 H 63.5294 -0.472124 3.71109 0
M  V30 720 H 64.8624 -0.640695 4.88012 0
M  V30 721 N 66.5145 -1.57545 0.0417849 0
M  V30 722 C 67.4475 -2.06514 -0.970928 0
M  V30 723 C 68.4255 -0.963607 -1.30971 0
M  V30 724 O 69.6095 -1.23486 -1.4242 0
M  V30 725 C 66.7365 -2.4978 -2.28752 0
M  V30 726 C 65.7825 -3.71078 -2.10246 0
M  V30 727 S 66.6155 -5.17158 -1.38952 0
M  V30 728 C 67.7715 -5.6373 -2.71954 0
M  V30 729 H 68.0045 -2.9209 -0.554129 0
M  V30 730 H 65.5375 -1.53459 -0.17024 0
M  V30 731 H 67.4955 -2.75371 -3.04435 0
M  V30 732 H 66.1565 -1.64527 -2.67562 0
M  V30 733 H 65.3495 -3.9924 -3.07609 0
M  V30 734 H 64.9515 -3.45705 -1.42704 0
M  V30 735 H 67.2435 -5.68743 -3.68154 0
M  V30 736 H 68.1865 -6.63086 -2.4844 0
M  V30 737 H 68.5945 -4.91424 -2.77782 0
M  V30 738 N 67.9926 0.231505 -1.5589 0
M  V30 739 C 68.9556 1.27028 -1.90779 0
M  V30 740 C 69.9556 1.40308 -0.785507 0
M  V30 741 O 71.1456 1.38744 -1.05336 0
M  V30 742 C 68.2776 2.64566 -2.14983 0
M  V30 743 H 69.4706 0.973017 -2.83677 0
M  V30 744 H 67.0236 0.471486 -1.49019 0
M  V30 745 H 67.7586 2.99406 -1.24604 0
M  V30 746 H 67.5436 2.56305 -2.96732 0
M  V30 747 H 69.0336 3.39543 -2.43105 0
M  V30 748 N 69.4707 1.49531 0.497807 0
M  V30 749 C 70.4177 1.66436 1.59899 0
M  V30 750 C 71.3877 0.505793 1.58212 0
M  V30 751 O 72.5727 0.733202 1.7615 0
M  V30 752 C 69.7127 1.7399 2.98029 0
M  V30 753 C 68.8257 3.01172 3.09708 0
M  V30 754 C 67.9607 2.99686 4.38591 0
M  V30 755 C 66.9997 4.21434 4.43914 0
M  V30 756 N 66.1367 4.1784 5.64229 0
M  V30 757 H 70.9767 2.60459 1.44793 0
M  V30 758 H 68.5137 1.29137 0.704423 0
M  V30 759 H 70.4717 1.76352 3.78095 0
M  V30 760 H 69.1017 0.834301 3.11832 0
M  V30 761 H 68.1537 3.08408 2.22685 0
M  V30 762 H 69.4657 3.91165 3.09502 0
M  V30 763 H 68.6197 3.00628 5.2698 0
M  V30 764 H 67.3587 2.07477 4.41367 0
M  V30 765 H 66.3637 4.20733 3.53926 0
M  V30 766 H 67.5887 5.14839 4.42851 0
M  V30 767 H 65.5347 3.28469 5.67841 0
M  V30 768 H 65.4517 5.01571 5.65652 0
M  V30 769 H 66.7197 4.22889 6.54817 0
M  V30 770 N 70.9488 -0.749086 1.3866 0
M  V30 771 C 72.1968 -1.50535 1.34847 0
M  V30 772 C 72.5178 -1.94909 -0.0595016 0
M  V30 773 O 71.7878 -1.67973 -1.00806 0
M  V30 774 H 70.3678 -0.558395 0.49619 0
M  V30 775 H 73.0298 -0.890165 1.73384 0
M  V30 776 H 72.1258 -2.39413 2.00219 0
M  V30 777 N 72.4269 -1.23603 -0.977757 0
M  V30 778 C 73.3769 -0.986664 -2.05545 0
M  V30 779 C 74.3609 0.0683009 -1.60755 0
M  V30 780 O 75.5529 -0.144162 -1.76412 0
M  V30 781 C 72.6819 -0.582623 -3.3832 0
M  V30 782 C 71.7679 -1.67313 -3.89701 0
M  V30 783 N 72.1589 -2.90394 -4.14132 0
M  V30 784 C 70.4569 -1.54832 -4.18262 0
M  V30 785 C 71.1579 -3.61017 -4.56116 0
M  V30 786 N 70.1339 -2.8854 -4.60701 0
M  V30 787 H 73.9359 -1.92139 -2.22396 0
M  V30 788 H 71.4499 -1.1358 -1.16074 0
M  V30 789 H 73.4469 -0.38524 -4.15116 0
M  V30 790 H 72.1069 0.34503 -3.22862 0
M  V30 791 H 73.1179 -3.26673 -4.01877 0
M  V30 792 H 69.7949 -0.687969 -4.11793 0
M  V30 793 H 71.1849 -4.66544 -4.83514 0
M  V30 794 N 73.905 1.17692 -1.04816 0
M  V30 795 C 75.152 1.87859 -0.75599 0
M  V30 796 C 75.48 1.80812 0.716752 0
M  V30 797 O 74.735 1.20819 1.53952 0
M  V30 798 C 75.034 3.37462 -1.17703 0
M  V30 799 C 74.7 3.64713 -2.65133 0
M  V30 800 C 73.362 3.71859 -3.05408 0
M  V30 801 C 75.714 3.76492 -3.60421 0
M  V30 802 C 73.042 3.88271 -4.39843 0
M  V30 803 C 75.394 3.94421 -4.94585 0
M  V30 804 C 74.058 3.99806 -5.3452 0
M  V30 805 H 73.328 0.687425 -0.276636 0
M  V30 806 H 75.975 1.39255 -1.31455 0
M  V30 807 H 74.28 3.88097 -0.537395 0
M  V30 808 H 75.977 3.90109 -0.928218 0
M  V30 809 H 72.567 3.59772 -2.32942 0
M  V30 810 H 76.751 3.70295 -3.30447 0
M  V30 811 H 72.007 3.90687 -4.70291 0
M  V30 812 H 76.181 4.02477 -5.68318 0
M  V30 813 H 73.808 4.12276 -6.38696 0
M  V30 814 N 75.3831 0.828654 1.34056 0
M  V30 815 C 76.6311 0.41863 1.97717 0
M  V30 816 C 76.9521 -1.02314 1.66002 0
M  V30 817 O 76.2221 -1.71119 0.953683 0
M  V30 818 H 74.8021 0.151809 0.731412 0
M  V30 819 H 77.4641 1.05936 1.63596 0
M  V30 820 H 76.5601 0.542318 3.07352 0
M  V30 821 N 76.8612 -1.46375 0.584142 0
M  V30 822 C 78.1102 -2.01585 0.0679741 0
M  V30 823 C 78.4232 -1.46109 -1.30045 0
M  V30 824 O 79.6292 -1.93148 -1.90804 0
M  V30 825 C 78.0852 -3.5983 0.0709207 0
M  V30 826 C 77.6932 -4.24303 1.43775 0
M  V30 827 C 79.4372 -4.22693 -0.391228 0
M  V30 828 C 77.3442 -5.74631 1.39834 0
M  V30 829 H 76.2742 -0.753689 0.0216421 0
M  V30 830 H 78.9252 -1.68093 0.736001 0
M  V30 831 H 77.3072 -3.90405 -0.663299 0
M  V30 832 H 78.4812 -4.05335 2.19181 0
M  V30 833 H 76.7962 -3.73539 1.84004 0
M  V30 834 H 79.3932 -5.3289 -0.439524 0
M  V30 835 H 79.7362 -3.91728 -1.40906 0
M  V30 836 H 80.2692 -3.96749 0.288974 0
M  V30 837 H 77.0082 -6.10258 2.39303 0
M  V30 838 H 76.5282 -5.95858 0.686505 0
M  V30 839 H 78.2072 -6.37375 1.11187 0
M  V30 840 N 78.3393 -0.321999 -1.54275 0
M  V30 841 C 79.5873 0.280489 -2.00144 0
M  V30 842 C 79.9083 1.52777 -1.21178 0
M  V30 843 O 79.1783 1.9338 -0.313187 0
M  V30 844 H 77.7583 0.106632 -0.73935 0
M  V30 845 H 80.4203 -0.438184 -1.8991 0
M  V30 846 H 79.5163 0.537972 -3.07428 0
M  V30 847 N 79.8174 1.5752 -0.0501392 0
M  V30 848 C 81.0654 1.9227 0.622642 0
M  V30 849 C 81.3864 0.929083 1.71444 0
M  V30 850 O 80.6564 -0.0262186 1.95882 0
M  V30 851 H 79.2364 0.709739 0.232981 0
M  V30 852 H 81.8984 1.94628 -0.102898 0
M  V30 853 H 80.9944 2.93479 1.06191 0
M  V30 854 N 81.2955 -0.223234 1.56011 0
M  V30 855 C 82.2055 -1.29766 1.95443 0
M  V30 856 C 83.2215 -1.51373 0.858028 0
M  V30 857 O 84.3975 -1.64536 1.16146 0
M  V30 858 C 81.4625 -2.62772 2.26167 0
M  V30 859 C 80.5235 -2.49482 3.49367 0
M  V30 860 C 79.7565 -3.76145 3.78616 0
M  V30 861 O 79.9795 -4.79087 3.09568 0
M  V30 862 O 78.9135 -3.73358 4.72109 0
M  V30 863 H 82.7395 -0.99309 2.87004 0
M  V30 864 H 80.3245 -0.425958 1.43199 0
M  V30 865 H 82.2065 -3.41327 2.47131 0
M  V30 866 H 80.8815 -2.92913 1.37781 0
M  V30 867 H 79.7885 -1.69133 3.33684 0
M  V30 868 H 81.1215 -2.2428 4.38131 0
M  V30 869 N 82.7736 -1.49793 -0.48987 0
M  V30 870 C 83.7036 -1.70201 -1.59856 0
M  V30 871 C 84.6846 -0.55076 -1.60937 0
M  V30 872 O 85.8696 -0.787841 -1.77501 0
M  V30 873 C 82.9996 -1.77882 -2.98287 0
M  V30 874 C 81.9536 -2.92907 -3.12073 0
M  V30 875 C 81.2796 -2.85712 -4.51965 0
M  V30 876 C 82.5796 -4.3369 -2.91051 0
M  V30 877 H 84.2736 -2.63025 -1.43032 0
M  V30 878 H 81.8196 -1.26574 -0.686664 0
M  V30 879 H 83.7726 -1.90744 -3.75759 0
M  V30 880 H 82.4966 -0.816653 -3.16225 0
M  V30 881 H 81.1556 -2.79665 -2.37029 0
M  V30 882 H 80.8036 -1.8738 -4.66795 0
M  V30 883 H 80.5036 -3.62921 -4.62128 0
M  V30 884 H 82.0276 -3.00598 -5.31482 0
M  V30 885 H 83.4416 -4.47555 -3.58284 0
M  V30 886 H 81.8386 -5.12205 -3.12675 0
M  V30 887 H 82.9086 -4.47362 -1.87071 0
M  V30 888 N 84.2517 0.741722 -1.39055 0
M  V30 889 C 85.2147 1.83733 -1.37021 0
M  V30 890 C 86.2147 1.58542 -0.268534 0
M  V30 891 O 87.4047 1.66067 -0.526076 0
M  V30 892 C 84.5367 3.2141 -1.13617 0
M  V30 893 H 85.7297 1.86941 -2.34506 0
M  V30 894 H 83.2827 0.944676 -1.24521 0
M  V30 895 H 84.0177 3.23865 -0.167863 0
M  V30 896 H 83.8027 3.4109 -1.93391 0
M  V30 897 H 85.2927 4.01477 -1.14918 0
M  V30 898 N 85.7298 1.2412 0.971189 0
M  V30 899 C 86.9548 1.10667 1.75407 0
M  V30 900 C 87.3798 -0.337048 1.85056 0
M  V30 901 O 86.7378 -1.24396 1.31892 0
M  V30 902 C 86.7858 1.74726 3.15441 0
M  V30 903 O 85.8898 1.01566 3.99697 0
M  V30 904 H 85.2308 0.387341 0.539317 0
M  V30 905 H 87.7608 1.64358 1.2185 0
M  V30 906 H 87.7708 1.80341 3.6598 0
M  V30 907 H 86.4458 2.79773 3.07734 0
M  V30 908 H 85.0228 1.03713 3.58187 0
M  V30 909 N 87.2079 -1.17134 1.05439 0
M  V30 910 C 88.1549 -2.21235 0.657539 0
M  V30 911 C 89.1249 -1.62551 -0.341543 0
M  V30 912 O 90.3099 -1.89379 -0.232393 0
M  V30 913 C 87.4499 -3.45076 0.0410575 0
M  V30 914 C 86.5629 -4.18042 1.08927 0
M  V30 915 C 85.6979 -5.29376 0.439848 0
M  V30 916 C 84.7369 -5.94132 1.4722 0
M  V30 917 N 83.8739 -6.96975 0.846756 0
M  V30 918 H 88.7139 -2.54534 1.54972 0
M  V30 919 H 86.2509 -1.25028 0.775006 0
M  V30 920 H 88.2089 -4.15862 -0.33383 0
M  V30 921 H 86.8389 -3.12353 -0.814568 0
M  V30 922 H 85.8909 -3.45945 1.58196 0
M  V30 923 H 87.2029 -4.62306 1.87282 0
M  V30 924 H 86.3569 -6.06699 0.0115125 0
M  V30 925 H 85.0959 -4.86251 -0.375656 0
M  V30 926 H 84.1009 -5.15538 1.91052 0
M  V30 927 H 85.3259 -6.39337 2.28965 0
M  V30 928 H 83.2719 -6.5598 0.0518075 0
M  V30 929 H 83.1889 -7.39565 1.5678 0
M  V30 930 H 84.4569 -7.78239 0.443277 0
M  V30 931 N 88.686 -0.835752 -1.33615 0
M  V30 932 C 89.932 -0.430596 -1.98176 0
M  V30 933 C 90.265 1.00684 -1.66061 0
M  V30 934 O 89.54 1.70339 -0.938877 0
M  V30 935 C 89.823 -0.648065 -3.5422 0
M  V30 936 C 89.676 -2.13255 -3.96033 0
M  V30 937 C 90.995 -0.0922113 -4.40003 0
M  V30 938 H 88.114 -0.157924 -0.719881 0
M  V30 939 H 90.756 -1.05069 -1.58305 0
M  V30 940 H 88.906 -0.120237 -3.88314 0
M  V30 941 H 90.578 -2.725 -3.72211 0
M  V30 942 H 88.821 -2.61823 -3.45878 0
M  V30 943 H 89.492 -2.23547 -5.04708 0
M  V30 944 H 91.968 -0.543343 -4.12537 0
M  V30 945 H 90.844 -0.274083 -5.48215 0
M  V30 946 H 91.105 1.00378 -4.30554 0
M  V30 947 N 90.1641 1.46063 -0.591896 0
M  V30 948 C 91.5801 1.57561 -0.254288 0
M  V30 949 C 91.7801 1.58565 1.24336 0
M  V30 950 O 90.8361 1.50753 2.02558 0
M  V30 951 C 92.1491 2.86549 -0.911611 0
M  V30 952 C 93.6971 3.00197 -0.886059 0
M  V30 953 C 94.1721 4.31933 -1.5231 0
M  V30 954 N 95.6631 4.38654 -1.48786 0
M  V30 955 C 96.3981 5.39222 -1.95006 0
M  V30 956 N 95.8941 6.46414 -2.49241 0
M  V30 957 N 97.6871 5.3048 -1.85868 0
M  V30 958 H 89.8381 1.43655 -1.56451 0
M  V30 959 H 92.1011 0.68583 -0.654478 0
M  V30 960 H 91.8071 2.91651 -1.96551 0
M  V30 961 H 91.6811 3.74794 -0.425368 0
M  V30 962 H 94.0681 2.9467 0.159246 0
M  V30 963 H 94.1491 2.13403 -1.41041 0
M  V30 964 H 93.7931 4.38217 -2.56765 0
M  V30 965 H 93.7231 5.17516 -0.973891 0
M  V30 966 H 96.2141 3.61793 -1.09151 0
M  V30 967 H 96.5271 7.19376 -2.82344 0
M  V30 968 H 94.8721 6.47208 -2.53272 0
M  V30 969 H 98.0631 4.45643 -1.43248 0
M  V30 970 H 98.2361 6.08711 -2.22204 0
M  V30 971 N 91.6422 0.330177 1.54103 0
M  V30 972 C 93.0582 -0.0222371 1.59585 0
M  V30 973 C 93.2582 -1.49902 1.34654 0
M  V30 974 O 92.3142 -2.25592 1.13421 0
M  V30 975 C 93.6272 0.401932 2.98002 0
M  V30 976 C 95.1752 0.353145 3.11001 0
M  V30 977 C 95.6502 0.752576 4.51775 0
M  V30 978 N 97.1412 0.706239 4.57784 0
M  V30 979 C 97.8762 0.987417 5.64834 0
M  V30 980 N 97.3722 1.33607 6.79795 0
M  V30 981 N 99.1652 0.91254 5.54643 0
M  V30 982 H 91.3162 1.29228 1.68564 0
M  V30 983 H 93.5792 0.525906 0.78875 0
M  V30 984 H 93.2852 1.4311 3.21267 0
M  V30 985 H 93.1592 -0.229699 3.765 0
M  V30 986 H 95.5462 -0.666822 2.87467 0
M  V30 987 H 95.6272 1.0198 2.34593 0
M  V30 988 H 95.2712 1.77049 4.76042 0
M  V30 989 H 95.2012 0.0635409 5.26562 0
M  V30 990 H 97.6922 0.44889 3.75224 0
M  V30 991 H 98.0052 1.53582 7.57385 0
M  V30 992 H 96.3502 1.37439 6.81275 0
M  V30 993 H 99.5412 0.639601 4.6371 0
M  V30 994 H 99.7142 1.13503 6.37982 0
M  V30 995 O 93.1592 -1.60283 0.197925 0
M  V30 996 H 93.8502 -1.89795 -0.386981 0
M  V30 END ATOM
M  V30 BEGIN BOND
M  V30 END BOND
M  V30 END CTAB
M  END
$$$$
