drugbank_target|P13637 Sodium/potassium-transporting ATPase subunit alpha-3 (DB01092)
 OpenBabel12092121013D

  0  0  0     0  0            999 V3000
M  V30 BEGIN CTAB
M  V30 COUNTS 15719 15865 0 0 0
M  V30 BEGIN ATOM
M  V30 1 H -0.908 1.98254 -0.117106 0
M  V30 2 N 0 1.576 0 0
M  V30 3 C 0.933 2.03868 1.02534 0
M  V30 4 C 1.911 0.928543 1.3348 0
M  V30 5 O 3.095 1.19667 1.45644 0
M  V30 6 C 0.222 2.43627 2.35294 0
M  V30 7 C -0.732 3.65373 2.2001 0
M  V30 8 S 0.101 5.13292 1.52614 0
M  V30 9 C 1.257 5.56322 2.86805 0
M  V30 10 H 1.49 2.90518 0.631377 0
M  V30 11 H -0.977 1.52953 0.210867 0
M  V30 12 H 0.981 2.67203 3.11629 0
M  V30 13 H -0.358 1.57376 2.7183 0
M  V30 14 H -1.165 3.90944 3.18086 0
M  V30 15 H -1.563 3.418 1.51819 0
M  V30 16 H 0.729 5.58782 3.83104 0
M  V30 17 H 1.672 6.56266 2.65933 0
M  V30 18 H 2.08 4.83886 2.90714 0
M  V30 19 N 1.4781 -0.272755 1.55222 0
M  V30 20 C 2.7261 -1.00234 1.75492 0
M  V30 21 C 3.0471 -1.8681 0.5592 0
M  V30 22 O 2.3171 -1.91215 -0.425882 0
M  V30 23 H 0.8971 -0.373076 0.647166 0
M  V30 24 H 3.5591 -0.296926 1.92625 0
M  V30 25 H 2.6551 -1.63913 2.65592 0
M  V30 26 N 2.9562 -1.48159 -0.537278 0
M  V30 27 C 4.2332 -1.46291 -1.29839 0
M  V30 28 C 4.6132 -0.170613 -2.10409 0
M  V30 29 O 3.9612 0.847746 -2.12192 0
M  V30 30 C 4.1712 -2.72055 -2.18603 0
M  V30 31 C 5.5192 -3.20087 -2.7898 0
M  V30 32 O 6.5432 -2.72921 -2.28894 0
M  V30 33 O 5.4022 -4.02138 -3.70064 0
M  V30 34 H 2.4962 -0.583906 -0.585647 0
M  V30 35 H 5.0422 -1.60384 -0.554534 0
M  V30 36 H 3.8142 -3.57628 -1.58801 0
M  V30 37 H 3.4372 -2.60646 -3.00249 0
M  V30 38 N 4.4343 0.785586 -1.36625 0
M  V30 39 C 5.3813 1.89838 -1.31264 0
M  V30 40 C 6.3513 1.65115 -0.180633 0
M  V30 41 O 7.5363 1.87222 -0.36777 0
M  V30 42 C 4.6763 3.26706 -1.11163 0
M  V30 43 C 3.7893 3.63476 -2.33472 0
M  V30 44 C 2.9243 4.89481 -2.06353 0
M  V30 45 C 1.9633 5.18941 -3.24602 0
M  V30 46 N 1.1003 6.36131 -2.97123 0
M  V30 47 H 5.9403 1.93756 -2.26413 0
M  V30 48 H 3.4773 0.947454 -1.12524 0
M  V30 49 H 5.4353 4.05639 -0.975337 0
M  V30 50 H 4.0653 3.222 -0.196674 0
M  V30 51 H 3.1173 2.79636 -2.57891 0
M  V30 52 H 4.4293 3.81193 -3.21704 0
M  V30 53 H 3.5833 5.76288 -1.89675 0
M  V30 54 H 2.3223 4.73841 -1.15437 0
M  V30 55 H 1.3273 4.30615 -3.41834 0
M  V30 56 H 2.5523 5.36498 -4.16349 0
M  V30 57 H 0.4983 6.21875 -2.08823 0
M  V30 58 H 0.4153 6.54198 -3.78894 0
M  V30 59 H 1.6833 7.2591 -2.84033 0
M  V30 60 N 5.9124 1.20967 1.01018 0
M  V30 61 C 6.8594 0.964281 2.09691 0
M  V30 62 C 7.8294 -0.107853 1.65749 0
M  V30 63 O 9.0144 0.0381987 1.90762 0
M  V30 64 C 6.1544 0.52943 3.41015 0
M  V30 65 C 5.2674 1.67043 3.98398 0
M  V30 66 C 4.4024 1.18525 5.17808 0
M  V30 67 C 3.4414 2.29892 5.67288 0
M  V30 68 N 2.5784 1.82546 6.77954 0
M  V30 69 H 7.4184 1.89463 2.30017 0
M  V30 70 H 4.9554 0.944289 1.1279 0
M  V30 71 H 6.9134 0.258588 4.16398 0
M  V30 72 H 5.5434 -0.363919 3.20742 0
M  V30 73 H 4.5954 2.05603 3.20049 0
M  V30 74 H 5.9074 2.50877 4.31117 0
M  V30 75 H 5.0614 0.870762 6.00419 0
M  V30 76 H 3.8004 0.316887 4.86669 0
M  V30 77 H 2.8054 2.6215 4.83278 0
M  V30 78 H 4.0304 3.17216 6.00459 0
M  V30 79 H 1.9764 0.980454 6.48632 0
M  V30 80 H 1.8934 2.59956 7.09901 0
M  V30 81 H 3.1614 1.54115 7.64113 0
M  V30 82 N 7.3905 -1.2043 1.01659 0
M  V30 83 C 8.6675 -1.8548 0.621004 0
M  V30 84 C 9.0475 -1.9091 -0.900919 0
M  V30 85 O 8.3955 -1.41694 -1.79263 0
M  V30 86 C 8.6055 -3.25119 1.2688 0
M  V30 87 C 9.9535 -4.01403 1.38423 0
M  V30 88 O 10.9775 -3.34473 1.22501 0
M  V30 89 O 9.8365 -5.21265 1.64151 0
M  V30 90 H 6.9305 -0.798761 0.214266 0
M  V30 91 H 9.4765 -1.28019 1.11396 0
M  V30 92 H 8.2485 -3.15932 2.30873 0
M  V30 93 H 7.8715 -3.90212 0.762917 0
M  V30 94 N 8.8686 -0.792821 -1.36206 0
M  V30 95 C 10.1456 -0.290627 -1.93429 0
M  V30 96 C 10.5256 1.21773 -1.72437 0
M  V30 97 O 9.8736 2.0108 -1.08531 0
M  V30 98 C 10.0836 -0.686973 -3.42172 0
M  V30 99 C 11.4316 -0.668643 -4.19302 0
M  V30 100 O 12.4556 -0.627658 -3.50626 0
M  V30 101 O 11.3146 -0.714597 -5.41808 0
M  V30 102 H 8.4086 -0.0727927 -0.82379 0
M  V30 103 H 10.9546 -0.875593 -1.45367 0
M  V30 104 H 9.7266 -1.72711 -3.51122 0
M  V30 105 H 9.3496 -0.0760733 -3.97527 0
M  V30 106 N 10.3467 1.47872 -0.545128 0
M  V30 107 C 11.2937 2.29849 0.2093 0
M  V30 108 C 12.2637 1.38313 0.919707 0
M  V30 109 O 13.4487 1.67277 0.917772 0
M  V30 110 C 10.5887 3.22019 1.24088 0
M  V30 111 C 9.7017 4.2864 0.537778 0
M  V30 112 C 8.8367 5.07973 1.5536 0
M  V30 113 C 7.8757 6.06381 0.8348 0
M  V30 114 N 7.0127 6.78717 1.79688 0
M  V30 115 H 11.8527 2.93845 -0.49591 0
M  V30 116 H 9.3897 1.44848 -0.256389 0
M  V30 117 H 11.3477 3.73868 1.85144 0
M  V30 118 H 9.9777 2.59914 1.91428 0
M  V30 119 H 9.0297 3.7994 -0.187046 0
M  V30 120 H 10.3417 4.98793 -0.0258907 0
M  V30 121 H 9.4957 5.63912 2.23803 0
M  V30 122 H 8.2347 4.37693 2.15118 0
M  V30 123 H 7.2397 5.49631 0.136388 0
M  V30 124 H 8.4647 6.78665 0.24313 0
M  V30 125 H 6.4107 6.11177 2.38326 0
M  V30 126 H 6.3277 7.44998 1.28505 0
M  V30 127 H 7.5957 7.39237 2.47282 0
M  V30 128 N 11.8248 0.280983 1.55075 0
M  V30 129 C 13.1018 -0.386207 1.91749 0
M  V30 130 C 13.4818 -1.73264 1.20594 0
M  V30 131 O 12.8298 -2.26034 0.334784 0
M  V30 132 C 13.0398 -0.520687 3.45094 0
M  V30 133 C 14.3878 -0.800865 4.16979 0
M  V30 134 O 15.4118 -0.605271 3.5102 0
M  V30 135 O 14.2708 -1.1753 5.33712 0
M  V30 136 H 11.3648 -0.212408 0.799257 0
M  V30 137 H 13.9108 0.327568 1.66509 0
M  V30 138 H 12.6828 0.426633 3.88967 0
M  V30 139 H 12.3058 -1.2837 3.76307 0
M  V30 140 N 13.3029 -1.57598 0.00835791 0
M  V30 141 C 14.5279 -1.95617 -0.689103 0
M  V30 142 C 14.9529 -0.883753 -1.66046 0
M  V30 143 O 14.3109 0.157352 -1.80616 0
M  V30 144 C 14.3589 -3.32736 -1.38994 0
M  V30 145 O 13.4629 -3.27631 -2.50463 0
M  V30 146 H 12.8039 -0.638379 -0.182668 0
M  V30 147 H 15.3339 -2.045 0.064036 0
M  V30 148 H 15.3439 -3.68494 -1.75147 0
M  V30 149 H 14.0189 -4.1034 -0.677778 0
M  V30 150 H 12.5959 -3.03561 -2.16576 0
M  V30 151 N 14.781 0.264519 -1.55364 0
M  V30 152 C 16.192 0.834936 -1.6699 0
M  V30 153 C 16.543 1.86718 -0.602552 0
M  V30 154 O 15.668 2.14899 0.254425 0
M  V30 155 C 16.263 1.5212 -3.02729 0
M  V30 156 C 14.822 2.03954 -3.16354 0
M  V30 157 C 13.969 0.884498 -2.62815 0
M  V30 158 H 16.92 0.0406869 -1.58648 0
M  V30 159 H 16.941 2.38853 -2.96191 0
M  V30 160 H 16.453 0.769668 -3.80392 0
M  V30 161 H 14.554 2.82041 -2.43482 0
M  V30 162 H 14.667 2.24902 -4.23032 0
M  V30 163 H 13.031 1.2802 -2.20188 0
M  V30 164 H 13.814 0.14634 -3.42988 0
M  V30 165 N 16.2591 1.48442 0.529413 0
M  V30 166 C 17.2061 1.63007 1.63394 0
M  V30 167 C 18.1761 0.47212 1.59249 0
M  V30 168 O 19.3611 0.695673 1.77666 0
M  V30 169 C 16.5011 1.6763 3.01653 0
M  V30 170 C 15.6141 2.94535 3.16027 0
M  V30 171 C 14.7491 2.90316 4.44849 0
M  V30 172 C 13.7881 4.11923 4.52754 0
M  V30 173 N 12.9251 4.05777 5.72965 0
M  V30 174 H 17.7651 2.5733 1.50285 0
M  V30 175 H 15.3021 1.27613 0.731656 0
M  V30 176 H 17.2601 1.68292 3.81751 0
M  V30 177 H 15.8901 0.76797 3.13532 0
M  V30 178 H 14.9421 3.03615 2.29177 0
M  V30 179 H 16.2541 3.84512 3.17729 0
M  V30 180 H 15.4081 2.89382 5.33238 0
M  V30 181 H 14.1471 1.98068 4.45668 0
M  V30 182 H 13.1521 4.13131 3.62771 0
M  V30 183 H 14.3771 5.0533 4.53672 0
M  V30 184 H 12.3231 3.16351 5.74681 0
M  V30 185 H 12.2401 4.8946 5.76164 0
M  V30 186 H 13.5081 4.08904 6.6364 0
M  V30 187 N 17.7372 -0.778329 1.37039 0
M  V30 188 C 18.6842 -1.89139 1.32269 0
M  V30 189 C 19.6542 -1.65017 0.189387 0
M  V30 190 O 20.8392 -1.87024 0.377693 0
M  V30 191 C 17.9792 -3.26112 1.12894 0
M  V30 192 C 17.0922 -3.62233 2.35396 0
M  V30 193 C 16.2272 -4.8838 2.08946 0
M  V30 194 C 15.2662 -5.17212 3.2735 0
M  V30 195 N 14.4032 -6.34546 3.00492 0
M  V30 196 H 19.2432 -1.92552 2.27437 0
M  V30 197 H 16.7802 -0.941473 1.13025 0
M  V30 198 H 18.7382 -4.05116 0.996835 0
M  V30 199 H 17.3682 -3.22091 0.213758 0
M  V30 200 H 16.4202 -2.78265 2.5937 0
M  V30 201 H 17.7322 -3.79481 3.23721 0
M  V30 202 H 16.8862 -5.75274 1.92729 0
M  V30 203 H 15.6252 -4.73222 1.17949 0
M  V30 204 H 14.6302 -4.28796 3.44113 0
M  V30 205 H 15.8552 -5.34283 4.19188 0
M  V30 206 H 13.8012 -6.20759 2.12118 0
M  V30 207 H 13.7182 -6.52179 3.82358 0
M  V30 208 H 14.9862 -7.24394 2.87879 0
M  V30 209 N 19.2153 -1.21501 -1.00376 0
M  V30 210 C 20.1633 -0.972442 -2.11297 0
M  V30 211 C 21.1573 0.080731 -1.69208 0
M  V30 212 O 22.3633 -0.0707666 -1.79861 0
M  V30 213 H 18.7383 -0.297218 -0.690772 0
M  V30 214 H 20.7093 -1.91394 -2.28934 0
M  V30 215 C 19.4583 -0.555065 -3.43241 0
M  V30 216 H 18.7813 -1.35709 -3.76062 0
M  V30 217 H 20.2213 -0.424664 -4.21868 0
M  V30 218 C 18.6803 0.734147 -3.28804 0
M  V30 219 O 19.2103 1.78937 -3.59645 0
M  V30 220 N 17.4163 0.701133 -2.82015 0
M  V30 221 H 16.9633 -0.157874 -2.57116 0
M  V30 222 H 16.9213 1.56403 -2.72737 0
M  V30 223 N 20.6934 1.19889 -1.02296 0
M  V30 224 C 21.6404 2.22901 -0.598651 0
M  V30 225 C 22.6104 1.61588 0.384521 0
M  V30 226 O 23.7954 1.88697 0.282522 0
M  V30 227 C 20.9354 3.45063 0.0504476 0
M  V30 228 C 20.0484 4.20783 -0.978053 0
M  V30 229 C 19.1834 5.30356 -0.299338 0
M  V30 230 C 18.2224 5.97826 -1.31416 0
M  V30 231 N 17.3594 6.98975 -0.661667 0
M  V30 232 H 22.1994 2.58554 -1.48169 0
M  V30 233 H 19.7364 1.27039 -0.741584 0
M  V30 234 H 21.6944 4.14831 0.443971 0
M  V30 235 H 20.3244 3.10084 0.897097 0
M  V30 236 H 19.3764 3.50018 -1.48969 0
M  V30 237 H 20.6884 4.67109 -1.74958 0
M  V30 238 H 19.8424 6.06516 0.149347 0
M  V30 239 H 18.5814 4.85084 0.504445 0
M  V30 240 H 17.5864 5.20422 -1.77317 0
M  V30 241 H 18.8114 6.45183 -2.11933 0
M  V30 242 H 16.7574 6.55886 0.122132 0
M  V30 243 H 16.6744 7.43461 -1.37117 0
M  V30 244 H 17.9424 7.7914 -0.236785 0
M  V30 245 N 22.1715 0.800033 1.35784 0
M  V30 246 C 23.4195 0.376597 1.9856 0
M  V30 247 C 23.7405 -1.05812 1.63795 0
M  V30 248 O 23.0105 -1.73103 0.917171 0
M  V30 249 H 21.5905 0.136261 0.734467 0
M  V30 250 H 24.2525 1.02442 1.65806 0
M  V30 251 H 23.3485 0.477002 3.08433 0
M  V30 252 N 23.6496 -1.47581 0.552962 0
M  V30 253 C 24.5966 -2.29957 -0.197108 0
M  V30 254 C 25.5666 -1.38799 -0.912359 0
M  V30 255 O 26.7516 -1.67761 -0.908888 0
M  V30 256 C 23.8916 -3.22672 -1.22379 0
M  V30 257 C 23.0046 -4.28919 -0.515038 0
M  V30 258 C 22.1396 -5.0879 -1.52664 0
M  V30 259 C 21.1786 -6.06815 -0.802631 0
M  V30 260 N 20.3156 -6.7966 -1.76086 0
M  V30 261 H 25.1556 -2.93578 0.511486 0
M  V30 262 H 22.6926 -1.4471 0.264067 0
M  V30 263 H 24.6506 -3.74845 -1.83159 0
M  V30 264 H 23.2806 -2.60925 -1.90047 0
M  V30 265 H 22.3326 -3.79835 0.207192 0
M  V30 266 H 23.6446 -4.98773 0.0523425 0
M  V30 267 H 22.7986 -5.65091 -2.20809 0
M  V30 268 H 21.5376 -4.38828 -2.12794 0
M  V30 269 H 20.5426 -5.49695 -0.107238 0
M  V30 270 H 21.7676 -6.78784 -0.207135 0
M  V30 271 H 19.7136 -6.12432 -2.35081 0
M  V30 272 H 19.6306 -7.45669 -1.24552 0
M  V30 273 H 20.8986 -7.40538 -2.43359 0
M  V30 274 N 25.1277 -0.289203 -1.54924 0
M  V30 275 C 26.0377 0.601863 -2.26748 0
M  V30 276 C 27.0537 1.15834 -1.2984 0
M  V30 277 O 28.2297 1.18564 -1.62802 0
M  V30 278 C 25.2947 1.76299 -2.98529 0
M  V30 279 C 24.3557 1.24178 -4.10948 0
M  V30 280 C 23.5887 2.34757 -4.79296 0
M  V30 281 O 23.8117 3.54411 -4.46933 0
M  V30 282 O 22.7457 2.02115 -5.66951 0
M  V30 283 H 26.5717 0.0195879 -3.03694 0
M  V30 284 H 24.1567 -0.0560868 -1.49295 0
M  V30 285 H 26.0387 2.43973 -3.43592 0
M  V30 286 H 24.7137 2.33209 -2.24488 0
M  V30 287 H 23.6207 0.531104 -3.70311 0
M  V30 288 H 24.9537 0.718252 -4.86931 0
M  V30 289 N 26.6058 1.57591 -0.0167156 0
M  V30 290 C 28.0218 1.55946 0.339557 0
M  V30 291 C 28.2218 1.02109 1.73713 0
M  V30 292 O 27.2778 0.662303 2.43659 0
M  V30 293 C 28.5908 3.00037 0.199499 0
M  V30 294 C 30.1388 3.11805 0.273193 0
M  V30 295 C 30.6138 4.57713 0.162068 0
M  V30 296 N 32.1048 4.6268 0.219444 0
M  V30 297 C 32.8398 5.73185 0.157054 0
M  V30 298 N 32.3358 6.92786 0.0442936 0
M  V30 299 N 34.1288 5.61707 0.21014 0
M  V30 300 H 26.2798 1.90921 -0.930758 0
M  V30 301 H 28.5428 0.877674 -0.358319 0
M  V30 302 H 28.2488 3.4333 -0.76273 0
M  V30 303 H 28.1228 3.64387 0.974786 0
M  V30 304 H 30.5098 2.68433 1.22587 0
M  V30 305 H 30.5908 2.50201 -0.532256 0
M  V30 306 H 30.2348 5.01763 -0.78714 0
M  V30 307 H 30.1648 5.17283 0.986222 0
M  V30 308 H 32.6558 3.76649 0.307246 0
M  V30 309 H 32.9688 7.728 0.00304069 0
M  V30 310 H 31.3138 6.94999 0.00968457 0
M  V30 311 H 34.5048 4.6716 0.296546 0
M  V30 312 H 34.6778 6.47807 0.158054 0
M  V30 313 N 28.0839 -0.256276 1.55502 0
M  V30 314 C 29.4999 -0.604325 1.47716 0
M  V30 315 C 29.6999 -1.88763 0.705039 0
M  V30 316 O 28.7559 -2.51445 0.230613 0
M  V30 317 C 30.0689 -0.715756 2.92057 0
M  V30 318 C 31.6169 -0.808706 3.02372 0
M  V30 319 C 32.0919 -0.951777 4.48001 0
M  V30 320 N 33.5829 -1.01688 4.519 0
M  V30 321 C 34.3179 -1.14668 5.61817 0
M  V30 322 N 33.8139 -1.24261 6.81565 0
M  V30 323 N 35.6069 -1.1791 5.49594 0
M  V30 324 H 27.7579 0.586291 2.04148 0
M  V30 325 H 30.0209 0.201015 0.926443 0
M  V30 326 H 29.7269 0.157027 3.51349 0
M  V30 327 H 29.6009 -1.59071 3.42018 0
M  V30 328 H 31.9879 -1.67195 2.43166 0
M  V30 329 H 32.0689 0.0912063 2.55637 0
M  V30 330 H 31.7129 -0.0931291 5.07815 0
M  V30 331 H 31.6429 -1.86659 4.92408 0
M  V30 332 H 34.1339 -0.954468 3.65648 0
M  V30 333 H 34.4469 -1.34046 7.61086 0
M  V30 334 H 32.7919 -1.21236 6.84344 0
M  V30 335 H 35.9829 -1.10057 4.54978 0
M  V30 336 H 36.1559 -1.27681 6.35296 0
M  V30 337 N 29.562 -1.4872 -0.521534 0
M  V30 338 C 30.839 -1.4766 -1.2828 0
M  V30 339 C 31.219 -0.19292 -2.10217 0
M  V30 340 O 30.567 0.825193 -2.13079 0
M  V30 341 C 30.777 -2.74358 -2.15705 0
M  V30 342 C 32.125 -3.23028 -2.75569 0
M  V30 343 O 33.149 -2.75333 -2.25987 0
M  V30 344 O 32.008 -4.0604 -3.65778 0
M  V30 345 H 29.102 -0.590085 -0.579421 0
M  V30 346 H 31.648 -1.60963 -0.537492 0
M  V30 347 H 30.42 -3.59292 -1.54999 0
M  V30 348 H 30.043 -2.63816 -2.97467 0
M  V30 349 N 31.0401 0.771051 -1.3745 0
M  V30 350 C 31.9701 1.89827 -1.3597 0
M  V30 351 C 32.9511 1.68562 -0.228216 0
M  V30 352 O 34.1361 1.8941 -0.428675 0
M  V30 353 C 31.2661 3.2712 -1.16662 0
M  V30 354 C 30.2201 3.6295 -2.2683 0
M  V30 355 C 29.5461 4.98791 -1.92644 0
M  V30 356 C 30.8461 3.69627 -3.69017 0
M  V30 357 H 32.5401 1.91323 -2.30295 0
M  V30 358 H 30.0861 0.919082 -1.10855 0
M  V30 359 H 32.0391 4.05615 -1.14256 0
M  V30 360 H 30.7631 3.26059 -0.187926 0
M  V30 361 H 29.4221 2.86763 -2.28392 0
M  V30 362 H 29.0701 4.94271 -0.933021 0
M  V30 363 H 28.7701 5.23733 -2.66416 0
M  V30 364 H 30.2941 5.79685 -1.91826 0
M  V30 365 H 31.7081 4.38273 -3.69581 0
M  V30 366 H 30.1051 4.06067 -4.41848 0
M  V30 367 H 31.1751 2.70273 -4.02592 0
M  V30 368 N 32.5182 1.22032 0.997298 0
M  V30 369 C 33.7952 0.950823 1.70935 0
M  V30 370 C 34.1752 -0.535292 2.042 0
M  V30 371 O 33.5232 -1.50217 1.72183 0
M  V30 372 C 33.7332 1.84386 2.96315 0
M  V30 373 C 35.0812 2.09732 3.69185 0
M  V30 374 O 36.1052 1.81798 3.06314 0
M  V30 375 O 34.9642 2.57018 4.82291 0
M  V30 376 H 32.0582 0.357204 0.745878 0
M  V30 377 H 34.6042 1.32997 1.05404 0
M  V30 378 H 33.3762 2.84928 2.68201 0
M  V30 379 H 32.9992 1.46602 3.69586 0
M  V30 380 N 33.9963 -1.19345 1.0293 0
M  V30 381 C 35.2733 -1.84811 0.640642 0
M  V30 382 C 35.6533 -1.91855 -0.88062 0
M  V30 383 O 35.0013 -1.43587 -1.7775 0
M  V30 384 C 35.2113 -3.23755 1.30321 0
M  V30 385 C 36.5593 -3.99912 1.42673 0
M  V30 386 O 37.5833 -3.33155 1.26041 0
M  V30 387 O 36.4423 -5.19494 1.6967 0
M  V30 388 H 33.5363 -0.796443 0.222726 0
M  V30 389 H 36.0823 -1.26831 1.12748 0
M  V30 390 H 34.8543 -3.13466 2.34211 0
M  V30 391 H 34.4773 -3.89381 0.804261 0
M  V30 392 N 35.4744 -0.807222 -1.35358 0
M  V30 393 C 36.4044 -0.232509 -2.3234 0
M  V30 394 C 37.3854 0.642386 -1.57504 0
M  V30 395 O 38.5704 0.572526 -1.85569 0
M  V30 396 C 35.7004 0.619238 -3.41735 0
M  V30 397 C 34.6544 -0.157215 -4.27711 0
M  V30 398 C 33.9804 0.816273 -5.28433 0
M  V30 399 C 35.2804 -1.35656 -5.04376 0
M  V30 400 H 36.9744 -1.04276 -2.80654 0
M  V30 401 H 34.5204 -0.50288 -1.34934 0
M  V30 402 H 36.4734 1.03137 -4.08584 0
M  V30 403 H 35.1974 1.46239 -2.92031 0
M  V30 404 H 33.8564 -0.550525 -3.62443 0
M  V30 405 H 33.5044 1.65494 -4.74996 0
M  V30 406 H 33.2044 0.301067 -5.86828 0
M  V30 407 H 34.7284 1.22659 -5.98153 0
M  V30 408 H 36.1424 -1.01927 -5.64166 0
M  V30 409 H 34.5394 -1.8063 -5.7227 0
M  V30 410 H 35.6094 -2.14288 -4.34981 0
M  V30 411 N 36.9525 1.47285 -0.560781 0
M  V30 412 C 37.8995 2.30058 0.18491 0
M  V30 413 C 38.8695 1.39281 0.904986 0
M  V30 414 O 40.0545 1.68241 0.899979 0
M  V30 415 C 37.1945 3.23317 1.20666 0
M  V30 416 C 36.3075 4.29186 0.492285 0
M  V30 417 C 35.4425 5.09592 1.49964 0
M  V30 418 C 34.4815 6.07232 0.770439 0
M  V30 419 N 33.6185 6.80584 1.72479 0
M  V30 420 H 38.4585 2.93302 -0.527048 0
M  V30 421 H 35.9955 1.44568 -0.271738 0
M  V30 422 H 37.9535 3.75811 1.81168 0
M  V30 423 H 36.5835 2.61929 1.88661 0
M  V30 424 H 35.6355 3.7972 -0.227333 0
M  V30 425 H 36.9475 4.98738 -0.0787929 0
M  V30 426 H 36.1015 5.66254 2.17809 0
M  V30 427 H 34.8405 4.3995 2.10464 0
M  V30 428 H 33.8455 5.49745 0.0780846 0
M  V30 429 H 35.0705 6.78884 0.171134 0
M  V30 430 H 33.0165 6.1367 2.3183 0
M  V30 431 H 32.9335 7.46319 1.20596 0
M  V30 432 H 34.2015 7.41818 2.39428 0
M  V30 433 N 38.4306 0.297415 1.54768 0
M  V30 434 C 39.3776 -0.580276 2.23386 0
M  V30 435 C 40.3476 -1.13238 1.21517 0
M  V30 436 O 41.5326 -1.17757 1.50126 0
M  V30 437 C 38.6726 -1.74801 2.97555 0
M  V30 438 C 37.7856 -1.22764 4.1419 0
M  V30 439 C 36.9206 -2.35895 4.75949 0
M  V30 440 C 35.9596 -1.80974 5.84735 0
M  V30 441 N 35.0966 -2.87664 6.40464 0
M  V30 442 H 39.9366 0.0114833 2.97998 0
M  V30 443 H 37.4736 0.0174361 1.4709 0
M  V30 444 H 39.4316 -2.43475 3.38786 0
M  V30 445 H 38.0616 -2.31145 2.25326 0
M  V30 446 H 37.1136 -0.433271 3.77924 0
M  V30 447 H 38.4256 -0.785551 4.92575 0
M  V30 448 H 37.5796 -3.12523 5.20014 0
M  V30 449 H 36.3186 -2.83429 3.96887 0
M  V30 450 H 35.3236 -1.02834 5.40097 0
M  V30 451 H 36.5486 -1.34348 6.65678 0
M  V30 452 H 34.4946 -3.34538 5.64287 0
M  V30 453 H 34.4116 -2.4794 7.14186 0
M  V30 454 H 35.6796 -3.642 6.89187 0
M  V30 455 N 39.9087 -1.5758 0.0250728 0
M  V30 456 C 40.8187 -2.1343 -0.973905 0
M  V30 457 C 41.8347 -1.08556 -1.35984 0
M  V30 458 O 43.0107 -1.40592 -1.44207 0
M  V30 459 C 40.0757 -2.64703 -2.23904 0
M  V30 460 C 39.1367 -3.84276 -1.91391 0
M  V30 461 C 38.3697 -4.33095 -3.11873 0
M  V30 462 O 38.5927 -3.81107 -4.24398 0
M  V30 463 O 37.5267 -5.24984 -2.94406 0
M  V30 464 H 41.3527 -2.99057 -0.529036 0
M  V30 465 H 38.9377 -1.48118 -0.195288 0
M  V30 466 H 40.8197 -2.97769 -2.98181 0
M  V30 467 H 39.4947 -1.82161 -2.6758 0
M  V30 468 H 38.4017 -3.56143 -1.14511 0
M  V30 469 H 39.7347 -4.67968 -1.52534 0
M  V30 470 N 41.3868 0.248026 -1.55636 0
M  V30 471 C 42.6328 0.97767 -1.77678 0
M  V30 472 C 42.9658 1.85016 -0.590135 0
M  V30 473 O 42.2408 1.90095 0.411611 0
M  V30 474 C 42.5238 1.83914 -3.09593 0
M  V30 475 C 42.3768 0.99491 -4.38659 0
M  V30 476 C 43.6958 2.82183 -3.37729 0
M  V30 477 H 40.8148 0.354005 -0.646413 0
M  V30 478 H 43.4568 0.248253 -1.88371 0
M  V30 479 H 41.6068 2.46104 -3.00608 0
M  V30 480 H 43.2788 0.391789 -4.59633 0
M  V30 481 H 41.5218 0.299231 -4.32767 0
M  V30 482 H 42.1928 1.63145 -5.2734 0
M  V30 483 H 44.6688 2.30129 -3.4667 0
M  V30 484 H 43.5448 3.39582 -4.31249 0
M  V30 485 H 43.8058 3.58588 -2.58586 0
M  V30 486 N 42.8649 1.48995 0.513639 0
M  V30 487 C 43.8279 1.64229 1.59879 0
M  V30 488 C 44.8279 0.514696 1.5234 0
M  V30 489 O 46.0179 0.78087 1.55718 0
M  V30 490 C 43.1499 1.62783 2.99524 0
M  V30 491 H 44.3429 2.61004 1.47705 0
M  V30 492 H 41.8959 1.37837 0.736936 0
M  V30 493 H 42.6309 0.675461 3.17188 0
M  V30 494 H 42.4159 2.4466 3.06404 0
M  V30 495 H 43.9059 1.76669 3.78388 0
M  V30 496 N 44.343 -0.763751 1.37857 0
M  V30 497 C 45.276 -1.88486 1.28639 0
M  V30 498 C 46.254 -1.61757 0.165363 0
M  V30 499 O 47.438 -1.85391 0.340948 0
M  V30 500 C 44.565 -3.23884 0.990811 0
M  V30 501 C 43.611 -3.69514 2.12983 0
M  V30 502 S 44.444 -3.82244 3.75033 0
M  V30 503 C 45.6 -5.20477 3.47641 0
M  V30 504 H 45.833 -1.96017 2.23527 0
M  V30 505 H 43.366 -0.925684 1.23574 0
M  V30 506 H 45.324 -4.02081 0.827101 0
M  V30 507 H 43.985 -3.14044 0.0592832 0
M  V30 508 H 43.178 -4.67696 1.87821 0
M  V30 509 H 42.78 -2.98441 2.25408 0
M  V30 510 H 45.072 -6.05905 3.03125 0
M  V30 511 H 46.015 -5.50655 4.4518 0
M  V30 512 H 46.423 -4.88793 2.82385 0
M  V30 513 N 45.8211 -1.22559 -0.990812 0
M  V30 514 C 47.0491 -1.07779 -1.76611 0
M  V30 515 C 47.4641 0.371513 -1.85109 0
M  V30 516 O 46.8211 1.25737 -1.32274 0
M  V30 517 C 46.8721 -1.68512 -3.19822 0
M  V30 518 O 46.5931 -3.07774 -3.1178 0
M  V30 519 C 48.0941 -1.59035 -4.13791 0
M  V30 520 H 45.3141 -0.377729 -0.554583 0
M  V30 521 H 47.8581 -1.62195 -1.24551 0
M  V30 522 H 46.0131 -1.18154 -3.68942 0
M  V30 523 H 46.4271 -3.37062 -4.01858 0
M  V30 524 H 47.9011 -2.0625 -5.1202 0
M  V30 525 H 48.3781 -0.547273 -4.35777 0
M  V30 526 H 48.9841 -2.08709 -3.70568 0
M  V30 527 N 47.2992 1.18797 -1.03562 0
M  V30 528 C 48.2092 2.25913 -0.632505 0
M  V30 529 C 49.2252 1.70668 0.338882 0
M  V30 530 O 50.4012 2.00453 0.195076 0
M  V30 531 C 47.4662 3.467 0.00350942 0
M  V30 532 C 46.5272 4.17098 -1.01624 0
M  V30 533 C 45.7602 5.32119 -0.410478 0
M  V30 534 O 45.9832 5.64976 0.784725 0
M  V30 535 O 44.9172 5.9107 -1.13667 0
M  V30 536 H 48.7432 2.62648 -1.52478 0
M  V30 537 H 46.3282 1.25781 -0.806195 0
M  V30 538 H 48.2102 4.19878 0.35781 0
M  V30 539 H 46.8852 3.11798 0.869686 0
M  V30 540 H 45.7922 3.4601 -1.42224 0
M  V30 541 H 47.1252 4.55987 -1.85301 0
M  V30 542 N 48.7773 0.814389 1.34928 0
M  V30 543 C 49.7273 0.202752 2.27097 0
M  V30 544 C 50.7113 -0.62799 1.48139 0
M  V30 545 O 51.9033 -0.483969 1.70255 0
M  V30 546 C 49.0323 -0.64146 3.37254 0
M  V30 547 C 48.1183 0.19944 4.23631 0
M  V30 548 N 48.5093 1.26628 4.89693 0
M  V30 549 C 46.8073 -0.0176433 4.45997 0
M  V30 550 C 47.5083 1.78031 5.53787 0
M  V30 551 N 46.4843 1.08553 5.32651 0
M  V30 552 H 50.2863 1.01893 2.75672 0
M  V30 553 H 47.8003 0.656332 1.48546 0
M  V30 554 H 49.7973 -1.09575 4.02243 0
M  V30 555 H 48.4573 -1.4559 2.9023 0
M  V30 556 H 49.4683 1.64901 4.90946 0
M  V30 557 H 46.1453 -0.800601 4.09752 0
M  V30 558 H 47.5353 2.67236 6.16469 0
M  V30 559 N 50.2554 -1.46986 0.568584 0
M  V30 560 C 51.2024 -2.30153 -0.172707 0
M  V30 561 C 52.1724 -1.39759 -0.897586 0
M  V30 562 O 53.3574 -1.68716 -0.891044 0
M  V30 563 C 50.4974 -3.23952 -1.1895 0
M  V30 564 C 49.6104 -4.29441 -0.469517 0
M  V30 565 C 48.7454 -5.1038 -1.47259 0
M  V30 566 C 47.7844 -6.07632 -0.738225 0
M  V30 567 N 46.9214 -6.8149 -1.68868 0
M  V30 568 H 51.7614 -2.93019 0.542596 0
M  V30 569 H 49.2984 -1.44422 0.279401 0
M  V30 570 H 51.2564 -3.76767 -1.79173 0
M  V30 571 H 49.8864 -2.62926 -1.87269 0
M  V30 572 H 48.9384 -3.79594 0.247467 0
M  V30 573 H 50.2504 -4.98689 0.105241 0
M  V30 574 H 49.4044 -5.67402 -2.14803 0
M  V30 575 H 48.1434 -4.4106 -2.08128 0
M  V30 576 H 47.1484 -5.49778 -0.0489293 0
M  V30 577 H 48.3734 -6.78966 -0.135129 0
M  V30 578 H 46.3194 -6.14891 -2.28573 0
M  V30 579 H 46.2364 -7.46948 -1.16636 0
M  V30 580 H 47.5044 -7.43078 -2.3549 0
M  V30 581 N 51.7335 -0.305618 -1.54608 0
M  V30 582 C 52.6665 0.610536 -2.19881 0
M  V30 583 C 53.6445 1.1294 -1.16976 0
M  V30 584 O 54.8285 1.19673 -1.45638 0
M  V30 585 C 51.9555 1.83583 -2.84631 0
M  V30 586 C 51.0015 1.4498 -4.01102 0
M  V30 587 S 51.8345 0.501793 -5.33144 0
M  V30 588 C 52.9905 1.73478 -6.01379 0
M  V30 589 H 53.2235 0.0560177 -2.97247 0
M  V30 590 H 50.7565 -0.0897434 -1.54139 0
M  V30 591 H 52.7145 2.53898 -3.22562 0
M  V30 592 H 51.3755 2.36152 -2.07102 0
M  V30 593 H 50.5685 2.36236 -4.45206 0
M  V30 594 H 50.1705 0.826553 -3.64752 0
M  V30 595 H 52.4625 2.67473 -6.22467 0
M  V30 596 H 53.4055 1.33622 -6.95378 0
M  V30 597 H 53.8135 1.9136 -5.31076 0
M  V30 598 N 53.2116 1.57565 -0.0334293 0
M  V30 599 C 54.4366 1.96689 0.657895 0
M  V30 600 C 54.8616 0.910057 1.64619 0
M  V30 601 O 54.2196 -0.128598 1.80843 0
M  V30 602 C 54.2676 3.34905 1.33683 0
M  V30 603 O 53.3716 3.31574 2.45219 0
M  V30 604 H 52.7126 0.641205 0.172489 0
M  V30 605 H 55.2426 2.04372 -0.0965621 0
M  V30 606 H 55.2526 3.71234 1.69262 0
M  V30 607 H 53.9276 4.11366 0.612411 0
M  V30 608 H 52.5046 3.06968 2.11719 0
M  V30 609 N 54.6897 -0.239769 1.55765 0
M  V30 610 C 55.9357 -0.968234 1.78194 0
M  V30 611 C 56.2687 -1.84701 0.599938 0
M  V30 612 O 55.5437 -1.9031 -0.401524 0
M  V30 613 C 55.8267 -1.8227 3.10564 0
M  V30 614 C 55.6797 -0.971633 4.3918 0
M  V30 615 C 56.9987 -2.80388 3.39221 0
M  V30 616 H 54.1177 -0.350572 0.648281 0
M  V30 617 H 56.7597 -0.238259 1.885 0
M  V30 618 H 54.9097 -2.44507 3.01908 0
M  V30 619 H 56.5817 -0.367408 4.59835 0
M  V30 620 H 54.8247 -0.276276 4.32919 0
M  V30 621 H 55.4957 -1.60346 5.28198 0
M  V30 622 H 57.9717 -2.28287 3.47885 0
M  V30 623 H 56.8477 -3.3729 4.33044 0
M  V30 624 H 57.1087 -3.57212 2.60484 0
M  V30 625 N 56.1678 -1.49265 -0.50573 0
M  V30 626 C 57.0778 -1.68312 -1.63427 0
M  V30 627 C 58.0938 -0.565682 -1.64548 0
M  V30 628 O 59.2698 -0.839801 -1.83055 0
M  V30 629 C 56.3348 -1.74107 -2.99813 0
M  V30 630 C 55.3958 -2.97653 -3.09356 0
M  V30 631 C 54.6288 -3.03163 -4.39236 0
M  V30 632 O 54.8518 -2.16396 -5.27758 0
M  V30 633 O 53.7858 -3.9558 -4.53652 0
M  V30 634 H 57.6118 -2.63907 -1.50289 0
M  V30 635 H 55.1968 -1.32951 -0.681502 0
M  V30 636 H 57.0788 -1.803 -3.80881 0
M  V30 637 H 55.7538 -0.816901 -3.13223 0
M  V30 638 H 54.6608 -2.96981 -2.27493 0
M  V30 639 H 55.9938 -3.89535 -3.00871 0
M  V30 640 N 57.6459 0.756429 -1.3826 0
M  V30 641 C 58.5559 1.9009 -1.37488 0
M  V30 642 C 59.5719 1.71855 -0.272366 0
M  V30 643 O 60.7479 1.94827 -0.510318 0
M  V30 644 C 57.8129 3.25421 -1.19592 0
M  V30 645 C 56.8739 3.56202 -2.39622 0
M  V30 646 C 56.1069 4.85075 -2.2257 0
M  V30 647 O 56.3299 5.57246 -1.21793 0
M  V30 648 O 55.2639 5.15269 -3.11098 0
M  V30 649 H 59.0899 1.93695 -2.33914 0
M  V30 650 H 56.6749 0.901313 -1.1915 0
M  V30 651 H 58.5569 4.06337 -1.11661 0
M  V30 652 H 57.2319 3.22634 -0.262486 0
M  V30 653 H 56.1389 2.75458 -2.53128 0
M  V30 654 H 57.4719 3.63747 -3.31586 0
M  V30 655 N 59.124 1.23083 0.984299 0
M  V30 656 C 60.37 1.06214 1.72761 0
M  V30 657 C 60.703 -0.400584 1.90024 0
M  V30 658 O 59.978 -1.29672 1.44967 0
M  V30 659 C 60.261 1.78375 3.12817 0
M  V30 660 C 60.114 3.32296 3.03149 0
M  V30 661 C 61.433 1.54309 4.12161 0
M  V30 662 H 58.552 0.387251 0.627061 0
M  V30 663 H 61.194 1.51536 1.14616 0
M  V30 664 H 59.344 1.39848 3.62457 0
M  V30 665 H 61.016 3.8032 2.61064 0
M  V30 666 H 59.259 3.6153 2.39747 0
M  V30 667 H 59.93 3.77972 4.02295 0
M  V30 668 H 62.406 1.87791 3.71314 0
M  V30 669 H 61.282 2.07281 5.08258 0
M  V30 670 H 61.543 0.477572 4.39513 0
M  V30 671 N 60.6021 -1.18246 1.0419 0
M  V30 672 C 61.8421 -1.89948 0.754916 0
M  V30 673 C 62.2061 -1.78608 -0.70451 0
M  V30 674 O 63.4071 -2.4503 -1.10516 0
M  V30 675 C 61.6781 -3.36305 1.20969 0
M  V30 676 S 63.2371 -4.26088 1.04854 0
M  V30 677 H 60.0551 -0.655897 0.274446 0
M  V30 678 H 62.6571 -1.42873 1.33445 0
M  V30 679 H 61.3611 -3.42089 2.26722 0
M  V30 680 H 60.8921 -3.8842 0.624004 0
M  V30 681 H 62.9071 -4.96189 -0.0332896 0
M  V30 682 N 62.0802 -0.821533 -1.34494 0
M  V30 683 C 63.4962 -0.507117 -1.51329 0
M  V30 684 C 63.6962 0.968964 -1.76673 0
M  V30 685 O 62.7522 1.75348 -1.81685 0
M  V30 686 C 64.0652 -1.36544 -2.67911 0
M  V30 687 C 65.6132 -1.36242 -2.81793 0
M  V30 688 C 66.0882 -2.2052 -4.01416 0
M  V30 689 N 67.5792 -2.18136 -4.08621 0
M  V30 690 C 68.3142 -2.80095 -5.00334 0
M  V30 691 N 67.8102 -3.51039 -5.9728 0
M  V30 692 N 69.6032 -2.69656 -4.93196 0
M  V30 693 H 61.7542 -1.77729 -1.16302 0
M  V30 694 H 64.0172 -0.757291 -0.570276 0
M  V30 695 H 63.7232 -2.41361 -2.55808 0
M  V30 696 H 63.5972 -1.02917 -3.62888 0
M  V30 697 H 65.9842 -0.322041 -2.93338 0
M  V30 698 H 66.0652 -1.73866 -1.87628 0
M  V30 699 H 65.7092 -3.24607 -3.90631 0
M  V30 700 H 65.6392 -1.80247 -4.94791 0
M  V30 701 H 68.1302 -1.6653 -3.39229 0
M  V30 702 H 68.4432 -3.95565 -6.63889 0
M  V30 703 H 66.7882 -3.55145 -5.97409 0
M  V30 704 H 69.9792 -2.13808 -4.16418 0
M  V30 705 H 70.1522 -3.1823 -5.64476 0
M  V30 706 N 63.5583 1.46682 -0.576371 0
M  V30 707 C 64.5053 2.30241 0.160499 0
M  V30 708 C 65.4753 1.40233 0.890162 0
M  V30 709 O 66.6603 1.69186 0.882084 0
M  V30 710 C 63.8003 3.24578 1.1723 0
M  V30 711 C 62.9133 4.29684 0.446736 0
M  V30 712 C 62.0483 5.11154 1.44551 0
M  V30 713 C 61.0873 6.08015 0.70599 0
M  V30 714 N 60.2243 6.82376 1.65251 0
M  V30 715 H 65.0643 2.92727 -0.558127 0
M  V30 716 H 62.6013 1.44272 -0.287056 0
M  V30 717 H 64.5593 3.77711 1.77172 0
M  V30 718 H 63.1893 2.63916 1.85872 0
M  V30 719 H 62.2413 3.79458 -0.267594 0
M  V30 720 H 63.5533 4.98626 -0.131686 0
M  V30 721 H 62.7073 5.68533 2.11791 0
M  V30 722 H 61.4463 4.42158 2.05786 0
M  V30 723 H 60.4513 5.49796 0.0197725 0
M  V30 724 H 61.6763 6.79028 0.09912 0
M  V30 725 H 59.6223 6.16094 2.25308 0
M  V30 726 H 59.5393 7.47556 1.12673 0
M  V30 727 H 60.8073 7.44316 2.31546 0
M  V30 728 N 65.0364 0.313813 1.54444 0
M  V30 729 C 66.2664 -0.293491 2.04505 0
M  V30 730 C 66.6744 -1.47086 1.19005 0
M  V30 731 O 66.0174 -1.82481 0.211257 0
M  V30 732 C 66.0794 -0.800455 3.50475 0
M  V30 733 C 65.7434 0.253322 4.56297 0
M  V30 734 C 66.7404 1.08612 5.08428 0
M  V30 735 C 64.4254 0.398708 5.00715 0
M  V30 736 C 66.4194 2.05013 6.0353 0
M  V30 737 C 64.1064 1.36614 5.95634 0
M  V30 738 C 65.1044 2.19033 6.46926 0
M  V30 739 O 64.7924 3.14134 7.39983 0
M  V30 740 H 64.5244 -0.0658325 0.672787 0
M  V30 741 H 67.0784 0.455177 2.00293 0
M  V30 742 H 65.3084 -1.59987 3.52053 0
M  V30 743 H 66.9974 -1.32504 3.83663 0
M  V30 744 H 67.7634 0.984736 4.74898 0
M  V30 745 H 63.6424 -0.23289 4.60411 0
M  V30 746 H 67.1864 2.69382 6.4349 0
M  V30 747 H 63.0834 1.4682 6.28581 0
M  V30 748 H 63.8514 3.0926 7.57826 0
M  V30 749 N 66.5145 -1.57545 0.0417849 0
M  V30 750 C 67.4625 -2.12148 -0.953723 0
M  V30 751 C 68.4565 -1.05104 -1.32852 0
M  V30 752 O 69.6625 -1.23524 -1.30927 0
M  V30 753 H 66.0375 -0.677957 -0.325389 0
M  V30 754 H 68.0085 -2.94707 -0.467991 0
M  V30 755 C 66.7575 -2.6739 -2.22257 0
M  V30 756 H 66.0805 -3.49413 -1.94295 0
M  V30 757 H 67.5205 -3.09227 -2.90094 0
M  V30 758 C 65.9795 -1.60723 -2.96091 0
M  V30 759 O 66.5095 -1.01449 -3.88679 0
M  V30 760 N 64.7155 -1.32466 -2.58652 0
M  V30 761 H 64.2625 -1.80856 -1.83437 0
M  V30 762 H 64.2205 -0.61325 -3.08361 0
M  V30 763 N 67.9926 0.231505 -1.5589 0
M  V30 764 C 69.2206 0.974505 -1.82513 0
M  V30 765 C 69.6356 1.78344 -0.619591 0
M  V30 766 O 68.9926 1.77792 0.411848 0
M  V30 767 C 69.0436 1.90007 -3.07538 0
M  V30 768 O 68.7646 1.12385 -4.2344 0
M  V30 769 C 70.2656 2.75779 -3.47075 0
M  V30 770 H 67.4856 0.286065 -0.606966 0
M  V30 771 H 70.0296 0.249739 -2.02969 0
M  V30 772 H 68.1846 2.57891 -2.89086 0
M  V30 773 H 68.5986 1.75125 -4.944 0
M  V30 774 H 70.0726 3.36443 -4.37619 0
M  V30 775 H 70.5496 3.47672 -2.68367 0
M  V30 776 H 71.1556 2.13323 -3.67931 0
M  V30 777 N 69.4707 1.49531 0.497807 0
M  V30 778 C 70.7477 1.49682 1.25915 0
M  V30 779 C 71.1277 0.226339 2.09883 0
M  V30 780 O 70.4757 -0.791189 2.14365 0
M  V30 781 C 70.6857 2.77755 2.11313 0
M  V30 782 C 72.0337 3.27371 2.70395 0
M  V30 783 O 73.0577 2.78894 2.21578 0
M  V30 784 O 71.9167 4.11808 3.59272 0
M  V30 785 H 69.0107 0.599228 0.56996 0
M  V30 786 H 71.5567 1.61798 0.511816 0
M  V30 787 H 70.3287 3.61713 1.49264 0
M  V30 788 H 69.9517 2.68515 2.93233 0
M  V30 789 N 70.9488 -0.749086 1.3866 0
M  V30 790 C 72.1888 -1.52112 1.36534 0
M  V30 791 C 72.5528 -1.91951 -0.0432316 0
M  V30 792 O 73.7538 -2.68132 -0.189396 0
M  V30 793 C 72.0248 -2.73704 2.29828 0
M  V30 794 S 73.5838 -3.63519 2.45763 0
M  V30 795 H 70.4018 -0.520482 0.484375 0
M  V30 796 H 73.0038 -0.878963 1.74627 0
M  V30 797 H 71.7078 -2.42552 3.31054 0
M  V30 798 H 71.2388 -3.4286 1.929 0
M  V30 799 H 73.2538 -4.66712 1.68505 0
M  V30 800 N 72.4269 -1.23603 -0.977757 0
M  V30 801 C 73.6729 -1.07129 -1.72195 0
M  V30 802 C 74.0059 0.390501 -1.90233 0
M  V30 803 O 73.2809 1.28902 -1.45653 0
M  V30 804 C 73.5639 -1.80031 -3.11867 0
M  V30 805 C 73.4169 -3.33899 -3.01383 0
M  V30 806 C 74.7359 -1.56492 -4.11337 0
M  V30 807 H 71.8549 -0.390571 -0.624999 0
M  V30 808 H 74.4969 -1.52142 -1.13811 0
M  V30 809 H 72.6469 -1.41768 -3.6171 0
M  V30 810 H 74.3189 -3.81699 -2.59043 0
M  V30 811 H 72.5619 -3.62796 -2.37827 0
M  V30 812 H 73.2329 -3.801 -4.00285 0
M  V30 813 H 75.7089 -1.89757 -3.70313 0
M  V30 814 H 74.5849 -2.09973 -5.07151 0
M  V30 815 H 74.8459 -0.500874 -4.39254 0
M  V30 816 N 73.905 1.17692 -1.04816 0
M  V30 817 C 74.837 2.21103 -0.603822 0
M  V30 818 C 75.85 1.59411 0.33046 0
M  V30 819 O 77.039 1.7807 0.12379 0
M  V30 820 C 74.139 3.38623 0.136898 0
M  V30 821 C 73.312 4.29888 -0.807137 0
M  V30 822 C 72.371 5.26088 -0.10836 0
M  V30 823 O 71.397 5.64353 -0.741232 0
M  V30 824 N 72.599 5.68882 1.15558 0
M  V30 825 H 75.364 2.59848 -1.49329 0
M  V30 826 H 72.925 1.32553 -0.929587 0
M  V30 827 H 74.917 4.00009 0.614401 0
M  V30 828 H 73.487 2.98508 0.927993 0
M  V30 829 H 72.707 3.65993 -1.46434 0
M  V30 830 H 73.995 4.87759 -1.44807 0
M  V30 831 H 73.393 5.39861 1.69015 0
M  V30 832 H 71.95 6.32429 1.57722 0
M  V30 833 N 75.3831 0.828654 1.34056 0
M  V30 834 C 76.6311 0.41863 1.97717 0
M  V30 835 C 76.9521 -1.02314 1.66002 0
M  V30 836 O 76.2221 -1.71119 0.953683 0
M  V30 837 H 74.8021 0.151809 0.731412 0
M  V30 838 H 77.4641 1.05936 1.63596 0
M  V30 839 H 76.5601 0.542318 3.07352 0
M  V30 840 N 76.8612 -1.46375 0.584142 0
M  V30 841 C 77.7912 -2.33103 -0.136037 0
M  V30 842 C 78.7722 -1.45431 -0.882255 0
M  V30 843 O 79.9572 -1.74246 -0.857434 0
M  V30 844 C 77.0872 -3.27731 -1.14933 0
M  V30 845 C 76.0412 -4.24855 -0.517862 0
M  V30 846 C 75.3672 -5.09001 -1.63773 0
M  V30 847 C 76.6672 -5.19439 0.545886 0
M  V30 848 H 78.3612 -2.93568 0.588086 0
M  V30 849 H 75.9072 -1.41166 0.284259 0
M  V30 850 H 77.8602 -3.87261 -1.66153 0
M  V30 851 H 76.5842 -2.65377 -1.90375 0
M  V30 852 H 75.2432 -3.6659 -0.0267361 0
M  V30 853 H 74.8912 -4.43031 -2.38185 0
M  V30 854 H 74.5912 -5.74777 -1.22085 0
M  V30 855 H 76.1152 -5.71396 -2.15266 0
M  V30 856 H 77.5292 -5.73177 0.118704 0
M  V30 857 H 75.9262 -5.93566 0.88317 0
M  V30 858 H 76.9962 -4.63285 1.43162 0
M  V30 859 N 78.3393 -0.321999 -1.54275 0
M  V30 860 C 79.5673 0.283052 -2.04955 0
M  V30 861 C 79.9823 1.45904 -1.19823 0
M  V30 862 O 79.3393 1.81063 -0.228545 0
M  V30 863 C 79.3903 0.719028 -3.54277 0
M  V30 864 O 79.1113 -0.410175 -4.36176 0
M  V30 865 C 80.6123 1.38705 -4.21041 0
M  V30 866 H 77.8323 0.0584616 -0.668448 0
M  V30 867 H 80.3763 -0.467734 -1.99079 0
M  V30 868 H 78.5313 1.41979 -3.60445 0
M  V30 869 H 78.9453 -0.0669416 -5.24457 0
M  V30 870 H 80.4193 1.64306 -5.2698 0
M  V30 871 H 80.8963 2.33385 -3.72059 0
M  V30 872 H 81.5023 0.728906 -4.19007 0
M  V30 873 N 79.8174 1.5752 -0.0501392 0
M  V30 874 C 80.7674 2.07981 0.934231 0
M  V30 875 C 81.7514 0.984745 1.27246 0
M  V30 876 O 82.9434 1.24809 1.25506 0
M  V30 877 C 80.0724 2.62751 2.20945 0
M  V30 878 C 79.1584 3.79225 1.89865 0
M  V30 879 N 79.5494 4.89036 1.29142 0
M  V30 880 C 77.8474 3.88111 2.19741 0
M  V30 881 C 78.5484 5.70084 1.15669 0
M  V30 882 N 77.5244 5.17659 1.65923 0
M  V30 883 H 81.3264 2.90277 0.460053 0
M  V30 884 H 78.8404 1.61665 0.15434 0
M  V30 885 H 80.8374 2.97205 2.9236 0
M  V30 886 H 79.4974 1.81894 2.6897 0
M  V30 887 H 80.5084 5.08854 0.963756 0
M  V30 888 H 77.1854 3.18194 2.70293 0
M  V30 889 H 78.5754 6.68395 0.685356 0
M  V30 890 N 81.2955 -0.223234 1.56011 0
M  V30 891 C 82.5205 -0.968978 1.83373 0
M  V30 892 C 82.9455 -1.77227 0.630254 0
M  V30 893 O 82.3035 -1.76345 -0.420959 0
M  V30 894 C 82.3515 -1.86363 3.08709 0
M  V30 895 O 81.4555 -2.95873 2.87285 0
M  V30 896 H 80.7965 -0.274461 0.604622 0
M  V30 897 H 83.3265 -0.237056 2.03222 0
M  V30 898 H 83.3365 -2.27376 3.38768 0
M  V30 899 H 82.0115 -1.27319 3.95933 0
M  V30 900 H 80.5885 -2.58818 2.68454 0
M  V30 901 N 82.7736 -1.49793 -0.48987 0
M  V30 902 C 83.7206 -1.67281 -1.59014 0
M  V30 903 C 84.6906 -0.514177 -1.57941 0
M  V30 904 O 85.8756 -0.742533 -1.75759 0
M  V30 905 C 83.0156 -1.75569 -2.97102 0
M  V30 906 C 82.1286 -3.0281 -3.08107 0
M  V30 907 C 81.2636 -3.02008 -4.36995 0
M  V30 908 C 80.3026 -4.23782 -4.41673 0
M  V30 909 N 79.4396 -4.20826 -5.62005 0
M  V30 910 H 84.2796 -2.61224 -1.43409 0
M  V30 911 H 81.8166 -1.29508 -0.697565 0
M  V30 912 H 83.7746 -1.78354 -3.77155 0
M  V30 913 H 82.4046 -0.850827 -3.11385 0
M  V30 914 H 81.4566 -3.09584 -2.21047 0
M  V30 915 H 82.7686 -3.92801 -3.07423 0
M  V30 916 H 81.9226 -3.03418 -5.25378 0
M  V30 917 H 80.6616 -2.09815 -4.4026 0
M  V30 918 H 79.6666 -4.22604 -3.5169 0
M  V30 919 H 80.8916 -5.17181 -4.40115 0
M  V30 920 H 78.8376 -3.31476 -5.66091 0
M  V30 921 H 78.7546 -5.04564 -5.62984 0
M  V30 922 H 80.0226 -4.26355 -6.52565 0
M  V30 923 N 84.2517 0.741722 -1.39055 0
M  V30 924 C 85.2147 1.83733 -1.37021 0
M  V30 925 C 86.2147 1.58542 -0.268534 0
M  V30 926 O 87.4047 1.66067 -0.526076 0
M  V30 927 C 84.5367 3.2141 -1.13617 0
M  V30 928 H 85.7297 1.86941 -2.34506 0
M  V30 929 H 83.2827 0.944676 -1.24521 0
M  V30 930 H 84.0177 3.23865 -0.167863 0
M  V30 931 H 83.8027 3.4109 -1.93391 0
M  V30 932 H 85.2927 4.01477 -1.14918 0
M  V30 933 N 85.7298 1.2412 0.971189 0
M  V30 934 C 86.6618 0.988349 2.06795 0
M  V30 935 C 87.6748 -0.0409541 1.62748 0
M  V30 936 O 88.8638 0.195673 1.77424 0
M  V30 937 C 85.9638 0.469023 3.35639 0
M  V30 938 C 85.1368 1.56065 4.08611 0
M  V30 939 C 84.1958 1.04458 5.15728 0
M  V30 940 O 83.2218 1.73553 5.42096 0
M  V30 941 N 84.4238 -0.122817 5.8037 0
M  V30 942 H 87.1888 1.93265 2.29061 0
M  V30 943 H 84.7498 1.15102 1.13856 0
M  V30 944 H 86.7418 0.108613 4.04554 0
M  V30 945 H 85.3118 -0.380919 3.1027 0
M  V30 946 H 84.5318 2.09341 3.34021 0
M  V30 947 H 85.8198 2.29449 4.54126 0
M  V30 948 H 85.2178 -0.700563 5.61345 0
M  V30 949 H 83.7748 -0.424404 6.50417 0
M  V30 950 N 87.2079 -1.17134 1.05439 0
M  V30 951 C 88.1179 -2.24878 0.668365 0
M  V30 952 C 89.1339 -1.71186 -0.311687 0
M  V30 953 O 90.3099 -2.00738 -0.163161 0
M  V30 954 C 87.3749 -3.46662 0.051648 0
M  V30 955 C 86.4359 -4.15429 1.08246 0
M  V30 956 C 85.6689 -5.31399 0.495082 0
M  V30 957 O 85.8919 -5.66153 -0.694743 0
M  V30 958 O 84.8259 -5.89187 1.23056 0
M  V30 959 H 88.6519 -2.60189 1.56637 0
M  V30 960 H 86.2369 -1.24482 0.826104 0
M  V30 961 H 88.1189 -4.20394 -0.290966 0
M  V30 962 H 86.7939 -3.13142 -0.819971 0
M  V30 963 H 85.7009 -3.43704 1.47711 0
M  V30 964 H 87.0339 -4.52982 1.92532 0
M  V30 965 N 88.686 -0.835752 -1.33615 0
M  V30 966 C 89.935 -0.426289 -1.97144 0
M  V30 967 C 90.248 1.01912 -1.66953 0
M  V30 968 O 91.454 1.53311 -2.24072 0
M  V30 969 C 89.91 -0.711321 -3.52801 0
M  V30 970 C 89.518 -2.1712 -3.91871 0
M  V30 971 C 91.262 -0.368654 -4.22896 0
M  V30 972 C 89.169 -2.40044 -5.40493 0
M  V30 973 H 88.099 -0.15567 -0.737755 0
M  V30 974 H 90.75 -1.0239 -1.52278 0
M  V30 975 H 89.132 -0.0433766 -3.95976 0
M  V30 976 H 90.306 -2.87936 -3.59763 0
M  V30 977 H 88.621 -2.47654 -3.34749 0
M  V30 978 H 91.218 -0.517601 -5.32189 0
M  V30 979 H 91.561 0.688078 -4.10574 0
M  V30 980 H 92.094 -0.991702 -3.8524 0
M  V30 981 H 88.833 -3.44271 -5.57815 0
M  V30 982 H 88.353 -1.73785 -5.74072 0
M  V30 983 H 90.032 -2.23042 -6.0734 0
M  V30 984 N 90.1641 1.46063 -0.591896 0
M  V30 985 C 91.0941 2.33172 0.123673 0
M  V30 986 C 92.0751 1.45897 0.87453 0
M  V30 987 O 93.2601 1.74698 0.848181 0
M  V30 988 C 90.3901 3.28336 1.13194 0
M  V30 989 C 89.3441 4.25124 0.495324 0
M  V30 990 C 88.6701 5.09863 1.61071 0
M  V30 991 C 89.9701 5.19143 -0.573425 0
M  V30 992 H 91.6641 2.93252 -0.603646 0
M  V30 993 H 89.2101 1.41014 -0.291741 0
M  V30 994 H 91.1631 3.88137 1.64097 0
M  V30 995 H 89.8871 2.66383 1.88965 0
M  V30 996 H 88.5461 3.66599 0.00729452 0
M  V30 997 H 88.1941 4.44288 2.35832 0
M  V30 998 H 87.8941 5.75417 1.19035 0
M  V30 999 H 89.4181 5.72529 2.12233 0
M  V30 1000 H 90.8321 5.73106 -0.1491 0
M  V30 1001 H 89.2291 5.93089 -0.914636 0
M  V30 1002 H 90.2991 4.62519 -1.45617 0
M  V30 1003 N 91.6422 0.330177 1.54103 0
M  V30 1004 C 92.6052 -0.520144 2.2322 0
M  V30 1005 C 93.6052 -1.03828 1.22786 0
M  V30 1006 O 94.7952 -0.929652 1.4732 0
M  V30 1007 C 91.9272 -1.72317 2.94142 0
M  V30 1008 H 93.1202 0.0841605 2.99782 0
M  V30 1009 H 90.6732 0.0813433 1.56088 0
M  V30 1010 H 91.4082 -2.36653 2.21734 0
M  V30 1011 H 91.1932 -1.35898 3.67796 0
M  V30 1012 H 92.6832 -2.3266 3.46784 0
M  V30 1013 N 93.1203 -1.57491 0.0584922 0
M  V30 1014 C 94.5363 -1.56792 -0.298091 0
M  V30 1015 C 94.7363 -1.06679 -1.70944 0
M  V30 1016 O 93.7923 -0.726672 -2.41818 0
M  V30 1017 C 95.1053 -3.00461 -0.119879 0
M  V30 1018 C 96.6533 -3.1242 -0.190428 0
M  V30 1019 C 97.1283 -4.57982 -0.0406567 0
M  V30 1020 N 98.6193 -4.63099 -0.0966958 0
M  V30 1021 C 99.3543 -5.734 -0.00502943 0
M  V30 1022 N 98.8503 -6.9266 0.139402 0
M  V30 1023 N 100.643 -5.62067 -0.0611391 0
M  V30 1024 H 92.7943 -1.88386 0.98105 0
M  V30 1025 H 95.0573 -0.867865 0.381463 0
M  V30 1026 H 94.7633 -3.41187 0.85349 0
M  V30 1027 H 94.6373 -3.66843 -0.877833 0
M  V30 1028 H 97.0243 -2.71589 -1.15427 0
M  V30 1029 H 97.1053 -2.48702 0.598405 0
M  V30 1030 H 96.7493 -4.995 0.919897 0
M  V30 1031 H 96.6793 -5.19715 -0.848727 0
M  V30 1032 H 99.1703 -3.77331 -0.207277 0
M  V30 1033 H 99.4833 -7.72536 0.201855 0
M  V30 1034 H 97.8283 -6.94781 0.174586 0
M  V30 1035 H 101.019 -4.67782 -0.172583 0
M  V30 1036 H 101.192 -6.47999 0.0137562 0
M  V30 1037 N 94.5984 0.214957 -1.56127 0
M  V30 1038 C 95.8754 0.963093 -1.70247 0
M  V30 1039 C 96.2554 2.02166 -0.60764 0
M  V30 1040 O 95.6034 2.25244 0.384385 0
M  V30 1041 C 95.8134 1.56756 -3.11815 0
M  V30 1042 C 97.1614 2.0573 -3.7143 0
M  V30 1043 O 98.1854 1.66637 -3.14818 0
M  V30 1044 O 97.0444 2.77603 -4.70743 0
M  V30 1045 H 94.1384 0.450321 -0.693643 0
M  V30 1046 H 96.6844 0.206219 -1.68442 0
M  V30 1047 H 95.4564 0.803533 -3.82961 0
M  V30 1048 H 95.0794 2.3898 -3.17765 0
M  V30 1049 N 96.0765 1.50051 0.48192 0
M  V30 1050 C 97.3245 1.60181 1.23234 0
M  V30 1051 C 97.6455 0.299176 1.92691 0
M  V30 1052 O 96.9155 -0.682708 1.83619 0
M  V30 1053 H 95.4955 0.590232 0.457859 0
M  V30 1054 H 98.1575 1.86775 0.556881 0
M  V30 1055 H 97.2535 2.40753 1.98607 0
M  V30 1056 N 97.5546 -0.734337 1.39446 0
M  V30 1057 C 98.9656 -1.31264 1.32766 0
M  V30 1058 C 99.3166 -1.96198 -0.00767497 0
M  V30 1059 O 98.4416 -1.96346 -0.909796 0
M  V30 1060 C 99.0366 -2.38682 2.4045 0
M  V30 1061 C 97.5956 -2.92184 2.37288 0
M  V30 1062 C 96.7426 -1.6576 2.22304 0
M  V30 1063 H 99.6936 -0.531799 1.49525 0
M  V30 1064 H 99.7146 -3.19087 2.07276 0
M  V30 1065 H 99.2266 -1.91392 3.37625 0
M  V30 1066 H 97.3276 -3.43752 1.43754 0
M  V30 1067 H 97.4406 -3.45253 3.3217 0
M  V30 1068 H 95.8046 -1.9012 1.69489 0
M  V30 1069 H 96.5876 -1.20521 3.21449 0
M  V30 1070 N 99.0327 -1.24633 -0.964593 0
M  V30 1071 C 99.9807 -1.03917 -2.08096 0
M  V30 1072 C 100.975 0.0268581 -1.69379 0
M  V30 1073 O 102.181 -0.127952 -1.79545 0
M  V30 1074 H 98.5557 -0.319044 -0.680966 0
M  V30 1075 H 100.527 -1.98581 -2.22729 0
M  V30 1076 C 99.2757 -0.663983 -3.41301 0
M  V30 1077 H 98.5987 -1.47605 -3.71555 0
M  V30 1078 H 100.039 -0.558663 -4.20303 0
M  V30 1079 C 98.4977 0.629169 -3.30973 0
M  V30 1080 O 99.0277 1.67404 -3.65156 0
M  V30 1081 N 97.2337 0.611057 -2.84103 0
M  V30 1082 H 96.7807 -0.239593 -2.56483 0
M  V30 1083 H 96.7387 1.47647 -2.77575 0
M  V30 1084 N 100.511 1.16574 -1.06058 0
M  V30 1085 C 101.474 2.19085 -0.673392 0
M  V30 1086 C 102.474 1.5835 0.279648 0
M  V30 1087 O 103.664 1.74088 0.0623488 0
M  V30 1088 C 100.796 3.40899 0.00954234 0
M  V30 1089 H 101.989 2.54853 -1.58081 0
M  V30 1090 H 99.5418 1.30808 -0.855516 0
M  V30 1091 H 100.277 3.10684 0.929826 0
M  V30 1092 H 100.062 3.86233 -0.67573 0
M  V30 1093 H 101.552 4.1675 0.266245 0
M  V30 1094 N 101.989 0.842826 1.3317 0
M  V30 1095 C 102.919 0.294028 2.31641 0
M  V30 1096 C 103.9 -0.600401 1.59151 0
M  V30 1097 O 105.085 -0.523124 1.87022 0
M  V30 1098 C 102.215 -0.528416 3.43257 0
M  V30 1099 C 101.169 0.27056 4.27144 0
M  V30 1100 C 100.495 -0.675881 5.30411 0
M  V30 1101 C 101.795 1.48981 5.00602 0
M  V30 1102 H 103.489 1.11681 2.77791 0
M  V30 1103 H 101.035 0.538478 1.33553 0
M  V30 1104 H 102.988 -0.922674 4.11175 0
M  V30 1105 H 101.712 -1.38445 2.95805 0
M  V30 1106 H 100.371 0.646427 3.60856 0
M  V30 1107 H 100.019 -1.52842 4.79216 0
M  V30 1108 H 99.7189 -0.145374 5.8742 0
M  V30 1109 H 101.243 -1.06757 6.01195 0
M  V30 1110 H 102.657 1.16849 5.61266 0
M  V30 1111 H 101.054 1.95739 5.6728 0
M  V30 1112 H 102.124 2.25746 4.29147 0
M  V30 1113 N 103.467 -1.45747 0.599634 0
M  V30 1114 C 104.695 -2.06668 0.0978551 0
M  V30 1115 C 105.11 -1.44562 -1.21439 0
M  V30 1116 O 104.467 -0.556923 -1.73795 0
M  V30 1117 C 104.518 -3.61456 -0.0567044 0
M  V30 1118 O 104.239 -4.21242 1.20361 0
M  V30 1119 C 105.74 -4.39345 -0.590869 0
M  V30 1120 H 102.96 -0.667825 0.0651943 0
M  V30 1121 H 105.504 -1.87115 0.82511 0
M  V30 1122 H 103.659 -3.80378 -0.734251 0
M  V30 1123 H 104.073 -5.14323 1.02821 0
M  V30 1124 H 105.547 -5.48182 -0.648131 0
M  V30 1125 H 106.024 -4.08568 -1.61147 0
M  V30 1126 H 106.63 -4.25268 0.0523679 0
M  V30 1127 N 104.945 -0.338344 -1.53925 0
M  V30 1128 C 106.356 0.146651 -1.86123 0
M  V30 1129 C 106.707 1.5042 -1.2597 0
M  V30 1130 O 105.832 2.08723 -0.571294 0
M  V30 1131 C 106.427 0.272879 -3.37699 0
M  V30 1132 C 104.986 0.702103 -3.69794 0
M  V30 1133 C 104.133 -0.167304 -2.76795 0
M  V30 1134 H 107.084 -0.558123 -1.48562 0
M  V30 1135 H 107.105 1.10128 -3.64214 0
M  V30 1136 H 106.617 -0.715307 -3.81451 0
M  V30 1137 H 104.718 1.6995 -3.31584 0
M  V30 1138 H 104.831 0.495604 -4.7653 0
M  V30 1139 H 103.195 0.359527 -2.5215 0
M  V30 1140 H 103.978 -1.15253 -3.23375 0
M  V30 1141 N 106.423 1.57458 -0.0668435 0
M  V30 1142 C 107.834 1.80776 0.466558 0
M  V30 1143 C 108.185 0.980361 1.69951 0
M  V30 1144 O 107.31 0.201441 2.1546 0
M  V30 1145 C 107.905 3.27881 0.85321 0
M  V30 1146 C 106.464 3.52062 1.3315 0
M  V30 1147 C 105.611 2.75513 0.314264 0
M  V30 1148 H 108.562 1.5598 -0.292588 0
M  V30 1149 H 108.583 3.39659 1.715 0
M  V30 1150 H 108.095 3.88075 -0.0443439 0
M  V30 1151 H 106.196 2.97167 2.24772 0
M  V30 1152 H 106.309 4.60762 1.31285 0
M  V30 1153 H 104.673 2.42123 0.790492 0
M  V30 1154 H 105.456 3.38442 -0.575477 0
M  V30 1155 N 107.901 -0.206675 1.56239 0
M  V30 1156 C 109.312 -0.772383 1.69974 0
M  V30 1157 C 109.663 -1.84353 0.671436 0
M  V30 1158 O 108.788 -2.15695 -0.174491 0
M  V30 1159 C 109.383 -1.40779 3.08167 0
M  V30 1160 C 107.942 -1.92072 3.23706 0
M  V30 1161 C 107.089 -0.786347 2.65917 0
M  V30 1162 H 110.04 0.0182223 1.5869 0
M  V30 1163 H 110.061 -2.27696 3.04852 0
M  V30 1164 H 109.573 -0.627958 3.82986 0
M  V30 1165 H 107.674 -2.7281 2.53782 0
M  V30 1166 H 107.787 -2.09046 4.31087 0
M  V30 1167 H 106.151 -1.1976 2.24788 0
M  V30 1168 H 106.934 -0.0189416 3.43295 0
M  V30 1169 N 109.379 -1.50304 -0.473955 0
M  V30 1170 C 110.607 -1.64902 -1.24959 0
M  V30 1171 C 111.022 -0.331198 -1.85872 0
M  V30 1172 O 110.379 0.68652 -1.69095 0
M  V30 1173 C 110.43 -2.73803 -2.36038 0
M  V30 1174 O 110.151 -4.00477 -1.77624 0
M  V30 1175 C 111.652 -2.99349 -3.26964 0
M  V30 1176 H 108.872 -0.554383 -0.378022 0
M  V30 1177 H 111.416 -1.9651 -0.566054 0
M  V30 1178 H 109.571 -2.44898 -3.00173 0
M  V30 1179 H 109.985 -4.60678 -2.5075 0
M  V30 1180 H 111.459 -3.79217 -4.01121 0
M  V30 1181 H 111.936 -2.10307 -3.85574 0
M  V30 1182 H 112.542 -3.29774 -2.68569 0
M  V30 1183 N 110.857 0.726932 -1.39834 0
M  V30 1184 C 112.085 1.51613 -1.40787 0
M  V30 1185 C 112.5 1.88799 -0.00451505 0
M  V30 1186 O 111.857 1.54662 0.968809 0
M  V30 1187 C 111.908 2.79863 -2.28821 0
M  V30 1188 O 111.629 2.44253 -3.63692 0
M  V30 1189 C 113.13 3.73837 -2.38245 0
M  V30 1190 H 110.35 0.468264 -0.480593 0
M  V30 1191 H 112.894 0.897607 -1.83748 0
M  V30 1192 H 111.049 3.38027 -1.89252 0
M  V30 1193 H 111.463 3.26695 -4.1033 0
M  V30 1194 H 112.937 4.60699 -3.04073 0
M  V30 1195 H 113.414 4.16153 -1.40403 0
M  V30 1196 H 114.02 3.21589 -2.78317 0
M  V30 1197 N 112.336 1.25143 0.95797 0
M  V30 1198 C 113.747 1.08851 1.51685 0
M  V30 1199 C 114.098 -0.33687 1.93286 0
M  V30 1200 O 113.223 -1.22644 1.7829 0
M  V30 1201 C 113.818 1.96978 2.75654 0
M  V30 1202 C 112.377 1.84881 3.27866 0
M  V30 1203 C 111.524 1.91329 2.0072 0
M  V30 1204 H 114.475 1.38478 0.77522 0
M  V30 1205 H 114.496 1.5078 3.4935 0
M  V30 1206 H 114.008 3.00712 2.45345 0
M  V30 1207 H 112.109 0.840182 3.63004 0
M  V30 1208 H 112.222 2.6951 3.96107 0
M  V30 1209 H 110.586 1.35174 2.15871 0
M  V30 1210 H 111.369 2.96661 1.72764 0
M  V30 1211 N 113.814 -1.1601 1.06675 0
M  V30 1212 C 114.724 -2.24156 0.692179 0
M  V30 1213 C 115.74 -1.71507 -0.293513 0
M  V30 1214 O 116.916 -2.009 -0.141861 0
M  V30 1215 C 113.981 -3.46587 0.0884131 0
M  V30 1216 C 113.042 -4.14257 1.12646 0
M  V30 1217 C 112.275 -5.30844 0.551416 0
M  V30 1218 O 112.498 -5.66858 -0.634656 0
M  V30 1219 O 111.432 -5.87848 1.29298 0
M  V30 1220 H 115.258 -2.58513 1.59388 0
M  V30 1221 H 112.843 -1.23599 0.83926 0
M  V30 1222 H 114.725 -4.20679 -0.246361 0
M  V30 1223 H 113.4 -3.13994 -0.786712 0
M  V30 1224 H 112.307 -3.42118 1.51348 0
M  V30 1225 H 113.64 -4.50914 1.97325 0
M  V30 1226 N 115.292 -0.849877 -1.32721 0
M  V30 1227 C 116.538 -0.460855 -1.9811 0
M  V30 1228 C 116.893 0.971716 -1.66059 0
M  V30 1229 O 116.186 1.67184 -0.935944 0
M  V30 1230 C 116.38 -0.631272 -3.51781 0
M  V30 1231 C 116.209 -2.07886 -3.98765 0
M  V30 1232 C 114.979 -2.71637 -4.26077 0
M  V30 1233 C 117.177 -3.04889 -4.14182 0
M  V30 1234 N 115.159 -4.07356 -4.59276 0
M  V30 1235 C 116.53 -4.25583 -4.50865 0
M  V30 1236 C 118.585 -3.01148 -3.96503 0
M  V30 1237 C 117.288 -5.43027 -4.71714 0
M  V30 1238 C 119.314 -4.17832 -4.18533 0
M  V30 1239 C 118.676 -5.37284 -4.55528 0
M  V30 1240 H 114.775 -0.217283 -0.751207 0
M  V30 1241 H 117.359 -1.10026 -1.60631 0
M  V30 1242 H 115.53 -0.0215966 -3.88394 0
M  V30 1243 H 117.262 -0.212614 -4.04141 0
M  V30 1244 H 114.017 -2.22705 -4.17971 0
M  V30 1245 H 114.441 -4.77351 -4.80068 0
M  V30 1246 H 119.083 -2.0992 -3.67006 0
M  V30 1247 H 116.801 -6.34791 -5.00066 0
M  V30 1248 H 120.387 -4.16368 -4.06361 0
M  V30 1249 H 119.267 -6.26071 -4.72234 0
M  V30 1250 N 116.77 1.45427 -0.607355 0
M  V30 1251 C 118.016 2.0254 -0.102607 0
M  V30 1252 C 118.349 1.47478 1.26348 0
M  V30 1253 O 117.624 0.64939 1.83339 0
M  V30 1254 C 117.907 3.60044 -0.0634347 0
M  V30 1255 C 117.76 4.2544 -1.46017 0
M  V30 1256 C 119.079 4.35646 0.624514 0
M  V30 1257 H 116.198 0.73598 -0.0387607 0
M  V30 1258 H 118.84 1.73284 -0.779282 0
M  V30 1259 H 116.99 3.85101 0.512808 0
M  V30 1260 H 118.662 4.11569 -2.08347 0
M  V30 1261 H 116.905 3.83849 -2.02094 0
M  V30 1262 H 117.576 5.34342 -1.385 0
M  V30 1263 H 120.052 4.15882 0.134723 0
M  V30 1264 H 118.928 5.45376 0.621028 0
M  V30 1265 H 119.189 4.08501 1.69055 0
M  V30 1266 N 118.248 0.346503 1.53744 0
M  V30 1267 C 119.195 -0.508914 2.25119 0
M  V30 1268 C 120.165 -1.09315 1.25058 0
M  V30 1269 O 121.35 -1.12921 1.53797 0
M  V30 1270 C 118.49 -1.65246 3.02965 0
M  V30 1271 C 117.603 -1.09525 4.17886 0
M  V30 1272 C 116.738 -2.20634 4.83212 0
M  V30 1273 C 115.777 -1.62279 5.90196 0
M  V30 1274 N 114.914 -2.67143 6.49291 0
M  V30 1275 H 119.754 0.106283 2.9781 0
M  V30 1276 H 117.291 0.0642227 1.4696 0
M  V30 1277 H 119.249 -2.32574 3.4636 0
M  V30 1278 H 117.879 -2.2386 2.32565 0
M  V30 1279 H 116.931 -0.312818 3.79112 0
M  V30 1280 H 118.243 -0.628444 4.94825 0
M  V30 1281 H 117.397 -2.95821 5.29693 0
M  V30 1282 H 116.136 -2.70659 4.05703 0
M  V30 1283 H 115.141 -0.855989 5.43096 0
M  V30 1284 H 116.366 -1.13102 6.69615 0
M  V30 1285 H 114.312 -3.16417 5.74645 0
M  V30 1286 H 114.229 -2.25093 7.21713 0
M  V30 1287 H 115.497 -3.4209 7.00425 0
M  V30 1288 N 119.726 -1.57421 0.075193 0
M  V30 1289 C 120.973 -1.93618 -0.593146 0
M  V30 1290 C 121.301 -0.955484 -1.69413 0
M  V30 1291 O 120.556 0.0283251 -1.9568 0
M  V30 1292 C 120.855 -3.36428 -1.20626 0
M  V30 1293 C 120.521 -4.50307 -0.231078 0
M  V30 1294 C 119.183 -4.81186 0.0371936 0
M  V30 1295 C 121.535 -5.19374 0.435888 0
M  V30 1296 C 118.863 -5.78466 0.979461 0
M  V30 1297 C 121.215 -6.17665 1.3665 0
M  V30 1298 C 119.879 -6.46958 1.6432 0
M  V30 1299 H 119.149 -0.708499 -0.217047 0
M  V30 1300 H 121.796 -1.90937 0.146793 0
M  V30 1301 H 120.101 -3.35592 -2.02201 0
M  V30 1302 H 121.798 -3.61727 -1.73073 0
M  V30 1303 H 118.388 -4.26227 -0.450357 0
M  V30 1304 H 122.572 -4.95711 0.241748 0
M  V30 1305 H 117.828 -5.99487 1.20106 0
M  V30 1306 H 122.002 -6.70284 1.88924 0
M  V30 1307 H 119.629 -7.2215 2.37494 0
M  V30 1308 N 121.204 0.198386 -1.56346 0
M  V30 1309 C 122.444 0.92609 -1.82217 0
M  V30 1310 C 122.808 1.80584 -0.652195 0
M  V30 1311 O 124.009 2.56907 -0.790716 0
M  V30 1312 C 122.28 1.72354 -3.13096 0
M  V30 1313 S 123.839 2.50371 -3.6036 0
M  V30 1314 H 120.657 0.310677 -0.639532 0
M  V30 1315 H 123.259 0.189755 -1.94577 0
M  V30 1316 H 121.963 1.0678 -3.96265 0
M  V30 1317 H 121.494 2.50175 -3.03605 0
M  V30 1318 H 123.509 3.74488 -3.25535 0
M  V30 1319 N 122.682 1.50554 0.465978 0
M  V30 1320 C 124.098 1.38093 0.800154 0
M  V30 1321 C 124.298 0.440988 1.96615 0
M  V30 1322 O 123.354 -0.114499 2.5224 0
M  V30 1323 C 124.667 2.79565 1.10742 0
M  V30 1324 C 126.215 2.88516 1.21357 0
M  V30 1325 C 126.69 4.30833 1.55393 0
M  V30 1326 N 128.181 4.33807 1.62375 0
M  V30 1327 C 128.916 5.40927 1.90225 0
M  V30 1328 N 128.412 6.58247 2.16062 0
M  V30 1329 N 130.205 5.28376 1.9177 0
M  V30 1330 H 122.356 2.10237 -0.302366 0
M  V30 1331 H 124.619 0.945203 -0.0727746 0
M  V30 1332 H 124.325 3.50208 0.323661 0
M  V30 1333 H 124.199 3.17125 2.04234 0
M  V30 1334 H 126.586 2.1809 1.98799 0
M  V30 1335 H 126.667 2.54492 0.258321 0
M  V30 1336 H 126.311 5.01799 0.784889 0
M  V30 1337 H 126.241 4.62347 2.52076 0
M  V30 1338 H 128.732 3.49212 1.44427 0
M  V30 1339 H 129.045 7.3569 2.36601 0
M  V30 1340 H 127.39 6.61413 2.13444 0
M  V30 1341 H 130.581 4.35715 1.71085 0
M  V30 1342 H 130.754 6.11944 2.13139 0
M  V30 1343 N 124.16 -0.719506 1.40217 0
M  V30 1344 C 125.092 -1.84428 1.36084 0
M  V30 1345 C 126.105 -1.60597 0.266913 0
M  V30 1346 O 127.294 -1.70544 0.526983 0
M  V30 1347 C 124.394 -3.20757 1.094 0
M  V30 1348 C 123.567 -3.71817 2.30372 0
M  V30 1349 C 122.626 -4.86748 1.99907 0
M  V30 1350 O 121.652 -4.99603 2.72737 0
M  V30 1351 N 122.854 -5.7226 0.974635 0
M  V30 1352 H 125.619 -1.88473 2.33019 0
M  V30 1353 H 123.18 -0.900885 1.3452 0
M  V30 1354 H 125.172 -3.95235 0.870116 0
M  V30 1355 H 123.742 -3.11884 0.211452 0
M  V30 1356 H 122.962 -2.88514 2.68614 0
M  V30 1357 H 124.25 -4.02666 3.11026 0
M  V30 1358 H 123.648 -5.6448 0.371368 0
M  V30 1359 H 122.205 -6.46739 0.810656 0
M  V30 1360 N 125.638 -1.25649 -0.95132 0
M  V30 1361 C 126.568 -1.08808 -2.06599 0
M  V30 1362 C 127.549 0.00382547 -1.701 0
M  V30 1363 O 128.734 -0.166325 -1.93486 0
M  V30 1364 C 125.864 -0.709542 -3.39975 0
M  V30 1365 C 124.818 -1.75206 -3.90496 0
M  V30 1366 C 124.144 -1.22811 -5.20405 0
M  V30 1367 C 125.444 -3.15153 -4.16504 0
M  V30 1368 H 127.138 -2.02048 -2.20946 0
M  V30 1369 H 124.684 -0.972835 -1.06169 0
M  V30 1370 H 126.637 -0.578649 -4.17408 0
M  V30 1371 H 125.361 0.258556 -3.25575 0
M  V30 1372 H 124.02 -1.87145 -3.15234 0
M  V30 1373 H 123.668 -0.250145 -5.02378 0
M  V30 1374 H 123.368 -1.92492 -5.55176 0
M  V30 1375 H 124.892 -1.10968 -6.00432 0
M  V30 1376 H 126.306 -3.06349 -4.84586 0
M  V30 1377 H 124.703 -3.82333 -4.62538 0
M  V30 1378 H 125.773 -3.61966 -3.22658 0
M  V30 1379 N 127.117 1.15442 -1.07289 0
M  V30 1380 C 128.364 1.86213 -0.795668 0
M  V30 1381 C 128.692 1.82291 0.678238 0
M  V30 1382 O 127.947 1.24057 1.51355 0
M  V30 1383 C 128.246 3.3489 -1.24834 0
M  V30 1384 C 127.912 3.59007 -2.72809 0
M  V30 1385 C 126.574 3.65298 -3.13227 0
M  V30 1386 C 128.926 3.68762 -3.68326 0
M  V30 1387 C 126.254 3.78854 -4.4798 0
M  V30 1388 C 128.606 3.83842 -5.0284 0
M  V30 1389 C 127.27 3.88378 -5.4288 0
M  V30 1390 H 126.54 0.681403 -0.291155 0
M  V30 1391 H 129.187 1.36435 -1.34379 0
M  V30 1392 H 127.492 3.8687 -0.619595 0
M  V30 1393 H 129.189 3.88052 -1.01076 0
M  V30 1394 H 125.779 3.5475 -2.40521 0
M  V30 1395 H 129.963 3.63202 -3.38227 0
M  V30 1396 H 125.219 3.80623 -4.78472 0
M  V30 1397 H 129.393 3.90332 -5.76727 0
M  V30 1398 H 127.02 3.98635 -6.47298 0
M  V30 1399 N 128.595 0.856903 1.32268 0
M  V30 1400 C 129.843 0.460474 1.96784 0
M  V30 1401 C 130.164 -0.987701 1.68135 0
M  V30 1402 O 129.434 -1.69058 0.989765 0
M  V30 1403 H 128.014 0.167289 0.728027 0
M  V30 1404 H 130.676 1.09383 1.61312 0
M  V30 1405 H 129.772 0.60739 3.06133 0
M  V30 1406 N 130.073 -1.45103 0.615059 0
M  V30 1407 C 131.321 -2.01784 0.112955 0
M  V30 1408 C 131.642 -1.48504 -1.26378 0
M  V30 1409 O 130.912 -0.682245 -1.83636 0
M  V30 1410 H 129.492 -0.745993 0.0387668 0
M  V30 1411 H 132.154 -1.77808 0.798141 0
M  V30 1412 H 131.25 -3.12025 0.0684069 0
M  V30 1413 N 131.551 -0.354651 -1.53558 0
M  V30 1414 C 132.798 0.238443 -2.01091 0
M  V30 1415 C 133.126 1.49663 -1.24222 0
M  V30 1416 O 132.381 1.93049 -0.321003 0
M  V30 1417 C 132.68 0.587121 -3.52545 0
M  V30 1418 C 132.346 -0.575472 -4.47213 0
M  V30 1419 C 131.008 -0.894497 -4.72813 0
M  V30 1420 C 133.36 -1.35489 -5.03281 0
M  V30 1421 C 130.688 -1.99511 -5.51736 0
M  V30 1422 C 133.04 -2.44583 -5.83405 0
M  V30 1423 C 131.704 -2.77033 -6.07296 0
M  V30 1424 H 130.974 0.0872526 -0.735845 0
M  V30 1425 H 133.621 -0.484859 -1.8526 0
M  V30 1426 H 131.926 1.39129 -3.66265 0
M  V30 1427 H 133.623 1.05809 -3.86789 0
M  V30 1428 H 130.213 -0.316774 -4.27428 0
M  V30 1429 H 134.397 -1.12167 -4.83459 0
M  V30 1430 H 129.653 -2.25063 -5.68469 0
M  V30 1431 H 133.827 -3.05401 -6.25862 0
M  V30 1432 H 131.454 -3.6244 -6.68237 0
M  V30 1433 N 133.029 1.57378 -0.0835403 0
M  V30 1434 C 134.254 1.98682 0.594987 0
M  V30 1435 C 134.679 0.961969 1.61641 0
M  V30 1436 O 134.037 -0.0709989 1.81161 0
M  V30 1437 C 134.085 3.38988 1.2296 0
M  V30 1438 O 133.189 3.39208 2.34546 0
M  V30 1439 H 132.53 0.646368 0.152002 0
M  V30 1440 H 135.06 2.03961 -0.161533 0
M  V30 1441 H 135.07 3.76431 1.57366 0
M  V30 1442 H 133.745 4.13107 0.481228 0
M  V30 1443 H 132.322 3.13548 2.01846 0
M  V30 1444 N 134.507 -0.190092 1.56449 0
M  V30 1445 C 135.756 -0.907912 1.80111 0
M  V30 1446 C 136.069 -1.84214 0.657619 0
M  V30 1447 O 137.275 -2.60094 0.778663 0
M  V30 1448 C 135.731 -1.66485 3.19078 0
M  V30 1449 C 135.339 -0.7752 4.41242 0
M  V30 1450 C 137.083 -2.37201 3.52045 0
M  V30 1451 C 134.99 -1.53129 5.71231 0
M  V30 1452 H 133.92 -0.34276 0.671589 0
M  V30 1453 H 136.571 -0.161109 1.82791 0
M  V30 1454 H 134.953 -2.45572 3.10661 0
M  V30 1455 H 136.127 -0.0226298 4.60794 0
M  V30 1456 H 134.442 -0.178627 4.16017 0
M  V30 1457 H 137.039 -2.94329 4.46402 0
M  V30 1458 H 137.382 -3.11632 2.76028 0
M  V30 1459 H 137.915 -1.65075 3.61932 0
M  V30 1460 H 134.654 -0.82967 6.50228 0
M  V30 1461 H 134.174 -2.25767 5.55688 0
M  V30 1462 H 135.853 -2.08377 6.12526 0
M  V30 1463 N 135.985 -1.50799 -0.457987 0
M  V30 1464 C 136.915 -1.73553 -1.5621 0
M  V30 1465 C 137.896 -0.584774 -1.59732 0
M  V30 1466 O 139.081 -0.825314 -1.7579 0
M  V30 1467 C 136.211 -1.84169 -2.94447 0
M  V30 1468 C 135.165 -2.99461 -3.0579 0
M  V30 1469 C 134.491 -2.95235 -4.45803 0
M  V30 1470 C 135.791 -4.39766 -2.81786 0
M  V30 1471 H 137.485 -2.66 -1.37421 0
M  V30 1472 H 135.031 -1.28002 -0.659662 0
M  V30 1473 H 136.984 -1.98672 -3.71628 0
M  V30 1474 H 135.708 -0.883545 -3.14422 0
M  V30 1475 H 134.367 -2.8463 -2.31044 0
M  V30 1476 H 134.015 -1.97239 -4.62715 0
M  V30 1477 H 133.715 -3.72642 -4.54326 0
M  V30 1478 H 135.239 -3.11803 -5.24987 0
M  V30 1479 H 136.653 -4.55054 -3.4871 0
M  V30 1480 H 135.05 -5.18722 -3.0174 0
M  V30 1481 H 136.12 -4.51229 -1.7754 0
M  V30 1482 N 137.463 0.71206 -1.40597 0
M  V30 1483 C 138.393 1.83889 -1.43899 0
M  V30 1484 C 139.374 1.67442 -0.299504 0
M  V30 1485 O 140.559 1.87421 -0.508624 0
M  V30 1486 C 137.689 3.21877 -1.30431 0
M  V30 1487 C 136.643 3.53002 -2.42019 0
M  V30 1488 C 135.969 4.90172 -2.13626 0
M  V30 1489 C 137.269 3.53643 -3.84362 0
M  V30 1490 H 138.963 1.81383 -2.38203 0
M  V30 1491 H 136.509 0.871237 -1.14654 0
M  V30 1492 H 138.462 4.00404 -1.31357 0
M  V30 1493 H 137.186 3.24968 -0.326049 0
M  V30 1494 H 135.845 2.76818 -2.40349 0
M  V30 1495 H 135.493 4.89869 -1.14182 0
M  V30 1496 H 135.193 5.11962 -2.88389 0
M  V30 1497 H 136.717 5.71028 -2.1624 0
M  V30 1498 H 138.131 4.22203 -3.87837 0
M  V30 1499 H 136.528 3.86961 -4.58673 0
M  V30 1500 H 137.598 2.52954 -4.13693 0
M  V30 1501 N 138.941 1.26152 0.944643 0
M  V30 1502 C 140.187 1.12665 1.69346 0
M  V30 1503 C 140.542 -0.3273 1.89596 0
M  V30 1504 O 139.835 -1.23717 1.46303 0
M  V30 1505 C 140.029 1.82541 3.07268 0
M  V30 1506 C 139.858 3.34582 3.00475 0
M  V30 1507 C 138.628 4.03863 3.03681 0
M  V30 1508 C 140.826 4.30828 2.80877 0
M  V30 1509 N 138.808 5.42603 2.87151 0
M  V30 1510 C 140.179 5.5672 2.7288 0
M  V30 1511 C 142.234 4.21122 2.65633 0
M  V30 1512 C 140.937 6.74013 2.51196 0
M  V30 1513 C 142.963 5.38118 2.45323 0
M  V30 1514 C 142.325 6.62955 2.38055 0
M  V30 1515 H 138.424 0.467041 0.627214 0
M  V30 1516 H 141.008 1.59391 1.11815 0
M  V30 1517 H 139.179 1.38296 3.62945 0
M  V30 1518 H 140.911 1.61708 3.70989 0
M  V30 1519 H 137.666 3.55198 3.1326 0
M  V30 1520 H 138.09 6.15443 2.82063 0
M  V30 1521 H 142.732 3.25344 2.70021 0
M  V30 1522 H 140.45 7.6989 2.4555 0
M  V30 1523 H 144.036 5.32475 2.34439 0
M  V30 1524 H 142.916 7.51959 2.22546 0
M  V30 1525 N 140.419 -1.14872 1.07899 0
M  V30 1526 C 141.668 -1.85135 0.800499 0
M  V30 1527 C 141.981 -1.83547 -0.676014 0
M  V30 1528 O 143.187 -2.49548 -1.06948 0
M  V30 1529 C 141.643 -3.3231 1.38197 0
M  V30 1530 C 141.251 -3.42329 2.8899 0
M  V30 1531 C 142.995 -4.0772 1.18174 0
M  V30 1532 C 140.902 -4.83684 3.403 0
M  V30 1533 H 139.832 -0.693563 0.29578 0
M  V30 1534 H 142.483 -1.29532 1.29976 0
M  V30 1535 H 140.865 -3.87618 0.810431 0
M  V30 1536 H 142.039 -2.97097 3.52236 0
M  V30 1537 H 140.354 -2.80369 3.07867 0
M  V30 1538 H 142.951 -5.12049 1.5398 0
M  V30 1539 H 143.294 -4.16124 0.12117 0
M  V30 1540 H 143.827 -3.58696 1.71994 0
M  V30 1541 H 140.566 -4.80465 4.45907 0
M  V30 1542 H 140.086 -5.29474 2.81811 0
M  V30 1543 H 141.765 -5.52558 3.36584 0
M  V30 1544 N 141.898 -0.863906 -1.31812 0
M  V30 1545 C 143.146 -0.470904 -1.96537 0
M  V30 1546 C 143.467 0.978771 -1.68657 0
M  V30 1547 O 142.737 1.6853 -0.998717 0
M  V30 1548 H 141.317 -0.171148 -0.72713 0
M  V30 1549 H 143.979 -1.10236 -1.60729 0
M  V30 1550 H 143.075 -0.623616 -3.05806 0
M  V30 1551 N 143.376 1.44774 -0.622745 0
M  V30 1552 C 144.339 2.29069 0.0774015 0
M  V30 1553 C 145.339 1.4059 0.780461 0
M  V30 1554 O 146.529 1.62551 0.626322 0
M  V30 1555 C 143.661 3.21974 1.12006 0
M  V30 1556 H 144.854 2.92459 -0.663901 0
M  V30 1557 H 142.407 1.51548 -0.382486 0
M  V30 1558 H 143.142 2.63417 1.89162 0
M  V30 1559 H 142.927 3.87168 0.619951 0
M  V30 1560 H 144.417 3.85318 1.60995 0
M  V30 1561 N 144.854 0.36279 1.53368 0
M  V30 1562 C 146.103 -0.22888 2.00397 0
M  V30 1563 C 146.416 -1.50096 1.25421 0
M  V30 1564 O 147.622 -2.17106 1.63025 0
M  V30 1565 C 146.078 -0.458417 3.56969 0
M  V30 1566 C 145.686 0.798877 4.4082 0
M  V30 1567 C 147.43 -1.00789 4.12361 0
M  V30 1568 C 145.337 0.539078 5.88938 0
M  V30 1569 H 144.267 -0.089305 0.748693 0
M  V30 1570 H 146.918 0.481099 1.77081 0
M  V30 1571 H 145.3 -1.22959 3.76427 0
M  V30 1572 H 146.474 1.57262 4.33134 0
M  V30 1573 H 144.789 1.27137 3.96516 0
M  V30 1574 H 147.386 -1.21754 5.20653 0
M  V30 1575 H 147.729 -1.9692 3.66781 0
M  V30 1576 H 148.262 -0.296961 3.9669 0
M  V30 1577 H 145.001 1.47064 6.3879 0
M  V30 1578 H 144.521 -0.196222 5.99479 0
M  V30 1579 H 146.2 0.163542 6.46793 0
M  V30 1580 N 146.332 -1.57332 0.0918853 0
M  V30 1581 C 147.262 -2.16872 -0.865371 0
M  V30 1582 C 148.243 -1.10118 -1.29646 0
M  V30 1583 O 149.428 -1.38242 -1.36392 0
M  V30 1584 C 146.558 -2.74649 -2.12569 0
M  V30 1585 C 145.512 -3.86747 -1.83333 0
M  V30 1586 C 144.838 -4.31212 -3.16166 0
M  V30 1587 C 146.138 -5.10089 -1.1228 0
M  V30 1588 H 147.832 -2.97114 -0.369307 0
M  V30 1589 H 145.378 -1.42918 -0.176194 0
M  V30 1590 H 147.331 -3.14952 -2.7997 0
M  V30 1591 H 146.055 -1.91657 -2.64452 0
M  V30 1592 H 144.714 -3.46978 -1.18331 0
M  V30 1593 H 144.362 -3.45115 -3.6593 0
M  V30 1594 H 144.062 -5.06788 -2.97388 0
M  V30 1595 H 145.586 -4.74146 -3.84731 0
M  V30 1596 H 147 -5.47582 -1.69785 0
M  V30 1597 H 145.397 -5.91073 -1.03693 0
M  V30 1598 H 146.467 -4.84786 -0.105041 0
M  V30 1599 N 147.81 0.181792 -1.56548 0
M  V30 1600 C 149.05 0.906711 -1.83189 0
M  V30 1601 C 149.414 1.79882 -0.671312 0
M  V30 1602 O 150.615 2.56054 -0.81792 0
M  V30 1603 C 148.886 1.69023 -3.14906 0
M  V30 1604 S 150.445 2.46535 -3.62996 0
M  V30 1605 H 147.263 0.303877 -0.642791 0
M  V30 1606 H 149.865 0.169107 -1.94767 0
M  V30 1607 H 148.569 1.02571 -3.97376 0
M  V30 1608 H 148.1 2.46941 -3.06241 0
M  V30 1609 H 150.115 3.71014 -3.29489 0
M  V30 1610 N 149.288 1.51039 0.449983 0
M  V30 1611 C 150.535 1.63081 1.20045 0
M  V30 1612 C 150.863 0.341024 1.91487 0
M  V30 1613 O 150.118 -0.674276 1.83717 0
M  V30 1614 C 150.417 2.77556 2.25161 0
M  V30 1615 C 150.083 4.17289 1.70823 0
M  V30 1616 C 148.745 4.55305 1.55725 0
M  V30 1617 C 151.097 5.04536 1.3074 0
M  V30 1618 C 148.425 5.78287 0.989999 0
M  V30 1619 C 150.777 6.28085 0.754482 0
M  V30 1620 C 149.441 6.64885 0.590308 0
M  V30 1621 H 148.711 0.596755 0.439277 0
M  V30 1622 H 151.358 1.85037 0.49333 0
M  V30 1623 H 149.663 2.49771 3.01863 0
M  V30 1624 H 151.36 2.84073 2.83026 0
M  V30 1625 H 147.95 3.8731 1.83546 0
M  V30 1626 H 152.134 4.75782 1.41229 0
M  V30 1627 H 147.39 6.05456 0.850451 0
M  V30 1628 H 151.564 6.95038 0.435324 0
M  V30 1629 H 149.191 7.60055 0.14862 0
M  V30 1630 N 150.766 -0.704594 1.40972 0
M  V30 1631 C 151.696 -1.83124 1.44872 0
M  V30 1632 C 152.677 -1.67281 0.30838 0
M  V30 1633 O 153.862 -1.87149 0.518556 0
M  V30 1634 C 150.992 -3.21181 1.32136 0
M  V30 1635 C 149.946 -3.51714 2.43888 0
M  V30 1636 C 149.272 -4.89032 2.16222 0
M  V30 1637 C 150.572 -3.516 3.86232 0
M  V30 1638 H 152.266 -1.80117 2.39161 0
M  V30 1639 H 149.812 -0.865145 1.15114 0
M  V30 1640 H 151.765 -3.99702 1.33479 0
M  V30 1641 H 150.489 -3.24791 0.343279 0
M  V30 1642 H 149.148 -2.75539 2.41813 0
M  V30 1643 H 148.796 -4.89256 1.16778 0
M  V30 1644 H 148.496 -5.10426 2.911 0
M  V30 1645 H 150.02 -5.69873 2.19265 0
M  V30 1646 H 151.434 -4.2014 3.9007 0
M  V30 1647 H 149.831 -3.84523 4.60719 0
M  V30 1648 H 150.901 -2.50757 4.15029 0
M  V30 1649 N 152.244 -1.26651 -0.937939 0
M  V30 1650 C 153.207 -1.08546 -2.01867 0
M  V30 1651 C 154.207 -0.0327327 -1.60767 0
M  V30 1652 O 155.397 -0.276427 -1.71993 0
M  V30 1653 C 152.529 -0.651711 -3.34613 0
M  V30 1654 H 153.722 -2.04502 -2.1936 0
M  V30 1655 H 151.275 -1.09294 -1.11734 0
M  V30 1656 H 152.01 0.309696 -3.22818 0
M  V30 1657 H 151.795 -1.41189 -3.65798 0
M  V30 1658 H 153.285 -0.546973 -4.14002 0
M  V30 1659 N 153.722 1.14298 -1.08507 0
M  V30 1660 C 154.952 1.88945 -0.835663 0
M  V30 1661 C 155.36 1.78894 0.615928 0
M  V30 1662 O 154.703 1.1468 1.43506 0
M  V30 1663 C 154.765 3.39585 -1.17994 0
M  V30 1664 C 154.429 3.7342 -2.63451 0
M  V30 1665 C 155.426 3.73454 -3.61702 0
M  V30 1666 C 153.111 4.03368 -2.99332 0
M  V30 1667 C 155.105 4.02961 -4.93864 0
M  V30 1668 C 152.792 4.32538 -4.31687 0
M  V30 1669 C 153.79 4.32318 -5.28763 0
M  V30 1670 O 153.478 4.6078 -6.58739 0
M  V30 1671 H 153.21 0.605307 -0.300965 0
M  V30 1672 H 155.764 1.45673 -1.44806 0
M  V30 1673 H 153.994 3.83315 -0.51055 0
M  V30 1674 H 155.683 3.9554 -0.911182 0
M  V30 1675 H 156.449 3.50403 -3.35325 0
M  V30 1676 H 152.328 4.02692 -2.24411 0
M  V30 1677 H 155.872 4.02704 -5.69627 0
M  V30 1678 H 151.769 4.55059 -4.57812 0
M  V30 1679 H 152.537 4.78492 -6.64069 0
M  V30 1680 N 155.201 0.870884 1.31352 0
M  V30 1681 C 156.449 0.48132 1.96285 0
M  V30 1682 C 156.77 -0.969813 1.69173 0
M  V30 1683 O 156.04 -1.67998 1.00764 0
M  V30 1684 H 154.62 0.175002 0.726212 0
M  V30 1685 H 157.282 1.11087 1.60143 0
M  V30 1686 H 156.378 0.639825 3.05471 0
M  V30 1687 N 156.679 -1.44442 0.630414 0
M  V30 1688 C 157.928 -2.01267 0.132073 0
M  V30 1689 C 158.241 -1.50172 -1.25331 0
M  V30 1690 O 159.447 -1.9912 -1.84562 0
M  V30 1691 C 157.903 -3.59422 0.185362 0
M  V30 1692 C 157.511 -4.19514 1.57201 0
M  V30 1693 C 159.255 -4.23724 -0.256553 0
M  V30 1694 C 157.162 -5.69891 1.58045 0
M  V30 1695 H 156.092 -0.752619 0.0456092 0
M  V30 1696 H 158.743 -1.65666 0.789106 0
M  V30 1697 H 157.125 -3.92318 -0.538759 0
M  V30 1698 H 158.299 -3.98156 2.31966 0
M  V30 1699 H 156.614 -3.67496 1.95795 0
M  V30 1700 H 159.211 -5.34019 -0.269767 0
M  V30 1701 H 159.554 -3.96013 -1.28372 0
M  V30 1702 H 160.087 -3.95629 0.41505 0
M  V30 1703 H 156.826 -6.02336 2.58597 0
M  V30 1704 H 156.346 -5.93373 0.875725 0
M  V30 1705 H 158.025 -6.33515 1.31408 0
M  V30 1706 N 158.157 -0.370918 -1.53173 0
M  V30 1707 C 159.089 0.507823 -2.23503 0
M  V30 1708 C 160.102 1.04182 -1.251 0
M  V30 1709 O 161.291 0.947286 -1.5129 0
M  V30 1710 C 158.391 1.71447 -2.92334 0
M  V30 1711 C 157.564 1.31105 -4.17289 0
M  V30 1712 C 156.623 2.38035 -4.69282 0
M  V30 1713 O 155.649 2.00204 -5.32829 0
M  V30 1714 N 156.851 3.69697 -4.47554 0
M  V30 1715 H 159.616 -0.0946382 -2.99551 0
M  V30 1716 H 157.177 -0.196358 -1.60705 0
M  V30 1717 H 159.169 2.42469 -3.24023 0
M  V30 1718 H 157.739 2.22368 -2.19707 0
M  V30 1719 H 156.959 0.430462 -3.91843 0
M  V30 1720 H 158.247 1.0179 -4.98514 0
M  V30 1721 H 157.645 4.03205 -3.9679 0
M  V30 1722 H 156.202 4.36807 -4.8378 0
M  V30 1723 N 159.635 1.57281 -0.100228 0
M  V30 1724 C 160.598 2.13158 0.842398 0
M  V30 1725 C 161.598 1.06202 1.20738 0
M  V30 1726 O 162.788 1.32066 1.13597 0
M  V30 1727 C 159.92 2.65639 2.13655 0
M  V30 1728 H 161.113 2.97766 0.357114 0
M  V30 1729 H 158.666 1.5559 0.148823 0
M  V30 1730 H 159.401 1.84566 2.66657 0
M  V30 1731 H 159.186 3.43844 1.88451 0
M  V30 1732 H 160.676 3.08846 2.81077 0
M  V30 1733 N 161.113 -0.173488 1.56642 0
M  V30 1734 C 162.361 -0.888706 1.81512 0
M  V30 1735 C 162.682 -1.82875 0.676872 0
M  V30 1736 O 161.952 -1.93536 -0.303414 0
M  V30 1737 H 160.532 -0.331164 0.669582 0
M  V30 1738 H 163.194 -0.173823 1.94123 0
M  V30 1739 H 162.29 -1.46691 2.75478 0
M  V30 1740 N 162.591 -1.51276 -0.441967 0
M  V30 1741 C 163.819 -1.67516 -1.21434 0
M  V30 1742 C 164.234 -0.37055 -1.85128 0
M  V30 1743 O 163.591 0.650498 -1.70513 0
M  V30 1744 C 163.642 -2.78748 -2.30177 0
M  V30 1745 O 163.363 -4.04154 -1.69089 0
M  V30 1746 C 164.864 -3.06217 -3.20541 0
M  V30 1747 H 162.084 -0.562276 -0.366178 0
M  V30 1748 H 164.628 -1.97666 -0.524244 0
M  V30 1749 H 162.783 -2.5121 -2.94911 0
M  V30 1750 H 163.197 -4.65894 -2.40922 0
M  V30 1751 H 164.671 -3.8764 -3.92987 0
M  V30 1752 H 165.148 -2.18439 -3.81026 0
M  V30 1753 H 165.754 -3.35397 -2.61513 0
M  V30 1754 N 164.069 0.697108 -1.41344 0
M  V30 1755 C 164.979 1.84088 -1.45427 0
M  V30 1756 C 165.995 1.70545 -0.34501 0
M  V30 1757 O 167.171 1.92488 -0.592492 0
M  V30 1758 C 164.236 3.20056 -1.33286 0
M  V30 1759 C 163.297 3.45718 -2.54514 0
M  V30 1760 C 162.53 4.75199 -2.42944 0
M  V30 1761 O 162.753 5.51579 -1.45318 0
M  V30 1762 O 161.687 5.0161 -3.32672 0
M  V30 1763 H 165.513 1.836 -2.41919 0
M  V30 1764 H 163.098 0.849966 -1.22866 0
M  V30 1765 H 164.98 4.01236 -1.28794 0
M  V30 1766 H 163.655 3.2123 -0.39909 0
M  V30 1767 H 162.562 2.64474 -2.64583 0
M  V30 1768 H 163.895 3.49356 -3.46715 0
M  V30 1769 N 165.547 1.27147 0.931209 0
M  V30 1770 C 166.824 1.0401 1.65654 0
M  V30 1771 C 167.204 -0.426297 2.06751 0
M  V30 1772 O 166.552 -1.40879 1.79904 0
M  V30 1773 C 166.762 1.99834 2.86125 0
M  V30 1774 C 168.11 2.29007 3.57549 0
M  V30 1775 O 169.134 1.97779 2.96246 0
M  V30 1776 O 167.993 2.82222 4.67989 0
M  V30 1777 H 165.087 0.396239 0.725895 0
M  V30 1778 H 167.633 1.38397 0.982056 0
M  V30 1779 H 166.405 2.98744 2.52721 0
M  V30 1780 H 166.028 1.65987 3.61295 0
M  V30 1781 N 167.025 -1.13721 1.09112 0
M  V30 1782 C 168.302 -1.81155 0.737706 0
M  V30 1783 C 168.682 -1.96253 -0.777683 0
M  V30 1784 O 168.03 -1.52807 -1.69889 0
M  V30 1785 C 168.24 -3.16392 1.47299 0
M  V30 1786 C 169.588 -3.91787 1.63671 0
M  V30 1787 O 170.612 -3.26005 1.43524 0
M  V30 1788 O 169.471 -5.0977 1.96969 0
M  V30 1789 H 166.565 -0.783518 0.26463 0
M  V30 1790 H 169.111 -1.20676 1.19312 0
M  V30 1791 H 167.883 -3.0061 2.50498 0
M  V30 1792 H 167.506 -3.8457 1.00953 0
M  V30 1793 N 168.503 -0.877838 -1.30888 0
M  V30 1794 C 169.914 -0.544193 -1.78593 0
M  V30 1795 C 170.265 0.939301 -1.72254 0
M  V30 1796 O 169.39 1.7337 -1.29505 0
M  V30 1797 C 169.985 -0.98105 -3.24285 0
M  V30 1798 C 168.544 -0.698935 -3.69854 0
M  V30 1799 C 167.691 -1.168 -2.51502 0
M  V30 1800 H 170.642 -1.06278 -1.17859 0
M  V30 1801 H 170.663 -0.307009 -3.79259 0
M  V30 1802 H 170.175 -2.06079 -3.28866 0
M  V30 1803 H 168.276 0.369112 -3.70767 0
M  V30 1804 H 168.389 -1.28148 -4.61644 0
M  V30 1805 H 166.753 -0.587535 -2.47831 0
M  V30 1806 H 167.536 -2.25533 -2.58824 0
M  V30 1807 N 169.982 1.44106 -0.638065 0
M  V30 1808 C 171.207 2.0685 -0.150916 0
M  V30 1809 C 171.632 1.47417 1.16833 0
M  V30 1810 O 170.99 0.578264 1.71831 0
M  V30 1811 C 171.038 3.60555 -0.05708 0
M  V30 1812 O 170.142 4.00465 0.984972 0
M  V30 1813 H 169.483 0.658151 -0.0879399 0
M  V30 1814 H 172.013 1.84865 -0.876707 0
M  V30 1815 H 172.023 4.07789 0.131232 0
M  V30 1816 H 170.698 4.03193 -1.02021 0
M  V30 1817 H 169.275 3.64849 0.770672 0
M  V30 1818 N 171.46 0.379036 1.52974 0
M  V30 1819 C 172.708 -0.206014 2.01047 0
M  V30 1820 C 173.029 -1.48175 1.26765 0
M  V30 1821 O 172.299 -1.92085 0.384743 0
M  V30 1822 H 170.879 -0.0791184 0.742798 0
M  V30 1823 H 173.541 0.508366 1.88153 0
M  V30 1824 H 172.637 -0.423501 3.09213 0
M  V30 1825 N 172.938 -1.57226 0.108567 0
M  V30 1826 C 174.215 -1.86333 -0.594939 0
M  V30 1827 C 174.595 -1.00788 -1.85486 0
M  V30 1828 O 173.943 -0.0839293 -2.28346 0
M  V30 1829 C 174.153 -3.37265 -0.897405 0
M  V30 1830 C 175.501 -4.05629 -1.25501 0
M  V30 1831 O 176.525 -3.42224 -0.987998 0
M  V30 1832 O 175.384 -5.17531 -1.75567 0
M  V30 1833 H 172.478 -0.771018 -0.2991 0
M  V30 1834 H 175.024 -1.69102 0.142283 0
M  V30 1835 H 173.796 -3.913 -0.00413806 0
M  V30 1836 H 173.419 -3.59889 -1.69014 0
M  V30 1837 N 174.416 0.165178 -1.56732 0
M  V30 1838 C 175.364 1.22369 -1.97809 0
M  V30 1839 C 176.358 1.45488 -0.867741 0
M  V30 1840 O 177.564 1.45995 -1.05288 0
M  V30 1841 H 173.939 0.411486 -0.629431 0
M  V30 1842 H 175.91 0.850425 -2.86025 0
M  V30 1843 C 174.659 2.55403 -2.35934 0
M  V30 1844 H 173.982 2.38438 -3.20916 0
M  V30 1845 H 175.422 3.2814 -2.68514 0
M  V30 1846 C 173.881 3.14611 -1.20506 0
M  V30 1847 O 174.411 3.98626 -0.496016 0
M  V30 1848 N 172.617 2.7379 -0.97403 0
M  V30 1849 H 172.164 2.0557 -1.55238 0
M  V30 1850 H 172.122 3.1374 -0.203573 0
M  V30 1851 N 175.894 1.51508 0.433938 0
M  V30 1852 C 176.824 1.76016 1.53429 0
M  V30 1853 C 177.805 0.610112 1.58782 0
M  V30 1854 O 178.99 0.853177 1.74455 0
M  V30 1855 C 176.12 1.88831 2.9148 0
M  V30 1856 C 175.074 3.04288 3.00987 0
M  V30 1857 C 174.4 3.0229 4.4105 0
M  V30 1858 C 175.7 4.44193 2.74754 0
M  V30 1859 H 177.394 2.68152 1.33171 0
M  V30 1860 H 174.94 1.29035 0.639214 0
M  V30 1861 H 176.893 2.04559 3.6842 0
M  V30 1862 H 175.617 0.933455 3.12976 0
M  V30 1863 H 174.276 2.8827 2.26486 0
M  V30 1864 H 173.924 2.04576 4.59519 0
M  V30 1865 H 173.624 3.79822 4.4834 0
M  V30 1866 H 175.148 3.20116 5.1996 0
M  V30 1867 H 176.562 4.60544 3.41426 0
M  V30 1868 H 174.959 5.23457 2.9345 0
M  V30 1869 H 176.029 4.53996 1.70339 0
M  V30 1870 N 177.372 -0.689602 1.41712 0
M  V30 1871 C 178.602 -1.47613 1.44548 0
M  V30 1872 C 179.01 -1.89132 0.0509034 0
M  V30 1873 O 178.353 -1.57741 -0.94146 0
M  V30 1874 C 178.415 -2.76596 2.2964 0
M  V30 1875 C 178.079 -2.57245 3.77722 0
M  V30 1876 C 179.076 -2.22804 4.69739 0
M  V30 1877 C 176.761 -2.727 4.2183 0
M  V30 1878 C 178.755 -2.04064 6.03851 0
M  V30 1879 C 176.442 -2.53576 5.56006 0
M  V30 1880 C 177.44 -2.1931 6.46832 0
M  V30 1881 O 177.128 -2.00359 7.78532 0
M  V30 1882 H 176.86 -0.461227 0.494212 0
M  V30 1883 H 179.414 -0.856045 1.86711 0
M  V30 1884 H 177.644 -3.41033 1.82301 0
M  V30 1885 H 179.333 -3.38424 2.24107 0
M  V30 1886 H 180.099 -2.10473 4.36951 0
M  V30 1887 H 175.978 -2.98353 3.51435 0
M  V30 1888 H 179.522 -1.77241 6.74708 0
M  V30 1889 H 175.419 -2.65499 5.88371 0
M  V30 1890 H 176.187 -2.15075 7.89737 0
M  V30 1891 N 178.85 -1.27639 -0.924453 0
M  V30 1892 C 179.78 -1.13166 -2.04244 0
M  V30 1893 C 180.761 -0.032256 -1.70069 0
M  V30 1894 O 181.946 -0.207328 -1.9309 0
M  V30 1895 C 179.076 -0.781496 -3.38393 0
M  V30 1896 C 178.03 -1.83449 -3.86692 0
M  V30 1897 C 177.356 -1.33822 -5.17683 0
M  V30 1898 C 178.656 -3.23917 -4.09726 0
M  V30 1899 H 180.35 -2.06689 -2.1661 0
M  V30 1900 H 177.896 -0.995136 -1.04082 0
M  V30 1901 H 179.849 -0.667057 -4.16087 0
M  V30 1902 H 178.573 0.189439 -3.2605 0
M  V30 1903 H 177.232 -1.93789 -3.11193 0
M  V30 1904 H 176.88 -0.35665 -5.01734 0
M  V30 1905 H 176.58 -2.04224 -5.50968 0
M  V30 1906 H 178.104 -1.23679 -5.97943 0
M  V30 1907 H 179.518 -3.16559 -4.77978 0
M  V30 1908 H 177.915 -3.92059 -4.54324 0
M  V30 1909 H 178.985 -3.68729 -3.14908 0
M  V30 1910 N 180.328 1.1314 -1.09713 0
M  V30 1911 C 181.576 1.84119 -0.833338 0
M  V30 1912 C 181.897 1.84097 0.642904 0
M  V30 1913 O 181.167 1.29881 1.46655 0
M  V30 1914 H 179.747 0.681766 -0.305293 0
M  V30 1915 H 182.409 1.37038 -1.38588 0
M  V30 1916 H 181.505 2.88543 -1.18951 0
M  V30 1917 N 181.806 0.884767 1.30421 0
M  V30 1918 C 183.055 0.499164 1.95426 0
M  V30 1919 C 183.368 -0.95645 1.70621 0
M  V30 1920 O 184.574 -1.44889 2.29607 0
M  V30 1921 C 183.03 0.84177 3.49917 0
M  V30 1922 C 182.638 2.31514 3.83543 0
M  V30 1923 C 184.382 0.525355 4.21237 0
M  V30 1924 C 182.289 2.59939 5.31212 0
M  V30 1925 H 181.219 0.182944 0.73147 0
M  V30 1926 H 183.87 1.07971 1.48373 0
M  V30 1927 H 182.252 0.190311 3.95542 0
M  V30 1928 H 183.426 3.0109 3.48829 0
M  V30 1929 H 181.741 2.59907 3.25326 0
M  V30 1930 H 184.338 0.714762 5.29901 0
M  V30 1931 H 184.681 -0.535222 4.12845 0
M  V30 1932 H 185.214 1.134 3.81294 0
M  V30 1933 H 181.953 3.64736 5.44654 0
M  V30 1934 H 181.473 1.94972 5.67227 0
M  V30 1935 H 183.152 2.45429 5.98643 0
M  V30 1936 N 183.284 -1.43765 0.645699 0
M  V30 1937 C 184.53 -2.02197 0.156271 0
M  V30 1938 C 184.863 -1.50776 -1.22393 0
M  V30 1939 O 184.138 -0.697771 -1.81553 0
M  V30 1940 C 184.421 -3.59749 0.158872 0
M  V30 1941 C 184.274 -4.21419 1.57245 0
M  V30 1942 C 185.593 -4.37149 -0.50879 0
M  V30 1943 H 182.712 -0.734694 0.0582602 0
M  V30 1944 H 185.354 -1.71157 0.824951 0
M  V30 1945 H 183.504 -3.86325 -0.410525 0
M  V30 1946 H 185.176 -4.059 2.19186 0
M  V30 1947 H 183.419 -3.78356 2.122 0
M  V30 1948 H 184.09 -5.30482 1.52619 0
M  V30 1949 H 186.566 -4.16093 -0.024412 0
M  V30 1950 H 185.442 -5.4683 -0.476213 0
M  V30 1951 H 185.703 -4.12839 -1.58165 0
M  V30 1952 N 184.763 -0.387143 -1.52771 0
M  V30 1953 C 185.693 0.440551 -2.29306 0
M  V30 1954 C 186.674 1.06535 -1.32606 0
M  V30 1955 O 187.859 1.07853 -1.61497 0
M  V30 1956 C 184.989 1.56919 -3.09829 0
M  V30 1957 C 183.943 1.07054 -4.14395 0
M  V30 1958 C 183.269 2.29109 -4.83129 0
M  V30 1959 C 184.569 0.140015 -5.22112 0
M  V30 1960 H 186.263 -0.198026 -2.98744 0
M  V30 1961 H 183.809 -0.09668 -1.43675 0
M  V30 1962 H 185.762 2.15503 -3.62128 0
M  V30 1963 H 184.486 2.23532 -2.3812 0
M  V30 1964 H 183.145 0.507247 -3.63074 0
M  V30 1965 H 182.793 2.94227 -4.0797 0
M  V30 1966 H 182.493 1.96406 -5.53804 0
M  V30 1967 H 184.017 2.88339 -5.38231 0
M  V30 1968 H 185.431 0.633978 -5.69784 0
M  V30 1969 H 183.828 -0.0971485 -6.00021 0
M  V30 1970 H 184.898 -0.811711 -4.78058 0
M  V30 1971 N 186.241 1.57166 -0.116904 0
M  V30 1972 C 187.204 2.14039 0.819742 0
M  V30 1973 C 188.204 1.07477 1.19605 0
M  V30 1974 O 189.394 1.33263 1.1219 0
M  V30 1975 C 186.526 2.67891 2.10826 0
M  V30 1976 H 187.719 2.98128 0.325511 0
M  V30 1977 H 185.272 1.55739 0.132312 0
M  V30 1978 H 186.007 1.87384 2.64685 0
M  V30 1979 H 185.792 3.45823 1.84793 0
M  V30 1980 H 187.282 3.11809 2.77785 0
M  V30 1981 N 187.719 -0.156864 1.56817 0
M  V30 1982 C 188.682 -1.17781 1.96622 0
M  V30 1983 C 189.682 -1.36401 0.851555 0
M  V30 1984 O 190.872 -1.33561 1.11836 0
M  V30 1985 C 188.004 -2.54008 2.27361 0
M  V30 1986 H 189.197 -0.836564 2.87996 0
M  V30 1987 H 186.75 -0.39985 1.51099 0
M  V30 1988 H 187.485 -2.9312 1.38748 0
M  V30 1989 H 187.27 -2.41856 3.08623 0
M  V30 1990 H 188.76 -3.27558 2.59029 0
M  V30 1991 N 189.197 -1.51736 -0.425897 0
M  V30 1992 C 190.443 -1.65214 -1.1761 0
M  V30 1993 C 190.776 -0.372778 -1.90589 0
M  V30 1994 O 190.051 0.628139 -1.84078 0
M  V30 1995 C 190.334 -2.86312 -2.18398 0
M  V30 1996 C 190.187 -4.24254 -1.49426 0
M  V30 1997 C 191.506 -3.02925 -3.19256 0
M  V30 1998 H 188.625 -0.601263 -0.426206 0
M  V30 1999 H 191.267 -1.8425 -0.463882 0
M  V30 2000 H 189.417 -2.70213 -2.79137 0
M  V30 2001 H 191.089 -4.52046 -0.919362 0
M  V30 2002 H 189.332 -4.26426 -0.796432 0
M  V30 2003 H 190.003 -5.05001 -2.22885 0
M  V30 2004 H 192.479 -3.1781 -2.68581 0
M  V30 2005 H 191.355 -3.89199 -3.8706 0
M  V30 2006 H 191.616 -2.15497 -3.86023 0
M  V30 2007 N 190.675 0.682077 -1.42076 0
M  V30 2008 C 191.921 1.44428 -1.42367 0
M  V30 2009 C 192.254 1.94164 -0.0373056 0
M  V30 2010 O 191.529 1.70429 0.937239 0
M  V30 2011 C 191.812 2.64654 -2.44194 0
M  V30 2012 C 191.665 2.20596 -3.91991 0
M  V30 2013 C 192.984 3.66865 -2.431 0
M  V30 2014 H 190.103 0.523834 -0.518428 0
M  V30 2015 H 192.745 0.77576 -1.73442 0
M  V30 2016 H 190.895 3.2169 -2.17826 0
M  V30 2017 H 192.567 1.68783 -4.29313 0
M  V30 2018 H 190.81 1.52242 -4.06208 0
M  V30 2019 H 191.481 3.06921 -4.58807 0
M  V30 2020 H 193.957 3.19531 -2.66532 0
M  V30 2021 H 192.833 4.48577 -3.16339 0
M  V30 2022 H 193.094 4.17493 -1.45437 0
M  V30 2023 N 192.153 1.28127 0.917671 0
M  V30 2024 C 193.402 1.14432 1.66097 0
M  V30 2025 C 193.715 -0.307247 1.93172 0
M  V30 2026 O 194.921 -0.565259 2.65551 0
M  V30 2027 C 193.377 2.00015 2.99202 0
M  V30 2028 C 192.985 3.49889 2.79789 0
M  V30 2029 C 194.729 1.94996 3.77064 0
M  V30 2030 C 192.636 4.27636 4.08511 0
M  V30 2031 H 191.566 0.424662 0.62304 0
M  V30 2032 H 194.217 1.52628 1.01868 0
M  V30 2033 H 192.599 1.54672 3.64544 0
M  V30 2034 H 193.773 4.03162 2.23152 0
M  V30 2035 H 192.088 3.56392 2.15345 0
M  V30 2036 H 194.685 2.50354 4.72469 0
M  V30 2037 H 195.028 0.925819 4.05875 0
M  V30 2038 H 195.561 2.38287 3.18534 0
M  V30 2039 H 192.3 5.30615 3.84874 0
M  V30 2040 H 191.82 3.79137 4.64774 0
M  V30 2041 H 193.499 4.37346 4.76799 0
M  V30 2042 N 193.631 -1.12557 1.10312 0
M  V30 2043 C 194.88 -1.83395 0.839588 0
M  V30 2044 C 195.193 -1.84939 -0.636929 0
M  V30 2045 O 196.399 -2.51761 -1.01631 0
M  V30 2046 C 194.855 -3.29303 1.45215 0
M  V30 2047 C 194.463 -3.36122 2.96186 0
M  V30 2048 C 196.207 -4.05121 1.26796 0
M  V30 2049 C 194.114 -4.76357 3.50483 0
M  V30 2050 H 193.044 -0.687133 0.310425 0
M  V30 2051 H 195.695 -1.26746 1.32694 0
M  V30 2052 H 194.077 -3.85812 0.892469 0
M  V30 2053 H 195.251 -2.89559 3.58458 0
M  V30 2054 H 193.566 -2.73776 3.13745 0
M  V30 2055 H 196.163 -5.08668 1.64806 0
M  V30 2056 H 196.506 -4.15773 0.209409 0
M  V30 2057 H 197.039 -3.54967 1.79563 0
M  V30 2058 H 193.778 -4.70899 4.55998 0
M  V30 2059 H 193.298 -5.23377 2.92978 0
M  V30 2060 H 194.977 -5.45294 3.48228 0
M  V30 2061 N 195.109 -0.891671 -1.2995 0
M  V30 2062 C 196.337 -0.52866 -2.00032 0
M  V30 2063 C 196.752 0.884574 -1.66795 0
M  V30 2064 O 196.109 1.5827 -0.908669 0
M  V30 2065 C 196.16 -0.701814 -3.54622 0
M  V30 2066 O 195.881 -2.05942 -3.86678 0
M  V30 2067 C 197.382 -0.342683 -4.41973 0
M  V30 2068 H 194.602 -0.203659 -0.639347 0
M  V30 2069 H 197.146 -1.19881 -1.65677 0
M  V30 2070 H 195.301 -0.0789468 -3.8732 0
M  V30 2071 H 195.715 -2.08291 -4.81368 0
M  V30 2072 H 197.189 -0.514709 -5.49595 0
M  V30 2073 H 197.666 0.71975 -4.33262 0
M  V30 2074 H 198.272 -0.942154 -4.14733 0
M  V30 2075 N 196.587 1.43421 -0.653314 0
M  V30 2076 C 197.835 2.01414 -0.166415 0
M  V30 2077 C 198.156 1.51803 1.22397 0
M  V30 2078 O 197.426 0.730693 1.81763 0
M  V30 2079 H 196.006 0.744703 -0.0585319 0
M  V30 2080 H 198.668 1.75629 -0.845003 0
M  V30 2081 H 197.764 3.11734 -0.151111 0
M  V30 2082 N 198.065 0.39524 1.52563 0
M  V30 2083 C 199.305 -0.184744 2.03563 0
M  V30 2084 C 199.669 -1.43548 1.27507 0
M  V30 2085 O 200.87 -2.093 1.68662 0
M  V30 2086 C 199.141 -0.440294 3.54678 0
M  V30 2087 S 200.7 -0.989712 4.27493 0
M  V30 2088 H 197.518 -0.0515075 0.709132 0
M  V30 2089 H 200.12 0.544957 1.87751 0
M  V30 2090 H 198.824 0.477005 4.07618 0
M  V30 2091 H 198.355 -1.19825 3.74707 0
M  V30 2092 H 200.37 -2.27155 4.41152 0
M  V30 2093 N 199.544 -1.57102 0.125237 0
M  V30 2094 C 200.791 -1.95407 -0.531248 0
M  V30 2095 C 201.119 -1.0089 -1.66287 0
M  V30 2096 O 200.374 -0.0339431 -1.95671 0
M  V30 2097 C 200.673 -3.40096 -1.09862 0
M  V30 2098 C 200.339 -4.50815 -0.0876989 0
M  V30 2099 C 199.001 -4.80824 0.19026 0
M  V30 2100 C 201.353 -5.17724 0.600902 0
M  V30 2101 C 198.681 -5.75058 1.163 0
M  V30 2102 C 201.033 -6.13005 1.56231 0
M  V30 2103 C 199.697 -6.41403 1.8482 0
M  V30 2104 H 198.967 -0.715046 -0.194397 0
M  V30 2105 H 201.614 -1.90373 0.207463 0
M  V30 2106 H 199.919 -3.41855 -1.91422 0
M  V30 2107 H 201.616 -3.6705 -1.61478 0
M  V30 2108 H 198.206 -4.27444 -0.314528 0
M  V30 2109 H 202.39 -4.94691 0.399333 0
M  V30 2110 H 197.646 -5.95362 1.39117 0
M  V30 2111 H 201.82 -6.63934 2.10153 0
M  V30 2112 H 199.447 -7.14229 2.60349 0
M  V30 2113 N 201.022 0.148545 -1.56898 0
M  V30 2114 C 202.247 0.880385 -1.87787 0
M  V30 2115 C 202.672 1.74018 -0.714093 0
M  V30 2116 O 202.03 1.78153 0.336343 0
M  V30 2117 C 202.078 1.71422 -3.17249 0
M  V30 2118 O 201.182 2.8183 -3.01074 0
M  V30 2119 H 200.523 0.245301 -0.617028 0
M  V30 2120 H 203.053 0.139826 -2.04122 0
M  V30 2121 H 203.063 2.10954 -3.49231 0
M  V30 2122 H 201.738 1.08284 -4.01556 0
M  V30 2123 H 200.315 2.45715 -2.80497 0
M  V30 2124 N 202.5 1.5196 0.417844 0
M  V30 2125 C 203.73 1.69181 1.18581 0
M  V30 2126 C 204.138 0.397104 1.84986 0
M  V30 2127 O 203.481 -0.636011 1.72339 0
M  V30 2128 C 203.543 2.76497 2.29759 0
M  V30 2129 C 203.207 4.18514 1.83563 0
M  V30 2130 C 204.204 5.02648 1.32821 0
M  V30 2131 C 201.889 4.64708 1.90661 0
M  V30 2132 C 203.883 6.31044 0.897894 0
M  V30 2133 C 201.57 5.93096 1.47241 0
M  V30 2134 C 202.568 6.76093 0.968891 0
M  V30 2135 O 202.256 8.02078 0.540924 0
M  V30 2136 H 201.988 0.570457 0.362705 0
M  V30 2137 H 204.542 1.99249 0.498885 0
M  V30 2138 H 202.772 2.41786 3.01789 0
M  V30 2139 H 204.461 2.82403 2.91553 0
M  V30 2140 H 205.227 4.68154 1.26716 0
M  V30 2141 H 201.106 4.00216 2.28797 0
M  V30 2142 H 204.65 6.95776 0.504192 0
M  V30 2143 H 200.547 6.271 1.53022 0
M  V30 2144 H 201.315 8.15794 0.66502 0
M  V30 2145 N 203.978 -0.674533 1.42435 0
M  V30 2146 C 205.208 -1.46071 1.46105 0
M  V30 2147 C 205.616 -1.89067 0.0709605 0
M  V30 2148 O 204.959 -1.58731 -0.924677 0
M  V30 2149 C 205.021 -2.74145 2.32561 0
M  V30 2150 C 204.685 -2.53224 3.8043 0
M  V30 2151 C 205.682 -2.17809 4.72075 0
M  V30 2152 C 203.367 -2.6821 4.24698 0
M  V30 2153 C 205.361 -1.97648 6.05982 0
M  V30 2154 C 203.048 -2.47665 5.58664 0
M  V30 2155 C 204.046 -2.12437 6.49122 0
M  V30 2156 O 203.734 -1.9209 7.80613 0
M  V30 2157 H 203.466 -0.455959 0.499076 0
M  V30 2158 H 206.02 -0.836193 1.87609 0
M  V30 2159 H 204.25 -3.3908 1.85908 0
M  V30 2160 H 205.939 -3.36028 2.27683 0
M  V30 2161 H 206.705 -2.05826 4.39159 0
M  V30 2162 H 202.584 -2.94609 3.54579 0
M  V30 2163 H 206.128 -1.70075 6.7655 0
M  V30 2164 H 202.025 -2.59244 5.91154 0
M  V30 2165 H 202.793 -2.06686 7.91974 0
M  V30 2166 N 205.456 -1.28612 -0.910864 0
M  V30 2167 C 206.388 -1.08589 -2.01844 0
M  V30 2168 C 207.401 -0.0367419 -1.62759 0
M  V30 2169 O 208.59 -0.280101 -1.76289 0
M  V30 2170 C 205.69 -0.628626 -3.33019 0
M  V30 2171 C 204.863 -1.75382 -4.00699 0
M  V30 2172 C 203.922 -1.28945 -5.10156 0
M  V30 2173 O 202.948 -1.9922 -5.33198 0
M  V30 2174 N 204.15 -0.154224 -5.80295 0
M  V30 2175 H 206.915 -2.03973 -2.19579 0
M  V30 2176 H 204.476 -1.20403 -1.08234 0
M  V30 2177 H 206.468 -0.301508 -4.03575 0
M  V30 2178 H 205.038 0.232451 -3.11735 0
M  V30 2179 H 204.258 -2.25039 -3.23653 0
M  V30 2180 H 205.546 -2.50854 -4.42662 0
M  V30 2181 H 204.944 0.43194 -5.64049 0
M  V30 2182 H 203.501 0.113599 -6.51701 0
M  V30 2183 N 206.934 1.1197 -1.10907 0
M  V30 2184 C 207.844 2.21433 -0.774896 0
M  V30 2185 C 208.86 1.72478 0.229657 0
M  V30 2186 O 210.036 2.01288 0.0672008 0
M  V30 2187 C 207.101 3.4602 -0.216986 0
M  V30 2188 C 206.162 4.09791 -1.27944 0
M  V30 2189 C 205.395 5.28431 -0.748055 0
M  V30 2190 O 205.618 5.68823 0.423833 0
M  V30 2191 O 204.552 5.82644 -1.51027 0
M  V30 2192 H 208.378 2.5242 -1.68873 0
M  V30 2193 H 205.963 1.20399 -0.884555 0
M  V30 2194 H 207.845 4.21304 0.090059 0
M  V30 2195 H 206.52 3.16698 0.669633 0
M  V30 2196 H 205.427 3.36265 -1.63941 0
M  V30 2197 H 206.76 4.4328 -2.13925 0
M  V30 2198 N 208.412 0.89855 1.29475 0
M  V30 2199 C 209.375 0.380272 2.26023 0
M  V30 2200 C 210.375 -0.484891 1.53315 0
M  V30 2201 O 211.565 -0.290108 1.71767 0
M  V30 2202 C 208.697 -0.45651 3.3783 0
M  V30 2203 H 209.89 1.23295 2.73383 0
M  V30 2204 H 207.443 0.676589 1.40897 0
M  V30 2205 H 208.178 -1.32922 2.95808 0
M  V30 2206 H 207.963 0.163393 3.91759 0
M  V30 2207 H 209.453 -0.810466 4.0966 0
M  V30 2208 N 209.89 -1.43072 0.660911 0
M  V30 2209 C 210.837 -2.30785 -0.0259884 0
M  V30 2210 C 211.807 -1.45184 -0.806888 0
M  V30 2211 O 212.992 -1.74041 -0.781943 0
M  V30 2212 C 210.132 -3.30861 -0.981067 0
M  V30 2213 C 209.245 -4.31558 -0.195458 0
M  V30 2214 C 208.38 -5.18712 -1.14503 0
M  V30 2215 C 207.419 -6.11097 -0.350299 0
M  V30 2216 N 206.556 -6.90849 -1.25186 0
M  V30 2217 H 211.396 -2.88975 0.727846 0
M  V30 2218 H 208.933 -1.42353 0.370682 0
M  V30 2219 H 210.891 -3.87399 -1.54849 0
M  V30 2220 H 209.521 -2.74304 -1.70169 0
M  V30 2221 H 208.573 -3.77252 0.488374 0
M  V30 2222 H 209.885 -4.9701 0.422176 0
M  V30 2223 H 209.039 -5.79914 -1.78284 0
M  V30 2224 H 207.778 -4.53404 -1.79656 0
M  V30 2225 H 206.783 -5.48976 0.300808 0
M  V30 2226 H 208.008 -6.7845 0.296941 0
M  V30 2227 H 205.954 -6.28182 -1.89005 0
M  V30 2228 H 205.871 -7.52854 -0.688971 0
M  V30 2229 H 207.139 -7.5655 -1.87757 0
M  V30 2230 N 211.368 -0.403325 -1.52352 0
M  V30 2231 C 212.593 0.176499 -2.06648 0
M  V30 2232 C 213.018 1.38577 -1.27193 0
M  V30 2233 O 212.376 1.7879 -0.300637 0
M  V30 2234 C 212.424 0.511061 -3.5696 0
M  V30 2235 O 211.528 1.60294 -3.79973 0
M  V30 2236 H 210.869 0.0167337 -0.663789 0
M  V30 2237 H 213.399 -0.574848 -1.96359 0
M  V30 2238 H 213.409 0.771362 -4.00642 0
M  V30 2239 H 212.084 -0.37296 -4.14224 0
M  V30 2240 H 210.661 1.33526 -3.48174 0
M  V30 2241 N 212.846 1.57033 -0.133567 0
M  V30 2242 C 214.071 2.00475 0.531477 0
M  V30 2243 C 214.496 1.01291 1.58499 0
M  V30 2244 O 213.854 -0.0133279 1.81295 0
M  V30 2245 C 213.902 3.42729 1.12113 0
M  V30 2246 O 213.006 3.46498 2.23636 0
M  V30 2247 H 212.347 0.650876 0.131362 0
M  V30 2248 H 214.877 2.03344 -0.22634 0
M  V30 2249 H 214.887 3.81246 1.4531 0
M  V30 2250 H 213.562 4.14428 0.349557 0
M  V30 2251 H 212.139 3.19811 1.91769 0
M  V30 2252 N 214.325 -0.140222 1.56975 0
M  V30 2253 C 215.272 -1.17292 1.98774 0
M  V30 2254 C 216.242 -1.4232 0.856408 0
M  V30 2255 O 217.427 -1.54541 1.119 0
M  V30 2256 C 214.567 -2.49973 2.37923 0
M  V30 2257 C 213.68 -2.32062 3.64378 0
M  V30 2258 C 212.815 -3.57825 3.926 0
M  V30 2259 C 211.854 -3.3498 5.12303 0
M  V30 2260 N 210.991 -4.52891 5.36502 0
M  V30 2261 H 215.831 -0.809472 2.86795 0
M  V30 2262 H 213.368 -0.388237 1.41884 0
M  V30 2263 H 215.326 -3.27346 2.58652 0
M  V30 2264 H 213.956 -2.84252 1.52972 0
M  V30 2265 H 213.008 -1.45711 3.51387 0
M  V30 2266 H 214.32 -2.11145 4.51906 0
M  V30 2267 H 213.474 -4.43624 4.13863 0
M  V30 2268 H 212.213 -3.81753 3.03506 0
M  V30 2269 H 211.218 -2.4757 4.90906 0
M  V30 2270 H 212.443 -3.12444 6.02956 0
M  V30 2271 H 210.389 -4.76979 4.50363 0
M  V30 2272 H 210.306 -4.35001 6.18312 0
M  V30 2273 H 211.574 -5.39884 5.62268 0
M  V30 2274 N 215.803 -1.52179 -0.40978 0
M  V30 2275 C 217.052 -1.65434 -1.15388 0
M  V30 2276 C 217.365 -0.390056 -1.91671 0
M  V30 2277 O 218.571 -0.402399 -2.68501 0
M  V30 2278 C 217.027 -2.92279 -2.10003 0
M  V30 2279 C 216.635 -4.25813 -1.39239 0
M  V30 2280 C 218.379 -3.14897 -2.84675 0
M  V30 2281 C 216.286 -5.43782 -2.32498 0
M  V30 2282 H 215.216 -0.616267 -0.434432 0
M  V30 2283 H 217.867 -1.78666 -0.418401 0
M  V30 2284 H 216.249 -2.72744 -2.871 0
M  V30 2285 H 217.423 -4.55828 -0.675099 0
M  V30 2286 H 215.738 -4.09292 -0.766097 0
M  V30 2287 H 218.335 -4.0021 -3.54593 0
M  V30 2288 H 218.678 -2.29103 -3.47588 0
M  V30 2289 H 219.211 -3.34901 -2.14677 0
M  V30 2290 H 215.95 -6.3192 -1.74233 0
M  V30 2291 H 215.47 -5.18106 -3.02201 0
M  V30 2292 H 217.149 -5.76834 -2.93038 0
M  V30 2293 N 217.281 0.66697 -1.42791 0
M  V30 2294 C 218.214 1.79177 -1.41318 0
M  V30 2295 C 219.192 1.60234 -0.276401 0
M  V30 2296 O 220.376 1.82602 -0.46785 0
M  V30 2297 C 217.503 3.16289 -1.21157 0
M  V30 2298 C 216.549 3.53964 -2.37932 0
M  V30 2299 S 217.382 3.55501 -4.00474 0
M  V30 2300 C 218.538 4.95292 -3.8267 0
M  V30 2301 H 218.771 1.80153 -2.365 0
M  V30 2302 H 216.304 0.838357 -1.29657 0
M  V30 2303 H 218.262 3.95428 -1.10212 0
M  V30 2304 H 216.923 3.1289 -0.275481 0
M  V30 2305 H 216.116 4.53646 -2.19594 0
M  V30 2306 H 215.718 2.82204 -2.45432 0
M  V30 2307 H 218.01 5.83584 -3.44145 0
M  V30 2308 H 218.953 5.18679 -4.82055 0
M  V30 2309 H 219.361 4.68179 -3.15386 0
M  V30 2310 N 218.759 1.29093 0.90403 0
M  V30 2311 C 219.669 1.15727 2.0407 0
M  V30 2312 C 220.685 0.0815308 1.73809 0
M  V30 2313 O 221.861 0.292749 1.99261 0
M  V30 2314 C 218.926 0.830424 3.36608 0
M  V30 2315 C 217.987 1.98955 3.80415 0
M  V30 2316 C 217.22 1.6782 5.06628 0
M  V30 2317 O 217.443 0.597105 5.67266 0
M  V30 2318 O 216.377 2.52486 5.46383 0
M  V30 2319 H 220.203 2.11171 2.18267 0
M  V30 2320 H 217.788 1.08504 1.027 0
M  V30 2321 H 219.67 0.662521 4.16159 0
M  V30 2322 H 218.345 -0.0942678 3.23563 0
M  V30 2323 H 217.252 2.21267 3.01648 0
M  V30 2324 H 218.585 2.89529 3.98037 0
M  V30 2325 N 220.237 -1.11381 1.11499 0
M  V30 2326 C 221.462 -1.87475 0.887019 0
M  V30 2327 C 221.887 -1.79639 -0.557796 0
M  V30 2328 O 221.245 -1.15924 -1.39396 0
M  V30 2329 C 221.293 -3.34213 1.35403 0
M  V30 2330 O 220.397 -4.0903 0.526146 0
M  V30 2331 H 219.738 -0.582099 0.319463 0
M  V30 2332 H 222.268 -1.40785 1.48461 0
M  V30 2333 H 222.278 -3.8506 1.34881 0
M  V30 2334 H 220.953 -3.39232 2.40612 0
M  V30 2335 H 219.53 -3.68082 0.597522 0
M  V30 2336 N 221.715 -0.905404 -1.28997 0
M  V30 2337 C 222.962 -0.534248 -1.95325 0
M  V30 2338 C 223.29 0.920535 -1.71337 0
M  V30 2339 O 222.545 1.66861 -1.02254 0
M  V30 2340 C 222.844 -0.779906 -3.48787 0
M  V30 2341 C 222.51 -2.21293 -3.92861 0
M  V30 2342 C 221.172 -2.60475 -4.04606 0
M  V30 2343 C 223.524 -3.14587 -4.15553 0
M  V30 2344 C 220.852 -3.9212 -4.36416 0
M  V30 2345 C 223.204 -4.45787 -4.48839 0
M  V30 2346 C 221.868 -4.84834 -4.58794 0
M  V30 2347 H 221.138 -0.195495 -0.714747 0
M  V30 2348 H 223.785 -1.14514 -1.53488 0
M  V30 2349 H 222.09 -0.0861365 -3.91705 0
M  V30 2350 H 223.787 -0.472029 -3.98212 0
M  V30 2351 H 220.377 -1.89887 -3.84241 0
M  V30 2352 H 224.561 -2.85528 -4.0594 0
M  V30 2353 H 219.817 -4.22086 -4.42327 0
M  V30 2354 H 223.991 -5.18098 -4.65346 0
M  V30 2355 H 221.618 -5.86877 -4.83197 0
M  V30 2356 N 223.193 1.4272 -0.668489 0
M  V30 2357 C 224.14 2.30796 0.0137489 0
M  V30 2358 C 225.11 1.4561 0.799177 0
M  V30 2359 O 226.295 1.74453 0.772702 0
M  V30 2360 C 223.435 3.31377 0.963507 0
M  V30 2361 C 222.548 4.31655 0.172569 0
M  V30 2362 C 221.683 5.19312 1.1175 0
M  V30 2363 C 220.722 6.11274 0.317886 0
M  V30 2364 N 219.859 6.91504 1.2152 0
M  V30 2365 H 224.699 2.88585 -0.743161 0
M  V30 2366 H 222.236 1.42154 -0.378226 0
M  V30 2367 H 224.194 3.88214 1.52792 0
M  V30 2368 H 222.824 2.75202 1.68712 0
M  V30 2369 H 221.876 3.76988 -0.508374 0
M  V30 2370 H 223.188 4.96779 -0.448527 0
M  V30 2371 H 222.342 5.80851 1.75206 0
M  V30 2372 H 221.081 4.5435 1.77249 0
M  V30 2373 H 220.086 5.48809 -0.329918 0
M  V30 2374 H 221.311 6.78283 -0.332917 0
M  V30 2375 H 219.257 6.29176 1.85671 0
M  V30 2376 H 219.174 7.53209 0.649036 0
M  V30 2377 H 220.442 7.57535 1.83742 0
M  V30 2378 N 224.671 0.411399 1.52136 0
M  V30 2379 C 225.619 -0.427633 2.28635 0
M  V30 2380 C 226.613 -1.04383 1.33419 0
M  V30 2381 O 227.819 -0.981772 1.50868 0
M  V30 2382 H 224.194 -0.156689 0.735495 0
M  V30 2383 H 226.165 0.238761 2.97443 0
M  V30 2384 C 224.914 -1.53082 3.12188 0
M  V30 2385 H 224.237 -1.06601 3.85326 0
M  V30 2386 H 225.677 -2.09167 3.68816 0
M  V30 2387 C 224.136 -2.49946 2.25895 0
M  V30 2388 O 224.666 -3.53884 1.90076 0
M  V30 2389 N 222.872 -2.2021 1.8962 0
M  V30 2390 H 222.419 -1.35719 2.18948 0
M  V30 2391 H 222.377 -2.85266 1.32176 0
M  V30 2392 N 226.149 -1.5696 0.141893 0
M  V30 2393 C 227.082 -2.12271 -0.837627 0
M  V30 2394 C 228.06 -1.04495 -1.24578 0
M  V30 2395 O 229.244 -1.32293 -1.34278 0
M  V30 2396 C 226.371 -2.63822 -2.12404 0
M  V30 2397 C 225.417 -3.83698 -1.86221 0
M  V30 2398 S 226.25 -5.24948 -1.05781 0
M  V30 2399 C 227.406 -5.79884 -2.35552 0
M  V30 2400 H 227.639 -2.95023 -0.367249 0
M  V30 2401 H 225.172 -1.54231 -0.0723014 0
M  V30 2402 H 227.13 -2.94175 -2.86307 0
M  V30 2403 H 225.791 -1.8121 -2.56557 0
M  V30 2404 H 224.984 -4.17995 -2.81596 0
M  V30 2405 H 224.586 -3.5408 -1.20429 0
M  V30 2406 H 226.878 -5.91005 -3.31239 0
M  V30 2407 H 227.821 -6.77544 -2.05767 0
M  V30 2408 H 228.229 -5.08095 -2.45967 0
M  V30 2409 N 227.627 0.131896 -1.57047 0
M  V30 2410 C 228.873 0.843179 -1.84441 0
M  V30 2411 C 229.206 1.80129 -0.725749 0
M  V30 2412 O 228.481 1.92624 0.269469 0
M  V30 2413 C 228.764 1.60442 -3.22382 0
M  V30 2414 C 228.617 0.666782 -4.4483 0
M  V30 2415 C 229.936 2.56354 -3.5773 0
M  V30 2416 H 227.055 0.305081 -0.670891 0
M  V30 2417 H 229.697 0.107839 -1.89694 0
M  V30 2418 H 227.847 2.23128 -3.18035 0
M  V30 2419 H 229.519 0.0497646 -4.61273 0
M  V30 2420 H 227.762 -0.022609 -4.33794 0
M  V30 2421 H 228.433 1.23579 -5.37989 0
M  V30 2422 H 230.909 2.0378 -3.62785 0
M  V30 2423 H 229.785 3.06657 -4.5525 0
M  V30 2424 H 230.046 3.38419 -2.84473 0
M  V30 2425 N 229.106 1.52395 0.401703 0
M  V30 2426 C 230.517 1.58899 0.980202 0
M  V30 2427 C 230.868 0.434032 1.91339 0
M  V30 2428 O 229.993 -0.444619 2.11783 0
M  V30 2429 C 230.588 2.87994 1.78451 0
M  V30 2430 C 229.147 2.96953 2.31292 0
M  V30 2431 C 228.294 2.53903 1.11483 0
M  V30 2432 H 231.245 1.57657 0.18168 0
M  V30 2433 H 231.266 2.73765 2.64259 0
M  V30 2434 H 230.778 3.72035 1.10506 0
M  V30 2435 H 228.879 2.17422 3.02586 0
M  V30 2436 H 228.992 4.01344 2.61649 0
M  V30 2437 H 227.356 2.07925 1.47104 0
M  V30 2438 H 228.139 3.40326 0.450928 0
M  V30 2439 N 230.584 -0.659388 1.43143 0
M  V30 2440 C 231.516 -1.7849 1.43784 0
M  V30 2441 C 232.529 -1.5932 0.334787 0
M  V30 2442 O 233.718 -1.68155 0.598842 0
M  V30 2443 C 230.818 -3.15828 1.22906 0
M  V30 2444 C 229.991 -3.61711 2.45934 0
M  V30 2445 C 229.05 -4.77831 2.20371 0
M  V30 2446 O 228.076 -4.87586 2.93681 0
M  V30 2447 N 229.278 -5.67611 1.21647 0
M  V30 2448 H 232.043 -1.7842 2.40803 0
M  V30 2449 H 229.604 -0.84302 1.3822 0
M  V30 2450 H 231.596 -3.91189 1.03697 0
M  V30 2451 H 230.166 -3.10707 0.343542 0
M  V30 2452 H 229.386 -2.76861 2.80609 0
M  V30 2453 H 230.674 -3.89112 3.27825 0
M  V30 2454 H 230.072 -5.62397 0.610449 0
M  V30 2455 H 228.629 -6.42719 1.08423 0
M  V30 2456 N 232.062 -1.29571 -0.897171 0
M  V30 2457 C 232.994 -1.10724 -2.00681 0
M  V30 2458 C 234.007 -0.0540026 -1.6271 0
M  V30 2459 O 235.196 -0.298783 -1.75982 0
M  V30 2460 C 232.296 -0.663912 -3.32333 0
M  V30 2461 C 231.469 -1.79622 -3.98816 0
M  V30 2462 C 230.528 -1.34349 -5.0876 0
M  V30 2463 O 229.554 -2.04864 -5.31055 0
M  V30 2464 N 230.756 -0.215764 -5.80099 0
M  V30 2465 H 233.521 -2.06291 -2.17403 0
M  V30 2466 H 231.082 -1.21544 -1.06951 0
M  V30 2467 H 233.074 -0.344295 -4.03233 0
M  V30 2468 H 231.644 0.199375 -3.11964 0
M  V30 2469 H 230.864 -2.28459 -3.21248 0
M  V30 2470 H 232.152 -2.55535 -4.39976 0
M  V30 2471 H 231.55 0.372091 -5.64475 0
M  V30 2472 H 230.107 0.0444707 -6.51785 0
M  V30 2473 N 233.54 1.10788 -1.12088 0
M  V30 2474 C 234.503 2.15207 -0.788577 0
M  V30 2475 C 235.503 1.59609 0.195317 0
M  V30 2476 O 236.693 1.74174 -0.0300193 0
M  V30 2477 C 233.825 3.4047 -0.171174 0
M  V30 2478 H 235.018 2.46116 -1.71368 0
M  V30 2479 H 232.571 1.26089 -0.923652 0
M  V30 2480 H 233.306 3.15176 0.763832 0
M  V30 2481 H 233.091 3.82109 -0.879514 0
M  V30 2482 H 234.581 4.17576 0.04496 0
M  V30 2483 N 235.018 0.912232 1.28515 0
M  V30 2484 C 235.948 0.416403 2.29757 0
M  V30 2485 C 236.929 -0.515194 1.6211 0
M  V30 2486 O 238.114 -0.423253 1.89532 0
M  V30 2487 C 235.244 -0.34572 3.45575 0
M  V30 2488 C 234.198 0.496599 4.25109 0
M  V30 2489 C 233.524 -0.393771 5.33248 0
M  V30 2490 C 234.824 1.75307 4.92001 0
M  V30 2491 H 236.518 1.26249 2.7148 0
M  V30 2492 H 234.064 0.608515 1.30511 0
M  V30 2493 H 236.017 -0.703422 4.15488 0
M  V30 2494 H 234.741 -1.2257 3.02728 0
M  V30 2495 H 233.4 0.8368 3.56922 0
M  V30 2496 H 233.048 -1.27225 4.86644 0
M  V30 2497 H 232.748 0.166209 5.87365 0
M  V30 2498 H 234.272 -0.747389 6.06009 0
M  V30 2499 H 235.686 1.46437 5.54283 0
M  V30 2500 H 234.083 2.25534 5.56106 0
M  V30 2501 H 235.153 2.48176 4.16577 0
M  V30 2502 N 236.496 -1.42363 0.676048 0
M  V30 2503 C 237.742 -2.0182 0.199125 0
M  V30 2504 C 238.075 -1.53339 -1.19168 0
M  V30 2505 O 237.35 -0.736124 -1.80032 0
M  V30 2506 C 237.633 -3.59331 0.235144 0
M  V30 2507 C 237.486 -4.17989 1.66149 0
M  V30 2508 C 238.805 -4.3813 -0.41595 0
M  V30 2509 H 235.924 -0.733293 0.0738311 0
M  V30 2510 H 238.566 -1.69368 0.86107 0
M  V30 2511 H 236.716 -3.87109 -0.328487 0
M  V30 2512 H 238.388 -4.0116 2.27747 0
M  V30 2513 H 236.631 -3.7377 2.20178 0
M  V30 2514 H 237.302 -5.27126 1.63837 0
M  V30 2515 H 239.778 -4.16051 0.0638529 0
M  V30 2516 H 238.654 -5.47717 -0.360115 0
M  V30 2517 H 238.915 -4.16101 -1.49373 0
M  V30 2518 N 237.974 -0.419461 -1.51915 0
M  V30 2519 C 239.223 0.154346 -2.01109 0
M  V30 2520 C 239.536 1.45338 -1.30905 0
M  V30 2521 O 240.742 2.10906 -1.7097 0
M  V30 2522 C 239.198 0.325615 -3.58424 0
M  V30 2523 C 238.806 -0.961934 -4.37551 0
M  V30 2524 C 240.55 0.854155 -4.15818 0
M  V30 2525 C 238.457 -0.757287 -5.86531 0
M  V30 2526 H 237.387 0.0614563 -0.751491 0
M  V30 2527 H 240.038 -0.54649 -1.75173 0
M  V30 2528 H 238.42 1.08903 -3.80731 0
M  V30 2529 H 239.594 -1.7323 -4.26999 0
M  V30 2530 H 237.909 -1.41766 -3.91524 0
M  V30 2531 H 240.506 1.02346 -5.24814 0
M  V30 2532 H 240.849 1.83172 -3.73837 0
M  V30 2533 H 241.382 0.149528 -3.97519 0
M  V30 2534 H 238.121 -1.70671 -6.32892 0
M  V30 2535 H 237.641 -0.0264061 -5.99794 0
M  V30 2536 H 239.32 -0.403482 -6.45741 0
M  V30 2537 N 239.452 1.56882 -0.150215 0
M  V30 2538 C 240.868 1.58263 0.20617 0
M  V30 2539 C 241.068 1.16464 1.64434 0
M  V30 2540 O 240.124 0.866422 2.3717 0
M  V30 2541 C 241.437 3.00649 -0.0555025 0
M  V30 2542 C 242.985 3.12999 0.00795388 0
M  V30 2543 C 243.46 4.5744 -0.226429 0
M  V30 2544 N 244.951 4.62875 -0.173469 0
M  V30 2545 C 245.686 5.72454 -0.329288 0
M  V30 2546 N 245.182 6.90669 -0.543005 0
M  V30 2547 N 246.975 5.61467 -0.266666 0
M  V30 2548 H 239.126 1.82345 -1.08922 0
M  V30 2549 H 241.389 0.844149 -0.431413 0
M  V30 2550 H 241.095 3.3563 -1.05096 0
M  V30 2551 H 240.969 3.71337 0.66246 0
M  V30 2552 H 243.356 2.77857 0.993966 0
M  V30 2553 H 243.437 2.4479 -0.742388 0
M  V30 2554 H 243.081 4.93287 -1.20956 0
M  V30 2555 H 243.011 5.2378 0.544274 0
M  V30 2556 H 245.502 3.77898 -0.0130709 0
M  V30 2557 H 245.815 7.70045 -0.651922 0
M  V30 2558 H 244.16 6.92581 -0.579366 0
M  V30 2559 H 247.351 4.67992 -0.100441 0
M  V30 2560 H 247.524 6.46816 -0.391535 0
M  V30 2561 N 240.93 -0.123565 1.57115 0
M  V30 2562 C 241.84 -1.17074 2.033 0
M  V30 2563 C 242.856 -1.4561 0.952559 0
M  V30 2564 O 244.032 -1.56817 1.26374 0
M  V30 2565 C 241.097 -2.47857 2.42421 0
M  V30 2566 C 240.158 -2.26758 3.64526 0
M  V30 2567 C 239.391 -3.51305 4.01771 0
M  V30 2568 O 239.614 -4.5843 3.39409 0
M  V30 2569 O 238.548 -3.42578 4.94898 0
M  V30 2570 H 242.374 -0.808555 2.92739 0
M  V30 2571 H 239.959 -0.334027 1.45618 0
M  V30 2572 H 241.841 -3.2492 2.68338 0
M  V30 2573 H 240.516 -2.83558 1.5613 0
M  V30 2574 H 239.423 -1.47569 3.43765 0
M  V30 2575 H 240.756 -1.95963 4.51508 0
M  V30 2576 N 242.408 -1.52605 -0.393616 0
M  V30 2577 C 243.656 -1.67093 -1.13685 0
M  V30 2578 C 243.977 -0.411011 -1.90619 0
M  V30 2579 O 243.247 0.574491 -1.87287 0
M  V30 2580 H 241.827 -0.615923 -0.422668 0
M  V30 2581 H 244.489 -1.89704 -0.447039 0
M  V30 2582 H 243.585 -2.51922 -1.84232 0
M  V30 2583 N 243.887 0.651787 -1.4349 0
M  V30 2584 C 244.797 1.79368 -1.5121 0
M  V30 2585 C 245.813 1.69361 -0.399093 0
M  V30 2586 O 246.989 1.90505 -0.653431 0
M  V30 2587 C 244.054 3.15653 -1.43401 0
M  V30 2588 C 243.115 3.37446 -2.65384 0
M  V30 2589 C 242.348 4.67229 -2.57939 0
M  V30 2590 O 242.571 5.46676 -1.62792 0
M  V30 2591 O 241.505 4.90773 -3.48462 0
M  V30 2592 H 245.331 1.7581 -2.47638 0
M  V30 2593 H 242.916 0.810447 -1.25507 0
M  V30 2594 H 244.798 3.96935 -1.41494 0
M  V30 2595 H 243.473 3.19798 -0.501085 0
M  V30 2596 H 242.38 2.55923 -2.72863 0
M  V30 2597 H 243.713 3.38148 -3.57654 0
M  V30 2598 N 245.365 1.30045 0.890287 0
M  V30 2599 C 246.312 1.15976 1.99545 0
M  V30 2600 C 247.282 0.0506202 1.66023 0
M  V30 2601 O 248.467 0.219847 1.89529 0
M  V30 2602 C 245.607 0.852054 3.34416 0
M  V30 2603 C 244.72 2.04255 3.80662 0
M  V30 2604 C 243.855 1.6734 5.04154 0
M  V30 2605 C 242.894 2.82916 5.42794 0
M  V30 2606 N 242.031 2.46333 6.57468 0
M  V30 2607 H 246.871 2.10524 2.10911 0
M  V30 2608 H 244.408 1.04749 1.03276 0
M  V30 2609 H 246.366 0.654296 4.12037 0
M  V30 2610 H 244.996 -0.0565502 3.2275 0
M  V30 2611 H 244.048 2.35172 2.98995 0
M  V30 2612 H 245.36 2.90826 4.05242 0
M  V30 2613 H 244.514 1.43908 5.89386 0
M  V30 2614 H 243.253 0.779308 4.81433 0
M  V30 2615 H 242.258 3.0702 4.56091 0
M  V30 2616 H 243.483 3.73004 5.6749 0
M  V30 2617 H 241.429 1.59423 6.36334 0
M  V30 2618 H 241.346 3.26436 6.81891 0
M  V30 2619 H 242.614 2.26244 7.45945 0
M  V30 2620 N 246.843 -1.10192 1.12674 0
M  V30 2621 C 247.776 -2.15847 0.740625 0
M  V30 2622 C 248.754 -1.60352 -0.269421 0
M  V30 2623 O 249.938 -1.87796 -0.16278 0
M  V30 2624 C 247.065 -3.38562 0.096641 0
M  V30 2625 C 246.111 -4.12758 1.07391 0
M  V30 2626 S 246.944 -4.67997 2.60267 0
M  V30 2627 C 248.1 -5.94021 1.97206 0
M  V30 2628 H 248.333 -2.48266 1.63558 0
M  V30 2629 H 245.866 -1.22019 0.946087 0
M  V30 2630 H 247.824 -4.09621 -0.268535 0
M  V30 2631 H 246.485 -3.04377 -0.775462 0
M  V30 2632 H 245.678 -5.00755 0.570997 0
M  V30 2633 H 245.28 -3.47523 1.38216 0
M  V30 2634 H 247.572 -6.64589 1.31634 0
M  V30 2635 H 248.515 -6.48979 2.83253 0
M  V30 2636 H 248.923 -5.46169 1.42686 0
M  V30 2637 N 248.321 -0.919034 -1.28029 0
M  V30 2638 C 249.253 -0.368762 -2.26214 0
M  V30 2639 C 250.266 0.495716 -1.55069 0
M  V30 2640 O 251.455 0.30974 -1.75792 0
M  V30 2641 C 248.555 0.491049 -3.35324 0
M  V30 2642 C 247.728 -0.352133 -4.3598 0
M  V30 2643 C 246.787 0.443622 -5.24327 0
M  V30 2644 O 245.813 -0.14566 -5.69014 0
M  V30 2645 N 247.015 1.74545 -5.53637 0
M  V30 2646 H 249.78 -1.21273 -2.74068 0
M  V30 2647 H 247.341 -0.785541 -1.41566 0
M  V30 2648 H 249.333 1.03026 -3.91366 0
M  V30 2649 H 247.903 1.23574 -2.87138 0
M  V30 2650 H 247.123 -1.07269 -3.79324 0
M  V30 2651 H 248.411 -0.928883 -5.00249 0
M  V30 2652 H 247.809 2.24666 -5.19174 0
M  V30 2653 H 246.366 2.23138 -6.12416 0
M  V30 2654 N 249.799 1.42003 -0.683588 0
M  V30 2655 C 251.045 2.01712 -0.209825 0
M  V30 2656 C 251.378 1.53968 1.18353 0
M  V30 2657 O 250.653 0.745661 1.79639 0
M  V30 2658 C 250.936 3.59202 -0.254197 0
M  V30 2659 C 250.789 4.17102 -1.68363 0
M  V30 2660 C 252.108 4.38344 0.392709 0
M  V30 2661 H 249.227 0.732891 -0.0777189 0
M  V30 2662 H 251.869 1.68909 -0.87004 0
M  V30 2663 H 250.019 3.87278 0.307954 0
M  V30 2664 H 251.691 3.99946 -2.29871 0
M  V30 2665 H 249.934 3.72597 -2.22157 0
M  V30 2666 H 250.605 5.26249 -1.6663 0
M  V30 2667 H 253.081 4.16011 -0.0859162 0
M  V30 2668 H 251.957 5.47901 0.331063 0
M  V30 2669 H 252.218 4.16887 1.47164 0
M  V30 2670 N 251.277 0.427512 1.51691 0
M  V30 2671 C 252.225 -0.403359 2.29076 0
M  V30 2672 C 253.219 -1.02962 1.34518 0
M  V30 2673 O 254.425 -0.965715 1.51901 0
M  V30 2674 H 250.8 -0.148879 0.737115 0
M  V30 2675 H 252.771 0.270295 2.97173 0
M  V30 2676 C 251.52 -1.49763 3.13794 0
M  V30 2677 H 250.843 -1.02508 3.86435 0
M  V30 2678 H 252.283 -2.05244 3.71014 0
M  V30 2679 C 250.742 -2.47536 2.28533 0
M  V30 2680 O 251.272 -3.51848 1.93819 0
M  V30 2681 N 249.478 -2.18187 1.91945 0
M  V30 2682 H 249.025 -1.33389 2.20375 0
M  V30 2683 H 248.983 -2.83848 1.35195 0
M  V30 2684 N 252.755 -1.56801 0.158532 0
M  V30 2685 C 253.718 -2.16138 -0.762705 0
M  V30 2686 C 254.718 -1.1061 -1.16713 0
M  V30 2687 O 255.908 -1.36191 -1.08617 0
M  V30 2688 C 253.04 -2.73386 -2.03649 0
M  V30 2689 H 254.233 -2.98886 -0.246354 0
M  V30 2690 H 251.786 -1.56035 -0.0909744 0
M  V30 2691 H 252.521 -1.94335 -2.59623 0
M  V30 2692 H 252.306 -3.50601 -1.75559 0
M  V30 2693 H 253.796 -3.19065 -2.6942 0
M  V30 2694 N 254.233 0.115231 -1.57178 0
M  V30 2695 C 255.143 1.15994 -2.03918 0
M  V30 2696 C 256.159 1.45103 -0.960268 0
M  V30 2697 O 257.335 1.56144 -1.27204 0
M  V30 2698 C 254.4 2.46568 -2.43732 0
M  V30 2699 C 253.461 2.24822 -3.65723 0
M  V30 2700 C 252.694 3.4917 -4.03629 0
M  V30 2701 O 252.917 4.56623 -3.41835 0
M  V30 2702 O 251.851 3.39949 -4.96708 0
M  V30 2703 H 255.677 0.793019 -2.93164 0
M  V30 2704 H 253.262 0.3263 -1.45793 0
M  V30 2705 H 255.144 3.23492 -2.70057 0
M  V30 2706 H 253.819 2.82726 -1.57631 0
M  V30 2707 H 252.726 1.45744 -3.44542 0
M  V30 2708 H 254.059 1.93566 -4.52541 0
M  V30 2709 N 255.711 1.52812 0.385517 0
M  V30 2710 C 256.621 1.80766 1.49535 0
M  V30 2711 C 257.637 0.694651 1.59532 0
M  V30 2712 O 258.813 0.982611 1.75803 0
M  V30 2713 C 255.878 1.97381 2.85029 0
M  V30 2714 C 254.939 3.21295 2.84724 0
M  V30 2715 C 254.172 3.37108 4.13756 0
M  V30 2716 O 254.395 2.5765 5.08893 0
M  V30 2717 O 253.329 4.30378 4.20783 0
M  V30 2718 H 257.155 2.75015 1.28842 0
M  V30 2719 H 254.74 1.37946 0.573697 0
M  V30 2720 H 256.622 2.09996 3.65349 0
M  V30 2721 H 255.297 1.06322 3.05741 0
M  V30 2722 H 254.204 3.1412 2.03174 0
M  V30 2723 H 255.537 4.12212 2.68965 0
M  V30 2724 N 257.189 -0.644168 1.43834 0
M  V30 2725 C 258.435 -1.40603 1.46146 0
M  V30 2726 C 258.768 -1.93997 0.0887717 0
M  V30 2727 O 258.043 -1.72854 -0.891724 0
M  V30 2728 C 258.326 -2.58086 2.51124 0
M  V30 2729 C 258.179 -2.10126 3.97702 0
M  V30 2730 C 259.498 -3.60291 2.52742 0
M  V30 2731 H 256.617 -0.509905 0.532134 0
M  V30 2732 H 259.259 -0.729502 1.75437 0
M  V30 2733 H 257.409 -3.15801 2.26278 0
M  V30 2734 H 259.081 -1.57342 4.33637 0
M  V30 2735 H 257.324 -1.41419 4.10101 0
M  V30 2736 H 257.995 -2.94649 4.66783 0
M  V30 2737 H 260.471 -3.12352 2.7491 0
M  V30 2738 H 259.347 -4.40032 3.28121 0
M  V30 2739 H 259.608 -4.1349 1.56455 0
M  V30 2740 N 258.668 -1.30515 -0.883378 0
M  V30 2741 C 259.914 -1.19607 -1.63774 0
M  V30 2742 C 260.247 0.248314 -1.92606 0
M  V30 2743 O 259.522 1.17742 -1.54813 0
M  V30 2744 C 259.805 -2.02669 -2.97653 0
M  V30 2745 C 259.658 -3.55335 -2.75784 0
M  V30 2746 C 260.977 -1.86573 -3.98596 0
M  V30 2747 H 258.096 -0.435856 -0.594305 0
M  V30 2748 H 260.738 -1.60165 -1.02212 0
M  V30 2749 H 258.888 -1.68208 -3.50197 0
M  V30 2750 H 260.56 -3.99863 -2.30016 0
M  V30 2751 H 258.803 -3.79438 -2.1026 0
M  V30 2752 H 259.474 -4.08745 -3.70988 0
M  V30 2753 H 261.95 -2.16703 -3.55217 0
M  V30 2754 H 260.826 -2.47014 -4.90179 0
M  V30 2755 H 261.087 -0.825321 -4.34328 0
M  V30 2756 N 260.146 1.09593 -1.13257 0
M  V30 2757 C 261.392 1.82003 -0.89458 0
M  V30 2758 C 261.725 1.85402 0.577906 0
M  V30 2759 O 261 1.32099 1.42759 0
M  V30 2760 C 261.283 3.28237 -1.48096 0
M  V30 2761 C 261.136 3.3312 -3.02244 0
M  V30 2762 C 262.455 4.24871 -1.14774 0
M  V30 2763 H 259.574 0.66077 -0.326424 0
M  V30 2764 H 262.216 1.28389 -1.40058 0
M  V30 2765 H 260.366 3.74024 -1.05062 0
M  V30 2766 H 262.038 2.95748 -3.54021 0
M  V30 2767 H 260.281 2.72756 -3.37323 0
M  V30 2768 H 260.952 4.3613 -3.38371 0
M  V30 2769 H 263.428 3.87361 -1.51957 0
M  V30 2770 H 262.304 5.25532 -1.58452 0
M  V30 2771 H 262.565 4.42058 -0.0611849 0
M  V30 2772 N 261.624 0.925811 1.2754 0
M  V30 2773 C 262.872 0.564138 1.94067 0
M  V30 2774 C 263.193 -0.897188 1.73134 0
M  V30 2775 O 262.463 -1.63573 1.07799 0
M  V30 2776 H 261.043 0.205645 0.718136 0
M  V30 2777 H 263.705 1.1778 1.55287 0
M  V30 2778 H 262.801 0.76881 3.02483 0
M  V30 2779 N 263.102 -1.41638 0.69111 0
M  V30 2780 C 264.379 -1.95036 0.148421 0
M  V30 2781 C 264.759 -1.63072 -1.34055 0
M  V30 2782 O 264.107 -0.93538 -2.08478 0
M  V30 2783 C 264.317 -3.46279 0.434951 0
M  V30 2784 C 265.665 -4.23069 0.360275 0
M  V30 2785 O 266.689 -3.54277 0.369613 0
M  V30 2786 O 265.548 -5.45583 0.316534 0
M  V30 2787 H 262.642 -0.826908 0.0123654 0
M  V30 2788 H 265.188 -1.5138 0.766963 0
M  V30 2789 H 263.96 -3.6281 1.46576 0
M  V30 2790 H 263.583 -3.97019 -0.214787 0
M  V30 2791 N 264.58 -0.43555 -1.51462 0
M  V30 2792 C 265.51 0.367376 -2.30592 0
M  V30 2793 C 266.491 1.02263 -1.35928 0
M  V30 2794 O 267.676 1.02661 -1.64847 0
M  V30 2795 C 264.806 1.46983 -3.14664 0
M  V30 2796 C 263.76 0.938161 -4.17591 0
M  V30 2797 C 263.086 2.13622 -4.90173 0
M  V30 2798 C 264.386 -0.0261621 -5.22293 0
M  V30 2799 H 266.08 -0.292969 -2.97963 0
M  V30 2800 H 263.626 -0.14234 -1.43295 0
M  V30 2801 H 265.579 2.03873 -3.688 0
M  V30 2802 H 264.303 2.15843 -2.4511 0
M  V30 2803 H 262.962 0.391481 -3.64504 0
M  V30 2804 H 262.61 2.81098 -4.17124 0
M  V30 2805 H 262.31 1.78688 -5.59772 0
M  V30 2806 H 263.834 2.7107 -5.47132 0
M  V30 2807 H 265.248 0.452384 -5.71512 0
M  V30 2808 H 263.645 -0.287992 -5.99409 0
M  V30 2809 H 264.715 -0.963391 -4.75233 0
M  V30 2810 N 266.058 1.56714 -0.166846 0
M  V30 2811 C 267.304 1.97039 0.479962 0
M  V30 2812 C 267.637 1.05264 1.63197 0
M  V30 2813 O 266.912 0.0988833 1.94248 0
M  V30 2814 C 267.195 3.46867 0.967212 0
M  V30 2815 C 267.048 4.49421 -0.18466 0
M  V30 2816 C 268.367 3.9968 1.84238 0
M  V30 2817 H 265.486 0.71641 0.172992 0
M  V30 2818 H 268.128 1.8832 -0.252079 0
M  V30 2819 H 266.278 3.54428 1.59101 0
M  V30 2820 H 267.95 4.53924 -0.821621 0
M  V30 2821 H 266.193 4.25573 -0.840837 0
M  V30 2822 H 266.864 5.51644 0.198317 0
M  V30 2823 H 269.34 3.94723 1.31655 0
M  V30 2824 H 268.216 5.04941 2.15234 0
M  V30 2825 H 268.477 3.43226 2.78654 0
M  V30 2826 N 267.536 -0.106894 1.57237 0
M  V30 2827 C 268.446 -1.14911 2.0453 0
M  V30 2828 C 269.462 -1.44592 0.96795 0
M  V30 2829 O 270.638 -1.55468 1.2803 0
M  V30 2830 C 267.703 -2.45272 2.45036 0
M  V30 2831 C 266.764 -2.22879 3.66911 0
M  V30 2832 C 265.997 -3.47024 4.05475 0
M  V30 2833 O 266.22 -4.54804 3.44252 0
M  V30 2834 O 265.154 -3.3731 4.98504 0
M  V30 2835 H 268.98 -0.777461 2.9358 0
M  V30 2836 H 266.565 -0.318563 1.45964 0
M  V30 2837 H 268.447 -3.22055 2.71769 0
M  V30 2838 H 267.122 -2.81886 1.59129 0
M  V30 2839 H 266.029 -1.43915 3.45311 0
M  V30 2840 H 267.362 -1.91163 4.53561 0
M  V30 2841 N 269.014 -1.53014 -0.377408 0
M  V30 2842 C 270.263 -1.67845 -1.11853 0
M  V30 2843 C 270.576 -0.430625 -1.90801 0
M  V30 2844 O 271.782 -0.459261 -2.67587 0
M  V30 2845 C 270.238 -2.96668 -2.03756 0
M  V30 2846 C 269.846 -4.28671 -1.30175 0
M  V30 2847 C 271.59 -3.20865 -2.77932 0
M  V30 2848 C 269.497 -5.48591 -2.20911 0
M  V30 2849 H 268.427 -0.625343 -0.421263 0
M  V30 2850 H 271.078 -1.79514 -0.380409 0
M  V30 2851 H 269.46 -2.78773 -2.8125 0
M  V30 2852 H 270.634 -4.57157 -0.578259 0
M  V30 2853 H 268.949 -4.10825 -0.679108 0
M  V30 2854 H 271.546 -4.07642 -3.46024 0
M  V30 2855 H 271.889 -2.36424 -3.4265 0
M  V30 2856 H 272.422 -3.39379 -2.07525 0
M  V30 2857 H 269.161 -6.35474 -1.6079 0
M  V30 2858 H 268.681 -5.244 -2.91144 0
M  V30 2859 H 270.36 -5.8292 -2.80736 0
M  V30 2860 N 270.492 0.636531 -1.44174 0
M  V30 2861 C 271.439 1.74875 -1.50624 0
M  V30 2862 C 272.409 1.62275 -0.35442 0
M  V30 2863 O 273.594 1.82276 -0.563908 0
M  V30 2864 C 270.734 3.13102 -1.45125 0
M  V30 2865 C 269.847 3.36717 -2.7064 0
M  V30 2866 C 268.982 4.64885 -2.57013 0
M  V30 2867 C 268.021 4.8166 -3.77717 0
M  V30 2868 N 267.158 6.01101 -3.62798 0
M  V30 2869 H 271.998 1.68697 -2.45653 0
M  V30 2870 H 269.535 0.823004 -1.21922 0
M  V30 2871 H 271.493 3.93034 -1.39929 0
M  V30 2872 H 270.123 3.18308 -0.536671 0
M  V30 2873 H 269.175 2.50763 -2.86046 0
M  V30 2874 H 270.487 3.44993 -3.60252 0
M  V30 2875 H 269.641 5.52969 -2.49619 0
M  V30 2876 H 268.38 4.58957 -1.64953 0
M  V30 2877 H 267.385 3.92007 -3.85501 0
M  V30 2878 H 268.61 4.89406 -4.70807 0
M  V30 2879 H 266.556 5.96273 -2.73486 0
M  V30 2880 H 266.473 6.10409 -4.46023 0
M  V30 2881 H 267.741 6.91761 -3.59286 0
M  V30 2882 N 271.97 1.30982 0.876444 0
M  V30 2883 C 273.218 1.20058 1.62575 0
M  V30 2884 C 273.539 -0.242947 1.93481 0
M  V30 2885 O 272.809 -1.1619 1.57724 0
M  V30 2886 H 271.389 0.44135 0.602677 0
M  V30 2887 H 274.051 1.64222 1.04962 0
M  V30 2888 H 273.147 1.76762 2.57219 0
M  V30 2889 N 273.449 -1.08991 1.13837 0
M  V30 2890 C 274.697 -1.80899 0.901098 0
M  V30 2891 C 275.018 -1.86356 -0.574134 0
M  V30 2892 O 274.288 -1.35235 -1.41733 0
M  V30 2893 H 272.868 -0.669966 0.330386 0
M  V30 2894 H 275.53 -1.318 1.43578 0
M  V30 2895 H 274.626 -2.83929 1.29578 0
M  V30 2896 N 274.927 -0.932562 -1.27047 0
M  V30 2897 C 276.204 -0.49377 -1.89265 0
M  V30 2898 C 276.584 1.02833 -1.8436 0
M  V30 2899 O 275.932 1.88461 -1.29209 0
M  V30 2900 C 276.142 -1.04536 -3.32976 0
M  V30 2901 C 277.49 -1.10879 -4.09867 0
M  V30 2902 O 278.514 -0.995327 -3.42011 0
M  V30 2903 O 277.373 -1.28417 -5.31198 0
M  V30 2904 H 274.467 -0.159596 -0.811454 0
M  V30 2905 H 277.013 -1.02457 -1.3528 0
M  V30 2906 H 275.785 -2.08913 -3.30864 0
M  V30 2907 H 275.408 -0.496494 -3.94488 0
M  V30 2908 N 276.405 1.4127 -0.698611 0
M  V30 2909 C 277.821 1.55241 -0.370462 0
M  V30 2910 C 278.021 1.67351 1.12231 0
M  V30 2911 O 277.077 1.65363 1.90818 0
M  V30 2912 C 278.39 2.78997 -1.12165 0
M  V30 2913 C 279.938 2.92797 -1.1063 0
M  V30 2914 C 280.413 4.19445 -1.8393 0
M  V30 2915 N 281.904 4.26409 -1.80914 0
M  V30 2916 C 282.639 5.23271 -2.34467 0
M  V30 2917 N 282.135 6.26145 -2.96504 0
M  V30 2918 N 283.928 5.15232 -2.24706 0
M  V30 2919 H 276.079 1.31654 -1.66676 0
M  V30 2920 H 278.342 0.635393 -0.703548 0
M  V30 2921 H 278.048 2.76268 -2.17644 0
M  V30 2922 H 277.922 3.70606 -0.702209 0
M  V30 2923 H 280.309 2.95039 -0.0597713 0
M  V30 2924 H 280.39 2.02353 -1.56483 0
M  V30 2925 H 280.034 4.17964 -2.88563 0
M  V30 2926 H 279.964 5.08866 -1.35509 0
M  V30 2927 H 282.455 3.527 -1.35687 0
M  V30 2928 H 282.768 6.96451 -3.34927 0
M  V30 2929 H 281.113 6.26638 -3.00583 0
M  V30 2930 H 284.304 4.33789 -1.7591 0
M  V30 2931 H 284.477 5.90552 -2.66745 0
M  V30 2932 N 277.883 0.443576 1.51229 0
M  V30 2933 C 279.129 -0.120975 2.02439 0
M  V30 2934 C 279.462 -1.41815 1.32674 0
M  V30 2935 O 278.737 -1.89373 0.443622 0
M  V30 2936 C 279.02 -0.333291 3.58554 0
M  V30 2937 C 278.873 0.982968 4.38928 0
M  V30 2938 C 280.192 -1.10028 4.26124 0
M  V30 2939 H 277.311 -0.0424923 0.735774 0
M  V30 2940 H 279.953 0.583794 1.80809 0
M  V30 2941 H 278.103 -0.933614 3.77115 0
M  V30 2942 H 279.775 1.61775 4.32003 0
M  V30 2943 H 278.018 1.58611 4.03763 0
M  V30 2944 H 278.689 0.788379 5.46341 0
M  V30 2945 H 281.165 -0.591711 4.11871 0
M  V30 2946 H 280.041 -1.21761 5.35225 0
M  V30 2947 H 280.302 -2.12996 3.87408 0
M  V30 2948 N 279.361 -1.56624 0.175154 0
M  V30 2949 C 280.772 -1.83561 -0.340916 0
M  V30 2950 C 281.123 -1.09511 -1.62794 0
M  V30 2951 O 280.248 -0.349389 -2.13561 0
M  V30 2952 C 280.843 -3.32979 -0.625313 0
M  V30 2953 C 279.402 -3.60399 -1.08581 0
M  V30 2954 C 278.549 -2.77024 -0.123722 0
M  V30 2955 H 281.5 -1.53593 0.399344 0
M  V30 2956 H 281.521 -3.50666 -1.47694 0
M  V30 2957 H 281.033 -3.86847 0.311575 0
M  V30 2958 H 279.134 -3.11945 -2.03767 0
M  V30 2959 H 279.247 -4.68711 -0.992317 0
M  V30 2960 H 277.611 -2.46993 -0.621821 0
M  V30 2961 H 278.394 -3.33674 0.807256 0
M  V30 2962 N 280.839 0.0985539 -1.57292 0
M  V30 2963 C 281.802 1.10402 -2.00858 0
M  V30 2964 C 282.802 1.33146 -0.901593 0
M  V30 2965 O 283.992 1.29318 -1.16716 0
M  V30 2966 C 281.124 2.45394 -2.36632 0
M  V30 2967 H 282.317 0.729099 -2.90902 0
M  V30 2968 H 279.87 0.343495 -1.52479 0
M  V30 2969 H 280.605 2.87769 -1.49531 0
M  V30 2970 H 280.39 2.30235 -3.17387 0
M  V30 2971 H 281.88 3.17718 -2.71007 0
M  V30 2972 N 282.317 1.53212 0.369288 0
M  V30 2973 C 283.594 1.59815 1.12776 0
M  V30 2974 C 283.974 0.403402 2.0721 0
M  V30 2975 O 283.322 -0.606667 2.20299 0
M  V30 2976 C 283.532 2.94664 1.87013 0
M  V30 2977 C 284.88 3.49109 2.41677 0
M  V30 2978 O 285.904 2.96669 1.97144 0
M  V30 2979 O 284.763 4.40775 3.23079 0
M  V30 2980 H 281.857 0.645376 0.517125 0
M  V30 2981 H 284.403 1.65553 0.37285 0
M  V30 2982 H 283.175 3.73061 1.18071 0
M  V30 2983 H 282.798 2.92401 2.69421 0
M  V30 2984 N 283.795 -0.628877 1.44509 0
M  V30 2985 C 284.725 -1.75187 1.54376 0
M  V30 2986 C 285.706 -1.65411 0.396618 0
M  V30 2987 O 286.891 -1.84137 0.617031 0
M  V30 2988 C 284.021 -3.13725 1.48976 0
M  V30 2989 C 282.975 -3.38291 2.62189 0
M  V30 2990 C 282.301 -4.76883 2.41841 0
M  V30 2991 C 283.601 -3.30632 4.04326 0
M  V30 2992 H 285.295 -1.67187 2.48373 0
M  V30 2993 H 282.841 -0.802909 1.19538 0
M  V30 2994 H 284.794 -3.92064 1.54478 0
M  V30 2995 H 283.518 -3.22515 0.514961 0
M  V30 2996 H 282.177 -2.62334 2.56079 0
M  V30 2997 H 281.825 -4.82378 1.42548 0
M  V30 2998 H 281.525 -4.94278 3.17747 0
M  V30 2999 H 283.049 -5.57449 2.49165 0
M  V30 3000 H 284.463 -3.98873 4.11793 0
M  V30 3001 H 282.86 -3.59561 4.80454 0
M  V30 3002 H 283.93 -2.28404 4.27738 0
M  V30 3003 N 285.273 -1.31445 -0.869486 0
M  V30 3004 C 286.689 -1.10113 -1.15531 0
M  V30 3005 C 286.889 0.128087 -2.01092 0
M  V30 3006 O 285.945 0.817276 -2.38908 0
M  V30 3007 C 287.258 -2.37291 -1.84698 0
M  V30 3008 C 288.806 -2.42906 -1.97397 0
M  V30 3009 C 289.281 -3.69967 -2.69979 0
M  V30 3010 N 290.772 -3.70864 -2.77514 0
M  V30 3011 C 291.507 -4.65875 -3.34287 0
M  V30 3012 N 291.003 -5.71242 -3.91988 0
M  V30 3013 N 292.796 -4.53394 -3.3225 0
M  V30 3014 H 284.947 -2.1028 -0.299347 0
M  V30 3015 H 287.21 -0.927683 -0.195214 0
M  V30 3016 H 286.916 -3.27078 -1.29278 0
M  V30 3017 H 286.79 -2.47125 -2.84972 0
M  V30 3018 H 289.177 -1.53588 -2.51982 0
M  V30 3019 H 289.258 -2.37036 -0.961643 0
M  V30 3020 H 288.902 -4.59652 -2.16062 0
M  V30 3021 H 288.832 -3.73103 -3.7162 0
M  V30 3022 H 291.323 -2.94697 -2.36563 0
M  V30 3023 H 291.636 -6.39817 -4.33421 0
M  V30 3024 H 289.981 -5.75015 -3.90362 0
M  V30 3025 H 293.172 -3.70252 -2.8641 0
M  V30 3026 H 293.345 -5.27617 -3.76197 0
M  V30 3027 N 286.751 1.08385 -1.14413 0
M  V30 3028 C 288 1.80153 -0.907076 0
M  V30 3029 C 288.313 1.87176 0.567851 0
M  V30 3030 O 289.519 2.55359 0.922172 0
M  V30 3031 C 287.975 3.23687 -1.57336 0
M  V30 3032 C 287.583 3.24897 -3.08457 0
M  V30 3033 C 289.327 4.00136 -1.41744 0
M  V30 3034 C 287.234 4.6302 -3.67921 0
M  V30 3035 H 286.164 0.675139 -0.335714 0
M  V30 3036 H 288.815 1.21733 -1.37307 0
M  V30 3037 H 287.197 3.82234 -1.03505 0
M  V30 3038 H 288.371 2.76055 -3.68958 0
M  V30 3039 H 286.686 2.61943 -3.2369 0
M  V30 3040 H 289.283 5.02201 -1.83572 0
M  V30 3041 H 289.626 4.14709 -0.363576 0
M  V30 3042 H 290.159 3.48058 -1.92614 0
M  V30 3043 H 286.898 4.5365 -4.73161 0
M  V30 3044 H 286.418 5.12143 -3.12201 0
M  V30 3045 H 288.097 5.31994 -3.68227 0
M  V30 3046 N 288.23 0.939286 1.26551 0
M  V30 3047 C 289.479 0.581601 1.93133 0
M  V30 3048 C 289.792 -0.883224 1.74524 0
M  V30 3049 O 290.998 -1.3502 2.35546 0
M  V30 3050 C 289.454 0.989425 3.46032 0
M  V30 3051 C 289.062 2.47573 3.73379 0
M  V30 3052 C 290.806 0.703544 4.18629 0
M  V30 3053 C 288.713 2.82235 5.19709 0
M  V30 3054 H 287.643 0.213803 0.723052 0
M  V30 3055 H 290.294 1.14167 1.4366 0
M  V30 3056 H 288.676 0.357902 3.94379 0
M  V30 3057 H 289.85 3.15614 3.35744 0
M  V30 3058 H 288.165 2.73471 3.1401 0
M  V30 3059 H 290.762 0.938869 5.26393 0
M  V30 3060 H 291.105 -0.359639 4.14744 0
M  V30 3061 H 291.638 1.2947 3.76141 0
M  V30 3062 H 288.377 3.87509 5.28694 0
M  V30 3063 H 287.897 2.18854 5.58447 0
M  V30 3064 H 289.576 2.70599 5.87695 0
M  V30 3065 N 289.708 -1.40897 0.706093 0
M  V30 3066 C 290.933 -2.05895 0.249435 0
M  V30 3067 C 291.358 -1.52823 -1.09666 0
M  V30 3068 O 290.716 -0.659589 -1.68876 0
M  V30 3069 C 290.764 -3.59872 0.22904 0
M  V30 3070 O 289.868 -4.04708 -0.792784 0
M  V30 3071 H 289.209 -0.653206 0.119241 0
M  V30 3072 H 291.739 -1.80471 0.96391 0
M  V30 3073 H 291.749 -4.07951 0.0634791 0
M  V30 3074 H 290.424 -3.97866 1.21141 0
M  V30 3075 H 289.001 -3.68111 -0.59572 0
M  V30 3076 N 291.186 -0.45159 -1.50991 0
M  V30 3077 C 292.149 0.341117 -2.26647 0
M  V30 3078 C 293.149 0.937422 -1.30649 0
M  V30 3079 O 294.339 0.809644 -1.54241 0
M  V30 3080 C 291.471 1.48398 -3.06905 0
M  V30 3081 H 292.664 -0.322117 -2.98165 0
M  V30 3082 H 290.217 -0.205122 -1.54948 0
M  V30 3083 H 290.952 2.18284 -2.39838 0
M  V30 3084 H 290.737 1.06241 -3.77432 0
M  V30 3085 H 292.227 2.04367 -3.64176 0
M  V30 3086 N 292.664 1.56529 -0.183458 0
M  V30 3087 C 293.614 2.1515 0.754605 0
M  V30 3088 C 294.598 1.08904 1.18443 0
M  V30 3089 O 295.79 1.34997 1.14476 0
M  V30 3090 C 292.919 2.80531 1.97881 0
M  V30 3091 C 292.005 3.93952 1.57043 0
M  V30 3092 N 292.396 4.98221 0.87231 0
M  V30 3093 C 290.694 4.05338 1.86057 0
M  V30 3094 C 291.395 5.77836 0.669377 0
M  V30 3095 N 290.371 5.29858 1.21454 0
M  V30 3096 H 294.173 2.93132 0.212387 0
M  V30 3097 H 291.687 1.62391 0.0167725 0
M  V30 3098 H 293.684 3.20914 2.6612 0
M  V30 3099 H 292.344 2.04035 2.52586 0
M  V30 3100 H 293.355 5.15191 0.529033 0
M  V30 3101 H 290.032 3.39957 2.42354 0
M  V30 3102 H 291.422 6.71799 0.116422 0
M  V30 3103 N 294.142 -0.090211 1.57342 0
M  V30 3104 C 295.39 -0.791241 1.85967 0
M  V30 3105 C 295.711 -1.7903 0.772859 0
M  V30 3106 O 294.981 -1.94872 -0.200398 0
M  V30 3107 H 293.561 -0.295205 0.686195 0
M  V30 3108 H 296.223 -0.0706782 1.94772 0
M  V30 3109 H 295.319 -1.31882 2.82867 0
M  V30 3110 N 295.62 -1.53406 -0.361157 0
M  V30 3111 C 296.86 -1.71507 -1.11197 0
M  V30 3112 C 297.224 -0.459337 -1.86425 0
M  V30 3113 O 298.425 -0.517102 -2.63779 0
M  V30 3114 C 296.696 -2.93307 -2.0422 0
M  V30 3115 S 298.255 -3.32135 -2.86761 0
M  V30 3116 H 295.073 -0.603448 -0.375995 0
M  V30 3117 H 297.675 -1.91516 -0.392642 0
M  V30 3118 H 296.379 -3.82891 -1.47724 0
M  V30 3119 H 295.91 -2.75712 -2.80618 0
M  V30 3120 H 297.925 -2.84493 -4.06544 0
M  V30 3121 N 297.098 0.621204 -1.44841 0
M  V30 3122 C 298.045 1.73267 -1.5247 0
M  V30 3123 C 299.015 1.6189 -0.371611 0
M  V30 3124 O 300.2 1.81668 -0.58321 0
M  V30 3125 C 297.34 3.11545 -1.48438 0
M  V30 3126 C 296.453 3.33827 -2.74196 0
M  V30 3127 C 295.588 4.62133 -2.61929 0
M  V30 3128 C 294.627 4.77627 -3.82804 0
M  V30 3129 N 293.764 5.97219 -3.69153 0
M  V30 3130 H 298.604 1.66082 -2.47428 0
M  V30 3131 H 296.141 0.810026 -1.22788 0
M  V30 3132 H 298.099 3.91528 -1.4409 0
M  V30 3133 H 296.729 3.1772 -0.570402 0
M  V30 3134 H 295.781 2.47715 -2.88689 0
M  V30 3135 H 297.093 3.41153 -3.6389 0
M  V30 3136 H 296.247 5.50291 -2.5547 0
M  V30 3137 H 294.986 4.57182 -1.69811 0
M  V30 3138 H 293.991 3.87896 -3.89637 0
M  V30 3139 H 295.216 4.84385 -4.75971 0
M  V30 3140 H 293.162 5.93339 -2.79794 0
M  V30 3141 H 293.079 6.05644 -4.52472 0
M  V30 3142 H 294.347 6.87912 -3.66603 0
M  V30 3143 N 298.576 1.31904 0.862503 0
M  V30 3144 C 299.822 1.22197 1.61851 0
M  V30 3145 C 300.155 -0.217641 1.92977 0
M  V30 3146 O 299.43 -1.15264 1.56666 0
M  V30 3147 C 299.713 2.07378 2.94391 0
M  V30 3148 C 299.566 3.59678 2.70096 0
M  V30 3149 C 300.885 1.92891 3.95577 0
M  V30 3150 H 298.004 0.445255 0.587296 0
M  V30 3151 H 300.646 1.6177 0.99651 0
M  V30 3152 H 298.796 1.73758 3.47477 0
M  V30 3153 H 300.468 4.03472 2.23625 0
M  V30 3154 H 298.711 3.82735 2.04197 0
M  V30 3155 H 299.382 4.14595 3.64438 0
M  V30 3156 H 301.858 2.22327 3.51724 0
M  V30 3157 H 300.734 2.54781 4.86187 0
M  V30 3158 H 300.995 0.894315 4.3296 0
M  V30 3159 N 300.054 -1.07777 1.14986 0
M  V30 3160 C 301.331 -1.7699 0.832695 0
M  V30 3161 C 301.711 -2.001 -0.672561 0
M  V30 3162 O 301.059 -1.61598 -1.6155 0
M  V30 3163 C 301.269 -3.08139 1.63863 0
M  V30 3164 C 302.617 -3.8256 1.84208 0
M  V30 3165 O 303.641 -3.17939 1.60603 0
M  V30 3166 O 302.5 -4.98612 2.23714 0
M  V30 3167 H 299.594 -0.768389 0.305791 0
M  V30 3168 H 302.14 -1.14182 1.25541 0
M  V30 3169 H 300.912 -2.86909 2.6608 0
M  V30 3170 H 300.535 -3.78678 1.21197 0
M  V30 3171 N 301.532 -0.945985 -1.26051 0
M  V30 3172 C 302.48 -0.450259 -2.282 0
M  V30 3173 C 303.474 0.47497 -1.62605 0
M  V30 3174 O 304.68 0.352653 -1.76512 0
M  V30 3175 H 301.055 -0.127081 -0.741184 0
M  V30 3176 H 303.026 -1.32422 -2.67408 0
M  V30 3177 C 301.775 0.26467 -3.46691 0
M  V30 3178 H 301.098 -0.438123 -3.97392 0
M  V30 3179 H 302.538 0.575678 -4.20074 0
M  V30 3180 C 300.997 1.48416 -3.02447 0
M  V30 3181 O 301.527 2.58227 -3.07704 0
M  V30 3182 N 299.733 1.34243 -2.57735 0
M  V30 3183 H 299.28 0.448994 -2.53657 0
M  V30 3184 H 299.238 2.15957 -2.28495 0
M  V30 3185 N 303.011 1.40521 -0.713556 0
M  V30 3186 C 304.236 2.05759 -0.26035 0
M  V30 3187 C 304.661 1.53403 1.08854 0
M  V30 3188 O 304.019 0.668535 1.68524 0
M  V30 3189 C 304.067 3.59745 -0.248122 0
M  V30 3190 O 303.171 4.05123 0.77131 0
M  V30 3191 H 302.512 0.652564 -0.122703 0
M  V30 3192 H 305.042 1.79958 -0.973467 0
M  V30 3193 H 305.052 4.07911 -0.0851129 0
M  V30 3194 H 303.727 3.97218 -1.2325 0
M  V30 3195 H 302.304 3.68422 0.57619 0
M  V30 3196 N 304.489 0.459591 1.5075 0
M  V30 3197 C 305.714 -0.0996819 2.0716 0
M  V30 3198 C 306.139 -1.33761 1.32249 0
M  V30 3199 O 305.497 -1.77551 0.366786 0
M  V30 3200 C 305.545 -0.378226 3.58611 0
M  V30 3201 O 304.649 -1.46081 3.85661 0
M  V30 3202 H 303.99 0.00791392 0.663953 0
M  V30 3203 H 306.52 0.647329 1.9409 0
M  V30 3204 H 306.53 -0.622135 4.03229 0
M  V30 3205 H 305.205 0.526439 4.12555 0
M  V30 3206 H 303.782 -1.20511 3.5289 0
M  V30 3207 N 305.967 -1.56429 0.191757 0
M  V30 3208 C 306.897 -2.21937 -0.725696 0
M  V30 3209 C 307.878 -1.1814 -1.2238 0
M  V30 3210 O 309.063 -1.46636 -1.27325 0
M  V30 3211 C 306.193 -2.87611 -1.94672 0
M  V30 3212 C 305.147 -3.97623 -1.58366 0
M  V30 3213 C 304.473 -4.50446 -2.88102 0
M  V30 3214 C 305.773 -5.16197 -0.796133 0
M  V30 3215 H 307.467 -2.98861 -0.179606 0
M  V30 3216 H 305.013 -1.43749 -0.0849464 0
M  V30 3217 H 306.966 -3.3212 -2.59373 0
M  V30 3218 H 305.69 -2.08087 -2.51728 0
M  V30 3219 H 304.349 -3.53801 -0.960247 0
M  V30 3220 H 303.997 -3.67688 -3.43241 0
M  V30 3221 H 303.697 -5.24675 -2.64556 0
M  V30 3222 H 305.221 -4.97654 -3.53798 0
M  V30 3223 H 306.635 -5.57271 -1.34618 0
M  V30 3224 H 305.032 -5.96471 -0.658928 0
M  V30 3225 H 306.102 -4.84473 0.203478 0
M  V30 3226 N 307.445 0.0818655 -1.57387 0
M  V30 3227 C 308.673 0.796108 -1.9097 0
M  V30 3228 C 309.088 1.71626 -0.786757 0
M  V30 3229 O 308.445 1.80908 0.240513 0
M  V30 3230 C 308.496 1.59829 -3.24248 0
M  V30 3231 O 308.217 0.715131 -4.32224 0
M  V30 3232 C 309.718 2.41442 -3.7178 0
M  V30 3233 H 306.938 0.22691 -0.631469 0
M  V30 3234 H 309.482 0.0551439 -2.04426 0
M  V30 3235 H 307.637 2.29163 -3.12351 0
M  V30 3236 H 308.051 1.27205 -5.08841 0
M  V30 3237 H 309.525 2.932 -4.67694 0
M  V30 3238 H 310.002 3.2051 -3.00283 0
M  V30 3239 H 310.608 1.77283 -3.86589 0
M  V30 3240 N 308.923 1.53595 0.353017 0
M  V30 3241 C 310.171 1.70049 1.09215 0
M  V30 3242 C 310.492 0.461406 1.89463 0
M  V30 3243 O 309.762 -0.524633 1.88744 0
M  V30 3244 H 308.342 0.626912 0.40619 0
M  V30 3245 H 311.004 1.90822 0.396585 0
M  V30 3246 H 310.1 2.56718 1.77488 0
M  V30 3247 N 310.401 -0.613514 1.45168 0
M  V30 3248 C 311.311 -1.75296 1.55912 0
M  V30 3249 C 312.327 -1.68244 0.443856 0
M  V30 3250 O 313.503 -1.88706 0.70371 0
M  V30 3251 C 310.568 -3.1174 1.5172 0
M  V30 3252 C 309.629 -3.30291 2.74238 0
M  V30 3253 C 308.862 -4.60226 2.70236 0
M  V30 3254 O 309.085 -5.42168 1.77229 0
M  V30 3255 O 308.019 -4.81361 3.61352 0
M  V30 3256 H 311.845 -1.69183 2.52212 0
M  V30 3257 H 309.43 -0.776886 1.27612 0
M  V30 3258 H 311.312 -3.93044 1.51968 0
M  V30 3259 H 309.987 -3.18357 0.585697 0
M  V30 3260 H 308.894 -2.48598 2.79553 0
M  V30 3261 H 310.227 -3.28547 3.66494 0
M  V30 3262 N 311.879 -1.3236 -0.855495 0
M  V30 3263 C 313.104 -1.2601 -1.64731 0
M  V30 3264 C 313.529 0.169068 -1.87339 0
M  V30 3265 O 312.887 1.12016 -1.42556 0
M  V30 3266 C 312.935 -2.02417 -2.98429 0
M  V30 3267 O 312.039 -1.3714 -3.8893 0
M  V30 3268 H 311.38 -0.434325 -0.502253 0
M  V30 3269 H 313.91 -1.74661 -1.06558 0
M  V30 3270 H 313.92 -2.12559 -3.48257 0
M  V30 3271 H 312.595 -3.06343 -2.81295 0
M  V30 3272 H 311.172 -1.3554 -3.47395 0
M  V30 3273 N 313.357 1.07166 -1.15556 0
M  V30 3274 C 314.267 2.17947 -0.868116 0
M  V30 3275 C 315.283 1.73297 0.156297 0
M  V30 3276 O 316.459 2.01392 -0.0182327 0
M  V30 3277 C 313.524 3.44789 -0.36355 0
M  V30 3278 C 312.585 4.03996 -1.45209 0
M  V30 3279 C 311.818 5.24783 -0.971508 0
M  V30 3280 O 312.041 5.70109 0.182194 0
M  V30 3281 O 310.975 5.75715 -1.75603 0
M  V30 3282 H 314.801 2.4503 -1.79427 0
M  V30 3283 H 312.386 1.16539 -0.934824 0
M  V30 3284 H 314.268 4.21307 -0.0887113 0
M  V30 3285 H 312.943 3.19253 0.534708 0
M  V30 3286 H 311.85 3.29009 -1.78056 0
M  V30 3287 H 313.183 4.33808 -2.32533 0
M  V30 3288 N 314.835 0.952656 1.25548 0
M  V30 3289 C 316.246 0.647392 1.75116 0
M  V30 3290 C 316.597 -0.837274 1.77438 0
M  V30 3291 O 315.722 -1.65525 1.39393 0
M  V30 3292 C 316.317 1.16845 3.18014 0
M  V30 3293 C 314.876 0.913382 3.6515 0
M  V30 3294 C 314.023 1.31265 2.44264 0
M  V30 3295 H 316.974 1.12968 1.11462 0
M  V30 3296 H 316.995 0.527606 3.76824 0
M  V30 3297 H 316.507 2.24902 3.16292 0
M  V30 3298 H 314.608 -0.152316 3.72289 0
M  V30 3299 H 314.721 1.54845 4.53387 0
M  V30 3300 H 313.085 0.731028 2.43984 0
M  V30 3301 H 313.868 2.40239 2.45234 0
M  V30 3302 N 316.313 -1.40141 0.720998 0
M  V30 3303 C 317.245 -2.29177 0.0324669 0
M  V30 3304 C 318.258 -1.46105 -0.718126 0
M  V30 3305 O 319.447 -1.69335 -0.564608 0
M  V30 3306 C 316.547 -3.24473 -0.978292 0
M  V30 3307 C 315.72 -4.36423 -0.292115 0
M  V30 3308 C 314.779 -5.12122 -1.20901 0
M  V30 3309 O 313.805 -5.64981 -0.691766 0
M  V30 3310 N 315.007 -5.21992 -2.53978 0
M  V30 3311 H 317.772 -2.88909 0.796984 0
M  V30 3312 H 315.333 -1.51569 0.569068 0
M  V30 3313 H 317.325 -3.71987 -1.59398 0
M  V30 3314 H 315.895 -2.65871 -1.64413 0
M  V30 3315 H 315.115 -3.90967 0.503847 0
M  V30 3316 H 316.403 -5.08467 0.183971 0
M  V30 3317 H 315.801 -4.8054 -2.98493 0
M  V30 3318 H 314.358 -5.72995 -3.10677 0
M  V30 3319 N 317.792 -0.46758 -1.50504 0
M  V30 3320 C 319.02 0.0864133 -2.06719 0
M  V30 3321 C 319.435 1.33819 -1.33184 0
M  V30 3322 O 318.792 1.78061 -0.400083 0
M  V30 3323 C 318.843 0.378079 -3.59517 0
M  V30 3324 O 318.564 -0.824044 -4.3028 0
M  V30 3325 C 320.065 0.979426 -4.32345 0
M  V30 3326 H 317.285 -0.00551697 -0.670977 0
M  V30 3327 H 319.829 -0.655354 -1.93715 0
M  V30 3328 H 317.984 1.06977 -3.72337 0
M  V30 3329 H 318.398 -0.566518 -5.21432 0
M  V30 3330 H 319.872 1.1333 -5.40241 0
M  V30 3331 H 320.349 1.9686 -3.9261 0
M  V30 3332 H 320.955 0.326216 -4.24047 0
M  V30 3333 N 319.27 1.56325 -0.20005 0
M  V30 3334 C 320.686 1.58839 0.155716 0
M  V30 3335 C 320.886 1.21636 1.60645 0
M  V30 3336 O 319.942 0.941437 2.34293 0
M  V30 3337 C 321.255 3.0032 -0.151124 0
M  V30 3338 C 322.803 3.12866 -0.0916284 0
M  V30 3339 C 323.278 4.56488 -0.371845 0
M  V30 3340 N 324.769 4.62089 -0.320641 0
M  V30 3341 C 325.504 5.71116 -0.511243 0
M  V30 3342 N 325 6.88592 -0.762461 0
M  V30 3343 N 326.793 5.60335 -0.445157 0
M  V30 3344 H 318.944 1.78788 -1.14668 0
M  V30 3345 H 321.207 0.829996 -0.458051 0
M  V30 3346 H 320.913 3.32117 -1.15721 0
M  V30 3347 H 320.787 3.73257 0.543986 0
M  V30 3348 H 323.174 2.80878 0.905065 0
M  V30 3349 H 323.255 2.42304 -0.81989 0
M  V30 3350 H 322.899 4.89189 -1.36588 0
M  V30 3351 H 322.829 5.25246 0.377362 0
M  V30 3352 H 325.32 3.77665 -0.13329 0
M  V30 3353 H 325.633 7.67581 -0.896576 0
M  V30 3354 H 323.978 6.90387 -0.799412 0
M  V30 3355 H 327.169 4.67436 -0.249278 0
M  V30 3356 H 327.342 6.45243 -0.597116 0
M  V30 3357 N 320.748 -0.0735177 1.57428 0
M  V30 3358 C 321.973 -0.789787 1.91774 0
M  V30 3359 C 322.398 -1.70413 0.796306 0
M  V30 3360 O 321.756 -1.79555 -0.250961 0
M  V30 3361 C 321.804 -1.5609 3.25067 0
M  V30 3362 O 320.908 -2.67144 3.14178 0
M  V30 3363 H 320.249 -0.215582 0.628029 0
M  V30 3364 H 322.779 -0.0422781 2.04556 0
M  V30 3365 H 322.789 -1.94052 3.58898 0
M  V30 3366 H 321.464 -0.890015 4.06265 0
M  V30 3367 H 320.041 -2.32052 2.91901 0
M  V30 3368 N 322.226 -1.5378 -0.344866 0
M  V30 3369 C 323.637 -1.62428 -0.920552 0
M  V30 3370 C 323.988 -0.504747 -1.89596 0
M  V30 3371 O 323.113 0.365711 -2.13287 0
M  V30 3372 C 323.708 -2.94419 -1.67639 0
M  V30 3373 C 322.267 -3.05333 -2.20111 0
M  V30 3374 C 321.414 -2.57866 -1.01982 0
M  V30 3375 H 324.365 -1.58222 -0.123042 0
M  V30 3376 H 324.386 -2.83384 -2.53917 0
M  V30 3377 H 323.898 -3.7588 -0.966224 0
M  V30 3378 H 321.999 -2.28502 -2.94308 0
M  V30 3379 H 322.112 -4.10778 -2.46573 0
M  V30 3380 H 320.476 -2.13241 -1.39285 0
M  V30 3381 H 321.259 -3.41765 -0.324308 0
M  V30 3382 N 323.704 0.605807 -1.45491 0
M  V30 3383 C 324.981 1.36522 -1.40075 0
M  V30 3384 C 325.361 2.10976 -0.0722744 0
M  V30 3385 O 324.709 2.08007 0.945808 0
M  V30 3386 C 324.919 2.31056 -2.61561 0
M  V30 3387 C 326.267 2.93608 -3.06724 0
M  V30 3388 O 327.291 2.41376 -2.61946 0
M  V30 3389 O 326.15 3.88421 -3.84437 0
M  V30 3390 H 323.244 0.612248 -0.555951 0
M  V30 3391 H 325.79 0.628747 -1.57623 0
M  V30 3392 H 324.562 1.75311 -3.49831 0
M  V30 3393 H 324.185 3.12081 -2.46356 0
M  V30 3394 N 325.182 1.32811 0.848464 0
M  V30 3395 C 326.422 1.25046 1.61687 0
M  V30 3396 C 326.786 -0.183464 1.91121 0
M  V30 3397 O 327.987 -0.384937 2.66029 0
M  V30 3398 C 326.258 2.09201 2.89775 0
M  V30 3399 S 327.817 2.18526 3.80515 0
M  V30 3400 H 324.635 0.445023 0.554505 0
M  V30 3401 H 327.237 1.67733 1.00429 0
M  V30 3402 H 325.941 3.12433 2.66108 0
M  V30 3403 H 325.472 1.67315 3.56047 0
M  V30 3404 H 327.487 1.3393 4.77784 0
M  V30 3405 N 326.66 -1.06551 1.16123 0
M  V30 3406 C 327.888 -1.83005 0.965237 0
M  V30 3407 C 328.303 -1.82423 -0.486542 0
M  V30 3408 O 327.66 -1.24152 -1.33763 0
M  V30 3409 C 327.711 -3.29733 1.48183 0
M  V30 3410 O 327.432 -3.30416 2.87674 0
M  V30 3411 C 328.933 -4.22926 1.32848 0
M  V30 3412 H 326.153 -0.577118 0.342309 0
M  V30 3413 H 328.697 -1.3445 1.54089 0
M  V30 3414 H 326.852 -3.75609 0.948517 0
M  V30 3415 H 327.266 -4.22149 3.11272 0
M  V30 3416 H 328.74 -5.23916 1.73827 0
M  V30 3417 H 329.217 -4.38346 0.273692 0
M  V30 3418 H 329.823 -3.82894 1.85127 0
M  V30 3419 N 328.138 -0.959301 -1.25041 0
M  V30 3420 C 329.088 -0.453888 -2.23436 0
M  V30 3421 C 330.072 0.459461 -1.542 0
M  V30 3422 O 331.264 0.291752 -1.74579 0
M  V30 3423 C 328.393 0.262667 -3.42294 0
M  V30 3424 C 327.479 -0.669022 -4.1879 0
M  V30 3425 N 327.87 -1.80267 -4.72586 0
M  V30 3426 C 326.168 -0.47814 -4.4343 0
M  V30 3427 C 326.869 -2.38475 -5.3057 0
M  V30 3428 N 325.845 -1.67078 -5.17287 0
M  V30 3429 H 329.647 -1.319 -2.6264 0
M  V30 3430 H 327.161 -0.817358 -1.40332 0
M  V30 3431 H 329.158 0.641911 -4.11929 0
M  V30 3432 H 327.818 1.12432 -3.04613 0
M  V30 3433 H 328.829 -2.18442 -4.69578 0
M  V30 3434 H 325.506 0.340249 -4.16111 0
M  V30 3435 H 326.896 -3.34094 -5.8295 0
M  V30 3436 N 329.616 1.39756 -0.72842 0
M  V30 3437 C 330.893 1.94574 -0.200079 0
M  V30 3438 C 331.273 1.66569 1.29684 0
M  V30 3439 O 330.621 0.990326 2.05924 0
M  V30 3440 C 330.831 3.45004 -0.526608 0
M  V30 3441 C 332.179 4.21965 -0.472318 0
M  V30 3442 O 333.203 3.53173 -0.463413 0
M  V30 3443 O 332.062 5.44552 -0.461075 0
M  V30 3444 H 329.156 0.826289 -0.0342851 0
M  V30 3445 H 331.702 1.49293 -0.806829 0
M  V30 3446 H 330.474 3.58796 -1.56144 0
M  V30 3447 H 330.097 3.97449 0.109449 0
M  V30 3448 N 331.094 0.475555 1.50254 0
M  V30 3449 C 332.042 -0.330276 2.30243 0
M  V30 3450 C 333.036 -0.986306 1.37726 0
M  V30 3451 O 334.242 -0.9169 1.54897 0
M  V30 3452 H 330.617 -0.125353 0.741479 0
M  V30 3453 H 332.588 0.364702 2.96163 0
M  V30 3454 C 331.337 -1.39704 3.18399 0
M  V30 3455 H 330.66 -0.901621 3.89501 0
M  V30 3456 H 332.1 -1.93336 3.77355 0
M  V30 3457 C 330.559 -2.4014 2.36293 0
M  V30 3458 O 331.089 -3.45504 2.04914 0
M  V30 3459 N 329.295 -2.1197 1.98789 0
M  V30 3460 H 328.842 -1.2631 2.24507 0
M  V30 3461 H 328.8 -2.79403 1.44157 0
M  V30 3462 N 332.573 -1.56217 0.208337 0
M  V30 3463 C 333.984 -1.84243 -0.301904 0
M  V30 3464 C 334.335 -1.12939 -1.60434 0
M  V30 3465 O 333.46 -0.39461 -2.12772 0
M  V30 3466 C 334.055 -3.34231 -0.554543 0
M  V30 3467 C 332.614 -3.62621 -1.00912 0
M  V30 3468 C 331.761 -2.77224 -0.064933 0
M  V30 3469 H 334.712 -1.52712 0.431833 0
M  V30 3470 H 334.733 -3.5372 -1.40223 0
M  V30 3471 H 334.245 -3.86099 0.393561 0
M  V30 3472 H 332.346 -3.16197 -1.97104 0
M  V30 3473 H 332.459 -4.7071 -0.892674 0
M  V30 3474 H 330.823 -2.48256 -0.56929 0
M  V30 3475 H 331.606 -3.31887 0.877851 0
M  V30 3476 N 334.051 0.0651679 -1.57465 0
M  V30 3477 C 334.981 1.07693 -2.07182 0
M  V30 3478 C 335.962 1.39962 -0.966673 0
M  V30 3479 O 337.147 1.49475 -1.2398 0
M  V30 3480 C 334.277 2.3885 -2.52127 0
M  V30 3481 C 333.231 2.20917 -3.66579 0
M  V30 3482 C 332.557 3.57515 -3.97601 0
M  V30 3483 C 333.857 1.62493 -4.9638 0
M  V30 3484 H 335.551 0.663199 -2.91962 0
M  V30 3485 H 333.097 0.317569 -1.40455 0
M  V30 3486 H 335.05 3.09928 -2.85522 0
M  V30 3487 H 333.774 2.82215 -1.64384 0
M  V30 3488 H 332.433 1.52279 -3.33477 0
M  V30 3489 H 332.081 3.98463 -3.06979 0
M  V30 3490 H 331.781 3.46353 -4.74672 0
M  V30 3491 H 333.305 4.30013 -4.33499 0
M  V30 3492 H 334.719 2.23445 -5.27963 0
M  V30 3493 H 333.116 1.62009 -5.77818 0
M  V30 3494 H 334.186 0.587041 -4.81333 0
M  V30 3495 N 335.529 1.53961 0.336706 0
M  V30 3496 C 336.439 1.85432 1.43708 0
M  V30 3497 C 337.455 0.745053 1.57242 0
M  V30 3498 O 338.631 1.03804 1.72588 0
M  V30 3499 C 335.696 2.06349 2.78605 0
M  V30 3500 C 334.757 3.30191 2.74358 0
M  V30 3501 C 333.99 3.50101 4.02822 0
M  V30 3502 O 334.213 2.7371 5.00439 0
M  V30 3503 O 333.147 4.43547 4.06878 0
M  V30 3504 H 336.973 2.78975 1.20028 0
M  V30 3505 H 334.558 1.39701 0.52952 0
M  V30 3506 H 336.44 2.21513 3.58483 0
M  V30 3507 H 335.115 1.15995 3.02203 0
M  V30 3508 H 334.022 3.20425 1.93078 0
M  V30 3509 H 335.355 4.2056 2.55715 0
M  V30 3510 N 337.007 -0.598083 1.45811 0
M  V30 3511 C 338.235 -1.38322 1.53866 0
M  V30 3512 C 338.65 -1.87992 0.174479 0
M  V30 3513 O 338.007 -1.62756 -0.825627 0
M  V30 3514 C 338.058 -2.58125 2.53089 0
M  V30 3515 O 337.779 -2.10516 3.84206 0
M  V30 3516 C 339.28 -3.50869 2.70935 0
M  V30 3517 H 336.5 -0.423093 0.520801 0
M  V30 3518 H 339.044 -0.728527 1.91083 0
M  V30 3519 H 337.199 -3.19615 2.18917 0
M  V30 3520 H 337.613 -2.88425 4.38077 0
M  V30 3521 H 339.087 -4.31451 3.44317 0
M  V30 3522 H 339.564 -4.01822 1.77301 0
M  V30 3523 H 340.17 -2.95225 3.06141 0
M  V30 3524 N 338.485 -1.33259 -0.841409 0
M  V30 3525 C 339.901 -1.12538 -1.13169 0
M  V30 3526 C 340.101 0.0854037 -2.01319 0
M  V30 3527 O 339.157 0.766417 -2.40587 0
M  V30 3528 C 340.47 -2.41156 -1.79623 0
M  V30 3529 C 342.018 -2.47038 -1.922 0
M  V30 3530 C 342.493 -3.7561 -2.6207 0
M  V30 3531 N 343.984 -3.76667 -2.69585 0
M  V30 3532 C 344.719 -4.72861 -3.2433 0
M  V30 3533 N 344.215 -5.79428 -3.79783 0
M  V30 3534 N 346.008 -4.6034 -3.22558 0
M  V30 3535 H 338.159 -2.10868 -0.254676 0
M  V30 3536 H 340.422 -0.931615 -0.175493 0
M  V30 3537 H 340.128 -3.29747 -1.22311 0
M  V30 3538 H 340.002 -2.53114 -2.79666 0
M  V30 3539 H 342.389 -1.58898 -2.48667 0
M  V30 3540 H 342.47 -2.39022 -0.911148 0
M  V30 3541 H 342.114 -4.64131 -2.06263 0
M  V30 3542 H 342.044 -3.80902 -3.63622 0
M  V30 3543 H 344.535 -2.99648 -2.30259 0
M  V30 3544 H 344.848 -6.48867 -4.19752 0
M  V30 3545 H 343.193 -5.83166 -3.78078 0
M  V30 3546 H 346.384 -3.76244 -2.78492 0
M  V30 3547 H 346.557 -5.35478 -3.64921 0
M  V30 3548 N 339.963 1.05934 -1.16686 0
M  V30 3549 C 340.911 2.15603 -0.872817 0
M  V30 3550 C 341.905 1.68647 0.159576 0
M  V30 3551 O 343.111 1.79995 0.0132125 0
M  V30 3552 H 339.486 0.703885 -0.264671 0
M  V30 3553 H 341.457 2.37613 -1.80507 0
M  V30 3554 C 340.206 3.45457 -0.394344 0
M  V30 3555 H 339.529 3.81984 -1.18019 0
M  V30 3556 H 340.969 4.2339 -0.227408 0
M  V30 3557 C 339.428 3.25021 0.88673 0
M  V30 3558 O 339.958 3.50906 1.95519 0
M  V30 3559 N 338.164 2.78437 0.831925 0
M  V30 3560 H 337.711 2.57572 -0.0377619 0
M  V30 3561 H 337.669 2.65144 1.68956 0
M  V30 3562 N 341.441 0.965919 1.2453 0
M  V30 3563 C 342.69 0.622437 1.91856 0
M  V30 3564 C 343.003 -0.846006 1.76358 0
M  V30 3565 O 344.209 -1.29993 2.38357 0
M  V30 3566 C 342.665 1.0626 3.43856 0
M  V30 3567 C 342.273 2.55437 3.68043 0
M  V30 3568 C 344.017 0.792183 4.17043 0
M  V30 3569 C 341.924 2.93196 5.13605 0
M  V30 3570 H 340.854 0.229092 0.718354 0
M  V30 3571 H 343.505 1.17189 1.41206 0
M  V30 3572 H 341.887 0.441476 3.93531 0
M  V30 3573 H 343.061 3.22665 3.28974 0
M  V30 3574 H 341.376 2.8007 3.08139 0
M  V30 3575 H 343.973 1.05031 5.24283 0
M  V30 3576 H 344.316 -0.271584 4.15413 0
M  V30 3577 H 344.849 1.37419 3.73311 0
M  V30 3578 H 341.588 3.98636 5.20355 0
M  V30 3579 H 341.108 2.30651 5.53679 0
M  V30 3580 H 342.787 2.83004 5.81823 0
M  V30 3581 N 342.919 -1.39368 0.735821 0
M  V30 3582 C 344.147 -2.04795 0.294393 0
M  V30 3583 C 344.562 -1.55478 -1.07107 0
M  V30 3584 O 343.919 -0.720038 -1.67695 0
M  V30 3585 C 343.97 -3.6035 0.288071 0
M  V30 3586 O 343.691 -4.07852 1.59963 0
M  V30 3587 C 345.192 -4.42976 -0.169422 0
M  V30 3588 H 342.412 -0.658571 0.128551 0
M  V30 3589 H 344.956 -1.78399 0.999701 0
M  V30 3590 H 343.111 -3.85645 -0.368355 0
M  V30 3591 H 343.525 -5.02181 1.51375 0
M  V30 3592 H 344.999 -5.51864 -0.122687 0
M  V30 3593 H 345.476 -4.22068 -1.21472 0
M  V30 3594 H 346.082 -4.22832 0.457469 0
M  V30 3595 N 344.397 -0.483516 -1.5 0
M  V30 3596 C 345.644 0.0671597 -2.02389 0
M  V30 3597 C 345.972 1.38597 -1.36459 0
M  V30 3598 O 345.227 1.89634 -0.483458 0
M  V30 3599 C 345.526 0.286226 -3.56252 0
M  V30 3600 C 345.192 -0.952416 -4.40726 0
M  V30 3601 C 343.854 -1.29199 -4.63531 0
M  V30 3602 C 346.206 -1.77655 -4.89988 0
M  V30 3603 C 343.534 -2.45553 -5.32842 0
M  V30 3604 C 345.886 -2.93147 -5.60578 0
M  V30 3605 C 344.55 -3.27505 -5.81633 0
M  V30 3606 H 343.82 0.0245755 -0.740592 0
M  V30 3607 H 346.467 -0.640124 -1.80485 0
M  V30 3608 H 344.772 1.07587 -3.76739 0
M  V30 3609 H 346.469 0.726473 -3.94365 0
M  V30 3610 H 343.059 -0.677881 -4.23205 0
M  V30 3611 H 347.243 -1.52737 -4.72213 0
M  V30 3612 H 342.499 -2.72431 -5.47349 0
M  V30 3613 H 346.673 -3.57344 -5.97727 0
M  V30 3614 H 344.3 -4.1777 -6.35116 0
M  V30 3615 N 345.875 1.56104 -0.216619 0
M  V30 3616 C 347.122 1.98172 0.416416 0
M  V30 3617 C 347.45 1.10413 1.60122 0
M  V30 3618 O 346.705 0.147967 1.9514 0
M  V30 3619 C 347.004 3.45923 0.898464 0
M  V30 3620 C 346.67 4.50559 -0.175288 0
M  V30 3621 C 345.332 4.78897 -0.470271 0
M  V30 3622 C 347.684 5.1334 -0.901728 0
M  V30 3623 C 345.012 5.67299 -1.4963 0
M  V30 3624 C 347.364 6.02853 -1.91705 0
M  V30 3625 C 346.028 6.29537 -2.21901 0
M  V30 3626 H 345.298 0.725164 0.152377 0
M  V30 3627 H 347.945 1.88839 -0.318103 0
M  V30 3628 H 346.25 3.52434 1.71165 0
M  V30 3629 H 347.947 3.75841 1.39803 0
M  V30 3630 H 344.537 4.28551 0.0647806 0
M  V30 3631 H 348.721 4.91521 -0.687072 0
M  V30 3632 H 343.977 5.86239 -1.73592 0
M  V30 3633 H 348.151 6.50552 -2.48505 0
M  V30 3634 H 345.778 6.97835 -3.01548 0
M  V30 3635 N 347.353 -0.0568162 1.57498 0
M  V30 3636 C 348.578 -0.769402 1.92601 0
M  V30 3637 C 349.003 -1.69559 0.814336 0
M  V30 3638 O 348.361 -1.79811 -0.231903 0
M  V30 3639 C 348.409 -1.52634 3.26704 0
M  V30 3640 O 347.513 -2.63797 3.16994 0
M  V30 3641 H 346.854 -0.208909 0.63028 0
M  V30 3642 H 349.384 -0.0205798 2.0459 0
M  V30 3643 H 349.394 -1.90234 3.60936 0
M  V30 3644 H 348.069 -0.846875 4.07186 0
M  V30 3645 H 346.646 -2.28943 2.94346 0
M  V30 3646 N 348.832 -1.54138 -0.328536 0
M  V30 3647 C 350.06 -1.76062 -1.08673 0
M  V30 3648 C 350.475 -0.506852 -1.81869 0
M  V30 3649 O 349.832 0.522223 -1.74869 0
M  V30 3650 C 349.883 -2.95054 -2.08866 0
M  V30 3651 O 349.604 -4.15583 -1.38644 0
M  V30 3652 C 351.105 -3.2915 -2.96943 0
M  V30 3653 H 348.325 -0.587889 -0.323461 0
M  V30 3654 H 350.869 -2.0101 -0.376175 0
M  V30 3655 H 349.024 -2.72394 -2.75464 0
M  V30 3656 H 349.438 -4.82481 -2.05699 0
M  V30 3657 H 350.912 -4.15723 -3.63151 0
M  V30 3658 H 351.389 -2.461 -3.63774 0
M  V30 3659 H 351.995 -3.53871 -2.35914 0
M  V30 3660 N 350.31 0.590341 -1.46126 0
M  V30 3661 C 351.258 1.72105 -1.5647 0
M  V30 3662 C 352.252 1.63756 -0.433612 0
M  V30 3663 O 353.458 1.69342 -0.610194 0
M  V30 3664 H 349.833 0.568889 -0.491802 0
M  V30 3665 H 351.804 1.6051 -2.51553 0
M  V30 3666 C 350.553 3.10493 -1.56491 0
M  V30 3667 H 349.876 3.17583 -2.4286 0
M  V30 3668 H 351.316 3.8939 -1.67785 0
M  V30 3669 C 349.775 3.3563 -0.292231 0
M  V30 3670 O 350.305 3.96875 0.620739 0
M  V30 3671 N 348.511 2.90026 -0.182523 0
M  V30 3672 H 348.058 2.40367 -0.926356 0
M  V30 3673 H 348.016 3.07218 0.668152 0
M  V30 3674 N 351.788 1.33704 0.83433 0
M  V30 3675 C 353.028 1.26754 1.60352 0
M  V30 3676 C 353.392 -0.163182 1.91305 0
M  V30 3677 O 354.593 -0.3567 2.66423 0
M  V30 3678 C 352.864 2.12262 2.8754 0
M  V30 3679 S 354.423 2.22549 3.78176 0
M  V30 3680 H 351.241 0.450879 0.549753 0
M  V30 3681 H 353.843 1.68788 0.986444 0
M  V30 3682 H 352.547 3.15238 2.62779 0
M  V30 3683 H 352.078 1.71082 3.54252 0
M  V30 3684 H 354.093 1.3899 4.76336 0
M  V30 3685 N 353.266 -1.05314 1.17247 0
M  V30 3686 C 354.512 -1.78557 0.961513 0
M  V30 3687 C 354.845 -1.87419 -0.508697 0
M  V30 3688 O 354.12 -1.37307 -1.37757 0
M  V30 3689 C 354.403 -3.22514 1.60176 0
M  V30 3690 C 354.256 -3.21673 3.14399 0
M  V30 3691 C 355.575 -4.20318 1.30463 0
M  V30 3692 H 352.694 -0.6482 0.350723 0
M  V30 3693 H 355.336 -1.23102 1.44727 0
M  V30 3694 H 353.486 -3.69867 1.18871 0
M  V30 3695 H 355.158 -2.82405 3.64753 0
M  V30 3696 H 353.401 -2.60048 3.47214 0
M  V30 3697 H 354.072 -4.23271 3.54324 0
M  V30 3698 H 356.548 -3.81454 1.66229 0
M  V30 3699 H 355.424 -5.19289 1.77848 0
M  V30 3700 H 355.685 -4.41526 0.22521 0
M  V30 3701 N 354.744 -0.972509 -1.24016 0
M  V30 3702 C 355.654 -0.5143 -2.28893 0
M  V30 3703 C 356.67 0.427078 -1.68677 0
M  V30 3704 O 357.846 0.298939 -1.99169 0
M  V30 3705 C 354.911 0.183598 -3.46214 0
M  V30 3706 C 353.972 -0.798202 -4.21814 0
M  V30 3707 C 353.205 -0.133514 -5.33533 0
M  V30 3708 O 353.428 1.07714 -5.60137 0
M  V30 3709 O 352.362 -0.828103 -5.96176 0
M  V30 3710 H 356.188 -1.38629 -2.70214 0
M  V30 3711 H 353.773 -0.739769 -1.29799 0
M  V30 3712 H 355.655 0.575433 -4.17453 0
M  V30 3713 H 354.33 1.03048 -3.0686 0
M  V30 3714 H 353.237 -1.24059 -3.52931 0
M  V30 3715 H 354.57 -1.61364 -4.64997 0
M  V30 3716 N 356.222 1.38976 -0.743202 0
M  V30 3717 C 357.47 1.99948 -0.29417 0
M  V30 3718 C 357.791 1.59279 1.12495 0
M  V30 3719 O 357.061 0.844808 1.76748 0
M  V30 3720 H 355.641 0.739473 -0.105774 0
M  V30 3721 H 358.303 1.699 -0.954986 0
M  V30 3722 H 357.399 3.10142 -0.349056 0
M  V30 3723 N 357.7 0.491464 1.49741 0
M  V30 3724 C 358.928 -0.0535151 2.06831 0
M  V30 3725 C 359.343 -1.31683 1.35296 0
M  V30 3726 O 358.7 -1.77402 0.42836 0
M  V30 3727 C 358.751 -0.320835 3.60073 0
M  V30 3728 O 358.472 0.892394 4.28915 0
M  V30 3729 C 359.973 -0.910519 4.33848 0
M  V30 3730 H 357.193 0.0161909 0.670805 0
M  V30 3731 H 359.737 0.68609 1.92647 0
M  V30 3732 H 357.892 -1.0104 3.73991 0
M  V30 3733 H 358.306 0.649401 5.20464 0
M  V30 3734 H 359.78 -1.04721 5.41976 0
M  V30 3735 H 360.257 -1.90589 3.95692 0
M  V30 3736 H 360.863 -0.258712 4.24512 0
M  V30 3737 N 359.178 -1.55987 0.224894 0
M  V30 3738 C 360.141 -2.19178 -0.670348 0
M  V30 3739 C 361.141 -1.15461 -1.11917 0
M  V30 3740 O 362.331 -1.40675 -1.02743 0
M  V30 3741 C 359.463 -2.81777 -1.9187 0
M  V30 3742 H 360.656 -2.99662 -0.119364 0
M  V30 3743 H 358.209 -1.5628 -0.0247128 0
M  V30 3744 H 358.944 -2.05172 -2.51147 0
M  V30 3745 H 358.729 -3.57732 -1.60531 0
M  V30 3746 H 360.219 -3.30205 -2.55645 0
M  V30 3747 N 360.656 0.0484629 -1.57525 0
M  V30 3748 C 362.072 0.40375 -1.54409 0
M  V30 3749 C 362.272 1.77786 -0.948384 0
M  V30 3750 O 361.328 2.46189 -0.560983 0
M  V30 3751 C 362.641 0.323394 -2.98956 0
M  V30 3752 C 364.189 0.401892 -3.10409 0
M  V30 3753 C 364.664 0.351195 -4.56652 0
M  V30 3754 N 366.155 0.410576 -4.61377 0
M  V30 3755 C 366.89 0.393933 -5.72045 0
M  V30 3756 N 366.386 0.330724 -6.9201 0
M  V30 3757 N 368.179 0.442227 -5.60358 0
M  V30 3758 H 360.33 -0.851016 -1.94606 0
M  V30 3759 H 362.593 -0.321721 -0.89174 0
M  V30 3760 H 362.299 -0.62011 -3.4619 0
M  V30 3761 H 362.173 1.12463 -3.60044 0
M  V30 3762 H 364.56 1.33582 -2.63134 0
M  V30 3763 H 364.641 -0.428342 -2.52188 0
M  V30 3764 H 364.285 -0.578987 -5.04589 0
M  V30 3765 H 364.215 1.19928 -5.12762 0
M  V30 3766 H 366.706 0.462729 -3.75056 0
M  V30 3767 H 367.019 0.322592 -7.72126 0
M  V30 3768 H 365.364 0.29706 -6.94365 0
M  V30 3769 H 368.555 0.489464 -4.65534 0
M  V30 3770 H 368.728 0.425788 -6.466 0
M  V30 3771 N 362.134 1.5431 0.320358 0
M  V30 3772 C 363.382 1.72327 1.05583 0
M  V30 3773 C 363.703 0.50149 1.88441 0
M  V30 3774 O 362.973 -0.48448 1.89815 0
M  V30 3775 H 361.553 0.635387 0.3928 0
M  V30 3776 H 364.215 1.91621 0.356019 0
M  V30 3777 H 363.311 2.60426 1.72003 0
M  V30 3778 N 363.613 -0.582584 1.46437 0
M  V30 3779 C 364.859 -1.34278 1.51978 0
M  V30 3780 C 365.192 -1.93446 0.170973 0
M  V30 3781 O 364.467 -1.76481 -0.817608 0
M  V30 3782 C 364.75 -2.47203 2.61845 0
M  V30 3783 C 364.603 -1.93069 4.06257 0
M  V30 3784 C 365.922 -3.49247 2.67795 0
M  V30 3785 H 363.041 -0.486876 0.553282 0
M  V30 3786 H 365.683 -0.654437 1.78374 0
M  V30 3787 H 363.833 -3.0592 2.39469 0
M  V30 3788 H 365.505 -1.38808 4.3992 0
M  V30 3789 H 363.748 -1.23898 4.1573 0
M  V30 3790 H 364.419 -2.74586 4.7886 0
M  V30 3791 H 366.895 -3.00411 2.8791 0
M  V30 3792 H 365.771 -4.25719 3.46489 0
M  V30 3793 H 366.032 -4.06482 1.73852 0
M  V30 3794 N 365.091 -1.34144 -0.827227 0
M  V30 3795 C 366.337 -1.26446 -1.58554 0
M  V30 3796 C 366.67 0.1664 -1.93486 0
M  V30 3797 O 365.945 1.1107 -1.59667 0
M  V30 3798 C 366.228 -2.15111 -2.8879 0
M  V30 3799 C 366.081 -3.66712 -2.60465 0
M  V30 3800 C 367.4 -2.03311 -3.90324 0
M  V30 3801 H 364.519 -0.46067 -0.575284 0
M  V30 3802 H 367.161 -1.64356 -0.953269 0
M  V30 3803 H 365.311 -1.8291 -3.42748 0
M  V30 3804 H 366.983 -4.09259 -2.1285 0
M  V30 3805 H 365.226 -3.88014 -1.93978 0
M  V30 3806 H 365.897 -4.24112 -3.53317 0
M  V30 3807 H 368.373 -2.31574 -3.45706 0
M  V30 3808 H 367.249 -2.67582 -4.79261 0
M  V30 3809 H 367.51 -1.00879 -4.30437 0
M  V30 3810 N 366.569 1.04691 -1.17803 0
M  V30 3811 C 367.815 1.78045 -0.970969 0
M  V30 3812 C 368.148 1.87686 0.498751 0
M  V30 3813 O 367.423 1.38035 1.37027 0
M  V30 3814 C 367.706 3.2166 -1.61884 0
M  V30 3815 C 367.559 3.20001 -3.161 0
M  V30 3816 C 368.878 4.1962 -1.3269 0
M  V30 3817 H 365.997 0.64633 -0.354155 0
M  V30 3818 H 368.639 1.22333 -1.45378 0
M  V30 3819 H 366.789 3.69232 -1.20831 0
M  V30 3820 H 368.461 2.80467 -3.66246 0
M  V30 3821 H 366.704 2.58203 -3.48588 0
M  V30 3822 H 367.375 4.21386 -3.56564 0
M  V30 3823 H 369.851 3.80567 -1.68249 0
M  V30 3824 H 368.727 5.18339 -1.80599 0
M  V30 3825 H 368.988 4.414 -0.248622 0
M  V30 3826 N 368.047 0.979072 1.23499 0
M  V30 3827 C 369.01 0.523244 2.23147 0
M  V30 3828 C 370.01 -0.386406 1.56088 0
M  V30 3829 O 371.2 -0.180283 1.73265 0
M  V30 3830 C 368.332 -0.240739 3.40049 0
M  V30 3831 H 369.525 1.40432 2.64989 0
M  V30 3832 H 367.078 0.764824 1.36309 0
M  V30 3833 H 367.813 -1.13841 3.03662 0
M  V30 3834 H 367.598 0.412207 3.89927 0
M  V30 3835 H 369.088 -0.548297 4.13985 0
M  V30 3836 N 369.525 -1.3858 0.750561 0
M  V30 3837 C 370.753 -2.04471 0.316098 0
M  V30 3838 C 371.168 -1.56606 -1.05452 0
M  V30 3839 O 370.525 -0.737784 -1.66922 0
M  V30 3840 C 370.576 -3.60025 0.326275 0
M  V30 3841 O 370.297 -4.06133 1.6428 0
M  V30 3842 C 371.798 -4.43131 -0.122429 0
M  V30 3843 H 369.018 -0.65717 0.135528 0
M  V30 3844 H 371.562 -1.77329 1.01857 0
M  V30 3845 H 369.717 -3.86014 -0.327431 0
M  V30 3846 H 370.131 -5.00547 1.56693 0
M  V30 3847 H 371.605 -5.51963 -0.0641473 0
M  V30 3848 H 372.082 -4.23333 -1.16988 0
M  V30 3849 H 372.688 -4.22323 0.50229 0
M  V30 3850 N 371.003 -0.499398 -1.49478 0
M  V30 3851 C 372.251 0.0455996 -2.02049 0
M  V30 3852 C 372.572 1.37633 -1.38138 0
M  V30 3853 O 371.842 1.8842 -0.536166 0
M  V30 3854 H 370.422 0.0198416 -0.746736 0
M  V30 3855 H 373.084 -0.656274 -1.83519 0
M  V30 3856 H 372.18 0.176445 -3.11601 0
M  V30 3857 N 372.481 1.55866 -0.233164 0
M  V30 3858 C 373.758 1.90471 0.444988 0
M  V30 3859 C 374.138 1.15209 1.7689 0
M  V30 3860 O 373.486 0.265119 2.26957 0
M  V30 3861 C 373.696 3.4333 0.626559 0
M  V30 3862 C 375.044 4.14319 0.92871 0
M  V30 3863 O 376.068 3.48993 0.712926 0
M  V30 3864 O 374.927 5.29846 1.33887 0
M  V30 3865 H 372.021 0.792347 0.236885 0
M  V30 3866 H 374.567 1.67437 -0.276211 0
M  V30 3867 H 373.339 3.90095 -0.306822 0
M  V30 3868 H 372.962 3.72181 1.39881 0
M  V30 3869 N 373.959 -0.0401083 1.57549 0
M  V30 3870 C 375.375 -0.395556 1.54621 0
M  V30 3871 C 375.575 -1.77281 0.957799 0
M  V30 3872 O 374.631 -2.45888 0.574031 0
M  V30 3873 C 375.944 -0.307535 2.99123 0
M  V30 3874 C 377.492 -0.385425 3.10618 0
M  V30 3875 C 377.967 -0.326973 4.56831 0
M  V30 3876 N 379.458 -0.386102 4.61588 0
M  V30 3877 C 380.193 -0.363591 5.72246 0
M  V30 3878 N 379.689 -0.29402 6.92176 0
M  V30 3879 N 381.482 -0.412503 5.60584 0
M  V30 3880 H 373.633 0.861325 1.94152 0
M  V30 3881 H 375.896 0.326445 0.890021 0
M  V30 3882 H 375.602 0.638461 3.45856 0
M  V30 3883 H 375.476 -1.10552 3.60636 0
M  V30 3884 H 377.863 -1.32185 2.63839 0
M  V30 3885 H 377.944 0.44171 2.51957 0
M  V30 3886 H 377.588 0.605738 5.04275 0
M  V30 3887 H 377.518 -1.17207 5.13391 0
M  V30 3888 H 380.009 -0.442832 3.75296 0
M  V30 3889 H 380.322 -0.28164 7.72287 0
M  V30 3890 H 378.667 -0.260232 6.94513 0
M  V30 3891 H 381.858 -0.464769 4.65787 0
M  V30 3892 H 382.031 -0.391492 6.46816 0
M  V30 3893 N 375.437 -1.54477 -0.31217 0
M  V30 3894 C 376.665 -1.77205 -1.068 0
M  V30 3895 C 377.08 -0.526114 -1.81321 0
M  V30 3896 O 376.437 0.503647 -1.75413 0
M  V30 3897 C 376.488 -2.97253 -2.05725 0
M  V30 3898 O 376.209 -4.1703 -1.34228 0
M  V30 3899 C 377.71 -3.32281 -2.93435 0
M  V30 3900 H 374.93 -0.591287 -0.317208 0
M  V30 3901 H 377.474 -2.01398 -0.354834 0
M  V30 3902 H 375.629 -2.753 -2.72559 0
M  V30 3903 H 376.043 -4.84636 -2.00571 0
M  V30 3904 H 377.517 -4.19551 -3.58721 0
M  V30 3905 H 377.994 -2.49945 -3.61143 0
M  V30 3906 H 378.6 -3.56353 -2.32147 0
M  V30 3907 N 376.915 0.57481 -1.46744 0
M  V30 3908 C 378.161 1.3347 -1.52688 0
M  V30 3909 C 378.494 1.93353 -0.181229 0
M  V30 3910 O 377.769 1.76912 0.808237 0
M  V30 3911 C 378.052 2.45811 -2.63152 0
M  V30 3912 C 377.905 1.90912 -4.07275 0
M  V30 3913 C 379.224 3.47822 -2.69644 0
M  V30 3914 H 376.343 0.483935 -0.555856 0
M  V30 3915 H 378.985 0.644968 -1.78718 0
M  V30 3916 H 377.135 3.04646 -2.41088 0
M  V30 3917 H 378.807 1.36473 -4.4065 0
M  V30 3918 H 377.05 1.21691 -4.16382 0
M  V30 3919 H 377.721 2.72042 -4.80309 0
M  V30 3920 H 380.197 2.9888 -2.895 0
M  V30 3921 H 379.073 4.23876 -3.48742 0
M  V30 3922 H 379.334 4.05555 -1.76005 0
M  V30 3923 N 378.394 1.34581 0.820102 0
M  V30 3924 C 379.327 1.20735 1.93644 0
M  V30 3925 C 380.305 0.0983343 1.62302 0
M  V30 3926 O 381.489 0.263997 1.86642 0
M  V30 3927 C 378.616 0.856037 3.27704 0
M  V30 3928 C 377.662 1.97521 3.78005 0
M  V30 3929 S 378.495 3.58906 3.97425 0
M  V30 3930 C 379.651 3.25822 5.34407 0
M  V30 3931 H 379.884 2.15231 2.05093 0
M  V30 3932 H 377.417 1.1964 0.97599 0
M  V30 3933 H 379.375 0.660133 4.05157 0
M  V30 3934 H 378.036 -0.0706253 3.14021 0
M  V30 3935 H 377.229 1.68321 4.75062 0
M  V30 3936 H 376.831 2.12875 3.07507 0
M  V30 3937 H 379.123 2.77812 6.17922 0
M  V30 3938 H 380.066 4.22029 5.68592 0
M  V30 3939 H 380.474 2.61932 5.00052 0
M  V30 3940 N 379.872 -1.04064 1.18357 0
M  V30 3941 C 381.12 -1.76915 0.977013 0
M  V30 3942 C 381.441 -1.88624 -0.494577 0
M  V30 3943 O 380.711 -1.41125 -1.3587 0
M  V30 3944 H 379.291 -0.65535 0.358504 0
M  V30 3945 H 381.953 -1.25592 1.49039 0
M  V30 3946 H 381.049 -2.78178 1.41504 0
M  V30 3947 N 381.35 -0.985608 -1.22978 0
M  V30 3948 C 382.766 -0.695104 -1.43668 0
M  V30 3949 C 382.966 0.736866 -1.87543 0
M  V30 3950 O 382.022 1.50868 -2.02473 0
M  V30 3951 C 383.335 -1.69447 -2.48412 0
M  V30 3952 C 384.883 -1.70909 -2.62219 0
M  V30 3953 C 385.358 -2.6969 -3.70178 0
M  V30 3954 N 386.849 -2.6824 -3.77626 0
M  V30 3955 C 387.584 -3.41339 -4.60733 0
M  V30 3956 N 387.08 -4.24015 -5.4789 0
M  V30 3957 N 388.873 -3.30079 -4.54977 0
M  V30 3958 H 381.024 -1.91054 -0.928016 0
M  V30 3959 H 383.287 -0.823553 -0.469536 0
M  V30 3960 H 382.993 -2.7188 -2.23102 0
M  V30 3961 H 382.867 -1.48147 -3.46889 0
M  V30 3962 H 385.254 -0.691785 -2.86877 0
M  V30 3963 H 385.335 -1.96276 -1.6404 0
M  V30 3964 H 384.979 -3.71566 -3.46268 0
M  V30 3965 H 384.909 -2.41595 -4.67909 0
M  V30 3966 H 387.4 -2.08243 -3.15346 0
M  V30 3967 H 387.713 -4.76636 -6.08308 0
M  V30 3968 H 386.058 -4.28104 -5.47496 0
M  V30 3969 H 389.249 -2.64937 -3.85909 0
M  V30 3970 H 389.422 -3.87308 -5.19516 0
M  V30 3971 N 382.828 1.3818 -0.7579 0
M  V30 3972 C 384.077 1.99261 -0.312744 0
M  V30 3973 C 384.39 1.60846 1.11301 0
M  V30 3974 O 385.596 2.14929 1.65885 0
M  V30 3975 C 384.052 3.56294 -0.50821 0
M  V30 3976 C 383.66 4.03657 -1.94333 0
M  V30 3977 C 385.404 4.24313 -0.125982 0
M  V30 3978 C 383.311 5.53347 -2.08712 0
M  V30 3979 H 382.241 0.745456 -0.113185 0
M  V30 3980 H 384.892 1.57889 -0.935056 0
M  V30 3981 H 383.274 3.95575 0.183353 0
M  V30 3982 H 384.448 3.75655 -2.66871 0
M  V30 3983 H 382.763 3.48376 -2.28086 0
M  V30 3984 H 385.36 5.34279 -0.212125 0
M  V30 3985 H 385.703 4.05962 0.921964 0
M  V30 3986 H 386.236 3.90285 -0.769563 0
M  V30 3987 H 382.975 5.76607 -3.11777 0
M  V30 3988 H 382.495 5.83078 -1.4064 0
M  V30 3989 H 384.174 6.19111 -1.87912 0
M  V30 3990 N 384.306 0.507319 1.49211 0
M  V30 3991 C 385.269 -0.256763 2.27757 0
M  V30 3992 C 386.269 -0.888287 1.34038 0
M  V30 3993 O 387.459 -0.751841 1.5714 0
M  V30 3994 C 384.591 -1.36905 3.12202 0
M  V30 3995 H 385.784 0.432557 2.96764 0
M  V30 3996 H 383.337 0.262488 1.5408 0
M  V30 3997 H 384.072 -2.09233 2.47775 0
M  V30 3998 H 383.857 -0.921599 3.81115 0
M  V30 3999 H 385.347 -1.9071 3.7151 0
M  V30 4000 N 385.784 -1.5574 0.241426 0
M  V30 4001 C 387.012 -2.03208 -0.389134 0
M  V30 4002 C 387.427 -1.12082 -1.51931 0
M  V30 4003 O 386.784 -0.134183 -1.82006 0
M  V30 4004 C 386.835 -3.50064 -0.902087 0
M  V30 4005 O 386.556 -4.37717 0.18305 0
M  V30 4006 C 388.057 -4.13268 -1.60389 0
M  V30 4007 H 385.277 -0.664509 -0.0931053 0
M  V30 4008 H 387.821 -2.0124 0.36369 0
M  V30 4009 H 385.976 -3.52583 -1.60511 0
M  V30 4010 H 386.39 -5.24097 -0.205579 0
M  V30 4011 H 387.864 -5.17733 -1.91458 0
M  V30 4012 H 388.341 -3.59434 -2.52397 0
M  V30 4013 H 388.947 -4.14655 -0.945576 0
M  V30 4014 N 387.262 0.0317525 -1.57568 0
M  V30 4015 C 388.192 1.03274 -2.0942 0
M  V30 4016 C 389.173 1.3788 -0.996143 0
M  V30 4017 O 390.358 1.46811 -1.27122 0
M  V30 4018 C 387.488 2.33448 -2.57137 0
M  V30 4019 C 386.442 2.13091 -3.71182 0
M  V30 4020 C 385.768 3.49001 -4.05095 0
M  V30 4021 C 387.068 1.51928 -4.99715 0
M  V30 4022 H 388.762 0.60112 -2.93303 0
M  V30 4023 H 386.308 0.287705 -1.41097 0
M  V30 4024 H 388.261 3.03802 -2.92032 0
M  V30 4025 H 386.985 2.78665 -1.70333 0
M  V30 4026 H 385.644 1.45171 -3.36632 0
M  V30 4027 H 385.292 3.91862 -3.15362 0
M  V30 4028 H 384.992 3.36207 -4.81911 0
M  V30 4029 H 386.516 4.20721 -4.42522 0
M  V30 4030 H 387.93 2.12196 -5.32584 0
M  V30 4031 H 386.327 1.49716 -5.81124 0
M  V30 4032 H 387.397 0.484811 -4.8247 0
M  V30 4033 N 388.74 1.54641 0.303973 0
M  V30 4034 C 389.703 1.84646 1.35789 0
M  V30 4035 C 390.703 0.7192 1.4382 0
M  V30 4036 O 391.893 0.987491 1.43507 0
M  V30 4037 C 389.025 2.02407 2.74307 0
M  V30 4038 H 390.218 2.78829 1.10429 0
M  V30 4039 H 387.771 1.46658 0.540487 0
M  V30 4040 H 388.506 1.10502 3.04893 0
M  V30 4041 H 388.291 2.84453 2.69868 0
M  V30 4042 H 389.781 2.27002 3.50514 0
M  V30 4043 N 390.218 -0.567019 1.47046 0
M  V30 4044 C 391.443 -1.3551 1.57009 0
M  V30 4045 C 391.868 -1.86841 0.217259 0
M  V30 4046 O 391.226 -1.62435 -0.805268 0
M  V30 4047 C 391.274 -2.50777 2.5912 0
M  V30 4048 O 390.378 -3.52706 2.13711 0
M  V30 4049 H 389.719 -0.402919 0.52778 0
M  V30 4050 H 392.249 -0.686241 1.92748 0
M  V30 4051 H 392.259 -2.97481 2.79229 0
M  V30 4052 H 390.934 -2.12771 3.57353 0
M  V30 4053 H 389.511 -3.12374 2.03659 0
M  V30 4054 N 391.696 -1.35014 -0.812953 0
M  V30 4055 C 392.944 -1.27678 -1.56661 0
M  V30 4056 C 393.265 0.150359 -1.94419 0
M  V30 4057 O 392.535 1.08532 -1.63088 0
M  V30 4058 H 391.115 -0.469602 -0.580933 0
M  V30 4059 H 393.777 -1.69043 -0.970076 0
M  V30 4060 H 392.873 -1.88833 -2.48492 0
M  V30 4061 N 393.175 1.03435 -1.18907 0
M  V30 4062 C 394.105 2.13503 -0.945448 0
M  V30 4063 C 395.086 1.69682 0.119189 0
M  V30 4064 O 396.271 1.94169 -0.034707 0
M  V30 4065 C 393.401 3.44004 -0.477316 0
M  V30 4066 C 392.355 4.0148 -1.48316 0
M  V30 4067 C 391.681 5.27537 -0.872311 0
M  V30 4068 C 392.981 4.36921 -2.86177 0
M  V30 4069 H 394.675 2.34141 -1.86597 0
M  V30 4070 H 392.221 1.12523 -0.898584 0
M  V30 4071 H 394.174 4.20372 -0.294204 0
M  V30 4072 H 392.898 3.23072 0.478786 0
M  V30 4073 H 391.557 3.27201 -1.65332 0
M  V30 4074 H 391.205 5.02917 0.0911752 0
M  V30 4075 H 390.905 5.66954 -1.54393 0
M  V30 4076 H 392.429 6.06576 -0.699871 0
M  V30 4077 H 393.843 5.04248 -2.72776 0
M  V30 4078 H 392.24 4.87405 -3.50081 0
M  V30 4079 H 393.31 3.46466 -3.39248 0
M  V30 4080 N 394.653 0.992116 1.22453 0
M  V30 4081 C 395.563 0.55065 2.28046 0
M  V30 4082 C 396.579 -0.400189 1.69335 0
M  V30 4083 O 397.755 -0.267215 1.99619 0
M  V30 4084 C 394.82 -0.128496 3.46462 0
M  V30 4085 C 393.881 0.865208 4.20491 0
M  V30 4086 C 393.114 0.218377 5.33253 0
M  V30 4087 O 393.337 -0.987894 5.6178 0
M  V30 4088 O 392.271 0.922845 5.94783 0
M  V30 4089 H 396.097 1.4291 2.67975 0
M  V30 4090 H 393.682 0.760326 1.28606 0
M  V30 4091 H 395.564 -0.508947 4.18315 0
M  V30 4092 H 394.239 -0.981526 3.0846 0
M  V30 4093 H 393.146 1.29658 3.50913 0
M  V30 4094 H 394.479 1.68741 4.62371 0
M  V30 4095 N 396.131 -1.37776 0.765217 0
M  V30 4096 C 397.377 -2.00145 0.327072 0
M  V30 4097 C 397.71 -1.60607 -1.09175 0
M  V30 4098 O 396.985 -0.849127 -1.74986 0
M  V30 4099 C 397.268 -3.57109 0.46319 0
M  V30 4100 C 397.121 -4.06576 1.92395 0
M  V30 4101 C 398.44 -4.39888 -0.136473 0
M  V30 4102 H 395.559 -0.727113 0.120316 0
M  V30 4103 H 398.201 -1.63549 0.967039 0
M  V30 4104 H 396.351 -3.88414 -0.0816358 0
M  V30 4105 H 398.023 -3.85864 2.52798 0
M  V30 4106 H 396.266 -3.59011 2.43503 0
M  V30 4107 H 396.937 -5.15639 1.97028 0
M  V30 4108 H 399.413 -4.14803 0.328317 0
M  V30 4109 H 398.289 -5.48899 -0.0110582 0
M  V30 4110 H 398.55 -4.24758 -1.22608 0
M  V30 4111 N 397.609 -0.515225 -1.4894 0
M  V30 4112 C 398.857 0.0241671 -2.02086 0
M  V30 4113 C 399.178 1.3616 -1.3959 0
M  V30 4114 O 398.448 1.87841 -0.556121 0
M  V30 4115 H 397.028 0.0119203 -0.746905 0
M  V30 4116 H 399.69 -0.675702 -1.82812 0
M  V30 4117 H 398.786 0.143385 -3.1177 0
M  V30 4118 N 399.087 1.5561 -0.249682 0
M  V30 4119 C 400.034 2.21496 0.648694 0
M  V30 4120 C 401.004 1.17977 1.16921 0
M  V30 4121 O 402.189 1.46434 1.22318 0
M  V30 4122 C 399.329 2.92039 1.83868 0
M  V30 4123 C 398.442 4.10219 1.35442 0
M  V30 4124 C 397.577 4.6847 2.50419 0
M  V30 4125 C 396.616 5.78893 1.98869 0
M  V30 4126 N 395.753 6.31315 3.07223 0
M  V30 4127 H 400.593 2.97892 0.0801582 0
M  V30 4128 H 398.13 1.47074 0.0278031 0
M  V30 4129 H 400.088 3.31138 2.53778 0
M  V30 4130 H 398.718 2.18111 2.37965 0
M  V30 4131 H 397.77 3.76413 0.54928 0
M  V30 4132 H 399.082 4.89927 0.936649 0
M  V30 4133 H 398.236 5.10158 3.28366 0
M  V30 4134 H 396.975 3.87984 2.95499 0
M  V30 4135 H 395.98 5.3668 1.19393 0
M  V30 4136 H 397.205 6.61232 1.54755 0
M  V30 4137 H 395.151 5.53733 3.51732 0
M  V30 4138 H 395.068 7.06224 2.69784 0
M  V30 4139 H 396.336 6.77662 3.8522 0
M  V30 4140 N 400.565 -0.0233959 1.57583 0
M  V30 4141 C 401.793 -0.724682 1.93794 0
M  V30 4142 C 402.208 -1.68588 0.849912 0
M  V30 4143 O 401.565 -1.81676 -0.173204 0
M  V30 4144 C 401.616 -1.47684 3.29957 0
M  V30 4145 O 401.337 -0.554222 4.3458 0
M  V30 4146 C 402.838 -2.27477 3.80485 0
M  V30 4147 H 400.058 -0.203317 0.639455 0
M  V30 4148 H 402.602 0.0207653 2.04489 0
M  V30 4149 H 400.757 -2.17412 3.20641 0
M  V30 4150 H 401.171 -1.08232 5.13212 0
M  V30 4151 H 402.645 -2.7564 4.78254 0
M  V30 4152 H 403.122 -3.09144 3.11972 0
M  V30 4153 H 403.728 -1.62813 3.92902 0
M  V30 4154 N 402.043 -1.548 -0.295768 0
M  V30 4155 C 403.454 -1.65274 -0.868411 0
M  V30 4156 C 403.805 -0.56481 -1.87894 0
M  V30 4157 O 402.93 0.29767 -2.14343 0
M  V30 4158 C 403.525 -2.99603 -1.58188 0
M  V30 4159 C 402.084 -3.12181 -2.10286 0
M  V30 4160 C 401.231 -2.6098 -0.93727 0
M  V30 4161 H 404.182 -1.58534 -0.0726422 0
M  V30 4162 H 404.203 -2.91319 -2.44772 0
M  V30 4163 H 403.715 -3.78764 -0.846151 0
M  V30 4164 H 401.816 -2.3775 -2.8689 0
M  V30 4165 H 401.929 -4.18415 -2.33379 0
M  V30 4166 H 400.293 -2.17564 -1.32431 0
M  V30 4167 H 401.076 -3.42623 -0.215414 0
M  V30 4168 N 403.521 0.559213 -1.47345 0
M  V30 4169 C 404.77 1.31281 -1.53128 0
M  V30 4170 C 405.083 1.94602 -0.197344 0
M  V30 4171 O 406.289 2.71173 -0.133154 0
M  V30 4172 C 404.745 2.38051 -2.69925 0
M  V30 4173 C 404.353 1.8093 -4.0984 0
M  V30 4174 C 406.097 3.14604 -2.84999 0
M  V30 4175 C 404.004 2.85468 -5.1794 0
M  V30 4176 H 402.934 0.493614 -0.569966 0
M  V30 4177 H 405.585 0.594155 -1.73615 0
M  V30 4178 H 403.967 3.12822 -2.42814 0
M  V30 4179 H 405.141 1.12544 -4.46845 0
M  V30 4180 H 403.456 1.16967 -3.99634 0
M  V30 4181 H 406.053 3.92666 -3.62929 0
M  V30 4182 H 406.396 3.68665 -1.93369 0
M  V30 4183 H 406.929 2.46945 -3.1187 0
M  V30 4184 H 403.668 2.36264 -6.1144 0
M  V30 4185 H 403.188 3.52269 -4.85455 0
M  V30 4186 H 404.867 3.48996 -5.44803 0
M  V30 4187 N 404.999 1.35443 0.805782 0
M  V30 4188 C 405.962 1.28301 1.89925 0
M  V30 4189 C 406.962 0.194285 1.59622 0
M  V30 4190 O 408.152 0.448036 1.6834 0
M  V30 4191 C 405.284 0.984997 3.2636 0
M  V30 4192 H 406.477 2.2553 1.97677 0
M  V30 4193 H 404.03 1.19979 1.00173 0
M  V30 4194 H 404.765 0.016603 3.24296 0
M  V30 4195 H 404.55 1.77269 3.4974 0
M  V30 4196 H 406.04 0.960651 4.064 0
M  V30 4197 N 406.477 -1.02803 1.19454 0
M  V30 4198 C 407.726 -1.7562 0.991996 0
M  V30 4199 C 408.039 -1.89672 -0.477901 0
M  V30 4200 O 409.245 -2.59468 -0.799287 0
M  V30 4201 C 407.701 -3.15812 1.72601 0
M  V30 4202 C 407.309 -3.0981 3.23607 0
M  V30 4203 C 409.053 -3.92918 1.60674 0
M  V30 4204 C 406.96 -4.44939 3.89594 0
M  V30 4205 H 405.89 -0.658352 0.367543 0
M  V30 4206 H 408.541 -1.15044 1.42959 0
M  V30 4207 H 406.923 -3.7686 1.21624 0
M  V30 4208 H 408.097 -2.58138 3.81709 0
M  V30 4209 H 406.412 -2.46201 3.35819 0
M  V30 4210 H 409.009 -4.9287 2.07323 0
M  V30 4211 H 409.352 -4.12502 0.561025 0
M  V30 4212 H 409.885 -3.38472 2.09001 0
M  V30 4213 H 406.624 -4.30559 4.94267 0
M  V30 4214 H 406.144 -4.96664 3.36281 0
M  V30 4215 H 407.823 -5.1382 3.93189 0
M  V30 4216 N 407.956 -0.998596 -1.21925 0
M  V30 4217 C 408.866 -0.562736 -2.27751 0
M  V30 4218 C 409.882 0.391203 -1.69545 0
M  V30 4219 O 411.058 0.256625 -1.99758 0
M  V30 4220 C 408.123 0.11012 -3.46525 0
M  V30 4221 C 407.184 -0.887495 -4.20026 0
M  V30 4222 C 406.417 -0.246654 -5.3313 0
M  V30 4223 O 406.64 0.958088 -5.62296 0
M  V30 4224 O 405.574 -0.954374 -5.94286 0
M  V30 4225 H 409.4 -1.44329 -2.67213 0
M  V30 4226 H 406.985 -0.767135 -1.28201 0
M  V30 4227 H 408.867 0.486756 -4.18579 0
M  V30 4228 H 407.542 0.965154 -3.08976 0
M  V30 4229 H 406.449 -1.31517 -3.5022 0
M  V30 4230 H 407.782 -1.71191 -4.6147 0
M  V30 4231 N 409.434 1.37368 -0.772513 0
M  V30 4232 C 410.683 1.98918 -0.333861 0
M  V30 4233 C 410.996 1.62017 1.09589 0
M  V30 4234 O 412.202 2.16676 1.63596 0
M  V30 4235 C 410.658 3.55735 -0.545971 0
M  V30 4236 C 410.266 4.01573 -1.98603 0
M  V30 4237 C 412.01 4.24156 -0.170979 0
M  V30 4238 C 409.917 5.51102 -2.1457 0
M  V30 4239 H 408.847 0.744214 -0.121085 0
M  V30 4240 H 411.498 1.56888 -0.95175 0
M  V30 4241 H 409.88 3.95748 0.141387 0
M  V30 4242 H 411.054 3.72803 -2.7084 0
M  V30 4243 H 409.369 3.45937 -2.31769 0
M  V30 4244 H 411.966 5.34024 -0.26878 0
M  V30 4245 H 412.309 4.06917 0.878855 0
M  V30 4246 H 412.842 3.89447 -0.810914 0
M  V30 4247 H 409.581 5.73268 -3.17875 0
M  V30 4248 H 409.101 5.81554 -1.46817 0
M  V30 4249 H 410.78 6.17083 -1.94468 0
M  V30 4250 N 410.912 0.523116 1.48665 0
M  V30 4251 C 411.822 -0.247406 2.33292 0
M  V30 4252 C 412.838 -0.945769 1.46052 0
M  V30 4253 O 414.014 -0.922253 1.79043 0
M  V30 4254 C 411.079 -1.28487 3.22012 0
M  V30 4255 C 410.14 -0.597592 4.2512 0
M  V30 4256 C 409.373 -1.58563 5.09601 0
M  V30 4257 O 409.596 -2.81763 4.95949 0
M  V30 4258 O 408.53 -1.12879 5.91221 0
M  V30 4259 H 412.356 0.445869 3.00409 0
M  V30 4260 H 409.941 0.284128 1.46673 0
M  V30 4261 H 411.823 -1.88459 3.7691 0
M  V30 4262 H 410.498 -1.96068 2.57564 0
M  V30 4263 H 409.405 0.0424407 3.74076 0
M  V30 4264 H 410.738 0.0361517 4.92187 0
M  V30 4265 N 412.39 -1.55475 0.257931 0
M  V30 4266 C 413.34 -2.18506 -0.651094 0
M  V30 4267 C 414.324 -1.14431 -1.13112 0
M  V30 4268 O 415.516 -1.40305 -1.07905 0
M  V30 4269 C 412.645 -2.89653 -1.84272 0
M  V30 4270 C 411.731 -4.00996 -1.38068 0
M  V30 4271 N 412.122 -5.01816 -0.633609 0
M  V30 4272 C 410.42 -4.13753 -1.66506 0
M  V30 4273 C 411.121 -5.80371 -0.392922 0
M  V30 4274 N 410.097 -5.3505 -0.960359 0
M  V30 4275 H 413.899 -2.93811 -0.0722883 0
M  V30 4276 H 411.413 -1.62286 0.0607256 0
M  V30 4277 H 413.41 -3.33245 -2.50506 0
M  V30 4278 H 412.07 -2.15854 -2.42564 0
M  V30 4279 H 413.081 -5.17128 -0.282626 0
M  V30 4280 H 409.758 -3.51133 -2.25858 0
M  V30 4281 H 411.148 -6.7159 0.204235 0
M  V30 4282 N 413.868 0.0150385 -1.57593 0
M  V30 4283 C 415.115 0.703001 -1.89906 0
M  V30 4284 C 415.443 1.74604 -0.856944 0
M  V30 4285 O 414.698 1.95197 0.140287 0
M  V30 4286 C 414.997 1.39686 -3.28972 0
M  V30 4287 C 414.663 0.488457 -4.48246 0
M  V30 4288 C 413.325 0.2383 -4.8061 0
M  V30 4289 C 415.677 -0.137881 -5.21018 0
M  V30 4290 C 413.005 -0.646738 -5.83125 0
M  V30 4291 C 415.357 -1.0107 -6.24474 0
M  V30 4292 C 414.021 -1.27019 -6.55303 0
M  V30 4293 H 413.291 0.257246 -0.694914 0
M  V30 4294 H 415.938 -0.037259 -1.91464 0
M  V30 4295 H 414.243 2.21079 -3.23468 0
M  V30 4296 H 415.94 1.93495 -3.51227 0
M  V30 4297 H 412.53 0.693593 -4.22951 0
M  V30 4298 H 416.714 0.0423953 -4.96282 0
M  V30 4299 H 411.97 -0.855937 -6.05379 0
M  V30 4300 H 416.144 -1.50247 -6.79999 0
M  V30 4301 H 413.771 -1.95769 -7.3456 0
M  V30 4302 N 415.346 1.54954 0.287554 0
M  V30 4303 C 416.595 1.74081 1.01877 0
M  V30 4304 C 416.908 0.541135 1.87966 0
M  V30 4305 O 418.114 0.614491 2.64455 0
M  V30 4306 C 416.57 3.08042 1.86113 0
M  V30 4307 C 416.178 4.35531 1.04961 0
M  V30 4308 C 417.922 3.36523 2.58752 0
M  V30 4309 C 415.829 5.60538 1.88551 0
M  V30 4310 H 414.759 0.64884 0.384087 0
M  V30 4311 H 417.41 1.81426 0.275101 0
M  V30 4312 H 415.792 2.94696 2.64519 0
M  V30 4313 H 416.966 4.59751 0.31074 0
M  V30 4314 H 415.281 4.14085 0.43843 0
M  V30 4315 H 417.878 4.27122 3.21668 0
M  V30 4316 H 418.221 2.56 3.28283 0
M  V30 4317 H 418.754 3.50901 1.87386 0
M  V30 4318 H 415.493 6.43767 1.23466 0
M  V30 4319 H 415.013 5.40483 2.60074 0
M  V30 4320 H 416.692 5.98297 2.46273 0
M  V30 4321 N 416.824 -0.551391 1.4764 0
M  V30 4322 C 417.756 -1.67333 1.56628 0
M  V30 4323 C 418.769 -1.56398 0.452045 0
M  V30 4324 O 419.958 -1.6325 0.721926 0
M  V30 4325 C 417.058 -3.05841 1.45994 0
M  V30 4326 C 416.231 -3.42472 2.72088 0
M  V30 4327 C 415.29 -4.60168 2.55209 0
M  V30 4328 O 414.316 -4.64458 3.2904 0
M  V30 4329 N 415.518 -5.57024 1.63416 0
M  V30 4330 H 418.283 -1.60066 2.53375 0
M  V30 4331 H 415.844 -0.738169 1.44093 0
M  V30 4332 H 417.836 -3.8242 1.32428 0
M  V30 4333 H 416.406 -3.07302 0.573071 0
M  V30 4334 H 415.626 -2.55284 3.00373 0
M  V30 4335 H 416.914 -3.63723 3.55785 0
M  V30 4336 H 416.312 -5.56319 1.02594 0
M  V30 4337 H 414.869 -6.32906 1.558 0
M  V30 4338 N 418.302 -1.35869 -0.798587 0
M  V30 4339 C 419.232 -1.32118 -1.92528 0
M  V30 4340 C 420.213 -0.194209 -1.68988 0
M  V30 4341 O 421.398 -0.390426 -1.90235 0
M  V30 4342 C 418.528 -1.10047 -3.29404 0
M  V30 4343 C 417.482 -2.19471 -3.67446 0
M  V30 4344 C 416.808 -1.82555 -5.02571 0
M  V30 4345 C 418.108 -3.61495 -3.76987 0
M  V30 4346 H 419.802 -2.26394 -1.95924 0
M  V30 4347 H 417.348 -1.08981 -0.94123 0
M  V30 4348 H 419.301 -1.06061 -4.07835 0
M  V30 4349 H 418.025 -0.122195 -3.26371 0
M  V30 4350 H 416.684 -2.22568 -2.91306 0
M  V30 4351 H 416.332 -0.833249 -4.9605 0
M  V30 4352 H 416.032 -2.5581 -5.28995 0
M  V30 4353 H 417.556 -1.80108 -5.83432 0
M  V30 4354 H 418.97 -3.60676 -4.4563 0
M  V30 4355 H 417.367 -4.33577 -4.14887 0
M  V30 4356 H 418.437 -3.97065 -2.78329 0
M  V30 4357 N 419.78 1.02168 -1.19998 0
M  V30 4358 C 421.029 1.75091 -1.0013 0
M  V30 4359 C 421.342 1.89923 0.467835 0
M  V30 4360 O 422.548 2.59888 0.785515 0
M  V30 4361 C 421.004 3.14892 -1.74273 0
M  V30 4362 C 420.612 3.0809 -3.25245 0
M  V30 4363 C 422.356 3.9206 -1.62755 0
M  V30 4364 C 420.263 4.42867 -3.91948 0
M  V30 4365 H 419.193 0.656394 -0.37103 0
M  V30 4366 H 421.844 1.14284 -1.43567 0
M  V30 4367 H 420.226 3.7621 -1.2362 0
M  V30 4368 H 421.4 2.5611 -3.83072 0
M  V30 4369 H 419.715 2.44416 -3.3712 0
M  V30 4370 H 422.312 4.91764 -2.09934 0
M  V30 4371 H 422.655 4.12199 -0.582894 0
M  V30 4372 H 423.188 3.37359 -2.10793 0
M  V30 4373 H 419.927 4.27931 -4.96543 0
M  V30 4374 H 419.447 4.94874 -3.3891 0
M  V30 4375 H 421.126 5.11728 -3.95909 0
M  V30 4376 N 421.258 1.00505 1.21394 0
M  V30 4377 C 422.486 0.706609 1.9446 0
M  V30 4378 C 422.901 -0.73081 1.74082 0
M  V30 4379 O 422.258 -1.49446 1.04747 0
M  V30 4380 C 422.309 1.01824 3.46863 0
M  V30 4381 O 422.03 2.39919 3.66566 0
M  V30 4382 C 423.531 0.739216 4.37093 0
M  V30 4383 H 420.751 0.260394 0.618414 0
M  V30 4384 H 423.295 1.34311 1.54211 0
M  V30 4385 H 421.45 0.427343 3.85036 0
M  V30 4386 H 421.864 2.50784 4.6066 0
M  V30 4387 H 423.338 1.00744 5.42729 0
M  V30 4388 H 423.815 -0.326746 4.37983 0
M  V30 4389 H 424.421 1.31173 4.04566 0
M  V30 4390 N 422.737 -1.36956 0.779787 0
M  V30 4391 C 423.985 -1.99097 0.347079 0
M  V30 4392 C 424.306 -1.62206 -1.08232 0
M  V30 4393 O 423.576 -0.891373 -1.74446 0
M  V30 4394 H 422.156 -0.736409 0.125342 0
M  V30 4395 H 424.818 -1.67308 0.999696 0
M  V30 4396 H 423.914 -3.09107 0.431162 0
M  V30 4397 N 424.215 -0.530993 -1.48385 0
M  V30 4398 C 425.461 0.00274135 -2.028 0
M  V30 4399 C 425.794 1.33838 -1.40716 0
M  V30 4400 O 425.069 1.86465 -0.553277 0
M  V30 4401 C 425.352 0.123676 -3.59888 0
M  V30 4402 C 425.205 -1.2372 -4.3245 0
M  V30 4403 C 426.524 0.849967 -4.31814 0
M  V30 4404 H 423.643 -0.000477758 -0.737 0
M  V30 4405 H 426.285 -0.688217 -1.77098 0
M  V30 4406 H 424.435 0.712157 -3.81917 0
M  V30 4407 H 426.107 -1.86687 -4.21836 0
M  V30 4408 H 424.35 -1.81882 -3.93829 0
M  V30 4409 H 425.021 -1.10557 -5.40815 0
M  V30 4410 H 427.497 0.350572 -4.14621 0
M  V30 4411 H 426.373 0.903486 -5.41413 0
M  V30 4412 H 426.634 1.90047 -3.99167 0
M  V30 4413 N 425.693 1.55336 -0.266172 0
M  V30 4414 C 426.656 2.20878 0.612001 0
M  V30 4415 C 427.656 1.18388 1.08816 0
M  V30 4416 O 428.846 1.4335 0.989774 0
M  V30 4417 C 425.978 2.86765 1.84332 0
M  V30 4418 H 427.171 2.99873 0.0398718 0
M  V30 4419 H 424.724 1.56291 -0.0167309 0
M  V30 4420 H 425.459 2.11759 2.45619 0
M  V30 4421 H 425.244 3.61862 1.5099 0
M  V30 4422 H 426.734 3.36867 2.46801 0
M  V30 4423 N 427.171 -0.0066808 1.57599 0
M  V30 4424 C 428.417 -0.693947 1.90558 0
M  V30 4425 C 428.75 -1.73792 0.866594 0
M  V30 4426 O 428.025 -1.94156 -0.115548 0
M  V30 4427 C 428.308 -1.34317 3.34112 0
M  V30 4428 C 428.161 -0.311189 4.48722 0
M  V30 4429 C 429.48 -2.27116 3.7697 0
M  V30 4430 H 426.599 -0.250803 0.693013 0
M  V30 4431 H 429.241 0.043242 1.89951 0
M  V30 4432 H 427.391 -1.9715 3.3476 0
M  V30 4433 H 429.063 0.316944 4.6021 0
M  V30 4434 H 427.306 0.367253 4.32243 0
M  V30 4435 H 427.977 -0.804366 5.46108 0
M  V30 4436 H 430.453 -1.74306 3.77831 0
M  V30 4437 H 429.329 -2.69511 4.78179 0
M  V30 4438 H 429.59 -3.14743 3.10466 0
M  V30 4439 N 428.649 -1.55105 -0.279332 0
M  V30 4440 C 429.896 -1.75412 -1.01177 0
M  V30 4441 C 430.224 -0.551728 -1.86511 0
M  V30 4442 O 429.479 0.465919 -1.90073 0
M  V30 4443 C 429.778 -3.0086 -1.92919 0
M  V30 4444 C 429.444 -4.33689 -1.23387 0
M  V30 4445 C 428.106 -4.69792 -1.04159 0
M  V30 4446 C 430.458 -5.15941 -0.738562 0
M  V30 4447 C 427.786 -5.85707 -0.341166 0
M  V30 4448 C 430.138 -6.32579 -0.0517636 0
M  V30 4449 C 428.802 -6.67326 0.152292 0
M  V30 4450 H 428.072 -0.641879 -0.370233 0
M  V30 4451 H 430.719 -1.89373 -0.284627 0
M  V30 4452 H 429.024 -2.81773 -2.72234 0
M  V30 4453 H 430.721 -3.13768 -2.49701 0
M  V30 4454 H 427.311 -4.05309 -1.39364 0
M  V30 4455 H 431.495 -4.8853 -0.874764 0
M  V30 4456 H 426.751 -6.11157 -0.172287 0
M  V30 4457 H 430.925 -6.9557 0.339828 0
M  V30 4458 H 428.552 -7.56998 0.697014 0
M  V30 4459 N 430.127 0.543554 -1.4793 0
M  V30 4460 C 431.057 1.65888 -1.64327 0
M  V30 4461 C 432.038 1.62818 -0.492383 0
M  V30 4462 O 433.223 1.80226 -0.723338 0
M  V30 4463 C 430.353 3.04506 -1.67013 0
M  V30 4464 C 429.307 3.2243 -2.81466 0
M  V30 4465 C 428.633 4.61972 -2.69233 0
M  V30 4466 C 429.933 3.06496 -4.22915 0
M  V30 4467 H 431.627 1.52421 -2.57698 0
M  V30 4468 H 429.173 0.731849 -1.24016 0
M  V30 4469 H 431.126 3.82391 -1.77074 0
M  V30 4470 H 429.85 3.18964 -0.70212 0
M  V30 4471 H 428.509 2.46957 -2.70938 0
M  V30 4472 H 428.157 4.73247 -1.7043 0
M  V30 4473 H 427.857 4.74911 -3.46025 0
M  V30 4474 H 429.381 5.41974 -2.81242 0
M  V30 4475 H 430.795 3.74186 -4.34348 0
M  V30 4476 H 429.192 3.30938 -5.006 0
M  V30 4477 H 430.262 2.03077 -4.40327 0
M  V30 4478 N 431.605 1.3629 0.791371 0
M  V30 4479 C 432.853 1.30154 1.5461 0
M  V30 4480 C 433.174 -0.119409 1.94634 0
M  V30 4481 O 432.444 -1.05924 1.64794 0
M  V30 4482 H 431.024 0.478784 0.573389 0
M  V30 4483 H 433.686 1.70565 0.94306 0
M  V30 4484 H 432.782 1.92762 2.45457 0
M  V30 4485 N 433.083 -1.0153 1.20538 0
M  V30 4486 C 434.329 -1.75408 1.01783 0
M  V30 4487 C 434.662 -1.88943 -0.448814 0
M  V30 4488 O 433.937 -1.4162 -1.33319 0
M  V30 4489 C 434.22 -3.17255 1.70356 0
M  V30 4490 C 434.073 -3.11508 3.24473 0
M  V30 4491 C 435.392 -4.15955 1.43769 0
M  V30 4492 H 432.511 -0.636713 0.371167 0
M  V30 4493 H 435.153 -1.18436 1.4857 0
M  V30 4494 H 433.303 -3.65898 1.30578 0
M  V30 4495 H 434.975 -2.70658 3.73553 0
M  V30 4496 H 433.218 -2.4887 3.55311 0
M  V30 4497 H 433.889 -4.11784 3.67611 0
M  V30 4498 H 436.365 -3.75973 1.7828 0
M  V30 4499 H 435.241 -5.13368 1.94279 0
M  V30 4500 H 435.502 -4.40586 0.365564 0
M  V30 4501 N 434.561 -1.01147 -1.20859 0
M  V30 4502 C 435.786 -0.716698 -1.94623 0
M  V30 4503 C 436.211 0.715415 -1.73964 0
M  V30 4504 O 435.569 1.49157 -1.03062 0
M  V30 4505 C 435.617 -1.0513 -3.44935 0
M  V30 4506 O 434.721 -0.160131 -4.12089 0
M  V30 4507 H 434.062 -0.266404 -0.608214 0
M  V30 4508 H 436.592 -1.35346 -1.53436 0
M  V30 4509 H 436.602 -1.00086 -3.95533 0
M  V30 4510 H 435.277 -2.09475 -3.59295 0
M  V30 4511 H 433.854 -0.267657 -3.71938 0
M  V30 4512 N 436.039 1.36541 -0.78704 0
M  V30 4513 C 437.286 1.99304 -0.358341 0
M  V30 4514 C 437.614 1.62467 1.06933 0
M  V30 4515 O 436.869 0.870019 1.75297 0
M  V30 4516 C 437.168 3.54343 -0.466485 0
M  V30 4517 C 436.834 4.10993 -1.85461 0
M  V30 4518 C 435.496 4.26177 -2.23443 0
M  V30 4519 C 437.848 4.41895 -2.76366 0
M  V30 4520 C 435.176 4.69573 -3.51736 0
M  V30 4521 C 437.528 4.86722 -4.04084 0
M  V30 4522 C 436.192 5.00112 -4.42091 0
M  V30 4523 H 435.462 0.729306 -0.131126 0
M  V30 4524 H 438.109 1.63068 -1.00404 0
M  V30 4525 H 436.414 3.90918 0.262719 0
M  V30 4526 H 438.111 4.00833 -0.115854 0
M  V30 4527 H 434.701 3.99612 -1.54946 0
M  V30 4528 H 438.885 4.29735 -2.48277 0
M  V30 4529 H 434.141 4.78127 -3.81057 0
M  V30 4530 H 438.315 5.09598 -4.7464 0
M  V30 4531 H 435.942 5.33498 -5.41557 0
M  V30 4532 N 437.518 0.538854 1.48102 0
M  V30 4533 C 438.765 0.0080018 2.02498 0
M  V30 4534 C 439.093 -1.33437 1.41509 0
M  V30 4535 O 438.348 -1.87709 0.553507 0
M  V30 4536 C 438.647 -0.153808 3.57069 0
M  V30 4537 C 438.313 1.11533 4.36888 0
M  V30 4538 C 436.975 1.46314 4.58417 0
M  V30 4539 C 439.327 1.95718 4.83057 0
M  V30 4540 C 436.655 2.6516 5.23361 0
M  V30 4541 C 439.007 3.13751 5.49312 0
M  V30 4542 C 437.671 3.48866 5.69077 0
M  V30 4543 H 436.941 0.00292807 0.740994 0
M  V30 4544 H 439.588 0.706668 1.77984 0
M  V30 4545 H 437.893 -0.935309 3.80472 0
M  V30 4546 H 439.59 -0.579607 3.96789 0
M  V30 4547 H 436.18 0.834484 4.20398 0
M  V30 4548 H 440.364 1.70158 4.66219 0
M  V30 4549 H 435.62 2.92558 5.36861 0
M  V30 4550 H 439.794 3.79282 5.84053 0
M  V30 4551 H 437.421 4.41054 6.19173 0
M  V30 4552 N 438.996 -1.55193 0.274407 0
M  V30 4553 C 440.245 -1.98758 -0.343213 0
M  V30 4554 C 440.558 -1.16624 -1.5703 0
M  V30 4555 O 441.764 -1.5033 -2.26082 0
M  V30 4556 C 440.22 -3.53759 -0.661996 0
M  V30 4557 C 439.828 -4.4467 0.54524 0
M  V30 4558 C 441.572 -4.05916 -1.24228 0
M  V30 4559 C 439.479 -5.91058 0.201084 0
M  V30 4560 H 438.409 -0.742353 -0.132014 0
M  V30 4561 H 441.06 -1.79545 0.378948 0
M  V30 4562 H 439.442 -3.68772 -1.44304 0
M  V30 4563 H 440.616 -4.41426 1.32212 0
M  V30 4564 H 438.931 -4.03143 1.04232 0
M  V30 4565 H 441.528 -5.12831 -1.51357 0
M  V30 4566 H 441.871 -3.54908 -2.17592 0
M  V30 4567 H 442.404 -3.9434 -0.523542 0
M  V30 4568 H 439.143 -6.46161 1.10258 0
M  V30 4569 H 438.663 -5.97373 -0.539045 0
M  V30 4570 H 440.342 -6.46669 -0.206954 0
M  V30 4571 N 440.474 -0.00167713 -1.576 0
M  V30 4572 C 441.404 0.988091 -2.11563 0
M  V30 4573 C 442.385 1.35736 -1.02517 0
M  V30 4574 O 443.57 1.44082 -1.30208 0
M  V30 4575 C 440.7 2.27941 -2.62031 0
M  V30 4576 C 439.654 2.0517 -3.75619 0
M  V30 4577 C 438.98 3.4033 -4.12407 0
M  V30 4578 C 440.28 1.41294 -5.02825 0
M  V30 4579 H 441.974 0.538771 -2.94513 0
M  V30 4580 H 439.52 0.257712 -1.41675 0
M  V30 4581 H 441.473 2.97539 -2.9841 0
M  V30 4582 H 440.197 2.74989 -1.76205 0
M  V30 4583 H 438.856 1.37998 -3.39635 0
M  V30 4584 H 438.504 3.85085 -3.23603 0
M  V30 4585 H 438.204 3.25909 -4.88935 0
M  V30 4586 H 439.728 4.1124 -4.51347 0
M  V30 4587 H 441.142 2.00851 -5.36965 0
M  V30 4588 H 439.539 1.37356 -5.84169 0
M  V30 4589 H 440.609 0.382362 -4.8339 0
M  V30 4590 N 441.952 1.55251 0.271103 0
M  V30 4591 C 443.177 1.80306 1.02491 0
M  V30 4592 C 443.602 0.575457 1.79081 0
M  V30 4593 O 442.96 -0.474987 1.74967 0
M  V30 4594 C 443.008 3.02832 1.95768 0
M  V30 4595 O 442.112 2.78051 3.04568 0
M  V30 4596 H 441.453 0.595896 0.292923 0
M  V30 4597 H 443.983 2.02397 0.299436 0
M  V30 4598 H 443.993 3.31616 2.37686 0
M  V30 4599 H 442.668 3.9183 1.39434 0
M  V30 4600 H 441.245 2.60369 2.66951 0
M  V30 4601 N 443.43 -0.535701 1.48216 0
M  V30 4602 C 444.36 -1.65014 1.65204 0
M  V30 4603 C 445.341 -1.62554 0.501011 0
M  V30 4604 O 446.526 -1.7984 0.732886 0
M  V30 4605 C 443.656 -3.03616 1.68626 0
M  V30 4606 C 442.61 -3.20932 2.83172 0
M  V30 4607 C 441.936 -4.60537 2.71679 0
M  V30 4608 C 443.236 -3.04249 4.24535 0
M  V30 4609 H 444.93 -1.51053 2.58502 0
M  V30 4610 H 442.476 -0.725262 1.24402 0
M  V30 4611 H 444.429 -3.81446 1.79099 0
M  V30 4612 H 443.153 -3.18587 0.719026 0
M  V30 4613 H 441.812 -2.45517 2.72244 0
M  V30 4614 H 441.46 -4.72336 1.72937 0
M  V30 4615 H 441.16 -4.73069 3.48538 0
M  V30 4616 H 442.684 -5.40475 2.84112 0
M  V30 4617 H 444.098 -3.71877 4.36326 0
M  V30 4618 H 442.495 -3.28278 5.02348 0
M  V30 4619 H 443.565 -2.00739 4.41397 0
M  V30 4620 N 444.908 -1.36708 -0.784132 0
M  V30 4621 C 446.157 -1.30559 -1.53744 0
M  V30 4622 C 446.47 0.111374 -1.95283 0
M  V30 4623 O 447.676 0.29527 -2.6989 0
M  V30 4624 C 446.132 -2.29098 -2.77565 0
M  V30 4625 C 445.74 -3.76258 -2.43174 0
M  V30 4626 C 447.484 -2.31936 -3.55536 0
M  V30 4627 C 445.391 -4.6656 -3.63422 0
M  V30 4628 H 444.321 -0.48518 -0.577162 0
M  V30 4629 H 446.972 -1.62101 -0.859981 0
M  V30 4630 H 445.354 -1.90557 -3.47137 0
M  V30 4631 H 446.528 -4.23565 -1.81465 0
M  V30 4632 H 444.843 -3.76246 -1.78403 0
M  V30 4633 H 447.44 -2.9661 -4.44889 0
M  V30 4634 H 447.783 -1.3294 -3.94503 0
M  V30 4635 H 448.316 -2.6912 -2.92949 0
M  V30 4636 H 445.055 -5.66638 -3.29547 0
M  V30 4637 H 444.575 -4.23966 -4.24279 0
M  V30 4638 H 446.254 -4.8309 -4.30387 0
M  V30 4639 N 446.386 1.0089 -1.21074 0
M  V30 4640 C 447.316 2.1145 -0.990523 0
M  V30 4641 C 448.297 1.69897 0.0831699 0
M  V30 4642 O 449.482 1.94052 -0.0758853 0
M  V30 4643 C 446.612 3.42914 -0.550177 0
M  V30 4644 C 445.566 3.98244 -1.56799 0
M  V30 4645 C 444.892 5.25568 -0.984013 0
M  V30 4646 C 446.192 4.30752 -2.95381 0
M  V30 4647 H 447.886 2.3013 -1.91521 0
M  V30 4648 H 445.432 1.10592 -0.92225 0
M  V30 4649 H 447.385 4.19653 -0.383305 0
M  V30 4650 H 446.109 3.24014 0.41015 0
M  V30 4651 H 444.768 3.23621 -1.72236 0
M  V30 4652 H 444.416 5.02998 -0.0155216 0
M  V30 4653 H 444.116 5.63551 -1.66384 0
M  V30 4654 H 445.64 6.04955 -0.828378 0
M  V30 4655 H 447.054 4.98349 -2.8341 0
M  V30 4656 H 445.451 4.79869 -3.60341 0
M  V30 4657 H 446.521 3.39192 -3.46521 0
M  V30 4658 N 447.864 1.01787 1.20321 0
M  V30 4659 C 449.112 0.706538 1.89347 0
M  V30 4660 C 449.433 -0.766289 1.79313 0
M  V30 4661 O 448.703 -1.55126 1.19635 0
M  V30 4662 H 447.283 0.258348 0.700903 0
M  V30 4663 H 449.945 1.28974 1.46122 0
M  V30 4664 H 449.041 0.991066 2.95946 0
M  V30 4665 N 449.342 -1.36122 0.79427 0
M  V30 4666 C 450.572 -2.03067 0.380437 0
M  V30 4667 C 450.98 -1.60018 -1.00949 0
M  V30 4668 O 450.323 -0.787425 -1.65968 0
M  V30 4669 C 450.385 -3.57587 0.37034 0
M  V30 4670 C 450.049 -4.23855 1.70867 0
M  V30 4671 C 451.046 -4.46404 2.66496 0
M  V30 4672 C 448.731 -4.61229 1.9893 0
M  V30 4673 C 450.725 -5.05412 3.88378 0
M  V30 4674 C 448.412 -5.19953 3.21079 0
M  V30 4675 C 449.41 -5.41985 4.15621 0
M  V30 4676 O 449.098 -5.99475 5.35616 0
M  V30 4677 H 448.83 -0.658168 0.154243 0
M  V30 4678 H 451.384 -1.7498 1.0757 0
M  V30 4679 H 449.614 -3.84814 -0.381444 0
M  V30 4680 H 451.303 -4.05895 -0.0194894 0
M  V30 4681 H 452.069 -4.17921 2.46103 0
M  V30 4682 H 447.948 -4.43402 1.26158 0
M  V30 4683 H 451.492 -5.22524 4.62185 0
M  V30 4684 H 447.389 -5.47862 3.41347 0
M  V30 4685 H 448.157 -6.17937 5.36745 0
M  V30 4686 N 450.82 -0.546701 -1.47814 0
M  V30 4687 C 452.048 -0.0232857 -2.06887 0
M  V30 4688 C 452.463 1.26571 -1.4009 0
M  V30 4689 O 451.82 1.7569 -0.493906 0
M  V30 4690 C 451.871 0.186975 -3.61016 0
M  V30 4691 O 451.592 -1.05097 -4.25307 0
M  V30 4692 C 453.093 0.748872 -4.36929 0
M  V30 4693 H 450.313 -0.0410763 -0.669742 0
M  V30 4694 H 452.857 -0.757117 -1.89968 0
M  V30 4695 H 451.012 0.870903 -3.77484 0
M  V30 4696 H 451.426 -0.842121 -5.17695 0
M  V30 4697 H 452.9 0.845334 -5.45489 0
M  V30 4698 H 453.377 1.75772 -4.02493 0
M  V30 4699 H 453.983 0.100979 -4.2518 0
M  V30 4700 N 452.299 1.55045 -0.282633 0
M  V30 4701 C 453.545 2.0078 0.325436 0
M  V30 4702 C 453.9 1.1676 1.52921 0
M  V30 4703 O 453.193 0.231475 1.90197 0
M  V30 4704 C 453.387 3.49422 0.750938 0
M  V30 4705 C 453.216 4.47827 -0.410056 0
M  V30 4706 C 451.986 4.97288 -0.896239 0
M  V30 4707 C 454.184 4.98903 -1.24902 0
M  V30 4708 N 452.166 5.79508 -2.02591 0
M  V30 4709 C 453.537 5.78644 -2.22646 0
M  V30 4710 C 455.592 4.81126 -1.2815 0
M  V30 4711 C 454.295 6.42502 -3.23393 0
M  V30 4712 C 456.321 5.45789 -2.27745 0
M  V30 4713 C 455.683 6.25348 -3.24222 0
M  V30 4714 H 451.782 0.77747 0.08405 0
M  V30 4715 H 454.366 1.90369 -0.408368 0
M  V30 4716 H 452.537 3.60159 1.45395 0
M  V30 4717 H 454.269 3.81978 1.33698 0
M  V30 4718 H 451.024 4.71219 -0.474277 0
M  V30 4719 H 451.448 6.25308 -2.59459 0
M  V30 4720 H 456.09 4.19215 -0.549397 0
M  V30 4721 H 453.808 7.03558 -3.97533 0
M  V30 4722 H 457.394 5.33972 -2.31009 0
M  V30 4723 H 456.274 6.74498 -4.00027 0
M  V30 4724 N 453.777 0.010035 1.57597 0
M  V30 4725 C 454.707 -0.976857 2.12084 0
M  V30 4726 C 455.688 -1.35191 1.03235 0
M  V30 4727 O 456.873 -1.43389 1.3097 0
M  V30 4728 C 454.003 -2.26548 2.63236 0
M  V30 4729 C 452.957 -2.03175 3.76701 0
M  V30 4730 C 452.283 -3.38138 4.14206 0
M  V30 4731 C 453.583 -1.38625 5.03568 0
M  V30 4732 H 455.277 -0.523145 2.94794 0
M  V30 4733 H 452.823 -0.250195 1.4181 0
M  V30 4734 H 454.776 -2.95952 2.99984 0
M  V30 4735 H 453.5 -2.74051 1.77661 0
M  V30 4736 H 452.159 -1.36195 3.40362 0
M  V30 4737 H 451.807 -3.83363 3.25641 0
M  V30 4738 H 451.507 -3.23312 4.90656 0
M  V30 4739 H 453.031 -4.08841 4.53521 0
M  V30 4740 H 454.445 -1.98 5.38023 0
M  V30 4741 H 452.842 -1.34256 5.84889 0
M  V30 4742 H 453.912 -0.356722 4.83586 0
M  V30 4743 N 455.255 -1.55392 -0.262866 0
M  V30 4744 C 456.165 -1.92077 -1.34698 0
M  V30 4745 C 457.181 -0.819227 -1.53508 0
M  V30 4746 O 458.357 -1.11921 -1.67439 0
M  V30 4747 C 455.422 -2.19407 -2.68443 0
M  V30 4748 C 454.483 -3.42905 -2.58292 0
M  V30 4749 C 453.716 -3.68921 -3.85659 0
M  V30 4750 O 453.939 -2.97275 -4.8681 0
M  V30 4751 O 452.873 -4.62455 -3.85252 0
M  V30 4752 H 456.699 -2.84384 -1.06581 0
M  V30 4753 H 454.284 -1.42069 -0.462264 0
M  V30 4754 H 456.166 -2.38365 -3.47506 0
M  V30 4755 H 454.841 -1.30282 -2.96325 0
M  V30 4756 H 453.748 -3.29272 -1.7757 0
M  V30 4757 H 455.081 -4.32282 -2.35358 0
M  V30 4758 N 456.733 0.527833 -1.48498 0
M  V30 4759 C 457.696 1.61439 -1.62696 0
M  V30 4760 C 458.696 1.52824 -0.500136 0
M  V30 4761 O 459.886 1.56456 -0.765976 0
M  V30 4762 C 457.018 3.01063 -1.59918 0
M  V30 4763 H 458.211 1.50189 -2.59583 0
M  V30 4764 H 455.764 0.750055 -1.37127 0
M  V30 4765 H 456.499 3.17818 -0.645163 0
M  V30 4766 H 456.284 3.08725 -2.41726 0
M  V30 4767 H 457.774 3.80057 -1.73051 0
M  V30 4768 N 458.211 1.37122 0.776871 0
M  V30 4769 C 459.457 1.32243 1.53752 0
M  V30 4770 C 459.79 -0.0944745 1.9397 0
M  V30 4771 O 459.065 -1.05068 1.6368 0
M  V30 4772 C 459.348 2.25681 2.80607 0
M  V30 4773 C 459.201 3.76127 2.46676 0
M  V30 4774 C 460.52 2.17657 3.82509 0
M  V30 4775 H 457.639 0.481704 0.557791 0
M  V30 4776 H 460.281 1.6778 0.891612 0
M  V30 4777 H 458.431 1.95505 3.35723 0
M  V30 4778 H 460.103 4.16877 1.97513 0
M  V30 4779 H 458.346 3.94946 1.79443 0
M  V30 4780 H 459.017 4.36933 3.37333 0
M  V30 4781 H 461.493 2.44245 3.36873 0
M  V30 4782 H 460.369 2.85185 4.69 0
M  V30 4783 H 460.63 1.16785 4.26396 0
M  V30 4784 N 459.689 -1.00246 1.21608 0
M  V30 4785 C 460.938 -1.73476 1.02902 0
M  V30 4786 C 461.251 -1.90643 -0.437561 0
M  V30 4787 O 462.457 -2.61105 -0.74407 0
M  V30 4788 C 460.913 -3.12079 1.79261 0
M  V30 4789 C 460.521 -3.02877 3.30106 0
M  V30 4790 C 462.265 -3.89421 1.68972 0
M  V30 4791 C 460.172 -4.36575 3.98944 0
M  V30 4792 H 459.102 -0.650408 0.381425 0
M  V30 4793 H 461.753 -1.11985 1.45367 0
M  V30 4794 H 460.135 -3.74196 1.2959 0
M  V30 4795 H 461.309 -2.49983 3.87098 0
M  V30 4796 H 459.624 -2.39022 3.40965 0
M  V30 4797 H 462.221 -4.88362 2.17731 0
M  V30 4798 H 462.564 -4.1122 0.648397 0
M  V30 4799 H 463.097 -3.33963 2.16133 0
M  V30 4800 H 459.836 -4.19978 5.03288 0
M  V30 4801 H 459.356 -4.8942 3.4674 0
M  V30 4802 H 461.035 -5.05364 4.04 0
M  V30 4803 N 461.167 -1.02423 -1.1978 0
M  V30 4804 C 462.414 -0.717988 -1.89344 0
M  V30 4805 C 462.742 0.753036 -1.79331 0
M  V30 4806 O 461.997 1.56355 -1.17692 0
M  V30 4807 C 462.296 -1.1088 -3.39765 0
M  V30 4808 C 461.962 -2.57731 -3.6998 0
M  V30 4809 C 460.624 -2.97854 -3.77937 0
M  V30 4810 C 462.976 -3.52763 -3.83677 0
M  V30 4811 C 460.304 -4.31931 -3.97054 0
M  V30 4812 C 462.656 -4.86538 -4.04306 0
M  V30 4813 C 461.32 -5.26356 -4.10494 0
M  V30 4814 H 460.59 -0.26273 -0.692859 0
M  V30 4815 H 463.237 -1.28623 -1.41875 0
M  V30 4816 H 461.542 -0.459094 -3.89101 0
M  V30 4817 H 463.239 -0.849432 -3.919 0
M  V30 4818 H 459.829 -2.25646 -3.64393 0
M  V30 4819 H 464.013 -3.2292 -3.76877 0
M  V30 4820 H 459.269 -4.62324 -4.00083 0
M  V30 4821 H 463.443 -5.60093 -4.13846 0
M  V30 4822 H 461.07 -6.3026 -4.2506 0
M  V30 4823 N 462.645 1.35699 -0.801477 0
M  V30 4824 C 463.575 2.32436 -0.222658 0
M  V30 4825 C 464.556 1.5723 0.649057 0
M  V30 4826 O 465.741 1.85324 0.580387 0
M  V30 4827 C 462.871 3.41469 0.633719 0
M  V30 4828 C 461.825 4.27774 -0.139083 0
M  V30 4829 C 461.151 5.28082 0.838666 0
M  V30 4830 C 462.451 5.04946 -1.33517 0
M  V30 4831 H 464.145 2.81094 -1.03086 0
M  V30 4832 H 461.691 1.35146 -0.497155 0
M  V30 4833 H 463.644 4.08143 1.04868 0
M  V30 4834 H 462.368 2.91408 1.47475 0
M  V30 4835 H 461.027 3.62673 -0.535156 0
M  V30 4836 H 460.675 4.7429 1.67506 0
M  V30 4837 H 460.375 5.86695 0.32594 0
M  V30 4838 H 461.899 5.97628 1.25194 0
M  V30 4839 H 463.313 5.64593 -0.995349 0
M  V30 4840 H 461.71 5.7303 -1.78202 0
M  V30 4841 H 462.78 4.35886 -2.12442 0
M  V30 4842 N 464.123 0.554532 1.47522 0
M  V30 4843 C 465.372 0.0273458 2.01681 0
M  V30 4844 C 465.685 -1.32962 1.43459 0
M  V30 4845 O 466.891 -1.94657 1.89265 0
M  V30 4846 C 465.347 -0.00159057 3.599 0
M  V30 4847 C 464.955 1.35197 4.27113 0
M  V30 4848 C 466.699 -0.476311 4.21819 0
M  V30 4849 C 464.606 1.28229 5.77331 0
M  V30 4850 H 463.536 0.00645269 0.753972 0
M  V30 4851 H 466.187 0.701985 1.69542 0
M  V30 4852 H 464.569 -0.741821 3.8899 0
M  V30 4853 H 465.743 2.1097 4.09668 0
M  V30 4854 H 464.058 1.76441 3.77171 0
M  V30 4855 H 466.655 -0.5468 5.31897 0
M  V30 4856 H 466.998 -1.4877 3.8881 0
M  V30 4857 H 467.531 0.20898 3.97251 0
M  V30 4858 H 464.27 2.26959 6.14955 0
M  V30 4859 H 463.79 0.566314 5.97121 0
M  V30 4860 H 465.469 0.983226 6.39485 0
M  V30 4861 N 465.601 -1.54893 0.290851 0
M  V30 4862 C 466.849 -1.99538 -0.320756 0
M  V30 4863 C 467.17 -1.18075 -1.55188 0
M  V30 4864 O 466.44 -0.274162 -1.93972 0
M  V30 4865 H 465.02 -0.737052 -0.121507 0
M  V30 4866 H 467.682 -1.90755 0.399832 0
M  V30 4867 H 466.778 -3.06282 -0.599802 0
M  V30 4868 N 467.08 -0.0183926 -1.57589 0
M  V30 4869 C 468.329 0.66185 -1.90532 0
M  V30 4870 C 468.642 1.73904 -0.895366 0
M  V30 4871 O 469.848 2.47518 -1.11566 0
M  V30 4872 C 468.304 1.22844 -3.38286 0
M  V30 4873 C 467.912 0.185103 -4.47617 0
M  V30 4874 C 469.656 1.88581 -3.80312 0
M  V30 4875 C 467.563 0.762723 -5.86461 0
M  V30 4876 H 466.493 0.250972 -0.711006 0
M  V30 4877 H 469.144 -0.0819435 -1.83317 0
M  V30 4878 H 467.526 2.0235 -3.40398 0
M  V30 4879 H 468.7 -0.58671 -4.5705 0
M  V30 4880 H 467.015 -0.372889 -4.14727 0
M  V30 4881 H 469.612 2.32735 -4.81392 0
M  V30 4882 H 469.955 2.72408 -3.14801 0
M  V30 4883 H 470.488 1.15782 -3.80578 0
M  V30 4884 H 467.227 -0.0371713 -6.55489 0
M  V30 4885 H 466.747 1.50327 -5.80656 0
M  V30 4886 H 468.426 1.25576 -6.34697 0
M  V30 4887 N 468.558 1.5553 0.254621 0
M  V30 4888 C 469.807 1.76202 0.981612 0
M  V30 4889 C 470.12 0.580883 1.86776 0
M  V30 4890 O 471.326 0.670448 2.63092 0
M  V30 4891 C 469.782 3.11921 1.79537 0
M  V30 4892 C 469.39 4.37659 0.956991 0
M  V30 4893 C 471.134 3.41936 2.51555 0
M  V30 4894 C 469.041 5.64411 1.76619 0
M  V30 4895 H 467.971 0.656841 0.370237 0
M  V30 4896 H 470.622 1.81969 0.236556 0
M  V30 4897 H 469.004 3.00241 2.58208 0
M  V30 4898 H 470.178 4.60307 0.21315 0
M  V30 4899 H 468.493 4.14922 0.350497 0
M  V30 4900 H 471.09 4.33849 3.12536 0
M  V30 4901 H 471.433 2.62905 3.22779 0
M  V30 4902 H 471.966 3.54797 1.799 0
M  V30 4903 H 468.705 6.46241 1.09783 0
M  V30 4904 H 468.225 5.45877 2.48551 0
M  V30 4905 H 469.904 6.03386 2.33527 0
M  V30 4906 N 470.036 -0.519951 1.48776 0
M  V30 4907 C 471.282 -1.27711 1.57536 0
M  V30 4908 C 471.615 -1.92547 0.252866 0
M  V30 4909 O 470.89 -1.7979 -0.742021 0
M  V30 4910 C 471.173 -2.35875 2.72094 0
M  V30 4911 C 471.026 -1.75664 4.1408 0
M  V30 4912 C 472.345 -3.37575 2.82367 0
M  V30 4913 H 469.464 -0.462971 0.573434 0
M  V30 4914 H 472.106 -0.578194 1.80989 0
M  V30 4915 H 470.256 -2.95488 2.52228 0
M  V30 4916 H 471.928 -1.20025 4.45412 0
M  V30 4917 H 470.171 -1.06154 4.20611 0
M  V30 4918 H 470.842 -2.54029 4.90075 0
M  V30 4919 H 473.318 -2.87929 3.00393 0
M  V30 4920 H 472.194 -4.1064 3.64233 0
M  V30 4921 H 472.455 -3.98743 1.90936 0
M  V30 4922 N 471.514 -1.37532 -0.769588 0
M  V30 4923 C 472.477 -1.33292 -1.86456 0
M  V30 4924 C 473.477 -0.236537 -1.59051 0
M  V30 4925 O 474.667 -0.492511 -1.67093 0
M  V30 4926 C 471.799 -1.07118 -3.23633 0
M  V30 4927 H 472.992 -2.30692 -1.91628 0
M  V30 4928 H 470.545 -1.22593 -0.969572 0
M  V30 4929 H 471.28 -0.102578 -3.24138 0
M  V30 4930 H 471.065 -1.86479 -3.44917 0
M  V30 4931 H 472.555 -1.06806 -4.03711 0
M  V30 4932 N 472.992 0.995999 -1.22138 0
M  V30 4933 C 473.94 2.10673 -0.985876 0
M  V30 4934 C 474.934 1.69255 0.0699553 0
M  V30 4935 O 476.14 1.79812 -0.0822176 0
M  V30 4936 H 472.515 0.688865 -0.30161 0
M  V30 4937 H 474.486 2.27711 -1.92848 0
M  V30 4938 C 473.235 3.42881 -0.576909 0
M  V30 4939 H 472.558 3.75191 -1.38101 0
M  V30 4940 H 473.998 4.21589 -0.451518 0
M  V30 4941 C 472.457 3.29265 0.713196 0
M  V30 4942 O 472.987 3.60777 1.76643 0
M  V30 4943 N 471.193 2.82456 0.683162 0
M  V30 4944 H 470.74 2.5701 -0.174242 0
M  V30 4945 H 470.698 2.73727 1.54663 0
M  V30 4946 N 474.47 1.03057 1.19235 0
M  V30 4947 C 475.716 0.729098 1.89241 0
M  V30 4948 C 476.049 -0.740573 1.79525 0
M  V30 4949 O 475.324 -1.53946 1.18874 0
M  V30 4950 C 475.607 1.18304 3.40112 0
M  V30 4951 C 475.46 2.71406 3.5869 0
M  V30 4952 C 476.779 0.765161 4.33397 0
M  V30 4953 H 473.898 0.266338 0.687192 0
M  V30 4954 H 476.54 1.28079 1.40341 0
M  V30 4955 H 474.69 0.713672 3.81889 0
M  V30 4956 H 476.362 3.26303 3.26074 0
M  V30 4957 H 474.605 3.11717 3.01687 0
M  V30 4958 H 475.276 2.98225 4.64506 0
M  V30 4959 H 477.752 1.16889 3.99345 0
M  V30 4960 H 476.628 1.11065 5.37546 0
M  V30 4961 H 476.889 -0.332372 4.40849 0
M  V30 4962 N 475.948 -1.35272 0.808662 0
M  V30 4963 C 477.359 -1.81179 0.450688 0
M  V30 4964 C 477.71 -1.67143 -1.02751 0
M  V30 4965 O 476.835 -1.20325 -1.79864 0
M  V30 4966 C 477.43 -3.28943 0.811275 0
M  V30 4967 C 475.989 -3.72985 0.505871 0
M  V30 4968 C 475.136 -2.57229 1.03578 0
M  V30 4969 H 478.087 -1.2322 1.00012 0
M  V30 4970 H 478.108 -3.80342 0.109588 0
M  V30 4971 H 477.62 -3.39127 1.88718 0
M  V30 4972 H 475.721 -3.68349 -0.561209 0
M  V30 4973 H 475.834 -4.67677 1.03995 0
M  V30 4974 H 474.198 -2.50548 0.458005 0
M  V30 4975 H 474.981 -2.7019 2.11784 0
M  V30 4976 N 477.426 -0.562348 -1.47226 0
M  V30 4977 C 478.336 0.185466 -2.33866 0
M  V30 4978 C 479.352 0.906713 -1.48508 0
M  V30 4979 O 480.528 0.874458 -1.81425 0
M  V30 4980 C 477.593 1.19904 -3.25306 0
M  V30 4981 C 476.654 0.484669 -4.26555 0
M  V30 4982 C 475.887 1.44996 -5.13626 0
M  V30 4983 O 476.11 2.68515 -5.03245 0
M  V30 4984 O 475.044 0.971642 -5.94006 0
M  V30 4985 H 478.87 -0.525361 -2.99121 0
M  V30 4986 H 476.455 -0.322916 -1.45868 0
M  V30 4987 H 478.337 1.78399 -3.81774 0
M  V30 4988 H 477.012 1.8917 -2.62672 0
M  V30 4989 H 475.919 -0.141605 -3.73832 0
M  V30 4990 H 477.252 -0.166634 -4.91918 0
M  V30 4991 N 478.904 1.54736 -0.299062 0
M  V30 4992 C 480.152 1.99706 0.31017 0
M  V30 4993 C 480.473 1.18896 1.54559 0
M  V30 4994 O 479.743 0.284445 1.93824 0
M  V30 4995 H 478.323 0.737686 0.117596 0
M  V30 4996 H 480.985 1.9054 -0.409943 0
M  V30 4997 H 480.081 3.06596 0.58355 0
M  V30 4998 N 480.382 0.0267497 1.57577 0
M  V30 4999 C 481.312 -0.954308 2.13108 0
M  V30 5000 C 482.293 -1.34088 1.04663 0
M  V30 5001 O 483.478 -1.41992 1.32484 0
M  V30 5002 C 480.608 -2.23744 2.65624 0
M  V30 5003 C 479.562 -1.99168 3.78835 0
M  V30 5004 C 478.888 -3.33726 4.17769 0
M  V30 5005 C 480.188 -1.33277 5.0501 0
M  V30 5006 H 481.882 -0.491848 2.95332 0
M  V30 5007 H 479.428 -0.23514 1.42067 0
M  V30 5008 H 481.381 -2.92754 3.03106 0
M  V30 5009 H 480.105 -2.72151 1.80558 0
M  V30 5010 H 478.764 -1.32577 3.41788 0
M  V30 5011 H 478.412 -3.79888 3.29688 0
M  V30 5012 H 478.112 -3.18089 4.94058 0
M  V30 5013 H 479.636 -4.04008 4.57832 0
M  V30 5014 H 481.05 -1.92283 5.40093 0
M  V30 5015 H 479.447 -1.28045 5.8628 0
M  V30 5016 H 480.517 -0.305411 4.83937 0
M  V30 5017 N 481.861 -1.55662 -0.24637 0
M  V30 5018 C 482.791 -1.93377 -1.30873 0
M  V30 5019 C 483.772 -0.798773 -1.50179 0
M  V30 5020 O 484.957 -1.0591 -1.62778 0
M  V30 5021 C 482.087 -2.22893 -2.66338 0
M  V30 5022 C 481.041 -3.38649 -2.61727 0
M  V30 5023 C 480.367 -3.53708 -4.00992 0
M  V30 5024 C 481.667 -4.74323 -2.18666 0
M  V30 5025 H 483.361 -2.82363 -0.995552 0
M  V30 5026 H 480.907 -1.35854 -0.477464 0
M  V30 5027 H 482.86 -2.47866 -3.40794 0
M  V30 5028 H 481.584 -1.30733 -2.99293 0
M  V30 5029 H 480.243 -3.13685 -1.89729 0
M  V30 5030 H 479.891 -2.58967 -4.31214 0
M  V30 5031 H 479.591 -4.31551 -3.98795 0
M  V30 5032 H 481.115 -3.81003 -4.77147 0
M  V30 5033 H 482.529 -4.98665 -2.82854 0
M  V30 5034 H 480.926 -5.55273 -2.27579 0
M  V30 5035 H 481.996 -4.71349 -1.13834 0
M  V30 5036 N 483.339 0.512053 -1.4905 0
M  V30 5037 C 484.302 1.59704 -1.64399 0
M  V30 5038 C 485.302 1.52285 -0.516317 0
M  V30 5039 O 486.492 1.55635 -0.782527 0
M  V30 5040 C 483.624 2.9935 -1.63102 0
M  V30 5041 H 484.817 1.47428 -2.61161 0
M  V30 5042 H 482.37 0.735469 -1.37915 0
M  V30 5043 H 483.105 3.17116 -0.678836 0
M  V30 5044 H 482.89 3.06144 -2.44986 0
M  V30 5045 H 484.38 3.782 -1.77072 0
M  V30 5046 N 484.817 1.37938 0.762283 0
M  V30 5047 C 486.045 1.36883 1.55147 0
M  V30 5048 C 486.46 -0.0435348 1.8875 0
M  V30 5049 O 485.817 -1.00786 1.52146 0
M  V30 5050 C 485.868 2.21624 2.85596 0
M  V30 5051 O 485.589 3.57358 2.5343 0
M  V30 5052 C 487.09 2.28653 3.7978 0
M  V30 5053 H 484.31 0.468521 0.480343 0
M  V30 5054 H 486.854 1.81404 0.944079 0
M  V30 5055 H 485.009 1.80588 3.42734 0
M  V30 5056 H 485.423 4.01883 3.37032 0
M  V30 5057 H 486.897 2.9225 4.68288 0
M  V30 5058 H 487.374 1.29767 4.19592 0
M  V30 5059 H 487.98 2.70043 3.28568 0
M  V30 5060 N 486.295 -0.989507 1.22664 0
M  V30 5061 C 487.541 -1.7321 1.05481 0
M  V30 5062 C 487.874 -1.89852 -0.408635 0
M  V30 5063 O 487.149 -1.44416 -1.30285 0
M  V30 5064 C 487.432 -3.1357 1.77047 0
M  V30 5065 C 487.285 -3.04555 3.31008 0
M  V30 5066 C 488.604 -4.12812 1.5256 0
M  V30 5067 H 485.723 -0.628697 0.384589 0
M  V30 5068 H 488.365 -1.15258 1.51049 0
M  V30 5069 H 486.515 -3.63046 1.3831 0
M  V30 5070 H 488.187 -2.62674 3.7921 0
M  V30 5071 H 486.43 -2.41278 3.6051 0
M  V30 5072 H 487.101 -4.03894 3.76263 0
M  V30 5073 H 489.577 -3.72106 1.86215 0
M  V30 5074 H 488.453 -5.09132 2.05124 0
M  V30 5075 H 488.714 -4.39711 0.458936 0
M  V30 5076 N 487.773 -1.03688 -1.18687 0
M  V30 5077 C 489.001 -0.757918 -1.92518 0
M  V30 5078 C 489.416 0.684398 -1.75959 0
M  V30 5079 O 488.773 1.46617 -1.08673 0
M  V30 5080 C 488.824 -1.10985 -3.44042 0
M  V30 5081 O 488.545 -2.49554 -3.60076 0
M  V30 5082 C 490.046 -0.854844 -4.3498 0
M  V30 5083 H 487.266 -0.276699 -0.611293 0
M  V30 5084 H 489.81 -1.38352 -1.50595 0
M  V30 5085 H 487.965 -0.529279 -3.83767 0
M  V30 5086 H 488.379 -2.6291 -4.53849 0
M  V30 5087 H 489.853 -1.15098 -5.39867 0
M  V30 5088 H 490.33 0.210507 -4.38695 0
M  V30 5089 H 490.936 -1.41853 -4.00946 0
M  V30 5090 N 489.251 1.34841 -0.815825 0
M  V30 5091 C 490.497 1.98793 -0.401129 0
M  V30 5092 C 490.83 1.64548 1.03139 0
M  V30 5093 O 490.105 0.913487 1.71714 0
M  V30 5094 C 490.388 3.55143 -0.595409 0
M  V30 5095 C 490.241 3.99155 -2.07352 0
M  V30 5096 C 491.56 4.40092 -0.0268823 0
M  V30 5097 H 488.679 0.722146 -0.14722 0
M  V30 5098 H 491.321 1.59847 -1.02707 0
M  V30 5099 H 489.471 3.8845 -0.0625779 0
M  V30 5100 H 491.143 3.76216 -2.66945 0
M  V30 5101 H 489.386 3.49726 -2.56659 0
M  V30 5102 H 490.057 5.07971 -2.1603 0
M  V30 5103 H 492.533 4.13298 -0.482042 0
M  V30 5104 H 491.409 5.48562 -0.19267 0
M  V30 5105 H 491.67 4.29016 1.06759 0
M  V30 5106 N 490.729 0.570148 1.46925 0
M  V30 5107 C 491.969 0.0534743 2.0433 0
M  V30 5108 C 492.333 -1.27729 1.4335 0
M  V30 5109 O 493.534 -1.88244 1.91879 0
M  V30 5110 C 491.805 -0.0244296 3.57392 0
M  V30 5111 S 493.364 -0.485351 4.36108 0
M  V30 5112 H 490.182 0.0313908 0.710307 0
M  V30 5113 H 492.784 0.759808 1.80131 0
M  V30 5114 H 491.488 0.948261 3.99295 0
M  V30 5115 H 491.019 -0.753922 3.86108 0
M  V30 5116 H 493.034 -1.74258 4.64595 0
M  V30 5117 N 492.207 -1.54576 0.307264 0
M  V30 5118 C 493.137 -2.26708 -0.55907 0
M  V30 5119 C 494.118 -1.26893 -1.1328 0
M  V30 5120 O 495.303 -1.55677 -1.16097 0
M  V30 5121 C 492.433 -3.01259 -1.72801 0
M  V30 5122 C 491.387 -4.08275 -1.28435 0
M  V30 5123 C 490.713 -4.70575 -2.53895 0
M  V30 5124 C 492.013 -5.2068 -0.411038 0
M  V30 5125 H 493.707 -2.9937 0.042576 0
M  V30 5126 H 491.253 -1.43983 0.0219173 0
M  V30 5127 H 493.206 -3.50444 -2.34023 0
M  V30 5128 H 491.93 -2.26187 -2.356 0
M  V30 5129 H 490.589 -3.59949 -0.695161 0
M  V30 5130 H 490.237 -3.92136 -3.15021 0
M  V30 5131 H 489.937 -5.42854 -2.24908 0
M  V30 5132 H 491.461 -5.22527 -3.15908 0
M  V30 5133 H 492.875 -5.65721 -0.929097 0
M  V30 5134 H 491.272 -5.99716 -0.214664 0
M  V30 5135 H 492.342 -4.81629 0.562287 0
M  V30 5136 N 493.685 -0.035106 -1.57561 0
M  V30 5137 C 494.913 0.652258 -1.9635 0
M  V30 5138 C 495.328 1.65317 -0.911897 0
M  V30 5139 O 494.685 1.82194 0.105657 0
M  V30 5140 C 494.736 1.35337 -3.35211 0
M  V30 5141 O 494.457 0.392548 -4.36338 0
M  V30 5142 C 495.958 2.13199 -3.88666 0
M  V30 5143 H 493.178 0.179444 -0.646561 0
M  V30 5144 H 495.722 -0.0966459 -2.04271 0
M  V30 5145 H 493.877 2.05362 -3.28489 0
M  V30 5146 H 494.291 0.891097 -5.16875 0
M  V30 5147 H 495.765 2.577 -4.88154 0
M  V30 5148 H 496.242 2.97353 -3.23231 0
M  V30 5149 H 496.848 1.48118 -3.98674 0
M  V30 5150 N 495.163 1.55791 0.238111 0
M  V30 5151 C 496.093 1.94068 1.29846 0
M  V30 5152 C 497.074 0.806726 1.49753 0
M  V30 5153 O 498.259 1.06772 1.62214 0
M  V30 5154 C 495.389 2.24302 2.65153 0
M  V30 5155 C 494.343 3.40032 2.59927 0
M  V30 5156 C 493.669 3.55829 3.99111 0
M  V30 5157 C 494.969 4.75476 2.16148 0
M  V30 5158 H 496.663 2.82887 0.980563 0
M  V30 5159 H 494.209 1.36105 0.470253 0
M  V30 5160 H 496.162 2.4967 3.39475 0
M  V30 5161 H 494.886 1.32318 2.98596 0
M  V30 5162 H 493.545 3.14687 1.88063 0
M  V30 5163 H 493.193 2.6125 4.29834 0
M  V30 5164 H 492.893 4.3366 3.96501 0
M  V30 5165 H 494.417 3.83528 4.7512 0
M  V30 5166 H 495.831 5.00158 2.80205 0
M  V30 5167 H 494.228 5.56472 2.24631 0
M  V30 5168 H 495.298 4.71946 1.11333 0
M  V30 5169 N 496.642 -0.504142 1.49319 0
M  V30 5170 C 497.87 -1.28256 1.62351 0
M  V30 5171 C 498.285 -1.86502 0.293682 0
M  V30 5172 O 497.642 -1.67678 -0.720449 0
M  V30 5173 C 497.693 -2.41507 2.68992 0
M  V30 5174 O 497.414 -1.85656 3.96817 0
M  V30 5175 C 498.915 -3.32929 2.927 0
M  V30 5176 H 496.135 -0.389115 0.546654 0
M  V30 5177 H 498.679 -0.605531 1.95329 0
M  V30 5178 H 496.834 -3.05046 2.38801 0
M  V30 5179 H 497.248 -2.59981 4.55533 0
M  V30 5180 H 498.722 -4.0868 3.71058 0
M  V30 5181 H 499.199 -3.89733 2.02496 0
M  V30 5182 H 499.805 -2.75158 3.24296 0
M  V30 5183 N 498.12 -1.38341 -0.754957 0
M  V30 5184 C 499.083 -1.35262 -1.85032 0
M  V30 5185 C 500.083 -0.253393 -1.58791 0
M  V30 5186 O 501.273 -0.510205 -1.66561 0
M  V30 5187 C 498.405 -1.10544 -3.22479 0
M  V30 5188 H 499.598 -2.32712 -1.8917 0
M  V30 5189 H 497.151 -1.23614 -0.956515 0
M  V30 5190 H 497.886 -0.136952 -3.24011 0
M  V30 5191 H 497.671 -1.90127 -3.4292 0
M  V30 5192 H 499.161 -1.11082 -4.02555 0
M  V30 5193 N 499.598 0.982988 -1.23187 0
M  V30 5194 C 500.545 2.07491 -1.01075 0
M  V30 5195 C 501.515 1.65949 0.070905 0
M  V30 5196 O 502.7 1.90629 -0.0806822 0
M  V30 5197 C 499.84 3.39751 -0.605261 0
M  V30 5198 C 498.953 3.94578 -1.75876 0
M  V30 5199 C 498.088 5.15039 -1.3003 0
M  V30 5200 C 497.127 5.62027 -2.42472 0
M  V30 5201 N 496.264 6.73719 -1.97602 0
M  V30 5202 H 501.104 2.25739 -1.9454 0
M  V30 5203 H 498.641 1.10659 -0.969179 0
M  V30 5204 H 500.599 4.15719 -0.351279 0
M  V30 5205 H 499.229 3.21473 0.292382 0
M  V30 5206 H 498.281 3.1539 -2.12681 0
M  V30 5207 H 499.593 4.25422 -2.60418 0
M  V30 5208 H 498.747 5.9833 -1.00429 0
M  V30 5209 H 497.486 4.85843 -0.425216 0
M  V30 5210 H 496.491 4.77318 -2.7285 0
M  V30 5211 H 497.716 5.93244 -3.30512 0
M  V30 5212 H 495.662 6.46287 -1.1247 0
M  V30 5213 H 495.579 7.03934 -2.75705 0
M  V30 5214 H 496.847 7.6049 -1.71098 0
M  V30 5215 N 501.076 1.04316 1.18135 0
M  V30 5216 C 502.492 0.762858 1.40188 0
M  V30 5217 C 502.692 -0.646547 1.90846 0
M  V30 5218 O 501.748 -1.41036 2.0944 0
M  V30 5219 C 503.061 1.81106 2.40044 0
M  V30 5220 C 504.609 1.83226 2.53766 0
M  V30 5221 C 505.084 2.87044 3.56889 0
M  V30 5222 N 506.575 2.85951 3.64398 0
M  V30 5223 C 507.31 3.62932 4.43923 0
M  V30 5224 N 506.806 4.49672 5.27036 0
M  V30 5225 N 508.599 3.51411 4.38711 0
M  V30 5226 H 500.75 1.95264 0.835805 0
M  V30 5227 H 503.013 0.845017 0.429709 0
M  V30 5228 H 502.719 2.82214 2.09876 0
M  V30 5229 H 502.593 1.64529 3.39426 0
M  V30 5230 H 504.98 0.827869 2.8325 0
M  V30 5231 H 505.061 2.03879 1.54489 0
M  V30 5232 H 504.705 3.87663 3.28145 0
M  V30 5233 H 504.635 2.63645 4.5585 0
M  V30 5234 H 507.126 2.23051 3.05052 0
M  V30 5235 H 507.439 5.05116 5.84874 0
M  V30 5236 H 505.784 4.53738 5.26447 0
M  V30 5237 H 508.975 2.83047 3.72829 0
M  V30 5238 H 509.148 4.11654 5.00445 0
M  V30 5239 N 502.554 -1.34406 0.822964 0
M  V30 5240 C 503.487 -2.27407 0.190124 0
M  V30 5241 C 504.465 -1.4889 -0.653486 0
M  V30 5242 O 505.649 -1.78109 -0.617216 0
M  V30 5243 C 502.776 -3.3064 -0.734477 0
M  V30 5244 C 501.822 -4.26488 0.0316099 0
M  V30 5245 S 502.655 -5.17445 1.3788 0
M  V30 5246 C 503.811 -6.24214 0.45907 0
M  V30 5247 H 504.044 -2.80733 0.978586 0
M  V30 5248 H 501.577 -1.41455 0.618866 0
M  V30 5249 H 503.535 -3.90607 -1.26238 0
M  V30 5250 H 502.196 -2.76161 -1.49646 0
M  V30 5251 H 501.389 -4.9951 -0.671285 0
M  V30 5252 H 500.991 -3.70775 0.490066 0
M  V30 5253 H 503.283 -6.76599 -0.349357 0
M  V30 5254 H 504.226 -6.98551 1.15896 0
M  V30 5255 H 504.634 -5.6448 0.0474825 0
M  V30 5256 N 504.032 -0.577932 -1.46621 0
M  V30 5257 C 504.995 0.147805 -2.28723 0
M  V30 5258 C 505.995 0.823325 -1.38123 0
M  V30 5259 O 507.185 0.676011 -1.60548 0
M  V30 5260 C 504.317 1.21853 -3.18378 0
M  V30 5261 H 505.51 -0.573654 -2.94362 0
M  V30 5262 H 503.063 -0.335703 -1.52652 0
M  V30 5263 H 503.798 1.97173 -2.57475 0
M  V30 5264 H 503.583 0.738714 -3.85078 0
M  V30 5265 H 505.073 1.72768 -3.80186 0
M  V30 5266 N 505.51 1.54411 -0.315457 0
M  V30 5267 C 506.926 1.59556 0.037464 0
M  V30 5268 C 507.126 1.33217 1.5118 0
M  V30 5269 O 506.182 1.11264 2.26664 0
M  V30 5270 C 507.495 2.98372 -0.373477 0
M  V30 5271 C 509.043 3.11324 -0.323452 0
M  V30 5272 C 509.518 4.52472 -0.709433 0
M  V30 5273 N 511.009 4.58437 -0.662524 0
M  V30 5274 C 511.744 5.65751 -0.933474 0
M  V30 5275 N 511.24 6.81039 -1.27114 0
M  V30 5276 N 513.033 5.55489 -0.859573 0
M  V30 5277 H 505.184 1.6979 -1.27614 0
M  V30 5278 H 507.447 0.793732 -0.518356 0
M  V30 5279 H 507.153 3.22618 -1.40037 0
M  V30 5280 H 507.027 3.76264 0.265615 0
M  V30 5281 H 509.414 2.86818 0.694223 0
M  V30 5282 H 509.495 2.35555 -0.997367 0
M  V30 5283 H 509.139 4.7771 -1.72498 0
M  V30 5284 H 509.069 5.26598 -0.0132923 0
M  V30 5285 H 511.56 3.75636 -0.413065 0
M  V30 5286 H 511.873 7.58816 -1.46348 0
M  V30 5287 H 510.218 6.82555 -1.30932 0
M  V30 5288 H 513.409 4.64299 -0.595324 0
M  V30 5289 H 513.582 6.39036 -1.0741 0
M  V30 5290 N 506.988 0.0434614 1.5754 0
M  V30 5291 C 507.935 -0.93356 2.11077 0
M  V30 5292 C 508.905 -1.31383 1.01626 0
M  V30 5293 O 510.09 -1.40465 1.29129 0
M  V30 5294 C 507.23 -2.20578 2.65404 0
M  V30 5295 C 506.343 -1.88068 3.88914 0
M  V30 5296 C 505.478 -3.09691 4.31584 0
M  V30 5297 C 504.517 -2.73067 5.47815 0
M  V30 5298 N 503.654 -3.87359 5.85574 0
M  V30 5299 H 508.494 -0.470118 2.94268 0
M  V30 5300 H 506.031 -0.220434 1.45439 0
M  V30 5301 H 507.989 -2.95011 2.94999 0
M  V30 5302 H 506.619 -2.64513 1.85021 0
M  V30 5303 H 505.671 -1.03816 3.6596 0
M  V30 5304 H 506.983 -1.57104 4.73413 0
M  V30 5305 H 506.137 -3.92431 4.62691 0
M  V30 5306 H 504.876 -3.43827 3.45882 0
M  V30 5307 H 503.881 -1.88742 5.16388 0
M  V30 5308 H 505.106 -2.40131 6.35227 0
M  V30 5309 H 503.052 -4.21311 5.02825 0
M  V30 5310 H 502.969 -3.60068 6.64746 0
M  V30 5311 H 504.237 -4.70761 6.21292 0
M  V30 5312 N 508.466 -1.55915 -0.229846 0
M  V30 5313 C 509.414 -1.9258 -1.30444 0
M  V30 5314 C 510.408 -0.806839 -1.48951 0
M  V30 5315 O 511.614 -0.991606 -1.50224 0
M  V30 5316 H 507.989 -0.611878 -0.437161 0
M  V30 5317 H 509.96 -2.82264 -0.96797 0
M  V30 5318 C 508.709 -2.25171 -2.6494 0
M  V30 5319 H 508.032 -3.10782 -2.51504 0
M  V30 5320 H 509.472 -2.54716 -3.38963 0
M  V30 5321 C 507.931 -1.07394 -3.19324 0
M  V30 5322 O 508.461 -0.330759 -4.00336 0
M  V30 5323 N 506.667 -0.859984 -2.77584 0
M  V30 5324 H 506.214 -1.46605 -2.11813 0
M  V30 5325 H 506.172 -0.0736671 -3.14314 0
M  V30 5326 N 509.944 0.496216 -1.49584 0
M  V30 5327 C 511.184 1.26015 -1.60933 0
M  V30 5328 C 511.548 1.89772 -0.291646 0
M  V30 5329 O 512.749 2.67334 -0.280357 0
M  V30 5330 C 511.02 2.29506 -2.73974 0
M  V30 5331 S 512.579 3.15175 -3.05303 0
M  V30 5332 H 509.397 0.428194 -0.567601 0
M  V30 5333 H 511.999 0.561484 -1.87263 0
M  V30 5334 H 510.703 1.81205 -3.68229 0
M  V30 5335 H 510.234 3.04036 -2.49651 0
M  V30 5336 H 512.249 4.30244 -2.47193 0
M  V30 5337 N 511.423 1.38739 0.74761 0
M  V30 5338 C 512.353 1.39173 1.87492 0
M  V30 5339 C 513.334 0.256794 1.6815 0
M  V30 5340 O 514.519 0.460762 1.88655 0
M  V30 5341 C 511.649 1.22197 3.25093 0
M  V30 5342 C 510.603 2.32957 3.59047 0
M  V30 5343 C 509.929 2.01082 4.95449 0
M  V30 5344 C 511.229 3.75237 3.6331 0
M  V30 5345 H 512.923 2.3351 1.87386 0
M  V30 5346 H 510.469 1.12399 0.900134 0
M  V30 5347 H 512.422 1.21124 4.03617 0
M  V30 5348 H 511.146 0.243241 3.25693 0
M  V30 5349 H 509.805 2.33226 2.82845 0
M  V30 5350 H 509.453 1.01678 4.92616 0
M  V30 5351 H 509.153 2.75267 5.19136 0
M  V30 5352 H 510.677 2.01638 5.76346 0
M  V30 5353 H 512.091 3.76966 4.31937 0
M  V30 5354 H 510.488 4.48677 3.98509 0
M  V30 5355 H 511.558 4.07122 2.634 0
M  V30 5356 N 512.901 -0.976442 1.23707 0
M  V30 5357 C 514.147 -1.72081 1.07312 0
M  V30 5358 C 514.48 -1.90275 -0.388476 0
M  V30 5359 O 513.755 -1.4579 -1.28746 0
M  V30 5360 C 514.038 -3.11675 1.80363 0
M  V30 5361 C 513.891 -3.01027 3.3422 0
M  V30 5362 C 515.21 -4.1117 1.5693 0
M  V30 5363 H 512.329 -0.624583 0.391236 0
M  V30 5364 H 514.971 -1.13649 1.52263 0
M  V30 5365 H 513.121 -3.61559 1.42153 0
M  V30 5366 H 514.793 -2.58637 3.81975 0
M  V30 5367 H 513.036 -2.3744 3.63049 0
M  V30 5368 H 513.707 -3.9988 3.80525 0
M  V30 5369 H 516.183 -3.7011 1.90151 0
M  V30 5370 H 515.059 -5.06928 2.10513 0
M  V30 5371 H 515.32 -4.392 0.505548 0
M  V30 5372 N 514.379 -1.04941 -1.1758 0
M  V30 5373 C 515.326 -0.648155 -2.21512 0
M  V30 5374 C 516.296 0.348431 -1.62404 0
M  V30 5375 O 517.481 0.240419 -1.89279 0
M  V30 5376 C 514.621 -0.0264291 -3.4509 0
M  V30 5377 C 513.734 -1.07154 -4.185 0
M  V30 5378 C 512.869 -0.417403 -5.29558 0
M  V30 5379 C 511.908 -1.447 -5.94751 0
M  V30 5380 N 511.045 -0.817203 -6.97328 0
M  V30 5381 H 515.885 -1.53891 -2.55189 0
M  V30 5382 H 513.422 -0.769699 -1.25356 0
M  V30 5383 H 515.38 0.351456 -4.15717 0
M  V30 5384 H 514.01 0.827802 -3.12005 0
M  V30 5385 H 513.062 -1.56728 -3.46613 0
M  V30 5386 H 514.374 -1.8532 -4.63096 0
M  V30 5387 H 513.528 0.0142061 -6.06698 0
M  V30 5388 H 512.267 0.396265 -4.86087 0
M  V30 5389 H 511.272 -1.88865 -5.16343 0
M  V30 5390 H 512.497 -2.26252 -6.40302 0
M  V30 5391 H 510.443 -0.0239995 -6.55996 0
M  V30 5392 H 510.36 -1.53644 -7.40223 0
M  V30 5393 H 511.628 -0.410283 -7.7842 0
M  V30 5394 N 515.857 1.33968 -0.830081 0
M  V30 5395 C 516.805 2.31301 -0.245435 0
M  V30 5396 C 517.799 1.57734 0.617762 0
M  V30 5397 O 519.005 1.72674 0.508303 0
M  V30 5398 H 515.38 0.749552 -0.0606316 0
M  V30 5399 H 517.351 2.78129 -1.08105 0
M  V30 5400 C 516.1 3.42961 0.572084 0
M  V30 5401 H 515.423 3.99714 -0.0828118 0
M  V30 5402 H 516.863 4.13286 0.94715 0
M  V30 5403 C 515.322 2.88043 1.74737 0
M  V30 5404 O 515.852 2.83508 2.8458 0
M  V30 5405 N 514.058 2.44768 1.56642 0
M  V30 5406 H 513.605 2.48656 0.672901 0
M  V30 5407 H 513.563 2.08375 2.3543 0
M  V30 5408 N 517.335 0.585699 1.46312 0
M  V30 5409 C 518.265 -0.133556 2.33118 0
M  V30 5410 C 519.246 -0.880707 1.45525 0
M  V30 5411 O 520.431 -0.855579 1.74337 0
M  V30 5412 C 517.561 -1.14585 3.27853 0
M  V30 5413 C 516.515 -0.513341 4.2491 0
M  V30 5414 C 515.841 -1.63231 5.09175 0
M  V30 5415 C 517.141 0.551413 5.19381 0
M  V30 5416 H 518.835 0.59121 2.93505 0
M  V30 5417 H 516.381 0.285761 1.41136 0
M  V30 5418 H 518.334 -1.65741 3.87438 0
M  V30 5419 H 517.058 -1.90093 2.65579 0
M  V30 5420 H 515.717 -0.0228349 3.66593 0
M  V30 5421 H 515.365 -2.37713 4.43285 0
M  V30 5422 H 515.065 -1.21473 5.74907 0
M  V30 5423 H 516.589 -2.14658 5.71624 0
M  V30 5424 H 518.003 0.124804 5.73164 0
M  V30 5425 H 516.4 0.889486 5.93471 0
M  V30 5426 H 517.47 1.43655 4.63132 0
M  V30 5427 N 518.813 -1.54241 0.323641 0
M  V30 5428 C 519.723 -2.28033 -0.551205 0
M  V30 5429 C 520.739 -1.32388 -1.12913 0
M  V30 5430 O 521.915 -1.65403 -1.14908 0
M  V30 5431 C 518.98 -3.02382 -1.69606 0
M  V30 5432 C 518.041 -4.13612 -1.14993 0
M  V30 5433 C 517.274 -4.84407 -2.24022 0
M  V30 5434 O 517.497 -4.54716 -3.44368 0
M  V30 5435 O 516.431 -5.71312 -1.89436 0
M  V30 5436 H 520.257 -3.03662 0.048066 0
M  V30 5437 H 517.842 -1.49133 0.0893289 0
M  V30 5438 H 519.724 -3.48941 -2.36259 0
M  V30 5439 H 518.399 -2.29628 -2.28151 0
M  V30 5440 H 517.306 -3.71402 -0.448484 0
M  V30 5441 H 518.639 -4.8841 -0.609608 0
M  V30 5442 N 520.291 -0.0518155 -1.57515 0
M  V30 5443 C 521.254 0.907547 -2.10467 0
M  V30 5444 C 522.254 1.23947 -1.02439 0
M  V30 5445 O 523.444 1.17604 -1.2851 0
M  V30 5446 C 520.576 2.21723 -2.58944 0
M  V30 5447 H 521.769 0.44851 -2.96527 0
M  V30 5448 H 519.322 0.196598 -1.55059 0
M  V30 5449 H 520.057 2.72206 -1.76279 0
M  V30 5450 H 519.842 1.98935 -3.37886 0
M  V30 5451 H 521.332 2.90441 -3.00056 0
M  V30 5452 N 521.769 1.56035 0.221574 0
M  V30 5453 C 523.015 1.79312 0.947372 0
M  V30 5454 C 523.348 0.621453 1.83988 0
M  V30 5455 O 522.623 -0.379287 1.90766 0
M  V30 5456 C 522.906 3.1267 1.78633 0
M  V30 5457 C 522.759 4.40284 0.920312 0
M  V30 5458 C 524.078 3.4247 2.7641 0
M  V30 5459 H 521.197 0.652328 0.342982 0
M  V30 5460 H 523.839 1.88765 0.216244 0
M  V30 5461 H 521.989 3.04741 2.40967 0
M  V30 5462 H 523.661 4.60232 0.313718 0
M  V30 5463 H 521.904 4.33212 0.225734 0
M  V30 5464 H 522.575 5.30033 1.54171 0
M  V30 5465 H 525.051 3.50526 2.24211 0
M  V30 5466 H 523.927 4.3695 3.32213 0
M  V30 5467 H 524.188 2.64635 3.54148 0
M  V30 5468 N 523.247 -0.488276 1.49845 0
M  V30 5469 C 524.157 -1.61451 1.70207 0
M  V30 5470 C 525.173 -1.63877 0.584846 0
M  V30 5471 O 526.349 -1.82063 0.861107 0
M  V30 5472 C 523.414 -2.9776 1.77594 0
M  V30 5473 C 522.475 -3.05861 3.01243 0
M  V30 5474 C 521.708 -4.35668 3.08268 0
M  V30 5475 O 521.931 -5.25197 2.22541 0
M  V30 5476 O 520.865 -4.49005 4.00847 0
M  V30 5477 H 524.691 -1.47199 2.65643 0
M  V30 5478 H 522.276 -0.665939 1.33737 0
M  V30 5479 H 524.158 -3.7875 1.84732 0
M  V30 5480 H 522.833 -3.12248 0.8534 0
M  V30 5481 H 521.74 -2.24012 2.99616 0
M  V30 5482 H 523.073 -2.96304 3.9302 0
M  V30 5483 N 524.725 -1.39134 -0.740242 0
M  V30 5484 C 525.953 -1.39334 -1.5295 0
M  V30 5485 C 526.368 0.0135008 -1.88795 0
M  V30 5486 O 525.725 0.983524 -1.5373 0
M  V30 5487 C 525.776 -2.2614 -2.82034 0
M  V30 5488 O 525.497 -3.61345 -2.47712 0
M  V30 5489 C 526.998 -2.34666 -3.76094 0
M  V30 5490 H 524.218 -0.476103 -0.472828 0
M  V30 5491 H 526.762 -1.82883 -0.9151 0
M  V30 5492 H 524.917 -1.86018 -3.39818 0
M  V30 5493 H 525.331 -4.07194 -3.30595 0
M  V30 5494 H 526.805 -2.99663 -4.63579 0
M  V30 5495 H 527.282 -1.36426 -4.17474 0
M  V30 5496 H 527.888 -2.75236 -3.2423 0
M  V30 5497 N 526.204 0.969867 -1.24223 0
M  V30 5498 C 527.134 2.08191 -1.05729 0
M  V30 5499 C 528.115 1.70075 0.0290765 0
M  V30 5500 O 529.3 1.93712 -0.137583 0
M  V30 5501 C 526.43 3.40991 -0.658995 0
M  V30 5502 C 525.384 3.93054 -1.69389 0
M  V30 5503 C 524.71 5.22171 -1.15072 0
M  V30 5504 C 526.01 4.21137 -3.08935 0
M  V30 5505 H 527.704 2.23921 -1.98746 0
M  V30 5506 H 525.25 1.07602 -0.956967 0
M  V30 5507 H 527.203 4.18221 -0.51662 0
M  V30 5508 H 525.927 3.25155 0.30686 0
M  V30 5509 H 524.586 3.17977 -1.82444 0
M  V30 5510 H 524.234 5.02694 -0.175539 0
M  V30 5511 H 523.934 5.57973 -1.84229 0
M  V30 5512 H 525.458 6.02013 -1.02042 0
M  V30 5513 H 526.872 4.8908 -2.99121 0
M  V30 5514 H 525.269 4.68163 -3.75425 0
M  V30 5515 H 526.339 3.27996 -3.57137 0
M  V30 5516 N 527.682 1.05563 1.17022 0
M  V30 5517 C 528.93 0.76642 1.87004 0
M  V30 5518 C 529.251 -0.708854 1.8166 0
M  V30 5519 O 528.521 -1.51242 1.2451 0
M  V30 5520 H 527.101 0.280516 0.692329 0
M  V30 5521 H 529.763 1.33557 1.41945 0
M  V30 5522 H 528.859 1.08472 2.92644 0
M  V30 5523 N 529.16 -1.33526 0.837174 0
M  V30 5524 C 530.385 -2.0258 0.444545 0
M  V30 5525 C 530.81 -1.6258 -0.946006 0
M  V30 5526 O 530.168 -0.817548 -1.6182 0
M  V30 5527 C 530.216 -3.5605 0.571006 0
M  V30 5528 O 529.32 -4.10422 -0.403431 0
M  V30 5529 H 528.661 -0.638866 0.180958 0
M  V30 5530 H 531.191 -1.70462 1.13154 0
M  V30 5531 H 531.201 -4.05488 0.452024 0
M  V30 5532 H 529.876 -3.84509 1.58512 0
M  V30 5533 H 528.453 -3.72113 -0.242147 0
M  V30 5534 N 530.638 -0.59345 -1.46 0
M  V30 5535 C 531.866 -0.0890934 -2.06708 0
M  V30 5536 C 532.281 1.2205 -1.44046 0
M  V30 5537 O 531.638 1.74029 -0.549551 0
M  V30 5538 C 531.689 0.0720263 -3.61428 0
M  V30 5539 O 531.41 -1.18574 -4.21748 0
M  V30 5540 C 532.911 0.609487 -4.3909 0
M  V30 5541 H 530.131 -0.0623628 -0.668096 0
M  V30 5542 H 532.675 -0.817171 -1.87464 0
M  V30 5543 H 530.83 0.750369 -3.80063 0
M  V30 5544 H 531.244 -1.0064 -5.14754 0
M  V30 5545 H 532.718 0.671363 -5.47902 0
M  V30 5546 H 533.195 1.62878 -4.07882 0
M  V30 5547 H 533.801 -0.03434 -4.25286 0
M  V30 5548 N 532.116 1.54067 -0.331816 0
M  V30 5549 C 533.341 2.05599 0.272705 0
M  V30 5550 C 533.766 1.2059 1.44359 0
M  V30 5551 O 533.124 0.216907 1.79998 0
M  V30 5552 C 533.172 3.54188 0.677021 0
M  V30 5553 O 532.276 3.72082 1.77844 0
M  V30 5554 H 531.617 0.662286 0.0476801 0
M  V30 5555 H 534.147 1.98826 -0.482624 0
M  V30 5556 H 534.157 3.96608 0.957415 0
M  V30 5557 H 532.832 4.15513 -0.179325 0
M  V30 5558 H 531.409 3.41566 1.49622 0
M  V30 5559 N 533.594 0.0601682 1.57485 0
M  V30 5560 C 534.822 -0.620937 1.97363 0
M  V30 5561 C 535.237 -1.63846 0.938082 0
M  V30 5562 O 534.594 -1.82339 -0.0766578 0
M  V30 5563 C 534.645 -1.29987 3.37321 0
M  V30 5564 O 534.366 -0.323081 4.36907 0
M  V30 5565 C 535.867 -2.06989 3.92008 0
M  V30 5566 H 533.087 -0.169135 0.649334 0
M  V30 5567 H 535.631 0.129132 2.04092 0
M  V30 5568 H 533.786 -2.0011 3.31715 0
M  V30 5569 H 534.2 -0.808754 5.18227 0
M  V30 5570 H 535.674 -2.49901 4.92192 0
M  V30 5571 H 536.151 -2.92173 3.2792 0
M  V30 5572 H 536.757 -1.41757 4.0098 0
M  V30 5573 N 535.072 -1.5615 -0.213296 0
M  V30 5574 C 536.321 -1.78743 -0.93455 0
M  V30 5575 C 536.634 -0.630199 -1.8517 0
M  V30 5576 O 537.84 -0.739966 -2.61222 0
M  V30 5577 C 536.296 -3.16571 -1.71203 0
M  V30 5578 C 535.904 -4.40043 -0.840617 0
M  V30 5579 C 537.648 -3.48485 -2.42401 0
M  V30 5580 C 535.555 -5.68895 -1.61592 0
M  V30 5581 H 534.485 -0.666426 -0.352692 0
M  V30 5582 H 537.136 -1.82532 -0.188227 0
M  V30 5583 H 535.518 -3.06981 -2.50157 0
M  V30 5584 H 536.692 -4.6071 -0.0910326 0
M  V30 5585 H 535.007 -4.15706 -0.240365 0
M  V30 5586 H 537.604 -4.41983 -3.00924 0
M  V30 5587 H 537.947 -2.71371 -3.15695 0
M  V30 5588 H 538.48 -3.59442 -1.7043 0
M  V30 5589 H 535.219 -6.48925 -0.926106 0
M  V30 5590 H 534.739 -5.52275 -2.33991 0
M  V30 5591 H 536.418 -6.09365 -2.17447 0
M  V30 5592 N 536.55 0.480323 -1.50102 0
M  V30 5593 C 537.79 1.24301 -1.62261 0
M  V30 5594 C 538.154 1.89452 -0.311758 0
M  V30 5595 O 539.355 2.67022 -0.308696 0
M  V30 5596 C 537.626 2.26588 -2.76392 0
M  V30 5597 S 539.185 3.11919 -3.08629 0
M  V30 5598 H 536.003 0.42215 -0.57211 0
M  V30 5599 H 538.605 0.541591 -1.87848 0
M  V30 5600 H 537.309 1.7729 -3.70131 0
M  V30 5601 H 536.84 3.01371 -2.52862 0
M  V30 5602 H 538.855 4.27598 -2.51742 0
M  V30 5603 N 538.028 1.39524 0.732853 0
M  V30 5604 C 539.253 1.40329 1.52717 0
M  V30 5605 C 539.678 0.000286574 1.881 0
M  V30 5606 O 539.036 -0.987262 1.52062 0
M  V30 5607 C 539.084 2.28464 2.78992 0
M  V30 5608 O 538.188 1.716 3.75003 0
M  V30 5609 H 537.529 0.47778 0.461109 0
M  V30 5610 H 540.059 1.83546 0.903996 0
M  V30 5611 H 540.069 2.43051 3.27705 0
M  V30 5612 H 538.744 3.30425 2.52572 0
M  V30 5613 H 537.321 1.66267 3.33781 0
M  V30 5614 N 539.506 -0.963266 1.24736 0
M  V30 5615 C 540.783 -1.68248 0.9976 0
M  V30 5616 C 541.163 -2.05599 -0.478776 0
M  V30 5617 O 540.511 -1.7626 -1.45412 0
M  V30 5618 C 540.721 -2.91118 1.92487 0
M  V30 5619 C 542.069 -3.63261 2.19833 0
M  V30 5620 O 543.093 -3.01184 1.90176 0
M  V30 5621 O 541.952 -4.75019 2.7022 0
M  V30 5622 H 539.046 -0.735744 0.377637 0
M  V30 5623 H 541.592 -1.01696 1.35853 0
M  V30 5624 H 540.364 -2.60242 2.92215 0
M  V30 5625 H 539.987 -3.65402 1.56738 0
M  V30 5626 N 540.985 -1.06182 -1.16461 0
M  V30 5627 C 541.932 -0.671613 -2.20812 0
M  V30 5628 C 542.902 0.331186 -1.62765 0
M  V30 5629 O 544.087 0.22033 -1.89524 0
M  V30 5630 C 541.227 -0.063029 -3.45042 0
M  V30 5631 C 540.34 -1.11587 -4.1734 0
M  V30 5632 C 539.475 -0.473546 -5.29085 0
M  V30 5633 C 538.514 -1.51 -5.93182 0
M  V30 5634 N 537.651 -0.891118 -6.96422 0
M  V30 5635 H 542.491 -1.56589 -2.53542 0
M  V30 5636 H 540.028 -0.782951 -1.24532 0
M  V30 5637 H 541.986 0.307344 -4.16066 0
M  V30 5638 H 540.616 0.794663 -3.12866 0
M  V30 5639 H 539.668 -1.60396 -3.44931 0
M  V30 5640 H 540.98 -1.90221 -4.61104 0
M  V30 5641 H 540.134 -0.0501432 -6.06679 0
M  V30 5642 H 538.873 0.344687 -4.8648 0
M  V30 5643 H 537.878 -1.94331 -5.14311 0
M  V30 5644 H 539.103 -2.33031 -6.37866 0
M  V30 5645 H 537.049 -0.0935753 -6.55933 0
M  V30 5646 H 536.966 -1.61486 -7.38551 0
M  V30 5647 H 538.234 -0.492822 -7.77941 0
M  V30 5648 N 542.463 1.3308 -0.844243 0
M  V30 5649 C 543.691 2.01808 -0.456203 0
M  V30 5650 C 544.106 1.63498 0.944131 0
M  V30 5651 O 543.463 0.85102 1.61443 0
M  V30 5652 C 543.514 3.56922 -0.573513 0
M  V30 5653 O 543.235 3.93851 -1.91868 0
M  V30 5654 C 544.736 4.42922 -0.183125 0
M  V30 5655 H 541.956 0.646273 -0.180477 0
M  V30 5656 H 544.5 1.69891 -1.1383 0
M  V30 5657 H 542.655 3.87352 0.0607367 0
M  V30 5658 H 543.069 4.88564 -1.90802 0
M  V30 5659 H 544.543 5.51093 -0.316241 0
M  V30 5660 H 545.02 4.30386 0.875477 0
M  V30 5661 H 545.626 4.1786 -0.792027 0
M  V30 5662 N 543.941 0.601185 1.45683 0
M  V30 5663 C 545.189 0.0936957 2.01883 0
M  V30 5664 C 545.51 -1.2779 1.47291 0
M  V30 5665 O 544.78 -1.84279 0.664691 0
M  V30 5666 H 543.36 0.0316466 0.746329 0
M  V30 5667 H 546.022 0.781137 1.78562 0
M  V30 5668 H 545.118 0.0386297 3.12076 0
M  V30 5669 N 545.419 -1.53889 0.339982 0
M  V30 5670 C 546.647 -2.05271 -0.259114 0
M  V30 5671 C 547.062 -1.21517 -1.44496 0
M  V30 5672 O 546.419 -0.24966 -1.80784 0
M  V30 5673 C 546.47 -3.55092 -0.677634 0
M  V30 5674 O 546.191 -4.35667 0.461051 0
M  V30 5675 C 547.692 -4.22631 -1.33782 0
M  V30 5676 H 544.912 -0.669085 -0.0506566 0
M  V30 5677 H 547.456 -1.9852 0.490935 0
M  V30 5678 H 545.611 -3.62077 -1.37763 0
M  V30 5679 H 546.025 -5.24343 0.128144 0
M  V30 5680 H 547.499 -5.28861 -1.58145 0
M  V30 5681 H 547.976 -3.74758 -2.29027 0
M  V30 5682 H 548.582 -4.19829 -0.679957 0
M  V30 5683 N 546.897 -0.0685191 -1.57451 0
M  V30 5684 C 547.827 0.89747 -2.15564 0
M  V30 5685 C 548.808 1.31266 -1.08181 0
M  V30 5686 O 549.993 1.38429 -1.36202 0
M  V30 5687 C 547.123 2.16623 -2.71463 0
M  V30 5688 C 546.077 1.89054 -3.83982 0
M  V30 5689 C 545.403 3.22532 -4.26471 0
M  V30 5690 C 546.703 1.1984 -5.08366 0
M  V30 5691 H 548.397 0.413373 -2.96533 0
M  V30 5692 H 545.943 0.197391 -1.42641 0
M  V30 5693 H 547.896 2.84614 -3.10761 0
M  V30 5694 H 546.62 2.67269 -1.8771 0
M  V30 5695 H 545.279 1.23469 -3.45183 0
M  V30 5696 H 544.927 3.71013 -3.39644 0
M  V30 5697 H 544.627 3.04879 -5.02317 0
M  V30 5698 H 546.151 3.91727 -4.68383 0
M  V30 5699 H 547.565 1.77896 -5.45001 0
M  V30 5700 H 545.962 1.12456 -5.89469 0
M  V30 5701 H 547.032 0.176996 -4.84577 0
M  V30 5702 N 548.375 1.56261 0.205012 0
M  V30 5703 C 549.603 1.84141 0.943386 0
M  V30 5704 C 550.018 0.649772 1.77266 0
M  V30 5705 O 549.375 -0.381612 1.78466 0
M  V30 5706 C 549.426 3.10719 1.84759 0
M  V30 5707 O 549.147 4.25286 1.05181 0
M  V30 5708 C 550.648 3.51706 2.69848 0
M  V30 5709 H 547.868 0.611734 0.275721 0
M  V30 5710 H 550.412 2.03364 0.215253 0
M  V30 5711 H 548.567 2.93422 2.52947 0
M  V30 5712 H 548.981 4.97301 1.66709 0
M  V30 5713 H 550.455 4.43266 3.28967 0
M  V30 5714 H 550.932 2.7423 3.43067 0
M  V30 5715 H 551.538 3.71499 2.07047 0
M  V30 5716 N 549.853 -0.472356 1.50355 0
M  V30 5717 C 550.785 -1.58795 1.65278 0
M  V30 5718 C 551.798 -1.53782 0.534313 0
M  V30 5719 O 552.987 -1.59193 0.807446 0
M  V30 5720 C 550.087 -2.97672 1.62001 0
M  V30 5721 C 549.26 -3.27568 2.89859 0
M  V30 5722 C 548.319 -4.45993 2.79242 0
M  V30 5723 O 547.345 -4.46364 3.53197 0
M  V30 5724 N 548.547 -5.47578 1.92713 0
M  V30 5725 H 551.312 -1.46411 2.61503 0
M  V30 5726 H 548.873 -0.660751 1.47803 0
M  V30 5727 H 550.865 -3.74862 1.52513 0
M  V30 5728 H 549.435 -3.03832 0.735159 0
M  V30 5729 H 548.655 -2.39003 3.13483 0
M  V30 5730 H 549.943 -3.44352 3.74565 0
M  V30 5731 H 549.341 -5.50099 1.31939 0
M  V30 5732 H 547.898 -6.23757 1.8913 0
M  V30 5733 N 551.331 -1.39911 -0.725443 0
M  V30 5734 C 552.279 -1.39552 -1.86086 0
M  V30 5735 C 553.273 -0.277334 -1.67114 0
M  V30 5736 O 554.479 -0.447865 -1.74339 0
M  V30 5737 H 550.854 -0.435993 -0.612711 0
M  V30 5738 H 552.825 -2.35305 -1.83505 0
M  V30 5739 C 551.574 -1.26529 -3.2386 0
M  V30 5740 H 550.897 -2.11845 -3.3906 0
M  V30 5741 H 552.337 -1.30336 -4.03471 0
M  V30 5742 C 550.796 0.0254168 -3.3689 0
M  V30 5743 O 551.326 0.992048 -3.89257 0
M  V30 5744 N 549.532 0.0916528 -2.90455 0
M  V30 5745 H 549.079 -0.695675 -2.48028 0
M  V30 5746 H 549.037 0.954745 -2.99553 0
M  V30 5747 N 552.809 0.956637 -1.25245 0
M  V30 5748 C 554.225 1.22733 -1.02023 0
M  V30 5749 C 554.425 1.99761 0.264186 0
M  V30 5750 O 553.481 2.32814 0.977436 0
M  V30 5751 C 554.794 2.00367 -2.24217 0
M  V30 5752 C 556.342 2.13418 -2.28958 0
M  V30 5753 C 556.817 2.9445 -3.50803 0
M  V30 5754 N 558.308 3.02029 -3.51187 0
M  V30 5755 C 559.043 3.65116 -4.42129 0
M  V30 5756 N 558.539 4.2983 -5.43339 0
M  V30 5757 N 560.332 3.62237 -4.29815 0
M  V30 5758 H 552.483 0.441282 -2.07765 0
M  V30 5759 H 554.746 0.257686 -0.912306 0
M  V30 5760 H 554.452 1.51165 -3.17556 0
M  V30 5761 H 554.326 3.01077 -2.27228 0
M  V30 5762 H 556.713 2.61819 -1.36143 0
M  V30 5763 H 556.794 1.1202 -2.29968 0
M  V30 5764 H 556.438 2.46741 -4.43939 0
M  V30 5765 H 556.368 3.9607 -3.47039 0
M  V30 5766 H 558.859 2.56007 -2.77973 0
M  V30 5767 H 559.172 4.75819 -6.08947 0
M  V30 5768 H 557.517 4.28465 -5.47214 0
M  V30 5769 H 560.708 3.10863 -3.49974 0
M  V30 5770 H 560.881 4.11117 -5.00886 0
M  V30 5771 N 554.287 1.06798 1.15896 0
M  V30 5772 C 555.22 0.627503 2.19403 0
M  V30 5773 C 556.198 -0.352352 1.58736 0
M  V30 5774 O 557.382 -0.260111 1.86697 0
M  V30 5775 C 554.509 -0.079356 3.38607 0
M  V30 5776 C 553.555 0.858057 4.17779 0
M  V30 5777 S 554.388 2.35605 4.80885 0
M  V30 5778 C 555.544 1.66083 6.03463 0
M  V30 5779 H 555.777 1.50441 2.56427 0
M  V30 5780 H 553.31 0.881427 1.26768 0
M  V30 5781 H 555.268 -0.48095 4.07673 0
M  V30 5782 H 553.929 -0.932524 2.99938 0
M  V30 5783 H 553.122 0.310108 5.03045 0
M  V30 5784 H 552.724 1.19977 3.54234 0
M  V30 5785 H 555.016 0.969337 6.7053 0
M  V30 5786 H 555.959 2.49159 6.62816 0
M  V30 5787 H 556.367 1.14122 5.52844 0
M  V30 5788 N 555.766 -1.3263 0.851289 0
M  V30 5789 C 556.994 -2.01563 0.466899 0
M  V30 5790 C 557.409 -1.63996 -0.935447 0
M  V30 5791 O 556.766 -0.85957 -1.6099 0
M  V30 5792 C 556.817 -3.56613 0.592433 0
M  V30 5793 O 556.538 -3.92828 1.93954 0
M  V30 5794 C 558.039 -4.42818 0.206612 0
M  V30 5795 H 555.259 -0.645307 0.183902 0
M  V30 5796 H 557.803 -1.69285 1.1473 0
M  V30 5797 H 555.958 -3.87379 -0.0401936 0
M  V30 5798 H 556.372 -4.87545 1.9339 0
M  V30 5799 H 557.846 -5.50918 0.345462 0
M  V30 5800 H 558.323 -4.30844 -0.85264 0
M  V30 5801 H 558.929 -4.17434 0.814176 0
M  V30 5802 N 557.244 -0.608902 -1.45362 0
M  V30 5803 C 558.49 -0.104762 -2.02529 0
M  V30 5804 C 558.823 1.26191 -1.47613 0
M  V30 5805 O 558.098 1.8327 -0.65134 0
M  V30 5806 C 558.381 -0.0672661 -3.60037 0
M  V30 5807 C 558.234 -1.4647 -4.25284 0
M  V30 5808 C 559.553 0.619877 -4.35713 0
M  V30 5809 H 556.672 -0.0395438 -0.735938 0
M  V30 5810 H 559.314 -0.781126 -1.73201 0
M  V30 5811 H 557.464 0.50871 -3.85155 0
M  V30 5812 H 559.136 -2.08785 -4.11347 0
M  V30 5813 H 557.379 -2.02502 -3.83634 0
M  V30 5814 H 558.05 -1.39069 -5.34195 0
M  V30 5815 H 560.526 0.130297 -4.15896 0
M  V30 5816 H 559.402 0.615224 -5.45441 0
M  V30 5817 H 559.663 1.68621 -4.0868 0
M  V30 5818 N 558.722 1.53707 -0.348139 0
M  V30 5819 C 559.685 2.23812 0.494058 0
M  V30 5820 C 560.685 1.23989 1.02388 0
M  V30 5821 O 561.875 1.48395 0.912396 0
M  V30 5822 C 559.007 2.96133 1.68872 0
M  V30 5823 H 560.2 2.99663 -0.119141 0
M  V30 5824 H 557.753 1.55983 -0.0995539 0
M  V30 5825 H 558.488 2.24481 2.34049 0
M  V30 5826 H 558.273 3.69357 1.31596 0
M  V30 5827 H 559.763 3.49475 2.28597 0
M  V30 5828 N 560.2 0.0768682 1.57412 0
M  V30 5829 C 561.15 -0.898795 2.09537 0
M  V30 5830 C 562.134 -1.25556 1.0062 0
M  V30 5831 O 563.326 -1.23369 1.26921 0
M  V30 5832 C 560.455 -2.16453 2.66464 0
M  V30 5833 C 559.541 -1.83401 3.82393 0
M  V30 5834 N 559.932 -1.20823 4.91157 0
M  V30 5835 C 558.23 -2.13121 3.91785 0
M  V30 5836 C 558.931 -1.05976 5.71965 0
M  V30 5837 N 557.907 -1.57113 5.204 0
M  V30 5838 H 561.709 -0.410718 2.91016 0
M  V30 5839 H 559.223 -0.126878 1.61904 0
M  V30 5840 H 561.22 -2.87274 3.02125 0
M  V30 5841 H 559.88 -2.65844 1.86433 0
M  V30 5842 H 560.891 -0.877249 5.10416 0
M  V30 5843 H 557.568 -2.64854 3.22736 0
M  V30 5844 H 558.958 -0.571809 6.69462 0
M  V30 5845 N 561.678 -1.56367 -0.196722 0
M  V30 5846 C 562.611 -1.89475 -1.2718 0
M  V30 5847 C 563.589 -0.754667 -1.44026 0
M  V30 5848 O 564.773 -1.00551 -1.59442 0
M  V30 5849 C 561.9 -2.12352 -2.63864 0
M  V30 5850 C 560.946 -3.35053 -2.63897 0
M  V30 5851 S 561.779 -4.90228 -2.15492 0
M  V30 5852 C 562.935 -5.16171 -3.54004 0
M  V30 5853 H 563.168 -2.80365 -0.989075 0
M  V30 5854 H 560.701 -1.49125 -0.40014 0
M  V30 5855 H 562.659 -2.26214 -3.42545 0
M  V30 5856 H 561.32 -1.22214 -2.89349 0
M  V30 5857 H 560.513 -3.48182 -3.64397 0
M  V30 5858 H 560.115 -3.20176 -1.93296 0
M  V30 5859 H 562.407 -5.06591 -4.49857 0
M  V30 5860 H 563.35 -6.17938 -3.45771 0
M  V30 5861 H 563.758 -4.43814 -3.48841 0
M  V30 5862 N 563.156 0.464375 -1.50603 0
M  V30 5863 C 564.402 1.21485 -1.63135 0
M  V30 5864 C 564.757 1.89538 -0.33063 0
M  V30 5865 O 564.05 1.79432 0.671903 0
M  V30 5866 C 564.244 2.278 -2.75394 0
M  V30 5867 C 564.073 1.70178 -4.16257 0
M  V30 5868 C 562.843 1.49854 -4.82568 0
M  V30 5869 C 565.041 1.19298 -5.00272 0
M  V30 5870 N 563.023 0.875458 -6.07626 0
M  V30 5871 C 564.394 0.693527 -6.16109 0
M  V30 5872 C 566.449 1.08216 -4.85998 0
M  V30 5873 C 565.152 0.0941808 -7.19238 0
M  V30 5874 C 567.178 0.496745 -5.8931 0
M  V30 5875 C 566.54 0.00770448 -7.044 0
M  V30 5876 H 562.639 0.433184 -0.651057 0
M  V30 5877 H 565.223 0.515748 -1.87745 0
M  V30 5878 H 563.394 2.95129 -2.52495 0
M  V30 5879 H 565.126 2.94814 -2.77249 0
M  V30 5880 H 561.881 1.75269 -4.39975 0
M  V30 5881 H 562.305 0.582135 -6.74493 0
M  V30 5882 H 566.947 1.44617 -3.97298 0
M  V30 5883 H 564.665 -0.28202 -8.07608 0
M  V30 5884 H 568.251 0.413275 -5.8033 0
M  V30 5885 H 567.131 -0.438188 -7.82975 0
M  V30 5886 N 564.634 1.40294 0.718013 0
M  V30 5887 C 565.881 1.3844 1.47786 0
M  V30 5888 C 566.209 -0.0140838 1.94495 0
M  V30 5889 O 565.464 -0.998165 1.68331 0
M  V30 5890 C 565.763 2.31814 2.72024 0
M  V30 5891 C 565.429 3.79117 2.44093 0
M  V30 5892 C 564.091 4.19249 2.36185 0
M  V30 5893 C 566.443 4.72212 2.20602 0
M  V30 5894 C 563.771 5.50516 2.02851 0
M  V30 5895 C 566.123 6.03775 1.88781 0
M  V30 5896 C 564.787 6.42953 1.79354 0
M  V30 5897 H 564.057 0.506588 0.540786 0
M  V30 5898 H 566.704 1.72929 0.822663 0
M  V30 5899 H 565.009 1.90501 3.42369 0
M  V30 5900 H 566.706 2.27664 3.30106 0
M  V30 5901 H 563.296 3.47318 2.51133 0
M  V30 5902 H 567.48 4.42026 2.25669 0
M  V30 5903 H 562.736 5.79776 1.94088 0
M  V30 5904 H 566.91 6.75428 1.69617 0
M  V30 5905 H 564.537 7.44584 1.53291 0
M  V30 5906 N 566.112 -0.949982 1.2575 0
M  V30 5907 C 567.389 -1.6718 1.01539 0
M  V30 5908 C 567.769 -2.06095 -0.456942 0
M  V30 5909 O 567.117 -1.77792 -1.43534 0
M  V30 5910 C 567.327 -2.8906 1.95564 0
M  V30 5911 C 568.675 -3.60909 2.23673 0
M  V30 5912 O 569.699 -2.9915 1.9336 0
M  V30 5913 O 568.558 -4.72127 2.75243 0
M  V30 5914 H 565.652 -0.731697 0.385419 0
M  V30 5915 H 568.198 -1.00249 1.36924 0
M  V30 5916 H 566.97 -2.57128 2.94959 0
M  V30 5917 H 566.593 -3.63719 1.60605 0
M  V30 5918 N 567.59 -1.07411 -1.15328 0
M  V30 5919 C 568.538 -0.689316 -2.22151 0
M  V30 5920 C 569.532 0.300156 -1.6672 0
M  V30 5921 O 570.738 0.163804 -1.79253 0
M  V30 5922 H 567.113 -0.204834 -0.723566 0
M  V30 5923 H 569.084 -1.59988 -2.51886 0
M  V30 5924 C 567.833 -0.103848 -3.47545 0
M  V30 5925 H 567.156 -0.856367 -3.90521 0
M  V30 5926 H 568.596 0.127725 -4.23808 0
M  V30 5927 C 567.055 1.15563 -3.1646 0
M  V30 5928 O 567.585 2.242 -3.33312 0
M  V30 5929 N 565.791 1.06203 -2.70498 0
M  V30 5930 H 565.338 0.177933 -2.56985 0
M  V30 5931 H 565.296 1.90553 -2.50074 0
M  V30 5932 N 569.068 1.32177 -0.85831 0
M  V30 5933 C 570 2.27688 -0.262835 0
M  V30 5934 C 571.013 1.52588 0.567513 0
M  V30 5935 O 572.202 1.74156 0.391407 0
M  V30 5936 C 569.302 3.32668 0.646937 0
M  V30 5937 C 568.475 4.37148 -0.148372 0
M  V30 5938 C 567.534 5.21686 0.687728 0
M  V30 5939 O 566.56 5.69074 0.119934 0
M  V30 5940 N 567.762 5.44892 2.00182 0
M  V30 5941 H 570.527 2.79426 -1.08356 0
M  V30 5942 H 568.088 1.45076 -0.718647 0
M  V30 5943 H 570.08 3.86134 1.2117 0
M  V30 5944 H 568.65 2.81061 1.36834 0
M  V30 5945 H 567.87 3.83915 -0.894572 0
M  V30 5946 H 569.158 5.04038 -0.694514 0
M  V30 5947 H 568.556 5.08128 2.4864 0
M  V30 5948 H 567.113 6.0134 2.51463 0
M  V30 5949 N 570.547 0.616602 1.45037 0
M  V30 5950 C 571.796 0.112861 2.01384 0
M  V30 5951 C 572.109 -1.26758 1.48969 0
M  V30 5952 O 573.315 -1.86454 1.9735 0
M  V30 5953 C 571.771 0.151057 3.59583 0
M  V30 5954 C 571.379 1.53191 4.20995 0
M  V30 5955 C 573.123 -0.296974 4.2346 0
M  V30 5956 C 571.03 1.526 5.71373 0
M  V30 5957 H 569.96 0.0384254 0.75302 0
M  V30 5958 H 572.611 0.773262 1.66412 0
M  V30 5959 H 570.993 -0.57617 3.91786 0
M  V30 5960 H 572.167 2.28156 4.00352 0
M  V30 5961 H 570.482 1.92279 3.69348 0
M  V30 5962 H 573.079 -0.320712 5.33737 0
M  V30 5963 H 573.422 -1.32145 3.9477 0
M  V30 5964 H 573.955 0.377279 3.96007 0
M  V30 5965 H 570.694 2.52837 6.04776 0
M  V30 5966 H 570.214 0.819064 5.94181 0
M  V30 5967 H 571.893 1.25357 6.3474 0
M  V30 5968 N 572.025 -1.5352 0.356285 0
M  V30 5969 C 572.975 -2.22204 -0.510815 0
M  V30 5970 C 573.959 -1.21393 -1.05605 0
M  V30 5971 O 575.151 -1.46883 -0.987639 0
M  V30 5972 C 572.28 -3.00786 -1.65478 0
M  V30 5973 C 571.366 -4.08965 -1.12287 0
M  V30 5974 N 571.757 -5.04829 -0.313191 0
M  V30 5975 C 570.055 -4.23505 -1.39856 0
M  V30 5976 C 570.756 -5.81695 -0.0230322 0
M  V30 5977 N 569.732 -5.40074 -0.618144 0
M  V30 5978 H 573.534 -2.93676 0.114711 0
M  V30 5979 H 571.048 -1.61572 0.163811 0
M  V30 5980 H 573.045 -3.48502 -2.28806 0
M  V30 5981 H 571.705 -2.30843 -2.28345 0
M  V30 5982 H 572.716 -5.17879 0.0468202 0
M  V30 5983 H 569.393 -3.64786 -2.0307 0
M  V30 5984 H 570.783 -6.68931 0.630927 0
M  V30 5985 N 573.503 -0.0852151 -1.57369 0
M  V30 5986 C 574.413 0.891712 -2.16992 0
M  V30 5987 C 575.429 1.3174 -1.13669 0
M  V30 5988 O 576.605 1.38735 -1.45995 0
M  V30 5989 C 573.67 2.13635 -2.73059 0
M  V30 5990 C 572.731 1.7658 -3.91303 0
M  V30 5991 C 571.964 2.95111 -4.44686 0
M  V30 5992 O 572.187 4.09539 -3.97032 0
M  V30 5993 O 571.121 2.74149 -5.35841 0
M  V30 5994 H 574.947 0.414477 -3.00858 0
M  V30 5995 H 572.532 0.138598 -1.48756 0
M  V30 5996 H 574.414 2.86595 -3.08935 0
M  V30 5997 H 573.089 2.6043 -1.92244 0
M  V30 5998 H 571.996 1.00831 -3.60255 0
M  V30 5999 H 573.329 1.34557 -4.7345 0
M  V30 6000 N 574.981 1.5647 0.188427 0
M  V30 6001 C 575.944 1.9421 1.21718 0
M  V30 6002 C 576.944 0.823901 1.38089 0
M  V30 6003 O 578.134 1.09122 1.35787 0
M  V30 6004 C 575.266 2.22197 2.58537 0
M  V30 6005 H 576.459 2.86252 0.894418 0
M  V30 6006 H 574.012 1.50263 0.430211 0
M  V30 6007 H 574.747 1.32814 2.95856 0
M  V30 6008 H 574.532 3.03688 2.48025 0
M  V30 6009 H 576.022 2.52376 3.3271 0
M  V30 6010 N 576.459 -0.456382 1.50847 0
M  V30 6011 C 577.736 -1.21739 1.53098 0
M  V30 6012 C 578.116 -2.09179 0.284132 0
M  V30 6013 O 577.464 -2.16466 -0.731773 0
M  V30 6014 C 577.674 -2.03573 2.83477 0
M  V30 6015 C 579.022 -2.61264 3.34703 0
M  V30 6016 O 580.046 -2.13802 2.84898 0
M  V30 6017 O 578.905 -3.47779 4.21559 0
M  V30 6018 H 575.999 -0.553219 0.614718 0
M  V30 6019 H 578.545 -0.467003 1.63148 0
M  V30 6020 H 577.317 -1.39232 3.65691 0
M  V30 6021 H 576.94 -2.85716 2.76499 0
M  V30 6022 N 577.937 -1.40673 -0.710563 0
M  V30 6023 C 579.165 -1.42547 -1.4996 0
M  V30 6024 C 579.58 -0.0265485 -1.88781 0
M  V30 6025 O 578.937 0.950694 -1.55782 0
M  V30 6026 C 578.988 -2.32071 -2.77173 0
M  V30 6027 O 578.709 -3.66518 -2.39992 0
M  V30 6028 C 580.21 -2.42591 -3.71032 0
M  V30 6029 H 577.43 -0.486025 -0.462623 0
M  V30 6030 H 579.974 -1.84783 -0.876102 0
M  V30 6031 H 578.129 -1.93184 -3.35795 0
M  V30 6032 H 578.543 -4.14115 -3.21884 0
M  V30 6033 H 580.017 -3.09429 -4.57119 0
M  V30 6034 H 580.494 -1.4525 -4.14486 0
M  V30 6035 H 581.1 -2.82051 -3.18319 0
M  V30 6036 N 579.415 0.9433 -1.26252 0
M  V30 6037 C 580.643 1.72367 -1.14443 0
M  V30 6038 C 581.058 1.86392 0.300572 0
M  V30 6039 O 580.415 1.36978 1.20596 0
M  V30 6040 C 580.466 3.13155 -1.806 0
M  V30 6041 O 580.187 2.99803 -3.19452 0
M  V30 6042 C 581.688 4.07417 -1.74717 0
M  V30 6043 H 578.908 0.539758 -0.398626 0
M  V30 6044 H 581.452 1.18268 -1.66832 0
M  V30 6045 H 579.607 3.64162 -1.32154 0
M  V30 6046 H 580.021 3.88697 -3.52158 0
M  V30 6047 H 581.495 5.03773 -2.25647 0
M  V30 6048 H 581.972 4.3337 -0.713244 0
M  V30 6049 H 582.578 3.6233 -2.22704 0
M  V30 6050 N 580.893 1.08022 1.14757 0
M  V30 6051 C 581.803 0.718292 2.23333 0
M  V30 6052 C 582.819 -0.273477 1.71837 0
M  V30 6053 O 583.995 -0.118406 2.01052 0
M  V30 6054 C 581.06 0.128855 3.4646 0
M  V30 6055 C 580.121 1.17473 4.12915 0
M  V30 6056 C 579.354 0.61333 5.30164 0
M  V30 6057 O 579.577 -0.568458 5.6756 0
M  V30 6058 O 578.511 1.3615 5.86299 0
M  V30 6059 H 582.337 1.62394 2.56636 0
M  V30 6060 H 579.922 0.853628 1.22611 0
M  V30 6061 H 581.804 -0.197249 4.20938 0
M  V30 6062 H 580.479 -0.750014 3.14891 0
M  V30 6063 H 579.386 1.5533 3.40328 0
M  V30 6064 H 580.719 2.02574 4.48581 0
M  V30 6065 N 582.371 -1.3172 0.865308 0
M  V30 6066 C 583.648 -1.91574 0.394789 0
M  V30 6067 C 584.028 -1.78769 -1.12271 0
M  V30 6068 O 583.376 -1.19245 -1.94918 0
M  V30 6069 C 583.586 -3.37957 0.870982 0
M  V30 6070 C 584.934 -4.15073 0.894384 0
M  V30 6071 O 585.958 -3.4672 0.816325 0
M  V30 6072 O 584.817 -5.37151 1.00651 0
M  V30 6073 H 581.911 -0.818649 0.117229 0
M  V30 6074 H 584.457 -1.4042 0.952913 0
M  V30 6075 H 583.229 -3.41269 1.91444 0
M  V30 6076 H 582.852 -3.96534 0.290907 0
M  V30 6077 N 583.85 -0.624285 -1.44708 0
M  V30 6078 C 584.782 0.12305 -2.28869 0
M  V30 6079 C 585.795 0.81557 -1.40898 0
M  V30 6080 O 586.984 0.678162 -1.65116 0
M  V30 6081 C 584.084 1.19612 -3.1709 0
M  V30 6082 C 583.257 0.587452 -4.33437 0
M  V30 6083 C 582.316 1.55358 -5.02743 0
M  V30 6084 O 581.341 1.07338 -5.58988 0
M  V30 6085 N 582.543 2.88798 -5.03563 0
M  V30 6086 H 585.308 -0.599193 -2.93649 0
M  V30 6087 H 582.87 -0.464954 -1.5508 0
M  V30 6088 H 584.861 1.84261 -3.60319 0
M  V30 6089 H 583.432 1.82067 -2.54107 0
M  V30 6090 H 582.652 -0.237509 -3.93484 0
M  V30 6091 H 583.94 0.161326 -5.08544 0
M  V30 6092 H 583.338 3.30399 -4.59188 0
M  V30 6093 H 581.894 3.48826 -5.50603 0
M  V30 6094 N 585.328 1.53329 -0.364422 0
M  V30 6095 C 586.553 2.06132 0.229033 0
M  V30 6096 C 586.978 1.23625 1.41769 0
M  V30 6097 O 586.336 0.255038 1.79497 0
M  V30 6098 C 586.384 3.55544 0.60174 0
M  V30 6099 O 585.488 3.75771 1.69912 0
M  V30 6100 H 584.829 0.663148 0.0336213 0
M  V30 6101 H 587.359 1.97758 -0.524689 0
M  V30 6102 H 587.369 3.98549 0.873073 0
M  V30 6103 H 586.044 4.15039 -0.267421 0
M  V30 6104 H 584.621 3.44663 1.42343 0
M  V30 6105 N 586.806 0.0935595 1.57322 0
M  V30 6106 C 588.054 -0.569383 1.93913 0
M  V30 6107 C 588.375 -1.68817 0.976009 0
M  V30 6108 O 587.645 -1.9588 0.0278099 0
M  V30 6109 H 586.225 -0.21332 0.715894 0
M  V30 6110 H 588.887 0.156531 1.9427 0
M  V30 6111 H 587.983 -0.980577 2.96296 0
M  V30 6112 N 588.284 -1.56567 -0.180126 0
M  V30 6113 C 589.512 -1.85618 -0.913972 0
M  V30 6114 C 589.927 -0.677892 -1.7621 0
M  V30 6115 O 589.284 0.353171 -1.7905 0
M  V30 6116 C 589.335 -3.13619 -1.79793 0
M  V30 6117 O 589.056 -4.26906 -0.98402 0
M  V30 6118 C 590.557 -3.55954 -2.64219 0
M  V30 6119 H 587.777 -0.616043 -0.265954 0
M  V30 6120 H 590.321 -2.03681 -0.182872 0
M  V30 6121 H 588.476 -2.97409 -2.48247 0
M  V30 6122 H 588.89 -4.9989 -1.58776 0
M  V30 6123 H 590.364 -4.48444 -3.21873 0
M  V30 6124 H 590.841 -2.79653 -3.38661 0
M  V30 6125 H 591.447 -3.74746 -2.01111 0
M  V30 6126 N 589.762 0.448376 -1.51087 0
M  V30 6127 C 590.987 1.22605 -1.6728 0
M  V30 6128 C 591.412 1.84524 -0.365045 0
M  V30 6129 O 590.77 1.6832 0.673642 0
M  V30 6130 C 590.818 2.29393 -2.78229 0
M  V30 6131 O 589.922 3.34608 -2.41063 0
M  V30 6132 H 589.263 0.359705 -0.558129 0
M  V30 6133 H 591.793 0.530903 -1.97592 0
M  V30 6134 H 591.803 2.74352 -3.01986 0
M  V30 6135 H 590.478 1.83701 -3.73131 0
M  V30 6136 H 589.055 2.95202 -2.27838 0
M  V30 6137 N 591.24 1.41047 0.703093 0
M  V30 6138 C 592.487 1.4 1.46309 0
M  V30 6139 C 592.815 0.00654574 1.94499 0
M  V30 6140 O 592.07 -0.980255 1.6938 0
M  V30 6141 C 592.369 2.34686 2.6955 0
M  V30 6142 C 592.035 3.81684 2.40058 0
M  V30 6143 C 590.697 4.21731 2.31725 0
M  V30 6144 C 593.049 4.74525 2.15581 0
M  V30 6145 C 590.377 5.52637 1.97001 0
M  V30 6146 C 592.729 6.05744 1.82366 0
M  V30 6147 C 591.393 6.44819 1.72524 0
M  V30 6148 H 590.663 0.512295 0.535382 0
M  V30 6149 H 593.31 1.73792 0.804275 0
M  V30 6150 H 591.615 1.94122 3.40329 0
M  V30 6151 H 593.312 2.31152 3.27673 0
M  V30 6152 H 589.902 3.49963 2.47435 0
M  V30 6153 H 594.086 4.44395 2.20968 0
M  V30 6154 H 589.342 5.81802 1.87928 0
M  V30 6155 H 593.516 6.77189 1.62444 0
M  V30 6156 H 591.143 7.46168 1.45385 0
M  V30 6157 N 592.718 -0.936591 1.26751 0
M  V30 6158 C 593.995 -1.66094 1.03306 0
M  V30 6159 C 594.375 -2.06568 -0.435058 0
M  V30 6160 O 593.723 -1.79305 -1.41641 0
M  V30 6161 C 593.933 -2.86969 1.98619 0
M  V30 6162 C 595.281 -3.58516 2.27489 0
M  V30 6163 O 596.305 -2.97082 1.96522 0
M  V30 6164 O 595.164 -4.69181 2.80235 0
M  V30 6165 H 592.258 -0.727568 0.393158 0
M  V30 6166 H 594.804 -0.987914 1.3798 0
M  V30 6167 H 593.576 -2.53985 2.9767 0
M  V30 6168 H 593.199 -3.61996 1.64454 0
M  V30 6169 N 594.196 -1.08629 -1.14182 0
M  V30 6170 C 595.143 -0.718299 -2.19338 0
M  V30 6171 C 596.113 0.296587 -1.63431 0
M  V30 6172 O 597.298 0.180079 -1.89948 0
M  V30 6173 C 594.438 -0.136203 -3.44831 0
M  V30 6174 C 593.551 -1.20414 -4.14879 0
M  V30 6175 C 592.686 -0.585666 -5.27962 0
M  V30 6176 C 591.725 -1.63548 -5.89846 0
M  V30 6177 N 590.862 -1.03864 -6.94375 0
M  V30 6178 H 595.702 -1.61932 -2.50164 0
M  V30 6179 H 593.239 -0.80919 -1.22844 0
M  V30 6180 H 595.197 0.219021 -4.16625 0
M  V30 6181 H 593.827 0.728121 -3.14481 0
M  V30 6182 H 592.879 -1.67676 -3.41451 0
M  V30 6183 H 594.191 -1.99959 -4.56966 0
M  V30 6184 H 593.345 -0.178818 -6.06436 0
M  V30 6185 H 592.084 0.24142 -4.87102 0
M  V30 6186 H 591.089 -2.05197 -5.10073 0
M  V30 6187 H 592.314 -2.46509 -6.3278 0
M  V30 6188 H 590.26 -0.232687 -6.55587 0
M  V30 6189 H 590.177 -1.77116 -7.3496 0
M  V30 6190 H 591.445 -0.657724 -7.7672 0
M  V30 6191 N 595.674 1.31259 -0.872281 0
M  V30 6192 C 596.899 2.0133 -0.498099 0
M  V30 6193 C 597.324 1.65031 0.902568 0
M  V30 6194 O 596.682 0.860164 1.59596 0
M  V30 6195 C 596.73 3.54411 -0.665205 0
M  V30 6196 O 595.834 4.11347 0.294473 0
M  V30 6197 H 595.175 0.633844 -0.197832 0
M  V30 6198 H 597.705 1.67402 -1.17633 0
M  V30 6199 H 597.715 4.04147 -0.559373 0
M  V30 6200 H 596.39 3.80171 -1.68651 0
M  V30 6201 H 594.967 3.72624 0.143403 0
M  V30 6202 N 597.152 0.631951 1.44375 0
M  V30 6203 C 598.377 0.142146 2.06912 0
M  V30 6204 C 598.802 -1.17456 1.4692 0
M  V30 6205 O 598.16 -1.72074 0.570975 0
M  V30 6206 C 598.208 0.0417952 3.60576 0
M  V30 6207 O 597.312 -1.00194 4.00044 0
M  V30 6208 H 596.653 0.0851491 0.658518 0
M  V30 6209 H 599.183 0.868863 1.85235 0
M  V30 6210 H 599.193 -0.148517 4.0773 0
M  V30 6211 H 597.868 1.0031 4.03622 0
M  V30 6212 H 596.445 -0.786131 3.64519 0
M  V30 6213 N 598.631 -1.53133 0.372548 0
M  V30 6214 C 599.581 -2.22733 -0.487218 0
M  V30 6215 C 600.565 -1.22506 -1.04312 0
M  V30 6216 O 601.757 -1.47923 -0.972005 0
M  V30 6217 C 598.886 -3.02524 -1.62278 0
M  V30 6218 C 597.972 -4.10133 -1.07943 0
M  V30 6219 N 598.363 -5.05133 -0.259629 0
M  V30 6220 C 596.661 -4.24964 -1.35356 0
M  V30 6221 C 597.362 -5.81687 0.0386656 0
M  V30 6222 N 596.338 -5.40699 -0.560827 0
M  V30 6223 H 600.14 -2.93538 0.145853 0
M  V30 6224 H 597.654 -1.61389 0.180938 0
M  V30 6225 H 599.651 -3.50909 -2.25096 0
M  V30 6226 H 598.311 -2.33252 -2.25884 0
M  V30 6227 H 599.322 -5.178 0.101746 0
M  V30 6228 H 595.999 -3.66919 -1.9919 0
M  V30 6229 H 597.389 -6.68224 0.701841 0
M  V30 6230 N 600.109 -0.101901 -1.5727 0
M  V30 6231 C 601.337 0.568392 -1.98939 0
M  V30 6232 C 601.752 1.61301 -0.981194 0
M  V30 6233 O 601.109 1.82478 0.0282869 0
M  V30 6234 C 601.16 1.20997 -3.40649 0
M  V30 6235 O 600.881 0.207129 -4.3761 0
M  V30 6236 C 602.382 1.96523 -3.97358 0
M  V30 6237 H 599.602 0.15186 -0.65359 0
M  V30 6238 H 602.146 -0.183198 -2.03678 0
M  V30 6239 H 600.301 1.91245 -3.36904 0
M  V30 6240 H 600.715 0.671071 -5.20189 0
M  V30 6241 H 602.189 2.36764 -4.98645 0
M  V30 6242 H 602.666 2.83376 -3.35552 0
M  V30 6243 H 603.272 1.31076 -4.04598 0
M  V30 6244 N 601.587 1.56661 0.17182 0
M  V30 6245 C 602.833 1.8313 0.88516 0
M  V30 6246 C 603.188 0.682376 1.79893 0
M  V30 6247 O 602.481 -0.321215 1.88888 0
M  V30 6248 C 602.675 3.13435 1.71736 0
M  V30 6249 C 602.504 4.40892 0.885659 0
M  V30 6250 C 601.274 5.02177 0.560939 0
M  V30 6251 C 603.472 5.13797 0.227454 0
M  V30 6252 N 601.454 6.13229 -0.286953 0
M  V30 6253 C 602.825 6.18127 -0.481625 0
M  V30 6254 C 604.88 4.97687 0.145567 0
M  V30 6255 C 603.583 7.08092 -1.26482 0
M  V30 6256 C 605.609 5.88096 -0.624298 0
M  V30 6257 C 604.971 6.91888 -1.32174 0
M  V30 6258 H 601.07 0.721107 0.302536 0
M  V30 6259 H 603.654 1.94104 0.152178 0
M  V30 6260 H 601.825 3.03653 2.42176 0
M  V30 6261 H 603.557 3.27903 2.37196 0
M  V30 6262 H 600.312 4.65145 0.890902 0
M  V30 6263 H 600.736 6.73359 -0.701193 0
M  V30 6264 H 605.378 4.17451 0.670426 0
M  V30 6265 H 603.096 7.87774 -1.80103 0
M  V30 6266 H 606.682 5.77702 -0.689321 0
M  V30 6267 H 605.562 7.60637 -1.90791 0
M  V30 6268 N 603.065 -0.440357 1.51323 0
M  V30 6269 C 604.311 -1.19181 1.64085 0
M  V30 6270 C 604.644 -1.90936 0.354575 0
M  V30 6271 O 603.919 -1.8347 -0.645675 0
M  V30 6272 C 604.202 -2.2112 2.84215 0
M  V30 6273 C 604.055 -1.53468 4.22809 0
M  V30 6274 C 605.374 -3.22133 2.99864 0
M  V30 6275 H 602.493 -0.431924 0.597169 0
M  V30 6276 H 605.135 -0.481443 1.83799 0
M  V30 6277 H 603.285 -2.81703 2.67537 0
M  V30 6278 H 604.957 -0.962455 4.51148 0
M  V30 6279 H 603.2 -0.837086 4.25647 0
M  V30 6280 H 603.871 -2.27694 5.02852 0
M  V30 6281 H 606.347 -2.71601 3.15233 0
M  V30 6282 H 605.223 -3.90756 3.85488 0
M  V30 6283 H 605.484 -3.88061 2.11804 0
M  V30 6284 N 604.543 -1.41418 -0.695603 0
M  V30 6285 C 605.506 -1.42988 -1.79129 0
M  V30 6286 C 606.506 -0.320514 -1.57573 0
M  V30 6287 O 607.696 -0.58039 -1.64247 0
M  V30 6288 C 604.828 -1.24122 -3.175 0
M  V30 6289 H 606.021 -2.40526 -1.7913 0
M  V30 6290 H 603.574 -1.2756 -0.903225 0
M  V30 6291 H 604.309 -0.274253 -3.23138 0
M  V30 6292 H 604.094 -2.045 -3.34547 0
M  V30 6293 H 605.584 -1.28056 -3.97481 0
M  V30 6294 N 606.021 0.929856 -1.27246 0
M  V30 6295 C 606.951 2.04722 -1.12299 0
M  V30 6296 C 607.932 1.70082 -0.0250464 0
M  V30 6297 O 609.117 1.93176 -0.199141 0
M  V30 6298 C 606.247 3.38721 -0.767145 0
M  V30 6299 C 605.201 3.87466 -1.81808 0
M  V30 6300 C 604.527 5.18246 -1.31626 0
M  V30 6301 C 605.827 4.11095 -3.22177 0
M  V30 6302 H 607.521 2.17485 -2.05769 0
M  V30 6303 H 605.067 1.04503 -0.990715 0
M  V30 6304 H 607.02 4.16366 -0.649413 0
M  V30 6305 H 605.744 3.25967 0.203259 0
M  V30 6306 H 604.403 3.12012 -1.92468 0
M  V30 6307 H 604.051 5.01881 -0.335378 0
M  V30 6308 H 603.751 5.51829 -2.01887 0
M  V30 6309 H 605.275 5.98462 -1.21143 0
M  V30 6310 H 606.689 4.79316 -3.1453 0
M  V30 6311 H 605.086 4.55982 -3.90129 0
M  V30 6312 H 606.156 3.16468 -3.67391 0
M  V30 6313 N 607.499 1.09233 1.13605 0
M  V30 6314 C 608.724 0.849067 1.89224 0
M  V30 6315 C 609.149 -0.593875 1.78479 0
M  V30 6316 O 608.507 -1.41703 1.13092 0
M  V30 6317 C 608.555 1.28642 3.36873 0
M  V30 6318 O 607.659 0.44363 4.10007 0
M  V30 6319 H 607 0.30767 0.588417 0
M  V30 6320 H 609.53 1.45595 1.43748 0
M  V30 6321 H 609.54 1.27096 3.87699 0
M  V30 6322 H 608.215 2.33729 3.44011 0
M  V30 6323 H 606.792 0.523241 3.69211 0
M  V30 6324 N 608.977 -1.30795 0.87923 0
M  V30 6325 C 609.927 -2.25838 0.313276 0
M  V30 6326 C 610.911 -1.51025 -0.55499 0
M  V30 6327 O 612.103 -1.72413 -0.400353 0
M  V30 6328 C 609.232 -3.39981 -0.476204 0
M  V30 6329 C 608.318 -4.22154 0.405826 0
M  V30 6330 N 608.709 -4.82934 1.50362 0
M  V30 6331 C 607.007 -4.45552 0.199909 0
M  V30 6332 C 607.708 -5.44444 2.0483 0
M  V30 6333 N 606.684 -5.26723 1.34403 0
M  V30 6334 H 610.486 -2.70374 1.15218 0
M  V30 6335 H 608 -1.45168 0.728003 0
M  V30 6336 H 609.997 -4.07108 -0.898251 0
M  V30 6337 H 608.657 -2.96986 -1.31261 0
M  V30 6338 H 609.668 -4.82319 1.8865 0
M  V30 6339 H 606.345 -4.13169 -0.599795 0
M  V30 6340 H 607.735 -6.02701 2.96986 0
M  V30 6341 N 610.455 -0.639598 -1.44038 0
M  V30 6342 C 611.704 -0.144885 -2.01179 0
M  V30 6343 C 612.017 1.24372 -1.50967 0
M  V30 6344 O 613.223 1.83291 -2.00292 0
M  V30 6345 C 611.679 -0.208244 -3.59297 0
M  V30 6346 C 611.287 -1.59869 -4.18504 0
M  V30 6347 C 613.031 0.229568 -4.23879 0
M  V30 6348 C 610.938 -1.61671 -5.68873 0
M  V30 6349 H 609.868 -0.0504005 -0.752314 0
M  V30 6350 H 612.519 -0.799639 -1.65161 0
M  V30 6351 H 610.901 0.513767 -3.92653 0
M  V30 6352 H 612.075 -2.34496 -3.96671 0
M  V30 6353 H 610.39 -1.98131 -3.66242 0
M  V30 6354 H 612.987 0.235758 -5.3418 0
M  V30 6355 H 613.33 1.25848 -3.96822 0
M  V30 6356 H 613.863 -0.440233 -3.95357 0
M  V30 6357 H 610.602 -2.62427 -6.00677 0
M  V30 6358 H 610.122 -0.913489 -5.92803 0
M  V30 6359 H 611.801 -1.35439 -6.32665 0
M  V30 6360 N 611.933 1.52934 -0.380664 0
M  V30 6361 C 612.896 2.24809 0.446473 0
M  V30 6362 C 613.896 1.26133 0.997347 0
M  V30 6363 O 615.086 1.50297 0.880714 0
M  V30 6364 C 612.218 2.99649 1.62553 0
M  V30 6365 H 613.411 2.99343 -0.182677 0
M  V30 6366 H 610.964 1.55736 -0.132618 0
M  V30 6367 H 611.699 2.29395 2.29235 0
M  V30 6368 H 611.484 3.72066 1.23732 0
M  V30 6369 H 612.974 3.54246 2.21133 0
M  V30 6370 N 613.412 0.11024 1.57214 0
M  V30 6371 C 614.66 -0.548783 1.94506 0
M  V30 6372 C 614.981 -1.67772 0.99386 0
M  V30 6373 O 614.251 -1.9584 0.0485841 0
M  V30 6374 H 612.831 -0.205715 0.718116 0
M  V30 6375 H 615.493 0.177127 1.94093 0
M  V30 6376 H 614.589 -0.949096 2.97319 0
M  V30 6377 N 614.89 -1.56749 -0.16351 0
M  V30 6378 C 615.82 -2.00042 -1.20438 0
M  V30 6379 C 616.801 -0.877256 -1.45733 0
M  V30 6380 O 617.986 -1.1439 -1.56935 0
M  V30 6381 C 615.116 -2.36697 -2.54149 0
M  V30 6382 C 614.07 -3.52046 -2.43408 0
M  V30 6383 C 613.396 -3.74466 -3.81679 0
M  V30 6384 C 614.696 -4.85247 -1.93216 0
M  V30 6385 H 616.39 -2.87244 -0.844477 0
M  V30 6386 H 613.936 -1.38194 -0.40478 0
M  V30 6387 H 615.889 -2.65582 -3.27176 0
M  V30 6388 H 614.613 -1.46414 -2.91943 0
M  V30 6389 H 613.272 -3.23301 -1.72834 0
M  V30 6390 H 612.92 -2.81461 -4.1688 0
M  V30 6391 H 612.62 -4.52084 -3.75359 0
M  V30 6392 H 614.144 -4.0576 -4.5628 0
M  V30 6393 H 615.558 -5.12957 -2.56023 0
M  V30 6394 H 613.955 -5.66556 -1.97825 0
M  V30 6395 H 615.025 -4.7672 -0.88689 0
M  V30 6396 N 616.368 0.432326 -1.51554 0
M  V30 6397 C 617.608 1.19076 -1.66133 0
M  V30 6398 C 617.972 1.88364 -0.371873 0
M  V30 6399 O 619.173 2.65904 -0.39349 0
M  V30 6400 C 617.444 2.1768 -2.83461 0
M  V30 6401 S 619.003 3.01943 -3.18396 0
M  V30 6402 H 615.821 0.403735 -0.585251 0
M  V30 6403 H 618.423 0.481554 -1.89476 0
M  V30 6404 H 617.127 1.65424 -3.75583 0
M  V30 6405 H 616.658 2.93174 -2.62322 0
M  V30 6406 H 618.673 4.19373 -2.65219 0
M  V30 6407 N 617.846 1.41785 0.688094 0
M  V30 6408 C 618.794 1.44436 1.82321 0
M  V30 6409 C 619.788 0.321544 1.6632 0
M  V30 6410 O 620.994 0.493931 1.73091 0
M  V30 6411 H 617.369 0.452084 0.600936 0
M  V30 6412 H 619.34 2.40087 1.77202 0
M  V30 6413 C 618.089 1.35071 3.20392 0
M  V30 6414 H 617.412 2.2076 3.33324 0
M  V30 6415 H 618.852 1.40988 3.99873 0
M  V30 6416 C 617.311 0.0639127 3.36839 0
M  V30 6417 O 617.841 -0.888495 3.91751 0
M  V30 6418 N 616.047 -0.0146114 2.90596 0
M  V30 6419 H 615.594 0.761191 2.46097 0
M  V30 6420 H 615.552 -0.874988 3.01979 0
M  V30 6421 N 619.324 -0.923095 1.27737 0
M  V30 6422 C 620.74 -1.19985 1.05241 0
M  V30 6423 C 620.94 -2.00391 -0.21113 0
M  V30 6424 O 619.996 -2.35324 -0.915366 0
M  V30 6425 C 621.309 -1.94352 2.29451 0
M  V30 6426 C 622.857 -2.07273 2.34536 0
M  V30 6427 C 623.332 -2.85046 3.58487 0
M  V30 6428 N 624.823 -2.92612 3.59072 0
M  V30 6429 C 625.558 -3.53266 4.51654 0
M  V30 6430 N 625.054 -4.15274 5.54545 0
M  V30 6431 N 626.847 -3.50714 4.39268 0
M  V30 6432 H 618.998 -0.386042 2.08862 0
M  V30 6433 H 621.261 -0.233407 0.918817 0
M  V30 6434 H 620.967 -1.42692 3.21453 0
M  V30 6435 H 620.841 -2.94947 2.3513 0
M  V30 6436 H 623.228 -2.58117 1.43037 0
M  V30 6437 H 623.309 -1.05884 2.32857 0
M  V30 6438 H 622.953 -2.34884 4.50324 0
M  V30 6439 H 622.883 -3.8673 3.57418 0
M  V30 6440 H 625.374 -2.48547 2.84663 0
M  V30 6441 H 625.687 -4.59507 6.21348 0
M  V30 6442 H 624.032 -4.13806 5.58382 0
M  V30 6443 H 627.223 -3.01475 3.58093 0
M  V30 6444 H 627.396 -3.97693 5.1161 0
M  V30 6445 N 620.802 -1.09834 -1.13024 0
M  V30 6446 C 621.765 -0.745058 -2.16752 0
M  V30 6447 C 622.765 0.227435 -1.59183 0
M  V30 6448 O 623.955 0.0050786 -1.74199 0
M  V30 6449 C 621.087 -0.102543 -3.40746 0
M  V30 6450 H 622.28 -1.66375 -2.49518 0
M  V30 6451 H 619.833 -0.898061 -1.27924 0
M  V30 6452 H 620.568 0.827177 -3.13573 0
M  V30 6453 H 620.353 -0.80235 -3.83803 0
M  V30 6454 H 621.843 0.129082 -4.174 0
M  V30 6455 N 622.28 1.30327 -0.886154 0
M  V30 6456 C 623.526 1.96388 -0.505941 0
M  V30 6457 C 623.859 1.69784 0.942712 0
M  V30 6458 O 623.134 1.00322 1.6663 0
M  V30 6459 C 623.417 3.51488 -0.782826 0
M  V30 6460 C 623.27 3.87603 -2.28219 0
M  V30 6461 C 624.589 4.39331 -0.260128 0
M  V30 6462 H 621.708 0.713327 -0.185292 0
M  V30 6463 H 624.35 1.54178 -1.11036 0
M  V30 6464 H 622.5 3.87572 -0.268399 0
M  V30 6465 H 624.172 3.61537 -2.86512 0
M  V30 6466 H 622.415 3.3563 -2.74837 0
M  V30 6467 H 623.086 4.95806 -2.42653 0
M  V30 6468 H 625.562 4.10162 -0.700444 0
M  V30 6469 H 624.438 5.46769 -0.483179 0
M  V30 6470 H 624.699 4.34072 0.838674 0
M  V30 6471 N 623.758 0.647228 1.43697 0
M  V30 6472 C 625.005 0.158188 2.01881 0
M  V30 6473 C 625.333 -1.22573 1.51017 0
M  V30 6474 O 624.588 -1.83086 0.69122 0
M  V30 6475 C 624.887 0.111481 3.57226 0
M  V30 6476 C 624.553 1.43633 4.27411 0
M  V30 6477 C 623.215 1.79915 4.463 0
M  V30 6478 C 625.567 2.31011 4.67208 0
M  V30 6479 C 622.895 3.03251 5.02251 0
M  V30 6480 C 625.247 3.53633 5.24525 0
M  V30 6481 C 623.911 3.90118 5.41631 0
M  V30 6482 H 623.181 0.0578851 0.738736 0
M  V30 6483 H 625.828 0.836746 1.72252 0
M  V30 6484 H 624.133 -0.650507 3.86362 0
M  V30 6485 H 625.83 -0.283682 3.99995 0
M  V30 6486 H 622.42 1.14403 4.1305 0
M  V30 6487 H 626.604 2.04272 4.52313 0
M  V30 6488 H 621.86 3.31575 5.13681 0
M  V30 6489 H 626.034 4.21561 5.5431 0
M  V30 6490 H 623.661 4.85768 5.84751 0
M  V30 6491 N 625.236 -1.5273 0.388769 0
M  V30 6492 C 626.183 -2.26437 -0.446639 0
M  V30 6493 C 627.153 -1.28025 -1.05824 0
M  V30 6494 O 628.338 -1.56852 -1.08637 0
M  V30 6495 C 625.478 -3.07407 -1.56828 0
M  V30 6496 C 624.591 -4.20747 -0.979589 0
M  V30 6497 C 623.726 -4.89113 -2.07224 0
M  V30 6498 C 622.765 -5.94447 -1.45942 0
M  V30 6499 N 621.902 -6.56411 -2.49135 0
M  V30 6500 H 626.742 -2.97404 0.18837 0
M  V30 6501 H 624.279 -1.46727 0.104725 0
M  V30 6502 H 626.237 -3.52642 -2.22934 0
M  V30 6503 H 624.867 -2.3865 -2.17361 0
M  V30 6504 H 623.919 -3.7983 -0.208151 0
M  V30 6505 H 625.231 -4.9637 -0.491747 0
M  V30 6506 H 624.385 -5.3765 -2.81101 0
M  V30 6507 H 623.124 -4.13013 -2.59368 0
M  V30 6508 H 622.129 -5.4525 -0.705894 0
M  V30 6509 H 623.354 -6.7248 -0.945932 0
M  V30 6510 H 621.3 -5.83152 -3.00449 0
M  V30 6511 H 621.217 -7.27645 -2.05105 0
M  V30 6512 H 622.485 -7.09592 -3.22644 0
M  V30 6513 N 626.714 -0.118576 -1.57153 0
M  V30 6514 C 627.962 0.538461 -1.94795 0
M  V30 6515 C 628.283 1.67243 -1.00274 0
M  V30 6516 O 627.553 1.95811 -0.0589692 0
M  V30 6517 H 626.133 0.201904 -0.719197 0
M  V30 6518 H 628.795 -0.187418 -1.93997 0
M  V30 6519 H 627.891 0.933315 -2.97818 0
M  V30 6520 N 628.193 1.56834 0.155195 0
M  V30 6521 C 629.441 1.82536 0.867462 0
M  V30 6522 C 629.762 0.698168 1.82073 0
M  V30 6523 O 629.032 -0.280807 1.93877 0
M  V30 6524 H 627.612 0.673401 0.323327 0
M  V30 6525 H 630.274 1.94313 0.151156 0
M  V30 6526 H 629.37 2.77171 1.43466 0
M  V30 6527 N 629.671 -0.424282 1.51781 0
M  V30 6528 C 630.603 -1.53457 1.70246 0
M  V30 6529 C 631.616 -1.52004 0.582967 0
M  V30 6530 O 632.805 -1.56544 0.857683 0
M  V30 6531 C 629.905 -2.92368 1.71389 0
M  V30 6532 C 629.078 -3.1818 3.00133 0
M  V30 6533 C 628.137 -4.36884 2.9329 0
M  V30 6534 O 627.163 -4.34901 3.67219 0
M  V30 6535 N 628.365 -5.4117 2.10036 0
M  V30 6536 H 631.13 -1.38017 2.66029 0
M  V30 6537 H 628.691 -0.613394 1.4983 0
M  V30 6538 H 630.683 -3.6982 1.64362 0
M  V30 6539 H 629.253 -3.0134 0.831449 0
M  V30 6540 H 628.473 -2.28908 3.20928 0
M  V30 6541 H 629.761 -3.32261 3.85331 0
M  V30 6542 H 629.159 -5.45623 1.49373 0
M  V30 6543 H 627.716 -6.17425 2.08878 0
M  V30 6544 N 631.149 -1.42148 -0.680565 0
M  V30 6545 C 632.426 -1.32795 -1.43614 0
M  V30 6546 C 632.806 0.037415 -2.11067 0
M  V30 6547 O 632.154 1.05258 -2.02813 0
M  V30 6548 C 632.364 -2.49206 -2.44331 0
M  V30 6549 C 633.712 -2.91059 -3.09144 0
M  V30 6550 O 634.736 -2.49054 -2.54657 0
M  V30 6551 O 633.595 -3.63741 -4.07866 0
M  V30 6552 H 630.689 -0.523397 -0.640301 0
M  V30 6553 H 633.235 -1.54144 -0.709775 0
M  V30 6554 H 632.007 -3.40252 -1.93247 0
M  V30 6555 H 631.63 -2.29813 -3.24456 0
M  V30 6556 N 632.627 0.916307 -1.28225 0
M  V30 6557 C 633.575 2.03977 -1.11786 0
M  V30 6558 C 634.569 1.69358 -0.0378265 0
M  V30 6559 O 635.775 1.78925 -0.196405 0
M  V30 6560 H 632.15 0.66829 -0.344809 0
M  V30 6561 H 634.121 2.14985 -2.06939 0
M  V30 6562 C 632.87 3.38518 -0.7938 0
M  V30 6563 H 632.193 3.65649 -1.61682 0
M  V30 6564 H 633.633 4.17864 -0.718719 0
M  V30 6565 C 632.092 3.33134 0.502353 0
M  V30 6566 O 632.622 3.71281 1.53341 0
M  V30 6567 N 630.828 2.86229 0.502147 0
M  V30 6568 H 630.375 2.55382 -0.337338 0
M  V30 6569 H 630.333 2.83009 1.36942 0
M  V30 6570 N 634.105 1.10431 1.1244 0
M  V30 6571 C 635.354 0.841539 1.83306 0
M  V30 6572 C 635.667 -0.634961 1.85007 0
M  V30 6573 O 636.873 -1.01363 2.51869 0
M  V30 6574 C 635.329 1.45565 3.29149 0
M  V30 6575 C 634.937 2.96544 3.35806 0
M  V30 6576 C 636.681 1.27227 4.04986 0
M  V30 6577 C 634.588 3.5099 4.75983 0
M  V30 6578 H 633.518 0.311156 0.686803 0
M  V30 6579 H 636.169 1.32829 1.26604 0
M  V30 6580 H 634.551 0.896574 3.85717 0
M  V30 6581 H 635.725 3.58766 2.89177 0
M  V30 6582 H 634.04 3.14036 2.73442 0
M  V30 6583 H 636.637 1.65348 5.08492 0
M  V30 6584 H 636.98 0.213834 4.1575 0
M  V30 6585 H 637.513 1.79941 3.54776 0
M  V30 6586 H 634.252 4.56499 4.70413 0
M  V30 6587 H 633.772 2.93535 5.23065 0
M  V30 6588 H 635.451 3.48808 5.44924 0
M  V30 6589 N 635.583 -1.29855 0.893053 0
M  V30 6590 C 636.994 -1.77946 0.564998 0
M  V30 6591 C 637.345 -1.73339 -0.919134 0
M  V30 6592 O 636.47 -1.3152 -1.71847 0
M  V30 6593 C 637.065 -3.23118 1.01883 0
M  V30 6594 C 635.624 -3.69013 0.742051 0
M  V30 6595 C 634.771 -2.50121 1.19727 0
M  V30 6596 H 637.722 -1.16611 1.07646 0
M  V30 6597 H 637.743 -3.78875 0.351249 0
M  V30 6598 H 637.255 -3.26439 2.09903 0
M  V30 6599 H 635.356 -3.71173 -0.325816 0
M  V30 6600 H 635.469 -4.60117 1.33527 0
M  V30 6601 H 633.833 -2.47128 0.616418 0
M  V30 6602 H 634.616 -2.56174 2.28538 0
M  V30 6603 N 637.061 -0.65484 -1.43351 0
M  V30 6604 C 638.307 -0.169142 -2.02093 0
M  V30 6605 C 638.64 1.21431 -1.51553 0
M  V30 6606 O 637.915 1.81105 -0.709317 0
M  V30 6607 C 638.198 -0.181775 -3.59641 0
M  V30 6608 C 638.051 -1.59926 -4.20409 0
M  V30 6609 C 639.37 0.480945 -4.37464 0
M  V30 6610 H 636.489 -0.0629371 -0.734308 0
M  V30 6611 H 639.131 -0.835833 -1.70628 0
M  V30 6612 H 637.281 0.385918 -3.86578 0
M  V30 6613 H 638.953 -2.21766 -4.04497 0
M  V30 6614 H 637.196 -2.14605 -3.76998 0
M  V30 6615 H 637.867 -1.55994 -5.295 0
M  V30 6616 H 640.343 -0.00208273 -4.161 0
M  V30 6617 H 639.219 0.441384 -5.47122 0
M  V30 6618 H 639.48 1.55533 -4.13838 0
M  V30 6619 N 638.539 1.52521 -0.396863 0
M  V30 6620 C 639.469 2.29582 0.425941 0
M  V30 6621 C 640.45 1.33281 1.05689 0
M  V30 6622 O 641.635 1.62181 1.06823 0
M  V30 6623 C 638.765 3.10821 1.54943 0
M  V30 6624 C 637.719 4.15069 1.04413 0
M  V30 6625 C 637.045 4.84578 2.26028 0
M  V30 6626 C 638.345 5.22191 0.106767 0
M  V30 6627 H 640.039 2.98612 -0.217045 0
M  V30 6628 H 637.585 1.43611 -0.105826 0
M  V30 6629 H 639.538 3.63492 2.13193 0
M  V30 6630 H 638.262 2.39538 2.22011 0
M  V30 6631 H 636.921 3.63389 0.484118 0
M  V30 6632 H 636.569 4.09835 2.91623 0
M  V30 6633 H 636.269 5.55043 1.92876 0
M  V30 6634 H 637.793 5.40056 2.84906 0
M  V30 6635 H 639.207 5.70176 0.597685 0
M  V30 6636 H 637.604 5.99947 -0.135352 0
M  V30 6637 H 638.674 4.77531 -0.842134 0
M  V30 6638 N 640.017 0.126909 1.57088 0
M  V30 6639 C 640.964 -0.82036 2.15728 0
M  V30 6640 C 641.934 -1.25811 1.08447 0
M  V30 6641 O 643.119 -1.33422 1.36393 0
M  V30 6642 C 640.259 -2.06199 2.76724 0
M  V30 6643 C 639.372 -1.67188 3.98337 0
M  V30 6644 C 638.507 -2.86378 4.47393 0
M  V30 6645 C 637.546 -2.43644 5.61519 0
M  V30 6646 N 636.683 -3.55775 6.05284 0
M  V30 6647 H 641.523 -0.313472 2.96347 0
M  V30 6648 H 639.06 -0.14303 1.46403 0
M  V30 6649 H 641.018 -2.78959 3.10222 0
M  V30 6650 H 639.648 -2.54333 1.98782 0
M  V30 6651 H 638.7 -0.842714 3.70948 0
M  V30 6652 H 640.012 -1.31789 4.81075 0
M  V30 6653 H 639.166 -3.67353 4.82842 0
M  V30 6654 H 637.905 -3.25009 3.63621 0
M  V30 6655 H 636.91 -1.61104 5.25667 0
M  V30 6656 H 638.135 -2.06122 6.47063 0
M  V30 6657 H 636.081 -3.94065 5.24451 0
M  V30 6658 H 635.998 -3.24325 6.82898 0
M  V30 6659 H 637.266 -4.37166 6.45373 0
M  V30 6660 N 641.495 -1.56914 -0.146875 0
M  V30 6661 C 642.911 -1.51582 -0.499518 0
M  V30 6662 C 643.111 -0.83535 -1.83369 0
M  V30 6663 O 642.167 -0.405932 -2.49216 0
M  V30 6664 C 643.48 -2.96349 -0.509711 0
M  V30 6665 C 645.028 -3.07288 -0.595217 0
M  V30 6666 C 645.503 -4.53562 -0.636071 0
M  V30 6667 N 646.994 -4.57906 -0.69829 0
M  V30 6668 C 647.729 -5.68462 -0.750886 0
M  V30 6669 N 647.225 -6.88588 -0.76282 0
M  V30 6670 N 649.018 -5.56496 -0.791777 0
M  V30 6671 H 641.169 -1.99547 0.727656 0
M  V30 6672 H 643.432 -0.910113 0.265327 0
M  V30 6673 H 643.138 -3.4939 0.402409 0
M  V30 6674 H 643.012 -3.52307 -1.34758 0
M  V30 6675 H 645.399 -2.54266 -1.49776 0
M  V30 6676 H 645.48 -2.54373 0.2698 0
M  V30 6677 H 645.124 -5.07222 0.262313 0
M  V30 6678 H 645.054 -5.04259 -1.51758 0
M  V30 6679 H 647.545 -3.71429 -0.696362 0
M  V30 6680 H 647.858 -7.68598 -0.804804 0
M  V30 6681 H 646.203 -6.91148 -0.730694 0
M  V30 6682 H 649.394 -4.61562 -0.779624 0
M  V30 6683 H 649.567 -6.42671 -0.829301 0
M  V30 6684 N 642.974 0.416227 -1.52004 0
M  V30 6685 C 644.251 1.17637 -1.56272 0
M  V30 6686 C 644.631 2.08352 -0.339493 0
M  V30 6687 O 643.979 2.1833 0.674124 0
M  V30 6688 C 644.189 1.95986 -2.88774 0
M  V30 6689 C 645.537 2.52299 -3.41512 0
M  V30 6690 O 646.561 2.06174 -2.90467 0
M  V30 6691 O 645.42 3.3648 -4.30631 0
M  V30 6692 H 642.514 0.536726 -0.629169 0
M  V30 6693 H 645.06 0.423583 -1.64329 0
M  V30 6694 H 643.832 1.29487 -3.69254 0
M  V30 6695 H 643.455 2.78285 -2.83978 0
M  V30 6696 N 644.452 1.42507 0.673017 0
M  V30 6697 C 645.698 1.43284 1.43519 0
M  V30 6698 C 646.031 0.049668 1.94136 0
M  V30 6699 O 645.306 -0.926369 1.71022 0
M  V30 6700 C 645.589 2.45874 2.63093 0
M  V30 6701 C 645.442 3.93388 2.18096 0
M  V30 6702 C 646.761 2.45431 3.6531 0
M  V30 6703 H 643.88 0.521752 0.520522 0
M  V30 6704 H 646.522 1.73932 0.764701 0
M  V30 6705 H 644.672 2.19869 3.20296 0
M  V30 6706 H 646.344 4.30379 1.66046 0
M  V30 6707 H 644.587 4.07169 1.49652 0
M  V30 6708 H 645.258 4.60752 3.03993 0
M  V30 6709 H 647.734 2.68561 3.17827 0
M  V30 6710 H 646.61 3.19189 4.46553 0
M  V30 6711 H 646.871 1.48092 4.16559 0
M  V30 6712 N 645.93 -0.909495 1.28709 0
M  V30 6713 C 646.893 -1.99399 1.13016 0
M  V30 6714 C 647.893 -1.60654 0.068536 0
M  V30 6715 O 649.083 -1.71334 0.314671 0
M  V30 6716 C 646.215 -3.33078 0.726085 0
M  V30 6717 H 647.408 -2.14751 2.09338 0
M  V30 6718 H 644.961 -1.09272 1.11756 0
M  V30 6719 H 645.696 -3.23428 -0.23771 0
M  V30 6720 H 645.481 -3.62562 1.49302 0
M  V30 6721 H 646.971 -4.12681 0.639058 0
M  V30 6722 N 647.408 -1.11026 -1.11852 0
M  V30 6723 C 648.656 -0.854769 -1.83134 0
M  V30 6724 C 648.977 0.621375 -1.84835 0
M  V30 6725 O 648.247 1.45129 -1.31584 0
M  V30 6726 H 646.827 -0.313229 -0.678157 0
M  V30 6727 H 649.489 -1.40178 -1.35411 0
M  V30 6728 H 648.585 -1.22311 -2.87135 0
M  V30 6729 N 648.886 1.2938 -0.899927 0
M  V30 6730 C 650.163 1.9046 -0.445443 0
M  V30 6731 C 650.543 1.81683 1.07492 0
M  V30 6732 O 649.891 1.24371 1.91688 0
M  V30 6733 C 650.101 3.35529 -0.960279 0
M  V30 6734 C 651.449 4.12556 -1.00412 0
M  V30 6735 O 652.473 3.44434 -0.907965 0
M  V30 6736 O 651.332 5.34294 -1.14857 0
M  V30 6737 H 648.426 0.815253 -0.138893 0
M  V30 6738 H 650.972 1.37844 -0.989808 0
M  V30 6739 H 649.744 3.36074 -2.00425 0
M  V30 6740 H 649.367 3.95624 -0.395939 0
M  V30 6741 N 650.364 0.662433 1.43002 0
M  V30 6742 C 651.327 -0.0142016 2.29196 0
M  V30 6743 C 652.327 -0.741394 1.42688 0
M  V30 6744 O 653.517 -0.581257 1.64216 0
M  V30 6745 C 650.649 -1.03084 3.24941 0
M  V30 6746 H 651.842 0.7443 2.90517 0
M  V30 6747 H 649.395 0.424133 1.50435 0
M  V30 6748 H 650.13 -1.81826 2.68533 0
M  V30 6749 H 649.915 -0.512946 3.8873 0
M  V30 6750 H 651.405 -1.50308 3.89612 0
M  V30 6751 N 651.842 -1.52309 0.404946 0
M  V30 6752 C 653.067 -2.06666 -0.1743 0
M  V30 6753 C 653.492 -1.27341 -1.38441 0
M  V30 6754 O 652.85 -0.302539 -1.78758 0
M  V30 6755 C 652.898 -3.57014 -0.507262 0
M  V30 6756 O 652.002 -3.80144 -1.59889 0
M  V30 6757 H 651.343 -0.663807 -0.0160273 0
M  V30 6758 H 653.873 -1.96297 0.576937 0
M  V30 6759 H 653.883 -4.00724 -0.767098 0
M  V30 6760 H 652.558 -4.14184 0.377368 0
M  V30 6761 H 651.135 -3.48316 -1.33155 0
M  V30 6762 N 653.32 -0.135238 -1.57019 0
M  V30 6763 C 654.23 0.822226 -2.19719 0
M  V30 6764 C 655.246 1.28057 -1.17802 0
M  V30 6765 O 656.422 1.3402 -1.50335 0
M  V30 6766 C 653.487 2.0484 -2.79717 0
M  V30 6767 C 652.548 1.64042 -3.96723 0
M  V30 6768 C 651.781 2.80814 -4.53849 0
M  V30 6769 O 652.004 3.967 -4.0986 0
M  V30 6770 O 650.938 2.56963 -5.44292 0
M  V30 6771 H 654.764 0.318552 -3.02025 0
M  V30 6772 H 652.349 0.0912021 -1.49121 0
M  V30 6773 H 654.231 2.76622 -3.17897 0
M  V30 6774 H 652.906 2.54182 -2.00432 0
M  V30 6775 H 651.813 0.893182 -3.63281 0
M  V30 6776 H 653.146 1.19426 -4.77492 0
M  V30 6777 N 654.798 1.5699 0.138552 0
M  V30 6778 C 656.023 1.88344 0.86841 0
M  V30 6779 C 656.448 0.725159 1.7356 0
M  V30 6780 O 655.806 -0.324992 1.78363 0
M  V30 6781 C 655.854 3.18334 1.69398 0
M  V30 6782 O 654.958 3.02863 2.79907 0
M  V30 6783 H 654.299 0.618577 0.241367 0
M  V30 6784 H 656.829 2.04207 0.126826 0
M  V30 6785 H 656.839 3.50567 2.08726 0
M  V30 6786 H 655.514 4.02238 1.05725 0
M  V30 6787 H 654.091 2.82056 2.43924 0
M  V30 6788 N 656.276 -0.40816 1.52223 0
M  V30 6789 C 657.239 -1.48 1.7501 0
M  V30 6790 C 658.239 -1.48367 0.619996 0
M  V30 6791 O 659.429 -1.49874 0.887881 0
M  V30 6792 C 656.561 -2.87403 1.83336 0
M  V30 6793 H 657.754 -1.29086 2.70697 0
M  V30 6794 H 655.307 -0.638715 1.42654 0
M  V30 6795 H 656.042 -3.11686 0.895677 0
M  V30 6796 H 655.827 -2.8854 2.65494 0
M  V30 6797 H 657.317 -3.65103 2.02705 0
M  V30 6798 N 657.755 -1.42862 -0.66545 0
M  V30 6799 C 658.685 -1.49867 -1.79059 0
M  V30 6800 C 659.666 -0.354394 -1.66367 0
M  V30 6801 O 660.851 -0.569969 -1.85647 0
M  V30 6802 C 657.981 -1.40943 -3.17415 0
M  V30 6803 C 656.935 -2.53495 -3.44854 0
M  V30 6804 C 656.261 -2.29626 -4.82883 0
M  V30 6805 C 657.561 -3.95781 -3.40815 0
M  V30 6806 H 659.255 -2.44037 -1.73453 0
M  V30 6807 H 656.801 -1.17456 -0.833071 0
M  V30 6808 H 658.754 -1.4445 -3.95869 0
M  V30 6809 H 657.478 -0.432716 -3.23721 0
M  V30 6810 H 656.137 -2.4932 -2.68766 0
M  V30 6811 H 655.785 -1.30226 -4.8585 0
M  V30 6812 H 655.485 -3.05065 -5.02204 0
M  V30 6813 H 657.009 -2.34897 -5.63609 0
M  V30 6814 H 658.423 -4.01508 -4.09224 0
M  V30 6815 H 656.82 -4.71148 -3.71672 0
M  V30 6816 H 657.89 -4.21786 -2.39216 0
M  V30 6817 N 659.233 0.902656 -1.29189 0
M  V30 6818 C 660.163 2.02294 -1.16616 0
M  V30 6819 C 661.144 1.6999 -0.0611175 0
M  V30 6820 O 662.329 1.9271 -0.240072 0
M  V30 6821 C 659.459 3.37018 -0.83882 0
M  V30 6822 C 658.413 3.83522 -1.89986 0
M  V30 6823 C 657.739 5.15337 -1.42589 0
M  V30 6824 C 659.039 4.04169 -3.30824 0
M  V30 6825 H 660.733 2.13071 -2.10336 0
M  V30 6826 H 658.279 1.02378 -1.01266 0
M  V30 6827 H 660.232 4.14895 -0.737584 0
M  V30 6828 H 658.956 3.26325 0.134071 0
M  V30 6829 H 657.615 3.07859 -1.99043 0
M  V30 6830 H 657.263 5.01056 -0.441759 0
M  V30 6831 H 656.963 5.47423 -2.13547 0
M  V30 6832 H 658.487 5.95758 -1.3381 0
M  V30 6833 H 659.901 4.72537 -3.24626 0
M  V30 6834 H 658.298 4.47604 -3.99713 0
M  V30 6835 H 659.368 3.08604 -3.74021 0
M  V30 6836 N 660.711 1.11618 1.11262 0
M  V30 6837 C 661.658 0.7762 2.17356 0
M  V30 6838 C 662.628 -0.253152 1.6416 0
M  V30 6839 O 663.813 -0.129655 1.90359 0
M  V30 6840 C 660.953 0.227581 3.44349 0
M  V30 6841 C 660.066 1.31372 4.1154 0
M  V30 6842 C 659.201 0.72544 5.26223 0
M  V30 6843 C 658.24 1.7913 5.85302 0
M  V30 6844 N 657.377 1.22237 6.91377 0
M  V30 6845 H 662.217 1.68508 2.45783 0
M  V30 6846 H 659.754 0.841475 1.20655 0
M  V30 6847 H 661.712 -0.108483 4.17059 0
M  V30 6848 H 660.342 -0.644486 3.16301 0
M  V30 6849 H 659.394 1.7667 3.36885 0
M  V30 6850 H 660.706 2.12005 4.51504 0
M  V30 6851 H 659.86 0.339541 6.05749 0
M  V30 6852 H 658.599 -0.112188 4.87571 0
M  V30 6853 H 657.604 2.18648 5.04453 0
M  V30 6854 H 658.829 2.63199 6.26022 0
M  V30 6855 H 656.775 0.406423 6.5474 0
M  V30 6856 H 656.692 1.9654 7.30006 0
M  V30 6857 H 657.96 0.863426 7.74703 0
M  V30 6858 N 662.189 -1.289 0.906776 0
M  V30 6859 C 663.429 -1.97046 0.543329 0
M  V30 6860 C 663.793 -1.69862 -0.895034 0
M  V30 6861 O 664.994 -2.31521 -1.36571 0
M  V30 6862 C 663.265 -3.47489 0.835833 0
M  V30 6863 S 664.824 -4.3498 0.577756 0
M  V30 6864 H 661.642 -0.681908 0.201302 0
M  V30 6865 H 664.244 -1.5657 1.17073 0
M  V30 6866 H 662.948 -3.64768 1.88075 0
M  V30 6867 H 662.479 -3.92907 0.196817 0
M  V30 6868 H 664.494 -4.92868 -0.574052 0
M  V30 6869 N 663.667 -0.670007 -1.42649 0
M  V30 6870 C 664.916 -0.187526 -2.00826 0
M  V30 6871 C 665.229 1.21142 -1.53571 0
M  V30 6872 O 666.435 1.79001 -2.04134 0
M  V30 6873 C 664.891 -0.284409 -3.58774 0
M  V30 6874 C 664.499 -1.6871 -4.15019 0
M  V30 6875 C 666.243 0.139605 -4.2427 0
M  V30 6876 C 664.15 -1.73701 -5.65316 0
M  V30 6877 H 663.08 -0.0663468 -0.751075 0
M  V30 6878 H 665.731 -0.834492 -1.63427 0
M  V30 6879 H 664.113 0.430364 -3.93655 0
M  V30 6880 H 665.287 -2.42857 -3.91608 0
M  V30 6881 H 663.602 -2.05855 -3.61957 0
M  V30 6882 H 666.199 0.122398 -5.3456 0
M  V30 6883 H 666.542 1.17403 -3.99402 0
M  V30 6884 H 667.075 -0.523995 -3.94334 0
M  V30 6885 H 663.814 -2.75109 -5.94975 0
M  V30 6886 H 663.334 -1.03903 -5.90732 0
M  V30 6887 H 665.013 -1.48829 -6.2965 0
M  V30 6888 N 665.145 1.52092 -0.413018 0
M  V30 6889 C 666.055 2.30858 0.417318 0
M  V30 6890 C 667.071 1.38746 1.05003 0
M  V30 6891 O 668.247 1.71821 1.05069 0
M  V30 6892 C 665.312 3.11756 1.51687 0
M  V30 6893 C 664.373 4.19613 0.906825 0
M  V30 6894 C 663.606 4.96644 1.95399 0
M  V30 6895 O 663.829 4.7402 3.17271 0
M  V30 6896 O 662.763 5.81385 1.55805 0
M  V30 6897 H 666.589 3.02865 -0.225028 0
M  V30 6898 H 664.174 1.48358 -0.176126 0
M  V30 6899 H 666.056 3.62122 2.15512 0
M  V30 6900 H 664.731 2.42539 2.14375 0
M  V30 6901 H 663.638 3.73385 0.231183 0
M  V30 6902 H 664.971 4.91134 0.323814 0
M  V30 6903 N 666.623 0.143563 1.56945 0
M  V30 6904 C 667.553 -0.7936 2.196 0
M  V30 6905 C 668.534 -1.25955 1.14321 0
M  V30 6906 O 669.719 -1.31773 1.42651 0
M  V30 6907 C 666.849 -2.03424 2.81489 0
M  V30 6908 C 665.803 -1.70519 3.92565 0
M  V30 6909 C 665.129 -3.01817 4.41373 0
M  V30 6910 C 666.429 -0.95449 5.13504 0
M  V30 6911 H 668.123 -0.271423 2.98167 0
M  V30 6912 H 665.669 -0.12911 1.4342 0
M  V30 6913 H 667.622 -2.69463 3.23987 0
M  V30 6914 H 666.346 -2.58008 2.00248 0
M  V30 6915 H 665.005 -1.06859 3.5068 0
M  V30 6916 H 664.653 -3.54386 3.56959 0
M  V30 6917 H 664.353 -2.80565 5.16292 0
M  V30 6918 H 665.877 -3.68934 4.86539 0
M  V30 6919 H 667.291 -1.5169 5.52868 0
M  V30 6920 H 665.688 -0.842035 5.94163 0
M  V30 6921 H 666.758 0.0544033 4.84869 0
M  V30 6922 N 668.101 -1.57061 -0.130224 0
M  V30 6923 C 669.326 -1.88802 -0.858409 0
M  V30 6924 C 669.751 -0.734353 -1.73173 0
M  V30 6925 O 669.109 0.315529 -1.78533 0
M  V30 6926 C 669.157 -3.19228 -1.67708 0
M  V30 6927 O 668.261 -3.04343 -2.78297 0
M  V30 6928 H 667.602 -0.619849 -0.238083 0
M  V30 6929 H 670.132 -2.04271 -0.115995 0
M  V30 6930 H 670.142 -3.51669 -2.06864 0
M  V30 6931 H 668.817 -4.02793 -1.0359 0
M  V30 6932 H 667.394 -2.83346 -2.42425 0
M  V30 6933 N 669.579 0.400081 -1.52437 0
M  V30 6934 C 670.804 1.17221 -1.71096 0
M  V30 6935 C 671.229 1.83269 -0.423565 0
M  V30 6936 O 670.587 1.70378 0.619751 0
M  V30 6937 C 670.635 2.20425 -2.85386 0
M  V30 6938 O 669.739 3.26769 -2.51586 0
M  V30 6939 H 669.08 0.341766 -0.569291 0
M  V30 6940 H 671.61 0.467772 -1.99181 0
M  V30 6941 H 671.62 2.64605 -3.10561 0
M  V30 6942 H 670.295 1.71737 -3.78786 0
M  V30 6943 H 668.872 2.87804 -2.37114 0
M  V30 6944 N 671.057 1.43213 0.657864 0
M  V30 6945 C 672.305 1.44298 1.41501 0
M  V30 6946 C 672.626 0.0666478 1.94886 0
M  V30 6947 O 671.896 -0.897345 1.74139 0
M  V30 6948 H 670.476 0.531257 0.525143 0
M  V30 6949 H 673.138 1.78777 0.776195 0
M  V30 6950 H 672.234 2.1528 2.25966 0
M  V30 6951 N 672.536 -0.895792 1.29666 0
M  V30 6952 C 673.761 -1.68528 1.20885 0
M  V30 6953 C 674.186 -1.8673 -0.226595 0
M  V30 6954 O 673.544 -1.39044 -1.16347 0
M  V30 6955 C 673.592 -3.04512 1.93144 0
M  V30 6956 O 672.696 -3.92963 1.25115 0
M  V30 6957 H 672.037 -0.515371 0.418675 0
M  V30 6958 H 674.567 -1.11878 1.71302 0
M  V30 6959 H 674.577 -3.54628 2.0175 0
M  V30 6960 H 673.252 -2.90582 2.97548 0
M  V30 6961 H 671.829 -3.51399 1.24794 0
M  V30 6962 N 674.014 -1.12206 -1.10668 0
M  V30 6963 C 675.26 -0.877172 -1.82848 0
M  V30 6964 C 675.593 0.595571 -1.84842 0
M  V30 6965 O 674.868 1.44013 -1.30731 0
M  V30 6966 C 675.151 -1.44957 -3.29635 0
M  V30 6967 C 675.004 -2.99051 -3.35989 0
M  V30 6968 C 676.323 -1.10714 -4.25946 0
M  V30 6969 H 673.442 -0.320103 -0.663854 0
M  V30 6970 H 676.084 -1.38827 -1.2972 0
M  V30 6971 H 674.234 -1.01488 -3.7501 0
M  V30 6972 H 675.906 -3.51182 -2.99113 0
M  V30 6973 H 674.149 -3.34705 -2.75962 0
M  V30 6974 H 674.82 -3.34194 -4.39339 0
M  V30 6975 H 677.296 -1.48254 -3.88793 0
M  V30 6976 H 676.172 -1.5343 -5.2702 0
M  V30 6977 H 676.433 -0.019 -4.42096 0
M  V30 6978 N 675.492 1.28418 -0.913599 0
M  V30 6979 C 676.439 2.27301 -0.400373 0
M  V30 6980 C 677.409 1.57582 0.52509 0
M  V30 6981 O 678.594 1.85482 0.447318 0
M  V30 6982 C 675.734 3.43284 0.35361 0
M  V30 6983 C 674.847 4.27752 -0.604341 0
M  V30 6984 C 673.982 5.30934 0.168075 0
M  V30 6985 C 673.021 6.07065 -0.783499 0
M  V30 6986 N 672.158 7.02086 -0.0446112 0
M  V30 6987 H 676.998 2.70579 -1.24865 0
M  V30 6988 H 674.535 1.33067 -0.627028 0
M  V30 6989 H 676.493 4.09322 0.806945 0
M  V30 6990 H 675.123 3.00997 1.16623 0
M  V30 6991 H 674.175 3.61759 -1.17621 0
M  V30 6992 H 675.487 4.80682 -1.33216 0
M  V30 6993 H 674.641 6.02855 0.681979 0
M  V30 6994 H 673.38 4.78771 0.928947 0
M  V30 6995 H 672.385 5.33995 -1.30878 0
M  V30 6996 H 673.61 6.61317 -1.54392 0
M  V30 6997 H 671.556 6.52273 0.698272 0
M  V30 6998 H 671.473 7.52637 -0.712258 0
M  V30 6999 H 672.741 7.78205 0.449102 0
M  V30 7000 N 676.97 0.677563 1.42291 0
M  V30 7001 C 677.9 0.014968 2.33495 0
M  V30 7002 C 678.881 -0.786376 1.50831 0
M  V30 7003 O 680.066 -0.742975 1.79426 0
M  V30 7004 C 677.196 -0.935023 3.34477 0
M  V30 7005 C 676.15 -0.242074 4.27315 0
M  V30 7006 C 675.476 -1.30519 5.18526 0
M  V30 7007 C 676.776 0.880604 5.14823 0
M  V30 7008 H 678.47 0.776671 2.89151 0
M  V30 7009 H 676.016 0.37494 1.39033 0
M  V30 7010 H 677.969 -1.40766 3.97194 0
M  V30 7011 H 676.693 -1.72818 2.77131 0
M  V30 7012 H 675.352 0.210351 3.65996 0
M  V30 7013 H 675 -2.09041 4.57505 0
M  V30 7014 H 674.7 -0.846652 5.81468 0
M  V30 7015 H 676.224 -1.7787 5.84119 0
M  V30 7016 H 677.638 0.489062 5.7121 0
M  V30 7017 H 676.035 1.26511 5.86613 0
M  V30 7018 H 677.105 1.72818 4.53059 0
M  V30 7019 N 678.448 -1.51871 0.421078 0
M  V30 7020 C 679.381 -2.23851 -0.443369 0
M  V30 7021 C 680.359 -1.25142 -1.03818 0
M  V30 7022 O 681.543 -1.5423 -1.08377 0
M  V30 7023 C 678.67 -2.97637 -1.61648 0
M  V30 7024 C 677.716 -4.10873 -1.14391 0
M  V30 7025 S 678.549 -5.35408 -0.0992403 0
M  V30 7026 C 679.705 -6.12726 -1.27739 0
M  V30 7027 H 679.938 -2.96826 0.167786 0
M  V30 7028 H 677.471 -1.53027 0.205461 0
M  V30 7029 H 679.429 -3.40751 -2.28909 0
M  V30 7030 H 678.09 -2.24282 -2.199 0
M  V30 7031 H 677.283 -4.61718 -2.02069 0
M  V30 7032 H 676.885 -3.69937 -0.549775 0
M  V30 7033 H 679.177 -6.40827 -2.19881 0
M  V30 7034 H 680.12 -7.03461 -0.809239 0
M  V30 7035 H 680.528 -5.43968 -1.5086 0
M  V30 7036 N 679.926 -0.151884 -1.56866 0
M  V30 7037 C 681.342 0.204486 -1.58285 0
M  V30 7038 C 681.542 1.6431 -1.16639 0
M  V30 7039 O 680.598 2.37077 -0.868946 0
M  V30 7040 C 681.911 -0.0587019 -3.00643 0
M  V30 7041 C 683.459 0.00462303 -3.13 0
M  V30 7042 C 683.934 -0.231297 -4.57416 0
M  V30 7043 N 685.425 -0.178394 -4.62856 0
M  V30 7044 C 686.16 -0.335379 -5.72418 0
M  V30 7045 N 685.656 -0.550355 -6.90611 0
M  V30 7046 N 687.449 -0.272641 -5.61438 0
M  V30 7047 H 679.6 -1.09116 -1.82229 0
M  V30 7048 H 681.863 -0.432311 -0.843689 0
M  V30 7049 H 681.569 -1.05453 -3.35518 0
M  V30 7050 H 681.443 0.658508 -3.71407 0
M  V30 7051 H 683.83 0.991009 -2.77962 0
M  V30 7052 H 683.911 -0.744992 -2.44711 0
M  V30 7053 H 683.555 -1.2148 -4.93158 0
M  V30 7054 H 683.485 0.5387 -5.23837 0
M  V30 7055 H 685.976 -0.0170923 -3.77896 0
M  V30 7056 H 686.289 -0.660116 -7.69976 0
M  V30 7057 H 684.634 -0.586736 -6.92519 0
M  V30 7058 H 687.825 -0.105421 -4.67981 0
M  V30 7059 H 687.998 -0.398418 -6.46774 0
M  V30 7060 N 681.404 1.57128 0.121893 0
M  V30 7061 C 682.314 2.03425 1.16857 0
M  V30 7062 C 683.33 0.954108 1.45509 0
M  V30 7063 O 684.506 1.26541 1.56682 0
M  V30 7064 C 681.571 2.42685 2.47599 0
M  V30 7065 C 680.632 3.64767 2.2637 0
M  V30 7066 C 679.865 4.02145 3.50878 0
M  V30 7067 O 680.088 3.39897 4.58068 0
M  V30 7068 O 679.022 4.95262 3.42051 0
M  V30 7069 H 682.848 2.92825 0.80544 0
M  V30 7070 H 680.433 1.45654 0.332477 0
M  V30 7071 H 682.315 2.68684 3.24634 0
M  V30 7072 H 680.99 1.56432 2.83392 0
M  V30 7073 H 679.897 3.43922 1.47203 0
M  V30 7074 H 681.23 4.51716 1.95482 0
M  V30 7075 N 682.882 -0.391992 1.52647 0
M  V30 7076 C 684.298 -0.731848 1.41831 0
M  V30 7077 C 684.498 -1.9423 0.536361 0
M  V30 7078 O 683.554 -2.52499 0.00866571 0
M  V30 7079 C 684.867 -0.969743 2.84634 0
M  V30 7080 C 686.415 -1.0714 2.94092 0
M  V30 7081 C 686.89 -1.34195 4.37899 0
M  V30 7082 N 688.381 -1.41023 4.41211 0
M  V30 7083 C 689.116 -1.63616 5.49561 0
M  V30 7084 N 688.612 -1.83699 6.68002 0
M  V30 7085 N 690.405 -1.65771 5.371 0
M  V30 7086 H 682.556 0.404547 2.08512 0
M  V30 7087 H 684.819 0.11879 0.940528 0
M  V30 7088 H 684.525 -0.152465 3.51369 0
M  V30 7089 H 684.399 -1.88523 3.26709 0
M  V30 7090 H 686.786 -1.87925 2.27526 0
M  V30 7091 H 686.867 -0.133887 2.55449 0
M  V30 7092 H 686.511 -0.539207 5.0503 0
M  V30 7093 H 686.441 -2.29226 4.74092 0
M  V30 7094 H 688.932 -1.27223 3.55841 0
M  V30 7095 H 689.245 -2.00437 7.46354 0
M  V30 7096 H 687.59 -1.8093 6.71036 0
M  V30 7097 H 690.781 -1.4963 4.43541 0
M  V30 7098 H 690.954 -1.83038 6.21612 0
M  V30 7099 N 684.36 -1.4356 -0.65026 0
M  V30 7100 C 685.308 -1.49219 -1.78427 0
M  V30 7101 C 686.302 -0.365528 -1.65409 0
M  V30 7102 O 687.508 -0.539649 -1.7172 0
M  V30 7103 H 683.883 -0.467858 -0.588738 0
M  V30 7104 H 685.854 -2.44701 -1.70774 0
M  V30 7105 C 684.603 -1.43519 -3.16698 0
M  V30 7106 H 683.926 -2.2952 -3.27354 0
M  V30 7107 H 685.366 -1.5154 -3.95995 0
M  V30 7108 C 683.825 -0.153197 -3.36552 0
M  V30 7109 O 684.355 0.784317 -3.93969 0
M  V30 7110 N 682.561 -0.0624402 -2.90533 0
M  V30 7111 H 682.108 -0.826172 -2.43992 0
M  V30 7112 H 682.066 0.794616 -3.04193 0
M  V30 7113 N 685.838 0.888903 -1.30139 0
M  V30 7114 C 686.785 1.99422 -1.16188 0
M  V30 7115 C 687.755 1.66017 -0.0523869 0
M  V30 7116 O 688.94 1.89506 -0.221864 0
M  V30 7117 C 686.08 3.34325 -0.855612 0
M  V30 7118 C 685.193 3.80445 -2.0466 0
M  V30 7119 C 684.328 5.03975 -1.67876 0
M  V30 7120 C 683.367 5.42492 -2.83493 0
M  V30 7121 N 682.504 6.57206 -2.47032 0
M  V30 7122 H 687.344 2.10687 -2.10749 0
M  V30 7123 H 684.881 1.03165 -1.04859 0
M  V30 7124 H 686.839 4.11968 -0.658681 0
M  V30 7125 H 685.469 3.22756 0.0531155 0
M  V30 7126 H 684.521 2.98745 -2.3549 0
M  V30 7127 H 685.833 4.04933 -2.91257 0
M  V30 7128 H 684.987 5.89232 -1.44535 0
M  V30 7129 H 683.726 4.8135 -0.784431 0
M  V30 7130 H 682.731 4.55764 -3.07505 0
M  V30 7131 H 683.956 5.67093 -3.73607 0
M  V30 7132 H 681.902 6.36164 -1.601 0
M  V30 7133 H 681.819 6.81543 -3.27161 0
M  V30 7134 H 683.087 7.45704 -2.27038 0
M  V30 7135 N 687.317 1.12792 1.10072 0
M  V30 7136 C 688.264 0.79921 2.16521 0
M  V30 7137 C 689.234 -0.235726 1.64419 0
M  V30 7138 O 690.419 -0.109457 1.90486 0
M  V30 7139 C 687.559 0.264091 3.44088 0
M  V30 7140 C 686.672 1.35729 4.10124 0
M  V30 7141 C 685.807 0.781212 5.25424 0
M  V30 7142 C 684.846 1.85327 5.8337 0
M  V30 7143 N 683.983 1.29564 6.90042 0
M  V30 7144 H 688.823 1.71105 2.43981 0
M  V30 7145 H 686.36 0.854225 1.19756 0
M  V30 7146 H 688.318 -0.0642423 4.17151 0
M  V30 7147 H 686.948 -0.610901 3.16967 0
M  V30 7148 H 686 1.80234 3.34993 0
M  V30 7149 H 687.312 2.16782 4.4923 0
M  V30 7150 H 686.466 0.403769 6.05355 0
M  V30 7151 H 685.205 -0.0604686 4.87663 0
M  V30 7152 H 684.21 2.23986 5.02106 0
M  V30 7153 H 685.435 2.69824 6.23195 0
M  V30 7154 H 683.381 0.475844 6.54272 0
M  V30 7155 H 683.298 2.04271 7.2788 0
M  V30 7156 H 684.566 0.945545 7.73744 0
M  V30 7157 N 688.795 -1.27931 0.920396 0
M  V30 7158 C 690.041 -1.94977 0.557832 0
M  V30 7159 C 690.374 -1.72224 -0.897365 0
M  V30 7160 O 689.649 -1.04705 -1.63912 0
M  V30 7161 C 689.932 -3.49289 0.875741 0
M  V30 7162 C 689.785 -3.81416 2.38416 0
M  V30 7163 C 691.104 -4.38486 0.376517 0
M  V30 7164 H 688.223 -0.708164 0.20414 0
M  V30 7165 H 690.865 -1.5118 1.15085 0
M  V30 7166 H 689.015 -3.86724 0.371062 0
M  V30 7167 H 690.687 -3.53813 2.95997 0
M  V30 7168 H 688.93 -3.28225 2.83639 0
M  V30 7169 H 689.601 -4.89198 2.55713 0
M  V30 7170 H 692.077 -4.08161 0.808945 0
M  V30 7171 H 690.953 -5.45296 0.627976 0
M  V30 7172 H 691.214 -4.36143 -0.723293 0
M  V30 7173 N 690.273 -0.685099 -1.4193 0
M  V30 7174 C 691.236 -0.0222632 -2.29189 0
M  V30 7175 C 692.236 0.7186 -1.4385 0
M  V30 7176 O 693.426 0.555058 -1.6512 0
M  V30 7177 C 690.558 0.979013 -3.2654 0
M  V30 7178 H 691.751 -0.790424 -2.89296 0
M  V30 7179 H 689.304 -0.448012 -1.49742 0
M  V30 7180 H 690.039 1.77531 -2.71392 0
M  V30 7181 H 689.824 0.451037 -3.89497 0
M  V30 7182 H 691.314 1.44091 -3.91954 0
M  V30 7183 N 691.751 1.51645 -0.429126 0
M  V30 7184 C 692.661 2.31288 0.392809 0
M  V30 7185 C 693.677 1.39852 1.03525 0
M  V30 7186 O 694.853 1.72926 1.03241 0
M  V30 7187 C 691.918 3.13347 1.48372 0
M  V30 7188 C 690.979 4.20551 0.862268 0
M  V30 7189 C 690.212 4.98688 1.9012 0
M  V30 7190 O 690.435 4.77359 3.12225 0
M  V30 7191 O 689.369 5.83005 1.4963 0
M  V30 7192 H 693.195 3.02609 -0.257138 0
M  V30 7193 H 690.78 1.48163 -0.191851 0
M  V30 7194 H 692.662 3.64387 2.1166 0
M  V30 7195 H 691.337 2.44799 2.1179 0
M  V30 7196 H 690.244 3.73609 0.191568 0
M  V30 7197 H 691.577 4.91449 0.271704 0
M  V30 7198 N 693.229 0.160201 1.56784 0
M  V30 7199 C 694.478 -0.487619 1.95717 0
M  V30 7200 C 694.791 -1.65136 1.0483 0
M  V30 7201 O 695.997 -2.36468 1.33398 0
M  V30 7202 C 694.453 -0.91888 3.47972 0
M  V30 7203 C 694.061 0.218655 4.47466 0
M  V30 7204 C 695.805 -1.53575 3.95746 0
M  V30 7205 C 693.712 -0.231614 5.90946 0
M  V30 7206 H 692.642 -0.185939 0.730714 0
M  V30 7207 H 695.293 0.246657 1.81835 0
M  V30 7208 H 693.675 -1.70881 3.57234 0
M  V30 7209 H 694.849 0.995825 4.49911 0
M  V30 7210 H 693.164 0.744767 4.09685 0
M  V30 7211 H 695.761 -1.88448 5.00391 0
M  V30 7212 H 696.104 -2.42959 3.38048 0
M  V30 7213 H 696.637 -0.810467 3.89456 0
M  V30 7214 H 693.376 0.62718 6.52493 0
M  V30 7215 H 692.896 -0.974379 5.91833 0
M  V30 7216 H 694.575 -0.67922 6.43425 0
M  V30 7217 N 694.707 -1.5719 -0.113559 0
M  V30 7218 C 696.118 -1.74259 -0.670116 0
M  V30 7219 C 696.469 -0.779694 -1.80042 0
M  V30 7220 O 695.594 0.0461353 -2.16351 0
M  V30 7221 C 696.189 -3.15981 -1.22236 0
M  V30 7222 C 694.748 -3.34537 -1.72516 0
M  V30 7223 C 693.895 -2.70116 -0.627098 0
M  V30 7224 H 696.846 -1.58301 0.112396 0
M  V30 7225 H 696.867 -3.17832 -2.09197 0
M  V30 7226 H 696.379 -3.86038 -0.39949 0
M  V30 7227 H 694.48 -2.6953 -2.57263 0
M  V30 7228 H 694.593 -4.42737 -1.83086 0
M  V30 7229 H 692.957 -2.31501 -1.06204 0
M  V30 7230 H 693.74 -3.42802 0.184889 0
M  V30 7231 N 696.185 0.383891 -1.52853 0
M  V30 7232 C 697.432 1.12842 -1.68146 0
M  V30 7233 C 697.76 1.89823 -0.423954 0
M  V30 7234 O 697.015 1.86475 0.593765 0
M  V30 7235 C 697.314 2.12881 -2.87082 0
M  V30 7236 C 696.98 1.52519 -4.24322 0
M  V30 7237 C 695.642 1.35783 -4.61645 0
M  V30 7238 C 697.994 1.0868 -5.09743 0
M  V30 7239 C 695.322 0.737643 -5.82044 0
M  V30 7240 C 697.674 0.480699 -6.30771 0
M  V30 7241 C 696.338 0.300681 -6.66822 0
M  V30 7242 H 695.608 0.412917 -0.615289 0
M  V30 7243 H 698.255 0.412416 -1.87006 0
M  V30 7244 H 696.56 2.90719 -2.62659 0
M  V30 7245 H 698.257 2.70408 -2.96109 0
M  V30 7246 H 694.847 1.66534 -3.94923 0
M  V30 7247 H 699.031 1.2041 -4.81472 0
M  V30 7248 H 694.287 0.586415 -6.08581 0
M  V30 7249 H 698.461 0.132733 -6.96273 0
M  V30 7250 H 696.088 -0.181966 -7.59982 0
M  V30 7251 N 697.663 1.43903 0.642637 0
M  V30 7252 C 698.611 1.50164 1.77634 0
M  V30 7253 C 699.605 0.374294 1.65213 0
M  V30 7254 O 700.811 0.548748 1.71431 0
M  V30 7255 H 697.186 0.470974 0.586249 0
M  V30 7256 H 699.157 2.45603 1.69474 0
M  V30 7257 C 697.906 1.45196 3.15933 0
M  V30 7258 H 697.229 2.31253 3.26132 0
M  V30 7259 H 698.669 1.53638 3.95185 0
M  V30 7260 C 697.128 0.171043 3.36466 0
M  V30 7261 O 697.658 -0.763413 3.94379 0
M  V30 7262 N 695.864 0.077847 2.90496 0
M  V30 7263 H 695.411 0.8391 2.43551 0
M  V30 7264 H 695.369 -0.778473 3.0461 0
M  V30 7265 N 699.141 -0.881989 1.30609 0
M  V30 7266 C 700.366 -1.67236 1.22665 0
M  V30 7267 C 700.791 -1.8696 -0.206777 0
M  V30 7268 O 700.149 -1.4027 -1.14865 0
M  V30 7269 C 700.197 -3.02446 1.96363 0
M  V30 7270 O 699.301 -3.91614 1.29276 0
M  V30 7271 H 698.642 -0.510902 0.424117 0
M  V30 7272 H 701.172 -1.10055 1.72479 0
M  V30 7273 H 701.182 -3.52468 2.055 0
M  V30 7274 H 699.857 -2.8741 3.00613 0
M  V30 7275 H 698.434 -3.50055 1.28514 0
M  V30 7276 N 700.619 -1.13374 -1.09472 0
M  V30 7277 C 701.847 -0.918351 -1.85402 0
M  V30 7278 C 702.262 0.53281 -1.81126 0
M  V30 7279 O 701.619 1.36879 -1.20708 0
M  V30 7280 C 701.67 -1.39743 -3.33398 0
M  V30 7281 O 701.391 -2.79172 -3.37631 0
M  V30 7282 C 702.892 -1.22042 -4.2617 0
M  V30 7283 H 700.112 -0.327511 -0.585643 0
M  V30 7284 H 702.656 -1.50617 -1.38328 0
M  V30 7285 H 700.811 -0.852619 -3.77901 0
M  V30 7286 H 701.225 -3.00428 -4.29934 0
M  V30 7287 H 702.699 -1.60438 -5.2817 0
M  V30 7288 H 703.176 -0.162047 -4.38901 0
M  V30 7289 H 703.782 -1.75323 -3.87482 0
M  V30 7290 N 702.098 1.27442 -0.927168 0
M  V30 7291 C 703.046 2.28844 -0.416333 0
M  V30 7292 C 704.04 1.61882 0.499057 0
M  V30 7293 O 705.246 1.75969 0.378817 0
M  V30 7294 H 701.621 0.742989 -0.116065 0
M  V30 7295 H 703.592 2.69344 -1.28438 0
M  V30 7296 C 702.341 3.4626 0.316107 0
M  V30 7297 H 701.664 3.97999 -0.379082 0
M  V30 7298 H 703.104 4.19173 0.637975 0
M  V30 7299 C 701.563 3.00211 1.5289 0
M  V30 7300 O 702.093 3.03837 2.62766 0
M  V30 7301 N 700.299 2.55713 1.38054 0
M  V30 7302 H 699.846 2.52962 0.4866 0
M  V30 7303 H 699.804 2.25264 2.19325 0
M  V30 7304 N 703.576 0.692616 1.41565 0
M  V30 7305 C 704.523 0.0254264 2.30786 0
M  V30 7306 C 705.493 -0.774347 1.46946 0
M  V30 7307 O 706.678 -0.742981 1.7574 0
M  V30 7308 C 703.818 -0.907123 3.32964 0
M  V30 7309 C 702.931 -0.0992784 4.31886 0
M  V30 7310 C 702.066 -1.0292 5.21134 0
M  V30 7311 C 701.105 -0.214088 6.11725 0
M  V30 7312 N 700.242 -1.09766 6.93467 0
M  V30 7313 H 705.082 0.792036 2.87282 0
M  V30 7314 H 702.619 0.4023 1.41492 0
M  V30 7315 H 704.577 -1.46181 3.90752 0
M  V30 7316 H 703.207 -1.64016 2.78026 0
M  V30 7317 H 702.259 0.572287 3.76071 0
M  V30 7318 H 703.571 0.532782 4.95946 0
M  V30 7319 H 702.725 -1.65321 5.83741 0
M  V30 7320 H 701.464 -1.69512 4.57293 0
M  V30 7321 H 700.469 0.42302 5.4817 0
M  V30 7322 H 701.694 0.447995 6.77621 0
M  V30 7323 H 699.64 -1.74965 6.32237 0
M  V30 7324 H 699.557 -0.521099 7.54202 0
M  V30 7325 H 700.825 -1.70858 7.60544 0
M  V30 7326 N 705.054 -1.51416 0.437162 0
M  V30 7327 C 706.284 -2.06204 -0.127859 0
M  V30 7328 C 706.692 -1.30463 -1.37026 0
M  V30 7329 O 706.035 -0.357516 -1.80187 0
M  V30 7330 C 706.097 -3.55783 -0.515632 0
M  V30 7331 C 705.761 -4.52776 0.619937 0
M  V30 7332 C 706.758 -4.98031 1.49201 0
M  V30 7333 C 704.443 -4.95878 0.800618 0
M  V30 7334 C 706.437 -5.85061 2.52947 0
M  V30 7335 C 704.124 -5.82699 1.84135 0
M  V30 7336 C 705.122 -6.27188 2.70416 0
M  V30 7337 O 704.81 -7.12284 3.72702 0
M  V30 7338 H 704.542 -0.675903 -0.011442 0
M  V30 7339 H 707.096 -1.95977 0.614986 0
M  V30 7340 H 705.326 -3.63793 -1.31118 0
M  V30 7341 H 707.015 -3.93087 -1.01179 0
M  V30 7342 H 707.781 -4.65426 1.36395 0
M  V30 7343 H 703.66 -4.60792 0.138617 0
M  V30 7344 H 707.204 -6.19708 3.20325 0
M  V30 7345 H 703.101 -6.14717 1.9696 0
M  V30 7346 H 703.869 -7.30462 3.69281 0
M  V30 7347 N 706.532 -0.168513 -1.56696 0
M  V30 7348 C 707.464 0.794249 -2.14998 0
M  V30 7349 C 708.477 1.1957 -1.10485 0
M  V30 7350 O 709.666 1.13604 -1.37682 0
M  V30 7351 C 706.766 2.08018 -2.67547 0
M  V30 7352 C 705.939 1.84274 -3.96689 0
M  V30 7353 C 704.998 2.97059 -4.3433 0
M  V30 7354 O 704.024 2.67815 -5.02259 0
M  V30 7355 N 705.226 4.24775 -3.9566 0
M  V30 7356 H 707.991 0.295832 -2.98236 0
M  V30 7357 H 705.552 0.0143611 -1.61894 0
M  V30 7358 H 707.544 2.82559 -2.89729 0
M  V30 7359 H 706.114 2.49059 -1.88914 0
M  V30 7360 H 705.334 0.936528 -3.82914 0
M  V30 7361 H 706.622 1.65773 -4.81037 0
M  V30 7362 H 706.02 4.51395 -3.40968 0
M  V30 7363 H 704.577 4.96027 -4.22848 0
M  V30 7364 N 708.01 1.57248 0.105221 0
M  V30 7365 C 708.94 2.04374 1.12931 0
M  V30 7366 C 709.921 0.93074 1.42377 0
M  V30 7367 O 711.106 1.20136 1.52581 0
M  V30 7368 C 708.236 2.45967 2.45189 0
M  V30 7369 C 707.19 3.60838 2.30174 0
M  V30 7370 C 706.516 3.88374 3.67518 0
M  V30 7371 C 707.816 4.92084 1.75073 0
M  V30 7372 H 709.51 2.9018 0.737287 0
M  V30 7373 H 707.056 1.39601 0.353211 0
M  V30 7374 H 709.009 2.77542 3.17094 0
M  V30 7375 H 707.733 1.57148 2.86308 0
M  V30 7376 H 706.392 3.29493 1.60716 0
M  V30 7377 H 706.04 2.96739 4.06147 0
M  V30 7378 H 705.74 4.65703 3.58321 0
M  V30 7379 H 707.264 4.22415 4.40906 0
M  V30 7380 H 708.678 5.22106 2.36809 0
M  V30 7381 H 707.075 5.73507 1.76662 0
M  V30 7382 H 708.145 4.79684 0.709347 0
M  V30 7383 N 709.488 -0.375779 1.53054 0
M  V30 7384 C 710.713 -1.14484 1.7294 0
M  V30 7385 C 711.138 -1.82572 0.452668 0
M  V30 7386 O 710.496 -1.71343 -0.592567 0
M  V30 7387 C 710.544 -2.15857 2.88857 0
M  V30 7388 O 709.648 -3.22725 2.56753 0
M  V30 7389 H 708.989 -0.332666 0.574656 0
M  V30 7390 H 711.519 -0.436025 1.999 0
M  V30 7391 H 711.529 -2.59631 3.14731 0
M  V30 7392 H 710.204 -1.65689 3.81471 0
M  V30 7393 H 708.781 -2.83996 2.41663 0
M  V30 7394 N 710.966 -1.44241 -0.634997 0
M  V30 7395 C 712.215 -1.46102 -1.39058 0
M  V30 7396 C 712.528 -0.0959909 -1.95364 0
M  V30 7397 O 713.734 0.00788751 -2.71499 0
M  V30 7398 C 712.19 -2.57195 -2.51751 0
M  V30 7399 C 711.798 -3.99888 -2.01974 0
M  V30 7400 C 713.542 -2.68272 -3.28984 0
M  V30 7401 C 711.449 -5.02412 -3.11987 0
M  V30 7402 H 710.379 -0.543556 -0.522554 0
M  V30 7403 H 713.03 -1.70294 -0.683538 0
M  V30 7404 H 711.412 -2.26237 -3.25012 0
M  V30 7405 H 712.586 -4.40396 -1.35604 0
M  V30 7406 H 710.901 -3.93019 -1.37568 0
M  V30 7407 H 713.498 -3.42042 -4.10988 0
M  V30 7408 H 713.841 -1.73957 -3.78212 0
M  V30 7409 H 714.374 -2.98622 -2.62812 0
M  V30 7410 H 711.113 -5.98342 -2.67707 0
M  V30 7411 H 710.633 -4.66501 -3.77011 0
M  V30 7412 H 712.312 -5.25939 -3.76825 0
M  V30 7413 N 712.444 0.87505 -1.31075 0
M  V30 7414 C 713.394 1.96933 -1.14898 0
M  V30 7415 C 714.378 1.60783 -0.0613703 0
M  V30 7416 O 715.57 1.74678 -0.285751 0
M  V30 7417 C 712.699 3.3253 -0.853166 0
M  V30 7418 C 711.785 3.74963 -1.98151 0
M  V30 7419 N 712.176 3.89403 -3.22799 0
M  V30 7420 C 710.474 4.04436 -1.8801 0
M  V30 7421 C 711.175 4.25563 -3.96574 0
M  V30 7422 N 710.151 4.3597 -3.24701 0
M  V30 7423 H 713.953 2.06201 -2.09424 0
M  V30 7424 H 711.467 1.06551 -1.22558 0
M  V30 7425 H 713.464 4.10666 -0.718266 0
M  V30 7426 H 712.124 3.24592 0.0839218 0
M  V30 7427 H 713.135 3.74266 -3.57974 0
M  V30 7428 H 709.812 4.04915 -1.01733 0
M  V30 7429 H 711.202 4.44375 -5.03965 0
M  V30 7430 N 713.922 1.13953 1.08869 0
M  V30 7431 C 714.832 0.835666 2.19212 0
M  V30 7432 C 715.848 -0.182005 1.73045 0
M  V30 7433 O 717.024 -0.0116661 2.01397 0
M  V30 7434 C 714.089 0.312325 3.4529 0
M  V30 7435 C 713.15 1.39196 4.06107 0
M  V30 7436 C 712.383 0.893496 5.26168 0
M  V30 7437 O 712.606 -0.266807 5.69776 0
M  V30 7438 O 711.54 1.67037 5.78258 0
M  V30 7439 H 715.366 1.75769 2.47667 0
M  V30 7440 H 712.951 0.917421 1.17914 0
M  V30 7441 H 714.833 0.0261582 4.21392 0
M  V30 7442 H 713.508 -0.582042 3.18424 0
M  V30 7443 H 712.415 1.73152 3.31616 0
M  V30 7444 H 713.748 2.26068 4.37212 0
M  V30 7445 N 715.4 -1.26948 0.933913 0
M  V30 7446 C 716.628 -1.98186 0.59414 0
M  V30 7447 C 717.043 -1.69614 -0.829257 0
M  V30 7448 O 716.4 -0.960213 -1.55197 0
M  V30 7449 C 716.451 -3.52123 0.818026 0
M  V30 7450 O 716.172 -3.79698 2.18543 0
M  V30 7451 C 717.673 -4.40608 0.48781 0
M  V30 7452 H 714.893 -0.632305 0.224569 0
M  V30 7453 H 717.437 -1.61646 1.25263 0
M  V30 7454 H 715.592 -3.86851 0.206246 0
M  V30 7455 H 716.006 -4.7426 2.24005 0
M  V30 7456 H 717.48 -5.47606 0.695126 0
M  V30 7457 H 717.957 -4.35394 -0.576913 0
M  V30 7458 H 718.563 -4.11411 1.078 0
M  V30 7459 N 716.879 -0.700114 -1.41195 0
M  V30 7460 C 717.789 -0.0382854 -2.34569 0
M  V30 7461 C 718.805 0.761036 -1.56474 0
M  V30 7462 O 719.981 0.697553 -1.88934 0
M  V30 7463 C 717.046 0.883522 -3.35253 0
M  V30 7464 C 716.107 0.0758957 -4.29233 0
M  V30 7465 C 715.34 0.9538 -5.25108 0
M  V30 7466 O 715.563 2.19326 -5.26547 0
M  V30 7467 O 714.497 0.401049 -6.00562 0
M  V30 7468 H 718.323 -0.808073 -2.92752 0
M  V30 7469 H 715.908 -0.460479 -1.42127 0
M  V30 7470 H 717.79 1.41199 -3.9704 0
M  V30 7471 H 716.465 1.63272 -2.79506 0
M  V30 7472 H 715.372 -0.497274 -3.7078 0
M  V30 7473 H 716.705 -0.634741 -4.8809 0
M  V30 7474 N 718.357 1.51182 -0.445186 0
M  V30 7475 C 719.634 1.9478 0.178965 0
M  V30 7476 C 720.014 1.38428 1.59376 0
M  V30 7477 O 719.362 0.574552 2.21159 0
M  V30 7478 C 719.572 3.48683 0.148711 0
M  V30 7479 C 720.92 4.23152 0.35042 0
M  V30 7480 O 721.944 3.55479 0.226474 0
M  V30 7481 O 720.803 5.4322 0.597893 0
M  V30 7482 H 717.897 0.817387 0.12573 0
M  V30 7483 H 720.443 1.62051 -0.503729 0
M  V30 7484 H 719.215 3.82176 -0.84009 0
M  V30 7485 H 718.838 3.87875 0.873979 0
M  V30 7486 N 719.835 0.176821 1.56605 0
M  V30 7487 C 721.246 -0.338963 1.83597 0
M  V30 7488 C 721.597 -1.62677 1.09684 0
M  V30 7489 O 720.722 -2.13524 0.351661 0
M  V30 7490 C 721.317 -0.62177 3.33046 0
M  V30 7491 C 719.876 -1.08198 3.60514 0
M  V30 7492 C 719.023 -0.120774 2.77037 0
M  V30 7493 H 721.974 0.400978 1.53551 0
M  V30 7494 H 721.995 -1.47321 3.50823 0
M  V30 7495 H 721.507 0.315692 3.86814 0
M  V30 7496 H 719.608 -2.03435 3.12162 0
M  V30 7497 H 719.721 -0.987329 4.68816 0
M  V30 7498 H 718.085 -0.619192 2.47059 0
M  V30 7499 H 718.868 0.810806 3.33588 0
M  V30 7500 N 721.313 -1.57302 -0.09688 0
M  V30 7501 C 722.261 -2.02942 -1.13654 0
M  V30 7502 C 723.255 -0.930173 -1.41577 0
M  V30 7503 O 724.461 -1.11535 -1.41279 0
M  V30 7504 H 720.836 -0.646726 -0.383731 0
M  V30 7505 H 722.807 -2.89452 -0.725267 0
M  V30 7506 C 721.556 -2.46815 -2.44903 0
M  V30 7507 H 720.879 -3.30979 -2.24261 0
M  V30 7508 H 722.319 -2.82527 -3.16156 0
M  V30 7509 C 720.778 -1.34071 -3.09074 0
M  V30 7510 O 721.308 -0.668856 -3.96092 0
M  V30 7511 N 719.514 -1.09214 -2.69296 0
M  V30 7512 H 719.061 -1.64029 -1.98626 0
M  V30 7513 H 719.019 -0.339785 -3.12559 0
M  V30 7514 N 722.791 0.367657 -1.53252 0
M  V30 7515 C 724.068 1.12606 -1.59935 0
M  V30 7516 C 724.448 2.07167 -0.405606 0
M  V30 7517 O 723.796 2.20364 0.604323 0
M  V30 7518 C 724.006 1.86699 -2.94863 0
M  V30 7519 C 725.354 2.41306 -3.49366 0
M  V30 7520 O 726.378 1.96828 -2.96879 0
M  V30 7521 O 725.237 3.2261 -4.41118 0
M  V30 7522 H 722.331 0.516438 -0.645926 0
M  V30 7523 H 724.877 0.371088 -1.65593 0
M  V30 7524 H 723.649 1.17674 -3.73187 0
M  V30 7525 H 723.272 2.6911 -2.92687 0
M  V30 7526 N 724.269 1.44576 0.627338 0
M  V30 7527 C 725.217 1.52039 1.76031 0
M  V30 7528 C 726.211 0.391796 1.64807 0
M  V30 7529 O 727.417 0.5669 1.7084 0
M  V30 7530 H 723.792 0.477165 0.581221 0
M  V30 7531 H 725.763 2.47387 1.6686 0
M  V30 7532 C 724.512 1.48539 3.14375 0
M  V30 7533 H 723.835 2.34699 3.23661 0
M  V30 7534 H 725.275 1.57821 3.93534 0
M  V30 7535 C 723.734 0.20672 3.36265 0
M  V30 7536 O 724.264 -0.72154 3.95167 0
M  V30 7537 N 722.47 0.108654 2.90397 0
M  V30 7538 H 722.017 0.864884 2.42647 0
M  V30 7539 H 721.975 -0.746121 3.05418 0
M  V30 7540 N 725.747 -0.868086 1.31537 0
M  V30 7541 C 727.163 -1.15414 1.10235 0
M  V30 7542 C 727.363 -2.01106 -0.125947 0
M  V30 7543 O 726.419 -2.38994 -0.814734 0
M  V30 7544 C 727.732 -1.84445 2.37488 0
M  V30 7545 C 729.28 -1.97139 2.43116 0
M  V30 7546 C 729.755 -2.69585 3.70254 0
M  V30 7547 N 731.246 -2.77119 3.71159 0
M  V30 7548 C 731.981 -3.33791 4.6623 0
M  V30 7549 N 731.477 -3.9138 5.71659 0
M  V30 7550 N 733.27 -3.31767 4.53747 0
M  V30 7551 H 725.421 -0.297109 2.10312 0
M  V30 7552 H 727.684 -0.194227 0.92789 0
M  V30 7553 H 727.39 -1.2893 3.27215 0
M  V30 7554 H 727.264 -2.84709 2.47428 0
M  V30 7555 H 729.651 -2.51818 1.53856 0
M  V30 7556 H 729.732 -0.95912 2.37138 0
M  V30 7557 H 729.376 -2.15572 4.59881 0
M  V30 7558 H 729.306 -3.71223 3.73499 0
M  V30 7559 H 731.797 -2.3625 2.94948 0
M  V30 7560 H 732.11 -4.3274 6.40278 0
M  V30 7561 H 730.455 -3.8975 5.7543 0
M  V30 7562 H 733.646 -2.86016 3.70557 0
M  V30 7563 H 733.819 -3.75636 5.28017 0
M  V30 7564 N 727.225 -1.14528 -1.08264 0
M  V30 7565 C 728.455 -0.936604 -1.8415 0
M  V30 7566 C 728.863 0.518298 -1.81962 0
M  V30 7567 O 728.206 1.37096 -1.22272 0
M  V30 7568 C 728.268 -1.36182 -3.32708 0
M  V30 7569 C 727.932 -2.83257 -3.58629 0
M  V30 7570 C 728.929 -3.81366 -3.5335 0
M  V30 7571 C 726.614 -3.20704 -3.86593 0
M  V30 7572 C 728.608 -5.14929 -3.75668 0
M  V30 7573 C 726.295 -4.54443 -4.08564 0
M  V30 7574 C 727.293 -5.51365 -4.03095 0
M  V30 7575 O 726.981 -6.8269 -4.24488 0
M  V30 7576 H 726.713 -0.333254 -0.588148 0
M  V30 7577 H 729.267 -1.5247 -1.3763 0
M  V30 7578 H 727.497 -0.717063 -3.79994 0
M  V30 7579 H 729.186 -1.12372 -3.90035 0
M  V30 7580 H 729.952 -3.53781 -3.31759 0
M  V30 7581 H 725.831 -2.45857 -3.89969 0
M  V30 7582 H 729.375 -5.90568 -3.71315 0
M  V30 7583 H 725.272 -4.81747 -4.29639 0
M  V30 7584 H 726.04 -6.8897 -4.41886 0
M  V30 7585 N 728.703 1.26451 -0.940633 0
M  V30 7586 C 729.633 2.28773 -0.467479 0
M  V30 7587 C 730.614 1.63218 0.478955 0
M  V30 7588 O 731.799 1.90427 0.380929 0
M  V30 7589 C 728.929 3.46259 0.268656 0
M  V30 7590 C 727.883 4.23898 -0.591171 0
M  V30 7591 C 727.209 5.33993 0.274891 0
M  V30 7592 C 728.509 4.87974 -1.86223 0
M  V30 7593 H 730.203 2.68601 -1.32265 0
M  V30 7594 H 727.749 1.29123 -0.637436 0
M  V30 7595 H 729.702 4.16951 0.610696 0
M  V30 7596 H 728.426 3.05383 1.15796 0
M  V30 7597 H 727.085 3.54969 -0.916098 0
M  V30 7598 H 726.733 4.89358 1.16353 0
M  V30 7599 H 726.433 5.86849 -0.297006 0
M  V30 7600 H 727.957 6.07523 0.612213 0
M  V30 7601 H 729.371 5.50883 -1.58747 0
M  V30 7602 H 727.768 5.50945 -2.37866 0
M  V30 7603 H 728.838 4.10945 -2.57394 0
M  V30 7604 N 730.181 0.707592 1.40822 0
M  V30 7605 C 731.111 0.0644925 2.33411 0
M  V30 7606 C 732.092 -0.754205 1.52466 0
M  V30 7607 O 733.277 -0.704749 1.80961 0
M  V30 7608 C 730.407 -0.863865 3.36385 0
M  V30 7609 C 729.361 -0.15138 4.27732 0
M  V30 7610 C 728.687 -1.19491 5.21177 0
M  V30 7611 C 729.987 0.989607 5.12839 0
M  V30 7612 H 731.681 0.837829 2.87438 0
M  V30 7613 H 729.227 0.404346 1.38207 0
M  V30 7614 H 731.18 -1.32309 4.0009 0
M  V30 7615 H 729.904 -1.66901 2.80734 0
M  V30 7616 H 728.563 0.287937 3.65467 0
M  V30 7617 H 728.211 -1.9929 4.61836 0
M  V30 7618 H 727.911 -0.723123 5.83134 0
M  V30 7619 H 729.435 -1.6544 5.8776 0
M  V30 7620 H 730.849 0.610114 5.70044 0
M  V30 7621 H 729.246 1.38926 5.83798 0
M  V30 7622 H 730.316 1.82389 4.49291 0
M  V30 7623 N 731.66 -1.50943 0.453197 0
M  V30 7624 C 732.906 -2.02512 -0.108082 0
M  V30 7625 C 733.239 -1.33574 -1.40967 0
M  V30 7626 O 732.514 -0.455671 -1.89087 0
M  V30 7627 C 732.797 -3.58759 -0.310453 0
M  V30 7628 C 732.65 -4.38293 1.0109 0
M  V30 7629 C 733.969 -4.26816 -1.07313 0
M  V30 7630 H 731.088 -0.73603 -0.0378064 0
M  V30 7631 H 733.73 -1.80433 0.595295 0
M  V30 7632 H 731.88 -3.77702 -0.909582 0
M  V30 7633 H 733.552 -4.30964 1.64523 0
M  V30 7634 H 731.795 -4.02745 1.61179 0
M  V30 7635 H 732.466 -5.45828 0.82315 0
M  V30 7636 H 734.942 -4.1224 -0.565473 0
M  V30 7637 H 733.818 -5.35989 -1.1835 0
M  V30 7638 H 734.079 -3.88757 -2.10525 0
M  V30 7639 N 733.138 -0.185124 -1.56509 0
M  V30 7640 C 734.071 0.77877 -2.145 0
M  V30 7641 C 735.049 1.21649 -1.07891 0
M  V30 7642 O 736.233 1.30579 -1.35946 0
M  V30 7643 C 733.36 2.05048 -2.69579 0
M  V30 7644 C 732.406 1.75569 -3.88687 0
M  V30 7645 S 733.239 0.912642 -5.27666 0
M  V30 7646 C 734.395 2.19471 -5.8616 0
M  V30 7647 H 734.628 0.285751 -2.95924 0
M  V30 7648 H 732.161 0.0297417 -1.54371 0
M  V30 7649 H 734.119 2.78085 -3.01958 0
M  V30 7650 H 732.78 2.51462 -1.88216 0
M  V30 7651 H 731.973 2.69962 -4.25601 0
M  V30 7652 H 731.575 1.10619 -3.57267 0
M  V30 7653 H 733.867 3.14815 -5.99915 0
M  V30 7654 H 734.81 1.87005 -6.8296 0
M  V30 7655 H 735.218 2.31862 -5.14685 0
M  V30 7656 N 734.616 1.57351 0.0885366 0
M  V30 7657 C 735.563 2.02523 1.10693 0
M  V30 7658 C 736.533 0.902736 1.39427 0
M  V30 7659 O 737.718 1.16921 1.50779 0
M  V30 7660 C 734.858 2.46013 2.42016 0
M  V30 7661 C 733.971 3.7181 2.19957 0
M  V30 7662 C 733.106 4.04152 3.44724 0
M  V30 7663 C 732.145 5.2304 3.17956 0
M  V30 7664 N 731.282 5.51102 4.35007 0
M  V30 7665 H 736.122 2.89302 0.714742 0
M  V30 7666 H 733.659 1.43084 0.341378 0
M  V30 7667 H 735.617 2.69274 3.18665 0
M  V30 7668 H 734.247 1.62235 2.79069 0
M  V30 7669 H 733.299 3.55987 1.34079 0
M  V30 7670 H 734.611 4.58604 1.96173 0
M  V30 7671 H 733.765 4.28225 4.29777 0
M  V30 7672 H 732.504 3.15893 3.71568 0
M  V30 7673 H 731.509 4.98781 2.31296 0
M  V30 7674 H 732.734 6.12902 2.92451 0
M  V30 7675 H 730.68 4.65802 4.61914 0
M  V30 7676 H 730.597 6.3228 4.14437 0
M  V30 7677 H 731.865 5.79714 5.21106 0
M  V30 7678 N 736.094 -0.359525 1.53444 0
M  V30 7679 C 737.342 -1.09935 1.69584 0
M  V30 7680 C 737.663 -1.89656 0.453371 0
M  V30 7681 O 736.933 -1.8852 -0.53263 0
M  V30 7682 H 735.513 -0.408843 0.625185 0
M  V30 7683 H 738.175 -0.40467 1.90653 0
M  V30 7684 H 737.271 -1.78575 2.55964 0
M  V30 7685 N 737.572 -1.44907 -0.619662 0
M  V30 7686 C 738.535 -1.52282 -1.71297 0
M  V30 7687 C 739.535 -0.40359 -1.55653 0
M  V30 7688 O 740.725 -0.666638 -1.6094 0
M  V30 7689 C 737.857 -1.40778 -3.10474 0
M  V30 7690 H 739.05 -2.49683 -1.66128 0
M  V30 7691 H 736.603 -1.32168 -0.834339 0
M  V30 7692 H 737.338 -0.445156 -3.2123 0
M  V30 7693 H 737.123 -2.21947 -3.23237 0
M  V30 7694 H 738.613 -1.48946 -3.90135 0
M  V30 7695 N 739.05 0.861098 -1.31996 0
M  V30 7696 C 740.461 1.43065 -1.19955 0
M  V30 7697 C 740.812 1.95273 0.190489 0
M  V30 7698 O 739.937 1.87012 1.08882 0
M  V30 7699 C 740.532 2.60052 -2.1716 0
M  V30 7700 C 739.091 3.13026 -2.09026 0
M  V30 7701 C 738.238 1.85756 -2.05888 0
M  V30 7702 H 741.189 0.668834 -1.43918 0
M  V30 7703 H 741.21 3.37016 -1.76637 0
M  V30 7704 H 740.722 2.22024 -3.18319 0
M  V30 7705 H 738.823 3.55653 -1.11092 0
M  V30 7706 H 738.936 3.74707 -2.98549 0
M  V30 7707 H 737.3 2.05088 -1.51033 0
M  V30 7708 H 738.083 1.49954 -3.08818 0
M  V30 7709 N 740.528 1.15101 1.07655 0
M  V30 7710 C 741.438 0.858869 2.18313 0
M  V30 7711 C 742.454 -0.163641 1.73229 0
M  V30 7712 O 743.63 0.00969541 2.01398 0
M  V30 7713 C 740.695 0.34893 3.4494 0
M  V30 7714 C 739.756 1.43495 4.04608 0
M  V30 7715 C 738.989 0.949253 5.2519 0
M  V30 7716 O 739.212 -0.20636 5.70027 0
M  V30 7717 O 738.146 1.73161 5.76454 0
M  V30 7718 H 741.972 1.78386 2.45788 0
M  V30 7719 H 739.557 0.929876 1.16934 0
M  V30 7720 H 741.439 0.070851 4.2134 0
M  V30 7721 H 740.114 -0.548237 3.19024 0
M  V30 7722 H 739.021 1.7666 3.29761 0
M  V30 7723 H 740.354 2.30692 4.3479 0
M  V30 7724 N 742.006 -1.2595 0.947325 0
M  V30 7725 C 743.422 -1.45737 0.650597 0
M  V30 7726 C 743.622 -1.85189 -0.794188 0
M  V30 7727 O 742.678 -1.97738 -1.57022 0
M  V30 7728 C 743.991 -2.53505 1.61728 0
M  V30 7729 C 745.539 -2.67351 1.62765 0
M  V30 7730 C 746.014 -3.78296 2.58179 0
M  V30 7731 N 747.505 -3.85696 2.56501 0
M  V30 7732 C 748.24 -4.71012 3.2701 0
M  V30 7733 N 747.736 -5.60669 4.06966 0
M  V30 7734 N 749.529 -4.64912 3.15932 0
M  V30 7735 H 741.68 -0.986327 1.8811 0
M  V30 7736 H 743.943 -0.494639 0.808725 0
M  V30 7737 H 743.649 -2.31357 2.6489 0
M  V30 7738 H 743.523 -3.51281 1.3741 0
M  V30 7739 H 745.91 -2.88869 0.603241 0
M  V30 7740 H 745.991 -1.69998 1.91139 0
M  V30 7741 H 745.635 -3.5753 3.60742 0
M  V30 7742 H 745.565 -4.75117 2.27093 0
M  V30 7743 H 748.056 -3.21601 1.98447 0
M  V30 7744 H 748.369 -6.22677 4.57704 0
M  V30 7745 H 746.714 -5.60402 4.11066 0
M  V30 7746 H 749.905 -3.93874 2.52945 0
M  V30 7747 H 750.078 -5.3118 3.71149 0
M  V30 7748 N 743.484 -0.715051 -1.40445 0
M  V30 7749 C 744.733 -0.251322 -2.00128 0
M  V30 7750 C 745.046 1.16194 -1.57347 0
M  V30 7751 O 746.252 1.72416 -2.09726 0
M  V30 7752 C 744.708 -0.398407 -3.57688 0
M  V30 7753 C 744.316 -1.81828 -4.09442 0
M  V30 7754 C 746.06 0.00455625 -4.245 0
M  V30 7755 C 743.967 -1.91598 -5.59503 0
M  V30 7756 H 742.897 -0.0902081 -0.748584 0
M  V30 7757 H 745.548 -0.886062 -1.6069 0
M  V30 7758 H 743.93 0.304908 -3.94824 0
M  V30 7759 H 745.104 -2.55193 -3.83684 0
M  V30 7760 H 743.419 -2.17266 -3.55225 0
M  V30 7761 H 746.016 -0.0477303 -5.34679 0
M  V30 7762 H 746.359 1.04636 -4.02935 0
M  V30 7763 H 746.892 -0.649184 -3.92467 0
M  V30 7764 H 743.631 -2.93898 -5.85922 0
M  V30 7765 H 743.151 -1.22644 -5.87127 0
M  V30 7766 H 744.83 -1.68785 -6.24596 0
M  V30 7767 N 744.962 1.50701 -0.461195 0
M  V30 7768 C 745.892 2.31182 0.328184 0
M  V30 7769 C 746.873 1.37644 0.999408 0
M  V30 7770 O 748.058 1.66565 0.99848 0
M  V30 7771 C 745.188 3.17113 1.41621 0
M  V30 7772 C 744.142 4.19124 0.867148 0
M  V30 7773 C 743.468 4.93728 2.05272 0
M  V30 7774 C 744.768 5.22174 -0.114808 0
M  V30 7775 H 746.462 2.97423 -0.343501 0
M  V30 7776 H 744.008 1.43033 -0.166641 0
M  V30 7777 H 745.961 3.72208 1.97584 0
M  V30 7778 H 744.685 2.48739 2.11652 0
M  V30 7779 H 743.344 3.65116 0.329557 0
M  V30 7780 H 742.992 4.21835 2.73978 0
M  V30 7781 H 742.692 5.62724 1.69161 0
M  V30 7782 H 744.216 5.51654 2.61744 0
M  V30 7783 H 745.63 5.72198 0.355316 0
M  V30 7784 H 744.027 5.98833 -0.389689 0
M  V30 7785 H 745.097 4.7353 -1.04391 0
M  V30 7786 N 746.441 0.193421 1.56409 0
M  V30 7787 C 747.718 -0.493318 1.89277 0
M  V30 7788 C 748.098 -1.79765 1.10669 0
M  V30 7789 O 747.446 -2.27558 0.207274 0
M  V30 7790 C 747.656 -0.713732 3.41624 0
M  V30 7791 C 749.004 -1.03385 4.11821 0
M  V30 7792 O 750.028 -0.801511 3.47065 0
M  V30 7793 O 748.887 -1.47327 5.26267 0
M  V30 7794 H 745.981 -0.256973 0.786062 0
M  V30 7795 H 748.527 0.23351 1.68086 0
M  V30 7796 H 747.299 0.207446 3.9075 0
M  V30 7797 H 746.922 -1.49308 3.68501 0
M  V30 7798 N 747.919 -1.57396 -0.0801906 0
M  V30 7799 C 749.335 -1.53564 -0.434778 0
M  V30 7800 C 749.535 -0.912372 -1.79661 0
M  V30 7801 O 748.591 -0.511268 -2.4727 0
M  V30 7802 C 749.904 -2.98244 -0.383561 0
M  V30 7803 C 751.452 -3.09536 -0.46435 0
M  V30 7804 C 751.927 -4.55851 -0.443128 0
M  V30 7805 N 753.418 -4.60456 -0.503448 0
M  V30 7806 C 754.153 -5.71135 -0.509106 0
M  V30 7807 N 753.649 -6.91203 -0.47008 0
M  V30 7808 N 755.442 -5.59353 -0.555035 0
M  V30 7809 H 747.593 -1.96281 0.811635 0
M  V30 7810 H 749.856 -0.898041 0.303689 0
M  V30 7811 H 749.562 -3.47369 0.550236 0
M  V30 7812 H 749.436 -3.57705 -1.19694 0
M  V30 7813 H 751.823 -2.6039 -1.38857 0
M  V30 7814 H 751.904 -2.53 0.377445 0
M  V30 7815 H 751.548 -5.05653 0.477207 0
M  V30 7816 H 751.478 -5.10242 -1.30234 0
M  V30 7817 H 753.969 -3.74048 -0.538199 0
M  V30 7818 H 754.282 -7.7132 -0.478091 0
M  V30 7819 H 752.627 -6.93625 -0.436897 0
M  V30 7820 H 755.818 -4.64453 -0.583158 0
M  V30 7821 H 755.991 -6.4561 -0.555976 0
M  V30 7822 N 749.397 0.351382 -1.53633 0
M  V30 7823 C 750.637 1.10102 -1.72212 0
M  V30 7824 C 751.001 1.86128 -0.471198 0
M  V30 7825 O 752.202 2.63445 -0.533887 0
M  V30 7826 C 750.473 2.02348 -2.94602 0
M  V30 7827 S 752.032 2.84641 -3.33954 0
M  V30 7828 H 748.85 0.372145 -0.60583 0
M  V30 7829 H 751.452 0.38044 -1.91763 0
M  V30 7830 H 750.156 1.45283 -3.83824 0
M  V30 7831 H 749.687 2.78856 -2.77493 0
M  V30 7832 H 751.702 4.04724 -2.87076 0
M  V30 7833 N 750.875 1.45233 0.611969 0
M  V30 7834 C 752.1 1.52767 1.40274 0
M  V30 7835 C 752.525 0.159701 1.87421 0
M  V30 7836 O 751.883 -0.854837 1.59882 0
M  V30 7837 C 751.931 2.51286 2.58626 0
M  V30 7838 O 751.035 2.02764 3.59111 0
M  V30 7839 H 750.376 0.515141 0.418958 0
M  V30 7840 H 752.906 1.90547 0.745188 0
M  V30 7841 H 752.916 2.69949 3.05927 0
M  V30 7842 H 751.591 3.50641 2.23659 0
M  V30 7843 H 750.168 1.93957 3.18489 0
M  V30 7844 N 752.353 -0.854086 1.3245 0
M  V30 7845 C 753.581 -1.64074 1.26045 0
M  V30 7846 C 753.996 -1.8802 -0.171456 0
M  V30 7847 O 753.353 -1.4496 -1.10873 0
M  V30 7848 C 753.404 -2.9997 2.01743 0
M  V30 7849 O 753.125 -2.77084 3.39346 0
M  V30 7850 C 754.626 -3.94414 2.02368 0
M  V30 7851 H 751.846 -0.511015 0.434862 0
M  V30 7852 H 754.39 -1.06494 1.74583 0
M  V30 7853 H 752.545 -3.54193 1.56926 0
M  V30 7854 H 752.959 -3.63514 3.78098 0
M  V30 7855 H 754.433 -4.87032 2.59815 0
M  V30 7856 H 754.91 -4.27427 1.01009 0
M  V30 7857 H 755.516 -3.46127 2.47135 0
M  V30 7858 N 753.831 -1.1567 -1.07043 0
M  V30 7859 C 755.08 -0.928039 -1.79082 0
M  V30 7860 C 755.393 0.545968 -1.87826 0
M  V30 7861 O 756.599 0.892308 -2.56418 0
M  V30 7862 C 755.055 -1.61103 -3.21829 0
M  V30 7863 C 754.663 -3.12228 -3.21275 0
M  V30 7864 C 756.407 -1.46404 -3.98455 0
M  V30 7865 C 754.314 -3.733 -4.58695 0
M  V30 7866 H 753.244 -0.34357 -0.671175 0
M  V30 7867 H 755.895 -1.38718 -1.20123 0
M  V30 7868 H 754.277 -1.07958 -3.81 0
M  V30 7869 H 755.451 -3.72155 -2.71731 0
M  V30 7870 H 753.766 -3.26725 -2.58147 0
M  V30 7871 H 756.363 -1.8942 -5.00024 0
M  V30 7872 H 756.706 -0.41195 -4.14257 0
M  V30 7873 H 757.239 -1.96663 -3.45787 0
M  V30 7874 H 753.978 -4.78423 -4.48098 0
M  V30 7875 H 753.498 -3.18157 -5.08465 0
M  V30 7876 H 755.177 -3.7441 -5.27661 0
M  V30 7877 N 755.309 1.25446 -0.953992 0
M  V30 7878 C 756.239 2.28264 -0.491717 0
M  V30 7879 C 757.22 1.63717 0.461617 0
M  V30 7880 O 758.405 1.90821 0.36071 0
M  V30 7881 C 755.535 3.46525 0.231915 0
M  V30 7882 C 754.489 4.23247 -0.636098 0
M  V30 7883 C 753.815 5.34254 0.218238 0
M  V30 7884 C 755.115 4.85971 -1.91389 0
M  V30 7885 H 756.809 2.67183 -1.35106 0
M  V30 7886 H 754.355 1.2844 -0.651095 0
M  V30 7887 H 756.308 4.17576 0.566439 0
M  V30 7888 H 755.032 3.06594 1.12551 0
M  V30 7889 H 753.691 3.53978 -0.953696 0
M  V30 7890 H 753.339 4.90564 1.11156 0
M  V30 7891 H 753.039 5.86501 -0.359232 0
M  V30 7892 H 754.563 6.08138 0.547743 0
M  V30 7893 H 755.977 5.49168 -1.64581 0
M  V30 7894 H 754.374 5.48391 -2.43696 0
M  V30 7895 H 755.444 4.08192 -2.61738 0
M  V30 7896 N 756.787 0.722489 1.40064 0
M  V30 7897 C 757.717 0.0892452 2.33329 0
M  V30 7898 C 758.698 -0.737992 1.53257 0
M  V30 7899 O 759.883 -0.685516 1.81698 0
M  V30 7900 C 757.013 -0.828139 3.37282 0
M  V30 7901 C 755.967 -0.106005 4.27869 0
M  V30 7902 C 755.293 -1.13957 5.22415 0
M  V30 7903 C 756.593 1.04395 5.11761 0
M  V30 7904 H 758.287 0.868269 2.86534 0
M  V30 7905 H 755.833 0.418982 1.3777 0
M  V30 7906 H 757.786 -1.28058 4.01471 0
M  V30 7907 H 756.51 -1.63914 2.82489 0
M  V30 7908 H 755.169 0.326683 3.65142 0
M  V30 7909 H 754.817 -1.9438 4.63924 0
M  V30 7910 H 754.517 -0.661233 5.83868 0
M  V30 7911 H 756.041 -1.59197 5.89482 0
M  V30 7912 H 757.455 0.670541 5.69365 0
M  V30 7913 H 755.852 1.4511 5.82291 0
M  V30 7914 H 756.922 1.87144 4.47331 0
M  V30 7915 N 758.265 -1.50454 0.469181 0
M  V30 7916 C 759.197 -2.26319 -0.362247 0
M  V30 7917 C 760.21 -1.31574 -0.958751 0
M  V30 7918 O 761.399 -1.57099 -0.847482 0
M  V30 7919 C 758.499 -3.02808 -1.52187 0
M  V30 7920 C 757.672 -4.24893 -1.03849 0
M  V30 7921 C 756.731 -4.83691 -2.07194 0
M  V30 7922 O 755.757 -5.44659 -1.65333 0
M  V30 7923 N 756.959 -4.70522 -3.39985 0
M  V30 7924 H 759.724 -2.98312 0.288124 0
M  V30 7925 H 757.285 -1.59099 0.299856 0
M  V30 7926 H 759.277 -3.39023 -2.21011 0
M  V30 7927 H 757.847 -2.33625 -2.07697 0
M  V30 7928 H 757.067 -3.93806 -0.176203 0
M  V30 7929 H 758.355 -5.04053 -0.693435 0
M  V30 7930 H 757.753 -4.2203 -3.76706 0
M  V30 7931 H 756.31 -5.11011 -4.04612 0
M  V30 7932 N 759.743 -0.201713 -1.56304 0
M  V30 7933 C 760.991 0.434447 -1.97375 0
M  V30 7934 C 761.312 1.61692 -1.08998 0
M  V30 7935 O 760.582 1.95223 -0.162682 0
M  V30 7936 H 759.162 0.163497 -0.728888 0
M  V30 7937 H 761.824 -0.289988 -1.92731 0
M  V30 7938 H 760.92 0.774136 -3.02347 0
M  V30 7939 N 761.222 1.57436 0.0718424 0
M  V30 7940 C 762.169 2.03686 1.08539 0
M  V30 7941 C 763.139 0.917474 1.38462 0
M  V30 7942 O 764.324 1.18513 1.4953 0
M  V30 7943 C 761.464 2.48566 2.39393 0
M  V30 7944 C 760.577 3.74122 2.16001 0
M  V30 7945 C 759.712 4.07786 3.40418 0
M  V30 7946 C 758.751 5.26383 3.1239 0
M  V30 7947 N 757.888 5.55685 4.29138 0
M  V30 7948 H 762.728 2.90043 0.684018 0
M  V30 7949 H 760.265 1.43438 0.326183 0
M  V30 7950 H 762.223 2.72639 3.15791 0
M  V30 7951 H 760.853 1.65186 2.77333 0
M  V30 7952 H 759.905 3.57389 1.30296 0
M  V30 7953 H 761.217 4.60659 1.91298 0
M  V30 7954 H 760.371 4.32759 4.25211 0
M  V30 7955 H 759.11 3.19817 3.68197 0
M  V30 7956 H 758.115 5.01206 2.25993 0
M  V30 7957 H 759.34 6.1597 2.85934 0
M  V30 7958 H 757.286 4.70675 4.56948 0
M  V30 7959 H 757.203 6.3664 4.07708 0
M  V30 7960 H 758.471 5.85209 5.14928 0
M  V30 7961 N 762.7 -0.34323 1.53817 0
M  V30 7962 C 763.61 -1.44493 1.84821 0
M  V30 7963 C 764.626 -1.57556 0.738381 0
M  V30 7964 O 765.802 -1.73026 1.03072 0
M  V30 7965 C 762.867 -2.79478 2.05166 0
M  V30 7966 C 761.928 -2.75756 3.29025 0
M  V30 7967 C 761.161 -4.04302 3.4839 0
M  V30 7968 O 761.384 -5.01595 2.71586 0
M  V30 7969 O 760.318 -4.08754 4.41819 0
M  V30 7970 H 764.144 -1.21209 2.78464 0
M  V30 7971 H 761.729 -0.535437 1.39476 0
M  V30 7972 H 763.611 -3.59419 2.19991 0
M  V30 7973 H 762.286 -3.02692 1.14713 0
M  V30 7974 H 761.193 -1.94434 3.19603 0
M  V30 7975 H 762.526 -2.57495 4.19472 0
M  V30 7976 N 764.178 -1.45556 -0.604258 0
M  V30 7977 C 765.11 -1.50494 -1.72871 0
M  V30 7978 C 766.123 -0.395368 -1.57926 0
M  V30 7979 O 767.312 -0.662603 -1.65746 0
M  V30 7980 C 764.412 -1.34874 -3.10906 0
M  V30 7981 C 763.585 -2.59564 -3.52058 0
M  V30 7982 C 762.644 -2.38453 -4.6907 0
M  V30 7983 O 761.67 -3.12082 -4.76018 0
M  V30 7984 N 762.872 -1.43229 -5.62553 0
M  V30 7985 H 765.637 -2.4744 -1.69097 0
M  V30 7986 H 763.198 -1.41338 -0.789636 0
M  V30 7987 H 765.19 -1.18556 -3.86945 0
M  V30 7988 H 763.76 -0.461913 -3.09168 0
M  V30 7989 H 762.98 -2.90974 -2.65946 0
M  V30 7990 H 764.268 -3.42441 -3.76313 0
M  V30 7991 H 763.666 -0.824714 -5.59656 0
M  V30 7992 H 762.223 -1.32882 -6.38111 0
M  V30 7993 N 765.656 0.84705 -1.32902 0
M  V30 7994 C 767.067 1.41785 -1.21466 0
M  V30 7995 C 767.418 1.95464 0.169767 0
M  V30 7996 O 766.543 1.88157 1.06892 0
M  V30 7997 C 767.138 2.57734 -2.19906 0
M  V30 7998 C 765.697 3.10791 -2.12334 0
M  V30 7999 C 764.844 1.83562 -2.07847 0
M  V30 8000 H 767.795 0.653532 -1.44619 0
M  V30 8001 H 767.816 3.35123 -1.80202 0
M  V30 8002 H 767.328 2.18635 -3.20656 0
M  V30 8003 H 765.429 3.54455 -1.14858 0
M  V30 8004 H 765.542 3.71519 -3.02506 0
M  V30 8005 H 763.906 2.03475 -1.53199 0
M  V30 8006 H 764.689 1.4667 -3.10392 0
M  V30 8007 N 767.134 1.16236 1.06428 0
M  V30 8008 C 768.064 0.890807 2.1584 0
M  V30 8009 C 769.045 -0.162333 1.69324 0
M  V30 8010 O 770.23 -0.0147191 1.94194 0
M  V30 8011 C 767.36 0.389615 3.45108 0
M  V30 8012 C 766.314 1.38051 4.05125 0
M  V30 8013 C 765.64 0.737773 5.29586 0
M  V30 8014 C 766.94 2.74965 4.44062 0
M  V30 8015 H 768.634 1.80577 2.38814 0
M  V30 8016 H 766.18 0.869657 1.14774 0
M  V30 8017 H 768.133 0.187127 4.20984 0
M  V30 8018 H 766.857 -0.560851 3.21748 0
M  V30 8019 H 765.516 1.56952 3.31303 0
M  V30 8020 H 765.164 -0.219135 5.02522 0
M  V30 8021 H 764.864 1.39914 5.70699 0
M  V30 8022 H 766.388 0.545275 6.0816 0
M  V30 8023 H 767.802 2.59855 5.11027 0
M  V30 8024 H 766.199 3.37563 4.96156 0
M  V30 8025 H 767.269 3.30321 3.54987 0
M  V30 8026 N 768.612 -1.24939 0.960631 0
M  V30 8027 C 769.889 -1.88118 0.535807 0
M  V30 8028 C 770.269 -1.86605 -0.987009 0
M  V30 8029 O 769.617 -1.33375 -1.85536 0
M  V30 8030 C 769.827 -3.30565 1.11927 0
M  V30 8031 C 771.175 -4.07296 1.19981 0
M  V30 8032 O 772.199 -3.39709 1.07126 0
M  V30 8033 O 771.058 -5.28206 1.40218 0
M  V30 8034 H 768.152 -0.807698 0.177631 0
M  V30 8035 H 770.698 -1.32964 1.05445 0
M  V30 8036 H 769.47 -3.26128 2.16231 0
M  V30 8037 H 769.093 -3.93284 0.584245 0
M  V30 8038 N 770.09 -0.729906 -1.39679 0
M  V30 8039 C 771 -0.0880322 -2.34435 0
M  V30 8040 C 772.016 0.727674 -1.58053 0
M  V30 8041 O 773.192 0.657321 -1.90371 0
M  V30 8042 C 770.257 0.812211 -3.37052 0
M  V30 8043 C 769.318 -0.0151681 -4.29297 0
M  V30 8044 C 768.551 0.842202 -5.27013 0
M  V30 8045 O 768.774 2.08108 -5.31081 0
M  V30 8046 O 767.708 0.27357 -6.01278 0
M  V30 8047 H 771.534 -0.869989 -2.90972 0
M  V30 8048 H 769.119 -0.490522 -1.41118 0
M  V30 8049 H 771.001 1.32745 -3.99946 0
M  V30 8050 H 769.676 1.57307 -2.82907 0
M  V30 8051 H 768.583 -0.575811 -3.69642 0
M  V30 8052 H 769.916 -0.738129 -4.86634 0
M  V30 8053 N 771.568 1.50203 -0.477153 0
M  V30 8054 C 772.478 2.32421 0.319027 0
M  V30 8055 C 773.494 1.43075 0.990233 0
M  V30 8056 O 774.67 1.76123 0.976873 0
M  V30 8057 C 771.735 3.17909 1.38328 0
M  V30 8058 C 770.796 4.23082 0.728036 0
M  V30 8059 C 770.029 5.04484 1.74158 0
M  V30 8060 O 770.252 4.8705 2.96881 0
M  V30 8061 O 769.186 5.8747 1.31006 0
M  V30 8062 H 773.012 3.01638 -0.353281 0
M  V30 8063 H 770.597 1.47478 -0.238891 0
M  V30 8064 H 772.479 3.70937 1.9996 0
M  V30 8065 H 771.154 2.51413 2.03895 0
M  V30 8066 H 770.061 3.7403 0.07261 0
M  V30 8067 H 771.394 4.92065 0.115216 0
M  V30 8068 N 773.046 0.209999 1.56195 0
M  V30 8069 C 773.979 -0.744546 2.15712 0
M  V30 8070 C 774.957 -1.19917 1.09812 0
M  V30 8071 O 776.141 -1.284 1.38006 0
M  V30 8072 C 773.268 -2.00733 2.72807 0
M  V30 8073 C 772.314 -1.69363 3.91431 0
M  V30 8074 S 773.147 -0.828579 5.29051 0
M  V30 8075 C 774.303 -2.10118 5.89577 0
M  V30 8076 H 774.536 -0.238636 2.96341 0
M  V30 8077 H 772.069 -0.00517877 1.54399 0
M  V30 8078 H 774.027 -2.73246 3.06344 0
M  V30 8079 H 772.688 -2.48436 1.92193 0
M  V30 8080 H 771.881 -2.63157 4.29842 0
M  V30 8081 H 771.483 -1.04921 3.58981 0
M  V30 8082 H 773.775 -3.05231 6.04847 0
M  V30 8083 H 774.718 -1.76116 6.85849 0
M  V30 8084 H 775.126 -2.23644 5.18308 0
M  V30 8085 N 774.524 -1.57472 -0.0634922 0
M  V30 8086 C 775.471 -2.04258 -1.07457 0
M  V30 8087 C 776.441 -0.924804 -1.37973 0
M  V30 8088 O 777.626 -1.19305 -1.48899 0
M  V30 8089 C 774.766 -2.49832 -2.38071 0
M  V30 8090 C 773.879 -3.75263 -2.14014 0
M  V30 8091 C 773.014 -4.09585 -3.38251 0
M  V30 8092 C 772.053 -5.28032 -3.09594 0
M  V30 8093 N 771.19 -5.57953 -4.26185 0
M  V30 8094 H 776.03 -2.90402 -0.668626 0
M  V30 8095 H 773.567 -1.43609 -0.318572 0
M  V30 8096 H 775.525 -2.7431 -3.14341 0
M  V30 8097 H 774.155 -1.66654 -2.76453 0
M  V30 8098 H 773.207 -3.58075 -1.28399 0
M  V30 8099 H 774.519 -4.61667 -1.88852 0
M  V30 8100 H 773.673 -4.35008 -4.2291 0
M  V30 8101 H 772.412 -3.21765 -3.66495 0
M  V30 8102 H 771.417 -5.02397 -2.23332 0
M  V30 8103 H 772.642 -6.17477 -2.82663 0
M  V30 8104 H 770.588 -4.73092 -4.54445 0
M  V30 8105 H 770.505 -6.38793 -4.04326 0
M  V30 8106 H 771.773 -5.87931 -5.11817 0
M  V30 8107 N 776.003 0.335068 -1.53997 0
M  V30 8108 C 776.913 1.43511 -1.85585 0
M  V30 8109 C 777.929 1.57162 -0.746726 0
M  V30 8110 O 779.105 1.72477 -1.03988 0
M  V30 8111 C 776.17 2.78386 -2.06646 0
M  V30 8112 C 775.231 2.74007 -3.30483 0
M  V30 8113 C 774.464 4.02449 -3.50529 0
M  V30 8114 O 774.687 5.00147 -2.74242 0
M  V30 8115 O 773.621 4.06405 -4.4398 0
M  V30 8116 H 777.447 1.19731 -2.79102 0
M  V30 8117 H 775.032 0.528033 -1.39758 0
M  V30 8118 H 776.914 3.58247 -2.21894 0
M  V30 8119 H 775.589 3.0208 -1.16317 0
M  V30 8120 H 774.496 1.92736 -3.2063 0
M  V30 8121 H 775.829 2.55267 -4.20832 0
M  V30 8122 N 777.481 1.45874 0.596531 0
M  V30 8123 C 778.444 1.54988 1.68853 0
M  V30 8124 C 779.444 0.428302 1.54991 0
M  V30 8125 O 780.634 0.692158 1.59859 0
M  V30 8126 C 777.766 1.457 3.08195 0
M  V30 8127 H 778.959 2.52294 1.62135 0
M  V30 8128 H 776.512 1.33479 0.813206 0
M  V30 8129 H 777.247 0.496204 3.20481 0
M  V30 8130 H 777.032 2.27061 3.19665 0
M  V30 8131 H 778.522 1.55133 3.87716 0
M  V30 8132 N 778.959 -0.83999 1.33349 0
M  V30 8133 C 780.206 -1.59517 1.24742 0
M  V30 8134 C 780.534 -1.93598 -0.187077 0
M  V30 8135 O 779.789 -1.58782 -1.14398 0
M  V30 8136 C 780.088 -2.91571 2.06691 0
M  V30 8137 C 779.754 -2.76856 3.55895 0
M  V30 8138 C 778.416 -2.72551 3.96572 0
M  V30 8139 C 780.768 -2.61741 4.50712 0
M  V30 8140 C 778.096 -2.51028 5.30285 0
M  V30 8141 C 780.448 -2.41752 5.84584 0
M  V30 8142 C 779.112 -2.35848 6.24445 0
M  V30 8143 H 778.382 -0.583714 0.456463 0
M  V30 8144 H 781.029 -0.973261 1.64924 0
M  V30 8145 H 779.334 -3.57961 1.59284 0
M  V30 8146 H 781.031 -3.49053 1.9739 0
M  V30 8147 H 777.621 -2.81039 3.23597 0
M  V30 8148 H 781.805 -2.64102 4.20195 0
M  V30 8149 H 777.061 -2.44903 5.60208 0
M  V30 8150 H 781.235 -2.2904 6.57658 0
M  V30 8151 H 778.862 -2.18931 7.27993 0
M  V30 8152 N 780.437 -1.16799 -1.0581 0
M  V30 8153 C 781.369 -0.836774 -2.13379 0
M  V30 8154 C 782.382 0.158116 -1.6203 0
M  V30 8155 O 783.571 -0.0673211 -1.78373 0
M  V30 8156 C 780.671 -0.225959 -3.38146 0
M  V30 8157 C 779.844 -1.26217 -4.18794 0
M  V30 8158 C 778.903 -0.670257 -5.21914 0
M  V30 8159 O 777.929 -1.34042 -5.53192 0
M  V30 8160 N 779.131 0.540683 -5.77977 0
M  V30 8161 H 781.896 -1.76257 -2.42391 0
M  V30 8162 H 779.457 -1.06599 -1.21853 0
M  V30 8163 H 781.449 0.18317 -4.04285 0
M  V30 8164 H 780.019 0.603494 -3.06719 0
M  V30 8165 H 779.239 -1.84729 -3.48237 0
M  V30 8166 H 780.527 -1.9613 -4.69479 0
M  V30 8167 H 779.925 1.10322 -5.54838 0
M  V30 8168 H 778.482 0.891958 -6.45668 0
M  V30 8169 N 781.915 1.24427 -0.967243 0
M  V30 8170 C 782.863 2.27403 -0.488927 0
M  V30 8171 C 783.857 1.63388 0.447302 0
M  V30 8172 O 785.063 1.77085 0.322643 0
M  V30 8173 H 781.438 0.738921 -0.139643 0
M  V30 8174 H 783.409 2.65122 -1.36942 0
M  V30 8175 C 782.158 3.4709 0.205787 0
M  V30 8176 H 781.481 3.96591 -0.50551 0
M  V30 8177 H 782.921 4.2099 0.504296 0
M  V30 8178 C 781.38 3.04923 1.43261 0
M  V30 8179 O 781.91 3.12043 2.52967 0
M  V30 8180 N 780.116 2.59976 1.29849 0
M  V30 8181 H 779.663 2.54382 0.405876 0
M  V30 8182 H 779.621 2.32128 2.12047 0
M  V30 8183 N 783.393 0.737304 1.3929 0
M  V30 8184 C 784.356 0.10731 2.28949 0
M  V30 8185 C 785.356 -0.664716 1.46418 0
M  V30 8186 O 786.546 -0.493392 1.67067 0
M  V30 8187 C 783.678 -0.857145 3.29948 0
M  V30 8188 H 784.871 0.89725 2.86163 0
M  V30 8189 H 782.424 0.503279 1.47976 0
M  V30 8190 H 783.159 -1.67336 2.77794 0
M  V30 8191 H 782.944 -0.306167 3.90903 0
M  V30 8192 H 784.434 -1.29444 3.97031 0
M  V30 8193 N 784.871 -1.49948 0.485112 0
M  V30 8194 C 786.101 -2.06506 -0.0621921 0
M  V30 8195 C 786.509 -1.34756 -1.32806 0
M  V30 8196 O 785.852 -0.41466 -1.78959 0
M  V30 8197 C 785.914 -3.57243 -0.402182 0
M  V30 8198 C 785.578 -4.50574 0.763671 0
M  V30 8199 C 786.575 -4.93032 1.6497 0
M  V30 8200 C 784.26 -4.9308 0.957973 0
M  V30 8201 C 786.254 -5.76718 2.71432 0
M  V30 8202 C 783.941 -5.76546 2.0258 0
M  V30 8203 C 784.939 -6.18267 2.90232 0
M  V30 8204 O 784.627 -7.00066 3.95174 0
M  V30 8205 H 784.359 -0.675925 0.0100672 0
M  V30 8206 H 786.913 -1.93922 0.677023 0
M  V30 8207 H 785.143 -3.6778 -1.19478 0
M  V30 8208 H 786.832 -3.96107 -0.886219 0
M  V30 8209 H 787.598 -4.60851 1.51134 0
M  V30 8210 H 783.477 -4.60117 0.285144 0
M  V30 8211 H 787.021 -6.09203 3.39878 0
M  V30 8212 H 782.918 -6.0814 2.16417 0
M  V30 8213 H 783.686 -7.18343 3.92333 0
M  V30 8214 N 786.349 -0.21828 -1.56081 0
M  V30 8215 C 787.279 0.687922 -2.23136 0
M  V30 8216 C 788.26 1.20357 -1.202 0
M  V30 8217 O 789.445 1.24817 -1.48776 0
M  V30 8218 C 786.575 1.89762 -2.90874 0
M  V30 8219 C 785.529 1.51595 -4.00254 0
M  V30 8220 C 784.855 2.80415 -4.55271 0
M  V30 8221 C 786.155 0.708404 -5.17474 0
M  V30 8222 H 787.849 0.128854 -2.99123 0
M  V30 8223 H 785.395 0.0605354 -1.43873 0
M  V30 8224 H 787.348 2.53699 -3.36474 0
M  V30 8225 H 786.072 2.4816 -2.1233 0
M  V30 8226 H 784.731 0.900058 -3.55379 0
M  V30 8227 H 784.379 3.36951 -3.73461 0
M  V30 8228 H 784.079 2.55613 -5.2909 0
M  V30 8229 H 785.603 3.453 -5.03587 0
M  V30 8230 H 787.017 1.2514 -5.59476 0
M  V30 8231 H 785.414 0.557593 -5.97504 0
M  V30 8232 H 786.484 -0.285679 -4.84058 0
M  V30 8233 N 787.827 1.57504 0.0551401 0
M  V30 8234 C 788.737 2.08198 1.08124 0
M  V30 8235 C 789.753 1.01496 1.41331 0
M  V30 8236 O 790.929 1.33073 1.51174 0
M  V30 8237 C 787.994 2.52968 2.37083 0
M  V30 8238 C 787.055 3.7404 2.10696 0
M  V30 8239 C 786.288 4.16665 3.33505 0
M  V30 8240 O 786.511 3.59019 4.4324 0
M  V30 8241 O 785.445 5.09324 3.20737 0
M  V30 8242 H 789.271 2.95977 0.680518 0
M  V30 8243 H 786.856 1.46933 0.270401 0
M  V30 8244 H 788.738 2.82211 3.12946 0
M  V30 8245 H 787.413 1.6831 2.76502 0
M  V30 8246 H 786.32 3.49855 1.32484 0
M  V30 8247 H 787.653 4.59601 1.76148 0
M  V30 8248 N 789.305 -0.326896 1.54172 0
M  V30 8249 C 790.235 -1.40741 1.86317 0
M  V30 8250 C 791.216 -1.54125 0.719684 0
M  V30 8251 O 792.401 -1.6806 0.973117 0
M  V30 8252 C 789.531 -2.77557 2.08757 0
M  V30 8253 C 788.485 -2.78965 3.24596 0
M  V30 8254 C 787.811 -4.18824 3.32401 0
M  V30 8255 C 789.111 -2.4301 4.62324 0
M  V30 8256 H 790.805 -1.14088 2.76811 0
M  V30 8257 H 788.351 -0.547389 1.3319 0
M  V30 8258 H 790.304 -3.53209 2.29829 0
M  V30 8259 H 789.028 -3.0568 1.15009 0
M  V30 8260 H 787.687 -2.05767 3.03406 0
M  V30 8261 H 787.335 -4.44083 2.36218 0
M  V30 8262 H 787.035 -4.20673 4.10253 0
M  V30 8263 H 788.559 -4.96294 3.55703 0
M  V30 8264 H 789.973 -3.08375 4.83299 0
M  V30 8265 H 788.37 -2.56116 5.42701 0
M  V30 8266 H 789.44 -1.38165 4.64799 0
M  V30 8267 N 790.784 -1.46188 -0.588786 0
M  V30 8268 C 792.032 -1.50885 -1.34455 0
M  V30 8269 C 792.353 -0.159555 -1.94346 0
M  V30 8270 O 791.623 0.813239 -1.78222 0
M  V30 8271 H 790.203 -0.555707 -0.499198 0
M  V30 8272 H 792.865 -1.82277 -0.690014 0
M  V30 8273 H 791.961 -2.25816 -2.15438 0
M  V30 8274 N 792.262 0.832906 -1.33792 0
M  V30 8275 C 793.51 1.58539 -1.25338 0
M  V30 8276 C 793.831 1.94175 0.179204 0
M  V30 8277 O 793.101 1.61458 1.10941 0
M  V30 8278 H 791.681 0.58784 -0.460926 0
M  V30 8279 H 794.343 0.995064 -1.67584 0
M  V30 8280 H 793.439 2.51268 -1.85123 0
M  V30 8281 N 793.74 1.17359 1.05189 0
M  V30 8282 C 794.67 0.91365 2.14883 0
M  V30 8283 C 795.651 -0.144365 1.69486 0
M  V30 8284 O 796.836 0.00587861 1.94199 0
M  V30 8285 C 793.966 0.426196 3.44675 0
M  V30 8286 C 792.92 1.4234 4.03638 0
M  V30 8287 C 792.246 0.793902 5.28773 0
M  V30 8288 C 793.546 2.7966 4.41121 0
M  V30 8289 H 795.24 1.831 2.36885 0
M  V30 8290 H 792.786 0.881781 1.13845 0
M  V30 8291 H 794.739 0.231767 4.20762 0
M  V30 8292 H 793.463 -0.526693 3.22325 0
M  V30 8293 H 792.122 1.60457 3.2962 0
M  V30 8294 H 791.77 -0.165824 5.02727 0
M  V30 8295 H 791.47 1.45959 5.69183 0
M  V30 8296 H 792.994 0.609747 6.07548 0
M  V30 8297 H 794.408 2.6526 5.08242 0
M  V30 8298 H 792.805 3.42807 4.92548 0
M  V30 8299 H 793.875 3.34068 3.51464 0
M  V30 8300 N 795.218 -1.23913 0.973828 0
M  V30 8301 C 796.466 -1.91771 0.637817 0
M  V30 8302 C 796.787 -1.76434 -0.830435 0
M  V30 8303 O 796.057 -1.13965 -1.59339 0
M  V30 8304 H 794.637 -0.709761 0.232912 0
M  V30 8305 H 797.299 -1.50677 1.23622 0
M  V30 8306 H 796.395 -2.99327 0.883731 0
M  V30 8307 N 796.696 -0.74468 -1.38897 0
M  V30 8308 C 797.606 -0.112892 -2.34328 0
M  V30 8309 C 798.622 0.71087 -1.58816 0
M  V30 8310 O 799.798 0.637092 -1.91058 0
M  V30 8311 C 796.863 0.776417 -3.37894 0
M  V30 8312 C 795.924 -0.0606999 -4.29257 0
M  V30 8313 C 795.157 0.786258 -5.27877 0
M  V30 8314 O 795.38 2.02463 -5.33259 0
M  V30 8315 O 794.314 0.209781 -6.01534 0
M  V30 8316 H 798.14 -0.900801 -2.90033 0
M  V30 8317 H 795.725 -0.505462 -1.4059 0
M  V30 8318 H 797.607 1.28496 -4.01331 0
M  V30 8319 H 796.282 1.54297 -2.84559 0
M  V30 8320 H 795.189 -0.614984 -3.69011 0
M  V30 8321 H 796.522 -0.789702 -4.85824 0
M  V30 8322 N 798.174 1.49689 -0.493057 0
M  V30 8323 C 799.59 1.58907 -0.148526 0
M  V30 8324 C 799.79 1.4991 1.34645 0
M  V30 8325 O 798.846 1.36893 2.12171 0
M  V30 8326 C 800.159 2.91996 -0.718265 0
M  V30 8327 C 801.707 3.05443 -0.683658 0
M  V30 8328 C 802.182 4.41138 -1.23132 0
M  V30 8329 N 803.673 4.47608 -1.19167 0
M  V30 8330 C 804.408 5.51038 -1.5857 0
M  V30 8331 N 803.904 6.61612 -2.05528 0
M  V30 8332 N 805.697 5.41706 -1.50036 0
M  V30 8333 H 797.848 1.5378 -1.46511 0
M  V30 8334 H 800.111 0.727996 -0.607228 0
M  V30 8335 H 799.817 3.04123 -1.7664 0
M  V30 8336 H 799.691 3.76798 -0.17419 0
M  V30 8337 H 802.078 2.92949 0.355626 0
M  V30 8338 H 802.159 2.22344 -1.26479 0
M  V30 8339 H 801.803 4.54382 -2.26935 0
M  V30 8340 H 801.733 5.22864 -0.626201 0
M  V30 8341 H 804.224 3.68274 -0.847524 0
M  V30 8342 H 804.537 7.36622 -2.33685 0
M  V30 8343 H 802.882 6.62674 -2.09497 0
M  V30 8344 H 806.073 4.54212 -1.13176 0
M  V30 8345 H 806.246 6.22188 -1.81068 0
M  V30 8346 N 799.652 0.226554 1.55963 0
M  V30 8347 C 800.898 -0.404387 1.98727 0
M  V30 8348 C 801.231 -1.59059 1.11418 0
M  V30 8349 O 800.506 -1.93729 0.172971 0
M  V30 8350 C 800.789 -0.834081 3.50307 0
M  V30 8351 C 800.642 0.356104 4.48388 0
M  V30 8352 C 801.961 -1.68845 4.06423 0
M  V30 8353 H 799.08 -0.145515 0.722492 0
M  V30 8354 H 801.722 0.323791 1.87221 0
M  V30 8355 H 799.872 -1.45454 3.60244 0
M  V30 8356 H 801.544 0.99432 4.50456 0
M  V30 8357 H 799.787 1.0027 4.22053 0
M  V30 8358 H 800.458 0.0124333 5.51999 0
M  V30 8359 H 802.934 -1.16489 3.99461 0
M  V30 8360 H 801.81 -1.958 5.1279 0
M  V30 8361 H 802.071 -2.65347 3.53615 0
M  V30 8362 N 801.13 -1.57531 -0.0467866 0
M  V30 8363 C 802.06 -2.08425 -1.05268 0
M  V30 8364 C 803.041 -0.982941 -1.38825 0
M  V30 8365 O 804.226 -1.25716 -1.48018 0
M  V30 8366 C 801.356 -2.54897 -2.35891 0
M  V30 8367 C 800.31 -3.69132 -2.16623 0
M  V30 8368 C 799.636 -4.01747 -3.52851 0
M  V30 8369 C 800.936 -4.98243 -1.56689 0
M  V30 8370 H 802.63 -2.92716 -0.62908 0
M  V30 8371 H 800.176 -1.40816 -0.301156 0
M  V30 8372 H 802.129 -2.8912 -3.06574 0
M  V30 8373 H 800.853 -1.67666 -2.80278 0
M  V30 8374 H 799.512 -3.35231 -1.48377 0
M  V30 8375 H 799.16 -3.11608 -3.94853 0
M  V30 8376 H 798.86 -4.78681 -3.4079 0
M  V30 8377 H 800.384 -4.38487 -4.24925 0
M  V30 8378 H 801.798 -5.30535 -2.17268 0
M  V30 8379 H 800.195 -5.79669 -1.55255 0
M  V30 8380 H 801.265 -4.81986 -0.530827 0
M  V30 8381 N 802.608 0.318715 -1.54344 0
M  V30 8382 C 803.856 1.054 -1.72439 0
M  V30 8383 C 804.177 1.88388 -0.503495 0
M  V30 8384 O 803.447 1.89866 0.48246 0
M  V30 8385 H 802.027 0.392124 -0.635805 0
M  V30 8386 H 804.689 0.35398 -1.91659 0
M  V30 8387 H 803.785 1.71726 -2.60608 0
M  V30 8388 N 804.086 1.46499 0.581025 0
M  V30 8389 C 805.333 1.51896 1.33918 0
M  V30 8390 C 805.661 0.171361 1.93744 0
M  V30 8391 O 804.916 -0.833178 1.77078 0
M  V30 8392 C 805.215 2.56686 2.48691 0
M  V30 8393 C 804.881 4.00656 2.06847 0
M  V30 8394 C 803.543 4.39852 1.9515 0
M  V30 8395 C 805.895 4.91089 1.74589 0
M  V30 8396 C 803.223 5.67345 1.49456 0
M  V30 8397 C 805.575 6.1902 1.30373 0
M  V30 8398 C 804.239 6.57121 1.17255 0
M  V30 8399 H 803.509 0.555826 0.490039 0
M  V30 8400 H 806.156 1.79983 0.654092 0
M  V30 8401 H 804.461 2.22266 3.22653 0
M  V30 8402 H 806.158 2.58091 3.06904 0
M  V30 8403 H 802.748 3.69674 2.16886 0
M  V30 8404 H 806.932 4.61523 1.8251 0
M  V30 8405 H 802.188 5.95635 1.37944 0
M  V30 8406 H 806.362 6.8852 1.04467 0
M  V30 8407 H 803.989 7.55805 0.816236 0
M  V30 8408 N 805.565 -0.825799 1.34232 0
M  V30 8409 C 806.805 -1.59541 1.27773 0
M  V30 8410 C 807.169 -1.91405 -0.150998 0
M  V30 8411 O 808.37 -2.66644 -0.339728 0
M  V30 8412 C 806.641 -2.86183 2.14089 0
M  V30 8413 S 808.2 -3.76751 2.24953 0
M  V30 8414 H 805.018 -0.546871 0.454371 0
M  V30 8415 H 807.62 -0.975677 1.69413 0
M  V30 8416 H 806.324 -2.60767 3.16905 0
M  V30 8417 H 805.855 -3.53155 1.73335 0
M  V30 8418 H 807.87 -4.75442 1.4202 0
M  V30 8419 N 807.043 -1.17915 -1.04565 0
M  V30 8420 C 807.993 -0.869634 -2.10764 0
M  V30 8421 C 808.977 0.158502 -1.60117 0
M  V30 8422 O 810.169 -0.04483 -1.76943 0
M  V30 8423 C 807.298 -0.391642 -3.41059 0
M  V30 8424 C 806.384 -1.45156 -3.98485 0
M  V30 8425 N 806.775 -2.6667 -4.29792 0
M  V30 8426 C 805.073 -1.3109 -4.263 0
M  V30 8427 C 805.774 -3.34823 -4.75677 0
M  V30 8428 N 804.75 -2.62203 -4.76183 0
M  V30 8429 H 808.552 -1.79342 -2.32838 0
M  V30 8430 H 806.066 -1.0688 -1.22272 0
M  V30 8431 H 808.063 -0.151428 -4.16625 0
M  V30 8432 H 806.723 0.525862 -3.20413 0
M  V30 8433 H 807.734 -3.0358 -4.19594 0
M  V30 8434 H 804.411 -0.455545 -4.15007 0
M  V30 8435 H 805.801 -4.38645 -5.0896 0
M  V30 8436 N 808.521 1.23394 -0.980386 0
M  V30 8437 C 809.751 1.9556 -0.666319 0
M  V30 8438 C 810.159 1.72786 0.770815 0
M  V30 8439 O 809.502 1.0162 1.53033 0
M  V30 8440 C 809.564 3.48643 -0.876825 0
M  V30 8441 C 809.228 3.95135 -2.29602 0
M  V30 8442 C 810.225 4.03806 -3.2747 0
M  V30 8443 C 807.91 4.28122 -2.62711 0
M  V30 8444 C 809.904 4.44818 -4.56526 0
M  V30 8445 C 807.591 4.68814 -3.9199 0
M  V30 8446 C 808.589 4.77129 -4.88709 0
M  V30 8447 O 808.277 5.16908 -6.15679 0
M  V30 8448 H 808.009 0.629422 -0.246585 0
M  V30 8449 H 810.563 1.57839 -1.31438 0
M  V30 8450 H 808.793 3.86319 -0.171587 0
M  V30 8451 H 810.482 4.0202 -0.55992 0
M  V30 8452 H 811.248 3.78526 -3.03222 0
M  V30 8453 H 807.127 4.20861 -1.8814 0
M  V30 8454 H 810.671 4.51223 -5.32018 0
M  V30 8455 H 806.568 4.93545 -4.16033 0
M  V30 8456 H 807.336 5.3502 -6.19432 0
M  V30 8457 N 809.999 0.752036 1.385 0
M  V30 8458 C 811.229 0.317812 2.04141 0
M  V30 8459 C 811.637 -1.05822 1.56839 0
M  V30 8460 O 810.98 -1.68311 0.736016 0
M  V30 8461 C 811.042 0.260205 3.58557 0
M  V30 8462 C 810.706 1.57753 4.28909 0
M  V30 8463 C 811.703 2.52642 4.54387 0
M  V30 8464 C 809.388 1.84653 4.67128 0
M  V30 8465 C 811.382 3.72653 5.17116 0
M  V30 8466 C 809.069 3.04938 5.29581 0
M  V30 8467 C 810.067 3.98759 5.54509 0
M  V30 8468 O 809.755 5.16929 6.15662 0
M  V30 8469 H 809.487 0.133931 0.6626 0
M  V30 8470 H 812.041 1.02138 1.78205 0
M  V30 8471 H 810.271 -0.499596 3.83459 0
M  V30 8472 H 811.96 -0.144295 4.05643 0
M  V30 8473 H 812.726 2.33135 4.25292 0
M  V30 8474 H 808.605 1.12464 4.47071 0
M  V30 8475 H 812.149 4.45898 5.36489 0
M  V30 8476 H 808.046 3.24339 5.58099 0
M  V30 8477 H 808.814 5.1749 6.3415 0
M  V30 8478 N 811.477 -1.49425 0.500989 0
M  V30 8479 C 812.407 -2.31971 -0.266775 0
M  V30 8480 C 813.388 -1.40245 -0.962563 0
M  V30 8481 O 814.573 -1.69154 -0.953968 0
M  V30 8482 C 811.703 -3.20757 -1.33163 0
M  V30 8483 C 810.657 -4.21275 -0.75572 0
M  V30 8484 C 809.983 -4.98997 -1.92109 0
M  V30 8485 C 811.283 -5.21686 0.253213 0
M  V30 8486 H 812.977 -2.96408 0.422237 0
M  V30 8487 H 810.523 -1.4254 0.204505 0
M  V30 8488 H 812.476 -3.77315 -1.87646 0
M  V30 8489 H 811.2 -2.54263 -2.04983 0
M  V30 8490 H 809.859 -3.65861 -0.232637 0
M  V30 8491 H 809.507 -4.28951 -2.62698 0
M  V30 8492 H 809.207 -5.67011 -1.54182 0
M  V30 8493 H 810.731 -5.584 -2.47026 0
M  V30 8494 H 812.145 -5.72939 -0.203483 0
M  V30 8495 H 810.542 -5.9759 0.548322 0
M  V30 8496 H 811.612 -4.70596 1.16909 0
M  V30 8497 N 812.955 -0.234822 -1.55841 0
M  V30 8498 C 814.366 0.270588 -1.84729 0
M  V30 8499 C 814.717 1.58494 -1.15646 0
M  V30 8500 O 813.842 2.12071 -0.430667 0
M  V30 8501 C 814.437 0.497733 -3.35124 0
M  V30 8502 C 812.996 0.947428 -3.64281 0
M  V30 8503 C 812.143 0.01787 -2.77294 0
M  V30 8504 H 815.094 -0.457691 -1.51957 0
M  V30 8505 H 815.115 1.34199 -3.56049 0
M  V30 8506 H 814.627 -0.459037 -3.85376 0
M  V30 8507 H 812.728 1.91709 -3.19497 0
M  V30 8508 H 812.841 0.812651 -4.72158 0
M  V30 8509 H 811.205 0.527071 -2.49187 0
M  V30 8510 H 811.988 -0.934056 -3.30349 0
M  V30 8511 N 814.433 1.57553 0.0384317 0
M  V30 8512 C 815.343 2.09333 1.0591 0
M  V30 8513 C 816.359 1.0299 1.40247 0
M  V30 8514 O 817.535 1.34669 1.49754 0
M  V30 8515 C 814.6 2.55468 2.34386 0
M  V30 8516 C 813.661 3.76254 2.06716 0
M  V30 8517 C 812.894 4.20179 3.29067 0
M  V30 8518 O 813.117 3.637 4.39407 0
M  V30 8519 O 812.051 5.12697 3.15317 0
M  V30 8520 H 815.877 2.96683 0.649087 0
M  V30 8521 H 813.462 1.47211 0.254802 0
M  V30 8522 H 815.344 2.85514 3.09935 0
M  V30 8523 H 814.019 1.71234 2.74701 0
M  V30 8524 H 812.926 3.51241 1.28766 0
M  V30 8525 H 814.259 4.61443 1.71263 0
M  V30 8526 N 815.911 -0.310526 1.54511 0
M  V30 8527 C 816.821 -1.4054 1.87844 0
M  V30 8528 C 817.837 -1.55954 0.771635 0
M  V30 8529 O 819.013 -1.70801 1.06719 0
M  V30 8530 C 816.078 -2.75063 2.11048 0
M  V30 8531 C 815.139 -2.68715 3.348 0
M  V30 8532 C 814.372 -3.96821 3.56887 0
M  V30 8533 O 814.595 -4.95721 2.82165 0
M  V30 8534 O 813.529 -3.99291 4.50389 0
M  V30 8535 H 817.355 -1.15275 2.80972 0
M  V30 8536 H 814.94 -0.505732 1.4058 0
M  V30 8537 H 816.822 -3.54671 2.27566 0
M  V30 8538 H 815.497 -3.00191 1.21108 0
M  V30 8539 H 814.404 -1.87611 3.23655 0
M  V30 8540 H 815.737 -2.4854 4.2484 0
M  V30 8541 N 817.389 -1.46805 -0.573248 0
M  V30 8542 C 818.321 -1.54127 -1.6964 0
M  V30 8543 C 819.334 -0.428778 -1.57052 0
M  V30 8544 O 820.523 -0.697612 -1.64303 0
M  V30 8545 C 817.623 -1.41438 -3.07975 0
M  V30 8546 C 816.796 -2.66974 -3.46474 0
M  V30 8547 C 815.855 -2.48349 -4.63906 0
M  V30 8548 O 814.881 -3.22109 -4.69292 0
M  V30 8549 N 816.083 -1.55129 -5.59388 0
M  V30 8550 H 818.848 -2.50971 -1.6381 0
M  V30 8551 H 816.409 -1.42981 -0.759479 0
M  V30 8552 H 818.401 -1.26737 -3.84343 0
M  V30 8553 H 816.971 -0.527388 -3.08119 0
M  V30 8554 H 816.191 -2.9655 -2.59715 0
M  V30 8555 H 817.479 -3.50347 -3.68964 0
M  V30 8556 H 816.877 -0.94324 -5.57781 0
M  V30 8557 H 815.434 -1.46387 -6.35149 0
M  V30 8558 N 818.867 0.818669 -1.34668 0
M  V30 8559 C 820.114 1.57512 -1.27264 0
M  V30 8560 C 820.442 1.93871 0.156254 0
M  V30 8561 O 819.697 1.60582 1.11857 0
M  V30 8562 C 819.996 2.88245 -2.11304 0
M  V30 8563 C 819.662 2.71159 -3.60255 0
M  V30 8564 C 818.324 2.66207 -4.00858 0
M  V30 8565 C 820.676 2.54538 -4.54819 0
M  V30 8566 C 818.004 2.4256 -5.34211 0
M  V30 8567 C 820.356 2.32421 -5.88356 0
M  V30 8568 C 819.02 2.25884 -6.28118 0
M  V30 8569 H 818.29 0.576378 -0.465692 0
M  V30 8570 H 820.937 0.9469 -1.66451 0
M  V30 8571 H 819.242 3.55381 -1.64958 0
M  V30 8572 H 820.939 3.45869 -2.02919 0
M  V30 8573 H 817.529 2.75856 -3.28027 0
M  V30 8574 H 821.713 2.57384 -4.24343 0
M  V30 8575 H 816.969 2.35959 -5.64033 0
M  V30 8576 H 821.143 2.18548 -6.61218 0
M  V30 8577 H 818.77 2.07322 -7.31383 0
M  V30 8578 N 820.346 1.18468 1.03938 0
M  V30 8579 C 821.757 0.984808 1.58614 0
M  V30 8580 C 822.108 -0.465165 1.90606 0
M  V30 8581 O 821.233 -1.34274 1.69704 0
M  V30 8582 C 821.828 1.78135 2.8819 0
M  V30 8583 C 820.387 1.62579 3.39478 0
M  V30 8584 C 819.534 1.77501 2.13046 0
M  V30 8585 H 822.485 1.32993 0.865944 0
M  V30 8586 H 822.506 1.27119 3.58638 0
M  V30 8587 H 822.018 2.83661 2.64874 0
M  V30 8588 H 820.119 0.59595 3.67803 0
M  V30 8589 H 820.232 2.42463 4.13217 0
M  V30 8590 H 818.596 1.2046 2.24414 0
M  V30 8591 H 819.379 2.84464 1.92185 0
M  V30 8592 N 821.824 -1.22873 0.986916 0
M  V30 8593 C 822.771 -2.2458 0.532215 0
M  V30 8594 C 823.741 -1.60375 -0.432322 0
M  V30 8595 O 824.926 -1.87775 -0.338416 0
M  V30 8596 C 822.066 -3.44761 -0.152864 0
M  V30 8597 C 821.179 -4.23501 0.852704 0
M  V30 8598 C 820.314 -5.31011 0.14176 0
M  V30 8599 C 819.353 -6.01464 1.1361 0
M  V30 8600 N 818.49 -7.00631 0.453871 0
M  V30 8601 H 823.33 -2.62838 1.40428 0
M  V30 8602 H 820.867 -1.29185 0.703543 0
M  V30 8603 H 822.825 -4.1333 -0.566926 0
M  V30 8604 H 821.455 -3.07284 -0.988756 0
M  V30 8605 H 820.507 -3.54286 1.38512 0
M  V30 8606 H 821.819 -4.72097 1.61014 0
M  V30 8607 H 820.973 -6.05805 -0.329337 0
M  V30 8608 H 819.712 -4.83373 -0.648229 0
M  V30 8609 H 818.717 -5.25456 1.61789 0
M  V30 8610 H 819.942 -6.5119 1.92686 0
M  V30 8611 H 817.888 -6.55235 -0.316791 0
M  V30 8612 H 817.805 -7.47204 1.14986 0
M  V30 8613 H 819.073 -7.795 0.00537823 0
M  V30 8614 N 823.302 -0.75937 -1.38099 0
M  V30 8615 C 824.55 -0.317485 -1.99591 0
M  V30 8616 C 824.871 1.10628 -1.60581 0
M  V30 8617 O 824.141 1.7575 -0.865378 0
M  V30 8618 H 822.721 -0.114397 -0.738189 0
M  V30 8619 H 825.383 -0.974749 -1.68774 0
M  V30 8620 H 824.479 -0.385227 -3.09713 0
M  V30 8621 N 824.78 1.49157 -0.508906 0
M  V30 8622 C 826.027 2.02473 0.0327983 0
M  V30 8623 C 826.355 1.38792 1.36261 0
M  V30 8624 O 825.61 0.515576 1.88786 0
M  V30 8625 C 825.909 3.56687 0.225717 0
M  V30 8626 C 825.575 4.39046 -1.02708 0
M  V30 8627 C 824.237 4.61271 -1.37048 0
M  V30 8628 C 826.589 4.86902 -1.85946 0
M  V30 8629 C 823.917 5.28598 -2.54562 0
M  V30 8630 C 826.269 5.55521 -3.0262 0
M  V30 8631 C 824.933 5.7599 -3.3733 0
M  V30 8632 H 824.203 0.740903 0.0120017 0
M  V30 8633 H 826.85 1.79372 -0.670665 0
M  V30 8634 H 825.155 3.78511 1.01177 0
M  V30 8635 H 826.852 3.95541 0.659433 0
M  V30 8636 H 823.442 4.21994 -0.749615 0
M  V30 8637 H 827.626 4.69553 -1.6073 0
M  V30 8638 H 822.882 5.42646 -2.81682 0
M  V30 8639 H 827.056 5.91576 -3.67438 0
M  V30 8640 H 824.683 6.27934 -4.2849 0
M  V30 8641 N 826.258 0.243083 1.55714 0
M  V30 8642 C 827.221 -0.644723 2.19945 0
M  V30 8643 C 828.221 -1.10562 1.16759 0
M  V30 8644 O 829.411 -1.01095 1.41865 0
M  V30 8645 C 826.543 -1.88569 2.83997 0
M  V30 8646 H 827.736 -0.0843839 2.99781 0
M  V30 8647 H 825.289 -0.00647246 1.56299 0
M  V30 8648 H 826.024 -2.48736 2.08089 0
M  V30 8649 H 825.809 -1.56345 3.59581 0
M  V30 8650 H 827.299 -2.51774 3.33166 0
M  V30 8651 N 827.736 -1.57571 -0.0300757 0
M  V30 8652 C 828.983 -1.89226 -0.721091 0
M  V30 8653 C 829.311 -0.840244 -1.75414 0
M  V30 8654 O 828.566 0.158906 -1.95054 0
M  V30 8655 C 828.865 -3.27624 -1.42818 0
M  V30 8656 C 828.531 -4.4776 -0.531208 0
M  V30 8657 C 827.193 -4.8036 -0.28415 0
M  V30 8658 C 829.545 -5.21125 0.0881582 0
M  V30 8659 C 826.873 -5.83715 0.591065 0
M  V30 8660 C 829.225 -6.2541 0.95107 0
M  V30 8661 C 827.889 -6.56486 1.2076 0
M  V30 8662 H 827.159 -0.692428 -0.263866 0
M  V30 8663 H 829.806 -1.91491 0.0189874 0
M  V30 8664 H 828.111 -3.21343 -2.24155 0
M  V30 8665 H 829.808 -3.49365 -1.96838 0
M  V30 8666 H 826.398 -4.2227 -0.73392 0
M  V30 8667 H 830.582 -4.96219 -0.0897496 0
M  V30 8668 H 825.838 -6.06168 0.798132 0
M  V30 8669 H 830.012 -6.81402 1.43751 0
M  V30 8670 H 827.639 -7.36395 1.88751 0
M  V30 8671 N 829.214 0.302327 -1.54673 0
M  V30 8672 C 830.491 1.05721 -1.64567 0
M  V30 8673 C 830.871 2.0526 -0.493108 0
M  V30 8674 O 830.219 2.22729 0.510315 0
M  V30 8675 C 830.429 1.74025 -3.02517 0
M  V30 8676 C 831.777 2.26271 -3.59286 0
M  V30 8677 O 832.801 1.8406 -3.0496 0
M  V30 8678 O 831.66 3.0361 -4.54404 0
M  V30 8679 H 828.754 0.488577 -0.667249 0
M  V30 8680 H 831.3 0.300521 -1.67018 0
M  V30 8681 H 830.072 1.0174 -3.77842 0
M  V30 8682 H 829.695 2.56454 -3.03838 0
M  V30 8683 N 830.692 1.47107 0.565454 0
M  V30 8684 C 831.932 1.5488 1.33385 0
M  V30 8685 C 832.296 0.202804 1.90926 0
M  V30 8686 O 833.497 0.155345 2.68351 0
M  V30 8687 C 831.768 2.62969 2.42037 0
M  V30 8688 S 833.327 2.90269 3.29074 0
M  V30 8689 H 830.145 0.547008 0.454206 0
M  V30 8690 H 832.747 1.8444 0.648228 0
M  V30 8691 H 831.451 3.59376 1.98185 0
M  V30 8692 H 830.982 2.35197 3.15351 0
M  V30 8693 H 832.997 2.26854 4.41307 0
M  V30 8694 N 832.17 -0.811516 1.35101 0
M  V30 8695 C 833.447 -1.55491 1.18667 0
M  V30 8696 C 833.827 -2.09775 -0.236189 0
M  V30 8697 O 833.175 -1.91989 -1.23905 0
M  V30 8698 C 833.385 -2.66732 2.25067 0
M  V30 8699 C 834.733 -3.35201 2.60625 0
M  V30 8700 O 835.757 -2.76998 2.23943 0
M  V30 8701 O 834.616 -4.40334 3.23679 0
M  V30 8702 H 831.71 -0.686783 0.460716 0
M  V30 8703 H 834.256 -0.851903 1.46768 0
M  V30 8704 H 833.028 -2.24457 3.20523 0
M  V30 8705 H 832.651 -3.44673 1.98208 0
M  V30 8706 N 833.648 -1.19017 -1.03309 0
M  V30 8707 C 834.925 -0.899659 -1.73682 0
M  V30 8708 C 835.305 0.595677 -2.02521 0
M  V30 8709 O 834.653 1.55263 -1.67648 0
M  V30 8710 C 834.863 -1.75508 -3.01659 0
M  V30 8711 C 836.211 -1.98679 -3.75249 0
M  V30 8712 O 837.235 -1.72624 -3.11576 0
M  V30 8713 O 836.094 -2.42587 -4.89708 0
M  V30 8714 H 833.188 -0.334903 -0.756154 0
M  V30 8715 H 835.734 -1.29809 -1.09305 0
M  V30 8716 H 834.506 -2.7684 -2.76542 0
M  V30 8717 H 834.129 -1.35565 -3.73775 0
M  V30 8718 N 835.127 1.22348 -0.993418 0
M  V30 8719 C 836.373 1.91393 -0.67056 0
M  V30 8720 C 836.706 1.77163 0.795428 0
M  V30 8721 O 835.981 1.14084 1.57528 0
M  V30 8722 C 836.264 3.43589 -1.0779 0
M  V30 8723 C 836.117 3.66867 -2.60248 0
M  V30 8724 C 837.436 4.35545 -0.631527 0
M  V30 8725 H 834.555 0.695057 -0.24508 0
M  V30 8726 H 837.197 1.44213 -1.23703 0
M  V30 8727 H 835.347 3.83903 -0.595902 0
M  V30 8728 H 837.019 3.35954 -3.16121 0
M  V30 8729 H 835.262 3.1113 -3.02293 0
M  V30 8730 H 835.933 4.73457 -2.838 0
M  V30 8731 H 838.409 4.0275 -1.04554 0
M  V30 8732 H 837.285 5.40707 -0.944831 0
M  V30 8733 H 837.546 4.39618 0.467779 0
M  V30 8734 N 836.605 0.766683 1.37694 0
M  V30 8735 C 837.553 0.137269 2.32195 0
M  V30 8736 C 838.547 -0.69067 1.54681 0
M  V30 8737 O 839.753 -0.588299 1.70115 0
M  V30 8738 H 836.128 0.0256003 0.751564 0
M  V30 8739 H 838.099 0.950129 2.82869 0
M  V30 8740 C 836.848 -0.731446 3.39919 0
M  V30 8741 H 836.171 -0.103738 3.99665 0
M  V30 8742 H 837.611 -1.13891 4.08417 0
M  V30 8743 C 836.07 -1.87984 2.79578 0
M  V30 8744 O 836.6 -2.97496 2.69924 0
M  V30 8745 N 834.806 -1.6789 2.37195 0
M  V30 8746 H 834.353 -0.788162 2.45246 0
M  V30 8747 H 834.311 -2.44894 1.97165 0
M  V30 8748 N 838.083 -1.48885 0.516809 0
M  V30 8749 C 839.33 -2.02488 -0.0220602 0
M  V30 8750 C 839.658 -1.39513 -1.35523 0
M  V30 8751 O 838.913 -0.52558 -1.8851 0
M  V30 8752 C 839.212 -3.56801 -0.206798 0
M  V30 8753 C 838.878 -4.38496 1.05035 0
M  V30 8754 C 837.54 -4.60538 1.39492 0
M  V30 8755 C 839.892 -4.85909 1.88525 0
M  V30 8756 C 837.22 -5.2724 2.57361 0
M  V30 8757 C 839.572 -5.53909 3.05561 0
M  V30 8758 C 838.236 -5.74193 3.4038 0
M  V30 8759 H 837.506 -0.740956 -0.00807238 0
M  V30 8760 H 840.153 -1.79014 0.680168 0
M  V30 8761 H 838.458 -3.79042 -0.991687 0
M  V30 8762 H 840.155 -3.95885 -0.638447 0
M  V30 8763 H 836.745 -4.2159 0.771984 0
M  V30 8764 H 840.929 -4.68694 1.63218 0
M  V30 8765 H 836.185 -5.41145 2.84556 0
M  V30 8766 H 840.359 -5.89619 3.7057 0
M  V30 8767 H 837.986 -6.25652 4.31814 0
M  V30 8768 N 839.561 -0.251338 -1.55583 0
M  V30 8769 C 840.789 0.376187 -2.03451 0
M  V30 8770 C 841.204 1.51215 -1.13047 0
M  V30 8771 O 840.561 1.81917 -0.145769 0
M  V30 8772 C 840.612 0.879779 -3.50631 0
M  V30 8773 O 840.333 -0.210917 -4.37592 0
M  V30 8774 C 841.834 1.57754 -4.14281 0
M  V30 8775 H 839.054 0.0888722 -0.665089 0
M  V30 8776 H 841.598 -0.376497 -2.01004 0
M  V30 8777 H 839.753 1.58263 -3.53598 0
M  V30 8778 H 840.167 0.172203 -5.24217 0
M  V30 8779 H 841.641 1.88158 -5.18942 0
M  V30 8780 H 842.118 2.50103 -3.61034 0
M  V30 8781 H 842.724 0.919154 -4.15249 0
M  V30 8782 N 841.039 1.57585 0.0217189 0
M  V30 8783 C 842.267 1.93871 0.722619 0
M  V30 8784 C 842.682 0.851706 1.68498 0
M  V30 8785 O 842.039 -0.17127 1.81695 0
M  V30 8786 C 842.09 3.30114 1.47333 0
M  V30 8787 O 841.811 4.34639 0.549597 0
M  V30 8788 C 843.312 3.80727 2.27072 0
M  V30 8789 H 840.532 0.639671 0.202637 0
M  V30 8790 H 843.076 2.04487 -0.0229414 0
M  V30 8791 H 841.231 3.20872 2.17071 0
M  V30 8792 H 841.645 5.13326 1.07686 0
M  V30 8793 H 843.119 4.78547 2.75131 0
M  V30 8794 H 843.596 3.12301 3.08812 0
M  V30 8795 H 844.202 3.93075 1.62395 0
M  V30 8796 N 842.517 -0.29412 1.54831 0
M  V30 8797 C 843.794 -1.04847 1.65126 0
M  V30 8798 C 844.174 -2.04996 0.503986 0
M  V30 8799 O 843.522 -2.22996 -0.498496 0
M  V30 8800 C 843.732 -1.72418 3.03435 0
M  V30 8801 C 845.08 -2.24362 3.60481 0
M  V30 8802 O 846.104 -1.8244 3.05932 0
M  V30 8803 O 844.963 -3.01196 4.56008 0
M  V30 8804 H 842.057 -0.485032 0.669831 0
M  V30 8805 H 844.603 -0.291659 1.67175 0
M  V30 8806 H 843.375 -0.997351 3.78376 0
M  V30 8807 H 842.998 -2.54839 3.05193 0
M  V30 8808 N 843.995 -1.47404 -0.557645 0
M  V30 8809 C 844.943 -1.60265 -1.68576 0
M  V30 8810 C 845.937 -0.469982 -1.6275 0
M  V30 8811 O 847.143 -0.647764 -1.67941 0
M  V30 8812 H 843.518 -0.504353 -0.557792 0
M  V30 8813 H 845.489 -2.55066 -1.54867 0
M  V30 8814 C 844.238 -1.63369 -3.0693 0
M  V30 8815 H 843.561 -2.49874 -3.12095 0
M  V30 8816 H 845.001 -1.76417 -3.85556 0
M  V30 8817 C 843.46 -0.366921 -3.34896 0
M  V30 8818 O 843.99 0.53218 -3.98159 0
M  V30 8819 N 842.196 -0.247082 -2.89548 0
M  V30 8820 H 841.743 -0.979669 -2.38244 0
M  V30 8821 H 841.701 0.599552 -3.0863 0
M  V30 8822 N 845.473 0.80434 -1.35529 0
M  V30 8823 C 846.403 1.93086 -1.31301 0
M  V30 8824 C 847.384 1.69068 -0.187044 0
M  V30 8825 O 848.569 1.90399 -0.382359 0
M  V30 8826 C 845.699 3.29867 -1.0865 0
M  V30 8827 C 844.653 3.68373 -2.17911 0
M  V30 8828 C 843.979 5.0334 -1.80423 0
M  V30 8829 C 845.279 3.78516 -3.59893 0
M  V30 8830 H 846.973 1.96882 -2.25561 0
M  V30 8831 H 844.519 0.945841 -1.08581 0
M  V30 8832 H 846.472 4.08281 -1.04331 0
M  V30 8833 H 845.196 3.2642 -0.108359 0
M  V30 8834 H 843.855 2.92247 -2.21331 0
M  V30 8835 H 843.503 4.96399 -0.812213 0
M  V30 8836 H 843.203 5.30074 -2.53565 0
M  V30 8837 H 844.727 5.84191 -1.77633 0
M  V30 8838 H 846.141 4.47155 -3.58783 0
M  V30 8839 H 844.538 4.16721 -4.31814 0
M  V30 8840 H 845.608 2.8001 -3.95882 0
M  V30 8841 N 846.951 1.19563 1.02676 0
M  V30 8842 C 848.191 1.01072 1.77662 0
M  V30 8843 C 848.555 -0.450344 1.86644 0
M  V30 8844 O 849.756 -0.755132 2.57975 0
M  V30 8845 C 848.027 1.66383 3.16309 0
M  V30 8846 S 849.586 1.62858 4.07459 0
M  V30 8847 H 846.404 0.362644 0.611564 0
M  V30 8848 H 849.006 1.51947 1.23014 0
M  V30 8849 H 847.71 2.71917 3.07391 0
M  V30 8850 H 847.241 1.15596 3.76033 0
M  V30 8851 H 849.256 0.654265 4.91868 0
M  V30 8852 N 848.429 -1.21819 0.999893 0
M  V30 8853 C 849.676 -1.90752 0.679694 0
M  V30 8854 C 850.004 -1.77777 -0.789014 0
M  V30 8855 O 849.259 -1.14518 -1.58695 0
M  V30 8856 C 849.558 -3.4193 1.04012 0
M  V30 8857 C 849.224 -3.75098 2.50225 0
M  V30 8858 C 847.886 -3.83861 2.90179 0
M  V30 8859 C 850.238 -3.90706 3.44961 0
M  V30 8860 C 847.566 -4.05676 4.23844 0
M  V30 8861 C 849.918 -4.14027 4.78294 0
M  V30 8862 C 848.582 -4.21016 5.17979 0
M  V30 8863 H 847.852 -0.698012 0.248718 0
M  V30 8864 H 850.499 -1.44437 1.25738 0
M  V30 8865 H 848.804 -3.89947 0.380606 0
M  V30 8866 H 850.501 -3.93532 0.770301 0
M  V30 8867 H 847.091 -3.68865 2.18258 0
M  V30 8868 H 851.275 -3.83307 3.15261 0
M  V30 8869 H 846.531 -4.09316 4.5417 0
M  V30 8870 H 850.705 -4.25046 5.51642 0
M  V30 8871 H 848.332 -4.37672 6.21568 0
M  V30 8872 N 849.908 -0.773975 -1.37286 0
M  V30 8873 C 851.154 -0.339809 -1.99933 0
M  V30 8874 C 851.487 1.0815 -1.61299 0
M  V30 8875 O 850.762 1.74442 -0.860252 0
M  V30 8876 C 851.045 -0.485919 -3.56806 0
M  V30 8877 C 850.898 -1.9498 -4.05343 0
M  V30 8878 C 852.217 0.108461 -4.39966 0
M  V30 8879 H 849.336 -0.124944 -0.726332 0
M  V30 8880 H 851.978 -0.977433 -1.6293 0
M  V30 8881 H 850.128 0.0569023 -3.88458 0
M  V30 8882 H 851.8 -2.5525 -3.84246 0
M  V30 8883 H 850.043 -2.45784 -3.57453 0
M  V30 8884 H 850.714 -2.00308 -5.14374 0
M  V30 8885 H 853.19 -0.354722 -4.14585 0
M  V30 8886 H 852.066 -0.0238926 -5.48895 0
M  V30 8887 H 852.327 1.19901 -4.25531 0
M  V30 8888 N 851.386 1.48609 -0.524698 0
M  V30 8889 C 852.634 2.02097 0.0112991 0
M  V30 8890 C 852.955 1.40455 1.35268 0
M  V30 8891 O 852.225 0.56807 1.87483 0
M  V30 8892 H 850.805 0.746966 0.00716426 0
M  V30 8893 H 853.467 1.82378 -0.687329 0
M  V30 8894 H 852.563 3.11855 0.123531 0
M  V30 8895 N 852.864 0.259585 1.55447 0
M  V30 8896 C 853.794 -0.62852 2.24882 0
M  V30 8897 C 854.775 -1.17128 1.23349 0
M  V30 8898 O 855.96 -1.20829 1.52033 0
M  V30 8899 C 853.09 -1.81983 2.95803 0
M  V30 8900 C 852.044 -1.40929 4.04132 0
M  V30 8901 C 851.37 -2.68246 4.62545 0
M  V30 8902 C 852.67 -0.570956 5.1917 0
M  V30 8903 H 854.364 -0.0495021 2.99359 0
M  V30 8904 H 851.91 -0.0223688 1.43983 0
M  V30 8905 H 853.863 -2.44689 3.43082 0
M  V30 8906 H 852.587 -2.42444 2.18835 0
M  V30 8907 H 851.246 -0.805519 3.57641 0
M  V30 8908 H 850.894 -3.26931 3.82263 0
M  V30 8909 H 850.594 -2.41495 5.35681 0
M  V30 8910 H 852.118 -3.31827 5.12565 0
M  V30 8911 H 853.532 -1.10262 5.62597 0
M  V30 8912 H 851.929 -0.398979 5.98772 0
M  V30 8913 H 852.999 0.413918 4.8313 0
M  V30 8914 N 854.342 -1.57594 -0.0133615 0
M  V30 8915 C 855.275 -2.02991 -1.04259 0
M  V30 8916 C 856.253 -0.917193 -1.34262 0
M  V30 8917 O 857.437 -1.18428 -1.46653 0
M  V30 8918 C 854.564 -2.41624 -2.37351 0
M  V30 8919 C 853.61 -3.63495 -2.231 0
M  V30 8920 S 854.443 -5.1198 -1.5696 0
M  V30 8921 C 855.599 -5.5387 -2.91511 0
M  V30 8922 H 855.832 -2.89973 -0.655985 0
M  V30 8923 H 853.365 -1.52769 -0.223827 0
M  V30 8924 H 855.323 -2.64551 -3.13884 0
M  V30 8925 H 853.984 -1.55065 -2.73155 0
M  V30 8926 H 853.177 -3.88233 -3.21389 0
M  V30 8927 H 852.779 -3.405 -1.54711 0
M  V30 8928 H 855.071 -5.55514 -3.87828 0
M  V30 8929 H 856.014 -6.53988 -2.71488 0
M  V30 8930 H 856.422 -4.81404 -2.94806 0
M  V30 8931 N 855.82 0.285905 -1.54985 0
M  V30 8932 C 857.045 1.04207 -1.7932 0
M  V30 8933 C 857.47 1.79622 -0.558343 0
M  V30 8934 O 856.828 1.74506 0.491661 0
M  V30 8935 C 856.876 1.98648 -3.0095 0
M  V30 8936 O 855.98 3.07207 -2.75132 0
M  V30 8937 H 855.321 0.298596 -0.593074 0
M  V30 8938 H 857.851 0.318736 -2.02102 0
M  V30 8939 H 857.861 2.4084 -3.29333 0
M  V30 8940 H 856.536 1.43167 -3.90482 0
M  V30 8941 H 855.113 2.69423 -2.57809 0
M  V30 8942 N 857.298 1.47698 0.54982 0
M  V30 8943 C 858.231 1.55288 1.67215 0
M  V30 8944 C 859.209 0.404533 1.57487 0
M  V30 8945 O 860.393 0.613372 1.78241 0
M  V30 8946 C 857.52 1.46233 3.05505 0
M  V30 8947 C 856.566 2.65662 3.33655 0
M  V30 8948 S 857.399 4.278 3.22098 0
M  V30 8949 C 858.555 4.21311 4.62869 0
M  V30 8950 H 858.788 2.50238 1.60524 0
M  V30 8951 H 856.321 1.35987 0.731227 0
M  V30 8952 H 858.279 1.41696 3.85269 0
M  V30 8953 H 856.94 0.526543 3.09655 0
M  V30 8954 H 856.133 2.55411 4.3449 0
M  V30 8955 H 855.735 2.67359 2.61524 0
M  V30 8956 H 858.027 3.90021 5.53977 0
M  V30 8957 H 858.97 5.22257 4.78177 0
M  V30 8958 H 859.378 3.52063 4.41262 0
M  V30 8959 N 858.776 -0.797141 1.35954 0
M  V30 8960 C 860.025 -1.54983 1.29086 0
M  V30 8961 C 860.338 -1.95167 -0.130003 0
M  V30 8962 O 861.544 -2.69596 -0.32101 0
M  V30 8963 C 860 -2.79738 2.26439 0
M  V30 8964 C 859.608 -2.46753 3.73921 0
M  V30 8965 C 861.352 -3.57733 2.28533 0
M  V30 8966 C 859.259 -3.67858 4.63071 0
M  V30 8967 H 858.189 -0.581766 0.479651 0
M  V30 8968 H 860.84 -0.87541 1.61273 0
M  V30 8969 H 859.222 -3.48939 1.87236 0
M  V30 8970 H 860.396 -1.85499 4.21814 0
M  V30 8971 H 858.711 -1.81985 3.74527 0
M  V30 8972 H 861.308 -4.47699 2.92351 0
M  V30 8973 H 861.651 -3.95754 1.29169 0
M  V30 8974 H 862.184 -2.95504 2.66313 0
M  V30 8975 H 858.923 -3.34939 5.63468 0
M  V30 8976 H 858.443 -4.28305 4.19898 0
M  V30 8977 H 860.122 -4.34977 4.78961 0
M  V30 8978 N 860.254 -1.20106 -1.0204 0
M  V30 8979 C 861.531 -0.918029 -1.72718 0
M  V30 8980 C 861.911 0.574163 -2.03142 0
M  V30 8981 O 861.259 1.53476 -1.69285 0
M  V30 8982 C 861.469 -1.78698 -2.9978 0
M  V30 8983 C 862.817 -2.02648 -3.7312 0
M  V30 8984 O 863.841 -1.75919 -3.09727 0
M  V30 8985 O 862.7 -2.47767 -4.87107 0
M  V30 8986 H 859.794 -0.342904 -0.752559 0
M  V30 8987 H 862.34 -1.30961 -1.07923 0
M  V30 8988 H 861.112 -2.79757 -2.7359 0
M  V30 8989 H 860.735 -1.39522 -3.72316 0
M  V30 8990 N 861.732 1.21287 -1.00634 0
M  V30 8991 C 863.143 1.72136 -0.722914 0
M  V30 8992 C 863.494 1.8091 0.759338 0
M  V30 8993 O 862.619 1.46458 1.59308 0
M  V30 8994 C 863.214 3.12633 -1.30561 0
M  V30 8995 C 861.773 3.60833 -1.07127 0
M  V30 8996 C 860.92 2.38326 -1.4176 0
M  V30 8997 H 863.871 1.06445 -1.17708 0
M  V30 8998 H 863.892 3.74174 -0.690937 0
M  V30 8999 H 863.404 3.06215 -2.38441 0
M  V30 9000 H 861.505 3.72599 -0.00968671 0
M  V30 9001 H 861.618 4.46226 -1.74411 0
M  V30 9002 H 859.982 2.40575 -0.836412 0
M  V30 9003 H 860.765 2.34558 -2.50674 0
M  V30 9004 N 863.21 0.781244 1.36873 0
M  V30 9005 C 864.621 0.414093 1.8205 0
M  V30 9006 C 864.972 -1.06098 1.65039 0
M  V30 9007 O 864.097 -1.82251 1.16677 0
M  V30 9008 C 864.692 0.744837 3.30511 0
M  V30 9009 C 863.251 0.430621 3.73929 0
M  V30 9010 C 862.398 0.983746 2.59264 0
M  V30 9011 H 865.349 0.975091 1.2521 0
M  V30 9012 H 865.37 0.032936 3.80486 0
M  V30 9013 H 864.882 1.81847 3.42861 0
M  V30 9014 H 862.983 -0.635308 3.67144 0
M  V30 9015 H 863.096 0.945514 4.69677 0
M  V30 9016 H 861.46 0.407433 2.5142 0
M  V30 9017 H 862.243 2.06297 2.74402 0
M  V30 9018 N 864.689 -1.48329 0.532571 0
M  V30 9019 C 866.105 -1.58458 0.190605 0
M  V30 9020 C 866.305 -1.53427 -1.30623 0
M  V30 9021 O 865.361 -1.4247 -2.08467 0
M  V30 9022 C 866.674 -2.89989 0.79543 0
M  V30 9023 C 868.222 -3.03523 0.7644 0
M  V30 9024 C 868.697 -4.37718 1.34785 0
M  V30 9025 N 870.188 -4.44292 1.30993 0
M  V30 9026 C 870.923 -5.4664 1.73124 0
M  V30 9027 N 870.419 -6.5593 2.22997 0
M  V30 9028 N 872.212 -5.37538 1.64346 0
M  V30 9029 H 864.363 -1.49842 1.50537 0
M  V30 9030 H 866.626 -0.71164 0.626316 0
M  V30 9031 H 866.332 -2.99333 1.84642 0
M  V30 9032 H 866.206 -3.76203 0.27403 0
M  V30 9033 H 868.593 -2.93789 -0.277831 0
M  V30 9034 H 868.674 -2.18912 1.3233 0
M  V30 9035 H 868.318 -4.48206 2.38902 0
M  V30 9036 H 868.248 -5.21019 0.764609 0
M  V30 9037 H 870.739 -3.65897 0.944868 0
M  V30 9038 H 871.052 -7.30167 2.53133 0
M  V30 9039 H 869.397 -6.56886 2.26992 0
M  V30 9040 H 872.588 -4.51052 1.25178 0
M  V30 9041 H 872.761 -6.17169 1.97501 0
M  V30 9042 N 866.167 -0.267825 -1.55308 0
M  V30 9043 C 867.13 0.60965 -2.20943 0
M  V30 9044 C 868.13 1.0869 -1.18504 0
M  V30 9045 O 869.32 0.988248 -1.43455 0
M  V30 9046 C 866.452 1.84027 -2.86961 0
M  V30 9047 H 867.645 0.0366806 -2.99878 0
M  V30 9048 H 865.198 -0.0183941 -1.56289 0
M  V30 9049 H 865.933 2.45394 -2.1202 0
M  V30 9050 H 865.718 1.50605 -3.62023 0
M  V30 9051 H 867.208 2.46442 -3.37129 0
M  V30 9052 N 867.645 1.57599 0.00500368 0
M  V30 9053 C 868.608 2.07058 0.982832 0
M  V30 9054 C 869.608 0.979045 1.27559 0
M  V30 9055 O 870.798 1.24187 1.22161 0
M  V30 9056 C 867.93 2.50782 2.30914 0
M  V30 9057 H 869.123 2.94718 0.555119 0
M  V30 9058 H 866.676 1.54249 0.25237 0
M  V30 9059 H 867.411 1.66351 2.78385 0
M  V30 9060 H 867.196 3.30495 2.10987 0
M  V30 9061 H 868.686 2.89391 3.0107 0
M  V30 9062 N 869.123 -0.277682 1.55134 0
M  V30 9063 C 870.369 -1.0114 1.7578 0
M  V30 9064 C 870.702 -1.86109 0.554719 0
M  V30 9065 O 869.977 -1.89275 -0.447813 0
M  V30 9066 C 870.26 -1.89789 3.06027 0
M  V30 9067 C 870.113 -1.07844 4.3668 0
M  V30 9068 C 871.432 -2.88577 3.32282 0
M  V30 9069 H 868.551 -0.366277 0.639539 0
M  V30 9070 H 871.193 -0.284155 1.87863 0
M  V30 9071 H 869.343 -2.51796 2.95856 0
M  V30 9072 H 871.015 -0.479432 4.58802 0
M  V30 9073 H 869.258 -0.381764 4.32117 0
M  V30 9074 H 869.929 -1.73179 5.24131 0
M  V30 9075 H 872.405 -2.36702 3.42215 0
M  V30 9076 H 871.281 -3.47749 4.2469 0
M  V30 9077 H 871.542 -3.63458 2.51696 0
M  V30 9078 N 870.601 -1.47988 -0.541979 0
M  V30 9079 C 872.012 -1.49073 -1.12402 0
M  V30 9080 C 872.363 -0.253825 -1.94551 0
M  V30 9081 O 871.488 0.640056 -2.06718 0
M  V30 9082 C 872.083 -2.7011 -2.04514 0
M  V30 9083 C 870.642 -2.74105 -2.5796 0
M  V30 9084 C 869.789 -2.42409 -1.3466 0
M  V30 9085 H 872.74 -1.55277 -0.327818 0
M  V30 9086 H 872.761 -2.47946 -2.88623 0
M  V30 9087 H 872.273 -3.60117 -1.44697 0
M  V30 9088 H 870.374 -1.88276 -3.21532 0
M  V30 9089 H 870.487 -3.75213 -2.97913 0
M  V30 9090 H 868.851 -1.9331 -1.65841 0
M  V30 9091 H 869.634 -3.34642 -0.766133 0
M  V30 9092 N 872.079 0.78992 -1.36375 0
M  V30 9093 C 873.356 1.53584 -1.21126 0
M  V30 9094 C 873.736 2.10124 0.202785 0
M  V30 9095 O 873.084 1.93936 1.20835 0
M  V30 9096 C 873.294 2.63117 -2.29282 0
M  V30 9097 C 874.642 3.31013 -2.65924 0
M  V30 9098 O 875.666 2.734 -2.28321 0
M  V30 9099 O 874.525 4.35129 -3.30643 0
M  V30 9100 H 871.619 0.679366 -0.471583 0
M  V30 9101 H 874.165 0.828446 -1.48104 0
M  V30 9102 H 872.937 2.19329 -3.24053 0
M  V30 9103 H 872.56 3.41476 -2.03666 0
M  V30 9104 N 873.557 1.20646 1.01402 0
M  V30 9105 C 874.52 0.959314 2.08158 0
M  V30 9106 C 875.52 -0.0661558 1.60664 0
M  V30 9107 O 876.71 0.170177 1.73367 0
M  V30 9108 C 873.842 0.444785 3.37986 0
M  V30 9109 H 875.035 1.90631 2.31517 0
M  V30 9110 H 872.588 1.02219 1.18241 0
M  V30 9111 H 873.323 -0.507553 3.20304 0
M  V30 9112 H 873.108 1.18435 3.73785 0
M  V30 9113 H 874.598 0.291443 4.16582 0
M  V30 9114 N 875.035 -1.20752 1.01276 0
M  V30 9115 C 876.281 -1.90302 0.700924 0
M  V30 9116 C 876.614 -1.78406 -0.767142 0
M  V30 9117 O 875.889 -1.16575 -1.55694 0
M  V30 9118 C 876.172 -3.41831 1.13242 0
M  V30 9119 C 876.025 -3.6268 2.66051 0
M  V30 9120 C 877.344 -4.34486 0.700738 0
M  V30 9121 H 874.463 -0.69107 0.256107 0
M  V30 9122 H 877.105 -1.42227 1.25982 0
M  V30 9123 H 875.255 -3.82906 0.656902 0
M  V30 9124 H 876.927 -3.30882 3.21426 0
M  V30 9125 H 875.17 -3.06281 3.07204 0
M  V30 9126 H 875.841 -4.68882 2.91296 0
M  V30 9127 H 878.317 -4.01036 1.10948 0
M  V30 9128 H 877.193 -5.39136 1.03073 0
M  V30 9129 H 877.454 -4.40307 -0.39778 0
M  V30 9130 N 876.513 -0.788492 -1.36457 0
M  V30 9131 C 877.761 -0.359749 -1.98872 0
M  V30 9132 C 878.082 1.07197 -1.62892 0
M  V30 9133 O 877.352 1.73875 -0.902463 0
M  V30 9134 H 875.932 -0.130029 -0.735596 0
M  V30 9135 H 878.594 -1.01033 -1.66668 0
M  V30 9136 H 877.69 -0.450835 -3.08827 0
M  V30 9137 N 877.991 1.48044 -0.54043 0
M  V30 9138 C 878.938 2.29781 0.216597 0
M  V30 9139 C 879.908 1.38021 0.924094 0
M  V30 9140 O 881.093 1.66985 0.923078 0
M  V30 9141 C 878.233 3.21623 1.2511 0
M  V30 9142 C 877.346 4.28467 0.551384 0
M  V30 9143 C 876.481 5.07477 1.56972 0
M  V30 9144 C 875.52 6.06113 0.854048 0
M  V30 9145 N 874.657 6.78143 1.81842 0
M  V30 9146 H 879.497 2.94001 -0.486578 0
M  V30 9147 H 877.034 1.44929 -0.251789 0
M  V30 9148 H 878.992 3.73279 1.8633 0
M  V30 9149 H 877.622 2.59305 1.92252 0
M  V30 9150 H 876.674 3.79997 -0.174982 0
M  V30 9151 H 877.986 4.98799 -0.0100542 0
M  V30 9152 H 877.14 5.63199 2.25592 0
M  V30 9153 H 875.879 4.37008 2.16507 0
M  V30 9154 H 874.884 5.49585 0.153838 0
M  V30 9155 H 876.109 6.78584 0.264675 0
M  V30 9156 H 874.055 6.10417 2.40265 0
M  V30 9157 H 873.972 7.44587 1.3087 0
M  V30 9158 H 875.24 7.38448 2.49628 0
M  V30 9159 N 879.47 0.276058 1.55163 0
M  V30 9160 C 880.71 -0.341634 2.01525 0
M  V30 9161 C 881.074 -1.52979 1.16023 0
M  V30 9162 O 882.275 -2.21718 1.51968 0
M  V30 9163 C 880.546 -0.713294 3.5021 0
M  V30 9164 S 882.105 -1.31739 4.18558 0
M  V30 9165 H 878.923 -0.1062 0.703024 0
M  V30 9166 H 881.525 0.398112 1.91404 0
M  V30 9167 H 880.229 0.160311 4.10087 0
M  V30 9168 H 879.76 -1.48448 3.64317 0
M  V30 9169 H 881.775 -2.60595 4.22261 0
M  V30 9170 N 880.948 -1.576 0.00335426 0
M  V30 9171 C 882.364 -1.55653 -0.352766 0
M  V30 9172 C 882.564 -1.00632 -1.74572 0
M  V30 9173 O 881.62 -0.641621 -2.44212 0
M  V30 9174 C 882.933 -2.99858 -0.224929 0
M  V30 9175 C 884.481 -3.11563 -0.299619 0
M  V30 9176 C 884.956 -4.57559 -0.200868 0
M  V30 9177 N 886.447 -4.62477 -0.258663 0
M  V30 9178 C 887.182 -5.73031 -0.205644 0
M  V30 9179 N 886.678 -6.92723 -0.103027 0
M  V30 9180 N 888.471 -5.61509 -0.257754 0
M  V30 9181 H 880.622 -1.91703 0.914539 0
M  V30 9182 H 882.885 -0.88068 0.350865 0
M  V30 9183 H 882.591 -3.43964 0.733595 0
M  V30 9184 H 882.465 -3.63547 -1.00564 0
M  V30 9185 H 884.852 -2.67384 -1.24859 0
M  V30 9186 H 884.933 -2.50644 0.511025 0
M  V30 9187 H 884.577 -5.02413 0.744572 0
M  V30 9188 H 884.507 -5.16428 -1.03004 0
M  V30 9189 H 886.998 -3.76375 -0.339168 0
M  V30 9190 H 887.311 -7.7277 -0.0685593 0
M  V30 9191 H 885.656 -6.94966 -0.0686069 0
M  V30 9192 H 888.847 -4.66892 -0.336142 0
M  V30 9193 H 889.02 -6.4765 -0.21297 0
M  V30 9194 N 882.426 0.269451 -1.5528 0
M  V30 9195 C 883.651 1.02299 -1.80415 0
M  V30 9196 C 884.076 1.7902 -0.577363 0
M  V30 9197 O 883.434 1.75018 0.473125 0
M  V30 9198 C 883.482 1.95445 -3.0304 0
M  V30 9199 O 882.586 3.04271 -2.78375 0
M  V30 9200 H 881.927 0.292289 -0.596207 0
M  V30 9201 H 884.457 0.297282 -2.02429 0
M  V30 9202 H 884.467 2.37333 -3.31869 0
M  V30 9203 H 883.142 1.39017 -3.91978 0
M  V30 9204 H 881.719 2.66673 -2.60653 0
M  V30 9205 N 883.904 1.48273 0.534124 0
M  V30 9206 C 884.867 1.6201 1.62127 0
M  V30 9207 C 885.867 0.493653 1.53035 0
M  V30 9208 O 887.057 0.759337 1.56779 0
M  V30 9209 C 884.189 1.5864 3.01739 0
M  V30 9210 H 885.382 2.58944 1.51288 0
M  V30 9211 H 882.935 1.36808 0.755861 0
M  V30 9212 H 883.67 0.631685 3.18088 0
M  V30 9213 H 883.455 2.40415 3.09747 0
M  V30 9214 H 884.945 1.71438 3.80787 0
M  V30 9215 N 885.382 -0.782676 1.36792 0
M  V30 9216 C 886.63 -1.53778 1.31136 0
M  V30 9217 C 886.951 -1.94706 -0.107014 0
M  V30 9218 O 886.221 -1.65465 -1.04872 0
M  V30 9219 H 884.801 -0.570328 0.482426 0
M  V30 9220 H 887.463 -0.932181 1.71162 0
M  V30 9221 H 886.559 -2.44224 1.94321 0
M  V30 9222 N 886.86 -1.21182 -1.00761 0
M  V30 9223 C 888.109 -1.02166 -1.73911 0
M  V30 9224 C 888.422 0.445638 -1.90456 0
M  V30 9225 O 889.628 0.755132 -2.60787 0
M  V30 9226 C 888.084 -1.77936 -3.12837 0
M  V30 9227 C 887.692 -3.28819 -3.04273 0
M  V30 9228 C 889.436 -1.67319 -3.90134 0
M  V30 9229 C 887.343 -3.97089 -4.38262 0
M  V30 9230 H 886.273 -0.378665 -0.652019 0
M  V30 9231 H 888.924 -1.44891 -1.12601 0
M  V30 9232 H 887.306 -1.28003 -3.74742 0
M  V30 9233 H 888.48 -3.86035 -2.51622 0
M  V30 9234 H 886.795 -3.39949 -2.40465 0
M  V30 9235 H 889.392 -2.15659 -4.8928 0
M  V30 9236 H 889.735 -0.630959 -4.11491 0
M  V30 9237 H 890.268 -2.14716 -3.34876 0
M  V30 9238 H 887.007 -5.01503 -4.22107 0
M  V30 9239 H 886.527 -3.44662 -4.90885 0
M  V30 9240 H 888.206 -4.01854 -5.07072 0
M  V30 9241 N 888.338 1.20213 -1.01915 0
M  V30 9242 C 889.285 2.2309 -0.591571 0
M  V30 9243 C 890.255 1.61465 0.389649 0
M  V30 9244 O 891.44 1.88606 0.288511 0
M  V30 9245 C 888.58 3.45045 0.0614028 0
M  V30 9246 C 887.693 4.21091 -0.964688 0
M  V30 9247 C 886.828 5.30448 -0.282499 0
M  V30 9248 C 885.867 5.98241 -1.29517 0
M  V30 9249 N 885.004 6.99182 -0.639472 0
M  V30 9250 H 889.844 2.59023 -1.47347 0
M  V30 9251 H 887.381 1.27274 -0.737547 0
M  V30 9252 H 889.339 4.14688 0.45714 0
M  V30 9253 H 887.969 3.09797 0.906937 0
M  V30 9254 H 887.021 3.50489 -1.47857 0
M  V30 9255 H 888.333 4.67662 -1.73475 0
M  V30 9256 H 887.487 6.06466 0.168603 0
M  V30 9257 H 886.226 4.84922 0.519843 0
M  V30 9258 H 885.231 5.20982 -1.75663 0
M  V30 9259 H 886.456 6.45853 -2.09884 0
M  V30 9260 H 884.402 6.55844 0.142955 0
M  V30 9261 H 884.319 7.43893 -1.34756 0
M  V30 9262 H 885.587 7.79212 -0.212047 0
M  V30 9263 N 889.816 0.795718 1.36037 0
M  V30 9264 C 891.062 0.371574 1.99367 0
M  V30 9265 C 891.395 -1.0557 1.62999 0
M  V30 9266 O 890.67 -1.73051 0.887895 0
M  V30 9267 C 890.953 0.542622 3.55988 0
M  V30 9268 C 890.806 2.01404 4.0219 0
M  V30 9269 C 892.125 -0.0384527 4.40083 0
M  V30 9270 H 889.244 0.136483 0.724252 0
M  V30 9271 H 891.886 1.00323 1.61355 0
M  V30 9272 H 890.036 0.0049053 3.885 0
M  V30 9273 H 891.708 2.6133 3.80137 0
M  V30 9274 H 889.951 2.51439 3.53498 0
M  V30 9275 H 890.622 2.08466 5.11122 0
M  V30 9276 H 893.098 0.420634 4.13968 0
M  V30 9277 H 891.974 0.111214 5.48787 0
M  V30 9278 H 892.235 -1.13116 4.27384 0
M  V30 9279 N 891.294 -1.47756 0.548274 0
M  V30 9280 C 892.543 -2.01691 0.0187961 0
M  V30 9281 C 892.856 -1.42894 -1.33569 0
M  V30 9282 O 894.062 -1.88438 -1.95457 0
M  V30 9283 C 892.518 -3.59896 -0.016847 0
M  V30 9284 C 892.126 -4.27683 1.33385 0
M  V30 9285 C 893.87 -4.21614 -0.494188 0
M  V30 9286 C 891.777 -5.7787 1.2578 0
M  V30 9287 H 890.707 -0.753993 0.00325648 0
M  V30 9288 H 893.358 -1.69838 0.694792 0
M  V30 9289 H 891.74 -3.88672 -0.758304 0
M  V30 9290 H 892.914 -4.10559 2.09232 0
M  V30 9291 H 891.229 -3.77915 1.7484 0
M  V30 9292 H 893.826 -5.3166 -0.569342 0
M  V30 9293 H 894.169 -3.88176 -1.50417 0
M  V30 9294 H 894.702 -3.97336 0.192138 0
M  V30 9295 H 891.441 -6.15912 2.2435 0
M  V30 9296 H 890.961 -5.97355 0.540997 0
M  V30 9297 H 892.64 -6.39897 0.956109 0
M  V30 9298 N 892.772 -0.284283 -1.55015 0
M  V30 9299 C 893.705 0.640779 -2.19019 0
M  V30 9300 C 894.683 1.14541 -1.15409 0
M  V30 9301 O 895.867 1.21669 -1.43975 0
M  V30 9302 C 892.994 1.87488 -2.82074 0
M  V30 9303 C 892.04 1.50494 -3.99066 0
M  V30 9304 S 892.873 0.575218 -5.32402 0
M  V30 9305 C 894.029 1.81749 -5.98931 0
M  V30 9306 H 894.262 0.0969761 -2.97142 0
M  V30 9307 H 891.795 -0.0684929 -1.54248 0
M  V30 9308 H 893.753 2.58319 -3.19032 0
M  V30 9309 H 892.414 2.38984 -2.03828 0
M  V30 9310 H 891.607 2.42349 -4.41908 0
M  V30 9311 H 891.209 0.876741 -3.63578 0
M  V30 9312 H 893.501 2.76026 -6.18721 0
M  V30 9313 H 894.444 1.43192 -6.93471 0
M  V30 9314 H 894.852 1.98661 -5.28388 0
M  V30 9315 N 894.251 1.57596 -0.0117121 0
M  V30 9316 C 895.497 1.91355 0.671661 0
M  V30 9317 C 895.83 0.886818 1.72769 0
M  V30 9318 O 895.105 -0.0928813 1.94278 0
M  V30 9319 C 895.388 3.35657 1.30409 0
M  V30 9320 C 895.241 4.49055 0.2588 0
M  V30 9321 C 896.56 3.79595 2.22701 0
M  V30 9322 H 893.679 0.695893 0.242698 0
M  V30 9323 H 896.321 1.89887 -0.0654071 0
M  V30 9324 H 894.471 3.37038 1.9323 0
M  V30 9325 H 896.143 4.59809 -0.370631 0
M  V30 9326 H 894.386 4.31785 -0.417672 0
M  V30 9327 H 895.057 5.4701 0.740578 0
M  V30 9328 H 897.533 3.7984 1.69885 0
M  V30 9329 H 896.409 4.81292 2.63912 0
M  V30 9330 H 896.67 3.14118 3.11098 0
M  V30 9331 N 895.729 -0.261212 1.5542 0
M  V30 9332 C 896.957 -1.00916 1.8062 0
M  V30 9333 C 897.372 -1.79494 0.585444 0
M  V30 9334 O 896.729 -1.76974 -0.445702 0
M  V30 9335 C 896.78 -1.95841 3.03856 0
M  V30 9336 O 896.501 -1.20445 4.21218 0
M  V30 9337 C 898.002 -2.82352 3.41749 0
M  V30 9338 H 895.222 -0.297596 0.601397 0
M  V30 9339 H 897.766 -0.288427 2.02456 0
M  V30 9340 H 895.921 -2.63361 2.84112 0
M  V30 9341 H 896.335 -1.84528 4.90968 0
M  V30 9342 H 897.809 -3.44733 4.31118 0
M  V30 9343 H 898.286 -3.5273 2.61683 0
M  V30 9344 H 898.892 -2.20306 3.63793 0
M  V30 9345 N 897.207 -1.48554 -0.526253 0
M  V30 9346 C 898.455 -1.56452 -1.27935 0
M  V30 9347 C 898.776 -0.24184 -1.93495 0
M  V30 9348 O 898.046 0.736917 -1.81511 0
M  V30 9349 H 896.626 -0.576379 -0.47518 0
M  V30 9350 H 899.288 -1.85039 -0.612083 0
M  V30 9351 H 898.384 -2.34751 -2.05666 0
M  V30 9352 N 898.685 0.775411 -1.37205 0
M  V30 9353 C 899.962 1.5229 -1.22748 0
M  V30 9354 C 900.342 2.10327 0.180487 0
M  V30 9355 O 899.69 1.95206 1.18772 0
M  V30 9356 C 899.9 2.60671 -2.3206 0
M  V30 9357 C 901.248 3.28173 -2.6942 0
M  V30 9358 O 902.272 2.70963 -2.31208 0
M  V30 9359 O 901.131 4.31598 -3.3524 0
M  V30 9360 H 898.225 0.674326 -0.478762 0
M  V30 9361 H 900.771 0.812691 -1.48975 0
M  V30 9362 H 899.543 2.1588 -3.26361 0
M  V30 9363 H 899.166 3.39296 -2.07277 0
M  V30 9364 N 900.163 1.21714 1.00117 0
M  V30 9365 C 901.113 0.947259 2.07391 0
M  V30 9366 C 902.097 -0.0989662 1.60595 0
M  V30 9367 O 903.289 0.11047 1.76655 0
M  V30 9368 C 900.418 0.517954 3.3937 0
M  V30 9369 C 899.504 1.59846 3.92823 0
M  V30 9370 N 899.895 2.82438 4.19598 0
M  V30 9371 C 898.193 1.46822 4.2114 0
M  V30 9372 C 898.894 3.52247 4.62922 0
M  V30 9373 N 897.87 2.79696 4.66124 0
M  V30 9374 H 901.672 1.8786 2.26022 0
M  V30 9375 H 899.186 1.11344 1.18221 0
M  V30 9376 H 901.183 0.305951 4.15776 0
M  V30 9377 H 899.843 -0.40658 3.22144 0
M  V30 9378 H 900.854 3.18944 4.08038 0
M  V30 9379 H 897.531 0.609259 4.13031 0
M  V30 9380 H 898.921 4.57232 4.9233 0
M  V30 9381 N 901.641 -1.19671 1.02551 0
M  V30 9382 C 903.052 -1.70964 0.750208 0
M  V30 9383 C 903.403 -1.82095 -0.730461 0
M  V30 9384 O 902.528 -1.48974 -1.56958 0
M  V30 9385 C 903.123 -3.10516 1.35518 0
M  V30 9386 C 901.682 -3.59083 1.12854 0
M  V30 9387 C 900.829 -2.36041 1.45534 0
M  V30 9388 H 903.78 -1.04559 1.19386 0
M  V30 9389 H 903.801 -3.73028 0.750378 0
M  V30 9390 H 903.313 -3.02383 2.43282 0
M  V30 9391 H 901.414 -3.72536 0.0689627 0
M  V30 9392 H 901.527 -4.43395 1.81488 0
M  V30 9393 H 899.891 -2.39214 0.87458 0
M  V30 9394 H 900.674 -2.3054 2.54374 0
M  V30 9395 N 903.119 -0.802921 -1.35613 0
M  V30 9396 C 904.368 -0.378087 -1.98125 0
M  V30 9397 C 904.681 1.05953 -1.64418 0
M  V30 9398 O 905.887 1.58729 -2.20266 0
M  V30 9399 C 904.343 -0.625077 -3.5443 0
M  V30 9400 C 903.951 -2.07499 -3.97049 0
M  V30 9401 C 905.695 -0.265419 -4.23669 0
M  V30 9402 C 903.602 -2.26793 -5.46186 0
M  V30 9403 H 902.532 -0.137633 -0.741332 0
M  V30 9404 H 905.183 -0.986461 -1.54729 0
M  V30 9405 H 903.565 0.0531975 -3.95964 0
M  V30 9406 H 904.739 -2.79077 -3.66678 0
M  V30 9407 H 903.054 -2.39417 -3.40688 0
M  V30 9408 H 905.651 -0.387669 -5.33293 0
M  V30 9409 H 905.994 0.787994 -4.08774 0
M  V30 9410 H 906.527 -0.897464 -3.87544 0
M  V30 9411 H 903.266 -3.30566 -5.66045 0
M  V30 9412 H 902.786 -1.59735 -5.78139 0
M  V30 9413 H 904.465 -2.08165 -6.12598 0
M  V30 9414 N 904.597 1.47463 -0.556102 0
M  V30 9415 C 905.825 2.06868 -0.0364585 0
M  V30 9416 C 906.24 1.40893 1.25677 0
M  V30 9417 O 905.597 0.505083 1.75371 0
M  V30 9418 C 905.648 3.61128 0.163984 0
M  V30 9419 O 905.369 4.24629 -1.07803 0
M  V30 9420 C 906.87 4.37397 0.721036 0
M  V30 9421 H 904.09 0.669466 -0.0453399 0
M  V30 9422 H 906.634 1.89482 -0.769198 0
M  V30 9423 H 904.789 3.78031 0.84685 0
M  V30 9424 H 905.203 5.17149 -0.875067 0
M  V30 9425 H 906.677 5.46016 0.810584 0
M  V30 9426 H 907.154 4.03604 1.73206 0
M  V30 9427 H 907.76 4.25236 0.073904 0
M  V30 9428 N 906.075 0.2925 1.54862 0
M  V30 9429 C 907.038 -0.574423 2.21885 0
M  V30 9430 C 908.038 -1.06791 1.20218 0
M  V30 9431 O 909.228 -0.9653 1.45009 0
M  V30 9432 C 906.36 -1.79438 2.89853 0
M  V30 9433 H 907.553 0.0110319 2.99898 0
M  V30 9434 H 905.106 0.043256 1.5624 0
M  V30 9435 H 905.841 -2.4199 2.15897 0
M  V30 9436 H 905.626 -1.44827 3.64373 0
M  V30 9437 H 907.116 -2.41048 3.41007 0
M  V30 9438 N 907.553 -1.57587 0.0200696 0
M  V30 9439 C 908.5 -2.09667 -0.964791 0
M  V30 9440 C 909.47 -0.99664 -1.32877 0
M  V30 9441 O 910.655 -1.2703 -1.42366 0
M  V30 9442 C 907.795 -2.62101 -2.24493 0
M  V30 9443 C 906.908 -3.8608 -1.93821 0
M  V30 9444 C 906.043 -4.26939 -3.16064 0
M  V30 9445 C 905.082 -5.43701 -2.81169 0
M  V30 9446 N 904.219 -5.79759 -3.9601 0
M  V30 9447 H 909.059 -2.93538 -0.513751 0
M  V30 9448 H 906.596 -1.45096 -0.242 0
M  V30 9449 H 908.554 -2.90587 -2.99358 0
M  V30 9450 H 907.184 -1.81074 -2.6723 0
M  V30 9451 H 906.236 -3.64378 -1.09237 0
M  V30 9452 H 907.548 -4.71028 -1.64115 0
M  V30 9453 H 906.702 -4.56814 -3.99257 0
M  V30 9454 H 905.441 -3.40739 -3.48924 0
M  V30 9455 H 904.446 -5.13529 -1.96387 0
M  V30 9456 H 905.671 -6.31593 -2.49535 0
M  V30 9457 H 903.617 -4.96516 -4.28729 0
M  V30 9458 H 903.534 -6.59327 -3.69896 0
M  V30 9459 H 904.802 -6.14235 -4.79933 0
M  V30 9460 N 909.032 0.252966 -1.55557 0
M  V30 9461 C 909.995 1.29645 -1.8901 0
M  V30 9462 C 910.995 1.41378 -0.766096 0
M  V30 9463 O 912.185 1.40183 -1.03414 0
M  V30 9464 C 909.317 2.67504 -2.11316 0
M  V30 9465 H 910.51 1.01202 -2.82309 0
M  V30 9466 H 908.063 0.491977 -1.48355 0
M  V30 9467 H 908.798 3.01095 -1.20466 0
M  V30 9468 H 908.583 2.6037 -2.93172 0
M  V30 9469 H 910.073 3.42861 -2.38403 0
M  V30 9470 N 910.51 1.48831 0.518367 0
M  V30 9471 C 911.759 1.5669 1.27008 0
M  V30 9472 C 912.072 0.250934 1.93984 0
M  V30 9473 O 913.278 0.207884 2.70703 0
M  V30 9474 C 911.734 2.76387 2.30517 0
M  V30 9475 C 911.342 4.14673 1.69559 0
M  V30 9476 C 913.086 2.93566 3.06625 0
M  V30 9477 C 910.993 5.25616 2.71076 0
M  V30 9478 H 909.923 0.583362 0.477708 0
M  V30 9479 H 912.574 1.75187 0.546052 0
M  V30 9480 H 910.956 2.51348 3.06006 0
M  V30 9481 H 912.13 4.49779 1.00179 0
M  V30 9482 H 910.445 4.02708 1.05902 0
M  V30 9483 H 913.042 3.7362 3.82508 0
M  V30 9484 H 913.385 2.03462 3.63193 0
M  V30 9485 H 913.918 3.18562 2.38251 0
M  V30 9486 H 910.657 6.17723 2.19313 0
M  V30 9487 H 910.177 4.94985 3.38748 0
M  V30 9488 H 911.856 5.5422 3.3384 0
M  V30 9489 N 911.988 -0.768124 1.37614 0
M  V30 9490 C 912.951 -1.86314 1.3349 0
M  V30 9491 C 913.951 -1.59025 0.23823 0
M  V30 9492 O 915.141 -1.6704 0.494288 0
M  V30 9493 C 912.273 -3.23519 1.07462 0
M  V30 9494 H 913.466 -1.91382 2.30896 0
M  V30 9495 H 911.019 -0.968267 1.22696 0
M  V30 9496 H 911.754 -3.24127 0.106028 0
M  V30 9497 H 911.539 -3.44719 1.86846 0
M  V30 9498 H 913.029 -4.03597 1.07236 0
M  V30 9499 N 913.466 -1.22244 -0.994698 0
M  V30 9500 C 914.413 -0.990906 -2.08446 0
M  V30 9501 C 915.383 0.086737 -1.65873 0
M  V30 9502 O 916.568 -0.0624882 -1.90698 0
M  V30 9503 C 913.708 -0.572813 -3.40313 0
M  V30 9504 C 912.821 -1.72103 -3.96238 0
M  V30 9505 C 911.956 -1.2511 -5.16257 0
M  V30 9506 C 910.995 -2.37098 -5.64315 0
M  V30 9507 N 910.132 -1.91164 -6.75574 0
M  V30 9508 H 914.972 -1.92377 -2.27585 0
M  V30 9509 H 912.509 -0.958576 -1.11578 0
M  V30 9510 H 914.467 -0.311594 -4.16035 0
M  V30 9511 H 913.097 0.323044 -3.21179 0
M  V30 9512 H 912.149 -2.09662 -3.17405 0
M  V30 9513 H 913.461 -2.56347 -4.27888 0
M  V30 9514 H 912.615 -0.947152 -5.99261 0
M  V30 9515 H 911.354 -0.378836 -4.86226 0
M  V30 9516 H 910.359 -2.68283 -4.799 0
M  V30 9517 H 911.584 -3.24837 -5.96371 0
M  V30 9518 H 909.53 -1.06298 -6.47331 0
M  V30 9519 H 909.447 -2.68975 -7.06533 0
M  V30 9520 H 910.715 -1.63833 -7.62088 0
M  V30 9521 N 914.944 1.19125 -1.03184 0
M  V30 9522 C 916.192 1.8851 -0.728587 0
M  V30 9523 C 916.513 1.80195 0.74531 0
M  V30 9524 O 915.783 1.21437 1.5372 0
M  V30 9525 H 914.363 0.69784 -0.266511 0
M  V30 9526 H 917.025 1.44607 -1.3067 0
M  V30 9527 H 916.121 2.9477 -1.02554 0
M  V30 9528 N 916.422 0.810101 1.35185 0
M  V30 9529 C 917.668 0.392698 1.98962 0
M  V30 9530 C 918.001 -1.03835 1.64109 0
M  V30 9531 O 917.276 -1.721 0.9062 0
M  V30 9532 C 917.559 0.580349 3.55393 0
M  V30 9533 C 917.412 2.05658 4.00031 0
M  V30 9534 C 918.731 0.00822618 4.40099 0
M  V30 9535 H 915.85 0.144157 0.722764 0
M  V30 9536 H 918.492 1.02029 1.60281 0
M  V30 9537 H 916.642 0.0461106 3.88473 0
M  V30 9538 H 918.314 2.65348 3.77344 0
M  V30 9539 H 916.557 2.55174 3.50811 0
M  V30 9540 H 917.228 2.13875 5.08883 0
M  V30 9541 H 919.704 0.464517 4.13499 0
M  V30 9542 H 918.58 0.169414 5.48638 0
M  V30 9543 H 918.841 -1.08576 4.2856 0
M  V30 9544 N 917.9 -1.47166 0.563914 0
M  V30 9545 C 919.148 -2.02056 0.0422873 0
M  V30 9546 C 919.469 -1.43992 -1.31497 0
M  V30 9547 O 918.739 -0.617578 -1.85911 0
M  V30 9548 H 917.319 -0.746893 0.0126427 0
M  V30 9549 H 919.981 -1.80492 0.735441 0
M  V30 9550 H 919.077 -3.12073 -0.0408044 0
M  V30 9551 N 919.378 -0.300708 -1.54705 0
M  V30 9552 C 920.627 0.309428 -1.99312 0
M  V30 9553 C 920.94 1.55027 -1.19272 0
M  V30 9554 O 922.146 2.23498 -1.54146 0
M  V30 9555 C 920.602 0.601856 -3.54832 0
M  V30 9556 C 920.21 -0.620636 -4.4368 0
M  V30 9557 C 921.954 1.1732 -4.07966 0
M  V30 9558 C 919.861 -0.301376 -5.90632 0
M  V30 9559 H 918.791 0.119395 -0.744487 0
M  V30 9560 H 921.442 -0.409368 -1.78875 0
M  V30 9561 H 919.824 1.38024 -3.71168 0
M  V30 9562 H 920.998 -1.39685 -4.39118 0
M  V30 9563 H 919.313 -1.1106 -4.01316 0
M  V30 9564 H 921.91 1.42631 -5.15326 0
M  V30 9565 H 922.253 2.11537 -3.5855 0
M  V30 9566 H 922.786 0.456534 -3.95172 0
M  V30 9567 H 919.525 -1.21209 -6.44196 0
M  V30 9568 H 919.045 0.437574 -5.98202 0
M  V30 9569 H 920.724 0.097164 -6.46927 0
M  V30 9570 N 920.856 1.57574 -0.0284266 0
M  V30 9571 C 922.105 1.9095 0.649704 0
M  V30 9572 C 922.418 0.906421 1.7333 0
M  V30 9573 O 923.624 1.1314 2.46803 0
M  V30 9574 C 922.08 3.39061 1.20687 0
M  V30 9575 C 921.688 4.47726 0.156597 0
M  V30 9576 C 923.432 3.81505 1.86156 0
M  V30 9577 C 921.339 5.86935 0.725365 0
M  V30 9578 H 920.269 0.712589 0.24644 0
M  V30 9579 H 922.92 1.83261 -0.0936143 0
M  V30 9580 H 921.302 3.41679 2.00178 0
M  V30 9581 H 922.476 4.56667 -0.6158 0
M  V30 9582 H 920.791 4.14481 -0.399288 0
M  V30 9583 H 923.388 4.82865 2.29665 0
M  V30 9584 H 923.731 3.16529 2.70398 0
M  V30 9585 H 924.264 3.81307 1.13356 0
M  V30 9586 H 921.003 6.55453 -0.0789081 0
M  V30 9587 H 920.523 5.81602 1.46627 0
M  V30 9588 H 922.202 6.35483 1.21532 0
M  V30 9589 N 922.334 -0.244713 1.55689 0
M  V30 9590 C 923.559 -0.994157 1.8202 0
M  V30 9591 C 923.984 -1.78079 0.60577 0
M  V30 9592 O 923.342 -1.75748 -0.445221 0
M  V30 9593 C 923.39 -1.90599 3.06111 0
M  V30 9594 O 922.494 -2.99804 2.8318 0
M  V30 9595 H 921.835 -0.282767 0.600782 0
M  V30 9596 H 924.365 -0.26504 2.02876 0
M  V30 9597 H 924.375 -2.32023 3.35603 0
M  V30 9598 H 923.05 -1.32763 3.9414 0
M  V30 9599 H 921.627 -2.62493 2.64862 0
M  V30 9600 N 923.813 -1.49104 -0.510467 0
M  V30 9601 C 924.723 -1.67792 -1.6396 0
M  V30 9602 C 925.739 -0.560454 -1.64727 0
M  V30 9603 O 926.915 -0.833985 -1.83321 0
M  V30 9604 C 923.98 -1.73154 -3.00364 0
M  V30 9605 C 923.041 -2.9667 -3.10299 0
M  V30 9606 C 922.274 -3.01767 -4.40196 0
M  V30 9607 O 922.497 -2.1472 -5.28443 0
M  V30 9608 O 921.431 -3.94137 -4.54906 0
M  V30 9609 H 925.257 -2.63428 -1.51126 0
M  V30 9610 H 922.842 -1.32734 -0.685719 0
M  V30 9611 H 924.724 -1.79089 -3.81451 0
M  V30 9612 H 923.399 -0.806952 -3.1348 0
M  V30 9613 H 922.306 -2.96257 -2.28435 0
M  V30 9614 H 923.639 -3.88578 -3.02106 0
M  V30 9615 N 925.291 0.760815 -1.38019 0
M  V30 9616 C 926.539 1.51673 -1.33566 0
M  V30 9617 C 926.86 1.94852 0.076024 0
M  V30 9618 O 926.13 1.67112 1.02227 0
M  V30 9619 H 924.71 0.562581 -0.491438 0
M  V30 9620 H 927.372 0.904832 -1.72623 0
M  V30 9621 H 926.468 2.41102 -1.98182 0
M  V30 9622 N 926.769 1.22769 0.988202 0
M  V30 9623 C 927.717 0.999271 2.10041 0
M  V30 9624 C 928.711 -0.0591767 1.69297 0
M  V30 9625 O 929.917 0.0936653 1.79756 0
M  V30 9626 H 926.292 0.30599 0.686931 0
M  V30 9627 H 928.263 1.94294 2.26478 0
M  V30 9628 C 927.012 0.59873 3.42506 0
M  V30 9629 H 926.335 1.40487 3.74304 0
M  V30 9630 H 927.775 0.478353 4.21293 0
M  V30 9631 C 926.234 -0.692216 3.29712 0
M  V30 9632 O 926.764 -1.74342 3.61895 0
M  V30 9633 N 924.97 -0.665163 2.82885 0
M  V30 9634 H 924.517 0.190604 2.56894 0
M  V30 9635 H 924.475 -1.52917 2.74706 0
M  V30 9636 N 928.247 -1.18576 1.03814 0
M  V30 9637 C 929.157 -2.25778 0.637311 0
M  V30 9638 C 930.173 -1.7074 -0.335248 0
M  V30 9639 O 931.349 -2.00494 -0.19081 0
M  V30 9640 C 928.414 -3.467 0.00386953 0
M  V30 9641 C 927.475 -4.16881 1.02511 0
M  V30 9642 C 926.708 -5.32031 0.421802 0
M  V30 9643 O 926.931 -5.65142 -0.772699 0
M  V30 9644 O 925.865 -5.90826 1.14925 0
M  V30 9645 H 929.691 -2.62323 1.53037 0
M  V30 9646 H 927.276 -1.25609 0.80887 0
M  V30 9647 H 929.158 -4.19953 -0.348873 0
M  V30 9648 H 927.833 -3.11983 -0.863047 0
M  V30 9649 H 926.74 -3.45707 1.4296 0
M  V30 9650 H 928.073 -4.55592 1.86271 0
M  V30 9651 N 929.725 -0.817259 -1.34754 0
M  V30 9652 C 930.953 -0.415451 -2.02686 0
M  V30 9653 C 931.368 0.97688 -1.61563 0
M  V30 9654 O 930.725 1.63125 -0.818321 0
M  V30 9655 C 930.776 -0.501486 -3.58005 0
M  V30 9656 O 930.497 -1.83893 -3.97637 0
M  V30 9657 C 931.998 -0.0938504 -4.43201 0
M  V30 9658 H 929.218 -0.16742 -0.649778 0
M  V30 9659 H 931.762 -1.10384 -1.7215 0
M  V30 9660 H 929.917 0.138766 -3.87151 0
M  V30 9661 H 930.331 -1.8092 -4.92309 0
M  V30 9662 H 931.805 -0.205145 -5.51619 0
M  V30 9663 H 932.282 0.962011 -4.28535 0
M  V30 9664 H 932.888 -0.707677 -4.19371 0
M  V30 9665 N 931.203 1.46865 -0.571711 0
M  V30 9666 C 932.449 2.0273 -0.0531858 0
M  V30 9667 C 932.782 1.44353 1.29907 0
M  V30 9668 O 932.057 0.604488 1.84868 0
M  V30 9669 C 932.34 3.60092 0.0243831 0
M  V30 9670 C 932.193 4.28874 -1.35599 0
M  V30 9671 C 933.512 4.33994 0.730563 0
M  V30 9672 H 930.631 0.736706 -0.0208018 0
M  V30 9673 H 933.273 1.75132 -0.736794 0
M  V30 9674 H 931.423 3.83736 0.606565 0
M  V30 9675 H 933.095 4.16527 -1.98249 0
M  V30 9676 H 931.338 3.88664 -1.92674 0
M  V30 9677 H 932.009 5.37561 -1.25429 0
M  V30 9678 H 934.485 4.1543 0.236098 0
M  V30 9679 H 933.361 5.43699 0.753836 0
M  V30 9680 H 933.622 4.04257 1.78967 0
M  V30 9681 N 932.681 0.308908 1.54543 0
M  V30 9682 C 933.591 -0.572939 2.27496 0
M  V30 9683 C 934.607 -1.14171 1.31305 0
M  V30 9684 O 935.783 -1.16481 1.64299 0
M  V30 9685 C 932.848 -1.72483 3.0075 0
M  V30 9686 C 931.909 -1.18934 4.12496 0
M  V30 9687 C 931.142 -2.28634 4.82247 0
M  V30 9688 O 931.365 -3.48691 4.5141 0
M  V30 9689 O 930.299 -1.94879 5.69478 0
M  V30 9690 H 934.125 0.0190877 3.03694 0
M  V30 9691 H 931.71 0.0750943 1.49211 0
M  V30 9692 H 933.592 -2.39578 3.46671 0
M  V30 9693 H 932.267 -2.30332 2.2744 0
M  V30 9694 H 931.174 -0.483904 3.70957 0
M  V30 9695 H 932.507 -0.656185 4.87806 0
M  V30 9696 N 934.159 -1.57557 0.0367827 0
M  V30 9697 C 935.436 -1.83427 -0.679261 0
M  V30 9698 C 935.816 -0.922274 -1.89888 0
M  V30 9699 O 935.164 0.02025 -2.28491 0
M  V30 9700 C 935.374 -3.32823 -1.05022 0
M  V30 9701 C 936.722 -3.99486 -1.43861 0
M  V30 9702 O 937.746 -3.37364 -1.14297 0
M  V30 9703 O 936.605 -5.0899 -1.98977 0
M  V30 9704 H 933.699 -0.756581 -0.333936 0
M  V30 9705 H 936.245 -1.69575 0.0650494 0
M  V30 9706 H 935.017 -3.90874 -0.182509 0
M  V30 9707 H 934.64 -3.5181 -1.85244 0
M  V30 9708 N 935.637 0.236453 -1.55816 0
M  V30 9709 C 936.886 0.960981 -1.77336 0
M  V30 9710 C 937.199 1.86085 -0.602641 0
M  V30 9711 O 938.405 2.62291 -0.701106 0
M  V30 9712 C 936.861 1.75884 -3.13995 0
M  V30 9713 C 936.469 0.905849 -4.38746 0
M  V30 9714 C 938.213 2.47548 -3.44848 0
M  V30 9715 C 936.12 1.7002 -5.66434 0
M  V30 9716 H 935.05 0.362547 -0.661117 0
M  V30 9717 H 937.701 0.215303 -1.82233 0
M  V30 9718 H 936.083 2.54687 -3.03234 0
M  V30 9719 H 937.257 0.159415 -4.60524 0
M  V30 9720 H 935.572 0.30205 -4.15303 0
M  V30 9721 H 938.169 3.07452 -4.37467 0
M  V30 9722 H 938.512 3.19689 -2.66655 0
M  V30 9723 H 939.045 1.75747 -3.56872 0
M  V30 9724 H 935.784 1.02234 -6.47479 0
M  V30 9725 H 935.304 2.42164 -5.48741 0
M  V30 9726 H 936.983 2.26469 -6.0607 0
M  V30 9727 N 937.115 1.49373 0.502552 0
M  V30 9728 C 938.078 1.65413 1.58654 0
M  V30 9729 C 939.078 0.526003 1.51953 0
M  V30 9730 O 940.268 0.792421 1.55133 0
M  V30 9731 C 937.4 1.65005 2.98306 0
M  V30 9732 H 938.593 2.62095 1.45762 0
M  V30 9733 H 936.146 1.38381 0.726672 0
M  V30 9734 H 936.881 0.699014 3.16677 0
M  V30 9735 H 936.666 2.46931 3.04578 0
M  V30 9736 H 938.156 1.79477 3.77065 0
M  V30 9737 N 938.594 -0.753485 1.38421 0
M  V30 9738 C 939.557 -1.84888 1.35459 0
M  V30 9739 C 940.557 -1.58764 0.255083 0
M  V30 9740 O 941.747 -1.66507 0.511978 0
M  V30 9741 C 938.879 -3.22361 1.10888 0
M  V30 9742 H 940.072 -1.88922 2.32913 0
M  V30 9743 H 937.625 -0.955199 1.23716 0
M  V30 9744 H 938.36 -3.23996 0.1404 0
M  V30 9745 H 938.145 -3.42717 1.90492 0
M  V30 9746 H 939.635 -4.02437 1.1151 0
M  V30 9747 N 940.072 -1.23292 -0.981677 0
M  V30 9748 C 941.488 -0.995295 -1.24764 0
M  V30 9749 C 941.688 0.304379 -1.99188 0
M  V30 9750 O 940.744 1.02414 -2.30798 0
M  V30 9751 C 942.057 -2.20135 -2.04844 0
M  V30 9752 C 943.605 -2.24612 -2.17988 0
M  V30 9753 C 944.08 -3.448 -3.01458 0
M  V30 9754 N 945.571 -3.45031 -3.09044 0
M  V30 9755 C 946.306 -4.34683 -3.7395 0
M  V30 9756 N 945.802 -5.34569 -4.4069 0
M  V30 9757 N 947.595 -4.22429 -3.70823 0
M  V30 9758 H 939.746 -2.06834 -0.483052 0
M  V30 9759 H 942.009 -0.906929 -0.276014 0
M  V30 9760 H 941.715 -3.14446 -1.57532 0
M  V30 9761 H 941.589 -2.21115 -3.05594 0
M  V30 9762 H 943.976 -1.30841 -2.64508 0
M  V30 9763 H 944.057 -2.27664 -1.16631 0
M  V30 9764 H 943.701 -4.38877 -2.55635 0
M  V30 9765 H 943.631 -3.38988 -4.02982 0
M  V30 9766 H 946.122 -2.72759 -2.61555 0
M  V30 9767 H 946.435 -5.99236 -4.87991 0
M  V30 9768 H 944.78 -5.3847 -4.39403 0
M  V30 9769 H 947.971 -3.43639 -3.17851 0
M  V30 9770 H 948.144 -4.92501 -4.21126 0
M  V30 9771 N 941.55 1.18024 -1.04442 0
M  V30 9772 C 942.48 2.23988 -0.659683 0
M  V30 9773 C 943.461 1.6669 0.338904 0
M  V30 9774 O 944.646 1.92971 0.21817 0
M  V30 9775 C 941.776 3.4729 -0.0257672 0
M  V30 9776 C 940.73 4.17362 -0.948299 0
M  V30 9777 C 940.056 5.34401 -0.17866 0
M  V30 9778 C 941.356 4.70435 -2.26909 0
M  V30 9779 H 943.05 2.56425 -1.54553 0
M  V30 9780 H 940.596 1.23256 -0.744575 0
M  V30 9781 H 942.549 4.20627 0.255131 0
M  V30 9782 H 941.273 3.14098 0.894981 0
M  V30 9783 H 939.932 3.45928 -1.21364 0
M  V30 9784 H 939.58 4.97458 0.744614 0
M  V30 9785 H 939.28 5.8222 -0.793294 0
M  V30 9786 H 940.804 6.10526 0.0951315 0
M  V30 9787 H 942.218 5.35447 -2.04864 0
M  V30 9788 H 940.615 5.28803 -2.83703 0
M  V30 9789 H 941.685 3.87653 -2.91296 0
M  V30 9790 N 943.028 0.824394 1.34319 0
M  V30 9791 C 943.976 0.235628 2.31403 0
M  V30 9792 C 944.97 -0.624443 1.57471 0
M  V30 9793 O 946.176 -0.515618 1.72457 0
M  V30 9794 H 942.551 0.0574537 0.749802 0
M  V30 9795 H 944.522 1.06925 2.78585 0
M  V30 9796 C 943.271 -0.586617 3.42716 0
M  V30 9797 H 942.594 0.0658669 3.99746 0
M  V30 9798 H 944.034 -0.964661 4.1288 0
M  V30 9799 C 942.493 -1.75957 2.87299 0
M  V30 9800 O 943.023 -2.8578 2.82299 0
M  V30 9801 N 941.229 -1.57678 2.44102 0
M  V30 9802 H 940.776 -0.683436 2.48369 0
M  V30 9803 H 940.734 -2.36311 2.07375 0
M  V30 9804 N 944.506 -1.46559 0.579492 0
M  V30 9805 C 945.755 -2.01606 0.0615735 0
M  V30 9806 C 946.068 -1.45695 -1.30508 0
M  V30 9807 O 947.274 -1.92541 -1.91416 0
M  V30 9808 C 945.73 -3.59851 0.059496 0
M  V30 9809 C 945.338 -4.24757 1.42427 0
M  V30 9810 C 947.082 -4.22567 -0.404646 0
M  V30 9811 C 944.989 -5.75072 1.38009 0
M  V30 9812 H 943.919 -0.753754 0.0192491 0
M  V30 9813 H 946.57 -1.68326 0.73066 0
M  V30 9814 H 944.952 -3.90193 -0.675691 0
M  V30 9815 H 946.126 -4.06029 2.17893 0
M  V30 9816 H 944.441 -3.74121 1.82817 0
M  V30 9817 H 947.038 -5.32748 -0.456441 0
M  V30 9818 H 947.381 -3.91279 -1.42149 0
M  V30 9819 H 947.914 -3.96839 0.276376 0
M  V30 9820 H 944.653 -6.11014 2.37364 0
M  V30 9821 H 944.173 -5.96073 0.667583 0
M  V30 9822 H 945.852 -6.37724 1.09163 0
M  V30 9823 N 945.984 -0.3171 -1.54377 0
M  V30 9824 C 947.395 0.172287 -1.85903 0
M  V30 9825 C 947.746 1.52141 -1.23885 0
M  V30 9826 O 946.871 2.0949 -0.542476 0
M  V30 9827 C 947.466 0.319392 -3.37291 0
M  V30 9828 C 946.025 0.752998 -3.68791 0
M  V30 9829 C 945.172 -0.129143 -2.76999 0
M  V30 9830 H 948.123 -0.537597 -1.49317 0
M  V30 9831 H 948.144 1.15137 -3.62662 0
M  V30 9832 H 947.656 -0.662671 -3.82401 0
M  V30 9833 H 945.757 1.74504 -3.2921 0
M  V30 9834 H 945.87 0.561228 -4.75801 0
M  V30 9835 H 944.234 0.394242 -2.5163 0
M  V30 9836 H 945.017 -1.10785 -3.24933 0
M  V30 9837 N 947.462 1.57535 -0.0451378 0
M  V30 9838 C 948.708 1.92736 0.630921 0
M  V30 9839 C 949.041 0.923265 1.70849 0
M  V30 9840 O 948.316 -0.0516512 1.94431 0
M  V30 9841 C 948.599 3.38348 1.23259 0
M  V30 9842 C 948.452 4.49503 0.16349 0
M  V30 9843 C 949.771 3.84233 2.14599 0
M  V30 9844 H 946.89 0.700884 0.227883 0
M  V30 9845 H 949.532 1.89706 -0.10567 0
M  V30 9846 H 947.682 3.41061 1.86037 0
M  V30 9847 H 949.354 4.58919 -0.46808 0
M  V30 9848 H 947.597 4.30802 -0.509166 0
M  V30 9849 H 948.268 5.48457 0.624382 0
M  V30 9850 H 950.744 3.83358 1.6179 0
M  V30 9851 H 949.62 4.86781 2.53644 0
M  V30 9852 H 949.881 3.20646 3.04366 0
M  V30 9853 N 948.94 -0.228186 1.55939 0
M  V30 9854 C 950.165 -0.974795 1.83064 0
M  V30 9855 C 950.59 -1.77426 0.624624 0
M  V30 9856 O 949.948 -1.76211 -0.426556 0
M  V30 9857 C 949.996 -1.87342 3.08116 0
M  V30 9858 O 949.1 -2.96784 2.86344 0
M  V30 9859 H 948.441 -0.276379 0.603747 0
M  V30 9860 H 950.971 -0.243507 2.03146 0
M  V30 9861 H 950.981 -2.28451 3.38045 0
M  V30 9862 H 949.656 -1.28575 3.95526 0
M  V30 9863 H 948.233 -2.59669 2.67631 0
M  V30 9864 N 950.418 -1.49637 -0.494624 0
M  V30 9865 C 951.35 -1.62902 -1.61231 0
M  V30 9866 C 952.363 -0.511425 -1.54558 0
M  V30 9867 O 953.552 -0.783724 -1.60375 0
M  V30 9868 C 950.652 -1.57564 -3.00045 0
M  V30 9869 C 949.825 -2.84964 -3.31835 0
M  V30 9870 C 948.884 -2.72591 -4.5009 0
M  V30 9871 O 947.91 -3.46532 -4.51558 0
M  V30 9872 N 949.112 -1.84563 -5.50379 0
M  V30 9873 H 951.877 -2.59301 -1.50276 0
M  V30 9874 H 949.438 -1.46806 -0.68262 0
M  V30 9875 H 951.43 -1.46932 -3.77085 0
M  V30 9876 H 950 -0.689974 -3.0489 0
M  V30 9877 H 949.22 -3.099 -2.4363 0
M  V30 9878 H 950.508 -3.69412 -3.49875 0
M  V30 9879 H 949.906 -1.23758 -5.51997 0
M  V30 9880 H 948.463 -1.79849 -6.26496 0
M  V30 9881 N 951.896 0.746133 -1.38819 0
M  V30 9882 C 953.142 1.50768 -1.35635 0
M  V30 9883 C 953.475 1.94132 0.0512435 0
M  V30 9884 O 952.75 1.65979 1.01396 0
M  V30 9885 C 953.033 2.7551 -2.31875 0
M  V30 9886 C 952.886 2.38236 -3.81528 0
M  V30 9887 C 954.205 3.77566 -2.26124 0
M  V30 9888 H 951.324 0.546922 -0.494009 0
M  V30 9889 H 953.966 0.854017 -1.69725 0
M  V30 9890 H 952.116 3.31285 -2.02935 0
M  V30 9891 H 953.788 1.88178 -4.21173 0
M  V30 9892 H 952.031 1.70601 -3.98846 0
M  V30 9893 H 952.702 3.27517 -4.44339 0
M  V30 9894 H 955.178 3.31349 -2.51689 0
M  V30 9895 H 954.054 4.62531 -2.95561 0
M  V30 9896 H 954.315 4.23689 -1.26254 0
M  V30 9897 N 953.375 1.23811 0.975125 0
M  V30 9898 C 954.323 1.02149 2.0897 0
M  V30 9899 C 955.317 -0.0412172 1.6935 0
M  V30 9900 O 956.523 0.112726 1.79647 0
M  V30 9901 H 952.898 0.313259 0.683647 0
M  V30 9902 H 954.869 1.96686 2.24404 0
M  V30 9903 C 953.618 0.635023 3.41852 0
M  V30 9904 H 952.941 1.44449 3.72793 0
M  V30 9905 H 954.381 0.52301 4.20762 0
M  V30 9906 C 952.84 -0.657207 3.30428 0
M  V30 9907 O 953.37 -1.70494 3.63723 0
M  V30 9908 N 951.576 -0.635122 2.83575 0
M  V30 9909 H 951.123 0.21784 2.56677 0
M  V30 9910 H 951.081 -1.49995 2.76313 0
M  V30 9911 N 954.853 -1.17469 1.05066 0
M  V30 9912 C 956.264 -1.69334 0.786304 0
M  V30 9913 C 956.615 -1.83604 -0.691671 0
M  V30 9914 O 955.74 -1.52269 -1.53763 0
M  V30 9915 C 956.335 -3.07572 1.42074 0
M  V30 9916 C 954.894 -3.56609 1.20446 0
M  V30 9917 C 954.041 -2.329 1.50508 0
M  V30 9918 H 956.992 -1.02003 1.21577 0
M  V30 9919 H 957.013 -3.71352 0.829334 0
M  V30 9920 H 956.525 -2.97154 2.49642 0
M  V30 9921 H 954.626 -3.72306 0.147968 0
M  V30 9922 H 954.739 -4.39446 1.90852 0
M  V30 9923 H 953.103 -2.37305 0.925124 0
M  V30 9924 H 953.886 -2.25093 2.59207 0
M  V30 9925 N 956.331 -0.831506 -1.3388 0
M  V30 9926 C 957.747 -0.518349 -1.50948 0
M  V30 9927 C 957.947 0.955807 -1.77388 0
M  V30 9928 O 957.003 1.73993 -1.82983 0
M  V30 9929 C 958.316 -1.38531 -2.66889 0
M  V30 9930 C 959.864 -1.38332 -2.80772 0
M  V30 9931 C 960.339 -2.23497 -3.99766 0
M  V30 9932 N 961.83 -2.21167 -4.06988 0
M  V30 9933 C 962.565 -2.83805 -4.98239 0
M  V30 9934 N 962.061 -3.55468 -5.94655 0
M  V30 9935 N 963.854 -2.73314 -4.91178 0
M  V30 9936 H 956.005 -1.78588 -1.14978 0
M  V30 9937 H 958.268 -0.761508 -0.564633 0
M  V30 9938 H 957.974 -2.43255 -2.54007 0
M  V30 9939 H 957.848 -1.05611 -3.62114 0
M  V30 9940 H 960.235 -0.343832 -2.9309 0
M  V30 9941 H 960.316 -1.75256 -1.86331 0
M  V30 9942 H 959.96 -3.27501 -3.88208 0
M  V30 9943 H 959.89 -1.83919 -4.93438 0
M  V30 9944 H 962.381 -1.69046 -3.37982 0
M  V30 9945 H 962.694 -4.00487 -6.60931 0
M  V30 9946 H 961.039 -3.59575 -5.94753 0
M  V30 9947 H 964.23 -2.16897 -4.14817 0
M  V30 9948 H 964.403 -3.22416 -5.62096 0
M  V30 9949 N 957.809 1.4625 -0.587256 0
M  V30 9950 C 959.086 1.95599 -0.00750181 0
M  V30 9951 C 959.466 1.52989 1.45457 0
M  V30 9952 O 958.814 0.782731 2.14676 0
M  V30 9953 C 959.024 3.48513 -0.184309 0
M  V30 9954 C 960.372 4.24565 -0.0544972 0
M  V30 9955 O 961.396 3.5602 -0.113378 0
M  V30 9956 O 960.255 5.46445 0.0774075 0
M  V30 9957 H 957.349 0.825649 0.0472495 0
M  V30 9958 H 959.895 1.56512 -0.655893 0
M  V30 9959 H 958.667 3.72428 -1.20053 0
M  V30 9960 H 958.29 3.9444 0.500301 0
M  V30 9961 N 959.287 0.325282 1.54207 0
M  V30 9962 C 960.25 -0.527228 2.23054 0
M  V30 9963 C 961.25 -1.04217 1.22456 0
M  V30 9964 O 962.44 -0.934325 1.47024 0
M  V30 9965 C 959.572 -1.7325 2.93594 0
M  V30 9966 H 960.765 0.0746423 2.99807 0
M  V30 9967 H 958.318 0.0763872 1.56113 0
M  V30 9968 H 959.053 -2.37356 2.20981 0
M  V30 9969 H 958.838 -1.37065 3.67363 0
M  V30 9970 H 960.328 -2.3376 3.46043 0
M  V30 9971 N 960.765 -1.57509 0.0534917 0
M  V30 9972 C 961.712 -2.11667 -0.920101 0
M  V30 9973 C 962.682 -1.0246 -1.30733 0
M  V30 9974 O 963.867 -1.30021 -1.39639 0
M  V30 9975 C 961.007 -2.66803 -2.18883 0
M  V30 9976 C 960.12 -3.90104 -1.85588 0
M  V30 9977 C 959.255 -4.33547 -3.06937 0
M  V30 9978 C 958.294 -5.49542 -2.69573 0
M  V30 9979 N 957.431 -5.88029 -3.83623 0
M  V30 9980 H 962.271 -2.94562 -0.451371 0
M  V30 9981 H 959.808 -1.45576 -0.211168 0
M  V30 9982 H 961.766 -2.96871 -2.93127 0
M  V30 9983 H 960.396 -1.86702 -2.63329 0
M  V30 9984 H 959.448 -3.66613 -1.01484 0
M  V30 9985 H 960.76 -4.74404 -1.54087 0
M  V30 9986 H 959.914 -4.6518 -3.89477 0
M  V30 9987 H 958.653 -3.48064 -3.41618 0
M  V30 9988 H 957.658 -5.17579 -1.8545 0
M  V30 9989 H 958.883 -6.36743 -2.36082 0
M  V30 9990 H 956.829 -5.05498 -4.181 0
M  V30 9991 H 956.746 -6.67025 -3.55828 0
M  V30 9992 H 958.014 -6.24277 -4.66796 0
M  V30 9993 N 962.243 0.219913 -1.56058 0
M  V30 9994 C 963.206 1.25606 -1.91718 0
M  V30 9995 C 964.206 1.39721 -0.795912 0
M  V30 9996 O 965.396 1.37958 -1.06364 0
M  V30 9997 C 962.528 2.62961 -2.16943 0
M  V30 9998 H 963.721 0.951909 -2.84392 0
M  V30 9999 H 961.274 0.460398 -1.49365 0
M  V30 10000 H 962.009 2.98472 -1.26826 0
M  V30 10001 H 961.794 2.54093 -2.98629 0
M  V30 10002 H 963.284 3.37727 -2.45622 0
M  V30 10003 N 963.721 1.49897 0.486681 0
M  V30 10004 C 964.961 1.61732 1.24988 0
M  V30 10005 C 965.325 0.303724 1.89582 0
M  V30 10006 O 966.526 0.297373 2.6715 0
M  V30 10007 C 964.797 2.75429 2.27757 0
M  V30 10008 S 966.356 3.07304 3.13225 0
M  V30 10009 H 963.174 0.570316 0.424571 0
M  V30 10010 H 965.776 1.87617 0.549549 0
M  V30 10011 H 964.48 3.69376 1.78857 0
M  V30 10012 H 964.011 2.51582 3.0244 0
M  V30 10013 H 966.026 2.49928 4.28661 0
M  V30 10014 N 965.199 -0.738761 1.39212 0
M  V30 10015 C 966.445 -1.50046 1.36433 0
M  V30 10016 C 966.778 -1.94157 -0.0409474 0
M  V30 10017 O 966.053 -1.66515 -1.00514 0
M  V30 10018 C 966.336 -2.74277 2.33333 0
M  V30 10019 C 966.189 -2.36209 3.82786 0
M  V30 10020 C 967.508 -3.76361 2.28123 0
M  V30 10021 H 964.627 -0.544294 0.496903 0
M  V30 10022 H 967.269 -0.845005 1.70175 0
M  V30 10023 H 965.419 -3.30204 2.04689 0
M  V30 10024 H 967.091 -1.85942 4.22165 0
M  V30 10025 H 965.334 -1.68483 3.99745 0
M  V30 10026 H 966.005 -3.25156 4.46069 0
M  V30 10027 H 968.481 -3.30009 2.53443 0
M  V30 10028 H 967.357 -4.60957 2.9801 0
M  V30 10029 H 967.618 -4.23013 1.28499 0
M  V30 10030 N 966.677 -1.24326 -0.968545 0
M  V30 10031 C 967.926 -1.07647 -1.70572 0
M  V30 10032 C 968.239 0.384821 -1.91777 0
M  V30 10033 O 969.445 0.671782 -2.63058 0
M  V30 10034 C 967.901 -1.87799 -3.07017 0
M  V30 10035 C 967.509 -3.38333 -2.93658 0
M  V30 10036 C 969.253 -1.79647 -3.84613 0
M  V30 10037 C 967.16 -4.10831 -4.25407 0
M  V30 10038 H 966.09 -0.399216 -0.639642 0
M  V30 10039 H 968.741 -1.484 -1.07934 0
M  V30 10040 H 967.123 -1.3986 -3.7048 0
M  V30 10041 H 968.297 -3.93845 -2.39213 0
M  V30 10042 H 966.612 -3.47427 -2.29528 0
M  V30 10043 H 969.209 -2.31116 -4.82172 0
M  V30 10044 H 969.552 -0.761553 -4.09275 0
M  V30 10045 H 970.085 -2.25261 -3.27875 0
M  V30 10046 H 966.824 -5.14679 -4.05939 0
M  V30 10047 H 966.344 -3.60105 -4.79671 0
M  V30 10048 H 968.023 -4.17783 -4.94031 0
M  V30 10049 N 968.156 1.1691 -1.05688 0
M  V30 10050 C 969.106 2.19056 -0.632339 0
M  V30 10051 C 970.09 1.574 0.333797 0
M  V30 10052 O 971.282 1.76361 0.150223 0
M  V30 10053 C 968.411 3.43297 -0.0138209 0
M  V30 10054 C 967.497 4.12042 -1.00408 0
M  V30 10055 N 967.888 4.56535 -2.17737 0
M  V30 10056 C 966.186 4.38139 -0.833663 0
M  V30 10057 C 966.887 5.09644 -2.80425 0
M  V30 10058 N 965.863 5.02153 -2.08191 0
M  V30 10059 H 969.665 2.51165 -1.52621 0
M  V30 10060 H 967.179 1.33294 -0.927707 0
M  V30 10061 H 969.176 4.1576 0.308117 0
M  V30 10062 H 967.836 3.12677 0.87538 0
M  V30 10063 H 968.847 4.50463 -2.55546 0
M  V30 10064 H 965.524 4.175 0.00406684 0
M  V30 10065 H 966.914 5.54153 -3.79952 0
M  V30 10066 N 969.634 0.838594 1.33437 0
M  V30 10067 C 970.882 0.433312 1.974 0
M  V30 10068 C 971.203 -1.01078 1.66758 0
M  V30 10069 O 970.473 -1.70406 0.966373 0
M  V30 10070 H 969.053 0.15724 0.730263 0
M  V30 10071 H 971.715 1.07149 1.62804 0
M  V30 10072 H 970.811 0.565144 3.06941 0
M  V30 10073 N 971.112 -1.45937 0.595003 0
M  V30 10074 C 972.34 -2.06698 0.091293 0
M  V30 10075 C 972.755 -1.44176 -1.21897 0
M  V30 10076 O 972.112 -0.551402 -1.73971 0
M  V30 10077 C 972.163 -3.61436 -0.0681801 0
M  V30 10078 O 971.884 -4.21622 1.19023 0
M  V30 10079 C 973.385 -4.39155 -0.604814 0
M  V30 10080 H 970.605 -0.668029 0.0630737 0
M  V30 10081 H 973.149 -1.87376 0.819165 0
M  V30 10082 H 971.304 -3.80143 -0.746324 0
M  V30 10083 H 971.718 -5.14647 1.01187 0
M  V30 10084 H 973.192 -5.47973 -0.665532 0
M  V30 10085 H 973.669 -4.08055 -1.62444 0
M  V30 10086 H 974.275 -4.25282 0.0388658 0
M  V30 10087 N 972.59 -0.333456 -1.54032 0
M  V30 10088 C 973.867 0.320902 -1.9295 0
M  V30 10089 C 974.247 1.69071 -1.26405 0
M  V30 10090 O 973.595 2.24768 -0.411311 0
M  V30 10091 C 973.805 0.403257 -3.46662 0
M  V30 10092 C 975.153 0.658875 -4.19457 0
M  V30 10093 O 976.177 0.485781 -3.52872 0
M  V30 10094 O 975.036 0.993475 -5.37394 0
M  V30 10095 H 972.13 0.185158 -0.806006 0
M  V30 10096 H 974.676 -0.383895 -1.65301 0
M  V30 10097 H 973.448 -0.558409 -3.87295 0
M  V30 10098 H 973.071 1.15524 -3.80447 0
M  V30 10099 N 974.068 1.57479 -0.061844 0
M  V30 10100 C 974.998 2.15181 0.9066 0
M  V30 10101 C 975.979 1.07624 1.31724 0
M  V30 10102 O 977.164 1.35614 1.39006 0
M  V30 10103 C 974.294 2.70542 2.17771 0
M  V30 10104 C 973.248 3.83178 1.9068 0
M  V30 10105 C 972.574 4.25099 3.24337 0
M  V30 10106 C 973.874 5.07853 1.21994 0
M  V30 10107 H 975.568 2.96355 0.42594 0
M  V30 10108 H 973.114 1.42556 0.203435 0
M  V30 10109 H 975.067 3.09552 2.85929 0
M  V30 10110 H 973.791 1.86575 2.68062 0
M  V30 10111 H 972.45 3.44656 1.24931 0
M  V30 10112 H 972.098 3.38069 3.72449 0
M  V30 10113 H 971.798 5.01021 3.07005 0
M  V30 10114 H 973.322 4.66718 3.93709 0
M  V30 10115 H 974.736 5.44242 1.80204 0
M  V30 10116 H 973.133 5.88987 1.14954 0
M  V30 10117 H 974.203 4.84497 0.197536 0
M  V30 10118 N 975.546 -0.211634 1.56173 0
M  V30 10119 C 976.493 -1.26231 1.93221 0
M  V30 10120 C 977.463 -1.46076 0.790641 0
M  V30 10121 O 978.648 -1.59482 1.04739 0
M  V30 10122 C 975.788 -2.60559 2.26281 0
M  V30 10123 C 974.901 -2.48431 3.5342 0
M  V30 10124 C 974.036 -3.7535 3.7588 0
M  V30 10125 C 973.075 -3.57985 4.96501 0
M  V30 10126 N 972.212 -4.76877 5.15299 0
M  V30 10127 H 977.052 -0.939367 2.82807 0
M  V30 10128 H 974.589 -0.452511 1.39967 0
M  V30 10129 H 976.547 -3.38796 2.43461 0
M  V30 10130 H 975.177 -2.9093 1.39855 0
M  V30 10131 H 974.229 -1.61577 3.44379 0
M  V30 10132 H 975.541 -2.31526 4.41811 0
M  V30 10133 H 974.695 -4.62029 3.9321 0
M  V30 10134 H 973.434 -3.95191 2.85788 0
M  V30 10135 H 972.439 -2.69691 4.79111 0
M  V30 10136 H 973.664 -3.39605 5.88086 0
M  V30 10137 H 971.61 -4.97013 4.28152 0
M  V30 10138 H 971.527 -4.62735 5.9784 0
M  V30 10139 H 972.795 -5.64954 5.37073 0
M  V30 10140 N 977.024 -1.50153 -0.478725 0
M  V30 10141 C 978.301 -1.51274 -1.23999 0
M  V30 10142 C 978.681 -0.253048 -2.09578 0
M  V30 10143 O 978.029 0.763827 -2.15355 0
M  V30 10144 C 978.239 -2.80423 -2.07759 0
M  V30 10145 C 979.587 -3.30788 -2.66204 0
M  V30 10146 O 980.611 -2.81693 -2.18008 0
M  V30 10147 O 979.47 -4.1635 -3.53999 0
M  V30 10148 H 976.564 -0.606438 -0.562283 0
M  V30 10149 H 979.11 -1.62436 -0.491171 0
M  V30 10150 H 977.882 -3.63584 -1.44645 0
M  V30 10151 H 977.505 -2.72228 -2.89789 0
M  V30 10152 N 978.502 0.731368 -1.39602 0
M  V30 10153 C 979.749 1.491 -1.37024 0
M  V30 10154 C 980.077 1.94473 0.0326423 0
M  V30 10155 O 979.332 1.6737 1.01418 0
M  V30 10156 C 979.631 2.74224 -2.29208 0
M  V30 10157 C 979.297 2.477 -3.7677 0
M  V30 10158 C 977.959 2.40175 -4.16976 0
M  V30 10159 C 980.311 2.25098 -4.70086 0
M  V30 10160 C 977.639 2.08095 -5.48556 0
M  V30 10161 C 979.991 1.94534 -6.01946 0
M  V30 10162 C 978.655 1.85481 -6.41212 0
M  V30 10163 H 977.925 0.545595 -0.501405 0
M  V30 10164 H 980.572 0.839127 -1.72136 0
M  V30 10165 H 978.877 3.44171 -1.87225 0
M  V30 10166 H 980.574 3.32264 -2.24504 0
M  V30 10167 H 977.164 2.54436 -3.44906 0
M  V30 10168 H 981.348 2.29876 -4.39853 0
M  V30 10169 H 976.604 1.99611 -5.77897 0
M  V30 10170 H 980.778 1.76054 -6.73779 0
M  V30 10171 H 978.405 1.60389 -7.43088 0
M  V30 10172 N 979.98 1.24838 0.961938 0
M  V30 10173 C 981.208 1.11871 1.74047 0
M  V30 10174 C 981.623 -0.328209 1.85925 0
M  V30 10175 O 980.98 -1.22616 1.35173 0
M  V30 10176 C 981.031 1.75931 3.15801 0
M  V30 10177 O 980.752 3.14967 3.04512 0
M  V30 10178 C 982.253 1.68649 4.09966 0
M  V30 10179 H 979.473 0.390569 0.545616 0
M  V30 10180 H 982.017 1.65058 1.20732 0
M  V30 10181 H 980.172 1.26733 3.66084 0
M  V30 10182 H 980.586 3.46349 3.93882 0
M  V30 10183 H 982.06 2.18144 5.07067 0
M  V30 10184 H 982.537 0.648831 4.34381 0
M  V30 10185 H 983.143 2.17301 3.65596 0
M  V30 10186 N 981.458 -1.16348 1.06306 0
M  V30 10187 C 982.683 -1.91323 0.800636 0
M  V30 10188 C 983.108 -1.7691 -0.639105 0
M  V30 10189 O 982.466 -1.0945 -1.44535 0
M  V30 10190 C 982.514 -3.40038 1.20027 0
M  V30 10191 O 981.618 -4.11003 0.339142 0
M  V30 10192 H 980.959 -0.596057 0.292595 0
M  V30 10193 H 983.489 -1.47406 1.41889 0
M  V30 10194 H 983.499 -3.90808 1.17188 0
M  V30 10195 H 982.174 -3.49848 2.24898 0
M  V30 10196 H 980.751 -3.70423 0.42911 0
M  V30 10197 N 982.937 -0.845659 -1.3299 0
M  V30 10198 C 983.847 -0.2864 -2.32845 0
M  V30 10199 C 984.863 0.591105 -1.63652 0
M  V30 10200 O 986.039 0.493615 -1.95257 0
M  V30 10201 C 983.104 0.523636 -3.42723 0
M  V30 10202 C 982.165 -0.378945 -4.27624 0
M  V30 10203 C 981.398 0.392526 -5.32255 0
M  V30 10204 O 981.621 1.6235 -5.46808 0
M  V30 10205 O 980.555 -0.237 -6.01433 0
M  V30 10206 H 984.381 -1.11346 -2.82552 0
M  V30 10207 H 981.966 -0.608356 -1.36453 0
M  V30 10208 H 983.848 0.983718 -4.09757 0
M  V30 10209 H 982.523 1.32764 -2.95221 0
M  V30 10210 H 981.43 -0.887012 -3.63432 0
M  V30 10211 H 982.763 -1.1479 -4.78627 0
M  V30 10212 N 984.415 1.45619 -0.602734 0
M  V30 10213 C 985.347 2.28662 0.157012 0
M  V30 10214 C 986.36 1.39672 0.836396 0
M  V30 10215 O 987.549 1.64091 0.702599 0
M  V30 10216 C 984.649 3.1528 1.24306 0
M  V30 10217 C 983.822 4.32517 0.651731 0
M  V30 10218 C 982.881 5.00381 1.62804 0
M  V30 10219 O 981.907 5.57333 1.15624 0
M  V30 10220 N 983.109 4.99221 2.96241 0
M  V30 10221 H 985.874 2.94506 -0.555535 0
M  V30 10222 H 983.435 1.55753 -0.441881 0
M  V30 10223 H 985.427 3.57544 1.8959 0
M  V30 10224 H 983.997 2.51376 1.85819 0
M  V30 10225 H 983.217 3.93793 -0.17907 0
M  V30 10226 H 984.505 5.08249 0.236802 0
M  V30 10227 H 983.903 4.54232 3.37179 0
M  V30 10228 H 982.46 5.45364 3.56961 0
M  V30 10229 N 985.893 0.34162 1.53853 0
M  V30 10230 C 987.142 -0.256475 2.00063 0
M  V30 10231 C 987.455 -1.51811 1.23341 0
M  V30 10232 O 988.661 -2.19332 1.60017 0
M  V30 10233 C 987.117 -0.507567 3.56303 0
M  V30 10234 C 986.725 0.738052 4.41879 0
M  V30 10235 C 988.469 -1.06463 4.10933 0
M  V30 10236 C 986.376 0.457865 5.89625 0
M  V30 10237 H 985.306 -0.0996143 0.747391 0
M  V30 10238 H 987.957 0.456649 1.77727 0
M  V30 10239 H 986.339 -1.28134 3.74697 0
M  V30 10240 H 987.513 1.51278 4.3526 0
M  V30 10241 H 985.828 1.21661 3.98231 0
M  V30 10242 H 988.425 -1.28918 5.18926 0
M  V30 10243 H 988.768 -2.01956 3.64032 0
M  V30 10244 H 989.301 -0.351601 3.96243 0
M  V30 10245 H 986.04 1.38247 6.40756 0
M  V30 10246 H 985.56 -0.278818 5.99152 0
M  V30 10247 H 987.239 0.0743914 6.46957 0
M  V30 10248 N 987.371 -1.57444 0.0701946 0
M  V30 10249 C 988.648 -1.84826 -0.6402 0
M  V30 10250 C 989.028 -0.962344 -1.87889 0
M  V30 10251 O 988.376 -0.0282209 -2.28483 0
M  V30 10252 C 988.586 -3.34976 -0.979382 0
M  V30 10253 C 989.934 -4.02448 -1.35355 0
M  V30 10254 O 990.958 -3.39713 -1.07116 0
M  V30 10255 O 989.817 -5.13096 -1.88136 0
M  V30 10256 H 986.911 -0.763494 -0.317813 0
M  V30 10257 H 989.457 -1.69399 0.101004 0
M  V30 10258 H 988.229 -3.91173 -0.0995576 0
M  V30 10259 H 987.852 -3.5566 -1.7774 0
M  V30 10260 N 988.849 0.203349 -1.56283 0
M  V30 10261 C 989.759 1.27266 -1.9708 0
M  V30 10262 C 990.775 1.50268 -0.877236 0
M  V30 10263 O 991.951 1.63044 -1.18231 0
M  V30 10264 C 989.016 2.59871 -2.29495 0
M  V30 10265 C 988.077 2.45012 -3.52516 0
M  V30 10266 C 987.31 3.71293 -3.83376 0
M  V30 10267 O 987.533 4.75106 -3.15643 0
M  V30 10268 O 986.467 3.67316 -4.76826 0
M  V30 10269 H 990.293 0.956461 -2.88246 0
M  V30 10270 H 987.878 0.407688 -1.4373 0
M  V30 10271 H 989.76 3.38152 -2.51458 0
M  V30 10272 H 988.435 2.91135 -1.415 0
M  V30 10273 H 987.342 1.6487 -3.35811 0
M  V30 10274 H 988.675 2.18683 -4.40952 0
M  V30 10275 N 990.327 1.50405 0.470755 0
M  V30 10276 C 991.576 1.60652 1.21959 0
M  V30 10277 C 991.889 0.312521 1.93087 0
M  V30 10278 O 993.095 0.293901 2.69905 0
M  V30 10279 C 991.551 2.83581 2.21607 0
M  V30 10280 C 991.159 4.19858 1.5628 0
M  V30 10281 C 992.903 3.03173 2.9713 0
M  V30 10282 C 990.81 5.33974 2.54217 0
M  V30 10283 H 989.74 0.598264 0.458907 0
M  V30 10284 H 992.391 1.76836 0.490041 0
M  V30 10285 H 990.773 2.60957 2.97855 0
M  V30 10286 H 991.947 4.52738 0.85819 0
M  V30 10287 H 990.262 4.05873 0.930366 0
M  V30 10288 H 992.859 3.856 3.70428 0
M  V30 10289 H 993.202 2.14914 3.56536 0
M  V30 10290 H 993.735 3.2598 2.27995 0
M  V30 10291 H 990.474 6.24388 1.99549 0
M  V30 10292 H 989.994 5.05511 3.22829 0
M  V30 10293 H 991.673 5.64561 3.16039 0
M  V30 10294 N 991.805 -0.723954 1.39988 0
M  V30 10295 C 992.735 -1.85103 1.42335 0
M  V30 10296 C 993.716 -1.6769 0.285297 0
M  V30 10297 O 994.901 -1.87846 0.492716 0
M  V30 10298 C 992.031 -3.22972 1.27697 0
M  V30 10299 C 990.985 -3.55041 2.39018 0
M  V30 10300 C 990.311 -4.91965 2.09462 0
M  V30 10301 C 991.611 -3.56889 3.8135 0
M  V30 10302 H 993.305 -1.83396 2.36656 0
M  V30 10303 H 990.851 -0.880926 1.13911 0
M  V30 10304 H 992.804 -4.01503 1.27958 0
M  V30 10305 H 991.528 -3.25233 0.298487 0
M  V30 10306 H 990.187 -2.78845 2.37993 0
M  V30 10307 H 989.835 -4.90819 1.10025 0
M  V30 10308 H 989.535 -5.14389 2.84038 0
M  V30 10309 H 991.059 -5.7284 2.11391 0
M  V30 10310 H 992.473 -4.25476 3.84243 0
M  V30 10311 H 990.87 -3.90836 4.55376 0
M  V30 10312 H 991.94 -2.56452 4.11534 0
M  V30 10313 N 993.283 -1.25346 -0.955304 0
M  V30 10314 C 994.215 -1.0146 -2.0552 0
M  V30 10315 C 995.228 0.0202256 -1.62787 0
M  V30 10316 O 996.417 -0.218251 -1.77161 0
M  V30 10317 C 993.517 -0.511727 -3.35014 0
M  V30 10318 C 992.69 -1.61256 -4.0659 0
M  V30 10319 C 991.749 -1.11017 -5.14356 0
M  V30 10320 O 990.775 -1.80443 -5.39842 0
M  V30 10321 N 991.977 0.0489001 -5.80479 0
M  V30 10322 H 994.742 -1.96166 -2.26581 0
M  V30 10323 H 992.303 -1.16543 -1.12381 0
M  V30 10324 H 994.295 -0.160123 -4.04383 0
M  V30 10325 H 992.865 0.341377 -3.1073 0
M  V30 10326 H 992.085 -2.13577 -3.31328 0
M  V30 10327 H 993.373 -2.35213 -4.51168 0
M  V30 10328 H 992.771 0.629021 -5.62192 0
M  V30 10329 H 991.328 0.341542 -6.50905 0
M  V30 10330 N 994.761 1.15782 -1.06922 0
M  V30 10331 C 995.709 2.22441 -0.679893 0
M  V30 10332 C 996.703 1.66591 0.307221 0
M  V30 10333 O 997.909 1.79182 0.171402 0
M  V30 10334 H 994.284 0.724427 -0.201765 0
M  V30 10335 H 996.255 2.52562 -1.58918 0
M  V30 10336 C 995.004 3.47586 -0.0891142 0
M  V30 10337 H 994.327 3.9088 -0.839805 0
M  V30 10338 H 995.767 4.2375 0.14569 0
M  V30 10339 C 994.226 3.15967 1.16903 0
M  V30 10340 O 994.756 3.32359 2.25611 0
M  V30 10341 N 992.962 2.70046 1.07349 0
M  V30 10342 H 992.509 2.56907 0.188825 0
M  V30 10343 H 992.467 2.49264 1.91611 0
M  V30 10344 N 996.239 0.8527 1.3254 0
M  V30 10345 C 997.189 0.267711 2.26423 0
M  V30 10346 C 998.173 -0.585305 1.49877 0
M  V30 10347 O 999.365 -0.435008 1.71571 0
M  V30 10348 C 996.494 -0.544605 3.38953 0
M  V30 10349 C 995.58 0.32069 4.22886 0
M  V30 10350 N 995.971 1.40601 4.85865 0
M  V30 10351 C 994.269 0.110101 4.45864 0
M  V30 10352 C 994.97 1.93819 5.48461 0
M  V30 10353 N 993.946 1.23764 5.29324 0
M  V30 10354 H 997.748 1.09747 2.7264 0
M  V30 10355 H 995.262 0.698607 1.46606 0
M  V30 10356 H 997.259 -0.98009 4.05216 0
M  V30 10357 H 995.919 -1.37218 2.94281 0
M  V30 10358 H 996.93 1.78894 4.86022 0
M  V30 10359 H 993.607 -0.682917 4.11877 0
M  V30 10360 H 994.997 2.84783 6.08562 0
M  V30 10361 N 997.718 -1.45297 0.610449 0
M  V30 10362 C 998.946 -2.0659 0.113211 0
M  V30 10363 C 999.361 -1.4546 -1.20361 0
M  V30 10364 O 998.718 -0.569823 -1.73376 0
M  V30 10365 C 998.769 -3.61488 -0.0298411 0
M  V30 10366 O 998.49 -4.20336 1.23488 0
M  V30 10367 C 999.991 -4.39772 -0.558202 0
M  V30 10368 H 997.211 -0.667322 0.0701555 0
M  V30 10369 H 999.755 -1.86497 0.838993 0
M  V30 10370 H 997.91 -3.80913 -0.705963 0
M  V30 10371 H 998.324 -5.13545 1.0664 0
M  V30 10372 H 999.798 -5.48648 -0.607375 0
M  V30 10373 H 1000.27 -4.09755 -1.58107 0
M  V30 10374 H 1000.88 -4.25217 0.0839704 0
M  V30 10375 N 999.196 -0.349774 -1.5367 0
M  V30 10376 C 1000.11 0.512421 -2.28935 0
M  V30 10377 C 1001.12 1.1065 -1.34286 0
M  V30 10378 O 1002.3 1.12084 -1.67329 0
M  V30 10379 C 999.363 1.64449 -3.05217 0
M  V30 10380 C 998.424 1.07956 -4.15505 0
M  V30 10381 C 997.657 2.15768 -4.88139 0
M  V30 10382 O 997.88 3.366 -4.60496 0
M  V30 10383 O 996.814 1.79712 -5.74445 0
M  V30 10384 H 1000.64 -0.0996001 -3.03537 0
M  V30 10385 H 998.225 -0.114629 -1.4896 0
M  V30 10386 H 1000.11 2.30302 -3.52901 0
M  V30 10387 H 998.782 2.24221 -2.33467 0
M  V30 10388 H 997.689 0.385381 -3.7211 0
M  V30 10389 H 999.022 0.526621 -4.89375 0
M  V30 10390 N 1000.67 1.57404 -0.0785433 0
M  V30 10391 C 1001.92 1.9292 0.588626 0
M  V30 10392 C 1002.24 0.961106 1.70359 0
M  V30 10393 O 1003.44 1.20934 2.43079 0
M  V30 10394 C 1001.9 3.42729 1.09839 0
M  V30 10395 C 1001.51 4.47998 0.0140773 0
M  V30 10396 C 1003.25 3.87235 1.73924 0
M  V30 10397 C 1001.16 5.88945 0.538269 0
M  V30 10398 H 1000.09 0.720069 0.223645 0
M  V30 10399 H 1002.74 1.8287 -0.15187 0
M  V30 10400 H 1001.12 3.47875 1.89207 0
M  V30 10401 H 1002.29 4.54476 -0.760773 0
M  V30 10402 H 1000.61 4.13001 -0.53095 0
M  V30 10403 H 1003.21 4.89927 2.14186 0
M  V30 10404 H 1003.55 3.24971 2.60191 0
M  V30 10405 H 1004.08 3.84721 1.01168 0
M  V30 10406 H 1000.82 6.5487 -0.287395 0
M  V30 10407 H 1000.34 5.85972 1.28049 0
M  V30 10408 H 1002.02 6.39028 1.01253 0
M  V30 10409 N 1002.15 -0.195058 1.56388 0
M  V30 10410 C 1003.4 -0.9168 1.80894 0
M  V30 10411 C 1003.73 -1.82907 0.652592 0
M  V30 10412 O 1003.01 -1.91382 -0.346853 0
M  V30 10413 C 1003.29 -1.733 3.15657 0
M  V30 10414 C 1003.14 -0.845449 4.41783 0
M  V30 10415 C 1004.46 -2.70557 3.47112 0
M  V30 10416 H 1001.58 -0.331861 0.658056 0
M  V30 10417 H 1004.22 -0.184174 1.89105 0
M  V30 10418 H 1002.37 -2.3576 3.08787 0
M  V30 10419 H 1004.04 -0.235557 4.60698 0
M  V30 10420 H 1002.29 -0.152172 4.33533 0
M  V30 10421 H 1002.96 -1.45152 5.32574 0
M  V30 10422 H 1005.43 -2.1823 3.54281 0
M  V30 10423 H 1004.31 -3.24749 4.42526 0
M  V30 10424 H 1004.57 -3.49605 2.70608 0
M  V30 10425 N 1003.63 -1.50653 -0.462772 0
M  V30 10426 C 1004.88 -1.62057 -1.21424 0
M  V30 10427 C 1005.2 -0.324778 -1.91769 0
M  V30 10428 O 1004.46 0.689828 -1.83139 0
M  V30 10429 C 1004.76 -2.75637 -2.27507 0
M  V30 10430 C 1004.42 -4.15826 -1.74354 0
M  V30 10431 C 1003.09 -4.53969 -1.5958 0
M  V30 10432 C 1005.44 -5.03409 -1.35012 0
M  V30 10433 C 1002.77 -5.77427 -1.03899 0
M  V30 10434 C 1005.12 -6.27422 -0.807704 0
M  V30 10435 C 1003.78 -6.6436 -0.646657 0
M  V30 10436 H 1003.05 -0.59301 -0.44432 0
M  V30 10437 H 1005.7 -1.84612 -0.508999 0
M  V30 10438 H 1004 -2.47203 -3.0397 0
M  V30 10439 H 1005.7 -2.81663 -2.85424 0
M  V30 10440 H 1002.29 -3.85739 -1.86823 0
M  V30 10441 H 1006.48 -4.74567 -1.45258 0
M  V30 10442 H 1001.73 -6.04713 -0.901751 0
M  V30 10443 H 1005.91 -6.94644 -0.494234 0
M  V30 10444 H 1003.53 -7.59901 -0.213053 0
M  V30 10445 N 1005.11 0.71652 -1.4037 0
M  V30 10446 C 1006.07 1.81231 -1.40313 0
M  V30 10447 C 1007.07 1.58032 -0.297087 0
M  V30 10448 O 1008.26 1.65091 -0.555944 0
M  V30 10449 C 1005.39 3.19308 -1.19395 0
M  V30 10450 H 1006.59 1.8268 -2.3784 0
M  V30 10451 H 1004.14 0.922062 -1.26205 0
M  V30 10452 H 1004.87 3.2351 -0.226252 0
M  V30 10453 H 1004.66 3.37546 -1.99512 0
M  V30 10454 H 1006.15 3.99339 -1.22141 0
M  V30 10455 N 1006.59 1.25851 0.948643 0
M  V30 10456 C 1008 1.02802 1.22081 0
M  V30 10457 C 1008.2 -0.251461 1.99925 0
M  V30 10458 O 1007.26 -0.962592 2.33432 0
M  V30 10459 C 1008.57 2.25489 1.98936 0
M  V30 10460 C 1010.12 2.30312 2.11956 0
M  V30 10461 C 1010.59 3.52671 2.92211 0
M  V30 10462 N 1012.09 3.53103 2.99787 0
M  V30 10463 C 1012.82 4.44445 3.62294 0
M  V30 10464 N 1012.32 5.46065 4.26362 0
M  V30 10465 N 1014.11 4.32113 3.59493 0
M  V30 10466 H 1006.26 2.08042 0.428044 0
M  V30 10467 H 1008.52 0.913928 0.251872 0
M  V30 10468 H 1008.23 3.18513 1.4914 0
M  V30 10469 H 1008.1 2.2914 2.99624 0
M  V30 10470 H 1010.49 1.37808 2.60946 0
M  V30 10471 H 1010.57 2.30676 1.10554 0
M  V30 10472 H 1010.22 4.45501 2.43909 0
M  V30 10473 H 1010.15 3.49554 3.93853 0
M  V30 10474 H 1012.64 2.79597 2.54232 0
M  V30 10475 H 1012.95 6.11964 4.71932 0
M  V30 10476 H 1011.29 5.49931 4.24972 0
M  V30 10477 H 1014.49 3.51946 3.08629 0
M  V30 10478 H 1014.66 5.03493 4.0792 0
M  V30 10479 N 1008.06 -1.15214 1.07534 0
M  V30 10480 C 1009.29 -1.89922 0.820804 0
M  V30 10481 C 1009.71 -1.78114 -0.626177 0
M  V30 10482 O 1009.06 -1.13435 -1.42964 0
M  V30 10483 C 1009.12 -3.40207 1.22236 0
M  V30 10484 O 1008.84 -3.51676 2.61257 0
M  V30 10485 C 1010.34 -4.31934 0.997393 0
M  V30 10486 H 1007.56 -0.601865 0.296647 0
M  V30 10487 H 1010.1 -1.45965 1.43229 0
M  V30 10488 H 1008.26 -3.8182 0.655167 0
M  V30 10489 H 1008.67 -4.44959 2.77689 0
M  V30 10490 H 1010.14 -5.35791 1.32785 0
M  V30 10491 H 1010.62 -4.3915 -0.0661599 0
M  V30 10492 H 1011.23 -3.96066 1.54958 0
M  V30 10493 N 1009.54 -0.859717 -1.32086 0
M  V30 10494 C 1010.77 -0.478865 -2.01796 0
M  V30 10495 C 1011.19 0.918274 -1.64163 0
M  V30 10496 O 1010.55 1.60409 -0.844896 0
M  V30 10497 C 1010.6 -0.631356 -3.5503 0
M  V30 10498 O 1009.7 0.333712 -4.11048 0
M  V30 10499 H 1009.04 -0.191775 -0.635703 0
M  V30 10500 H 1011.57 -1.16031 -1.68517 0
M  V30 10501 H 1011.58 -0.520783 -4.04663 0
M  V30 10502 H 1010.26 -1.65015 -3.81763 0
M  V30 10503 H 1008.84 0.178953 -3.7247 0
M  V30 10504 N 1011.02 1.44971 -0.618145 0
M  V30 10505 C 1012.43 1.85611 -0.201334 0
M  V30 10506 C 1012.78 1.51698 1.24427 0
M  V30 10507 O 1011.91 0.94875 1.94493 0
M  V30 10508 C 1012.5 3.36897 -0.358619 0
M  V30 10509 C 1011.06 3.764 0.00358196 0
M  V30 10510 C 1010.21 2.68881 -0.678118 0
M  V30 10511 H 1013.16 1.35622 -0.824152 0
M  V30 10512 H 1013.18 3.78326 0.406176 0
M  V30 10513 H 1012.69 3.61548 -1.41084 0
M  V30 10514 H 1010.79 3.57365 1.05457 0
M  V30 10515 H 1010.91 4.77449 -0.397427 0
M  V30 10516 H 1009.27 2.54442 -0.114699 0
M  V30 10517 H 1010.05 2.96367 -1.73268 0
M  V30 10518 N 1012.5 0.357919 1.53482 0
M  V30 10519 C 1013.43 -0.526753 2.23065 0
M  V30 10520 C 1014.44 -1.05239 1.24212 0
M  V30 10521 O 1015.63 -0.960078 1.50482 0
M  V30 10522 C 1012.73 -1.73919 2.9087 0
M  V30 10523 C 1011.91 -1.34638 4.16163 0
M  V30 10524 C 1010.96 -2.42005 4.67247 0
M  V30 10525 O 1009.99 -2.04714 5.31113 0
M  V30 10526 N 1011.19 -3.73478 4.44404 0
M  V30 10527 H 1013.96 0.0692386 2.9962 0
M  V30 10528 H 1011.52 0.182726 1.60866 0
M  V30 10529 H 1013.51 -2.45207 3.21956 0
M  V30 10530 H 1012.08 -2.24223 2.17814 0
M  V30 10531 H 1011.3 -0.463667 3.91464 0
M  V30 10532 H 1012.59 -1.06012 4.97633 0
M  V30 10533 H 1011.99 -4.06555 3.93357 0
M  V30 10534 H 1010.54 -4.40893 4.80059 0
M  V30 10535 N 1013.98 -1.5736 0.0868897 0
M  V30 10536 C 1014.91 -2.10582 -0.904858 0
M  V30 10537 C 1015.92 -1.04124 -1.25148 0
M  V30 10538 O 1017.11 -1.31595 -1.20603 0
M  V30 10539 C 1014.21 -2.56381 -2.21635 0
M  V30 10540 C 1013.38 -3.86581 -2.04631 0
M  V30 10541 C 1012.44 -4.18313 -3.19219 0
M  V30 10542 O 1011.47 -4.87669 -2.93544 0
M  V30 10543 N 1012.67 -3.73061 -4.44754 0
M  V30 10544 H 1015.44 -2.96297 -0.450352 0
M  V30 10545 H 1013 -1.616 -0.0984376 0
M  V30 10546 H 1014.99 -2.7466 -2.97227 0
M  V30 10547 H 1013.56 -1.75721 -2.58536 0
M  V30 10548 H 1012.78 -3.77532 -1.13417 0
M  V30 10549 H 1014.07 -4.71777 -1.90537 0
M  V30 10550 H 1013.46 -3.1706 -4.68497 0
M  V30 10551 H 1012.02 -3.96511 -5.17322 0
M  V30 10552 N 1015.45 0.186762 -1.56489 0
M  V30 10553 C 1016.4 1.23141 -1.95205 0
M  V30 10554 C 1017.37 1.44799 -0.81378 0
M  V30 10555 O 1018.56 1.57795 -1.07263 0
M  V30 10556 C 1015.7 2.56926 -2.30397 0
M  V30 10557 C 1014.81 2.42777 -3.57328 0
M  V30 10558 C 1013.94 3.69323 -3.81804 0
M  V30 10559 C 1012.98 3.50041 -5.02133 0
M  V30 10560 N 1012.12 4.68619 -5.2282 0
M  V30 10561 H 1016.96 0.894256 -2.84266 0
M  V30 10562 H 1014.5 0.430187 -1.40669 0
M  V30 10563 H 1016.46 3.3488 -2.4882 0
M  V30 10564 H 1015.09 2.88668 -1.44466 0
M  V30 10565 H 1014.14 1.56078 -3.46906 0
M  V30 10566 H 1015.45 2.24468 -4.45439 0
M  V30 10567 H 1014.6 4.55715 -4.00511 0
M  V30 10568 H 1013.34 3.90595 -2.92039 0
M  V30 10569 H 1012.35 2.62034 -4.8334 0
M  V30 10570 H 1013.57 3.30206 -5.93414 0
M  V30 10571 H 1011.52 4.90139 -4.36005 0
M  V30 10572 H 1011.44 4.53165 -6.05126 0
M  V30 10573 H 1012.7 5.56338 -5.45993 0
M  V30 10574 N 1016.93 1.50896 0.454776 0
M  V30 10575 C 1017.86 1.73885 1.5584 0
M  V30 10576 C 1018.84 0.588172 1.59607 0
M  V30 10577 O 1020.03 0.829054 1.75614 0
M  V30 10578 C 1017.16 1.84796 2.94054 0
M  V30 10579 C 1016.11 3.00111 3.05152 0
M  V30 10580 C 1015.44 2.96183 4.45174 0
M  V30 10581 C 1016.74 4.40365 2.80849 0
M  V30 10582 H 1018.43 2.66292 1.36854 0
M  V30 10583 H 1015.98 1.28142 0.656936 0
M  V30 10584 H 1017.93 1.99462 3.71204 0
M  V30 10585 H 1016.66 0.890235 3.14233 0
M  V30 10586 H 1015.31 2.85121 2.30438 0
M  V30 10587 H 1014.96 1.98224 4.62295 0
M  V30 10588 H 1014.66 3.73608 4.53532 0
M  V30 10589 H 1016.19 3.1292 5.24322 0
M  V30 10590 H 1017.6 4.55795 3.47741 0
M  V30 10591 H 1016 5.19363 3.00636 0
M  V30 10592 H 1017.07 4.51606 1.76579 0
M  V30 10593 N 1018.41 -0.709066 1.40748 0
M  V30 10594 C 1019.66 -1.4646 1.38681 0
M  V30 10595 C 1019.97 -1.95599 -0.0056209 0
M  V30 10596 O 1021.18 -2.71091 -0.148907 0
M  V30 10597 C 1019.63 -2.64771 2.43771 0
M  V30 10598 C 1019.24 -2.22474 3.88856 0
M  V30 10599 C 1020.99 -3.42475 2.50821 0
M  V30 10600 C 1018.89 -3.37663 4.85528 0
M  V30 10601 H 1017.82 -0.550084 0.515678 0
M  V30 10602 H 1020.47 -0.771074 1.66513 0
M  V30 10603 H 1018.86 -3.36325 2.09048 0
M  V30 10604 H 1020.03 -1.58297 4.32757 0
M  V30 10605 H 1018.35 -1.57798 3.85342 0
M  V30 10606 H 1020.94 -4.28201 3.20232 0
M  V30 10607 H 1021.29 -3.86738 1.54076 0
M  V30 10608 H 1021.82 -2.77969 2.84567 0
M  V30 10609 H 1018.56 -2.98426 5.83628 0
M  V30 10610 H 1018.08 -4.00734 4.46287 0
M  V30 10611 H 1019.76 -4.03636 5.05655 0
M  V30 10612 N 1019.89 -1.26353 -0.941956 0
M  V30 10613 C 1021.14 -1.11241 -1.68251 0
M  V30 10614 C 1021.45 0.344055 -1.9255 0
M  V30 10615 O 1022.66 0.615832 -2.64423 0
M  V30 10616 C 1021.11 -1.94269 -3.02965 0
M  V30 10617 C 1020.72 -3.44485 -2.86415 0
M  V30 10618 C 1022.47 -1.87764 -3.80716 0
M  V30 10619 C 1020.37 -4.19763 -4.16597 0
M  V30 10620 H 1019.3 -0.412694 -0.63103 0
M  V30 10621 H 1021.95 -1.50656 -1.04762 0
M  V30 10622 H 1020.34 -1.47687 -3.6743 0
M  V30 10623 H 1021.51 -3.9883 -2.30805 0
M  V30 10624 H 1019.82 -3.52218 -2.22107 0
M  V30 10625 H 1022.42 -2.41292 -4.77161 0
M  V30 10626 H 1022.76 -0.848195 -4.07568 0
M  V30 10627 H 1023.3 -2.32165 -3.23024 0
M  V30 10628 H 1020.04 -5.23173 -3.9493 0
M  V30 10629 H 1019.56 -3.70198 -4.71925 0
M  V30 10630 H 1021.24 -4.28168 -4.85058 0
M  V30 10631 N 1021.37 1.14642 -1.08144 0
M  V30 10632 C 1022.61 1.85892 -0.810683 0
M  V30 10633 C 1022.95 1.82575 0.661821 0
M  V30 10634 O 1022.22 1.25454 1.48632 0
M  V30 10635 C 1022.5 3.34647 -1.32979 0
M  V30 10636 C 1022.36 3.46551 -2.86744 0
M  V30 10637 C 1023.68 4.29661 -0.952864 0
M  V30 10638 H 1020.8 0.674963 -0.295963 0
M  V30 10639 H 1023.44 1.3464 -1.3406 0
M  V30 10640 H 1021.59 3.78425 -0.87903 0
M  V30 10641 H 1023.26 3.11579 -3.40171 0
M  V30 10642 H 1021.5 2.87849 -3.24539 0
M  V30 10643 H 1022.17 4.51101 -3.18138 0
M  V30 10644 H 1024.65 3.93885 -1.34141 0
M  V30 10645 H 1023.53 5.32209 -1.34331 0
M  V30 10646 H 1023.79 4.41877 0.140392 0
M  V30 10647 N 1022.85 0.866709 1.31628 0
M  V30 10648 C 1023.76 0.323408 2.3236 0
M  V30 10649 C 1024.77 -0.564995 1.64572 0
M  V30 10650 O 1025.95 -0.462489 1.96018 0
M  V30 10651 C 1023.01 -0.469045 3.43513 0
M  V30 10652 C 1022.07 0.446928 4.26967 0
M  V30 10653 C 1021.31 -0.307799 5.32812 0
M  V30 10654 O 1021.53 -1.5363 5.49321 0
M  V30 10655 O 1020.46 0.332653 6.0098 0
M  V30 10656 H 1024.29 1.15827 2.80745 0
M  V30 10657 H 1021.87 0.629987 1.35468 0
M  V30 10658 H 1023.76 -0.918405 4.1127 0
M  V30 10659 H 1022.43 -1.28051 2.97296 0
M  V30 10660 H 1021.34 0.944719 3.61975 0
M  V30 10661 H 1022.67 1.2239 4.76741 0
M  V30 10662 N 1024.32 -1.44642 0.625825 0
M  V30 10663 C 1025.57 -2.01695 0.127948 0
M  V30 10664 C 1025.89 -1.49439 -1.25271 0
M  V30 10665 O 1025.16 -0.695873 -1.83124 0
M  V30 10666 H 1023.74 -0.745685 0.0443096 0
M  V30 10667 H 1026.4 -1.7721 0.811332 0
M  V30 10668 H 1025.5 -3.11966 0.0915933 0
M  V30 10669 N 1025.8 -0.366053 -1.5329 0
M  V30 10670 C 1027.04 0.223558 -2.03174 0
M  V30 10671 C 1027.41 1.45955 -1.24745 0
M  V30 10672 O 1028.61 2.12481 -1.64637 0
M  V30 10673 C 1026.88 0.507899 -3.53773 0
M  V30 10674 S 1028.44 1.07111 -4.25526 0
M  V30 10675 H 1025.25 0.0650309 -0.70802 0
M  V30 10676 H 1027.86 -0.509028 -1.88757 0
M  V30 10677 H 1026.56 -0.39913 -4.08455 0
M  V30 10678 H 1026.09 1.26954 -3.72352 0
M  V30 10679 H 1028.11 2.35533 -4.36737 0
M  V30 10680 N 1027.28 1.57312 -0.0952337 0
M  V30 10681 C 1028.21 2.11059 0.893678 0
M  V30 10682 C 1029.22 1.04787 1.24594 0
M  V30 10683 O 1030.41 1.32233 1.19903 0
M  V30 10684 C 1027.51 2.57552 2.20272 0
M  V30 10685 C 1026.69 3.87661 2.02578 0
M  V30 10686 C 1025.75 4.2 3.16996 0
M  V30 10687 O 1024.77 4.89219 2.90953 0
M  V30 10688 N 1025.97 3.75414 4.42769 0
M  V30 10689 H 1028.74 2.96532 0.434632 0
M  V30 10690 H 1026.3 1.6165 0.0898661 0
M  V30 10691 H 1028.29 2.76232 2.95766 0
M  V30 10692 H 1026.86 1.7709 2.576 0
M  V30 10693 H 1026.08 3.78128 1.11413 0
M  V30 10694 H 1027.37 4.7278 1.88032 0
M  V30 10695 H 1026.77 3.1954 4.66809 0
M  V30 10696 H 1025.32 3.99249 5.15212 0
M  V30 10697 N 1028.76 -0.17846 1.56586 0
M  V30 10698 C 1030.17 -0.529957 1.50544 0
M  V30 10699 C 1030.37 -1.85015 0.798237 0
M  V30 10700 O 1029.43 -2.49983 0.355639 0
M  V30 10701 C 1030.74 -0.569314 2.95261 0
M  V30 10702 C 1032.29 -0.657008 3.06027 0
M  V30 10703 C 1032.77 -0.727323 4.52188 0
M  V30 10704 N 1034.26 -0.790406 4.56406 0
M  V30 10705 C 1034.99 -0.865265 5.66834 0
M  V30 10706 N 1034.49 -0.901398 6.86911 0
M  V30 10707 N 1036.28 -0.903736 5.54787 0
M  V30 10708 H 1028.43 0.687304 2.00972 0
M  V30 10709 H 1030.69 0.246936 0.915274 0
M  V30 10710 H 1030.4 0.331934 3.5013 0
M  V30 10711 H 1030.27 -1.41828 3.4952 0
M  V30 10712 H 1032.66 -1.54868 2.51197 0
M  V30 10713 H 1032.74 0.218495 2.54865 0
M  V30 10714 H 1032.39 0.160067 5.07648 0
M  V30 10715 H 1032.32 -1.61887 5.01099 0
M  V30 10716 H 1034.81 -0.771054 3.6995 0
M  V30 10717 H 1035.12 -0.959494 7.6682 0
M  V30 10718 H 1033.47 -0.869795 6.89536 0
M  V30 10719 H 1036.66 -0.872459 4.59898 0
M  V30 10720 H 1036.83 -0.958615 6.4087 0
M  V30 10721 N 1030.24 -1.51135 -0.446768 0
M  V30 10722 C 1031.17 -1.67949 -1.55967 0
M  V30 10723 C 1032.18 -0.560337 -1.52853 0
M  V30 10724 O 1033.37 -0.83435 -1.578 0
M  V30 10725 C 1030.47 -1.6703 -2.9488 0
M  V30 10726 C 1029.64 -2.95377 -3.22601 0
M  V30 10727 C 1028.7 -2.86772 -4.4119 0
M  V30 10728 O 1027.73 -3.60722 -4.40304 0
M  V30 10729 N 1028.93 -2.01979 -5.44228 0
M  V30 10730 H 1031.69 -2.63951 -1.41951 0
M  V30 10731 H 1029.26 -1.48903 -0.635569 0
M  V30 10732 H 1031.25 -1.58854 -3.7222 0
M  V30 10733 H 1029.82 -0.786623 -3.02541 0
M  V30 10734 H 1029.04 -3.17494 -2.33647 0
M  V30 10735 H 1030.33 -3.80356 -3.37945 0
M  V30 10736 H 1029.72 -1.41257 -5.4778 0
M  V30 10737 H 1028.28 -1.99689 -6.20457 0
M  V30 10738 N 1031.71 0.701592 -1.41122 0
M  V30 10739 C 1032.96 1.45871 -1.39879 0
M  V30 10740 C 1033.28 1.94999 -0.00668769 0
M  V30 10741 O 1032.55 1.71298 0.95047 0
M  V30 10742 H 1031.13 0.541231 -0.514857 0
M  V30 10743 H 1033.79 0.830803 -1.76306 0
M  V30 10744 H 1032.89 2.32479 -2.0823 0
M  V30 10745 N 1033.19 1.2685 0.935242 0
M  V30 10746 C 1034.15 1.08975 2.01636 0
M  V30 10747 C 1035.15 0.0361543 1.60759 0
M  V30 10748 O 1036.34 0.280087 1.71934 0
M  V30 10749 C 1033.48 0.658831 3.34473 0
M  V30 10750 H 1034.67 2.04968 2.18925 0
M  V30 10751 H 1032.22 1.09531 1.11501 0
M  V30 10752 H 1032.96 -0.302824 3.22883 0
M  V30 10753 H 1032.74 1.41967 3.65497 0
M  V30 10754 H 1034.23 0.555783 4.13885 0
M  V30 10755 N 1034.67 -1.14067 1.0875 0
M  V30 10756 C 1035.92 -1.84535 0.814235 0
M  V30 10757 C 1036.23 -1.84044 -0.662355 0
M  V30 10758 O 1037.44 -2.50336 -1.05091 0
M  V30 10759 C 1035.89 -3.31273 1.40663 0
M  V30 10760 C 1035.5 -3.40171 2.91526 0
M  V30 10761 C 1037.25 -4.0683 1.21201 0
M  V30 10762 C 1035.15 -4.81141 3.43885 0
M  V30 10763 H 1034.08 -0.691346 0.300926 0
M  V30 10764 H 1036.73 -1.28562 1.30935 0
M  V30 10765 H 1035.12 -3.87005 0.839215 0
M  V30 10766 H 1036.29 -2.94471 3.54434 0
M  V30 10767 H 1034.61 -2.78073 3.09942 0
M  V30 10768 H 1037.2 -5.10891 1.57781 0
M  V30 10769 H 1037.55 -4.16022 0.152092 0
M  V30 10770 H 1038.08 -3.57408 1.74655 0
M  V30 10771 H 1034.82 -4.77138 4.49466 0
M  V30 10772 H 1034.34 -5.27365 2.85738 0
M  V30 10773 H 1036.02 -5.50042 3.40681 0
M  V30 10774 N 1036.15 -0.873678 -1.31166 0
M  V30 10775 C 1037.39 -0.487178 -1.96861 0
M  V30 10776 C 1037.73 0.95887 -1.68877 0
M  V30 10777 O 1037 1.6758 -0.987279 0
M  V30 10778 C 1037.29 -0.74925 -3.52219 0
M  V30 10779 C 1037.14 -2.2451 -3.89763 0
M  V30 10780 C 1038.46 -0.218194 -4.39559 0
M  V30 10781 H 1035.58 -0.178477 -0.715063 0
M  V30 10782 H 1038.22 -1.0956 -1.55231 0
M  V30 10783 H 1036.37 -0.231403 -3.8781 0
M  V30 10784 H 1038.04 -2.83049 -3.64254 0
M  V30 10785 H 1036.28 -2.71621 -3.38237 0
M  V30 10786 H 1036.95 -2.37911 -4.98099 0
M  V30 10787 H 1039.43 -0.661274 -4.10812 0
M  V30 10788 H 1038.31 -0.430983 -5.47205 0
M  V30 10789 H 1038.57 0.880056 -4.33252 0
M  V30 10790 N 1037.63 1.44308 -0.633487 0
M  V30 10791 C 1038.59 2.2912 0.060376 0
M  V30 10792 C 1039.59 1.41166 0.769992 0
M  V30 10793 O 1040.78 1.63012 0.614224 0
M  V30 10794 C 1037.91 3.22798 1.0961 0
M  V30 10795 H 1039.1 2.91958 -0.685617 0
M  V30 10796 H 1036.66 1.51259 -0.393738 0
M  V30 10797 H 1037.39 2.64815 1.87199 0
M  V30 10798 H 1037.18 3.87618 0.591161 0
M  V30 10799 H 1038.67 3.86504 1.58127 0
M  V30 10800 N 1039.1 0.374177 1.53094 0
M  V30 10801 C 1040.35 -0.213131 2.01677 0
M  V30 10802 C 1040.68 -1.47715 1.26071 0
M  V30 10803 O 1039.96 -1.91199 0.356834 0
M  V30 10804 C 1040.24 -0.496392 3.56662 0
M  V30 10805 C 1040.09 0.781859 4.42953 0
M  V30 10806 C 1041.41 -1.29339 4.20666 0
M  V30 10807 H 1038.53 -0.0759885 0.733072 0
M  V30 10808 H 1041.17 0.500765 1.83282 0
M  V30 10809 H 1039.32 -1.10455 3.72467 0
M  V30 10810 H 1041 1.41914 4.38928 0
M  V30 10811 H 1039.24 1.40041 4.10574 0
M  V30 10812 H 1039.91 0.538508 5.49367 0
M  V30 10813 H 1042.39 -0.778848 4.08746 0
M  V30 10814 H 1041.26 -1.46033 5.29118 0
M  V30 10815 H 1041.52 -2.30435 3.77296 0
M  V30 10816 N 1040.58 -1.57259 0.103575 0
M  V30 10817 C 1041.81 -1.99 -0.566275 0
M  V30 10818 C 1042.23 -0.982909 -1.61197 0
M  V30 10819 O 1041.58 0.026345 -1.82481 0
M  V30 10820 C 1041.63 -3.40778 -1.20635 0
M  V30 10821 O 1041.35 -4.37632 -0.202472 0
M  V30 10822 C 1042.86 -3.97567 -1.961 0
M  V30 10823 H 1040.08 -0.653751 -0.151164 0
M  V30 10824 H 1042.62 -2.03658 0.185365 0
M  V30 10825 H 1040.77 -3.37107 -1.90886 0
M  V30 10826 H 1041.19 -5.2026 -0.665535 0
M  V30 10827 H 1042.66 -4.98897 -2.36233 0
M  V30 10828 H 1043.14 -3.35853 -2.83018 0
M  V30 10829 H 1043.75 -4.04737 -1.30645 0
M  V30 10830 N 1042.06 0.170153 -1.56679 0
M  V30 10831 C 1043.31 0.884841 -1.817 0
M  V30 10832 C 1043.63 1.82731 -0.680763 0
M  V30 10833 O 1042.9 1.936 0.299294 0
M  V30 10834 H 1041.48 0.329738 -0.670285 0
M  V30 10835 H 1044.14 0.169691 -1.9416 0
M  V30 10836 H 1043.24 1.46104 -2.7579 0
M  V30 10837 N 1043.54 1.5137 0.438746 0
M  V30 10838 C 1044.82 1.54508 1.19944 0
M  V30 10839 C 1045.2 0.308525 2.08833 0
M  V30 10840 O 1044.54 -0.706461 2.17305 0
M  V30 10841 C 1044.75 2.85833 2.00251 0
M  V30 10842 C 1046.1 3.37729 2.5734 0
M  V30 10843 O 1047.13 2.87374 2.10463 0
M  V30 10844 O 1045.98 4.25589 3.42836 0
M  V30 10845 H 1043.08 0.621132 0.546007 0
M  V30 10846 H 1045.62 1.63682 0.447931 0
M  V30 10847 H 1044.4 3.67291 1.34955 0
M  V30 10848 H 1044.02 2.79815 2.8247 0
M  V30 10849 N 1045.02 -0.694098 1.41492 0
M  V30 10850 C 1046.26 -1.45127 1.4065 0
M  V30 10851 C 1046.59 -1.94993 0.0170289 0
M  V30 10852 O 1045.86 -1.71799 -0.941372 0
M  V30 10853 H 1044.44 -0.538493 0.51772 0
M  V30 10854 H 1047.1 -0.821441 1.76744 0
M  V30 10855 H 1046.19 -2.31372 2.0946 0
M  V30 10856 N 1046.49 -1.27344 -0.928501 0
M  V30 10857 C 1047.74 -1.13804 -1.67859 0
M  V30 10858 C 1048.07 0.31555 -1.91619 0
M  V30 10859 O 1047.35 1.23087 -1.50599 0
M  V30 10860 C 1047.63 -1.9213 -3.04562 0
M  V30 10861 C 1047.48 -3.45468 -2.88048 0
M  V30 10862 C 1048.8 -1.72513 -4.04879 0
M  V30 10863 H 1045.92 -0.414796 -0.609191 0
M  V30 10864 H 1048.56 -1.5649 -1.07753 0
M  V30 10865 H 1046.71 -1.55853 -3.55868 0
M  V30 10866 H 1048.39 -3.9157 -2.43865 0
M  V30 10867 H 1046.63 -3.71849 -2.23407 0
M  V30 10868 H 1047.3 -3.95515 -3.85061 0
M  V30 10869 H 1049.78 -2.04143 -3.62581 0
M  V30 10870 H 1048.65 -2.29713 -4.98521 0
M  V30 10871 H 1048.91 -0.672856 -4.3695 0
M  V30 10872 N 1047.97 1.13488 -1.09353 0
M  V30 10873 C 1048.92 2.20949 -0.726923 0
M  V30 10874 C 1049.91 1.67205 0.271816 0
M  V30 10875 O 1051.12 1.79505 0.133356 0
M  V30 10876 H 1047.5 0.719985 -0.217086 0
M  V30 10877 H 1049.47 2.49134 -1.6424 0
M  V30 10878 C 1048.22 3.47319 -0.162822 0
M  V30 10879 H 1047.54 3.89011 -0.922527 0
M  V30 10880 H 1048.98 4.23963 0.0557734 0
M  V30 10881 C 1047.44 3.18376 1.10175 0
M  V30 10882 O 1047.97 3.3707 2.18511 0
M  V30 10883 N 1046.17 2.72262 1.01597 0
M  V30 10884 H 1045.72 2.5725 0.134289 0
M  V30 10885 H 1045.68 2.53272 1.86281 0
M  V30 10886 N 1049.45 0.880621 1.30701 0
M  V30 10887 C 1050.73 0.41712 1.91101 0
M  V30 10888 C 1051.11 -1.10177 1.80067 0
M  V30 10889 O 1050.46 -1.93513 1.21511 0
M  V30 10890 C 1050.67 0.910364 3.36917 0
M  V30 10891 C 1052.01 0.942764 4.14001 0
M  V30 10892 O 1053.04 0.856733 3.45743 0
M  V30 10893 O 1051.9 1.06913 5.3594 0
M  V30 10894 H 1048.99 0.126775 0.817225 0
M  V30 10895 H 1051.54 0.969236 1.39298 0
M  V30 10896 H 1050.31 1.95414 3.39012 0
M  V30 10897 H 1049.93 0.337164 3.96168 0
M  V30 10898 N 1050.93 -1.4397 0.641131 0
M  V30 10899 C 1052.15 -2.06818 0.155318 0
M  V30 10900 C 1052.58 -1.47665 -1.16519 0
M  V30 10901 O 1051.94 -0.58192 -1.71707 0
M  V30 10902 C 1051.99 -3.60542 0.0647537 0
M  V30 10903 O 1051.09 -4.00674 -0.976447 0
M  V30 10904 H 1050.43 -0.657962 0.0893404 0
M  V30 10905 H 1052.96 -1.84678 0.88064 0
M  V30 10906 H 1052.97 -4.07816 -0.122552 0
M  V30 10907 H 1051.65 -4.02975 1.02878 0
M  V30 10908 H 1050.22 -3.65013 -0.762905 0
M  V30 10909 N 1052.41 -0.382291 -1.52893 0
M  V30 10910 C 1053.82 0.0932841 -1.86467 0
M  V30 10911 C 1054.17 1.4675 -1.30226 0
M  V30 10912 O 1053.29 2.07001 -0.63084 0
M  V30 10913 C 1053.89 0.176048 -3.38342 0
M  V30 10914 C 1052.45 0.595904 -3.71653 0
M  V30 10915 C 1051.6 -0.246511 -2.76202 0
M  V30 10916 H 1054.55 -0.600443 -1.46903 0
M  V30 10917 H 1054.57 0.996512 -3.67219 0
M  V30 10918 H 1054.08 -0.824264 -3.79246 0
M  V30 10919 H 1052.18 1.60384 -3.36315 0
M  V30 10920 H 1052.29 0.358919 -4.77754 0
M  V30 10921 H 1050.66 0.287162 -2.53076 0
M  V30 10922 H 1051.44 -1.24467 -3.19942 0
M  V30 10923 N 1053.89 1.57202 -0.111913 0
M  V30 10924 C 1054.85 2.13778 0.826534 0
M  V30 10925 C 1055.85 1.07097 1.19945 0
M  V30 10926 O 1057.04 1.32906 1.12613 0
M  V30 10927 C 1054.17 2.6722 2.11675 0
M  V30 10928 H 1055.36 2.98023 0.334975 0
M  V30 10929 H 1052.92 1.55696 0.137256 0
M  V30 10930 H 1053.65 1.86542 2.65278 0
M  V30 10931 H 1053.44 3.45235 1.8589 0
M  V30 10932 H 1054.93 3.10926 2.78774 0
M  V30 10933 N 1055.36 -0.161842 1.56767 0
M  V30 10934 C 1056.29 -1.20226 2.0017 0
M  V30 10935 C 1057.27 -1.4564 0.878807 0
M  V30 10936 O 1058.46 -1.56813 1.14557 0
M  V30 10937 C 1055.59 -2.53897 2.36968 0
M  V30 10938 C 1054.54 -2.43033 3.52305 0
M  V30 10939 C 1053.87 -3.81281 3.74872 0
M  V30 10940 C 1055.17 -1.927 4.85453 0
M  V30 10941 H 1056.86 -0.84142 2.87333 0
M  V30 10942 H 1054.41 -0.403309 1.38237 0
M  V30 10943 H 1056.36 -3.26893 2.6593 0
M  V30 10944 H 1055.09 -2.91787 1.46724 0
M  V30 10945 H 1053.75 -1.7249 3.23485 0
M  V30 10946 H 1053.39 -4.1658 2.81904 0
M  V30 10947 H 1053.09 -3.74877 4.52483 0
M  V30 10948 H 1054.62 -4.55848 4.06245 0
M  V30 10949 H 1056.03 -2.55477 5.13229 0
M  V30 10950 H 1054.43 -1.97222 5.66766 0
M  V30 10951 H 1055.5 -0.881816 4.76814 0
M  V30 10952 N 1056.84 -1.516 -0.430713 0
M  V30 10953 C 1057.79 -1.73392 -1.52328 0
M  V30 10954 C 1058.76 -0.575758 -1.55802 0
M  V30 10955 O 1059.94 -0.810931 -1.72709 0
M  V30 10956 C 1057.08 -1.87092 -2.89984 0
M  V30 10957 C 1056.2 -3.14668 -2.95987 0
M  V30 10958 C 1055.33 -3.18923 -4.24807 0
M  V30 10959 C 1054.37 -4.40787 -4.24703 0
M  V30 10960 N 1053.51 -4.42556 -5.45059 0
M  V30 10961 H 1058.35 -2.6665 -1.33048 0
M  V30 10962 H 1055.88 -1.32146 -0.646207 0
M  V30 10963 H 1057.84 -1.93017 -3.69865 0
M  V30 10964 H 1056.47 -0.972363 -3.07807 0
M  V30 10965 H 1055.52 -3.1802 -2.08728 0
M  V30 10966 H 1056.84 -4.04562 -2.91772 0
M  V30 10967 H 1055.99 -3.23801 -5.13067 0
M  V30 10968 H 1054.73 -2.2693 -4.31688 0
M  V30 10969 H 1053.73 -4.36079 -3.34836 0
M  V30 10970 H 1054.96 -5.34053 -4.19481 0
M  V30 10971 H 1052.91 -3.53435 -5.52648 0
M  V30 10972 H 1052.82 -5.26267 -5.42751 0
M  V30 10973 H 1054.09 -4.51634 -6.35332 0
M  V30 10974 N 1058.32 0.686584 -1.41858 0
M  V30 10975 C 1059.27 1.80038 -1.44413 0
M  V30 10976 C 1060.24 1.63415 -0.297427 0
M  V30 10977 O 1061.42 1.84138 -0.499789 0
M  V30 10978 C 1058.56 3.17988 -1.34082 0
M  V30 10979 C 1057.67 3.45979 -2.58693 0
M  V30 10980 C 1056.81 4.73592 -2.4059 0
M  V30 10981 C 1055.85 4.94581 -3.60633 0
M  V30 10982 N 1054.99 6.13426 -3.41545 0
M  V30 10983 H 1059.83 1.77189 -2.396 0
M  V30 10984 H 1057.36 0.865158 -1.18968 0
M  V30 10985 H 1059.32 3.97689 -1.26092 0
M  V30 10986 H 1057.95 3.1999 -0.424975 0
M  V30 10987 H 1057 2.60617 -2.77097 0
M  V30 10988 H 1058.31 3.57386 -3.47961 0
M  V30 10989 H 1057.47 5.61364 -2.30119 0
M  V30 10990 H 1056.21 4.64448 -1.48794 0
M  V30 10991 H 1055.21 4.05254 -3.71549 0
M  V30 10992 H 1056.44 5.05578 -4.53395 0
M  V30 10993 H 1054.38 6.05477 -2.52456 0
M  V30 10994 H 1054.3 6.25641 -4.24393 0
M  V30 10995 H 1055.57 7.03908 -3.34864 0
M  V30 10996 N 1059.8 1.27835 0.921735 0
M  V30 10997 C 1060.76 1.11108 2.00469 0
M  V30 10998 C 1061.76 0.053203 1.60712 0
M  V30 10999 O 1062.95 0.298308 1.71627 0
M  V30 11000 C 1060.08 0.694269 3.33755 0
M  V30 11001 H 1061.28 2.07279 2.16738 0
M  V30 11002 H 1058.83 1.10708 1.10333 0
M  V30 11003 H 1059.56 -0.268561 3.23186 0
M  V30 11004 H 1059.35 1.45836 3.6397 0
M  V30 11005 H 1060.84 0.59965 4.13272 0
M  V30 11006 N 1061.28 -1.12907 1.09954 0
M  V30 11007 C 1062.55 -1.80602 0.751148 0
M  V30 11008 C 1062.93 -1.96826 -0.763077 0
M  V30 11009 O 1062.28 -1.54066 -1.68749 0
M  V30 11010 C 1062.49 -3.15289 1.49646 0
M  V30 11011 C 1063.84 -3.9056 1.66578 0
M  V30 11012 O 1064.86 -3.24929 1.45943 0
M  V30 11013 O 1063.72 -5.08292 2.00752 0
M  V30 11014 H 1060.82 -0.781529 0.270446 0
M  V30 11015 H 1063.36 -1.19786 1.20206 0
M  V30 11016 H 1062.13 -2.9874 2.52725 0
M  V30 11017 H 1061.76 -3.83809 1.03808 0
M  V30 11018 N 1062.75 -0.88754 -1.30232 0
M  V30 11019 C 1064 -0.503322 -1.95319 0
M  V30 11020 C 1064.32 0.952817 -1.70824 0
M  V30 11021 O 1065.52 1.444 -2.29915 0
M  V30 11022 C 1063.98 -0.849216 -3.49738 0
M  V30 11023 C 1063.59 -2.3233 -3.83049 0
M  V30 11024 C 1065.33 -0.53432 -4.21124 0
M  V30 11025 C 1063.24 -2.61069 -5.30657 0
M  V30 11026 H 1062.17 -0.1845 -0.731078 0
M  V30 11027 H 1064.82 -1.08287 -1.48143 0
M  V30 11028 H 1063.2 -0.198729 -3.95501 0
M  V30 11029 H 1064.37 -3.01832 -3.48187 0
M  V30 11030 H 1062.69 -2.60599 -3.24773 0
M  V30 11031 H 1065.29 -0.726039 -5.29748 0
M  V30 11032 H 1065.63 0.526434 -4.12958 0
M  V30 11033 H 1066.16 -1.14211 -3.81052 0
M  V30 11034 H 1062.9 -3.65895 -5.43876 0
M  V30 11035 H 1062.42 -1.96179 -5.6681 0
M  V30 11036 H 1064.1 -2.46703 -5.98119 0
M  V30 11037 N 1064.23 1.43628 -0.648757 0
M  V30 11038 C 1065.48 2.01465 -0.16002 0
M  V30 11039 C 1065.8 1.51413 1.22878 0
M  V30 11040 O 1065.07 0.724919 1.81994 0
M  V30 11041 H 1063.65 0.744885 -0.0561672 0
M  V30 11042 H 1066.31 1.75897 -0.839422 0
M  V30 11043 H 1065.41 3.1178 -0.141213 0
M  V30 11044 N 1065.71 0.390394 1.52688 0
M  V30 11045 C 1066.96 -0.191729 2.01892 0
M  V30 11046 C 1067.29 -1.4637 1.27631 0
M  V30 11047 O 1066.56 -1.90809 0.377094 0
M  V30 11048 C 1066.85 -0.458535 3.57169 0
M  V30 11049 C 1066.7 0.828796 4.42098 0
M  V30 11050 C 1068.02 -1.2487 4.22014 0
M  V30 11051 H 1065.14 -0.0682091 0.733837 0
M  V30 11052 H 1067.78 0.520176 1.82741 0
M  V30 11053 H 1065.93 -1.06498 3.73618 0
M  V30 11054 H 1067.6 1.46562 4.37398 0
M  V30 11055 H 1065.85 1.44388 4.09066 0
M  V30 11056 H 1066.52 0.596746 5.48765 0
M  V30 11057 H 1068.99 -0.735452 4.09549 0
M  V30 11058 H 1067.87 -1.40412 5.30637 0
M  V30 11059 H 1068.13 -2.2642 3.79719 0
M  V30 11060 N 1067.19 -1.57141 0.120249 0
M  V30 11061 C 1068.15 -2.14213 -0.815185 0
M  V30 11062 C 1069.15 -1.07731 -1.19376 0
M  V30 11063 O 1070.34 -1.33502 -1.11906 0
M  V30 11064 C 1067.47 -2.68339 -2.10255 0
M  V30 11065 H 1068.67 -2.98197 -0.319166 0
M  V30 11066 H 1066.22 -1.55767 -0.128997 0
M  V30 11067 H 1066.95 -1.87946 -2.64285 0
M  V30 11068 H 1066.74 -3.46216 -1.84057 0
M  V30 11069 H 1068.23 -3.124 -2.77121 0
M  V30 11070 N 1068.67 0.153526 -1.5685 0
M  V30 11071 C 1069.6 1.21906 -1.9291 0
M  V30 11072 C 1070.58 1.4189 -0.794098 0
M  V30 11073 O 1071.76 1.56609 -1.0491 0
M  V30 11074 C 1068.89 2.57908 -2.19548 0
M  V30 11075 C 1067.93 2.54557 -3.42203 0
M  V30 11076 S 1068.77 2.01891 -4.95984 0
M  V30 11077 C 1069.92 3.39635 -5.25737 0
M  V30 11078 H 1070.16 0.911382 -2.82986 0
M  V30 11079 H 1067.69 0.358863 -1.50172 0
M  V30 11080 H 1069.65 3.36177 -2.35575 0
M  V30 11081 H 1068.31 2.85868 -1.30147 0
M  V30 11082 H 1067.5 3.54657 -3.58098 0
M  V30 11083 H 1067.1 1.84393 -3.25385 0
M  V30 11084 H 1069.4 4.35716 -5.18804 0
M  V30 11085 H 1070.34 3.28599 -6.27239 0
M  V30 11086 H 1070.75 3.36469 -4.53265 0
M  V30 11087 N 1070.14 1.51827 0.422667 0
M  V30 11088 C 1071.39 1.64893 1.16853 0
M  V30 11089 C 1071.71 0.37456 1.91369 0
M  V30 11090 O 1070.98 -0.610128 1.86157 0
M  V30 11091 H 1069.56 0.607744 0.434345 0
M  V30 11092 H 1072.23 1.88816 0.483159 0
M  V30 11093 H 1071.32 2.48361 1.89006 0
M  V30 11094 N 1071.62 -0.679052 1.4222 0
M  V30 11095 C 1072.87 -1.43485 1.41757 0
M  V30 11096 C 1073.18 -1.95567 0.0358698 0
M  V30 11097 O 1074.39 -2.71346 -0.0913713 0
M  V30 11098 C 1072.85 -2.59541 2.49332 0
M  V30 11099 C 1072.45 -2.14176 3.93488 0
M  V30 11100 C 1074.2 -3.37078 2.58029 0
M  V30 11101 C 1072.11 -3.27289 4.92581 0
M  V30 11102 H 1071.04 -0.539022 0.52723 0
M  V30 11103 H 1073.69 -0.735581 1.68111 0
M  V30 11104 H 1072.07 -3.31815 2.16135 0
M  V30 11105 H 1073.24 -1.49082 4.36017 0
M  V30 11106 H 1071.56 -1.49589 3.88603 0
M  V30 11107 H 1074.15 -4.21312 3.29242 0
M  V30 11108 H 1074.5 -3.83383 1.62245 0
M  V30 11109 H 1075.03 -2.7187 2.90399 0
M  V30 11110 H 1071.77 -2.8598 5.89827 0
M  V30 11111 H 1071.29 -3.91178 4.54687 0
M  V30 11112 H 1072.97 -3.9282 5.14103 0
M  V30 11113 N 1073.1 -1.28322 -0.914942 0
M  V30 11114 C 1074.06 -1.12169 -1.99877 0
M  V30 11115 C 1075.06 -0.0617252 -1.60681 0
M  V30 11116 O 1076.25 -0.307405 -1.71466 0
M  V30 11117 C 1073.39 -0.711959 -3.33383 0
M  V30 11118 H 1074.58 -2.08425 -2.15636 0
M  V30 11119 H 1072.13 -1.11291 -1.09745 0
M  V30 11120 H 1072.87 0.251418 -3.23324 0
M  V30 11121 H 1072.65 -1.47764 -3.63192 0
M  V30 11122 H 1074.14 -0.621558 -4.12948 0
M  V30 11123 N 1074.58 1.12322 -1.10551 0
M  V30 11124 C 1075.83 1.83495 -0.846998 0
M  V30 11125 C 1076.15 1.8457 0.629205 0
M  V30 11126 O 1075.42 1.30968 1.45686 0
M  V30 11127 H 1074 0.679479 -0.310351 0
M  V30 11128 H 1076.66 1.36004 -1.39602 0
M  V30 11129 H 1075.76 2.87651 -1.21092 0
M  V30 11130 N 1076.06 0.894434 1.2976 0
M  V30 11131 C 1077.28 0.5322 2.00455 0
M  V30 11132 C 1077.71 -0.874427 1.66539 0
M  V30 11133 O 1077.06 -1.58113 0.887129 0
M  V30 11134 C 1077.11 0.725264 3.53231 0
M  V30 11135 O 1076.22 -0.224612 4.11788 0
M  V30 11136 H 1075.56 0.208562 0.630395 0
M  V30 11137 H 1078.09 1.20458 1.65382 0
M  V30 11138 H 1078.1 0.627889 4.0314 0
M  V30 11139 H 1076.77 1.75079 3.77253 0
M  V30 11140 H 1075.35 -0.0801361 3.72814 0
M  V30 11141 N 1077.53 -1.43282 0.656365 0
M  V30 11142 C 1078.81 -1.9534 0.100816 0
M  V30 11143 C 1079.19 -1.59755 -1.37992 0
M  V30 11144 O 1078.54 -0.884264 -2.10697 0
M  V30 11145 C 1078.75 -3.47237 0.35038 0
M  V30 11146 C 1080.1 -4.23822 0.257001 0
M  V30 11147 O 1081.12 -3.55073 0.283111 0
M  V30 11148 O 1079.98 -5.46192 0.183397 0
M  V30 11149 H 1077.07 -0.826963 -0.00780287 0
M  V30 11150 H 1079.62 -1.53205 0.72982 0
M  V30 11151 H 1078.39 -3.66276 1.37685 0
M  V30 11152 H 1078.02 -3.96378 -0.311539 0
M  V30 11153 N 1079.01 -0.398486 -1.52479 0
M  V30 11154 C 1080.26 0.181019 -2.0199 0
M  V30 11155 C 1080.59 1.45691 -1.28405 0
M  V30 11156 O 1079.87 1.90607 -0.387207 0
M  V30 11157 C 1080.15 0.439587 -3.57407 0
M  V30 11158 C 1080 -0.85223 -4.41653 0
M  V30 11159 C 1081.32 1.2263 -4.2267 0
M  V30 11160 H 1078.44 0.0643164 -0.734188 0
M  V30 11161 H 1081.08 -0.52986 -1.82462 0
M  V30 11162 H 1079.23 1.04516 -3.74177 0
M  V30 11163 H 1080.91 -1.48879 -4.36615 0
M  V30 11164 H 1079.15 -1.46555 -4.08294 0
M  V30 11165 H 1079.82 -0.625839 -5.48441 0
M  V30 11166 H 1082.3 0.713722 -4.09933 0
M  V30 11167 H 1081.17 1.37596 -5.31374 0
M  V30 11168 H 1081.43 2.24403 -3.80914 0
M  V30 11169 N 1080.49 1.57075 -0.12858 0
M  V30 11170 C 1081.72 2.00305 0.537839 0
M  V30 11171 C 1082.14 1.00787 1.58819 0
M  V30 11172 O 1081.5 -0.0190839 1.8129 0
M  V30 11173 C 1081.55 3.42371 1.13201 0
M  V30 11174 O 1080.65 3.45786 2.24735 0
M  V30 11175 H 1079.99 0.650456 0.133428 0
M  V30 11176 H 1082.52 2.03415 -0.219882 0
M  V30 11177 H 1082.53 3.80783 1.4652 0
M  V30 11178 H 1081.21 4.14315 0.362713 0
M  V30 11179 H 1079.78 3.19201 1.92783 0
M  V30 11180 N 1081.97 -0.145205 1.5693 0
M  V30 11181 C 1082.92 -1.17923 1.98401 0
M  V30 11182 C 1083.89 -1.42591 0.851885 0
M  V30 11183 O 1085.07 -1.54896 1.11409 0
M  V30 11184 C 1082.21 -2.50727 2.37128 0
M  V30 11185 C 1081.32 -2.33218 3.63639 0
M  V30 11186 C 1080.46 -3.5907 3.91462 0
M  V30 11187 C 1079.5 -3.36605 5.11237 0
M  V30 11188 N 1078.64 -4.54592 5.35061 0
M  V30 11189 H 1083.48 -0.818573 2.86537 0
M  V30 11190 H 1081.01 -0.392739 1.4176 0
M  V30 11191 H 1082.97 -3.28165 2.57611 0
M  V30 11192 H 1081.6 -2.84736 1.52069 0
M  V30 11193 H 1080.65 -1.46826 3.50922 0
M  V30 11194 H 1081.96 -2.12579 4.51234 0
M  V30 11195 H 1081.12 -4.44936 4.12453 0
M  V30 11196 H 1079.86 -3.82715 3.02293 0
M  V30 11197 H 1078.86 -2.49127 4.90118 0
M  V30 11198 H 1080.09 -3.14357 6.01961 0
M  V30 11199 H 1078.03 -4.78406 4.48847 0
M  V30 11200 H 1077.95 -4.36962 6.16928 0
M  V30 11201 H 1079.22 -5.41666 5.60551 0
M  V30 11202 N 1083.45 -1.52049 -0.414609 0
M  V30 11203 C 1084.38 -1.7122 -1.52369 0
M  V30 11204 C 1085.39 -0.592634 -1.5163 0
M  V30 11205 O 1086.58 -0.867634 -1.55995 0
M  V30 11206 C 1083.68 -1.73247 -2.91271 0
M  V30 11207 C 1082.85 -3.02153 -3.16263 0
M  V30 11208 C 1081.91 -2.96066 -4.35007 0
M  V30 11209 O 1080.94 -3.69981 -4.32554 0
M  V30 11210 N 1082.14 -2.13478 -5.39822 0
M  V30 11211 H 1084.91 -2.66902 -1.3632 0
M  V30 11212 H 1082.47 -1.50218 -0.603842 0
M  V30 11213 H 1084.46 -1.66714 -3.68766 0
M  V30 11214 H 1083.03 -0.85062 -3.00804 0
M  V30 11215 H 1082.25 -3.22379 -2.2686 0
M  V30 11216 H 1083.54 -3.87439 -3.29801 0
M  V30 11217 H 1082.94 -1.52844 -5.44661 0
M  V30 11218 H 1081.49 -2.12805 -6.16082 0
M  V30 11219 N 1084.93 0.6715 -1.42579 0
M  V30 11220 C 1085.89 1.76676 -1.46008 0
M  V30 11221 C 1086.89 1.57007 -0.347213 0
M  V30 11222 O 1088.08 1.63238 -0.608185 0
M  V30 11223 C 1085.21 3.15348 -1.29494 0
M  V30 11224 H 1086.4 1.75021 -2.43531 0
M  V30 11225 H 1083.96 0.881444 -1.29075 0
M  V30 11226 H 1084.69 3.22626 -0.32906 0
M  V30 11227 H 1084.48 3.31028 -2.10149 0
M  V30 11228 H 1085.97 3.95251 -1.34784 0
M  V30 11229 N 1086.4 1.28806 0.908124 0
M  V30 11230 C 1087.37 1.13228 1.99279 0
M  V30 11231 C 1088.37 0.0702456 1.60646 0
M  V30 11232 O 1089.56 0.316494 1.71301 0
M  V30 11233 C 1086.69 0.729629 3.33 0
M  V30 11234 H 1087.88 2.09566 2.14528 0
M  V30 11235 H 1085.43 1.11872 1.09153 0
M  V30 11236 H 1086.17 -0.234268 3.23453 0
M  V30 11237 H 1085.95 1.49688 3.62403 0
M  V30 11238 H 1087.44 0.643449 4.12613 0
M  V30 11239 N 1087.88 -1.11734 1.11145 0
M  V30 11240 C 1089.16 -1.79795 0.770261 0
M  V30 11241 C 1089.54 -1.97624 -0.742158 0
M  V30 11242 O 1088.89 -1.55847 -1.67105 0
M  V30 11243 C 1089.1 -3.13684 1.52982 0
M  V30 11244 C 1090.44 -3.88771 1.70711 0
M  V30 11245 O 1091.47 -3.23363 1.49381 0
M  V30 11246 O 1090.33 -5.06134 2.06132 0
M  V30 11247 H 1087.42 -0.778617 0.27872 0
M  V30 11248 H 1089.97 -1.18504 1.2147 0
M  V30 11249 H 1088.74 -2.96043 2.55879 0
M  V30 11250 H 1088.36 -3.82687 1.07873 0
M  V30 11251 N 1089.36 -0.901303 -1.29284 0
M  V30 11252 C 1090.29 -0.32479 -2.25877 0
M  V30 11253 C 1091.27 0.563944 -1.52507 0
M  V30 11254 O 1092.45 0.510393 -1.81459 0
M  V30 11255 C 1089.58 0.536897 -3.34418 0
M  V30 11256 C 1088.63 -0.28474 -4.25548 0
M  V30 11257 S 1089.46 -1.68355 -5.08347 0
M  V30 11258 C 1090.62 -0.828826 -6.20388 0
M  V30 11259 H 1090.85 -1.14352 -2.74428 0
M  V30 11260 H 1088.38 -0.701749 -1.37531 0
M  V30 11261 H 1090.34 1.02827 -3.97413 0
M  V30 11262 H 1089 1.32988 -2.84558 0
M  V30 11263 H 1088.19 0.373566 -5.02614 0
M  V30 11264 H 1087.8 -0.709313 -3.67212 0
M  V30 11265 H 1090.09 -0.0529234 -6.77479 0
M  V30 11266 H 1091.03 -1.57161 -6.90439 0
M  V30 11267 H 1091.44 -0.382503 -5.63203 0
M  V30 11268 N 1090.84 1.42931 -0.663954 0
M  V30 11269 C 1092.09 2.00904 -0.179011 0
M  V30 11270 C 1092.4 1.53056 1.21791 0
M  V30 11271 O 1093.61 2.03374 1.79865 0
M  V30 11272 C 1092.06 3.58892 -0.269198 0
M  V30 11273 C 1091.67 4.15731 -1.66949 0
M  V30 11274 C 1093.41 4.24207 0.157589 0
M  V30 11275 C 1091.32 5.66047 -1.71303 0
M  V30 11276 H 1090.25 0.75135 -0.0631623 0
M  V30 11277 H 1092.9 1.6378 -0.827556 0
M  V30 11278 H 1091.28 3.93469 0.447048 0
M  V30 11279 H 1092.46 3.92634 -2.41195 0
M  V30 11280 H 1090.77 3.62826 -2.04318 0
M  V30 11281 H 1093.37 5.34503 0.145057 0
M  V30 11282 H 1093.71 3.98901 1.19095 0
M  V30 11283 H 1094.25 3.94552 -0.507274 0
M  V30 11284 H 1090.98 5.96136 -2.72584 0
M  V30 11285 H 1090.5 5.91167 -1.01398 0
M  V30 11286 H 1092.18 6.30275 -1.46158 0
M  V30 11287 N 1092.32 0.406567 1.52266 0
M  V30 11288 C 1093.25 -0.411314 2.29849 0
M  V30 11289 C 1094.23 -1.04838 1.33952 0
M  V30 11290 O 1095.41 -1.05788 1.62857 0
M  V30 11291 C 1092.54 -1.52961 3.11802 0
M  V30 11292 C 1091.5 -1.01768 4.15725 0
M  V30 11293 C 1090.82 -2.22938 4.86007 0
M  V30 11294 C 1092.12 -0.073515 5.22248 0
M  V30 11295 H 1093.82 0.236054 2.98468 0
M  V30 11296 H 1091.36 0.114968 1.4354 0
M  V30 11297 H 1093.31 -2.10874 3.64843 0
M  V30 11298 H 1092.04 -2.20482 2.40947 0
M  V30 11299 H 1090.7 -0.46097 3.6369 0
M  V30 11300 H 1090.35 -2.89007 4.11684 0
M  V30 11301 H 1090.05 -1.89338 5.5626 0
M  V30 11302 H 1091.57 -2.81462 5.41859 0
M  V30 11303 H 1092.98 -0.561367 5.70545 0
M  V30 11304 H 1091.38 0.173551 5.99849 0
M  V30 11305 H 1092.45 0.872524 4.76985 0
M  V30 11306 N 1093.79 -1.57004 0.136909 0
M  V30 11307 C 1094.72 -2.19262 -0.802902 0
M  V30 11308 C 1095.71 -1.13786 -1.26439 0
M  V30 11309 O 1096.89 -1.42091 -1.32377 0
M  V30 11310 C 1094.02 -2.80624 -2.04615 0
M  V30 11311 C 1092.97 -3.91839 -1.72181 0
M  V30 11312 C 1092.3 -4.4009 -3.03686 0
M  V30 11313 C 1093.6 -5.13095 -0.976249 0
M  V30 11314 H 1095.29 -2.98049 -0.28406 0
M  V30 11315 H 1092.84 -1.43364 -0.135189 0
M  V30 11316 H 1094.79 -3.22842 -2.70834 0
M  V30 11317 H 1093.52 -1.99153 -2.58855 0
M  V30 11318 H 1092.18 -3.50224 -1.08344 0
M  V30 11319 H 1091.82 -3.55454 -3.55896 0
M  V30 11320 H 1091.52 -5.15098 -2.82751 0
M  V30 11321 H 1093.05 -4.84971 -3.70993 0
M  V30 11322 H 1094.46 -5.5222 -1.54033 0
M  V30 11323 H 1092.86 -5.93801 -0.867214 0
M  V30 11324 H 1093.93 -4.84888 0.0338488 0
M  V30 11325 N 1095.27 0.136881 -1.57004 0
M  V30 11326 C 1096.55 0.87705 -1.74835 0
M  V30 11327 C 1096.93 1.98886 -0.707639 0
M  V30 11328 O 1096.28 2.26879 0.271652 0
M  V30 11329 C 1096.49 1.41021 -3.1924 0
M  V30 11330 C 1097.84 1.86963 -3.81222 0
M  V30 11331 O 1098.86 1.5074 -3.22732 0
M  V30 11332 O 1097.72 2.53798 -4.83993 0
M  V30 11333 H 1094.81 0.415192 -0.715223 0
M  V30 11334 H 1097.36 0.122016 -1.69261 0
M  V30 11335 H 1096.13 0.611677 -3.8649 0
M  V30 11336 H 1095.75 2.22846 -3.2928 0
M  V30 11337 N 1096.75 1.52266 0.40654 0
M  V30 11338 C 1098.03 1.57018 1.1664 0
M  V30 11339 C 1098.41 0.352752 2.08132 0
M  V30 11340 O 1097.76 -0.660208 2.18754 0
M  V30 11341 C 1097.97 2.90016 1.94143 0
M  V30 11342 C 1099.31 3.43112 2.50119 0
M  V30 11343 O 1100.34 2.91773 2.0432 0
M  V30 11344 O 1099.2 4.32765 3.33731 0
M  V30 11345 H 1096.29 0.632574 0.532709 0
M  V30 11346 H 1098.84 1.64595 0.413111 0
M  V30 11347 H 1097.61 3.70071 1.27134 0
M  V30 11348 H 1097.23 2.85744 2.76471 0
M  V30 11349 N 1098.23 -0.663929 1.42933 0
M  V30 11350 C 1099.18 -1.79843 1.4751 0
M  V30 11351 C 1100.17 -1.65751 0.349727 0
M  V30 11352 O 1101.38 -1.72227 0.523239 0
M  V30 11353 H 1097.75 -0.593176 0.462219 0
M  V30 11354 H 1099.72 -1.73102 2.4306 0
M  V30 11355 C 1098.47 -3.18053 1.4049 0
M  V30 11356 H 1097.79 -3.29529 2.26386 0
M  V30 11357 H 1099.23 -3.97423 1.47754 0
M  V30 11358 C 1097.69 -3.36682 0.121076 0
M  V30 11359 O 1098.22 -3.93202 -0.821874 0
M  V30 11360 N 1096.43 -2.90579 0.0347141 0
M  V30 11361 H 1095.98 -2.44769 0.802852 0
M  V30 11362 H 1095.93 -3.03421 -0.823607 0
M  V30 11363 N 1099.71 -1.29285 -0.901281 0
M  V30 11364 C 1100.95 -1.17165 -1.65162 0
M  V30 11365 C 1101.28 0.277184 -1.92515 0
M  V30 11366 O 1100.54 1.2168 -1.53273 0
M  V30 11367 C 1100.84 -1.92865 -3.00895 0
M  V30 11368 C 1100.5 -3.42593 -2.93157 0
M  V30 11369 C 1099.16 -3.83426 -2.90754 0
M  V30 11370 C 1101.52 -4.38011 -2.82481 0
M  V30 11371 C 1098.84 -5.17997 -2.75492 0
M  V30 11372 C 1101.2 -5.7267 -2.68759 0
M  V30 11373 C 1099.86 -6.12764 -2.64721 0
M  V30 11374 H 1099.13 -0.428737 -0.604372 0
M  V30 11375 H 1101.78 -1.60204 -1.04914 0
M  V30 11376 H 1100.08 -1.42412 -3.65001 0
M  V30 11377 H 1101.78 -1.80893 -3.57881 0
M  V30 11378 H 1098.37 -3.10134 -2.95829 0
M  V30 11379 H 1102.55 -4.07417 -2.83416 0
M  V30 11380 H 1097.81 -5.48173 -2.70769 0
M  V30 11381 H 1101.98 -6.46258 -2.59469 0
M  V30 11382 H 1099.61 -7.16987 -2.52652 0
M  V30 11383 N 1101.18 1.11143 -1.11736 0
M  V30 11384 C 1102.15 2.15456 -0.78174 0
M  V30 11385 C 1103.15 1.59547 0.200383 0
M  V30 11386 O 1104.34 1.74183 -0.0244893 0
M  V30 11387 C 1101.47 3.40523 -0.160364 0
M  V30 11388 H 1102.66 2.46658 -1.70586 0
M  V30 11389 H 1100.22 1.26381 -0.919644 0
M  V30 11390 H 1100.95 3.14932 0.773835 0
M  V30 11391 H 1100.74 3.82386 -0.867378 0
M  V30 11392 H 1102.23 4.17559 0.0582175 0
M  V30 11393 N 1102.66 0.908147 1.28804 0
M  V30 11394 C 1103.89 0.553431 1.9988 0
M  V30 11395 C 1104.31 -0.856714 1.67458 0
M  V30 11396 O 1103.67 -1.57163 0.903849 0
M  V30 11397 C 1103.72 0.762688 3.52442 0
M  V30 11398 O 1102.82 -0.180924 4.12003 0
M  V30 11399 H 1102.16 0.215237 0.628147 0
M  V30 11400 H 1104.69 1.22205 1.64095 0
M  V30 11401 H 1104.7 0.670612 4.02451 0
M  V30 11402 H 1103.38 1.79071 3.75375 0
M  V30 11403 H 1101.96 -0.0405897 3.72878 0
M  V30 11404 N 1104.14 -1.42577 0.671525 0
M  V30 11405 C 1105.39 -2.00806 0.189663 0
M  V30 11406 C 1105.7 -1.537 -1.20978 0
M  V30 11407 O 1106.91 -2.04325 -1.78784 0
M  V30 11408 C 1105.36 -3.58744 0.288227 0
M  V30 11409 C 1104.97 -4.14839 1.69152 0
M  V30 11410 C 1106.72 -4.24285 -0.13509 0
M  V30 11411 C 1104.62 -5.65131 1.74302 0
M  V30 11412 H 1103.55 -0.751004 0.067146 0
M  V30 11413 H 1106.2 -1.63338 0.83623 0
M  V30 11414 H 1104.59 -3.937 -0.426175 0
M  V30 11415 H 1105.76 -3.91349 2.43274 0
M  V30 11416 H 1104.08 -3.61738 2.0624 0
M  V30 11417 H 1106.67 -5.34573 -0.116709 0
M  V30 11418 H 1107.02 -3.99527 -1.16977 0
M  V30 11419 H 1107.55 -3.94278 0.528191 0
M  V30 11420 H 1104.29 -5.94682 2.75742 0
M  V30 11421 H 1103.81 -5.90621 1.04531 0
M  V30 11422 H 1105.49 -6.29491 1.49498 0
M  V30 11423 N 1105.62 -0.414636 -1.52048 0
M  V30 11424 C 1106.86 0.159585 -2.02171 0
M  V30 11425 C 1107.2 1.44321 -1.29943 0
M  V30 11426 O 1106.47 1.90185 -0.407402 0
M  V30 11427 C 1106.76 0.401655 -3.57853 0
M  V30 11428 C 1106.61 -0.899026 -4.40724 0
M  V30 11429 C 1107.93 1.1814 -4.23947 0
M  V30 11430 H 1105.05 0.0565257 -0.734829 0
M  V30 11431 H 1107.69 -0.549183 -1.8189 0
M  V30 11432 H 1105.84 1.00541 -3.75265 0
M  V30 11433 H 1107.51 -1.53502 -4.35011 0
M  V30 11434 H 1105.75 -1.50877 -4.06717 0
M  V30 11435 H 1106.42 -0.683974 -5.47746 0
M  V30 11436 H 1108.9 0.670203 -4.10667 0
M  V30 11437 H 1107.78 1.31953 -5.32804 0
M  V30 11438 H 1108.04 2.2035 -3.83273 0
M  V30 11439 N 1107.1 1.56929 -0.145233 0
M  V30 11440 C 1108.32 2.00431 0.513314 0
M  V30 11441 C 1108.74 1.0253 1.58534 0
M  V30 11442 O 1108.1 0.0220459 1.82487 0
M  V30 11443 C 1108.15 3.43856 1.11557 0
M  V30 11444 O 1107.87 4.38015 0.0863707 0
M  V30 11445 C 1109.37 4.02627 1.8549 0
M  V30 11446 H 1106.59 0.657529 0.133778 0
M  V30 11447 H 1109.13 2.03095 -0.239296 0
M  V30 11448 H 1107.29 3.4205 1.81881 0
M  V30 11449 H 1107.7 5.21842 0.527363 0
M  V30 11450 H 1109.18 5.04985 2.22923 0
M  V30 11451 H 1109.65 3.43239 2.74014 0
M  V30 11452 H 1110.26 4.08058 1.19869 0
M  V30 11453 N 1108.58 -0.128553 1.57075 0
M  V30 11454 C 1109.82 -0.836355 1.83982 0
M  V30 11455 C 1110.14 -1.80862 0.728971 0
M  V30 11456 O 1109.41 -1.94326 -0.247859 0
M  V30 11457 H 1107.99 -0.31185 0.678792 0
M  V30 11458 H 1110.66 -0.118153 1.94542 0
M  V30 11459 H 1109.75 -1.38741 2.79567 0
M  V30 11460 N 1110.05 -1.5248 -0.398459 0
M  V30 11461 C 1111.3 -1.67309 -1.1461 0
M  V30 11462 C 1111.63 -0.407095 -1.89885 0
M  V30 11463 O 1110.91 0.594834 -1.85181 0
M  V30 11464 C 1111.19 -2.90204 -2.13198 0
M  V30 11465 C 1111.04 -4.26881 -1.4175 0
M  V30 11466 C 1112.36 -3.08634 -3.13741 0
M  V30 11467 H 1109.48 -0.608853 -0.415292 0
M  V30 11468 H 1112.12 -1.85057 -0.430573 0
M  V30 11469 H 1110.27 -2.75204 -2.74218 0
M  V30 11470 H 1111.95 -4.53631 -0.837676 0
M  V30 11471 H 1110.19 -4.27793 -0.719387 0
M  V30 11472 H 1110.86 -5.08939 -2.1374 0
M  V30 11473 H 1113.34 -3.22603 -2.62805 0
M  V30 11474 H 1112.21 -3.96117 -3.79977 0
M  V30 11475 H 1112.47 -2.22425 -3.82073 0
M  V30 11476 N 1111.53 0.65634 -1.43283 0
M  V30 11477 C 1112.44 1.79847 -1.50639 0
M  V30 11478 C 1113.46 1.69487 -0.393714 0
M  V30 11479 O 1114.63 1.90712 -0.647379 0
M  V30 11480 C 1111.7 3.16107 -1.42398 0
M  V30 11481 C 1110.76 3.38287 -2.64312 0
M  V30 11482 C 1109.99 4.68046 -2.56454 0
M  V30 11483 O 1110.22 5.4719 -1.61056 0
M  V30 11484 O 1109.15 4.91877 -3.46902 0
M  V30 11485 H 1112.98 1.76596 -2.47078 0
M  V30 11486 H 1110.56 0.814428 -1.25249 0
M  V30 11487 H 1112.44 3.97382 -1.40233 0
M  V30 11488 H 1111.12 3.19956 -0.490929 0
M  V30 11489 H 1110.02 2.56788 -2.72049 0
M  V30 11490 H 1111.36 3.39282 -3.56579 0
M  V30 11491 N 1113.01 1.29761 0.894412 0
M  V30 11492 C 1113.92 1.1724 2.03204 0
M  V30 11493 C 1114.94 0.0944452 1.73743 0
M  V30 11494 O 1116.11 0.307549 1.99038 0
M  V30 11495 C 1113.18 0.855416 3.35981 0
M  V30 11496 C 1112.24 2.01777 3.78926 0
M  V30 11497 C 1111.47 1.71581 5.05367 0
M  V30 11498 O 1111.69 0.639245 5.66807 0
M  V30 11499 O 1110.63 2.56539 5.44492 0
M  V30 11500 H 1114.45 2.12787 2.16692 0
M  V30 11501 H 1112.04 1.09264 1.0189 0
M  V30 11502 H 1113.92 0.693429 4.15656 0
M  V30 11503 H 1112.6 -0.0702195 3.23624 0
M  V30 11504 H 1111.5 2.23502 2.99996 0
M  V30 11505 H 1112.84 2.92479 3.95875 0
M  V30 11506 N 1114.49 -1.10549 1.12324 0
M  V30 11507 C 1115.74 -1.82124 0.876083 0
M  V30 11508 C 1116.06 -1.85547 -0.599761 0
M  V30 11509 O 1115.33 -1.33269 -1.43584 0
M  V30 11510 H 1113.91 -0.674455 0.321122 0
M  V30 11511 H 1116.57 -1.33766 1.41748 0
M  V30 11512 H 1115.66 -2.85688 1.25653 0
M  V30 11513 N 1115.97 -0.914965 -1.28321 0
M  V30 11514 C 1117.38 -0.613297 -1.47346 0
M  V30 11515 C 1117.58 0.84106 -1.83108 0
M  V30 11516 O 1116.64 1.62004 -1.93678 0
M  V30 11517 C 1117.95 -1.55224 -2.57538 0
M  V30 11518 C 1119.5 -1.55909 -2.71407 0
M  V30 11519 C 1119.97 -2.48468 -3.84744 0
M  V30 11520 N 1121.46 -2.46602 -3.92099 0
M  V30 11521 C 1122.2 -3.14917 -4.79182 0
M  V30 11522 N 1121.7 -3.92566 -5.70845 0
M  V30 11523 N 1123.49 -3.03998 -4.72802 0
M  V30 11524 H 1115.64 -1.85539 -1.03388 0
M  V30 11525 H 1117.9 -0.795875 -0.515061 0
M  V30 11526 H 1117.61 -2.58917 -2.38023 0
M  V30 11527 H 1117.48 -1.28426 -3.54664 0
M  V30 11528 H 1119.87 -0.52953 -2.9031 0
M  V30 11529 H 1119.95 -1.86751 -1.74808 0
M  V30 11530 H 1119.59 -3.51526 -3.66595 0
M  V30 11531 H 1119.52 -2.14928 -4.80743 0
M  V30 11532 H 1122.02 -1.90199 -3.26547 0
M  V30 11533 H 1122.33 -4.41709 -6.34123 0
M  V30 11534 H 1120.67 -3.96671 -5.70681 0
M  V30 11535 H 1123.86 -2.42839 -4.00184 0
M  V30 11536 H 1124.04 -3.57511 -5.40454 0
M  V30 11537 N 1117.44 1.42219 -0.679077 0
M  V30 11538 C 1118.37 2.33493 -0.0174528 0
M  V30 11539 C 1119.35 1.50915 0.78477 0
M  V30 11540 O 1120.54 1.79504 0.741065 0
M  V30 11541 C 1117.67 3.34576 0.931463 0
M  V30 11542 C 1116.62 4.2734 0.237527 0
M  V30 11543 C 1115.95 5.18664 1.29967 0
M  V30 11544 C 1117.25 5.14729 -0.886082 0
M  V30 11545 H 1118.94 2.89068 -0.779748 0
M  V30 11546 H 1116.49 1.38993 -0.376419 0
M  V30 11547 H 1118.44 3.97343 1.40343 0
M  V30 11548 H 1117.17 2.77315 1.72523 0
M  V30 11549 H 1115.83 3.65973 -0.214245 0
M  V30 11550 H 1115.47 4.57727 2.08554 0
M  V30 11551 H 1115.17 5.81558 0.840463 0
M  V30 11552 H 1116.7 5.84308 1.77249 0
M  V30 11553 H 1118.11 5.71158 -0.495141 0
M  V30 11554 H 1116.51 5.86478 -1.27135 0
M  V30 11555 H 1117.58 4.52874 -1.733 0
M  V30 11556 N 1118.92 0.422693 1.51826 0
M  V30 11557 C 1120.17 -0.150066 2.01141 0
M  V30 11558 C 1120.48 -1.45059 1.31214 0
M  V30 11559 O 1121.69 -2.10542 1.71419 0
M  V30 11560 C 1120.15 -0.317985 3.58492 0
M  V30 11561 C 1119.75 0.971244 4.37345 0
M  V30 11562 C 1121.5 -0.845303 4.15999 0
M  V30 11563 C 1119.4 0.769769 5.86369 0
M  V30 11564 H 1118.33 -0.0598567 0.75162 0
M  V30 11565 H 1120.99 0.550217 1.75057 0
M  V30 11566 H 1119.37 -1.08092 3.80962 0
M  V30 11567 H 1120.54 1.74138 4.26629 0
M  V30 11568 H 1118.86 1.42599 3.91222 0
M  V30 11569 H 1121.45 -1.01229 5.2503 0
M  V30 11570 H 1121.8 -1.82375 3.74226 0
M  V30 11571 H 1122.33 -0.141067 3.9755 0
M  V30 11572 H 1119.07 1.72017 6.32527 0
M  V30 11573 H 1118.59 0.0391717 5.99787 0
M  V30 11574 H 1120.27 0.417225 6.45653 0
M  V30 11575 N 1120.4 -1.5685 0.153553 0
M  V30 11576 C 1121.65 -1.96334 -0.495915 0
M  V30 11577 C 1121.97 -1.03873 -1.64441 0
M  V30 11578 O 1121.23 -0.069231 -1.95578 0
M  V30 11579 C 1121.53 -3.42022 -1.0371 0
M  V30 11580 C 1121.19 -4.509 -0.00637049 0
M  V30 11581 C 1119.86 -4.80402 0.276956 0
M  V30 11582 C 1122.21 -5.16556 0.694187 0
M  V30 11583 C 1119.54 -5.72866 1.26653 0
M  V30 11584 C 1121.89 -6.10087 1.67263 0
M  V30 11585 C 1120.55 -6.37965 1.96359 0
M  V30 11586 H 1119.82 -0.718436 -0.181468 0
M  V30 11587 H 1122.47 -1.89968 0.241768 0
M  V30 11588 H 1120.77 -3.45252 -1.85225 0
M  V30 11589 H 1122.47 -3.69903 -1.54831 0
M  V30 11590 H 1119.06 -4.27942 -0.237378 0
M  V30 11591 H 1123.25 -4.9389 0.488496 0
M  V30 11592 H 1118.5 -5.92756 1.49833 0
M  V30 11593 H 1122.68 -6.60036 2.22094 0
M  V30 11594 H 1120.3 -7.09416 2.73189 0
M  V30 11595 N 1121.88 0.120221 -1.57141 0
M  V30 11596 C 1123.15 0.858458 -1.75755 0
M  V30 11597 C 1123.53 1.98124 -0.728693 0
M  V30 11598 O 1122.88 2.27155 0.247573 0
M  V30 11599 C 1123.09 1.37627 -3.20718 0
M  V30 11600 C 1124.44 1.82909 -3.83183 0
M  V30 11601 O 1125.46 1.47309 -3.24312 0
M  V30 11602 O 1124.32 2.4865 -4.86657 0
M  V30 11603 H 1121.42 0.407583 -0.719587 0
M  V30 11604 H 1123.96 0.104057 -1.69381 0
M  V30 11605 H 1122.74 0.570651 -3.87117 0
M  V30 11606 H 1122.36 2.19341 -3.31625 0
M  V30 11607 N 1123.36 1.52689 0.390367 0
M  V30 11608 C 1124.3 1.78007 1.4972 0
M  V30 11609 C 1125.3 0.647948 1.56518 0
M  V30 11610 O 1126.5 0.830398 1.59701 0
M  V30 11611 H 1122.88 0.56322 0.498284 0
M  V30 11612 H 1124.85 2.70698 1.25559 0
M  V30 11613 C 1123.6 1.96469 2.86872 0
M  V30 11614 H 1122.92 2.83012 2.82391 0
M  V30 11615 H 1124.36 2.18174 3.6356 0
M  V30 11616 C 1122.82 0.736847 3.28743 0
M  V30 11617 O 1123.35 -0.0863743 4.01607 0
M  V30 11618 N 1121.56 0.56735 2.85008 0
M  V30 11619 H 1121.1 1.23838 2.2588 0
M  V30 11620 H 1121.06 -0.252831 3.13382 0
M  V30 11621 N 1124.83 -0.648732 1.43629 0
M  V30 11622 C 1125.76 -1.77298 1.51947 0
M  V30 11623 C 1126.75 -1.65942 0.373785 0
M  V30 11624 O 1127.93 -1.8497 0.591596 0
M  V30 11625 C 1125.06 -3.15749 1.44638 0
M  V30 11626 C 1124.01 -3.41872 2.57502 0
M  V30 11627 C 1123.34 -4.8017 2.35246 0
M  V30 11628 C 1124.64 -3.36173 3.99731 0
M  V30 11629 H 1126.33 -1.70594 2.46045 0
M  V30 11630 H 1123.88 -0.819306 1.1842 0
M  V30 11631 H 1125.83 -3.94156 1.4906 0
M  V30 11632 H 1124.56 -3.23194 0.470466 0
M  V30 11633 H 1123.22 -2.65838 2.5244 0
M  V30 11634 H 1122.86 -4.84297 1.35887 0
M  V30 11635 H 1122.56 -4.9861 3.10906 0
M  V30 11636 H 1124.09 -5.6083 2.41459 0
M  V30 11637 H 1125.5 -4.0451 4.06257 0
M  V30 11638 H 1123.9 -3.66148 4.75453 0
M  V30 11639 H 1124.97 -2.34277 4.24549 0
M  V30 11640 N 1126.31 -1.30234 -0.887518 0
M  V30 11641 C 1127.26 -1.164 -1.99298 0
M  V30 11642 C 1128.23 -0.0541536 -1.66012 0
M  V30 11643 O 1129.41 -0.223881 -1.89482 0
M  V30 11644 C 1126.55 -0.859169 -3.34234 0
M  V30 11645 C 1125.67 -2.05065 -3.80227 0
M  V30 11646 C 1124.8 -1.68413 -5.03796 0
M  V30 11647 C 1123.84 -2.8407 -5.4219 0
M  V30 11648 N 1122.98 -2.47732 -6.56942 0
M  V30 11649 H 1127.82 -2.10973 -2.10463 0
M  V30 11650 H 1125.36 -1.04969 -1.03053 0
M  V30 11651 H 1127.31 -0.663064 -4.11897 0
M  V30 11652 H 1125.94 0.0496808 -3.22762 0
M  V30 11653 H 1125 -2.35808 -2.98494 0
M  V30 11654 H 1126.31 -2.91688 -4.04623 0
M  V30 11655 H 1125.46 -1.45162 -5.89078 0
M  V30 11656 H 1124.2 -0.789553 -4.81266 0
M  V30 11657 H 1123.21 -3.0799 -4.55437 0
M  V30 11658 H 1124.43 -3.74211 -5.66695 0
M  V30 11659 H 1122.38 -1.60777 -6.35993 0
M  V30 11660 H 1122.29 -3.27887 -6.81195 0
M  V30 11661 H 1123.56 -2.27831 -7.45462 0
M  V30 11662 N 1127.79 1.09952 -1.12909 0
M  V30 11663 C 1128.74 2.16436 -0.801514 0
M  V30 11664 C 1129.71 1.64444 0.233976 0
M  V30 11665 O 1130.89 1.90497 0.10743 0
M  V30 11666 C 1128.03 3.4406 -0.267753 0
M  V30 11667 C 1127.15 4.09979 -1.36165 0
M  V30 11668 C 1126.28 5.25341 -0.786803 0
M  V30 11669 C 1125.32 5.83172 -1.85948 0
M  V30 11670 N 1124.46 6.89904 -1.30298 0
M  V30 11671 H 1129.3 2.43799 -1.71365 0
M  V30 11672 H 1126.83 1.19665 -0.855499 0
M  V30 11673 H 1128.79 4.17157 0.0598031 0
M  V30 11674 H 1127.42 3.17031 0.607528 0
M  V30 11675 H 1126.47 3.34801 -1.8059 0
M  V30 11676 H 1127.79 4.48999 -2.17259 0
M  V30 11677 H 1126.94 6.05312 -0.410211 0
M  V30 11678 H 1125.68 4.87669 0.055279 0
M  V30 11679 H 1124.68 5.01867 -2.24521 0
M  V30 11680 H 1125.91 6.22907 -2.70487 0
M  V30 11681 H 1123.85 6.54221 -0.482806 0
M  V30 11682 H 1123.77 7.27662 -2.05046 0
M  V30 11683 H 1125.04 7.73643 -0.953779 0
M  V30 11684 N 1129.27 0.921757 1.27833 0
M  V30 11685 C 1130.49 0.574599 1.99281 0
M  V30 11686 C 1130.92 -0.838905 1.68357 0
M  V30 11687 O 1130.28 -1.56196 0.920468 0
M  V30 11688 C 1130.32 0.800027 3.51613 0
M  V30 11689 O 1129.43 -0.137215 4.12172 0
M  V30 11690 H 1128.77 0.221887 0.625829 0
M  V30 11691 H 1131.3 1.23939 1.62789 0
M  V30 11692 H 1131.31 0.71326 4.01717 0
M  V30 11693 H 1129.98 1.83042 3.73455 0
M  V30 11694 H 1128.56 -0.00103872 3.729 0
M  V30 11695 N 1130.75 -1.41857 0.686609 0
M  V30 11696 C 1132 -2.00594 0.21095 0
M  V30 11697 C 1132.31 -1.54974 -1.19341 0
M  V30 11698 O 1133.51 -2.0621 -1.76607 0
M  V30 11699 C 1131.97 -3.58418 0.326261 0
M  V30 11700 C 1131.58 -4.13022 1.73542 0
M  V30 11701 C 1133.32 -4.24404 -0.0900816 0
M  V30 11702 C 1131.23 -5.6325 1.80287 0
M  V30 11703 H 1130.16 -0.75025 0.0751077 0
M  V30 11704 H 1132.81 -1.62442 0.853508 0
M  V30 11705 H 1131.19 -3.9413 -0.384394 0
M  V30 11706 H 1132.37 -3.88747 2.47411 0
M  V30 11707 H 1130.68 -3.5953 2.10065 0
M  V30 11708 H 1133.28 -5.34666 -0.060004 0
M  V30 11709 H 1133.62 -4.00745 -1.12733 0
M  V30 11710 H 1134.15 -3.93695 0.569979 0
M  V30 11711 H 1130.89 -5.91724 2.82034 0
M  V30 11712 H 1130.41 -5.89479 1.1079 0
M  V30 11713 H 1132.09 -6.2787 1.56167 0
M  V30 11714 N 1132.22 -0.430739 -1.51599 0
M  V30 11715 C 1133.19 0.372319 -2.26156 0
M  V30 11716 C 1134.19 0.955338 -1.29344 0
M  V30 11717 O 1135.38 0.830823 -1.53111 0
M  V30 11718 C 1132.51 1.52613 -3.04831 0
M  V30 11719 H 1133.7 -0.280996 -2.98581 0
M  V30 11720 H 1131.26 -0.183749 -1.55216 0
M  V30 11721 H 1131.99 2.21569 -2.36807 0
M  V30 11722 H 1131.78 1.11433 -3.75932 0
M  V30 11723 H 1133.27 2.09366 -3.61325 0
M  V30 11724 N 1133.7 1.56767 -0.161869 0
M  V30 11725 C 1134.93 2.00673 0.491314 0
M  V30 11726 C 1135.34 1.04111 1.5798 0
M  V30 11727 O 1134.68 0.0324889 1.83671 0
M  V30 11728 C 1134.75 3.41011 1.13806 0
M  V30 11729 C 1134.41 4.56595 0.192384 0
M  V30 11730 C 1135.41 5.16591 -0.585671 0
M  V30 11731 C 1133.09 5.02218 0.0909594 0
M  V30 11732 C 1135.09 6.20631 -1.45245 0
M  V30 11733 C 1132.77 6.06109 -0.77941 0
M  V30 11734 C 1133.77 6.65187 -1.54971 0
M  V30 11735 O 1133.46 7.67065 -2.40555 0
M  V30 11736 H 1133.19 0.663174 0.131059 0
M  V30 11737 H 1135.74 2.03775 -0.257896 0
M  V30 11738 H 1133.97 3.34793 1.93521 0
M  V30 11739 H 1135.66 3.68931 1.69248 0
M  V30 11740 H 1136.43 4.82232 -0.517432 0
M  V30 11741 H 1132.31 4.55953 0.680292 0
M  V30 11742 H 1135.85 6.66671 -2.05415 0
M  V30 11743 H 1131.75 6.39894 -0.848887 0
M  V30 11744 H 1132.52 7.84348 -2.33966 0
M  V30 11745 N 1135.18 -0.111886 1.57202 0
M  V30 11746 C 1136.41 -0.832407 1.89416 0
M  V30 11747 C 1136.82 -1.73096 0.753861 0
M  V30 11748 O 1136.18 -1.80416 -0.274992 0
M  V30 11749 C 1136.23 -1.65988 3.21139 0
M  V30 11750 O 1135.95 -0.797485 4.3078 0
M  V30 11751 C 1137.45 -2.48493 3.67105 0
M  V30 11752 H 1134.67 -0.238919 0.627024 0
M  V30 11753 H 1137.22 -0.0941456 2.04283 0
M  V30 11754 H 1135.37 -2.35082 3.07921 0
M  V30 11755 H 1135.79 -1.36892 5.06321 0
M  V30 11756 H 1137.26 -3.02072 4.62014 0
M  V30 11757 H 1137.74 -3.26182 2.94112 0
M  V30 11758 H 1138.34 -1.84628 3.83135 0
M  V30 11759 N 1136.66 -1.52894 -0.382264 0
M  V30 11760 C 1137.59 -1.81122 -1.47367 0
M  V30 11761 C 1138.57 -0.663653 -1.56619 0
M  V30 11762 O 1139.75 -0.911898 -1.71459 0
M  V30 11763 C 1136.88 -1.98615 -2.84902 0
M  V30 11764 C 1135.84 -3.14328 -2.90485 0
M  V30 11765 C 1135.16 -3.17086 -4.30535 0
M  V30 11766 C 1136.46 -4.53263 -2.59519 0
M  V30 11767 H 1138.16 -2.72518 -1.23993 0
M  V30 11768 H 1135.7 -1.3113 -0.595049 0
M  V30 11769 H 1137.66 -2.16946 -3.61265 0
M  V30 11770 H 1136.38 -1.03915 -3.09628 0
M  V30 11771 H 1135.04 -2.95791 -2.16572 0
M  V30 11772 H 1134.69 -2.20055 -4.52311 0
M  V30 11773 H 1134.39 -3.94821 -4.3519 0
M  V30 11774 H 1135.91 -3.3758 -5.08795 0
M  V30 11775 H 1137.33 -4.71867 -3.25598 0
M  V30 11776 H 1135.72 -5.33115 -2.75514 0
M  V30 11777 H 1136.79 -4.59516 -1.54831 0
M  V30 11778 N 1138.14 0.641106 -1.43971 0
M  V30 11779 C 1139.37 1.42829 -1.49692 0
M  V30 11780 C 1139.78 1.88427 -0.118594 0
M  V30 11781 O 1139.14 1.60234 0.873581 0
M  V30 11782 C 1139.19 2.65524 -2.45314 0
M  V30 11783 O 1138.91 2.2183 -3.77787 0
M  V30 11784 C 1140.41 3.58758 -2.60399 0
M  V30 11785 H 1137.63 0.438367 -0.508011 0
M  V30 11786 H 1140.17 0.784933 -1.88836 0
M  V30 11787 H 1138.33 3.25973 -2.09332 0
M  V30 11788 H 1138.74 3.01303 -4.29321 0
M  V30 11789 H 1140.22 4.41483 -3.31357 0
M  V30 11790 H 1140.69 4.06909 -1.65294 0
M  V30 11791 H 1141.3 3.04184 -2.97241 0
M  V30 11792 N 1139.62 1.30703 0.880598 0
M  V30 11793 C 1140.84 1.22843 1.67106 0
M  V30 11794 C 1141.27 -0.204788 1.86982 0
M  V30 11795 O 1140.62 -1.14716 1.40392 0
M  V30 11796 C 1140.67 1.96685 3.02237 0
M  V30 11797 O 1139.78 1.29693 3.91476 0
M  V30 11798 H 1139.12 0.424661 0.51045 0
M  V30 11799 H 1141.65 1.72596 1.09871 0
M  V30 11800 H 1141.66 2.05874 3.52249 0
M  V30 11801 H 1140.33 3.00919 2.8709 0
M  V30 11802 H 1138.91 1.28886 3.49918 0
M  V30 11803 N 1141.09 -1.09351 1.1349 0
M  V30 11804 C 1142.04 -2.18099 0.808426 0
M  V30 11805 C 1143.04 -1.68099 -0.209571 0
M  V30 11806 O 1144.24 -1.79877 -0.0666417 0
M  V30 11807 H 1140.62 -0.711432 0.243658 0
M  V30 11808 H 1142.59 -2.42867 1.73373 0
M  V30 11809 C 1141.34 -3.46475 0.291615 0
M  V30 11810 H 1140.66 -3.85319 1.06627 0
M  V30 11811 H 1142.1 -4.23878 0.101616 0
M  V30 11812 C 1140.56 -3.22245 -0.982827 0
M  V30 11813 O 1141.09 -3.44947 -2.0585 0
M  V30 11814 N 1139.29 -2.75845 -0.914218 0
M  V30 11815 H 1138.84 -2.57571 -0.03872 0
M  V30 11816 H 1138.8 -2.60011 -1.76753 0
M  V30 11817 N 1142.57 -0.928524 -1.27343 0
M  V30 11818 C 1143.82 -0.565207 -1.93619 0
M  V30 11819 C 1144.13 0.897988 -1.73769 0
M  V30 11820 O 1145.34 1.37012 -2.34393 0
M  V30 11821 C 1143.8 -0.960052 -3.46859 0
M  V30 11822 C 1143.4 -2.44399 -3.75464 0
M  V30 11823 C 1145.15 -0.668026 -4.19211 0
M  V30 11824 C 1143.05 -2.77819 -5.22083 0
M  V30 11825 H 1141.98 -0.207665 -0.724839 0
M  V30 11826 H 1144.64 -1.12945 -1.44623 0
M  V30 11827 H 1143.02 -0.324454 -3.94669 0
M  V30 11828 H 1144.19 -3.12756 -3.38408 0
M  V30 11829 H 1142.51 -2.70799 -3.16317 0
M  V30 11830 H 1145.1 -0.894207 -5.2717 0
M  V30 11831 H 1145.45 0.394788 -4.14424 0
M  V30 11832 H 1145.98 -1.26276 -3.77226 0
M  V30 11833 H 1142.72 -3.83013 -5.3196 0
M  V30 11834 H 1142.24 -2.14112 -5.60282 0
M  V30 11835 H 1143.92 -2.65607 -5.89968 0
M  V30 11836 N 1144.05 1.41491 -0.694123 0
M  V30 11837 C 1145.46 1.84283 -0.299439 0
M  V30 11838 C 1145.81 1.58081 1.16211 0
M  V30 11839 O 1144.94 1.05051 1.89191 0
M  V30 11840 C 1145.53 3.34522 -0.536696 0
M  V30 11841 C 1144.09 3.7589 -0.195944 0
M  V30 11842 C 1143.24 2.64908 -0.819692 0
M  V30 11843 H 1146.19 1.31063 -0.894884 0
M  V30 11844 H 1146.21 3.79947 0.205062 0
M  V30 11845 H 1145.72 3.53561 -1.6005 0
M  V30 11846 H 1143.82 3.62452 0.863655 0
M  V30 11847 H 1143.94 4.74671 -0.649954 0
M  V30 11848 H 1142.3 2.53476 -0.249412 0
M  V30 11849 H 1143.08 2.86765 -1.88734 0
M  V30 11850 N 1145.53 0.438773 1.51369 0
M  V30 11851 C 1146.44 -0.378074 2.31534 0
M  V30 11852 C 1147.45 -1.02632 1.40508 0
M  V30 11853 O 1148.63 -1.02138 1.73579 0
M  V30 11854 C 1145.69 -1.46374 3.14286 0
M  V30 11855 C 1144.76 -0.835473 4.21092 0
M  V30 11856 C 1143.99 -1.86941 4.99889 0
M  V30 11857 O 1144.21 -3.0918 4.79337 0
M  V30 11858 O 1143.15 -1.45914 5.83946 0
M  V30 11859 H 1146.97 0.276401 3.0244 0
M  V30 11860 H 1144.56 0.201281 1.48038 0
M  V30 11861 H 1146.44 -2.09335 3.65728 0
M  V30 11862 H 1145.11 -2.10227 2.46143 0
M  V30 11863 H 1144.02 -0.167775 3.73724 0
M  V30 11864 H 1145.35 -0.240406 4.91613 0
M  V30 11865 N 1147.01 -1.56678 0.170181 0
M  V30 11866 C 1148.25 -1.96024 -0.475147 0
M  V30 11867 C 1148.57 -1.0588 -1.64465 0
M  V30 11868 O 1149.77 -1.34901 -2.35614 0
M  V30 11869 C 1148.23 -3.4855 -0.896704 0
M  V30 11870 C 1147.84 -4.47318 0.247142 0
M  V30 11871 C 1149.58 -3.96716 -1.51052 0
M  V30 11872 C 1147.49 -5.91082 -0.193982 0
M  V30 11873 H 1146.42 -0.731883 -0.181282 0
M  V30 11874 H 1149.07 -1.81674 0.25823 0
M  V30 11875 H 1147.45 -3.58314 -1.68603 0
M  V30 11876 H 1148.63 -4.49268 1.02445 0
M  V30 11877 H 1146.94 -4.09203 0.770839 0
M  V30 11878 H 1149.54 -5.01581 -1.85258 0
M  V30 11879 H 1149.88 -3.39588 -2.40802 0
M  V30 11880 H 1150.41 -3.89965 -0.785652 0
M  V30 11881 H 1147.15 -6.5208 0.668714 0
M  V30 11882 H 1146.67 -5.92441 -0.936675 0
M  V30 11883 H 1148.35 -6.43844 -0.638237 0
M  V30 11884 N 1148.48 0.103547 -1.57259 0
M  V30 11885 C 1149.71 0.82235 -1.89855 0
M  V30 11886 C 1150.13 1.72694 -0.76303 0
M  V30 11887 O 1149.48 1.8056 0.265421 0
M  V30 11888 C 1149.53 1.64282 -3.22015 0
M  V30 11889 O 1149.26 0.774628 -4.31197 0
M  V30 11890 C 1150.76 2.46543 -3.68418 0
M  V30 11891 H 1147.98 0.235591 -0.628282 0
M  V30 11892 H 1150.52 0.0833106 -2.0433 0
M  V30 11893 H 1148.68 2.33446 -3.09163 0
M  V30 11894 H 1149.09 1.34205 -5.0704 0
M  V30 11895 H 1150.56 2.99618 -4.63609 0
M  V30 11896 H 1151.04 3.24618 -2.95838 0
M  V30 11897 H 1151.65 1.82594 -3.84109 0
M  V30 11898 N 1149.96 1.53094 0.37415 0
M  V30 11899 C 1151.37 1.60641 0.951381 0
M  V30 11900 C 1151.72 0.468474 1.90525 0
M  V30 11901 O 1150.85 -0.406347 2.12551 0
M  V30 11902 C 1151.44 2.91166 1.73228 0
M  V30 11903 C 1150 3.01077 2.25898 0
M  V30 11904 C 1149.15 2.55873 1.06885 0
M  V30 11905 H 1152.1 1.57959 0.153214 0
M  V30 11906 H 1152.12 2.78487 2.59278 0
M  V30 11907 H 1151.63 3.73968 1.03778 0
M  V30 11908 H 1149.73 2.22844 2.98615 0
M  V30 11909 H 1149.85 4.05998 2.54367 0
M  V30 11910 H 1148.21 2.10544 1.43329 0
M  V30 11911 H 1148.99 3.41084 0.38947 0
M  V30 11912 N 1151.44 -0.633461 1.44309 0
M  V30 11913 C 1152.69 -1.39306 1.46969 0
M  V30 11914 C 1153.01 -1.94235 0.101403 0
M  V30 11915 O 1152.27 -1.73959 -0.896475 0
M  V30 11916 C 1152.57 -2.57783 2.47554 0
M  V30 11917 C 1152.23 -2.21156 3.92939 0
M  V30 11918 C 1150.9 -2.1088 4.32531 0
M  V30 11919 C 1153.25 -1.9218 4.84475 0
M  V30 11920 C 1150.58 -1.69812 5.61588 0
M  V30 11921 C 1152.93 -1.52605 6.13917 0
M  V30 11922 C 1151.59 -1.40868 6.52466 0
M  V30 11923 H 1150.86 -0.509758 0.537799 0
M  V30 11924 H 1153.51 -0.718552 1.77508 0
M  V30 11925 H 1151.81 -3.30456 2.1049 0
M  V30 11926 H 1153.51 -3.16009 2.46859 0
M  V30 11927 H 1150.1 -2.30072 3.61614 0
M  V30 11928 H 1154.29 -1.9903 4.54644 0
M  V30 11929 H 1149.54 -1.59327 5.90275 0
M  V30 11930 H 1153.72 -1.29221 6.84306 0
M  V30 11931 H 1151.34 -1.08818 7.52371 0
M  V30 11932 N 1152.92 -1.31168 -0.873655 0
M  V30 11933 C 1153.85 -1.21094 -1.99646 0
M  V30 11934 C 1154.83 -0.0989684 -1.69812 0
M  V30 11935 O 1156.01 -0.282939 -1.92128 0
M  V30 11936 C 1153.14 -0.913684 -3.35066 0
M  V30 11937 C 1152.1 -1.98482 -3.79195 0
M  V30 11938 C 1151.42 -1.54033 -5.12033 0
M  V30 11939 C 1152.72 -3.39745 -3.96699 0
M  V30 11940 H 1154.42 -2.1503 -2.08333 0
M  V30 11941 H 1151.96 -1.03521 -1.00097 0
M  V30 11942 H 1153.92 -0.829821 -4.13149 0
M  V30 11943 H 1152.64 0.0613471 -3.26542 0
M  V30 11944 H 1151.3 -2.05851 -3.03349 0
M  V30 11945 H 1150.95 -0.553261 -4.99948 0
M  V30 11946 H 1150.65 -2.25688 -5.4253 0
M  V30 11947 H 1152.17 -1.47047 -5.92629 0
M  V30 11948 H 1153.59 -3.35071 -4.65188 0
M  V30 11949 H 1151.98 -4.09585 -4.38589 0
M  V30 11950 H 1153.05 -3.80802 -3.00196 0
M  V30 11951 N 1154.4 1.08748 -1.14068 0
M  V30 11952 C 1155.33 2.17591 -0.84714 0
M  V30 11953 C 1156.31 1.68962 0.196415 0
M  V30 11954 O 1157.49 1.94125 0.0538415 0
M  V30 11955 C 1154.62 3.45823 -0.320005 0
M  V30 11956 C 1153.58 4.07824 -1.2986 0
M  V30 11957 C 1152.9 5.30965 -0.630925 0
M  V30 11958 C 1154.2 4.49512 -2.65963 0
M  V30 11959 H 1155.9 2.42404 -1.75729 0
M  V30 11960 H 1153.44 1.16502 -0.846356 0
M  V30 11961 H 1155.4 4.21276 -0.102271 0
M  V30 11962 H 1154.12 3.20553 0.625561 0
M  V30 11963 H 1152.78 3.34398 -1.50245 0
M  V30 11964 H 1152.43 5.01979 0.320337 0
M  V30 11965 H 1152.13 5.73402 -1.28388 0
M  V30 11966 H 1153.65 6.09136 -0.422635 0
M  V30 11967 H 1155.06 5.16159 -2.49506 0
M  V30 11968 H 1153.46 5.02857 -3.27498 0
M  V30 11969 H 1154.53 3.6157 -3.23102 0
M  V30 11970 N 1155.87 0.935264 1.26849 0
M  V30 11971 C 1157.12 0.57969 1.94025 0
M  V30 11972 C 1157.45 -0.880295 1.73439 0
M  V30 11973 O 1156.7 -1.64429 1.0612 0
M  V30 11974 C 1157 0.861098 3.46872 0
M  V30 11975 C 1156.67 2.30402 3.87589 0
M  V30 11976 C 1155.33 2.69848 3.98417 0
M  V30 11977 C 1157.68 3.242 4.08098 0
M  V30 11978 C 1155.01 4.02199 4.27145 0
M  V30 11979 C 1157.36 4.56141 4.38313 0
M  V30 11980 C 1156.03 4.9541 4.47354 0
M  V30 11981 H 1155.3 0.212123 0.709989 0
M  V30 11982 H 1157.94 1.18066 1.50774 0
M  V30 11983 H 1156.25 0.177534 3.91398 0
M  V30 11984 H 1157.95 0.564841 3.97002 0
M  V30 11985 H 1154.54 1.98803 3.79704 0
M  V30 11986 H 1158.72 2.94924 3.99166 0
M  V30 11987 H 1153.98 4.32295 4.32355 0
M  V30 11988 H 1158.15 5.28818 4.53128 0
M  V30 11989 H 1155.78 5.97994 4.69368 0
M  V30 11990 N 1157.35 -1.41121 0.701616 0
M  V30 11991 C 1158.6 -2.00359 0.232214 0
M  V30 11992 C 1158.91 -1.56231 -1.17691 0
M  V30 11993 O 1160.12 -2.08071 -1.74409 0
M  V30 11994 C 1158.58 -3.58052 0.364257 0
M  V30 11995 C 1158.18 -4.11158 1.77913 0
M  V30 11996 C 1159.93 -4.24476 -0.0450628 0
M  V30 11997 C 1157.84 -5.61306 1.8625 0
M  V30 11998 H 1156.77 -0.749411 0.0830609 0
M  V30 11999 H 1159.42 -1.61528 0.870689 0
M  V30 12000 H 1157.8 -3.94515 -0.342569 0
M  V30 12001 H 1158.97 -3.86101 2.5152 0
M  V30 12002 H 1157.29 -3.57282 2.13866 0
M  V30 12003 H 1159.88 -5.347 -0.00329209 0
M  V30 12004 H 1160.23 -4.01919 -1.08477 0
M  V30 12005 H 1160.76 -3.93069 0.611704 0
M  V30 12006 H 1157.5 -5.88699 2.88294 0
M  V30 12007 H 1157.02 -5.88271 1.17036 0
M  V30 12008 H 1158.7 -6.26179 1.62817 0
M  V30 12009 N 1158.83 -0.446794 -1.51134 0
M  V30 12010 C 1159.76 0.405311 -2.24572 0
M  V30 12011 C 1160.74 1.01679 -1.26886 0
M  V30 12012 O 1161.93 1.05743 -1.56047 0
M  V30 12013 C 1159.05 1.56573 -3.00338 0
M  V30 12014 C 1158.1 1.07401 -4.12756 0
M  V30 12015 S 1158.93 0.00835038 -5.35499 0
M  V30 12016 C 1160.09 1.17321 -6.14806 0
M  V30 12017 H 1160.32 -0.218143 -2.96499 0
M  V30 12018 H 1157.85 -0.231405 -1.52656 0
M  V30 12019 H 1159.81 2.23092 -3.44587 0
M  V30 12020 H 1158.47 2.16062 -2.27982 0
M  V30 12021 H 1157.67 1.94204 -4.65082 0
M  V30 12022 H 1157.27 0.486906 -3.70817 0
M  V30 12023 H 1159.56 2.08972 -6.44466 0
M  V30 12024 H 1160.5 0.689723 -7.04733 0
M  V30 12025 H 1160.91 1.41605 -5.4645 0
M  V30 12026 N 1160.31 1.56586 -0.178487 0
M  V30 12027 C 1161.27 2.17091 0.73512 0
M  V30 12028 C 1162.27 1.12088 1.15295 0
M  V30 12029 O 1163.46 1.37563 1.06874 0
M  V30 12030 C 1160.59 2.75957 2.00151 0
M  V30 12031 H 1161.79 2.99176 0.208272 0
M  V30 12032 H 1159.34 1.56138 0.0710967 0
M  V30 12033 H 1160.07 1.97626 2.57127 0
M  V30 12034 H 1159.86 3.52809 1.7108 0
M  V30 12035 H 1161.35 3.2247 2.65335 0
M  V30 12036 N 1161.79 -0.095206 1.57312 0
M  V30 12037 C 1162.73 -1.13438 2.03063 0
M  V30 12038 C 1163.73 -1.41478 0.931679 0
M  V30 12039 O 1164.93 -1.41161 1.11686 0
M  V30 12040 H 1161.31 -0.383042 0.647134 0
M  V30 12041 H 1163.28 -0.722186 2.89529 0
M  V30 12042 C 1162.03 -2.44641 2.47075 0
M  V30 12043 H 1161.35 -2.23908 3.31218 0
M  V30 12044 H 1162.79 -3.15855 2.82863 0
M  V30 12045 C 1161.25 -3.08931 1.34399 0
M  V30 12046 O 1161.78 -3.96021 0.673071 0
M  V30 12047 N 1159.99 -2.6918 1.09501 0
M  V30 12048 H 1159.53 -1.98451 1.6424 0
M  V30 12049 H 1159.49 -3.12522 0.34311 0
M  V30 12050 N 1163.26 -1.53291 -0.366026 0
M  V30 12051 C 1164.51 -1.68671 -1.10602 0
M  V30 12052 C 1164.83 -0.444793 -1.90476 0
M  V30 12053 O 1166.03 -0.479135 -2.67239 0
M  V30 12054 C 1164.49 -2.98174 -2.01545 0
M  V30 12055 C 1164.1 -4.29626 -1.26986 0
M  V30 12056 C 1165.84 -3.22921 -2.7554 0
M  V30 12057 C 1163.75 -5.50218 -2.16828 0
M  V30 12058 H 1162.68 -0.628456 -0.416604 0
M  V30 12059 H 1165.33 -1.79791 -0.367058 0
M  V30 12060 H 1163.71 -2.80855 -2.79171 0
M  V30 12061 H 1164.88 -4.57574 -0.544269 0
M  V30 12062 H 1163.2 -4.11318 -0.648558 0
M  V30 12063 H 1165.8 -4.10202 -3.42985 0
M  V30 12064 H 1166.14 -2.38964 -3.40884 0
M  V30 12065 H 1166.67 -3.40912 -2.04997 0
M  V30 12066 H 1163.41 -6.36651 -1.56063 0
M  V30 12067 H 1162.93 -5.26549 -2.87238 0
M  V30 12068 H 1164.61 -5.84991 -2.76396 0
M  V30 12069 N 1164.74 0.6258 -1.44643 0
M  V30 12070 C 1166.15 1.20751 -1.42394 0
M  V30 12071 C 1166.5 1.95685 -0.142047 0
M  V30 12072 O 1165.63 2.02715 0.757332 0
M  V30 12073 C 1166.22 2.1964 -2.57961 0
M  V30 12074 C 1164.78 2.73227 -2.5889 0
M  V30 12075 C 1163.93 1.48315 -2.34303 0
M  V30 12076 H 1166.88 0.416162 -1.53146 0
M  V30 12077 H 1166.9 3.02342 -2.31019 0
M  V30 12078 H 1166.41 1.65073 -3.51244 0
M  V30 12079 H 1164.52 3.31782 -1.69563 0
M  V30 12080 H 1164.63 3.18902 -3.57545 0
M  V30 12081 H 1162.99 1.76634 -1.83501 0
M  V30 12082 H 1163.78 0.956427 -3.29708 0
M  V30 12083 N 1166.22 1.31629 0.866686 0
M  V30 12084 C 1167.15 1.22151 1.99001 0
M  V30 12085 C 1168.13 0.107972 1.69757 0
M  V30 12086 O 1169.32 0.293125 1.91975 0
M  V30 12087 C 1166.45 0.93144 3.34577 0
M  V30 12088 C 1165.4 2.0049 3.78137 0
M  V30 12089 C 1164.73 1.56747 5.11209 0
M  V30 12090 C 1166.03 3.41844 3.94892 0
M  V30 12091 H 1167.72 2.16132 2.0719 0
M  V30 12092 H 1165.27 1.04051 0.995463 0
M  V30 12093 H 1167.22 0.851719 4.12703 0
M  V30 12094 H 1165.94 -0.0440289 3.2657 0
M  V30 12095 H 1164.6 2.07457 3.02253 0
M  V30 12096 H 1164.25 0.579767 4.99648 0
M  V30 12097 H 1163.95 2.28562 5.41326 0
M  V30 12098 H 1165.47 1.50188 5.91841 0
M  V30 12099 H 1166.89 3.37534 4.63405 0
M  V30 12100 H 1165.29 4.11905 4.36411 0
M  V30 12101 H 1166.36 3.82389 2.98172 0
M  V30 12102 N 1167.7 -1.08142 1.14644 0
M  V30 12103 C 1169.11 -1.62061 0.926986 0
M  V30 12104 C 1169.46 -1.88805 -0.533578 0
M  V30 12105 O 1168.59 -1.64753 -1.40305 0
M  V30 12106 C 1169.18 -2.94425 1.67629 0
M  V30 12107 C 1167.74 -3.45118 1.50235 0
M  V30 12108 C 1166.89 -2.19307 1.69705 0
M  V30 12109 H 1169.84 -0.913326 1.29785 0
M  V30 12110 H 1169.86 -3.62987 1.14107 0
M  V30 12111 H 1169.37 -2.74928 2.73927 0
M  V30 12112 H 1167.47 -3.69713 0.462967 0
M  V30 12113 H 1167.59 -4.2169 2.27408 0
M  V30 12114 H 1165.95 -2.28611 1.12291 0
M  V30 12115 H 1166.73 -2.02315 2.77351 0
M  V30 12116 N 1169.18 -0.941978 -1.26351 0
M  V30 12117 C 1170.11 -0.469913 -2.28723 0
M  V30 12118 C 1171.09 0.477218 -1.63269 0
M  V30 12119 O 1172.27 0.378902 -1.90468 0
M  V30 12120 C 1169.4 0.264971 -3.46288 0
M  V30 12121 C 1168.36 -0.595682 -4.23834 0
M  V30 12122 C 1167.68 0.269208 -5.34022 0
M  V30 12123 C 1168.98 -1.86743 -4.87775 0
M  V30 12124 H 1170.68 -1.32551 -2.6846 0
M  V30 12125 H 1168.22 -0.638809 -1.29055 0
M  V30 12126 H 1170.18 0.606259 -4.17016 0
M  V30 12127 H 1168.9 1.15471 -3.05506 0
M  V30 12128 H 1167.56 -0.919875 -3.54872 0
M  V30 12129 H 1167.21 1.15832 -4.89481 0
M  V30 12130 H 1166.91 -0.30325 -5.86817 0
M  V30 12131 H 1168.43 0.605748 -6.07588 0
M  V30 12132 H 1169.85 -1.59333 -5.50714 0
M  V30 12133 H 1168.24 -2.38452 -5.50691 0
M  V30 12134 H 1169.31 -2.57831 -4.10671 0
M  V30 12135 N 1170.66 1.40747 -0.709091 0
M  V30 12136 C 1171.9 2.00606 -0.245324 0
M  V30 12137 C 1172.22 1.56489 1.16346 0
M  V30 12138 O 1171.49 0.801456 1.78755 0
M  V30 12139 H 1170.07 0.741833 -0.0877098 0
M  V30 12140 H 1172.74 1.72178 -0.913271 0
M  V30 12141 H 1171.83 3.10901 -0.273322 0
M  V30 12142 N 1172.13 0.454803 1.50895 0
M  V30 12143 C 1173.36 -0.103936 2.06639 0
M  V30 12144 C 1173.78 -1.34943 1.32044 0
M  V30 12145 O 1173.13 -1.78393 0.384972 0
M  V30 12146 C 1173.18 -0.408546 3.59184 0
M  V30 12147 O 1172.91 0.787535 4.30963 0
M  V30 12148 C 1174.41 -1.01605 4.31499 0
M  V30 12149 H 1171.63 -0.000171839 0.671 0
M  V30 12150 H 1174.17 0.638907 1.94263 0
M  V30 12151 H 1172.33 -1.1013 3.71416 0
M  V30 12152 H 1172.74 0.52229 5.21893 0
M  V30 12153 H 1174.21 -1.17906 5.39261 0
M  V30 12154 H 1174.69 -2.00182 3.90927 0
M  V30 12155 H 1175.3 -0.362155 4.23755 0
M  V30 12156 N 1173.61 -1.56489 0.186789 0
M  V30 12157 C 1174.86 -1.96517 -0.45433 0
M  V30 12158 C 1175.17 -1.07618 -1.63333 0
M  V30 12159 O 1176.38 -1.37392 -2.3417 0
M  V30 12160 C 1174.84 -3.49482 -0.859685 0
M  V30 12161 C 1174.44 -4.47031 0.294572 0
M  V30 12162 C 1176.19 -3.98296 -1.46835 0
M  V30 12163 C 1174.09 -5.91254 -0.131279 0
M  V30 12164 H 1173.02 -0.733765 -0.17351 0
M  V30 12165 H 1175.68 -1.8139 0.277485 0
M  V30 12166 H 1174.06 -3.60082 -1.64793 0
M  V30 12167 H 1175.23 -4.48156 1.07205 0
M  V30 12168 H 1173.55 -4.08362 0.814197 0
M  V30 12169 H 1176.14 -5.03518 -1.79928 0
M  V30 12170 H 1176.49 -3.42123 -2.37186 0
M  V30 12171 H 1177.02 -3.90776 -0.744247 0
M  V30 12172 H 1173.76 -6.51334 0.737839 0
M  V30 12173 H 1173.28 -5.93401 -0.873786 0
M  V30 12174 H 1174.96 -6.44485 -0.569913 0
M  V30 12175 N 1175.09 0.086862 -1.5736 0
M  V30 12176 C 1176.32 0.802167 -1.90717 0
M  V30 12177 C 1176.73 1.71875 -0.781304 0
M  V30 12178 O 1176.09 1.80831 0.246255 0
M  V30 12179 C 1176.14 1.60858 -3.23739 0
M  V30 12180 O 1175.86 0.728851 -4.31995 0
M  V30 12181 C 1177.36 2.42621 -3.71012 0
M  V30 12182 H 1174.58 0.228914 -0.630745 0
M  V30 12183 H 1177.13 0.061634 -2.04407 0
M  V30 12184 H 1175.28 2.30153 -3.11622 0
M  V30 12185 H 1175.7 1.2882 -5.08435 0
M  V30 12186 H 1177.17 2.94683 -4.66761 0
M  V30 12187 H 1177.65 3.21462 -2.99264 0
M  V30 12188 H 1178.25 1.78509 -3.86024 0
M  V30 12189 N 1176.57 1.53483 0.357892 0
M  V30 12190 C 1177.82 1.69256 1.09706 0
M  V30 12191 C 1178.13 0.454888 1.90237 0
M  V30 12192 O 1179.34 0.4933 2.66981 0
M  V30 12193 C 1177.79 2.99238 1.99961 0
M  V30 12194 C 1177.4 4.30293 1.24706 0
M  V30 12195 C 1179.14 3.24378 2.73823 0
M  V30 12196 C 1177.05 5.5136 2.13907 0
M  V30 12197 H 1175.98 0.630657 0.413265 0
M  V30 12198 H 1178.63 1.79983 0.357518 0
M  V30 12199 H 1177.01 2.82332 2.77677 0
M  V30 12200 H 1178.19 4.57857 0.519995 0
M  V30 12201 H 1176.5 4.11656 0.626736 0
M  V30 12202 H 1179.1 4.12015 3.40805 0
M  V30 12203 H 1179.44 2.40769 3.39612 0
M  V30 12204 H 1179.98 3.41994 2.03187 0
M  V30 12205 H 1176.71 6.3747 1.52684 0
M  V30 12206 H 1176.23 5.28065 2.84442 0
M  V30 12207 H 1177.91 5.86448 2.7329 0
M  V30 12208 N 1178.05 -0.61812 1.44973 0
M  V30 12209 C 1178.98 -1.74035 1.55673 0
M  V30 12210 C 1179.96 -1.65112 0.4089 0
M  V30 12211 O 1181.14 -1.83673 0.630698 0
M  V30 12212 C 1178.27 -3.1261 1.51303 0
M  V30 12213 C 1177.23 -3.36334 2.64696 0
M  V30 12214 C 1176.55 -4.75072 2.45378 0
M  V30 12215 C 1177.85 -3.27618 4.06772 0
M  V30 12216 H 1179.55 -1.65336 2.49608 0
M  V30 12217 H 1177.09 -0.794003 1.20132 0
M  V30 12218 H 1179.04 -3.90906 1.57388 0
M  V30 12219 H 1177.77 -3.22123 0.538914 0
M  V30 12220 H 1176.43 -2.60423 2.58022 0
M  V30 12221 H 1176.08 -4.81306 1.46129 0
M  V30 12222 H 1175.78 -4.91903 3.21412 0
M  V30 12223 H 1177.3 -5.55582 2.53301 0
M  V30 12224 H 1178.71 -3.95802 4.14746 0
M  V30 12225 H 1177.11 -3.55981 4.83113 0
M  V30 12226 H 1178.18 -2.25219 4.29423 0
M  V30 12227 N 1179.52 -1.32087 -0.859693 0
M  V30 12228 C 1180.76 -1.23671 -1.62742 0
M  V30 12229 C 1181.13 0.19966 -1.90959 0
M  V30 12230 O 1182.33 0.407478 -2.65694 0
M  V30 12231 C 1180.6 -2.06736 -2.91539 0
M  V30 12232 S 1182.16 -2.15292 -3.82354 0
M  V30 12233 H 1178.98 -0.440306 -0.558258 0
M  V30 12234 H 1181.58 -1.66875 -1.01848 0
M  V30 12235 H 1180.28 -3.10166 -2.68747 0
M  V30 12236 H 1179.81 -1.64291 -3.57452 0
M  V30 12237 H 1181.83 -1.29874 -4.78902 0
M  V30 12238 N 1181 1.07532 -1.15215 0
M  V30 12239 C 1182.25 1.79474 -0.920439 0
M  V30 12240 C 1182.56 1.87593 0.553926 0
M  V30 12241 O 1183.77 2.56037 0.903169 0
M  V30 12242 C 1182.23 3.22509 -1.59738 0
M  V30 12243 C 1181.83 3.22596 -3.10863 0
M  V30 12244 C 1183.58 3.99072 -1.44714 0
M  V30 12245 C 1181.48 4.60273 -3.71352 0
M  V30 12246 H 1180.41 0.672625 -0.340722 0
M  V30 12247 H 1183.07 1.2071 -1.38208 0
M  V30 12248 H 1181.45 3.81454 -1.06342 0
M  V30 12249 H 1182.62 2.73306 -3.70999 0
M  V30 12250 H 1180.94 2.5953 -3.25627 0
M  V30 12251 H 1183.53 5.00823 -1.87299 0
M  V30 12252 H 1183.88 4.14428 -0.394386 0
M  V30 12253 H 1184.41 3.46617 -1.95195 0
M  V30 12254 H 1181.15 4.50122 -4.76519 0
M  V30 12255 H 1180.67 5.09809 -3.15998 0
M  V30 12256 H 1182.35 5.29243 -3.7217 0
M  V30 12257 N 1182.48 0.948665 1.2585 0
M  V30 12258 C 1183.76 0.517832 1.88621 0
M  V30 12259 C 1184.14 -1.00477 1.85654 0
M  V30 12260 O 1183.49 -1.868 1.31598 0
M  V30 12261 C 1183.7 1.08768 3.31618 0
M  V30 12262 C 1185.04 1.16089 4.08422 0
M  V30 12263 O 1186.07 1.0388 3.40716 0
M  V30 12264 O 1184.93 1.35172 5.29519 0
M  V30 12265 H 1182.02 0.169916 0.809356 0
M  V30 12266 H 1184.57 1.04171 1.33964 0
M  V30 12267 H 1183.34 2.13109 3.28177 0
M  V30 12268 H 1182.96 0.54669 3.93824 0
M  V30 12269 N 1183.96 -1.40369 0.716545 0
M  V30 12270 C 1184.89 -2.33365 0.0793533 0
M  V30 12271 C 1185.87 -1.52943 -0.744482 0
M  V30 12272 O 1187.05 -1.81406 -0.693212 0
M  V30 12273 C 1184.18 -3.36928 -0.842429 0
M  V30 12274 C 1183.14 -4.2782 -0.124142 0
M  V30 12275 C 1182.46 -5.21928 -1.1617 0
M  V30 12276 C 1183.76 -5.12199 1.02224 0
M  V30 12277 H 1185.46 -2.86899 0.856115 0
M  V30 12278 H 1183 -1.37946 0.413138 0
M  V30 12279 H 1184.96 -4.00925 -1.29759 0
M  V30 12280 H 1183.68 -2.81791 -1.6511 0
M  V30 12281 H 1182.34 -3.65277 0.311201 0
M  V30 12282 H 1181.99 -4.63096 -1.96345 0
M  V30 12283 H 1181.69 -5.83582 -0.685978 0
M  V30 12284 H 1183.21 -5.88802 -1.61694 0
M  V30 12285 H 1184.63 -5.69644 0.646399 0
M  V30 12286 H 1183.02 -5.82901 1.4264 0
M  V30 12287 H 1184.09 -4.4812 1.85246 0
M  V30 12288 N 1185.44 -0.462799 -1.50652 0
M  V30 12289 C 1186.68 0.0948568 -2.01877 0
M  V30 12290 C 1187.01 1.4096 -1.34741 0
M  V30 12291 O 1186.28 1.89671 -0.49006 0
M  V30 12292 H 1184.86 0.0380453 -0.746031 0
M  V30 12293 H 1187.52 -0.611327 -1.85064 0
M  V30 12294 H 1186.61 0.252378 -3.11078 0
M  V30 12295 N 1186.91 1.56388 -0.195085 0
M  V30 12296 C 1188.14 2.01963 0.449289 0
M  V30 12297 C 1188.56 1.07522 1.55192 0
M  V30 12298 O 1187.91 0.0800915 1.82324 0
M  V30 12299 C 1187.97 3.47231 1.00561 0
M  V30 12300 O 1187.69 4.38068 -0.0530241 0
M  V30 12301 C 1189.19 4.08324 1.72587 0
M  V30 12302 H 1186.41 0.661452 0.112792 0
M  V30 12303 H 1188.95 2.02231 -0.303788 0
M  V30 12304 H 1187.11 3.47663 1.70907 0
M  V30 12305 H 1187.52 5.23256 0.361076 0
M  V30 12306 H 1188.99 5.11821 2.06744 0
M  V30 12307 H 1189.47 3.51782 2.62956 0
M  V30 12308 H 1190.08 4.11665 1.06826 0
M  V30 12309 N 1188.39 -0.0785156 1.57404 0
M  V30 12310 C 1189.67 -0.811557 1.77969 0
M  V30 12311 C 1190.05 -1.96123 0.780966 0
M  V30 12312 O 1189.4 -2.27731 -0.18726 0
M  V30 12313 C 1189.61 -1.29075 3.24254 0
M  V30 12314 C 1190.96 -1.72685 3.87898 0
M  V30 12315 O 1191.98 -1.38658 3.28104 0
M  V30 12316 O 1190.84 -2.3566 4.93079 0
M  V30 12317 H 1187.93 -0.388361 0.73014 0
M  V30 12318 H 1190.48 -0.0591118 1.69597 0
M  V30 12319 H 1189.25 -0.467813 3.88494 0
M  V30 12320 H 1188.87 -2.10472 3.37324 0
M  V30 12321 N 1189.87 -1.5367 -0.349747 0
M  V30 12322 C 1190.8 -1.7603 -1.4522 0
M  V30 12323 C 1191.78 -0.609171 -1.50758 0
M  V30 12324 O 1192.97 -0.843613 -1.68569 0
M  V30 12325 C 1190.09 -1.85336 -2.83493 0
M  V30 12326 C 1189.14 -3.07438 -2.95608 0
M  V30 12327 S 1189.97 -4.66625 -2.62719 0
M  V30 12328 C 1191.13 -4.78802 -4.03112 0
M  V30 12329 H 1191.36 -2.69263 -1.26035 0
M  V30 12330 H 1188.89 -1.4446 -0.545044 0
M  V30 12331 H 1190.85 -1.91383 -3.63157 0
M  V30 12332 H 1189.51 -0.931267 -2.99977 0
M  V30 12333 H 1188.71 -3.10606 -3.96913 0
M  V30 12334 H 1188.31 -2.99585 -2.23886 0
M  V30 12335 H 1190.6 -4.5983 -4.97557 0
M  V30 12336 H 1191.54 -5.80886 -4.04941 0
M  V30 12337 H 1191.95 -4.07305 -3.90849 0
M  V30 12338 N 1191.35 0.610423 -1.45298 0
M  V30 12339 C 1192.59 1.37154 -1.49388 0
M  V30 12340 C 1192.93 1.93737 -0.134025 0
M  V30 12341 O 1192.2 1.74888 0.851138 0
M  V30 12342 C 1192.49 2.52155 -2.5708 0
M  V30 12343 C 1192.34 2.00786 -4.02498 0
M  V30 12344 C 1193.66 3.54294 -2.61082 0
M  V30 12345 H 1190.78 0.497346 -0.54389 0
M  V30 12346 H 1193.42 0.688358 -1.77092 0
M  V30 12347 H 1191.57 3.10434 -2.33587 0
M  V30 12348 H 1193.24 1.47178 -4.37191 0
M  V30 12349 H 1191.48 1.31809 -4.1329 0
M  V30 12350 H 1192.15 2.83674 -4.73533 0
M  V30 12351 H 1194.63 3.05851 -2.82125 0
M  V30 12352 H 1193.51 4.32254 -3.38301 0
M  V30 12353 H 1193.77 4.09726 -1.66063 0
M  V30 12354 N 1192.83 1.32541 0.852676 0
M  V30 12355 C 1194.24 1.20863 1.42299 0
M  V30 12356 C 1194.59 -0.178051 1.9539 0
M  V30 12357 O 1193.71 -1.07689 1.87702 0
M  V30 12358 C 1194.31 2.18811 2.58664 0
M  V30 12359 C 1192.87 2.11015 3.11689 0
M  V30 12360 C 1192.01 2.07067 1.84441 0
M  V30 12361 H 1194.97 1.44341 0.659657 0
M  V30 12362 H 1194.99 1.78779 3.35884 0
M  V30 12363 H 1194.5 3.19726 2.19993 0
M  V30 12364 H 1192.6 1.13354 3.54939 0
M  V30 12365 H 1192.71 3.00929 3.72799 0
M  V30 12366 H 1191.08 1.52335 2.04123 0
M  V30 12367 H 1191.86 3.09767 1.47984 0
M  V30 12368 N 1194.3 -1.0692 1.15784 0
M  V30 12369 C 1195.27 -2.12407 0.861167 0
M  V30 12370 C 1196.27 -1.6018 -0.141031 0
M  V30 12371 O 1197.46 -1.73972 0.0891192 0
M  V30 12372 C 1194.59 -3.39693 0.286636 0
M  V30 12373 H 1195.78 -2.40157 1.79623 0
M  V30 12374 H 1193.34 -1.22881 0.965916 0
M  V30 12375 H 1194.07 -3.17587 -0.656417 0
M  V30 12376 H 1193.86 -3.78903 1.0087 0
M  V30 12377 H 1195.35 -4.17488 0.0967971 0
M  V30 12378 N 1195.78 -0.955326 -1.25345 0
M  V30 12379 C 1197.03 -0.606149 -1.92377 0
M  V30 12380 C 1197.34 0.860927 -1.75634 0
M  V30 12381 O 1198.55 1.3201 -2.37246 0
M  V30 12382 C 1197.01 -1.03341 -3.44744 0
M  V30 12383 C 1196.61 -2.52308 -3.70196 0
M  V30 12384 C 1198.36 -0.756797 -4.17699 0
M  V30 12385 C 1196.27 -2.88831 -5.16072 0
M  V30 12386 H 1195.2 -0.222994 -0.720271 0
M  V30 12387 H 1197.85 -1.15987 -1.42194 0
M  V30 12388 H 1196.23 -0.408096 -3.93892 0
M  V30 12389 H 1197.4 -3.19864 -3.31698 0
M  V30 12390 H 1195.72 -2.77448 -3.10502 0
M  V30 12391 H 1198.31 -1.00583 -5.25154 0
M  V30 12392 H 1198.66 0.306794 -4.15168 0
M  V30 12393 H 1199.19 -1.34249 -3.74462 0
M  V30 12394 H 1195.93 -3.9421 -5.23716 0
M  V30 12395 H 1195.45 -2.25948 -5.55614 0
M  V30 12396 H 1197.13 -2.78061 -5.84201 0
M  V30 12397 N 1197.26 1.39987 -0.723979 0
M  V30 12398 C 1198.49 2.0556 -0.275634 0
M  V30 12399 C 1198.91 1.54207 1.07711 0
M  V30 12400 O 1198.27 0.681041 1.68022 0
M  V30 12401 C 1198.32 3.59551 -0.27485 0
M  V30 12402 O 1197.42 4.05685 0.741182 0
M  V30 12403 H 1196.76 0.651634 -0.12755 0
M  V30 12404 H 1199.29 1.79229 -0.986814 0
M  V30 12405 H 1199.3 4.07837 -0.115425 0
M  V30 12406 H 1197.98 3.96291 -1.26198 0
M  V30 12407 H 1196.55 3.6884 0.548795 0
M  V30 12408 N 1198.74 0.470782 1.50404 0
M  V30 12409 C 1199.67 -0.313458 2.31386 0
M  V30 12410 C 1200.65 -0.990623 1.38278 0
M  V30 12411 O 1201.84 -0.987854 1.67198 0
M  V30 12412 C 1198.97 -1.39599 3.18009 0
M  V30 12413 C 1197.92 -0.840443 4.19667 0
M  V30 12414 C 1197.25 -2.02124 4.95025 0
M  V30 12415 C 1198.55 0.148055 5.2209 0
M  V30 12416 H 1200.24 0.362432 2.97198 0
M  V30 12417 H 1197.79 0.175745 1.42924 0
M  V30 12418 H 1199.74 -1.9521 3.73458 0
M  V30 12419 H 1198.46 -2.10064 2.50081 0
M  V30 12420 H 1197.12 -0.306302 3.65318 0
M  V30 12421 H 1196.77 -2.71286 4.23571 0
M  V30 12422 H 1196.47 -1.65574 5.6379 0
M  V30 12423 H 1197.99 -2.58226 5.5331 0
M  V30 12424 H 1199.41 -0.318874 5.72413 0
M  V30 12425 H 1197.8 0.427811 5.98573 0
M  V30 12426 H 1198.87 1.07404 4.72855 0
M  V30 12427 N 1200.22 -1.56282 0.203376 0
M  V30 12428 C 1201.18 -2.18233 -0.700489 0
M  V30 12429 C 1202.18 -1.13908 -1.13497 0
M  V30 12430 O 1203.37 -1.39246 -1.04672 0
M  V30 12431 C 1200.5 -2.79107 -1.95735 0
M  V30 12432 H 1201.7 -2.99469 -0.160649 0
M  V30 12433 H 1199.25 -1.56232 -0.0462475 0
M  V30 12434 H 1199.98 -2.01691 -2.53951 0
M  V30 12435 H 1199.77 -3.55486 -1.65446 0
M  V30 12436 H 1201.26 -3.2665 -2.60172 0
M  V30 12437 N 1201.7 0.070167 -1.57444 0
M  V30 12438 C 1202.93 0.78076 -1.91279 0
M  V30 12439 C 1203.33 1.71559 -0.797754 0
M  V30 12440 O 1202.68 1.82156 0.237665 0
M  V30 12441 C 1202.74 1.62664 -3.20594 0
M  V30 12442 C 1202.4 0.861007 -4.48816 0
M  V30 12443 C 1203.4 0.179522 -5.1959 0
M  V30 12444 C 1201.08 0.8277 -4.95434 0
M  V30 12445 C 1203.08 -0.525024 -6.35234 0
M  V30 12446 C 1200.77 0.119382 -6.10983 0
M  V30 12447 C 1201.76 -0.555778 -6.80735 0
M  V30 12448 O 1201.45 -1.25268 -7.9408 0
M  V30 12449 H 1201.18 0.227053 -0.636728 0
M  V30 12450 H 1203.74 0.0442334 -2.05352 0
M  V30 12451 H 1201.97 2.40601 -3.02734 0
M  V30 12452 H 1203.66 2.21606 -3.40067 0
M  V30 12453 H 1204.42 0.19655 -4.84602 0
M  V30 12454 H 1200.3 1.34268 -4.41014 0
M  V30 12455 H 1203.85 -1.05257 -6.89613 0
M  V30 12456 H 1199.74 0.100287 -6.45422 0
M  V30 12457 H 1200.51 -1.16212 -8.10208 0
M  V30 12458 N 1203.17 1.53854 0.341593 0
M  V30 12459 C 1204.08 1.84975 1.44297 0
M  V30 12460 C 1205.1 0.740057 1.57477 0
M  V30 12461 O 1206.28 1.03256 1.72917 0
M  V30 12462 C 1203.34 2.05464 2.79259 0
M  V30 12463 C 1202.4 3.29318 2.75405 0
M  V30 12464 C 1201.63 3.4882 4.03931 0
M  V30 12465 O 1201.86 2.7212 5.01305 0
M  V30 12466 O 1200.79 4.42253 4.08284 0
M  V30 12467 H 1204.62 2.78592 1.20913 0
M  V30 12468 H 1202.2 1.39532 0.533953 0
M  V30 12469 H 1204.08 2.20374 3.59184 0
M  V30 12470 H 1202.76 1.15035 3.0257 0
M  V30 12471 H 1201.67 3.1981 1.94094 0
M  V30 12472 H 1203 4.19746 2.57049 0
M  V30 12473 N 1204.65 -0.602709 1.4562 0
M  V30 12474 C 1205.61 -1.69508 1.54271 0
M  V30 12475 C 1206.61 -1.55171 0.421727 0
M  V30 12476 O 1207.8 -1.60151 0.685375 0
M  V30 12477 C 1204.94 -3.0881 1.44392 0
M  V30 12478 H 1206.13 -1.63203 2.51605 0
M  V30 12479 H 1203.68 -0.818857 1.33133 0
M  V30 12480 H 1204.42 -3.20689 0.482614 0
M  V30 12481 H 1204.2 -3.20625 2.25704 0
M  V30 12482 H 1205.69 -3.8837 1.53488 0
M  V30 12483 N 1206.13 -1.32992 -0.845635 0
M  V30 12484 C 1207.09 -1.22607 -1.9365 0
M  V30 12485 C 1208.09 -0.146812 -1.60128 0
M  V30 12486 O 1209.28 -0.397863 -1.69596 0
M  V30 12487 C 1206.41 -0.887677 -3.2914 0
M  V30 12488 H 1207.61 -2.19563 -2.04285 0
M  V30 12489 H 1205.16 -1.16952 -1.03691 0
M  V30 12490 H 1205.9 0.0796777 -3.24202 0
M  V30 12491 H 1205.68 -1.66808 -3.54849 0
M  V30 12492 H 1207.17 -0.83958 -4.09073 0
M  V30 12493 N 1207.61 1.06304 -1.1635 0
M  V30 12494 C 1208.52 2.17296 -0.884289 0
M  V30 12495 C 1209.53 1.73408 0.143414 0
M  V30 12496 O 1210.71 2.01373 -0.0331987 0
M  V30 12497 C 1207.77 3.44509 -0.389163 0
M  V30 12498 C 1206.84 4.02906 -1.48208 0
M  V30 12499 C 1206.07 5.24047 -1.01048 0
M  V30 12500 O 1206.29 5.70229 0.139821 0
M  V30 12501 O 1205.23 5.74394 -1.79876 0
M  V30 12502 H 1209.05 2.4369 -1.81243 0
M  V30 12503 H 1206.64 1.15841 -0.943459 0
M  V30 12504 H 1208.52 4.21229 -0.120018 0
M  V30 12505 H 1207.19 3.19642 0.510968 0
M  V30 12506 H 1206.1 3.27677 -1.80496 0
M  V30 12507 H 1207.43 4.32068 -2.35751 0
M  V30 12508 N 1209.09 0.96196 1.24836 0
M  V30 12509 C 1210.31 0.637709 1.97353 0
M  V30 12510 C 1210.74 -0.784919 1.7094 0
M  V30 12511 O 1210.09 -1.53188 0.969694 0
M  V30 12512 C 1210.14 0.911485 3.4889 0
M  V30 12513 O 1209.25 -0.00601668 4.124 0
M  V30 12514 H 1208.59 0.241685 0.618453 0
M  V30 12515 H 1211.12 1.29055 1.58764 0
M  V30 12516 H 1211.13 0.840702 3.99245 0
M  V30 12517 H 1209.8 1.9483 3.67442 0
M  V30 12518 H 1208.38 0.117597 3.72715 0
M  V30 12519 N 1210.56 -1.39601 0.731392 0
M  V30 12520 C 1211.84 -1.94531 0.20422 0
M  V30 12521 C 1212.22 -1.66845 -1.29329 0
M  V30 12522 O 1211.57 -0.994706 -2.05713 0
M  V30 12523 C 1211.78 -3.44891 0.53395 0
M  V30 12524 C 1213.13 -4.21863 0.481298 0
M  V30 12525 O 1214.15 -3.53073 0.470929 0
M  V30 12526 O 1213.01 -5.44452 0.472663 0
M  V30 12527 H 1210.1 -0.826214 0.0360436 0
M  V30 12528 H 1212.65 -1.49121 0.810005 0
M  V30 12529 H 1211.42 -3.58463 1.56907 0
M  V30 12530 H 1211.04 -3.97472 -0.10099 0
M  V30 12531 N 1212.04 -0.478751 -1.50152 0
M  V30 12532 C 1213.29 0.07531 -2.01559 0
M  V30 12533 C 1213.6 1.40089 -1.36508 0
M  V30 12534 O 1214.81 2.04035 -1.79115 0
M  V30 12535 C 1213.27 0.184714 -3.59426 0
M  V30 12536 C 1212.87 -1.13289 -4.33439 0
M  V30 12537 C 1214.62 0.690326 -4.18849 0
M  V30 12538 C 1212.53 -0.986866 -5.83108 0
M  V30 12539 H 1211.46 0.0319196 -0.753324 0
M  V30 12540 H 1214.11 -0.614809 -1.72894 0
M  V30 12541 H 1212.49 0.938788 -3.84711 0
M  V30 12542 H 1213.66 -1.89852 -4.19872 0
M  V30 12543 H 1211.98 -1.57021 -3.8566 0
M  V30 12544 H 1214.57 0.816733 -5.28426 0
M  V30 12545 H 1214.92 1.68361 -3.80737 0
M  V30 12546 H 1215.45 -0.00657846 -3.97799 0
M  V30 12547 H 1212.19 -1.95375 -6.25707 0
M  V30 12548 H 1211.71 -0.261752 -5.99229 0
M  V30 12549 H 1213.39 -0.656567 -6.4366 0
M  V30 12550 N 1213.52 1.56172 -0.211661 0
M  V30 12551 C 1214.45 2.15791 0.74225 0
M  V30 12552 C 1215.43 1.0994 1.198 0
M  V30 12553 O 1216.62 1.38143 1.28253 0
M  V30 12554 C 1213.74 2.73021 2.00443 0
M  V30 12555 C 1212.79 3.91611 1.68946 0
M  V30 12556 S 1213.62 5.29139 0.822949 0
M  V30 12557 C 1214.78 5.898 2.09491 0
M  V30 12558 H 1215.01 2.96366 0.235482 0
M  V30 12559 H 1212.54 1.544 0.0035357 0
M  V30 12560 H 1214.5 3.06635 2.7292 0
M  V30 12561 H 1213.16 1.92457 2.48232 0
M  V30 12562 H 1212.36 4.30122 2.62699 0
M  V30 12563 H 1211.96 3.59093 1.04539 0
M  V30 12564 H 1214.25 6.05172 3.04587 0
M  V30 12565 H 1215.19 6.86036 1.75386 0
M  V30 12566 H 1215.6 5.18546 2.23093 0
M  V30 12567 N 1215 -0.0618163 1.57479 0
M  V30 12568 C 1215.95 -1.0724 2.04373 0
M  V30 12569 C 1216.92 -1.37875 0.926271 0
M  V30 12570 O 1218.1 -1.48772 1.19463 0
M  V30 12571 C 1215.24 -2.37805 2.50085 0
M  V30 12572 C 1214.35 -2.13614 3.7549 0
M  V30 12573 C 1213.49 -3.37814 4.09945 0
M  V30 12574 C 1212.53 -3.09032 5.28361 0
M  V30 12575 N 1211.66 -4.25591 5.58406 0
M  V30 12576 H 1216.5 -0.665536 2.90473 0
M  V30 12577 H 1214.04 -0.317043 1.43643 0
M  V30 12578 H 1216 -3.14048 2.74644 0
M  V30 12579 H 1214.63 -2.76275 1.66948 0
M  V30 12580 H 1213.68 -1.28017 3.58212 0
M  V30 12581 H 1214.99 -1.88361 4.61867 0
M  V30 12582 H 1214.15 -4.22447 4.35458 0
M  V30 12583 H 1212.89 -3.66153 3.22154 0
M  V30 12584 H 1211.89 -2.22797 5.02635 0
M  V30 12585 H 1213.12 -2.82006 6.17778 0
M  V30 12586 H 1211.06 -4.53941 4.73575 0
M  V30 12587 H 1210.98 -4.03646 6.39223 0
M  V30 12588 H 1212.25 -5.11191 5.88476 0
M  V30 12589 N 1216.48 -1.54033 -0.333429 0
M  V30 12590 C 1217.89 -1.44522 -0.677166 0
M  V30 12591 C 1218.09 -0.610122 -1.92041 0
M  V30 12592 O 1217.15 -0.105058 -2.52281 0
M  V30 12593 C 1218.46 -2.88129 -0.860369 0
M  V30 12594 C 1220.01 -2.97968 -0.958342 0
M  V30 12595 C 1220.48 -4.42703 -1.17379 0
M  V30 12596 N 1221.98 -4.46273 -1.24075 0
M  V30 12597 C 1222.71 -5.55407 -1.42515 0
M  V30 12598 N 1222.21 -6.74528 -1.58062 0
M  V30 12599 N 1224 -5.43037 -1.45144 0
M  V30 12600 H 1216.15 -2.06815 0.483858 0
M  V30 12601 H 1218.41 -0.935307 0.15461 0
M  V30 12602 H 1218.12 -3.51695 -0.0182085 0
M  V30 12603 H 1217.99 -3.33668 -1.75913 0
M  V30 12604 H 1220.38 -2.34535 -1.79102 0
M  V30 12605 H 1220.46 -2.55774 -0.0362643 0
M  V30 12606 H 1220.11 -5.0672 -0.346004 0
M  V30 12607 H 1220.04 -4.82498 -2.10959 0
M  V30 12608 H 1222.53 -3.60439 -1.13545 0
M  V30 12609 H 1222.84 -7.53462 -1.71797 0
M  V30 12610 H 1221.18 -6.77454 -1.55179 0
M  V30 12611 H 1224.38 -4.4893 -1.32588 0
M  V30 12612 H 1224.55 -6.28146 -1.59173 0
M  V30 12613 N 1217.95 0.594978 -1.45938 0
M  V30 12614 C 1218.89 1.71909 -1.51591 0
M  V30 12615 C 1219.9 1.57671 -0.405416 0
M  V30 12616 O 1221.09 1.65321 -0.673144 0
M  V30 12617 C 1218.19 3.10041 -1.3685 0
M  V30 12618 C 1217.36 3.50399 -2.61801 0
M  V30 12619 C 1216.42 4.67542 -2.41435 0
M  V30 12620 O 1215.45 4.74022 -3.15106 0
M  V30 12621 N 1216.65 5.6163 -1.46808 0
M  V30 12622 H 1219.41 1.67518 -2.48511 0
M  V30 12623 H 1216.97 0.78062 -1.41838 0
M  V30 12624 H 1218.97 3.86183 -1.21017 0
M  V30 12625 H 1217.54 3.08868 -0.481589 0
M  V30 12626 H 1216.76 2.64088 -2.92662 0
M  V30 12627 H 1218.04 3.74125 -3.44831 0
M  V30 12628 H 1217.44 5.5912 -0.860333 0
M  V30 12629 H 1216 6.37252 -1.36942 0
M  V30 12630 N 1219.43 1.33438 0.838571 0
M  V30 12631 C 1220.84 1.22366 1.41009 0
M  V30 12632 C 1221.19 -0.157317 1.95568 0
M  V30 12633 O 1220.32 -1.05692 1.88834 0
M  V30 12634 C 1220.91 2.21542 2.56329 0
M  V30 12635 C 1219.47 2.14309 3.09433 0
M  V30 12636 C 1218.62 2.09012 1.82235 0
M  V30 12637 H 1221.57 1.45032 0.64431 0
M  V30 12638 H 1221.59 1.82332 3.33969 0
M  V30 12639 H 1221.1 3.22042 2.16589 0
M  V30 12640 H 1219.21 1.17113 3.53717 0
M  V30 12641 H 1219.32 3.04866 3.69586 0
M  V30 12642 H 1217.68 1.54492 2.02495 0
M  V30 12643 H 1218.47 3.11319 1.4469 0
M  V30 12644 N 1220.91 -1.05686 1.16912 0
M  V30 12645 C 1222.33 -1.30744 0.915327 0
M  V30 12646 C 1222.53 -1.96895 -0.428344 0
M  V30 12647 O 1221.58 -2.23941 -1.16647 0
M  V30 12648 C 1222.9 -2.18209 2.06894 0
M  V30 12649 C 1224.44 -2.31607 2.1054 0
M  V30 12650 C 1224.92 -3.2243 3.25273 0
M  V30 12651 N 1226.41 -3.30015 3.2503 0
M  V30 12652 C 1227.14 -4.00401 4.10447 0
M  V30 12653 N 1226.64 -4.73256 5.05965 0
M  V30 12654 N 1228.43 -3.96514 3.98413 0
M  V30 12655 H 1220.58 -0.611449 2.03409 0
M  V30 12656 H 1222.85 -0.332188 0.887894 0
M  V30 12657 H 1222.55 -1.76887 3.0398 0
M  V30 12658 H 1222.43 -3.18823 2.01573 0
M  V30 12659 H 1224.81 -2.72173 1.14044 0
M  V30 12660 H 1224.9 -1.30639 2.19925 0
M  V30 12661 H 1224.54 -2.82579 4.22032 0
M  V30 12662 H 1224.47 -4.23392 3.13125 0
M  V30 12663 H 1226.96 -2.781 2.55869 0
M  V30 12664 H 1227.27 -5.24509 5.67547 0
M  V30 12665 H 1225.62 -4.72215 5.09939 0
M  V30 12666 H 1228.81 -3.38719 3.2309 0
M  V30 12667 H 1228.98 -4.511 4.65202 0
M  V30 12668 N 1222.39 -0.968567 -1.24324 0
M  V30 12669 C 1223.34 -0.491346 -2.27351 0
M  V30 12670 C 1224.33 0.445563 -1.63435 0
M  V30 12671 O 1225.54 0.320758 -1.77119 0
M  V30 12672 H 1221.91 -0.14043 -0.738772 0
M  V30 12673 H 1223.88 -1.37224 -2.64976 0
M  V30 12674 C 1222.63 0.202093 -3.47112 0
M  V30 12675 H 1221.95 -0.50973 -3.96537 0
M  V30 12676 H 1223.39 0.499815 -4.21044 0
M  V30 12677 C 1221.85 1.42937 -3.05075 0
M  V30 12678 O 1222.38 2.52635 -3.12312 0
M  V30 12679 N 1220.59 1.29572 -2.60114 0
M  V30 12680 H 1220.14 0.403169 -2.54425 0
M  V30 12681 H 1220.09 2.118 -2.32353 0
M  V30 12682 N 1223.87 1.39211 -0.738786 0
M  V30 12683 C 1225.28 1.83237 -0.357916 0
M  V30 12684 C 1225.63 1.61698 1.11123 0
M  V30 12685 O 1224.75 1.11017 1.85753 0
M  V30 12686 C 1225.35 3.32645 -0.64285 0
M  V30 12687 C 1223.91 3.75076 -0.315432 0
M  V30 12688 C 1223.05 2.62166 -0.903556 0
M  V30 12689 H 1226.01 1.2815 -0.936127 0
M  V30 12690 H 1226.03 3.80407 0.0840812 0
M  V30 12691 H 1225.54 3.4829 -1.71218 0
M  V30 12692 H 1223.64 3.65017 0.747907 0
M  V30 12693 H 1223.75 4.72363 -0.800638 0
M  V30 12694 H 1222.12 2.52554 -0.329927 0
M  V30 12695 H 1222.9 2.80616 -1.97761 0
M  V30 12696 N 1225.34 0.486708 1.49896 0
M  V30 12697 C 1226.76 0.141788 1.58969 0
M  V30 12698 C 1226.96 -1.35279 1.49338 0
M  V30 12699 O 1226.02 -2.1275 1.35992 0
M  V30 12700 C 1227.33 0.70588 2.92297 0
M  V30 12701 C 1228.88 0.670704 3.0573 0
M  V30 12702 C 1229.35 1.21261 4.41656 0
M  V30 12703 N 1230.84 1.17269 4.4811 0
M  V30 12704 C 1231.58 1.56233 5.51705 0
M  V30 12705 N 1231.07 2.02721 6.62477 0
M  V30 12706 N 1232.87 1.47738 5.42337 0
M  V30 12707 H 1225.02 1.45858 1.544 0
M  V30 12708 H 1227.28 0.604137 0.730563 0
M  V30 12709 H 1226.99 1.7535 3.04869 0
M  V30 12710 H 1226.86 0.158215 3.76868 0
M  V30 12711 H 1229.25 -0.368041 2.92796 0
M  V30 12712 H 1229.33 1.25535 2.22878 0
M  V30 12713 H 1228.97 2.25006 4.5534 0
M  V30 12714 H 1228.9 0.604031 5.23124 0
M  V30 12715 H 1231.39 0.831905 3.6863 0
M  V30 12716 H 1231.71 2.3056 7.37606 0
M  V30 12717 H 1230.05 2.06686 6.63556 0
M  V30 12718 H 1233.24 1.11249 4.54688 0
M  V30 12719 H 1233.42 1.78429 6.2295 0
M  V30 12720 N 1226.82 -1.56058 0.219941 0
M  V30 12721 C 1228.05 -2.02652 -0.417101 0
M  V30 12722 C 1228.47 -1.09977 -1.53461 0
M  V30 12723 O 1227.82 -0.109088 -1.82174 0
M  V30 12724 C 1227.87 -3.48787 -0.950244 0
M  V30 12725 O 1227.6 -4.37928 0.12271 0
M  V30 12726 C 1229.1 -4.11018 -1.66069 0
M  V30 12727 H 1226.32 -0.663163 -0.102254 0
M  V30 12728 H 1228.86 -2.01722 0.335923 0
M  V30 12729 H 1227.02 -3.50338 -1.65355 0
M  V30 12730 H 1227.43 -5.23764 -0.277785 0
M  V30 12731 H 1228.9 -5.15046 -1.98575 0
M  V30 12732 H 1229.38 -3.55921 -2.57326 0
M  V30 12733 H 1229.99 -4.13313 -1.00263 0
M  V30 12734 N 1228.3 0.053464 -1.57509 0
M  V30 12735 C 1229.58 0.783141 -1.79238 0
M  V30 12736 C 1229.96 1.94855 -0.812069 0
M  V30 12737 O 1229.31 2.28 0.151006 0
M  V30 12738 C 1229.52 1.239 -3.26266 0
M  V30 12739 C 1230.86 1.66492 -3.90596 0
M  V30 12740 O 1231.89 1.33421 -3.30269 0
M  V30 12741 O 1230.75 2.27785 -4.96766 0
M  V30 12742 H 1227.84 0.376696 -0.736226 0
M  V30 12743 H 1230.39 0.0321229 -1.6967 0
M  V30 12744 H 1229.16 0.405948 -3.89189 0
M  V30 12745 H 1228.78 2.05078 -3.4063 0
M  V30 12746 N 1229.78 1.54207 0.325255 0
M  V30 12747 C 1230.73 1.83474 1.40021 0
M  V30 12748 C 1231.7 0.681719 1.51466 0
M  V30 12749 O 1232.88 0.92798 1.66713 0
M  V30 12750 C 1230.02 2.06624 2.76407 0
M  V30 12751 C 1229.13 3.3431 2.73607 0
M  V30 12752 C 1228.27 3.4743 4.01828 0
M  V30 12753 C 1227.31 4.68997 3.93329 0
M  V30 12754 N 1226.45 4.79052 5.13277 0
M  V30 12755 H 1231.29 2.75182 1.14363 0
M  V30 12756 H 1228.82 1.36284 0.553639 0
M  V30 12757 H 1230.78 2.18037 3.5569 0
M  V30 12758 H 1229.41 1.18209 3.00377 0
M  V30 12759 H 1228.46 3.31643 1.86324 0
M  V30 12760 H 1229.77 4.237 2.6321 0
M  V30 12761 H 1228.93 3.58376 4.89542 0
M  V30 12762 H 1227.67 2.56128 4.1503 0
M  V30 12763 H 1226.67 4.58109 3.04 0
M  V30 12764 H 1227.9 5.61681 3.81695 0
M  V30 12765 H 1225.84 3.90666 5.26988 0
M  V30 12766 H 1225.76 5.62406 5.05208 0
M  V30 12767 H 1227.03 4.94328 6.02711 0
M  V30 12768 N 1231.26 -0.58723 1.46251 0
M  V30 12769 C 1232.19 -1.70694 1.5933 0
M  V30 12770 C 1233.17 -1.64208 0.443831 0
M  V30 12771 O 1234.35 -1.82294 0.669516 0
M  V30 12772 C 1231.48 -3.0933 1.579 0
M  V30 12773 C 1230.44 -3.30643 2.7177 0
M  V30 12774 C 1229.76 -4.69761 2.554 0
M  V30 12775 C 1231.06 -3.18916 4.1363 0
M  V30 12776 H 1232.76 -1.60004 2.53059 0
M  V30 12777 H 1230.3 -0.768343 1.21789 0
M  V30 12778 H 1232.26 -3.87479 1.65644 0
M  V30 12779 H 1230.98 -3.20907 0.60712 0
M  V30 12780 H 1229.64 -2.54892 2.63488 0
M  V30 12781 H 1229.29 -4.78098 1.56306 0
M  V30 12782 H 1228.99 -4.84974 3.31774 0
M  V30 12783 H 1230.51 -5.50084 2.65028 0
M  V30 12784 H 1231.93 -3.86915 4.23048 0
M  V30 12785 H 1230.32 -3.45653 4.90555 0
M  V30 12786 H 1231.39 -2.1606 4.34104 0
M  V30 12787 N 1232.74 -1.33881 -0.831482 0
M  V30 12788 C 1233.98 -1.25942 -1.58955 0
M  V30 12789 C 1234.31 0.172542 -1.93432 0
M  V30 12790 O 1233.59 1.11577 -1.59314 0
M  V30 12791 C 1233.87 -2.14193 -2.89471 0
M  V30 12792 C 1233.73 -3.65883 -2.61628 0
M  V30 12793 C 1235.04 -2.02071 -3.90967 0
M  V30 12794 H 1232.16 -0.458841 -0.576744 0
M  V30 12795 H 1234.81 -1.64052 -0.958482 0
M  V30 12796 H 1232.96 -1.81821 -3.43327 0
M  V30 12797 H 1234.63 -4.08581 -2.14148 0
M  V30 12798 H 1232.87 -3.87397 -1.95208 0
M  V30 12799 H 1233.54 -4.22988 -3.54662 0
M  V30 12800 H 1236.02 -2.30476 -3.46439 0
M  V30 12801 H 1234.89 -2.66059 -4.80108 0
M  V30 12802 H 1235.15 -0.995121 -4.30755 0
M  V30 12803 N 1234.21 1.05064 -1.1747 0
M  V30 12804 C 1235.16 2.14948 -0.888815 0
M  V30 12805 C 1236.16 1.68761 0.147038 0
M  V30 12806 O 1237.36 1.8 -0.000164278 0
M  V30 12807 H 1233.74 0.701898 -0.269894 0
M  V30 12808 H 1235.71 2.36265 -1.82268 0
M  V30 12809 C 1234.46 3.45154 -0.420006 0
M  V30 12810 H 1233.78 3.81096 -1.20854 0
M  V30 12811 H 1235.22 4.23209 -0.258866 0
M  V30 12812 C 1233.68 3.25671 0.862551 0
M  V30 12813 O 1234.21 3.5235 1.92906 0
M  V30 12814 N 1232.41 2.79048 0.81121 0
M  V30 12815 H 1231.96 2.57537 -0.0569025 0
M  V30 12816 H 1231.92 2.66392 1.66981 0
M  V30 12817 N 1235.69 0.975146 1.23809 0
M  V30 12818 C 1236.6 0.51917 2.28783 0
M  V30 12819 C 1237.62 -0.423487 1.68768 0
M  V30 12820 O 1238.79 -0.294699 1.99232 0
M  V30 12821 C 1235.86 -0.176229 3.46252 0
M  V30 12822 C 1234.92 0.807177 4.21643 0
M  V30 12823 C 1234.15 0.144869 5.33503 0
M  V30 12824 O 1234.38 -1.06522 5.60365 0
M  V30 12825 O 1233.31 0.84079 5.95999 0
M  V30 12826 H 1237.14 1.39204 2.69919 0
M  V30 12827 H 1234.72 0.74253 1.29641 0
M  V30 12828 H 1236.6 -0.566547 4.17574 0
M  V30 12829 H 1235.28 -1.02394 3.07078 0
M  V30 12830 H 1234.18 1.2481 3.52666 0
M  V30 12831 H 1235.52 1.62354 4.64653 0
M  V30 12832 N 1237.17 -1.38817 0.746158 0
M  V30 12833 C 1238.59 -1.53894 0.42294 0
M  V30 12834 C 1238.79 -1.71064 -1.06486 0
M  V30 12835 O 1237.84 -1.71744 -1.85095 0
M  V30 12836 C 1239.15 -2.75029 1.2157 0
M  V30 12837 C 1240.7 -2.88873 1.20504 0
M  V30 12838 C 1241.18 -4.1296 1.9806 0
M  V30 12839 N 1242.67 -4.20022 1.95283 0
M  V30 12840 C 1243.4 -5.15011 2.52093 0
M  V30 12841 N 1242.9 -6.1572 3.17586 0
M  V30 12842 N 1244.69 -5.07308 2.42064 0
M  V30 12843 H 1236.84 -1.25921 1.71049 0
M  V30 12844 H 1239.11 -0.611148 0.724708 0
M  V30 12845 H 1238.81 -2.68722 2.26895 0
M  V30 12846 H 1238.69 -3.68009 0.827593 0
M  V30 12847 H 1241.07 -2.94667 0.159877 0
M  V30 12848 H 1241.15 -1.96925 1.63261 0
M  V30 12849 H 1240.8 -4.07929 3.02583 0
M  V30 12850 H 1240.73 -5.03974 1.52702 0
M  V30 12851 H 1243.22 -3.47892 1.4758 0
M  V30 12852 H 1243.53 -6.84682 3.58373 0
M  V30 12853 H 1241.88 -6.16075 3.21678 0
M  V30 12854 H 1245.07 -4.27569 1.90532 0
M  V30 12855 H 1245.24 -5.81158 2.86635 0
M  V30 12856 N 1238.65 -0.49465 -1.49636 0
M  V30 12857 C 1239.58 0.276606 -2.31856 0
M  V30 12858 C 1240.56 0.968499 -1.39836 0
M  V30 12859 O 1241.74 0.96113 -1.68748 0
M  V30 12860 C 1238.87 1.34522 -3.20189 0
M  V30 12861 C 1237.83 0.773571 -4.20951 0
M  V30 12862 C 1237.15 1.94223 -4.98178 0
M  V30 12863 C 1238.45 -0.231096 -5.21788 0
M  V30 12864 H 1240.15 -0.409668 -2.96584 0
M  V30 12865 H 1237.69 -0.198461 -1.42626 0
M  V30 12866 H 1239.65 1.89244 -3.76517 0
M  V30 12867 H 1238.37 2.06059 -2.53392 0
M  V30 12868 H 1237.03 0.248144 -3.65759 0
M  V30 12869 H 1236.68 2.64514 -4.27834 0
M  V30 12870 H 1236.38 1.56584 -5.66353 0
M  V30 12871 H 1237.9 2.49391 -5.57348 0
M  V30 12872 H 1239.32 0.227768 -5.72847 0
M  V30 12873 H 1237.71 -0.522984 -5.97817 0
M  V30 12874 H 1238.78 -1.14914 -4.71087 0
M  V30 12875 N 1240.13 1.55939 -0.228214 0
M  V30 12876 C 1241.37 1.97652 0.402067 0
M  V30 12877 C 1241.69 1.11911 1.60422 0
M  V30 12878 O 1242.89 1.43552 2.30445 0
M  V30 12879 C 1241.35 3.51638 0.766724 0
M  V30 12880 C 1240.96 4.46092 -0.412991 0
M  V30 12881 C 1242.7 4.02049 1.36224 0
M  V30 12882 C 1240.61 5.91394 -0.0255281 0
M  V30 12883 H 1239.54 0.738107 0.153994 0
M  V30 12884 H 1242.19 1.8059 -0.32548 0
M  V30 12885 H 1240.57 3.64325 1.55188 0
M  V30 12886 H 1241.75 4.45156 -1.19049 0
M  V30 12887 H 1240.06 4.0606 -0.92218 0
M  V30 12888 H 1242.66 5.08111 1.66514 0
M  V30 12889 H 1243 3.48292 2.28032 0
M  V30 12890 H 1243.53 3.92612 0.640378 0
M  V30 12891 H 1240.27 6.49149 -0.910269 0
M  V30 12892 H 1239.79 5.95509 0.716149 0
M  V30 12893 H 1241.47 6.4577 0.398839 0
M  V30 12894 N 1241.6 -0.0451101 1.57535 0
M  V30 12895 C 1242.83 -0.755068 1.93167 0
M  V30 12896 C 1243.25 -1.68949 0.826915 0
M  V30 12897 O 1242.61 -1.79978 -0.218534 0
M  V30 12898 C 1242.66 -1.50201 3.27829 0
M  V30 12899 O 1241.76 -2.61434 3.18945 0
M  V30 12900 H 1241.11 -0.204219 0.631815 0
M  V30 12901 H 1243.64 -0.00537504 2.04599 0
M  V30 12902 H 1243.65 -1.87547 3.6234 0
M  V30 12903 H 1242.32 -0.816591 4.07805 0
M  V30 12904 H 1240.9 -2.26749 2.96039 0
M  V30 12905 N 1243.08 -1.54377 -0.317073 0
M  V30 12906 C 1244.02 -1.7907 -1.41453 0
M  V30 12907 C 1244.99 -0.641012 -1.49432 0
M  V30 12908 O 1246.18 -0.879179 -1.66741 0
M  V30 12909 C 1243.3 -1.91307 -2.79498 0
M  V30 12910 C 1242.35 -3.13639 -2.8902 0
M  V30 12911 S 1243.18 -4.72093 -2.52762 0
M  V30 12912 C 1244.34 -4.87245 -3.92866 0
M  V30 12913 H 1244.57 -2.71875 -1.20296 0
M  V30 12914 H 1242.11 -1.45583 -0.514279 0
M  V30 12915 H 1244.06 -1.99043 -3.59015 0
M  V30 12916 H 1242.72 -0.994687 -2.97934 0
M  V30 12917 H 1241.92 -3.18955 -3.90235 0
M  V30 12918 H 1241.52 -3.04266 -2.17481 0
M  V30 12919 H 1243.81 -4.7028 -4.87691 0
M  V30 12920 H 1244.75 -5.89344 -3.92529 0
M  V30 12921 H 1245.16 -4.15504 -3.82122 0
M  V30 12922 N 1244.56 0.579466 -1.4656 0
M  V30 12923 C 1245.52 1.67033 -1.56948 0
M  V30 12924 C 1246.52 1.54481 -0.446361 0
M  V30 12925 O 1247.71 1.5904 -0.710767 0
M  V30 12926 C 1244.85 3.06474 -1.49286 0
M  V30 12927 H 1246.04 1.59179 -2.54169 0
M  V30 12928 H 1243.59 0.797573 -1.34419 0
M  V30 12929 H 1244.33 3.1988 -0.533572 0
M  V30 12930 H 1244.11 3.16993 -2.30776 0
M  V30 12931 H 1245.6 3.85879 -1.59648 0
M  V30 12932 N 1246.04 1.3432 0.824371 0
M  V30 12933 C 1247.27 1.29481 1.60992 0
M  V30 12934 C 1247.68 -0.133581 1.88728 0
M  V30 12935 O 1247.02 -1.09065 1.4782 0
M  V30 12936 C 1247.08 2.01604 2.97651 0
M  V30 12937 C 1246.75 3.50866 2.92817 0
M  V30 12938 C 1247.74 4.458 2.67504 0
M  V30 12939 C 1245.43 3.93258 3.12495 0
M  V30 12940 C 1247.42 5.81101 2.61918 0
M  V30 12941 C 1245.11 5.28659 3.06533 0
M  V30 12942 C 1246.11 6.22392 2.81278 0
M  V30 12943 O 1245.79 7.55311 2.75246 0
M  V30 12944 H 1245.53 0.446931 0.507177 0
M  V30 12945 H 1248.08 1.77484 1.03386 0
M  V30 12946 H 1246.31 1.48212 3.5717 0
M  V30 12947 H 1248 1.90073 3.58646 0
M  V30 12948 H 1248.77 4.1437 2.52037 0
M  V30 12949 H 1244.64 3.20699 3.31169 0
M  V30 12950 H 1248.19 6.54233 2.42125 0
M  V30 12951 H 1244.09 5.59709 3.21553 0
M  V30 12952 H 1244.85 7.6503 2.90984 0
M  V30 12953 N 1247.52 -1.0444 1.18026 0
M  V30 12954 C 1248.76 -1.77224 0.971391 0
M  V30 12955 C 1249.09 -1.88466 -0.500564 0
M  V30 12956 O 1248.36 -1.40692 -1.36317 0
M  V30 12957 H 1246.94 -0.656485 0.356422 0
M  V30 12958 H 1249.6 -1.26064 1.4864 0
M  V30 12959 H 1248.69 -2.78626 1.4062 0
M  V30 12960 N 1248.99 -0.981699 -1.2329 0
M  V30 12961 C 1249.93 -0.481042 -2.24095 0
M  V30 12962 C 1250.94 0.417818 -1.57347 0
M  V30 12963 O 1252.13 0.221746 -1.77117 0
M  V30 12964 C 1249.23 0.323324 -3.37354 0
M  V30 12965 C 1248.4 -0.568975 -4.33684 0
M  V30 12966 C 1247.46 0.181761 -5.25886 0
M  V30 12967 O 1246.49 -0.429059 -5.67581 0
M  V30 12968 N 1247.69 1.46737 -5.61648 0
M  V30 12969 H 1250.45 -1.34781 -2.67683 0
M  V30 12970 H 1248.01 -0.855117 -1.37475 0
M  V30 12971 H 1250.01 0.833934 -3.96015 0
M  V30 12972 H 1248.58 1.09111 -2.9294 0
M  V30 12973 H 1247.8 -1.2604 -3.73507 0
M  V30 12974 H 1249.08 -1.17704 -4.94998 0
M  V30 12975 H 1248.48 1.98513 -5.29725 0
M  V30 12976 H 1247.04 1.92339 -6.22775 0
M  V30 12977 N 1250.47 1.3842 -0.753509 0
M  V30 12978 C 1251.72 1.99359 -0.306416 0
M  V30 12979 C 1252.03 1.60492 1.11811 0
M  V30 12980 O 1253.24 2.14401 1.66567 0
M  V30 12981 C 1251.7 3.56453 -0.496895 0
M  V30 12982 C 1251.3 4.04272 -1.9305 0
M  V30 12983 C 1253.05 4.24351 -0.11251 0
M  V30 12984 C 1250.96 5.54007 -2.06955 0
M  V30 12985 H 1249.89 0.745812 -0.110818 0
M  V30 12986 H 1252.54 1.58185 -0.930039 0
M  V30 12987 H 1250.92 3.95515 0.195912 0
M  V30 12988 H 1252.09 3.765 -2.65677 0
M  V30 12989 H 1250.41 3.49098 -2.26979 0
M  V30 12990 H 1253 5.34344 -0.195161 0
M  V30 12991 H 1253.35 4.05668 0.934849 0
M  V30 12992 H 1253.88 3.90528 -0.757168 0
M  V30 12993 H 1250.62 5.77594 -3.09944 0
M  V30 12994 H 1250.14 5.83522 -1.38788 0
M  V30 12995 H 1251.82 6.19704 -1.85945 0
M  V30 12996 N 1251.95 0.502579 1.49372 0
M  V30 12997 C 1253.2 -0.0412993 2.02058 0
M  V30 12998 C 1253.52 -1.37338 1.38431 0
M  V30 12999 O 1252.79 -1.88305 0.540175 0
M  V30 13000 H 1251.37 -0.0182522 0.746777 0
M  V30 13001 H 1254.03 0.660179 1.83378 0
M  V30 13002 H 1253.13 -0.169812 3.11638 0
M  V30 13003 N 1253.43 -1.55816 0.23648 0
M  V30 13004 C 1254.36 -2.16945 -0.707826 0
M  V30 13005 C 1255.34 -1.11832 -1.18036 0
M  V30 13006 O 1256.52 -1.40166 -1.26039 0
M  V30 13007 C 1253.65 -2.76175 -1.96074 0
M  V30 13008 C 1252.7 -3.9425 -1.62695 0
M  V30 13009 S 1253.53 -5.30381 -0.738663 0
M  V30 13010 C 1254.69 -5.93059 -2.00081 0
M  V30 13011 H 1254.92 -2.96703 -0.188303 0
M  V30 13012 H 1252.45 -1.54386 0.0210284 0
M  V30 13013 H 1254.41 -3.10938 -2.68007 0
M  V30 13014 H 1253.07 -1.96382 -2.45138 0
M  V30 13015 H 1252.26 -4.34247 -2.55823 0
M  V30 13016 H 1251.87 -3.6071 -0.988129 0
M  V30 13017 H 1254.16 -6.09941 -2.94921 0
M  V30 13018 H 1255.1 -6.88739 -1.64449 0
M  V30 13019 H 1255.51 -5.2203 -2.14815 0
M  V30 13020 N 1254.91 0.036755 -1.57557 0
M  V30 13021 C 1256.16 0.728107 -1.881 0
M  V30 13022 C 1256.47 1.7693 -0.833974 0
M  V30 13023 O 1257.67 2.5127 -1.02837 0
M  V30 13024 C 1256.13 1.34604 -3.33781 0
M  V30 13025 C 1255.74 0.341599 -4.46696 0
M  V30 13026 C 1257.48 2.01772 -3.73481 0
M  V30 13027 C 1255.39 0.967444 -5.83433 0
M  V30 13028 H 1254.32 0.275695 -0.701789 0
M  V30 13029 H 1256.97 -0.0177555 -1.83491 0
M  V30 13030 H 1255.35 2.14135 -3.3311 0
M  V30 13031 H 1256.53 -0.426441 -4.58823 0
M  V30 13032 H 1254.84 -0.227558 -4.15778 0
M  V30 13033 H 1257.44 2.49435 -4.72955 0
M  V30 13034 H 1257.78 2.83255 -3.05077 0
M  V30 13035 H 1258.31 1.29026 -3.76294 0
M  V30 13036 H 1255.05 0.19219 -6.55218 0
M  V30 13037 H 1254.57 1.70551 -5.75041 0
M  V30 13038 H 1256.25 1.47705 -6.29914 0
M  V30 13039 N 1256.39 1.54543 0.308881 0
M  V30 13040 C 1257.32 1.81309 1.40212 0
M  V30 13041 C 1258.33 0.69568 1.47187 0
M  V30 13042 O 1259.52 0.973034 1.49647 0
M  V30 13043 C 1256.62 1.92901 2.78644 0
M  V30 13044 C 1255.79 3.23222 2.94697 0
M  V30 13045 C 1254.85 3.25329 4.13579 0
M  V30 13046 O 1253.88 3.989 4.06039 0
M  V30 13047 N 1255.08 2.50158 5.23833 0
M  V30 13048 H 1257.84 2.75659 1.1761 0
M  V30 13049 H 1255.41 1.54021 0.498925 0
M  V30 13050 H 1257.4 1.91721 3.56406 0
M  V30 13051 H 1255.97 1.05582 2.9423 0
M  V30 13052 H 1255.19 3.37241 2.04113 0
M  V30 13053 H 1256.48 4.09238 3.02328 0
M  V30 13054 H 1255.87 1.90002 5.32838 0
M  V30 13055 H 1254.43 2.5474 5.99959 0
M  V30 13056 N 1257.86 -0.571685 1.46866 0
M  V30 13057 C 1258.83 -1.66198 1.57832 0
M  V30 13058 C 1259.83 -1.54242 0.454547 0
M  V30 13059 O 1261.02 -1.58661 0.719191 0
M  V30 13060 C 1258.15 -3.05678 1.5091 0
M  V30 13061 H 1259.34 -1.57829 2.5501 0
M  V30 13062 H 1256.89 -0.790433 1.3484 0
M  V30 13063 H 1257.63 -3.19593 0.550529 0
M  V30 13064 H 1257.41 -3.15765 2.32454 0
M  V30 13065 H 1258.9 -3.85027 1.61692 0
M  V30 13066 N 1259.34 -1.34755 -0.817236 0
M  V30 13067 C 1260.27 -1.29452 -1.94331 0
M  V30 13068 C 1261.25 -0.170902 -1.69239 0
M  V30 13069 O 1262.44 -0.364173 -1.90755 0
M  V30 13070 C 1259.57 -1.05497 -3.30889 0
M  V30 13071 C 1258.52 -2.14386 -3.70436 0
M  V30 13072 C 1257.85 -1.75612 -5.05039 0
M  V30 13073 C 1259.15 -3.56265 -3.81933 0
M  V30 13074 H 1260.84 -2.23672 -1.99025 0
M  V30 13075 H 1258.39 -1.07674 -0.956159 0
M  V30 13076 H 1260.34 -1.0043 -4.09257 0
M  V30 13077 H 1259.06 -0.0772059 -3.26509 0
M  V30 13078 H 1257.72 -2.18532 -2.94345 0
M  V30 13079 H 1257.37 -0.764809 -4.97152 0
M  V30 13080 H 1257.07 -2.48495 -5.3247 0
M  V30 13081 H 1258.6 -1.72051 -5.85859 0
M  V30 13082 H 1260.01 -3.545 -4.50558 0
M  V30 13083 H 1258.41 -4.27818 -4.20822 0
M  V30 13084 H 1259.48 -3.93192 -2.83775 0
M  V30 13085 N 1260.82 1.03812 -1.18578 0
M  V30 13086 C 1262.07 1.76706 -0.980776 0
M  V30 13087 C 1262.39 1.88729 0.490562 0
M  V30 13088 O 1261.66 1.41413 1.35569 0
M  V30 13089 H 1260.24 0.654586 -0.359898 0
M  V30 13090 H 1262.9 1.25274 -1.49306 0
M  V30 13091 H 1262 2.77876 -1.42096 0
M  V30 13092 N 1262.3 0.988223 1.22768 0
M  V30 13093 C 1263.55 0.660154 1.91014 0
M  V30 13094 C 1263.87 -0.809788 1.77391 0
M  V30 13095 O 1263.14 -1.57998 1.15817 0
M  V30 13096 H 1261.72 0.24118 0.706995 0
M  V30 13097 H 1264.38 1.25372 1.49224 0
M  V30 13098 H 1263.47 0.918603 2.98275 0
M  V30 13099 N 1263.78 -1.38018 0.760839 0
M  V30 13100 C 1265.02 -1.99952 0.320241 0
M  V30 13101 C 1265.35 -1.60397 -1.10014 0
M  V30 13102 O 1264.61 -0.836407 -1.76926 0
M  V30 13103 C 1264.9 -3.55168 0.398778 0
M  V30 13104 C 1264.57 -4.14457 1.77585 0
M  V30 13105 C 1263.23 -4.30363 2.15269 0
M  V30 13106 C 1265.58 -4.47089 2.67883 0
M  V30 13107 C 1262.91 -4.762 3.4271 0
M  V30 13108 C 1265.26 -4.94345 3.94722 0
M  V30 13109 C 1263.93 -5.08458 4.32466 0
M  V30 13110 H 1263.2 -0.731675 0.117185 0
M  V30 13111 H 1265.85 -1.64955 0.972736 0
M  V30 13112 H 1264.15 -3.90346 -0.337273 0
M  V30 13113 H 1265.85 -4.00981 0.0393393 0
M  V30 13114 H 1262.44 -4.02496 1.47292 0
M  V30 13115 H 1266.62 -4.34395 2.40031 0
M  V30 13116 H 1261.88 -4.85312 3.71863 0
M  V30 13117 H 1266.05 -5.18563 4.64828 0
M  V30 13118 H 1263.68 -5.43735 5.31278 0
M  V30 13119 N 1265.25 -0.510493 -1.49103 0
M  V30 13120 C 1266.5 0.0306436 -2.02477 0
M  V30 13121 C 1266.83 1.36113 -1.38937 0
M  V30 13122 O 1266.08 1.88731 -0.517584 0
M  V30 13123 C 1266.38 0.221921 -3.5671 0
M  V30 13124 C 1266.05 -1.03176 -4.38937 0
M  V30 13125 C 1264.71 -1.37539 -4.61125 0
M  V30 13126 C 1267.06 -1.86464 -4.86704 0
M  V30 13127 C 1264.39 -2.55124 -5.28326 0
M  V30 13128 C 1266.74 -3.03211 -5.55199 0
M  V30 13129 C 1265.41 -3.37943 -5.75631 0
M  V30 13130 H 1264.68 0.0112133 -0.740915 0
M  V30 13131 H 1267.32 -0.672574 -1.79301 0
M  V30 13132 H 1265.63 1.00775 -3.78618 0
M  V30 13133 H 1267.33 0.655223 -3.95611 0
M  V30 13134 H 1263.92 -0.754105 -4.21914 0
M  V30 13135 H 1268.1 -1.61229 -4.69381 0
M  V30 13136 H 1263.36 -2.8226 -5.42346 0
M  V30 13137 H 1267.53 -3.68068 -5.91185 0
M  V30 13138 H 1265.16 -4.29158 -6.27477 0
M  V30 13139 N 1266.73 1.55688 -0.24474 0
M  V30 13140 C 1267.96 2.03743 0.387776 0
M  V30 13141 C 1268.38 1.1229 1.50906 0
M  V30 13142 O 1267.74 0.115445 1.80932 0
M  V30 13143 C 1267.79 3.49825 0.874927 0
M  V30 13144 O 1266.89 3.61504 1.98466 0
M  V30 13145 H 1266.23 0.658561 0.0848107 0
M  V30 13146 H 1268.76 2.01224 -0.370165 0
M  V30 13147 H 1268.77 3.90603 1.17871 0
M  V30 13148 H 1267.45 4.15864 0.0543852 0
M  V30 13149 H 1266.02 3.32622 1.68574 0
M  V30 13150 N 1268.21 -0.0283989 1.57574 0
M  V30 13151 C 1269.44 -0.729772 1.93282 0
M  V30 13152 C 1269.85 -1.69384 0.842959 0
M  V30 13153 O 1269.19 -1.82722 -0.189286 0
M  V30 13154 C 1269.25 -1.54107 3.24794 0
M  V30 13155 C 1268.92 -0.741709 4.50941 0
M  V30 13156 C 1269.91 -0.0416985 5.19883 0
M  V30 13157 C 1267.6 -0.696053 4.97454 0
M  V30 13158 C 1269.59 0.693261 6.33619 0
M  V30 13159 C 1267.28 0.042651 6.11085 0
M  V30 13160 C 1268.28 0.736067 6.79022 0
M  V30 13161 O 1267.97 1.46278 7.9048 0
M  V30 13162 H 1267.7 -0.210092 0.642524 0
M  V30 13163 H 1270.25 0.0102277 2.05397 0
M  V30 13164 H 1268.48 -2.3249 3.09007 0
M  V30 13165 H 1270.17 -2.12512 3.45823 0
M  V30 13166 H 1270.94 -0.0679975 4.84952 0
M  V30 13167 H 1266.82 -1.22528 4.44419 0
M  V30 13168 H 1270.36 1.23504 6.8658 0
M  V30 13169 H 1266.26 0.0708708 6.45461 0
M  V30 13170 H 1267.02 1.37652 8.06842 0
M  V30 13171 N 1269.69 -1.54705 -0.300681 0
M  V30 13172 C 1270.93 -1.74001 -1.03585 0
M  V30 13173 C 1271.26 -0.525972 -1.87253 0
M  V30 13174 O 1270.52 0.492068 -1.89413 0
M  V30 13175 C 1270.82 -2.98173 -1.97047 0
M  V30 13176 C 1270.48 -4.31948 -1.29352 0
M  V30 13177 C 1269.14 -4.68312 -1.10623 0
M  V30 13178 C 1271.5 -5.14874 -0.809594 0
M  V30 13179 C 1268.82 -5.85181 -0.42185 0
M  V30 13180 C 1271.18 -6.32447 -0.138935 0
M  V30 13181 C 1269.84 -6.67473 0.0603129 0
M  V30 13182 H 1269.11 -0.636716 -0.379044 0
M  V30 13183 H 1271.76 -1.88963 -0.310697 0
M  V30 13184 H 1270.06 -2.77994 -2.76091 0
M  V30 13185 H 1271.76 -3.10297 -2.54001 0
M  V30 13186 H 1268.35 -4.0335 -1.44937 0
M  V30 13187 H 1272.53 -4.87278 -0.942006 0
M  V30 13188 H 1267.79 -6.10862 -0.256494 0
M  V30 13189 H 1271.96 -6.95973 0.243939 0
M  V30 13190 H 1269.59 -7.57887 0.592626 0
M  V30 13191 N 1271.17 0.563888 -1.47167 0
M  V30 13192 C 1272.41 1.32331 -1.53676 0
M  V30 13193 C 1272.75 1.93213 -0.195593 0
M  V30 13194 O 1272.02 1.77508 0.795068 0
M  V30 13195 C 1272.3 2.43848 -2.64972 0
M  V30 13196 C 1272.16 1.8788 -4.08682 0
M  V30 13197 C 1273.48 3.45809 -2.72221 0
M  V30 13198 H 1270.59 0.479791 -0.559437 0
M  V30 13199 H 1273.24 0.631669 -1.79192 0
M  V30 13200 H 1271.39 3.02846 -2.43345 0
M  V30 13201 H 1273.06 1.33195 -4.41652 0
M  V30 13202 H 1271.3 1.18593 -4.17275 0
M  V30 13203 H 1271.97 2.68465 -4.82318 0
M  V30 13204 H 1274.45 2.9672 -2.91713 0
M  V30 13205 H 1273.32 4.21272 -3.51882 0
M  V30 13206 H 1273.59 4.04236 -1.79014 0
M  V30 13207 N 1272.64 1.35187 0.810078 0
M  V30 13208 C 1273.89 1.27602 1.56207 0
M  V30 13209 C 1274.21 -0.148621 1.95035 0
M  V30 13210 O 1275.41 -0.346721 2.69277 0
M  V30 13211 C 1273.87 2.23759 2.81886 0
M  V30 13212 C 1273.48 3.71549 2.5031 0
M  V30 13213 C 1275.22 2.25109 3.59898 0
M  V30 13214 C 1273.13 4.5954 3.7226 0
M  V30 13215 H 1272.06 0.474078 0.586316 0
M  V30 13216 H 1274.71 1.6043 0.890759 0
M  V30 13217 H 1273.09 1.83898 3.5071 0
M  V30 13218 H 1274.26 4.20025 1.89515 0
M  V30 13219 H 1272.58 3.72773 1.85551 0
M  V30 13220 H 1275.18 2.88066 4.50469 0
M  V30 13221 H 1275.52 1.25387 3.96968 0
M  V30 13222 H 1276.05 2.63481 2.98031 0
M  V30 13223 H 1272.79 5.60246 3.403 0
M  V30 13224 H 1272.31 4.15792 4.32293 0
M  V30 13225 H 1273.99 4.74789 4.39528 0
M  V30 13226 N 1274.12 -1.03182 1.19127 0
M  V30 13227 C 1275.05 -2.13301 0.94999 0
M  V30 13228 C 1276.03 -1.69707 -0.115577 0
M  V30 13229 O 1277.22 -1.94161 0.0388395 0
M  V30 13230 C 1274.35 -3.43902 0.484637 0
M  V30 13231 C 1273.3 -4.01164 1.4917 0
M  V30 13232 C 1272.63 -5.2735 0.883537 0
M  V30 13233 C 1273.93 -4.36311 2.87107 0
M  V30 13234 H 1275.62 -2.33743 1.87095 0
M  V30 13235 H 1273.17 -1.12332 0.900977 0
M  V30 13236 H 1275.12 -4.20308 0.30315 0
M  V30 13237 H 1273.85 -3.23173 -0.471909 0
M  V30 13238 H 1272.5 -3.26849 1.66028 0
M  V30 13239 H 1272.15 -5.02936 -0.0804712 0
M  V30 13240 H 1271.85 -5.66624 1.55599 0
M  V30 13241 H 1273.38 -6.06425 0.71278 0
M  V30 13242 H 1274.79 -5.03666 2.73848 0
M  V30 13243 H 1273.19 -4.86659 3.51117 0
M  V30 13244 H 1274.26 -3.45743 3.39985 0
M  V30 13245 N 1275.6 -0.99472 -1.22242 0
M  V30 13246 C 1276.56 -0.551619 -2.22463 0
M  V30 13247 C 1277.56 0.366498 -1.56568 0
M  V30 13248 O 1278.75 0.158204 -1.7348 0
M  V30 13249 C 1275.89 0.197416 -3.40328 0
M  V30 13250 H 1277.08 -1.43795 -2.63179 0
M  V30 13251 H 1274.63 -0.782121 -1.35324 0
M  V30 13252 H 1275.37 1.09965 -3.05087 0
M  V30 13253 H 1275.15 -0.461829 -3.89371 0
M  V30 13254 H 1276.64 0.495534 -4.1465 0
M  V30 13255 N 1277.08 1.37613 -0.768148 0
M  V30 13256 C 1277.99 2.34103 -0.152649 0
M  V30 13257 C 1279 1.6 0.683811 0
M  V30 13258 O 1280.18 1.92112 0.604572 0
M  V30 13259 C 1277.25 3.39164 0.718954 0
M  V30 13260 C 1276.31 4.29092 -0.13355 0
M  V30 13261 C 1275.54 5.29135 0.696547 0
M  V30 13262 O 1275.76 5.36618 1.93383 0
M  V30 13263 O 1274.7 6.01804 0.107652 0
M  V30 13264 H 1278.52 2.88462 -0.949899 0
M  V30 13265 H 1276.11 1.39711 -0.529252 0
M  V30 13266 H 1277.99 4.03454 1.21665 0
M  V30 13267 H 1276.66 2.87137 1.49445 0
M  V30 13268 H 1275.57 3.67914 -0.677528 0
M  V30 13269 H 1276.9 4.84413 -0.872048 0
M  V30 13270 N 1278.56 0.518393 1.4883 0
M  V30 13271 C 1279.5 -0.264197 2.31095 0
M  V30 13272 C 1280.5 -0.946455 1.40494 0
M  V30 13273 O 1281.7 -0.872161 1.57459 0
M  V30 13274 H 1278.08 -0.104065 0.744765 0
M  V30 13275 H 1280.05 0.449375 2.94997 0
M  V30 13276 C 1278.8 -1.30527 3.2227 0
M  V30 13277 H 1278.12 -0.789695 3.91923 0
M  V30 13278 H 1279.56 -1.82449 3.82738 0
M  V30 13279 C 1278.02 -2.33274 2.43073 0
M  V30 13280 O 1278.55 -3.39493 2.14726 0
M  V30 13281 N 1276.76 -2.06189 2.04779 0
M  V30 13282 H 1276.3 -1.19829 2.28033 0
M  V30 13283 H 1276.26 -2.7516 1.521 0
M  V30 13284 N 1280.03 -1.55556 0.252993 0
M  V30 13285 C 1281.28 -1.98697 -0.369319 0
M  V30 13286 C 1281.6 -1.14256 -1.58021 0
M  V30 13287 O 1280.87 -0.226779 -1.94583 0
M  V30 13288 H 1279.45 -0.733869 -0.139444 0
M  V30 13289 H 1282.12 -1.91673 0.353197 0
M  V30 13290 H 1281.21 -3.04728 -0.674312 0
M  V30 13291 N 1281.51 0.0200419 -1.57587 0
M  V30 13292 C 1282.76 0.709027 -1.89681 0
M  V30 13293 C 1283.09 1.74876 -0.851396 0
M  V30 13294 O 1282.34 1.95151 0.146483 0
M  V30 13295 C 1282.64 1.40729 -3.28527 0
M  V30 13296 C 1282.31 0.502686 -4.48089 0
M  V30 13297 C 1280.97 0.253558 -4.80532 0
M  V30 13298 C 1283.32 -0.121338 -5.21059 0
M  V30 13299 C 1280.65 -0.628221 -5.83327 0
M  V30 13300 C 1283 -0.990873 -6.24792 0
M  V30 13301 C 1281.67 -1.24937 -6.55703 0
M  V30 13302 H 1280.94 0.259451 -0.694094 0
M  V30 13303 H 1283.58 -0.03118 -1.91475 0
M  V30 13304 H 1281.89 2.22105 -3.22764 0
M  V30 13305 H 1283.58 1.94609 -3.50611 0
M  V30 13306 H 1280.17 0.707018 -4.22728 0
M  V30 13307 H 1284.36 0.0581516 -4.96266 0
M  V30 13308 H 1279.61 -0.836712 -6.05648 0
M  V30 13309 H 1283.79 -1.48087 -6.80473 0
M  V30 13310 H 1281.42 -1.93436 -7.35178 0
M  V30 13311 N 1282.99 1.54862 0.292472 0
M  V30 13312 C 1283.92 1.89406 1.36556 0
M  V30 13313 C 1284.9 0.753838 1.52484 0
M  V30 13314 O 1286.09 1.01031 1.6585 0
M  V30 13315 C 1283.22 2.14888 2.72838 0
M  V30 13316 C 1282.17 3.3073 2.71665 0
M  V30 13317 C 1281.5 3.41648 4.11316 0
M  V30 13318 C 1282.8 4.67622 2.32651 0
M  V30 13319 H 1284.49 2.79284 1.07894 0
M  V30 13320 H 1282.04 1.34377 0.517585 0
M  V30 13321 H 1283.99 2.3764 3.48002 0
M  V30 13322 H 1282.71 1.2179 3.03042 0
M  V30 13323 H 1281.37 3.07915 1.98958 0
M  V30 13324 H 1281.02 2.46051 4.38711 0
M  V30 13325 H 1280.72 4.19522 4.11431 0
M  V30 13326 H 1282.24 3.6667 4.88248 0
M  V30 13327 H 1283.66 4.90048 2.97533 0
M  V30 13328 H 1282.06 5.48272 2.43963 0
M  V30 13329 H 1283.13 4.67762 1.27777 0
M  V30 13330 N 1284.47 -0.556076 1.47464 0
M  V30 13331 C 1285.88 -1.1382 1.47993 0
M  V30 13332 C 1286.23 -1.94785 0.235249 0
M  V30 13333 O 1285.36 -2.06098 -0.659752 0
M  V30 13334 C 1285.95 -2.07082 2.68146 0
M  V30 13335 C 1284.51 -2.60564 2.71631 0
M  V30 13336 C 1283.66 -1.36967 2.41113 0
M  V30 13337 H 1286.61 -0.34262 1.54957 0
M  V30 13338 H 1286.63 -2.90975 2.45181 0
M  V30 13339 H 1286.14 -1.48127 3.5872 0
M  V30 13340 H 1284.24 -3.23314 1.852 0
M  V30 13341 H 1284.35 -3.0148 3.72353 0
M  V30 13342 H 1282.72 -1.67678 1.91719 0
M  V30 13343 H 1283.5 -0.79803 3.33896 0
M  V30 13344 N 1285.95 -1.35615 -0.802897 0
M  V30 13345 C 1287.2 -1.28839 -1.55708 0
M  V30 13346 C 1287.52 0.135906 -1.94526 0
M  V30 13347 O 1286.79 1.07317 -1.6389 0
M  V30 13348 H 1285.37 -0.473906 -0.577427 0
M  V30 13349 H 1288.03 -1.69759 -0.957487 0
M  V30 13350 H 1287.12 -1.90675 -2.47082 0
M  V30 13351 N 1287.43 1.02549 -1.19673 0
M  V30 13352 C 1288.37 2.13015 -0.934209 0
M  V30 13353 C 1289.37 1.69035 0.111208 0
M  V30 13354 O 1290.57 1.79959 -0.0383449 0
M  V30 13355 H 1286.95 0.696015 -0.284722 0
M  V30 13356 H 1288.92 2.32346 -1.87238 0
M  V30 13357 C 1287.67 3.44185 -0.493124 0
M  V30 13358 H 1286.99 3.78447 -1.28911 0
M  V30 13359 H 1288.43 4.22565 -0.348577 0
M  V30 13360 C 1286.89 3.27427 0.793277 0
M  V30 13361 O 1287.42 3.56362 1.85388 0
M  V30 13362 N 1285.63 2.80706 0.751837 0
M  V30 13363 H 1285.17 2.57359 -0.111517 0
M  V30 13364 H 1285.13 2.69874 1.61292 0
M  V30 13365 N 1288.9 1.00119 1.21713 0
M  V30 13366 C 1289.83 0.578504 2.2622 0
M  V30 13367 C 1290.81 -0.398777 1.6536 0
M  V30 13368 O 1292 -0.287596 1.92059 0
M  V30 13369 C 1289.13 -0.0994508 3.47158 0
M  V30 13370 C 1288.08 0.79722 4.2051 0
M  V30 13371 C 1287.41 -0.0141125 5.34698 0
M  V30 13372 C 1288.71 2.09802 4.7831 0
M  V30 13373 H 1290.4 1.45208 2.6183 0
M  V30 13374 H 1287.95 0.699656 1.2586 0
M  V30 13375 H 1289.9 -0.406605 4.19434 0
M  V30 13376 H 1288.63 -1.00763 3.10667 0
M  V30 13377 H 1287.29 1.08814 3.50079 0
M  V30 13378 H 1286.93 -0.923468 4.9445 0
M  V30 13379 H 1286.63 0.582883 5.84702 0
M  V30 13380 H 1288.16 -0.31517 6.09786 0
M  V30 13381 H 1289.57 1.85427 5.42485 0
M  V30 13382 H 1287.97 2.64455 5.38687 0
M  V30 13383 H 1289.04 2.77132 3.97902 0
M  V30 13384 N 1290.38 -1.37203 0.775435 0
M  V30 13385 C 1291.63 -1.99897 0.341936 0
M  V30 13386 C 1291.96 -1.61414 -1.07978 0
M  V30 13387 O 1291.24 -0.862108 -1.7435 0
M  V30 13388 C 1291.52 -3.56755 0.489715 0
M  V30 13389 C 1291.37 -4.05135 1.95411 0
M  V30 13390 C 1292.69 -4.39978 -0.103779 0
M  V30 13391 H 1289.81 -0.726199 0.125717 0
M  V30 13392 H 1292.45 -1.62826 0.979167 0
M  V30 13393 H 1290.6 -3.88464 -0.0527684 0
M  V30 13394 H 1292.27 -3.83975 2.55658 0
M  V30 13395 H 1290.52 -3.57192 2.46164 0
M  V30 13396 H 1291.19 -5.14161 2.00855 0
M  V30 13397 H 1293.66 -4.14547 0.359134 0
M  V30 13398 H 1292.54 -5.48892 0.0297337 0
M  V30 13399 H 1292.8 -4.25658 -1.19448 0
M  V30 13400 N 1291.86 -0.526279 -1.48553 0
M  V30 13401 C 1293.11 0.00914839 -2.02098 0
M  V30 13402 C 1293.43 1.35119 -1.40598 0
M  V30 13403 O 1292.7 1.87422 -0.570065 0
M  V30 13404 H 1291.28 0.00636935 -0.746973 0
M  V30 13405 H 1293.94 -0.689269 -1.82305 0
M  V30 13406 H 1293.04 0.120212 -3.11868 0
M  V30 13407 N 1293.34 1.5542 -0.261239 0
M  V30 13408 C 1294.59 1.9846 0.360052 0
M  V30 13409 C 1294.9 1.15288 1.58013 0
M  V30 13410 O 1296.11 1.48408 2.27348 0
M  V30 13411 C 1294.56 3.53185 0.691964 0
M  V30 13412 C 1294.17 4.45116 -0.507521 0
M  V30 13413 C 1295.91 4.04848 1.27665 0
M  V30 13414 C 1293.82 5.91207 -0.150966 0
M  V30 13415 H 1292.75 0.741207 0.138303 0
M  V30 13416 H 1295.4 1.79859 -0.363712 0
M  V30 13417 H 1293.78 3.67535 1.47425 0
M  V30 13418 H 1294.96 4.42531 -1.28465 0
M  V30 13419 H 1293.27 4.04013 -1.0081 0
M  V30 13420 H 1295.87 5.11529 1.55699 0
M  V30 13421 H 1296.21 3.5305 2.20593 0
M  V30 13422 H 1296.75 3.93882 0.556955 0
M  V30 13423 H 1293.48 6.47072 -1.04776 0
M  V30 13424 H 1293 5.96894 0.589671 0
M  V30 13425 H 1294.68 6.4647 0.261772 0
M  V30 13426 N 1294.82 -0.0116844 1.57596 0
M  V30 13427 C 1296.23 -0.367602 1.55309 0
M  V30 13428 C 1296.43 -1.75524 0.98962 0
M  V30 13429 O 1295.49 -2.44813 0.618289 0
M  V30 13430 C 1296.8 -0.253532 2.99629 0
M  V30 13431 C 1298.35 -0.329335 3.11263 0
M  V30 13432 C 1298.82 -0.24452 4.57347 0
M  V30 13433 N 1300.31 -0.302782 4.62209 0
M  V30 13434 C 1301.05 -0.260315 5.72809 0
M  V30 13435 N 1300.55 -0.169124 6.92594 0
M  V30 13436 N 1302.34 -0.311323 5.61237 0
M  V30 13437 H 1294.49 0.896204 1.92567 0
M  V30 13438 H 1296.75 0.342445 0.883988 0
M  V30 13439 H 1296.46 0.70074 3.44648 0
M  V30 13440 H 1296.33 -1.04029 3.62571 0
M  V30 13441 H 1298.72 -1.27405 2.66181 0
M  V30 13442 H 1298.8 0.487084 2.5112 0
M  V30 13443 H 1298.44 0.696597 5.031 0
M  V30 13444 H 1298.37 -1.07927 5.15421 0
M  V30 13445 H 1300.87 -0.375067 3.76034 0
M  V30 13446 H 1301.18 -0.142296 7.72669 0
M  V30 13447 H 1299.52 -0.134919 6.94869 0
M  V30 13448 H 1302.71 -0.380678 4.6655 0
M  V30 13449 H 1302.89 -0.274761 6.47417 0
M  V30 13450 N 1296.29 -1.55015 -0.284256 0
M  V30 13451 C 1297.22 -1.90128 -1.3555 0
M  V30 13452 C 1298.2 -0.761914 -1.52082 0
M  V30 13453 O 1299.39 -1.01909 -1.65312 0
M  V30 13454 C 1296.52 -2.16332 -2.71695 0
M  V30 13455 C 1295.47 -3.32166 -2.69907 0
M  V30 13456 C 1294.8 -3.43824 -4.09498 0
M  V30 13457 C 1296.1 -4.6885 -2.30168 0
M  V30 13458 H 1297.79 -2.79852 -1.06411 0
M  V30 13459 H 1295.34 -1.34649 -0.510451 0
M  V30 13460 H 1297.29 -2.39482 -3.46737 0
M  V30 13461 H 1296.02 -1.23395 -3.02392 0
M  V30 13462 H 1294.68 -3.08965 -1.97322 0
M  V30 13463 H 1294.32 -2.48375 -4.374 0
M  V30 13464 H 1294.02 -4.21698 -4.092 0
M  V30 13465 H 1295.55 -3.69254 -4.86296 0
M  V30 13466 H 1296.96 -4.91619 -2.9493 0
M  V30 13467 H 1295.36 -5.49558 -2.41052 0
M  V30 13468 H 1296.43 -4.68433 -1.25294 0
M  V30 13469 N 1297.77 0.548248 -1.47757 0
M  V30 13470 C 1298.72 1.67553 -1.61335 0
M  V30 13471 C 1299.71 1.62447 -0.480335 0
M  V30 13472 O 1300.92 1.67525 -0.658445 0
M  V30 13473 H 1297.29 0.55457 -0.507894 0
M  V30 13474 H 1299.27 1.53239 -2.56047 0
M  V30 13475 C 1298.01 3.05883 -1.6532 0
M  V30 13476 H 1297.34 3.10497 -2.51856 0
M  V30 13477 H 1298.78 3.84424 -1.78868 0
M  V30 13478 C 1297.24 3.34656 -0.388238 0
M  V30 13479 O 1297.77 3.9849 0.506816 0
M  V30 13480 N 1295.97 2.89384 -0.265514 0
M  V30 13481 H 1295.52 2.37615 -0.994819 0
M  V30 13482 H 1295.48 3.09006 0.579889 0
M  V30 13483 N 1299.25 1.36039 0.795694 0
M  V30 13484 C 1300.5 1.3112 1.55497 0
M  V30 13485 C 1300.85 -0.110471 1.92083 0
M  V30 13486 O 1300.14 -1.06352 1.59373 0
M  V30 13487 C 1300.34 2.16166 2.84617 0
M  V30 13488 C 1300.17 3.66459 2.60649 0
M  V30 13489 C 1298.94 4.35658 2.55989 0
M  V30 13490 C 1301.13 4.59866 2.30277 0
M  V30 13491 N 1299.12 5.71632 2.23852 0
M  V30 13492 C 1300.49 5.84042 2.08074 0
M  V30 13493 C 1302.54 4.48496 2.16231 0
M  V30 13494 C 1301.25 6.98125 1.73246 0
M  V30 13495 C 1303.27 5.62439 1.82801 0
M  V30 13496 C 1302.63 6.8565 1.61441 0
M  V30 13497 H 1298.73 0.53507 0.570284 0
M  V30 13498 H 1301.32 1.71029 0.930441 0
M  V30 13499 H 1299.49 1.78511 3.44947 0
M  V30 13500 H 1301.22 2.02684 3.50288 0
M  V30 13501 H 1297.97 3.8839 2.71017 0
M  V30 13502 H 1298.4 6.43428 2.10547 0
M  V30 13503 H 1303.04 3.53831 2.31437 0
M  V30 13504 H 1300.76 7.92746 1.56777 0
M  V30 13505 H 1304.34 5.556 1.72626 0
M  V30 13506 H 1303.22 7.72325 1.35953 0
M  V30 13507 N 1300.73 -1.01913 1.20215 0
M  V30 13508 C 1302.01 -1.7262 0.919867 0
M  V30 13509 C 1302.39 -2.03203 -0.572001 0
M  V30 13510 O 1301.73 -1.69448 -1.53296 0
M  V30 13511 C 1301.94 -2.9959 1.79016 0
M  V30 13512 C 1303.29 -3.72905 2.03045 0
M  V30 13513 O 1304.32 -3.0954 1.76249 0
M  V30 13514 O 1303.17 -4.86844 2.48285 0
M  V30 13515 H 1300.27 -0.752194 0.343705 0
M  V30 13516 H 1302.81 -1.07783 1.31076 0
M  V30 13517 H 1301.59 -2.73292 2.80048 0
M  V30 13518 H 1301.21 -3.72168 1.39918 0
M  V30 13519 N 1302.21 -1.00763 -1.2118 0
M  V30 13520 C 1303.48 -0.607236 -1.85935 0
M  V30 13521 C 1303.86 0.915048 -1.90237 0
M  V30 13522 O 1303.21 1.80308 -1.40361 0
M  V30 13523 C 1303.42 -1.24466 -3.26051 0
M  V30 13524 C 1304.77 -1.35443 -4.02418 0
M  V30 13525 O 1305.79 -1.20018 -3.35372 0
M  V30 13526 O 1304.65 -1.60282 -5.22467 0
M  V30 13527 H 1301.75 -0.208338 -0.800328 0
M  V30 13528 H 1304.29 -1.10444 -1.28842 0
M  V30 13529 H 1303.06 -2.28524 -3.17635 0
M  V30 13530 H 1302.69 -0.733966 -3.90767 0
M  V30 13531 N 1303.68 1.3679 -0.7827 0
M  V30 13532 C 1305.1 1.52719 -0.463594 0
M  V30 13533 C 1305.3 1.73827 1.01914 0
M  V30 13534 O 1304.36 1.76591 1.80477 0
M  V30 13535 C 1305.67 2.71709 -1.2882 0
M  V30 13536 C 1307.22 2.85577 -1.2812 0
M  V30 13537 C 1307.69 4.07564 -2.0894 0
M  V30 13538 N 1309.18 4.14697 -2.0635 0
M  V30 13539 C 1309.92 5.08147 -2.65659 0
M  V30 13540 N 1309.41 6.07083 -3.33799 0
M  V30 13541 N 1311.21 5.00712 -2.55429 0
M  V30 13542 H 1303.36 1.21342 -1.74327 0
M  V30 13543 H 1305.62 0.591719 -0.740657 0
M  V30 13544 H 1305.33 2.62612 -2.3394 0
M  V30 13545 H 1305.2 3.65686 -0.924873 0
M  V30 13546 H 1307.59 2.94139 -0.237947 0
M  V30 13547 H 1307.67 1.92528 -1.68424 0
M  V30 13548 H 1307.31 3.99763 -3.13293 0
M  V30 13549 H 1307.24 4.99748 -1.66011 0
M  V30 13550 H 1309.73 3.43856 -1.56752 0
M  V30 13551 H 1310.05 6.74939 -3.764 0
M  V30 13552 H 1308.39 6.07329 -3.379 0
M  V30 13553 H 1311.58 4.22367 -2.01802 0
M  V30 13554 H 1311.76 5.73354 -3.01943 0
M  V30 13555 N 1305.16 0.53415 1.48272 0
M  V30 13556 C 1306.39 0.00574475 2.06899 0
M  V30 13557 C 1306.81 -1.27754 1.39012 0
M  V30 13558 O 1306.16 -1.76102 0.478993 0
M  V30 13559 C 1306.21 -0.217576 3.60845 0
M  V30 13560 O 1305.93 1.01487 4.26183 0
M  V30 13561 C 1307.44 -0.785888 4.36278 0
M  V30 13562 H 1304.66 0.0353967 0.670066 0
M  V30 13563 H 1307.2 0.740984 1.90603 0
M  V30 13564 H 1305.35 -0.902875 3.76732 0
M  V30 13565 H 1305.77 0.7982 5.18391 0
M  V30 13566 H 1307.24 -0.891551 5.44753 0
M  V30 13567 H 1307.72 -1.79178 4.00989 0
M  V30 13568 H 1308.33 -0.137022 4.25079 0
M  V30 13569 N 1306.64 -1.55279 0.269478 0
M  V30 13570 C 1307.89 -1.99767 -0.34943 0
M  V30 13571 C 1308.22 -1.15762 -1.55926 0
M  V30 13572 O 1307.49 -0.22633 -1.93179 0
M  V30 13573 C 1307.78 -3.52474 -0.73716 0
M  V30 13574 C 1307.63 -4.47236 0.479621 0
M  V30 13575 C 1308.95 -4.10924 -1.57573 0
M  V30 13576 H 1306.07 -0.72623 -0.125535 0
M  V30 13577 H 1308.71 -1.86257 0.375298 0
M  V30 13578 H 1306.86 -3.64118 -1.35464 0
M  V30 13579 H 1308.53 -4.47543 1.11816 0
M  V30 13580 H 1306.78 -4.19127 1.11871 0
M  V30 13581 H 1307.45 -5.51754 0.164653 0
M  V30 13582 H 1309.92 -4.02522 -1.05429 0
M  V30 13583 H 1308.8 -5.17995 -1.81584 0
M  V30 13584 H 1309.06 -3.60798 -2.55495 0
M  V30 13585 N 1308.12 0.00332656 -1.576 0
M  V30 13586 C 1309.07 1.01406 -2.09331 0
M  V30 13587 C 1310.06 1.35806 -1.01258 0
M  V30 13588 O 1311.27 1.34409 -1.19726 0
M  V30 13589 H 1307.64 0.344661 -0.668366 0
M  V30 13590 H 1309.61 0.552154 -2.93247 0
M  V30 13591 C 1308.36 2.29819 -2.60918 0
M  V30 13592 H 1307.68 2.04216 -3.43709 0
M  V30 13593 H 1309.12 2.98826 -3.00797 0
M  V30 13594 C 1307.58 3.0057 -1.52182 0
M  V30 13595 O 1308.11 3.91423 -0.902817 0
M  V30 13596 N 1306.32 2.62338 -1.25009 0
M  V30 13597 H 1305.87 1.88538 -1.75531 0
M  V30 13598 H 1305.82 3.0999 -0.524736 0
M  V30 13599 N 1309.6 1.55164 0.276031 0
M  V30 13600 C 1310.87 1.66338 1.02913 0
M  V30 13601 C 1311.25 0.527876 2.04393 0
M  V30 13602 O 1310.6 -0.472437 2.23563 0
M  V30 13603 C 1310.81 3.05427 1.68865 0
M  V30 13604 C 1312.16 3.63075 2.2014 0
M  V30 13605 O 1313.18 3.0804 1.78857 0
M  V30 13606 O 1312.04 4.59492 2.95854 0
M  V30 13607 H 1309.14 0.675446 0.477181 0
M  V30 13608 H 1311.68 1.67504 0.272129 0
M  V30 13609 H 1310.45 3.79514 0.953125 0
M  V30 13610 H 1310.08 3.08147 2.5126 0
M  V30 13611 N 1311.07 -0.540404 1.48045 0
M  V30 13612 C 1312 -1.65538 1.6468 0
M  V30 13613 C 1312.99 -1.62713 0.495847 0
M  V30 13614 O 1314.17 -1.80072 0.727172 0
M  V30 13615 C 1311.3 -3.0415 1.67661 0
M  V30 13616 C 1310.25 -3.2183 2.82152 0
M  V30 13617 C 1309.58 -4.61397 2.70216 0
M  V30 13618 C 1310.88 -3.05596 4.23567 0
M  V30 13619 H 1312.57 -1.51873 2.58021 0
M  V30 13620 H 1310.12 -0.729208 1.24171 0
M  V30 13621 H 1312.07 -3.82013 1.77887 0
M  V30 13622 H 1310.8 -3.18814 0.708907 0
M  V30 13623 H 1309.46 -2.4638 2.71463 0
M  V30 13624 H 1309.1 -4.72883 1.71437 0
M  V30 13625 H 1308.8 -4.74174 3.47035 0
M  V30 13626 H 1310.33 -5.41374 2.82395 0
M  V30 13627 H 1311.74 -3.73261 4.35143 0
M  V30 13628 H 1310.14 -3.29871 5.01303 0
M  V30 13629 H 1311.21 -2.0214 4.40758 0
M  V30 13630 N 1312.55 -1.36459 -0.788468 0
M  V30 13631 C 1313.46 -1.33017 -1.93245 0
M  V30 13632 C 1314.48 -0.232212 -1.72444 0
M  V30 13633 O 1315.65 -0.464743 -1.95965 0
M  V30 13634 C 1312.72 -1.1197 -3.28121 0
M  V30 13635 C 1311.78 -2.3125 -3.61693 0
M  V30 13636 C 1311.01 -2.11197 -4.90134 0
M  V30 13637 O 1311.24 -1.08764 -5.59934 0
M  V30 13638 O 1310.17 -2.98996 -5.22384 0
M  V30 13639 H 1314 -2.29333 -1.99098 0
M  V30 13640 H 1311.58 -1.17016 -0.928856 0
M  V30 13641 H 1313.46 -1.02154 -4.08831 0
M  V30 13642 H 1312.14 -0.187171 -3.23158 0
M  V30 13643 H 1311.05 -2.46635 -2.81286 0
M  V30 13644 H 1312.38 -3.23012 -3.71381 0
M  V30 13645 N 1314.03 1.01274 -1.20754 0
M  V30 13646 C 1315.31 1.7213 -0.929008 0
M  V30 13647 C 1315.69 2.03503 0.561217 0
M  V30 13648 O 1315.04 1.70259 1.52395 0
M  V30 13649 C 1315.25 2.98636 -1.80603 0
M  V30 13650 C 1316.59 3.71823 -2.0502 0
M  V30 13651 O 1317.62 3.08601 -1.77888 0
M  V30 13652 O 1316.48 4.8552 -2.50864 0
M  V30 13653 H 1313.57 0.750361 -0.347689 0
M  V30 13654 H 1316.12 1.07086 -1.31646 0
M  V30 13655 H 1314.89 2.71803 -2.81494 0
M  V30 13656 H 1314.51 3.7142 -1.4189 0
M  V30 13657 N 1315.51 1.01404 1.20644 0
M  V30 13658 C 1316.73 0.720839 1.9447 0
M  V30 13659 C 1317.16 -0.711711 1.74116 0
M  V30 13660 O 1316.52 -1.48938 1.03379 0
M  V30 13661 C 1316.57 1.05864 3.4471 0
M  V30 13662 O 1315.67 0.168901 4.12054 0
M  V30 13663 H 1315.01 0.267698 0.607646 0
M  V30 13664 H 1317.54 1.35672 1.53147 0
M  V30 13665 H 1317.55 1.00928 3.9532 0
M  V30 13666 H 1316.23 2.1024 3.58848 0
M  V30 13667 H 1314.8 0.275572 3.7188 0
M  V30 13668 N 1316.99 -1.36373 0.789944 0
M  V30 13669 C 1318.22 -2.03187 0.373987 0
M  V30 13670 C 1318.63 -1.59697 -1.01457 0
M  V30 13671 O 1317.97 -0.782151 -1.66217 0
M  V30 13672 C 1318.03 -3.57703 0.358985 0
M  V30 13673 C 1317.69 -4.24396 1.69521 0
M  V30 13674 C 1318.69 -4.47247 2.65077 0
M  V30 13675 C 1316.38 -4.61858 1.97465 0
M  V30 13676 C 1318.37 -5.06642 3.86772 0
M  V30 13677 C 1316.06 -5.2097 3.19426 0
M  V30 13678 C 1317.06 -5.43302 4.13899 0
M  V30 13679 O 1316.74 -6.01173 5.3371 0
M  V30 13680 H 1316.48 -0.658654 0.152153 0
M  V30 13681 H 1319.03 -1.7532 1.07014 0
M  V30 13682 H 1317.26 -3.84691 -0.39366 0
M  V30 13683 H 1318.95 -4.05887 -0.0323762 0
M  V30 13684 H 1319.71 -4.18701 2.44775 0
M  V30 13685 H 1315.59 -4.438 1.2475 0
M  V30 13686 H 1319.14 -5.23989 4.60523 0
M  V30 13687 H 1315.03 -5.48943 3.39606 0
M  V30 13688 H 1315.8 -6.19638 5.34781 0
M  V30 13689 N 1318.47 -0.542005 -1.47987 0
M  V30 13690 C 1319.71 -0.0122873 -2.02096 0
M  V30 13691 C 1320.03 1.3362 -1.42024 0
M  V30 13692 O 1319.3 1.86807 -0.589911 0
M  V30 13693 H 1317.88 -0.00155365 -0.746998 0
M  V30 13694 H 1320.55 -0.708566 -1.81564 0
M  V30 13695 H 1319.64 0.0871275 -3.11978 0
M  V30 13696 N 1319.94 1.55134 -0.277709 0
M  V30 13697 C 1320.88 2.20028 0.641913 0
M  V30 13698 C 1321.89 1.18578 1.11549 0
M  V30 13699 O 1323.08 1.45291 1.03695 0
M  V30 13700 C 1320.18 2.81443 1.88794 0
M  V30 13701 C 1319.35 4.08607 1.56074 0
M  V30 13702 C 1318.41 4.54045 2.6595 0
M  V30 13703 O 1317.44 5.19762 2.32026 0
M  V30 13704 N 1318.64 4.24403 3.96058 0
M  V30 13705 H 1321.4 2.99575 0.0864929 0
M  V30 13706 H 1318.96 1.61598 -0.0989178 0
M  V30 13707 H 1320.96 3.08784 2.616 0
M  V30 13708 H 1319.53 2.05873 2.35234 0
M  V30 13709 H 1318.75 3.88527 0.666388 0
M  V30 13710 H 1320.03 4.91455 1.31719 0
M  V30 13711 H 1319.43 3.71708 4.26439 0
M  V30 13712 H 1317.99 4.56509 4.65234 0
M  V30 13713 N 1321.42 0.00503138 1.57599 0
M  V30 13714 C 1322.35 -1.01302 2.05598 0
M  V30 13715 C 1323.37 -1.30388 0.974829 0
M  V30 13716 O 1324.56 -1.27275 1.25153 0
M  V30 13717 C 1321.66 -2.34654 2.44522 0
M  V30 13718 C 1320.83 -2.24436 3.7543 0
M  V30 13719 C 1319.89 -3.40517 4.01166 0
M  V30 13720 O 1318.91 -3.18479 4.71762 0
M  V30 13721 N 1320.12 -4.63532 3.49454 0
M  V30 13722 H 1322.88 -0.603656 2.93558 0
M  V30 13723 H 1320.44 -0.182248 1.60871 0
M  V30 13724 H 1322.43 -3.11093 2.5885 0
M  V30 13725 H 1321 -2.67315 1.62055 0
M  V30 13726 H 1320.22 -1.32875 3.71131 0
M  V30 13727 H 1321.51 -2.14786 4.61242 0
M  V30 13728 H 1320.91 -4.84334 2.92296 0
M  V30 13729 H 1319.47 -5.37221 3.69103 0
M  V30 13730 N 1322.9 -1.55308 -0.267798 0
M  V30 13731 C 1324.15 -1.77342 -0.99606 0
M  V30 13732 C 1324.5 -0.570502 -1.83747 0
M  V30 13733 O 1323.79 0.436721 -1.86556 0
M  V30 13734 C 1323.99 -3.02286 -1.90678 0
M  V30 13735 C 1323.82 -4.34614 -1.15501 0
M  V30 13736 C 1322.59 -4.97779 -0.868576 0
M  V30 13737 C 1324.78 -5.11427 -0.542865 0
M  V30 13738 N 1322.77 -6.13833 -0.0905541 0
M  V30 13739 C 1324.14 -6.19918 0.100738 0
M  V30 13740 C 1326.19 -4.95851 -0.45123 0
M  V30 13741 C 1324.9 -7.14528 0.827151 0
M  V30 13742 C 1326.92 -5.90821 0.261602 0
M  V30 13743 C 1326.28 -6.98705 0.893924 0
M  V30 13744 H 1322.38 -0.701146 -0.346292 0
M  V30 13745 H 1324.97 -1.92802 -0.271211 0
M  V30 13746 H 1323.14 -2.88192 -2.60384 0
M  V30 13747 H 1324.87 -3.12702 -2.56904 0
M  V30 13748 H 1321.62 -4.58789 -1.17515 0
M  V30 13749 H 1322.05 -6.76396 0.28594 0
M  V30 13750 H 1326.69 -4.1254 -0.925774 0
M  V30 13751 H 1324.41 -7.97356 1.31336 0
M  V30 13752 H 1327.99 -5.80847 0.332892 0
M  V30 13753 H 1326.87 -7.70927 1.43672 0
M  V30 13754 N 1324.38 0.532545 -1.4833 0
M  V30 13755 C 1325.61 1.31331 -1.59874 0
M  V30 13756 C 1326.02 1.87028 -0.258037 0
M  V30 13757 O 1325.38 1.66272 0.752317 0
M  V30 13758 C 1325.43 2.46596 -2.64334 0
M  V30 13759 O 1325.15 1.93195 -3.93201 0
M  V30 13760 C 1326.65 3.38454 -2.86294 0
M  V30 13761 H 1323.87 0.399476 -0.539129 0
M  V30 13762 H 1326.41 0.642696 -1.94138 0
M  V30 13763 H 1324.57 3.09548 -2.32936 0
M  V30 13764 H 1324.98 2.68627 -4.50489 0
M  V30 13765 H 1326.46 4.15687 -3.63192 0
M  V30 13766 H 1326.93 3.93526 -1.95022 0
M  V30 13767 H 1327.54 2.81297 -3.18986 0
M  V30 13768 N 1325.86 1.36875 0.78122 0
M  V30 13769 C 1327.09 1.34537 1.56791 0
M  V30 13770 C 1327.49 -0.0734709 1.89057 0
M  V30 13771 O 1326.84 -1.04307 1.51215 0
M  V30 13772 C 1326.9 2.10971 2.91087 0
M  V30 13773 C 1326.56 3.60005 2.81506 0
M  V30 13774 C 1327.56 4.54085 2.53185 0
M  V30 13775 C 1325.24 4.03001 2.99826 0
M  V30 13776 C 1327.24 5.89139 2.43298 0
M  V30 13777 C 1324.93 5.38144 2.89559 0
M  V30 13778 C 1325.92 6.31026 2.61335 0
M  V30 13779 O 1325.61 7.63685 2.51077 0
M  V30 13780 H 1325.34 0.46284 0.492702 0
M  V30 13781 H 1327.9 1.80683 0.976869 0
M  V30 13782 H 1326.13 1.595 3.52274 0
M  V30 13783 H 1327.82 2.01387 3.52418 0
M  V30 13784 H 1328.58 4.22178 2.38727 0
M  V30 13785 H 1324.46 3.31073 3.20799 0
M  V30 13786 H 1328.01 6.61605 2.21188 0
M  V30 13787 H 1323.9 5.69656 3.03583 0
M  V30 13788 H 1324.67 7.739 2.66498 0
M  V30 13789 N 1327.33 -1.00632 1.21289 0
M  V30 13790 C 1328.24 -2.12829 0.986957 0
M  V30 13791 C 1329.26 -1.73895 -0.0605152 0
M  V30 13792 O 1330.44 -2.00985 0.129238 0
M  V30 13793 C 1327.5 -3.4226 0.553089 0
M  V30 13794 C 1326.56 -3.95376 1.67262 0
M  V30 13795 C 1325.79 -5.18629 1.25936 0
M  V30 13796 O 1326.02 -5.70246 0.132402 0
M  V30 13797 O 1324.95 -5.65157 2.07077 0
M  V30 13798 H 1328.78 -2.34765 1.92663 0
M  V30 13799 H 1326.36 -1.11208 0.997654 0
M  V30 13800 H 1328.24 -4.20177 0.320856 0
M  V30 13801 H 1326.92 -3.21716 -0.357881 0
M  V30 13802 H 1325.83 -3.18692 1.95924 0
M  V30 13803 H 1327.16 -4.20328 2.56097 0
M  V30 13804 N 1328.81 -1.02043 -1.20104 0
M  V30 13805 C 1329.74 -0.552093 -2.22451 0
M  V30 13806 C 1330.76 0.367547 -1.58597 0
M  V30 13807 O 1331.95 0.165285 -1.77733 0
M  V30 13808 C 1329.05 0.215833 -3.38212 0
M  V30 13809 C 1328.22 -0.70666 -4.31654 0
M  V30 13810 C 1327.28 0.0143628 -5.26198 0
M  V30 13811 O 1326.3 -0.609413 -5.65928 0
M  V30 13812 N 1327.51 1.28794 -5.66032 0
M  V30 13813 H 1330.27 -1.43229 -2.6326 0
M  V30 13814 H 1327.83 -0.89842 -1.34685 0
M  V30 13815 H 1329.82 0.707523 -3.98467 0
M  V30 13816 H 1328.39 0.997358 -2.96263 0
M  V30 13817 H 1327.61 -1.37859 -3.69308 0
M  V30 13818 H 1328.9 -1.33392 -4.91003 0
M  V30 13819 H 1328.3 1.8156 -5.35773 0
M  V30 13820 H 1326.86 1.72429 -6.28579 0
M  V30 13821 N 1330.29 1.35952 -0.797165 0
M  V30 13822 C 1331.71 1.52218 -0.479765 0
M  V30 13823 C 1331.91 1.74898 1.00064 0
M  V30 13824 O 1330.96 1.78495 1.78594 0
M  V30 13825 C 1332.28 2.70328 -1.31694 0
M  V30 13826 C 1333.82 2.84202 -1.31142 0
M  V30 13827 C 1334.3 4.05325 -2.13251 0
M  V30 13828 N 1335.79 4.12485 -2.10737 0
M  V30 13829 C 1336.52 5.053 -2.71033 0
M  V30 13830 N 1336.02 6.03509 -3.40219 0
M  V30 13831 N 1337.81 4.97975 -2.60725 0
M  V30 13832 H 1329.96 1.19486 -1.75604 0
M  V30 13833 H 1332.23 0.58383 -0.746892 0
M  V30 13834 H 1331.93 2.60116 -2.36712 0
M  V30 13835 H 1331.81 3.64684 -0.963607 0
M  V30 13836 H 1334.19 2.9387 -0.269131 0
M  V30 13837 H 1334.28 1.9073 -1.70457 0
M  V30 13838 H 1333.92 3.96417 -3.17515 0
M  V30 13839 H 1333.85 4.97959 -1.71302 0
M  V30 13840 H 1336.34 3.42174 -1.6039 0
M  V30 13841 H 1336.65 6.70909 -3.83537 0
M  V30 13842 H 1335 6.03711 -3.44322 0
M  V30 13843 H 1338.19 4.20203 -2.0627 0
M  V30 13844 H 1338.36 5.70119 -3.08007 0
M  V30 13845 N 1331.77 0.549846 1.47697 0
M  V30 13846 C 1332.72 -0.201961 2.29915 0
M  V30 13847 C 1333.69 -0.915287 1.38606 0
M  V30 13848 O 1334.87 -0.912427 1.67569 0
M  V30 13849 C 1332.01 -1.2306 3.22413 0
M  V30 13850 C 1331.12 -0.524091 4.28809 0
M  V30 13851 C 1330.26 -1.53738 5.08466 0
M  V30 13852 C 1329.3 -0.815437 6.06644 0
M  V30 13853 N 1328.43 -1.77521 6.79287 0
M  V30 13854 H 1333.27 0.505289 2.93685 0
M  V30 13855 H 1330.81 0.261012 1.44766 0
M  V30 13856 H 1332.77 -1.83949 3.74458 0
M  V30 13857 H 1331.4 -1.90597 2.60523 0
M  V30 13858 H 1330.45 0.199174 3.79878 0
M  V30 13859 H 1331.76 0.0418145 4.98782 0
M  V30 13860 H 1330.92 -2.22001 5.64624 0
M  V30 13861 H 1329.66 -2.1372 4.38378 0
M  V30 13862 H 1328.66 -0.11884 5.49672 0
M  V30 13863 H 1329.89 -0.221462 6.78739 0
M  V30 13864 H 1327.83 -2.36374 6.11934 0
M  V30 13865 H 1327.75 -1.26126 7.45405 0
M  V30 13866 H 1329.02 -2.44921 7.40023 0
M  V30 13867 N 1333.25 -1.54984 0.285932 0
M  V30 13868 C 1334.49 -2.00126 -0.328223 0
M  V30 13869 C 1334.83 -1.17409 -1.54689 0
M  V30 13870 O 1334.1 -0.246806 -1.92928 0
M  V30 13871 C 1334.38 -3.53236 -0.699733 0
M  V30 13872 C 1334.24 -4.46702 0.527029 0
M  V30 13873 C 1335.56 -4.12572 -1.53206 0
M  V30 13874 H 1332.67 -0.727521 -0.117825 0
M  V30 13875 H 1335.32 -1.85848 0.395032 0
M  V30 13876 H 1333.47 -3.65534 -1.31594 0
M  V30 13877 H 1335.14 -4.46332 1.16557 0
M  V30 13878 H 1333.38 -4.17917 1.1631 0
M  V30 13879 H 1334.05 -5.51549 0.223165 0
M  V30 13880 H 1336.53 -4.03618 -1.01154 0
M  V30 13881 H 1335.4 -5.19891 -1.7608 0
M  V30 13882 H 1335.67 -3.63487 -2.51654 0
M  V30 13883 N 1334.72 -0.0133892 -1.57594 0
M  V30 13884 C 1335.97 0.669624 -1.91426 0
M  V30 13885 C 1336.3 1.72675 -0.888656 0
M  V30 13886 O 1335.58 1.94288 0.0908138 0
M  V30 13887 C 1335.86 1.30051 -3.35796 0
M  V30 13888 C 1335.71 0.254021 -4.49082 0
M  V30 13889 C 1337.03 2.22297 -3.79832 0
M  V30 13890 H 1334.15 0.241958 -0.69615 0
M  V30 13891 H 1336.79 -0.0674278 -1.8988 0
M  V30 13892 H 1334.94 1.92871 -3.37243 0
M  V30 13893 H 1336.62 -0.375524 -4.59769 0
M  V30 13894 H 1334.86 -0.422267 -4.3174 0
M  V30 13895 H 1335.53 0.734756 -5.47088 0
M  V30 13896 H 1338.01 1.69481 -3.8002 0
M  V30 13897 H 1336.88 2.634 -4.81572 0
M  V30 13898 H 1337.14 3.10764 -3.14449 0
M  V30 13899 N 1336.2 1.55448 0.259558 0
M  V30 13900 C 1337.11 1.92364 1.34289 0
M  V30 13901 C 1338.13 0.822492 1.53333 0
M  V30 13902 O 1339.3 1.12277 1.672 0
M  V30 13903 C 1336.37 2.19978 2.67975 0
M  V30 13904 C 1335.43 3.43454 2.57562 0
M  V30 13905 C 1334.66 3.69741 3.84873 0
M  V30 13906 O 1334.89 2.9831 4.86176 0
M  V30 13907 O 1333.82 4.63274 3.84267 0
M  V30 13908 H 1337.65 2.8461 1.05975 0
M  V30 13909 H 1335.23 1.42167 0.459239 0
M  V30 13910 H 1337.11 2.39104 3.46998 0
M  V30 13911 H 1335.79 1.30912 2.96047 0
M  V30 13912 H 1334.7 3.29649 1.76869 0
M  V30 13913 H 1336.03 4.32782 2.34437 0
M  V30 13914 N 1337.68 -0.524672 1.4861 0
M  V30 13915 C 1338.93 -1.28021 1.56898 0
M  V30 13916 C 1339.26 -1.92948 0.245203 0
M  V30 13917 O 1338.51 -1.8013 -0.764966 0
M  V30 13918 C 1338.81 -2.3871 2.65993 0
M  V30 13919 C 1338.48 -1.914 4.08261 0
M  V30 13920 C 1337.14 -1.78215 4.46982 0
M  V30 13921 C 1339.49 -1.55713 4.97396 0
M  V30 13922 C 1336.82 -1.27687 5.72637 0
M  V30 13923 C 1339.17 -1.06645 6.23546 0
M  V30 13924 C 1337.83 -0.920818 6.61118 0
M  V30 13925 H 1337.1 -0.468461 0.57413 0
M  V30 13926 H 1339.75 -0.584901 1.82349 0
M  V30 13927 H 1338.06 -3.13932 2.34422 0
M  V30 13928 H 1339.75 -2.96827 2.6962 0
M  V30 13929 H 1336.34 -2.02614 3.77684 0
M  V30 13930 H 1340.53 -1.64757 4.68155 0
M  V30 13931 H 1335.78 -1.15103 6.00468 0
M  V30 13932 H 1339.96 -0.781048 6.92006 0
M  V30 13933 H 1337.58 -0.527091 7.5837 0
M  V30 13934 N 1339.16 -1.37287 -0.77395 0
M  V30 13935 C 1340.39 -1.35563 -1.56302 0
M  V30 13936 C 1340.8 0.0595356 -1.88706 0
M  V30 13937 O 1340.16 1.02072 -1.51286 0
M  V30 13938 C 1340.21 -2.19195 -2.87464 0
M  V30 13939 O 1339.93 -3.55197 -2.5645 0
M  V30 13940 C 1341.43 -2.25425 -3.81704 0
M  V30 13941 H 1338.65 -0.464431 -0.484298 0
M  V30 13942 H 1341.2 -1.80597 -0.959425 0
M  V30 13943 H 1339.35 -1.77676 -3.44253 0
M  V30 13944 H 1339.76 -3.99011 -3.40427 0
M  V30 13945 H 1341.24 -2.8827 -4.70749 0
M  V30 13946 H 1341.72 -1.26205 -4.20677 0
M  V30 13947 H 1342.32 -2.67247 -3.30846 0
M  V30 13948 N 1340.64 0.999871 -1.21821 0
M  V30 13949 C 1341.88 1.75366 -1.05005 0
M  V30 13950 C 1342.24 1.87601 0.408656 0
M  V30 13951 O 1343.44 2.59593 0.697479 0
M  V30 13952 C 1341.71 3.12525 -1.73387 0
M  V30 13953 S 1343.27 4.0373 -1.71894 0
M  V30 13954 H 1340.09 0.603334 -0.376177 0
M  V30 13955 H 1342.69 1.19598 -1.5465 0
M  V30 13956 H 1341.4 3.01258 -2.78697 0
M  V30 13957 H 1340.93 3.73365 -1.23944 0
M  V30 13958 H 1342.94 4.90288 -0.763668 0
M  V30 13959 N 1342.11 1.02678 1.19562 0
M  V30 13960 C 1343.06 0.576385 2.20594 0
M  V30 13961 C 1344.05 -0.373747 1.56499 0
M  V30 13962 O 1345.24 -0.195058 1.75922 0
M  V30 13963 C 1342.37 -0.0735507 3.43221 0
M  V30 13964 C 1341.46 0.898896 4.14464 0
M  V30 13965 N 1341.85 2.06048 4.61928 0
M  V30 13966 C 1340.14 0.721889 4.40119 0
M  V30 13967 C 1340.85 2.67364 5.16615 0
M  V30 13968 N 1339.82 1.95344 5.07289 0
M  V30 13969 H 1343.62 1.46179 2.54968 0
M  V30 13970 H 1341.14 0.893484 1.35612 0
M  V30 13971 H 1343.13 -0.413825 4.14841 0
M  V30 13972 H 1341.79 -0.954671 3.10348 0
M  V30 13973 H 1342.81 2.43999 4.5682 0
M  V30 13974 H 1339.48 -0.110317 4.17354 0
M  V30 13975 H 1340.87 3.65726 5.63644 0
M  V30 13976 N 1343.59 -1.35528 0.804364 0
M  V30 13977 C 1344.82 -2.03073 0.396091 0
M  V30 13978 C 1345.24 -1.60623 -0.992252 0
M  V30 13979 O 1344.59 -0.802718 -1.63898 0
M  V30 13980 C 1344.64 -3.58467 0.467301 0
M  V30 13981 O 1344.36 -3.99373 1.80091 0
M  V30 13982 C 1345.87 -4.4327 0.0515549 0
M  V30 13983 H 1343.09 -0.651346 0.161212 0
M  V30 13984 H 1345.63 -1.73195 1.08737 0
M  V30 13985 H 1343.78 -3.87001 -0.175703 0
M  V30 13986 H 1344.2 -4.94013 1.76214 0
M  V30 13987 H 1345.67 -5.51789 0.152499 0
M  V30 13988 H 1346.15 -4.27597 -1.00286 0
M  V30 13989 H 1346.76 -4.20027 0.667628 0
M  V30 13990 N 1345.07 -0.557671 -1.47404 0
M  V30 13991 C 1346.03 0.179311 -2.28498 0
M  V30 13992 C 1347.03 0.842281 -1.36975 0
M  V30 13993 O 1348.22 0.698072 -1.59601 0
M  V30 13994 C 1345.36 1.26229 -3.16668 0
M  V30 13995 H 1346.55 -0.533033 -2.95125 0
M  V30 13996 H 1344.1 -0.314634 -1.531 0
M  V30 13997 H 1344.84 2.00702 -2.54733 0
M  V30 13998 H 1344.62 0.791712 -3.84024 0
M  V30 13999 H 1346.11 1.77991 -3.77768 0
M  V30 14000 N 1346.55 1.54831 -0.294147 0
M  V30 14001 C 1347.8 2.00001 0.317135 0
M  V30 14002 C 1348.12 1.18256 1.54421 0
M  V30 14003 O 1347.38 0.245035 1.9416 0
M  V30 14004 C 1347.68 3.4997 0.72495 0
M  V30 14005 C 1347.34 4.49126 -0.399616 0
M  V30 14006 C 1346.01 4.75958 -0.708354 0
M  V30 14007 C 1348.36 5.08208 -1.15644 0
M  V30 14008 C 1345.69 5.59137 -1.77716 0
M  V30 14009 C 1348.04 5.9255 -2.21512 0
M  V30 14010 C 1346.7 6.17695 -2.52999 0
M  V30 14011 H 1345.97 0.731856 0.116048 0
M  V30 14012 H 1348.62 1.87019 -0.41182 0
M  V30 14013 H 1346.92 3.60526 1.53388 0
M  V30 14014 H 1348.62 3.82341 1.20898 0
M  V30 14015 H 1345.21 4.28341 -0.148877 0
M  V30 14016 H 1349.4 4.87486 -0.931178 0
M  V30 14017 H 1344.65 5.76859 -2.02592 0
M  V30 14018 H 1348.83 6.37359 -2.80617 0
M  V30 14019 H 1346.45 6.81939 -3.35951 0
M  V30 14020 N 1348.03 0.0217466 1.57585 0
M  V30 14021 C 1349.27 -0.658487 1.91495 0
M  V30 14022 C 1349.6 -1.72557 0.897462 0
M  V30 14023 O 1348.86 -1.95471 -0.0946909 0
M  V30 14024 C 1349.16 -1.3197 3.32143 0
M  V30 14025 C 1348.82 -0.383706 4.49264 0
M  V30 14026 C 1347.48 -0.126065 4.81035 0
M  V30 14027 C 1349.84 0.259445 5.20554 0
M  V30 14028 C 1347.16 0.782659 5.81456 0
M  V30 14029 C 1349.52 1.15618 6.21945 0
M  V30 14030 C 1348.18 1.42278 6.5216 0
M  V30 14031 H 1347.45 -0.240958 0.700729 0
M  V30 14032 H 1350.1 0.0819351 1.91325 0
M  V30 14033 H 1348.4 -2.13469 3.28539 0
M  V30 14034 H 1350.1 -1.85245 3.55648 0
M  V30 14035 H 1346.69 -0.59469 4.24454 0
M  V30 14036 H 1350.87 0.073445 4.96246 0
M  V30 14037 H 1346.13 0.996995 6.03216 0
M  V30 14038 H 1350.3 1.66077 6.76307 0
M  V30 14039 H 1347.93 2.1286 7.29791 0
M  V30 14040 N 1349.51 -1.55583 -0.251311 0
M  V30 14041 C 1350.75 -1.77471 -0.981418 0
M  V30 14042 C 1351.08 -0.586228 -1.85141 0
M  V30 14043 O 1350.36 0.415623 -1.90007 0
M  V30 14044 C 1350.64 -3.09204 -1.84567 0
M  V30 14045 C 1350.5 -4.38448 -1.00417 0
M  V30 14046 C 1351.81 -3.37133 -2.82895 0
M  V30 14047 H 1348.93 -0.645664 -0.355369 0
M  V30 14048 H 1351.58 -1.88318 -0.252228 0
M  V30 14049 H 1349.73 -3.00087 -2.46738 0
M  V30 14050 H 1351.4 -4.5955 -0.40149 0
M  V30 14051 H 1349.64 -4.32703 -0.308365 0
M  V30 14052 H 1350.31 -5.26995 -1.64258 0
M  V30 14053 H 1352.79 -3.46183 -2.3086 0
M  V30 14054 H 1351.66 -4.30531 -3.40491 0
M  V30 14055 H 1351.92 -2.57829 -3.59133 0
M  V30 14056 N 1350.98 0.516783 -1.48886 0
M  V30 14057 C 1352.21 1.30103 -1.61518 0
M  V30 14058 C 1352.63 1.85996 -0.28055 0
M  V30 14059 O 1351.99 1.65075 0.749671 0
M  V30 14060 C 1352.04 2.41837 -2.67483 0
M  V30 14061 O 1351.14 3.45249 -2.25559 0
M  V30 14062 H 1350.48 0.384774 -0.541152 0
M  V30 14063 H 1353.01 0.620424 -1.94966 0
M  V30 14064 H 1353.02 2.87832 -2.89165 0
M  V30 14065 H 1351.7 2.00519 -3.64369 0
M  V30 14066 H 1350.28 3.05281 -2.14144 0
M  V30 14067 N 1352.46 1.37696 0.766659 0
M  V30 14068 C 1353.71 1.32507 1.52069 0
M  V30 14069 C 1354.02 -0.0864967 1.95409 0
M  V30 14070 O 1355.23 -0.260877 2.70244 0
M  V30 14071 C 1353.69 2.32614 2.74625 0
M  V30 14072 C 1353.29 3.79325 2.38363 0
M  V30 14073 C 1355.04 2.36445 3.52554 0
M  V30 14074 C 1352.94 4.7115 3.57451 0
M  V30 14075 H 1351.87 0.492491 0.570937 0
M  V30 14076 H 1354.53 1.63183 0.839268 0
M  V30 14077 H 1352.91 1.94963 3.44682 0
M  V30 14078 H 1354.08 4.25841 1.76056 0
M  V30 14079 H 1352.4 3.78488 1.73597 0
M  V30 14080 H 1354.99 3.02252 4.41076 0
M  V30 14081 H 1355.34 1.37953 3.92778 0
M  V30 14082 H 1355.87 2.72829 2.89498 0
M  V30 14083 H 1352.61 5.70789 3.22304 0
M  V30 14084 H 1352.13 4.29335 4.18846 0
M  V30 14085 H 1353.81 4.88532 4.242 0
M  V30 14086 N 1353.94 -0.993397 1.22349 0
M  V30 14087 C 1355.19 -1.73544 1.04931 0
M  V30 14088 C 1355.52 -1.89721 -0.414661 0
M  V30 14089 O 1354.79 -1.44001 -1.30743 0
M  V30 14090 C 1355.08 -3.14131 1.7605 0
M  V30 14091 C 1354.93 -3.05604 3.30039 0
M  V30 14092 C 1356.25 -4.13294 1.51249 0
M  V30 14093 H 1353.37 -0.629915 0.382591 0
M  V30 14094 H 1356.01 -1.15737 1.50682 0
M  V30 14095 H 1354.16 -3.63483 1.37157 0
M  V30 14096 H 1355.83 -2.63876 3.78374 0
M  V30 14097 H 1354.07 -2.42421 3.59742 0
M  V30 14098 H 1354.75 -4.05086 3.74979 0
M  V30 14099 H 1357.22 -3.72696 1.85033 0
M  V30 14100 H 1356.1 -5.09781 2.03507 0
M  V30 14101 H 1356.36 -4.39855 0.444973 0
M  V30 14102 N 1355.42 -1.03311 -1.19015 0
M  V30 14103 C 1356.66 -0.733124 -1.89085 0
M  V30 14104 C 1357 0.73675 -1.79682 0
M  V30 14105 O 1356.27 1.53692 -1.19201 0
M  V30 14106 C 1356.55 -1.19028 -3.39859 0
M  V30 14107 C 1356.41 -2.72169 -3.58112 0
M  V30 14108 C 1357.73 -0.774383 -4.33234 0
M  V30 14109 H 1354.85 -0.2678 -0.686624 0
M  V30 14110 H 1357.49 -1.28378 -1.40068 0
M  V30 14111 H 1355.64 -0.721799 -3.81736 0
M  V30 14112 H 1357.31 -3.26996 -3.25379 0
M  V30 14113 H 1355.55 -3.12358 -3.01023 0
M  V30 14114 H 1356.22 -2.99213 -4.6387 0
M  V30 14115 H 1358.7 -1.17739 -3.99095 0
M  V30 14116 H 1357.58 -1.12209 -5.37308 0
M  V30 14117 H 1357.84 0.322989 -4.40919 0
M  V30 14118 N 1356.9 1.35099 -0.81154 0
M  V30 14119 C 1358.14 1.9892 -0.394815 0
M  V30 14120 C 1358.47 1.6422 1.0366 0
M  V30 14121 O 1357.75 0.908031 1.72003 0
M  V30 14122 C 1358.03 3.55331 -0.58413 0
M  V30 14123 C 1357.89 3.99812 -2.06084 0
M  V30 14124 C 1359.2 4.40098 -0.0129096 0
M  V30 14125 H 1356.32 0.72261 -0.144926 0
M  V30 14126 H 1358.97 1.60173 -1.02199 0
M  V30 14127 H 1357.12 3.88468 -0.0502446 0
M  V30 14128 H 1358.79 3.77061 -2.65749 0
M  V30 14129 H 1357.03 3.50539 -2.55548 0
M  V30 14130 H 1357.7 5.08655 -2.14416 0
M  V30 14131 H 1360.18 4.13449 -0.468917 0
M  V30 14132 H 1359.05 5.4862 -0.175252 0
M  V30 14133 H 1359.31 4.28675 1.0812 0
M  V30 14134 N 1358.37 0.56548 1.47106 0
M  V30 14135 C 1359.31 -0.215154 2.28188 0
M  V30 14136 C 1360.32 -0.871671 1.37498 0
M  V30 14137 O 1361.51 -0.744131 1.6225 0
M  V30 14138 C 1358.61 -1.32289 3.12014 0
M  V30 14139 C 1357.78 -0.761594 4.30719 0
M  V30 14140 C 1356.84 -1.75486 4.96076 0
M  V30 14141 O 1355.87 -1.29771 5.5421 0
M  V30 14142 N 1357.07 -3.0885 4.9152 0
M  V30 14143 H 1359.83 0.480405 2.95825 0
M  V30 14144 H 1357.39 0.402099 1.56827 0
M  V30 14145 H 1359.39 -1.98628 3.52603 0
M  V30 14146 H 1357.96 -1.92156 2.46566 0
M  V30 14147 H 1357.18 0.078794 3.94121 0
M  V30 14148 H 1358.46 -0.366072 5.07481 0
M  V30 14149 H 1357.86 -3.4863 4.45504 0
M  V30 14150 H 1356.42 -3.70725 5.36103 0
M  V30 14151 N 1359.85 -1.54672 0.302354 0
M  V30 14152 C 1361.1 -2.01178 -0.299842 0
M  V30 14153 C 1361.45 -1.18698 -1.51422 0
M  V30 14154 O 1360.75 -0.255677 -1.89886 0
M  V30 14155 C 1360.94 -3.5035 -0.70638 0
M  V30 14156 C 1360.77 -4.47268 0.467051 0
M  V30 14157 C 1359.54 -4.96107 0.959494 0
M  V30 14158 C 1361.74 -4.97272 1.31245 0
M  V30 14159 N 1359.72 -5.76881 2.09955 0
M  V30 14160 C 1361.09 -5.75761 2.29997 0
M  V30 14161 C 1363.15 -4.79455 1.34267 0
M  V30 14162 C 1361.85 -6.38332 3.31549 0
M  V30 14163 C 1363.87 -5.42845 2.34677 0
M  V30 14164 C 1363.24 -6.21168 3.32159 0
M  V30 14165 H 1359.34 -0.778477 -0.0741425 0
M  V30 14166 H 1361.92 -1.89834 0.432577 0
M  V30 14167 H 1360.09 -3.61982 -1.40797 0
M  V30 14168 H 1361.82 -3.83649 -1.28823 0
M  V30 14169 H 1358.58 -4.70577 0.534246 0
M  V30 14170 H 1359 -6.21953 2.67401 0
M  V30 14171 H 1363.64 -4.18482 0.602738 0
M  V30 14172 H 1361.36 -6.98438 4.0646 0
M  V30 14173 H 1364.95 -5.30987 2.37791 0
M  V30 14174 H 1363.83 -6.69349 4.08584 0
M  V30 14175 N 1361.33 -0.0301034 -1.57571 0
M  V30 14176 C 1362.29 0.936465 -2.09196 0
M  V30 14177 C 1363.29 1.25347 -1.00722 0
M  V30 14178 O 1364.48 1.19364 -1.26877 0
M  V30 14179 C 1361.62 2.2527 -2.55864 0
M  V30 14180 H 1362.81 0.489332 -2.95881 0
M  V30 14181 H 1360.36 0.217948 -1.54773 0
M  V30 14182 H 1361.1 2.7461 -1.72511 0
M  V30 14183 H 1360.88 2.03573 -3.35113 0
M  V30 14184 H 1362.37 2.94549 -2.96025 0
M  V30 14185 N 1362.81 1.55714 0.243056 0
M  V30 14186 C 1364.09 1.68483 0.993614 0
M  V30 14187 C 1364.47 0.571112 2.03228 0
M  V30 14188 O 1363.81 -0.42491 2.24515 0
M  V30 14189 C 1364.02 3.0894 1.62349 0
M  V30 14190 C 1365.37 3.67663 2.12389 0
M  V30 14191 O 1366.4 3.11764 1.72283 0
M  V30 14192 O 1365.25 4.65664 2.8604 0
M  V30 14193 H 1362.35 0.685415 0.462747 0
M  V30 14194 H 1364.89 1.68043 0.236538 0
M  V30 14195 H 1363.67 3.81451 0.87241 0
M  V30 14196 H 1363.29 3.13407 2.44667 0
M  V30 14197 N 1364.29 -0.50888 1.49158 0
M  V30 14198 C 1365.22 -1.62008 1.68154 0
M  V30 14199 C 1366.2 -1.61624 0.53025 0
M  V30 14200 O 1367.38 -1.78489 0.765205 0
M  V30 14201 C 1364.51 -3.00525 1.74075 0
M  V30 14202 C 1363.47 -3.15773 2.88915 0
M  V30 14203 C 1362.79 -4.55562 2.79942 0
M  V30 14204 C 1364.09 -2.96542 4.29953 0
M  V30 14205 H 1365.79 -1.46365 2.61185 0
M  V30 14206 H 1363.33 -0.702705 1.2569 0
M  V30 14207 H 1365.29 -3.78154 1.8595 0
M  V30 14208 H 1364.01 -3.17238 0.776373 0
M  V30 14209 H 1362.67 -2.40567 2.76628 0
M  V30 14210 H 1362.32 -4.6914 1.81429 0
M  V30 14211 H 1362.02 -4.66706 3.57015 0
M  V30 14212 H 1363.54 -5.35262 2.93814 0
M  V30 14213 H 1364.95 -3.63947 4.42963 0
M  V30 14214 H 1363.35 -3.19164 5.08187 0
M  V30 14215 H 1364.42 -1.92745 4.44946 0
M  V30 14216 N 1365.76 -1.381 -0.759346 0
M  V30 14217 C 1367.01 -1.33311 -1.51364 0
M  V30 14218 C 1367.33 0.0761325 -1.95452 0
M  V30 14219 O 1368.53 0.246541 -2.70378 0
M  V30 14220 C 1366.99 -2.34067 -2.73387 0
M  V30 14221 C 1366.6 -3.80583 -2.36348 0
M  V30 14222 C 1368.34 -2.38311 -3.51295 0
M  V30 14223 C 1366.25 -4.73039 -3.54948 0
M  V30 14224 H 1365.18 -0.495512 -0.568317 0
M  V30 14225 H 1367.83 -1.63625 -0.830602 0
M  V30 14226 H 1366.21 -1.96788 -3.43643 0
M  V30 14227 H 1367.38 -4.26769 -1.73796 0
M  V30 14228 H 1365.7 -3.79403 -1.71587 0
M  V30 14229 H 1368.3 -3.04586 -4.39467 0
M  V30 14230 H 1368.64 -1.40034 -3.92041 0
M  V30 14231 H 1369.17 -2.74361 -2.88047 0
M  V30 14232 H 1365.91 -5.7249 -3.19273 0
M  V30 14233 H 1365.43 -4.3155 -4.16563 0
M  V30 14234 H 1367.11 -4.90775 -4.21603 0
M  V30 14235 N 1367.24 0.986894 -1.22875 0
M  V30 14236 C 1368.49 1.72152 -1.05103 0
M  V30 14237 C 1368.8 1.91185 0.413248 0
M  V30 14238 O 1370.01 2.62031 0.710759 0
M  V30 14239 C 1368.47 3.09771 -1.8322 0
M  V30 14240 C 1368.07 2.98648 -3.33936 0
M  V30 14241 C 1369.82 3.87238 -1.73917 0
M  V30 14242 C 1367.73 4.31459 -4.04471 0
M  V30 14243 H 1366.66 0.645498 -0.389677 0
M  V30 14244 H 1369.31 1.10125 -1.46781 0
M  V30 14245 H 1367.69 3.72515 -1.34345 0
M  V30 14246 H 1368.86 2.45033 -3.9025 0
M  V30 14247 H 1367.18 2.34661 -3.43982 0
M  V30 14248 H 1369.77 4.85549 -2.23933 0
M  V30 14249 H 1370.12 4.1036 -0.700711 0
M  V30 14250 H 1370.65 3.31183 -2.20369 0
M  V30 14251 H 1367.39 4.13534 -5.08596 0
M  V30 14252 H 1366.91 4.84964 -3.52944 0
M  V30 14253 H 1368.59 5.00179 -4.10403 0
M  V30 14254 N 1368.72 1.0394 1.18466 0
M  V30 14255 C 1369.96 0.750905 1.90107 0
M  V30 14256 C 1370.32 -0.708278 1.78458 0
M  V30 14257 O 1371.53 -1.11033 2.44796 0
M  V30 14258 C 1369.8 1.20259 3.3656 0
M  V30 14259 S 1371.36 1.03954 4.26308 0
M  V30 14260 H 1368.17 0.273061 0.656475 0
M  V30 14261 H 1370.78 1.33143 1.43154 0
M  V30 14262 H 1369.48 2.26 3.42567 0
M  V30 14263 H 1369.01 0.615804 3.8855 0
M  V30 14264 H 1371.03 -0.0437629 4.96181 0
M  V30 14265 N 1370.2 -1.34667 0.818693 0
M  V30 14266 C 1371.15 -2.29595 0.235551 0
M  V30 14267 C 1372.12 -1.53389 -0.63727 0
M  V30 14268 O 1373.3 -1.81777 -0.579804 0
M  V30 14269 C 1370.44 -3.39843 -0.600043 0
M  V30 14270 C 1369.55 -4.30995 0.294553 0
M  V30 14271 C 1368.69 -5.28343 -0.550203 0
M  V30 14272 C 1367.73 -6.11132 0.344043 0
M  V30 14273 N 1366.86 -7.00582 -0.461392 0
M  V30 14274 H 1371.7 -2.78872 1.05044 0
M  V30 14275 H 1369.24 -1.37239 0.529517 0
M  V30 14276 H 1371.2 -4.02443 -1.09978 0
M  V30 14277 H 1369.83 -2.91811 -1.38008 0
M  V30 14278 H 1368.88 -3.69294 0.912483 0
M  V30 14279 H 1370.19 -4.89031 0.982341 0
M  V30 14280 H 1369.35 -5.96374 -1.11459 0
M  V30 14281 H 1368.09 -4.70833 -1.27151 0
M  V30 14282 H 1367.09 -5.42038 0.920608 0
M  V30 14283 H 1368.32 -6.70722 1.0634 0
M  V30 14284 H 1366.26 -6.45546 -1.16645 0
M  V30 14285 H 1366.18 -7.55813 0.168095 0
M  V30 14286 H 1367.45 -7.72946 -1.00867 0
M  V30 14287 N 1371.68 -0.573274 -1.46804 0
M  V30 14288 C 1372.9 -0.0605984 -2.06811 0
M  V30 14289 C 1373.32 1.24024 -1.4235 0
M  V30 14290 O 1372.68 1.7477 -0.525515 0
M  V30 14291 C 1372.73 0.121828 -3.61295 0
M  V30 14292 O 1372.45 -1.12751 -4.23342 0
M  V30 14293 C 1373.95 0.669941 -4.38208 0
M  V30 14294 H 1371.17 -0.0531498 -0.668892 0
M  V30 14295 H 1373.71 -0.791259 -1.88572 0
M  V30 14296 H 1371.87 0.802674 -3.78993 0
M  V30 14297 H 1372.28 -0.935361 -5.16092 0
M  V30 14298 H 1373.76 0.746806 -5.46925 0
M  V30 14299 H 1374.23 1.68483 -4.05598 0
M  V30 14300 H 1374.84 0.0242721 -4.25293 0
M  V30 14301 N 1373.15 1.5451 -0.310553 0
M  V30 14302 C 1374.57 1.59543 0.0425296 0
M  V30 14303 C 1374.77 1.32737 1.51602 0
M  V30 14304 O 1373.83 1.10543 2.27016 0
M  V30 14305 C 1375.14 2.98489 -0.364002 0
M  V30 14306 C 1376.69 3.11425 -0.313566 0
M  V30 14307 C 1377.16 4.52695 -0.695064 0
M  V30 14308 N 1378.65 4.58645 -0.647966 0
M  V30 14309 C 1379.39 5.66044 -0.915508 0
M  V30 14310 N 1378.88 6.81439 -1.24951 0
M  V30 14311 N 1380.68 5.55759 -0.841933 0
M  V30 14312 H 1372.83 1.70194 -1.27074 0
M  V30 14313 H 1375.09 0.795374 -0.515833 0
M  V30 14314 H 1374.8 3.23061 -1.39012 0
M  V30 14315 H 1374.67 3.76177 0.27756 0
M  V30 14316 H 1377.06 2.86596 0.703326 0
M  V30 14317 H 1377.14 2.35871 -0.989883 0
M  V30 14318 H 1376.78 4.78255 -1.70981 0
M  V30 14319 H 1376.71 5.266 0.00342684 0
M  V30 14320 H 1379.2 3.75765 -0.401137 0
M  V30 14321 H 1379.52 7.59277 -1.43938 0
M  V30 14322 H 1377.86 6.82968 -1.28764 0
M  V30 14323 H 1381.05 4.64486 -0.58058 0
M  V30 14324 H 1381.23 6.39374 -1.0538 0
M  V30 14325 N 1374.63 0.0384594 1.57553 0
M  V30 14326 C 1376.05 -0.318006 1.564 0
M  V30 14327 C 1376.25 -1.72287 1.04496 0
M  V30 14328 O 1375.31 -2.42722 0.695861 0
M  V30 14329 C 1376.62 -0.158079 3.00284 0
M  V30 14330 C 1378.17 -0.230143 3.12153 0
M  V30 14331 C 1378.64 -0.0988948 4.57893 0
M  V30 14332 N 1380.13 -0.15558 4.62939 0
M  V30 14333 C 1380.87 -0.077948 5.73347 0
M  V30 14334 N 1380.36 0.0513054 6.92781 0
M  V30 14335 N 1382.16 -0.132612 5.61944 0
M  V30 14336 H 1374.31 0.957014 1.89618 0
M  V30 14337 H 1376.57 0.370396 0.872646 0
M  V30 14338 H 1376.28 0.810032 3.42245 0
M  V30 14339 H 1376.15 -0.924413 3.65697 0
M  V30 14340 H 1378.54 -1.18872 2.70099 0
M  V30 14341 H 1378.62 0.56673 2.49443 0
M  V30 14342 H 1378.26 0.856301 5.00629 0
M  V30 14343 H 1378.19 -0.91475 5.18594 0
M  V30 14344 H 1380.68 -0.255245 3.77037 0
M  V30 14345 H 1381 0.103595 7.72731 0
M  V30 14346 H 1379.34 0.0862166 6.94947 0
M  V30 14347 H 1382.53 -0.232056 4.67524 0
M  V30 14348 H 1382.71 -0.0686506 6.47964 0
M  V30 14349 N 1376.11 -1.55841 -0.234795 0
M  V30 14350 C 1377.06 -1.92165 -1.31055 0
M  V30 14351 C 1378.05 -0.802106 -1.49207 0
M  V30 14352 O 1379.26 -0.986832 -1.50538 0
M  V30 14353 H 1375.63 -0.610487 -0.439101 0
M  V30 14354 H 1377.61 -2.81955 -0.976926 0
M  V30 14355 C 1376.35 -2.24329 -2.65654 0
M  V30 14356 H 1375.68 -3.09982 -2.5249 0
M  V30 14357 H 1377.12 -2.53639 -3.3977 0
M  V30 14358 C 1375.58 -1.0638 -3.19664 0
M  V30 14359 O 1376.11 -0.318047 -4.00439 0
M  V30 14360 N 1374.31 -0.851167 -2.77855 0
M  V30 14361 H 1373.86 -1.45932 -2.12277 0
M  V30 14362 H 1373.82 -0.0636875 -3.14335 0
M  V30 14363 N 1377.59 0.500963 -1.49426 0
M  V30 14364 C 1378.81 1.28383 -1.62888 0
M  V30 14365 C 1379.24 1.85688 -0.300262 0
M  V30 14366 O 1378.6 1.6586 0.73212 0
M  V30 14367 C 1378.65 2.38987 -2.70033 0
M  V30 14368 O 1377.75 3.42837 -2.29208 0
M  V30 14369 H 1377.09 0.379012 -0.545202 0
M  V30 14370 H 1379.62 0.59971 -1.95613 0
M  V30 14371 H 1379.63 2.84749 -2.92202 0
M  V30 14372 H 1378.31 1.96643 -3.66475 0
M  V30 14373 H 1376.88 3.02993 -2.1737 0
M  V30 14374 N 1379.07 1.38501 0.752011 0
M  V30 14375 C 1380.31 1.34995 1.51341 0
M  V30 14376 C 1380.65 -0.0594724 1.94109 0
M  V30 14377 O 1379.92 -1.02098 1.65548 0
M  V30 14378 C 1380.2 2.30705 2.76491 0
M  V30 14379 C 1380.06 3.80515 2.39851 0
M  V30 14380 C 1381.38 2.24521 3.78521 0
M  V30 14381 H 1378.5 0.491687 0.549011 0
M  V30 14382 H 1381.14 1.69361 0.861205 0
M  V30 14383 H 1379.29 2.01529 3.32142 0
M  V30 14384 H 1380.96 4.20371 1.89962 0
M  V30 14385 H 1379.2 3.98119 1.7229 0
M  V30 14386 H 1379.87 4.42946 3.29397 0
M  V30 14387 H 1382.35 2.50282 3.32413 0
M  V30 14388 H 1381.23 2.93598 4.63779 0
M  V30 14389 H 1381.49 1.24457 4.2422 0
M  V30 14390 N 1380.55 -0.980364 1.23396 0
M  V30 14391 C 1381.79 -1.72166 1.06607 0
M  V30 14392 C 1382.12 -1.90405 -0.397029 0
M  V30 14393 O 1381.38 -1.45363 -1.31027 0
M  V30 14394 C 1381.67 -3.12367 1.73671 0
M  V30 14395 C 1381.34 -3.14007 3.2359 0
M  V30 14396 C 1380 -3.14162 3.64494 0
M  V30 14397 C 1382.35 -3.09319 4.19489 0
M  V30 14398 C 1379.68 -3.07345 4.99756 0
M  V30 14399 C 1382.03 -3.04044 5.54743 0
M  V30 14400 C 1380.7 -3.02521 5.9501 0
M  V30 14401 H 1379.97 -0.63 0.390104 0
M  V30 14402 H 1382.62 -1.14727 1.5333 0
M  V30 14403 H 1380.92 -3.73193 1.19308 0
M  V30 14404 H 1382.62 -3.68493 1.58159 0
M  V30 14405 H 1379.21 -3.14644 2.91028 0
M  V30 14406 H 1383.39 -3.08339 3.88897 0
M  V30 14407 H 1378.65 -3.04519 5.30168 0
M  V30 14408 H 1382.82 -2.99374 6.28767 0
M  V30 14409 H 1380.45 -2.96994 6.99785 0
M  V30 14410 N 1382.02 -1.04567 -1.17913 0
M  V30 14411 C 1382.96 -0.599154 -2.2123 0
M  V30 14412 C 1383.97 0.333824 -1.59341 0
M  V30 14413 O 1385.16 0.127548 -1.78044 0
M  V30 14414 C 1382.26 0.144045 -3.38594 0
M  V30 14415 C 1381.43 -0.798061 -4.30058 0
M  V30 14416 C 1380.49 -0.0972548 -5.2611 0
M  V30 14417 O 1379.52 -0.729318 -5.64508 0
M  V30 14418 N 1380.72 1.16759 -5.68637 0
M  V30 14419 H 1383.48 -1.48781 -2.60162 0
M  V30 14420 H 1381.04 -0.926787 -1.32749 0
M  V30 14421 H 1383.04 0.622843 -3.99878 0
M  V30 14422 H 1381.61 0.934292 -2.98311 0
M  V30 14423 H 1380.83 -1.45662 -3.66301 0
M  V30 14424 H 1382.11 -1.43777 -4.88063 0
M  V30 14425 H 1381.51 1.70155 -5.39503 0
M  V30 14426 H 1380.07 1.59057 -6.32095 0
M  V30 14427 N 1383.5 1.34231 -0.825823 0
M  V30 14428 C 1384.43 2.28261 -0.207234 0
M  V30 14429 C 1385.45 1.51159 0.604554 0
M  V30 14430 O 1386.64 1.7315 0.43376 0
M  V30 14431 C 1383.74 3.30991 0.727868 0
M  V30 14432 C 1382.91 4.3738 -0.0417267 0
M  V30 14433 C 1381.97 5.19854 0.81474 0
M  V30 14434 O 1380.99 5.68612 0.25867 0
M  V30 14435 N 1382.2 5.39849 2.1341 0
M  V30 14436 H 1384.96 2.81986 -1.0151 0
M  V30 14437 H 1382.52 1.46785 -0.683056 0
M  V30 14438 H 1384.51 3.83065 1.3055 0
M  V30 14439 H 1383.08 2.7764 1.43647 0
M  V30 14440 H 1382.3 3.85983 -0.800686 0
M  V30 14441 H 1383.59 5.05581 -0.571395 0
M  V30 14442 H 1382.99 5.01914 2.60958 0
M  V30 14443 H 1381.55 5.95029 2.66052 0
M  V30 14444 N 1384.98 0.581051 1.46498 0
M  V30 14445 C 1386.23 0.0658652 2.01993 0
M  V30 14446 C 1386.55 -1.29807 1.45516 0
M  V30 14447 O 1385.82 -1.85177 0.639233 0
M  V30 14448 H 1384.4 0.0213584 0.746695 0
M  V30 14449 H 1387.06 0.756456 1.79621 0
M  V30 14450 H 1386.16 -0.00438128 3.121 0
M  V30 14451 N 1386.46 -1.54343 0.318742 0
M  V30 14452 C 1387.39 -2.20392 -0.591833 0
M  V30 14453 C 1388.37 -1.17931 -1.11942 0
M  V30 14454 O 1389.55 -1.4665 -1.18432 0
M  V30 14455 C 1386.68 -2.8618 -1.81159 0
M  V30 14456 C 1385.73 -4.02319 -1.41568 0
M  V30 14457 S 1386.56 -5.33551 -0.456481 0
M  V30 14458 C 1387.71 -6.02831 -1.68363 0
M  V30 14459 H 1387.95 -2.97284 -0.0307625 0
M  V30 14460 H 1385.48 -1.54057 0.102835 0
M  V30 14461 H 1387.44 -3.24707 -2.51148 0
M  V30 14462 H 1386.1 -2.091 -2.34384 0
M  V30 14463 H 1385.29 -4.47197 -2.32445 0
M  V30 14464 H 1384.89 -3.65441 -0.795535 0
M  V30 14465 H 1387.19 -6.24716 -2.62175 0
M  V30 14466 H 1388.13 -6.96488 -1.27709 0
M  V30 14467 H 1388.54 -5.32682 -1.86841 0
M  V30 14468 N 1387.94 -0.0468143 -1.5753 0
M  V30 14469 C 1388.88 0.929065 -2.11275 0
M  V30 14470 C 1389.85 1.31166 -1.01905 0
M  V30 14471 O 1391.04 1.40189 -1.29428 0
M  V30 14472 C 1388.18 2.20012 -2.65873 0
M  V30 14473 C 1387.29 1.8724 -3.89314 0
M  V30 14474 C 1386.43 3.08772 -4.32242 0
M  V30 14475 C 1385.46 2.719 -5.48395 0
M  V30 14476 N 1384.6 3.86112 -5.86397 0
M  V30 14477 H 1389.44 0.463854 -2.94368 0
M  V30 14478 H 1386.98 0.217338 -1.45486 0
M  V30 14479 H 1388.94 2.94383 -2.95626 0
M  V30 14480 H 1387.57 2.64118 -1.85584 0
M  V30 14481 H 1386.62 1.03037 -3.6618 0
M  V30 14482 H 1387.93 1.56096 -4.73746 0
M  V30 14483 H 1387.08 3.91446 -4.63525 0
M  V30 14484 H 1385.82 3.4309 -3.46613 0
M  V30 14485 H 1384.83 1.87642 -5.16789 0
M  V30 14486 H 1386.05 2.38779 -6.35737 0
M  V30 14487 H 1384 4.2024 -5.03721 0
M  V30 14488 H 1383.92 3.58652 -6.65511 0
M  V30 14489 H 1385.18 4.69438 -6.22293 0
M  V30 14490 N 1389.41 1.55964 0.226527 0
M  V30 14491 C 1390.36 1.92857 1.30034 0
M  V30 14492 C 1391.36 0.810008 1.48779 0
M  V30 14493 O 1392.56 0.994801 1.50012 0
M  V30 14494 H 1388.94 0.612807 0.435857 0
M  V30 14495 H 1390.91 2.82469 0.96196 0
M  V30 14496 C 1389.66 2.25735 2.6446 0
M  V30 14497 H 1388.98 3.11317 2.50842 0
M  V30 14498 H 1390.42 2.55437 3.3842 0
M  V30 14499 C 1388.88 1.08074 3.19095 0
M  V30 14500 O 1389.41 0.339279 4.00265 0
M  V30 14501 N 1387.62 0.86589 2.774 0
M  V30 14502 H 1387.16 1.47055 2.11501 0
M  V30 14503 H 1387.12 0.0803566 3.14297 0
M  V30 14504 N 1390.89 -0.493031 1.4969 0
M  V30 14505 C 1391.84 -1.59367 1.66945 0
M  V30 14506 C 1392.81 -1.58049 0.510842 0
M  V30 14507 O 1393.99 -1.75915 0.738822 0
M  V30 14508 C 1391.13 -2.97472 1.74941 0
M  V30 14509 C 1390.25 -3.08745 3.02159 0
M  V30 14510 C 1389.38 -4.37632 3.01085 0
M  V30 14511 C 1388.42 -4.42567 4.22849 0
M  V30 14512 N 1387.56 -5.62892 4.19639 0
M  V30 14513 H 1392.4 -1.4396 2.6092 0
M  V30 14514 H 1389.94 -0.700297 1.29361 0
M  V30 14515 H 1391.89 -3.7753 1.77558 0
M  V30 14516 H 1390.52 -3.11564 0.844252 0
M  V30 14517 H 1389.58 -2.217 3.09117 0
M  V30 14518 H 1390.89 -3.08251 3.92151 0
M  V30 14519 H 1390.04 -5.26018 3.02309 0
M  V30 14520 H 1388.78 -4.40702 2.08885 0
M  V30 14521 H 1387.79 -3.52581 4.21861 0
M  V30 14522 H 1389.01 -4.41205 5.1625 0
M  V30 14523 H 1386.96 -5.6679 3.30281 0
M  V30 14524 H 1386.87 -5.64048 5.03374 0
M  V30 14525 H 1388.14 -6.53464 4.24977 0
M  V30 14526 N 1392.37 -1.38898 -0.744656 0
M  V30 14527 C 1393.62 -1.34909 -1.49941 0
M  V30 14528 C 1393.93 0.0553979 -1.95522 0
M  V30 14529 O 1395.14 0.21785 -2.70625 0
M  V30 14530 C 1393.59 -2.36954 -2.70889 0
M  V30 14531 C 1393.2 -3.83069 -2.32298 0
M  V30 14532 C 1394.95 -2.42024 -3.48747 0
M  V30 14533 C 1392.85 -4.76777 -3.4991 0
M  V30 14534 H 1391.78 -0.501512 -0.563029 0
M  V30 14535 H 1394.43 -1.64497 -0.813201 0
M  V30 14536 H 1392.82 -2.00421 -3.41537 0
M  V30 14537 H 1393.99 -4.28588 -1.69259 0
M  V30 14538 H 1392.31 -3.81202 -1.67554 0
M  V30 14539 H 1394.9 -3.0923 -4.36212 0
M  V30 14540 H 1395.25 -1.44184 -3.90534 0
M  V30 14541 H 1395.78 -2.774 -2.85121 0
M  V30 14542 H 1392.52 -5.75844 -3.13183 0
M  V30 14543 H 1392.04 -4.35944 -4.11962 0
M  V30 14544 H 1393.72 -4.95219 -4.16374 0
M  V30 14545 N 1393.85 0.973806 -1.23914 0
M  V30 14546 C 1394.78 2.08526 -1.05068 0
M  V30 14547 C 1395.76 1.70065 0.0344761 0
M  V30 14548 O 1396.94 1.93755 -0.131432 0
M  V30 14549 C 1394.07 3.41198 -0.648165 0
M  V30 14550 C 1393.03 3.9359 -1.6814 0
M  V30 14551 C 1392.35 5.22534 -1.13414 0
M  V30 14552 C 1393.65 4.22116 -3.07597 0
M  V30 14553 H 1395.35 2.24551 -1.98034 0
M  V30 14554 H 1392.89 1.07905 -0.953546 0
M  V30 14555 H 1394.85 4.18383 -0.50334 0
M  V30 14556 H 1393.57 3.25056 0.317182 0
M  V30 14557 H 1392.23 3.18555 -1.81434 0
M  V30 14558 H 1391.88 5.02747 -0.159578 0
M  V30 14559 H 1391.58 5.58555 -1.82456 0
M  V30 14560 H 1393.1 6.02334 -1.0013 0
M  V30 14561 H 1394.52 4.90027 -2.97567 0
M  V30 14562 H 1392.91 4.69352 -3.73937 0
M  V30 14563 H 1393.98 3.29128 -3.56094 0
M  V30 14564 N 1395.33 1.05191 1.17357 0
M  V30 14565 C 1396.58 0.757104 1.86951 0
M  V30 14566 C 1396.89 -0.718637 1.8192 0
M  V30 14567 O 1398.09 -1.12739 2.46986 0
M  V30 14568 C 1396.55 1.30409 3.35442 0
M  V30 14569 C 1396.16 2.80928 3.48975 0
M  V30 14570 C 1397.9 1.08633 4.10365 0
M  V30 14571 C 1395.81 3.28927 4.91488 0
M  V30 14572 H 1394.74 0.279525 0.700273 0
M  V30 14573 H 1397.39 1.2692 1.32528 0
M  V30 14574 H 1395.77 0.719812 3.89403 0
M  V30 14575 H 1396.95 3.45211 3.05231 0
M  V30 14576 H 1395.26 3.01245 2.87473 0
M  V30 14577 H 1397.86 1.41996 5.15501 0
M  V30 14578 H 1398.2 0.0240903 4.16293 0
M  V30 14579 H 1398.73 1.63581 3.6261 0
M  V30 14580 H 1395.47 4.34581 4.90734 0
M  V30 14581 H 1394.99 2.69386 5.35902 0
M  V30 14582 H 1396.67 3.23605 5.60258 0
M  V30 14583 N 1396.8 -1.33791 0.83293 0
M  V30 14584 C 1398.05 -1.97973 0.425781 0
M  V30 14585 C 1398.38 -1.66003 -1.01357 0
M  V30 14586 O 1397.63 -0.929016 -1.72243 0
M  V30 14587 C 1397.93 -3.52555 0.586485 0
M  V30 14588 C 1397.6 -4.04461 1.99304 0
M  V30 14589 C 1396.26 -4.18347 2.37779 0
M  V30 14590 C 1398.61 -4.3226 2.91206 0
M  V30 14591 C 1395.94 -4.57364 3.67471 0
M  V30 14592 C 1398.29 -4.72727 4.20371 0
M  V30 14593 C 1396.96 -4.84819 4.5881 0
M  V30 14594 H 1396.23 -0.724435 0.155804 0
M  V30 14595 H 1398.87 -1.59567 1.05881 0
M  V30 14596 H 1397.18 -3.91585 -0.129885 0
M  V30 14597 H 1398.88 -4.00208 0.251835 0
M  V30 14598 H 1395.47 -3.94122 1.68421 0
M  V30 14599 H 1399.65 -4.2106 2.6272 0
M  V30 14600 H 1394.91 -4.64918 3.97065 0
M  V30 14601 H 1399.08 -4.93194 4.91663 0
M  V30 14602 H 1396.71 -5.14809 5.59353 0
M  V30 14603 N 1398.28 -0.588812 -1.46187 0
M  V30 14604 C 1399.53 -0.0765765 -2.01955 0
M  V30 14605 C 1399.85 1.29034 -1.46203 0
M  V30 14606 O 1399.12 1.84836 -0.649044 0
M  V30 14607 H 1397.7 -0.025318 -0.746571 0
M  V30 14608 H 1400.36 -0.765971 -1.79217 0
M  V30 14609 H 1399.46 -0.0121702 -3.12098 0
M  V30 14610 N 1399.76 1.54172 -0.326923 0
M  V30 14611 C 1400.69 2.27402 0.530154 0
M  V30 14612 C 1401.67 1.28325 1.11655 0
M  V30 14613 O 1402.86 1.57142 1.14105 0
M  V30 14614 C 1399.99 3.03435 1.68951 0
M  V30 14615 C 1398.94 4.09877 1.23226 0
M  V30 14616 C 1398.27 4.7377 2.47882 0
M  V30 14617 C 1399.57 5.21161 0.344698 0
M  V30 14618 H 1401.26 2.99291 -0.0806959 0
M  V30 14619 H 1398.81 1.43944 -0.0402511 0
M  V30 14620 H 1400.76 3.53396 2.29541 0
M  V30 14621 H 1399.48 2.29169 2.327 0
M  V30 14622 H 1398.14 3.60805 0.649267 0
M  V30 14623 H 1397.79 3.96116 3.10002 0
M  V30 14624 H 1397.49 5.45674 2.17977 0
M  V30 14625 H 1399.01 5.26507 3.09229 0
M  V30 14626 H 1400.43 5.66859 0.856979 0
M  V30 14627 H 1398.83 5.99941 0.138276 0
M  V30 14628 H 1399.9 4.80874 -0.623575 0
M  V30 14629 N 1401.24 0.0551678 1.57503 0
M  V30 14630 C 1402.49 -0.61772 1.92848 0
M  V30 14631 C 1402.81 -1.70614 0.933862 0
M  V30 14632 O 1402.07 -1.95628 -0.0532073 0
M  V30 14633 C 1402.37 -1.24895 3.34867 0
M  V30 14634 C 1402.03 -0.288325 4.49977 0
M  V30 14635 C 1400.7 -0.0240016 4.81194 0
M  V30 14636 C 1403.05 0.369804 5.19886 0
M  V30 14637 C 1400.38 0.905818 5.79665 0
M  V30 14638 C 1402.73 1.28784 6.19352 0
M  V30 14639 C 1401.39 1.5608 6.48996 0
M  V30 14640 H 1400.66 -0.22604 0.705682 0
M  V30 14641 H 1403.31 0.1225 1.91108 0
M  V30 14642 H 1401.61 -2.06452 3.32993 0
M  V30 14643 H 1403.31 -1.77659 3.59497 0
M  V30 14644 H 1399.9 -0.504524 4.2562 0
M  V30 14645 H 1404.08 0.178689 4.95978 0
M  V30 14646 H 1399.34 1.12472 6.00966 0
M  V30 14647 H 1403.51 1.80385 6.72632 0
M  V30 14648 H 1401.14 2.28292 7.25112 0
M  V30 14649 N 1402.72 -1.56081 -0.218252 0
M  V30 14650 C 1403.63 -1.95856 -1.29141 0
M  V30 14651 C 1404.64 -0.862857 -1.51099 0
M  V30 14652 O 1405.82 -1.1667 -1.64165 0
M  V30 14653 C 1402.88 -2.27005 -2.62049 0
M  V30 14654 C 1401.94 -3.50162 -2.48365 0
M  V30 14655 C 1401.18 -3.79815 -3.74935 0
M  V30 14656 O 1401.4 -3.11095 -4.78096 0
M  V30 14657 O 1400.33 -4.73299 -3.71849 0
M  V30 14658 H 1404.16 -2.8732 -0.983922 0
M  V30 14659 H 1401.75 -1.43334 -0.421385 0
M  V30 14660 H 1403.63 -2.4822 -3.40536 0
M  V30 14661 H 1402.3 -1.38715 -2.92472 0
M  V30 14662 H 1401.21 -3.34222 -1.68066 0
M  V30 14663 H 1402.54 -4.38845 -2.22881 0
M  V30 14664 N 1404.2 0.485086 -1.49949 0
M  V30 14665 C 1405.11 1.61089 -1.70551 0
M  V30 14666 C 1406.12 1.63752 -0.588333 0
M  V30 14667 O 1407.3 1.81879 -0.86498 0
M  V30 14668 C 1404.36 2.97382 -1.78227 0
M  V30 14669 C 1403.42 3.05219 -3.01894 0
M  V30 14670 C 1402.66 4.35011 -3.09195 0
M  V30 14671 O 1402.88 5.24722 -2.23658 0
M  V30 14672 O 1401.81 4.48151 -4.01802 0
M  V30 14673 H 1405.64 1.46633 -2.65956 0
M  V30 14674 H 1403.22 0.663091 -1.33879 0
M  V30 14675 H 1405.11 3.78356 -1.85538 0
M  V30 14676 H 1403.78 3.12066 -0.860043 0
M  V30 14677 H 1402.69 2.23373 -3.00092 0
M  V30 14678 H 1404.02 2.95467 -3.93649 0
M  V30 14679 N 1405.67 1.39291 0.737279 0
M  V30 14680 C 1406.9 1.39659 1.52653 0
M  V30 14681 C 1407.32 -0.00948259 1.88798 0
M  V30 14682 O 1406.67 -0.980249 1.53939 0
M  V30 14683 C 1406.72 2.2674 2.81552 0
M  V30 14684 O 1406.45 3.61871 2.46943 0
M  V30 14685 C 1407.95 2.35466 3.75594 0
M  V30 14686 H 1405.17 0.477108 0.471814 0
M  V30 14687 H 1407.71 1.83077 0.911205 0
M  V30 14688 H 1405.87 1.86741 3.39421 0
M  V30 14689 H 1406.28 4.07897 3.29728 0
M  V30 14690 H 1407.75 3.00649 4.62941 0
M  V30 14691 H 1408.23 1.37314 4.17183 0
M  V30 14692 H 1408.84 2.75925 3.23644 0
M  V30 14693 N 1407.15 -0.967221 1.24429 0
M  V30 14694 C 1408.11 -2.04344 1.03808 0
M  V30 14695 C 1409.11 -1.60799 -0.00476972 0
M  V30 14696 O 1410.3 -1.72591 0.236241 0
M  V30 14697 C 1407.44 -3.36041 0.573496 0
M  V30 14698 H 1408.63 -2.2407 1.9933 0
M  V30 14699 H 1406.18 -1.14253 1.06658 0
M  V30 14700 H 1406.92 -3.22008 -0.384898 0
M  V30 14701 H 1406.7 -3.68991 1.32619 0
M  V30 14702 H 1408.19 -4.15165 0.450272 0
M  V30 14703 N 1408.63 -1.05812 -1.16797 0
M  V30 14704 C 1409.56 -0.685778 -2.23202 0
M  V30 14705 C 1410.54 0.319428 -1.67074 0
M  V30 14706 O 1411.73 0.195635 -1.93212 0
M  V30 14707 C 1408.86 -0.0662958 -3.47237 0
M  V30 14708 C 1407.81 -0.996943 -4.16227 0
M  V30 14709 C 1407.14 -0.241015 -5.34157 0
M  V30 14710 C 1408.44 -2.32384 -4.67755 0
M  V30 14711 H 1410.13 -1.57535 -2.54604 0
M  V30 14712 H 1407.68 -0.758909 -1.22379 0
M  V30 14713 H 1409.63 0.206024 -4.20896 0
M  V30 14714 H 1408.35 0.858263 -3.15121 0
M  V30 14715 H 1407.01 -1.25393 -3.44488 0
M  V30 14716 H 1406.66 0.686508 -4.98293 0
M  V30 14717 H 1406.36 -0.861188 -5.81255 0
M  V30 14718 H 1407.88 0.0238739 -6.10595 0
M  V30 14719 H 1409.3 -2.11099 -5.3302 0
M  V30 14720 H 1407.69 -2.89855 -5.25456 0
M  V30 14721 H 1408.76 -2.958 -3.84227 0
M  V30 14722 N 1410.11 1.33347 -0.840014 0
M  V30 14723 C 1411.07 2.27492 -0.279264 0
M  V30 14724 C 1412.07 1.51004 0.552669 0
M  V30 14725 O 1413.26 1.70305 0.366295 0
M  V30 14726 C 1410.39 3.35462 0.606466 0
M  V30 14727 H 1411.59 2.78601 -1.11001 0
M  V30 14728 H 1409.14 1.4377 -0.613187 0
M  V30 14729 H 1409.87 2.89596 1.45961 0
M  V30 14730 H 1409.66 3.92098 0.0111889 0
M  V30 14731 H 1411.15 4.05645 0.992052 0
M  V30 14732 N 1411.59 0.596556 1.45873 0
M  V30 14733 C 1412.55 -0.118666 2.28893 0
M  V30 14734 C 1413.55 -0.805668 1.3916 0
M  V30 14735 O 1414.74 -0.655511 1.61396 0
M  V30 14736 C 1411.87 -1.17789 3.19904 0
M  V30 14737 H 1413.06 0.611093 2.93608 0
M  V30 14738 H 1410.62 0.355115 1.52212 0
M  V30 14739 H 1411.35 -1.93878 2.59965 0
M  V30 14740 H 1411.14 -0.689616 3.85988 0
M  V30 14741 H 1412.63 -1.67912 3.82355 0
M  V30 14742 N 1413.06 -1.53996 0.335095 0
M  V30 14743 C 1414.31 -2.00772 -0.263997 0
M  V30 14744 C 1414.64 -1.22309 -1.51231 0
M  V30 14745 O 1413.89 -0.296427 -1.93442 0
M  V30 14746 C 1414.19 -3.51769 -0.631907 0
M  V30 14747 C 1413.86 -4.47908 0.518553 0
M  V30 14748 C 1412.52 -4.73912 0.834297 0
M  V30 14749 C 1414.87 -5.04964 1.29078 0
M  V30 14750 C 1412.2 -5.54228 1.92478 0
M  V30 14751 C 1414.55 -5.86469 2.37144 0
M  V30 14752 C 1413.22 -6.1077 2.69288 0
M  V30 14753 H 1412.49 -0.734676 -0.0966033 0
M  V30 14754 H 1415.13 -1.85862 0.46126 0
M  V30 14755 H 1413.44 -3.64466 -1.43776 0
M  V30 14756 H 1415.14 -3.85412 -1.10719 0
M  V30 14757 H 1411.73 -4.27796 0.262392 0
M  V30 14758 H 1415.91 -4.84846 1.0601 0
M  V30 14759 H 1411.17 -5.71285 2.17816 0
M  V30 14760 H 1415.34 -6.29695 2.97417 0
M  V30 14761 H 1412.97 -6.72792 3.53913 0
M  V30 14762 N 1414.54 -0.0635198 -1.57472 0
M  V30 14763 C 1415.47 0.90431 -2.15278 0
M  V30 14764 C 1416.45 1.31609 -1.07764 0
M  V30 14765 O 1417.64 1.38861 -1.35762 0
M  V30 14766 C 1414.77 2.17483 -2.70774 0
M  V30 14767 C 1413.72 1.90272 -3.8338 0
M  V30 14768 C 1413.05 3.23885 -4.25444 0
M  V30 14769 C 1414.35 1.21454 -5.07983 0
M  V30 14770 H 1416.04 0.422786 -2.964 0
M  V30 14771 H 1413.59 0.201918 -1.42577 0
M  V30 14772 H 1415.54 2.856 -3.09856 0
M  V30 14773 H 1414.26 2.67863 -1.86861 0
M  V30 14774 H 1412.92 1.24564 -3.44789 0
M  V30 14775 H 1412.57 3.72089 -3.38465 0
M  V30 14776 H 1412.27 3.06472 -5.01347 0
M  V30 14777 H 1413.8 3.93212 -4.67137 0
M  V30 14778 H 1415.21 1.79625 -5.44433 0
M  V30 14779 H 1413.61 1.14327 -5.89109 0
M  V30 14780 H 1414.68 0.19238 -4.84518 0
M  V30 14781 N 1416.02 1.56195 0.209972 0
M  V30 14782 C 1417.24 1.84189 0.953364 0
M  V30 14783 C 1417.67 0.645288 1.76685 0
M  V30 14784 O 1417.03 -0.405962 1.76696 0
M  V30 14785 C 1417.08 3.10281 1.83733 0
M  V30 14786 O 1416.18 2.89788 2.93422 0
M  V30 14787 H 1415.52 0.606931 0.269314 0
M  V30 14788 H 1418.05 2.03416 0.219783 0
M  V30 14789 H 1418.06 3.40688 2.2449 0
M  V30 14790 H 1416.74 3.97 1.23951 0
M  V30 14791 H 1415.31 2.70643 2.56528 0
M  V30 14792 N 1417.5 -0.477127 1.50204 0
M  V30 14793 C 1418.73 -1.25126 1.64399 0
M  V30 14794 C 1419.14 -1.86401 0.32424 0
M  V30 14795 O 1418.48 -1.69711 -0.703119 0
M  V30 14796 C 1418.54 -2.40428 2.67273 0
M  V30 14797 C 1418.2 -1.99837 4.10992 0
M  V30 14798 C 1419.2 -1.52435 4.97051 0
M  V30 14799 C 1416.89 -2.08742 4.56872 0
M  V30 14800 C 1418.88 -1.14472 6.27037 0
M  V30 14801 C 1416.57 -1.70391 5.86865 0
M  V30 14802 C 1417.57 -1.23333 6.71772 0
M  V30 14803 O 1417.25 -0.855111 7.99339 0
M  V30 14804 H 1416.99 -0.384801 0.555791 0
M  V30 14805 H 1419.54 -0.576654 1.97139 0
M  V30 14806 H 1417.77 -3.1104 2.29763 0
M  V30 14807 H 1419.46 -3.02406 2.7075 0
M  V30 14808 H 1420.22 -1.44981 4.62823 0
M  V30 14809 H 1416.1 -2.44319 3.90934 0
M  V30 14810 H 1419.65 -0.776712 6.93263 0
M  V30 14811 H 1415.54 -1.77501 6.20615 0
M  V30 14812 H 1416.31 -0.984492 8.12558 0
M  V30 14813 N 1418.98 -1.3968 -0.729882 0
M  V30 14814 C 1420.22 -1.3862 -1.50213 0
M  V30 14815 C 1420.58 0.0167409 -1.91993 0
M  V30 14816 O 1421.78 0.15238 -2.68368 0
M  V30 14817 C 1420.05 -2.33583 -2.70507 0
M  V30 14818 S 1421.61 -2.50756 -3.60093 0
M  V30 14819 H 1418.43 -0.491511 -0.513749 0
M  V30 14820 H 1421.03 -1.75823 -0.854783 0
M  V30 14821 H 1419.74 -3.34369 -2.37961 0
M  V30 14822 H 1419.27 -1.97613 -3.40166 0
M  V30 14823 H 1421.28 -1.74929 -4.64343 0
M  V30 14824 N 1420.45 0.960609 -1.2494 0
M  V30 14825 C 1421.87 1.51915 -1.0853 0
M  V30 14826 C 1422.22 1.93215 0.340949 0
M  V30 14827 O 1421.34 1.78031 1.2302 0
M  V30 14828 C 1421.94 2.76069 -1.96396 0
M  V30 14829 C 1420.5 3.28255 -1.84189 0
M  V30 14830 C 1419.64 2.01124 -1.90905 0
M  V30 14831 H 1422.59 0.778141 -1.38314 0
M  V30 14832 H 1422.61 3.49668 -1.50042 0
M  V30 14833 H 1422.13 2.45979 -3.00193 0
M  V30 14834 H 1420.23 3.6318 -0.832518 0
M  V30 14835 H 1420.34 3.96675 -2.68673 0
M  V30 14836 H 1418.7 2.16155 -1.34718 0
M  V30 14837 H 1419.49 1.73389 -2.96295 0
M  V30 14838 N 1421.93 1.0643 1.16234 0
M  V30 14839 C 1423.18 0.780296 1.86429 0
M  V30 14840 C 1423.5 -0.695335 1.82181 0
M  V30 14841 O 1422.77 -1.50312 1.2563 0
M  V30 14842 H 1421.35 0.285654 0.690225 0
M  V30 14843 H 1424.01 1.34609 1.40949 0
M  V30 14844 H 1423.11 1.10644 2.91829 0
M  V30 14845 N 1423.41 -1.329 0.847073 0
M  V30 14846 C 1424.34 -2.27027 0.231111 0
M  V30 14847 C 1425.32 -1.50045 -0.626524 0
M  V30 14848 O 1426.51 -1.79193 -0.58499 0
M  V30 14849 C 1423.63 -3.31911 -0.67472 0
M  V30 14850 C 1422.68 -4.26362 0.108531 0
M  V30 14851 S 1423.51 -5.14874 1.4719 0
M  V30 14852 C 1424.67 -6.23285 0.571586 0
M  V30 14853 H 1424.9 -2.78922 1.02906 0
M  V30 14854 H 1422.43 -1.40315 0.64428 0
M  V30 14855 H 1424.39 -3.92821 -1.19172 0
M  V30 14856 H 1423.05 -2.78815 -1.44641 0
M  V30 14857 H 1422.25 -5.00639 -0.581079 0
M  V30 14858 H 1421.85 -3.69831 0.556863 0
M  V30 14859 H 1424.14 -6.77119 -0.227261 0
M  V30 14860 H 1425.08 -6.96347 1.28477 0
M  V30 14861 H 1425.49 -5.64303 0.149291 0
M  V30 14862 N 1424.89 -0.604284 -1.45555 0
M  V30 14863 C 1426.17 -0.0303285 -1.95576 0
M  V30 14864 C 1426.55 1.43661 -1.54676 0
M  V30 14865 O 1425.89 2.13747 -0.807731 0
M  V30 14866 C 1426.1 -0.22497 -3.48274 0
M  V30 14867 C 1427.45 -0.104042 -4.24473 0
M  V30 14868 O 1428.48 -0.154919 -3.55863 0
M  V30 14869 O 1427.33 0.0136297 -5.46498 0
M  V30 14870 H 1424.43 0.0376106 -0.826144 0
M  V30 14871 H 1426.97 -0.674114 -1.55736 0
M  V30 14872 H 1425.75 -1.24391 -3.71002 0
M  V30 14873 H 1425.37 0.454234 -3.94997 0
M  V30 14874 N 1426.37 1.53816 -0.343257 0
M  V30 14875 C 1427.61 2.01207 0.253721 0
M  V30 14876 C 1427.95 1.23069 1.50225 0
M  V30 14877 O 1427.22 0.31824 1.91879 0
M  V30 14878 C 1427.5 3.5559 0.56815 0
M  V30 14879 C 1427.36 4.44438 -0.692457 0
M  V30 14880 C 1428.68 4.17974 1.37788 0
M  V30 14881 H 1425.79 0.731392 0.0907427 0
M  V30 14882 H 1428.44 1.84254 -0.463736 0
M  V30 14883 H 1426.59 3.70166 1.17937 0
M  V30 14884 H 1428.26 4.41698 -1.33042 0
M  V30 14885 H 1426.5 4.13312 -1.3174 0
M  V30 14886 H 1427.17 5.5034 -0.427715 0
M  V30 14887 H 1429.65 4.07094 0.861043 0
M  V30 14888 H 1428.52 5.26068 1.56663 0
M  V30 14889 H 1428.79 3.72577 2.3799 0
M  V30 14890 N 1427.84 0.0718701 1.57436 0
M  V30 14891 C 1428.81 -0.880671 2.11605 0
M  V30 14892 C 1429.81 -1.22632 1.0401 0
M  V30 14893 O 1431 -1.15958 1.29997 0
M  V30 14894 C 1428.13 -2.18407 2.61746 0
M  V30 14895 H 1429.32 -0.410712 2.97074 0
M  V30 14896 H 1426.88 -0.176836 1.55296 0
M  V30 14897 H 1427.61 -2.6994 1.79731 0
M  V30 14898 H 1427.4 -1.94616 3.40392 0
M  V30 14899 H 1428.89 -2.86596 3.03731 0
M  V30 14900 N 1429.32 -1.56304 -0.201686 0
M  V30 14901 C 1430.25 -1.97046 -1.25281 0
M  V30 14902 C 1431.23 -0.841458 -1.47829 0
M  V30 14903 O 1432.42 -1.10529 -1.59678 0
M  V30 14904 C 1429.55 -2.30429 -2.59845 0
M  V30 14905 C 1428.5 -3.46006 -2.5192 0
M  V30 14906 C 1427.83 -3.65047 -3.90697 0
M  V30 14907 C 1429.13 -4.80391 -2.04992 0
M  V30 14908 H 1430.82 -2.85099 -0.914272 0
M  V30 14909 H 1428.37 -1.37166 -0.438359 0
M  V30 14910 H 1430.32 -2.57525 -3.33555 0
M  V30 14911 H 1429.05 -1.39251 -2.95426 0
M  V30 14912 H 1427.7 -3.18991 -1.80667 0
M  V30 14913 H 1427.35 -2.71211 -4.2362 0
M  V30 14914 H 1427.05 -4.42796 -3.86271 0
M  V30 14915 H 1428.58 -3.94512 -4.66039 0
M  V30 14916 H 1429.99 -5.06561 -2.68456 0
M  V30 14917 H 1428.39 -5.61563 -2.11582 0
M  V30 14918 H 1429.46 -4.74416 -1.00288 0
M  V30 14919 N 1430.8 0.469154 -1.50455 0
M  V30 14920 C 1432.22 0.803067 -1.37924 0
M  V30 14921 C 1432.42 1.96708 -0.436837 0
M  V30 14922 O 1431.47 2.52216 0.119823 0
M  V30 14923 C 1432.79 1.11332 -2.79331 0
M  V30 14924 C 1434.33 1.21965 -2.88259 0
M  V30 14925 C 1434.81 1.56302 -4.30504 0
M  V30 14926 N 1436.3 1.6329 -4.33464 0
M  V30 14927 C 1437.03 1.91367 -5.40524 0
M  V30 14928 N 1436.53 2.17451 -6.57789 0
M  V30 14929 N 1438.32 1.92885 -5.2797 0
M  V30 14930 H 1430.47 -0.297928 -2.103 0
M  V30 14931 H 1432.74 -0.0707794 -0.945354 0
M  V30 14932 H 1432.44 0.331052 -3.50138 0
M  V30 14933 H 1432.32 2.04903 -3.16693 0
M  V30 14934 H 1434.7 1.99259 -2.17669 0
M  V30 14935 H 1434.79 0.263692 -2.54437 0
M  V30 14936 H 1434.43 0.795479 -5.01632 0
M  V30 14937 H 1434.36 2.53052 -4.61814 0
M  V30 14938 H 1436.85 1.45164 -3.48907 0
M  V30 14939 H 1437.16 2.38154 -7.35189 0
M  V30 14940 H 1435.51 2.14839 -6.60961 0
M  V30 14941 H 1438.7 1.72005 -4.35353 0
M  V30 14942 H 1438.87 2.1443 -6.11493 0
M  V30 14943 N 1432.28 1.40065 0.722464 0
M  V30 14944 C 1433.21 1.34182 1.84582 0
M  V30 14945 C 1434.19 0.213339 1.61194 0
M  V30 14946 O 1435.37 0.395867 1.84296 0
M  V30 14947 C 1432.5 1.08658 3.20798 0
M  V30 14948 C 1431.55 2.23865 3.63024 0
M  V30 14949 S 1432.38 3.86221 3.70936 0
M  V30 14950 C 1433.54 3.62948 5.09921 0
M  V30 14951 H 1433.77 2.29251 1.89291 0
M  V30 14952 H 1431.3 1.26269 0.888568 0
M  V30 14953 H 1433.26 0.946172 3.99447 0
M  V30 14954 H 1431.92 0.152542 3.13729 0
M  V30 14955 H 1431.11 2.01631 4.6191 0
M  V30 14956 H 1430.72 2.34174 2.91614 0
M  V30 14957 H 1433.01 3.20989 5.96634 0
M  V30 14958 H 1433.95 4.6134 5.37188 0
M  V30 14959 H 1434.36 2.9678 4.8019 0
M  V30 14960 N 1433.76 -0.95397 1.25448 0
M  V30 14961 C 1434.99 -1.7308 1.12814 0
M  V30 14962 C 1435.4 -1.86461 -0.320764 0
M  V30 14963 O 1434.74 -1.3623 -1.23236 0
M  V30 14964 C 1434.8 -3.16239 1.70976 0
M  V30 14965 C 1434.46 -3.26286 3.19979 0
M  V30 14966 C 1435.46 -3.10547 4.16961 0
M  V30 14967 C 1433.15 -3.50085 3.60202 0
M  V30 14968 C 1435.14 -3.18456 5.52146 0
M  V30 14969 C 1432.83 -3.5763 4.95524 0
M  V30 14970 C 1433.83 -3.4183 5.91305 0
M  V30 14971 O 1433.51 -3.49058 7.24164 0
M  V30 14972 H 1433.25 -0.549143 0.394231 0
M  V30 14973 H 1435.8 -1.20538 1.66312 0
M  V30 14974 H 1434.03 -3.70148 1.11926 0
M  V30 14975 H 1435.72 -3.75784 1.53432 0
M  V30 14976 H 1436.48 -2.92029 3.87226 0
M  V30 14977 H 1432.36 -3.61445 2.86145 0
M  V30 14978 H 1435.91 -3.0604 6.26885 0
M  V30 14979 H 1431.8 -3.75665 5.24925 0
M  V30 14980 H 1432.57 -3.65684 7.32269 0
M  V30 14981 N 1435.24 -1.07045 -1.15668 0
M  V30 14982 C 1436.65 -0.814932 -1.67975 0
M  V30 14983 C 1437 0.660408 -1.84751 0
M  V30 14984 O 1436.12 1.51156 -1.54857 0
M  V30 14985 C 1436.72 -1.47274 -3.05116 0
M  V30 14986 C 1435.28 -1.26481 -3.54513 0
M  V30 14987 C 1434.42 -1.54439 -2.30312 0
M  V30 14988 H 1437.37 -1.23291 -0.999251 0
M  V30 14989 H 1437.4 -0.892244 -3.69891 0
M  V30 14990 H 1436.91 -2.54649 -2.92874 0
M  V30 14991 H 1435.01 -0.211138 -3.72001 0
M  V30 14992 H 1435.12 -1.98283 -4.36143 0
M  V30 14993 H 1433.49 -0.965269 -2.357 0
M  V30 14994 H 1434.27 -2.6299 -2.20661 0
M  V30 14995 N 1436.71 1.32449 -0.85411 0
M  V30 14996 C 1437.64 2.31383 -0.313697 0
M  V30 14997 C 1438.62 1.59656 0.586858 0
M  V30 14998 O 1439.81 1.87459 0.507216 0
M  V30 14999 C 1436.94 3.43693 0.499235 0
M  V30 15000 C 1435.89 4.26899 -0.306839 0
M  V30 15001 C 1435.22 5.30966 0.630795 0
M  V30 15002 C 1436.52 4.99318 -1.53229 0
M  V30 15003 H 1438.21 2.76832 -1.14037 0
M  V30 15004 H 1435.76 1.33091 -0.549805 0
M  V30 15005 H 1437.71 4.11944 0.887709 0
M  V30 15006 H 1436.44 2.96971 1.35926 0
M  V30 15007 H 1435.1 3.60294 -0.677061 0
M  V30 15008 H 1434.74 4.80498 1.48765 0
M  V30 15009 H 1434.44 5.87522 0.0954635 0
M  V30 15010 H 1435.97 6.0208 1.01646 0
M  V30 15011 H 1437.38 5.60253 -1.21614 0
M  V30 15012 H 1435.78 5.65596 -2.00552 0
M  V30 15013 H 1436.85 4.27213 -2.29383 0
M  V30 15014 N 1438.19 0.611994 1.45232 0
M  V30 15015 C 1439.14 -0.104265 2.30564 0
M  V30 15016 C 1440.11 -0.855676 1.42364 0
M  V30 15017 O 1441.29 -0.840534 1.71288 0
M  V30 15018 C 1438.43 -1.09274 3.27343 0
M  V30 15019 C 1437.55 -0.341747 4.30646 0
M  V30 15020 C 1436.68 -1.32034 5.14529 0
M  V30 15021 C 1435.72 -0.557405 6.09557 0
M  V30 15022 N 1434.86 -1.4855 6.86205 0
M  V30 15023 H 1439.7 0.629396 2.91278 0
M  V30 15024 H 1437.23 0.322177 1.43528 0
M  V30 15025 H 1439.19 -1.67902 3.81923 0
M  V30 15026 H 1437.82 -1.79376 2.68373 0
M  V30 15027 H 1436.87 0.360114 3.78692 0
M  V30 15028 H 1438.19 0.253328 4.98156 0
M  V30 15029 H 1437.34 -1.97854 5.73532 0
M  V30 15030 H 1436.08 -1.94934 4.47048 0
M  V30 15031 H 1435.08 0.114401 5.49681 0
M  V30 15032 H 1436.31 0.0666137 6.79067 0
M  V30 15033 H 1434.26 -2.10207 6.21409 0
M  V30 15034 H 1434.17 -0.943972 7.50083 0
M  V30 15035 H 1435.44 -2.13314 7.49745 0
M  V30 15036 N 1439.67 -1.53632 0.351409 0
M  V30 15037 C 1441.08 -1.86241 -0.130834 0
M  V30 15038 C 1441.43 -1.27243 -1.49344 0
M  V30 15039 O 1440.56 -0.589006 -2.0823 0
M  V30 15040 C 1441.15 -3.37919 -0.244179 0
M  V30 15041 C 1439.71 -3.70377 -0.670662 0
M  V30 15042 C 1438.86 -2.76643 0.190813 0
M  V30 15043 H 1441.81 -1.48083 0.570724 0
M  V30 15044 H 1441.83 -3.65137 -1.07029 0
M  V30 15045 H 1441.34 -3.8083 0.747688 0
M  V30 15046 H 1439.44 -3.33015 -1.67127 0
M  V30 15047 H 1439.56 -4.76934 -0.455102 0
M  V30 15048 H 1437.92 -2.52446 -0.338092 0
M  V30 15049 H 1438.7 -3.22385 1.17996 0
M  V30 15050 N 1441.15 -0.0802183 -1.57396 0
M  V30 15051 C 1442.37 0.599179 -1.98556 0
M  V30 15052 C 1442.8 1.61844 -0.958555 0
M  V30 15053 O 1442.16 1.81146 0.0748226 0
M  V30 15054 C 1442.2 1.23675 -3.38728 0
M  V30 15055 O 1441.31 2.35262 -3.38712 0
M  V30 15056 H 1440.65 0.153366 -0.646045 0
M  V30 15057 H 1443.18 -0.157227 -2.03995 0
M  V30 15058 H 1443.19 1.5816 -3.76098 0
M  V30 15059 H 1441.86 0.489946 -4.13004 0
M  V30 15060 H 1440.44 2.02507 -3.13122 0
M  V30 15061 N 1442.63 1.56409 0.193394 0
M  V30 15062 C 1443.87 1.81892 0.910313 0
M  V30 15063 C 1444.23 0.65752 1.80816 0
M  V30 15064 O 1443.52 -0.347215 1.88428 0
M  V30 15065 C 1443.71 3.11039 1.76039 0
M  V30 15066 C 1443.54 4.3963 0.946334 0
M  V30 15067 C 1442.31 5.01356 0.63009 0
M  V30 15068 C 1444.51 5.13435 0.298238 0
M  V30 15069 N 1442.49 6.13566 -0.202417 0
M  V30 15070 C 1443.86 6.18732 -0.396395 0
M  V30 15071 C 1445.92 4.97439 0.214139 0
M  V30 15072 C 1444.62 7.09768 -1.16712 0
M  V30 15073 C 1446.65 5.889 -0.543193 0
M  V30 15074 C 1446.01 6.93644 -1.22627 0
M  V30 15075 H 1442.11 0.71687 0.312445 0
M  V30 15076 H 1444.69 1.93876 0.178914 0
M  V30 15077 H 1442.86 3.00287 2.46338 0
M  V30 15078 H 1444.6 3.24603 2.41692 0
M  V30 15079 H 1441.35 4.63873 0.954919 0
M  V30 15080 H 1441.77 6.74261 -0.608331 0
M  V30 15081 H 1446.42 4.16487 0.727891 0
M  V30 15082 H 1444.13 7.90182 -1.6923 0
M  V30 15083 H 1447.72 5.78597 -0.609642 0
M  V30 15084 H 1446.6 7.63194 -1.8029 0
M  V30 15085 N 1444.1 -0.461169 1.50702 0
M  V30 15086 C 1445.35 -1.21137 1.63393 0
M  V30 15087 C 1445.7 -1.89467 0.334664 0
M  V30 15088 O 1445 -1.79575 -0.668083 0
M  V30 15089 C 1445.19 -2.27213 2.75879 0
M  V30 15090 C 1445.02 -1.69291 4.16618 0
M  V30 15091 C 1443.79 -1.48827 4.82886 0
M  V30 15092 C 1445.99 -1.18233 5.00525 0
M  V30 15093 N 1443.97 -0.862524 6.07811 0
M  V30 15094 C 1445.34 -0.680412 6.16255 0
M  V30 15095 C 1447.4 -1.07182 4.86227 0
M  V30 15096 C 1446.1 -0.0788727 7.19257 0
M  V30 15097 C 1448.13 -0.484201 5.89415 0
M  V30 15098 C 1447.49 0.00728753 7.044 0
M  V30 15099 H 1443.59 -0.431797 0.651978 0
M  V30 15100 H 1446.17 -0.511751 1.87854 0
M  V30 15101 H 1444.34 -2.94591 2.53122 0
M  V30 15102 H 1446.07 -2.94223 2.77875 0
M  V30 15103 H 1442.83 -1.74332 4.40347 0
M  V30 15104 H 1443.25 -0.567778 6.74615 0
M  V30 15105 H 1447.89 -1.43771 3.97605 0
M  V30 15106 H 1445.61 0.299208 8.07546 0
M  V30 15107 H 1449.2 -0.400923 5.80417 0
M  V30 15108 H 1448.08 0.454852 7.8288 0
M  V30 15109 N 1445.58 -1.40446 -0.715026 0
M  V30 15110 C 1446.83 -1.38754 -1.47491 0
M  V30 15111 C 1447.16 0.0099443 -1.94497 0
M  V30 15112 O 1446.41 0.99458 -1.68543 0
M  V30 15113 C 1446.71 -2.32392 -2.7153 0
M  V30 15114 C 1446.38 -3.79635 -2.43286 0
M  V30 15115 C 1445.04 -4.19751 -2.35293 0
M  V30 15116 C 1447.39 -4.72681 -2.19596 0
M  V30 15117 C 1444.72 -5.50947 -2.01679 0
M  V30 15118 C 1447.07 -6.04176 -1.87495 0
M  V30 15119 C 1445.73 -6.43333 -1.77985 0
M  V30 15120 H 1445 -0.507738 -0.539706 0
M  V30 15121 H 1447.65 -1.73104 -0.81898 0
M  V30 15122 H 1445.96 -1.91229 -3.41963 0
M  V30 15123 H 1447.65 -2.28366 -3.29621 0
M  V30 15124 H 1444.24 -3.47852 -2.50393 0
M  V30 15125 H 1448.43 -4.42506 -2.24727 0
M  V30 15126 H 1443.68 -5.80187 -1.92854 0
M  V30 15127 H 1447.86 -6.75788 -1.68179 0
M  V30 15128 H 1445.48 -7.44909 -1.51706 0
M  V30 15129 N 1447.06 0.947303 -1.25952 0
M  V30 15130 C 1448.3 1.70755 -1.12348 0
M  V30 15131 C 1448.66 1.89165 0.328721 0
M  V30 15132 O 1449.86 2.62318 0.586749 0
M  V30 15133 C 1448.14 3.04889 -1.86486 0
M  V30 15134 S 1449.69 3.96076 -1.88863 0
M  V30 15135 H 1446.51 0.586836 -0.401428 0
M  V30 15136 H 1449.11 1.12932 -1.59583 0
M  V30 15137 H 1447.82 2.89166 -2.91224 0
M  V30 15138 H 1447.35 3.67772 -1.39668 0
M  V30 15139 H 1449.36 4.86608 -0.970929 0
M  V30 15140 N 1448.54 1.07657 1.15099 0
M  V30 15141 C 1449.5 0.703558 2.18135 0
M  V30 15142 C 1450.5 -0.257771 1.5872 0
M  V30 15143 O 1451.69 -0.0383211 1.74158 0
M  V30 15144 C 1448.82 0.0374978 3.40879 0
M  V30 15145 H 1450.02 1.61583 2.52648 0
M  V30 15146 H 1447.57 0.873484 1.29615 0
M  V30 15147 H 1448.3 -0.886868 3.11938 0
M  V30 15148 H 1448.09 0.728961 3.85264 0
M  V30 15149 H 1449.58 -0.208714 4.17078 0
M  V30 15150 N 1450.02 -1.31994 0.861122 0
M  V30 15151 C 1451.26 -1.97025 0.467678 0
M  V30 15152 C 1451.59 -1.68116 -0.978129 0
M  V30 15153 O 1450.85 -0.965342 -1.70234 0
M  V30 15154 C 1451.15 -3.51232 0.661135 0
M  V30 15155 C 1450.81 -4.00142 2.07839 0
M  V30 15156 C 1449.47 -4.1321 2.466 0
M  V30 15157 C 1451.83 -4.25986 3.00309 0
M  V30 15158 C 1449.15 -4.49467 3.7709 0
M  V30 15159 C 1451.51 -4.63704 4.30304 0
M  V30 15160 C 1450.17 -4.74978 4.68991 0
M  V30 15161 H 1449.44 -0.720967 0.171136 0
M  V30 15162 H 1452.09 -1.57285 1.09242 0
M  V30 15163 H 1450.39 -3.91772 -0.0467947 0
M  V30 15164 H 1452.09 -3.99584 0.336669 0
M  V30 15165 H 1448.68 -3.90461 1.76743 0
M  V30 15166 H 1452.86 -4.15393 2.71592 0
M  V30 15167 H 1448.12 -4.56391 4.06838 0
M  V30 15168 H 1452.29 -4.82654 5.02014 0
M  V30 15169 H 1449.92 -5.02828 5.70147 0
M  V30 15170 N 1451.49 -0.619688 -1.44906 0
M  V30 15171 C 1452.91 -0.203309 -1.8559 0
M  V30 15172 C 1453.26 1.24265 -1.51831 0
M  V30 15173 O 1452.38 1.94392 -0.950819 0
M  V30 15174 C 1452.98 -0.362204 -3.36858 0
M  V30 15175 C 1451.54 -0.000423575 -3.764 0
M  V30 15176 C 1450.68 -0.680979 -2.68808 0
M  V30 15177 H 1453.63 -0.825595 -1.35535 0
M  V30 15178 H 1453.65 0.402149 -3.78369 0
M  V30 15179 H 1453.17 -1.41468 -3.61398 0
M  V30 15180 H 1451.27 1.05077 -3.57477 0
M  V30 15181 H 1451.38 -0.402508 -4.77406 0
M  V30 15182 H 1449.74 -0.117407 -2.54429 0
M  V30 15183 H 1450.53 -1.73583 -2.96182 0
M  V30 15184 N 1452.97 1.53444 -0.359552 0
M  V30 15185 C 1454.2 2.05286 0.232615 0
M  V30 15186 C 1454.61 1.23322 1.43486 0
M  V30 15187 O 1453.95 0.265369 1.81773 0
M  V30 15188 C 1454.02 3.52698 0.695995 0
M  V30 15189 C 1453.68 4.55344 -0.388751 0
M  V30 15190 C 1454.68 5.04978 -1.23667 0
M  V30 15191 C 1452.36 4.9931 -0.547267 0
M  V30 15192 C 1454.36 5.97174 -2.2285 0
M  V30 15193 C 1452.04 5.91313 -1.54247 0
M  V30 15194 C 1453.04 6.40135 -2.38153 0
M  V30 15195 O 1452.73 7.30325 -3.35976 0
M  V30 15196 H 1452.46 0.674445 0.0458187 0
M  V30 15197 H 1455.01 1.98853 -0.514472 0
M  V30 15198 H 1453.24 3.5665 1.49459 0
M  V30 15199 H 1454.93 3.8743 1.21049 0
M  V30 15200 H 1455.7 4.71763 -1.12537 0
M  V30 15201 H 1451.58 4.609 0.0960246 0
M  V30 15202 H 1455.12 6.35204 -2.88378 0
M  V30 15203 H 1451.02 6.23942 -1.65427 0
M  V30 15204 H 1451.79 7.48305 -3.31635 0
M  V30 15205 N 1454.45 0.0885642 1.57351 0
M  V30 15206 C 1455.68 -0.588641 1.98871 0
M  V30 15207 C 1456.1 -1.61333 0.967125 0
M  V30 15208 O 1455.46 -1.81183 -0.0652149 0
M  V30 15209 C 1455.51 -1.21877 3.39379 0
M  V30 15210 O 1454.61 -2.33462 3.39955 0
M  V30 15211 H 1453.95 -0.149938 0.64685 0
M  V30 15212 H 1456.48 0.168043 2.03909 0
M  V30 15213 H 1456.49 -1.56163 3.76931 0
M  V30 15214 H 1455.17 -0.468037 4.13258 0
M  V30 15215 H 1453.74 -2.00844 3.14191 0
M  V30 15216 N 1455.93 -1.56509 -0.185096 0
M  V30 15217 C 1457.18 -1.81206 -0.903924 0
M  V30 15218 C 1457.5 -0.663423 -1.82836 0
M  V30 15219 O 1456.76 0.350211 -1.92541 0
M  V30 15220 C 1457.06 -3.11968 -1.74387 0
M  V30 15221 C 1456.72 -4.40353 -0.969552 0
M  V30 15222 C 1455.39 -4.75227 -0.755799 0
M  V30 15223 C 1457.74 -5.19461 -0.425443 0
M  V30 15224 C 1455.07 -5.86698 0.0133856 0
M  V30 15225 C 1457.42 -6.31736 0.330582 0
M  V30 15226 C 1456.08 -6.65187 0.555262 0
M  V30 15227 H 1455.35 -0.663078 -0.330769 0
M  V30 15228 H 1458 -1.90747 -0.169673 0
M  V30 15229 H 1456.3 -2.97708 -2.5471 0
M  V30 15230 H 1458 -3.28284 -2.30284 0
M  V30 15231 H 1454.59 -4.1299 -1.14618 0
M  V30 15232 H 1458.77 -4.92923 -0.577959 0
M  V30 15233 H 1454.03 -6.11081 0.197335 0
M  V30 15234 H 1458.2 -6.92246 0.759523 0
M  V30 15235 H 1455.83 -7.51403 1.15318 0
M  V30 15236 N 1457.41 0.45317 -1.50944 0
M  V30 15237 C 1458.34 1.55655 -1.74051 0
M  V30 15238 C 1459.32 1.59545 -0.58987 0
M  V30 15239 O 1460.5 1.75526 -0.830922 0
M  V30 15240 C 1457.63 2.93857 -1.85109 0
M  V30 15241 C 1456.59 3.04832 -3.00435 0
M  V30 15242 C 1455.91 4.44858 -2.96657 0
M  V30 15243 C 1457.21 2.80381 -4.40663 0
M  V30 15244 H 1458.91 1.36571 -2.66437 0
M  V30 15245 H 1456.45 0.655572 -1.28212 0
M  V30 15246 H 1458.41 3.70992 -1.99857 0
M  V30 15247 H 1457.13 3.14138 -0.893579 0
M  V30 15248 H 1455.79 2.30134 -2.85366 0
M  V30 15249 H 1455.44 4.62083 -1.98716 0
M  V30 15250 H 1455.14 4.53134 -3.7409 0
M  V30 15251 H 1456.66 5.23989 -3.13478 0
M  V30 15252 H 1458.07 3.47255 -4.56165 0
M  V30 15253 H 1456.47 3.00083 -5.19683 0
M  V30 15254 H 1457.54 1.76099 -4.51793 0
M  V30 15255 N 1458.88 1.40823 0.707568 0
M  V30 15256 C 1460.13 1.38837 1.46312 0
M  V30 15257 C 1460.45 -0.00353939 1.956 0
M  V30 15258 O 1461.65 -0.146022 2.71107 0
M  V30 15259 C 1460.11 2.44052 2.64512 0
M  V30 15260 C 1459.72 3.89093 2.2206 0
M  V30 15261 C 1461.46 2.51185 3.42208 0
M  V30 15262 C 1459.37 4.85887 3.37147 0
M  V30 15263 H 1458.3 0.516263 0.549535 0
M  V30 15264 H 1460.95 1.66595 0.769302 0
M  V30 15265 H 1459.33 2.09406 3.36103 0
M  V30 15266 H 1460.5 4.32925 1.57837 0
M  V30 15267 H 1458.82 3.8551 1.57388 0
M  V30 15268 H 1461.42 3.20687 4.2786 0
M  V30 15269 H 1461.76 1.54488 3.86574 0
M  V30 15270 H 1462.29 2.84862 2.77666 0
M  V30 15271 H 1459.03 5.83946 2.97805 0
M  V30 15272 H 1458.55 4.46713 4.00259 0
M  V30 15273 H 1460.23 5.06084 4.03098 0
M  V30 15274 N 1460.36 -0.94061 1.26453 0
M  V30 15275 C 1461.61 -1.68687 1.12031 0
M  V30 15276 C 1461.94 -1.91571 -0.336252 0
M  V30 15277 O 1461.19 -1.49458 -1.26336 0
M  V30 15278 C 1461.49 -3.06683 1.83521 0
M  V30 15279 C 1461.16 -3.03553 3.33416 0
M  V30 15280 C 1459.82 -3.02407 3.74304 0
M  V30 15281 C 1462.17 -2.95817 4.29118 0
M  V30 15282 C 1459.5 -2.9129 5.09281 0
M  V30 15283 C 1461.85 -2.86242 5.64135 0
M  V30 15284 C 1460.52 -2.83438 6.04333 0
M  V30 15285 H 1459.79 -0.61727 0.40995 0
M  V30 15286 H 1462.43 -1.0979 1.56902 0
M  V30 15287 H 1460.74 -3.69208 1.31121 0
M  V30 15288 H 1462.43 -3.63274 1.69802 0
M  V30 15289 H 1459.02 -3.05226 3.00891 0
M  V30 15290 H 1463.21 -2.9581 3.9851 0
M  V30 15291 H 1458.46 -2.87498 5.39588 0
M  V30 15292 H 1462.64 -2.79219 6.37973 0
M  V30 15293 H 1460.27 -2.74581 7.08879 0
M  V30 15294 N 1461.84 -1.08266 -1.14527 0
M  V30 15295 C 1463.09 -0.812661 -1.85805 0
M  V30 15296 C 1463.42 0.659878 -1.82645 0
M  V30 15297 O 1462.69 1.48498 -1.25612 0
M  V30 15298 C 1462.98 -1.33335 -3.34505 0
M  V30 15299 C 1462.83 -2.87113 -3.46246 0
M  V30 15300 C 1464.15 -0.957435 -4.29559 0
M  V30 15301 H 1461.27 -0.296681 -0.674648 0
M  V30 15302 H 1463.91 -1.34203 -1.34497 0
M  V30 15303 H 1462.06 -0.883056 -3.78331 0
M  V30 15304 H 1463.73 -3.40502 -3.11217 0
M  V30 15305 H 1461.98 -3.24845 -2.87504 0
M  V30 15306 H 1462.65 -3.18618 -4.50762 0
M  V30 15307 H 1465.12 -1.3456 -3.93742 0
M  V30 15308 H 1464 -1.34897 -5.32066 0
M  V30 15309 H 1464.26 0.135689 -4.41892 0
M  V30 15310 N 1463.32 1.31536 -0.86811 0
M  V30 15311 C 1464.55 2.00661 -0.491815 0
M  V30 15312 C 1464.96 1.65341 0.919733 0
M  V30 15313 O 1464.3 0.87773 1.61374 0
M  V30 15314 C 1464.36 3.55002 -0.566926 0
M  V30 15315 C 1464.03 4.1379 -1.93976 0
M  V30 15316 C 1465.02 4.31032 -2.90702 0
M  V30 15317 C 1462.71 4.4956 -2.24056 0
M  V30 15318 C 1464.7 4.8323 -4.15653 0
M  V30 15319 C 1462.39 5.01461 -3.49257 0
M  V30 15320 C 1463.39 5.18246 -4.44871 0
M  V30 15321 O 1463.08 5.69033 -5.67852 0
M  V30 15322 H 1462.81 0.648663 -0.190296 0
M  V30 15323 H 1465.36 1.68783 -1.17053 0
M  V30 15324 H 1463.59 3.86332 0.168704 0
M  V30 15325 H 1465.28 4.05385 -0.204323 0
M  V30 15326 H 1466.05 4.03717 -2.6877 0
M  V30 15327 H 1461.93 4.35772 -1.50412 0
M  V30 15328 H 1465.47 4.96247 -4.9029 0
M  V30 15329 H 1461.37 5.28209 -3.71033 0
M  V30 15330 H 1462.13 5.87405 -5.69998 0
M  V30 15331 N 1464.8 0.627364 1.44575 0
M  V30 15332 C 1466.07 0.0614392 1.95503 0
M  V30 15333 C 1466.45 -1.41182 1.56942 0
M  V30 15334 O 1465.8 -2.12435 0.841634 0
M  V30 15335 C 1466.01 0.280349 3.47872 0
M  V30 15336 C 1467.36 0.171559 4.24253 0
M  V30 15337 O 1468.38 0.211515 3.55571 0
M  V30 15338 O 1467.24 0.0733152 5.46451 0
M  V30 15339 H 1464.34 -0.0244626 0.826638 0
M  V30 15340 H 1466.88 0.698805 1.54644 0
M  V30 15341 H 1465.66 1.30278 3.68976 0
M  V30 15342 H 1465.28 -0.391336 3.95669 0
M  V30 15343 N 1466.28 -1.53251 0.367684 0
M  V30 15344 C 1467.19 -2.29518 -0.485669 0
M  V30 15345 C 1468.2 -1.35568 -1.09075 0
M  V30 15346 O 1469.38 -1.68626 -1.10124 0
M  V30 15347 C 1466.44 -3.07115 -1.60876 0
M  V30 15348 C 1465.5 -4.16736 -1.031 0
M  V30 15349 C 1464.74 -4.90624 -2.10056 0
M  V30 15350 O 1464.96 -4.64393 -3.31203 0
M  V30 15351 O 1463.89 -5.76503 -1.72996 0
M  V30 15352 H 1467.72 -3.034 0.135017 0
M  V30 15353 H 1465.3 -1.48816 0.132005 0
M  V30 15354 H 1467.19 -3.55564 -2.26168 0
M  V30 15355 H 1465.86 -2.36068 -2.21481 0
M  V30 15356 H 1464.77 -3.72534 -0.341928 0
M  V30 15357 H 1466.1 -4.89956 -0.469473 0
M  V30 15358 N 1467.75 -0.0969077 -1.57302 0
M  V30 15359 C 1469 0.566072 -1.93594 0
M  V30 15360 C 1469.32 1.69226 -0.980922 0
M  V30 15361 O 1470.52 2.41651 -1.23763 0
M  V30 15362 C 1468.98 1.05832 -3.43988 0
M  V30 15363 C 1468.59 -0.038207 -4.47984 0
M  V30 15364 C 1470.33 1.69393 -3.89238 0
M  V30 15365 C 1468.24 0.4695 -5.89533 0
M  V30 15366 H 1467.17 0.215226 -0.72263 0
M  V30 15367 H 1469.82 -0.173202 -1.82681 0
M  V30 15368 H 1468.2 1.85134 -3.50059 0
M  V30 15369 H 1469.37 -0.813761 -4.53558 0
M  V30 15370 H 1467.69 -0.579113 -4.12353 0
M  V30 15371 H 1470.29 2.08454 -4.92393 0
M  V30 15372 H 1470.63 2.56381 -3.27986 0
M  V30 15373 H 1471.16 0.966709 -3.85875 0
M  V30 15374 H 1467.9 -0.363802 -6.5449 0
M  V30 15375 H 1467.42 1.21202 -5.87427 0
M  V30 15376 H 1469.1 0.937885 -6.40166 0
M  V30 15377 N 1469.23 1.56605 0.176793 0
M  V30 15378 C 1470.65 1.50601 0.528354 0
M  V30 15379 C 1470.85 0.800205 1.8493 0
M  V30 15380 O 1469.9 0.358299 2.49945 0
M  V30 15381 C 1471.22 2.95322 0.566172 0
M  V30 15382 C 1472.76 3.06097 0.653751 0
M  V30 15383 C 1473.24 4.52265 0.722511 0
M  V30 15384 N 1474.73 4.5649 0.785548 0
M  V30 15385 C 1475.47 5.66926 0.859232 0
M  V30 15386 N 1474.96 6.87006 0.894088 0
M  V30 15387 N 1476.75 5.54883 0.897832 0
M  V30 15388 H 1468.91 2.00899 -0.689442 0
M  V30 15389 H 1471.17 0.915011 -0.24791 0
M  V30 15390 H 1470.87 3.50095 -0.33566 0
M  V30 15391 H 1470.75 3.49671 1.41456 0
M  V30 15392 H 1473.14 2.51361 1.54601 0
M  V30 15393 H 1473.22 2.54842 -0.221207 0
M  V30 15394 H 1472.86 5.0763 -0.165469 0
M  V30 15395 H 1472.79 5.01271 1.61353 0
M  V30 15396 H 1475.28 3.70032 0.767117 0
M  V30 15397 H 1475.59 7.66922 0.951333 0
M  V30 15398 H 1473.94 6.89628 0.862457 0
M  V30 15399 H 1477.13 4.5999 0.867564 0
M  V30 15400 H 1477.3 6.40972 0.951795 0
M  V30 15401 N 1470.71 -0.445159 1.51182 0
M  V30 15402 C 1471.66 -1.53975 1.71931 0
M  V30 15403 C 1472.63 -1.56344 0.560865 0
M  V30 15404 O 1473.81 -1.73475 0.794414 0
M  V30 15405 C 1470.95 -2.91756 1.84316 0
M  V30 15406 C 1470.06 -2.98976 3.11829 0
M  V30 15407 C 1469.2 -4.27831 3.14855 0
M  V30 15408 C 1468.24 -4.2889 4.36715 0
M  V30 15409 N 1467.38 -5.49257 4.37334 0
M  V30 15410 H 1472.22 -1.35586 2.65368 0
M  V30 15411 H 1469.75 -0.658787 1.31523 0
M  V30 15412 H 1471.71 -3.7169 1.89479 0
M  V30 15413 H 1470.34 -3.08721 0.942947 0
M  V30 15414 H 1469.39 -2.11753 3.16014 0
M  V30 15415 H 1470.7 -2.95619 4.01759 0
M  V30 15416 H 1469.86 -5.16134 3.1889 0
M  V30 15417 H 1468.6 -4.33833 2.228 0
M  V30 15418 H 1467.6 -3.38982 4.32864 0
M  V30 15419 H 1468.83 -4.24558 5.30026 0
M  V30 15420 H 1466.77 -5.55995 3.48145 0
M  V30 15421 H 1466.69 -5.47748 5.21064 0
M  V30 15422 H 1467.96 -6.39613 4.45551 0
M  V30 15423 N 1472.19 -1.41197 -0.700089 0
M  V30 15424 C 1473.12 -1.45456 -1.8266 0
M  V30 15425 C 1474.1 -0.313719 -1.67182 0
M  V30 15426 O 1475.28 -0.524528 -1.86982 0
M  V30 15427 C 1472.41 -1.33161 -3.20758 0
M  V30 15428 C 1471.37 -2.4501 -3.50933 0
M  V30 15429 C 1470.69 -2.17782 -4.88339 0
M  V30 15430 C 1471.99 -3.87352 -3.50365 0
M  V30 15431 H 1473.69 -2.39735 -1.79353 0
M  V30 15432 H 1471.23 -1.1539 -0.861465 0
M  V30 15433 H 1473.19 -1.34754 -3.99274 0
M  V30 15434 H 1471.91 -0.353646 -3.2468 0
M  V30 15435 H 1470.57 -2.42692 -2.74766 0
M  V30 15436 H 1470.22 -1.1834 -4.88881 0
M  V30 15437 H 1469.92 -2.92728 -5.09494 0
M  V30 15438 H 1471.44 -2.21083 -5.6917 0
M  V30 15439 H 1472.86 -3.9141 -4.18893 0
M  V30 15440 H 1471.25 -4.61944 -3.83051 0
M  V30 15441 H 1472.32 -4.15827 -2.4943 0
M  V30 15442 N 1473.67 0.933891 -1.2695 0
M  V30 15443 C 1474.91 1.67539 -1.1231 0
M  V30 15444 C 1475.23 1.92765 0.331788 0
M  V30 15445 O 1476.43 2.6481 0.598983 0
M  V30 15446 C 1474.89 3.01722 -1.96194 0
M  V30 15447 C 1474.5 2.84216 -3.46302 0
M  V30 15448 C 1476.24 3.79513 -1.90185 0
M  V30 15449 C 1474.15 4.13916 -4.22407 0
M  V30 15450 H 1473.08 0.62839 -0.416704 0
M  V30 15451 H 1475.73 1.03801 -1.5132 0
M  V30 15452 H 1474.11 3.66482 -1.50023 0
M  V30 15453 H 1475.29 2.28261 -4.00292 0
M  V30 15454 H 1473.6 2.1986 -3.53625 0
M  V30 15455 H 1476.2 4.75615 -2.44325 0
M  V30 15456 H 1476.54 4.07019 -0.874129 0
M  V30 15457 H 1477.07 3.21539 -2.34217 0
M  V30 15458 H 1473.81 3.91591 -5.25677 0
M  V30 15459 H 1473.33 4.69558 -3.73196 0
M  V30 15460 H 1475.01 4.82322 -4.31248 0
M  V30 15461 N 1475.14 1.08871 1.13951 0
M  V30 15462 C 1476.07 0.744715 2.21306 0
M  V30 15463 C 1477.05 -0.275019 1.67862 0
M  V30 15464 O 1478.24 -0.144339 1.93663 0
M  V30 15465 C 1475.37 0.158336 3.46939 0
M  V30 15466 C 1474.32 1.10695 4.13438 0
M  V30 15467 C 1473.65 0.382552 5.3333 0
M  V30 15468 C 1474.95 2.44704 4.61429 0
M  V30 15469 H 1476.64 1.6423 2.50337 0
M  V30 15470 H 1474.19 0.791088 1.20324 0
M  V30 15471 H 1476.14 -0.0943587 4.21294 0
M  V30 15472 H 1474.87 -0.774413 3.17286 0
M  V30 15473 H 1473.53 1.34482 3.41043 0
M  V30 15474 H 1473.17 -0.554153 4.99938 0
M  V30 15475 H 1472.87 1.01499 5.78767 0
M  V30 15476 H 1474.4 0.138023 6.10444 0
M  V30 15477 H 1475.81 2.25156 5.27236 0
M  V30 15478 H 1474.21 3.03684 5.17586 0
M  V30 15479 H 1475.28 3.05883 3.76249 0
M  V30 15480 N 1476.62 -1.31073 0.875073 0
M  V30 15481 C 1478.04 -1.49162 0.567697 0
M  V30 15482 C 1478.24 -1.80435 -0.896969 0
M  V30 15483 O 1477.29 -1.88604 -1.67883 0
M  V30 15484 C 1478.61 -2.6219 1.47231 0
M  V30 15485 C 1480.15 -2.76072 1.47489 0
M  V30 15486 C 1480.63 -3.92202 2.36519 0
M  V30 15487 N 1482.12 -3.99497 2.34428 0
M  V30 15488 C 1482.86 -4.88639 3.00033 0
M  V30 15489 N 1482.35 -5.82647 3.74826 0
M  V30 15490 N 1484.14 -4.81926 2.89315 0
M  V30 15491 H 1476.3 -1.09045 1.82272 0
M  V30 15492 H 1478.56 -0.539291 0.77966 0
M  V30 15493 H 1478.26 -2.45872 2.51475 0
M  V30 15494 H 1478.14 -3.58446 1.17459 0
M  V30 15495 H 1480.53 -2.91801 0.440008 0
M  V30 15496 H 1480.61 -1.80468 1.81287 0
M  V30 15497 H 1480.25 -3.77231 3.40087 0
M  V30 15498 H 1480.18 -4.87125 2.00043 0
M  V30 15499 H 1482.67 -3.32241 1.80067 0
M  V30 15500 H 1482.98 -6.47406 4.22001 0
M  V30 15501 H 1481.33 -5.82609 3.78934 0
M  V30 15502 H 1484.52 -4.07462 2.30418 0
M  V30 15503 H 1484.69 -5.51192 3.40722 0
M  V30 15504 N 1478.1 -0.635022 -1.4424 0
M  V30 15505 C 1479.52 -0.300978 -1.56736 0
M  V30 15506 C 1479.72 1.19571 -1.62188 0
M  V30 15507 O 1478.77 1.97991 -1.56703 0
M  V30 15508 C 1480.09 -0.996327 -2.83714 0
M  V30 15509 C 1481.63 -0.97484 -2.97432 0
M  V30 15510 C 1482.11 -1.65073 -4.27218 0
M  V30 15511 N 1483.6 -1.6175 -4.3404 0
M  V30 15512 C 1484.33 -2.10938 -5.33191 0
M  V30 15513 N 1483.83 -2.68333 -6.38725 0
M  V30 15514 N 1485.62 -2.01544 -5.24725 0
M  V30 15515 H 1477.77 -1.60649 -1.38945 0
M  V30 15516 H 1480.04 -0.674561 -0.666087 0
M  V30 15517 H 1479.74 -2.05128 -2.85684 0
M  V30 15518 H 1479.62 -0.536511 -3.73365 0
M  V30 15519 H 1482 0.071646 -2.95013 0
M  V30 15520 H 1482.09 -1.47318 -2.0912 0
M  V30 15521 H 1481.73 -2.69669 -4.30397 0
M  V30 15522 H 1481.66 -1.12719 -5.14395 0
M  V30 15523 H 1484.15 -1.1985 -3.58392 0
M  V30 15524 H 1484.46 -3.03588 -7.10672 0
M  V30 15525 H 1482.81 -2.72385 -6.39399 0
M  V30 15526 H 1486 -1.56423 -4.41191 0
M  V30 15527 H 1486.17 -2.40187 -6.01842 0
M  V30 15528 N 1479.58 1.53054 -0.375806 0
M  V30 15529 C 1480.53 2.27576 0.480838 0
M  V30 15530 C 1481.52 1.30948 1.07466 0
M  V30 15531 O 1482.73 1.48538 1.01669 0
M  V30 15532 H 1479.1 0.731641 0.173799 0
M  V30 15533 H 1481.07 2.97919 -0.169327 0
M  V30 15534 C 1479.82 3.08533 1.60321 0
M  V30 15535 H 1479.14 3.82735 1.15558 0
M  V30 15536 H 1480.58 3.63837 2.17712 0
M  V30 15537 C 1479.04 2.20004 2.55147 0
M  V30 15538 O 1479.57 1.81771 3.58221 0
M  V30 15539 N 1477.78 1.84433 2.24573 0
M  V30 15540 H 1477.33 2.15723 1.40788 0
M  V30 15541 H 1477.28 1.25488 2.88271 0
M  V30 15542 N 1481.06 0.105248 1.57248 0
M  V30 15543 C 1482.47 -0.422304 1.81861 0
M  V30 15544 C 1482.82 -1.67508 1.02154 0
M  V30 15545 O 1481.94 -2.14905 0.253961 0
M  V30 15546 C 1482.54 -0.772943 3.29865 0
M  V30 15547 C 1481.1 -1.24519 3.55207 0
M  V30 15548 C 1480.24 -0.246936 2.76198 0
M  V30 15549 H 1483.2 0.330565 1.55219 0
M  V30 15550 H 1483.22 -1.6316 3.43743 0
M  V30 15551 H 1482.73 0.139033 3.87851 0
M  V30 15552 H 1480.83 -2.17453 3.02564 0
M  V30 15553 H 1480.94 -1.20001 4.63828 0
M  V30 15554 H 1479.31 -0.731171 2.43979 0
M  V30 15555 H 1480.09 0.657896 3.36937 0
M  V30 15556 N 1482.53 -1.56697 -0.168486 0
M  V30 15557 C 1483.78 -1.81794 -0.882907 0
M  V30 15558 C 1484.1 -0.682707 -1.82658 0
M  V30 15559 O 1483.37 0.297234 -1.93632 0
M  V30 15560 H 1481.95 -0.670636 -0.329024 0
M  V30 15561 H 1484.62 -1.94178 -0.167625 0
M  V30 15562 H 1483.71 -2.75945 -1.45811 0
M  V30 15563 N 1484.01 0.437135 -1.51416 0
M  V30 15564 C 1485.26 1.18421 -1.63771 0
M  V30 15565 C 1485.58 1.91718 -0.356282 0
M  V30 15566 O 1484.85 1.85566 0.627863 0
M  V30 15567 H 1483.43 0.440125 -0.603572 0
M  V30 15568 H 1486.09 0.501155 -1.88347 0
M  V30 15569 H 1485.19 1.91367 -2.46546 0
M  V30 15570 N 1485.49 1.41566 0.692592 0
M  V30 15571 C 1486.74 1.42293 1.45342 0
M  V30 15572 C 1487.09 0.032316 1.92373 0
M  V30 15573 O 1486.38 -0.942367 1.66823 0
M  V30 15574 C 1486.58 2.36683 2.67799 0
M  V30 15575 C 1486.41 3.84784 2.32748 0
M  V30 15576 C 1485.18 4.53446 2.22967 0
M  V30 15577 C 1487.38 4.75681 1.95531 0
M  V30 15578 N 1485.36 5.86662 1.80833 0
M  V30 15579 C 1486.73 5.97868 1.64178 0
M  V30 15580 C 1488.78 4.633 1.82367 0
M  V30 15581 C 1487.49 7.09053 1.20983 0
M  V30 15582 C 1489.51 5.74449 1.40577 0
M  V30 15583 C 1488.87 6.95737 1.10137 0
M  V30 15584 H 1484.97 0.575898 0.529023 0
M  V30 15585 H 1487.56 1.77459 0.801013 0
M  V30 15586 H 1485.73 2.03606 3.30755 0
M  V30 15587 H 1487.46 2.28109 3.34288 0
M  V30 15588 H 1484.22 4.07423 2.4146 0
M  V30 15589 H 1484.64 6.57273 1.62239 0
M  V30 15590 H 1489.28 3.70024 2.04554 0
M  V30 15591 H 1487 8.02192 0.975411 0
M  V30 15592 H 1490.59 5.66875 1.30937 0
M  V30 15593 H 1489.47 7.80282 0.782888 0
M  V30 15594 N 1486.97 -0.927146 1.27443 0
M  V30 15595 C 1488.21 -1.67738 1.13982 0
M  V30 15596 C 1488.55 -1.91653 -0.313511 0
M  V30 15597 O 1487.82 -1.50729 -1.22926 0
M  V30 15598 C 1488.11 -3.04357 1.92454 0
M  V30 15599 C 1487.96 -2.8768 3.45775 0
M  V30 15600 C 1489.28 -4.04696 1.72944 0
M  V30 15601 H 1486.4 -0.608749 0.415444 0
M  V30 15602 H 1489.04 -1.07587 1.56605 0
M  V30 15603 H 1487.19 -3.55702 1.56232 0
M  V30 15604 H 1488.86 -2.43449 3.9183 0
M  V30 15605 H 1487.1 -2.23011 3.72087 0
M  V30 15606 H 1487.77 -3.8464 3.95924 0
M  V30 15607 H 1490.25 -3.62364 2.04528 0
M  V30 15608 H 1489.13 -4.98276 2.30243 0
M  V30 15609 H 1489.39 -4.36878 0.677505 0
M  V30 15610 N 1488.45 -1.09474 -1.13372 0
M  V30 15611 C 1489.36 -0.746674 -2.224 0
M  V30 15612 C 1490.37 0.251572 -1.72172 0
M  V30 15613 O 1491.55 0.092793 -2.01186 0
M  V30 15614 C 1488.61 -0.172965 -3.46268 0
M  V30 15615 C 1487.67 -1.22722 -4.11385 0
M  V30 15616 C 1486.91 -0.680794 -5.2934 0
M  V30 15617 O 1487.13 0.496135 -5.68238 0
M  V30 15618 O 1486.06 -1.43605 -5.84518 0
M  V30 15619 H 1489.89 -1.65649 -2.54547 0
M  V30 15620 H 1487.48 -0.869172 -1.21514 0
M  V30 15621 H 1489.36 0.143629 -4.21155 0
M  V30 15622 H 1488.03 0.709853 -3.15821 0
M  V30 15623 H 1486.94 -1.59652 -3.38323 0
M  V30 15624 H 1488.27 -2.0827 -4.45965 0
M  V30 15625 N 1489.92 1.30607 -0.882012 0
M  V30 15626 C 1490.87 2.2821 -0.344826 0
M  V30 15627 C 1491.84 1.56254 0.563361 0
M  V30 15628 O 1493.03 1.84336 0.492416 0
M  V30 15629 C 1490.17 3.42319 0.437216 0
M  V30 15630 C 1489.28 4.29098 -0.499851 0
M  V30 15631 C 1488.41 5.30366 0.297497 0
M  V30 15632 C 1487.45 6.08795 -0.63523 0
M  V30 15633 N 1486.59 7.01986 0.12661 0
M  V30 15634 H 1491.43 2.73543 -1.18229 0
M  V30 15635 H 1488.97 1.34556 -0.594392 0
M  V30 15636 H 1490.93 4.07232 0.906521 0
M  V30 15637 H 1489.56 2.98063 1.23928 0
M  V30 15638 H 1488.61 3.6452 -1.08764 0
M  V30 15639 H 1489.92 4.83787 -1.21454 0
M  V30 15640 H 1489.07 6.01013 0.828786 0
M  V30 15641 H 1487.81 4.76364 1.04542 0
M  V30 15642 H 1486.82 5.37028 -1.17817 0
M  V30 15643 H 1488.04 6.64885 -1.3822 0
M  V30 15644 H 1485.99 6.50376 0.857125 0
M  V30 15645 H 1485.91 7.5415 -0.528512 0
M  V30 15646 H 1487.17 7.76879 0.638738 0
M  V30 15647 N 1491.4 0.642663 1.43901 0
M  V30 15648 C 1492.31 -0.0562462 2.34533 0
M  V30 15649 C 1493.33 -0.823457 1.53281 0
M  V30 15650 O 1494.5 -0.773103 1.85971 0
M  V30 15651 C 1491.57 -1.01787 3.31422 0
M  V30 15652 C 1490.63 -0.248759 4.28579 0
M  V30 15653 C 1489.86 -1.16458 5.20839 0
M  V30 15654 O 1490.09 -2.40361 5.17284 0
M  V30 15655 O 1489.02 -0.642671 5.98459 0
M  V30 15656 H 1492.85 0.689476 2.9577 0
M  V30 15657 H 1490.43 0.402847 1.43866 0
M  V30 15658 H 1492.31 -1.5708 3.91029 0
M  V30 15659 H 1490.99 -1.744 2.72702 0
M  V30 15660 H 1489.9 0.347495 3.72483 0
M  V30 15661 H 1491.23 0.437589 4.90251 0
M  V30 15662 N 1492.88 -1.52852 0.383918 0
M  V30 15663 C 1494.11 -2.05929 -0.200216 0
M  V30 15664 C 1494.52 -1.25606 -1.40956 0
M  V30 15665 O 1493.88 -0.301336 -1.79995 0
M  V30 15666 C 1493.93 -3.56887 -0.575655 0
M  V30 15667 O 1493.65 -4.34168 0.58564 0
M  V30 15668 C 1495.15 -4.2629 -1.21623 0
M  V30 15669 H 1492.37 -0.670261 -0.0314727 0
M  V30 15670 H 1494.92 -1.97032 0.547591 0
M  V30 15671 H 1493.07 -3.65875 -1.27336 0
M  V30 15672 H 1493.49 -5.23761 0.278267 0
M  V30 15673 H 1494.96 -5.33174 -1.42933 0
M  V30 15674 H 1495.44 -3.81163 -2.182 0
M  V30 15675 H 1496.04 -4.21605 -0.559435 0
M  V30 15676 N 1494.36 -0.113586 -1.5719 0
M  V30 15677 C 1495.59 0.552789 -1.99067 0
M  V30 15678 C 1496 1.61106 -0.992038 0
M  V30 15679 O 1495.34 1.83684 0.0240065 0
M  V30 15680 C 1495.4 1.24239 -3.3735 0
M  V30 15681 C 1495.07 0.332699 -4.55787 0
M  V30 15682 C 1496.06 -0.42654 -5.18147 0
M  V30 15683 C 1493.75 0.245351 -5.017 0
M  V30 15684 C 1495.74 -1.26091 -6.24804 0
M  V30 15685 C 1493.43 -0.592659 -6.08219 0
M  V30 15686 C 1494.43 -1.34443 -6.69637 0
M  V30 15687 O 1494.12 -2.16853 -7.74099 0
M  V30 15688 H 1493.85 0.15139 -0.65883 0
M  V30 15689 H 1496.4 -0.195113 -2.04471 0
M  V30 15690 H 1494.63 2.03725 -3.28684 0
M  V30 15691 H 1496.32 1.80513 -3.63552 0
M  V30 15692 H 1497.09 -0.368898 -4.83595 0
M  V30 15693 H 1492.97 0.820178 -4.53645 0
M  V30 15694 H 1496.51 -1.84818 -6.72672 0
M  V30 15695 H 1492.41 -0.651714 -6.42202 0
M  V30 15696 H 1493.17 -2.09736 -7.91172 0
M  V30 15697 N 1495.84 1.56784 0.160173 0
M  V30 15698 C 1497.07 1.86496 0.888969 0
M  V30 15699 C 1497.48 0.698244 1.75844 0
M  V30 15700 O 1496.82 -0.341543 1.80497 0
M  V30 15701 C 1496.88 3.10758 1.80748 0
M  V30 15702 C 1496.54 4.43152 1.1165 0
M  V30 15703 C 1497.54 5.1771 0.476643 0
M  V30 15704 C 1495.23 4.89883 1.10993 0
M  V30 15705 C 1497.22 6.37198 -0.160552 0
M  V30 15706 C 1494.91 6.09298 0.468916 0
M  V30 15707 C 1495.91 6.828 -0.165211 0
M  V30 15708 O 1495.59 7.99948 -0.796092 0
M  V30 15709 H 1495.33 0.622688 0.263128 0
M  V30 15710 H 1497.88 2.04762 0.161706 0
M  V30 15711 H 1496.11 2.88466 2.57535 0
M  V30 15712 H 1497.8 3.26825 2.40708 0
M  V30 15713 H 1498.56 4.82682 0.473616 0
M  V30 15714 H 1494.44 4.32605 1.59292 0
M  V30 15715 H 1497.99 6.94508 -0.656107 0
M  V30 15716 H 1493.88 6.4379 0.469565 0
M  V30 15717 H 1494.65 8.15532 -0.696448 0
M  V30 15718 O 1497.35 -0.305027 1.58593 0
M  V30 15719 H 1498.05 -0.952375 1.6867 0
M  V30 END ATOM
M  V30 BEGIN BOND
M  V30 END BOND
M  V30 END CTAB
M  END
$$$$
