drugbank_target|Q9Y691 Calcium-activated potassium channel subunit beta-2 (DB00721; DB01110; DB09089)
 OpenBabel12092120283D

  0  0  0     0  0            999 V3000
M  V30 BEGIN CTAB
M  V30 COUNTS 3802 3840 0 0 0
M  V30 BEGIN ATOM
M  V30 1 H -0.908 1.98254 -0.117106 0
M  V30 2 N 0 1.576 0 0
M  V30 3 C 0.933 2.03868 1.02534 0
M  V30 4 C 1.911 0.928543 1.3348 0
M  V30 5 O 3.095 1.19667 1.45644 0
M  V30 6 C 0.222 2.43627 2.35294 0
M  V30 7 C -0.732 3.65373 2.2001 0
M  V30 8 S 0.101 5.13292 1.52614 0
M  V30 9 C 1.257 5.56322 2.86805 0
M  V30 10 H 1.49 2.90518 0.631377 0
M  V30 11 H -0.977 1.52953 0.210867 0
M  V30 12 H 0.981 2.67203 3.11629 0
M  V30 13 H -0.358 1.57376 2.7183 0
M  V30 14 H -1.165 3.90944 3.18086 0
M  V30 15 H -1.563 3.418 1.51819 0
M  V30 16 H 0.729 5.58782 3.83104 0
M  V30 17 H 1.672 6.56266 2.65933 0
M  V30 18 H 2.08 4.83886 2.90714 0
M  V30 19 N 1.4781 -0.272755 1.55222 0
M  V30 20 C 2.7251 -1.00433 1.7584 0
M  V30 21 C 3.0531 -1.86275 0.559629 0
M  V30 22 O 2.3081 -1.90269 -0.457857 0
M  V30 23 C 2.6071 -1.91642 3.01675 0
M  V30 24 C 2.2731 -1.21548 4.34208 0
M  V30 25 C 0.9351 -1.02166 4.70229 0
M  V30 26 C 3.2871 -0.716684 5.16249 0
M  V30 27 C 0.6151 -0.316334 5.85847 0
M  V30 28 C 2.9671 -0.0249476 6.32595 0
M  V30 29 C 1.6311 0.180579 6.67256 0
M  V30 30 H 0.9011 -0.367509 0.643443 0
M  V30 31 H 3.5481 -0.276596 1.89492 0
M  V30 32 H 1.8531 -2.71037 2.82924 0
M  V30 33 H 3.5501 -2.48369 3.14824 0
M  V30 34 H 0.1401 -1.37645 4.05896 0
M  V30 35 H 4.3241 -0.854047 4.88896 0
M  V30 36 H -0.4199 -0.146378 6.11225 0
M  V30 37 H 3.7541 0.369311 6.9542 0
M  V30 38 H 1.3811 0.729098 7.56696 0
M  V30 39 N 2.9562 -1.48159 -0.537278 0
M  V30 40 C 4.2052 -1.5506 -1.28993 0
M  V30 41 C 4.5182 -0.226211 -1.94288 0
M  V30 42 O 5.7242 -0.173395 -2.70946 0
M  V30 43 C 4.1802 -2.73429 -2.34018 0
M  V30 44 C 3.7882 -4.1248 -1.74825 0
M  V30 45 C 5.5322 -2.89638 -3.10339 0
M  V30 46 C 3.4392 -5.22121 -2.77747 0
M  V30 47 H 2.3692 -0.577231 -0.485098 0
M  V30 48 H 5.0202 -1.74478 -0.568317 0
M  V30 49 H 3.4022 -2.47431 -3.09182 0
M  V30 50 H 4.5762 -4.48466 -1.05899 0
M  V30 51 H 2.8912 -4.01327 -1.11022 0
M  V30 52 H 5.4882 -3.68718 -3.87235 0
M  V30 53 H 5.8312 -1.9882 -3.65754 0
M  V30 54 H 6.3642 -3.15502 -2.42288 0
M  V30 55 H 3.1032 -6.1488 -2.27161 0
M  V30 56 H 2.6232 -4.90631 -3.45024 0
M  V30 57 H 4.3022 -5.49924 -3.4087 0
M  V30 58 N 4.4343 0.785586 -1.36625 0
M  V30 59 C 5.6803 1.5452 -1.32269 0
M  V30 60 C 6.0353 1.92159 0.0962266 0
M  V30 61 O 5.3283 1.60158 1.05167 0
M  V30 62 C 5.5223 2.83007 -2.1827 0
M  V30 63 C 5.3513 2.57925 -3.68382 0
M  V30 64 C 4.1213 2.52752 -4.37544 0
M  V30 65 C 6.3193 2.26861 -4.61561 0
M  V30 66 N 4.3013 2.19608 -5.73276 0
M  V30 67 C 5.6723 2.03738 -5.85569 0
M  V30 68 C 7.7273 2.129 -4.50087 0
M  V30 69 C 6.4303 1.68065 -6.9939 0
M  V30 70 C 8.4563 1.78626 -5.63779 0
M  V30 71 C 7.8183 1.56353 -6.86828 0
M  V30 72 H 3.9173 0.566301 -0.539283 0
M  V30 73 H 6.5013 0.917736 -1.71714 0
M  V30 74 H 4.6723 3.43614 -1.81063 0
M  V30 75 H 6.4043 3.48775 -2.05275 0
M  V30 76 H 3.1593 2.6813 -3.90389 0
M  V30 77 H 3.5833 2.05771 -6.44971 0
M  V30 78 H 8.2253 2.28808 -3.55537 0
M  V30 79 H 5.9433 1.50895 -7.93887 0
M  V30 80 H 9.5293 1.68502 -5.56865 0
M  V30 81 H 8.4093 1.30223 -7.73312 0
M  V30 82 N 5.9124 1.20967 1.01018 0
M  V30 83 C 7.1404 1.04956 1.78303 0
M  V30 84 C 7.5554 -0.400915 1.84494 0
M  V30 85 O 6.9124 -1.27826 1.30257 0
M  V30 86 C 6.9634 1.63403 3.22462 0
M  V30 87 O 6.6844 3.02775 3.16637 0
M  V30 88 C 8.1854 1.52432 4.16268 0
M  V30 89 H 5.4054 0.368858 0.560522 0
M  V30 90 H 7.9494 1.60193 1.27116 0
M  V30 91 H 6.1044 1.1227 3.70775 0
M  V30 92 H 6.5184 3.30626 4.07169 0
M  V30 93 H 7.9924 1.98078 5.15237 0
M  V30 94 H 8.4694 0.477875 4.36592 0
M  V30 95 H 9.0754 2.02787 3.73841 0
M  V30 96 N 7.3905 -1.2043 1.01659 0
M  V30 97 C 8.6155 -1.94318 0.724942 0
M  V30 98 C 9.0405 -1.74266 -0.708034 0
M  V30 99 O 8.3985 -1.03694 -1.48719 0
M  V30 100 C 8.4465 -3.44486 1.06591 0
M  V30 101 O 7.5505 -4.12017 0.177599 0
M  V30 102 H 6.8915 -0.60708 0.26898 0
M  V30 103 H 9.4215 -1.52861 1.35995 0
M  V30 104 H 9.4315 -3.95106 1.01762 0
M  V30 105 H 8.1065 -3.58404 2.10997 0
M  V30 106 H 6.6835 -3.71821 0.283421 0
M  V30 107 N 8.8686 -0.792821 -1.36206 0
M  V30 108 C 10.1166 -0.366062 -1.98757 0
M  V30 109 C 10.4376 1.0668 -1.63231 0
M  V30 110 O 9.7076 1.73587 -0.907978 0
M  V30 111 H 8.2876 -0.132364 -0.735179 0
M  V30 112 H 10.9496 -1.01562 -1.66347 0
M  V30 113 H 10.0456 -0.460638 -3.08682 0
M  V30 114 N 10.3467 1.47872 -0.545128 0
M  V30 115 C 11.7627 1.5829 -0.204032 0
M  V30 116 C 11.9627 1.54529 1.29317 0
M  V30 117 O 11.0187 1.44232 2.07252 0
M  V30 118 C 12.3317 2.89304 -0.819987 0
M  V30 119 C 13.8797 3.02864 -0.790105 0
M  V30 120 C 14.3547 4.3656 -1.38491 0
M  V30 121 N 15.8457 4.43165 -1.34755 0
M  V30 122 C 16.5807 5.45153 -1.77753 0
M  V30 123 N 16.0767 6.54016 -2.2855 0
M  V30 124 N 17.8697 5.36125 -1.68897 0
M  V30 125 H 10.0207 1.4856 -1.51802 0
M  V30 126 H 12.2837 0.706305 -0.632327 0
M  V30 127 H 11.9897 2.97757 -1.87173 0
M  V30 128 H 11.8637 3.75957 -0.305915 0
M  V30 129 H 14.2507 2.94014 0.252913 0
M  V30 130 H 14.3317 2.17782 -1.34181 0
M  V30 131 H 13.9757 4.46164 -2.42693 0
M  V30 132 H 13.9057 5.20353 -0.808754 0
M  V30 133 H 16.3967 3.65083 -0.975855 0
M  V30 134 H 16.7097 7.27994 -2.59314 0
M  V30 135 H 15.0547 6.54938 -2.32553 0
M  V30 136 H 18.2457 4.49975 -1.28998 0
M  V30 137 H 18.4187 6.15472 -2.02726 0
M  V30 138 N 11.8248 0.280983 1.55075 0
M  V30 139 C 13.0528 -0.337293 2.04132 0
M  V30 140 C 13.4678 -1.4903 1.15912 0
M  V30 141 O 12.8248 -1.81606 0.180459 0
M  V30 142 C 12.8758 -0.812706 3.52246 0
M  V30 143 O 12.5968 0.294387 4.3711 0
M  V30 144 C 14.0978 -1.4982 4.17216 0
M  V30 145 H 11.3178 -0.0761638 0.666663 0
M  V30 146 H 13.8618 0.414787 2.00249 0
M  V30 147 H 12.0168 -1.51486 3.56554 0
M  V30 148 H 12.4308 -0.0721325 5.2445 0
M  V30 149 H 13.9048 -1.7822 5.22438 0
M  V30 150 H 14.3818 -2.43168 3.65741 0
M  V30 151 H 14.9878 -0.839742 4.16927 0
M  V30 152 N 13.3029 -1.57598 0.00835791 0
M  V30 153 C 14.5279 -1.95617 -0.689103 0
M  V30 154 C 14.9529 -0.883753 -1.66046 0
M  V30 155 O 14.3109 0.157352 -1.80616 0
M  V30 156 C 14.3589 -3.32736 -1.38994 0
M  V30 157 O 13.4629 -3.27631 -2.50463 0
M  V30 158 H 12.8039 -0.638379 -0.182668 0
M  V30 159 H 15.3339 -2.045 0.064036 0
M  V30 160 H 15.3439 -3.68494 -1.75147 0
M  V30 161 H 14.0189 -4.1034 -0.677778 0
M  V30 162 H 12.5959 -3.03561 -2.16576 0
M  V30 163 N 14.781 0.264519 -1.55364 0
M  V30 164 C 16.006 1.01726 -1.80739 0
M  V30 165 C 16.431 1.78836 -0.583044 0
M  V30 166 O 15.789 1.75167 0.467566 0
M  V30 167 C 15.837 1.94482 -3.03659 0
M  V30 168 O 14.941 3.03386 -2.7934 0
M  V30 169 H 14.282 0.290395 -0.597132 0
M  V30 170 H 16.812 0.290854 -2.02522 0
M  V30 171 H 16.822 2.36278 -3.32621 0
M  V30 172 H 15.497 1.37772 -3.92418 0
M  V30 173 H 14.074 2.65844 -2.61498 0
M  V30 174 N 16.2591 1.48442 0.529413 0
M  V30 175 C 17.4841 1.60406 1.31471 0
M  V30 176 C 17.9091 0.264738 1.86228 0
M  V30 177 O 17.2671 -0.763668 1.64432 0
M  V30 178 C 17.3151 2.65419 2.44101 0
M  V30 179 O 16.4191 2.22618 3.47153 0
M  V30 180 H 15.7601 0.537863 0.389357 0
M  V30 181 H 18.2901 1.94432 0.636965 0
M  V30 182 H 18.3001 2.86709 2.90279 0
M  V30 183 H 16.9751 3.62652 2.03608 0
M  V30 184 H 15.5521 2.11543 3.0709 0
M  V30 185 N 17.7372 -0.778329 1.37039 0
M  V30 186 C 18.9672 -1.56507 1.34868 0
M  V30 187 C 19.3752 -1.89072 -0.0694802 0
M  V30 188 O 18.7182 -1.51434 -1.03987 0
M  V30 189 C 18.7802 -2.90641 2.11585 0
M  V30 190 C 18.4442 -2.80746 3.60598 0
M  V30 191 C 19.4412 -2.52226 4.54618 0
M  V30 192 C 17.1262 -2.98974 4.03633 0
M  V30 193 C 19.1202 -2.42054 5.89651 0
M  V30 194 C 16.8072 -2.88423 5.38754 0
M  V30 195 C 17.8052 -2.60002 6.31576 0
M  V30 196 O 17.4932 -2.49465 7.64214 0
M  V30 197 H 17.2252 -0.491723 0.463879 0
M  V30 198 H 19.7792 -0.973053 1.80889 0
M  V30 199 H 18.0092 -3.51936 1.60243 0
M  V30 200 H 19.6982 -3.51992 2.0213 0
M  V30 201 H 20.4642 -2.37835 4.22681 0
M  V30 202 H 16.3432 -3.20099 3.31749 0
M  V30 203 H 19.8872 -2.19791 6.62071 0
M  V30 204 H 15.7842 -3.0238 5.70295 0
M  V30 205 H 16.5522 -2.64864 7.74461 0
M  V30 206 N 19.2153 -1.21501 -1.00376 0
M  V30 207 C 20.6313 -0.972629 -1.26539 0
M  V30 208 C 20.8313 0.340257 -1.98606 0
M  V30 209 O 19.8873 1.06561 -2.28913 0
M  V30 210 C 21.2003 -2.16404 -2.08781 0
M  V30 211 C 22.7483 -2.20643 -2.22004 0
M  V30 212 C 23.2233 -3.39306 -3.07629 0
M  V30 213 N 24.7143 -3.39401 -3.15217 0
M  V30 214 C 25.4493 -4.27867 -3.81729 0
M  V30 215 N 24.9453 -5.26533 -4.5026 0
M  V30 216 N 26.7383 -4.15672 -3.78382 0
M  V30 217 H 18.8893 -2.05929 -0.520281 0
M  V30 218 H 21.1523 -0.901803 -0.292328 0
M  V30 219 H 20.8583 -3.11554 -1.63178 0
M  V30 220 H 20.7323 -2.15567 -3.09533 0
M  V30 221 H 23.1193 -1.26048 -2.66825 0
M  V30 222 H 23.2003 -2.25523 -1.20718 0
M  V30 223 H 22.8443 -4.34195 -2.63509 0
M  V30 224 H 22.7743 -3.31665 -4.09031 0
M  V30 225 H 25.2653 -2.67997 -2.66432 0
M  V30 226 H 25.5783 -5.90337 -4.98721 0
M  V30 227 H 23.9233 -5.30457 -4.49044 0
M  V30 228 H 27.1143 -3.3785 -3.23998 0
M  V30 229 H 27.2873 -4.84825 -4.2994 0
M  V30 230 N 20.6934 1.19889 -1.02296 0
M  V30 231 C 21.6434 2.20777 -0.56934 0
M  V30 232 C 22.6274 1.56379 0.378741 0
M  V30 233 O 23.8194 1.75859 0.200673 0
M  V30 234 C 20.9484 3.43196 0.0845077 0
M  V30 235 C 20.0344 4.14749 -0.88566 0
M  V30 236 N 20.4254 4.62584 -2.04573 0
M  V30 237 C 18.7234 4.40347 -0.707835 0
M  V30 238 C 19.4244 5.17466 -2.65714 0
M  V30 239 N 18.4004 5.0791 -1.93723 0
M  V30 240 H 22.2024 2.55434 -1.45365 0
M  V30 241 H 19.7164 1.35897 -0.88915 0
M  V30 242 H 21.7134 4.14707 0.427067 0
M  V30 243 H 20.3734 3.10042 0.964574 0
M  V30 244 H 21.3844 4.57597 -2.4254 0
M  V30 245 H 18.0614 4.17317 0.12364 0
M  V30 246 H 19.4514 5.64808 -3.63925 0
M  V30 247 N 22.1715 0.800033 1.35784 0
M  V30 248 C 23.4485 0.30088 1.93272 0
M  V30 249 C 23.8285 -1.20857 1.73081 0
M  V30 250 O 23.1765 -2.00502 1.09596 0
M  V30 251 C 23.3865 0.70511 3.41803 0
M  V30 252 C 24.7345 0.690871 4.18942 0
M  V30 253 O 25.7585 0.646244 3.50289 0
M  V30 254 O 24.6175 0.74332 5.41421 0
M  V30 255 H 21.7115 0.0771605 0.823393 0
M  V30 256 H 24.2575 0.88329 1.449 0
M  V30 257 H 23.0295 1.74571 3.50201 0
M  V30 258 H 22.6525 0.0971541 3.97481 0
M  V30 259 N 23.6496 -1.47581 0.552962 0
M  V30 260 C 24.5596 -2.33743 -0.200353 0
M  V30 261 C 25.5756 -1.47928 -0.916151 0
M  V30 262 O 26.7516 -1.80865 -0.885993 0
M  V30 263 C 23.8166 -3.24536 -1.21973 0
M  V30 264 C 22.8776 -4.26238 -0.511819 0
M  V30 265 C 22.1106 -5.12693 -1.48263 0
M  V30 266 O 22.3336 -5.01525 -2.71714 0
M  V30 267 O 21.2676 -5.93375 -1.00945 0
M  V30 268 H 25.0936 -2.9945 0.506304 0
M  V30 269 H 22.6786 -1.46071 0.313622 0
M  V30 270 H 24.5606 -3.80631 -1.80827 0
M  V30 271 H 23.2356 -2.61462 -1.90839 0
M  V30 272 H 22.1426 -3.73914 0.117799 0
M  V30 273 H 23.4756 -4.92014 0.135308 0
M  V30 274 N 25.1277 -0.289203 -1.54924 0
M  V30 275 C 26.0747 0.592115 -2.23075 0
M  V30 276 C 27.0447 1.13881 -1.20915 0
M  V30 277 O 28.2297 1.18551 -1.495 0
M  V30 278 C 25.3697 1.76376 -2.96623 0
M  V30 279 C 24.4827 1.24959 -4.13533 0
M  V30 280 C 23.6177 2.38416 -4.74691 0
M  V30 281 C 22.6567 1.84072 -5.83767 0
M  V30 282 N 21.7937 2.91057 -6.38929 0
M  V30 283 H 26.6337 0.00432038 -2.98 0
M  V30 284 H 24.1707 -0.00963529 -1.47097 0
M  V30 285 H 26.1287 2.45268 -3.3749 0
M  V30 286 H 24.7587 2.32337 -2.24097 0
M  V30 287 H 23.8107 0.453307 -3.77689 0
M  V30 288 H 25.1227 0.811662 -4.92152 0
M  V30 289 H 24.2767 3.15276 -5.18349 0
M  V30 290 H 23.0157 2.8553 -3.95378 0
M  V30 291 H 22.0207 1.05697 -5.39545 0
M  V30 292 H 23.2457 1.37877 -6.64956 0
M  V30 293 H 21.1917 3.37526 -5.62505 0
M  V30 294 H 21.1087 2.51724 -7.12861 0
M  V30 295 H 22.3767 3.6785 -6.87246 0
M  V30 296 N 26.6058 1.57591 -0.0167156 0
M  V30 297 C 28.0218 1.55946 0.339557 0
M  V30 298 C 28.2218 1.02109 1.73713 0
M  V30 299 O 27.2778 0.662303 2.43659 0
M  V30 300 C 28.5908 3.00037 0.199499 0
M  V30 301 C 30.1388 3.11805 0.273193 0
M  V30 302 C 30.6138 4.57713 0.162068 0
M  V30 303 N 32.1048 4.6268 0.219444 0
M  V30 304 C 32.8398 5.73185 0.157054 0
M  V30 305 N 32.3358 6.92786 0.0442936 0
M  V30 306 N 34.1288 5.61707 0.21014 0
M  V30 307 H 26.2798 1.90921 -0.930758 0
M  V30 308 H 28.5428 0.877674 -0.358319 0
M  V30 309 H 28.2488 3.4333 -0.76273 0
M  V30 310 H 28.1228 3.64387 0.974786 0
M  V30 311 H 30.5098 2.68433 1.22587 0
M  V30 312 H 30.5908 2.50201 -0.532256 0
M  V30 313 H 30.2348 5.01763 -0.78714 0
M  V30 314 H 30.1648 5.17283 0.986222 0
M  V30 315 H 32.6558 3.76649 0.307246 0
M  V30 316 H 32.9688 7.728 0.00304069 0
M  V30 317 H 31.3138 6.94999 0.00968457 0
M  V30 318 H 34.5048 4.6716 0.296546 0
M  V30 319 H 34.6778 6.47807 0.158054 0
M  V30 320 N 28.0839 -0.256276 1.55502 0
M  V30 321 C 29.0319 -1.33694 1.90338 0
M  V30 322 C 30.0259 -1.50299 0.781441 0
M  V30 323 O 31.2319 -1.51885 0.965966 0
M  V30 324 H 27.6069 -0.447483 0.60437 0
M  V30 325 H 29.5779 -1.01574 2.8058 0
M  V30 326 C 28.3269 -2.68724 2.20642 0
M  V30 327 H 27.6499 -2.56743 3.06469 0
M  V30 328 H 29.0899 -3.43237 2.48926 0
M  V30 329 C 27.5489 -3.21101 1.01959 0
M  V30 330 O 28.0789 -4.0084 0.262762 0
M  V30 331 N 26.2849 -2.79003 0.812746 0
M  V30 332 H 25.8319 -2.14271 1.42989 0
M  V30 333 H 25.7899 -3.14393 0.0203076 0
M  V30 334 N 29.562 -1.4872 -0.521534 0
M  V30 335 C 30.811 -1.56419 -1.27341 0
M  V30 336 C 31.124 -0.246805 -1.94037 0
M  V30 337 O 32.33 -0.202122 -2.70747 0
M  V30 338 C 30.786 -2.75896 -2.31105 0
M  V30 339 C 30.394 -4.14311 -1.70441 0
M  V30 340 C 32.138 -2.92913 -3.07249 0
M  V30 341 C 30.045 -5.25038 -2.72194 0
M  V30 342 H 28.975 -0.582344 -0.478949 0
M  V30 343 H 31.626 -1.75071 -0.549779 0
M  V30 344 H 30.008 -2.50697 -3.06541 0
M  V30 345 H 31.182 -4.49564 -1.01136 0
M  V30 346 H 29.497 -4.02482 -1.06759 0
M  V30 347 H 32.094 -3.72805 -3.83302 0
M  V30 348 H 32.437 -2.02689 -3.63625 0
M  V30 349 H 32.97 -3.18054 -2.38928 0
M  V30 350 H 29.709 -6.17255 -2.20627 0
M  V30 351 H 29.229 -4.94263 -3.39801 0
M  V30 352 H 30.908 -5.53508 -3.35019 0
M  V30 353 N 31.0401 0.771051 -1.3745 0
M  V30 354 C 32.2701 1.55789 -1.35696 0
M  V30 355 C 32.6781 1.89107 0.0594523 0
M  V30 356 O 32.0211 1.51984 1.03183 0
M  V30 357 C 32.0831 2.89515 -2.13123 0
M  V30 358 C 31.7471 2.78829 -3.62082 0
M  V30 359 C 32.7441 2.49812 -4.5595 0
M  V30 360 C 30.4291 2.9683 -4.05213 0
M  V30 361 C 32.4231 2.38923 -5.90927 0
M  V30 362 C 30.1101 2.85562 -5.40276 0
M  V30 363 C 31.1081 2.56649 -6.32946 0
M  V30 364 O 30.7961 2.45408 -7.65526 0
M  V30 365 H 30.5281 0.489257 -0.466481 0
M  V30 366 H 33.0821 0.963446 -1.81403 0
M  V30 367 H 31.3121 3.51081 -1.62107 0
M  V30 368 H 33.0011 3.50915 -2.03994 0
M  V30 369 H 33.7671 2.3559 -4.23937 0
M  V30 370 H 29.6461 3.18335 -3.33442 0
M  V30 371 H 33.1901 2.16277 -6.63227 0
M  V30 372 H 29.0871 2.99351 -5.71891 0
M  V30 373 H 29.8551 2.60753 -7.75855 0
M  V30 374 N 32.5182 1.22032 0.997298 0
M  V30 375 C 33.4502 0.944263 2.08845 0
M  V30 376 C 34.4632 -0.0754663 1.62625 0
M  V30 377 O 35.6522 0.157994 1.77799 0
M  V30 378 C 32.7522 0.397723 3.36558 0
M  V30 379 C 31.9252 1.47362 4.11829 0
M  V30 380 C 30.9842 0.934951 5.17827 0
M  V30 381 O 30.0102 1.62016 5.45655 0
M  V30 382 N 31.2122 -0.245895 5.79979 0
M  V30 383 H 33.9772 1.88363 2.33109 0
M  V30 384 H 31.5382 1.12661 1.16272 0
M  V30 385 H 33.5302 0.0227771 4.04694 0
M  V30 386 H 32.1002 -0.446646 3.09393 0
M  V30 387 H 31.3202 2.02208 3.38386 0
M  V30 388 H 32.6082 2.19764 4.58891 0
M  V30 389 H 32.0062 -0.819475 5.59733 0
M  V30 390 H 30.5632 -0.562272 6.4937 0
M  V30 391 N 33.9963 -1.19345 1.0293 0
M  V30 392 C 34.9433 -2.2258 0.610464 0
M  V30 393 C 35.9133 -1.6179 -0.375946 0
M  V30 394 O 37.0983 -1.88844 -0.272511 0
M  V30 395 C 34.2383 -3.45085 -0.0321473 0
M  V30 396 C 33.3513 -4.20258 1.00035 0
M  V30 397 C 32.4863 -5.3019 0.32746 0
M  V30 398 C 31.5253 -5.97121 1.34584 0
M  V30 399 N 30.6623 -6.98615 0.698726 0
M  V30 400 H 35.5023 -2.57764 1.49538 0
M  V30 401 H 33.0393 -1.26644 0.748311 0
M  V30 402 H 34.9973 -4.15061 -0.421966 0
M  V30 403 H 33.6273 -3.10555 -0.88064 0
M  V30 404 H 32.6793 -3.49223 1.50823 0
M  V30 405 H 33.9913 -4.66175 1.77433 0
M  V30 406 H 33.1453 -6.06587 -0.11718 0
M  V30 407 H 31.8843 -4.85345 -0.478713 0
M  V30 408 H 30.8893 -5.19474 1.80074 0
M  V30 409 H 32.1143 -6.4405 2.15352 0
M  V30 410 H 30.0603 -6.55942 -0.0873471 0
M  V30 411 H 29.9773 -7.42724 1.41058 0
M  V30 412 H 31.2453 -7.79004 0.278102 0
M  V30 413 N 35.4744 -0.807222 -1.35358 0
M  V30 414 C 36.7234 -0.384376 -1.98004 0
M  V30 415 C 37.0364 1.0543 -1.64754 0
M  V30 416 O 38.2424 1.58029 -2.20769 0
M  V30 417 C 36.6984 -0.636326 -3.5423 0
M  V30 418 C 36.3064 -2.08759 -3.96388 0
M  V30 419 C 38.0504 -0.278869 -4.23583 0
M  V30 420 C 35.9574 -2.28525 -5.45463 0
M  V30 421 H 34.8874 -0.139986 -0.740891 0
M  V30 422 H 37.5384 -0.991369 -1.54415 0
M  V30 423 H 35.9204 0.0406256 -3.95979 0
M  V30 424 H 37.0944 -2.8024 -3.6579 0
M  V30 425 H 35.4094 -2.40497 -3.39926 0
M  V30 426 H 38.0064 -0.404599 -5.33167 0
M  V30 427 H 38.3494 0.775012 -4.09022 0
M  V30 428 H 38.8824 -0.909764 -3.87257 0
M  V30 429 H 35.6214 -3.32361 -5.64992 0
M  V30 430 H 35.1414 -1.61569 -5.77629 0
M  V30 431 H 36.8204 -2.10109 -6.11934 0
M  V30 432 N 36.9525 1.47285 -0.560781 0
M  V30 433 C 38.3685 1.58065 -0.22081 0
M  V30 434 C 38.5685 1.55892 1.27671 0
M  V30 435 O 37.6245 1.46422 2.0571 0
M  V30 436 C 38.9375 2.88418 -0.850625 0
M  V30 437 C 40.4855 3.02009 -0.822184 0
M  V30 438 C 40.9605 4.35066 -1.43113 0
M  V30 439 N 42.4515 4.41711 -1.39448 0
M  V30 440 C 43.1865 5.43237 -1.83525 0
M  V30 441 N 42.6825 6.51555 -2.35474 0
M  V30 442 N 44.4755 5.34304 -1.74574 0
M  V30 443 H 36.6265 1.46941 -1.53369 0
M  V30 444 H 38.8895 0.699558 -0.639783 0
M  V30 445 H 38.5955 2.95755 -1.9032 0
M  V30 446 H 38.4695 3.75612 -0.345773 0
M  V30 447 H 40.8565 2.94266 0.221714 0
M  V30 448 H 40.9375 2.16347 -1.36483 0
M  V30 449 H 40.5815 4.43565 -2.47412 0
M  V30 450 H 40.5115 5.19465 -0.863899 0
M  V30 451 H 43.0025 3.64027 -1.01452 0
M  V30 452 H 43.3155 7.25203 -2.67021 0
M  V30 453 H 41.6605 6.52435 -2.39487 0
M  V30 454 H 44.8515 4.48581 -1.33763 0
M  V30 455 H 45.0245 6.13288 -2.09242 0
M  V30 456 N 38.4306 0.297415 1.54768 0
M  V30 457 C 39.7076 -0.365847 1.92148 0
M  V30 458 C 40.0876 -1.71975 1.22424 0
M  V30 459 O 39.4356 -2.25666 0.358739 0
M  V30 460 C 39.6456 -0.484056 3.45627 0
M  V30 461 C 40.9936 -0.756594 4.17805 0
M  V30 462 O 42.0176 -0.568007 3.51642 0
M  V30 463 O 40.8766 -1.11863 5.34929 0
M  V30 464 H 37.9706 -0.203919 0.801465 0
M  V30 465 H 40.5166 0.34521 1.66152 0
M  V30 466 H 39.2886 0.467865 3.88493 0
M  V30 467 H 38.9116 -1.24372 3.77647 0
M  V30 468 N 39.9087 -1.5758 0.0250728 0
M  V30 469 C 40.8587 -2.06468 -0.967201 0
M  V30 470 C 41.8427 -0.964376 -1.28797 0
M  V30 471 O 43.0347 -1.22797 -1.27475 0
M  V30 472 C 40.1637 -2.59203 -2.25097 0
M  V30 473 C 39.2497 -3.76157 -1.95874 0
M  V30 474 N 39.6407 -4.86919 -1.36905 0
M  V30 475 C 37.9387 -3.84566 -2.25887 0
M  V30 476 C 38.6397 -5.68172 -1.24724 0
M  V30 477 N 37.6157 -5.14953 -1.74138 0
M  V30 478 H 41.4177 -2.89508 -0.506176 0
M  V30 479 H 38.9317 -1.61399 -0.18004 0
M  V30 480 H 40.9287 -2.92517 -2.97052 0
M  V30 481 H 39.5887 -1.77592 -2.71829 0
M  V30 482 H 40.5997 -5.07256 -1.04459 0
M  V30 483 H 37.2767 -3.13854 -2.75321 0
M  V30 484 H 38.6667 -6.67221 -0.791605 0
M  V30 485 N 41.3868 0.248026 -1.55636 0
M  V30 486 C 42.6638 0.998988 -1.68165 0
M  V30 487 C 43.0438 2.03409 -0.564621 0
M  V30 488 O 42.3918 2.24378 0.432076 0
M  V30 489 C 42.6018 1.63334 -3.0842 0
M  V30 490 C 43.9498 2.13562 -3.66983 0
M  V30 491 O 44.9738 1.73277 -3.11213 0
M  V30 492 O 43.8328 2.87526 -4.64749 0
M  V30 493 H 40.9268 0.464933 -0.683935 0
M  V30 494 H 43.4728 0.241902 -1.67967 0
M  V30 495 H 42.2448 0.884583 -3.8117 0
M  V30 496 H 41.8678 2.45666 -3.12624 0
M  V30 497 N 42.8649 1.48995 0.513639 0
M  V30 498 C 43.7949 1.67636 1.62544 0
M  V30 499 C 44.7759 0.525087 1.61793 0
M  V30 500 O 45.9609 0.759502 1.78732 0
M  V30 501 C 43.0909 1.73114 3.01079 0
M  V30 502 C 42.0449 2.87905 3.16693 0
M  V30 503 C 41.3709 2.78486 4.56453 0
M  V30 504 C 42.6709 4.29005 2.97913 0
M  V30 505 H 44.3649 2.60716 1.47198 0
M  V30 506 H 41.9109 1.25465 0.706714 0
M  V30 507 H 43.8639 1.84742 3.78746 0
M  V30 508 H 42.5879 0.766241 3.17484 0
M  V30 509 H 41.2469 2.75859 2.41448 0
M  V30 510 H 40.8949 1.7993 4.69717 0
M  V30 511 H 40.5949 3.55523 4.67843 0
M  V30 512 H 42.1189 2.92104 5.36197 0
M  V30 513 H 43.5329 4.41798 3.65359 0
M  V30 514 H 41.9299 5.07166 3.20785 0
M  V30 515 H 42.9999 4.44329 1.94165 0
M  V30 516 N 44.343 -0.763751 1.37857 0
M  V30 517 C 45.273 -1.89103 1.36975 0
M  V30 518 C 46.254 -1.68439 0.237152 0
M  V30 519 O 47.439 -1.8918 0.438713 0
M  V30 520 C 44.569 -3.26496 1.18395 0
M  V30 521 C 43.523 -3.61741 2.28751 0
M  V30 522 C 42.849 -4.97762 1.95286 0
M  V30 523 C 44.149 -3.67665 3.70972 0
M  V30 524 H 45.843 -1.90099 2.31307 0
M  V30 525 H 43.389 -0.91319 1.11341 0
M  V30 526 H 45.342 -4.05003 1.16406 0
M  V30 527 H 44.066 -3.25955 0.205215 0
M  V30 528 H 42.725 -2.85547 2.29909 0
M  V30 529 H 42.373 -4.93769 0.959221 0
M  V30 530 H 42.073 -5.22313 2.69189 0
M  V30 531 H 43.597 -5.7866 1.94898 0
M  V30 532 H 45.011 -4.36307 3.719 0
M  V30 533 H 43.408 -4.03718 4.43995 0
M  V30 534 H 44.478 -2.68134 4.0402 0
M  V30 535 N 45.8211 -1.22559 -0.990812 0
M  V30 536 C 47.0981 -0.959875 -1.70428 0
M  V30 537 C 47.4781 0.524455 -2.04481 0
M  V30 538 O 46.8261 1.49302 -1.72977 0
M  V30 539 C 47.0361 -1.85955 -2.95333 0
M  V30 540 C 48.3841 -2.11687 -3.68068 0
M  V30 541 O 49.4081 -1.8342 -3.05345 0
M  V30 542 O 48.2671 -2.59572 -4.80921 0
M  V30 543 H 45.3611 -0.361154 -0.743974 0
M  V30 544 H 47.9071 -1.33554 -1.04697 0
M  V30 545 H 46.6791 -2.86346 -2.66687 0
M  V30 546 H 46.3021 -1.4856 -3.68803 0
M  V30 547 N 47.2992 1.18797 -1.03562 0
M  V30 548 C 48.2462 2.22253 -0.622259 0
M  V30 549 C 49.2162 1.61987 0.36736 0
M  V30 550 O 50.4012 1.88986 0.262492 0
M  V30 551 C 47.5412 3.45097 0.0138462 0
M  V30 552 C 46.6542 4.19722 -1.02263 0
M  V30 553 C 45.7892 5.30009 -0.355573 0
M  V30 554 C 44.8282 5.96399 -1.37749 0
M  V30 555 N 43.9652 6.98234 -0.735766 0
M  V30 556 H 48.8052 2.56968 -1.50903 0
M  V30 557 H 46.3422 1.26245 -0.755017 0
M  V30 558 H 48.3002 4.15279 0.399948 0
M  V30 559 H 46.9302 3.11018 0.864158 0
M  V30 560 H 45.9822 3.48418 -1.52673 0
M  V30 561 H 47.2942 4.65227 -1.79903 0
M  V30 562 H 46.4482 6.0664 0.0850095 0
M  V30 563 H 45.1872 4.85592 0.452967 0
M  V30 564 H 44.1922 5.18512 -1.82826 0
M  V30 565 H 45.4172 6.42899 -2.18764 0
M  V30 566 H 43.3632 6.55979 0.0525597 0
M  V30 567 H 43.2802 7.41965 -1.44995 0
M  V30 568 H 44.5482 7.78845 -0.31941 0
M  V30 569 N 48.7773 0.814389 1.34928 0
M  V30 570 C 50.1933 0.499084 1.51596 0
M  V30 571 C 50.3933 -0.978319 1.76157 0
M  V30 572 O 49.4493 -1.76309 1.80752 0
M  V30 573 C 50.7623 1.35121 2.68631 0
M  V30 574 C 52.3103 1.34746 2.82511 0
M  V30 575 C 52.7853 2.18388 4.0258 0
M  V30 576 N 54.2763 2.15966 4.09772 0
M  V30 577 C 55.0113 2.77437 5.01813 0
M  V30 578 N 54.5073 3.47866 5.99134 0
M  V30 579 N 56.3003 2.67037 4.94619 0
M  V30 580 H 48.4513 1.7711 1.17243 0
M  V30 581 H 50.7143 0.754256 0.574284 0
M  V30 582 H 50.4203 2.40001 2.57085 0
M  V30 583 H 50.2943 1.00991 3.63429 0
M  V30 584 H 52.6813 0.30648 2.93504 0
M  V30 585 H 52.7623 1.72869 1.88547 0
M  V30 586 H 52.4063 3.2253 3.92347 0
M  V30 587 H 52.3363 1.77621 4.9574 0
M  V30 588 H 54.8273 1.64729 3.40107 0
M  V30 589 H 55.1403 3.92038 6.65977 0
M  V30 590 H 53.4853 3.51972 5.99284 0
M  V30 591 H 56.6763 2.11597 4.17546 0
M  V30 592 H 56.8493 3.15232 5.66156 0
M  V30 593 N 50.2554 -1.46986 0.568584 0
M  V30 594 C 51.2024 -2.30153 -0.172707 0
M  V30 595 C 52.1724 -1.39759 -0.897586 0
M  V30 596 O 53.3574 -1.68716 -0.891044 0
M  V30 597 C 50.4974 -3.23952 -1.1895 0
M  V30 598 C 49.6104 -4.29441 -0.469517 0
M  V30 599 C 48.7454 -5.1038 -1.47259 0
M  V30 600 C 47.7844 -6.07632 -0.738225 0
M  V30 601 N 46.9214 -6.8149 -1.68868 0
M  V30 602 H 51.7614 -2.93019 0.542596 0
M  V30 603 H 49.2984 -1.44422 0.279401 0
M  V30 604 H 51.2564 -3.76767 -1.79173 0
M  V30 605 H 49.8864 -2.62926 -1.87269 0
M  V30 606 H 48.9384 -3.79594 0.247467 0
M  V30 607 H 50.2504 -4.98689 0.105241 0
M  V30 608 H 49.4044 -5.67402 -2.14803 0
M  V30 609 H 48.1434 -4.4106 -2.08128 0
M  V30 610 H 47.1484 -5.49778 -0.0489293 0
M  V30 611 H 48.3734 -6.78966 -0.135129 0
M  V30 612 H 46.3194 -6.14891 -2.28573 0
M  V30 613 H 46.2364 -7.46948 -1.16636 0
M  V30 614 H 47.5044 -7.43078 -2.3549 0
M  V30 615 N 51.7335 -0.305618 -1.54608 0
M  V30 616 C 52.9615 0.304775 -2.04643 0
M  V30 617 C 53.3765 1.47167 -1.18268 0
M  V30 618 O 52.7335 1.81296 -0.209328 0
M  V30 619 C 52.7845 0.756564 -3.53495 0
M  V30 620 O 52.5055 -0.36389 -4.36586 0
M  V30 621 C 54.0065 1.43163 -4.19546 0
M  V30 622 H 51.2265 0.0655481 -0.667791 0
M  V30 623 H 53.7705 -0.446592 -1.99564 0
M  V30 624 H 51.9255 1.45794 -3.58919 0
M  V30 625 H 52.3395 -0.0113121 -5.24499 0
M  V30 626 H 53.8135 1.69886 -5.25207 0
M  V30 627 H 54.2905 2.37318 -3.69563 0
M  V30 628 H 54.8965 0.773307 -4.18211 0
M  V30 629 N 53.2116 1.57565 -0.0334293 0
M  V30 630 C 54.4576 1.92262 0.645226 0
M  V30 631 C 54.7906 0.910543 1.71531 0
M  V30 632 O 54.0656 -0.066099 1.94388 0
M  V30 633 C 54.3486 3.37422 1.2577 0
M  V30 634 C 54.2016 4.49369 0.196891 0
M  V30 635 C 55.5206 3.82628 2.17449 0
M  V30 636 H 52.6396 0.699171 0.233085 0
M  V30 637 H 55.2816 1.89779 -0.0915694 0
M  V30 638 H 53.4316 3.39669 1.88566 0
M  V30 639 H 55.1036 4.59254 -0.433962 0
M  V30 640 H 53.3466 4.31168 -0.477137 0
M  V30 641 H 54.0176 5.47978 0.665124 0
M  V30 642 H 56.4936 3.82145 1.64634 0
M  V30 643 H 55.3696 4.84883 2.57254 0
M  V30 644 H 55.6306 3.18376 3.0674 0
M  V30 645 N 54.6897 -0.239769 1.55765 0
M  V30 646 C 55.9177 -0.98417 1.81994 0
M  V30 647 C 56.3327 -1.7867 0.610124 0
M  V30 648 O 55.6897 -1.77571 -0.421271 0
M  V30 649 C 55.7407 -1.91635 3.06526 0
M  V30 650 O 55.4617 -1.14629 4.22838 0
M  V30 651 C 56.9627 -2.77616 3.45607 0
M  V30 652 H 54.1827 -0.28928 0.605441 0
M  V30 653 H 56.7267 -0.260499 2.02834 0
M  V30 654 H 54.8817 -2.5942 2.87715 0
M  V30 655 H 55.2957 -1.77745 4.93464 0
M  V30 656 H 56.7697 -3.38759 4.35828 0
M  V30 657 H 57.2467 -3.4909 2.6652 0
M  V30 658 H 57.8527 -2.15271 3.66795 0
M  V30 659 N 56.1678 -1.49265 -0.50573 0
M  V30 660 C 57.1308 -1.65075 -1.59006 0
M  V30 661 C 58.1308 -0.522768 -1.52065 0
M  V30 662 O 59.3208 -0.789117 -1.55302 0
M  V30 663 C 56.4528 -1.64369 -2.98656 0
M  V30 664 H 57.6458 -2.61784 -1.46319 0
M  V30 665 H 55.1988 -1.38226 -0.729616 0
M  V30 666 H 55.9338 -0.692272 -3.16825 0
M  V30 667 H 55.7188 -2.46282 -3.05103 0
M  V30 668 H 57.2088 -1.78674 -3.77446 0
M  V30 669 N 57.6459 0.756429 -1.3826 0
M  V30 670 C 58.5759 1.88374 -1.37976 0
M  V30 671 C 59.5569 1.68311 -0.246082 0
M  V30 672 O 60.7419 1.88944 -0.44874 0
M  V30 673 C 57.8719 3.25864 -1.20125 0
M  V30 674 C 56.8259 3.60523 -2.30666 0
M  V30 675 C 56.1519 4.9672 -1.97923 0
M  V30 676 C 57.4519 3.65692 -3.72916 0
M  V30 677 H 59.1459 1.88869 -2.32312 0
M  V30 678 H 56.6919 0.907272 -1.11824 0
M  V30 679 H 58.6449 4.0438 -1.18552 0
M  V30 680 H 57.3689 3.25841 -0.222498 0
M  V30 681 H 56.0279 2.84324 -2.3142 0
M  V30 682 H 55.6759 4.93253 -0.985393 0
M  V30 683 H 55.3759 5.20878 -2.71955 0
M  V30 684 H 56.8999 5.77618 -1.97964 0
M  V30 685 H 58.3139 4.34328 -3.74208 0
M  V30 686 H 56.7109 4.01358 -4.4613 0
M  V30 687 H 57.7809 2.65987 -4.05436 0
M  V30 688 N 59.124 1.23083 0.984299 0
M  V30 689 C 60.071 1.00854 2.07598 0
M  V30 690 C 61.041 -0.0726709 1.65941 0
M  V30 691 O 62.226 0.0786535 1.90638 0
M  V30 692 C 59.366 0.601645 3.39815 0
M  V30 693 C 58.479 1.75456 3.94765 0
M  V30 694 C 57.614 1.29482 5.15177 0
M  V30 695 C 56.653 2.41873 5.62284 0
M  V30 696 N 55.79 1.96885 6.73929 0
M  V30 697 H 60.63 1.943 2.25946 0
M  V30 698 H 58.167 0.968001 1.10762 0
M  V30 699 H 60.125 0.346854 4.15756 0
M  V30 700 H 58.755 -0.295803 3.21442 0
M  V30 701 H 57.807 2.12346 3.15616 0
M  V30 702 H 59.119 2.59965 4.25699 0
M  V30 703 H 58.273 0.997923 5.98437 0
M  V30 704 H 57.012 0.420046 4.85888 0
M  V30 705 H 56.017 2.72342 4.77608 0
M  V30 706 H 57.242 3.29881 5.93595 0
M  V30 707 H 55.188 1.11782 6.46406 0
M  V30 708 H 55.105 2.74956 7.04227 0
M  V30 709 H 56.373 1.70289 7.60672 0
M  V30 710 N 60.6021 -1.18246 1.0419 0
M  V30 711 C 61.5651 -2.20128 0.638452 0
M  V30 712 C 62.5651 -1.57885 -0.304805 0
M  V30 713 O 63.7551 -1.73967 -0.0900369 0
M  V30 714 C 60.8871 -3.4084 -0.0637751 0
M  V30 715 H 62.0801 -2.57336 1.54007 0
M  V30 716 H 59.6331 -1.32152 0.834598 0
M  V30 717 H 60.3681 -3.09166 -0.979136 0
M  V30 718 H 60.1531 -3.8726 0.614198 0
M  V30 719 H 61.6431 -4.16274 -0.332512 0
M  V30 720 N 62.0802 -0.821533 -1.34494 0
M  V30 721 C 63.3282 -0.408139 -1.97936 0
M  V30 722 C 63.6492 1.03193 -1.65457 0
M  V30 723 O 62.9192 1.71622 -0.944595 0
M  V30 724 H 61.4992 -0.147928 -0.732206 0
M  V30 725 H 64.1612 -1.05067 -1.64155 0
M  V30 726 H 63.2572 -0.52601 -3.07635 0
M  V30 727 N 63.5583 1.46682 -0.576371 0
M  V30 728 C 64.4683 2.34032 0.163141 0
M  V30 729 C 65.4843 1.49367 0.892501 0
M  V30 730 O 66.6603 1.82252 0.857106 0
M  V30 731 C 63.7253 3.26435 1.16795 0
M  V30 732 C 62.7863 4.26998 0.443944 0
M  V30 733 C 62.0193 5.14986 1.40088 0
M  V30 734 O 62.2423 5.05785 2.637 0
M  V30 735 O 61.1763 5.94906 0.914917 0
M  V30 736 H 65.0023 2.98607 -0.55388 0
M  V30 737 H 62.5873 1.45554 -0.336821 0
M  V30 738 H 64.4693 3.83459 1.74748 0
M  V30 739 H 63.1443 2.64465 1.86655 0
M  V30 740 H 62.0513 3.7368 -0.177271 0
M  V30 741 H 63.3843 4.91736 -0.213566 0
M  V30 742 N 65.0364 0.313813 1.54444 0
M  V30 743 C 66.3134 -0.345447 1.92525 0
M  V30 744 C 66.6934 -1.70667 1.24242 0
M  V30 745 O 66.0414 -2.25273 0.382654 0
M  V30 746 C 66.2514 -0.44737 3.46121 0
M  V30 747 C 67.5994 -0.712238 4.18584 0
M  V30 748 O 68.6234 -0.530678 3.52225 0
M  V30 749 O 67.4824 -1.06183 5.36085 0
M  V30 750 H 64.5764 -0.195407 0.803583 0
M  V30 751 H 67.1224 0.362813 1.65776 0
M  V30 752 H 65.8944 0.509043 3.87975 0
M  V30 753 H 65.5174 -1.20359 3.78945 0
M  V30 754 N 66.5145 -1.57545 0.0417849 0
M  V30 755 C 67.9305 -1.56467 -0.314704 0
M  V30 756 C 68.1305 -1.04859 -1.72066 0
M  V30 757 O 67.1865 -0.700983 -2.42575 0
M  V30 758 C 68.4995 -3.00317 -0.15174 0
M  V30 759 C 70.0475 -3.12201 -0.223553 0
M  V30 760 C 70.5225 -4.57913 -0.0892295 0
M  V30 761 N 72.0135 -4.6297 -0.145808 0
M  V30 762 C 72.7485 -5.73362 -0.0658459 0
M  V30 763 N 72.2445 -6.92769 0.0659282 0
M  V30 764 N 74.0375 -5.6197 -0.12075 0
M  V30 765 H 66.1885 -1.89416 0.961014 0
M  V30 766 H 68.4515 -0.871862 0.372237 0
M  V30 767 H 68.1575 -3.42073 0.817254 0
M  V30 768 H 68.0315 -3.65892 -0.916692 0
M  V30 769 H 70.4185 -2.70349 -1.18301 0
M  V30 770 H 70.4995 -2.49323 0.571994 0
M  V30 771 H 70.1435 -5.00448 0.866867 0
M  V30 772 H 70.0735 -5.18786 -0.903802 0
M  V30 773 H 72.5645 -3.7709 -0.247286 0
M  V30 774 H 72.8775 -7.72707 0.119905 0
M  V30 775 H 71.2225 -6.94927 0.100885 0
M  V30 776 H 74.4135 -4.67572 -0.222187 0
M  V30 777 H 74.5865 -6.47977 -0.0549735 0
M  V30 778 N 67.9926 0.231505 -1.5589 0
M  V30 779 C 68.9556 1.27028 -1.90779 0
M  V30 780 C 69.9556 1.40308 -0.785507 0
M  V30 781 O 71.1456 1.38744 -1.05336 0
M  V30 782 C 68.2776 2.64566 -2.14983 0
M  V30 783 H 69.4706 0.973017 -2.83677 0
M  V30 784 H 67.0236 0.471486 -1.49019 0
M  V30 785 H 67.7586 2.99406 -1.24604 0
M  V30 786 H 67.5436 2.56305 -2.96732 0
M  V30 787 H 69.0336 3.39543 -2.43105 0
M  V30 788 N 69.4707 1.49531 0.497807 0
M  V30 789 C 70.7197 1.58426 1.24837 0
M  V30 790 C 71.0327 0.277643 1.93619 0
M  V30 791 O 72.2387 0.24517 2.70391 0
M  V30 792 C 70.6947 2.79538 2.26686 0
M  V30 793 C 70.3027 4.16971 1.63828 0
M  V30 794 C 72.0467 2.97764 3.0255 0
M  V30 795 C 69.9537 5.29301 2.63807 0
M  V30 796 H 68.8837 0.58989 0.469623 0
M  V30 797 H 71.5347 1.75923 0.521857 0
M  V30 798 H 69.9167 2.55542 3.02514 0
M  V30 799 H 71.0907 4.51116 0.939711 0
M  V30 800 H 69.4057 4.04129 1.00342 0
M  V30 801 H 72.0027 3.78856 3.77323 0
M  V30 802 H 72.3457 2.08448 3.60354 0
M  V30 803 H 72.8787 3.21815 2.33838 0
M  V30 804 H 69.6177 6.20687 2.10779 0
M  V30 805 H 69.1377 4.99606 3.31894 0
M  V30 806 H 70.8167 5.58768 3.2617 0
M  V30 807 N 70.9488 -0.749086 1.3866 0
M  V30 808 C 71.8788 -1.8764 1.38973 0
M  V30 809 C 72.8598 -1.68178 0.255004 0
M  V30 810 O 74.0448 -1.88704 0.458754 0
M  V30 811 C 71.1748 -3.25222 1.21851 0
M  V30 812 C 70.1288 -3.59295 2.32575 0
M  V30 813 C 69.4548 -4.95663 2.00555 0
M  V30 814 C 70.7548 -3.63709 3.7485 0
M  V30 815 H 72.4488 -1.87635 2.3331 0
M  V30 816 H 69.9948 -0.901329 1.12303 0
M  V30 817 H 71.9478 -4.03746 1.20695 0
M  V30 818 H 70.6718 -3.25719 0.239775 0
M  V30 819 H 69.3308 -2.83093 2.32925 0
M  V30 820 H 68.9788 -4.92724 1.01154 0
M  V30 821 H 68.6788 -5.19429 2.74714 0
M  V30 822 H 70.2028 -5.7656 2.01024 0
M  V30 823 H 71.6168 -4.32338 3.76506 0
M  V30 824 H 70.0138 -3.98986 4.48252 0
M  V30 825 H 71.0838 -2.63834 4.06841 0
M  V30 826 N 72.4269 -1.23603 -0.977757 0
M  V30 827 C 73.3569 -1.04401 -2.0886 0
M  V30 828 C 74.3379 0.0399052 -1.70053 0
M  V30 829 O 75.5229 -0.125246 -1.93796 0
M  V30 830 C 72.6529 -0.637269 -3.41403 0
M  V30 831 C 71.6069 -1.66883 -3.94124 0
M  V30 832 C 70.9329 -1.11745 -5.22893 0
M  V30 833 C 72.2329 -3.06247 -4.23096 0
M  V30 834 H 73.9269 -1.97316 -2.25182 0
M  V30 835 H 71.4729 -0.950096 -1.08209 0
M  V30 836 H 73.4259 -0.48998 -4.18542 0
M  V30 837 H 72.1499 0.327557 -3.24953 0
M  V30 838 H 70.8089 -1.80416 -3.19133 0
M  V30 839 H 70.4569 -0.143527 -5.02795 0
M  V30 840 H 70.1569 -1.80672 -5.59134 0
M  V30 841 H 71.6809 -0.982067 -6.02651 0
M  V30 842 H 73.0949 -2.96001 -4.90975 0
M  V30 843 H 71.4919 -3.72436 -4.70544 0
M  V30 844 H 72.5619 -3.55041 -3.30263 0
M  V30 845 N 73.905 1.17692 -1.04816 0
M  V30 846 C 75.153 1.87488 -0.754497 0
M  V30 847 C 75.474 1.81205 0.720407 0
M  V30 848 O 74.744 1.23544 1.52032 0
M  V30 849 H 73.324 0.694101 -0.276102 0
M  V30 850 H 75.986 1.42793 -1.32651 0
M  V30 851 H 75.082 2.93328 -1.06606 0
M  V30 852 N 75.3831 0.828654 1.34056 0
M  V30 853 C 76.3131 0.269443 2.3194 0
M  V30 854 C 77.2941 -0.617247 1.58506 0
M  V30 855 O 78.4791 -0.542931 1.86456 0
M  V30 856 C 75.6091 -0.564793 3.42677 0
M  V30 857 C 74.5631 0.225241 4.27407 0
M  V30 858 C 73.8891 -0.7321 5.29664 0
M  V30 859 C 75.1891 1.43663 5.02154 0
M  V30 860 H 76.8831 1.08728 2.7896 0
M  V30 861 H 74.4291 0.524283 1.34117 0
M  V30 862 H 76.3821 -0.966233 4.10173 0
M  V30 863 H 75.1061 -1.41574 2.9432 0
M  V30 864 H 73.7651 0.608117 3.61521 0
M  V30 865 H 73.4131 -1.57916 4.77568 0
M  V30 866 H 73.1131 -0.20767 5.87233 0
M  V30 867 H 74.6371 -1.13128 6.00029 0
M  V30 868 H 76.0511 1.1089 5.62473 0
M  V30 869 H 74.4481 1.89711 5.69324 0
M  V30 870 H 75.5181 2.21181 4.31517 0
M  V30 871 N 76.8612 -1.46375 0.584142 0
M  V30 872 C 77.8242 -2.28784 -0.138108 0
M  V30 873 C 78.8242 -1.38471 -0.817462 0
M  V30 874 O 80.0142 -1.60833 -0.669199 0
M  V30 875 C 77.1462 -3.18892 -1.20503 0
M  V30 876 H 78.3392 -2.94117 0.586127 0
M  V30 877 H 75.8922 -1.52509 0.342171 0
M  V30 878 H 76.6272 -2.58309 -1.96079 0
M  V30 879 H 76.4122 -3.85388 -0.722384 0
M  V30 880 H 77.9022 -3.80914 -1.71155 0
M  V30 881 N 78.3393 -0.321999 -1.54275 0
M  V30 882 C 79.2723 0.58718 -2.20516 0
M  V30 883 C 80.2503 1.11693 -1.18167 0
M  V30 884 O 81.4343 1.18122 -1.46899 0
M  V30 885 C 78.5613 1.80554 -2.86562 0
M  V30 886 C 77.6073 1.40718 -4.02617 0
M  V30 887 S 78.4403 0.445218 -5.33646 0
M  V30 888 C 79.5963 1.6709 -6.03185 0
M  V30 889 H 79.8293 0.0244875 -2.9729 0
M  V30 890 H 77.3623 -0.106087 -1.54035 0
M  V30 891 H 79.3203 2.50462 -3.25237 0
M  V30 892 H 77.9813 2.33942 -2.09595 0
M  V30 893 H 77.1743 2.31501 -4.47687 0
M  V30 894 H 76.7763 0.78782 -3.65608 0
M  V30 895 H 79.0683 2.60856 -6.25268 0
M  V30 896 H 80.0113 1.26239 -6.96756 0
M  V30 897 H 80.4193 1.85716 -5.33076 0
M  V30 898 N 79.8174 1.5752 -0.0501392 0
M  V30 899 C 80.7504 2.07026 0.959962 0
M  V30 900 C 81.7284 0.970539 1.30458 0
M  V30 901 O 82.9124 1.2424 1.41763 0
M  V30 902 C 80.0394 2.5099 2.27424 0
M  V30 903 C 79.0854 3.72188 2.08275 0
M  V30 904 S 79.9184 5.17888 1.36207 0
M  V30 905 C 81.0744 5.65165 2.6896 0
M  V30 906 H 81.3074 2.9238 0.538631 0
M  V30 907 H 78.8404 1.53547 0.162099 0
M  V30 908 H 80.7984 2.76982 3.02971 0
M  V30 909 H 79.4594 1.65944 2.66686 0
M  V30 910 H 78.6524 4.00866 3.05487 0
M  V30 911 H 78.2544 3.46457 1.40868 0
M  V30 912 H 80.5464 5.70687 3.65133 0
M  V30 913 H 81.4894 6.64394 2.4492 0
M  V30 914 H 81.8974 4.9289 2.75172 0
M  V30 915 N 81.2955 -0.223234 1.56011 0
M  V30 916 C 82.5415 -0.949279 1.79211 0
M  V30 917 C 82.8745 -1.84054 0.619494 0
M  V30 918 O 82.1495 -1.90726 -0.381317 0
M  V30 919 C 82.4325 -1.78965 3.12479 0
M  V30 920 C 82.2855 -0.924997 4.40186 0
M  V30 921 C 83.6045 -2.76774 3.42175 0
M  V30 922 H 80.7235 -0.343676 0.651963 0
M  V30 923 H 83.3655 -0.218253 1.88742 0
M  V30 924 H 81.5155 -2.41291 3.04485 0
M  V30 925 H 83.1875 -0.318615 4.60198 0
M  V30 926 H 81.4305 -0.230344 4.33188 0
M  V30 927 H 82.1015 -1.54735 5.29869 0
M  V30 928 H 84.5775 -2.24584 3.50287 0
M  V30 929 H 83.4535 -3.32678 4.36597 0
M  V30 930 H 83.7145 -3.54429 2.64258 0
M  V30 931 N 82.7736 -1.49793 -0.48987 0
M  V30 932 C 84.0136 -1.61466 -1.25332 0
M  V30 933 C 84.3776 -0.299688 -1.89647 0
M  V30 934 O 85.5786 -0.291687 -2.67213 0
M  V30 935 C 83.8496 -2.74944 -2.28343 0
M  V30 936 S 85.4086 -3.06637 -3.13878 0
M  V30 937 H 82.2266 -0.569411 -0.425784 0
M  V30 938 H 84.8286 -1.875 -0.553541 0
M  V30 939 H 83.5326 -3.68994 -1.79643 0
M  V30 940 H 83.0636 -2.50938 -3.02975 0
M  V30 941 H 85.0786 -2.49015 -4.29192 0
M  V30 942 N 84.2517 0.741722 -1.39055 0
M  V30 943 C 85.4767 1.53607 -1.39354 0
M  V30 944 C 85.9017 1.88096 0.0116905 0
M  V30 945 O 85.2597 1.5143 0.996924 0
M  V30 946 C 85.3077 2.80441 -2.26682 0
M  V30 947 O 84.4117 3.76088 -1.69208 0
M  V30 948 H 83.7527 0.464142 -0.474835 0
M  V30 949 H 86.2827 0.915665 -1.82967 0
M  V30 950 H 86.2927 3.29246 -2.40959 0
M  V30 951 H 84.9677 2.5467 -3.2881 0
M  V30 952 H 83.5447 3.34833 -1.64138 0
M  V30 953 N 85.7298 1.2412 0.971189 0
M  V30 954 C 86.9788 1.07284 1.70801 0
M  V30 955 C 87.2918 -0.388902 1.91695 0
M  V30 956 O 88.4978 -0.677379 2.62914 0
M  V30 957 C 86.9538 1.87145 3.07416 0
M  V30 958 C 86.5618 3.37707 2.94377 0
M  V30 959 C 88.3058 1.78828 3.84995 0
M  V30 960 C 86.2128 4.09925 4.26281 0
M  V30 961 H 85.1428 0.397854 0.64049 0
M  V30 962 H 87.7938 1.4817 1.0825 0
M  V30 963 H 86.1758 1.39071 3.70777 0
M  V30 964 H 87.3498 3.93335 2.4005 0
M  V30 965 H 85.6648 3.46938 2.30267 0
M  V30 966 H 88.2618 2.30089 4.82662 0
M  V30 967 H 88.6048 0.75284 4.09436 0
M  V30 968 H 89.1378 2.24563 3.28354 0
M  V30 969 H 85.8768 5.13813 4.07033 0
M  V30 970 H 85.3968 3.59083 4.80437 0
M  V30 971 H 87.0758 4.1673 4.94919 0
M  V30 972 N 87.2079 -1.17134 1.05439 0
M  V30 973 C 88.1409 -2.2012 0.601855 0
M  V30 974 C 89.1189 -1.58314 -0.370854 0
M  V30 975 O 90.3029 -1.8638 -0.281882 0
M  V30 976 C 87.4299 -3.38491 -0.118868 0
M  V30 977 C 86.4759 -4.18752 0.809242 0
M  V30 978 S 87.3089 -4.83602 2.29977 0
M  V30 979 C 88.4649 -6.0536 1.59029 0
M  V30 980 H 88.6979 -2.58165 1.47438 0
M  V30 981 H 86.2309 -1.27788 0.866573 0
M  V30 982 H 88.1889 -4.07084 -0.528495 0
M  V30 983 H 86.8499 -2.98829 -0.967465 0
M  V30 984 H 86.0429 -5.03373 0.251379 0
M  V30 985 H 85.6449 -3.5561 1.15835 0
M  V30 986 H 87.9369 -6.71615 0.891017 0
M  V30 987 H 88.8799 -6.65679 2.41407 0
M  V30 988 H 89.2879 -5.54138 1.07663 0
M  V30 989 N 88.686 -0.835752 -1.33615 0
M  V30 990 C 89.619 -0.211815 -2.27215 0
M  V30 991 C 90.597 0.639249 -1.49507 0
M  V30 992 O 91.781 0.600193 -1.78689 0
M  V30 993 C 88.908 0.702893 -3.31326 0
M  V30 994 C 87.954 -0.0723049 -4.26439 0
M  V30 995 S 88.787 -1.42811 -5.16106 0
M  V30 996 C 89.943 -0.518613 -6.23748 0
M  V30 997 H 90.176 -1.00533 -2.79786 0
M  V30 998 H 87.709 -0.632336 -1.40858 0
M  V30 999 H 89.667 1.22505 -3.91794 0
M  V30 1000 H 88.328 1.47004 -2.77576 0
M  V30 1001 H 87.521 0.62359 -5.00127 0
M  V30 1002 H 87.123 -0.525424 -3.70291 0
M  V30 1003 H 89.415 0.284778 -6.76901 0
M  V30 1004 H 90.358 -1.22556 -6.97413 0
M  V30 1005 H 90.766 -0.101344 -5.64409 0
M  V30 1006 N 90.1641 1.46063 -0.591896 0
M  V30 1007 C 91.3941 2.06418 -0.0867676 0
M  V30 1008 C 91.8021 1.43975 1.22751 0
M  V30 1009 O 91.1451 0.542531 1.75506 0
M  V30 1010 C 91.2071 3.59213 0.143725 0
M  V30 1011 C 90.8711 4.439 -1.08635 0
M  V30 1012 C 91.8681 4.79864 -2.00067 0
M  V30 1013 C 89.5531 4.84896 -1.31077 0
M  V30 1014 C 91.5471 5.55661 -3.12282 0
M  V30 1015 C 89.2341 5.6045 -2.43596 0
M  V30 1016 C 90.2321 5.95747 -3.34027 0
M  V30 1017 O 89.9201 6.69772 -4.4459 0
M  V30 1018 H 89.6521 0.673443 -0.0587447 0
M  V30 1019 H 92.2061 1.88539 -0.814994 0
M  V30 1020 H 90.4361 3.75433 0.926668 0
M  V30 1021 H 92.1251 4.01463 0.5985 0
M  V30 1022 H 92.8911 4.48763 -1.83947 0
M  V30 1023 H 88.7701 4.56867 -0.61594 0
M  V30 1024 H 92.3141 5.8313 -3.82891 0
M  V30 1025 H 88.2111 5.90965 -2.59674 0
M  V30 1026 H 88.9791 6.88207 -4.43073 0
M  V30 1027 N 91.6422 0.330177 1.54103 0
M  V30 1028 C 92.8892 -0.270405 2.00686 0
M  V30 1029 C 93.2172 -1.51621 1.21825 0
M  V30 1030 O 92.4722 -1.93536 0.29025 0
M  V30 1031 C 92.7712 -0.643134 3.51566 0
M  V30 1032 C 92.4372 0.504251 4.48072 0
M  V30 1033 C 91.0992 0.819163 4.74176 0
M  V30 1034 C 93.4512 1.27465 5.05373 0
M  V30 1035 C 90.7792 1.90708 5.5484 0
M  V30 1036 C 93.1312 2.35271 5.87223 0
M  V30 1037 C 91.7952 2.67336 6.11627 0
M  V30 1038 H 91.0652 -0.0989482 0.734364 0
M  V30 1039 H 93.7122 0.455324 1.86008 0
M  V30 1040 H 92.0172 -1.44938 3.64006 0
M  V30 1041 H 93.7142 -1.11949 3.85056 0
M  V30 1042 H 90.3042 0.248733 4.27878 0
M  V30 1043 H 94.4882 1.04462 4.85182 0
M  V30 1044 H 89.7442 2.15991 5.71977 0
M  V30 1045 H 93.9182 2.95405 6.30641 0
M  V30 1046 H 91.5452 3.51763 6.73919 0
M  V30 1047 N 93.1203 -1.57491 0.0584922 0
M  V30 1048 C 94.0503 -2.14988 -0.911178 0
M  V30 1049 C 95.0313 -1.07343 -1.31952 0
M  V30 1050 O 96.2163 -1.35318 -1.39294 0
M  V30 1051 C 93.3463 -2.70078 -2.18347 0
M  V30 1052 C 92.3003 -3.82771 -1.91495 0
M  V30 1053 C 91.6263 -4.24408 -3.25241 0
M  V30 1054 C 92.9263 -5.07592 -1.23075 0
M  V30 1055 H 94.6203 -2.96263 -0.432246 0
M  V30 1056 H 92.1663 -1.42512 -0.206469 0
M  V30 1057 H 94.1193 -3.08943 -2.86587 0
M  V30 1058 H 92.8433 -1.86005 -2.68458 0
M  V30 1059 H 91.5023 -3.44389 -1.25664 0
M  V30 1060 H 91.1503 -3.37275 -3.73168 0
M  V30 1061 H 90.8503 -5.00366 -3.08071 0
M  V30 1062 H 92.3743 -4.65879 -3.94701 0
M  V30 1063 H 93.7883 -5.43857 -1.81362 0
M  V30 1064 H 92.1853 -5.88741 -1.16207 0
M  V30 1065 H 93.2553 -4.84454 -0.207847 0
M  V30 1066 N 94.5984 0.214957 -1.56127 0
M  V30 1067 C 95.5284 1.2695 -1.95974 0
M  V30 1068 C 96.5094 1.48539 -0.828868 0
M  V30 1069 O 97.6944 1.60611 -1.09168 0
M  V30 1070 C 94.8244 2.61794 -2.28214 0
M  V30 1071 C 93.7784 2.54851 -3.43853 0
M  V30 1072 C 93.1044 3.93785 -3.61715 0
M  V30 1073 C 94.4044 2.09065 -4.78632 0
M  V30 1074 H 96.0984 0.93846 -2.84312 0
M  V30 1075 H 93.6444 0.449996 -1.36788 0
M  V30 1076 H 95.5974 3.35731 -2.54682 0
M  V30 1077 H 94.3214 2.96599 -1.36736 0
M  V30 1078 H 92.9804 1.8337 -3.17444 0
M  V30 1079 H 92.6284 4.25908 -2.67602 0
M  V30 1080 H 92.3284 3.90019 -4.39498 0
M  V30 1081 H 93.8524 4.69374 -3.90539 0
M  V30 1082 H 95.2664 2.7275 -5.04262 0
M  V30 1083 H 93.6634 2.16346 -5.59745 0
M  V30 1084 H 94.7334 1.04315 -4.73547 0
M  V30 1085 N 96.0765 1.50051 0.48192 0
M  V30 1086 C 97.3245 1.60181 1.23234 0
M  V30 1087 C 97.6455 0.299176 1.92691 0
M  V30 1088 O 96.9155 -0.682708 1.83619 0
M  V30 1089 H 95.4955 0.590232 0.457859 0
M  V30 1090 H 98.1575 1.86775 0.556881 0
M  V30 1091 H 97.2535 2.40753 1.98607 0
M  V30 1092 N 97.5546 -0.734337 1.39446 0
M  V30 1093 C 98.8036 -1.48937 1.36017 0
M  V30 1094 C 99.1166 -1.95557 -0.0409005 0
M  V30 1095 O 100.323 -2.70779 -0.19778 0
M  V30 1096 C 98.7786 -2.69125 2.38955 0
M  V30 1097 C 98.3866 -2.29452 3.8478 0
M  V30 1098 C 100.131 -3.46944 2.44603 0
M  V30 1099 C 98.0376 -3.46366 4.79358 0
M  V30 1100 H 96.9676 -0.559296 0.505672 0
M  V30 1101 H 99.6186 -0.800983 1.65095 0
M  V30 1102 H 98.0006 -3.40041 2.02948 0
M  V30 1103 H 99.1746 -1.66077 4.29831 0
M  V30 1104 H 97.4896 -1.64723 3.82433 0
M  V30 1105 H 100.087 -4.33907 3.12456 0
M  V30 1106 H 100.43 -3.89454 1.47076 0
M  V30 1107 H 100.963 -2.83056 2.79507 0
M  V30 1108 H 97.7016 -3.08905 5.78151 0
M  V30 1109 H 97.2216 -4.08719 4.38986 0
M  V30 1110 H 98.9006 -4.12691 4.98292 0
M  V30 1111 N 99.0327 -1.24633 -0.964593 0
M  V30 1112 C 100.261 -1.11501 -1.74285 0
M  V30 1113 C 100.676 0.332165 -1.85855 0
M  V30 1114 O 100.033 1.22903 -1.34911 0
M  V30 1115 C 100.084 -1.75258 -3.16175 0
M  V30 1116 O 99.8047 -3.14318 -3.05182 0
M  V30 1117 C 101.306 -1.67776 -4.10324 0
M  V30 1118 H 98.5257 -0.389407 -0.546446 0
M  V30 1119 H 101.07 -1.64801 -1.21083 0
M  V30 1120 H 99.2247 -1.25954 -3.66353 0
M  V30 1121 H 99.6387 -3.4551 -3.94618 0
M  V30 1122 H 101.113 -2.17064 -5.0753 0
M  V30 1123 H 101.59 -0.639584 -4.34518 0
M  V30 1124 H 102.196 -2.16522 -3.66058 0
M  V30 1125 N 100.511 1.16574 -1.06058 0
M  V30 1126 C 101.441 2.23057 -0.690488 0
M  V30 1127 C 102.422 1.67141 0.315901 0
M  V30 1128 O 103.607 1.93253 0.191556 0
M  V30 1129 C 100.737 3.47222 -0.073625 0
M  V30 1130 C 99.6908 4.16016 -1.00573 0
M  V30 1131 C 99.0168 5.34104 -0.252289 0
M  V30 1132 C 100.317 4.67264 -2.33371 0
M  V30 1133 H 102.011 2.54271 -1.58072 0
M  V30 1134 H 99.5568 1.22218 -0.76149 0
M  V30 1135 H 101.51 4.20939 0.19714 0
M  V30 1136 H 100.234 3.15302 0.85161 0
M  V30 1137 H 98.8928 3.44223 -1.2612 0
M  V30 1138 H 98.5408 4.98437 0.675988 0
M  V30 1139 H 98.2408 5.81072 -0.873455 0
M  V30 1140 H 99.7648 6.10599 0.0109857 0
M  V30 1141 H 101.179 5.32573 -2.12223 0
M  V30 1142 H 99.5758 5.24843 -2.90963 0
M  V30 1143 H 100.646 3.83602 -2.96611 0
M  V30 1144 N 101.989 0.842826 1.3317 0
M  V30 1145 C 102.919 0.294028 2.31641 0
M  V30 1146 C 103.9 -0.600401 1.59151 0
M  V30 1147 O 105.085 -0.523124 1.87022 0
M  V30 1148 C 102.215 -0.528416 3.43257 0
M  V30 1149 C 101.169 0.27056 4.27144 0
M  V30 1150 C 100.495 -0.675881 5.30411 0
M  V30 1151 C 101.795 1.48981 5.00602 0
M  V30 1152 H 103.489 1.11681 2.77791 0
M  V30 1153 H 101.035 0.538478 1.33553 0
M  V30 1154 H 102.988 -0.922674 4.11175 0
M  V30 1155 H 101.712 -1.38445 2.95805 0
M  V30 1156 H 100.371 0.646427 3.60856 0
M  V30 1157 H 100.019 -1.52842 4.79216 0
M  V30 1158 H 99.7189 -0.145374 5.8742 0
M  V30 1159 H 101.243 -1.06757 6.01195 0
M  V30 1160 H 102.657 1.16849 5.61266 0
M  V30 1161 H 101.054 1.95739 5.6728 0
M  V30 1162 H 102.124 2.25746 4.29147 0
M  V30 1163 N 103.467 -1.45747 0.599634 0
M  V30 1164 C 104.883 -1.57424 0.26264 0
M  V30 1165 C 105.083 -1.59222 -1.23493 0
M  V30 1166 O 104.139 -1.51825 -2.01756 0
M  V30 1167 C 105.452 -2.86061 0.926795 0
M  V30 1168 C 107 -2.99722 0.901967 0
M  V30 1169 C 107.475 -4.31119 1.54598 0
M  V30 1170 N 108.966 -4.37858 1.5111 0
M  V30 1171 C 109.701 -5.3818 1.97863 0
M  V30 1172 N 109.197 -6.45083 2.52666 0
M  V30 1173 N 110.99 -5.29487 1.88679 0
M  V30 1174 H 103.141 -1.42823 1.57211 0
M  V30 1175 H 105.404 -0.68235 0.658105 0
M  V30 1176 H 105.11 -2.90605 1.98095 0
M  V30 1177 H 104.984 -3.74563 0.445238 0
M  V30 1178 H 107.371 -2.9475 -0.143617 0
M  V30 1179 H 107.452 -2.12652 1.42171 0
M  V30 1180 H 107.096 -4.36849 2.59085 0
M  V30 1181 H 107.026 -5.16992 1.00132 0
M  V30 1182 H 109.517 -3.61209 1.11068 0
M  V30 1183 H 109.83 -7.17869 2.86155 0
M  V30 1184 H 108.175 -6.45856 2.56701 0
M  V30 1185 H 111.366 -4.44877 1.4561 0
M  V30 1186 H 111.539 -6.07524 2.25429 0
M  V30 1187 N 104.945 -0.338344 -1.53925 0
M  V30 1188 C 106.17 0.263987 -2.05713 0
M  V30 1189 C 106.595 1.43847 -1.21201 0
M  V30 1190 O 105.953 1.79904 -0.224535 0
M  V30 1191 C 106.001 0.662 -3.54471 0
M  V30 1192 O 105.105 1.76265 -3.72833 0
M  V30 1193 H 104.446 0.0448722 -0.662482 0
M  V30 1194 H 106.976 -0.491048 -1.9862 0
M  V30 1195 H 106.986 0.940594 -3.9701 0
M  V30 1196 H 105.661 -0.196937 -4.15433 0
M  V30 1197 H 104.238 1.48173 -3.42198 0
M  V30 1198 N 106.423 1.57458 -0.0668435 0
M  V30 1199 C 107.653 1.97337 0.611677 0
M  V30 1200 C 108.061 0.943744 1.63982 0
M  V30 1201 O 107.404 -0.0785584 1.83532 0
M  V30 1202 C 107.466 3.33511 1.34205 0
M  V30 1203 C 107.13 4.54598 0.467941 0
M  V30 1204 C 108.127 5.19186 -0.272439 0
M  V30 1205 C 105.812 5.0075 0.39427 0
M  V30 1206 C 107.806 6.28274 -1.07476 0
M  V30 1207 C 105.493 6.09711 -0.411729 0
M  V30 1208 C 106.491 6.73335 -1.14492 0
M  V30 1209 O 106.179 7.80199 -1.93763 0
M  V30 1210 H 105.911 0.654042 0.170893 0
M  V30 1211 H 108.465 2.04961 -0.134289 0
M  V30 1212 H 106.695 3.22487 2.13398 0
M  V30 1213 H 108.384 3.58029 1.91233 0
M  V30 1214 H 109.15 4.84477 -0.225086 0
M  V30 1215 H 105.029 4.51009 0.954569 0
M  V30 1216 H 108.573 6.77866 -1.64755 0
M  V30 1217 H 104.47 6.43854 -0.460664 0
M  V30 1218 H 105.238 7.97053 -1.86142 0
M  V30 1219 N 107.901 -0.206675 1.56239 0
M  V30 1220 C 108.834 -1.28383 1.88661 0
M  V30 1221 C 109.812 -1.44504 0.745481 0
M  V30 1222 O 110.996 -1.60079 0.995336 0
M  V30 1223 C 108.123 -2.65211 2.10667 0
M  V30 1224 C 107.169 -2.66025 3.33366 0
M  V30 1225 S 108.002 -2.18609 4.88846 0
M  V30 1226 C 109.158 -3.57283 5.13906 0
M  V30 1227 H 109.391 -1.00691 2.7973 0
M  V30 1228 H 106.924 -0.409627 1.48867 0
M  V30 1229 H 108.882 -3.43979 2.24029 0
M  V30 1230 H 107.543 -2.90121 1.20369 0
M  V30 1231 H 106.736 -3.66607 3.45855 0
M  V30 1232 H 106.338 -1.95331 3.18938 0
M  V30 1233 H 108.63 -4.53074 5.03717 0
M  V30 1234 H 109.573 -3.49699 6.15724 0
M  V30 1235 H 109.981 -3.51659 4.41583 0
M  V30 1236 N 109.379 -1.50304 -0.473955 0
M  V30 1237 C 110.311 -1.65109 -1.58971 0
M  V30 1238 C 111.324 -0.532676 -1.53839 0
M  V30 1239 O 112.513 -0.805751 -1.59279 0
M  V30 1240 C 109.613 -1.61684 -2.97845 0
M  V30 1241 C 108.786 -2.8951 -3.27876 0
M  V30 1242 C 107.845 -2.78768 -4.4629 0
M  V30 1243 O 106.871 -3.52722 -4.46739 0
M  V30 1244 N 108.073 -1.9213 -5.47783 0
M  V30 1245 H 110.838 -2.61347 -1.46689 0
M  V30 1246 H 108.399 -1.47732 -0.662324 0
M  V30 1247 H 110.391 -1.52114 -3.75024 0
M  V30 1248 H 108.961 -0.731925 -3.03911 0
M  V30 1249 H 108.181 -3.13228 -2.39336 0
M  V30 1250 H 109.469 -3.74199 -3.4475 0
M  V30 1251 H 108.867 -1.31353 -5.50239 0
M  V30 1252 H 107.424 -1.88466 -6.23958 0
M  V30 1253 N 110.857 0.726932 -1.39834 0
M  V30 1254 C 112.082 1.52121 -1.40976 0
M  V30 1255 C 112.507 1.88098 -0.00826029 0
M  V30 1256 O 111.865 1.52479 0.980807 0
M  V30 1257 C 111.913 2.78021 -2.29644 0
M  V30 1258 O 111.017 3.74272 -1.73188 0
M  V30 1259 H 110.358 0.45908 -0.479731 0
M  V30 1260 H 112.888 0.896207 -1.83927 0
M  V30 1261 H 112.898 3.26671 -2.44438 0
M  V30 1262 H 111.573 2.51169 -3.31492 0
M  V30 1263 H 110.15 3.33073 -1.6768 0
M  V30 1264 N 112.336 1.25143 0.95797 0
M  V30 1265 C 113.582 1.09855 1.70469 0
M  V30 1266 C 113.915 -0.360187 1.90831 0
M  V30 1267 O 113.19 -1.26568 1.47685 0
M  V30 1268 C 113.473 1.8497 3.08963 0
M  V30 1269 C 113.326 3.38652 2.96032 0
M  V30 1270 C 114.645 1.63016 4.08795 0
M  V30 1271 H 111.764 0.400465 0.618706 0
M  V30 1272 H 114.406 1.53933 1.11376 0
M  V30 1273 H 112.556 1.47505 3.59409 0
M  V30 1274 H 114.228 3.85772 2.52938 0
M  V30 1275 H 112.471 3.66534 2.32025 0
M  V30 1276 H 113.142 3.8642 3.94187 0
M  V30 1277 H 115.618 1.95625 3.67247 0
M  V30 1278 H 114.494 2.18015 5.03747 0
M  V30 1279 H 114.755 0.570692 4.38401 0
M  V30 1280 N 113.814 -1.1601 1.06675 0
M  V30 1281 C 115.06 -1.87145 0.796766 0
M  V30 1282 C 115.415 -1.8037 -0.669658 0
M  V30 1283 O 114.708 -1.21116 -1.48463 0
M  V30 1284 C 114.902 -3.35547 1.23057 0
M  V30 1285 C 114.731 -3.56769 2.73762 0
M  V30 1286 C 113.501 -3.72635 3.41279 0
M  V30 1287 C 115.699 -3.55166 3.7197 0
M  V30 1288 N 113.681 -3.81845 4.80695 0
M  V30 1289 C 115.052 -3.70406 4.97191 0
M  V30 1290 C 117.107 -3.384 3.65226 0
M  V30 1291 C 115.81 -3.70615 6.16471 0
M  V30 1292 C 117.836 -3.39904 4.83962 0
M  V30 1293 C 117.198 -3.55667 6.08013 0
M  V30 1294 H 113.297 -0.702267 0.344014 0
M  V30 1295 H 115.881 -1.39165 1.36166 0
M  V30 1296 H 114.052 -3.82159 0.693456 0
M  V30 1297 H 115.784 -3.94363 0.908844 0
M  V30 1298 H 112.539 -3.73121 2.91681 0
M  V30 1299 H 112.963 -3.90209 5.53232 0
M  V30 1300 H 117.605 -3.25138 2.70269 0
M  V30 1301 H 115.323 -3.82658 7.11757 0
M  V30 1302 H 118.909 -3.28169 4.80413 0
M  V30 1303 H 117.789 -3.56755 6.98352 0
M  V30 1304 N 115.292 -0.849877 -1.32721 0
M  V30 1305 C 116.52 -0.464754 -2.01613 0
M  V30 1306 C 116.935 0.937191 -1.63897 0
M  V30 1307 O 116.292 1.61081 -0.857856 0
M  V30 1308 C 116.343 -0.588638 -3.56675 0
M  V30 1309 O 116.064 -1.93535 -3.93034 0
M  V30 1310 C 117.565 -0.2019 -4.4284 0
M  V30 1311 H 114.785 -0.183215 -0.645502 0
M  V30 1312 H 117.329 -1.1455 -1.69407 0
M  V30 1313 H 115.484 0.0443159 -3.87375 0
M  V30 1314 H 115.898 -1.92871 -4.87751 0
M  V30 1315 H 117.372 -0.339599 -5.50954 0
M  V30 1316 H 117.849 0.857224 -4.30753 0
M  V30 1317 H 118.455 -0.809733 -4.17521 0
M  V30 1318 N 116.77 1.45427 -0.607355 0
M  V30 1319 C 117.68 2.34325 0.113463 0
M  V30 1320 C 118.696 1.51226 0.860617 0
M  V30 1321 O 119.872 1.84029 0.818255 0
M  V30 1322 C 116.937 3.28839 1.09844 0
M  V30 1323 C 115.998 4.27844 0.353271 0
M  V30 1324 C 115.231 5.17842 1.29133 0
M  V30 1325 O 115.454 5.11264 2.52913 0
M  V30 1326 O 114.388 5.96713 0.788523 0
M  V30 1327 H 118.214 2.97364 -0.617094 0
M  V30 1328 H 115.799 1.44807 -0.367619 0
M  V30 1329 H 117.681 3.8708 1.66575 0
M  V30 1330 H 116.356 2.68365 1.81003 0
M  V30 1331 H 115.263 3.7322 -0.256494 0
M  V30 1332 H 116.596 4.91173 -0.317822 0
M  V30 1333 N 118.248 0.346503 1.53744 0
M  V30 1334 C 119.158 -0.517293 2.28826 0
M  V30 1335 C 120.174 -1.10935 1.3405 0
M  V30 1336 O 121.35 -1.1244 1.6709 0
M  V30 1337 C 118.415 -1.65098 3.04866 0
M  V30 1338 C 117.476 -1.0884 4.15274 0
M  V30 1339 C 116.709 -2.16806 4.87679 0
M  V30 1340 O 116.932 -3.3758 4.59778 0
M  V30 1341 O 115.866 -1.80934 5.74061 0
M  V30 1342 H 119.692 0.0931396 3.03557 0
M  V30 1343 H 117.277 0.111458 1.48984 0
M  V30 1344 H 119.159 -2.31053 3.5241 0
M  V30 1345 H 117.834 -2.24717 2.32989 0
M  V30 1346 H 116.741 -0.3933 3.72027 0
M  V30 1347 H 118.074 -0.537036 4.89261 0
M  V30 1348 N 119.726 -1.57421 0.075193 0
M  V30 1349 C 120.951 -1.98364 -0.605515 0
M  V30 1350 C 121.376 -0.953383 -1.62149 0
M  V30 1351 O 120.734 0.0806053 -1.81121 0
M  V30 1352 C 120.782 -3.38332 -1.24756 0
M  V30 1353 O 119.886 -3.37959 -2.36342 0
M  V30 1354 H 119.227 -0.645553 -0.155428 0
M  V30 1355 H 121.757 -2.04044 0.150714 0
M  V30 1356 H 121.767 -3.75591 -1.5936 0
M  V30 1357 H 120.442 -4.12846 -0.503129 0
M  V30 1358 H 119.019 -3.12474 -2.03506 0
M  V30 1359 N 121.204 0.198386 -1.56346 0
M  V30 1360 C 122.136 1.26987 -1.90806 0
M  V30 1361 C 123.149 1.41877 -0.798419 0
M  V30 1362 O 124.338 1.42362 -1.07682 0
M  V30 1363 C 121.438 2.64246 -2.12196 0
M  V30 1364 C 120.611 2.71007 -3.43328 0
M  V30 1365 C 119.67 3.89439 -3.5387 0
M  V30 1366 O 118.696 3.76695 -4.26719 0
M  V30 1367 N 119.898 5.04752 -2.86715 0
M  V30 1368 H 122.663 0.977433 -2.83313 0
M  V30 1369 H 120.224 0.388322 -1.57174 0
M  V30 1370 H 122.216 3.41896 -2.1654 0
M  V30 1371 H 120.786 2.85992 -1.26204 0
M  V30 1372 H 120.006 1.79657 -3.50881 0
M  V30 1373 H 121.294 2.72512 -4.29668 0
M  V30 1374 H 120.692 5.18004 -2.2735 0
M  V30 1375 H 119.249 5.8036 -2.96691 0
M  V30 1376 N 122.682 1.50554 0.465978 0
M  V30 1377 C 123.922 1.63439 1.22747 0
M  V30 1378 C 124.286 0.329822 1.89146 0
M  V30 1379 O 125.487 0.334161 2.66715 0
M  V30 1380 C 123.758 2.78542 2.2394 0
M  V30 1381 S 125.317 3.11591 3.0896 0
M  V30 1382 H 122.135 0.576113 0.416672 0
M  V30 1383 H 124.737 1.88357 0.523641 0
M  V30 1384 H 123.441 3.71805 1.7375 0
M  V30 1385 H 122.972 2.55726 2.98944 0
M  V30 1386 H 124.987 2.55811 4.25176 0
M  V30 1387 N 124.16 -0.719506 1.40217 0
M  V30 1388 C 125.388 -1.50864 1.41589 0
M  V30 1389 C 125.803 -1.88794 0.0145275 0
M  V30 1390 O 125.16 -1.55174 -0.960594 0
M  V30 1391 C 125.211 -2.78646 2.30302 0
M  V30 1392 O 124.932 -2.42321 3.64983 0
M  V30 1393 C 126.433 -3.72569 2.40224 0
M  V30 1394 H 123.653 -0.465709 0.48307 0
M  V30 1395 H 126.197 -0.88785 1.84221 0
M  V30 1396 H 124.352 -3.37019 1.91042 0
M  V30 1397 H 124.766 -3.24514 4.12057 0
M  V30 1398 H 126.24 -4.5908 3.06512 0
M  V30 1399 H 126.717 -4.15403 1.42608 0
M  V30 1400 H 127.323 -3.20109 2.80019 0
M  V30 1401 N 125.638 -1.25649 -0.95132 0
M  V30 1402 C 126.568 -1.08808 -2.06599 0
M  V30 1403 C 127.549 0.00382547 -1.701 0
M  V30 1404 O 128.734 -0.166325 -1.93486 0
M  V30 1405 C 125.864 -0.709542 -3.39975 0
M  V30 1406 C 124.818 -1.75206 -3.90496 0
M  V30 1407 C 124.144 -1.22811 -5.20405 0
M  V30 1408 C 125.444 -3.15153 -4.16504 0
M  V30 1409 H 127.138 -2.02048 -2.20946 0
M  V30 1410 H 124.684 -0.972835 -1.06169 0
M  V30 1411 H 126.637 -0.578649 -4.17408 0
M  V30 1412 H 125.361 0.258556 -3.25575 0
M  V30 1413 H 124.02 -1.87145 -3.15234 0
M  V30 1414 H 123.668 -0.250145 -5.02378 0
M  V30 1415 H 123.368 -1.92492 -5.55176 0
M  V30 1416 H 124.892 -1.10968 -6.00432 0
M  V30 1417 H 126.306 -3.06349 -4.84586 0
M  V30 1418 H 124.703 -3.82333 -4.62538 0
M  V30 1419 H 125.773 -3.61966 -3.22658 0
M  V30 1420 N 127.117 1.15442 -1.07289 0
M  V30 1421 C 128.047 2.22312 -0.714107 0
M  V30 1422 C 129.028 1.67467 0.298155 0
M  V30 1423 O 130.213 1.93445 0.171048 0
M  V30 1424 C 127.343 3.47124 -0.110448 0
M  V30 1425 C 126.297 4.14926 -1.04979 0
M  V30 1426 C 125.623 5.33807 -0.308924 0
M  V30 1427 C 126.923 4.64762 -2.38314 0
M  V30 1428 H 128.617 2.5258 -1.6076 0
M  V30 1429 H 126.163 1.21404 -0.77441 0
M  V30 1430 H 128.116 4.21124 0.152482 0
M  V30 1431 H 126.84 3.16187 0.81812 0
M  V30 1432 H 125.499 3.42866 -1.29764 0
M  V30 1433 H 125.147 4.99126 0.623084 0
M  V30 1434 H 124.847 5.80113 -0.935036 0
M  V30 1435 H 126.371 6.10576 -0.0537771 0
M  V30 1436 H 127.785 5.30292 -2.1786 0
M  V30 1437 H 126.182 5.21728 -2.96514 0
M  V30 1438 H 127.252 3.80434 -3.00663 0
M  V30 1439 N 128.595 0.856903 1.32268 0
M  V30 1440 C 129.543 0.291987 2.3076 0
M  V30 1441 C 130.537 -0.585857 1.58947 0
M  V30 1442 O 131.743 -0.47341 1.73663 0
M  V30 1443 H 128.118 0.075721 0.748178 0
M  V30 1444 H 130.089 1.13687 2.75895 0
M  V30 1445 C 128.838 -0.502869 3.44044 0
M  V30 1446 H 128.161 0.163328 3.99466 0
M  V30 1447 H 129.601 -0.863691 4.1511 0
M  V30 1448 C 128.06 -1.68898 2.91505 0
M  V30 1449 O 128.59 -2.78811 2.89184 0
M  V30 1450 N 126.796 -1.51679 2.47875 0
M  V30 1451 H 126.343 -0.622666 2.49961 0
M  V30 1452 H 126.301 -2.31184 2.13076 0
M  V30 1453 N 130.073 -1.45103 0.615059 0
M  V30 1454 C 131.036 -2.29025 -0.0895485 0
M  V30 1455 C 132.036 -1.40174 -0.787906 0
M  V30 1456 O 133.226 -1.62217 -0.634933 0
M  V30 1457 C 130.358 -3.21376 -1.13711 0
M  V30 1458 H 131.551 -2.92807 0.648382 0
M  V30 1459 H 129.104 -1.51749 0.374444 0
M  V30 1460 H 129.839 -2.6241 -1.90556 0
M  V30 1461 H 129.624 -3.86834 -0.640475 0
M  V30 1462 H 131.114 -3.84459 -1.63036 0
M  V30 1463 N 131.551 -0.354651 -1.53558 0
M  V30 1464 C 132.776 0.242153 -2.05981 0
M  V30 1465 C 133.201 1.42553 -1.2272 0
M  V30 1466 O 132.559 1.79656 -0.243604 0
M  V30 1467 C 132.607 0.624367 -3.55154 0
M  V30 1468 O 131.711 1.72301 -3.74681 0
M  V30 1469 H 131.052 0.0378432 -0.662921 0
M  V30 1470 H 133.582 -0.512087 -1.98088 0
M  V30 1471 H 133.592 0.898433 -3.97985 0
M  V30 1472 H 132.267 -0.240989 -4.15201 0
M  V30 1473 H 130.844 1.44535 -3.4375 0
M  V30 1474 N 133.029 1.57378 -0.0835403 0
M  V30 1475 C 134.278 1.93106 0.582498 0
M  V30 1476 C 134.591 0.96651 1.70053 0
M  V30 1477 O 135.797 1.21705 2.42693 0
M  V30 1478 C 134.253 3.43076 1.08751 0
M  V30 1479 C 133.861 4.48 -0.000146404 0
M  V30 1480 C 135.605 3.87785 1.72694 0
M  V30 1481 C 133.512 5.89113 0.519568 0
M  V30 1482 H 132.442 0.720775 0.221358 0
M  V30 1483 H 135.093 1.82821 -0.157675 0
M  V30 1484 H 133.475 3.48474 1.88101 0
M  V30 1485 H 134.649 4.54233 -0.775199 0
M  V30 1486 H 132.964 4.1283 -0.54406 0
M  V30 1487 H 135.561 4.90604 2.1263 0
M  V30 1488 H 135.904 3.25796 2.59158 0
M  V30 1489 H 136.437 3.8504 0.999457 0
M  V30 1490 H 133.176 6.54775 -0.308186 0
M  V30 1491 H 132.696 5.86376 1.26188 0
M  V30 1492 H 134.375 6.39346 0.992237 0
M  V30 1493 N 134.507 -0.190092 1.56449 0
M  V30 1494 C 135.735 -0.925772 1.85033 0
M  V30 1495 C 136.15 -1.76638 0.666658 0
M  V30 1496 O 135.507 -1.78822 -0.364565 0
M  V30 1497 C 135.558 -1.81786 3.12468 0
M  V30 1498 O 135.279 -1.01118 4.26271 0
M  V30 1499 C 136.78 -2.6648 3.54265 0
M  V30 1500 H 134 -0.269872 0.614337 0
M  V30 1501 H 136.544 -0.195837 2.0356 0
M  V30 1502 H 134.699 -2.50136 2.95822 0
M  V30 1503 H 135.113 -1.61956 4.98869 0
M  V30 1504 H 136.587 -3.24722 4.46385 0
M  V30 1505 H 137.064 -3.40434 2.77491 0
M  V30 1506 H 137.67 -2.03493 3.73458 0
M  V30 1507 N 135.985 -1.50799 -0.457987 0
M  V30 1508 C 136.895 -1.73426 -1.57989 0
M  V30 1509 C 137.911 -0.617745 -1.62665 0
M  V30 1510 O 139.087 -0.897614 -1.80291 0
M  V30 1511 C 136.152 -1.83557 -2.94122 0
M  V30 1512 C 135.213 -3.07345 -2.99729 0
M  V30 1513 C 134.446 -3.16983 -4.29368 0
M  V30 1514 O 134.669 -2.33077 -5.20607 0
M  V30 1515 O 133.603 -4.09812 -4.40837 0
M  V30 1516 H 137.429 -2.68555 -1.41817 0
M  V30 1517 H 135.014 -1.35052 -0.638859 0
M  V30 1518 H 136.896 -1.92326 -3.74952 0
M  V30 1519 H 135.571 -0.916137 -3.10465 0
M  V30 1520 H 134.478 -3.04068 -2.1793 0
M  V30 1521 H 135.811 -3.9891 -2.88326 0
M  V30 1522 N 137.463 0.71206 -1.40597 0
M  V30 1523 C 138.691 1.50111 -1.42388 0
M  V30 1524 C 139.106 1.88784 -0.0245395 0
M  V30 1525 O 138.463 1.55681 0.952351 0
M  V30 1526 C 138.514 2.7742 -2.31776 0
M  V30 1527 O 138.235 2.40382 -3.66262 0
M  V30 1528 C 139.736 3.7129 -2.42196 0
M  V30 1529 H 136.956 0.46314 -0.485533 0
M  V30 1530 H 139.5 0.878068 -1.8469 0
M  V30 1531 H 137.655 3.36001 -1.92827 0
M  V30 1532 H 138.069 3.22324 -4.13772 0
M  V30 1533 H 139.543 4.57448 -3.08943 0
M  V30 1534 H 140.02 4.14641 -1.44809 0
M  V30 1535 H 140.626 3.18619 -2.81712 0
M  V30 1536 N 138.941 1.26152 0.944643 0
M  V30 1537 C 140.188 1.11492 1.69044 0
M  V30 1538 C 140.516 -0.342366 1.91463 0
M  V30 1539 O 139.771 -1.26812 1.49054 0
M  V30 1540 C 140.07 1.82541 3.07268 0
M  V30 1541 C 139.736 3.32445 3.04616 0
M  V30 1542 C 138.398 3.73337 3.036 0
M  V30 1543 C 140.75 4.28171 2.97185 0
M  V30 1544 C 138.078 5.08348 2.92915 0
M  V30 1545 C 140.43 5.63218 2.88041 0
M  V30 1546 C 139.094 6.03426 2.85366 0
M  V30 1547 H 138.364 0.407977 0.618576 0
M  V30 1548 H 141.011 1.56551 1.10291 0
M  V30 1549 H 139.316 1.29941 3.69625 0
M  V30 1550 H 141.013 1.68642 3.63815 0
M  V30 1551 H 137.603 2.99915 3.06185 0
M  V30 1552 H 141.787 3.97563 2.97081 0
M  V30 1553 H 137.043 5.38667 2.89219 0
M  V30 1554 H 141.217 6.37078 2.81254 0
M  V30 1555 H 138.844 7.07999 2.76842 0
M  V30 1556 N 140.419 -1.14872 1.07899 0
M  V30 1557 C 141.367 -2.21857 0.698727 0
M  V30 1558 C 142.361 -1.66845 -0.293086 0
M  V30 1559 O 143.567 -1.79321 -0.156204 0
M  V30 1560 H 139.942 -0.722691 0.207899 0
M  V30 1561 H 141.913 -2.51205 1.61054 0
M  V30 1562 C 140.662 -3.47498 0.11858 0
M  V30 1563 H 139.985 -3.90154 0.872914 0
M  V30 1564 H 141.425 -4.23858 -0.109759 0
M  V30 1565 C 139.884 -3.16947 -1.1422 0
M  V30 1566 O 140.414 -3.3426 -2.22785 0
M  V30 1567 N 138.62 -2.70946 -1.05055 0
M  V30 1568 H 138.167 -2.57058 -0.167038 0
M  V30 1569 H 138.125 -2.50879 -1.89491 0
M  V30 1570 N 141.898 -0.863906 -1.31812 0
M  V30 1571 C 143.138 -0.47825 -1.98726 0
M  V30 1572 C 143.502 0.950397 -1.66828 0
M  V30 1573 O 144.703 1.44109 -2.26905 0
M  V30 1574 C 142.974 -0.721134 -3.50049 0
M  V30 1575 S 144.533 -0.434432 -4.36644 0
M  V30 1576 H 141.351 -0.178773 -0.688158 0
M  V30 1577 H 143.953 -1.11862 -1.60334 0
M  V30 1578 H 142.657 -1.75981 -3.70755 0
M  V30 1579 H 142.188 -0.0675315 -3.93342 0
M  V30 1580 H 144.203 0.735786 -4.90714 0
M  V30 1581 N 143.376 1.44774 -0.622745 0
M  V30 1582 C 144.601 2.06999 -0.128968 0
M  V30 1583 C 145.026 1.4617 1.1839 0
M  V30 1584 O 144.384 0.560007 1.72434 0
M  V30 1585 C 144.432 3.60595 -0.0188351 0
M  V30 1586 O 143.536 3.99398 1.02739 0
M  V30 1587 H 142.877 0.659047 -0.0809544 0
M  V30 1588 H 145.407 1.85784 -0.85705 0
M  V30 1589 H 145.417 4.07627 0.174476 0
M  V30 1590 H 144.092 4.04252 -0.977384 0
M  V30 1591 H 142.669 3.64011 0.809326 0
M  V30 1592 N 144.854 0.36279 1.53368 0
M  V30 1593 C 146.101 -0.227776 2.01215 0
M  V30 1594 C 146.429 -1.49003 1.25014 0
M  V30 1595 O 145.684 -1.92876 0.331236 0
M  V30 1596 C 145.983 -0.568417 3.52851 0
M  V30 1597 C 145.649 0.59918 4.46901 0
M  V30 1598 C 144.311 0.919559 4.72332 0
M  V30 1599 C 146.663 1.38156 5.02556 0
M  V30 1600 C 143.991 2.02434 5.5067 0
M  V30 1601 C 146.343 2.47674 5.821 0
M  V30 1602 C 145.007 2.8025 6.05819 0
M  V30 1603 H 144.277 -0.083349 0.736297 0
M  V30 1604 H 146.924 0.494677 1.85001 0
M  V30 1605 H 145.229 -1.37185 3.66998 0
M  V30 1606 H 146.926 -1.03756 3.87344 0
M  V30 1607 H 143.516 0.339437 4.27254 0
M  V30 1608 H 147.7 1.14729 4.82857 0
M  V30 1609 H 142.956 2.28075 5.67267 0
M  V30 1610 H 147.13 3.08716 6.24234 0
M  V30 1611 H 144.757 3.65979 6.66306 0
M  V30 1612 N 146.332 -1.57332 0.0918853 0
M  V30 1613 C 147.557 -1.98995 -0.584442 0
M  V30 1614 C 147.982 -0.970528 -1.61128 0
M  V30 1615 O 147.34 0.0613904 -1.81196 0
M  V30 1616 C 147.388 -3.39636 -1.21161 0
M  V30 1617 O 146.492 -3.40447 -2.32744 0
M  V30 1618 H 145.833 -0.647165 -0.148572 0
M  V30 1619 H 148.363 -2.03873 0.172347 0
M  V30 1620 H 148.373 -3.7726 -1.55367 0
M  V30 1621 H 147.048 -4.13356 -0.459313 0
M  V30 1622 H 145.625 -3.14614 -2.0018 0
M  V30 1623 N 147.81 0.181792 -1.56548 0
M  V30 1624 C 149.05 0.906711 -1.83189 0
M  V30 1625 C 149.414 1.79882 -0.671312 0
M  V30 1626 O 150.615 2.56054 -0.81792 0
M  V30 1627 C 148.886 1.69023 -3.14906 0
M  V30 1628 S 150.445 2.46535 -3.62996 0
M  V30 1629 H 147.263 0.303877 -0.642791 0
M  V30 1630 H 149.865 0.169107 -1.94767 0
M  V30 1631 H 148.569 1.02571 -3.97376 0
M  V30 1632 H 148.1 2.46941 -3.06241 0
M  V30 1633 H 150.115 3.71014 -3.29489 0
M  V30 1634 N 149.288 1.51039 0.449983 0
M  V30 1635 C 150.536 1.62759 1.19808 0
M  V30 1636 C 150.857 0.339981 1.92013 0
M  V30 1637 O 150.127 -0.643606 1.85026 0
M  V30 1638 H 148.707 0.599811 0.445237 0
M  V30 1639 H 151.369 1.87914 0.517138 0
M  V30 1640 H 150.465 2.44911 1.93455 0
M  V30 1641 N 150.766 -0.704594 1.40972 0
M  V30 1642 C 152.177 -1.28418 1.3552 0
M  V30 1643 C 152.528 -1.96171 0.0339434 0
M  V30 1644 O 151.653 -1.98231 -0.867944 0
M  V30 1645 C 152.248 -2.33528 2.45459 0
M  V30 1646 C 150.807 -2.87085 2.43433 0
M  V30 1647 C 149.954 -1.61007 2.2577 0
M  V30 1648 H 152.905 -0.499963 1.50619 0
M  V30 1649 H 152.926 -3.14619 2.13998 0
M  V30 1650 H 152.438 -1.84187 3.41609 0
M  V30 1651 H 150.539 -3.40626 1.51013 0
M  V30 1652 H 150.652 -3.3813 3.39419 0
M  V30 1653 H 149.016 -1.86482 1.73483 0
M  V30 1654 H 149.799 -1.13675 3.23933 0
M  V30 1655 N 152.244 -1.26651 -0.937939 0
M  V30 1656 C 153.521 -1.0313 -1.66204 0
M  V30 1657 C 153.901 0.437256 -2.06522 0
M  V30 1658 O 153.249 1.41831 -1.79154 0
M  V30 1659 C 153.459 -1.98314 -2.87181 0
M  V30 1660 C 154.807 -2.27107 -3.58758 0
M  V30 1661 O 155.831 -1.96205 -2.97291 0
M  V30 1662 O 154.69 -2.79736 -4.69479 0
M  V30 1663 H 151.784 -0.392384 -0.727986 0
M  V30 1664 H 154.33 -1.37874 -0.989382 0
M  V30 1665 H 153.102 -2.97399 -2.54302 0
M  V30 1666 H 152.725 -1.64068 -3.6217 0
M  V30 1667 N 153.722 1.14298 -1.08507 0
M  V30 1668 C 154.962 1.87016 -0.824894 0
M  V30 1669 C 155.326 1.81099 0.637735 0
M  V30 1670 O 156.527 2.48963 1.01345 0
M  V30 1671 C 154.798 3.31584 -1.33368 0
M  V30 1672 S 156.357 4.21903 -1.20596 0
M  V30 1673 H 153.175 0.645259 -0.2986 0
M  V30 1674 H 155.777 1.37822 -1.38656 0
M  V30 1675 H 154.481 3.33439 -2.39262 0
M  V30 1676 H 154.012 3.85836 -0.767734 0
M  V30 1677 H 156.027 4.95971 -0.150891 0
M  V30 1678 N 155.201 0.870884 1.31352 0
M  V30 1679 C 156.447 0.492314 1.97352 0
M  V30 1680 C 156.802 -0.945174 1.67583 0
M  V30 1681 O 156.095 -1.65674 0.962423 0
M  V30 1682 C 156.289 0.687157 3.50732 0
M  V30 1683 C 156.118 2.14203 3.95407 0
M  V30 1684 C 154.888 2.78382 4.21701 0
M  V30 1685 C 157.086 3.1144 4.09279 0
M  V30 1686 N 155.068 4.14611 4.52737 0
M  V30 1687 C 156.439 4.32702 4.44037 0
M  V30 1688 C 158.494 3.07418 3.91661 0
M  V30 1689 C 157.197 5.50463 4.63015 0
M  V30 1690 C 159.223 4.24438 4.11833 0
M  V30 1691 C 158.585 5.44463 4.46923 0
M  V30 1692 H 154.684 0.229206 0.747655 0
M  V30 1693 H 157.268 1.12568 1.5886 0
M  V30 1694 H 155.439 0.083384 3.8831 0
M  V30 1695 H 157.171 0.276883 4.03752 0
M  V30 1696 H 153.926 2.29326 4.14375 0
M  V30 1697 H 154.35 4.84928 4.72413 0
M  V30 1698 H 158.992 2.15732 3.6362 0
M  V30 1699 H 156.71 6.42666 4.89904 0
M  V30 1700 H 160.296 4.2278 3.99685 0
M  V30 1701 H 159.176 6.33504 4.62214 0
M  V30 1702 N 156.679 -1.44442 0.630414 0
M  V30 1703 C 157.626 -2.30678 -0.0749355 0
M  V30 1704 C 158.596 -1.4344 -0.837502 0
M  V30 1705 O 159.781 -1.72343 -0.818684 0
M  V30 1706 C 156.921 -3.28706 -1.05103 0
M  V30 1707 C 156.034 -4.31046 -0.286954 0
M  V30 1708 C 155.169 -5.16167 -1.2548 0
M  V30 1709 C 154.208 -6.10216 -0.479843 0
M  V30 1710 N 153.345 -6.88039 -1.39811 0
M  V30 1711 H 158.185 -2.90454 0.666386 0
M  V30 1712 H 155.722 -1.43107 0.340404 0
M  V30 1713 H 157.68 -3.84027 -1.63031 0
M  V30 1714 H 156.31 -2.70632 -1.75949 0
M  V30 1715 H 155.362 -3.78203 0.408243 0
M  V30 1716 H 156.674 -4.97794 0.316657 0
M  V30 1717 H 155.828 -5.76002 -1.90544 0
M  V30 1718 H 154.567 -4.49491 -1.89233 0
M  V30 1719 H 153.572 -5.49491 0.184295 0
M  V30 1720 H 154.797 -6.78928 0.152965 0
M  V30 1721 H 152.743 -6.24032 -2.02287 0
M  V30 1722 H 152.66 -7.51223 -0.848508 0
M  V30 1723 H 153.928 -7.52397 -2.03762 0
M  V30 1724 N 158.157 -0.370918 -1.53173 0
M  V30 1725 C 159.087 0.464847 -2.28826 0
M  V30 1726 C 160.068 1.07936 -1.31468 0
M  V30 1727 O 161.253 1.0956 -1.60344 0
M  V30 1728 C 158.383 1.60196 -3.08147 0
M  V30 1729 C 157.337 1.11443 -4.13237 0
M  V30 1730 C 156.663 2.3422 -4.80672 0
M  V30 1731 C 157.963 0.195384 -5.21934 0
M  V30 1732 H 159.657 -0.166329 -2.98938 0
M  V30 1733 H 157.203 -0.0814359 -1.4377 0
M  V30 1734 H 159.156 2.19332 -3.59822 0
M  V30 1735 H 157.88 2.26045 -2.35735 0
M  V30 1736 H 156.539 0.545727 -3.62515 0
M  V30 1737 H 156.187 2.98537 -4.04827 0
M  V30 1738 H 155.887 2.02269 -5.51689 0
M  V30 1739 H 157.411 2.94032 -5.35143 0
M  V30 1740 H 158.825 0.694375 -5.69079 0
M  V30 1741 H 157.222 -0.0335027 -6.00091 0
M  V30 1742 H 158.292 -0.760961 -4.78892 0
M  V30 1743 N 159.635 1.57281 -0.100228 0
M  V30 1744 C 160.86 1.99302 0.573881 0
M  V30 1745 C 161.285 0.979059 1.60611 0
M  V30 1746 O 160.643 -0.0517803 1.81226 0
M  V30 1747 C 160.691 3.40274 1.19358 0
M  V30 1748 O 159.795 3.41676 2.30935 0
M  V30 1749 H 159.136 0.647944 0.145138 0
M  V30 1750 H 161.666 2.03779 -0.183156 0
M  V30 1751 H 161.676 3.78078 1.53365 0
M  V30 1752 H 160.351 4.13594 0.437385 0
M  V30 1753 H 158.928 3.15672 1.98509 0
M  V30 1754 N 161.113 -0.173488 1.56642 0
M  V30 1755 C 162.045 -1.23935 1.92802 0
M  V30 1756 C 163.058 -1.40589 0.820889 0
M  V30 1757 O 164.247 -1.40631 1.09933 0
M  V30 1758 C 161.347 -2.60837 2.16373 0
M  V30 1759 C 160.52 -2.6551 3.47596 0
M  V30 1760 C 159.579 -3.8376 3.60021 0
M  V30 1761 O 158.605 -3.69859 4.32658 0
M  V30 1762 N 159.807 -5.00127 2.94709 0
M  V30 1763 H 162.572 -0.932236 2.84832 0
M  V30 1764 H 160.133 -0.363268 1.57772 0
M  V30 1765 H 162.125 -3.38407 2.21952 0
M  V30 1766 H 160.695 -2.83948 1.30738 0
M  V30 1767 H 159.915 -1.74052 3.53694 0
M  V30 1768 H 161.203 -2.65641 4.33949 0
M  V30 1769 H 160.601 -5.14322 2.35563 0
M  V30 1770 H 159.158 -5.75567 3.05886 0
M  V30 1771 N 162.591 -1.51276 -0.441967 0
M  V30 1772 C 163.821 -1.67273 -1.21257 0
M  V30 1773 C 164.229 -0.367624 -1.85594 0
M  V30 1774 O 163.572 0.663349 -1.71305 0
M  V30 1775 C 163.634 -2.72807 -2.34129 0
M  V30 1776 C 163.298 -4.1554 -1.90198 0
M  V30 1777 C 164.295 -5.00471 -1.40801 0
M  V30 1778 C 161.98 -4.61616 -1.9803 0
M  V30 1779 C 163.974 -6.29536 -0.998174 0
M  V30 1780 C 161.661 -5.90679 -1.56658 0
M  V30 1781 C 162.659 -6.74466 -1.07633 0
M  V30 1782 O 162.347 -8.01116 -0.668459 0
M  V30 1783 H 162.079 -0.564614 -0.371734 0
M  V30 1784 H 164.633 -1.9843 -0.530521 0
M  V30 1785 H 162.863 -2.36954 -3.05597 0
M  V30 1786 H 164.552 -2.77729 -2.96009 0
M  V30 1787 H 165.318 -4.66079 -1.34148 0
M  V30 1788 H 161.197 -3.96526 -2.35135 0
M  V30 1789 H 164.741 -6.94885 -0.61482 0
M  V30 1790 H 160.638 -6.24586 -1.62979 0
M  V30 1791 H 161.406 -8.14633 -0.794722 0
M  V30 1792 N 164.069 0.697108 -1.41344 0
M  V30 1793 C 165.48 1.27697 -1.36199 0
M  V30 1794 C 165.831 1.9615 -0.0443463 0
M  V30 1795 O 164.956 1.98689 0.857419 0
M  V30 1796 C 165.551 2.32223 -2.46694 0
M  V30 1797 C 164.11 2.8579 -2.44952 0
M  V30 1798 C 163.257 1.59807 -2.26621 0
M  V30 1799 H 166.208 0.491968 -1.50882 0
M  V30 1800 H 166.229 3.1348 -2.15664 0
M  V30 1801 H 165.741 1.82373 -3.42581 0
M  V30 1802 H 163.842 3.3982 -1.52817 0
M  V30 1803 H 163.955 3.36325 -3.41207 0
M  V30 1804 H 162.319 1.8556 -1.7447 0
M  V30 1805 H 163.102 1.11956 -3.24532 0
M  V30 1806 N 165.547 1.27147 0.931209 0
M  V30 1807 C 166.787 1.14511 1.69312 0
M  V30 1808 C 167.151 -0.304638 1.89568 0
M  V30 1809 O 168.352 -0.553343 2.63043 0
M  V30 1810 C 166.623 1.90349 3.02493 0
M  V30 1811 S 168.182 1.93884 3.93642 0
M  V30 1812 H 165 0.408858 0.581684 0
M  V30 1813 H 167.602 1.61006 1.10893 0
M  V30 1814 H 166.306 2.94877 2.85439 0
M  V30 1815 H 165.837 1.44333 3.65966 0
M  V30 1816 H 167.852 1.03273 4.85334 0
M  V30 1817 N 167.025 -1.13721 1.09112 0
M  V30 1818 C 167.955 -2.21148 0.749385 0
M  V30 1819 C 168.936 -1.6792 -0.271475 0
M  V30 1820 O 170.121 -1.93693 -0.140251 0
M  V30 1821 C 167.251 -3.46905 0.165659 0
M  V30 1822 C 166.205 -4.13203 1.11567 0
M  V30 1823 C 165.531 -5.33248 0.393809 0
M  V30 1824 C 166.831 -4.60912 2.45678 0
M  V30 1825 H 168.525 -2.4999 1.64758 0
M  V30 1826 H 166.071 -1.20156 0.793626 0
M  V30 1827 H 168.024 -4.21313 -0.085466 0
M  V30 1828 H 166.748 -3.17449 -0.767714 0
M  V30 1829 H 165.407 -3.40758 1.35202 0
M  V30 1830 H 165.055 -5.00054 -0.543599 0
M  V30 1831 H 164.755 -5.78552 1.02721 0
M  V30 1832 H 166.279 -6.10413 0.150908 0
M  V30 1833 H 167.693 -5.26759 2.26269 0
M  V30 1834 H 166.09 -5.16944 3.04776 0
M  V30 1835 H 167.16 -3.75603 3.06677 0
M  V30 1836 N 168.503 -0.877838 -1.30888 0
M  V30 1837 C 169.435 -0.296607 -2.27273 0
M  V30 1838 C 170.448 0.544799 -1.53414 0
M  V30 1839 O 171.637 0.365511 -1.74718 0
M  V30 1840 C 168.737 0.597481 -3.33592 0
M  V30 1841 C 167.91 -0.213251 -4.3688 0
M  V30 1842 C 166.969 0.610208 -5.2265 0
M  V30 1843 O 165.995 0.035441 -5.69189 0
M  V30 1844 N 167.197 1.92071 -5.47804 0
M  V30 1845 H 169.962 -1.12492 -2.77787 0
M  V30 1846 H 167.523 -0.740105 -1.43993 0
M  V30 1847 H 169.515 1.15425 -3.87891 0
M  V30 1848 H 168.085 1.32647 -2.83061 0
M  V30 1849 H 167.305 -0.951466 -3.82545 0
M  V30 1850 H 168.593 -0.769262 -5.02951 0
M  V30 1851 H 167.991 2.4107 -5.11763 0
M  V30 1852 H 166.548 2.42508 -6.05007 0
M  V30 1853 N 169.982 1.44106 -0.638065 0
M  V30 1854 C 171.228 2.02277 -0.145546 0
M  V30 1855 C 171.561 1.50125 1.23191 0
M  V30 1856 O 170.836 0.688133 1.8192 0
M  V30 1857 C 171.119 3.59829 -0.139791 0
M  V30 1858 C 170.972 4.22247 -1.55008 0
M  V30 1859 C 172.291 4.36873 0.531966 0
M  V30 1860 H 169.41 0.734992 -0.0543632 0
M  V30 1861 H 172.052 1.71592 -0.815863 0
M  V30 1862 H 170.202 3.86102 0.431007 0
M  V30 1863 H 171.874 4.07057 -2.1703 0
M  V30 1864 H 170.117 3.79476 -2.10191 0
M  V30 1865 H 170.788 5.31284 -1.49804 0
M  V30 1866 H 173.264 4.16074 0.0464781 0
M  V30 1867 H 172.14 5.4657 0.505206 0
M  V30 1868 H 172.401 4.11995 1.60352 0
M  V30 1869 N 171.46 0.379036 1.52974 0
M  V30 1870 C 172.69 -0.20649 2.05566 0
M  V30 1871 C 173.098 -1.41906 1.25137 0
M  V30 1872 O 172.441 -1.81421 0.288464 0
M  V30 1873 C 172.503 -0.651086 3.53555 0
M  V30 1874 C 172.167 0.446626 4.54812 0
M  V30 1875 C 173.164 1.30079 5.03364 0
M  V30 1876 C 170.849 0.610719 4.98573 0
M  V30 1877 C 172.843 2.30426 5.94292 0
M  V30 1878 C 170.53 1.61754 5.89304 0
M  V30 1879 C 171.528 2.46274 6.37054 0
M  V30 1880 O 171.216 3.45237 7.25994 0
M  V30 1881 H 170.948 -0.0372381 0.674974 0
M  V30 1882 H 173.502 0.539718 1.98182 0
M  V30 1883 H 171.732 -1.44911 3.58522 0
M  V30 1884 H 173.421 -1.16112 3.88938 0
M  V30 1885 H 174.187 1.18527 4.70294 0
M  V30 1886 H 170.066 -0.0374044 4.60985 0
M  V30 1887 H 173.61 2.96432 6.31485 0
M  V30 1888 H 169.507 1.73348 6.21788 0
M  V30 1889 H 170.275 3.41124 7.44027 0
M  V30 1890 N 172.938 -1.57226 0.108567 0
M  V30 1891 C 174.184 -1.95121 -0.552761 0
M  V30 1892 C 174.517 -0.991345 -1.66991 0
M  V30 1893 O 173.792 -0.0267211 -1.94482 0
M  V30 1894 C 174.075 -3.43039 -1.09528 0
M  V30 1895 C 173.928 -4.49797 0.0177332 0
M  V30 1896 C 175.247 -3.92567 -1.98945 0
M  V30 1897 H 172.366 -0.709496 -0.199461 0
M  V30 1898 H 175.008 -1.89126 0.182011 0
M  V30 1899 H 173.158 -3.48279 -1.72146 0
M  V30 1900 H 174.83 -4.56661 0.652584 0
M  V30 1901 H 173.073 -4.284 0.682309 0
M  V30 1902 H 173.744 -5.50528 -0.402919 0
M  V30 1903 H 176.22 -3.89565 -1.46214 0
M  V30 1904 H 175.096 -4.96605 -2.33827 0
M  V30 1905 H 175.357 -3.32648 -2.91201 0
M  V30 1906 N 174.416 0.165178 -1.56732 0
M  V30 1907 C 175.364 1.22369 -1.97809 0
M  V30 1908 C 176.358 1.45488 -0.867741 0
M  V30 1909 O 177.564 1.45995 -1.05288 0
M  V30 1910 H 173.939 0.411486 -0.629431 0
M  V30 1911 H 175.91 0.850425 -2.86025 0
M  V30 1912 C 174.659 2.55403 -2.35934 0
M  V30 1913 H 173.982 2.38438 -3.20916 0
M  V30 1914 H 175.422 3.2814 -2.68514 0
M  V30 1915 C 173.881 3.14611 -1.20506 0
M  V30 1916 O 174.411 3.98626 -0.496016 0
M  V30 1917 N 172.617 2.7379 -0.97403 0
M  V30 1918 H 172.164 2.0557 -1.55238 0
M  V30 1919 H 172.122 3.1374 -0.203573 0
M  V30 1920 N 175.894 1.51508 0.433938 0
M  V30 1921 C 176.824 1.76016 1.53429 0
M  V30 1922 C 177.805 0.610112 1.58782 0
M  V30 1923 O 178.99 0.853177 1.74455 0
M  V30 1924 C 176.12 1.88831 2.9148 0
M  V30 1925 C 175.074 3.04288 3.00987 0
M  V30 1926 C 174.4 3.0229 4.4105 0
M  V30 1927 C 175.7 4.44193 2.74754 0
M  V30 1928 H 177.394 2.68152 1.33171 0
M  V30 1929 H 174.94 1.29035 0.639214 0
M  V30 1930 H 176.893 2.04559 3.6842 0
M  V30 1931 H 175.617 0.933455 3.12976 0
M  V30 1932 H 174.276 2.8827 2.26486 0
M  V30 1933 H 173.924 2.04576 4.59519 0
M  V30 1934 H 173.624 3.79822 4.4834 0
M  V30 1935 H 175.148 3.20116 5.1996 0
M  V30 1936 H 176.562 4.60544 3.41426 0
M  V30 1937 H 174.959 5.23457 2.9345 0
M  V30 1938 H 176.029 4.53996 1.70339 0
M  V30 1939 N 177.372 -0.689602 1.41712 0
M  V30 1940 C 178.6 -1.47827 1.44758 0
M  V30 1941 C 179.015 -1.88721 0.0545703 0
M  V30 1942 O 178.372 -1.57176 -0.927463 0
M  V30 1943 C 178.423 -2.73698 2.3616 0
M  V30 1944 O 178.144 -2.34524 3.7004 0
M  V30 1945 C 179.645 -3.67389 2.48072 0
M  V30 1946 H 176.865 -0.455357 0.49284 0
M  V30 1947 H 179.409 -0.848574 1.86063 0
M  V30 1948 H 177.564 -3.32891 1.98148 0
M  V30 1949 H 177.978 -3.15701 4.18847 0
M  V30 1950 H 179.452 -4.52475 3.16181 0
M  V30 1951 H 179.929 -4.12284 1.51388 0
M  V30 1952 H 180.535 -3.14097 2.86746 0
M  V30 1953 N 178.85 -1.27639 -0.924453 0
M  V30 1954 C 180.075 -1.17101 -1.71179 0
M  V30 1955 C 180.5 0.268134 -1.86179 0
M  V30 1956 O 179.858 1.19415 -1.36418 0
M  V30 1957 C 179.906 -1.86313 -3.08739 0
M  V30 1958 O 179.01 -1.16331 -3.95652 0
M  V30 1959 H 178.351 -0.407091 -0.524569 0
M  V30 1960 H 180.881 -1.68767 -1.15666 0
M  V30 1961 H 180.891 -1.938 -3.59034 0
M  V30 1962 H 179.566 -2.91001 -2.97138 0
M  V30 1963 H 178.143 -1.16935 -3.54091 0
M  V30 1964 N 180.328 1.1314 -1.09713 0
M  V30 1965 C 181.553 1.88862 -0.857081 0
M  V30 1966 C 181.978 1.78729 0.586304 0
M  V30 1967 O 181.336 1.13692 1.41222 0
M  V30 1968 C 181.384 3.36325 -1.30069 0
M  V30 1969 O 180.488 4.09815 -0.461007 0
M  V30 1970 H 179.829 0.587108 -0.310162 0
M  V30 1971 H 182.359 1.43129 -1.46203 0
M  V30 1972 H 182.369 3.87157 -1.28738 0
M  V30 1973 H 181.044 3.43017 -2.35185 0
M  V30 1974 H 179.621 3.68986 -0.538888 0
M  V30 1975 N 181.806 0.884767 1.30421 0
M  V30 1976 C 183.054 0.502112 1.95763 0
M  V30 1977 C 183.375 -0.951815 1.70192 0
M  V30 1978 O 182.645 -1.6692 1.0254 0
M  V30 1979 H 181.225 0.182694 0.724315 0
M  V30 1980 H 183.887 1.1278 1.58955 0
M  V30 1981 H 182.983 0.672188 3.04775 0
M  V30 1982 N 183.284 -1.43765 0.645699 0
M  V30 1983 C 184.194 -2.34544 -0.0512957 0
M  V30 1984 C 185.21 -1.53455 -0.82022 0
M  V30 1985 O 186.386 -1.86133 -0.769176 0
M  V30 1986 C 183.451 -3.31636 -1.01087 0
M  V30 1987 C 182.512 -4.2863 -0.239712 0
M  V30 1988 C 181.745 -5.21084 -1.15358 0
M  V30 1989 O 181.968 -5.1779 -2.39269 0
M  V30 1990 O 180.902 -5.98593 -0.630038 0
M  V30 1991 H 184.728 -2.95624 0.695718 0
M  V30 1992 H 182.313 -1.43781 0.405882 0
M  V30 1993 H 184.195 -3.9136 -1.56254 0
M  V30 1994 H 182.87 -2.73069 -1.73824 0
M  V30 1995 H 181.777 -3.72408 0.355356 0
M  V30 1996 H 183.11 -4.90157 0.447936 0
M  V30 1997 N 184.763 -0.387143 -1.52771 0
M  V30 1998 C 185.71 0.449048 -2.26389 0
M  V30 1999 C 186.68 1.05961 -1.27912 0
M  V30 2000 O 187.865 1.08804 -1.56737 0
M  V30 2001 C 185.005 1.57155 -3.0724 0
M  V30 2002 C 184.118 0.984066 -4.20643 0
M  V30 2003 C 183.253 2.07745 -4.88892 0
M  V30 2004 C 182.292 1.46574 -5.94292 0
M  V30 2005 N 181.429 2.49834 -6.56146 0
M  V30 2006 H 186.269 -0.185205 -2.97424 0
M  V30 2007 H 183.806 -0.103164 -1.46738 0
M  V30 2008 H 185.764 2.23309 -3.52405 0
M  V30 2009 H 184.394 2.17615 -2.38419 0
M  V30 2010 H 183.446 0.212193 -3.79808 0
M  V30 2011 H 184.758 0.497029 -4.96318 0
M  V30 2012 H 183.912 2.81673 -5.3735 0
M  V30 2013 H 182.651 2.59807 -4.12737 0
M  V30 2014 H 181.656 0.711696 -5.45174 0
M  V30 2015 H 182.881 0.953088 -6.72379 0
M  V30 2016 H 180.827 3.0107 -5.82832 0
M  V30 2017 H 180.744 2.05879 -7.27427 0
M  V30 2018 H 182.012 3.23399 -7.09249 0
M  V30 2019 N 186.241 1.57166 -0.116904 0
M  V30 2020 C 187.171 2.18222 0.830759 0
M  V30 2021 C 188.152 1.12167 1.27877 0
M  V30 2022 O 189.337 1.40394 1.34176 0
M  V30 2023 C 186.467 2.77996 2.08172 0
M  V30 2024 C 185.421 3.89614 1.77157 0
M  V30 2025 C 184.747 4.36187 3.09265 0
M  V30 2026 C 186.047 5.1181 1.04151 0
M  V30 2027 H 187.741 2.97664 0.321992 0
M  V30 2028 H 185.287 1.4318 0.153434 0
M  V30 2029 H 187.24 3.19366 2.74924 0
M  V30 2030 H 185.964 1.9584 2.6137 0
M  V30 2031 H 184.623 3.48816 1.12796 0
M  V30 2032 H 184.271 3.50893 3.60393 0
M  V30 2033 H 183.971 5.11455 2.89288 0
M  V30 2034 H 185.495 4.80207 3.77139 0
M  V30 2035 H 186.909 5.50214 1.61052 0
M  V30 2036 H 185.306 5.92648 0.942762 0
M  V30 2037 H 186.376 4.84892 0.0279022 0
M  V30 2038 N 187.719 -0.156864 1.56817 0
M  V30 2039 C 188.649 -1.19589 2.00551 0
M  V30 2040 C 189.63 -1.4536 0.883426 0
M  V30 2041 O 190.815 -1.56449 1.15054 0
M  V30 2042 C 187.945 -2.53143 2.37773 0
M  V30 2043 C 186.899 -2.41913 3.53075 0
M  V30 2044 C 186.225 -3.80088 3.76081 0
M  V30 2045 C 187.525 -1.91157 4.86062 0
M  V30 2046 H 189.219 -0.832293 2.87599 0
M  V30 2047 H 186.765 -0.398918 1.38364 0
M  V30 2048 H 188.718 -3.26047 2.66967 0
M  V30 2049 H 187.442 -2.91319 1.4765 0
M  V30 2050 H 186.101 -1.71462 3.24031 0
M  V30 2051 H 185.749 -4.15683 2.83225 0
M  V30 2052 H 185.449 -3.73439 4.53671 0
M  V30 2053 H 186.973 -4.54556 4.0769 0
M  V30 2054 H 188.387 -2.53846 5.14038 0
M  V30 2055 H 186.784 -1.95422 5.67389 0
M  V30 2056 H 187.854 -0.866673 4.77092 0
M  V30 2057 N 189.197 -1.51736 -0.425897 0
M  V30 2058 C 190.127 -1.76827 -1.52494 0
M  V30 2059 C 191.108 -0.618524 -1.58456 0
M  V30 2060 O 192.293 -0.862416 -1.74 0
M  V30 2061 C 189.423 -1.90374 -2.90474 0
M  V30 2062 C 188.377 -3.0588 -2.99369 0
M  V30 2063 C 187.703 -3.04625 -4.3944 0
M  V30 2064 C 189.003 -4.45644 -2.72394 0
M  V30 2065 H 190.697 -2.68855 -1.31748 0
M  V30 2066 H 188.243 -1.29372 -0.632362 0
M  V30 2067 H 190.196 -2.0651 -3.6733 0
M  V30 2068 H 188.92 -0.95004 -3.12477 0
M  V30 2069 H 187.579 -2.89467 -2.24954 0
M  V30 2070 H 187.227 -2.0701 -4.58428 0
M  V30 2071 H 186.927 -3.82195 -4.46319 0
M  V30 2072 H 188.451 -3.22869 -5.18255 0
M  V30 2073 H 189.865 -4.62348 -3.38979 0
M  V30 2074 H 188.262 -5.25006 -2.9067 0
M  V30 2075 H 189.332 -4.54893 -1.67929 0
M  V30 2076 N 190.675 0.682077 -1.42076 0
M  V30 2077 C 191.905 1.46844 -1.45329 0
M  V30 2078 C 192.313 1.89102 -0.0609328 0
M  V30 2079 O 191.656 1.58238 0.933082 0
M  V30 2080 C 191.718 2.75375 -2.31104 0
M  V30 2081 C 191.382 2.55238 -3.79081 0
M  V30 2082 C 192.379 2.20309 -4.70914 0
M  V30 2083 C 190.064 2.70459 -4.2327 0
M  V30 2084 C 192.058 2.00859 -6.04925 0
M  V30 2085 C 189.745 2.50624 -5.57343 0
M  V30 2086 C 190.743 2.15876 -6.47986 0
M  V30 2087 O 190.431 1.96227 -7.79583 0
M  V30 2088 H 190.163 0.4586 -0.496651 0
M  V30 2089 H 192.717 0.846131 -1.87162 0
M  V30 2090 H 190.947 3.40061 -1.84107 0
M  V30 2091 H 192.636 3.37231 -2.25898 0
M  V30 2092 H 193.402 2.08153 -4.38061 0
M  V30 2093 H 189.281 2.96485 -3.53012 0
M  V30 2094 H 192.825 1.7366 -6.75639 0
M  V30 2095 H 188.722 2.62375 -5.89771 0
M  V30 2096 H 189.49 2.10883 -7.90867 0
M  V30 2097 N 192.153 1.28127 0.917671 0
M  V30 2098 C 193.103 1.08361 2.00604 0
M  V30 2099 C 194.087 0.00847518 1.60898 0
M  V30 2100 O 195.279 0.228167 1.75523 0
M  V30 2101 C 192.408 0.743376 3.35155 0
M  V30 2102 C 191.494 1.85716 3.81275 0
M  V30 2103 N 191.885 3.09822 3.99805 0
M  V30 2104 C 190.183 1.74612 4.10398 0
M  V30 2105 C 190.884 3.82368 4.38372 0
M  V30 2106 N 189.86 3.10192 4.4641 0
M  V30 2107 H 193.662 2.02531 2.12975 0
M  V30 2108 H 191.176 1.18989 1.10523 0
M  V30 2109 H 193.173 0.582859 4.12805 0
M  V30 2110 H 191.833 -0.190595 3.2414 0
M  V30 2111 H 192.844 3.45475 3.85833 0
M  V30 2112 H 189.521 0.883657 4.08041 0
M  V30 2113 H 190.911 4.89082 4.60704 0
M  V30 2114 N 193.631 -1.12557 1.10312 0
M  V30 2115 C 194.859 -1.87864 0.866873 0
M  V30 2116 C 195.274 -1.79588 -0.582557 0
M  V30 2117 O 194.631 -1.16887 -1.40156 0
M  V30 2118 C 194.682 -3.37125 1.30496 0
M  V30 2119 O 194.403 -3.45201 2.69755 0
M  V30 2120 C 195.904 -4.29373 1.10243 0
M  V30 2121 H 193.124 -0.594452 0.311236 0
M  V30 2122 H 195.668 -1.42429 1.46745 0
M  V30 2123 H 193.823 -3.80109 0.748081 0
M  V30 2124 H 194.237 -4.38056 2.88457 0
M  V30 2125 H 195.711 -5.32394 1.45811 0
M  V30 2126 H 196.188 -4.39181 0.0409492 0
M  V30 2127 H 196.794 -3.92169 1.64571 0
M  V30 2128 N 195.109 -0.891671 -1.2995 0
M  V30 2129 C 196.019 -0.367691 -2.31701 0
M  V30 2130 C 197.035 0.533486 -1.6562 0
M  V30 2131 O 198.211 0.424997 -1.96865 0
M  V30 2132 C 195.276 0.403406 -3.44345 0
M  V30 2133 C 194.337 -0.528328 -4.26037 0
M  V30 2134 C 193.57 0.206063 -5.33302 0
M  V30 2135 O 193.793 1.43119 -5.52153 0
M  V30 2136 O 192.727 -0.447281 -6.00236 0
M  V30 2137 H 196.553 -1.21163 -2.78484 0
M  V30 2138 H 194.138 -0.655725 -1.34241 0
M  V30 2139 H 196.02 0.839753 -4.12948 0
M  V30 2140 H 194.695 1.22354 -2.99685 0
M  V30 2141 H 193.602 -1.01362 -3.60106 0
M  V30 2142 H 194.935 -1.31465 -4.74318 0
M  V30 2143 N 196.587 1.43421 -0.653314 0
M  V30 2144 C 197.497 2.34568 0.0388565 0
M  V30 2145 C 198.513 1.53888 0.81207 0
M  V30 2146 O 199.689 1.86539 0.759294 0
M  V30 2147 C 196.754 3.32167 0.993269 0
M  V30 2148 C 195.815 4.28751 0.216977 0
M  V30 2149 C 195.048 5.21688 1.12593 0
M  V30 2150 O 195.271 5.19052 2.36519 0
M  V30 2151 O 194.205 5.98919 0.598284 0
M  V30 2152 H 198.031 2.95251 -0.711386 0
M  V30 2153 H 195.616 1.43564 -0.413502 0
M  V30 2154 H 197.498 3.92183 1.54176 0
M  V30 2155 H 196.173 2.73987 1.72374 0
M  V30 2156 H 195.08 3.72215 -0.375101 0
M  V30 2157 H 196.413 4.89913 -0.473924 0
M  V30 2158 N 198.065 0.39524 1.52563 0
M  V30 2159 C 199.293 -0.184943 2.06072 0
M  V30 2160 C 199.708 -1.40021 1.26647 0
M  V30 2161 O 199.065 -1.79767 0.314672 0
M  V30 2162 C 199.116 -0.549179 3.57304 0
M  V30 2163 O 198.837 0.617813 4.33722 0
M  V30 2164 C 200.338 -1.18459 4.2718 0
M  V30 2165 H 197.558 -0.0265025 0.670476 0
M  V30 2166 H 200.102 0.562184 1.96621 0
M  V30 2167 H 198.257 -1.2462 3.66809 0
M  V30 2168 H 198.671 0.317091 5.23541 0
M  V30 2169 H 200.145 -1.38976 5.34219 0
M  V30 2170 H 200.622 -2.15368 3.82771 0
M  V30 2171 H 201.228 -0.528163 4.22008 0
M  V30 2172 N 199.544 -1.57102 0.125237 0
M  V30 2173 C 200.793 -1.94582 -0.531095 0
M  V30 2174 C 201.106 -1.01126 -1.6743 0
M  V30 2175 O 202.312 -1.28097 -2.39381 0
M  V30 2176 C 200.768 -3.45839 -0.996164 0
M  V30 2177 C 200.376 -4.47842 0.118926 0
M  V30 2178 C 202.12 -3.92227 -1.62352 0
M  V30 2179 C 200.027 -5.90284 -0.363192 0
M  V30 2180 H 198.957 -0.726391 -0.20217 0
M  V30 2181 H 201.608 -1.82339 0.206092 0
M  V30 2182 H 199.99 -3.53338 -1.78796 0
M  V30 2183 H 201.164 -4.52018 0.895358 0
M  V30 2184 H 199.479 -4.11243 0.653324 0
M  V30 2185 H 202.076 -4.96069 -1.99548 0
M  V30 2186 H 202.419 -3.32552 -2.50429 0
M  V30 2187 H 202.952 -3.87554 -0.897019 0
M  V30 2188 H 199.691 -6.53728 0.481679 0
M  V30 2189 H 199.211 -5.89515 -1.10597 0
M  V30 2190 H 200.89 -6.41752 -0.822377 0
M  V30 2191 N 201.022 0.148545 -1.56898 0
M  V30 2192 C 201.969 1.18345 -1.98149 0
M  V30 2193 C 202.939 1.42772 -0.848848 0
M  V30 2194 O 204.124 1.55132 -1.11079 0
M  V30 2195 C 201.264 2.51231 -2.36594 0
M  V30 2196 C 200.377 2.33991 -3.63142 0
M  V30 2197 C 199.512 3.59902 -3.90697 0
M  V30 2198 C 198.551 3.37692 -5.1052 0
M  V30 2199 N 197.688 4.5573 -5.34092 0
M  V30 2200 H 202.528 0.82467 -2.86362 0
M  V30 2201 H 200.065 0.395756 -1.41676 0
M  V30 2202 H 202.023 3.28713 -2.56912 0
M  V30 2203 H 200.653 2.85059 -1.51463 0
M  V30 2204 H 199.705 1.47572 -3.50609 0
M  V30 2205 H 201.017 2.13539 -4.5078 0
M  V30 2206 H 200.171 4.45813 -4.11505 0
M  V30 2207 H 198.91 3.83357 -3.01477 0
M  V30 2208 H 197.915 2.5017 -4.89587 0
M  V30 2209 H 199.14 3.15637 -6.0129 0
M  V30 2210 H 197.086 4.79361 -4.47827 0
M  V30 2211 H 197.003 4.38274 -6.15996 0
M  V30 2212 H 198.271 5.42858 -5.59397 0
M  V30 2213 N 202.5 1.5196 0.417844 0
M  V30 2214 C 203.749 1.6482 1.16264 0
M  V30 2215 C 204.062 0.379886 1.91876 0
M  V30 2216 O 205.268 0.388154 2.68711 0
M  V30 2217 C 203.724 2.91161 2.1155 0
M  V30 2218 C 203.332 4.25068 1.41495 0
M  V30 2219 C 205.076 3.13383 2.86341 0
M  V30 2220 C 202.983 5.42541 2.35379 0
M  V30 2221 H 201.913 0.613954 0.437694 0
M  V30 2222 H 204.564 1.78442 0.427871 0
M  V30 2223 H 202.946 2.71218 2.88543 0
M  V30 2224 H 204.12 4.55463 0.699263 0
M  V30 2225 H 202.435 4.0888 0.787792 0
M  V30 2226 H 205.032 3.98324 3.5671 0
M  V30 2227 H 205.375 2.27256 3.48798 0
M  V30 2228 H 205.908 3.33757 2.1645 0
M  V30 2229 H 202.647 6.30987 1.77582 0
M  V30 2230 H 202.167 5.16497 3.04945 0
M  V30 2231 H 203.846 5.75272 2.96093 0
M  V30 2232 N 203.978 -0.674533 1.42435 0
M  V30 2233 C 204.926 -1.80934 1.46169 0
M  V30 2234 C 205.92 -1.66006 0.3374 0
M  V30 2235 O 207.126 -1.72611 0.510425 0
M  V30 2236 H 203.501 -0.596594 0.457798 0
M  V30 2237 H 205.472 -1.74903 2.41767 0
M  V30 2238 C 204.221 -3.19088 1.38123 0
M  V30 2239 H 203.544 -3.31203 2.23931 0
M  V30 2240 H 204.984 -3.9851 1.44797 0
M  V30 2241 C 203.443 -3.36763 0.0960517 0
M  V30 2242 O 203.973 -3.92581 -0.851073 0
M  V30 2243 N 202.179 -2.90597 0.0131186 0
M  V30 2244 H 201.726 -2.45359 0.784639 0
M  V30 2245 H 201.684 -3.028 -0.846133 0
M  V30 2246 N 205.456 -1.28612 -0.910864 0
M  V30 2247 C 206.388 -1.08589 -2.01844 0
M  V30 2248 C 207.401 -0.0367419 -1.62759 0
M  V30 2249 O 208.59 -0.280101 -1.76289 0
M  V30 2250 C 205.69 -0.628626 -3.33019 0
M  V30 2251 C 204.863 -1.75382 -4.00699 0
M  V30 2252 C 203.922 -1.28945 -5.10156 0
M  V30 2253 O 202.948 -1.9922 -5.33198 0
M  V30 2254 N 204.15 -0.154224 -5.80295 0
M  V30 2255 H 206.915 -2.03973 -2.19579 0
M  V30 2256 H 204.476 -1.20403 -1.08234 0
M  V30 2257 H 206.468 -0.301508 -4.03575 0
M  V30 2258 H 205.038 0.232451 -3.11735 0
M  V30 2259 H 204.258 -2.25039 -3.23653 0
M  V30 2260 H 205.546 -2.50854 -4.42662 0
M  V30 2261 H 204.944 0.43194 -5.64049 0
M  V30 2262 H 203.501 0.113599 -6.51701 0
M  V30 2263 N 206.934 1.1197 -1.10907 0
M  V30 2264 C 207.881 2.17846 -0.762345 0
M  V30 2265 C 208.851 1.63995 0.263599 0
M  V30 2266 O 210.036 1.90273 0.141773 0
M  V30 2267 C 207.176 3.44487 -0.205651 0
M  V30 2268 C 206.289 4.12369 -1.28748 0
M  V30 2269 C 205.424 5.26674 -0.691919 0
M  V30 2270 C 204.463 5.86431 -1.75399 0
M  V30 2271 N 203.6 6.92142 -1.17833 0
M  V30 2272 H 208.44 2.46851 -1.6694 0
M  V30 2273 H 205.977 1.21188 -0.833776 0
M  V30 2274 H 207.935 4.16981 0.135037 0
M  V30 2275 H 206.565 3.15884 0.664613 0
M  V30 2276 H 205.617 3.38003 -1.74522 0
M  V30 2277 H 206.929 4.52844 -2.09125 0
M  V30 2278 H 206.083 6.05953 -0.300963 0
M  V30 2279 H 204.822 4.8749 0.143232 0
M  V30 2280 H 203.827 5.05835 -2.15432 0
M  V30 2281 H 205.052 6.27685 -2.59208 0
M  V30 2282 H 202.998 6.54985 -0.364725 0
M  V30 2283 H 202.915 7.31242 -1.91887 0
M  V30 2284 H 204.183 7.75237 -0.81408 0
M  V30 2285 N 208.412 0.89855 1.29475 0
M  V30 2286 C 209.652 0.530771 1.97388 0
M  V30 2287 C 210.016 -0.905832 1.69289 0
M  V30 2288 O 211.217 -1.38042 2.30646 0
M  V30 2289 C 209.488 0.81369 3.48014 0
M  V30 2290 S 211.047 0.550048 4.35339 0
M  V30 2291 H 207.865 0.196956 0.683176 0
M  V30 2292 H 210.467 1.16074 1.57312 0
M  V30 2293 H 209.171 1.85749 3.65958 0
M  V30 2294 H 208.702 0.171795 3.93025 0
M  V30 2295 H 210.717 -0.605423 4.92493 0
M  V30 2296 N 209.89 -1.43072 0.660911 0
M  V30 2297 C 211.115 -2.06584 0.183805 0
M  V30 2298 C 211.54 -1.49257 -1.14472 0
M  V30 2299 O 210.898 -0.605528 -1.70889 0
M  V30 2300 C 210.946 -3.60418 0.114434 0
M  V30 2301 O 210.05 -4.01981 -0.921137 0
M  V30 2302 H 209.391 -0.656669 0.0983994 0
M  V30 2303 H 211.921 -1.83447 0.906006 0
M  V30 2304 H 211.931 -4.07946 -0.0663394 0
M  V30 2305 H 210.606 -4.01519 1.08422 0
M  V30 2306 H 209.183 -3.66029 -0.71253 0
M  V30 2307 N 211.368 -0.403325 -1.52352 0
M  V30 2308 C 212.598 0.17376 -2.05868 0
M  V30 2309 C 213.006 1.39898 -1.27378 0
M  V30 2310 O 212.349 1.80939 -0.31729 0
M  V30 2311 C 212.411 0.594756 -3.54546 0
M  V30 2312 C 212.075 -0.518926 -4.54044 0
M  V30 2313 C 213.072 -1.3807 -5.01231 0
M  V30 2314 C 210.757 -0.689961 -4.97539 0
M  V30 2315 C 212.751 -2.39852 -5.90551 0
M  V30 2316 C 210.438 -1.71109 -5.86656 0
M  V30 2317 C 211.436 -2.56378 -6.33056 0
M  V30 2318 O 211.124 -3.56743 -7.20409 0
M  V30 2319 H 210.856 0.0264951 -0.675481 0
M  V30 2320 H 213.41 -0.571179 -1.97299 0
M  V30 2321 H 211.64 1.39189 -3.60782 0
M  V30 2322 H 213.329 1.0991 -3.90736 0
M  V30 2323 H 214.095 -1.25994 -4.68349 0
M  V30 2324 H 209.974 -0.035939 -4.60986 0
M  V30 2325 H 213.518 -3.06441 -6.26689 0
M  V30 2326 H 209.415 -1.83218 -6.18952 0
M  V30 2327 H 210.183 -3.52918 -7.38506 0
M  V30 2328 N 212.846 1.57033 -0.133567 0
M  V30 2329 C 214.095 1.94861 0.520768 0
M  V30 2330 C 214.408 1.02012 1.66892 0
M  V30 2331 O 215.614 1.29365 2.38699 0
M  V30 2332 C 214.07 3.46362 0.977809 0
M  V30 2333 C 213.678 4.47773 -0.142674 0
M  V30 2334 C 215.422 3.93083 1.60269 0
M  V30 2335 C 213.329 5.90468 0.331883 0
M  V30 2336 H 212.259 0.727453 0.198315 0
M  V30 2337 H 214.91 1.82227 -0.215759 0
M  V30 2338 H 213.292 3.54282 1.7692 0
M  V30 2339 H 214.466 4.51536 -0.919317 0
M  V30 2340 H 212.781 4.10891 -0.675124 0
M  V30 2341 H 215.378 4.97121 1.96914 0
M  V30 2342 H 215.721 3.33876 2.48662 0
M  V30 2343 H 216.254 3.88025 0.876453 0
M  V30 2344 H 212.993 6.53463 -0.516341 0
M  V30 2345 H 212.513 5.90094 1.07469 0
M  V30 2346 H 214.192 6.42179 0.788332 0
M  V30 2347 N 214.325 -0.140222 1.56975 0
M  V30 2348 C 215.736 -0.699596 1.73097 0
M  V30 2349 C 216.087 -1.8134 0.749022 0
M  V30 2350 O 215.212 -2.16241 -0.0828503 0
M  V30 2351 C 215.807 -1.27582 3.1386 0
M  V30 2352 C 214.366 -1.78169 3.31561 0
M  V30 2353 C 213.513 -0.672855 2.69013 0
M  V30 2354 H 216.464 0.0855115 1.58469 0
M  V30 2355 H 216.485 -2.14561 3.14235 0
M  V30 2356 H 215.997 -0.464955 3.85305 0
M  V30 2357 H 214.098 -2.61801 2.65124 0
M  V30 2358 H 214.211 -1.90574 4.39566 0
M  V30 2359 H 212.575 -1.10118 2.29665 0
M  V30 2360 H 213.358 0.126679 3.43066 0
M  V30 2361 N 215.803 -1.52179 -0.40978 0
M  V30 2362 C 216.75 -1.75475 -1.49924 0
M  V30 2363 C 217.72 -0.597175 -1.54994 0
M  V30 2364 O 218.905 -0.834655 -1.71575 0
M  V30 2365 C 216.045 -1.9107 -2.87378 0
M  V30 2366 C 215.158 -3.18717 -2.91622 0
M  V30 2367 C 214.293 -3.24747 -4.20372 0
M  V30 2368 C 213.332 -4.46598 -4.18588 0
M  V30 2369 N 212.469 -4.50025 -5.38908 0
M  V30 2370 H 217.309 -2.68458 -1.29361 0
M  V30 2371 H 214.846 -1.33024 -0.627934 0
M  V30 2372 H 216.804 -1.98096 -3.6717 0
M  V30 2373 H 215.434 -1.01469 -3.06437 0
M  V30 2374 H 214.486 -3.20866 -2.04326 0
M  V30 2375 H 215.798 -4.08544 -2.86169 0
M  V30 2376 H 214.952 -3.30841 -5.08556 0
M  V30 2377 H 213.691 -2.32857 -4.28519 0
M  V30 2378 H 212.696 -4.40652 -3.28794 0
M  V30 2379 H 213.921 -5.39783 -4.12081 0
M  V30 2380 H 211.867 -3.61017 -5.47725 0
M  V30 2381 H 211.784 -5.33697 -5.35447 0
M  V30 2382 H 213.052 -4.60347 -6.29048 0
M  V30 2383 N 217.281 0.66697 -1.42791 0
M  V30 2384 C 218.521 1.43892 -1.4517 0
M  V30 2385 C 218.885 1.91877 -0.0687551 0
M  V30 2386 O 220.086 2.6878 0.0327455 0
M  V30 2387 C 218.357 2.59839 -2.45395 0
M  V30 2388 S 219.916 3.48572 -2.66539 0
M  V30 2389 H 216.734 0.491356 -0.513897 0
M  V30 2390 H 219.336 0.775656 -1.79454 0
M  V30 2391 H 218.04 2.22838 -3.44632 0
M  V30 2392 H 217.571 3.3103 -2.12562 0
M  V30 2393 H 219.586 4.56094 -1.95429 0
M  V30 2394 N 218.759 1.29093 0.90403 0
M  V30 2395 C 220.007 1.16583 1.65085 0
M  V30 2396 C 220.328 -0.283933 1.92922 0
M  V30 2397 O 219.598 -1.19509 1.55224 0
M  V30 2398 H 218.178 0.428467 0.611903 0
M  V30 2399 H 220.84 1.61959 1.08422 0
M  V30 2400 H 219.936 1.71266 2.6091 0
M  V30 2401 N 220.237 -1.11381 1.11499 0
M  V30 2402 C 221.184 -2.17439 0.773887 0
M  V30 2403 C 222.154 -1.64132 -0.254899 0
M  V30 2404 O 223.339 -1.90345 -0.13168 0
M  V30 2405 C 220.479 -3.44373 0.223917 0
M  V30 2406 C 219.592 -4.1168 1.30934 0
M  V30 2407 C 218.727 -5.263 0.71984 0
M  V30 2408 C 217.766 -5.85493 1.78507 0
M  V30 2409 N 216.903 -6.91507 1.21502 0
M  V30 2410 H 221.743 -2.45962 1.68246 0
M  V30 2411 H 219.28 -1.20744 0.840191 0
M  V30 2412 H 221.238 -4.17047 -0.112921 0
M  V30 2413 H 219.868 -3.16232 -0.647851 0
M  V30 2414 H 218.92 -3.37073 1.76312 0
M  V30 2415 H 220.232 -4.51729 2.11524 0
M  V30 2416 H 219.386 -6.05785 0.333094 0
M  V30 2417 H 218.125 -4.87559 -0.117377 0
M  V30 2418 H 217.13 -5.04686 2.18111 0
M  V30 2419 H 218.355 -6.26301 2.62533 0
M  V30 2420 H 216.301 -6.54783 0.399455 0
M  V30 2421 H 216.218 -7.30214 1.95763 0
M  V30 2422 H 217.486 -7.74795 0.855181 0
M  V30 2423 N 221.715 -0.905404 -1.28997 0
M  V30 2424 C 222.663 -0.377431 -2.29517 0
M  V30 2425 C 223.657 0.526461 -1.61012 0
M  V30 2426 O 224.863 0.40863 -1.753 0
M  V30 2427 H 221.238 -0.103437 -0.744852 0
M  V30 2428 H 223.209 -1.23848 -2.71485 0
M  V30 2429 C 221.958 0.374833 -3.45674 0
M  V30 2430 H 221.281 -0.311474 -3.98585 0
M  V30 2431 H 222.721 0.70903 -4.1803 0
M  V30 2432 C 221.18 1.57963 -2.97572 0
M  V30 2433 O 221.71 2.67886 -2.99333 0
M  V30 2434 N 219.916 1.42375 -2.53333 0
M  V30 2435 H 219.463 0.529466 -2.521 0
M  V30 2436 H 219.421 2.23117 -2.21509 0
M  V30 2437 N 223.193 1.4272 -0.668489 0
M  V30 2438 C 224.44 2.01624 -0.18814 0
M  V30 2439 C 224.768 1.5282 1.20317 0
M  V30 2440 O 224.023 0.718323 1.8204 0
M  V30 2441 C 224.322 3.57021 -0.164499 0
M  V30 2442 C 223.988 4.25232 -1.49962 0
M  V30 2443 C 222.65 4.4358 -1.8652 0
M  V30 2444 C 225.002 4.63727 -2.37921 0
M  V30 2445 C 222.33 4.97694 -3.10674 0
M  V30 2446 C 224.682 5.19218 -3.6138 0
M  V30 2447 C 223.346 5.3578 -3.98115 0
M  V30 2448 H 222.616 0.737795 -0.0688454 0
M  V30 2449 H 225.263 1.70991 -0.862225 0
M  V30 2450 H 223.568 3.87285 0.593079 0
M  V30 2451 H 225.265 4.00372 0.224271 0
M  V30 2452 H 221.855 4.11306 -1.20522 0
M  V30 2453 H 226.039 4.4923 -2.10964 0
M  V30 2454 H 221.295 5.08702 -3.39164 0
M  V30 2455 H 225.469 5.4799 -4.29743 0
M  V30 2456 H 223.096 5.77475 -4.94395 0
M  V30 2457 N 224.671 0.411399 1.52136 0
M  V30 2458 C 225.581 -0.419774 2.30814 0
M  V30 2459 C 226.597 -1.0515 1.38634 0
M  V30 2460 O 227.773 -1.05252 1.71709 0
M  V30 2461 C 224.838 -1.52019 3.11594 0
M  V30 2462 C 223.899 -0.91129 4.19516 0
M  V30 2463 C 223.132 -1.95927 4.96436 0
M  V30 2464 O 223.355 -3.17775 4.73683 0
M  V30 2465 O 222.289 -1.56423 5.81219 0
M  V30 2466 H 226.115 0.221805 3.02889 0
M  V30 2467 H 223.7 0.174547 1.48377 0
M  V30 2468 H 225.582 -2.15898 3.61892 0
M  V30 2469 H 224.257 -2.14633 2.42311 0
M  V30 2470 H 223.164 -0.235157 3.7336 0
M  V30 2471 H 224.497 -0.32904 4.91099 0
M  V30 2472 N 226.149 -1.5696 0.141893 0
M  V30 2473 C 227.059 -2.20066 -0.812905 0
M  V30 2474 C 228.075 -1.18344 -1.27557 0
M  V30 2475 O 229.251 -1.50902 -1.33381 0
M  V30 2476 C 226.316 -2.80583 -2.03652 0
M  V30 2477 C 225.377 -3.97414 -1.62359 0
M  V30 2478 C 224.61 -4.55036 -2.78887 0
M  V30 2479 O 224.833 -4.11538 -3.94959 0
M  V30 2480 O 223.767 -5.45376 -2.54653 0
M  V30 2481 H 227.593 -3.02157 -0.305746 0
M  V30 2482 H 225.178 -1.49159 -0.0848799 0
M  V30 2483 H 227.06 -3.19067 -2.75272 0
M  V30 2484 H 225.735 -2.01508 -2.5333 0
M  V30 2485 H 224.642 -3.63656 -0.877775 0
M  V30 2486 H 225.975 -4.77994 -1.17401 0
M  V30 2487 N 227.627 0.131896 -1.57047 0
M  V30 2488 C 228.852 0.860418 -1.8871 0
M  V30 2489 C 229.277 1.73251 -0.73251 0
M  V30 2490 O 228.635 1.785 0.317429 0
M  V30 2491 C 228.683 1.68047 -3.19049 0
M  V30 2492 O 227.787 2.7862 -3.04047 0
M  V30 2493 H 227.128 0.238743 -0.619595 0
M  V30 2494 H 229.658 0.118169 -2.04258 0
M  V30 2495 H 229.668 2.07238 -3.51449 0
M  V30 2496 H 228.343 1.04018 -4.02682 0
M  V30 2497 H 226.92 2.42726 -2.83088 0
M  V30 2498 N 229.106 1.52395 0.401703 0
M  V30 2499 C 230.039 1.70999 1.51111 0
M  V30 2500 C 231.017 0.55765 1.52738 0
M  V30 2501 O 232.201 0.785912 1.71335 0
M  V30 2502 C 229.328 1.75607 2.8962 0
M  V30 2503 C 228.374 2.97227 3.05873 0
M  V30 2504 S 229.207 4.57439 2.78405 0
M  V30 2505 C 230.363 4.64844 4.19131 0
M  V30 2506 H 230.596 2.6483 1.35102 0
M  V30 2507 H 228.129 1.42527 0.593762 0
M  V30 2508 H 230.087 1.78947 3.69443 0
M  V30 2509 H 228.748 0.828914 3.02965 0
M  V30 2510 H 227.941 2.96955 4.07227 0
M  V30 2511 H 227.543 2.91813 2.33925 0
M  V30 2512 H 229.835 4.42677 5.12877 0
M  V30 2513 H 230.778 5.66807 4.24424 0
M  V30 2514 H 231.186 3.93804 4.04448 0
M  V30 2515 N 230.584 -0.659388 1.43143 0
M  V30 2516 C 231.809 -1.45221 1.48073 0
M  V30 2517 C 232.234 -1.87845 0.097995 0
M  V30 2518 O 231.592 -1.56985 -0.90694 0
M  V30 2519 C 231.64 -2.66748 2.42647 0
M  V30 2520 O 230.744 -3.65583 1.90848 0
M  V30 2521 H 230.085 -0.435669 0.501088 0
M  V30 2522 H 232.615 -0.807432 1.87994 0
M  V30 2523 H 232.625 -3.14637 2.59745 0
M  V30 2524 H 231.3 -2.35067 3.43098 0
M  V30 2525 H 229.877 -3.24693 1.83381 0
M  V30 2526 N 232.062 -1.29571 -0.897171 0
M  V30 2527 C 232.992 -1.17473 -2.01798 0
M  V30 2528 C 233.973 -0.068323 -1.69963 0
M  V30 2529 O 235.158 -0.248239 -1.92607 0
M  V30 2530 C 232.288 -0.853099 -3.36659 0
M  V30 2531 C 231.242 -1.9161 -3.82713 0
M  V30 2532 C 230.568 -1.44773 -5.14728 0
M  V30 2533 C 231.868 -3.32535 -4.02763 0
M  V30 2534 H 233.562 -2.11237 -2.12177 0
M  V30 2535 H 231.108 -1.01699 -1.01948 0
M  V30 2536 H 233.061 -0.755165 -4.14578 0
M  V30 2537 H 231.785 0.120236 -3.26379 0
M  V30 2538 H 230.444 -2.00346 -3.07013 0
M  V30 2539 H 230.092 -0.462995 -5.00865 0
M  V30 2540 H 229.792 -2.15865 -5.46513 0
M  V30 2541 H 231.316 -1.36334 -5.95185 0
M  V30 2542 H 232.73 -3.26626 -4.71156 0
M  V30 2543 H 231.127 -4.01607 -4.45905 0
M  V30 2544 H 232.197 -3.75326 -3.07016 0
M  V30 2545 N 233.54 1.10788 -1.12088 0
M  V30 2546 C 234.786 1.82942 -0.875226 0
M  V30 2547 C 235.119 1.84779 0.597538 0
M  V30 2548 O 234.394 1.30578 1.44152 0
M  V30 2549 C 234.677 3.29789 -1.44606 0
M  V30 2550 C 234.53 3.36307 -2.98693 0
M  V30 2551 C 235.849 4.26064 -1.10261 0
M  V30 2552 H 232.968 0.664195 -0.319397 0
M  V30 2553 H 235.61 1.29867 -1.38689 0
M  V30 2554 H 233.76 3.75118 -1.01089 0
M  V30 2555 H 235.432 2.99487 -3.50864 0
M  V30 2556 H 233.675 2.76318 -3.34411 0
M  V30 2557 H 234.346 4.39694 -3.33726 0
M  V30 2558 H 236.822 3.88951 -1.4784 0
M  V30 2559 H 235.698 5.27183 -1.52869 0
M  V30 2560 H 235.959 4.42098 -0.0142953 0
M  V30 2561 N 235.018 0.912232 1.28515 0
M  V30 2562 C 235.966 0.389597 2.29314 0
M  V30 2563 C 236.96 -0.517915 1.61289 0
M  V30 2564 O 238.166 -0.399328 1.75515 0
M  V30 2565 H 234.541 0.107386 0.744293 0
M  V30 2566 H 236.512 1.25286 2.70825 0
M  V30 2567 C 235.261 -0.356496 3.45868 0
M  V30 2568 H 234.584 0.332608 3.98414 0
M  V30 2569 H 236.024 -0.686851 4.184 0
M  V30 2570 C 234.483 -1.56383 2.98406 0
M  V30 2571 O 235.013 -2.66294 3.00749 0
M  V30 2572 N 233.219 -1.41029 2.54085 0
M  V30 2573 H 232.766 -0.516089 2.52377 0
M  V30 2574 H 232.724 -2.21939 2.22689 0
M  V30 2575 N 236.496 -1.42363 0.676048 0
M  V30 2576 C 237.742 -2.0182 0.199125 0
M  V30 2577 C 238.075 -1.53339 -1.19168 0
M  V30 2578 O 237.35 -0.736124 -1.80032 0
M  V30 2579 C 237.633 -3.59331 0.235144 0
M  V30 2580 C 237.486 -4.17989 1.66149 0
M  V30 2581 C 238.805 -4.3813 -0.41595 0
M  V30 2582 H 235.924 -0.733293 0.0738311 0
M  V30 2583 H 238.566 -1.69368 0.86107 0
M  V30 2584 H 236.716 -3.87109 -0.328487 0
M  V30 2585 H 238.388 -4.0116 2.27747 0
M  V30 2586 H 236.631 -3.7377 2.20178 0
M  V30 2587 H 237.302 -5.27126 1.63837 0
M  V30 2588 H 239.778 -4.16051 0.0638529 0
M  V30 2589 H 238.654 -5.47717 -0.360115 0
M  V30 2590 H 238.915 -4.16101 -1.49373 0
M  V30 2591 N 237.974 -0.419461 -1.51915 0
M  V30 2592 C 239.22 0.153166 -2.02221 0
M  V30 2593 C 239.553 1.43907 -1.30401 0
M  V30 2594 O 238.828 1.90055 -0.413438 0
M  V30 2595 C 239.111 0.390291 -3.57979 0
M  V30 2596 C 238.964 -0.913014 -4.40436 0
M  V30 2597 C 240.283 1.16794 -4.2432 0
M  V30 2598 H 237.402 0.0541924 -0.735005 0
M  V30 2599 H 240.044 -0.554955 -1.81715 0
M  V30 2600 H 238.194 0.993491 -3.75582 0
M  V30 2601 H 239.866 -1.54882 -4.34522 0
M  V30 2602 H 238.109 -1.52168 -4.06236 0
M  V30 2603 H 238.78 -0.701361 -5.47526 0
M  V30 2604 H 241.256 0.657161 -4.10878 0
M  V30 2605 H 240.132 1.3026 -5.3322 0
M  V30 2606 H 240.393 2.19132 -3.83971 0
M  V30 2607 N 239.452 1.56882 -0.150215 0
M  V30 2608 C 240.385 2.12712 0.826358 0
M  V30 2609 C 241.363 1.05154 1.24022 0
M  V30 2610 O 242.547 1.33004 1.33575 0
M  V30 2611 C 239.674 2.64945 2.11002 0
M  V30 2612 C 238.72 3.8468 1.84183 0
M  V30 2613 S 239.553 5.25502 1.02995 0
M  V30 2614 C 240.709 5.81125 2.32474 0
M  V30 2615 H 240.942 2.95214 0.351598 0
M  V30 2616 H 238.475 1.54267 0.0641211 0
M  V30 2617 H 240.433 2.95689 2.84742 0
M  V30 2618 H 239.094 1.82568 2.55593 0
M  V30 2619 H 238.287 4.19482 2.79375 0
M  V30 2620 H 237.889 3.54714 1.1855 0
M  V30 2621 H 240.181 5.92753 3.281 0
M  V30 2622 H 241.124 6.78625 2.02171 0
M  V30 2623 H 241.532 5.09392 2.43269 0
M  V30 2624 N 240.93 -0.123565 1.57115 0
M  V30 2625 C 241.84 -1.17074 2.033 0
M  V30 2626 C 242.856 -1.4561 0.952559 0
M  V30 2627 O 244.032 -1.56817 1.26374 0
M  V30 2628 C 241.097 -2.47857 2.42421 0
M  V30 2629 C 240.158 -2.26758 3.64526 0
M  V30 2630 C 239.391 -3.51305 4.01771 0
M  V30 2631 O 239.614 -4.5843 3.39409 0
M  V30 2632 O 238.548 -3.42578 4.94898 0
M  V30 2633 H 242.374 -0.808555 2.92739 0
M  V30 2634 H 239.959 -0.334027 1.45618 0
M  V30 2635 H 241.841 -3.2492 2.68338 0
M  V30 2636 H 240.516 -2.83558 1.5613 0
M  V30 2637 H 239.423 -1.47569 3.43765 0
M  V30 2638 H 240.756 -1.95963 4.51508 0
M  V30 2639 N 242.408 -1.52605 -0.393616 0
M  V30 2640 C 243.356 -1.77688 -1.50099 0
M  V30 2641 C 244.35 -0.644615 -1.56656 0
M  V30 2642 O 245.556 -0.826997 -1.59877 0
M  V30 2643 H 241.931 -0.562159 -0.499481 0
M  V30 2644 H 243.902 -2.7043 -1.26135 0
M  V30 2645 C 242.651 -1.95858 -2.87289 0
M  V30 2646 H 241.974 -2.8241 -2.82992 0
M  V30 2647 H 243.414 -2.174 -3.64024 0
M  V30 2648 C 241.873 -0.729848 -3.28899 0
M  V30 2649 O 242.403 0.0949217 -4.01588 0
M  V30 2650 N 240.609 -0.561283 -2.85128 0
M  V30 2651 H 240.156 -1.23357 -2.26143 0
M  V30 2652 H 240.114 0.2595 -3.13327 0
M  V30 2653 N 243.887 0.651787 -1.4349 0
M  V30 2654 C 245.134 1.41167 -1.45183 0
M  V30 2655 C 245.462 1.94349 -0.0766601 0
M  V30 2656 O 244.717 1.72804 0.918555 0
M  V30 2657 C 245.016 2.60914 -2.44251 0
M  V30 2658 C 244.682 2.26142 -3.9009 0
M  V30 2659 C 243.344 2.16371 -4.2981 0
M  V30 2660 C 245.696 1.98334 -4.81989 0
M  V30 2661 C 243.024 1.7695 -5.5938 0
M  V30 2662 C 245.376 1.6041 -6.11924 0
M  V30 2663 C 244.04 1.49166 -6.5062 0
M  V30 2664 H 243.31 0.516566 -0.531263 0
M  V30 2665 H 245.957 0.741099 -1.76579 0
M  V30 2666 H 244.262 3.3311 -2.06265 0
M  V30 2667 H 245.959 3.19127 -2.42815 0
M  V30 2668 H 242.549 2.34658 -3.58655 0
M  V30 2669 H 246.733 2.04803 -4.52072 0
M  V30 2670 H 241.989 1.66831 -5.88198 0
M  V30 2671 H 246.163 1.37925 -6.82605 0
M  V30 2672 H 243.79 1.1839 -7.50925 0
M  V30 2673 N 245.365 1.30045 0.890287 0
M  V30 2674 C 246.781 1.08261 1.17268 0
M  V30 2675 C 246.981 -0.160063 2.00863 0
M  V30 2676 O 246.037 -0.855181 2.37577 0
M  V30 2677 C 247.35 2.34323 1.8845 0
M  V30 2678 C 248.898 2.39735 2.01237 0
M  V30 2679 C 249.373 3.65625 2.7583 0
M  V30 2680 N 250.864 3.66402 2.83379 0
M  V30 2681 C 251.599 4.60498 3.41657 0
M  V30 2682 N 251.095 5.64933 4.01026 0
M  V30 2683 N 252.888 4.48051 3.39421 0
M  V30 2684 H 245.039 2.09777 0.332762 0
M  V30 2685 H 247.302 0.92446 0.209948 0
M  V30 2686 H 247.008 3.2498 1.34465 0
M  V30 2687 H 246.882 2.4256 2.88867 0
M  V30 2688 H 249.269 1.4956 2.54393 0
M  V30 2689 H 249.35 2.35476 0.999232 0
M  V30 2690 H 248.994 4.56156 2.23347 0
M  V30 2691 H 248.924 3.67144 3.77509 0
M  V30 2692 H 251.415 2.90896 2.41222 0
M  V30 2693 H 251.728 6.32841 4.43545 0
M  V30 2694 H 250.073 5.68732 3.99461 0
M  V30 2695 H 253.264 3.65649 2.92264 0
M  V30 2696 H 253.437 5.21565 3.84544 0
M  V30 2697 N 246.843 -1.10192 1.12674 0
M  V30 2698 C 247.79 -2.16606 0.796906 0
M  V30 2699 C 248.76 -1.64394 -0.237476 0
M  V30 2700 O 249.945 -1.90474 -0.111484 0
M  V30 2701 C 247.085 -3.44116 0.26043 0
M  V30 2702 C 246.198 -4.10268 1.35293 0
M  V30 2703 C 245.333 -5.25507 0.775621 0
M  V30 2704 C 244.372 -5.83567 1.84706 0
M  V30 2705 N 243.509 -6.90179 1.28829 0
M  V30 2706 H 248.349 -2.44163 1.70846 0
M  V30 2707 H 245.886 -1.19846 0.85295 0
M  V30 2708 H 247.844 -4.17143 -0.0686814 0
M  V30 2709 H 246.474 -3.16901 -0.614274 0
M  V30 2710 H 245.526 -3.35184 1.79877 0
M  V30 2711 H 246.838 -4.4946 2.16303 0
M  V30 2712 H 245.992 -6.05398 0.397327 0
M  V30 2713 H 244.731 -4.87656 -0.0656581 0
M  V30 2714 H 243.736 -5.02344 2.23452 0
M  V30 2715 H 244.961 -6.23482 2.69161 0
M  V30 2716 H 242.907 -6.54322 0.468881 0
M  V30 2717 H 242.824 -7.28097 2.03497 0
M  V30 2718 H 244.092 -7.73844 0.937311 0
M  V30 2719 N 248.321 -0.919034 -1.28029 0
M  V30 2720 C 249.551 -0.570143 -1.98577 0
M  V30 2721 C 249.959 0.854172 -1.68821 0
M  V30 2722 O 249.302 1.57807 -0.940351 0
M  V30 2723 C 249.364 -0.705734 -3.52505 0
M  V30 2724 C 249.028 -2.10057 -4.05863 0
M  V30 2725 C 250.025 -3.07385 -4.19298 0
M  V30 2726 C 247.71 -2.41517 -4.40426 0
M  V30 2727 C 249.704 -4.34287 -4.66555 0
M  V30 2728 C 247.391 -3.68657 -4.87376 0
M  V30 2729 C 248.389 -4.64856 -5.00398 0
M  V30 2730 O 248.077 -5.89735 -5.46322 0
M  V30 2731 H 247.809 -0.215592 -0.6407 0
M  V30 2732 H 250.363 -1.23583 -1.64062 0
M  V30 2733 H 248.593 0.0170414 -3.86696 0
M  V30 2734 H 250.282 -0.363172 -4.04272 0
M  V30 2735 H 251.048 -2.84398 -3.92865 0
M  V30 2736 H 246.927 -1.67389 -4.29537 0
M  V30 2737 H 250.471 -5.09377 -4.76635 0
M  V30 2738 H 246.368 -3.91466 -5.13249 0
M  V30 2739 H 247.136 -5.92599 -5.64596 0
M  V30 2740 N 249.799 1.42003 -0.683588 0
M  V30 2741 C 250.731 2.29183 0.0283068 0
M  V30 2742 C 251.744 1.4415 0.756611 0
M  V30 2743 O 252.933 1.67779 0.609306 0
M  V30 2744 C 250.033 3.21765 1.06398 0
M  V30 2745 C 249.206 4.35496 0.407723 0
M  V30 2746 C 248.265 5.08737 1.34437 0
M  V30 2747 O 247.291 5.62948 0.841318 0
M  V30 2748 N 248.493 5.15075 2.67728 0
M  V30 2749 H 251.258 2.9092 -0.720105 0
M  V30 2750 H 248.819 1.53025 -0.528682 0
M  V30 2751 H 250.811 3.6763 1.69204 0
M  V30 2752 H 249.381 2.61418 1.71404 0
M  V30 2753 H 248.601 3.92165 -0.400012 0
M  V30 2754 H 249.889 5.08776 -0.0490956 0
M  V30 2755 H 249.287 4.72457 3.11129 0
M  V30 2756 H 247.844 5.64556 3.2576 0
M  V30 2757 N 251.277 0.427512 1.51691 0
M  V30 2758 C 252.227 -0.406604 2.24345 0
M  V30 2759 C 253.211 -0.998276 1.26187 0
M  V30 2760 O 254.403 -0.918045 1.51331 0
M  V30 2761 C 251.532 -1.51266 3.08177 0
M  V30 2762 C 250.618 -0.930868 4.13758 0
M  V30 2763 N 251.009 -0.0773552 5.05741 0
M  V30 2764 C 249.307 -1.19948 4.29568 0
M  V30 2765 C 250.008 0.248344 5.8117 0
M  V30 2766 N 248.984 -0.365535 5.4237 0
M  V30 2767 H 252.786 0.251581 2.92821 0
M  V30 2768 H 250.3 0.239003 1.60632 0
M  V30 2769 H 252.297 -2.123 3.58796 0
M  V30 2770 H 250.957 -2.17328 2.41244 0
M  V30 2771 H 251.968 0.288351 5.17097 0
M  V30 2772 H 248.645 -1.85832 3.73862 0
M  V30 2773 H 250.035 0.942286 6.6526 0
M  V30 2774 N 252.755 -1.56801 0.158532 0
M  V30 2775 C 254.002 -1.9649 -0.489679 0
M  V30 2776 C 254.33 -1.04394 -1.6411 0
M  V30 2777 O 253.585 -0.0754401 -1.95555 0
M  V30 2778 C 253.884 -3.4235 -1.02623 0
M  V30 2779 C 253.55 -4.50899 0.00794526 0
M  V30 2780 C 252.212 -4.80312 0.292207 0
M  V30 2781 C 254.564 -5.16333 0.710584 0
M  V30 2782 C 251.892 -5.72461 1.28472 0
M  V30 2783 C 254.244 -6.09553 1.69199 0
M  V30 2784 C 252.908 -6.37339 1.98383 0
M  V30 2785 H 252.178 -0.719009 -0.179186 0
M  V30 2786 H 254.825 -1.8989 0.247798 0
M  V30 2787 H 253.13 -3.45838 -1.84128 0
M  V30 2788 H 254.827 -3.70393 -1.53656 0
M  V30 2789 H 251.417 -4.28015 -0.22379 0
M  V30 2790 H 255.601 -4.93732 0.504174 0
M  V30 2791 H 250.857 -5.92278 1.51714 0
M  V30 2792 H 255.031 -6.59327 2.24189 0
M  V30 2793 H 252.658 -7.08546 2.7544 0
M  V30 2794 N 254.233 0.115231 -1.57178 0
M  V30 2795 C 255.458 0.840354 -1.89612 0
M  V30 2796 C 255.883 1.72464 -0.750845 0
M  V30 2797 O 255.241 1.78826 0.298478 0
M  V30 2798 C 255.289 1.64654 -3.20814 0
M  V30 2799 O 254.393 2.7538 -3.06985 0
M  V30 2800 H 253.734 0.232158 -0.622092 0
M  V30 2801 H 256.264 0.0964977 -2.04372 0
M  V30 2802 H 256.274 2.03499 -3.53627 0
M  V30 2803 H 254.949 0.997416 -4.03763 0
M  V30 2804 H 253.526 2.3971 -2.85646 0
M  V30 2805 N 255.711 1.52812 0.385517 0
M  V30 2806 C 256.951 1.69716 1.13911 0
M  V30 2807 C 257.315 0.42962 1.87132 0
M  V30 2808 O 258.516 0.475071 2.64569 0
M  V30 2809 C 256.787 2.90021 2.0886 0
M  V30 2810 S 258.346 3.27531 2.92009 0
M  V30 2811 H 255.164 0.59739 0.385547 0
M  V30 2812 H 257.766 1.90868 0.423061 0
M  V30 2813 H 256.47 3.80493 1.53797 0
M  V30 2814 H 256.001 2.71213 2.84969 0
M  V30 2815 H 258.016 2.77989 4.11019 0
M  V30 2816 N 257.189 -0.644168 1.43834 0
M  V30 2817 C 258.419 -1.42939 1.49171 0
M  V30 2818 C 258.827 -1.88874 0.111048 0
M  V30 2819 O 258.17 -1.60656 -0.8908 0
M  V30 2820 C 258.232 -2.69151 2.38324 0
M  V30 2821 C 257.896 -2.45097 3.85715 0
M  V30 2822 C 258.893 -2.07747 4.76589 0
M  V30 2823 C 256.578 -2.59141 4.30292 0
M  V30 2824 C 258.572 -1.8475 6.10038 0
M  V30 2825 C 256.259 -2.35759 5.63792 0
M  V30 2826 C 257.257 -1.9862 6.53482 0
M  V30 2827 O 256.945 -1.75489 7.84512 0
M  V30 2828 H 256.677 -0.445271 0.508635 0
M  V30 2829 H 259.231 -0.79621 1.8934 0
M  V30 2830 H 257.461 -3.3506 1.93058 0
M  V30 2831 H 259.15 -3.31123 2.3476 0
M  V30 2832 H 259.916 -1.96465 4.43426 0
M  V30 2833 H 255.795 -2.87022 3.60749 0
M  V30 2834 H 259.339 -1.55686 6.80006 0
M  V30 2835 H 255.236 -2.46646 5.9652 0
M  V30 2836 H 256.004 -1.89841 7.9618 0
M  V30 2837 N 258.668 -1.30515 -0.883378 0
M  V30 2838 C 259.893 -1.22487 -1.67367 0
M  V30 2839 C 260.318 0.208767 -1.86938 0
M  V30 2840 O 259.676 1.15015 -1.40148 0
M  V30 2841 C 259.724 -1.96041 -3.02655 0
M  V30 2842 O 258.828 -1.28859 -3.91751 0
M  V30 2843 H 258.169 -0.423573 -0.511353 0
M  V30 2844 H 260.699 -1.72362 -1.10239 0
M  V30 2845 H 260.709 -2.05124 -3.52687 0
M  V30 2846 H 259.384 -3.00307 -2.8773 0
M  V30 2847 H 257.961 -1.28141 -3.50192 0
M  V30 2848 N 260.146 1.09593 -1.13257 0
M  V30 2849 C 261.423 1.78293 -0.804432 0
M  V30 2850 C 261.803 1.99004 0.70431 0
M  V30 2851 O 261.151 1.59007 1.641 0
M  V30 2852 C 261.361 3.10707 -1.5894 0
M  V30 2853 C 262.709 3.85443 -1.78099 0
M  V30 2854 O 263.733 3.20454 -1.55525 0
M  V30 2855 O 262.592 5.02108 -2.15753 0
M  V30 2856 H 259.686 0.773156 -0.293528 0
M  V30 2857 H 262.232 1.16164 -1.23709 0
M  V30 2858 H 261.004 2.91106 -2.61482 0
M  V30 2859 H 260.627 3.80558 -1.15157 0
M  V30 2860 N 261.624 0.925811 1.2754 0
M  V30 2861 C 263.035 0.610102 1.7645 0
M  V30 2862 C 263.386 -0.874723 1.75622 0
M  V30 2863 O 262.511 -1.68444 1.35851 0
M  V30 2864 C 263.106 1.10073 3.20421 0
M  V30 2865 C 261.665 0.835723 3.67005 0
M  V30 2866 C 260.812 1.26054 2.46993 0
M  V30 2867 H 263.763 1.10579 1.13833 0
M  V30 2868 H 263.784 0.447557 3.77859 0
M  V30 2869 H 263.296 2.18143 3.20991 0
M  V30 2870 H 261.397 -0.231249 3.71882 0
M  V30 2871 H 261.51 1.45193 4.56569 0
M  V30 2872 H 259.874 0.679111 2.45479 0
M  V30 2873 H 260.657 2.34984 2.50275 0
M  V30 2874 N 263.102 -1.41638 0.69111 0
M  V30 2875 C 264.012 -2.34588 0.0233487 0
M  V30 2876 C 265.028 -1.55987 -0.770984 0
M  V30 2877 O 266.204 -1.88486 -0.709569 0
M  V30 2878 C 263.269 -3.34684 -0.904851 0
M  V30 2879 C 262.33 -4.29176 -0.103225 0
M  V30 2880 C 261.563 -5.2449 -0.987216 0
M  V30 2881 O 261.786 -5.2514 -2.22674 0
M  V30 2882 O 260.72 -6.00295 -0.439281 0
M  V30 2883 H 264.546 -2.93261 0.789416 0
M  V30 2884 H 262.131 -1.42417 0.45142 0
M  V30 2885 H 264.013 -3.96133 -1.43724 0
M  V30 2886 H 262.688 -2.78461 -1.65049 0
M  V30 2887 H 261.595 -3.71089 0.473655 0
M  V30 2888 H 262.928 -4.88484 0.60365 0
M  V30 2889 N 264.58 -0.43555 -1.51462 0
M  V30 2890 C 265.828 0.131254 -2.01673 0
M  V30 2891 C 266.149 1.43368 -1.32177 0
M  V30 2892 O 265.419 1.90524 -0.455769 0
M  V30 2893 H 263.999 0.0514954 -0.745223 0
M  V30 2894 H 266.661 -0.577847 -1.86137 0
M  V30 2895 H 265.757 0.308446 -3.10572 0
M  V30 2896 N 266.058 1.56714 -0.166846 0
M  V30 2897 C 267.006 2.19056 0.782123 0
M  V30 2898 C 268 1.15328 1.24079 0
M  V30 2899 O 269.206 1.33537 1.20697 0
M  V30 2900 H 265.581 0.70167 0.270486 0
M  V30 2901 H 267.552 2.97494 0.232322 0
M  V30 2902 C 266.301 2.84206 2.00306 0
M  V30 2903 H 265.624 3.63748 1.65914 0
M  V30 2904 H 267.064 3.31302 2.64604 0
M  V30 2905 C 265.523 1.83744 2.82382 0
M  V30 2906 O 266.053 1.32014 3.79388 0
M  V30 2907 N 264.259 1.52601 2.47308 0
M  V30 2908 H 263.806 1.9486 1.68485 0
M  V30 2909 H 263.764 0.856351 3.02513 0
M  V30 2910 N 267.536 -0.106894 1.57237 0
M  V30 2911 C 268.468 -1.15646 1.97885 0
M  V30 2912 C 269.481 -1.36981 0.879779 0
M  V30 2913 O 270.67 -1.35841 1.15799 0
M  V30 2914 C 267.77 -2.51425 2.27241 0
M  V30 2915 C 266.943 -2.50529 3.58545 0
M  V30 2916 C 266.002 -3.68145 3.75973 0
M  V30 2917 O 265.028 -3.51176 4.47956 0
M  V30 2918 N 266.23 -4.87177 3.15656 0
M  V30 2919 H 268.995 -0.81059 2.8853 0
M  V30 2920 H 266.556 -0.296024 1.59171 0
M  V30 2921 H 268.548 -3.28689 2.36105 0
M  V30 2922 H 267.118 -2.78147 1.42663 0
M  V30 2923 H 266.338 -1.58894 3.60758 0
M  V30 2924 H 267.626 -2.46997 4.44826 0
M  V30 2925 H 267.024 -5.03868 2.57165 0
M  V30 2926 H 265.581 -5.62075 3.30023 0
M  V30 2927 N 269.014 -1.53014 -0.377408 0
M  V30 2928 C 269.961 -1.78616 -1.46168 0
M  V30 2929 C 270.931 -0.629917 -1.53692 0
M  V30 2930 O 272.116 -0.870861 -1.69766 0
M  V30 2931 C 269.256 -1.97123 -2.8326 0
M  V30 2932 C 268.369 -3.24831 -2.84796 0
M  V30 2933 C 267.504 -3.33591 -4.13389 0
M  V30 2934 C 266.543 -4.55377 -4.09021 0
M  V30 2935 N 265.68 -4.61355 -5.29241 0
M  V30 2936 H 270.52 -2.71142 -1.23637 0
M  V30 2937 H 268.057 -1.34326 -0.599577 0
M  V30 2938 H 270.015 -2.05839 -3.62886 0
M  V30 2939 H 268.645 -1.07946 -3.04216 0
M  V30 2940 H 267.697 -3.25128 -1.97474 0
M  V30 2941 H 269.009 -4.14523 -2.77439 0
M  V30 2942 H 268.163 -3.41554 -5.01424 0
M  V30 2943 H 266.902 -2.41894 -4.23484 0
M  V30 2944 H 265.907 -4.47527 -3.19373 0
M  V30 2945 H 267.132 -5.48402 -4.00539 0
M  V30 2946 H 265.078 -3.72554 -5.39944 0
M  V30 2947 H 264.995 -5.44935 -5.24006 0
M  V30 2948 H 266.263 -4.73586 -6.19141 0
M  V30 2949 N 270.492 0.636531 -1.44174 0
M  V30 2950 C 271.717 1.42847 -1.50364 0
M  V30 2951 C 272.142 1.87665 -0.127867 0
M  V30 2952 O 271.5 1.58408 0.88185 0
M  V30 2953 C 271.548 2.62854 -2.4686 0
M  V30 2954 O 270.652 3.62501 -1.9664 0
M  V30 2955 H 269.993 0.427642 -0.507955 0
M  V30 2956 H 272.523 0.777422 -1.89255 0
M  V30 2957 H 272.533 3.10465 -2.64718 0
M  V30 2958 H 271.208 2.29578 -3.46795 0
M  V30 2959 H 269.785 3.21735 -1.88523 0
M  V30 2960 N 271.97 1.30982 0.876444 0
M  V30 2961 C 273.216 1.20474 1.63138 0
M  V30 2962 C 273.549 -0.238096 1.92735 0
M  V30 2963 O 272.824 -1.1692 1.55435 0
M  V30 2964 C 273.107 2.04244 2.96574 0
M  V30 2965 C 272.96 3.56793 2.73896 0
M  V30 2966 C 274.279 1.88684 3.97601 0
M  V30 2967 H 271.398 0.439001 0.591985 0
M  V30 2968 H 274.04 1.60704 1.01361 0
M  V30 2969 H 272.19 1.70063 3.493 0
M  V30 2970 H 273.862 4.01077 2.27892 0
M  V30 2971 H 272.105 3.80548 2.08245 0
M  V30 2972 H 272.776 4.10706 3.68815 0
M  V30 2973 H 275.252 2.18584 3.54062 0
M  V30 2974 H 274.128 2.4961 4.88862 0
M  V30 2975 H 274.389 0.848343 4.33884 0
M  V30 2976 N 273.449 -1.08991 1.13837 0
M  V30 2977 C 274.698 -1.80631 0.897509 0
M  V30 2978 C 275.011 -1.86872 -0.57777 0
M  V30 2979 O 276.217 -2.54866 -0.935701 0
M  V30 2980 C 274.673 -3.24517 1.55618 0
M  V30 2981 C 274.281 -3.26529 3.0673 0
M  V30 2982 C 276.025 -4.00882 1.3962 0
M  V30 2983 C 273.932 -4.64965 3.65461 0
M  V30 2984 H 272.862 -0.67691 0.332129 0
M  V30 2985 H 275.513 -1.2246 1.3666 0
M  V30 2986 H 273.895 -3.82778 1.01476 0
M  V30 2987 H 275.069 -2.78008 3.67489 0
M  V30 2988 H 273.384 -2.63656 3.22296 0
M  V30 2989 H 275.981 -5.03167 1.80906 0
M  V30 2990 H 276.324 -4.14896 0.341578 0
M  V30 2991 H 276.857 -3.49075 1.90766 0
M  V30 2992 H 273.596 -4.56153 4.70749 0
M  V30 2993 H 273.116 -5.13792 3.09481 0
M  V30 2994 H 274.795 -5.3394 3.654 0
M  V30 2995 N 274.927 -0.932562 -1.27047 0
M  V30 2996 C 275.857 -0.452902 -2.29066 0
M  V30 2997 C 276.838 0.489338 -1.62909 0
M  V30 2998 O 278.023 0.393046 -1.90181 0
M  V30 2999 C 275.153 0.290698 -3.46081 0
M  V30 3000 C 274.107 -0.564168 -4.24265 0
M  V30 3001 C 273.433 0.308886 -5.33807 0
M  V30 3002 C 274.733 -1.83112 -4.89149 0
M  V30 3003 H 276.427 -1.30552 -2.69437 0
M  V30 3004 H 273.973 -0.629201 -1.29526 0
M  V30 3005 H 275.926 0.637233 -4.16554 0
M  V30 3006 H 274.65 1.17738 -3.0464 0
M  V30 3007 H 273.309 -0.893477 -3.55545 0
M  V30 3008 H 272.957 1.19467 -4.88607 0
M  V30 3009 H 272.657 -0.259633 -5.87026 0
M  V30 3010 H 274.181 0.650884 -6.07121 0
M  V30 3011 H 275.595 -1.55236 -5.51883 0
M  V30 3012 H 273.992 -2.34353 -5.52448 0
M  V30 3013 H 275.062 -2.54772 -4.12576 0
M  V30 3014 N 276.405 1.4127 -0.698611 0
M  V30 3015 C 277.633 2.05503 -0.239992 0
M  V30 3016 C 278.048 1.52584 1.11191 0
M  V30 3017 O 277.405 0.675323 1.69545 0
M  V30 3018 C 277.456 3.60987 -0.192429 0
M  V30 3019 O 277.177 4.1195 -1.49094 0
M  V30 3020 C 278.678 4.42371 0.28681 0
M  V30 3021 H 275.898 0.661748 -0.111045 0
M  V30 3022 H 278.442 1.80987 -0.95205 0
M  V30 3023 H 276.597 3.84533 0.470472 0
M  V30 3024 H 277.011 5.06018 -1.38007 0
M  V30 3025 H 278.485 5.51344 0.26896 0
M  V30 3026 H 278.962 4.18699 1.32619 0
M  V30 3027 H 279.568 4.23897 -0.345201 0
M  V30 3028 N 277.883 0.443576 1.51229 0
M  V30 3029 C 278.83 -0.364716 2.279 0
M  V30 3030 C 279.8 -1.0114 1.31757 0
M  V30 3031 O 280.985 -1.02912 1.60667 0
M  V30 3032 C 278.125 -1.45644 3.12861 0
M  V30 3033 C 277.238 -0.827269 4.24005 0
M  V30 3034 C 276.373 -1.89456 4.96266 0
M  V30 3035 C 275.412 -1.24416 5.99322 0
M  V30 3036 N 274.549 -2.25309 6.64966 0
M  V30 3037 H 279.389 0.295464 2.96532 0
M  V30 3038 H 276.926 0.157554 1.46254 0
M  V30 3039 H 278.884 -2.10076 3.6045 0
M  V30 3040 H 277.514 -2.08616 2.46331 0
M  V30 3041 H 276.566 -0.0710839 3.80334 0
M  V30 3042 H 277.878 -0.312481 4.9782 0
M  V30 3043 H 277.032 -2.61535 5.47434 0
M  V30 3044 H 275.771 -2.4431 4.22095 0
M  V30 3045 H 274.776 -0.508868 5.4744 0
M  V30 3046 H 276.001 -0.702882 6.75453 0
M  V30 3047 H 273.947 -2.79231 5.93604 0
M  V30 3048 H 273.864 -1.78739 7.34567 0
M  V30 3049 H 275.132 -2.96853 7.20763 0
M  V30 3050 N 279.361 -1.56624 0.175154 0
M  V30 3051 C 280.291 -2.21155 -0.749195 0
M  V30 3052 C 281.272 -1.16836 -1.23626 0
M  V30 3053 O 282.457 -1.45277 -1.28873 0
M  V30 3054 C 279.587 -2.8553 -1.97711 0
M  V30 3055 C 278.541 -3.95921 -1.62575 0
M  V30 3056 C 277.867 -4.47365 -2.92864 0
M  V30 3057 C 279.167 -5.15323 -0.850838 0
M  V30 3058 H 280.861 -2.98653 -0.211295 0
M  V30 3059 H 278.407 -1.43651 -0.100188 0
M  V30 3060 H 280.36 -3.2935 -2.62881 0
M  V30 3061 H 279.084 -2.05406 -2.53921 0
M  V30 3062 H 277.743 -3.52762 -0.997719 0
M  V30 3063 H 277.391 -3.64027 -3.47122 0
M  V30 3064 H 277.091 -5.21839 -2.70106 0
M  V30 3065 H 278.615 -4.93873 -3.59056 0
M  V30 3066 H 280.029 -5.55812 -1.40521 0
M  V30 3067 H 278.426 -5.95739 -0.722154 0
M  V30 3068 H 279.496 -4.84661 0.152082 0
M  V30 3069 N 280.839 0.0985539 -1.57292 0
M  V30 3070 C 282.069 0.815135 -1.8984 0
M  V30 3071 C 282.477 1.7297 -0.766679 0
M  V30 3072 O 281.82 1.81698 0.270483 0
M  V30 3073 C 281.882 1.6842 -3.17608 0
M  V30 3074 C 281.546 0.94182 -4.4719 0
M  V30 3075 C 282.543 0.273212 -5.19182 0
M  V30 3076 C 280.228 0.916927 -4.9386 0
M  V30 3077 C 282.222 -0.410361 -6.36078 0
M  V30 3078 C 279.909 0.229567 -6.10669 0
M  V30 3079 C 280.907 -0.432902 -6.81627 0
M  V30 3080 O 280.595 -1.10925 -7.9621 0
M  V30 3081 H 280.327 0.238501 -0.632529 0
M  V30 3082 H 282.881 0.0812659 -2.05239 0
M  V30 3083 H 281.111 2.46022 -2.98345 0
M  V30 3084 H 282.8 2.27704 -3.36015 0
M  V30 3085 H 283.566 0.283927 -4.84168 0
M  V30 3086 H 279.445 1.42201 -4.3852 0
M  V30 3087 H 282.989 -0.928013 -6.914 0
M  V30 3088 H 278.886 0.216686 -6.45136 0
M  V30 3089 H 279.654 -1.01579 -8.12172 0
M  V30 3090 N 282.317 1.53212 0.369288 0
M  V30 3091 C 283.542 1.73423 1.1375 0
M  V30 3092 C 283.967 0.460404 1.82378 0
M  V30 3093 O 283.325 -0.585298 1.71592 0
M  V30 3094 C 283.373 2.89769 2.1463 0
M  V30 3095 O 282.477 2.58119 3.21634 0
M  V30 3096 H 281.818 0.576061 0.330227 0
M  V30 3097 H 284.348 2.00083 0.427547 0
M  V30 3098 H 284.358 3.15829 2.58294 0
M  V30 3099 H 283.033 3.8217 1.64071 0
M  V30 3100 H 281.61 2.42864 2.82969 0
M  V30 3101 N 283.795 -0.628877 1.44509 0
M  V30 3102 C 285.02 -1.42048 1.5112 0
M  V30 3103 C 285.445 -1.87594 0.137818 0
M  V30 3104 O 284.803 -1.58873 -0.873437 0
M  V30 3105 C 284.851 -2.61541 2.48251 0
M  V30 3106 O 283.955 -3.61453 1.98559 0
M  V30 3107 H 283.296 -0.424942 0.510216 0
M  V30 3108 H 285.826 -0.767374 1.89664 0
M  V30 3109 H 285.836 -3.09057 2.66361 0
M  V30 3110 H 284.511 -2.27736 3.48007 0
M  V30 3111 H 283.088 -3.20731 1.90227 0
M  V30 3112 N 285.273 -1.31445 -0.869486 0
M  V30 3113 C 286.221 -1.19067 -1.99814 0
M  V30 3114 C 287.215 -0.0988569 -1.69111 0
M  V30 3115 O 288.421 -0.260781 -1.78101 0
M  V30 3116 H 284.796 -0.368677 -0.655425 0
M  V30 3117 H 286.767 -2.14555 -2.07385 0
M  V30 3118 C 285.516 -0.915323 -3.35436 0
M  V30 3119 H 284.839 -1.74759 -3.59582 0
M  V30 3120 H 286.279 -0.868895 -4.15001 0
M  V30 3121 C 284.738 0.381928 -3.34728 0
M  V30 3122 O 285.268 1.39857 -3.76567 0
M  V30 3123 N 283.474 0.398633 -2.87853 0
M  V30 3124 H 283.021 -0.429186 -2.54 0
M  V30 3125 H 282.979 1.26651 -2.87762 0
M  V30 3126 N 286.751 1.08385 -1.14413 0
M  V30 3127 C 287.997 1.81044 -0.913834 0
M  V30 3128 C 288.33 1.86004 0.558209 0
M  V30 3129 O 287.605 1.33606 1.4135 0
M  V30 3130 C 287.888 3.26648 -1.51569 0
M  V30 3131 C 287.741 3.29895 -3.0576 0
M  V30 3132 C 289.06 4.23629 -1.19273 0
M  V30 3133 H 286.179 0.65727 -0.333414 0
M  V30 3134 H 288.821 1.26896 -1.41412 0
M  V30 3135 H 286.971 3.72889 -1.09023 0
M  V30 3136 H 288.643 2.91977 -3.57137 0
M  V30 3137 H 286.886 2.69163 -3.40197 0
M  V30 3138 H 287.557 4.32516 -3.42977 0
M  V30 3139 H 290.033 3.85727 -1.56057 0
M  V30 3140 H 288.909 5.23822 -1.64017 0
M  V30 3141 H 289.17 4.41968 -0.108068 0
M  V30 3142 N 288.23 0.939286 1.26551 0
M  V30 3143 C 289.16 0.465044 2.28822 0
M  V30 3144 C 290.141 -0.480692 1.63167 0
M  V30 3145 O 291.326 -0.382955 1.90387 0
M  V30 3146 C 288.456 -0.27234 3.46231 0
M  V30 3147 C 287.41 0.58666 4.2396 0
M  V30 3148 C 286.736 -0.280573 5.33963 0
M  V30 3149 C 288.036 1.85704 4.88171 0
M  V30 3150 H 289.73 1.31979 2.68741 0
M  V30 3151 H 287.276 0.636061 1.29191 0
M  V30 3152 H 289.229 -0.615133 4.16886 0
M  V30 3153 H 287.953 -1.16121 3.0526 0
M  V30 3154 H 286.612 0.91232 3.55067 0
M  V30 3155 H 286.26 -1.16874 4.89234 0
M  V30 3156 H 285.96 0.29076 5.8688 0
M  V30 3157 H 287.484 -0.618678 6.07458 0
M  V30 3158 H 288.898 1.58161 5.51052 0
M  V30 3159 H 287.295 2.37279 5.51197 0
M  V30 3160 H 288.365 2.56957 4.11219 0
M  V30 3161 N 289.708 -1.40897 0.706093 0
M  V30 3162 C 290.955 -2.01054 0.241531 0
M  V30 3163 C 291.283 -1.55956 -1.16223 0
M  V30 3164 O 290.538 -0.766336 -1.80072 0
M  V30 3165 C 290.837 -3.5646 0.259099 0
M  V30 3166 C 290.503 -4.21106 1.61184 0
M  V30 3167 C 289.165 -4.38479 1.98216 0
M  V30 3168 C 291.517 -4.57256 2.50132 0
M  V30 3169 C 288.845 -4.89282 3.2376 0
M  V30 3170 C 291.197 -5.09454 3.7502 0
M  V30 3171 C 289.861 -5.25037 4.12181 0
M  V30 3172 H 289.131 -0.73571 0.0883825 0
M  V30 3173 H 291.778 -1.68645 0.907257 0
M  V30 3174 H 290.083 -3.88721 -0.490189 0
M  V30 3175 H 291.78 -4.00826 -0.11804 0
M  V30 3176 H 288.37 -4.07966 1.31384 0
M  V30 3177 H 292.554 -4.43479 2.228 0
M  V30 3178 H 287.81 -4.99531 3.52532 0
M  V30 3179 H 291.984 -5.36404 4.44121 0
M  V30 3180 H 289.611 -5.64164 5.09532 0
M  V30 3181 N 291.186 -0.45159 -1.50991 0
M  V30 3182 C 292.136 0.370861 -2.24964 0
M  V30 3183 C 293.12 0.978074 -1.2776 0
M  V30 3184 O 294.312 0.893854 -1.52772 0
M  V30 3185 C 291.441 1.46344 -3.10545 0
M  V30 3186 C 290.527 0.864924 -4.15187 0
M  V30 3187 N 290.918 -0.00311354 -5.058 0
M  V30 3188 C 289.216 1.13099 -4.31422 0
M  V30 3189 C 289.917 -0.340772 -5.80701 0
M  V30 3190 N 288.893 0.279203 -5.42883 0
M  V30 3191 H 292.695 -0.298134 -2.92384 0
M  V30 3192 H 290.209 -0.264528 -1.60231 0
M  V30 3193 H 292.206 2.06565 -3.62128 0
M  V30 3194 H 290.866 2.13463 -2.4467 0
M  V30 3195 H 291.877 -0.37058 -5.16572 0
M  V30 3196 H 288.554 1.79861 -3.76771 0
M  V30 3197 H 289.944 -1.048 -6.63677 0
M  V30 3198 N 292.664 1.56529 -0.183458 0
M  V30 3199 C 293.889 2.02064 0.467428 0
M  V30 3200 C 294.314 1.06282 1.55196 0
M  V30 3201 O 293.672 0.0443565 1.81246 0
M  V30 3202 C 293.72 3.46122 1.01153 0
M  V30 3203 O 292.824 3.53437 2.12499 0
M  V30 3204 H 292.165 0.654726 0.110588 0
M  V30 3205 H 294.695 2.02521 -0.290917 0
M  V30 3206 H 294.705 3.85676 1.33108 0
M  V30 3207 H 293.38 4.15331 0.217533 0
M  V30 3208 H 291.957 3.2575 1.81497 0
M  V30 3209 N 294.142 -0.090211 1.57342 0
M  V30 3210 C 295.072 -1.10976 2.05443 0
M  V30 3211 C 296.053 -1.41482 0.944284 0
M  V30 3212 O 297.238 -1.51428 1.21586 0
M  V30 3213 C 294.368 -2.42831 2.48295 0
M  V30 3214 C 293.322 -2.26721 3.63018 0
M  V30 3215 C 292.648 -3.63796 3.91863 0
M  V30 3216 C 293.948 -1.7037 4.93732 0
M  V30 3217 H 295.642 -0.709564 2.9087 0
M  V30 3218 H 293.188 -0.339874 1.39932 0
M  V30 3219 H 295.141 -3.14431 2.80555 0
M  V30 3220 H 293.865 -2.84795 1.59873 0
M  V30 3221 H 292.524 -1.57565 3.31012 0
M  V30 3222 H 292.172 -4.03297 3.00601 0
M  V30 3223 H 291.872 -3.53861 4.69101 0
M  V30 3224 H 293.396 -4.36855 4.26603 0
M  V30 3225 H 294.81 -2.31816 5.24342 0
M  V30 3226 H 293.207 -1.71181 5.75167 0
M  V30 3227 H 294.277 -0.663542 4.80339 0
M  V30 3228 N 295.62 -1.53406 -0.361157 0
M  V30 3229 C 296.867 -1.69802 -1.10333 0
M  V30 3230 C 297.195 -0.452087 -1.89173 0
M  V30 3231 O 296.45 0.566017 -1.87336 0
M  V30 3232 C 296.749 -2.90211 -2.08596 0
M  V30 3233 C 296.415 -4.26539 -1.46203 0
M  V30 3234 C 295.077 -4.6361 -1.28915 0
M  V30 3235 C 297.429 -5.113 -1.01101 0
M  V30 3236 C 294.757 -5.83075 -0.651157 0
M  V30 3237 C 297.109 -6.31415 -0.387007 0
M  V30 3238 C 295.773 -6.67195 -0.201657 0
M  V30 3239 H 295.043 -0.621351 -0.403737 0
M  V30 3240 H 297.69 -1.87598 -0.384609 0
M  V30 3241 H 295.995 -2.66946 -2.86788 0
M  V30 3242 H 297.692 -3.00091 -2.65982 0
M  V30 3243 H 294.282 -3.97352 -1.60653 0
M  V30 3244 H 298.466 -4.83206 -1.13249 0
M  V30 3245 H 293.722 -6.09385 -0.496006 0
M  V30 3246 H 297.896 -6.96394 -0.0293563 0
M  V30 3247 H 295.523 -7.59628 0.294766 0
M  V30 3248 N 297.098 0.621204 -1.44841 0
M  V30 3249 C 298.344 1.38073 -1.49357 0
M  V30 3250 C 298.699 1.91973 -0.128115 0
M  V30 3251 O 297.992 1.71311 0.858087 0
M  V30 3252 C 298.186 2.55675 -2.4973 0
M  V30 3253 C 298.015 2.13289 -3.95901 0
M  V30 3254 C 296.785 2.001 -4.63991 0
M  V30 3255 C 298.983 1.7159 -4.84831 0
M  V30 3256 N 296.965 1.51381 -5.94943 0
M  V30 3257 C 298.336 1.34188 -6.05304 0
M  V30 3258 C 300.391 1.59059 -4.7181 0
M  V30 3259 C 299.094 0.855085 -7.14199 0
M  V30 3260 C 301.12 1.11784 -5.8074 0
M  V30 3261 C 300.482 0.753385 -7.0036 0
M  V30 3262 H 296.581 0.499675 -0.601539 0
M  V30 3263 H 299.165 0.711609 -1.8123 0
M  V30 3264 H 297.336 3.20201 -2.19832 0
M  V30 3265 H 299.068 3.22509 -2.4448 0
M  V30 3266 H 295.823 2.20863 -4.18947 0
M  V30 3267 H 296.247 1.29293 -6.64539 0
M  V30 3268 H 300.889 1.85865 -3.79755 0
M  V30 3269 H 298.607 0.574552 -8.06055 0
M  V30 3270 H 302.193 1.02533 -5.72694 0
M  V30 3271 H 301.073 0.393183 -7.83214 0
M  V30 3272 N 298.576 1.31904 0.862503 0
M  V30 3273 C 299.987 1.19803 1.43193 0
M  V30 3274 C 300.338 -0.192567 1.95253 0
M  V30 3275 O 299.463 -1.09081 1.86896 0
M  V30 3276 C 300.058 2.16883 2.60283 0
M  V30 3277 C 298.617 2.08692 3.13248 0
M  V30 3278 C 297.764 2.05691 1.85975 0
M  V30 3279 H 300.715 1.43846 0.670365 0
M  V30 3280 H 300.736 1.76278 3.37204 0
M  V30 3281 H 300.248 3.18083 2.22363 0
M  V30 3282 H 298.349 1.10713 3.55771 0
M  V30 3283 H 298.462 2.9815 3.75025 0
M  V30 3284 H 296.826 1.50814 2.05249 0
M  V30 3285 H 297.609 3.08659 1.50282 0
M  V30 3286 N 300.054 -1.07777 1.14986 0
M  V30 3287 C 301.282 -1.84018 0.945773 0
M  V30 3288 C 301.697 -1.81897 -0.505863 0
M  V30 3289 O 301.054 -1.22726 -1.35072 0
M  V30 3290 C 301.105 -3.31287 1.44677 0
M  V30 3291 O 300.826 -3.33449 2.84154 0
M  V30 3292 C 302.327 -4.24311 1.28355 0
M  V30 3293 H 299.547 -0.580716 0.336169 0
M  V30 3294 H 302.091 -1.36077 1.52654 0
M  V30 3295 H 300.246 -3.76594 0.908625 0
M  V30 3296 H 300.66 -4.25427 3.06777 0
M  V30 3297 H 302.134 -5.2573 1.68261 0
M  V30 3298 H 302.611 -4.38612 0.227184 0
M  V30 3299 H 303.217 -3.84836 1.81056 0
M  V30 3300 N 301.532 -0.945985 -1.26051 0
M  V30 3301 C 302.772 -0.603665 -1.95282 0
M  V30 3302 C 303.136 0.842377 -1.72534 0
M  V30 3303 O 304.337 1.29387 -2.35611 0
M  V30 3304 C 302.608 -0.942292 -3.44754 0
M  V30 3305 S 304.167 -0.711242 -4.32997 0
M  V30 3306 H 300.985 -0.222176 -0.675395 0
M  V30 3307 H 303.587 -1.21832 -1.52896 0
M  V30 3308 H 302.291 -1.99203 -3.58812 0
M  V30 3309 H 301.822 -0.317546 -3.92116 0
M  V30 3310 H 303.837 0.422221 -4.944 0
M  V30 3311 N 303.011 1.40521 -0.713556 0
M  V30 3312 C 303.944 2.28198 -0.00881422 0
M  V30 3313 C 304.922 1.43227 0.769735 0
M  V30 3314 O 306.106 1.72641 0.756799 0
M  V30 3315 C 303.233 3.23758 0.994899 0
M  V30 3316 C 302.279 4.25391 0.3074 0
M  V30 3317 S 303.112 5.26765 -0.963247 0
M  V30 3318 C 304.268 6.25888 0.0384143 0
M  V30 3319 H 304.501 2.87622 -0.752407 0
M  V30 3320 H 302.034 1.45925 -0.504502 0
M  V30 3321 H 303.992 3.79341 1.56879 0
M  V30 3322 H 302.653 2.63396 1.71118 0
M  V30 3323 H 301.846 4.92596 1.0661 0
M  V30 3324 H 301.448 3.73497 -0.193879 0
M  V30 3325 H 303.74 6.71683 0.885912 0
M  V30 3326 H 304.683 7.05552 -0.60019 0
M  V30 3327 H 305.091 5.63072 0.401233 0
M  V30 3328 N 304.489 0.459591 1.5075 0
M  V30 3329 C 305.422 -0.386257 2.24907 0
M  V30 3330 C 306.4 -1.006 1.27744 0
M  V30 3331 O 307.584 -1.04416 1.56938 0
M  V30 3332 C 304.711 -1.54021 3.01654 0
M  V30 3333 C 303.757 -1.03898 4.13651 0
M  V30 3334 S 304.59 0.0370501 5.35487 0
M  V30 3335 C 305.746 -1.12105 6.15779 0
M  V30 3336 H 305.979 0.243272 2.96303 0
M  V30 3337 H 303.512 0.244339 1.52454 0
M  V30 3338 H 305.47 -2.20163 3.46466 0
M  V30 3339 H 304.131 -2.14121 2.29806 0
M  V30 3340 H 303.324 -1.90254 4.66711 0
M  V30 3341 H 302.926 -0.45545 3.71216 0
M  V30 3342 H 305.218 -2.03501 6.46215 0
M  V30 3343 H 306.161 -0.62995 7.05292 0
M  V30 3344 H 306.569 -1.36967 5.47631 0
M  V30 3345 N 305.967 -1.56429 0.191757 0
M  V30 3346 C 306.93 -2.17707 -0.716688 0
M  V30 3347 C 307.93 -1.13061 -1.14341 0
M  V30 3348 O 309.12 -1.38464 -1.05704 0
M  V30 3349 C 306.252 -2.77644 -1.97804 0
M  V30 3350 H 307.445 -2.99342 -0.1829 0
M  V30 3351 H 304.998 -1.56193 -0.0578566 0
M  V30 3352 H 305.733 -1.99799 -2.55443 0
M  V30 3353 H 305.518 -3.54246 -1.68083 0
M  V30 3354 H 307.008 -3.24708 -2.62592 0
M  V30 3355 N 307.445 0.0818655 -1.57387 0
M  V30 3356 C 308.693 0.781368 -1.86384 0
M  V30 3357 C 309.014 1.78618 -0.782342 0
M  V30 3358 O 308.284 1.94976 0.190061 0
M  V30 3359 H 306.864 0.291562 -0.687751 0
M  V30 3360 H 309.526 0.060348 -1.94807 0
M  V30 3361 H 308.622 1.3038 -2.83562 0
M  V30 3362 N 308.923 1.53595 0.353017 0
M  V30 3363 C 310.171 1.70049 1.09215 0
M  V30 3364 C 310.492 0.461406 1.89463 0
M  V30 3365 O 309.762 -0.524633 1.88744 0
M  V30 3366 H 308.342 0.626912 0.40619 0
M  V30 3367 H 311.004 1.90822 0.396585 0
M  V30 3368 H 310.1 2.56718 1.77488 0
M  V30 3369 N 310.401 -0.613514 1.45168 0
M  V30 3370 C 311.647 -1.37471 1.49096 0
M  V30 3371 C 311.98 -1.93765 0.129901 0
M  V30 3372 O 311.255 -1.74707 -0.854858 0
M  V30 3373 C 311.538 -2.52701 2.56542 0
M  V30 3374 C 311.391 -2.01643 4.0207 0
M  V30 3375 C 312.71 -3.54849 2.60327 0
M  V30 3376 H 309.829 -0.498502 0.54283 0
M  V30 3377 H 312.471 -0.692125 1.76945 0
M  V30 3378 H 310.621 -3.10931 2.32926 0
M  V30 3379 H 312.293 -1.48108 4.36877 0
M  V30 3380 H 310.536 -1.32688 4.13009 0
M  V30 3381 H 311.207 -2.84681 4.72928 0
M  V30 3382 H 313.683 -3.0645 2.81474 0
M  V30 3383 H 312.559 -4.32973 3.37381 0
M  V30 3384 H 312.82 -4.10079 1.6519 0
M  V30 3385 N 311.879 -1.3236 -0.855495 0
M  V30 3386 C 312.842 -1.21164 -1.94556 0
M  V30 3387 C 313.842 -0.134908 -1.60233 0
M  V30 3388 O 315.032 -0.385249 -1.69887 0
M  V30 3389 C 312.164 -0.863192 -3.29791 0
M  V30 3390 H 313.357 -2.18038 -2.05911 0
M  V30 3391 H 310.91 -1.16179 -1.04557 0
M  V30 3392 H 311.645 0.103769 -3.24134 0
M  V30 3393 H 311.43 -1.64166 -3.56078 0
M  V30 3394 H 312.92 -0.809156 -4.09686 0
M  V30 3395 N 313.357 1.07166 -1.15556 0
M  V30 3396 C 314.606 1.79181 -0.926132 0
M  V30 3397 C 314.919 1.87768 0.547967 0
M  V30 3398 O 316.125 2.56323 0.895036 0
M  V30 3399 C 314.581 3.22 -1.60761 0
M  V30 3400 C 314.189 3.21607 -3.11886 0
M  V30 3401 C 315.933 3.9861 -1.4598 0
M  V30 3402 C 313.84 4.59092 -3.72812 0
M  V30 3403 H 312.77 0.67154 -0.342856 0
M  V30 3404 H 315.421 1.2027 -1.3859 0
M  V30 3405 H 313.803 3.81115 -1.07553 0
M  V30 3406 H 314.977 2.72127 -3.71865 0
M  V30 3407 H 313.292 2.58495 -3.2645 0
M  V30 3408 H 315.889 5.00225 -1.88888 0
M  V30 3409 H 316.232 4.143 -0.407541 0
M  V30 3410 H 316.765 3.45996 -1.96295 0
M  V30 3411 H 313.504 4.48606 -4.77946 0
M  V30 3412 H 313.024 5.08803 -3.17616 0
M  V30 3413 H 314.703 5.28059 -3.73848 0
M  V30 3414 N 314.835 0.952656 1.25548 0
M  V30 3415 C 316.081 0.607272 1.93494 0
M  V30 3416 C 316.414 -0.853245 1.74452 0
M  V30 3417 O 315.689 -1.61194 1.08843 0
M  V30 3418 C 315.972 0.96435 3.46947 0
M  V30 3419 C 315.825 2.48045 3.75225 0
M  V30 3420 C 317.144 0.487987 4.37386 0
M  V30 3421 H 314.263 0.222096 0.702739 0
M  V30 3422 H 316.905 1.18895 1.48203 0
M  V30 3423 H 315.055 0.469361 3.85654 0
M  V30 3424 H 316.727 3.04905 3.46166 0
M  V30 3425 H 314.97 2.919 3.209 0
M  V30 3426 H 315.641 2.6808 4.82532 0
M  V30 3427 H 318.117 0.912558 4.0597 0
M  V30 3428 H 316.993 0.766547 5.43521 0
M  V30 3429 H 317.254 -0.612063 4.37843 0
M  V30 3430 N 316.313 -1.40141 0.720998 0
M  V30 3431 C 317.276 -2.29058 0.0805834 0
M  V30 3432 C 318.276 -1.45632 -0.681758 0
M  V30 3433 O 319.466 -1.6648 -0.512856 0
M  V30 3434 C 316.598 -3.28925 -0.895593 0
M  V30 3435 H 317.791 -2.87191 0.863793 0
M  V30 3436 H 315.344 -1.48553 0.485975 0
M  V30 3437 H 316.079 -2.75822 -1.70566 0
M  V30 3438 H 315.864 -3.90519 -0.351766 0
M  V30 3439 H 317.354 -3.95494 -1.34069 0
M  V30 3440 N 317.792 -0.46758 -1.50504 0
M  V30 3441 C 318.725 0.374324 -2.25109 0
M  V30 3442 C 319.703 0.99921 -1.28275 0
M  V30 3443 O 320.887 1.03583 -1.57489 0
M  V30 3444 C 318.014 1.52419 -3.02467 0
M  V30 3445 C 317.06 1.01702 -4.14197 0
M  V30 3446 S 317.893 -0.0654477 -5.3546 0
M  V30 3447 C 319.049 1.08837 -6.16365 0
M  V30 3448 H 319.282 -0.258983 -2.9617 0
M  V30 3449 H 316.815 -0.252421 -1.52323 0
M  V30 3450 H 318.773 2.18322 -3.47628 0
M  V30 3451 H 317.434 2.129 -2.30938 0
M  V30 3452 H 316.627 1.87776 -4.67714 0
M  V30 3453 H 316.229 0.435757 -3.71453 0
M  V30 3454 H 318.521 2.00071 -6.47285 0
M  V30 3455 H 319.464 0.592538 -7.05616 0
M  V30 3456 H 319.872 1.34061 -5.4835 0
M  V30 3457 N 319.27 1.56325 -0.20005 0
M  V30 3458 C 320.516 1.98012 0.438059 0
M  V30 3459 C 320.849 1.08702 1.60927 0
M  V30 3460 O 320.124 0.140064 1.93995 0
M  V30 3461 C 320.407 3.48841 0.893419 0
M  V30 3462 C 320.26 4.48928 -0.279947 0
M  V30 3463 C 321.579 4.03498 1.75719 0
M  V30 3464 H 318.698 0.719918 0.157757 0
M  V30 3465 H 321.34 1.87743 -0.291968 0
M  V30 3466 H 319.49 3.57723 1.51547 0
M  V30 3467 H 321.162 4.52079 -0.91772 0
M  V30 3468 H 319.405 4.23694 -0.930919 0
M  V30 3469 H 320.076 5.5194 0.0812601 0
M  V30 3470 H 322.552 3.97427 1.23253 0
M  V30 3471 H 321.428 5.09393 2.04476 0
M  V30 3472 H 321.689 3.4906 2.71311 0
M  V30 3473 N 320.748 -0.0735177 1.57428 0
M  V30 3474 C 321.695 -1.08756 2.0357 0
M  V30 3475 C 322.665 -1.38559 0.916 0
M  V30 3476 O 323.85 -1.49656 1.18354 0
M  V30 3477 C 320.99 -2.39657 2.48311 0
M  V30 3478 C 320.103 -2.16399 3.73892 0
M  V30 3479 C 319.238 -3.40852 4.07423 0
M  V30 3480 C 318.277 -3.1295 5.2605 0
M  V30 3481 N 317.414 -4.29729 5.55228 0
M  V30 3482 H 322.254 -0.687104 2.8997 0
M  V30 3483 H 319.791 -0.327709 1.43403 0
M  V30 3484 H 321.749 -3.16081 2.72303 0
M  V30 3485 H 320.379 -2.77508 1.64891 0
M  V30 3486 H 319.431 -1.30676 3.57251 0
M  V30 3487 H 320.743 -1.91788 4.60455 0
M  V30 3488 H 319.897 -4.25671 4.32306 0
M  V30 3489 H 318.636 -3.68537 3.19425 0
M  V30 3490 H 317.641 -2.26526 5.00965 0
M  V30 3491 H 318.866 -2.86589 6.15665 0
M  V30 3492 H 316.812 -4.57448 4.70188 0
M  V30 3493 H 316.729 -4.08385 6.36206 0
M  V30 3494 H 317.997 -5.1555 5.84661 0
M  V30 3495 N 322.226 -1.5378 -0.344866 0
M  V30 3496 C 323.156 -1.84662 -1.42906 0
M  V30 3497 C 324.137 -0.701648 -1.54955 0
M  V30 3498 O 325.322 -0.953438 -1.69184 0
M  V30 3499 C 322.452 -2.05503 -2.79974 0
M  V30 3500 C 321.406 -3.21318 -2.82734 0
M  V30 3501 C 320.732 -3.2749 -4.22675 0
M  V30 3502 C 322.032 -4.59456 -2.48389 0
M  V30 3503 H 323.726 -2.75461 -1.17311 0
M  V30 3504 H 321.272 -1.32542 -0.562896 0
M  V30 3505 H 323.225 -2.25691 -3.55867 0
M  V30 3506 H 321.949 -1.11434 -3.07002 0
M  V30 3507 H 320.608 -3.00984 -2.09294 0
M  V30 3508 H 320.256 -2.31019 -4.4681 0
M  V30 3509 H 319.956 -4.05316 -4.25433 0
M  V30 3510 H 321.48 -3.49887 -5.00412 0
M  V30 3511 H 322.894 -4.79667 -3.13995 0
M  V30 3512 H 321.291 -5.39675 -2.62432 0
M  V30 3513 H 322.361 -4.63155 -1.4358 0
M  V30 3514 N 323.704 0.605807 -1.45491 0
M  V30 3515 C 324.932 1.39136 -1.5313 0
M  V30 3516 C 325.347 1.88082 -0.164507 0
M  V30 3517 O 324.704 1.62316 0.834247 0
M  V30 3518 C 324.755 2.59463 -2.51716 0
M  V30 3519 O 324.476 2.12551 -3.83084 0
M  V30 3520 C 325.977 3.52301 -2.6907 0
M  V30 3521 H 323.197 0.425849 -0.51855 0
M  V30 3522 H 325.741 0.73865 -1.90694 0
M  V30 3523 H 323.896 3.20772 -2.17219 0
M  V30 3524 H 324.31 2.90744 -4.36541 0
M  V30 3525 H 325.784 4.33271 -3.42024 0
M  V30 3526 H 326.261 4.02757 -1.75167 0
M  V30 3527 H 326.867 2.96845 -3.04571 0
M  V30 3528 N 325.182 1.32811 0.848464 0
M  V30 3529 C 326.114 1.18095 1.96433 0
M  V30 3530 C 327.127 0.114354 1.62398 0
M  V30 3531 O 328.316 0.363892 1.74751 0
M  V30 3532 C 325.416 0.786798 3.2964 0
M  V30 3533 C 324.589 1.943 3.91875 0
M  V30 3534 C 323.648 1.53138 5.03423 0
M  V30 3535 O 322.674 2.24432 5.23086 0
M  V30 3536 N 323.876 0.430915 5.78898 0
M  V30 3537 H 326.641 2.14218 2.09597 0
M  V30 3538 H 324.202 1.2543 1.02367 0
M  V30 3539 H 326.194 0.493715 4.01677 0
M  V30 3540 H 324.764 -0.0834541 3.12489 0
M  V30 3541 H 323.984 2.40224 3.12547 0
M  V30 3542 H 325.272 2.71689 4.30189 0
M  V30 3543 H 324.67 -0.162333 5.65467 0
M  V30 3544 H 323.227 0.197466 6.51501 0
M  V30 3545 N 326.66 -1.06551 1.16123 0
M  V30 3546 C 327.89 -1.8274 0.963838 0
M  V30 3547 C 328.298 -1.82712 -0.491228 0
M  V30 3548 O 327.641 -1.24294 -1.35265 0
M  V30 3549 C 327.703 -3.3065 1.41106 0
M  V30 3550 C 327.367 -3.54384 2.88549 0
M  V30 3551 C 328.364 -3.4765 3.86569 0
M  V30 3552 C 326.049 -3.81789 3.26408 0
M  V30 3553 C 328.043 -3.67982 5.2045 0
M  V30 3554 C 325.73 -4.01772 4.60459 0
M  V30 3555 C 326.728 -3.94866 5.57288 0
M  V30 3556 O 326.416 -4.14306 6.88916 0
M  V30 3557 H 326.148 -0.583136 0.341948 0
M  V30 3558 H 328.702 -1.35351 1.54497 0
M  V30 3559 H 326.932 -3.78887 0.773394 0
M  V30 3560 H 328.621 -3.88324 1.1815 0
M  V30 3561 H 329.387 -3.2647 3.58667 0
M  V30 3562 H 325.266 -3.86276 2.51619 0
M  V30 3563 H 328.81 -3.62507 5.96015 0
M  V30 3564 H 324.707 -4.2244 4.88072 0
M  V30 3565 H 325.475 -4.31609 6.95454 0
M  V30 3566 N 328.138 -0.959301 -1.25041 0
M  V30 3567 C 329.068 -0.501388 -2.28053 0
M  V30 3568 C 330.049 0.454673 -1.63911 0
M  V30 3569 O 331.234 0.352618 -1.90972 0
M  V30 3570 C 328.364 0.217224 -3.4662 0
M  V30 3571 C 327.318 -0.654034 -4.22973 0
M  V30 3572 C 326.644 0.195589 -5.34342 0
M  V30 3573 C 327.944 -1.93447 -4.85155 0
M  V30 3574 H 329.638 -1.36238 -2.66608 0
M  V30 3575 H 327.184 -0.656534 -1.28163 0
M  V30 3576 H 329.137 0.548732 -4.17812 0
M  V30 3577 H 327.861 1.1125 -3.07068 0
M  V30 3578 H 326.52 -0.968693 -3.5357 0
M  V30 3579 H 326.168 1.09076 -4.91031 0
M  V30 3580 H 325.868 -0.384091 -5.86343 0
M  V30 3581 H 327.392 0.521958 -6.08365 0
M  V30 3582 H 328.806 -1.66908 -5.48466 0
M  V30 3583 H 327.203 -2.46018 -5.47353 0
M  V30 3584 H 328.273 -2.63466 -4.07079 0
M  V30 3585 N 329.616 1.39756 -0.72842 0
M  V30 3586 C 330.841 2.05472 -0.282159 0
M  V30 3587 C 331.266 1.54549 1.07221 0
M  V30 3588 O 330.624 0.686372 1.67805 0
M  V30 3589 C 330.672 3.59462 -0.286264 0
M  V30 3590 O 329.776 4.05918 0.728298 0
M  V30 3591 H 329.117 0.651226 -0.129618 0
M  V30 3592 H 331.647 1.78915 -0.992499 0
M  V30 3593 H 331.657 4.07798 -0.128373 0
M  V30 3594 H 330.332 3.95889 -1.27456 0
M  V30 3595 H 328.909 3.69012 0.537081 0
M  V30 3596 N 331.094 0.475555 1.50254 0
M  V30 3597 C 332.024 -0.30611 2.31485 0
M  V30 3598 C 333.005 -0.986228 1.38591 0
M  V30 3599 O 334.19 -0.982541 1.67511 0
M  V30 3600 C 331.32 -1.38588 3.1845 0
M  V30 3601 C 330.274 -0.827115 4.19932 0
M  V30 3602 C 329.6 -2.00551 4.95665 0
M  V30 3603 C 330.9 0.16463 5.2204 0
M  V30 3604 H 332.594 0.371866 2.97082 0
M  V30 3605 H 330.14 0.180282 1.42867 0
M  V30 3606 H 332.093 -1.94023 3.74076 0
M  V30 3607 H 330.817 -2.09269 2.50747 0
M  V30 3608 H 329.476 -0.294702 3.65414 0
M  V30 3609 H 329.124 -2.6994 4.2443 0
M  V30 3610 H 328.824 -1.63784 5.64313 0
M  V30 3611 H 330.348 -2.56468 5.54127 0
M  V30 3612 H 331.762 -0.300699 5.72511 0
M  V30 3613 H 330.159 0.446813 5.98434 0
M  V30 3614 H 331.229 1.08905 4.72512 0
M  V30 3615 N 332.573 -1.56217 0.208337 0
M  V30 3616 C 333.503 -2.22694 -0.702116 0
M  V30 3617 C 334.484 -1.19432 -1.2112 0
M  V30 3618 O 335.669 -1.47978 -1.25762 0
M  V30 3619 C 332.799 -2.8966 -1.9161 0
M  V30 3620 C 331.753 -3.9928 -1.5414 0
M  V30 3621 C 331.079 -4.53476 -2.83308 0
M  V30 3622 C 332.379 -5.17012 -0.741339 0
M  V30 3623 H 334.073 -2.99034 -0.147898 0
M  V30 3624 H 331.619 -1.43831 -0.0696951 0
M  V30 3625 H 333.572 -3.34852 -2.55836 0
M  V30 3626 H 332.296 -2.10746 -2.49507 0
M  V30 3627 H 330.955 -3.54799 -0.922668 0
M  V30 3628 H 330.603 -3.71308 -3.39322 0
M  V30 3629 H 330.303 -5.27451 -2.58976 0
M  V30 3630 H 331.827 -5.01378 -3.485 0
M  V30 3631 H 333.241 -5.58667 -1.28699 0
M  V30 3632 H 331.638 -5.97137 -0.595627 0
M  V30 3633 H 332.708 -4.8423 0.254851 0
M  V30 3634 N 334.051 0.0651679 -1.57465 0
M  V30 3635 C 335.291 0.768329 -1.8941 0
M  V30 3636 C 335.655 1.74406 -0.802894 0
M  V30 3637 O 336.856 2.49281 -1.0056 0
M  V30 3638 C 335.127 1.45199 -3.26576 0
M  V30 3639 S 336.686 2.1893 -3.80283 0
M  V30 3640 H 333.504 0.255359 -0.663561 0
M  V30 3641 H 336.106 0.024167 -1.95485 0
M  V30 3642 H 334.81 0.728123 -4.03889 0
M  V30 3643 H 334.341 2.23545 -3.23715 0
M  V30 3644 H 336.356 3.45551 -3.56102 0
M  V30 3645 N 335.529 1.53961 0.336706 0
M  V30 3646 C 336.439 1.85432 1.43708 0
M  V30 3647 C 337.455 0.745053 1.57242 0
M  V30 3648 O 338.631 1.03804 1.72588 0
M  V30 3649 C 335.696 2.06349 2.78605 0
M  V30 3650 C 334.757 3.30191 2.74358 0
M  V30 3651 C 333.99 3.50101 4.02822 0
M  V30 3652 O 334.213 2.7371 5.00439 0
M  V30 3653 O 333.147 4.43547 4.06878 0
M  V30 3654 H 336.973 2.78975 1.20028 0
M  V30 3655 H 334.558 1.39701 0.52952 0
M  V30 3656 H 336.44 2.21513 3.58483 0
M  V30 3657 H 335.115 1.15995 3.02203 0
M  V30 3658 H 334.022 3.20425 1.93078 0
M  V30 3659 H 335.355 4.2056 2.55715 0
M  V30 3660 N 337.007 -0.598083 1.45811 0
M  V30 3661 C 338.423 -0.919847 1.30426 0
M  V30 3662 C 338.623 -1.99759 0.264303 0
M  V30 3663 O 337.679 -2.50221 -0.338472 0
M  V30 3664 C 338.992 -1.35176 2.68603 0
M  V30 3665 C 340.54 -1.46546 2.76574 0
M  V30 3666 C 341.015 -1.9311 4.15298 0
M  V30 3667 N 342.506 -2.00328 4.1764 0
M  V30 3668 C 343.241 -2.37599 5.21856 0
M  V30 3669 N 342.737 -2.73771 6.36413 0
M  V30 3670 N 344.53 -2.38021 5.09218 0
M  V30 3671 H 336.681 0.114111 2.12093 0
M  V30 3672 H 338.944 -0.0116121 0.947929 0
M  V30 3673 H 338.65 -0.633969 3.45939 0
M  V30 3674 H 338.524 -2.3164 2.97696 0
M  V30 3675 H 340.911 -2.17415 1.99537 0
M  V30 3676 H 340.992 -0.483727 2.51185 0
M  V30 3677 H 340.636 -1.22824 4.92825 0
M  V30 3678 H 340.566 -2.92213 4.38086 0
M  V30 3679 H 343.057 -1.74925 3.34977 0
M  V30 3680 H 343.37 -3.0112 7.11721 0
M  V30 3681 H 341.715 -2.71445 6.39799 0
M  V30 3682 H 344.906 -2.09174 4.18765 0
M  V30 3683 H 345.079 -2.66741 5.90554 0
M  V30 3684 N 338.485 -1.33259 -0.841409 0
M  V30 3685 C 339.734 -1.23921 -1.59143 0
M  V30 3686 C 340.047 0.1941 -1.94635 0
M  V30 3687 O 341.253 0.409474 -2.68394 0
M  V30 3688 C 339.709 -2.17119 -2.87032 0
M  V30 3689 C 339.317 -3.65606 -2.58914 0
M  V30 3690 C 341.061 -2.16648 -3.65053 0
M  V30 3691 C 338.968 -4.50726 -3.82884 0
M  V30 3692 H 337.898 -0.460264 -0.597221 0
M  V30 3693 H 340.549 -1.58307 -0.927959 0
M  V30 3694 H 338.931 -1.75663 -3.54906 0
M  V30 3695 H 340.105 -4.15487 -1.99267 0
M  V30 3696 H 338.42 -3.68341 -1.942 0
M  V30 3697 H 341.017 -2.77474 -4.57069 0
M  V30 3698 H 341.36 -1.16088 -3.99787 0
M  V30 3699 H 341.893 -2.56453 -3.041 0
M  V30 3700 H 338.632 -5.52151 -3.53283 0
M  V30 3701 H 338.152 -4.0559 -4.41879 0
M  V30 3702 H 339.831 -4.64401 -4.50489 0
M  V30 3703 N 339.963 1.05934 -1.16686 0
M  V30 3704 C 340.895 2.13468 -0.834503 0
M  V30 3705 C 341.908 1.62013 0.15984 0
M  V30 3706 O 343.097 1.7838 -0.0654228 0
M  V30 3707 C 340.197 3.3817 -0.222361 0
M  V30 3708 C 339.37 4.18928 -1.25771 0
M  V30 3709 C 338.429 5.21985 -0.664703 0
M  V30 3710 O 337.455 5.53334 -1.33453 0
M  V30 3711 N 338.657 5.77919 0.546834 0
M  V30 3712 H 341.422 2.42578 -1.75999 0
M  V30 3713 H 338.983 1.21967 -1.06469 0
M  V30 3714 H 340.975 4.04266 0.187472 0
M  V30 3715 H 339.545 3.06655 0.606758 0
M  V30 3716 H 338.765 3.48433 -1.84358 0
M  V30 3717 H 340.053 4.69687 -1.95631 0
M  V30 3718 H 339.451 5.54721 1.10912 0
M  V30 3719 H 338.008 6.45573 0.898829 0
M  V30 3720 N 341.441 0.965919 1.2453 0
M  V30 3721 C 342.857 0.67216 1.44756 0
M  V30 3722 C 343.057 -0.766609 1.86347 0
M  V30 3723 O 342.113 -1.5407 2.00047 0
M  V30 3724 C 343.426 1.65473 2.51076 0
M  V30 3725 C 344.974 1.66716 2.64905 0
M  V30 3726 C 345.449 2.63766 3.74421 0
M  V30 3727 N 346.94 2.62198 3.81846 0
M  V30 3728 C 347.675 3.33966 4.66106 0
M  V30 3729 N 347.171 4.15245 5.54566 0
M  V30 3730 N 348.964 3.22799 4.60171 0
M  V30 3731 H 341.115 1.89553 0.958293 0
M  V30 3732 H 343.378 0.815979 0.482579 0
M  V30 3733 H 343.084 2.68296 2.27399 0
M  V30 3734 H 342.958 1.4261 3.49202 0
M  V30 3735 H 345.345 0.646057 2.87941 0
M  V30 3736 H 345.426 1.93642 1.67142 0
M  V30 3737 H 345.07 3.6601 3.52135 0
M  V30 3738 H 345 2.34121 4.71694 0
M  V30 3739 H 347.491 2.032 3.18619 0
M  V30 3740 H 347.804 4.66898 6.15814 0
M  V30 3741 H 346.149 4.1934 5.54237 0
M  V30 3742 H 349.34 2.58764 3.90075 0
M  V30 3743 H 349.513 3.78994 5.25612 0
M  V30 3744 N 342.919 -1.39368 0.735821 0
M  V30 3745 C 344.168 -1.99733 0.281004 0
M  V30 3746 C 344.481 -1.59055 -1.13846 0
M  V30 3747 O 345.687 -2.12262 -1.69284 0
M  V30 3748 C 344.143 -3.57057 0.451462 0
M  V30 3749 C 343.751 -4.06697 1.87886 0
M  V30 3750 C 345.495 -4.2446 0.0584616 0
M  V30 3751 C 343.402 -5.56598 1.99883 0
M  V30 3752 H 342.332 -0.747163 0.101311 0
M  V30 3753 H 344.983 -1.59357 0.909819 0
M  V30 3754 H 343.365 -3.95234 -0.246263 0
M  V30 3755 H 344.539 -3.79853 2.60861 0
M  V30 3756 H 342.854 -3.5196 2.22515 0
M  V30 3757 H 345.451 -5.34549 0.127099 0
M  V30 3758 H 345.794 -4.04444 -0.986433 0
M  V30 3759 H 346.327 -3.9146 0.707374 0
M  V30 3760 H 343.066 -5.81494 3.02564 0
M  V30 3761 H 342.586 -5.85242 1.31346 0
M  V30 3762 H 344.265 -6.22022 1.78039 0
M  V30 3763 N 344.397 -0.483516 -1.5 0
M  V30 3764 C 345.345 0.318061 -2.30415 0
M  V30 3765 C 346.339 0.978988 -1.38247 0
M  V30 3766 O 347.545 0.908673 -1.55381 0
M  V30 3767 H 343.92 0.121419 -0.742133 0
M  V30 3768 H 345.891 -0.380403 -2.95965 0
M  V30 3769 C 344.64 1.38013 -3.19136 0
M  V30 3770 H 343.963 0.880952 -3.89973 0
M  V30 3771 H 345.403 1.91332 -3.78375 0
M  V30 3772 C 343.862 2.38884 -2.37563 0
M  V30 3773 O 344.392 3.44412 -2.06744 0
M  V30 3774 N 342.598 2.10912 -1.99911 0
M  V30 3775 H 342.145 1.25118 -2.25174 0
M  V30 3776 H 342.103 2.78635 -1.45636 0
M  V30 3777 N 345.875 1.56104 -0.216619 0
M  V30 3778 C 347.291 1.58995 0.13886 0
M  V30 3779 C 347.491 1.23333 1.59346 0
M  V30 3780 O 346.547 0.966234 2.33281 0
M  V30 3781 C 347.86 3.00143 -0.182968 0
M  V30 3782 C 349.408 3.12751 -0.124807 0
M  V30 3783 C 349.883 4.56068 -0.420241 0
M  V30 3784 N 351.374 4.61723 -0.369634 0
M  V30 3785 C 352.109 5.70542 -0.571789 0
M  V30 3786 N 351.605 6.87744 -0.835453 0
M  V30 3787 N 353.398 5.59831 -0.504563 0
M  V30 3788 H 345.549 1.77562 -1.16557 0
M  V30 3789 H 347.812 0.825091 -0.466828 0
M  V30 3790 H 347.518 3.30871 -1.19237 0
M  V30 3791 H 347.392 3.73813 0.504367 0
M  V30 3792 H 349.779 2.81822 0.875223 0
M  V30 3793 H 349.86 2.41421 -0.845544 0
M  V30 3794 H 349.504 4.87713 -1.41769 0
M  V30 3795 H 349.434 5.25617 0.321631 0
M  V30 3796 H 351.925 3.77502 -0.173338 0
M  V30 3797 H 352.238 7.66587 -0.977938 0
M  V30 3798 H 350.583 6.895 -0.872592 0
M  V30 3799 H 353.774 4.67145 -0.298842 0
M  V30 3800 H 353.947 6.44573 -0.665519 0
M  V30 3801 O 347.392 0.0802023 1.61301 0
M  V30 3802 H 348.083 -0.524716 1.86458 0
M  V30 END ATOM
M  V30 BEGIN BOND
M  V30 END BOND
M  V30 END CTAB
M  END
$$$$
