drugbank_target|Q92570 Nuclear receptor subfamily 4 group A member 3 (DB01254)
 OpenBabel12092121063D

  0  0  0     0  0            999 V3000
M  V30 BEGIN CTAB
M  V30 COUNTS 9537 9674 0 0 0
M  V30 BEGIN ATOM
M  V30 1 H -0.908 1.98254 -0.117106 0
M  V30 2 N 0 1.576 0 0
M  V30 3 C 0.933 2.03868 1.02534 0
M  V30 4 C 1.911 0.928543 1.3348 0
M  V30 5 O 3.095 1.19667 1.45644 0
M  V30 6 C 0.222 2.43627 2.35294 0
M  V30 7 C -0.732 3.65373 2.2001 0
M  V30 8 S 0.101 5.13292 1.52614 0
M  V30 9 C 1.257 5.56322 2.86805 0
M  V30 10 H 1.49 2.90518 0.631377 0
M  V30 11 H -0.977 1.52953 0.210867 0
M  V30 12 H 0.981 2.67203 3.11629 0
M  V30 13 H -0.358 1.57376 2.7183 0
M  V30 14 H -1.165 3.90944 3.18086 0
M  V30 15 H -1.563 3.418 1.51819 0
M  V30 16 H 0.729 5.58782 3.83104 0
M  V30 17 H 1.672 6.56266 2.65933 0
M  V30 18 H 2.08 4.83886 2.90714 0
M  V30 19 N 1.4781 -0.272755 1.55222 0
M  V30 20 C 2.8891 -0.84378 1.66545 0
M  V30 21 C 3.2401 -1.87035 0.592641 0
M  V30 22 O 2.3651 -2.14761 -0.265818 0
M  V30 23 C 2.9601 -1.53723 3.01918 0
M  V30 24 C 1.5191 -2.05628 3.15268 0
M  V30 25 C 0.6661 -0.898424 2.62343 0
M  V30 26 H 3.6171 -0.0490998 1.58624 0
M  V30 27 H 3.6381 -2.40421 2.94921 0
M  V30 28 H 3.1501 -0.78983 3.79978 0
M  V30 29 H 1.2511 -2.83329 2.41983 0
M  V30 30 H 1.3641 -2.27142 4.21833 0
M  V30 31 H -0.2719 -1.29186 2.19506 0
M  V30 32 H 0.5111 -0.164528 3.42906 0
M  V30 33 N 2.9562 -1.48159 -0.537278 0
M  V30 34 C 4.1962 -1.57397 -1.30405 0
M  V30 35 C 4.5602 -0.239202 -1.90504 0
M  V30 36 O 5.7612 -0.206528 -2.68005 0
M  V30 37 C 4.0322 -2.6754 -2.36974 0
M  V30 38 S 5.5912 -2.96496 -3.23475 0
M  V30 39 H 2.4092 -0.555577 -0.443684 0
M  V30 40 H 5.0112 -1.85644 -0.612912 0
M  V30 41 H 3.7152 -3.63092 -1.91291 0
M  V30 42 H 3.2462 -2.41172 -3.10805 0
M  V30 43 H 5.2612 -2.35234 -4.36897 0
M  V30 44 N 4.4343 0.785586 -1.36625 0
M  V30 45 C 5.6803 1.54591 -1.31261 0
M  V30 46 C 6.0133 1.93906 0.106823 0
M  V30 47 O 5.2883 1.63007 1.06108 0
M  V30 48 C 5.5713 2.82038 -2.23889 0
M  V30 49 C 5.4243 2.49066 -3.74548 0
M  V30 50 C 6.7433 3.83887 -2.15217 0
M  V30 51 H 3.8623 0.560846 -0.478143 0
M  V30 52 H 6.5043 0.902278 -1.67209 0
M  V30 53 H 4.6543 3.36961 -1.93363 0
M  V30 54 H 6.3263 2.00164 -4.15611 0
M  V30 55 H 4.5693 1.81954 -3.93796 0
M  V30 56 H 5.2403 3.40109 -4.34776 0
M  V30 57 H 7.7163 3.38421 -2.42096 0
M  V30 58 H 6.5923 4.70806 -2.82193 0
M  V30 59 H 6.8533 4.27131 -1.14068 0
M  V30 60 N 5.9124 1.20967 1.01018 0
M  V30 61 C 6.8444 0.922059 2.09835 0
M  V30 62 C 7.8574 -0.0927106 1.62536 0
M  V30 63 O 9.0464 0.139127 1.77957 0
M  V30 64 C 6.1464 0.362004 3.36961 0
M  V30 65 C 5.3194 1.42986 4.13369 0
M  V30 66 C 4.3784 0.879976 5.1879 0
M  V30 67 O 3.4044 1.56219 5.47343 0
M  V30 68 N 4.6064 -0.307396 5.79686 0
M  V30 69 H 7.3714 1.8588 2.35093 0
M  V30 70 H 4.9324 1.11422 1.1746 0
M  V30 71 H 6.9244 -0.0201474 4.04695 0
M  V30 72 H 5.4944 -0.479437 3.08902 0
M  V30 73 H 4.7144 1.98608 3.40512 0
M  V30 74 H 6.0024 2.14885 4.61196 0
M  V30 75 H 5.4004 -0.878796 5.58832 0
M  V30 76 H 3.9574 -0.631115 6.48737 0
M  V30 77 N 7.3905 -1.2043 1.01659 0
M  V30 78 C 8.3535 -2.21433 0.591616 0
M  V30 79 C 9.3535 -1.57203 -0.338226 0
M  V30 80 O 10.5435 -1.73737 -0.126918 0
M  V30 81 C 7.6755 -3.40628 -0.136058 0
M  V30 82 H 8.8685 -2.60545 1.48514 0
M  V30 83 H 6.4215 -1.33893 0.806379 0
M  V30 84 H 7.1565 -3.07019 -1.04449 0
M  V30 85 H 6.9415 -3.88475 0.531917 0
M  V30 86 H 8.4315 -4.15475 -0.420735 0
M  V30 87 N 8.8686 -0.792821 -1.36206 0
M  V30 88 C 9.8006 -0.151469 -2.28699 0
M  V30 89 C 10.8136 0.641262 -1.49638 0
M  V30 90 O 12.0026 0.475885 -1.72039 0
M  V30 91 C 9.1026 0.808424 -3.29117 0
M  V30 92 C 8.2756 0.0650202 -4.37352 0
M  V30 93 C 7.3346 0.941358 -5.17711 0
M  V30 94 O 6.3606 0.397352 -5.67811 0
M  V30 95 N 7.5626 2.2652 -5.3448 0
M  V30 96 H 10.3276 -0.945982 -2.84379 0
M  V30 97 H 7.8886 -0.647032 -1.48409 0
M  V30 98 H 9.8806 1.3986 -3.79765 0
M  V30 99 H 8.4506 1.5038 -2.74052 0
M  V30 100 H 7.6706 -0.706255 -3.87822 0
M  V30 101 H 8.9586 -0.447847 -5.06825 0
M  V30 102 H 8.3566 2.73128 -4.95396 0
M  V30 103 H 6.9136 2.80493 -5.88359 0
M  V30 104 N 10.3467 1.47872 -0.545128 0
M  V30 105 C 11.5767 2.06589 -0.0210534 0
M  V30 106 C 11.9847 1.39997 1.27269 0
M  V30 107 O 11.3277 0.486421 1.77143 0
M  V30 108 C 11.3897 3.58574 0.257933 0
M  V30 109 C 11.0537 4.47132 -0.944573 0
M  V30 110 C 12.0507 4.85986 -1.84699 0
M  V30 111 C 9.7357 4.88821 -1.15584 0
M  V30 112 C 11.7297 5.65314 -2.94446 0
M  V30 113 C 9.4167 5.67916 -2.25642 0
M  V30 114 C 10.4147 6.06073 -3.14905 0
M  V30 115 O 10.1027 6.83578 -4.23057 0
M  V30 116 H 9.8347 0.674971 -0.0372899 0
M  V30 117 H 12.3887 1.91037 -0.754599 0
M  V30 118 H 10.6187 3.72295 1.04564 0
M  V30 119 H 12.3077 3.99356 0.72592 0
M  V30 120 H 13.0737 4.54388 -1.69577 0
M  V30 121 H 8.9527 4.58595 -0.470279 0
M  V30 122 H 12.4967 5.95016 -3.64145 0
M  V30 123 H 8.3937 5.98927 -2.40742 0
M  V30 124 H 9.1617 7.01954 -4.20954 0
M  V30 125 N 11.8248 0.280983 1.55075 0
M  V30 126 C 13.0498 -0.340154 2.04592 0
M  V30 127 C 13.4748 -1.48246 1.15779 0
M  V30 128 O 12.8328 -1.80614 0.15761 0
M  V30 129 C 12.8808 -0.793104 3.5177 0
M  V30 130 O 11.9848 -1.89981 3.66034 0
M  V30 131 H 11.3258 -0.0694289 0.66036 0
M  V30 132 H 13.8558 0.416993 2.00306 0
M  V30 133 H 13.8658 -1.08729 3.93245 0
M  V30 134 H 12.5408 0.0426163 4.15878 0
M  V30 135 H 11.1178 -1.60771 3.36463 0
M  V30 136 N 13.3029 -1.57598 0.00835791 0
M  V30 137 C 14.7139 -1.7892 -0.53333 0
M  V30 138 C 15.0649 -0.916609 -1.73473 0
M  V30 139 O 14.1899 -0.121336 -2.1606 0
M  V30 140 C 14.7849 -3.24488 -0.974313 0
M  V30 141 C 13.3439 -3.46878 -1.46125 0
M  V30 142 C 12.4909 -2.74157 -0.416302 0
M  V30 143 H 15.4419 -1.56958 0.234495 0
M  V30 144 H 15.4629 -3.3306 -1.83988 0
M  V30 145 H 14.9749 -3.87972 -0.099718 0
M  V30 146 H 13.0759 -2.8862 -2.35646 0
M  V30 147 H 13.1889 -4.55572 -1.48295 0
M  V30 148 H 11.5529 -2.39022 -0.87981 0
M  V30 149 H 12.3359 -3.40345 0.44947 0
M  V30 150 N 14.781 0.264519 -1.55364 0
M  V30 151 C 16.006 1.01726 -1.80739 0
M  V30 152 C 16.431 1.78836 -0.583044 0
M  V30 153 O 15.789 1.75167 0.467566 0
M  V30 154 C 15.837 1.94482 -3.03659 0
M  V30 155 O 14.941 3.03386 -2.7934 0
M  V30 156 H 14.282 0.290395 -0.597132 0
M  V30 157 H 16.812 0.290854 -2.02522 0
M  V30 158 H 16.822 2.36278 -3.32621 0
M  V30 159 H 15.497 1.37772 -3.92418 0
M  V30 160 H 14.074 2.65844 -2.61498 0
M  V30 161 N 16.2591 1.48442 0.529413 0
M  V30 162 C 17.6701 1.5002 1.11134 0
M  V30 163 C 18.0211 0.27031 1.94329 0
M  V30 164 O 17.1461 -0.622507 2.07253 0
M  V30 165 C 17.7411 2.71834 2.02217 0
M  V30 166 C 16.3001 2.76283 2.55627 0
M  V30 167 C 15.4471 2.43542 1.326 0
M  V30 168 H 18.3981 1.5555 0.314641 0
M  V30 169 H 18.4191 2.50384 2.8651 0
M  V30 170 H 17.9311 3.61331 1.41639 0
M  V30 171 H 16.0321 1.90995 3.19924 0
M  V30 172 H 16.1451 3.77725 2.94721 0
M  V30 173 H 14.5091 1.94709 1.64196 0
M  V30 174 H 15.2921 3.3528 0.737734 0
M  V30 175 N 17.7372 -0.778329 1.37039 0
M  V30 176 C 19.1482 -1.35421 1.28523 0
M  V30 177 C 19.4992 -1.96075 -0.0700901 0
M  V30 178 O 18.6242 -1.93352 -0.971801 0
M  V30 179 C 19.2192 -2.46211 2.32735 0
M  V30 180 C 17.7782 -2.99585 2.27873 0
M  V30 181 C 16.9252 -1.72748 2.16918 0
M  V30 182 H 19.8762 -0.5791 1.47757 0
M  V30 183 H 19.8972 -3.2552 1.9702 0
M  V30 184 H 19.4092 -2.02036 3.31365 0
M  V30 185 H 17.5102 -3.48152 1.32745 0
M  V30 186 H 17.6232 -3.55646 3.21018 0
M  V30 187 H 15.9872 -1.95416 1.63354 0
M  V30 188 H 16.7702 -1.30686 3.17452 0
M  V30 189 N 19.2153 -1.21501 -1.00376 0
M  V30 190 C 20.4633 -1.03095 -1.73827 0
M  V30 191 C 20.7843 0.436341 -1.90055 0
M  V30 192 O 20.0543 1.31466 -1.45236 0
M  V30 193 H 18.6343 -0.378487 -0.644016 0
M  V30 194 H 21.2963 -1.52831 -1.20949 0
M  V30 195 H 20.3923 -1.49991 -2.73695 0
M  V30 196 N 20.6934 1.19889 -1.02296 0
M  V30 197 C 21.9184 1.9393 -0.735237 0
M  V30 198 C 22.3434 1.74639 0.698782 0
M  V30 199 O 21.7014 1.04481 1.48167 0
M  V30 200 C 21.7494 3.43916 -1.08417 0
M  V30 201 O 20.8534 4.11917 -0.199446 0
M  V30 202 H 20.1944 0.605645 -0.272196 0
M  V30 203 H 22.7244 1.52137 -1.36804 0
M  V30 204 H 22.7344 3.9456 -1.03856 0
M  V30 205 H 21.4094 3.5728 -2.12894 0
M  V30 206 H 19.9864 3.71666 -0.303136 0
M  V30 207 N 22.1715 0.800033 1.35784 0
M  V30 208 C 23.3965 0.388511 2.03729 0
M  V30 209 C 23.8215 -0.990481 1.5991 0
M  V30 210 O 23.1795 -1.64013 0.772612 0
M  V30 211 C 23.2275 0.4726 3.5749 0
M  V30 212 O 22.3315 -0.51646 4.09153 0
M  V30 213 H 21.6725 0.163271 0.643614 0
M  V30 214 H 24.2025 1.0841 1.73518 0
M  V30 215 H 24.2125 0.34003 4.06581 0
M  V30 216 H 22.8875 1.47848 3.88734 0
M  V30 217 H 21.4645 -0.344673 3.71304 0
M  V30 218 N 23.6496 -1.47581 0.552962 0
M  V30 219 C 24.8796 -2.06575 0.0320091 0
M  V30 220 C 25.2876 -1.4067 -1.26525 0
M  V30 221 O 24.6306 -0.495808 -1.76883 0
M  V30 222 C 24.6926 -3.58705 -0.238913 0
M  V30 223 C 24.3566 -4.46625 0.968272 0
M  V30 224 C 25.3536 -4.85 1.87274 0
M  V30 225 C 23.0386 -4.88201 1.18175 0
M  V30 226 C 25.0326 -5.63745 2.9744 0
M  V30 227 C 22.7196 -5.66712 2.28651 0
M  V30 228 C 23.7176 -6.04394 3.18114 0
M  V30 229 O 23.4056 -6.81324 4.26676 0
M  V30 230 H 23.1376 -0.674763 0.0408689 0
M  V30 231 H 25.6916 -1.90634 0.764719 0
M  V30 232 H 23.9216 -3.72844 -1.02588 0
M  V30 233 H 25.6106 -3.99735 -0.704731 0
M  V30 234 H 26.3766 -4.53482 1.71984 0
M  V30 235 H 22.2556 -4.58339 0.494593 0
M  V30 236 H 25.7996 -5.93077 3.67296 0
M  V30 237 H 21.6966 -5.97642 2.43915 0
M  V30 238 H 22.4646 -6.99712 4.24671 0
M  V30 239 N 25.1277 -0.289203 -1.54924 0
M  V30 240 C 26.0907 0.579144 -2.21762 0
M  V30 241 C 27.0907 1.07047 -1.1999 0
M  V30 242 O 28.2807 0.968384 -1.44803 0
M  V30 243 C 25.4127 1.80055 -2.8947 0
M  V30 244 H 26.6057 -0.00464908 -2.999 0
M  V30 245 H 24.1587 -0.0399306 -1.56249 0
M  V30 246 H 24.8937 2.42449 -2.15381 0
M  V30 247 H 24.6787 1.45602 -3.64064 0
M  V30 248 H 26.1687 2.41773 -3.40493 0
M  V30 249 N 26.6058 1.57591 -0.0167156 0
M  V30 250 C 27.5688 2.08393 0.954204 0
M  V30 251 C 28.5688 0.996531 1.26198 0
M  V30 252 O 29.7588 1.25858 1.20438 0
M  V30 253 C 26.8908 2.5394 2.27436 0
M  V30 254 H 28.0838 2.95455 0.514451 0
M  V30 255 H 25.6368 1.54582 0.231089 0
M  V30 256 H 26.3718 1.70171 2.76066 0
M  V30 257 H 26.1568 3.33371 2.06412 0
M  V30 258 H 27.6468 2.93512 2.97053 0
M  V30 259 N 28.0839 -0.256276 1.55502 0
M  V30 260 C 29.0159 -1.33981 1.85962 0
M  V30 261 C 30.0289 -1.44743 0.745212 0
M  V30 262 O 31.2179 -1.4626 1.02324 0
M  V30 263 C 28.3179 -2.7194 2.02242 0
M  V30 264 C 27.4909 -2.83562 3.33033 0
M  V30 265 C 26.5499 -4.02304 3.39172 0
M  V30 266 O 25.5759 -3.92273 4.12444 0
M  V30 267 N 26.7779 -5.15045 2.67784 0
M  V30 268 H 29.5429 -1.08191 2.7949 0
M  V30 269 H 27.1039 -0.446388 1.55624 0
M  V30 270 H 29.0959 -3.49697 2.03701 0
M  V30 271 H 27.6659 -2.90479 1.15502 0
M  V30 272 H 26.8859 -1.92555 3.43971 0
M  V30 273 H 28.1739 -2.88271 4.19258 0
M  V30 274 H 27.5719 -5.26085 2.07968 0
M  V30 275 H 26.1289 -5.90972 2.74947 0
M  V30 276 N 29.562 -1.4872 -0.521534 0
M  V30 277 C 30.79 -1.60843 -1.30142 0
M  V30 278 C 31.205 -0.271897 -1.86832 0
M  V30 279 O 30.562 0.739969 -1.66825 0
M  V30 280 C 30.613 -2.66155 -2.4463 0
M  V30 281 O 30.334 -3.94623 -1.90275 0
M  V30 282 C 31.835 -2.88795 -3.36322 0
M  V30 283 H 29.055 -0.542075 -0.395468 0
M  V30 284 H 31.599 -1.94609 -0.628285 0
M  V30 285 H 29.754 -2.35224 -3.07812 0
M  V30 286 H 30.168 -4.52468 -2.65279 0
M  V30 287 H 31.642 -3.66264 -4.12983 0
M  V30 288 H 32.119 -1.97934 -3.9207 0
M  V30 289 H 32.725 -3.21063 -2.78924 0
M  V30 290 N 31.0401 0.771051 -1.3745 0
M  V30 291 C 32.2701 1.55789 -1.35696 0
M  V30 292 C 32.6781 1.89107 0.0594523 0
M  V30 293 O 32.0211 1.51984 1.03183 0
M  V30 294 C 32.0831 2.89515 -2.13123 0
M  V30 295 C 31.7471 2.78829 -3.62082 0
M  V30 296 C 32.7441 2.49812 -4.5595 0
M  V30 297 C 30.4291 2.9683 -4.05213 0
M  V30 298 C 32.4231 2.38923 -5.90927 0
M  V30 299 C 30.1101 2.85562 -5.40276 0
M  V30 300 C 31.1081 2.56649 -6.32946 0
M  V30 301 O 30.7961 2.45408 -7.65526 0
M  V30 302 H 30.5281 0.489257 -0.466481 0
M  V30 303 H 33.0821 0.963446 -1.81403 0
M  V30 304 H 31.3121 3.51081 -1.62107 0
M  V30 305 H 33.0011 3.50915 -2.03994 0
M  V30 306 H 33.7671 2.3559 -4.23937 0
M  V30 307 H 29.6461 3.18335 -3.33442 0
M  V30 308 H 33.1901 2.16277 -6.63227 0
M  V30 309 H 29.0871 2.99351 -5.71891 0
M  V30 310 H 29.8551 2.60753 -7.75855 0
M  V30 311 N 32.5182 1.22032 0.997298 0
M  V30 312 C 33.7432 1.06921 1.77715 0
M  V30 313 C 34.1682 -0.376226 1.84299 0
M  V30 314 O 33.5262 -1.27165 1.29223 0
M  V30 315 C 33.5742 1.67996 3.19076 0
M  V30 316 O 32.6782 0.930653 4.01762 0
M  V30 317 H 32.0192 0.375814 0.547412 0
M  V30 318 H 34.5492 1.61737 1.25309 0
M  V30 319 H 34.5592 1.72538 3.69723 0
M  V30 320 H 33.2342 2.73182 3.13599 0
M  V30 321 H 31.8112 0.960917 3.60307 0
M  V30 322 N 33.9963 -1.19345 1.0293 0
M  V30 323 C 35.2213 -1.93538 0.745511 0
M  V30 324 C 35.6463 -1.75007 -0.689511 0
M  V30 325 O 35.0043 -1.05265 -1.47611 0
M  V30 326 C 35.0523 -3.43336 1.10239 0
M  V30 327 O 34.1563 -4.11806 0.221289 0
M  V30 328 H 33.4973 -0.604193 0.275404 0
M  V30 329 H 36.0273 -1.5141 1.37609 0
M  V30 330 H 36.0373 -3.94004 1.05947 0
M  V30 331 H 34.7123 -3.56146 2.14786 0
M  V30 332 H 33.2893 -3.715 0.322842 0
M  V30 333 N 35.4744 -0.807222 -1.35358 0
M  V30 334 C 36.3844 -0.219594 -2.3357 0
M  V30 335 C 37.4004 0.637734 -1.61892 0
M  V30 336 O 38.5764 0.549336 -1.93763 0
M  V30 337 C 35.6414 0.62158 -3.41083 0
M  V30 338 C 34.7024 -0.256315 -4.28534 0
M  V30 339 C 33.9354 0.544807 -5.30912 0
M  V30 340 O 34.1584 1.77944 -5.41934 0
M  V30 341 O 33.0924 -0.0646478 -6.01865 0
M  V30 342 H 36.9184 -1.03208 -2.85625 0
M  V30 343 H 34.5034 -0.569025 -1.38139 0
M  V30 344 H 36.3854 1.10067 -4.06772 0
M  V30 345 H 35.0604 1.41165 -2.91297 0
M  V30 346 H 33.9674 -0.782559 -3.65823 0
M  V30 347 H 35.3004 -1.01034 -4.81719 0
M  V30 348 N 36.9525 1.47285 -0.560781 0
M  V30 349 C 38.1825 2.06555 -0.0429638 0
M  V30 350 C 38.5905 1.41339 1.25777 0
M  V30 351 O 37.9335 0.505182 1.76617 0
M  V30 352 C 37.9955 3.58827 0.219887 0
M  V30 353 C 37.6595 4.46105 -0.991944 0
M  V30 354 C 38.6565 4.84 -1.89843 0
M  V30 355 C 36.3415 4.87567 -1.20762 0
M  V30 356 C 38.3355 5.6216 -3.00425 0
M  V30 357 C 36.0225 5.65491 -2.31653 0
M  V30 358 C 37.0205 6.02699 -3.21315 0
M  V30 359 O 36.7085 6.79052 -4.30283 0
M  V30 360 H 36.4405 0.674537 -0.0444468 0
M  V30 361 H 38.9945 1.90225 -0.774818 0
M  V30 362 H 37.2245 3.73383 1.00609 0
M  V30 363 H 38.9135 4.00103 0.683522 0
M  V30 364 H 39.6795 4.52564 -1.74387 0
M  V30 365 H 35.5585 4.5807 -0.518893 0
M  V30 366 H 39.1025 5.9112 -3.70436 0
M  V30 367 H 34.9995 5.9634 -2.47081 0
M  V30 368 H 35.7675 6.9745 -4.28376 0
M  V30 369 N 38.4306 0.297415 1.54768 0
M  V30 370 C 39.6586 -0.315623 2.04478 0
M  V30 371 C 40.0736 -1.47792 1.17486 0
M  V30 372 O 39.4306 -1.81404 0.19971 0
M  V30 373 C 39.4816 -0.7753 3.53088 0
M  V30 374 O 39.2026 0.340732 4.36773 0
M  V30 375 C 40.7036 -1.45386 4.18781 0
M  V30 376 H 37.9236 -0.0690887 0.667434 0
M  V30 377 H 40.4676 0.436003 1.99798 0
M  V30 378 H 38.6226 -1.47696 3.58141 0
M  V30 379 H 39.0366 -0.0165035 5.24497 0
M  V30 380 H 40.5106 -1.72669 5.24299 0
M  V30 381 H 40.9876 -2.39275 3.68299 0
M  V30 382 H 41.5936 -0.795475 4.17795 0
M  V30 383 N 39.9087 -1.5758 0.0250728 0
M  V30 384 C 41.1367 -1.9593 -0.664747 0
M  V30 385 C 41.5517 -0.901352 -1.65895 0
M  V30 386 O 40.9087 0.117255 -1.82123 0
M  V30 387 C 40.9597 -3.34342 -1.37468 0
M  V30 388 O 40.6807 -4.36079 -0.420324 0
M  V30 389 C 42.1817 -3.873 -2.1567 0
M  V30 390 H 39.4017 -0.645405 -0.183557 0
M  V30 391 H 41.9457 -2.04329 0.0836372 0
M  V30 392 H 40.1007 -3.27175 -2.0745 0
M  V30 393 H 40.5147 -5.16297 -0.923991 0
M  V30 394 H 41.9887 -4.86504 -2.60803 0
M  V30 395 H 42.4657 -3.21331 -2.99405 0
M  V30 396 H 43.0717 -3.97723 -1.50654 0
M  V30 397 N 41.3868 0.248026 -1.55636 0
M  V30 398 C 42.2968 1.32859 -1.93354 0
M  V30 399 C 43.3128 1.52719 -0.833838 0
M  V30 400 O 44.4888 1.66363 -1.13513 0
M  V30 401 C 41.5538 2.66337 -2.21958 0
M  V30 402 C 40.6148 2.55008 -3.45354 0
M  V30 403 C 39.8478 3.82121 -3.72584 0
M  V30 404 O 40.0708 4.83951 -3.01907 0
M  V30 405 O 39.0048 3.80822 -4.6611 0
M  V30 406 H 42.8308 1.03862 -2.85388 0
M  V30 407 H 40.4158 0.448686 -1.42503 0
M  V30 408 H 42.2978 3.45216 -2.4167 0
M  V30 409 H 40.9728 2.95068 -1.33103 0
M  V30 410 H 39.8798 1.7442 -3.30951 0
M  V30 411 H 41.2128 2.31222 -4.34508 0
M  V30 412 N 42.8649 1.48995 0.513639 0
M  V30 413 C 44.1139 1.57093 1.2651 0
M  V30 414 C 44.4269 0.257091 1.93903 0
M  V30 415 O 45.6329 0.216478 2.70636 0
M  V30 416 C 44.0889 2.77118 2.29638 0
M  V30 417 C 43.6969 4.15209 1.68241 0
M  V30 418 C 45.4409 2.94538 3.05692 0
M  V30 419 C 43.3479 5.26474 2.69406 0
M  V30 420 H 42.2779 0.584876 0.475854 0
M  V30 421 H 44.9289 1.7536 0.540487 0
M  V30 422 H 43.3109 2.52319 3.05207 0
M  V30 423 H 44.4849 4.50094 0.987505 0
M  V30 424 H 42.7999 4.03042 1.04623 0
M  V30 425 H 45.3969 3.74832 3.8132 0
M  V30 426 H 45.7399 2.04614 3.62545 0
M  V30 427 H 46.2729 3.19316 2.37238 0
M  V30 428 H 43.0119 6.18417 2.17351 0
M  V30 429 H 42.5319 4.96058 3.37175 0
M  V30 430 H 44.2109 5.55277 3.32078 0
M  V30 431 N 44.343 -0.763751 1.37857 0
M  V30 432 C 45.276 -1.88486 1.28639 0
M  V30 433 C 46.254 -1.61757 0.165363 0
M  V30 434 O 47.438 -1.85391 0.340948 0
M  V30 435 C 44.565 -3.23884 0.990811 0
M  V30 436 C 43.611 -3.69514 2.12983 0
M  V30 437 S 44.444 -3.82244 3.75033 0
M  V30 438 C 45.6 -5.20477 3.47641 0
M  V30 439 H 45.833 -1.96017 2.23527 0
M  V30 440 H 43.366 -0.925684 1.23574 0
M  V30 441 H 45.324 -4.02081 0.827101 0
M  V30 442 H 43.985 -3.14044 0.0592832 0
M  V30 443 H 43.178 -4.67696 1.87821 0
M  V30 444 H 42.78 -2.98441 2.25408 0
M  V30 445 H 45.072 -6.05905 3.03125 0
M  V30 446 H 46.015 -5.50655 4.4518 0
M  V30 447 H 46.423 -4.88793 2.82385 0
M  V30 448 N 45.8211 -1.22559 -0.990812 0
M  V30 449 C 46.7691 -0.994798 -2.10253 0
M  V30 450 C 47.7631 0.0627798 -1.69284 0
M  V30 451 O 48.9691 -0.0898392 -1.79776 0
M  V30 452 H 45.3441 -0.304527 -0.687581 0
M  V30 453 H 47.3151 -1.93812 -2.26891 0
M  V30 454 C 46.0641 -0.591439 -3.42633 0
M  V30 455 H 45.3871 -1.3969 -3.74602 0
M  V30 456 H 46.8271 -0.469385 -4.21394 0
M  V30 457 C 45.2861 0.699232 -3.29564 0
M  V30 458 O 45.8161 1.75112 -3.61523 0
M  V30 459 N 44.0221 0.671182 -2.82743 0
M  V30 460 H 43.5691 -0.185136 -2.56934 0
M  V30 461 H 43.5271 1.53502 -2.7438 0
M  V30 462 N 47.2992 1.18797 -1.03562 0
M  V30 463 C 48.7102 1.70322 -0.764676 0
M  V30 464 C 49.0612 1.82708 0.714996 0
M  V30 465 O 48.1862 1.50299 1.55689 0
M  V30 466 C 48.7812 3.09356 -1.38145 0
M  V30 467 C 47.3402 3.58114 -1.15895 0
M  V30 468 C 46.4872 2.34798 -1.4753 0
M  V30 469 H 49.4382 1.03543 -1.20268 0
M  V30 470 H 49.4592 3.72378 -0.781977 0
M  V30 471 H 48.9712 3.00309 -2.45837 0
M  V30 472 H 47.0722 3.72464 -0.100544 0
M  V30 473 H 47.1852 4.4184 -1.8524 0
M  V30 474 H 45.5492 2.38464 -0.894829 0
M  V30 475 H 46.3322 2.28375 -2.56319 0
M  V30 476 N 48.7773 0.814389 1.34928 0
M  V30 477 C 50.0543 0.321363 1.92942 0
M  V30 478 C 50.4343 -1.19014 1.74353 0
M  V30 479 O 49.7823 -1.99328 1.11716 0
M  V30 480 C 49.9923 0.741323 3.41036 0
M  V30 481 C 51.3403 0.735266 4.18185 0
M  V30 482 O 52.3643 0.68336 3.49584 0
M  V30 483 O 51.2233 0.800703 5.40602 0
M  V30 484 H 48.3173 0.0858893 0.822528 0
M  V30 485 H 50.8633 0.898609 1.43955 0
M  V30 486 H 49.6353 1.78276 3.4833 0
M  V30 487 H 49.2583 0.139307 3.97356 0
M  V30 488 N 50.2554 -1.46986 0.568584 0
M  V30 489 C 51.4854 -2.0653 0.0539173 0
M  V30 490 C 51.8934 -1.42004 -1.25026 0
M  V30 491 O 51.2364 -0.514541 -1.76347 0
M  V30 492 C 51.2984 -3.58938 -0.200854 0
M  V30 493 C 50.9624 -4.45572 1.01559 0
M  V30 494 C 51.9594 -4.82986 1.92407 0
M  V30 495 C 49.6444 -4.8692 1.23346 0
M  V30 496 C 51.6384 -5.60559 3.03402 0
M  V30 497 C 49.3254 -5.64255 2.34649 0
M  V30 498 C 50.3234 -6.00986 3.24507 0
M  V30 499 O 50.0114 -6.76761 4.33878 0
M  V30 500 H 49.7434 -0.674292 0.0480234 0
M  V30 501 H 52.2974 -1.89812 0.784896 0
M  V30 502 H 50.5274 -3.73911 -0.986279 0
M  V30 503 H 52.2164 -4.0046 -0.662294 0
M  V30 504 H 52.9824 -4.51633 1.76785 0
M  V30 505 H 48.8614 -4.57789 0.543178 0
M  V30 506 H 52.4054 -5.89147 3.73565 0
M  V30 507 H 48.3024 -5.95021 2.5024 0
M  V30 508 H 49.0704 -6.95168 4.32068 0
M  V30 509 N 51.7335 -0.305618 -1.54608 0
M  V30 510 C 52.9615 0.304775 -2.04643 0
M  V30 511 C 53.3765 1.47167 -1.18268 0
M  V30 512 O 52.7335 1.81296 -0.209328 0
M  V30 513 C 52.7845 0.756564 -3.53495 0
M  V30 514 O 52.5055 -0.36389 -4.36586 0
M  V30 515 C 54.0065 1.43163 -4.19546 0
M  V30 516 H 51.2265 0.0655481 -0.667791 0
M  V30 517 H 53.7705 -0.446592 -1.99564 0
M  V30 518 H 51.9255 1.45794 -3.58919 0
M  V30 519 H 52.3395 -0.0113121 -5.24499 0
M  V30 520 H 53.8135 1.69886 -5.25207 0
M  V30 521 H 54.2905 2.37318 -3.69563 0
M  V30 522 H 54.8965 0.773307 -4.18211 0
M  V30 523 N 53.2116 1.57565 -0.0334293 0
M  V30 524 C 54.1586 2.10478 0.946981 0
M  V30 525 C 55.1286 1.00787 1.32027 0
M  V30 526 O 56.3136 1.28232 1.41284 0
M  V30 527 C 53.4536 2.63994 2.22263 0
M  V30 528 C 52.5666 3.87709 1.90541 0
M  V30 529 C 51.7016 4.29604 3.12433 0
M  V30 530 C 50.7406 5.46065 2.76549 0
M  V30 531 N 49.8776 5.83096 3.9108 0
M  V30 532 H 54.7176 2.93963 0.488846 0
M  V30 533 H 52.2546 1.45296 0.22969 0
M  V30 534 H 54.2126 2.93114 2.96884 0
M  V30 535 H 52.8426 1.83333 2.65685 0
M  V30 536 H 51.8946 3.65291 1.06144 0
M  V30 537 H 53.2066 4.72403 1.60116 0
M  V30 538 H 52.3606 4.60182 3.9537 0
M  V30 539 H 51.0996 3.43685 3.46023 0
M  V30 540 H 50.1046 5.15176 1.92026 0
M  V30 541 H 51.3296 6.33685 2.44171 0
M  V30 542 H 49.2756 5.00132 4.24504 0
M  V30 543 H 49.1926 6.6244 3.64293 0
M  V30 544 H 50.4606 6.18282 4.74708 0
M  V30 545 N 54.6897 -0.239769 1.55765 0
M  V30 546 C 55.6197 -1.30052 1.9393 0
M  V30 547 C 56.6007 -1.49839 0.805132 0
M  V30 548 O 57.7857 -1.62328 1.06599 0
M  V30 549 C 54.9157 -2.65391 2.2402 0
M  V30 550 C 53.8697 -2.60289 3.39755 0
M  V30 551 C 53.1957 -3.99489 3.55405 0
M  V30 552 C 54.4957 -2.16654 4.75246 0
M  V30 553 H 56.1897 -0.983573 2.82783 0
M  V30 554 H 53.7357 -0.471701 1.36055 0
M  V30 555 H 55.6887 -3.3974 2.49308 0
M  V30 556 H 54.4127 -2.98736 1.32 0
M  V30 557 H 53.0717 -1.88398 3.14487 0
M  V30 558 H 52.7197 -4.30112 2.60793 0
M  V30 559 H 52.4197 -3.96962 4.33238 0
M  V30 560 H 53.9437 -4.75528 3.83022 0
M  V30 561 H 55.3577 -2.80737 4.99859 0
M  V30 562 H 53.7547 -2.25223 5.56232 0
M  V30 563 H 54.8247 -1.11835 4.71827 0
M  V30 564 N 56.1678 -1.49265 -0.50573 0
M  V30 565 C 57.3958 -1.62215 -1.28429 0
M  V30 566 C 57.8108 -0.291697 -1.86533 0
M  V30 567 O 57.1678 0.722233 -1.67601 0
M  V30 568 C 57.2188 -2.68735 -2.41793 0
M  V30 569 O 56.9398 -3.96619 -1.86078 0
M  V30 570 C 58.4408 -2.92346 -3.3324 0
M  V30 571 H 55.6608 -0.546239 -0.389697 0
M  V30 572 H 58.2048 -1.95265 -0.607609 0
M  V30 573 H 56.3598 -2.38476 -3.053 0
M  V30 574 H 56.7738 -4.55256 -2.60465 0
M  V30 575 H 58.2478 -3.70623 -4.09075 0
M  V30 576 H 58.7248 -2.02081 -3.89948 0
M  V30 577 H 59.3308 -3.24003 -2.75503 0
M  V30 578 N 57.6459 0.756429 -1.3826 0
M  V30 579 C 58.5789 1.87802 -1.29637 0
M  V30 580 C 59.5569 1.61667 -0.173939 0
M  V30 581 O 60.7409 1.85208 -0.350775 0
M  V30 582 C 57.8679 3.23354 -1.00797 0
M  V30 583 C 56.9139 3.68379 -2.14939 0
M  V30 584 S 57.7469 3.8025 -3.77054 0
M  V30 585 C 58.9029 5.18626 -3.50396 0
M  V30 586 H 59.1359 1.94829 -2.24564 0
M  V30 587 H 56.6689 0.919117 -1.24063 0
M  V30 588 H 58.6269 4.01637 -0.848413 0
M  V30 589 H 57.2879 3.14008 -0.0759369 0
M  V30 590 H 56.4809 4.66693 -1.90299 0
M  V30 591 H 56.0829 2.97242 -2.26988 0
M  V30 592 H 58.3749 6.04289 -3.06334 0
M  V30 593 H 59.3179 5.48286 -4.48094 0
M  V30 594 H 59.7259 4.87289 -2.84973 0
M  V30 595 N 59.124 1.23083 0.984299 0
M  V30 596 C 60.401 0.9689 1.69917 0
M  V30 597 C 60.781 -0.513604 2.04757 0
M  V30 598 O 60.129 -1.48383 1.73767 0
M  V30 599 C 60.339 1.87518 2.94343 0
M  V30 600 C 61.687 2.13636 3.6694 0
M  V30 601 O 62.711 1.85036 3.04368 0
M  V30 602 O 61.57 2.62119 4.79537 0
M  V30 603 H 58.664 0.365095 0.742048 0
M  V30 604 H 61.21 1.34107 1.03987 0
M  V30 605 H 59.982 2.87756 2.65164 0
M  V30 606 H 59.605 1.50514 3.6801 0
M  V30 607 N 60.6021 -1.18246 1.0419 0
M  V30 608 C 61.5321 -2.24127 0.654914 0
M  V30 609 C 62.5131 -1.66617 -0.342451 0
M  V30 610 O 63.6981 -1.92924 -0.222277 0
M  V30 611 C 60.8281 -3.47295 0.0183757 0
M  V30 612 C 59.7821 -4.17563 0.939414 0
M  V30 613 C 59.1081 -5.34438 0.167286 0
M  V30 614 C 60.4081 -4.70917 2.25908 0
M  V30 615 H 62.1021 -2.56753 1.54007 0
M  V30 616 H 59.6481 -1.23414 0.74195 0
M  V30 617 H 61.6011 -4.20572 -0.264082 0
M  V30 618 H 60.3251 -3.13907 -0.901664 0
M  V30 619 H 58.9841 -3.46186 1.20628 0
M  V30 620 H 58.6321 -4.97298 -0.7552 0
M  V30 621 H 58.3321 -5.82388 0.780901 0
M  V30 622 H 59.8561 -6.10504 -0.108125 0
M  V30 623 H 61.2701 -5.35882 2.03724 0
M  V30 624 H 59.6671 -5.29406 2.82577 0
M  V30 625 H 60.7371 -3.88272 2.9047 0
M  V30 626 N 62.0802 -0.821533 -1.34494 0
M  V30 627 C 63.3282 -0.408139 -1.97936 0
M  V30 628 C 63.6492 1.03193 -1.65457 0
M  V30 629 O 62.9192 1.71622 -0.944595 0
M  V30 630 H 61.4992 -0.147928 -0.732206 0
M  V30 631 H 64.1612 -1.05067 -1.64155 0
M  V30 632 H 63.2572 -0.52601 -3.07635 0
M  V30 633 N 63.5583 1.46682 -0.576371 0
M  V30 634 C 64.7833 2.07304 -0.0630475 0
M  V30 635 C 65.2083 1.42329 1.2298 0
M  V30 636 O 64.5663 0.504865 1.74129 0
M  V30 637 C 64.6143 3.60472 0.095895 0
M  V30 638 O 63.7183 3.95927 1.15394 0
M  V30 639 H 63.0593 0.661288 -0.0599463 0
M  V30 640 H 65.5893 1.88417 -0.797511 0
M  V30 641 H 65.5993 4.06865 0.304071 0
M  V30 642 H 64.2743 4.07157 -0.84828 0
M  V30 643 H 62.8513 3.61252 0.924724 0
M  V30 644 N 65.0364 0.313813 1.54444 0
M  V30 645 C 66.2644 -0.293918 2.04802 0
M  V30 646 C 66.6794 -1.46537 1.19047 0
M  V30 647 O 66.0364 -1.81182 0.218939 0
M  V30 648 C 66.0874 -0.737806 3.53891 0
M  V30 649 O 65.8084 0.387038 4.36387 0
M  V30 650 C 67.3094 -1.40936 4.203 0
M  V30 651 H 64.5294 -0.0620057 0.668129 0
M  V30 652 H 67.0734 0.457169 1.99324 0
M  V30 653 H 65.2284 -1.43889 3.59687 0
M  V30 654 H 65.6424 0.0391274 5.24485 0
M  V30 655 H 67.1164 -1.67099 5.26101 0
M  V30 656 H 67.5934 -2.35355 3.70816 0
M  V30 657 H 68.1994 -0.751117 4.18615 0
M  V30 658 N 66.5145 -1.57545 0.0417849 0
M  V30 659 C 67.4245 -2.14451 -0.951213 0
M  V30 660 C 68.4405 -1.09992 -1.34825 0
M  V30 661 O 69.6165 -1.42114 -1.42708 0
M  V30 662 C 66.6815 -2.67063 -2.21084 0
M  V30 663 C 65.7425 -3.86284 -1.87304 0
M  V30 664 C 64.9755 -4.36378 -3.07261 0
M  V30 665 O 65.1985 -3.85587 -4.20332 0
M  V30 666 O 64.1325 -5.28077 -2.88822 0
M  V30 667 H 67.9585 -2.99601 -0.497287 0
M  V30 668 H 65.5435 -1.48317 -0.179567 0
M  V30 669 H 67.4255 -3.00914 -2.95006 0
M  V30 670 H 66.1005 -1.84989 -2.65633 0
M  V30 671 H 65.0075 -3.57338 -1.10727 0
M  V30 672 H 66.3405 -4.6956 -1.47562 0
M  V30 673 N 67.9926 0.231505 -1.5589 0
M  V30 674 C 69.2416 0.955346 -1.7764 0
M  V30 675 C 69.5546 1.85893 -0.608546 0
M  V30 676 O 70.7606 2.62067 -0.70943 0
M  V30 677 C 69.2166 1.74886 -3.14552 0
M  V30 678 C 68.8246 0.891915 -4.39032 0
M  V30 679 C 70.5686 2.46452 -3.45633 0
M  V30 680 C 68.4756 1.68221 -5.66971 0
M  V30 681 H 67.4056 0.360446 -0.662265 0
M  V30 682 H 70.0566 0.209516 -1.823 0
M  V30 683 H 68.4386 2.53723 -3.04041 0
M  V30 684 H 69.6126 0.144793 -4.60572 0
M  V30 685 H 67.9276 0.288863 -4.15397 0
M  V30 686 H 70.5246 3.06061 -4.38441 0
M  V30 687 H 70.8676 3.18841 -2.67668 0
M  V30 688 H 71.4006 1.74613 -3.57428 0
M  V30 689 H 68.1396 1.00178 -6.478 0
M  V30 690 H 67.6596 2.4042 -5.49507 0
M  V30 691 H 69.3386 2.24544 -6.06786 0
M  V30 692 N 69.4707 1.49531 0.497807 0
M  V30 693 C 70.6987 1.62893 1.27567 0
M  V30 694 C 71.1137 0.301585 1.86376 0
M  V30 695 O 70.4707 -0.713335 1.67982 0
M  V30 696 C 70.5217 2.70013 2.40364 0
M  V30 697 O 70.2427 3.976 1.83972 0
M  V30 698 C 71.7437 2.94109 3.31685 0
M  V30 699 H 68.9637 0.548298 0.386794 0
M  V30 700 H 71.5077 1.95584 0.597245 0
M  V30 701 H 69.6627 2.40092 3.04031 0
M  V30 702 H 70.0767 4.56631 2.58047 0
M  V30 703 H 71.5507 3.72788 4.07104 0
M  V30 704 H 72.0277 2.04147 3.88871 0
M  V30 705 H 72.6337 3.2546 2.73781 0
M  V30 706 N 70.9488 -0.749086 1.3866 0
M  V30 707 C 71.9118 -1.84457 1.36045 0
M  V30 708 C 72.9118 -1.58682 0.260122 0
M  V30 709 O 74.1018 -1.66343 0.517261 0
M  V30 710 C 71.2338 -3.22008 1.11911 0
M  V30 711 H 72.4268 -1.88182 2.33512 0
M  V30 712 H 69.9798 -0.951266 1.24019 0
M  V30 713 H 70.7148 -3.2395 0.150686 0
M  V30 714 H 70.4998 -3.42111 1.91579 0
M  V30 715 H 71.9898 -4.0208 1.12788 0
M  V30 716 N 72.4269 -1.23603 -0.977757 0
M  V30 717 C 73.6549 -1.09646 -1.75458 0
M  V30 718 C 74.0699 0.351859 -1.85492 0
M  V30 719 O 73.4269 1.24327 -1.336 0
M  V30 720 C 73.4779 -1.71895 -3.18016 0
M  V30 721 O 73.1989 -3.11063 -3.08498 0
M  V30 722 C 74.6999 -1.63415 -4.12081 0
M  V30 723 H 71.9199 -0.38359 -0.550545 0
M  V30 724 H 74.4639 -1.63507 -1.22824 0
M  V30 725 H 72.6189 -1.22061 -3.67668 0
M  V30 726 H 73.0329 -3.41305 -3.9826 0
M  V30 727 H 74.5069 -2.11669 -5.09804 0
M  V30 728 H 74.9839 -0.593462 -4.35172 0
M  V30 729 H 75.5899 -2.12628 -3.68334 0
M  V30 730 N 73.905 1.17692 -1.04816 0
M  V30 731 C 74.868 2.19787 -0.650117 0
M  V30 732 C 75.868 1.58044 0.296427 0
M  V30 733 O 77.058 1.74012 0.0808097 0
M  V30 734 C 74.19 3.40869 0.0456987 0
M  V30 735 H 75.383 2.56516 -1.5537 0
M  V30 736 H 72.936 1.31708 -0.841594 0
M  V30 737 H 73.671 3.09681 0.962726 0
M  V30 738 H 73.456 3.86928 -0.634727 0
M  V30 739 H 74.946 4.16445 0.310432 0
M  V30 740 N 75.3831 0.828654 1.34056 0
M  V30 741 C 76.6111 0.43262 2.02326 0
M  V30 742 C 77.0261 -0.963147 1.62385 0
M  V30 743 O 76.3831 -1.62425 0.832121 0
M  V30 744 C 76.4341 0.53182 3.57567 0
M  V30 745 O 76.1551 1.87258 3.96063 0
M  V30 746 C 77.6561 0.131422 4.43105 0
M  V30 747 H 74.8761 0.172923 0.648335 0
M  V30 748 H 77.4201 1.1184 1.71208 0
M  V30 749 H 75.5751 -0.105938 3.87255 0
M  V30 750 H 75.9891 1.85087 4.90758 0
M  V30 751 H 77.4631 0.251904 5.51425 0
M  V30 752 H 77.9401 -0.925645 4.29335 0
M  V30 753 H 78.5461 0.743207 4.18756 0
M  V30 754 N 76.8612 -1.46375 0.584142 0
M  V30 755 C 78.0892 -2.06761 0.0759296 0
M  V30 756 C 78.5042 -1.43266 -1.22965 0
M  V30 757 O 77.8612 -0.538458 -1.74376 0
M  V30 758 C 77.9122 -3.61375 -0.0950384 0
M  V30 759 O 77.6332 -4.22495 1.15887 0
M  V30 760 C 79.1342 -4.38693 -0.637434 0
M  V30 761 H 76.3542 -0.668479 0.0581075 0
M  V30 762 H 78.8982 -1.8798 0.805218 0
M  V30 763 H 77.0532 -3.79578 -0.774554 0
M  V30 764 H 77.4672 -5.15385 0.973598 0
M  V30 765 H 78.9412 -5.47464 -0.706237 0
M  V30 766 H 79.4182 -4.06836 -1.65472 0
M  V30 767 H 80.0242 -4.25299 0.00725967 0
M  V30 768 N 78.3393 -0.321999 -1.54275 0
M  V30 769 C 79.5643 0.285791 -2.05422 0
M  V30 770 C 79.9893 1.45124 -1.19669 0
M  V30 771 O 79.3473 1.80132 -0.205441 0
M  V30 772 C 79.3953 0.69956 -3.53749 0
M  V30 773 O 78.4993 1.8021 -3.70942 0
M  V30 774 H 77.8403 0.0518962 -0.661969 0
M  V30 775 H 80.3703 -0.469954 -1.9913 0
M  V30 776 H 80.3803 0.982649 -3.9599 0
M  V30 777 H 79.0553 -0.152864 -4.15619 0
M  V30 778 H 77.6323 1.51794 -3.40607 0
M  V30 779 N 79.8174 1.5752 -0.0501392 0
M  V30 780 C 80.7474 2.14502 0.922566 0
M  V30 781 C 81.7284 1.06642 1.3252 0
M  V30 782 O 82.9134 1.34577 1.4001 0
M  V30 783 C 80.0434 2.68916 2.19776 0
M  V30 784 C 78.9974 3.8175 1.93523 0
M  V30 785 C 78.3234 4.22677 3.27487 0
M  V30 786 C 79.6234 5.06932 1.25765 0
M  V30 787 H 81.3174 2.9603 0.447952 0
M  V30 788 H 78.8634 1.42401 0.214024 0
M  V30 789 H 80.8164 3.07419 2.88222 0
M  V30 790 H 79.5404 1.84578 2.69441 0
M  V30 791 H 78.1994 3.43718 1.27489 0
M  V30 792 H 77.8474 3.35291 3.74952 0
M  V30 793 H 77.5474 4.98725 3.1072 0
M  V30 794 H 79.0714 4.63779 3.97166 0
M  V30 795 H 80.4854 5.42888 1.84244 0
M  V30 796 H 78.8824 5.88116 1.19328 0
M  V30 797 H 79.9524 4.84337 0.233536 0
M  V30 798 N 81.2955 -0.223234 1.56011 0
M  V30 799 C 82.7065 -0.790368 1.69145 0
M  V30 800 C 83.0575 -1.85055 0.651845 0
M  V30 801 O 82.1825 -2.15498 -0.197359 0
M  V30 802 C 82.7775 -1.4404 3.06656 0
M  V30 803 C 81.3365 -1.95494 3.2165 0
M  V30 804 C 80.4835 -0.814506 2.65068 0
M  V30 805 H 83.4345 0.00139011 1.587 0
M  V30 806 H 83.4555 -2.30916 3.0242 0
M  V30 807 H 82.9675 -0.668543 3.82298 0
M  V30 808 H 81.0685 -2.75487 2.50874 0
M  V30 809 H 81.1815 -2.13607 4.28846 0
M  V30 810 H 79.5455 -1.22137 2.23505 0
M  V30 811 H 80.3285 -0.0553515 3.43255 0
M  V30 812 N 82.7736 -1.49793 -0.48987 0
M  V30 813 C 83.9986 -1.63836 -1.27172 0
M  V30 814 C 84.4236 -0.31402 -1.8546 0
M  V30 815 O 83.7816 0.719803 -1.66399 0
M  V30 816 C 83.8296 -2.71797 -2.36978 0
M  V30 817 O 82.9336 -2.31744 -3.41128 0
M  V30 818 H 82.2746 -0.547997 -0.37496 0
M  V30 819 H 84.8046 -1.96053 -0.585191 0
M  V30 820 H 84.8146 -2.94305 -2.82575 0
M  V30 821 H 83.4896 -3.67923 -1.93921 0
M  V30 822 H 82.0666 -2.1961 -3.01373 0
M  V30 823 N 84.2517 0.741722 -1.39055 0
M  V30 824 C 85.5007 1.49656 -1.35225 0
M  V30 825 C 85.8137 1.95533 0.0512708 0
M  V30 826 O 87.0197 2.7067 0.212138 0
M  V30 827 C 85.4757 2.70389 -2.37525 0
M  V30 828 C 85.0837 2.31489 -3.83558 0
M  V30 829 C 86.8277 3.48236 -2.42759 0
M  V30 830 C 84.7347 3.48903 -4.77515 0
M  V30 831 H 83.6647 0.56197 -0.502699 0
M  V30 832 H 86.3157 0.809727 -1.64668 0
M  V30 833 H 84.6977 3.41113 -2.01142 0
M  V30 834 H 85.8717 1.68354 -4.28945 0
M  V30 835 H 84.1867 1.66749 -3.81554 0
M  V30 836 H 86.7837 4.35558 -3.1015 0
M  V30 837 H 87.1267 3.90229 -1.45008 0
M  V30 838 H 87.6597 2.84535 -2.78002 0
M  V30 839 H 84.3987 3.11966 -5.76504 0
M  V30 840 H 83.9187 4.11041 -4.36813 0
M  V30 841 H 85.5977 4.15328 -4.96096 0
M  V30 842 N 85.7298 1.2412 0.971189 0
M  V30 843 C 86.9548 1.10667 1.75407 0
M  V30 844 C 87.3798 -0.337048 1.85056 0
M  V30 845 O 86.7378 -1.24396 1.31892 0
M  V30 846 C 86.7858 1.74726 3.15441 0
M  V30 847 O 85.8898 1.01566 3.99697 0
M  V30 848 H 85.2308 0.387341 0.539317 0
M  V30 849 H 87.7608 1.64358 1.2185 0
M  V30 850 H 87.7708 1.80341 3.6598 0
M  V30 851 H 86.4458 2.79773 3.07734 0
M  V30 852 H 85.0228 1.03713 3.58187 0
M  V30 853 N 87.2079 -1.17134 1.05439 0
M  V30 854 C 88.4359 -1.91372 0.786414 0
M  V30 855 C 88.8509 -1.76955 -0.658202 0
M  V30 856 O 88.2079 -1.10838 -1.44987 0
M  V30 857 C 88.2589 -3.42356 1.1608 0
M  V30 858 O 87.9799 -3.56332 2.54871 0
M  V30 859 C 89.4809 -4.33663 0.919322 0
M  V30 860 H 86.7009 -0.607118 0.285743 0
M  V30 861 H 89.2449 -1.48525 1.40572 0
M  V30 862 H 87.3999 -3.82939 0.586191 0
M  V30 863 H 87.8139 -4.49896 2.69618 0
M  V30 864 H 89.2879 -5.38099 1.231 0
M  V30 865 H 89.7649 -4.38959 -0.145359 0
M  V30 866 H 90.3709 -3.98796 1.47789 0
M  V30 867 N 88.686 -0.835752 -1.33615 0
M  V30 868 C 89.933 -0.429959 -1.97883 0
M  V30 869 C 90.261 1.01006 -1.66217 0
M  V30 870 O 89.516 1.72047 -0.93265 0
M  V30 871 C 89.815 -0.593925 -3.52431 0
M  V30 872 C 89.481 -2.00158 -4.04039 0
M  V30 873 C 88.143 -2.38662 -4.17844 0
M  V30 874 C 90.495 -2.92117 -4.31644 0
M  V30 875 C 87.823 -3.68435 -4.56588 0
M  V30 876 C 90.175 -4.21368 -4.71838 0
M  V30 877 C 88.839 -4.59833 -4.83849 0
M  V30 878 H 88.109 -0.157333 -0.724104 0
M  V30 879 H 90.756 -1.06217 -1.59343 0
M  V30 880 H 89.061 0.121619 -3.91611 0
M  V30 881 H 90.758 -0.260282 -4.00154 0
M  V30 882 H 87.348 -1.69252 -3.93766 0
M  V30 883 H 91.532 -2.63608 -4.20505 0
M  V30 884 H 86.788 -3.98046 -4.64079 0
M  V30 885 H 90.962 -4.92703 -4.92155 0
M  V30 886 H 88.589 -5.60438 -5.13627 0
M  V30 887 N 90.1641 1.46063 -0.591896 0
M  V30 888 C 91.4101 2.02638 -0.0811191 0
M  V30 889 C 91.7431 1.4613 1.27905 0
M  V30 890 O 91.0181 0.629908 1.84017 0
M  V30 891 C 91.3011 3.60091 -0.0252436 0
M  V30 892 C 91.1541 4.26965 -1.41496 0
M  V30 893 C 92.4731 4.3496 0.670685 0
M  V30 894 H 89.5921 0.73635 -0.0309524 0
M  V30 895 H 92.2341 1.741 -0.760859 0
M  V30 896 H 90.3841 3.84535 0.553624 0
M  V30 897 H 92.0561 4.13756 -2.0397 0
M  V30 898 H 90.2991 3.85971 -1.98011 0
M  V30 899 H 90.9701 5.35781 -1.32825 0
M  V30 900 H 93.4461 4.15716 0.178825 0
M  V30 901 H 92.3221 5.44686 0.678837 0
M  V30 902 H 92.5831 4.06685 1.73379 0
M  V30 903 N 91.6422 0.330177 1.54103 0
M  V30 904 C 92.5522 -0.541534 2.28264 0
M  V30 905 C 93.5682 -1.12351 1.32866 0
M  V30 906 O 94.7442 -1.14206 1.65888 0
M  V30 907 C 91.8092 -1.68322 3.03098 0
M  V30 908 C 90.8702 -1.13238 4.14096 0
M  V30 909 C 90.1032 -2.21966 4.85352 0
M  V30 910 O 90.3262 -3.42437 4.56172 0
M  V30 911 O 89.2602 -1.87013 5.7211 0
M  V30 912 H 93.0862 0.060938 3.03639 0
M  V30 913 H 90.6712 0.09565 1.49093 0
M  V30 914 H 92.5532 -2.34777 3.49939 0
M  V30 915 H 91.2282 -2.27176 2.30593 0
M  V30 916 H 90.1352 -0.432736 3.71589 0
M  V30 917 H 91.4682 -0.588898 4.88664 0
M  V30 918 N 93.1203 -1.57491 0.0584922 0
M  V30 919 C 94.3683 -1.92597 -0.612436 0
M  V30 920 C 94.6893 -0.938162 -1.70949 0
M  V30 921 O 93.9593 0.0158301 -1.95894 0
M  V30 922 H 92.5393 -0.710964 -0.229214 0
M  V30 923 H 95.2013 -1.94571 0.113218 0
M  V30 924 H 94.2973 -2.94038 -1.04633 0
M  V30 925 N 94.5984 0.214957 -1.56127 0
M  V30 926 C 95.8284 0.953707 -1.8327 0
M  V30 927 C 96.2364 1.78181 -0.636262 0
M  V30 928 O 95.5794 1.79191 0.404516 0
M  V30 929 C 95.6414 1.91516 -3.0424 0
M  V30 930 C 95.3054 1.27094 -4.38972 0
M  V30 931 C 96.3024 0.657575 -5.15725 0
M  V30 932 C 93.9874 1.28073 -4.85698 0
M  V30 933 C 95.9814 0.0625968 -6.37369 0
M  V30 934 C 93.6684 0.681914 -6.07283 0
M  V30 935 C 94.6664 0.0739046 -6.8296 0
M  V30 936 O 94.3544 -0.515582 -8.02245 0
M  V30 937 H 94.0864 0.284764 -0.613095 0
M  V30 938 H 96.6404 0.233283 -2.04071 0
M  V30 939 H 94.8704 2.67475 -2.79274 0
M  V30 940 H 96.5594 2.52001 -3.18198 0
M  V30 941 H 97.3254 0.642288 -4.80728 0
M  V30 942 H 93.2044 1.74337 -4.26764 0
M  V30 943 H 96.7484 -0.412593 -6.96379 0
M  V30 944 H 92.6454 0.694636 -6.41752 0
M  V30 945 H 93.4134 -0.410544 -8.1747 0
M  V30 946 N 96.0765 1.50051 0.48192 0
M  V30 947 C 97.3015 1.64508 1.26301 0
M  V30 948 C 97.7265 0.323851 1.85291 0
M  V30 949 O 97.0845 -0.710969 1.66778 0
M  V30 950 C 97.1325 2.7305 2.35533 0
M  V30 951 O 96.2365 2.3355 3.39895 0
M  V30 952 H 95.5775 0.549978 0.372048 0
M  V30 953 H 98.1075 1.9636 0.574786 0
M  V30 954 H 98.1175 2.95799 2.8101 0
M  V30 955 H 96.7925 3.68946 1.91967 0
M  V30 956 H 95.3695 2.21205 3.00204 0
M  V30 957 N 97.5546 -0.734337 1.39446 0
M  V30 958 C 98.7796 -1.52866 1.40167 0
M  V30 959 C 99.2046 -1.881 -0.00171513 0
M  V30 960 O 98.5626 -1.51957 -0.988879 0
M  V30 961 C 98.6106 -2.79235 2.28167 0
M  V30 962 O 97.7146 -3.75185 1.71201 0
M  V30 963 H 97.0556 -0.461618 0.477289 0
M  V30 964 H 99.5856 -0.905949 1.8345 0
M  V30 965 H 99.5956 -3.27963 2.42702 0
M  V30 966 H 98.2706 -2.52923 3.30156 0
M  V30 967 H 96.8476 -3.33958 1.65912 0
M  V30 968 N 99.0327 -1.24633 -0.964593 0
M  V30 969 C 99.9807 -1.03917 -2.08096 0
M  V30 970 C 100.975 0.0268581 -1.69379 0
M  V30 971 O 102.181 -0.127952 -1.79545 0
M  V30 972 H 98.5557 -0.319044 -0.680966 0
M  V30 973 H 100.527 -1.98581 -2.22729 0
M  V30 974 C 99.2757 -0.663983 -3.41301 0
M  V30 975 H 98.5987 -1.47605 -3.71555 0
M  V30 976 H 100.039 -0.558663 -4.20303 0
M  V30 977 C 98.4977 0.629169 -3.30973 0
M  V30 978 O 99.0277 1.67404 -3.65156 0
M  V30 979 N 97.2337 0.611057 -2.84103 0
M  V30 980 H 96.7807 -0.239593 -2.56483 0
M  V30 981 H 96.7387 1.47647 -2.77575 0
M  V30 982 N 100.511 1.16574 -1.06058 0
M  V30 983 C 101.741 1.90675 -0.795397 0
M  V30 984 C 102.149 1.77547 0.653735 0
M  V30 985 O 101.492 1.11611 1.45907 0
M  V30 986 C 101.554 3.42011 -1.10764 0
M  V30 987 C 101.218 3.78924 -2.55471 0
M  V30 988 C 102.215 3.81042 -3.53699 0
M  V30 989 C 99.8998 4.09626 -2.90708 0
M  V30 990 C 101.894 4.13346 -4.85205 0
M  V30 991 C 99.5808 4.41597 -4.22416 0
M  V30 992 C 100.579 4.43436 -5.19474 0
M  V30 993 O 100.267 4.74649 -6.48817 0
M  V30 994 H 99.9988 0.611554 -0.288058 0
M  V30 995 H 102.553 1.48711 -1.41683 0
M  V30 996 H 100.783 3.84312 -0.429128 0
M  V30 997 H 102.472 3.97384 -0.827077 0
M  V30 998 H 103.238 3.57437 -3.27817 0
M  V30 999 H 99.1168 4.07361 -2.15819 0
M  V30 1000 H 102.661 4.14696 -5.60957 0
M  V30 1001 H 98.5578 4.64667 -4.48056 0
M  V30 1002 H 99.3258 4.9247 -6.5377 0
M  V30 1003 N 101.989 0.842826 1.3317 0
M  V30 1004 C 102.899 0.281444 2.32906 0
M  V30 1005 C 103.915 -0.594587 1.63526 0
M  V30 1006 O 105.091 -0.49777 1.95152 0
M  V30 1007 C 102.156 -0.530929 3.42611 0
M  V30 1008 C 101.217 0.369843 4.27704 0
M  V30 1009 C 100.45 -0.403853 5.3217 0
M  V30 1010 O 100.673 -1.63513 5.46461 0
M  V30 1011 O 99.6069 0.224199 6.01482 0
M  V30 1012 H 103.433 1.10744 2.82789 0
M  V30 1013 H 101.018 0.60545 1.36582 0
M  V30 1014 H 102.9 -0.992437 4.09547 0
M  V30 1015 H 101.575 -1.33392 2.94938 0
M  V30 1016 H 100.482 0.879275 3.6362 0
M  V30 1017 H 101.815 1.13771 4.78871 0
M  V30 1018 N 103.467 -1.45747 0.599634 0
M  V30 1019 C 104.397 -2.33235 -0.111306 0
M  V30 1020 C 105.378 -1.46359 -0.866781 0
M  V30 1021 O 106.563 -1.75146 -0.838904 0
M  V30 1022 C 103.693 -3.28932 -1.11451 0
M  V30 1023 C 102.647 -4.25381 -0.472772 0
M  V30 1024 C 101.973 -5.1071 -1.58365 0
M  V30 1025 C 103.273 -5.18831 0.600948 0
M  V30 1026 H 104.967 -2.92927 0.61919 0
M  V30 1027 H 102.513 -1.40857 0.299215 0
M  V30 1028 H 104.466 -3.89002 -1.62036 0
M  V30 1029 H 103.19 -2.67381 -1.8755 0
M  V30 1030 H 101.849 -3.66598 0.0121472 0
M  V30 1031 H 101.497 -4.45533 -2.33473 0
M  V30 1032 H 101.197 -5.7604 -1.15982 0
M  V30 1033 H 102.721 -5.73647 -2.09194 0
M  V30 1034 H 104.135 -5.73019 0.179491 0
M  V30 1035 H 102.532 -5.92595 0.946076 0
M  V30 1036 H 103.602 -4.6174 1.48068 0
M  V30 1037 N 104.945 -0.338344 -1.53925 0
M  V30 1038 C 105.892 0.520845 -2.24846 0
M  V30 1039 C 106.862 1.09976 -1.24477 0
M  V30 1040 O 108.047 1.13735 -1.53196 0
M  V30 1041 C 105.187 1.6685 -3.02084 0
M  V30 1042 C 104.3 1.11739 -4.17299 0
M  V30 1043 C 103.435 2.23193 -4.82036 0
M  V30 1044 C 102.474 1.65407 -5.89328 0
M  V30 1045 N 101.611 2.70582 -6.47866 0
M  V30 1046 H 106.451 -0.0904881 -2.97863 0
M  V30 1047 H 103.988 -0.0564282 -1.46992 0
M  V30 1048 H 105.946 2.34407 -3.45122 0
M  V30 1049 H 104.576 2.2509 -2.31375 0
M  V30 1050 H 103.628 0.332919 -3.7894 0
M  V30 1051 H 104.94 0.654677 -4.94485 0
M  V30 1052 H 104.094 2.98626 -5.28117 0
M  V30 1053 H 102.833 2.72807 -4.04262 0
M  V30 1054 H 101.838 0.884779 -5.42634 0
M  V30 1055 H 103.063 1.16652 -6.69006 0
M  V30 1056 H 101.009 3.1946 -5.72959 0
M  V30 1057 H 100.926 2.28917 -7.20509 0
M  V30 1058 H 102.194 3.45799 -6.98601 0
M  V30 1059 N 106.423 1.57458 -0.0668435 0
M  V30 1060 C 107.834 1.80776 0.466558 0
M  V30 1061 C 108.185 0.980361 1.69951 0
M  V30 1062 O 107.31 0.201441 2.1546 0
M  V30 1063 C 107.905 3.27881 0.85321 0
M  V30 1064 C 106.464 3.52062 1.3315 0
M  V30 1065 C 105.611 2.75513 0.314264 0
M  V30 1066 H 108.562 1.5598 -0.292588 0
M  V30 1067 H 108.583 3.39659 1.715 0
M  V30 1068 H 108.095 3.88075 -0.0443439 0
M  V30 1069 H 106.196 2.97167 2.24772 0
M  V30 1070 H 106.309 4.60762 1.31285 0
M  V30 1071 H 104.673 2.42123 0.790492 0
M  V30 1072 H 105.456 3.38442 -0.575477 0
M  V30 1073 N 107.901 -0.206675 1.56239 0
M  V30 1074 C 109.126 -0.949474 1.8439 0
M  V30 1075 C 109.551 -1.76549 0.649016 0
M  V30 1076 O 108.909 -1.76782 -0.402231 0
M  V30 1077 C 108.957 -1.83078 3.10668 0
M  V30 1078 O 108.061 -2.9281 2.90407 0
M  V30 1079 H 107.402 -0.268033 0.607499 0
M  V30 1080 H 109.932 -0.215488 2.03462 0
M  V30 1081 H 109.942 -2.2377 3.41161 0
M  V30 1082 H 108.617 -1.23112 3.97261 0
M  V30 1083 H 107.194 -2.55956 2.71184 0
M  V30 1084 N 109.379 -1.50304 -0.473955 0
M  V30 1085 C 110.619 -1.62786 -1.23612 0
M  V30 1086 C 110.983 -0.319786 -1.89318 0
M  V30 1087 O 112.184 -0.320012 -2.66888 0
M  V30 1088 C 110.455 -2.77351 -2.25414 0
M  V30 1089 S 112.014 -3.09948 -3.10608 0
M  V30 1090 H 108.832 -0.573895 -0.419721 0
M  V30 1091 H 111.434 -1.88076 -0.533623 0
M  V30 1092 H 110.138 -3.70879 -1.75719 0
M  V30 1093 H 109.669 -2.54137 -3.00296 0
M  V30 1094 H 111.684 -2.53553 -4.26527 0
M  V30 1095 N 110.857 0.726932 -1.39834 0
M  V30 1096 C 112.103 1.48884 -1.377 0
M  V30 1097 C 112.436 1.94185 0.0244852 0
M  V30 1098 O 111.711 1.67361 0.990986 0
M  V30 1099 C 111.994 2.72288 -2.3565 0
M  V30 1100 C 111.847 2.32956 -3.84775 0
M  V30 1101 C 113.166 3.74414 -2.31306 0
M  V30 1102 H 110.285 0.540062 -0.5015 0
M  V30 1103 H 112.927 0.830547 -1.70886 0
M  V30 1104 H 111.077 3.28457 -2.07481 0
M  V30 1105 H 112.749 1.82356 -4.23726 0
M  V30 1106 H 110.992 1.65088 -4.01159 0
M  V30 1107 H 111.663 3.21362 -4.4881 0
M  V30 1108 H 114.139 3.27849 -2.56231 0
M  V30 1109 H 113.015 4.58414 -3.01907 0
M  V30 1110 H 113.276 4.21909 -1.32081 0
M  V30 1111 N 112.336 1.25143 0.95797 0
M  V30 1112 C 113.566 1.12261 1.73439 0
M  V30 1113 C 113.974 -0.326715 1.86358 0
M  V30 1114 O 113.317 -1.2367 1.35836 0
M  V30 1115 C 113.379 1.69966 3.16784 0
M  V30 1116 C 113.043 3.18936 3.27305 0
M  V30 1117 C 114.04 4.15968 3.11877 0
M  V30 1118 C 111.725 3.59083 3.51234 0
M  V30 1119 C 113.719 5.51126 3.20217 0
M  V30 1120 C 111.406 4.9438 3.5921 0
M  V30 1121 C 112.404 5.90211 3.43716 0
M  V30 1122 O 112.092 7.23046 3.51368 0
M  V30 1123 H 111.824 0.392476 0.550399 0
M  V30 1124 H 114.378 1.65927 1.21068 0
M  V30 1125 H 112.608 1.10744 3.70503 0
M  V30 1126 H 114.297 1.52232 3.76272 0
M  V30 1127 H 115.063 3.86292 2.93264 0
M  V30 1128 H 110.942 2.84989 3.62356 0
M  V30 1129 H 114.486 6.25905 3.0804 0
M  V30 1130 H 110.383 5.23723 3.77339 0
M  V30 1131 H 111.151 7.31097 3.6802 0
M  V30 1132 N 113.814 -1.1601 1.06675 0
M  V30 1133 C 114.746 -2.20115 0.638921 0
M  V30 1134 C 115.759 -1.59916 -0.305057 0
M  V30 1135 O 116.948 -1.78245 -0.0954446 0
M  V30 1136 C 114.048 -3.38798 -0.0830083 0
M  V30 1137 C 113.221 -4.2855 0.875426 0
M  V30 1138 C 112.28 -5.25849 0.192042 0
M  V30 1139 O 111.306 -5.63102 0.830921 0
M  V30 1140 N 112.508 -5.70648 -1.06493 0
M  V30 1141 H 115.273 -2.57439 1.53444 0
M  V30 1142 H 112.834 -1.31057 0.950557 0
M  V30 1143 H 114.826 -4.00936 -0.550685 0
M  V30 1144 H 113.396 -2.99947 -0.880386 0
M  V30 1145 H 112.616 -3.63617 1.52238 0
M  V30 1146 H 113.904 -4.85393 1.52548 0
M  V30 1147 H 113.302 -5.42482 -1.60405 0
M  V30 1148 H 111.859 -6.34859 -1.47641 0
M  V30 1149 N 115.292 -0.849877 -1.32721 0
M  V30 1150 C 116.225 -0.235903 -2.26977 0
M  V30 1151 C 117.203 0.623355 -1.50177 0
M  V30 1152 O 118.387 0.581207 -1.79316 0
M  V30 1153 C 115.514 0.667712 -3.32053 0
M  V30 1154 C 114.56 -0.11753 -4.26338 0
M  V30 1155 S 115.393 -1.48277 -5.14562 0
M  V30 1156 C 116.549 -0.584741 -6.23163 0
M  V30 1157 H 116.782 -1.03495 -2.78704 0
M  V30 1158 H 114.315 -0.64724 -1.40179 0
M  V30 1159 H 116.273 1.18343 -3.93072 0
M  V30 1160 H 114.934 1.44052 -2.7912 0
M  V30 1161 H 114.127 0.57051 -5.00761 0
M  V30 1162 H 113.729 -0.564668 -3.69713 0
M  V30 1163 H 116.021 0.212968 -6.77165 0
M  V30 1164 H 116.964 -1.29947 -6.96074 0
M  V30 1165 H 117.372 -0.161202 -5.6427 0
M  V30 1166 N 116.77 1.45427 -0.607355 0
M  V30 1167 C 117.702 2.2871 0.149752 0
M  V30 1168 C 118.715 1.39937 0.831958 0
M  V30 1169 O 119.904 1.64313 0.697385 0
M  V30 1170 C 117.004 3.15673 1.23304 0
M  V30 1171 C 116.177 4.32722 0.637996 0
M  V30 1172 C 115.236 5.00895 1.61215 0
M  V30 1173 O 114.262 5.57697 1.13854 0
M  V30 1174 N 115.464 5.00159 2.94655 0
M  V30 1175 H 118.229 2.94328 -0.564882 0
M  V30 1176 H 115.79 1.55612 -0.446823 0
M  V30 1177 H 117.782 3.58144 1.88454 0
M  V30 1178 H 116.352 2.51965 1.8502 0
M  V30 1179 H 115.572 3.93734 -0.191572 0
M  V30 1180 H 116.86 5.08321 0.220665 0
M  V30 1181 H 116.258 4.553 3.35735 0
M  V30 1182 H 114.815 5.46495 3.55228 0
M  V30 1183 N 118.248 0.346503 1.53744 0
M  V30 1184 C 119.664 -0.00530975 1.59599 0
M  V30 1185 C 119.864 -1.48465 1.36236 0
M  V30 1186 O 118.92 -2.24376 1.15808 0
M  V30 1187 C 120.233 0.433516 2.97559 0
M  V30 1188 C 121.781 0.386111 3.10609 0
M  V30 1189 C 122.256 0.800451 4.50951 0
M  V30 1190 N 123.747 0.754753 4.5701 0
M  V30 1191 C 124.482 1.04727 5.63755 0
M  V30 1192 N 123.978 1.4081 6.7834 0
M  V30 1193 N 125.771 0.971316 5.53644 0
M  V30 1194 H 117.922 1.31009 1.67184 0
M  V30 1195 H 120.185 0.534242 0.783128 0
M  V30 1196 H 119.891 1.46509 3.19731 0
M  V30 1197 H 119.765 -0.189753 3.76722 0
M  V30 1198 H 122.152 -0.636295 2.88158 0
M  V30 1199 H 122.233 1.04462 2.33498 0
M  V30 1200 H 121.877 1.82088 4.74137 0
M  V30 1201 H 121.807 0.119386 5.26465 0
M  V30 1202 H 124.298 0.488662 3.74727 0
M  V30 1203 H 124.611 1.61607 7.55714 0
M  V30 1204 H 122.956 1.44657 6.79779 0
M  V30 1205 H 126.147 0.688748 4.63005 0
M  V30 1206 H 126.32 1.20263 6.36742 0
M  V30 1207 N 119.726 -1.57421 0.075193 0
M  V30 1208 C 121.137 -1.81021 -0.456964 0
M  V30 1209 C 121.488 -0.98936 -1.69429 0
M  V30 1210 O 120.613 -0.212865 -2.15351 0
M  V30 1211 C 121.208 -3.28329 -0.83581 0
M  V30 1212 C 119.767 -3.52764 -1.31281 0
M  V30 1213 C 118.914 -2.75676 -0.299648 0
M  V30 1214 H 121.865 -1.55822 0.300856 0
M  V30 1215 H 121.886 -3.40564 -1.69696 0
M  V30 1216 H 121.398 -3.88046 0.0649238 0
M  V30 1217 H 119.499 -2.98355 -2.23193 0
M  V30 1218 H 119.612 -4.61451 -1.28839 0
M  V30 1219 H 117.976 -2.42538 -0.777641 0
M  V30 1220 H 118.759 -3.38132 0.593417 0
M  V30 1221 N 121.204 0.198386 -1.56346 0
M  V30 1222 C 122.134 1.24865 -1.9731 0
M  V30 1223 C 123.115 1.47651 -0.844576 0
M  V30 1224 O 124.3 1.59444 -1.10866 0
M  V30 1225 C 121.43 2.59358 -2.30977 0
M  V30 1226 C 120.384 2.5119 -3.46537 0
M  V30 1227 C 119.71 3.89926 -3.65871 0
M  V30 1228 C 121.01 2.03977 -4.80823 0
M  V30 1229 H 122.704 0.908252 -2.85291 0
M  V30 1230 H 120.25 0.435462 -1.37258 0
M  V30 1231 H 122.203 3.33011 -2.58228 0
M  V30 1232 H 120.927 2.95132 -1.39874 0
M  V30 1233 H 119.586 1.79993 -3.19371 0
M  V30 1234 H 119.234 4.23046 -2.72105 0
M  V30 1235 H 118.934 3.85336 -4.4361 0
M  V30 1236 H 120.458 4.65205 -3.95495 0
M  V30 1237 H 121.872 2.67386 -5.07127 0
M  V30 1238 H 120.269 2.10397 -5.62008 0
M  V30 1239 H 121.339 0.992861 -4.74626 0
M  V30 1240 N 122.682 1.50554 0.465978 0
M  V30 1241 C 123.931 1.61038 1.21448 0
M  V30 1242 C 124.244 0.31865 1.92987 0
M  V30 1243 O 125.45 0.302469 2.6981 0
M  V30 1244 C 123.906 2.84283 2.20706 0
M  V30 1245 C 123.514 4.20352 1.54946 0
M  V30 1246 C 125.258 3.04115 2.96166 0
M  V30 1247 C 123.165 5.34778 2.5252 0
M  V30 1248 H 122.095 0.599718 0.457005 0
M  V30 1249 H 124.746 1.7699 0.484424 0
M  V30 1250 H 123.128 2.61901 2.97025 0
M  V30 1251 H 124.302 4.53008 0.843811 0
M  V30 1252 H 122.617 4.06167 0.917475 0
M  V30 1253 H 125.214 3.86774 3.69202 0
M  V30 1254 H 125.557 2.16045 3.55852 0
M  V30 1255 H 126.09 3.26702 2.26959 0
M  V30 1256 H 122.829 6.25018 1.97566 0
M  V30 1257 H 122.349 5.06534 3.21222 0
M  V30 1258 H 124.028 5.65561 3.14245 0
M  V30 1259 N 124.16 -0.719506 1.40217 0
M  V30 1260 C 125.107 -1.83359 1.40172 0
M  V30 1261 C 126.077 -1.64065 0.259206 0
M  V30 1262 O 127.262 -1.85254 0.456677 0
M  V30 1263 C 124.402 -3.2103 1.26624 0
M  V30 1264 C 123.515 -3.51923 2.50548 0
M  V30 1265 C 122.65 -4.79079 2.29471 0
M  V30 1266 C 121.689 -5.02863 3.48992 0
M  V30 1267 N 120.826 -6.2123 3.27135 0
M  V30 1268 H 125.666 -1.82733 2.35399 0
M  V30 1269 H 123.203 -0.892688 1.16917 0
M  V30 1270 H 125.161 -4.00524 1.16776 0
M  V30 1271 H 123.791 -3.20895 0.350176 0
M  V30 1272 H 122.843 -2.67014 2.70939 0
M  V30 1273 H 124.155 -3.6541 3.39525 0
M  V30 1274 H 123.309 -5.66582 2.16955 0
M  V30 1275 H 122.048 -4.67794 1.37913 0
M  V30 1276 H 121.053 -4.13816 3.6199 0
M  V30 1277 H 122.278 -5.16023 4.41472 0
M  V30 1278 H 120.224 -6.11204 2.38256 0
M  V30 1279 H 120.141 -6.35375 4.09675 0
M  V30 1280 H 121.409 -7.11532 3.18344 0
M  V30 1281 N 125.638 -1.25649 -0.95132 0
M  V30 1282 C 126.884 -1.10757 -1.69884 0
M  V30 1283 C 127.217 0.350061 -1.91019 0
M  V30 1284 O 126.492 1.25783 -1.48354 0
M  V30 1285 C 126.775 -1.86606 -3.07978 0
M  V30 1286 C 126.628 -3.40217 -2.94232 0
M  V30 1287 C 127.947 -1.65182 -4.07925 0
M  V30 1288 H 125.066 -0.40374 -0.616574 0
M  V30 1289 H 127.708 -1.54521 -1.10558 0
M  V30 1290 H 125.858 -1.49409 -3.58621 0
M  V30 1291 H 127.53 -3.87108 -2.50889 0
M  V30 1292 H 125.773 -3.67759 -2.30078 0
M  V30 1293 H 126.444 -3.88505 -3.92133 0
M  V30 1294 H 128.92 -1.9757 -3.66204 0
M  V30 1295 H 127.796 -2.20683 -5.02583 0
M  V30 1296 H 128.057 -0.593933 -4.38092 0
M  V30 1297 N 127.117 1.15442 -1.07289 0
M  V30 1298 C 128.027 2.23786 -0.704057 0
M  V30 1299 C 129.043 1.7166 0.284413 0
M  V30 1300 O 130.219 2.00972 0.131205 0
M  V30 1301 C 127.284 3.46535 -0.106792 0
M  V30 1302 C 126.345 4.13654 -1.14842 0
M  V30 1303 C 125.578 5.30544 -0.57956 0
M  V30 1304 O 125.801 5.67187 0.604585 0
M  V30 1305 O 124.735 5.87154 -1.32414 0
M  V30 1306 H 128.561 2.57664 -1.60757 0
M  V30 1307 H 126.146 1.23152 -0.845803 0
M  V30 1308 H 128.028 4.20804 0.224048 0
M  V30 1309 H 126.703 3.14407 0.770049 0
M  V30 1310 H 125.61 3.4131 -1.5316 0
M  V30 1311 H 126.943 4.49861 -1.99714 0
M  V30 1312 N 128.595 0.856903 1.32268 0
M  V30 1313 C 129.505 0.306131 2.32594 0
M  V30 1314 C 130.521 -0.577209 1.64147 0
M  V30 1315 O 131.697 -0.477043 1.95669 0
M  V30 1316 C 128.762 -0.494561 3.43154 0
M  V30 1317 C 127.823 0.415186 4.27288 0
M  V30 1318 C 127.056 -0.347387 5.32568 0
M  V30 1319 O 127.279 -1.57708 5.48165 0
M  V30 1320 O 126.213 0.287982 6.01211 0
M  V30 1321 H 130.039 1.13737 2.81598 0
M  V30 1322 H 127.624 0.619902 1.35932 0
M  V30 1323 H 129.506 -0.948944 4.10576 0
M  V30 1324 H 128.181 -1.30257 2.96336 0
M  V30 1325 H 127.088 0.917793 3.62667 0
M  V30 1326 H 128.421 1.18844 4.77637 0
M  V30 1327 N 130.073 -1.45103 0.615059 0
M  V30 1328 C 131.321 -2.01784 0.112955 0
M  V30 1329 C 131.642 -1.48504 -1.26378 0
M  V30 1330 O 130.912 -0.682245 -1.83636 0
M  V30 1331 H 129.492 -0.745993 0.0387668 0
M  V30 1332 H 132.154 -1.77808 0.798141 0
M  V30 1333 H 131.25 -3.12025 0.0684069 0
M  V30 1334 N 131.551 -0.354651 -1.53558 0
M  V30 1335 C 132.967 -0.00315426 -1.596 0
M  V30 1336 C 133.167 1.47741 -1.37021 0
M  V30 1337 O 132.223 2.23759 -1.16996 0
M  V30 1338 C 133.536 -0.44929 -2.97325 0
M  V30 1339 C 135.084 -0.402578 -3.104 0
M  V30 1340 C 135.559 -0.824355 -4.5052 0
M  V30 1341 N 137.05 -0.778979 -4.56603 0
M  V30 1342 C 137.785 -1.07715 -5.63192 0
M  V30 1343 N 137.281 -1.44405 -6.77583 0
M  V30 1344 N 139.074 -1.00066 -5.53121 0
M  V30 1345 H 131.225 -1.31893 -1.66487 0
M  V30 1346 H 133.488 -0.538388 -0.780284 0
M  V30 1347 H 133.194 -1.48202 -3.1895 0
M  V30 1348 H 133.068 0.169772 -3.76818 0
M  V30 1349 H 135.455 0.621004 -2.88492 0
M  V30 1350 H 135.536 -1.05699 -2.32941 0
M  V30 1351 H 135.18 -1.846 -4.73165 0
M  V30 1352 H 135.11 -0.147304 -5.26394 0
M  V30 1353 H 137.601 -0.508528 -3.74463 0
M  V30 1354 H 137.914 -1.65612 -7.54846 0
M  V30 1355 H 136.259 -1.4826 -6.79002 0
M  V30 1356 H 139.45 -0.713293 -4.62633 0
M  V30 1357 H 139.623 -1.23638 -6.36096 0
M  V30 1358 N 133.029 1.57378 -0.0835403 0
M  V30 1359 C 133.992 2.12252 0.864959 0
M  V30 1360 C 134.992 1.04916 1.21858 0
M  V30 1361 O 136.182 1.30853 1.14991 0
M  V30 1362 C 133.314 2.63358 2.16461 0
M  V30 1363 H 134.507 2.97371 0.388676 0
M  V30 1364 H 132.06 1.55423 0.165317 0
M  V30 1365 H 132.795 1.81727 2.686 0
M  V30 1366 H 132.58 3.41826 1.92087 0
M  V30 1367 H 134.07 3.05847 2.84337 0
M  V30 1368 N 134.507 -0.190092 1.56449 0
M  V30 1369 C 135.918 -0.754312 1.70784 0
M  V30 1370 C 136.269 -1.83631 0.690951 0
M  V30 1371 O 135.394 -2.15868 -0.151604 0
M  V30 1372 C 135.989 -1.37503 3.09642 0
M  V30 1373 C 134.548 -1.88628 3.25725 0
M  V30 1374 C 133.695 -0.758098 2.66736 0
M  V30 1375 H 136.646 0.0350524 1.58661 0
M  V30 1376 H 136.667 -2.2445 3.0725 0
M  V30 1377 H 136.179 -0.587302 3.83631 0
M  V30 1378 H 134.28 -2.70103 2.56661 0
M  V30 1379 H 134.393 -2.04462 4.3328 0
M  V30 1380 H 132.757 -1.17369 2.26046 0
M  V30 1381 H 133.54 0.0174705 3.43296 0
M  V30 1382 N 135.985 -1.50799 -0.457987 0
M  V30 1383 C 137.21 -1.66496 -1.23668 0
M  V30 1384 C 137.635 -0.353288 -1.84752 0
M  V30 1385 O 136.993 0.684346 -1.67888 0
M  V30 1386 C 137.041 -2.76763 -2.3116 0
M  V30 1387 O 136.145 -2.38928 -3.36136 0
M  V30 1388 H 135.486 -0.555828 -0.363252 0
M  V30 1389 H 138.016 -1.9725 -0.543474 0
M  V30 1390 H 138.026 -3.00232 -2.76269 0
M  V30 1391 H 136.701 -3.71954 -1.86073 0
M  V30 1392 H 135.278 -2.25953 -2.96647 0
M  V30 1393 N 137.463 0.71206 -1.40597 0
M  V30 1394 C 138.693 1.49894 -1.42181 0
M  V30 1395 C 139.101 1.89189 -0.0208078 0
M  V30 1396 O 138.444 1.56223 0.966436 0
M  V30 1397 C 138.506 2.80215 -2.25211 0
M  V30 1398 C 138.17 2.63221 -3.73582 0
M  V30 1399 C 139.167 2.30249 -4.66135 0
M  V30 1400 C 136.852 2.79376 -4.17438 0
M  V30 1401 C 138.846 2.13645 -6.00529 0
M  V30 1402 C 136.533 2.6239 -5.51901 0
M  V30 1403 C 137.531 2.29573 -6.43262 0
M  V30 1404 O 137.219 2.12719 -7.75246 0
M  V30 1405 H 136.951 0.469031 -0.486812 0
M  V30 1406 H 139.505 0.88564 -1.85326 0
M  V30 1407 H 137.735 3.4389 -1.76852 0
M  V30 1408 H 139.424 3.41947 -2.18694 0
M  V30 1409 H 140.19 2.17398 -4.33547 0
M  V30 1410 H 136.069 3.03906 -3.46644 0
M  V30 1411 H 139.613 1.87953 -6.71803 0
M  V30 1412 H 135.51 2.74826 -5.84073 0
M  V30 1413 H 136.278 2.27611 -7.86216 0
M  V30 1414 N 138.941 1.26152 0.944643 0
M  V30 1415 C 139.891 1.04081 2.02857 0
M  V30 1416 C 140.875 -0.0256555 1.6088 0
M  V30 1417 O 142.067 0.190884 1.75968 0
M  V30 1418 C 139.196 0.672118 3.36656 0
M  V30 1419 C 138.282 1.77586 3.85128 0
M  V30 1420 N 138.673 3.01272 4.06287 0
M  V30 1421 C 136.971 1.65867 4.1401 0
M  V30 1422 C 137.672 3.72983 4.46384 0
M  V30 1423 N 136.648 3.00653 4.52889 0
M  V30 1424 H 140.45 1.97968 2.17223 0
M  V30 1425 H 137.964 1.16618 1.13022 0
M  V30 1426 H 139.961 0.495166 4.13949 0
M  V30 1427 H 138.621 -0.259307 3.23663 0
M  V30 1428 H 139.632 3.37213 3.93075 0
M  V30 1429 H 136.309 0.796907 4.09824 0
M  V30 1430 H 137.699 4.792 4.70975 0
M  V30 1431 N 140.419 -1.14872 1.07899 0
M  V30 1432 C 141.369 -2.17809 0.674027 0
M  V30 1433 C 142.353 -1.58008 -0.303699 0
M  V30 1434 O 143.545 -1.76616 -0.11654 0
M  V30 1435 C 140.674 -3.43208 0.0793318 0
M  V30 1436 C 139.76 -4.10051 1.08253 0
M  V30 1437 N 140.151 -4.52296 2.2641 0
M  V30 1438 C 138.449 -4.36469 0.917124 0
M  V30 1439 C 139.15 -5.04199 2.901 0
M  V30 1440 N 138.126 -4.98088 2.17736 0
M  V30 1441 H 141.928 -2.48207 1.57386 0
M  V30 1442 H 139.442 -1.315 0.952976 0
M  V30 1443 H 141.439 -4.16272 -0.228719 0
M  V30 1444 H 140.099 -3.14291 -0.815551 0
M  V30 1445 H 141.11 -4.45504 2.64096 0
M  V30 1446 H 137.787 -4.17432 0.0756078 0
M  V30 1447 H 139.177 -5.46802 3.90458 0
M  V30 1448 N 141.898 -0.863906 -1.31812 0
M  V30 1449 C 142.848 -0.286898 -2.26188 0
M  V30 1450 C 143.832 0.572577 -1.50367 0
M  V30 1451 O 145.024 0.420447 -1.71934 0
M  V30 1452 C 142.153 0.515849 -3.39402 0
M  V30 1453 C 141.239 -0.356531 -4.22599 0
M  V30 1454 N 141.63 -1.44716 -4.84656 0
M  V30 1455 C 139.928 -0.147898 -4.45755 0
M  V30 1456 C 140.629 -1.98462 -5.46798 0
M  V30 1457 N 139.605 -1.28247 -5.28255 0
M  V30 1458 H 143.407 -1.12055 -2.717 0
M  V30 1459 H 140.921 -0.711012 -1.46008 0
M  V30 1460 H 142.918 0.945701 -4.06032 0
M  V30 1461 H 141.578 1.34718 -2.95434 0
M  V30 1462 H 142.589 -1.83008 -4.84488 0
M  V30 1463 H 139.266 0.647973 -4.12441 0
M  V30 1464 H 140.656 -2.89932 -6.06126 0
M  V30 1465 N 143.376 1.44774 -0.622745 0
M  V30 1466 C 144.326 2.2774 0.108889 0
M  V30 1467 C 145.31 1.38189 0.824175 0
M  V30 1468 O 146.502 1.62063 0.711664 0
M  V30 1469 C 143.631 3.25353 1.09546 0
M  V30 1470 C 142.717 4.22392 0.380232 0
M  V30 1471 N 143.108 5.02388 -0.586535 0
M  V30 1472 C 141.406 4.41588 0.625792 0
M  V30 1473 C 142.107 5.72894 -1.00834 0
M  V30 1474 N 141.083 5.42479 -0.348878 0
M  V30 1475 H 144.885 2.86993 -0.63341 0
M  V30 1476 H 142.399 1.5611 -0.447589 0
M  V30 1477 H 144.396 3.83538 1.63414 0
M  V30 1478 H 143.056 2.6766 1.83815 0
M  V30 1479 H 144.067 5.0885 -0.963975 0
M  V30 1480 H 140.744 3.95003 1.352 0
M  V30 1481 H 142.134 6.47158 -1.80656 0
M  V30 1482 N 144.854 0.36279 1.53368 0
M  V30 1483 C 145.804 -0.501391 2.22419 0
M  V30 1484 C 146.788 -1.0509 1.2184 0
M  V30 1485 O 147.98 -0.981404 1.47301 0
M  V30 1486 C 145.109 -1.64201 3.01484 0
M  V30 1487 C 144.195 -1.10552 4.09438 0
M  V30 1488 N 144.586 -0.291788 5.04958 0
M  V30 1489 C 142.884 -1.3806 4.24094 0
M  V30 1490 C 143.585 0.00162655 5.817 0
M  V30 1491 N 142.561 -0.595244 5.40331 0
M  V30 1492 H 146.363 0.127159 2.93625 0
M  V30 1493 H 143.877 0.170658 1.61501 0
M  V30 1494 H 145.874 -2.27326 3.49469 0
M  V30 1495 H 144.534 -2.27365 2.31809 0
M  V30 1496 H 145.545 0.0687731 5.17854 0
M  V30 1497 H 142.222 -2.01522 3.65644 0
M  V30 1498 H 143.612 0.659278 6.68658 0
M  V30 1499 N 146.332 -1.57332 0.0918853 0
M  V30 1500 C 147.282 -2.10385 -0.87876 0
M  V30 1501 C 148.266 -1.01814 -1.24591 0
M  V30 1502 O 149.458 -1.28093 -1.22152 0
M  V30 1503 C 146.587 -2.68517 -2.13901 0
M  V30 1504 C 145.673 -3.84126 -1.79744 0
M  V30 1505 N 146.064 -4.92288 -1.1613 0
M  V30 1506 C 144.362 -3.93801 -2.09373 0
M  V30 1507 C 145.063 -5.7295 -1.00513 0
M  V30 1508 N 144.039 -5.21876 -1.5214 0
M  V30 1509 H 147.841 -2.91395 -0.38293 0
M  V30 1510 H 145.355 -1.62017 -0.111423 0
M  V30 1511 H 147.352 -3.04852 -2.84378 0
M  V30 1512 H 146.012 -1.88961 -2.64053 0
M  V30 1513 H 147.023 -5.1123 -0.828504 0
M  V30 1514 H 143.7 -3.25249 -2.61762 0
M  V30 1515 H 145.09 -6.69978 -0.507902 0
M  V30 1516 N 147.81 0.181792 -1.56548 0
M  V30 1517 C 148.76 1.22961 -1.92002 0
M  V30 1518 C 149.744 1.40331 -0.787146 0
M  V30 1519 O 150.936 1.42478 -1.05019 0
M  V30 1520 C 148.065 2.57144 -2.27446 0
M  V30 1521 C 147.151 2.43512 -3.47222 0
M  V30 1522 N 147.542 1.99577 -4.64761 0
M  V30 1523 C 145.84 2.74368 -3.51622 0
M  V30 1524 C 146.541 1.98156 -5.46909 0
M  V30 1525 N 145.517 2.40164 -4.8767 0
M  V30 1526 H 149.319 0.881462 -2.8037 0
M  V30 1527 H 146.833 0.390141 -1.57644 0
M  V30 1528 H 148.83 3.32847 -2.51035 0
M  V30 1529 H 147.49 2.92771 -1.40411 0
M  V30 1530 H 148.501 1.70078 -4.89177 0
M  V30 1531 H 145.178 3.14102 -2.75038 0
M  V30 1532 H 146.568 1.65975 -6.51077 0
M  V30 1533 N 149.288 1.51039 0.449983 0
M  V30 1534 C 150.238 1.67824 1.54335 0
M  V30 1535 C 151.222 0.5324 1.51836 0
M  V30 1536 O 152.414 0.787762 1.58503 0
M  V30 1537 C 149.543 1.7951 2.92628 0
M  V30 1538 C 148.629 2.99838 2.9993 0
M  V30 1539 N 149.02 4.23207 2.77001 0
M  V30 1540 C 147.318 2.98832 3.31082 0
M  V30 1541 C 148.019 5.04361 2.89818 0
M  V30 1542 N 146.995 4.38746 3.2094 0
M  V30 1543 H 150.797 2.60884 1.35339 0
M  V30 1544 H 148.311 1.48513 0.657085 0
M  V30 1545 H 150.308 1.89642 3.7127 0
M  V30 1546 H 148.968 0.876227 3.12654 0
M  V30 1547 H 149.979 4.5236 2.52172 0
M  V30 1548 H 146.656 2.16527 3.56963 0
M  V30 1549 H 148.046 6.12528 2.76151 0
M  V30 1550 N 150.766 -0.704594 1.40972 0
M  V30 1551 C 151.716 -1.81051 1.38581 0
M  V30 1552 C 152.7 -1.58759 0.261585 0
M  V30 1553 O 153.892 -1.69745 0.501556 0
M  V30 1554 C 151.021 -3.19279 1.26157 0
M  V30 1555 C 150.107 -3.47296 2.43405 0
M  V30 1556 N 150.498 -3.46064 3.68881 0
M  V30 1557 C 148.796 -3.77804 2.37023 0
M  V30 1558 C 149.497 -3.72733 4.46592 0
M  V30 1559 N 148.473 -3.9203 3.76581 0
M  V30 1560 H 152.275 -1.78448 2.33525 0
M  V30 1561 H 149.789 -0.904198 1.349 0
M  V30 1562 H 151.786 -3.98488 1.22526 0
M  V30 1563 H 150.446 -3.231 0.321902 0
M  V30 1564 H 151.457 -3.26656 4.01891 0
M  V30 1565 H 148.134 -3.8905 1.51481 0
M  V30 1566 H 149.524 -3.77993 5.55492 0
M  V30 1567 N 152.244 -1.26651 -0.937939 0
M  V30 1568 C 153.194 -1.05156 -2.02302 0
M  V30 1569 C 154.178 0.0171233 -1.60891 0
M  V30 1570 O 155.37 -0.200213 -1.75864 0
M  V30 1571 C 152.499 -0.689962 -3.36295 0
M  V30 1572 C 151.585 -1.79626 -3.84181 0
M  V30 1573 N 151.976 -3.03422 -4.04684 0
M  V30 1574 C 150.274 -1.6806 -4.13124 0
M  V30 1575 C 150.975 -3.75345 -4.444 0
M  V30 1576 N 149.951 -3.03051 -4.51288 0
M  V30 1577 H 153.753 -1.99117 -2.1617 0
M  V30 1578 H 151.267 -1.17216 -1.12402 0
M  V30 1579 H 153.264 -0.517112 -4.13681 0
M  V30 1580 H 151.924 0.242139 -3.23796 0
M  V30 1581 H 152.935 -3.39293 -3.91281 0
M  V30 1582 H 149.612 -0.818629 -4.09396 0
M  V30 1583 H 151.002 -4.81691 -4.68427 0
M  V30 1584 N 153.722 1.14298 -1.08507 0
M  V30 1585 C 154.672 2.17449 -0.685569 0
M  V30 1586 C 155.656 1.58167 0.295315 0
M  V30 1587 O 156.848 1.76675 0.107172 0
M  V30 1588 C 153.977 3.43161 -0.0975318 0
M  V30 1589 C 153.063 4.09471 -1.10426 0
M  V30 1590 N 153.454 4.51089 -2.28806 0
M  V30 1591 C 151.752 4.35976 -0.940258 0
M  V30 1592 C 152.453 5.02654 -2.9277 0
M  V30 1593 N 151.429 4.96927 -2.20374 0
M  V30 1594 H 155.231 2.47369 -1.587 0
M  V30 1595 H 152.745 1.30992 -0.959936 0
M  V30 1596 H 154.742 4.16388 0.20664 0
M  V30 1597 H 153.402 3.14719 0.798872 0
M  V30 1598 H 154.413 4.44097 -2.66455 0
M  V30 1599 H 151.09 4.17386 -0.0977441 0
M  V30 1600 H 152.48 5.44723 -3.93352 0
M  V30 1601 N 155.201 0.870884 1.31352 0
M  V30 1602 C 156.151 0.298889 2.26032 0
M  V30 1603 C 157.135 -0.564595 1.50669 0
M  V30 1604 O 158.327 -0.411323 1.72154 0
M  V30 1605 C 155.456 -0.497842 3.39671 0
M  V30 1606 C 154.542 0.378937 4.22404 0
M  V30 1607 N 154.933 1.47284 4.83881 0
M  V30 1608 C 153.231 0.171535 4.4567 0
M  V30 1609 C 153.932 2.01359 5.45738 0
M  V30 1610 N 152.908 1.31047 5.27568 0
M  V30 1611 H 156.71 1.13494 2.71102 0
M  V30 1612 H 154.224 0.718745 1.45629 0
M  V30 1613 H 156.221 -0.924155 4.06528 0
M  V30 1614 H 154.881 -1.33149 2.96144 0
M  V30 1615 H 155.892 1.85575 4.8351 0
M  V30 1616 H 152.569 -0.626091 4.12779 0
M  V30 1617 H 153.959 2.93143 6.0458 0
M  V30 1618 N 156.679 -1.44442 0.630414 0
M  V30 1619 C 157.629 -2.27794 -0.0968103 0
M  V30 1620 C 158.613 -1.38624 -0.816834 0
M  V30 1621 O 159.805 -1.62438 -0.70306 0
M  V30 1622 C 156.934 -3.25929 -1.07819 0
M  V30 1623 C 156.02 -4.22588 -0.357826 0
M  V30 1624 N 156.411 -5.0207 0.613169 0
M  V30 1625 C 154.709 -4.41914 -0.602365 0
M  V30 1626 C 155.41 -5.72351 1.03871 0
M  V30 1627 N 154.386 -5.42287 0.377642 0
M  V30 1628 H 158.188 -2.86653 0.648621 0
M  V30 1629 H 155.702 -1.55871 0.455862 0
M  V30 1630 H 157.699 -3.84399 -1.61378 0
M  V30 1631 H 156.359 -2.68631 -1.82393 0
M  V30 1632 H 157.37 -5.08331 0.990947 0
M  V30 1633 H 154.047 -3.95714 -1.33103 0
M  V30 1634 H 155.437 -6.4619 1.84086 0
M  V30 1635 N 158.157 -0.370918 -1.53173 0
M  V30 1636 C 159.107 0.489588 -2.22681 0
M  V30 1637 C 160.091 1.04442 -1.22395 0
M  V30 1638 O 161.283 0.973578 -1.47819 0
M  V30 1639 C 158.412 1.626 -3.02351 0
M  V30 1640 C 157.498 1.08379 -4.10018 0
M  V30 1641 N 157.889 0.265004 -5.05105 0
M  V30 1642 C 156.187 1.35809 -4.2482 0
M  V30 1643 C 156.888 -0.0324755 -5.81691 0
M  V30 1644 N 155.864 0.566581 -5.40639 0
M  V30 1645 H 159.666 -0.142729 -2.93553 0
M  V30 1646 H 157.18 -0.179221 -1.61408 0
M  V30 1647 H 159.177 2.2547 -3.50669 0
M  V30 1648 H 157.837 2.26132 -2.33011 0
M  V30 1649 H 158.848 -0.0962352 -5.17811 0
M  V30 1650 H 155.525 1.9958 -3.66707 0
M  V30 1651 H 156.915 -0.69473 -6.68299 0
M  V30 1652 N 159.635 1.57281 -0.100228 0
M  V30 1653 C 160.567 2.11342 0.886972 0
M  V30 1654 C 161.58 1.05182 1.24261 0
M  V30 1655 O 162.769 1.32613 1.19483 0
M  V30 1656 C 159.869 2.5825 2.19454 0
M  V30 1657 C 159.042 3.88302 2.01346 0
M  V30 1658 C 158.101 4.21004 3.15661 0
M  V30 1659 O 157.127 4.9014 2.89398 0
M  V30 1660 N 158.329 3.76818 4.41575 0
M  V30 1661 H 161.094 2.96668 0.425216 0
M  V30 1662 H 158.655 1.61678 0.0847334 0
M  V30 1663 H 160.647 2.7717 2.94888 0
M  V30 1664 H 159.217 1.77907 2.57037 0
M  V30 1665 H 158.437 3.7848 1.10212 0
M  V30 1666 H 159.725 4.73375 1.8653 0
M  V30 1667 H 159.123 3.2102 4.65792 0
M  V30 1668 H 157.68 4.00882 5.13942 0
M  V30 1669 N 161.113 -0.173488 1.56642 0
M  V30 1670 C 162.045 -1.23935 1.92802 0
M  V30 1671 C 163.058 -1.40589 0.820889 0
M  V30 1672 O 164.247 -1.40631 1.09933 0
M  V30 1673 C 161.347 -2.60837 2.16373 0
M  V30 1674 C 160.52 -2.6551 3.47596 0
M  V30 1675 C 159.579 -3.8376 3.60021 0
M  V30 1676 O 158.605 -3.69859 4.32658 0
M  V30 1677 N 159.807 -5.00127 2.94709 0
M  V30 1678 H 162.572 -0.932236 2.84832 0
M  V30 1679 H 160.133 -0.363268 1.57772 0
M  V30 1680 H 162.125 -3.38407 2.21952 0
M  V30 1681 H 160.695 -2.83948 1.30738 0
M  V30 1682 H 159.915 -1.74052 3.53694 0
M  V30 1683 H 161.203 -2.65641 4.33949 0
M  V30 1684 H 160.601 -5.14322 2.35563 0
M  V30 1685 H 159.158 -5.75567 3.05886 0
M  V30 1686 N 162.591 -1.51276 -0.441967 0
M  V30 1687 C 163.523 -1.68444 -1.55433 0
M  V30 1688 C 164.536 -0.565187 -1.52674 0
M  V30 1689 O 165.725 -0.839356 -1.57534 0
M  V30 1690 C 162.825 -1.67966 -2.94348 0
M  V30 1691 C 161.998 -2.964 -3.21661 0
M  V30 1692 C 161.057 -2.88171 -4.40277 0
M  V30 1693 O 160.083 -3.62119 -4.39157 0
M  V30 1694 N 161.285 -2.03706 -5.43584 0
M  V30 1695 H 164.05 -2.644 -1.41112 0
M  V30 1696 H 161.611 -1.49104 -0.630838 0
M  V30 1697 H 163.603 -1.60035 -3.71713 0
M  V30 1698 H 162.173 -0.796225 -3.0229 0
M  V30 1699 H 161.393 -3.18234 -2.32638 0
M  V30 1700 H 162.681 -3.81427 -3.36736 0
M  V30 1701 H 162.079 -1.42995 -5.47329 0
M  V30 1702 H 160.636 -2.01658 -6.1982 0
M  V30 1703 N 164.069 0.697108 -1.41344 0
M  V30 1704 C 165.019 1.80313 -1.39539 0
M  V30 1705 C 166.003 1.58618 -0.270001 0
M  V30 1706 O 167.195 1.69477 -0.510551 0
M  V30 1707 C 164.324 3.18606 -1.27848 0
M  V30 1708 C 163.41 3.46001 -2.45244 0
M  V30 1709 N 163.801 3.44103 -3.70711 0
M  V30 1710 C 162.099 3.76542 -2.39023 0
M  V30 1711 C 162.8 3.7036 -4.48563 0
M  V30 1712 N 161.776 3.90027 -3.78655 0
M  V30 1713 H 165.578 1.77207 -2.34468 0
M  V30 1714 H 163.092 0.897031 -1.35378 0
M  V30 1715 H 165.089 3.97833 -1.24637 0
M  V30 1716 H 163.749 3.22925 -0.339032 0
M  V30 1717 H 164.76 3.2452 -4.03618 0
M  V30 1718 H 161.437 3.88241 -1.53542 0
M  V30 1719 H 162.827 3.75042 -5.57488 0
M  V30 1720 N 165.547 1.27147 0.931209 0
M  V30 1721 C 166.479 1.05364 2.03546 0
M  V30 1722 C 167.492 0.0108438 1.62796 0
M  V30 1723 O 168.681 0.25202 1.76712 0
M  V30 1724 C 165.781 0.575566 3.33977 0
M  V30 1725 C 164.954 1.68985 4.03439 0
M  V30 1726 C 164.013 1.20813 5.12143 0
M  V30 1727 O 163.039 1.90712 5.363 0
M  V30 1728 N 164.241 0.0618851 5.80467 0
M  V30 1729 H 167.006 2.00454 2.22796 0
M  V30 1730 H 164.567 1.18666 1.10136 0
M  V30 1731 H 166.559 0.237264 4.04004 0
M  V30 1732 H 165.129 -0.282016 3.11325 0
M  V30 1733 H 164.349 2.19861 3.27192 0
M  V30 1734 H 165.637 2.4378 4.46597 0
M  V30 1735 H 165.035 -0.521621 5.6329 0
M  V30 1736 H 163.592 -0.217264 6.51438 0
M  V30 1737 N 167.025 -1.13721 1.09112 0
M  V30 1738 C 167.957 -2.1871 0.685467 0
M  V30 1739 C 168.97 -1.60527 -0.271068 0
M  V30 1740 O 170.159 -1.78407 -0.0576148 0
M  V30 1741 C 167.259 -3.38898 -0.0111255 0
M  V30 1742 C 166.432 -4.26597 0.966131 0
M  V30 1743 C 165.491 -5.25324 0.303539 0
M  V30 1744 O 164.517 -5.61213 0.950177 0
M  V30 1745 N 165.719 -5.72779 -0.943651 0
M  V30 1746 H 168.484 -2.54126 1.58871 0
M  V30 1747 H 166.045 -1.29012 0.978143 0
M  V30 1748 H 168.037 -4.02014 -0.465517 0
M  V30 1749 H 166.607 -3.01747 -0.816565 0
M  V30 1750 H 165.827 -3.60306 1.59917 0
M  V30 1751 H 167.115 -4.82048 1.6281 0
M  V30 1752 H 166.513 -5.45762 -1.48862 0
M  V30 1753 H 165.07 -6.37847 -1.34142 0
M  V30 1754 N 168.503 -0.877838 -1.30888 0
M  V30 1755 C 169.914 -0.544193 -1.78593 0
M  V30 1756 C 170.265 0.939301 -1.72254 0
M  V30 1757 O 169.39 1.7337 -1.29505 0
M  V30 1758 C 169.985 -0.98105 -3.24285 0
M  V30 1759 C 168.544 -0.698935 -3.69854 0
M  V30 1760 C 167.691 -1.168 -2.51502 0
M  V30 1761 H 170.642 -1.06278 -1.17859 0
M  V30 1762 H 170.663 -0.307009 -3.79259 0
M  V30 1763 H 170.175 -2.06079 -3.28866 0
M  V30 1764 H 168.276 0.369112 -3.70767 0
M  V30 1765 H 168.389 -1.28148 -4.61644 0
M  V30 1766 H 166.753 -0.587535 -2.47831 0
M  V30 1767 H 167.536 -2.25533 -2.58824 0
M  V30 1768 N 169.982 1.44106 -0.638065 0
M  V30 1769 C 171.207 2.0685 -0.150916 0
M  V30 1770 C 171.632 1.47417 1.16833 0
M  V30 1771 O 170.99 0.578264 1.71831 0
M  V30 1772 C 171.038 3.60555 -0.05708 0
M  V30 1773 O 170.142 4.00465 0.984972 0
M  V30 1774 H 169.483 0.658151 -0.0879399 0
M  V30 1775 H 172.013 1.84865 -0.876707 0
M  V30 1776 H 172.023 4.07789 0.131232 0
M  V30 1777 H 170.698 4.03193 -1.02021 0
M  V30 1778 H 169.275 3.64849 0.770672 0
M  V30 1779 N 171.46 0.379036 1.52974 0
M  V30 1780 C 172.709 -0.207612 2.00629 0
M  V30 1781 C 173.022 -1.48758 1.27006 0
M  V30 1782 O 174.228 -2.15365 1.65318 0
M  V30 1783 C 172.684 -0.42053 3.57435 0
M  V30 1784 C 172.292 0.845587 4.39948 0
M  V30 1785 C 174.036 -0.964102 4.13407 0
M  V30 1786 C 171.943 0.601513 5.88333 0
M  V30 1787 H 170.873 -0.0813591 0.749598 0
M  V30 1788 H 173.524 0.499853 1.76561 0
M  V30 1789 H 171.906 -1.18959 3.7771 0
M  V30 1790 H 173.08 1.61848 4.31442 0
M  V30 1791 H 171.395 1.31336 3.95145 0
M  V30 1792 H 173.992 -1.16225 5.21916 0
M  V30 1793 H 174.335 -1.93019 3.68849 0
M  V30 1794 H 174.868 -0.25487 3.96983 0
M  V30 1795 H 171.607 1.53831 6.37194 0
M  V30 1796 H 171.127 -0.132628 5.99653 0
M  V30 1797 H 172.806 0.232134 6.46583 0
M  V30 1798 N 172.938 -1.57226 0.108567 0
M  V30 1799 C 174.349 -1.8195 -0.418464 0
M  V30 1800 C 174.7 -1.02508 -1.67292 0
M  V30 1801 O 173.825 -0.258496 -2.14851 0
M  V30 1802 C 174.42 -3.30028 -0.765979 0
M  V30 1803 C 172.979 -3.55469 -1.23769 0
M  V30 1804 C 172.126 -2.7625 -0.241106 0
M  V30 1805 H 175.077 -1.55149 0.33384 0
M  V30 1806 H 175.098 -3.44086 -1.62434 0
M  V30 1807 H 174.61 -3.87821 0.147219 0
M  V30 1808 H 172.711 -3.03022 -2.16814 0
M  V30 1809 H 172.824 -4.6408 -1.19022 0
M  V30 1810 H 171.188 -2.44133 -0.72602 0
M  V30 1811 H 171.971 -3.36797 0.665007 0
M  V30 1812 N 174.416 0.165178 -1.56732 0
M  V30 1813 C 175.827 0.727046 -1.71962 0
M  V30 1814 C 176.178 1.82508 -0.720078 0
M  V30 1815 O 175.303 2.16082 0.117242 0
M  V30 1816 C 175.898 1.32559 -3.11791 0
M  V30 1817 C 174.457 1.83422 -3.28684 0
M  V30 1818 C 173.604 0.715567 -2.67908 0
M  V30 1819 H 176.555 -0.0602896 -1.58585 0
M  V30 1820 H 176.576 2.19533 -3.10782 0
M  V30 1821 H 176.088 0.526195 -3.84516 0
M  V30 1822 H 174.189 2.65986 -2.60926 0
M  V30 1823 H 174.302 1.97543 -4.36478 0
M  V30 1824 H 172.666 1.13758 -2.27884 0
M  V30 1825 H 173.449 -0.0720836 -3.43224 0
M  V30 1826 N 175.894 1.51508 0.433938 0
M  V30 1827 C 176.857 1.72473 1.50949 0
M  V30 1828 C 177.857 0.594725 1.49398 0
M  V30 1829 O 179.047 0.862315 1.5136 0
M  V30 1830 C 176.179 1.78431 2.90474 0
M  V30 1831 H 177.372 2.68467 1.33662 0
M  V30 1832 H 174.925 1.41549 0.662836 0
M  V30 1833 H 175.66 0.842645 3.13161 0
M  V30 1834 H 175.445 2.60558 2.93005 0
M  V30 1835 H 176.935 1.96479 3.68491 0
M  V30 1836 N 177.372 -0.689602 1.41712 0
M  V30 1837 C 178.597 -1.48329 1.44959 0
M  V30 1838 C 179.022 -1.8801 0.0581283 0
M  V30 1839 O 178.38 -1.55026 -0.940035 0
M  V30 1840 C 178.428 -2.71835 2.36935 0
M  V30 1841 O 177.532 -3.69549 1.8305 0
M  V30 1842 H 176.873 -0.446199 0.491734 0
M  V30 1843 H 179.403 -0.847127 1.86239 0
M  V30 1844 H 179.413 -3.20076 2.53013 0
M  V30 1845 H 178.088 -2.42291 3.38035 0
M  V30 1846 H 176.665 -3.2851 1.76452 0
M  V30 1847 N 178.85 -1.27639 -0.924453 0
M  V30 1848 C 180.075 -1.17101 -1.71179 0
M  V30 1849 C 180.5 0.268134 -1.86179 0
M  V30 1850 O 179.858 1.19415 -1.36418 0
M  V30 1851 C 179.906 -1.86313 -3.08739 0
M  V30 1852 O 179.01 -1.16331 -3.95652 0
M  V30 1853 H 178.351 -0.407091 -0.524569 0
M  V30 1854 H 180.881 -1.68767 -1.15666 0
M  V30 1855 H 180.891 -1.938 -3.59034 0
M  V30 1856 H 179.566 -2.91001 -2.97138 0
M  V30 1857 H 178.143 -1.16935 -3.54091 0
M  V30 1858 N 180.328 1.1314 -1.09713 0
M  V30 1859 C 181.739 1.66029 -0.853885 0
M  V30 1860 C 182.09 1.86241 0.617142 0
M  V30 1861 O 181.215 1.5834 1.47503 0
M  V30 1862 C 181.81 3.01599 -1.5435 0
M  V30 1863 C 180.369 3.51467 -1.34714 0
M  V30 1864 C 179.516 2.26648 -1.59769 0
M  V30 1865 H 182.467 0.970226 -1.25588 0
M  V30 1866 H 182.488 3.67709 -0.978267 0
M  V30 1867 H 182 2.86856 -2.6141 0
M  V30 1868 H 180.101 3.71408 -0.297838 0
M  V30 1869 H 180.214 4.314 -2.08401 0
M  V30 1870 H 178.578 2.33385 -1.01998 0
M  V30 1871 H 179.361 2.14467 -2.68065 0
M  V30 1872 N 181.806 0.884767 1.30421 0
M  V30 1873 C 182.716 0.355398 2.31892 0
M  V30 1874 C 183.732 -0.542261 1.65335 0
M  V30 1875 O 184.908 -0.435432 1.96637 0
M  V30 1876 C 181.973 -0.421661 3.44126 0
M  V30 1877 C 181.034 0.505727 4.26311 0
M  V30 1878 C 180.267 -0.234343 5.33185 0
M  V30 1879 O 180.49 -1.46045 5.51386 0
M  V30 1880 O 179.424 0.415443 6.00465 0
M  V30 1881 H 183.25 1.19685 2.79122 0
M  V30 1882 H 180.835 0.648596 1.34587 0
M  V30 1883 H 182.717 -0.861641 4.12497 0
M  V30 1884 H 181.392 -1.23942 2.99032 0
M  V30 1885 H 180.299 0.994513 3.60639 0
M  V30 1886 H 181.632 1.28948 4.75009 0
M  V30 1887 N 183.284 -1.43765 0.645699 0
M  V30 1888 C 184.561 -1.9541 0.0862963 0
M  V30 1889 C 184.941 -1.58725 -1.39175 0
M  V30 1890 O 184.289 -0.868581 -2.11348 0
M  V30 1891 C 184.499 -3.47488 0.324565 0
M  V30 1892 C 185.847 -4.24001 0.225497 0
M  V30 1893 O 186.871 -3.55274 0.256715 0
M  V30 1894 O 185.73 -5.46313 0.142801 0
M  V30 1895 H 182.824 -0.826882 -0.0139483 0
M  V30 1896 H 185.37 -1.53743 0.718415 0
M  V30 1897 H 184.142 -3.67289 1.3496 0
M  V30 1898 H 183.765 -3.96135 -0.340987 0
M  V30 1899 N 184.763 -0.387143 -1.52771 0
M  V30 1900 C 185.673 0.456442 -2.30117 0
M  V30 1901 C 186.689 1.07342 -1.36944 0
M  V30 1902 O 187.865 1.07971 -1.70013 0
M  V30 1903 C 184.93 1.56957 -3.09136 0
M  V30 1904 C 183.991 0.977916 -4.18014 0
M  V30 1905 C 183.224 2.038 -4.93256 0
M  V30 1906 O 183.447 3.25271 -4.68567 0
M  V30 1907 O 182.381 1.6565 -5.78657 0
M  V30 1908 H 186.207 -0.17359 -3.03203 0
M  V30 1909 H 183.792 -0.150919 -1.48636 0
M  V30 1910 H 185.674 2.21628 -3.58412 0
M  V30 1911 H 184.349 2.18461 -2.38865 0
M  V30 1912 H 183.256 0.294525 -3.72939 0
M  V30 1913 H 184.589 0.407128 -4.90513 0
M  V30 1914 N 186.241 1.57166 -0.116904 0
M  V30 1915 C 187.487 1.95412 0.542405 0
M  V30 1916 C 187.82 1.00019 1.66463 0
M  V30 1917 O 187.095 0.0370346 1.94465 0
M  V30 1918 C 187.378 3.43615 1.07708 0
M  V30 1919 C 187.231 4.49781 -0.0415868 0
M  V30 1920 C 188.55 3.93616 1.96861 0
M  V30 1921 H 185.669 0.710543 0.195696 0
M  V30 1922 H 188.311 1.89027 -0.192038 0
M  V30 1923 H 186.461 3.49187 1.70296 0
M  V30 1924 H 188.133 4.56308 -0.676793 0
M  V30 1925 H 186.376 4.28033 -0.705019 0
M  V30 1926 H 187.047 5.50733 0.373717 0
M  V30 1927 H 189.523 3.90335 1.44146 0
M  V30 1928 H 188.399 4.97838 2.3119 0
M  V30 1929 H 188.66 3.34188 2.89432 0
M  V30 1930 N 187.719 -0.156864 1.56817 0
M  V30 1931 C 188.649 -1.19589 2.00551 0
M  V30 1932 C 189.63 -1.4536 0.883426 0
M  V30 1933 O 190.815 -1.56449 1.15054 0
M  V30 1934 C 187.945 -2.53143 2.37773 0
M  V30 1935 C 186.899 -2.41913 3.53075 0
M  V30 1936 C 186.225 -3.80088 3.76081 0
M  V30 1937 C 187.525 -1.91157 4.86062 0
M  V30 1938 H 189.219 -0.832293 2.87599 0
M  V30 1939 H 186.765 -0.398918 1.38364 0
M  V30 1940 H 188.718 -3.26047 2.66967 0
M  V30 1941 H 187.442 -2.91319 1.4765 0
M  V30 1942 H 186.101 -1.71462 3.24031 0
M  V30 1943 H 185.749 -4.15683 2.83225 0
M  V30 1944 H 185.449 -3.73439 4.53671 0
M  V30 1945 H 186.973 -4.54556 4.0769 0
M  V30 1946 H 188.387 -2.53846 5.14038 0
M  V30 1947 H 186.784 -1.95422 5.67389 0
M  V30 1948 H 187.854 -0.866673 4.77092 0
M  V30 1949 N 189.197 -1.51736 -0.425897 0
M  V30 1950 C 190.608 -1.5732 -1.00536 0
M  V30 1951 C 190.959 -0.403537 -1.92005 0
M  V30 1952 O 190.084 0.478256 -2.11049 0
M  V30 1953 C 190.679 -2.85119 -1.8301 0
M  V30 1954 C 189.238 -2.93236 -2.35987 0
M  V30 1955 C 188.385 -2.52098 -1.15508 0
M  V30 1956 H 191.336 -1.57348 -0.206739 0
M  V30 1957 H 191.357 -2.69526 -2.68581 0
M  V30 1958 H 190.869 -3.7023 -1.16411 0
M  V30 1959 H 188.97 -2.12581 -3.06007 0
M  V30 1960 H 189.083 -3.9713 -2.68001 0
M  V30 1961 H 187.447 -2.05558 -1.50393 0
M  V30 1962 H 188.23 -3.39565 -0.505014 0
M  V30 1963 N 190.675 0.682077 -1.42076 0
M  V30 1964 C 191.9 1.47558 -1.45744 0
M  V30 1965 C 192.325 1.87977 -0.0680981 0
M  V30 1966 O 191.683 1.55522 0.9318 0
M  V30 1967 C 191.731 2.70575 -2.38373 0
M  V30 1968 O 190.835 3.68573 -1.85007 0
M  V30 1969 H 190.176 0.443585 -0.494093 0
M  V30 1970 H 192.706 0.837238 -1.86686 0
M  V30 1971 H 192.716 3.18729 -2.54707 0
M  V30 1972 H 191.391 2.40495 -3.39315 0
M  V30 1973 H 189.968 3.2757 -1.78192 0
M  V30 1974 N 192.153 1.28127 0.917671 0
M  V30 1975 C 193.381 1.17892 1.70026 0
M  V30 1976 C 193.796 -0.262958 1.8696 0
M  V30 1977 O 193.153 -1.17811 1.3938 0
M  V30 1978 C 193.204 1.86872 3.09453 0
M  V30 1979 O 192.925 3.25428 2.93306 0
M  V30 1980 C 194.426 1.8289 4.03815 0
M  V30 1981 H 191.646 0.40942 0.531617 0
M  V30 1982 H 194.19 1.69181 1.14883 0
M  V30 1983 H 192.345 1.39464 3.61426 0
M  V30 1984 H 192.759 3.59918 3.81523 0
M  V30 1985 H 194.233 2.35751 4.99125 0
M  V30 1986 H 194.71 0.800412 4.31845 0
M  V30 1987 H 195.316 2.29959 3.57769 0
M  V30 1988 N 193.631 -1.12557 1.10312 0
M  V30 1989 C 194.856 -1.88405 0.867085 0
M  V30 1990 C 195.281 -1.79038 -0.576817 0
M  V30 1991 O 194.639 -1.14439 -1.40618 0
M  V30 1992 C 194.687 -3.3563 1.31851 0
M  V30 1993 O 193.791 -4.09565 0.482734 0
M  V30 1994 H 193.132 -0.585455 0.313271 0
M  V30 1995 H 195.662 -1.42352 1.4696 0
M  V30 1996 H 195.672 -3.86469 1.3079 0
M  V30 1997 H 194.347 -3.41765 2.37001 0
M  V30 1998 H 192.924 -3.68695 0.558448 0
M  V30 1999 N 195.109 -0.891671 -1.2995 0
M  V30 2000 C 196.042 -0.307994 -2.26112 0
M  V30 2001 C 197.02 0.575262 -1.52084 0
M  V30 2002 O 198.204 0.523864 -1.81074 0
M  V30 2003 C 195.331 0.561734 -3.34009 0
M  V30 2004 C 194.377 -0.253107 -4.25748 0
M  V30 2005 S 195.21 -1.64572 -5.09584 0
M  V30 2006 C 196.366 -0.782699 -6.20987 0
M  V30 2007 H 196.599 -1.12309 -2.75271 0
M  V30 2008 H 194.132 -0.691509 -1.38049 0
M  V30 2009 H 196.09 1.05777 -3.96638 0
M  V30 2010 H 194.751 1.35099 -2.83561 0
M  V30 2011 H 193.944 0.410908 -5.02322 0
M  V30 2012 H 193.546 -0.682004 -3.67729 0
M  V30 2013 H 195.838 -0.00257476 -6.775 0
M  V30 2014 H 196.781 -1.52026 -6.91588 0
M  V30 2015 H 197.189 -0.340638 -5.63471 0
M  V30 2016 N 196.587 1.43421 -0.653314 0
M  V30 2017 C 197.817 2.05864 -0.174238 0
M  V30 2018 C 198.225 1.49052 1.16534 0
M  V30 2019 O 197.568 0.616481 1.73047 0
M  V30 2020 C 197.63 3.59499 -0.00875873 0
M  V30 2021 C 197.294 4.38893 -1.27364 0
M  V30 2022 C 198.291 4.70947 -2.20239 0
M  V30 2023 C 195.976 4.789 -1.51525 0
M  V30 2024 C 197.97 5.41916 -3.35568 0
M  V30 2025 C 195.657 5.49614 -2.67147 0
M  V30 2026 C 196.655 5.81044 -3.58994 0
M  V30 2027 O 196.343 6.50313 -4.72597 0
M  V30 2028 H 196.075 0.670345 -0.0872549 0
M  V30 2029 H 198.629 1.84913 -0.894226 0
M  V30 2030 H 196.859 3.79025 0.7666 0
M  V30 2031 H 198.548 4.0364 0.427687 0
M  V30 2032 H 199.314 4.40558 -2.02815 0
M  V30 2033 H 195.193 4.53843 -0.809158 0
M  V30 2034 H 198.737 5.66365 -4.07279 0
M  V30 2035 H 194.634 5.79419 -2.84505 0
M  V30 2036 H 195.402 6.68795 -4.71864 0
M  V30 2037 N 198.065 0.39524 1.52563 0
M  V30 2038 C 199.312 -0.185044 2.01653 0
M  V30 2039 C 199.64 -1.46317 1.28146 0
M  V30 2040 O 198.895 -1.9213 0.372074 0
M  V30 2041 C 199.194 -0.493444 3.53977 0
M  V30 2042 C 198.86 0.69384 4.4553 0
M  V30 2043 C 197.522 1.01954 4.70275 0
M  V30 2044 C 199.874 1.48785 4.99512 0
M  V30 2045 C 197.202 2.14069 5.46252 0
M  V30 2046 C 199.554 2.59965 5.76716 0
M  V30 2047 C 198.218 2.93037 5.99738 0
M  V30 2048 H 197.488 -0.0677123 0.7379 0
M  V30 2049 H 200.135 0.533807 1.8391 0
M  V30 2050 H 198.44 -1.29369 3.69825 0
M  V30 2051 H 200.137 -0.955163 3.89458 0
M  V30 2052 H 196.727 0.429987 4.26438 0
M  V30 2053 H 200.911 1.24946 4.80315 0
M  V30 2054 H 196.167 2.40056 5.62302 0
M  V30 2055 H 200.341 3.21887 6.17545 0
M  V30 2056 H 197.968 3.8003 6.58393 0
M  V30 2057 N 199.544 -1.57102 0.125237 0
M  V30 2058 C 200.491 -2.15641 -0.822655 0
M  V30 2059 C 201.461 -1.08313 -1.25927 0
M  V30 2060 O 202.646 -1.36251 -1.33567 0
M  V30 2061 C 199.786 -2.76504 -2.06494 0
M  V30 2062 C 198.899 -3.98158 -1.67612 0
M  V30 2063 C 198.034 -4.47088 -2.86854 0
M  V30 2064 C 197.073 -5.6126 -2.44242 0
M  V30 2065 N 196.21 -6.04905 -3.56419 0
M  V30 2066 H 201.05 -2.96313 -0.316625 0
M  V30 2067 H 198.587 -1.46388 -0.144588 0
M  V30 2068 H 200.545 -3.09925 -2.79289 0
M  V30 2069 H 199.175 -1.98512 -2.54545 0
M  V30 2070 H 198.227 -3.70858 -0.846661 0
M  V30 2071 H 199.539 -4.80934 -1.32301 0
M  V30 2072 H 198.693 -4.82451 -3.67867 0
M  V30 2073 H 197.432 -3.63275 -3.25396 0
M  V30 2074 H 196.437 -5.25495 -1.61663 0
M  V30 2075 H 197.662 -6.46843 -2.0681 0
M  V30 2076 H 195.608 -5.24032 -3.94623 0
M  V30 2077 H 195.525 -6.82552 -3.25051 0
M  V30 2078 H 196.793 -6.44907 -4.37853 0
M  V30 2079 N 201.022 0.148545 -1.56898 0
M  V30 2080 C 201.954 1.20852 -1.9475 0
M  V30 2081 C 202.967 1.39265 -0.843152 0
M  V30 2082 O 204.156 1.38864 -1.12156 0
M  V30 2083 C 201.256 2.57362 -2.20495 0
M  V30 2084 C 200.429 2.59947 -3.51776 0
M  V30 2085 C 199.488 3.77984 -3.6608 0
M  V30 2086 O 198.514 3.62929 -4.38487 0
M  V30 2087 N 199.716 4.95375 -3.02629 0
M  V30 2088 H 202.481 0.886804 -2.86279 0
M  V30 2089 H 200.042 0.338121 -1.5833 0
M  V30 2090 H 202.034 3.34833 -2.27307 0
M  V30 2091 H 200.604 2.81832 -1.35238 0
M  V30 2092 H 199.824 1.68403 -3.56419 0
M  V30 2093 H 201.112 2.58704 -4.38121 0
M  V30 2094 H 200.51 5.10509 -2.43715 0
M  V30 2095 H 199.067 5.70627 -3.15004 0
M  V30 2096 N 202.5 1.5196 0.417844 0
M  V30 2097 C 203.725 1.69717 1.1921 0
M  V30 2098 C 204.15 0.402148 1.83751 0
M  V30 2099 O 203.508 -0.639593 1.69643 0
M  V30 2100 C 203.556 2.82794 2.2374 0
M  V30 2101 O 202.66 2.47756 3.29683 0
M  V30 2102 H 202.001 0.565263 0.348387 0
M  V30 2103 H 204.531 1.98621 0.490985 0
M  V30 2104 H 204.541 3.07452 2.68212 0
M  V30 2105 H 203.216 3.76756 1.76146 0
M  V30 2106 H 201.793 2.33739 2.90552 0
M  V30 2107 N 203.978 -0.674533 1.42435 0
M  V30 2108 C 205.389 -1.25514 1.38214 0
M  V30 2109 C 205.74 -1.96055 0.0755464 0
M  V30 2110 O 204.865 -2.00028 -0.8257 0
M  V30 2111 C 205.46 -2.28269 2.50357 0
M  V30 2112 C 204.019 -2.81856 2.49467 0
M  V30 2113 C 203.166 -1.56182 2.29134 0
M  V30 2114 H 206.117 -0.467902 1.51646 0
M  V30 2115 H 206.138 -3.10009 2.20624 0
M  V30 2116 H 205.65 -1.769 3.45439 0
M  V30 2117 H 203.751 -3.37346 1.58204 0
M  V30 2118 H 203.864 -3.30854 3.46515 0
M  V30 2119 H 202.228 -1.82761 1.774 0
M  V30 2120 H 203.011 -1.06778 3.26272 0
M  V30 2121 N 205.456 -1.28612 -0.910864 0
M  V30 2122 C 206.867 -1.14406 -1.47541 0
M  V30 2123 C 207.218 0.264901 -1.94403 0
M  V30 2124 O 206.343 1.15942 -1.82719 0
M  V30 2125 C 206.938 -2.07073 -2.68153 0
M  V30 2126 C 205.497 -1.96923 -3.20778 0
M  V30 2127 C 204.644 -1.98646 -1.93481 0
M  V30 2128 H 207.595 -1.41259 -0.723291 0
M  V30 2129 H 207.616 -1.63642 -3.43514 0
M  V30 2130 H 207.128 -3.09611 -2.34015 0
M  V30 2131 H 205.229 -0.97433 -3.59635 0
M  V30 2132 H 205.342 -2.84026 -3.85832 0
M  V30 2133 H 203.706 -1.43093 -2.10705 0
M  V30 2134 H 204.489 -3.02868 -1.61634 0
M  V30 2135 N 206.934 1.1197 -1.10907 0
M  V30 2136 C 208.159 1.87942 -0.877064 0
M  V30 2137 C 208.584 1.79341 0.567314 0
M  V30 2138 O 207.942 1.15184 1.40009 0
M  V30 2139 C 207.99 3.34926 -1.33629 0
M  V30 2140 O 207.094 4.09303 -0.504447 0
M  V30 2141 H 206.435 0.583785 -0.316371 0
M  V30 2142 H 208.965 1.4157 -1.47712 0
M  V30 2143 H 208.975 3.8577 -1.32837 0
M  V30 2144 H 207.65 3.40504 -2.3881 0
M  V30 2145 H 206.227 3.68393 -0.577993 0
M  V30 2146 N 208.412 0.89855 1.29475 0
M  V30 2147 C 209.64 0.539261 1.99749 0
M  V30 2148 C 210.055 -0.875716 1.67262 0
M  V30 2149 O 209.412 -1.57786 0.917049 0
M  V30 2150 C 209.463 0.72061 3.54245 0
M  V30 2151 O 209.184 2.07989 3.8558 0
M  V30 2152 C 210.685 0.366118 4.41786 0
M  V30 2153 H 207.905 0.207047 0.638258 0
M  V30 2154 H 210.449 1.20758 1.65039 0
M  V30 2155 H 208.604 0.0994862 3.87272 0
M  V30 2156 H 209.018 2.10841 4.80257 0
M  V30 2157 H 210.492 0.543848 5.49314 0
M  V30 2158 H 210.969 -0.696763 4.33638 0
M  V30 2159 H 211.575 0.964135 4.14228 0
M  V30 2160 N 209.89 -1.43072 0.660911 0
M  V30 2161 C 211.301 -1.84932 0.256348 0
M  V30 2162 C 211.652 -1.55325 -1.19868 0
M  V30 2163 O 210.777 -1.00607 -1.91591 0
M  V30 2164 C 211.372 -3.35684 0.458475 0
M  V30 2165 C 209.931 -3.76245 0.108161 0
M  V30 2166 C 209.078 -2.66749 0.757641 0
M  V30 2167 H 212.029 -1.33116 0.864051 0
M  V30 2168 H 212.05 -3.79365 -0.293683 0
M  V30 2169 H 211.562 -3.572 1.51755 0
M  V30 2170 H 209.663 -3.60338 -0.948014 0
M  V30 2171 H 209.776 -4.76058 0.538992 0
M  V30 2172 H 208.14 -2.53989 0.190185 0
M  V30 2173 H 208.923 -2.91092 1.81989 0
M  V30 2174 N 211.368 -0.403325 -1.52352 0
M  V30 2175 C 212.596 0.174012 -2.06167 0
M  V30 2176 C 213.011 1.39347 -1.27388 0
M  V30 2177 O 212.368 1.79597 -0.324201 0
M  V30 2178 C 212.419 0.530223 -3.5759 0
M  V30 2179 O 212.14 -0.640806 -4.33388 0
M  V30 2180 C 213.641 1.16192 -4.27802 0
M  V30 2181 H 210.861 0.0229464 -0.670608 0
M  V30 2182 H 213.405 -0.572604 -1.9632 0
M  V30 2183 H 211.56 1.22673 -3.67464 0
M  V30 2184 H 211.974 -0.344851 -5.23365 0
M  V30 2185 H 213.448 1.36141 -5.34948 0
M  V30 2186 H 213.925 2.13335 -3.83907 0
M  V30 2187 H 214.531 0.505775 -4.22282 0
M  V30 2188 N 212.846 1.57033 -0.133567 0
M  V30 2189 C 214.074 2.00044 0.528195 0
M  V30 2190 C 214.489 1.01349 1.59291 0
M  V30 2191 O 213.846 0.00848369 1.82498 0
M  V30 2192 C 213.897 3.43018 1.1411 0
M  V30 2193 O 213.618 4.37939 0.11892 0
M  V30 2194 C 215.119 4.01237 1.88477 0
M  V30 2195 H 212.339 0.656517 0.138661 0
M  V30 2196 H 214.883 2.03267 -0.224196 0
M  V30 2197 H 213.038 3.40688 1.84418 0
M  V30 2198 H 213.452 5.21436 0.56613 0
M  V30 2199 H 214.926 5.03314 2.26669 0
M  V30 2200 H 215.403 3.41193 2.76558 0
M  V30 2201 H 216.009 4.07156 1.22898 0
M  V30 2202 N 214.325 -0.140222 1.56975 0
M  V30 2203 C 215.736 -0.699596 1.73097 0
M  V30 2204 C 216.087 -1.8134 0.749022 0
M  V30 2205 O 215.212 -2.16241 -0.0828503 0
M  V30 2206 C 215.807 -1.27582 3.1386 0
M  V30 2207 C 214.366 -1.78169 3.31561 0
M  V30 2208 C 213.513 -0.672855 2.69013 0
M  V30 2209 H 216.464 0.0855115 1.58469 0
M  V30 2210 H 216.485 -2.14561 3.14235 0
M  V30 2211 H 215.997 -0.464955 3.85305 0
M  V30 2212 H 214.098 -2.61801 2.65124 0
M  V30 2213 H 214.211 -1.90574 4.39566 0
M  V30 2214 H 212.575 -1.10118 2.29665 0
M  V30 2215 H 213.358 0.126679 3.43066 0
M  V30 2216 N 215.803 -1.52179 -0.40978 0
M  V30 2217 C 216.766 -1.74853 -1.48186 0
M  V30 2218 C 217.766 -0.618417 -1.48433 0
M  V30 2219 O 218.956 -0.886286 -1.49969 0
M  V30 2220 C 216.088 -1.8303 -2.87598 0
M  V30 2221 H 217.281 -2.70559 -1.29374 0
M  V30 2222 H 214.834 -1.42586 -0.640233 0
M  V30 2223 H 215.569 -0.89236 -3.11781 0
M  V30 2224 H 215.354 -2.65187 -2.88822 0
M  V30 2225 H 216.844 -2.02316 -3.65319 0
M  V30 2226 N 217.281 0.66697 -1.42791 0
M  V30 2227 C 218.528 1.42699 -1.43678 0
M  V30 2228 C 218.856 1.94419 -0.0560425 0
M  V30 2229 O 218.111 1.7182 0.936831 0
M  V30 2230 C 218.41 2.6349 -2.4147 0
M  V30 2231 C 218.076 2.30267 -3.8767 0
M  V30 2232 C 216.738 2.20918 -4.27491 0
M  V30 2233 C 219.09 2.03435 -4.79858 0
M  V30 2234 C 216.418 1.82873 -5.57471 0
M  V30 2235 C 218.77 1.66892 -6.10188 0
M  V30 2236 C 217.434 1.56058 -6.49001 0
M  V30 2237 H 216.704 0.522171 -0.525755 0
M  V30 2238 H 219.351 0.759785 -1.75783 0
M  V30 2239 H 217.656 3.35279 -2.0272 0
M  V30 2240 H 219.353 3.21684 -2.39417 0
M  V30 2241 H 215.943 2.38449 -3.56146 0
M  V30 2242 H 220.127 2.09586 -4.49875 0
M  V30 2243 H 215.383 1.7306 -5.86396 0
M  V30 2244 H 219.557 1.45157 -6.81104 0
M  V30 2245 H 217.184 1.26348 -7.49627 0
M  V30 2246 N 218.759 1.29093 0.90403 0
M  V30 2247 C 220.17 1.15186 1.46932 0
M  V30 2248 C 220.521 -0.254587 1.94541 0
M  V30 2249 O 219.646 -1.14972 1.83332 0
M  V30 2250 C 220.241 2.08492 2.67051 0
M  V30 2251 C 218.8 1.98621 3.19729 0
M  V30 2252 C 217.947 1.9967 1.92425 0
M  V30 2253 H 220.898 1.41641 0.715789 0
M  V30 2254 H 220.919 1.65461 3.42641 0
M  V30 2255 H 220.431 3.10847 2.3237 0
M  V30 2256 H 218.532 0.993389 3.59114 0
M  V30 2257 H 218.645 2.86068 3.8432 0
M  V30 2258 H 217.009 1.44208 2.09943 0
M  V30 2259 H 217.792 3.03721 1.60026 0
M  V30 2260 N 220.237 -1.11381 1.11499 0
M  V30 2261 C 221.648 -1.6465 0.880191 0
M  V30 2262 C 221.999 -1.87199 -0.587434 0
M  V30 2263 O 221.124 -1.60667 -1.44966 0
M  V30 2264 C 221.719 -2.99105 1.59128 0
M  V30 2265 C 220.278 -3.49279 1.40289 0
M  V30 2266 C 219.425 -2.24077 1.63354 0
M  V30 2267 H 222.376 -0.950123 1.27116 0
M  V30 2268 H 222.397 -3.66107 1.03664 0
M  V30 2269 H 221.909 -2.82661 2.65941 0
M  V30 2270 H 220.01 -3.70887 0.356888 0
M  V30 2271 H 220.123 -4.2803 2.15238 0
M  V30 2272 H 218.487 -2.31733 1.05698 0
M  V30 2273 H 219.27 -2.10175 2.71443 0
M  V30 2274 N 221.715 -0.905404 -1.28997 0
M  V30 2275 C 222.647 -0.344748 -2.26592 0
M  V30 2276 C 223.66 0.512135 -1.54535 0
M  V30 2277 O 224.849 0.328368 -1.75454 0
M  V30 2278 C 221.949 0.526587 -3.34784 0
M  V30 2279 C 221.122 -0.305871 -4.36329 0
M  V30 2280 C 220.181 0.499209 -5.23827 0
M  V30 2281 O 219.207 -0.0853004 -5.69136 0
M  V30 2282 N 220.409 1.80408 -5.51755 0
M  V30 2283 H 223.174 -1.18359 -2.75338 0
M  V30 2284 H 220.735 -0.770481 -1.42391 0
M  V30 2285 H 222.727 1.07171 -3.90252 0
M  V30 2286 H 221.297 1.26613 -2.85811 0
M  V30 2287 H 220.517 -1.0324 -3.80441 0
M  V30 2288 H 221.805 -0.875773 -5.01206 0
M  V30 2289 H 221.203 2.3016 -5.16762 0
M  V30 2290 H 219.76 2.29621 -6.10014 0
M  V30 2291 N 223.193 1.4272 -0.668489 0
M  V30 2292 C 224.156 2.292 0.00448567 0
M  V30 2293 C 225.156 1.43001 0.735339 0
M  V30 2294 O 226.346 1.64461 0.57429 0
M  V30 2295 C 223.478 3.25375 1.01705 0
M  V30 2296 H 224.671 2.90199 -0.756608 0
M  V30 2297 H 222.224 1.50254 -0.430506 0
M  V30 2298 H 222.959 2.69301 1.80686 0
M  V30 2299 H 222.744 3.88944 0.496463 0
M  V30 2300 H 224.234 3.90245 1.48655 0
M  V30 2301 N 224.671 0.411399 1.52136 0
M  V30 2302 C 225.919 -0.163322 2.01439 0
M  V30 2303 C 226.24 -1.45453 1.29879 0
M  V30 2304 O 225.51 -1.91225 0.4254 0
M  V30 2305 H 224.09 -0.0633447 0.744309 0
M  V30 2306 H 226.752 0.548161 1.87033 0
M  V30 2307 H 225.848 -0.357817 3.10042 0
M  V30 2308 N 226.149 -1.5696 0.141893 0
M  V30 2309 C 227.112 -2.15316 -0.785587 0
M  V30 2310 C 228.112 -1.09366 -1.1788 0
M  V30 2311 O 229.302 -1.35031 -1.10056 0
M  V30 2312 C 226.434 -2.71211 -2.06537 0
M  V30 2313 H 227.627 -2.98608 -0.278041 0
M  V30 2314 H 225.18 -1.5593 -0.107519 0
M  V30 2315 H 225.915 -1.91571 -2.6167 0
M  V30 2316 H 225.7 -3.4872 -1.79268 0
M  V30 2317 H 227.19 -3.16189 -2.72789 0
M  V30 2318 N 227.627 0.131896 -1.57047 0
M  V30 2319 C 228.557 1.16384 -2.02428 0
M  V30 2320 C 229.538 1.43936 -0.90644 0
M  V30 2321 O 230.723 1.54599 -1.17528 0
M  V30 2322 C 227.853 2.49328 -2.4177 0
M  V30 2323 C 226.807 2.36266 -3.56879 0
M  V30 2324 C 226.133 3.74057 -3.8208 0
M  V30 2325 C 227.433 1.834 -4.89042 0
M  V30 2326 H 229.127 0.786433 -2.88887 0
M  V30 2327 H 226.673 0.376855 -1.38981 0
M  V30 2328 H 228.626 3.21759 -2.7212 0
M  V30 2329 H 227.35 2.88934 -1.52266 0
M  V30 2330 H 226.009 1.66286 -3.26718 0
M  V30 2331 H 225.657 4.11125 -2.89803 0
M  V30 2332 H 225.357 3.66174 -4.59554 0
M  V30 2333 H 226.881 4.48012 -4.1487 0
M  V30 2334 H 228.295 2.45636 -5.18011 0
M  V30 2335 H 226.692 1.8637 -5.70426 0
M  V30 2336 H 227.762 0.790662 -4.7841 0
M  V30 2337 N 229.106 1.52395 0.401703 0
M  V30 2338 C 230.352 1.68019 1.14635 0
M  V30 2339 C 230.707 0.408722 1.88009 0
M  V30 2340 O 230 -0.597133 1.82057 0
M  V30 2341 C 230.194 2.84578 2.16217 0
M  V30 2342 C 230.023 4.22938 1.5282 0
M  V30 2343 C 228.793 4.88352 1.29772 0
M  V30 2344 C 230.991 5.04778 0.985094 0
M  V30 2345 N 228.973 6.10726 0.623455 0
M  V30 2346 C 230.344 6.1845 0.438172 0
M  V30 2347 C 232.399 4.90057 0.880275 0
M  V30 2348 C 231.102 7.19013 -0.203306 0
M  V30 2349 C 233.128 5.9086 0.252639 0
M  V30 2350 C 232.49 7.03829 -0.283573 0
M  V30 2351 H 228.589 0.668413 0.405892 0
M  V30 2352 H 231.173 1.89717 0.437674 0
M  V30 2353 H 229.344 2.64483 2.84435 0
M  V30 2354 H 231.076 2.89202 2.83098 0
M  V30 2355 H 227.831 4.46846 1.56926 0
M  V30 2356 H 228.255 6.76323 0.302733 0
M  V30 2357 H 232.897 4.02938 1.28065 0
M  V30 2358 H 230.615 8.05751 -0.615726 0
M  V30 2359 H 234.201 5.81543 0.172954 0
M  V30 2360 H 233.081 7.80493 -0.761575 0
M  V30 2361 N 230.584 -0.659388 1.43143 0
M  V30 2362 C 231.861 -1.41627 1.34912 0
M  V30 2363 C 232.241 -2.11099 -0.00607785 0
M  V30 2364 O 231.589 -2.04353 -1.02236 0
M  V30 2365 C 231.799 -2.40604 2.52805 0
M  V30 2366 C 233.147 -3.04789 2.95616 0
M  V30 2367 O 234.171 -2.50932 2.52807 0
M  V30 2368 O 233.03 -4.02421 3.69756 0
M  V30 2369 H 230.124 -0.63246 0.532844 0
M  V30 2370 H 232.67 -0.686814 1.5518 0
M  V30 2371 H 231.442 -1.88174 3.43083 0
M  V30 2372 H 231.065 -3.21009 2.34604 0
M  V30 2373 N 232.062 -1.29571 -0.897171 0
M  V30 2374 C 232.972 -1.16808 -2.03453 0
M  V30 2375 C 233.988 -0.0907471 -1.73763 0
M  V30 2376 O 235.164 -0.303312 -1.99103 0
M  V30 2377 C 232.229 -0.848264 -3.36163 0
M  V30 2378 C 231.29 -2.0097 -3.79354 0
M  V30 2379 C 230.523 -1.70505 -5.05731 0
M  V30 2380 O 230.746 -0.62718 -5.66941 0
M  V30 2381 O 229.68 -2.5538 -5.45036 0
M  V30 2382 H 233.506 -2.12325 -2.17144 0
M  V30 2383 H 231.091 -1.09047 -1.02123 0
M  V30 2384 H 232.973 -0.684581 -4.15802 0
M  V30 2385 H 231.648 0.0771071 -3.23608 0
M  V30 2386 H 230.555 -2.22863 -3.00471 0
M  V30 2387 H 231.888 -2.91636 -3.96496 0
M  V30 2388 N 233.54 1.10788 -1.12088 0
M  V30 2389 C 234.503 2.15207 -0.788577 0
M  V30 2390 C 235.503 1.59609 0.195317 0
M  V30 2391 O 236.693 1.74174 -0.0300193 0
M  V30 2392 C 233.825 3.4047 -0.171174 0
M  V30 2393 H 235.018 2.46116 -1.71368 0
M  V30 2394 H 232.571 1.26089 -0.923652 0
M  V30 2395 H 233.306 3.15176 0.763832 0
M  V30 2396 H 233.091 3.82109 -0.879514 0
M  V30 2397 H 234.581 4.17576 0.04496 0
M  V30 2398 N 235.018 0.912232 1.28515 0
M  V30 2399 C 235.948 0.416403 2.29757 0
M  V30 2400 C 236.929 -0.515194 1.6211 0
M  V30 2401 O 238.114 -0.423253 1.89532 0
M  V30 2402 C 235.244 -0.34572 3.45575 0
M  V30 2403 C 234.198 0.496599 4.25109 0
M  V30 2404 C 233.524 -0.393771 5.33248 0
M  V30 2405 C 234.824 1.75307 4.92001 0
M  V30 2406 H 236.518 1.26249 2.7148 0
M  V30 2407 H 234.064 0.608515 1.30511 0
M  V30 2408 H 236.017 -0.703422 4.15488 0
M  V30 2409 H 234.741 -1.2257 3.02728 0
M  V30 2410 H 233.4 0.8368 3.56922 0
M  V30 2411 H 233.048 -1.27225 4.86644 0
M  V30 2412 H 232.748 0.166209 5.87365 0
M  V30 2413 H 234.272 -0.747389 6.06009 0
M  V30 2414 H 235.686 1.46437 5.54283 0
M  V30 2415 H 234.083 2.25534 5.56106 0
M  V30 2416 H 235.153 2.48176 4.16577 0
M  V30 2417 N 236.496 -1.42363 0.676048 0
M  V30 2418 C 237.907 -1.84649 0.275948 0
M  V30 2419 C 238.258 -1.56588 -1.18214 0
M  V30 2420 O 237.383 -1.02634 -1.90513 0
M  V30 2421 C 237.978 -3.35178 0.494053 0
M  V30 2422 C 236.537 -3.76109 0.148061 0
M  V30 2423 C 235.684 -2.65931 0.785891 0
M  V30 2424 H 238.635 -1.32192 0.878121 0
M  V30 2425 H 238.656 -3.79655 -0.25343 0
M  V30 2426 H 238.168 -3.55571 1.55535 0
M  V30 2427 H 236.269 -3.61323 -0.909742 0
M  V30 2428 H 236.382 -4.7546 0.589454 0
M  V30 2429 H 234.746 -2.53773 0.217113 0
M  V30 2430 H 235.529 -2.89146 1.85067 0
M  V30 2431 N 237.974 -0.419461 -1.51915 0
M  V30 2432 C 239.199 0.154572 -2.06823 0
M  V30 2433 C 239.624 1.3722 -1.28656 0
M  V30 2434 O 238.982 1.78461 -0.319583 0
M  V30 2435 C 239.03 0.473172 -3.57482 0
M  V30 2436 O 238.134 1.56255 -3.81652 0
M  V30 2437 H 237.475 0.0096924 -0.663929 0
M  V30 2438 H 240.005 -0.595642 -1.95738 0
M  V30 2439 H 240.015 0.728825 -4.01438 0
M  V30 2440 H 238.69 -0.416873 -4.13805 0
M  V30 2441 H 237.267 1.29825 -3.49571 0
M  V30 2442 N 239.452 1.56882 -0.150215 0
M  V30 2443 C 240.415 2.1573 0.774157 0
M  V30 2444 C 241.415 1.0999 1.17298 0
M  V30 2445 O 242.605 1.35613 1.09338 0
M  V30 2446 C 239.737 2.72302 2.05096 0
M  V30 2447 H 240.93 2.98752 0.262201 0
M  V30 2448 H 238.483 1.55985 0.099248 0
M  V30 2449 H 239.218 1.92956 2.6065 0
M  V30 2450 H 239.003 3.49665 1.77416 0
M  V30 2451 H 240.493 3.17632 2.71109 0
M  V30 2452 N 240.93 -0.123565 1.57115 0
M  V30 2453 C 242.341 -0.681198 1.73829 0
M  V30 2454 C 242.692 -1.80535 0.768214 0
M  V30 2455 O 241.817 -2.16317 -0.0599103 0
M  V30 2456 C 242.412 -1.24246 3.15196 0
M  V30 2457 C 240.971 -1.74643 3.33432 0
M  V30 2458 C 240.118 -0.644284 2.69711 0
M  V30 2459 H 243.069 0.102315 1.5837 0
M  V30 2460 H 243.09 -2.11216 3.16493 0
M  V30 2461 H 242.602 -0.424062 3.85776 0
M  V30 2462 H 240.703 -2.58974 2.67886 0
M  V30 2463 H 240.816 -1.85902 4.41562 0
M  V30 2464 H 239.18 -1.07676 2.3082 0
M  V30 2465 H 239.963 0.163058 3.42913 0
M  V30 2466 N 242.408 -1.52605 -0.393616 0
M  V30 2467 C 243.656 -1.67093 -1.13685 0
M  V30 2468 C 243.977 -0.411011 -1.90619 0
M  V30 2469 O 243.247 0.574491 -1.87287 0
M  V30 2470 H 241.827 -0.615923 -0.422668 0
M  V30 2471 H 244.489 -1.89704 -0.447039 0
M  V30 2472 H 243.585 -2.51922 -1.84232 0
M  V30 2473 N 243.887 0.651787 -1.4349 0
M  V30 2474 C 245.127 1.42345 -1.46688 0
M  V30 2475 C 245.491 1.91793 -0.0891023 0
M  V30 2476 O 246.692 2.688 0.00423594 0
M  V30 2477 C 244.963 2.57221 -2.48137 0
M  V30 2478 S 246.522 3.45725 -2.70221 0
M  V30 2479 H 243.34 0.485878 -0.51908 0
M  V30 2480 H 245.942 0.756578 -1.80267 0
M  V30 2481 H 244.646 2.1917 -3.46976 0
M  V30 2482 H 244.177 3.28757 -2.16061 0
M  V30 2483 H 246.192 4.53996 -2.00255 0
M  V30 2484 N 245.365 1.30045 0.890287 0
M  V30 2485 C 246.614 1.17929 1.63633 0
M  V30 2486 C 246.927 -0.266204 1.9378 0
M  V30 2487 O 248.133 -0.508804 2.6669 0
M  V30 2488 C 246.589 2.06317 2.94892 0
M  V30 2489 C 246.197 3.55745 2.72305 0
M  V30 2490 C 247.941 2.0295 3.72843 0
M  V30 2491 C 245.848 4.36205 3.99348 0
M  V30 2492 H 244.778 0.437782 0.613892 0
M  V30 2493 H 247.429 1.54754 0.986075 0
M  V30 2494 H 245.811 1.6237 3.61182 0
M  V30 2495 H 246.985 4.07805 2.1455 0
M  V30 2496 H 245.3 3.6088 2.07737 0
M  V30 2497 H 247.897 2.60319 4.67053 0
M  V30 2498 H 248.24 1.0117 4.0382 0
M  V30 2499 H 248.773 2.4499 3.13408 0
M  V30 2500 H 245.512 5.38659 3.73533 0
M  V30 2501 H 245.032 3.8891 4.56628 0
M  V30 2502 H 246.711 4.47362 4.67415 0
M  V30 2503 N 246.843 -1.10192 1.12674 0
M  V30 2504 C 247.806 -2.14786 0.799979 0
M  V30 2505 C 248.806 -1.59711 -0.18685 0
M  V30 2506 O 249.996 -1.74156 0.0392558 0
M  V30 2507 C 247.128 -3.40374 0.189228 0
M  V30 2508 H 248.321 -2.45203 1.72671 0
M  V30 2509 H 245.874 -1.25597 0.930326 0
M  V30 2510 H 246.609 -3.15577 -0.747107 0
M  V30 2511 H 246.394 -3.81637 0.899766 0
M  V30 2512 H 247.884 -4.17594 -0.0228143 0
M  V30 2513 N 248.321 -0.919034 -1.28029 0
M  V30 2514 C 249.732 -0.600735 -1.76771 0
M  V30 2515 C 250.083 0.884024 -1.75156 0
M  V30 2516 O 249.208 1.69163 -1.34956 0
M  V30 2517 C 249.803 -1.08372 -3.21 0
M  V30 2518 C 248.362 -0.816248 -3.67443 0
M  V30 2519 C 247.509 -1.24742 -2.47658 0
M  V30 2520 H 250.46 -1.09974 -1.14418 0
M  V30 2521 H 250.481 -0.427512 -3.78091 0
M  V30 2522 H 249.993 -2.16437 -3.22144 0
M  V30 2523 H 248.094 0.250968 -3.71754 0
M  V30 2524 H 248.207 -1.4277 -4.57333 0
M  V30 2525 H 246.571 -0.666083 -2.45836 0
M  V30 2526 H 247.354 -2.33653 -2.51518 0
M  V30 2527 N 249.799 1.42003 -0.683588 0
M  V30 2528 C 251.047 2.01015 -0.209101 0
M  V30 2529 C 251.368 1.54365 1.19149 0
M  V30 2530 O 250.638 0.769083 1.80172 0
M  V30 2531 H 249.218 0.743294 -0.074315 0
M  V30 2532 H 251.88 1.73798 -0.882066 0
M  V30 2533 H 250.976 3.11343 -0.2172 0
M  V30 2534 N 251.277 0.427512 1.51691 0
M  V30 2535 C 252.688 -0.0378867 1.86662 0
M  V30 2536 C 253.039 -1.42819 1.34525 0
M  V30 2537 O 252.164 -2.05037 0.692014 0
M  V30 2538 C 252.759 -0.0755266 3.38716 0
M  V30 2539 C 251.318 -0.485309 3.73258 0
M  V30 2540 C 250.465 0.328399 2.75349 0
M  V30 2541 H 253.416 0.64379 1.45055 0
M  V30 2542 H 253.437 -0.887056 3.70016 0
M  V30 2543 H 252.949 0.936487 3.76632 0
M  V30 2544 H 251.05 -1.50329 3.40928 0
M  V30 2545 H 251.163 -0.21693 4.78609 0
M  V30 2546 H 249.527 -0.211905 2.53817 0
M  V30 2547 H 250.31 1.3391 3.16106 0
M  V30 2548 N 252.755 -1.56801 0.158532 0
M  V30 2549 C 253.685 -2.20347 -0.772609 0
M  V30 2550 C 254.666 -1.15518 -1.24859 0
M  V30 2551 O 255.851 -1.43902 -1.30406 0
M  V30 2552 C 252.981 -2.83417 -2.00729 0
M  V30 2553 C 251.935 -3.94174 -1.66765 0
M  V30 2554 C 251.261 -4.44233 -2.97592 0
M  V30 2555 C 252.561 -5.14392 -0.905447 0
M  V30 2556 H 254.255 -2.98413 -0.242959 0
M  V30 2557 H 251.801 -1.43537 -0.115419 0
M  V30 2558 H 253.754 -3.26543 -2.6636 0
M  V30 2559 H 252.478 -2.02701 -2.56086 0
M  V30 2560 H 251.137 -3.51684 -1.03508 0
M  V30 2561 H 250.785 -3.60325 -3.50963 0
M  V30 2562 H 250.485 -5.18945 -2.75626 0
M  V30 2563 H 252.009 -4.90037 -3.64274 0
M  V30 2564 H 253.423 -5.5429 -1.46408 0
M  V30 2565 H 251.82 -5.9494 -0.7853 0
M  V30 2566 H 252.89 -4.84795 0.100668 0
M  V30 2567 N 254.233 0.115231 -1.57178 0
M  V30 2568 C 255.163 1.1423 -2.03651 0
M  V30 2569 C 256.144 1.42967 -0.921655 0
M  V30 2570 O 257.329 1.53343 -1.19162 0
M  V30 2571 C 254.459 2.4675 -2.44401 0
M  V30 2572 C 253.413 2.32467 -3.59365 0
M  V30 2573 C 252.739 3.69984 -3.86026 0
M  V30 2574 C 254.039 1.78203 -4.90959 0
M  V30 2575 H 255.733 0.755749 -2.89705 0
M  V30 2576 H 253.279 0.362093 -1.39373 0
M  V30 2577 H 255.232 3.18854 -2.75517 0
M  V30 2578 H 253.956 2.87302 -1.55322 0
M  V30 2579 H 252.615 1.62811 -3.28463 0
M  V30 2580 H 252.263 4.08028 -2.94147 0
M  V30 2581 H 251.963 3.61279 -4.63412 0
M  V30 2582 H 253.487 4.43587 -4.19599 0
M  V30 2583 H 254.901 2.40128 -5.20587 0
M  V30 2584 H 253.298 1.8031 -5.72371 0
M  V30 2585 H 254.368 0.739876 -4.79222 0
M  V30 2586 N 255.711 1.52812 0.385517 0
M  V30 2587 C 256.988 1.5861 1.14465 0
M  V30 2588 C 257.368 0.381402 2.07626 0
M  V30 2589 O 256.716 -0.629999 2.19643 0
M  V30 2590 C 256.926 2.92664 1.90128 0
M  V30 2591 C 258.274 3.46526 2.45367 0
M  V30 2592 O 259.298 2.94562 2.0028 0
M  V30 2593 O 258.157 4.37323 3.27736 0
M  V30 2594 H 255.251 0.639855 0.523941 0
M  V30 2595 H 257.797 1.65149 0.390389 0
M  V30 2596 H 256.569 3.71788 1.22022 0
M  V30 2597 H 256.192 2.89527 2.72507 0
M  V30 2598 N 257.189 -0.644168 1.43834 0
M  V30 2599 C 258.6 -1.22554 1.40845 0
M  V30 2600 C 258.951 -1.9585 0.117115 0
M  V30 2601 O 258.076 -2.01734 -0.783086 0
M  V30 2602 C 258.671 -2.22907 2.55143 0
M  V30 2603 C 257.23 -2.76501 2.5539 0
M  V30 2604 C 256.377 -1.51287 2.32396 0
M  V30 2605 H 259.328 -0.43563 1.52604 0
M  V30 2606 H 259.349 -3.05259 2.2715 0
M  V30 2607 H 258.861 -1.69533 3.49114 0
M  V30 2608 H 256.962 -3.33914 1.65324 0
M  V30 2609 H 257.075 -3.23429 3.53455 0
M  V30 2610 H 255.439 -1.78957 1.81236 0
M  V30 2611 H 256.222 -0.998336 3.28463 0
M  V30 2612 N 258.668 -1.30515 -0.883378 0
M  V30 2613 C 260.079 -1.17509 -1.45081 0
M  V30 2614 C 260.43 0.223605 -1.94922 0
M  V30 2615 O 259.555 1.12041 -1.85137 0
M  V30 2616 C 260.15 -2.12715 -2.63701 0
M  V30 2617 C 258.709 -2.03682 -3.16529 0
M  V30 2618 C 257.856 -2.02706 -1.89224 0
M  V30 2619 H 260.807 -1.42762 -0.693165 0
M  V30 2620 H 260.828 -1.70891 -3.39965 0
M  V30 2621 H 260.34 -3.14505 -2.27395 0
M  V30 2622 H 258.441 -1.05039 -3.57488 0
M  V30 2623 H 258.554 -2.92146 -3.7972 0
M  V30 2624 H 256.918 -1.4753 -2.07622 0
M  V30 2625 H 257.701 -3.06229 -1.55174 0
M  V30 2626 N 260.146 1.09593 -1.13257 0
M  V30 2627 C 261.079 2.15451 -0.752061 0
M  V30 2628 C 262.057 1.60493 0.260913 0
M  V30 2629 O 263.241 1.8788 0.152819 0
M  V30 2630 C 260.368 3.38506 -0.114594 0
M  V30 2631 C 259.414 4.12183 -1.09579 0
M  V30 2632 S 260.247 4.6661 -2.62745 0
M  V30 2633 C 261.403 5.92966 -2.00354 0
M  V30 2634 H 261.636 2.47395 -1.64872 0
M  V30 2635 H 259.169 1.21515 -0.952545 0
M  V30 2636 H 261.127 4.09757 0.246808 0
M  V30 2637 H 259.788 3.04784 0.759309 0
M  V30 2638 H 258.981 5.00445 -0.597545 0
M  V30 2639 H 258.583 3.46785 -1.40057 0
M  V30 2640 H 260.875 6.63882 -1.35156 0
M  V30 2641 H 261.818 6.47467 -2.86691 0
M  V30 2642 H 262.226 5.45405 -1.4558 0
M  V30 2643 N 261.624 0.925811 1.2754 0
M  V30 2644 C 262.571 0.422045 2.26908 0
M  V30 2645 C 263.541 -0.510029 1.58076 0
M  V30 2646 O 264.726 -0.429599 1.85901 0
M  V30 2647 C 261.866 -0.320837 3.43605 0
M  V30 2648 C 260.979 0.64513 4.27156 0
M  V30 2649 C 260.114 -0.117405 5.3107 0
M  V30 2650 C 259.153 0.841391 6.0629 0
M  V30 2651 N 258.29 0.111604 7.02011 0
M  V30 2652 H 263.13 1.27441 2.69375 0
M  V30 2653 H 260.667 0.639697 1.32462 0
M  V30 2654 H 262.625 -0.76785 4.10073 0
M  V30 2655 H 261.255 -1.13745 3.02096 0
M  V30 2656 H 260.307 1.21067 3.6062 0
M  V30 2657 H 261.619 1.37797 4.79389 0
M  V30 2658 H 260.773 -0.624422 6.03478 0
M  V30 2659 H 259.512 -0.883219 4.79636 0
M  V30 2660 H 258.517 1.35967 5.32722 0
M  V30 2661 H 259.742 1.60696 6.59813 0
M  V30 2662 H 257.688 -0.635999 6.5291 0
M  V30 2663 H 257.605 0.784044 7.51923 0
M  V30 2664 H 258.873 -0.374823 7.78598 0
M  V30 2665 N 263.102 -1.41638 0.69111 0
M  V30 2666 C 264.065 -2.29178 0.0319786 0
M  V30 2667 C 265.065 -1.44153 -0.712496 0
M  V30 2668 O 266.255 -1.65354 -0.548053 0
M  V30 2669 C 263.387 -3.26952 -0.965161 0
M  V30 2670 H 264.58 -2.88959 0.802681 0
M  V30 2671 H 262.133 -1.4955 0.454356 0
M  V30 2672 H 262.868 -2.72142 -1.76378 0
M  V30 2673 H 262.653 -3.89685 -0.434522 0
M  V30 2674 H 264.143 -3.92561 -1.42428 0
M  V30 2675 N 264.58 -0.43555 -1.51462 0
M  V30 2676 C 265.826 0.131709 -2.02372 0
M  V30 2677 C 266.159 1.42516 -1.3192 0
M  V30 2678 O 265.434 1.89606 -0.433573 0
M  V30 2679 C 265.717 0.352301 -3.58373 0
M  V30 2680 C 265.57 -0.959676 -4.39443 0
M  V30 2681 C 266.889 1.12286 -4.25535 0
M  V30 2682 H 264.008 0.0463936 -0.735538 0
M  V30 2683 H 266.65 -0.574197 -1.81116 0
M  V30 2684 H 264.8 0.9536 -3.76615 0
M  V30 2685 H 266.472 -1.59482 -4.32855 0
M  V30 2686 H 264.715 -1.56468 -4.04599 0
M  V30 2687 H 265.386 -0.759394 -5.46752 0
M  V30 2688 H 267.862 0.613545 -4.11552 0
M  V30 2689 H 266.738 1.24598 -5.34571 0
M  V30 2690 H 266.999 2.15048 -3.86273 0
M  V30 2691 N 266.058 1.56714 -0.166846 0
M  V30 2692 C 267.469 1.83378 0.350646 0
M  V30 2693 C 267.82 1.08646 1.63372 0
M  V30 2694 O 266.945 0.338058 2.13743 0
M  V30 2695 C 267.54 3.32643 0.642963 0
M  V30 2696 C 266.099 3.59818 1.10491 0
M  V30 2697 C 265.246 2.76954 0.138411 0
M  V30 2698 H 268.197 1.53803 -0.391193 0
M  V30 2699 H 268.218 3.49878 1.49551 0
M  V30 2700 H 267.73 3.87007 -0.291055 0
M  V30 2701 H 265.831 3.1086 2.05418 0
M  V30 2702 H 265.944 4.68178 1.01716 0
M  V30 2703 H 264.308 2.4666 0.634911 0
M  V30 2704 H 265.091 3.34097 -0.789549 0
M  V30 2705 N 267.536 -0.106894 1.57237 0
M  V30 2706 C 268.764 -0.826389 1.8968 0
M  V30 2707 C 269.179 -1.72856 0.759353 0
M  V30 2708 O 268.536 -1.80503 -0.269263 0
M  V30 2709 C 268.587 -1.64967 3.21665 0
M  V30 2710 O 268.308 -0.783804 4.31031 0
M  V30 2711 C 269.809 -2.47326 3.67892 0
M  V30 2712 H 267.029 -0.236927 0.627779 0
M  V30 2713 H 269.573 -0.0876593 2.04312 0
M  V30 2714 H 267.728 -2.34103 3.08666 0
M  V30 2715 H 268.142 -1.35284 5.06753 0
M  V30 2716 H 269.616 -3.00604 4.6297 0
M  V30 2717 H 270.093 -3.25247 2.95146 0
M  V30 2718 H 270.699 -1.83411 3.83719 0
M  V30 2719 N 269.014 -1.53014 -0.377408 0
M  V30 2720 C 270.26 -1.68872 -1.12294 0
M  V30 2721 C 270.593 -0.433224 -1.89306 0
M  V30 2722 O 269.868 0.569258 -1.85983 0
M  V30 2723 C 270.151 -2.93115 -2.09179 0
M  V30 2724 C 270.004 -4.28794 -1.35853 0
M  V30 2725 C 271.323 -3.12928 -3.09458 0
M  V30 2726 H 268.442 -0.614518 -0.406862 0
M  V30 2727 H 271.084 -1.85633 -0.40503 0
M  V30 2728 H 269.234 -2.78956 -2.70399 0
M  V30 2729 H 270.906 -4.54742 -0.775082 0
M  V30 2730 H 269.149 -4.28744 -0.660364 0
M  V30 2731 H 269.82 -5.11837 -2.06706 0
M  V30 2732 H 272.296 -3.26194 -2.58334 0
M  V30 2733 H 271.172 -4.01316 -3.74482 0
M  V30 2734 H 271.433 -2.27669 -3.78971 0
M  V30 2735 N 270.492 0.636531 -1.44174 0
M  V30 2736 C 271.455 1.73063 -1.50273 0
M  V30 2737 C 272.455 1.56113 -0.385397 0
M  V30 2738 O 273.645 1.61707 -0.64781 0
M  V30 2739 C 270.777 3.12096 -1.37145 0
M  V30 2740 H 271.97 1.69031 -2.47727 0
M  V30 2741 H 269.523 0.849706 -1.31186 0
M  V30 2742 H 270.258 3.21728 -0.407636 0
M  V30 2743 H 270.043 3.25805 -2.18159 0
M  V30 2744 H 271.533 3.91846 -1.44382 0
M  V30 2745 N 271.97 1.30982 0.876444 0
M  V30 2746 C 273.218 1.20058 1.62575 0
M  V30 2747 C 273.539 -0.242947 1.93481 0
M  V30 2748 O 272.809 -1.1619 1.57724 0
M  V30 2749 H 271.389 0.44135 0.602677 0
M  V30 2750 H 274.051 1.64222 1.04962 0
M  V30 2751 H 273.147 1.76762 2.57219 0
M  V30 2752 N 273.449 -1.08991 1.13837 0
M  V30 2753 C 274.412 -2.13925 0.822715 0
M  V30 2754 C 275.412 -1.599 -0.1699 0
M  V30 2755 O 276.602 -1.74104 0.0577251 0
M  V30 2756 C 273.734 -3.40155 0.225318 0
M  V30 2757 H 274.927 -2.43358 1.75262 0
M  V30 2758 H 272.48 -1.24603 0.943594 0
M  V30 2759 H 273.215 -3.16352 -0.713594 0
M  V30 2760 H 273 -3.80661 0.940193 0
M  V30 2761 H 274.49 -4.17594 0.0214784 0
M  V30 2762 N 274.927 -0.932562 -1.27047 0
M  V30 2763 C 276.343 -0.633544 -1.46487 0
M  V30 2764 C 276.543 0.815746 -1.84249 0
M  V30 2765 O 275.599 1.59319 -1.95892 0
M  V30 2766 C 276.912 -1.58758 -2.55375 0
M  V30 2767 C 278.46 -1.59634 -2.69232 0
M  V30 2768 C 278.935 -2.53747 -3.81283 0
M  V30 2769 N 280.426 -2.51982 -3.88664 0
M  V30 2770 C 281.161 -3.21491 -4.74796 0
M  V30 2771 N 280.657 -4.00395 -5.65381 0
M  V30 2772 N 282.45 -3.10485 -4.68568 0
M  V30 2773 H 274.601 -1.86946 -1.00821 0
M  V30 2774 H 276.864 -0.802897 -0.504044 0
M  V30 2775 H 276.57 -2.62172 -2.34432 0
M  V30 2776 H 276.444 -1.33301 -3.52861 0
M  V30 2777 H 278.831 -0.569488 -2.89553 0
M  V30 2778 H 278.912 -1.89142 -1.72218 0
M  V30 2779 H 278.556 -3.56545 -3.61715 0
M  V30 2780 H 278.486 -2.21532 -4.77735 0
M  V30 2781 H 280.977 -1.94681 -3.23895 0
M  V30 2782 H 281.29 -4.50406 -6.27976 0
M  V30 2783 H 279.635 -4.04498 -5.65161 0
M  V30 2784 H 282.826 -2.48331 -3.96799 0
M  V30 2785 H 282.999 -3.64925 -5.35475 0
M  V30 2786 N 276.405 1.4127 -0.698611 0
M  V30 2787 C 277.652 2.0118 -0.230865 0
M  V30 2788 C 277.98 1.55338 1.17049 0
M  V30 2789 O 277.235 0.756775 1.80475 0
M  V30 2790 C 277.534 3.56592 -0.240192 0
M  V30 2791 C 277.2 4.21955 -1.58948 0
M  V30 2792 C 275.862 4.39524 -1.95887 0
M  V30 2793 C 278.214 4.58576 -2.47704 0
M  V30 2794 C 275.542 4.90992 -3.2116 0
M  V30 2795 C 277.894 5.11435 -3.72313 0
M  V30 2796 C 276.558 5.27215 -4.0939 0
M  V30 2797 H 275.828 0.736169 -0.0844796 0
M  V30 2798 H 278.475 1.69124 -0.8983 0
M  V30 2799 H 276.78 3.88456 0.510797 0
M  V30 2800 H 278.477 4.00758 0.139296 0
M  V30 2801 H 275.067 4.08657 -1.29219 0
M  V30 2802 H 279.251 4.44654 -2.20445 0
M  V30 2803 H 274.507 5.01393 -3.49878 0
M  V30 2804 H 278.681 5.38752 -4.4127 0
M  V30 2805 H 276.308 5.66859 -5.06533 0
M  V30 2806 N 277.883 0.443576 1.51229 0
M  V30 2807 C 279.294 -0.0180867 1.86691 0
M  V30 2808 C 279.645 -1.41384 1.36033 0
M  V30 2809 O 278.77 -2.04291 0.713722 0
M  V30 2810 C 279.365 -0.039597 3.38777 0
M  V30 2811 C 277.924 -0.445692 3.73752 0
M  V30 2812 C 277.071 0.357584 2.74985 0
M  V30 2813 H 280.022 0.659138 1.44364 0
M  V30 2814 H 280.043 -0.847761 3.70936 0
M  V30 2815 H 279.555 0.976382 3.75617 0
M  V30 2816 H 277.656 -1.46704 3.42503 0
M  V30 2817 H 277.769 -0.166155 4.78812 0
M  V30 2818 H 276.133 -0.184973 2.54027 0
M  V30 2819 H 276.916 1.37256 3.14668 0
M  V30 2820 N 279.361 -1.56624 0.175154 0
M  V30 2821 C 280.291 -2.21155 -0.749195 0
M  V30 2822 C 281.272 -1.16836 -1.23626 0
M  V30 2823 O 282.457 -1.45277 -1.28873 0
M  V30 2824 C 279.587 -2.8553 -1.97711 0
M  V30 2825 C 278.541 -3.95921 -1.62575 0
M  V30 2826 C 277.867 -4.47365 -2.92864 0
M  V30 2827 C 279.167 -5.15323 -0.850838 0
M  V30 2828 H 280.861 -2.98653 -0.211295 0
M  V30 2829 H 278.407 -1.43651 -0.100188 0
M  V30 2830 H 280.36 -3.2935 -2.62881 0
M  V30 2831 H 279.084 -2.05406 -2.53921 0
M  V30 2832 H 277.743 -3.52762 -0.997719 0
M  V30 2833 H 277.391 -3.64027 -3.47122 0
M  V30 2834 H 277.091 -5.21839 -2.70106 0
M  V30 2835 H 278.615 -4.93873 -3.59056 0
M  V30 2836 H 280.029 -5.55812 -1.40521 0
M  V30 2837 H 278.426 -5.95739 -0.722154 0
M  V30 2838 H 279.496 -4.84661 0.152082 0
M  V30 2839 N 280.839 0.0985539 -1.57292 0
M  V30 2840 C 282.086 0.802678 -1.85912 0
M  V30 2841 C 282.414 1.78901 -0.763186 0
M  V30 2842 O 281.669 1.94178 0.243559 0
M  V30 2843 C 281.968 1.56927 -3.21105 0
M  V30 2844 C 281.634 0.725376 -4.45027 0
M  V30 2845 C 280.296 0.492726 -4.78671 0
M  V30 2846 C 282.648 0.138493 -5.21016 0
M  V30 2847 C 279.976 -0.336727 -5.85733 0
M  V30 2848 C 282.328 -0.678264 -6.28953 0
M  V30 2849 C 280.992 -0.921039 -6.61115 0
M  V30 2850 H 280.262 0.293721 -0.680301 0
M  V30 2851 H 282.909 0.0642841 -1.91392 0
M  V30 2852 H 281.214 2.37914 -3.11294 0
M  V30 2853 H 282.911 2.11841 -3.40477 0
M  V30 2854 H 279.501 0.916815 -4.18679 0
M  V30 2855 H 283.685 0.305404 -4.95359 0
M  V30 2856 H 278.941 -0.533836 -6.09065 0
M  V30 2857 H 283.115 -1.1399 -6.87007 0
M  V30 2858 H 280.742 -1.56556 -7.43905 0
M  V30 2859 N 282.317 1.53212 0.369288 0
M  V30 2860 C 283.267 1.75769 1.45222 0
M  V30 2861 C 284.251 0.612136 1.48801 0
M  V30 2862 O 285.443 0.870674 1.54105 0
M  V30 2863 C 282.572 1.94769 2.82701 0
M  V30 2864 C 281.658 3.15315 2.83615 0
M  V30 2865 N 282.049 4.37295 2.54178 0
M  V30 2866 C 280.347 3.15962 3.14776 0
M  V30 2867 C 281.048 5.19015 2.62675 0
M  V30 2868 N 280.024 4.55142 2.97232 0
M  V30 2869 H 283.826 2.67691 1.2132 0
M  V30 2870 H 281.34 1.51787 0.577438 0
M  V30 2871 H 283.337 2.09056 3.60696 0
M  V30 2872 H 281.997 1.04073 3.07569 0
M  V30 2873 H 283.008 4.65091 2.27839 0
M  V30 2874 H 279.685 2.35144 3.44983 0
M  V30 2875 H 281.075 6.26305 2.43294 0
M  V30 2876 N 283.795 -0.628877 1.44509 0
M  V30 2877 C 285.042 -1.38839 1.47411 0
M  V30 2878 C 285.37 -1.94202 0.10757 0
M  V30 2879 O 284.625 -1.74243 -0.890947 0
M  V30 2880 C 284.924 -2.56995 2.48371 0
M  V30 2881 C 284.59 -2.19908 3.93639 0
M  V30 2882 C 283.252 -2.09506 4.33198 0
M  V30 2883 C 285.604 -1.9064 4.85083 0
M  V30 2884 C 282.932 -1.68028 5.62124 0
M  V30 2885 C 285.284 -1.50655 6.14399 0
M  V30 2886 C 283.948 -1.38796 6.5291 0
M  V30 2887 H 283.218 -0.508048 0.539414 0
M  V30 2888 H 285.865 -0.712913 1.77735 0
M  V30 2889 H 284.17 -3.29786 2.11538 0
M  V30 2890 H 285.867 -3.15223 2.47861 0
M  V30 2891 H 282.457 -2.28922 3.62343 0
M  V30 2892 H 286.641 -1.97585 4.55273 0
M  V30 2893 H 281.897 -1.57452 5.90778 0
M  V30 2894 H 286.071 -1.27048 6.84713 0
M  V30 2895 H 283.698 -1.06429 7.52713 0
M  V30 2896 N 285.273 -1.31445 -0.869486 0
M  V30 2897 C 286.22 -1.19135 -1.97675 0
M  V30 2898 C 287.19 -0.0770266 -1.65921 0
M  V30 2899 O 288.375 -0.249972 -1.89155 0
M  V30 2900 C 285.515 -0.905149 -3.33018 0
M  V30 2901 C 284.628 -2.10285 -3.77365 0
M  V30 2902 C 283.763 -1.75339 -5.01427 0
M  V30 2903 C 282.802 -2.91515 -5.38224 0
M  V30 2904 N 281.939 -2.56762 -6.53466 0
M  V30 2905 H 286.779 -2.13853 -2.07535 0
M  V30 2906 H 284.316 -1.06379 -1.01597 0
M  V30 2907 H 286.274 -0.719765 -4.10944 0
M  V30 2908 H 284.904 0.00519624 -3.228 0
M  V30 2909 H 283.956 -2.39899 -2.95216 0
M  V30 2910 H 285.268 -2.97237 -4.00564 0
M  V30 2911 H 284.422 -1.53266 -5.87022 0
M  V30 2912 H 283.161 -0.855801 -4.80133 0
M  V30 2913 H 282.166 -3.14237 -4.51149 0
M  V30 2914 H 283.391 -3.81985 -5.61484 0
M  V30 2915 H 281.337 -1.69526 -6.33717 0
M  V30 2916 H 281.254 -3.37243 -6.76612 0
M  V30 2917 H 282.522 -2.38083 -7.42251 0
M  V30 2918 N 286.751 1.08385 -1.14413 0
M  V30 2919 C 288.162 1.62258 -0.923535 0
M  V30 2920 C 288.513 1.88691 0.537595 0
M  V30 2921 O 287.638 1.64454 1.40655 0
M  V30 2922 C 288.233 2.94781 -1.67002 0
M  V30 2923 C 286.792 3.45437 -1.495 0
M  V30 2924 C 285.939 2.19668 -1.69238 0
M  V30 2925 H 288.89 0.916086 -1.2959 0
M  V30 2926 H 288.911 3.63229 -1.13334 0
M  V30 2927 H 288.423 2.7551 -2.73342 0
M  V30 2928 H 286.524 3.6981 -0.455097 0
M  V30 2929 H 286.637 4.22173 -2.2651 0
M  V30 2930 H 285.001 2.28849 -1.11804 0
M  V30 2931 H 285.784 2.02905 -2.7692 0
M  V30 2932 N 288.23 0.939286 1.26551 0
M  V30 2933 C 289.455 0.602008 1.98471 0
M  V30 2934 C 289.88 -0.815624 1.69497 0
M  V30 2935 O 289.238 -1.54912 0.941905 0
M  V30 2936 C 289.286 0.848407 3.50477 0
M  V30 2937 O 288.39 -0.0804009 4.12322 0
M  V30 2938 H 287.731 0.23049 0.622712 0
M  V30 2939 H 290.261 1.2617 1.61066 0
M  V30 2940 H 290.271 0.768553 4.00696 0
M  V30 2941 H 288.946 1.88171 3.70897 0
M  V30 2942 H 287.523 0.0503508 3.72866 0
M  V30 2943 N 289.708 -1.40897 0.706093 0
M  V30 2944 C 291.119 -1.84023 0.315052 0
M  V30 2945 C 291.47 -1.5906 -1.14866 0
M  V30 2946 O 290.595 -1.06651 -1.88293 0
M  V30 2947 C 291.19 -3.34055 0.565038 0
M  V30 2948 C 289.749 -3.7571 0.227806 0
M  V30 2949 C 288.896 -2.64204 0.842122 0
M  V30 2950 H 291.847 -1.303 0.905963 0
M  V30 2951 H 291.868 -3.80107 -0.172843 0
M  V30 2952 H 291.38 -3.52192 1.63042 0
M  V30 2953 H 289.481 -3.63172 -0.832895 0
M  V30 2954 H 289.594 -4.74103 0.690174 0
M  V30 2955 H 287.958 -2.53255 0.270893 0
M  V30 2956 H 288.741 -2.85155 1.91158 0
M  V30 2957 N 291.186 -0.45159 -1.50991 0
M  V30 2958 C 292.597 0.00818571 -1.86698 0
M  V30 2959 C 292.948 1.40661 -1.3678 0
M  V30 2960 O 292.073 2.0391 -0.724546 0
M  V30 2961 C 292.668 0.0216303 -3.38793 0
M  V30 2962 C 291.227 0.425865 -3.73983 0
M  V30 2963 C 290.374 -0.372163 -2.74791 0
M  V30 2964 H 293.325 -0.666785 -1.44013 0
M  V30 2965 H 293.346 0.828078 -3.7138 0
M  V30 2966 H 292.858 -0.996288 -3.75094 0
M  V30 2967 H 290.959 1.44886 -3.43277 0
M  V30 2968 H 291.072 0.140761 -4.78893 0
M  V30 2969 H 289.436 0.171498 -2.54122 0
M  V30 2970 H 290.219 -1.38922 -3.13935 0
M  V30 2971 N 292.664 1.56529 -0.183458 0
M  V30 2972 C 293.614 2.1515 0.754605 0
M  V30 2973 C 294.598 1.08904 1.18443 0
M  V30 2974 O 295.79 1.34997 1.14476 0
M  V30 2975 C 292.919 2.80531 1.97881 0
M  V30 2976 C 292.005 3.93952 1.57043 0
M  V30 2977 N 292.396 4.98221 0.87231 0
M  V30 2978 C 290.694 4.05338 1.86057 0
M  V30 2979 C 291.395 5.77836 0.669377 0
M  V30 2980 N 290.371 5.29858 1.21454 0
M  V30 2981 H 294.173 2.93132 0.212387 0
M  V30 2982 H 291.687 1.62391 0.0167725 0
M  V30 2983 H 293.684 3.20914 2.6612 0
M  V30 2984 H 292.344 2.04035 2.52586 0
M  V30 2985 H 293.355 5.15191 0.529033 0
M  V30 2986 H 290.032 3.39957 2.42354 0
M  V30 2987 H 291.422 6.71799 0.116422 0
M  V30 2988 N 294.142 -0.090211 1.57342 0
M  V30 2989 C 295.553 -0.644173 1.75235 0
M  V30 2990 C 295.904 -1.78865 0.806335 0
M  V30 2991 O 295.029 -2.16395 -0.0140128 0
M  V30 2992 C 295.624 -1.17532 3.1776 0
M  V30 2993 C 294.183 -1.67531 3.37061 0
M  V30 2994 C 293.33 -0.58693 2.71017 0
M  V30 2995 H 296.281 0.135884 1.58117 0
M  V30 2996 H 296.302 -2.04455 3.20902 0
M  V30 2997 H 295.814 -0.342138 3.86589 0
M  V30 2998 H 293.915 -2.53234 2.73319 0
M  V30 2999 H 294.028 -1.76493 4.45406 0
M  V30 3000 H 292.392 -1.02756 2.33052 0
M  V30 3001 H 293.175 0.235758 3.4249 0
M  V30 3002 N 295.62 -1.53406 -0.361157 0
M  V30 3003 C 297.031 -1.61442 -0.937728 0
M  V30 3004 C 297.382 -0.48461 -1.90121 0
M  V30 3005 O 296.507 0.388312 -2.12888 0
M  V30 3006 C 297.102 -2.92624 -1.70753 0
M  V30 3007 C 295.661 -3.02981 -2.23337 0
M  V30 3008 C 294.808 -2.5677 -1.04712 0
M  V30 3009 H 297.759 -1.58083 -0.139816 0
M  V30 3010 H 297.78 -2.80675 -2.56908 0
M  V30 3011 H 297.292 -3.74834 -1.00604 0
M  V30 3012 H 295.393 -2.25368 -2.96715 0
M  V30 3013 H 295.506 -4.0814 -2.50916 0
M  V30 3014 H 293.87 -2.11752 -1.41539 0
M  V30 3015 H 294.653 -3.41402 -0.360539 0
M  V30 3016 N 297.098 0.621204 -1.44841 0
M  V30 3017 C 298.061 1.71459 -1.521 0
M  V30 3018 C 299.061 1.55696 -0.401933 0
M  V30 3019 O 300.251 1.61011 -0.664925 0
M  V30 3020 C 297.383 3.10624 -1.40447 0
M  V30 3021 H 298.576 1.66394 -2.49506 0
M  V30 3022 H 296.129 0.835745 -1.3208 0
M  V30 3023 H 296.864 3.21277 -0.441737 0
M  V30 3024 H 296.649 3.23473 -2.21602 0
M  V30 3025 H 298.139 3.90293 -1.4853 0
M  V30 3026 N 298.576 1.31904 0.862503 0
M  V30 3027 C 299.987 1.19803 1.43193 0
M  V30 3028 C 300.338 -0.192567 1.95253 0
M  V30 3029 O 299.463 -1.09081 1.86896 0
M  V30 3030 C 300.058 2.16883 2.60283 0
M  V30 3031 C 298.617 2.08692 3.13248 0
M  V30 3032 C 297.764 2.05691 1.85975 0
M  V30 3033 H 300.715 1.43846 0.670365 0
M  V30 3034 H 300.736 1.76278 3.37204 0
M  V30 3035 H 300.248 3.18083 2.22363 0
M  V30 3036 H 298.349 1.10713 3.55771 0
M  V30 3037 H 298.462 2.9815 3.75025 0
M  V30 3038 H 296.826 1.50814 2.05249 0
M  V30 3039 H 297.609 3.08659 1.50282 0
M  V30 3040 N 300.054 -1.07777 1.14986 0
M  V30 3041 C 301.279 -1.84558 0.946213 0
M  V30 3042 C 301.704 -1.81323 -0.500362 0
M  V30 3043 O 301.062 -1.20301 -1.35637 0
M  V30 3044 C 301.11 -3.29736 1.45968 0
M  V30 3045 O 300.214 -4.07149 0.65601 0
M  V30 3046 H 299.555 -0.571641 0.33782 0
M  V30 3047 H 302.085 -1.35991 1.52865 0
M  V30 3048 H 302.095 -3.80574 1.47063 0
M  V30 3049 H 300.77 -3.31406 2.51283 0
M  V30 3050 H 299.347 -3.65994 0.714322 0
M  V30 3051 N 301.532 -0.945985 -1.26051 0
M  V30 3052 C 302.943 -0.638096 -1.75457 0
M  V30 3053 C 303.294 0.846672 -1.76991 0
M  V30 3054 O 302.419 1.66262 -1.38513 0
M  V30 3055 C 303.014 -1.15157 -3.18629 0
M  V30 3056 C 301.573 -0.894004 -3.65629 0
M  V30 3057 C 300.72 -1.29967 -2.44957 0
M  V30 3058 H 303.671 -1.12376 -1.1206 0
M  V30 3059 H 303.692 -0.507615 -3.77099 0
M  V30 3060 H 303.204 -2.23222 -3.1748 0
M  V30 3061 H 301.305 0.172057 -3.72203 0
M  V30 3062 H 301.418 -1.52439 -4.54202 0
M  V30 3063 H 299.782 -0.718078 -2.44368 0
M  V30 3064 H 300.565 -2.38935 -2.46505 0
M  V30 3065 N 303.011 1.40521 -0.713556 0
M  V30 3066 C 303.974 2.29098 -0.0684347 0
M  V30 3067 C 304.974 1.45268 0.689472 0
M  V30 3068 O 306.164 1.66205 0.521677 0
M  V30 3069 C 303.296 3.28446 0.913024 0
M  V30 3070 H 304.489 2.87645 -0.84855 0
M  V30 3071 H 302.042 1.48809 -0.47809 0
M  V30 3072 H 302.777 2.74913 1.72027 0
M  V30 3073 H 302.562 3.90327 0.372472 0
M  V30 3074 H 304.052 3.94777 1.36165 0
M  V30 3075 N 304.489 0.459591 1.5075 0
M  V30 3076 C 305.737 -0.0991532 2.01857 0
M  V30 3077 C 306.058 -1.41247 1.34441 0
M  V30 3078 O 305.328 -1.89775 0.486022 0
M  V30 3079 H 303.908 -0.039633 0.745948 0
M  V30 3080 H 306.57 0.607387 1.85194 0
M  V30 3081 H 305.666 -0.258998 3.11023 0
M  V30 3082 N 305.967 -1.56429 0.191757 0
M  V30 3083 C 307.215 -1.97095 -0.447006 0
M  V30 3084 C 307.536 -1.07967 -1.62383 0
M  V30 3085 O 306.806 -0.150248 -1.95323 0
M  V30 3086 H 305.386 -0.727832 -0.168135 0
M  V30 3087 H 308.048 -1.92911 0.27771 0
M  V30 3088 H 307.144 -3.01848 -0.793371 0
M  V30 3089 N 307.445 0.0818655 -1.57387 0
M  V30 3090 C 308.395 1.10501 -1.99433 0
M  V30 3091 C 309.379 1.35041 -0.874798 0
M  V30 3092 O 310.571 1.35511 -1.13868 0
M  V30 3093 C 307.7 2.42159 -2.43339 0
M  V30 3094 C 306.786 2.20937 -3.62005 0
M  V30 3095 N 307.177 1.69616 -4.76512 0
M  V30 3096 C 305.475 2.51451 -3.68359 0
M  V30 3097 C 306.176 1.62973 -5.58404 0
M  V30 3098 N 305.152 2.08664 -5.01956 0
M  V30 3099 H 308.954 0.701373 -2.85408 0
M  V30 3100 H 306.468 0.289096 -1.59806 0
M  V30 3101 H 308.465 3.16208 -2.71695 0
M  V30 3102 H 307.125 2.83249 -1.58746 0
M  V30 3103 H 308.136 1.38624 -4.99003 0
M  V30 3104 H 304.813 2.95975 -2.94457 0
M  V30 3105 H 306.203 1.24233 -6.60315 0
M  V30 3106 N 308.923 1.53595 0.353017 0
M  V30 3107 C 309.873 1.77299 1.43349 0
M  V30 3108 C 310.857 0.627884 1.48143 0
M  V30 3109 O 312.049 0.88697 1.53173 0
M  V30 3110 C 309.178 1.97757 2.80619 0
M  V30 3111 C 308.264 3.18305 2.80254 0
M  V30 3112 N 308.655 4.39967 2.49526 0
M  V30 3113 C 306.953 3.19283 3.11407 0
M  V30 3114 C 307.654 5.21772 2.57156 0
M  V30 3115 N 306.63 4.58269 2.92388 0
M  V30 3116 H 310.432 2.68963 1.18474 0
M  V30 3117 H 307.946 1.52391 0.561306 0
M  V30 3118 H 309.943 2.1287 3.58458 0
M  V30 3119 H 308.603 1.07329 3.06448 0
M  V30 3120 H 309.614 4.67482 2.22893 0
M  V30 3121 H 306.291 2.3879 3.4247 0
M  V30 3122 H 307.681 6.2885 2.36638 0
M  V30 3123 N 310.401 -0.613514 1.45168 0
M  V30 3124 C 311.331 -1.7354 1.56225 0
M  V30 3125 C 312.312 -1.64981 0.41414 0
M  V30 3126 O 313.497 -1.83472 0.636526 0
M  V30 3127 C 310.627 -3.12128 1.52295 0
M  V30 3128 C 309.581 -3.35491 2.65762 0
M  V30 3129 C 308.907 -4.74291 2.46885 0
M  V30 3130 C 310.207 -3.26325 4.0781 0
M  V30 3131 H 311.901 -1.64543 2.50132 0
M  V30 3132 H 309.447 -0.790185 1.20383 0
M  V30 3133 H 311.4 -3.90404 1.58628 0
M  V30 3134 H 310.124 -3.2195 0.549139 0
M  V30 3135 H 308.783 -2.59603 2.58847 0
M  V30 3136 H 308.431 -4.80839 1.47657 0
M  V30 3137 H 308.131 -4.9088 3.22972 0
M  V30 3138 H 309.655 -5.54775 2.55063 0
M  V30 3139 H 311.069 -3.94483 4.16 0
M  V30 3140 H 309.466 -3.54445 4.8424 0
M  V30 3141 H 310.536 -2.23855 4.30136 0
M  V30 3142 N 311.879 -1.3236 -0.855495 0
M  V30 3143 C 313.127 -1.22629 -1.60644 0
M  V30 3144 C 313.448 0.212136 -1.93843 0
M  V30 3145 O 312.718 1.13666 -1.59552 0
M  V30 3146 H 311.298 -0.450882 -0.595579 0
M  V30 3147 H 313.96 -1.65871 -1.02337 0
M  V30 3148 H 313.056 -1.80832 -2.54374 0
M  V30 3149 N 313.357 1.07166 -1.15556 0
M  V30 3150 C 314.587 1.83248 -0.954133 0
M  V30 3151 C 314.995 1.82449 0.500911 0
M  V30 3152 O 314.338 1.23575 1.35923 0
M  V30 3153 C 314.4 3.31393 -1.39351 0
M  V30 3154 C 314.064 3.5591 -2.86666 0
M  V30 3155 C 315.061 3.49695 -3.8472 0
M  V30 3156 C 312.746 3.83515 -3.24379 0
M  V30 3157 C 314.74 3.70737 -5.18491 0
M  V30 3158 C 312.427 4.04209 -4.58321 0
M  V30 3159 C 313.425 3.97815 -5.55186 0
M  V30 3160 O 313.113 4.17954 -6.86709 0
M  V30 3161 H 312.845 0.584941 -0.338851 0
M  V30 3162 H 315.399 1.36169 -1.53777 0
M  V30 3163 H 313.629 3.79292 -0.75329 0
M  V30 3164 H 315.318 3.88945 -1.16089 0
M  V30 3165 H 316.084 3.28368 -3.56931 0
M  V30 3166 H 311.963 3.87605 -2.49567 0
M  V30 3167 H 315.507 3.65663 -5.94085 0
M  V30 3168 H 311.404 4.25023 -4.85825 0
M  V30 3169 H 312.172 4.35291 -6.93155 0
M  V30 3170 N 314.835 0.952656 1.25548 0
M  V30 3171 C 316.112 0.523818 1.88456 0
M  V30 3172 C 316.492 -0.998871 1.85973 0
M  V30 3173 O 315.84 -1.86381 1.3219 0
M  V30 3174 C 316.05 1.0982 3.31271 0
M  V30 3175 C 317.398 1.17385 4.08051 0
M  V30 3176 O 318.422 1.04961 3.40384 0
M  V30 3177 O 317.281 1.36852 5.29088 0
M  V30 3178 H 314.375 0.172485 0.808813 0
M  V30 3179 H 316.921 1.04596 1.33633 0
M  V30 3180 H 315.693 2.1415 3.27499 0
M  V30 3181 H 315.316 0.559191 3.93648 0
M  V30 3182 N 316.313 -1.40141 0.720998 0
M  V30 3183 C 317.724 -1.83678 0.334553 0
M  V30 3184 C 318.075 -1.6027 -1.13173 0
M  V30 3185 O 317.2 -1.08643 -1.87152 0
M  V30 3186 C 317.795 -3.33437 0.600437 0
M  V30 3187 C 316.354 -3.75447 0.267642 0
M  V30 3188 C 315.501 -2.63296 0.870097 0
M  V30 3189 H 318.452 -1.29331 0.919732 0
M  V30 3190 H 318.473 -3.80269 -0.132517 0
M  V30 3191 H 317.985 -3.50442 1.66768 0
M  V30 3192 H 316.086 -3.64035 -0.794329 0
M  V30 3193 H 316.199 -4.73344 0.74042 0
M  V30 3194 H 314.563 -2.52954 0.297739 0
M  V30 3195 H 315.346 -2.83112 1.94172 0
M  V30 3196 N 317.792 -0.46758 -1.50504 0
M  V30 3197 C 319.02 0.0864133 -2.06719 0
M  V30 3198 C 319.435 1.33819 -1.33184 0
M  V30 3199 O 318.792 1.78061 -0.400083 0
M  V30 3200 C 318.843 0.378079 -3.59517 0
M  V30 3201 O 318.564 -0.824044 -4.3028 0
M  V30 3202 C 320.065 0.979426 -4.32345 0
M  V30 3203 H 317.285 -0.00551697 -0.670977 0
M  V30 3204 H 319.829 -0.655354 -1.93715 0
M  V30 3205 H 317.984 1.06977 -3.72337 0
M  V30 3206 H 318.398 -0.566518 -5.21432 0
M  V30 3207 H 319.872 1.1333 -5.40241 0
M  V30 3208 H 320.349 1.9686 -3.9261 0
M  V30 3209 H 320.955 0.326216 -4.24047 0
M  V30 3210 N 319.27 1.56325 -0.20005 0
M  V30 3211 C 320.233 2.18084 0.705132 0
M  V30 3212 C 321.233 1.13666 1.1374 0
M  V30 3213 O 322.423 1.39023 1.04968 0
M  V30 3214 C 319.555 2.78689 1.96329 0
M  V30 3215 H 320.748 2.99435 0.167023 0
M  V30 3216 H 318.301 1.56221 0.0495725 0
M  V30 3217 H 319.036 2.0115 2.5438 0
M  V30 3218 H 318.821 3.55133 1.66202 0
M  V30 3219 H 320.311 3.26096 2.60866 0
M  V30 3220 N 320.748 -0.0735177 1.57428 0
M  V30 3221 C 321.711 -1.07192 2.02589 0
M  V30 3222 C 322.711 -1.31695 0.922661 0
M  V30 3223 O 323.901 -1.27445 1.18758 0
M  V30 3224 C 321.033 -2.41599 2.40506 0
M  V30 3225 H 322.226 -0.682727 2.92025 0
M  V30 3226 H 319.779 -0.319193 1.53006 0
M  V30 3227 H 320.514 -2.85354 1.5409 0
M  V30 3228 H 320.299 -2.25156 3.21009 0
M  V30 3229 H 321.789 -3.13367 2.76027 0
M  V30 3230 N 322.226 -1.5378 -0.344866 0
M  V30 3231 C 323.189 -1.80981 -1.40637 0
M  V30 3232 C 324.189 -0.680816 -1.45676 0
M  V30 3233 O 325.379 -0.949095 -1.46075 0
M  V30 3234 C 322.511 -1.95063 -2.79577 0
M  V30 3235 H 323.704 -2.75803 -1.17783 0
M  V30 3236 H 321.257 -1.45173 -0.579181 0
M  V30 3237 H 321.992 -1.02379 -3.07716 0
M  V30 3238 H 321.777 -2.77198 -2.77315 0
M  V30 3239 H 323.267 -2.17629 -3.56409 0
M  V30 3240 N 323.704 0.605807 -1.45491 0
M  V30 3241 C 324.667 1.69836 -1.5391 0
M  V30 3242 C 325.667 1.55261 -0.418424 0
M  V30 3243 O 326.857 1.60296 -0.681965 0
M  V30 3244 C 323.989 3.09117 -1.43734 0
M  V30 3245 H 325.182 1.63738 -2.51257 0
M  V30 3246 H 322.735 0.821689 -1.32959 0
M  V30 3247 H 323.47 3.20791 -0.475788 0
M  V30 3248 H 323.255 3.21104 -2.25021 0
M  V30 3249 H 324.745 3.88696 -1.52661 0
M  V30 3250 N 325.182 1.32811 0.848464 0
M  V30 3251 C 326.112 1.24882 1.97299 0
M  V30 3252 C 327.093 0.131357 1.69592 0
M  V30 3253 O 328.278 0.319553 1.91553 0
M  V30 3254 C 325.408 0.97746 3.33261 0
M  V30 3255 C 324.362 2.05682 3.75338 0
M  V30 3256 C 323.688 1.63777 5.09 0
M  V30 3257 C 324.988 3.47254 3.90144 0
M  V30 3258 H 326.682 2.18966 2.04191 0
M  V30 3259 H 324.228 1.05413 0.981029 0
M  V30 3260 H 326.181 0.908513 4.1149 0
M  V30 3261 H 324.905 0.000980011 3.266 0
M  V30 3262 H 323.564 2.11603 2.99366 0
M  V30 3263 H 323.212 0.648569 4.98801 0
M  V30 3264 H 322.912 2.36 5.38124 0
M  V30 3265 H 324.436 1.5833 5.89715 0
M  V30 3266 H 325.85 3.43888 4.58709 0
M  V30 3267 H 324.247 4.1788 4.30693 0
M  V30 3268 H 325.317 3.86462 2.92874 0
M  V30 3269 N 326.66 -1.06551 1.16123 0
M  V30 3270 C 327.885 -1.83544 0.965735 0
M  V30 3271 C 328.31 -1.81843 -0.481102 0
M  V30 3272 O 327.668 -1.21732 -1.34354 0
M  V30 3273 C 327.716 -3.28169 1.49457 0
M  V30 3274 O 326.82 -4.0643 0.699157 0
M  V30 3275 H 326.161 -0.568026 0.343864 0
M  V30 3276 H 328.691 -1.34362 1.54299 0
M  V30 3277 H 328.701 -3.78992 1.51092 0
M  V30 3278 H 327.376 -3.28722 2.54784 0
M  V30 3279 H 325.953 -3.65216 0.7531 0
M  V30 3280 N 328.138 -0.959301 -1.25041 0
M  V30 3281 C 329.068 -0.501388 -2.28053 0
M  V30 3282 C 330.049 0.454673 -1.63911 0
M  V30 3283 O 331.234 0.352618 -1.90972 0
M  V30 3284 C 328.364 0.217224 -3.4662 0
M  V30 3285 C 327.318 -0.654034 -4.22973 0
M  V30 3286 C 326.644 0.195589 -5.34342 0
M  V30 3287 C 327.944 -1.93447 -4.85155 0
M  V30 3288 H 329.638 -1.36238 -2.66608 0
M  V30 3289 H 327.184 -0.656534 -1.28163 0
M  V30 3290 H 329.137 0.548732 -4.17812 0
M  V30 3291 H 327.861 1.1125 -3.07068 0
M  V30 3292 H 326.52 -0.968693 -3.5357 0
M  V30 3293 H 326.168 1.09076 -4.91031 0
M  V30 3294 H 325.868 -0.384091 -5.86343 0
M  V30 3295 H 327.392 0.521958 -6.08365 0
M  V30 3296 H 328.806 -1.66908 -5.48466 0
M  V30 3297 H 327.203 -2.46018 -5.47353 0
M  V30 3298 H 328.273 -2.63466 -4.07079 0
M  V30 3299 N 329.616 1.39756 -0.72842 0
M  V30 3300 C 331.027 1.83498 -0.344289 0
M  V30 3301 C 331.378 1.60868 1.12321 0
M  V30 3302 O 330.503 1.09634 1.86573 0
M  V30 3303 C 331.098 3.33114 -0.618112 0
M  V30 3304 C 329.657 3.753 -0.287549 0
M  V30 3305 C 328.804 2.62831 -0.884048 0
M  V30 3306 H 331.755 1.28842 -0.926578 0
M  V30 3307 H 331.776 3.80334 0.112349 0
M  V30 3308 H 331.288 3.49553 -1.68625 0
M  V30 3309 H 329.389 3.64451 0.775012 0
M  V30 3310 H 329.502 4.72945 -0.765512 0
M  V30 3311 H 327.866 2.52792 -0.311149 0
M  V30 3312 H 328.649 2.82078 -1.95671 0
M  V30 3313 N 331.094 0.475555 1.50254 0
M  V30 3314 C 332.024 -0.30611 2.31485 0
M  V30 3315 C 333.005 -0.986228 1.38591 0
M  V30 3316 O 334.19 -0.982541 1.67511 0
M  V30 3317 C 331.32 -1.38588 3.1845 0
M  V30 3318 C 330.274 -0.827115 4.19932 0
M  V30 3319 C 329.6 -2.00551 4.95665 0
M  V30 3320 C 330.9 0.16463 5.2204 0
M  V30 3321 H 332.594 0.371866 2.97082 0
M  V30 3322 H 330.14 0.180282 1.42867 0
M  V30 3323 H 332.093 -1.94023 3.74076 0
M  V30 3324 H 330.817 -2.09269 2.50747 0
M  V30 3325 H 329.476 -0.294702 3.65414 0
M  V30 3326 H 329.124 -2.6994 4.2443 0
M  V30 3327 H 328.824 -1.63784 5.64313 0
M  V30 3328 H 330.348 -2.56468 5.54127 0
M  V30 3329 H 331.762 -0.300699 5.72511 0
M  V30 3330 H 330.159 0.446813 5.98434 0
M  V30 3331 H 331.229 1.08905 4.72512 0
M  V30 3332 N 332.573 -1.56217 0.208337 0
M  V30 3333 C 333.821 -1.97558 -0.426076 0
M  V30 3334 C 334.142 -1.09683 -1.61229 0
M  V30 3335 O 333.412 -0.170956 -1.95153 0
M  V30 3336 H 331.992 -0.729575 -0.160405 0
M  V30 3337 H 334.654 -1.92606 0.298155 0
M  V30 3338 H 333.75 -3.02672 -0.761312 0
M  V30 3339 N 334.051 0.0651679 -1.57465 0
M  V30 3340 C 335.014 1.06117 -2.03155 0
M  V30 3341 C 336.014 1.31204 -0.929632 0
M  V30 3342 O 337.204 1.26813 -1.19432 0
M  V30 3343 C 334.336 2.4032 -2.41783 0
M  V30 3344 H 335.529 0.667231 -2.92383 0
M  V30 3345 H 333.082 0.311075 -1.53173 0
M  V30 3346 H 333.817 2.84532 -1.55601 0
M  V30 3347 H 333.602 2.23451 -3.22199 0
M  V30 3348 H 335.092 3.11898 -2.77685 0
M  V30 3349 N 335.529 1.53961 0.336706 0
M  V30 3350 C 336.492 1.81724 1.39675 0
M  V30 3351 C 337.492 0.688532 1.45313 0
M  V30 3352 O 338.682 0.956829 1.45569 0
M  V30 3353 C 335.814 1.96543 2.78538 0
M  V30 3354 H 337.007 2.76424 1.16318 0
M  V30 3355 H 334.56 1.45478 0.571474 0
M  V30 3356 H 335.295 1.0401 3.07168 0
M  V30 3357 H 335.08 2.78665 2.75841 0
M  V30 3358 H 336.57 2.19516 3.5525 0
M  V30 3359 N 337.007 -0.598083 1.45811 0
M  V30 3360 C 337.97 -1.69018 1.54808 0
M  V30 3361 C 338.97 -1.55037 0.426652 0
M  V30 3362 O 340.16 -1.59932 0.690456 0
M  V30 3363 C 337.292 -3.0835 1.45371 0
M  V30 3364 H 338.485 -1.62403 2.52121 0
M  V30 3365 H 336.038 -0.814626 1.33392 0
M  V30 3366 H 336.773 -3.20534 0.492793 0
M  V30 3367 H 336.558 -3.19907 2.26721 0
M  V30 3368 H 338.048 -3.8788 1.54721 0
M  V30 3369 N 338.485 -1.33259 -0.841409 0
M  V30 3370 C 339.448 -1.23221 -1.9326 0
M  V30 3371 C 340.448 -0.151895 -1.60081 0
M  V30 3372 O 341.638 -0.403246 -1.69468 0
M  V30 3373 C 338.77 -0.898123 -3.28856 0
M  V30 3374 H 339.963 -2.2021 -2.03587 0
M  V30 3375 H 337.516 -1.17281 -1.03319 0
M  V30 3376 H 338.251 0.0693841 -3.24226 0
M  V30 3377 H 338.036 -1.67934 -3.54317 0
M  V30 3378 H 339.526 -0.852563 -4.08805 0
M  V30 3379 N 339.963 1.05934 -1.16686 0
M  V30 3380 C 340.926 2.11669 -0.879144 0
M  V30 3381 C 341.926 1.60294 0.127445 0
M  V30 3382 O 343.116 1.7389 -0.103865 0
M  V30 3383 C 340.248 3.39438 -0.315425 0
M  V30 3384 H 341.441 2.38626 -1.81653 0
M  V30 3385 H 338.994 1.22058 -0.976299 0
M  V30 3386 H 339.729 3.18132 0.629468 0
M  V30 3387 H 339.514 3.78034 -1.04079 0
M  V30 3388 H 341.004 4.17391 -0.132189 0
M  V30 3389 N 341.441 0.965919 1.2453 0
M  V30 3390 C 342.689 0.625593 1.92174 0
M  V30 3391 C 343.01 -0.841652 1.75901 0
M  V30 3392 O 342.28 -1.60061 1.12948 0
M  V30 3393 H 340.86 0.228388 0.71123 0
M  V30 3394 H 343.522 1.2266 1.51461 0
M  V30 3395 H 342.618 0.864653 2.99884 0
M  V30 3396 N 342.919 -1.39368 0.735821 0
M  V30 3397 C 344.144 -2.05319 0.293052 0
M  V30 3398 C 344.569 -1.55115 -1.064 0
M  V30 3399 O 343.927 -0.695261 -1.67439 0
M  V30 3400 C 343.975 -3.59305 0.305323 0
M  V30 3401 O 343.079 -4.06299 -0.706761 0
M  V30 3402 H 342.42 -0.650529 0.13307 0
M  V30 3403 H 344.95 -1.78386 1.00197 0
M  V30 3404 H 344.96 -4.07724 0.149997 0
M  V30 3405 H 343.635 -3.95207 1.29553 0
M  V30 3406 H 342.212 -3.69292 -0.517504 0
M  V30 3407 N 344.397 -0.483516 -1.5 0
M  V30 3408 C 345.329 0.340634 -2.26655 0
M  V30 3409 C 346.342 0.946152 -1.32483 0
M  V30 3410 O 347.531 0.832453 -1.579 0
M  V30 3411 C 344.631 1.4929 -3.04246 0
M  V30 3412 C 343.804 0.997903 -4.25865 0
M  V30 3413 C 342.863 2.02569 -4.85646 0
M  V30 3414 O 341.889 1.60128 -5.46212 0
M  V30 3415 N 343.091 3.3548 -4.73744 0
M  V30 3416 H 345.856 -0.316577 -2.98023 0
M  V30 3417 H 343.417 -0.315024 -1.58806 0
M  V30 3418 H 345.409 2.17766 -3.41116 0
M  V30 3419 H 343.979 2.05458 -2.35597 0
M  V30 3420 H 343.199 0.138617 -3.93956 0
M  V30 3421 H 344.487 0.645305 -5.04691 0
M  V30 3422 H 343.885 3.72661 -4.25605 0
M  V30 3423 H 342.442 3.99718 -5.14848 0
M  V30 3424 N 345.875 1.56104 -0.216619 0
M  V30 3425 C 346.838 2.18819 0.681962 0
M  V30 3426 C 347.838 1.14866 1.12528 0
M  V30 3427 O 349.028 1.40128 1.03488 0
M  V30 3428 C 346.16 2.80756 1.93362 0
M  V30 3429 H 347.353 2.99595 0.135254 0
M  V30 3430 H 344.906 1.56265 0.0330003 0
M  V30 3431 H 345.641 2.03837 2.52232 0
M  V30 3432 H 345.426 3.56876 1.62426 0
M  V30 3433 H 346.916 3.28844 2.57393 0
M  V30 3434 N 347.353 -0.0568162 1.57498 0
M  V30 3435 C 348.316 -1.05038 2.03715 0
M  V30 3436 C 349.316 -1.30709 0.936577 0
M  V30 3437 O 350.506 -1.26178 1.20103 0
M  V30 3438 C 347.638 -2.39034 2.43055 0
M  V30 3439 H 348.831 -0.651715 2.92733 0
M  V30 3440 H 346.384 -0.302947 1.53336 0
M  V30 3441 H 347.119 -2.83703 1.57108 0
M  V30 3442 H 346.904 -2.21739 3.2338 0
M  V30 3443 H 348.394 -3.10421 2.79336 0
M  V30 3444 N 348.832 -1.54138 -0.328536 0
M  V30 3445 C 349.795 -1.82462 -1.38709 0
M  V30 3446 C 350.795 -0.696229 -1.44946 0
M  V30 3447 O 351.985 -0.964535 -1.4506 0
M  V30 3448 C 349.117 -1.98018 -2.77492 0
M  V30 3449 H 350.31 -2.77037 -1.14851 0
M  V30 3450 H 347.863 -1.45779 -0.563751 0
M  V30 3451 H 348.598 -1.05637 -3.06613 0
M  V30 3452 H 348.383 -2.80124 -2.74359 0
M  V30 3453 H 349.873 -2.21396 -3.54081 0
M  V30 3454 N 350.31 0.590341 -1.46126 0
M  V30 3455 C 351.24 1.71032 -1.58966 0
M  V30 3456 C 352.221 1.64302 -0.440335 0
M  V30 3457 O 353.406 1.82436 -0.665634 0
M  V30 3458 C 350.536 3.09665 -1.57241 0
M  V30 3459 C 349.49 3.31221 -2.71066 0
M  V30 3460 C 348.816 4.70303 -2.54399 0
M  V30 3461 C 350.116 3.19796 -4.1295 0
M  V30 3462 H 351.81 1.60543 -2.52718 0
M  V30 3463 H 349.356 0.770933 -1.21625 0
M  V30 3464 H 351.309 3.87831 -1.64819 0
M  V30 3465 H 350.033 3.21036 -0.600289 0
M  V30 3466 H 348.692 2.55452 -2.62944 0
M  V30 3467 H 348.34 4.78429 -1.55288 0
M  V30 3468 H 348.04 4.85679 -3.30741 0
M  V30 3469 H 349.564 5.50647 -2.63857 0
M  V30 3470 H 350.978 3.87815 -4.22223 0
M  V30 3471 H 349.375 3.46696 -4.89818 0
M  V30 3472 H 350.445 2.16983 -4.33643 0
M  V30 3473 N 351.788 1.33704 0.83433 0
M  V30 3474 C 352.698 1.26382 1.97648 0
M  V30 3475 C 353.714 0.173548 1.73132 0
M  V30 3476 O 354.89 0.397962 1.97429 0
M  V30 3477 C 351.955 1.00769 3.31733 0
M  V30 3478 C 351.016 2.1884 3.69334 0
M  V30 3479 C 350.249 1.9444 4.9702 0
M  V30 3480 O 350.472 0.896961 5.63303 0
M  V30 3481 O 349.406 2.81093 5.32231 0
M  V30 3482 H 353.232 2.22444 2.06767 0
M  V30 3483 H 350.817 1.13795 0.968037 0
M  V30 3484 H 352.699 0.882186 4.12062 0
M  V30 3485 H 351.374 0.0773783 3.23608 0
M  V30 3486 H 350.281 2.36946 2.89495 0
M  V30 3487 H 351.614 3.10221 3.82131 0
M  V30 3488 N 353.266 -1.05314 1.17247 0
M  V30 3489 C 354.491 -1.82509 0.985148 0
M  V30 3490 C 354.916 -1.82343 -0.461788 0
M  V30 3491 O 354.274 -1.23151 -1.33055 0
M  V30 3492 C 354.322 -3.26566 1.52929 0
M  V30 3493 O 353.426 -4.05666 0.742225 0
M  V30 3494 H 352.767 -0.564347 0.349869 0
M  V30 3495 H 355.297 -1.32718 1.55715 0
M  V30 3496 H 355.307 -3.77369 1.55103 0
M  V30 3497 H 353.982 -3.26001 2.58256 0
M  V30 3498 H 352.559 -3.64397 0.791794 0
M  V30 3499 N 354.744 -0.972509 -1.24016 0
M  V30 3500 C 355.694 -0.477561 -2.22942 0
M  V30 3501 C 356.678 0.44308 -1.54679 0
M  V30 3502 O 357.87 0.273219 -1.74879 0
M  V30 3503 C 354.999 0.226348 -3.42553 0
M  V30 3504 C 354.085 -0.713403 -4.18057 0
M  V30 3505 N 354.476 -1.8527 -4.70647 0
M  V30 3506 C 352.774 -0.525145 -4.42898 0
M  V30 3507 C 353.475 -2.44089 -5.28011 0
M  V30 3508 N 352.451 -1.72556 -5.15486 0
M  V30 3509 H 356.253 -1.34678 -2.61226 0
M  V30 3510 H 353.767 -0.832196 -1.39457 0
M  V30 3511 H 355.764 0.598184 -4.12586 0
M  V30 3512 H 354.424 1.09195 -3.05788 0
M  V30 3513 H 355.435 -2.2341 -4.67235 0
M  V30 3514 H 352.112 0.296096 -4.16449 0
M  V30 3515 H 353.502 -3.40259 -5.79374 0
M  V30 3516 N 356.222 1.38976 -0.743202 0
M  V30 3517 C 357.633 1.83123 -0.363732 0
M  V30 3518 C 357.984 1.6205 1.10609 0
M  V30 3519 O 357.109 1.11606 1.854 0
M  V30 3520 C 357.704 3.32439 -0.653408 0
M  V30 3521 C 356.263 3.74974 -0.327338 0
M  V30 3522 C 355.41 2.61878 -0.911875 0
M  V30 3523 H 358.361 1.27852 -0.940191 0
M  V30 3524 H 358.382 3.80432 0.0720031 0
M  V30 3525 H 357.894 3.47745 -1.72323 0
M  V30 3526 H 355.995 3.65252 0.736314 0
M  V30 3527 H 356.108 4.72106 -0.815631 0
M  V30 3528 H 354.472 2.52448 -0.337944 0
M  V30 3529 H 355.255 2.79987 -1.98651 0
M  V30 3530 N 357.7 0.491464 1.49741 0
M  V30 3531 C 358.93 -0.0534375 2.06531 0
M  V30 3532 C 359.338 -1.32233 1.35318 0
M  V30 3533 O 358.681 -1.78781 0.422243 0
M  V30 3534 C 358.743 -0.387034 3.57411 0
M  V30 3535 C 358.407 0.782764 4.50246 0
M  V30 3536 C 359.404 1.67059 4.92329 0
M  V30 3537 C 357.089 0.978866 4.9267 0
M  V30 3538 C 359.083 2.73874 5.75562 0
M  V30 3539 C 356.77 2.05022 5.75682 0
M  V30 3540 C 357.768 2.92851 6.17031 0
M  V30 3541 O 357.456 3.98138 6.98385 0
M  V30 3542 H 357.188 0.0129324 0.675876 0
M  V30 3543 H 359.742 0.685238 1.93633 0
M  V30 3544 H 357.972 -1.17918 3.68283 0
M  V30 3545 H 359.661 -0.869419 3.96479 0
M  V30 3546 H 360.427 1.53086 4.60206 0
M  V30 3547 H 356.306 0.304646 4.59992 0
M  V30 3548 H 359.85 3.42458 6.07757 0
M  V30 3549 H 355.747 2.18993 6.07217 0
M  V30 3550 H 356.515 3.95374 7.16674 0
M  V30 3551 N 359.178 -1.55987 0.224894 0
M  V30 3552 C 360.426 -1.97998 -0.405099 0
M  V30 3553 C 360.747 -1.11387 -1.60056 0
M  V30 3554 O 360.017 -0.191645 -1.9496 0
M  V30 3555 H 358.597 -0.731235 -0.152658 0
M  V30 3556 H 361.259 -1.92279 0.318567 0
M  V30 3557 H 360.355 -3.03463 -0.729167 0
M  V30 3558 N 360.656 0.0484629 -1.57525 0
M  V30 3559 C 361.586 1.0549 -2.08313 0
M  V30 3560 C 362.567 1.38929 -0.981463 0
M  V30 3561 O 363.752 1.48151 -1.25558 0
M  V30 3562 C 360.882 2.36162 -2.54646 0
M  V30 3563 C 359.836 2.17016 -3.68901 0
M  V30 3564 C 359.162 3.53278 -4.01371 0
M  V30 3565 C 360.462 1.57219 -4.98076 0
M  V30 3566 H 362.156 0.632195 -2.92649 0
M  V30 3567 H 359.702 0.302654 -1.40784 0
M  V30 3568 H 361.655 3.06882 -2.88793 0
M  V30 3569 H 360.379 2.80456 -1.67368 0
M  V30 3570 H 359.038 1.48733 -3.35073 0
M  V30 3571 H 358.686 3.95185 -3.11188 0
M  V30 3572 H 358.386 3.41299 -4.78318 0
M  V30 3573 H 359.91 4.25391 -4.38035 0
M  V30 3574 H 361.324 2.17832 -5.30304 0
M  V30 3575 H 359.721 1.55871 -5.79503 0
M  V30 3576 H 360.791 0.535956 -4.81929 0
M  V30 3577 N 362.134 1.5431 0.320358 0
M  V30 3578 C 363.545 1.63872 0.894594 0
M  V30 3579 C 363.896 0.534847 1.88769 0
M  V30 3580 O 363.021 -0.331732 2.13842 0
M  V30 3581 C 363.616 2.97049 1.62934 0
M  V30 3582 C 362.175 3.08796 2.15226 0
M  V30 3583 C 361.322 2.59456 0.978671 0
M  V30 3584 H 364.273 1.58398 0.0978544 0
M  V30 3585 H 364.294 2.87388 2.49376 0
M  V30 3586 H 363.806 3.7737 0.906302 0
M  V30 3587 H 361.907 2.33156 2.90636 0
M  V30 3588 H 362.02 4.14649 2.40006 0
M  V30 3589 H 360.384 2.1543 1.35875 0
M  V30 3590 H 361.167 3.42237 0.269895 0
M  V30 3591 N 363.613 -0.582584 1.46437 0
M  V30 3592 C 364.543 -1.70187 1.59871 0
M  V30 3593 C 365.524 -1.64066 0.449042 0
M  V30 3594 O 366.709 -1.82081 0.6753 0
M  V30 3595 C 363.839 -3.08827 1.58881 0
M  V30 3596 C 362.793 -3.29779 2.72819 0
M  V30 3597 C 362.119 -4.68947 2.5689 0
M  V30 3598 C 363.419 -3.17601 4.1464 0
M  V30 3599 H 365.113 -1.592 2.53566 0
M  V30 3600 H 362.659 -0.764472 1.22032 0
M  V30 3601 H 364.612 -3.86951 1.66873 0
M  V30 3602 H 363.336 -3.20713 0.617306 0
M  V30 3603 H 361.995 -2.54054 2.64296 0
M  V30 3604 H 361.643 -4.77599 1.57823 0
M  V30 3605 H 361.343 -4.83919 3.33312 0
M  V30 3606 H 362.867 -5.4924 2.66773 0
M  V30 3607 H 364.281 -3.8557 4.24274 0
M  V30 3608 H 362.678 -3.44094 4.9165 0
M  V30 3609 H 363.748 -2.14681 4.34788 0
M  V30 3610 N 365.091 -1.34144 -0.827227 0
M  V30 3611 C 366.054 -1.25264 -1.91942 0
M  V30 3612 C 367.054 -0.168866 -1.59911 0
M  V30 3613 O 368.244 -0.421198 -1.69031 0
M  V30 3614 C 365.376 -0.932952 -3.27885 0
M  V30 3615 H 366.569 -2.22357 -2.0124 0
M  V30 3616 H 364.122 -1.1837 -1.0207 0
M  V30 3617 H 364.857 0.0349917 -3.24281 0
M  V30 3618 H 364.642 -1.71682 -3.52516 0
M  V30 3619 H 366.132 -0.895874 -4.07877 0
M  V30 3620 N 366.569 1.04691 -1.17803 0
M  V30 3621 C 367.516 2.12557 -0.899343 0
M  V30 3622 C 368.486 1.65339 0.158771 0
M  V30 3623 O 369.671 1.90789 0.0204797 0
M  V30 3624 C 366.811 3.42481 -0.424315 0
M  V30 3625 C 365.924 4.03346 -1.54713 0
M  V30 3626 C 365.059 5.21208 -1.02546 0
M  V30 3627 C 364.098 5.74089 -2.12339 0
M  V30 3628 N 363.235 6.83247 -1.61612 0
M  V30 3629 H 368.075 2.35734 -1.823 0
M  V30 3630 H 365.612 1.1564 -0.909159 0
M  V30 3631 H 367.57 4.16996 -0.130421 0
M  V30 3632 H 366.2 3.19471 0.462377 0
M  V30 3633 H 365.252 3.2622 -1.95664 0
M  V30 3634 H 366.564 4.38628 -2.37501 0
M  V30 3635 H 365.718 6.02812 -0.685718 0
M  V30 3636 H 364.457 4.87414 -0.167084 0
M  V30 3637 H 363.462 4.91111 -2.47165 0
M  V30 3638 H 364.687 6.0993 -2.98601 0
M  V30 3639 H 362.633 6.5134 -0.780533 0
M  V30 3640 H 362.55 7.17559 -2.38003 0
M  V30 3641 H 363.818 7.68491 -1.30545 0
M  V30 3642 N 368.047 0.979072 1.23499 0
M  V30 3643 C 369.463 0.687475 1.44034 0
M  V30 3644 C 369.663 -0.746801 1.8715 0
M  V30 3645 O 368.719 -1.51939 2.0167 0
M  V30 3646 C 370.032 1.68127 2.49307 0
M  V30 3647 C 371.58 1.69516 2.63122 0
M  V30 3648 C 372.055 2.67723 3.71603 0
M  V30 3649 N 373.546 2.66233 3.79044 0
M  V30 3650 C 374.281 3.38891 4.62537 0
M  V30 3651 N 373.777 4.21103 5.50131 0
M  V30 3652 N 375.57 3.27661 4.56721 0
M  V30 3653 H 367.721 1.90559 0.938135 0
M  V30 3654 H 369.984 0.821051 0.473897 0
M  V30 3655 H 369.69 2.70693 2.2454 0
M  V30 3656 H 369.564 1.46306 3.4767 0
M  V30 3657 H 371.951 0.676561 2.8724 0
M  V30 3658 H 372.032 1.95404 1.65079 0
M  V30 3659 H 371.676 3.69724 3.48233 0
M  V30 3660 H 371.606 2.39111 4.69184 0
M  V30 3661 H 374.097 2.06568 3.16446 0
M  V30 3662 H 374.41 4.73403 6.10827 0
M  V30 3663 H 372.755 4.25195 5.49759 0
M  V30 3664 H 375.946 2.62887 3.87309 0
M  V30 3665 H 376.119 3.84547 5.21562 0
M  V30 3666 N 369.525 -1.3858 0.750561 0
M  V30 3667 C 370.488 -2.28836 0.129152 0
M  V30 3668 C 371.488 -1.47045 -0.650714 0
M  V30 3669 O 372.678 -1.6753 -0.477428 0
M  V30 3670 C 369.81 -3.30751 -0.825622 0
M  V30 3671 H 371.003 -2.85294 0.924516 0
M  V30 3672 H 368.556 -1.47489 0.517376 0
M  V30 3673 H 369.291 -2.79378 -1.64677 0
M  V30 3674 H 369.076 -3.91177 -0.268852 0
M  V30 3675 H 370.566 -3.98249 -1.2565 0
M  V30 3676 N 371.003 -0.499398 -1.49478 0
M  V30 3677 C 371.966 0.268838 -2.27618 0
M  V30 3678 C 372.966 0.895383 -1.33565 0
M  V30 3679 O 374.156 0.760164 -1.56739 0
M  V30 3680 C 371.288 1.38559 -3.11471 0
M  V30 3681 H 372.481 -0.416812 -2.96989 0
M  V30 3682 H 370.034 -0.254313 -1.54217 0
M  V30 3683 H 370.769 2.10544 -2.46661 0
M  V30 3684 H 370.554 0.941797 -3.80621 0
M  V30 3685 H 372.044 1.92678 -3.70493 0
M  V30 3686 N 372.481 1.55866 -0.233164 0
M  V30 3687 C 373.892 1.847 0.272554 0
M  V30 3688 C 374.243 1.15477 1.58617 0
M  V30 3689 O 373.368 0.42841 2.12117 0
M  V30 3690 C 373.963 3.35071 0.501299 0
M  V30 3691 C 372.522 3.6418 0.951304 0
M  V30 3692 C 371.669 2.77292 0.0208209 0
M  V30 3693 H 374.62 1.52005 -0.456074 0
M  V30 3694 H 374.641 3.55906 1.34577 0
M  V30 3695 H 374.153 3.85424 -0.454936 0
M  V30 3696 H 372.254 3.19293 1.92049 0
M  V30 3697 H 372.367 4.72071 0.817675 0
M  V30 3698 H 370.731 2.49131 0.529723 0
M  V30 3699 H 371.514 3.30448 -0.93054 0
M  V30 3700 N 373.959 -0.0401083 1.57549 0
M  V30 3701 C 374.889 -1.04384 2.08869 0
M  V30 3702 C 375.87 -1.38407 0.988817 0
M  V30 3703 O 377.055 -1.47483 1.26342 0
M  V30 3704 C 374.185 -2.34808 2.55895 0
M  V30 3705 C 373.139 -2.15057 3.70047 0
M  V30 3706 C 372.465 -3.51145 4.03239 0
M  V30 3707 C 373.765 -1.54576 4.98902 0
M  V30 3708 H 375.459 -0.616666 2.92981 0
M  V30 3709 H 373.005 -0.295184 1.40942 0
M  V30 3710 H 374.958 -3.05346 2.90417 0
M  V30 3711 H 373.682 -2.79565 1.68853 0
M  V30 3712 H 372.341 -1.46954 3.35857 0
M  V30 3713 H 371.989 -3.93529 3.13279 0
M  V30 3714 H 371.689 -3.38758 4.80122 0
M  V30 3715 H 373.213 -4.23062 4.40285 0
M  V30 3716 H 374.627 -2.15017 5.31451 0
M  V30 3717 H 373.024 -1.52796 5.80322 0
M  V30 3718 H 374.094 -0.51039 4.82206 0
M  V30 3719 N 375.437 -1.54477 -0.31217 0
M  V30 3720 C 376.4 -1.83923 -1.36766 0
M  V30 3721 C 377.4 -0.711563 -1.44199 0
M  V30 3722 O 378.59 -0.979866 -1.44029 0
M  V30 3723 C 375.722 -2.0095 -2.75376 0
M  V30 3724 H 376.915 -2.78239 -1.11906 0
M  V30 3725 H 374.468 -1.46369 -0.548257 0
M  V30 3726 H 375.203 -1.08883 -3.05475 0
M  V30 3727 H 374.988 -2.83018 -2.71373 0
M  V30 3728 H 376.478 -2.2514 -3.51713 0
M  V30 3729 N 376.915 0.57481 -1.46744 0
M  V30 3730 C 378.162 1.33272 -1.52462 0
M  V30 3731 C 378.49 1.93669 -0.179572 0
M  V30 3732 O 377.745 1.7743 0.825664 0
M  V30 3733 C 378.044 2.476 -2.57738 0
M  V30 3734 C 377.71 2.05146 -4.01529 0
M  V30 3735 C 376.372 1.93284 -4.40676 0
M  V30 3736 C 378.724 1.72506 -4.91824 0
M  V30 3737 C 376.052 1.47049 -5.67973 0
M  V30 3738 C 378.404 1.27748 -6.19567 0
M  V30 3739 C 377.068 1.14468 -6.57612 0
M  V30 3740 H 376.338 0.487678 -0.557899 0
M  V30 3741 H 378.985 0.646456 -1.80259 0
M  V30 3742 H 377.29 3.21708 -2.23632 0
M  V30 3743 H 378.987 3.05807 -2.5939 0
M  V30 3744 H 375.577 2.15316 -3.7059 0
M  V30 3745 H 379.761 1.80552 -4.62293 0
M  V30 3746 H 375.017 1.35417 -5.96215 0
M  V30 3747 H 379.191 1.01547 -6.88957 0
M  V30 3748 H 376.818 0.78419 -7.56145 0
M  V30 3749 N 378.394 1.34581 0.820102 0
M  V30 3750 C 379.805 1.24298 1.39309 0
M  V30 3751 C 380.156 -0.130351 1.95767 0
M  V30 3752 O 379.281 -1.0308 1.90272 0
M  V30 3753 C 379.876 2.25054 2.53251 0
M  V30 3754 C 378.435 2.18552 3.0645 0
M  V30 3755 C 377.582 2.11503 1.79337 0
M  V30 3756 H 380.533 1.45906 0.624262 0
M  V30 3757 H 380.554 1.86917 3.31425 0
M  V30 3758 H 380.066 3.24996 2.1213 0
M  V30 3759 H 378.167 1.21976 3.52069 0
M  V30 3760 H 378.28 3.0993 3.65349 0
M  V30 3761 H 376.644 1.57268 2.00347 0
M  V30 3762 H 377.427 3.13284 1.40386 0
M  V30 3763 N 379.872 -1.04064 1.18357 0
M  V30 3764 C 381.283 -1.58719 0.98312 0
M  V30 3765 C 381.634 -1.90556 -0.467193 0
M  V30 3766 O 380.759 -1.69561 -1.34454 0
M  V30 3767 C 381.354 -2.88379 1.77828 0
M  V30 3768 C 379.913 -3.3965 1.62218 0
M  V30 3769 C 379.06 -2.13235 1.77274 0
M  V30 3770 H 382.011 -0.867359 1.32901 0
M  V30 3771 H 382.032 -3.58773 1.26737 0
M  V30 3772 H 381.544 -2.65176 2.83379 0
M  V30 3773 H 379.645 -3.67866 0.592036 0
M  V30 3774 H 379.758 -4.13475 2.42023 0
M  V30 3775 H 378.122 -2.24542 1.20221 0
M  V30 3776 H 378.905 -1.92487 2.8426 0
M  V30 3777 N 381.35 -0.985608 -1.22978 0
M  V30 3778 C 382.28 -0.549649 -2.26939 0
M  V30 3779 C 383.261 0.419803 -1.64838 0
M  V30 3780 O 384.446 0.31203 -1.91677 0
M  V30 3781 C 381.576 0.143652 -3.47003 0
M  V30 3782 C 380.53 -0.743606 -4.21491 0
M  V30 3783 C 379.856 0.0822027 -5.34637 0
M  V30 3784 C 381.156 -2.03694 -4.80943 0
M  V30 3785 H 382.85 -1.41862 -2.63658 0
M  V30 3786 H 380.396 -0.683571 -1.26741 0
M  V30 3787 H 382.349 0.459985 -4.18882 0
M  V30 3788 H 381.073 1.04711 -3.09359 0
M  V30 3789 H 379.732 -1.04347 -3.51436 0
M  V30 3790 H 379.38 0.986359 -4.93234 0
M  V30 3791 H 379.08 -0.508377 -5.85397 0
M  V30 3792 H 380.604 0.392797 -6.09335 0
M  V30 3793 H 382.018 -1.78504 -5.44802 0
M  V30 3794 H 380.415 -2.57573 -5.42011 0
M  V30 3795 H 381.485 -2.72042 -4.01399 0
M  V30 3796 N 382.828 1.3818 -0.7579 0
M  V30 3797 C 384.076 1.99624 -0.315361 0
M  V30 3798 C 384.397 1.60464 1.10799 0
M  V30 3799 O 383.667 0.863507 1.75842 0
M  V30 3800 H 382.247 0.73831 -0.113611 0
M  V30 3801 H 384.909 1.68878 -0.972952 0
M  V30 3802 H 384.005 3.09754 -0.381931 0
M  V30 3803 N 384.306 0.507319 1.49211 0
M  V30 3804 C 385.236 -0.256939 2.32082 0
M  V30 3805 C 386.217 -0.956609 1.40652 0
M  V30 3806 O 387.402 -0.946788 1.69557 0
M  V30 3807 C 384.532 -1.31802 3.21318 0
M  V30 3808 C 383.486 -0.737855 4.21592 0
M  V30 3809 C 382.812 -1.89992 4.99807 0
M  V30 3810 C 384.112 0.275325 5.21574 0
M  V30 3811 H 385.806 0.434798 2.96226 0
M  V30 3812 H 383.352 0.210546 1.42452 0
M  V30 3813 H 385.305 -1.86045 3.78107 0
M  V30 3814 H 384.029 -2.03903 2.5513 0
M  V30 3815 H 382.688 -0.217126 3.65956 0
M  V30 3816 H 382.336 -2.60877 4.30061 0
M  V30 3817 H 382.036 -1.51777 5.6766 0
M  V30 3818 H 383.56 -2.44657 5.59442 0
M  V30 3819 H 384.974 -0.179193 5.7302 0
M  V30 3820 H 383.371 0.573649 5.97352 0
M  V30 3821 H 384.441 1.18903 4.70096 0
M  V30 3822 N 385.784 -1.5574 0.241426 0
M  V30 3823 C 387.012 -2.03208 -0.389134 0
M  V30 3824 C 387.427 -1.12082 -1.51931 0
M  V30 3825 O 386.784 -0.134183 -1.82006 0
M  V30 3826 C 386.835 -3.50064 -0.902087 0
M  V30 3827 O 386.556 -4.37717 0.18305 0
M  V30 3828 C 388.057 -4.13268 -1.60389 0
M  V30 3829 H 385.277 -0.664509 -0.0931053 0
M  V30 3830 H 387.821 -2.0124 0.36369 0
M  V30 3831 H 385.976 -3.52583 -1.60511 0
M  V30 3832 H 386.39 -5.24097 -0.205579 0
M  V30 3833 H 387.864 -5.17733 -1.91458 0
M  V30 3834 H 388.341 -3.59434 -2.52397 0
M  V30 3835 H 388.947 -4.14655 -0.945576 0
M  V30 3836 N 387.262 0.0317525 -1.57568 0
M  V30 3837 C 388.673 0.578692 -1.77505 0
M  V30 3838 C 389.024 1.75749 -0.872164 0
M  V30 3839 O 388.149 2.16298 -0.0663106 0
M  V30 3840 C 388.744 1.05658 -3.21904 0
M  V30 3841 C 387.303 1.54906 -3.43047 0
M  V30 3842 C 386.45 0.485939 -2.73009 0
M  V30 3843 H 389.401 -0.194475 -1.57504 0
M  V30 3844 H 389.422 1.92404 -3.28269 0
M  V30 3845 H 388.934 0.198422 -3.87592 0
M  V30 3846 H 387.035 2.42915 -2.82529 0
M  V30 3847 H 387.148 1.59841 -4.5165 0
M  V30 3848 H 385.512 0.940354 -2.36705 0
M  V30 3849 H 386.295 -0.362709 -3.41379 0
M  V30 3850 N 388.74 1.54641 0.303973 0
M  V30 3851 C 389.965 1.78092 1.06292 0
M  V30 3852 C 390.39 0.537342 1.80262 0
M  V30 3853 O 389.748 -0.511993 1.7392 0
M  V30 3854 C 389.796 2.98612 2.02147 0
M  V30 3855 O 388.9 2.71528 3.10397 0
M  V30 3856 H 388.241 0.589548 0.305497 0
M  V30 3857 H 390.771 2.01716 0.3423 0
M  V30 3858 H 390.781 3.265 2.44667 0
M  V30 3859 H 389.456 3.88785 1.47714 0
M  V30 3860 H 388.033 2.54648 2.72413 0
M  V30 3861 N 390.218 -0.567019 1.47046 0
M  V30 3862 C 391.629 -1.14916 1.47143 0
M  V30 3863 C 391.98 -1.94954 0.220767 0
M  V30 3864 O 391.105 -2.05602 -0.67505 0
M  V30 3865 C 391.7 -2.09069 2.666 0
M  V30 3866 C 390.259 -2.62575 2.69687 0
M  V30 3867 C 389.406 -1.38755 2.40088 0
M  V30 3868 H 392.357 -0.354126 1.54699 0
M  V30 3869 H 392.378 -2.92789 2.43011 0
M  V30 3870 H 391.89 -1.50789 3.57609 0
M  V30 3871 H 389.991 -3.24681 1.82792 0
M  V30 3872 H 390.104 -3.04239 3.70102 0
M  V30 3873 H 388.468 -1.69098 1.90468 0
M  V30 3874 H 389.251 -0.822822 3.33293 0
M  V30 3875 N 391.696 -1.35014 -0.812953 0
M  V30 3876 C 392.924 -1.31031 -1.6012 0
M  V30 3877 C 393.339 0.113558 -1.88458 0
M  V30 3878 O 392.696 1.06363 -1.48301 0
M  V30 3879 C 392.747 -2.10872 -2.93624 0
M  V30 3880 O 392.468 -3.47706 -2.66518 0
M  V30 3881 C 393.969 -2.14401 -3.88004 0
M  V30 3882 H 391.189 -0.45037 -0.497401 0
M  V30 3883 H 393.733 -1.77775 -1.01076 0
M  V30 3884 H 391.888 -1.67744 -3.492 0
M  V30 3885 H 392.302 -3.89097 -3.51715 0
M  V30 3886 H 393.776 -2.74669 -4.78812 0
M  V30 3887 H 394.253 -1.14105 -4.24119 0
M  V30 3888 H 394.859 -2.57662 -3.38364 0
M  V30 3889 N 393.175 1.03435 -1.18907 0
M  V30 3890 C 394.138 2.09756 -0.923844 0
M  V30 3891 C 395.138 1.60528 0.093416 0
M  V30 3892 O 396.328 1.73631 -0.140727 0
M  V30 3893 C 393.46 3.38692 -0.387354 0
M  V30 3894 H 394.653 2.34719 -1.86674 0
M  V30 3895 H 392.206 1.19959 -1.00197 0
M  V30 3896 H 392.941 3.19396 0.561845 0
M  V30 3897 H 392.726 3.75742 -1.12074 0
M  V30 3898 H 394.216 4.17016 -0.220694 0
M  V30 3899 N 394.653 0.992116 1.22453 0
M  V30 3900 C 395.878 0.685644 1.95739 0
M  V30 3901 C 396.303 -0.743 1.72804 0
M  V30 3902 O 395.661 -1.50778 1.00676 0
M  V30 3903 C 395.709 0.996293 3.46564 0
M  V30 3904 O 394.813 0.0945512 4.12292 0
M  V30 3905 H 394.154 0.256694 0.612376 0
M  V30 3906 H 396.684 1.32888 1.5557 0
M  V30 3907 H 396.694 0.93781 3.97076 0
M  V30 3908 H 395.369 2.03733 3.62582 0
M  V30 3909 H 393.946 0.208451 3.72317 0
M  V30 3910 N 396.131 -1.37776 0.765217 0
M  V30 3911 C 397.356 -2.04651 0.336537 0
M  V30 3912 C 397.781 -1.57337 -1.03086 0
M  V30 3913 O 397.139 -0.730621 -1.65927 0
M  V30 3914 C 397.187 -3.58577 0.381468 0
M  V30 3915 O 396.291 -4.07706 -0.62042 0
M  V30 3916 H 395.632 -0.64756 0.146838 0
M  V30 3917 H 398.162 -1.76221 1.03959 0
M  V30 3918 H 398.172 -4.07314 0.236448 0
M  V30 3919 H 396.847 -3.9237 1.37907 0
M  V30 3920 H 395.424 -3.70306 -0.439056 0
M  V30 3921 N 397.609 -0.515225 -1.4894 0
M  V30 3922 C 398.539 0.244628 -2.32215 0
M  V30 3923 C 399.52 0.949136 -1.41157 0
M  V30 3924 O 400.705 0.937783 -1.70057 0
M  V30 3925 C 397.835 1.30096 -3.22013 0
M  V30 3926 C 396.789 0.715486 -4.21977 0
M  V30 3927 C 396.115 1.87339 -5.00808 0
M  V30 3928 C 397.415 -0.302982 -5.2142 0
M  V30 3929 H 399.109 -0.450501 -2.95991 0
M  V30 3930 H 396.655 -0.218098 -1.42339 0
M  V30 3931 H 398.608 1.84037 -3.79089 0
M  V30 3932 H 397.332 2.02547 -2.56207 0
M  V30 3933 H 395.991 0.197715 -3.66066 0
M  V30 3934 H 395.639 2.58592 -4.31438 0
M  V30 3935 H 395.339 1.48764 -5.68457 0
M  V30 3936 H 396.863 2.41686 -5.60732 0
M  V30 3937 H 398.277 0.148802 -5.73107 0
M  V30 3938 H 396.674 -0.60532 -5.97039 0
M  V30 3939 H 397.744 -1.21395 -4.69459 0
M  V30 3940 N 399.087 1.5561 -0.249682 0
M  V30 3941 C 400.017 2.24477 0.642826 0
M  V30 3942 C 400.998 1.22601 1.17911 0
M  V30 3943 O 402.183 1.5126 1.21795 0
M  V30 3944 C 399.313 2.94638 1.83863 0
M  V30 3945 C 398.267 4.03227 1.435 0
M  V30 3946 C 397.593 4.60828 2.71186 0
M  V30 3947 C 398.893 5.18796 0.604002 0
M  V30 3948 H 400.587 2.99321 0.0685625 0
M  V30 3949 H 398.133 1.43965 0.0315363 0
M  V30 3950 H 400.086 3.41517 2.46868 0
M  V30 3951 H 398.81 2.17287 2.43832 0
M  V30 3952 H 397.469 3.57121 0.828275 0
M  V30 3953 H 397.117 3.80174 3.29358 0
M  V30 3954 H 396.817 5.34132 2.44901 0
M  V30 3955 H 398.341 5.10442 3.35084 0
M  V30 3956 H 399.755 5.61883 1.13842 0
M  V30 3957 H 398.152 5.98506 0.437097 0
M  V30 3958 H 399.222 4.83384 -0.383147 0
M  V30 3959 N 400.565 -0.0233959 1.57583 0
M  V30 3960 C 401.813 -0.711654 1.89156 0
M  V30 3961 C 402.134 -1.75591 0.848096 0
M  V30 3962 O 401.404 -1.95547 -0.117566 0
M  V30 3963 H 399.984 -0.265835 0.698098 0
M  V30 3964 H 402.646 0.0119948 1.94896 0
M  V30 3965 H 401.742 -1.19766 2.88206 0
M  V30 3966 N 402.043 -1.548 -0.295768 0
M  V30 3967 C 402.953 -1.89177 -1.38742 0
M  V30 3968 C 403.969 -0.786481 -1.55211 0
M  V30 3969 O 405.145 -1.08344 -1.69775 0
M  V30 3970 C 402.21 -2.13663 -2.73036 0
M  V30 3971 C 401.271 -3.37349 -2.65508 0
M  V30 3972 C 400.504 -3.60658 -3.93398 0
M  V30 3973 O 400.727 -2.86882 -4.93006 0
M  V30 3974 O 399.661 -4.54179 -3.94975 0
M  V30 3975 H 403.487 -2.82059 -1.12589 0
M  V30 3976 H 401.072 -1.41056 -0.492295 0
M  V30 3977 H 402.954 -2.3094 -3.52484 0
M  V30 3978 H 401.629 -1.23967 -2.99022 0
M  V30 3979 H 400.536 -3.25431 -1.84514 0
M  V30 3980 H 401.869 -4.27192 -2.44474 0
M  V30 3981 N 403.521 0.559213 -1.47345 0
M  V30 3982 C 404.746 1.34676 -1.57725 0
M  V30 3983 C 405.171 1.86723 -0.227164 0
M  V30 3984 O 404.529 1.6286 0.796642 0
M  V30 3985 C 404.577 2.49399 -2.60447 0
M  V30 3986 O 403.681 3.51567 -2.15578 0
M  V30 3987 H 403.022 0.400115 -0.52991 0
M  V30 3988 H 405.552 0.676009 -1.93109 0
M  V30 3989 H 405.562 2.95996 -2.80803 0
M  V30 3990 H 404.237 2.10873 -3.58477 0
M  V30 3991 H 402.814 3.11289 -2.05313 0
M  V30 3992 N 404.999 1.35443 0.805782 0
M  V30 3993 C 406.41 1.25768 1.37983 0
M  V30 3994 C 406.761 -0.10958 1.95894 0
M  V30 3995 O 405.886 -1.01056 1.91355 0
M  V30 3996 C 406.481 2.27727 2.5085 0
M  V30 3997 C 405.04 2.2179 3.04115 0
M  V30 3998 C 404.187 2.13393 1.77084 0
M  V30 3999 H 407.138 1.4656 0.608752 0
M  V30 4000 H 407.159 1.90422 3.29424 0
M  V30 4001 H 406.671 3.27227 2.08671 0
M  V30 4002 H 404.772 1.25703 3.50756 0
M  V30 4003 H 404.885 3.13788 3.62042 0
M  V30 4004 H 403.249 1.59384 1.98668 0
M  V30 4005 H 404.032 3.14755 1.37056 0
M  V30 4006 N 406.477 -1.02803 1.19454 0
M  V30 4007 C 407.702 -1.80378 1.02364 0
M  V30 4008 C 408.127 -1.83282 -0.423007 0
M  V30 4009 O 407.485 -1.25945 -1.30413 0
M  V30 4010 C 407.533 -3.23248 1.59821 0
M  V30 4011 O 406.637 -4.04 0.828105 0
M  V30 4012 H 405.978 -0.556799 0.361761 0
M  V30 4013 H 408.508 -1.29385 1.58495 0
M  V30 4014 H 408.518 -3.73994 1.63073 0
M  V30 4015 H 407.193 -3.2045 2.65113 0
M  V30 4016 H 405.77 -3.62635 0.86891 0
M  V30 4017 N 407.956 -0.998596 -1.21925 0
M  V30 4018 C 408.886 -0.573688 -2.26343 0
M  V30 4019 C 409.867 0.402296 -1.65274 0
M  V30 4020 O 411.052 0.291683 -1.91997 0
M  V30 4021 C 408.182 0.106839 -3.47136 0
M  V30 4022 C 407.136 -0.788269 -4.20678 0
M  V30 4023 C 406.462 0.0254927 -5.34694 0
M  V30 4024 C 407.762 -2.08784 -4.78755 0
M  V30 4025 H 409.456 -1.44651 -2.62138 0
M  V30 4026 H 407.002 -0.696975 -1.26009 0
M  V30 4027 H 408.955 0.415531 -4.19346 0
M  V30 4028 H 407.679 1.01424 -3.10452 0
M  V30 4029 H 406.338 -1.08069 -3.50309 0
M  V30 4030 H 405.986 0.933989 -4.94253 0
M  V30 4031 H 405.686 -0.570437 -5.84825 0
M  V30 4032 H 407.21 0.328147 -6.09718 0
M  V30 4033 H 408.624 -1.84272 -5.42878 0
M  V30 4034 H 407.021 -2.63307 -5.39249 0
M  V30 4035 H 408.091 -2.76284 -3.98491 0
M  V30 4036 N 409.434 1.37368 -0.772513 0
M  V30 4037 C 410.845 1.8231 -0.402493 0
M  V30 4038 C 411.196 1.6436 1.07146 0
M  V30 4039 O 410.321 1.15514 1.82991 0
M  V30 4040 C 410.916 3.30979 -0.723776 0
M  V30 4041 C 409.475 3.74195 -0.406802 0
M  V30 4042 C 408.622 2.59885 -0.967218 0
M  V30 4043 H 411.573 1.25829 -0.967099 0
M  V30 4044 H 411.594 3.80499 -0.00870832 0
M  V30 4045 H 411.106 3.44011 -1.7966 0
M  V30 4046 H 409.207 3.66732 0.658673 0
M  V30 4047 H 409.32 4.7027 -0.915588 0
M  V30 4048 H 407.684 2.51674 -0.391416 0
M  V30 4049 H 408.467 2.7571 -2.04546 0
M  V30 4050 N 410.912 0.523116 1.48665 0
M  V30 4051 C 412.137 -0.0117284 2.07397 0
M  V30 4052 C 412.562 -1.28031 1.37803 0
M  V30 4053 O 411.92 -1.75836 0.441762 0
M  V30 4054 C 411.968 -0.225786 3.59892 0
M  V30 4055 O 411.072 -1.29592 3.91509 0
M  V30 4056 H 410.413 0.0360673 0.66302 0
M  V30 4057 H 412.943 0.729066 1.9117 0
M  V30 4058 H 412.953 -0.450552 4.05505 0
M  V30 4059 H 411.628 0.700944 4.09951 0
M  V30 4060 H 410.205 -1.05436 3.57684 0
M  V30 4061 N 412.39 -1.55475 0.257931 0
M  V30 4062 C 413.801 -1.8511 -0.243135 0
M  V30 4063 C 414.152 -1.17986 -1.5676 0
M  V30 4064 O 413.277 -0.462102 -2.11409 0
M  V30 4065 C 413.872 -3.35826 -0.447929 0
M  V30 4066 C 412.431 -3.65647 -0.893245 0
M  V30 4067 C 411.578 -2.7729 0.0232965 0
M  V30 4068 H 414.529 -1.51261 0.480199 0
M  V30 4069 H 414.55 -3.58002 -1.28898 0
M  V30 4070 H 414.062 -3.84652 0.516196 0
M  V30 4071 H 412.163 -3.22308 -1.86945 0
M  V30 4072 H 412.276 -4.73312 -0.742469 0
M  V30 4073 H 410.64 -2.49942 -0.490021 0
M  V30 4074 H 411.423 -3.28926 0.982994 0
M  V30 4075 N 413.868 0.0150385 -1.57593 0
M  V30 4076 C 415.279 0.559832 -1.78109 0
M  V30 4077 C 415.63 1.74814 -0.890756 0
M  V30 4078 O 414.755 2.16216 -0.0892482 0
M  V30 4079 C 415.35 1.02238 -3.23006 0
M  V30 4080 C 413.909 1.51258 -3.44671 0
M  V30 4081 C 413.056 0.456955 -2.73509 0
M  V30 4082 H 416.007 -0.211169 -1.57289 0
M  V30 4083 H 416.028 1.88912 -3.30292 0
M  V30 4084 H 415.54 0.157302 -3.87781 0
M  V30 4085 H 413.641 2.39905 -2.8509 0
M  V30 4086 H 413.754 1.55042 -4.5332 0
M  V30 4087 H 412.118 0.915196 -2.37689 0
M  V30 4088 H 412.901 -0.398896 -3.40975 0
M  V30 4089 N 415.346 1.54954 0.287554 0
M  V30 4090 C 416.571 1.79209 1.04397 0
M  V30 4091 C 416.996 0.556431 1.79682 0
M  V30 4092 O 416.354 -0.493518 1.74454 0
M  V30 4093 C 416.402 3.00739 1.98969 0
M  V30 4094 O 415.506 2.74805 3.075 0
M  V30 4095 H 414.847 0.592755 0.299227 0
M  V30 4096 H 417.377 2.02068 0.320886 0
M  V30 4097 H 417.387 3.29077 2.4119 0
M  V30 4098 H 416.062 3.90329 1.43582 0
M  V30 4099 H 414.639 2.57523 2.69697 0
M  V30 4100 N 416.824 -0.551391 1.4764 0
M  V30 4101 C 418.24 -0.877887 1.33287 0
M  V30 4102 C 418.44 -1.98817 0.327721 0
M  V30 4103 O 417.496 -2.51171 -0.258695 0
M  V30 4104 C 418.809 -1.26563 2.72768 0
M  V30 4105 C 420.357 -1.37673 2.81097 0
M  V30 4106 C 420.832 -1.79799 4.21232 0
M  V30 4107 N 422.323 -1.8694 4.23802 0
M  V30 4108 C 423.058 -2.20876 5.29151 0
M  V30 4109 N 422.554 -2.53386 6.448 0
M  V30 4110 N 424.347 -2.217 5.16532 0
M  V30 4111 H 416.498 0.18153 2.11623 0
M  V30 4112 H 418.761 0.0185514 0.947818 0
M  V30 4113 H 418.467 -0.523591 3.47781 0
M  V30 4114 H 418.341 -2.22052 3.04915 0
M  V30 4115 H 420.728 -2.10956 2.06353 0
M  V30 4116 H 420.809 -0.40357 2.52596 0
M  V30 4117 H 420.453 -1.07083 4.96483 0
M  V30 4118 H 420.383 -2.78128 4.4716 0
M  V30 4119 H 422.874 -1.64179 3.40373 0
M  V30 4120 H 423.187 -2.78325 7.20941 0
M  V30 4121 H 421.532 -2.50953 6.48111 0
M  V30 4122 H 424.723 -1.95745 4.25207 0
M  V30 4123 H 424.896 -2.47818 5.98741 0
M  V30 4124 N 418.302 -1.35869 -0.798587 0
M  V30 4125 C 419.527 -1.32883 -1.59238 0
M  V30 4126 C 419.952 0.0894587 -1.87887 0
M  V30 4127 O 419.31 1.05869 -1.47178 0
M  V30 4128 C 419.358 -2.14892 -2.89575 0
M  V30 4129 O 418.462 -1.53512 -3.82763 0
M  V30 4130 H 417.803 -0.455236 -0.48338 0
M  V30 4131 H 420.333 -1.79024 -0.990539 0
M  V30 4132 H 420.343 -2.27139 -3.38928 0
M  V30 4133 H 419.018 -3.17998 -2.68049 0
M  V30 4134 H 417.595 -1.50153 -3.41334 0
M  V30 4135 N 419.78 1.02168 -1.19998 0
M  V30 4136 C 421.005 1.79833 -1.03319 0
M  V30 4137 C 421.43 1.83504 0.413281 0
M  V30 4138 O 420.788 1.26635 1.29743 0
M  V30 4139 C 420.836 3.22396 -1.61533 0
M  V30 4140 O 419.94 4.03555 -0.849519 0
M  V30 4141 H 419.281 0.554872 -0.364709 0
M  V30 4142 H 421.811 1.28542 -1.59179 0
M  V30 4143 H 421.821 3.73124 -1.65054 0
M  V30 4144 H 420.496 3.19039 -2.66809 0
M  V30 4145 H 419.073 3.62169 -0.888129 0
M  V30 4146 N 421.258 1.00505 1.21394 0
M  V30 4147 C 422.483 0.706367 1.95001 0
M  V30 4148 C 422.908 -0.72463 1.73582 0
M  V30 4149 O 422.266 -1.49702 1.0227 0
M  V30 4150 C 422.314 1.03299 3.45487 0
M  V30 4151 O 421.418 0.138275 4.12168 0
M  V30 4152 H 420.759 0.263175 0.609619 0
M  V30 4153 H 423.289 1.34531 1.54151 0
M  V30 4154 H 423.299 0.979872 3.96059 0
M  V30 4155 H 421.974 2.07567 3.60401 0
M  V30 4156 H 420.551 0.247928 3.72075 0
M  V30 4157 N 422.737 -1.36956 0.779787 0
M  V30 4158 C 423.962 -2.04283 0.358224 0
M  V30 4159 C 424.387 -1.58422 -1.01411 0
M  V30 4160 O 423.745 -0.748179 -1.65142 0
M  V30 4161 C 423.793 -3.58152 0.419479 0
M  V30 4162 O 422.897 -4.08342 -0.577142 0
M  V30 4163 H 422.238 -0.645967 0.153698 0
M  V30 4164 H 424.768 -1.75108 1.05822 0
M  V30 4165 H 424.778 -4.07041 0.279636 0
M  V30 4166 H 423.453 -3.90886 1.42061 0
M  V30 4167 H 422.03 -3.70751 -0.399755 0
M  V30 4168 N 424.215 -0.530993 -1.48385 0
M  V30 4169 C 425.463 0.00273189 -2.021 0
M  V30 4170 C 425.784 1.34672 -1.41027 0
M  V30 4171 O 425.054 1.8724 -0.576012 0
M  V30 4172 H 423.634 0.00399774 -0.746989 0
M  V30 4173 H 426.296 -0.695054 -1.82085 0
M  V30 4174 H 425.392 0.11031 -3.11905 0
M  V30 4175 N 425.693 1.55336 -0.266172 0
M  V30 4176 C 426.603 2.2583 0.635458 0
M  V30 4177 C 427.619 1.28106 1.17749 0
M  V30 4178 O 428.795 1.61024 1.20968 0
M  V30 4179 C 425.86 2.95879 1.80712 0
M  V30 4180 C 424.921 4.09059 1.30265 0
M  V30 4181 C 424.154 4.75759 2.41846 0
M  V30 4182 O 424.377 4.41622 3.61007 0
M  V30 4183 O 423.311 5.63888 2.1051 0
M  V30 4184 H 427.137 3.03631 0.0646693 0
M  V30 4185 H 424.722 1.49361 -0.0339177 0
M  V30 4186 H 426.604 3.39932 2.49047 0
M  V30 4187 H 425.279 2.21002 2.36516 0
M  V30 4188 H 424.186 3.69482 0.586019 0
M  V30 4189 H 425.519 4.85811 0.790458 0
M  V30 4190 N 427.171 -0.0066808 1.57599 0
M  V30 4191 C 428.419 -0.691552 1.899 0
M  V30 4192 C 428.74 -1.74682 0.866672 0
M  V30 4193 O 428.01 -1.95661 -0.0968189 0
M  V30 4194 H 426.59 -0.258416 0.700878 0
M  V30 4195 H 429.252 0.0326655 1.94873 0
M  V30 4196 H 428.348 -1.16702 2.8946 0
M  V30 4197 N 428.649 -1.55105 -0.279332 0
M  V30 4198 C 429.877 -1.7943 -1.03017 0
M  V30 4199 C 430.292 -0.564456 -1.80165 0
M  V30 4200 O 429.649 0.466326 -1.76442 0
M  V30 4201 C 429.7 -3.0155 -1.99374 0
M  V30 4202 O 429.421 -4.19784 -1.25352 0
M  V30 4203 C 430.922 -3.3843 -2.86321 0
M  V30 4204 H 428.142 -0.597882 -0.304594 0
M  V30 4205 H 430.686 -2.02105 -0.312035 0
M  V30 4206 H 428.841 -2.81019 -2.66659 0
M  V30 4207 H 429.255 -4.88781 -1.90246 0
M  V30 4208 H 430.729 -4.27066 -3.49741 0
M  V30 4209 H 431.206 -2.57549 -3.5576 0
M  V30 4210 H 431.812 -3.61197 -2.24536 0
M  V30 4211 N 430.127 0.543554 -1.4793 0
M  V30 4212 C 431.367 1.31072 -1.56843 0
M  V30 4213 C 431.731 1.90604 -0.231124 0
M  V30 4214 O 432.932 2.68091 -0.195165 0
M  V30 4215 C 431.203 2.38106 -2.66533 0
M  V30 4216 S 432.762 3.24729 -2.95122 0
M  V30 4217 H 429.58 0.446035 -0.553691 0
M  V30 4218 H 432.182 0.620777 -1.85382 0
M  V30 4219 H 430.886 1.92828 -3.62278 0
M  V30 4220 H 430.417 3.11824 -2.39852 0
M  V30 4221 H 432.432 4.37891 -2.3338 0
M  V30 4222 N 431.605 1.3629 0.791371 0
M  V30 4223 C 432.568 1.30309 1.88553 0
M  V30 4224 C 433.568 0.211204 1.59407 0
M  V30 4225 O 434.758 0.465865 1.67855 0
M  V30 4226 C 431.89 1.01956 3.25297 0
M  V30 4227 H 433.083 2.27614 1.95273 0
M  V30 4228 H 430.636 1.21035 0.988953 0
M  V30 4229 H 431.371 0.050998 3.2426 0
M  V30 4230 H 431.156 1.80968 3.4784 0
M  V30 4231 H 432.646 1.0037 4.05359 0
M  V30 4232 N 433.083 -1.0153 1.20538 0
M  V30 4233 C 434.329 -1.75408 1.01783 0
M  V30 4234 C 434.662 -1.88943 -0.448814 0
M  V30 4235 O 433.937 -1.4162 -1.33319 0
M  V30 4236 C 434.22 -3.17255 1.70356 0
M  V30 4237 C 434.073 -3.11508 3.24473 0
M  V30 4238 C 435.392 -4.15955 1.43769 0
M  V30 4239 H 432.511 -0.636713 0.371167 0
M  V30 4240 H 435.153 -1.18436 1.4857 0
M  V30 4241 H 433.303 -3.65898 1.30578 0
M  V30 4242 H 434.975 -2.70658 3.73553 0
M  V30 4243 H 433.218 -2.4887 3.55311 0
M  V30 4244 H 433.889 -4.11784 3.67611 0
M  V30 4245 H 436.365 -3.75973 1.7828 0
M  V30 4246 H 435.241 -5.13368 1.94279 0
M  V30 4247 H 435.502 -4.40586 0.365564 0
M  V30 4248 N 434.561 -1.01147 -1.20859 0
M  V30 4249 C 435.801 -0.706331 -1.91808 0
M  V30 4250 C 436.165 0.749736 -1.76757 0
M  V30 4251 O 437.366 1.16716 -2.42138 0
M  V30 4252 C 435.637 -1.12371 -3.39275 0
M  V30 4253 S 437.196 -0.939764 -4.28619 0
M  V30 4254 H 434.014 -0.257665 -0.662669 0
M  V30 4255 H 436.616 -1.29766 -1.46223 0
M  V30 4256 H 435.32 -2.17943 -3.47749 0
M  V30 4257 H 434.851 -0.524952 -3.89882 0
M  V30 4258 H 436.866 0.159556 -4.95943 0
M  V30 4259 N 436.039 1.36541 -0.78704 0
M  V30 4260 C 437.287 1.98911 -0.357633 0
M  V30 4261 C 437.608 1.62778 1.07371 0
M  V30 4262 O 436.878 0.900612 1.73971 0
M  V30 4263 H 435.458 0.735734 -0.129246 0
M  V30 4264 H 438.12 1.66776 -1.00855 0
M  V30 4265 H 437.216 3.08874 -0.447549 0
M  V30 4266 N 437.518 0.538854 1.48102 0
M  V30 4267 C 438.795 -0.0568108 1.95517 0
M  V30 4268 C 439.175 -1.50408 1.48124 0
M  V30 4269 O 438.523 -2.17133 0.711727 0
M  V30 4270 C 438.733 0.0696262 3.48931 0
M  V30 4271 C 440.081 -0.0851202 4.24515 0
M  V30 4272 O 441.105 -0.0037347 3.562 0
M  V30 4273 O 439.964 -0.257025 5.45895 0
M  V30 4274 H 437.058 -0.0743695 0.823649 0
M  V30 4275 H 439.604 0.604081 1.58584 0
M  V30 4276 H 438.376 1.07744 3.76174 0
M  V30 4277 H 437.999 -0.629714 3.92582 0
M  V30 4278 N 438.996 -1.55193 0.274407 0
M  V30 4279 C 439.944 -2.23924 -0.629362 0
M  V30 4280 C 440.938 -1.23602 -1.1584 0
M  V30 4281 O 442.144 -1.41535 -1.11211 0
M  V30 4282 H 438.519 -0.718637 -0.221507 0
M  V30 4283 H 440.49 -2.98388 -0.0268322 0
M  V30 4284 C 439.239 -2.97329 -1.80252 0
M  V30 4285 H 438.562 -3.74313 -1.40462 0
M  V30 4286 H 440.002 -3.48743 -2.41152 0
M  V30 4287 C 438.461 -2.0276 -2.69054 0
M  V30 4288 O 438.991 -1.57836 -3.69392 0
M  V30 4289 N 437.197 -1.69275 -2.36208 0
M  V30 4290 H 436.744 -2.06004 -1.54661 0
M  V30 4291 H 436.702 -1.06271 -2.95895 0
M  V30 4292 N 440.474 -0.00167713 -1.576 0
M  V30 4293 C 441.437 0.974046 -2.07473 0
M  V30 4294 C 442.437 1.27143 -0.984444 0
M  V30 4295 O 443.627 1.21633 -1.24703 0
M  V30 4296 C 440.759 2.29849 -2.51759 0
M  V30 4297 H 441.952 0.54262 -2.9495 0
M  V30 4298 H 439.505 0.245829 -1.54355 0
M  V30 4299 H 440.24 2.77677 -1.67529 0
M  V30 4300 H 440.025 2.09584 -3.31386 0
M  V30 4301 H 441.515 2.9984 -2.90664 0
M  V30 4302 N 441.952 1.55251 0.271103 0
M  V30 4303 C 442.915 1.87484 1.31842 0
M  V30 4304 C 443.915 0.749545 1.42262 0
M  V30 4305 O 445.105 1.01771 1.4138 0
M  V30 4306 C 442.237 2.0818 2.69951 0
M  V30 4307 H 443.43 2.81108 1.0449 0
M  V30 4308 H 440.983 1.47771 0.509258 0
M  V30 4309 H 441.718 1.16944 3.02481 0
M  V30 4310 H 441.503 2.90114 2.63774 0
M  V30 4311 H 442.993 2.34385 3.4562 0
M  V30 4312 N 443.43 -0.535701 1.48216 0
M  V30 4313 C 444.67 -1.30238 1.57536 0
M  V30 4314 C 445.034 -1.90479 0.241229 0
M  V30 4315 O 446.235 -2.67983 0.20938 0
M  V30 4316 C 444.506 -2.3669 2.67792 0
M  V30 4317 S 446.065 -3.23159 2.9684 0
M  V30 4318 H 442.883 -0.443093 0.556048 0
M  V30 4319 H 445.485 -0.610937 1.85709 0
M  V30 4320 H 444.189 -1.90905 3.63296 0
M  V30 4321 H 443.72 -3.10548 2.41502 0
M  V30 4322 H 445.735 -4.36647 2.35699 0
M  V30 4323 N 444.908 -1.36708 -0.784132 0
M  V30 4324 C 445.84 -1.27333 -1.90575 0
M  V30 4325 C 446.853 -0.191706 -1.61667 0
M  V30 4326 O 448.042 -0.446854 -1.72816 0
M  V30 4327 C 445.142 -0.943177 -3.25511 0
M  V30 4328 C 444.315 -2.12776 -3.82158 0
M  V30 4329 C 443.374 -1.76983 -4.95544 0
M  V30 4330 O 442.4 -2.49134 -5.11782 0
M  V30 4331 N 443.602 -0.706624 -5.76183 0
M  V30 4332 H 446.367 -2.23974 -1.99138 0
M  V30 4333 H 443.928 -1.30171 -0.962656 0
M  V30 4334 H 445.92 -0.684799 -3.98864 0
M  V30 4335 H 444.49 -0.0657333 -3.12531 0
M  V30 4336 H 443.71 -2.54863 -3.0073 0
M  V30 4337 H 444.998 -2.91904 -4.16737 0
M  V30 4338 H 444.396 -0.107643 -5.65598 0
M  V30 4339 H 442.953 -0.50808 -6.49817 0
M  V30 4340 N 446.386 1.0089 -1.21074 0
M  V30 4341 C 447.336 2.0799 -0.934034 0
M  V30 4342 C 448.32 1.60529 0.10919 0
M  V30 4343 O 449.512 1.76722 -0.0992198 0
M  V30 4344 C 446.641 3.39693 -0.496334 0
M  V30 4345 C 445.727 3.93833 -1.57341 0
M  V30 4346 N 446.118 4.21388 -2.7976 0
M  V30 4347 C 444.416 4.22067 -1.44137 0
M  V30 4348 C 445.117 4.65156 -3.49292 0
M  V30 4349 N 444.093 4.67895 -2.76722 0
M  V30 4350 H 447.895 2.27213 -1.86417 0
M  V30 4351 H 445.409 1.18927 -1.10589 0
M  V30 4352 H 447.406 4.15962 -0.279471 0
M  V30 4353 H 446.066 3.21879 0.427084 0
M  V30 4354 H 447.077 4.10061 -3.1634 0
M  V30 4355 H 443.754 4.1341 -0.582947 0
M  V30 4356 H 445.144 4.95231 -4.54088 0
M  V30 4357 N 447.864 1.01787 1.20321 0
M  V30 4358 C 449.094 0.72614 1.93419 0
M  V30 4359 C 449.502 -0.717317 1.75075 0
M  V30 4360 O 448.845 -1.49836 1.06278 0
M  V30 4361 C 448.907 0.983621 3.45782 0
M  V30 4362 C 448.571 2.41645 3.87888 0
M  V30 4363 C 449.568 3.39732 3.93545 0
M  V30 4364 C 447.253 2.75752 4.19841 0
M  V30 4365 C 449.247 4.69988 4.30569 0
M  V30 4366 C 446.934 4.06221 4.56539 0
M  V30 4367 C 447.932 5.0315 4.61876 0
M  V30 4368 O 447.62 6.31284 4.97731 0
M  V30 4369 H 447.352 0.265824 0.621541 0
M  V30 4370 H 449.906 1.3623 1.53722 0
M  V30 4371 H 448.136 0.290301 3.85609 0
M  V30 4372 H 449.825 0.683279 4.00108 0
M  V30 4373 H 450.591 3.14718 3.69022 0
M  V30 4374 H 446.47 2.00993 4.14877 0
M  V30 4375 H 450.014 5.45642 4.3465 0
M  V30 4376 H 445.911 4.31013 4.80518 0
M  V30 4377 H 446.679 6.35591 5.15719 0
M  V30 4378 N 449.342 -1.36122 0.79427 0
M  V30 4379 C 450.59 -1.98718 0.368177 0
M  V30 4380 C 450.911 -1.63345 -1.06506 0
M  V30 4381 O 450.181 -0.909825 -1.73491 0
M  V30 4382 H 448.761 -0.735038 0.133146 0
M  V30 4383 H 451.423 -1.66239 1.01739 0
M  V30 4384 H 450.519 -3.08633 0.463923 0
M  V30 4385 N 450.82 -0.546701 -1.47814 0
M  V30 4386 C 452.066 -0.0187684 -2.02791 0
M  V30 4387 C 452.399 1.32338 -1.42128 0
M  V30 4388 O 451.674 1.85867 -0.573023 0
M  V30 4389 C 451.957 0.0854985 -3.59998 0
M  V30 4390 C 451.81 -1.283 -4.31114 0
M  V30 4391 C 453.129 0.80412 -4.32691 0
M  V30 4392 H 450.248 -0.0082946 -0.736953 0
M  V30 4393 H 452.89 -0.706962 -1.76358 0
M  V30 4394 H 451.04 0.671609 -3.82651 0
M  V30 4395 H 452.712 -1.91151 -4.19832 0
M  V30 4396 H 450.955 -1.86049 -3.91878 0
M  V30 4397 H 451.626 -1.16287 -5.39612 0
M  V30 4398 H 454.102 0.306576 -4.14969 0
M  V30 4399 H 452.978 0.846011 -5.42341 0
M  V30 4400 H 453.239 1.85802 -4.01161 0
M  V30 4401 N 452.299 1.55045 -0.282633 0
M  V30 4402 C 453.715 1.59441 0.0712997 0
M  V30 4403 C 453.915 1.2998 1.53972 0
M  V30 4404 O 452.971 1.06431 2.28973 0
M  V30 4405 C 454.284 2.99097 -0.310104 0
M  V30 4406 C 455.832 3.1194 -0.257343 0
M  V30 4407 C 456.307 4.53875 -0.613297 0
M  V30 4408 N 457.798 4.5974 -0.565134 0
M  V30 4409 C 458.533 5.67603 -0.81326 0
M  V30 4410 N 458.029 6.83582 -1.1264 0
M  V30 4411 N 459.822 5.57187 -0.741553 0
M  V30 4412 H 451.973 1.72458 -1.23984 0
M  V30 4413 H 454.236 0.804549 -0.501403 0
M  V30 4414 H 453.942 3.25516 -1.33163 0
M  V30 4415 H 453.816 3.75616 0.345366 0
M  V30 4416 H 456.203 2.85281 0.754905 0
M  V30 4417 H 456.284 2.37618 -0.947178 0
M  V30 4418 H 455.928 4.81261 -1.62327 0
M  V30 4419 H 455.858 5.26508 0.09841 0
M  V30 4420 H 458.349 3.76427 -0.333294 0
M  V30 4421 H 458.662 7.6175 -1.30219 0
M  V30 4422 H 457.007 6.85179 -1.16425 0
M  V30 4423 H 460.198 4.65457 -0.496705 0
M  V30 4424 H 460.371 6.41171 -0.938306 0
M  V30 4425 N 453.777 0.010035 1.57597 0
M  V30 4426 C 455.005 -0.683413 1.95287 0
M  V30 4427 C 455.42 -1.66747 0.885481 0
M  V30 4428 O 454.777 -1.82003 -0.134629 0
M  V30 4429 C 454.828 -1.40652 3.33015 0
M  V30 4430 O 454.549 -0.461916 4.35658 0
M  V30 4431 C 456.05 -2.19356 3.85225 0
M  V30 4432 H 453.27 -0.189708 0.643624 0
M  V30 4433 H 455.814 0.0641359 2.04399 0
M  V30 4434 H 453.969 -2.10562 3.2518 0
M  V30 4435 H 454.383 -0.973215 5.15392 0
M  V30 4436 H 455.857 -2.65433 4.83993 0
M  V30 4437 H 456.334 -3.02457 3.18459 0
M  V30 4438 H 456.94 -1.54442 3.96267 0
M  V30 4439 N 455.255 -1.55392 -0.262866 0
M  V30 4440 C 456.495 -1.78231 -1.00064 0
M  V30 4441 C 456.859 -0.576966 -1.83126 0
M  V30 4442 O 458.06 -0.683809 -2.59957 0
M  V30 4443 C 456.331 -3.05701 -1.85153 0
M  V30 4444 S 457.89 -3.49699 -2.65058 0
M  V30 4445 H 454.708 -0.626138 -0.336856 0
M  V30 4446 H 457.31 -1.93626 -0.27005 0
M  V30 4447 H 456.014 -3.91511 -1.23074 0
M  V30 4448 H 455.545 -2.93 -2.62515 0
M  V30 4449 H 457.56 -3.09772 -3.87629 0
M  V30 4450 N 456.733 0.527833 -1.48498 0
M  V30 4451 C 457.643 1.65907 -1.65867 0
M  V30 4452 C 458.659 1.6537 -0.541192 0
M  V30 4453 O 459.835 1.84282 -0.812534 0
M  V30 4454 C 456.9 3.02364 -1.69637 0
M  V30 4455 C 455.961 3.1374 -2.93028 0
M  V30 4456 C 455.194 4.43688 -2.96609 0
M  V30 4457 O 455.417 5.30913 -2.08538 0
M  V30 4458 O 454.351 4.59475 -3.88802 0
M  V30 4459 H 458.177 1.5419 -2.61647 0
M  V30 4460 H 455.762 0.701163 -1.31924 0
M  V30 4461 H 457.644 3.83515 -1.74625 0
M  V30 4462 H 456.319 3.14401 -0.770312 0
M  V30 4463 H 455.226 2.31877 -2.93571 0
M  V30 4464 H 456.559 3.06621 -3.85026 0
M  V30 4465 N 458.211 1.37122 0.776871 0
M  V30 4466 C 459.459 1.31787 1.53221 0
M  V30 4467 C 459.78 -0.0987589 1.9475 0
M  V30 4468 O 459.05 -1.0417 1.65908 0
M  V30 4469 H 457.63 0.484839 0.568278 0
M  V30 4470 H 460.292 1.71556 0.924917 0
M  V30 4471 H 459.388 1.95355 2.43398 0
M  V30 4472 N 459.689 -1.00246 1.21608 0
M  V30 4473 C 460.929 -1.75589 1.04631 0
M  V30 4474 C 461.293 -1.87513 -0.412648 0
M  V30 4475 O 462.494 -2.59444 -0.703003 0
M  V30 4476 C 460.765 -3.12893 1.72722 0
M  V30 4477 S 462.324 -4.04095 1.71034 0
M  V30 4478 H 459.142 -0.604133 0.374892 0
M  V30 4479 H 461.744 -1.19927 1.54395 0
M  V30 4480 H 460.448 -3.0185 2.78055 0
M  V30 4481 H 459.979 -3.73628 1.23149 0
M  V30 4482 H 461.994 -4.9045 0.753231 0
M  V30 4483 N 461.167 -1.02423 -1.1978 0
M  V30 4484 C 462.114 -0.601023 -2.22837 0
M  V30 4485 C 463.084 0.382801 -1.61629 0
M  V30 4486 O 464.269 0.280514 -1.88727 0
M  V30 4487 C 461.409 0.0467755 -3.45068 0
M  V30 4488 C 460.522 -0.98253 -4.20678 0
M  V30 4489 C 459.657 -0.304982 -5.30324 0
M  V30 4490 C 458.696 -1.32052 -5.97686 0
M  V30 4491 N 457.833 -0.669105 -6.98904 0
M  V30 4492 H 462.673 -1.48444 -2.58396 0
M  V30 4493 H 460.21 -0.742936 -1.2696 0
M  V30 4494 H 462.168 0.439556 -4.14878 0
M  V30 4495 H 460.798 0.893796 -3.10179 0
M  V30 4496 H 459.85 -1.49341 -3.49859 0
M  V30 4497 H 461.162 -1.75455 -4.66923 0
M  V30 4498 H 460.316 0.142893 -6.06532 0
M  V30 4499 H 459.055 0.499283 -4.85138 0
M  V30 4500 H 458.06 -1.7787 -5.20233 0
M  V30 4501 H 459.285 -2.1262 -6.44957 0
M  V30 4502 H 457.231 0.115152 -6.55899 0
M  V30 4503 H 457.148 -1.37908 -7.43315 0
M  V30 4504 H 458.416 -0.245076 -7.79115 0
M  V30 4505 N 462.645 1.35699 -0.801477 0
M  V30 4506 C 463.893 1.9852 -0.37871 0
M  V30 4507 C 464.214 1.63907 1.05638 0
M  V30 4508 O 463.484 0.919013 1.73006 0
M  V30 4509 H 462.064 0.734322 -0.137042 0
M  V30 4510 H 464.726 1.65697 -1.02619 0
M  V30 4511 H 463.822 3.08382 -0.480284 0
M  V30 4512 N 464.123 0.554532 1.47522 0
M  V30 4513 C 465.37 0.029479 2.02479 0
M  V30 4514 C 465.698 -1.31929 1.42916 0
M  V30 4515 O 464.953 -1.87112 0.573385 0
M  V30 4516 C 465.252 -0.115927 3.57212 0
M  V30 4517 C 464.918 1.16161 4.3568 0
M  V30 4518 C 463.58 1.51168 4.56839 0
M  V30 4519 C 465.932 2.0083 4.80954 0
M  V30 4520 C 463.26 2.70696 5.2052 0
M  V30 4521 C 465.612 3.19559 5.45953 0
M  V30 4522 C 464.276 3.54882 5.65345 0
M  V30 4523 H 463.546 0.0107871 0.740921 0
M  V30 4524 H 466.193 0.725506 1.77225 0
M  V30 4525 H 464.498 -0.894902 3.81443 0
M  V30 4526 H 466.195 -0.53749 3.97381 0
M  V30 4527 H 462.785 0.879026 4.19489 0
M  V30 4528 H 466.969 1.75093 4.64388 0
M  V30 4529 H 462.225 2.98236 5.33728 0
M  V30 4530 H 466.399 3.85456 5.79997 0
M  V30 4531 H 464.026 4.47596 6.1446 0
M  V30 4532 N 465.601 -1.54893 0.290851 0
M  V30 4533 C 466.848 -1.99933 -0.321391 0
M  V30 4534 C 467.176 -1.17927 -1.54672 0
M  V30 4535 O 466.431 -0.240902 -1.94212 0
M  V30 4536 C 466.73 -3.49815 -0.732397 0
M  V30 4537 C 466.396 -4.4921 0.390056 0
M  V30 4538 C 465.058 -4.76107 0.698223 0
M  V30 4539 C 467.41 -5.08453 1.14562 0
M  V30 4540 C 464.738 -5.59514 1.76526 0
M  V30 4541 C 467.09 -5.9302 2.2025 0
M  V30 4542 C 465.754 -6.18232 2.51684 0
M  V30 4543 H 465.024 -0.731608 -0.117605 0
M  V30 4544 H 467.671 -1.87107 0.407839 0
M  V30 4545 H 465.976 -3.60199 -1.54155 0
M  V30 4546 H 467.673 -3.82083 -1.21712 0
M  V30 4547 H 464.263 -4.28372 0.13976 0
M  V30 4548 H 468.447 -4.87683 0.920801 0
M  V30 4549 H 463.703 -5.77289 2.01364 0
M  V30 4550 H 467.877 -6.37955 2.7926 0
M  V30 4551 H 465.504 -6.82653 3.34499 0
M  V30 4552 N 467.08 -0.0183926 -1.57589 0
M  V30 4553 C 468.027 0.967022 -2.09565 0
M  V30 4554 C 468.997 1.32983 -0.995225 0
M  V30 4555 O 470.182 1.42501 -1.26878 0
M  V30 4556 C 467.322 2.24772 -2.61861 0
M  V30 4557 C 466.435 1.94232 -3.85873 0
M  V30 4558 C 465.57 3.16518 -4.26603 0
M  V30 4559 C 464.609 2.81748 -5.43401 0
M  V30 4560 N 463.746 3.96626 -5.79338 0
M  V30 4561 H 468.586 0.516874 -2.93483 0
M  V30 4562 H 466.123 0.243544 -1.4507 0
M  V30 4563 H 468.081 2.99667 -2.90268 0
M  V30 4564 H 466.711 2.67423 -1.8079 0
M  V30 4565 H 465.763 1.09625 -3.64262 0
M  V30 4566 H 467.075 1.64616 -4.70853 0
M  V30 4567 H 466.229 3.99743 -4.56389 0
M  V30 4568 H 464.968 3.49286 -3.40368 0
M  V30 4569 H 463.973 1.96933 -5.1332 0
M  V30 4570 H 465.198 2.50207 -6.31327 0
M  V30 4571 H 463.144 4.29257 -4.96059 0
M  V30 4572 H 463.061 3.70598 -6.58933 0
M  V30 4573 H 464.329 4.80586 -6.13724 0
M  V30 4574 N 468.558 1.5553 0.254621 0
M  V30 4575 C 469.974 1.4778 0.602753 0
M  V30 4576 C 470.174 0.707047 1.88688 0
M  V30 4577 O 469.23 0.233288 2.5142 0
M  V30 4578 C 470.543 2.92133 0.712648 0
M  V30 4579 C 472.091 3.02458 0.805488 0
M  V30 4580 C 472.566 4.48102 0.947009 0
M  V30 4581 N 474.057 4.52008 1.01207 0
M  V30 4582 C 474.792 5.61939 1.1407 0
M  V30 4583 N 474.288 6.81697 1.23536 0
M  V30 4584 N 476.081 5.49719 1.17325 0
M  V30 4585 H 468.232 2.04085 -0.588463 0
M  V30 4586 H 470.495 0.926229 -0.202001 0
M  V30 4587 H 470.201 3.51332 -0.160766 0
M  V30 4588 H 470.075 3.42187 1.58707 0
M  V30 4589 H 472.462 2.43344 1.66936 0
M  V30 4590 H 472.543 2.55627 -0.0939266 0
M  V30 4591 H 472.187 5.07824 0.087725 0
M  V30 4592 H 472.117 4.92607 1.86135 0
M  V30 4593 H 474.608 3.65749 0.950577 0
M  V30 4594 H 474.921 7.61228 1.33236 0
M  V30 4595 H 473.266 6.84473 1.20508 0
M  V30 4596 H 476.457 4.55095 1.09573 0
M  V30 4597 H 476.63 6.35432 1.27005 0
M  V30 4598 N 470.036 -0.519951 1.48776 0
M  V30 4599 C 471.264 -1.29971 1.60982 0
M  V30 4600 C 471.679 -1.86803 0.273885 0
M  V30 4601 O 471.036 -1.66904 -0.738193 0
M  V30 4602 C 471.087 -2.44346 2.66415 0
M  V30 4603 O 470.808 -1.89855 3.94825 0
M  V30 4604 C 472.309 -3.36014 2.89153 0
M  V30 4605 H 469.529 -0.394891 0.542496 0
M  V30 4606 H 472.073 -0.626214 1.94676 0
M  V30 4607 H 470.228 -3.07562 2.35552 0
M  V30 4608 H 470.642 -2.64798 4.5275 0
M  V30 4609 H 472.116 -4.12593 3.66703 0
M  V30 4610 H 472.593 -3.91859 1.98351 0
M  V30 4611 H 473.199 -2.78582 3.21359 0
M  V30 4612 N 471.514 -1.37532 -0.769588 0
M  V30 4613 C 472.76 -1.33057 -1.53048 0
M  V30 4614 C 473.093 0.0841865 -1.94017 0
M  V30 4615 O 472.368 1.04198 -1.64235 0
M  V30 4616 C 472.651 -2.27166 -2.79406 0
M  V30 4617 C 472.504 -3.77429 -2.44677 0
M  V30 4618 C 473.823 -2.19683 -3.81349 0
M  V30 4619 H 470.942 -0.484655 -0.555228 0
M  V30 4620 H 473.584 -1.68251 -0.882702 0
M  V30 4621 H 471.734 -1.97283 -3.34682 0
M  V30 4622 H 473.406 -4.17918 -1.953 0
M  V30 4623 H 471.649 -3.95892 -1.77346 0
M  V30 4624 H 472.32 -4.38716 -3.35011 0
M  V30 4625 H 474.796 -2.46029 -3.35573 0
M  V30 4626 H 473.672 -2.87668 -4.67481 0
M  V30 4627 H 473.933 -1.19045 -4.25771 0
M  V30 4628 N 472.992 0.995999 -1.22138 0
M  V30 4629 C 473.924 2.08745 -0.946485 0
M  V30 4630 C 474.937 1.62633 0.0737356 0
M  V30 4631 O 476.126 1.77782 -0.159886 0
M  V30 4632 C 473.226 3.36516 -0.401305 0
M  V30 4633 C 472.399 4.11672 -1.47801 0
M  V30 4634 C 471.458 5.17728 -0.940461 0
M  V30 4635 O 470.484 5.45482 -1.62596 0
M  V30 4636 N 471.686 5.80005 0.239723 0
M  V30 4637 H 474.451 2.32908 -1.88611 0
M  V30 4638 H 472.012 1.16152 -1.12785 0
M  V30 4639 H 474.004 4.04691 -0.0270837 0
M  V30 4640 H 472.574 3.0944 0.443354 0
M  V30 4641 H 471.794 3.38171 -2.02568 0
M  V30 4642 H 473.082 4.58657 -2.20253 0
M  V30 4643 H 472.48 5.5982 0.813518 0
M  V30 4644 H 471.037 6.4943 0.555361 0
M  V30 4645 N 474.47 1.03057 1.19235 0
M  V30 4646 C 475.417 0.612832 2.22515 0
M  V30 4647 C 476.387 -0.374224 1.61829 0
M  V30 4648 O 477.572 -0.270501 1.88873 0
M  V30 4649 C 474.712 -0.028475 3.45088 0
M  V30 4650 C 473.825 1.00483 4.20151 0
M  V30 4651 C 472.96 0.333102 5.30155 0
M  V30 4652 C 471.999 1.3522 5.96977 0
M  V30 4653 N 471.136 0.70616 6.9854 0
M  V30 4654 H 475.976 1.49812 2.57605 0
M  V30 4655 H 473.513 0.749658 1.26564 0
M  V30 4656 H 475.471 -0.417548 4.15105 0
M  V30 4657 H 474.101 -0.877334 3.10649 0
M  V30 4658 H 473.153 1.51194 3.49062 0
M  V30 4659 H 474.465 1.77929 4.65986 0
M  V30 4660 H 473.619 -0.110725 6.06599 0
M  V30 4661 H 472.358 -0.473547 4.85396 0
M  V30 4662 H 471.363 1.80627 5.19282 0
M  V30 4663 H 472.588 2.16037 6.4382 0
M  V30 4664 H 470.534 -0.0803667 6.55951 0
M  V30 4665 H 470.451 1.41848 7.42573 0
M  V30 4666 H 471.719 0.286391 7.78974 0
M  V30 4667 N 475.948 -1.35272 0.808662 0
M  V30 4668 C 476.896 -2.31663 0.208606 0
M  V30 4669 C 477.89 -1.56731 -0.642778 0
M  V30 4670 O 479.096 -1.71843 -0.53571 0
M  V30 4671 H 475.471 -0.750421 0.0486993 0
M  V30 4672 H 477.442 -2.79814 1.03666 0
M  V30 4673 C 476.191 -3.42008 -0.626573 0
M  V30 4674 H 475.514 -3.99795 0.0192103 0
M  V30 4675 H 476.954 -4.11727 -1.01278 0
M  V30 4676 C 475.413 -2.85226 -1.79298 0
M  V30 4677 O 475.943 -2.78945 -2.89055 0
M  V30 4678 N 474.149 -2.42245 -1.60516 0
M  V30 4679 H 473.696 -2.47554 -0.712375 0
M  V30 4680 H 473.654 -2.04603 -2.38715 0
M  V30 4681 N 477.426 -0.562348 -1.47226 0
M  V30 4682 C 478.389 0.172056 -2.28553 0
M  V30 4683 C 479.389 0.837928 -1.37242 0
M  V30 4684 O 480.579 0.693001 -1.59822 0
M  V30 4685 C 477.711 1.25223 -3.17068 0
M  V30 4686 H 478.904 -0.542401 -2.94954 0
M  V30 4687 H 476.457 -0.319493 -1.53 0
M  V30 4688 H 477.192 1.99892 -2.55369 0
M  V30 4689 H 476.977 0.779515 -3.84273 0
M  V30 4690 H 478.467 1.76791 -3.78332 0
M  V30 4691 N 478.904 1.54736 -0.299062 0
M  V30 4692 C 479.851 2.23448 0.577899 0
M  V30 4693 C 480.821 1.21637 1.13109 0
M  V30 4694 O 482.006 1.50252 1.17597 0
M  V30 4695 C 479.146 2.9774 1.74484 0
M  V30 4696 C 478.259 4.1432 1.22323 0
M  V30 4697 C 477.394 4.76199 2.35388 0
M  V30 4698 C 476.433 5.84927 1.80351 0
M  V30 4699 N 475.57 6.4077 2.86982 0
M  V30 4700 H 480.41 2.97996 -0.0146545 0
M  V30 4701 H 477.947 1.47088 -0.0190013 0
M  V30 4702 H 479.905 3.39045 2.43114 0
M  V30 4703 H 478.535 2.25572 2.30905 0
M  V30 4704 H 477.587 3.7797 0.429249 0
M  V30 4705 H 478.899 4.92659 0.780309 0
M  V30 4706 H 478.053 5.20346 3.11969 0
M  V30 4707 H 476.792 3.97188 2.83006 0
M  V30 4708 H 475.797 5.40207 1.02259 0
M  V30 4709 H 477.022 6.65821 1.3364 0
M  V30 4710 H 474.968 5.64643 3.33938 0
M  V30 4711 H 474.885 7.1445 2.4718 0
M  V30 4712 H 476.153 6.89574 3.63466 0
M  V30 4713 N 480.382 0.0267497 1.57577 0
M  V30 4714 C 481.612 -0.6617 1.95717 0
M  V30 4715 C 482.02 -1.66331 0.901706 0
M  V30 4716 O 481.363 -1.83273 -0.125241 0
M  V30 4717 C 481.425 -1.42649 3.29987 0
M  V30 4718 C 481.089 -0.583482 4.5326 0
M  V30 4719 C 482.086 0.140221 5.19711 0
M  V30 4720 C 479.771 -0.521581 4.99585 0
M  V30 4721 C 481.765 0.914523 6.30805 0
M  V30 4722 C 479.452 0.256428 6.10562 0
M  V30 4723 C 480.45 0.973189 6.76031 0
M  V30 4724 O 480.138 1.73845 7.84878 0
M  V30 4725 H 479.87 -0.187483 0.649481 0
M  V30 4726 H 482.424 0.0820847 2.05236 0
M  V30 4727 H 480.654 -2.21536 3.16952 0
M  V30 4728 H 482.343 -2.00282 3.53047 0
M  V30 4729 H 483.109 0.101716 4.84893 0
M  V30 4730 H 478.988 -1.06904 4.48433 0
M  V30 4731 H 482.532 1.4745 6.81839 0
M  V30 4732 H 478.429 0.296657 6.44818 0
M  V30 4733 H 479.197 1.65797 8.01532 0
M  V30 4734 N 481.861 -1.55662 -0.24637 0
M  V30 4735 C 483.107 -1.77782 -0.975779 0
M  V30 4736 C 483.44 -0.592103 -1.84953 0
M  V30 4737 O 482.715 0.409588 -1.90138 0
M  V30 4738 C 482.998 -3.09788 -1.83584 0
M  V30 4739 C 482.851 -4.38764 -0.990241 0
M  V30 4740 C 484.17 -3.38029 -2.81823 0
M  V30 4741 H 481.289 -0.646789 -0.353317 0
M  V30 4742 H 483.931 -1.88398 -0.246248 0
M  V30 4743 H 482.081 -3.00869 -2.45784 0
M  V30 4744 H 483.753 -4.59675 -0.386897 0
M  V30 4745 H 481.996 -4.32798 -0.294626 0
M  V30 4746 H 482.667 -5.27514 -1.62584 0
M  V30 4747 H 485.143 -3.46915 -2.2976 0
M  V30 4748 H 484.019 -4.3161 -3.39122 0
M  V30 4749 H 484.28 -2.58968 -3.58313 0
M  V30 4750 N 483.339 0.512053 -1.4905 0
M  V30 4751 C 484.579 1.27715 -1.59588 0
M  V30 4752 C 484.943 1.90071 -0.271502 0
M  V30 4753 O 486.144 2.67616 -0.251987 0
M  V30 4754 C 484.415 2.32399 -2.71524 0
M  V30 4755 S 485.974 3.18396 -3.01943 0
M  V30 4756 H 482.792 0.43419 -0.563027 0
M  V30 4757 H 485.394 0.581315 -1.86657 0
M  V30 4758 H 484.098 1.85101 -3.66287 0
M  V30 4759 H 483.629 3.06667 -2.46412 0
M  V30 4760 H 485.644 4.32842 -2.42616 0
M  V30 4761 N 484.817 1.37938 0.762283 0
M  V30 4762 C 485.747 1.37176 1.88958 0
M  V30 4763 C 486.728 0.238945 1.68413 0
M  V30 4764 O 487.913 0.440726 1.89133 0
M  V30 4765 C 485.043 1.18742 3.2637 0
M  V30 4766 C 483.997 2.29136 3.61498 0
M  V30 4767 C 483.323 1.95816 4.97554 0
M  V30 4768 C 484.623 3.71363 3.6727 0
M  V30 4769 H 486.317 2.31509 1.89853 0
M  V30 4770 H 483.863 1.11438 0.912005 0
M  V30 4771 H 485.816 1.16837 4.04879 0
M  V30 4772 H 484.54 0.208683 3.25933 0
M  V30 4773 H 483.199 2.30213 2.85303 0
M  V30 4774 H 482.847 0.964475 4.93667 0
M  V30 4775 H 482.547 2.69745 5.22026 0
M  V30 4776 H 484.071 1.95513 5.78452 0
M  V30 4777 H 485.485 3.72364 4.35911 0
M  V30 4778 H 483.882 4.44425 4.03245 0
M  V30 4779 H 484.952 4.04305 2.67704 0
M  V30 4780 N 486.295 -0.989507 1.22664 0
M  V30 4781 C 487.258 -2.06183 1.00106 0
M  V30 4782 C 488.258 -1.60765 -0.0337726 0
M  V30 4783 O 489.448 -1.72989 0.205072 0
M  V30 4784 C 486.58 -3.37021 0.51279 0
M  V30 4785 H 487.773 -2.27629 1.95256 0
M  V30 4786 H 485.326 -1.16158 1.0458 0
M  V30 4787 H 486.061 -3.21261 -0.442917 0
M  V30 4788 H 485.846 -3.71323 1.25942 0
M  V30 4789 H 487.336 -4.1591 0.375315 0
M  V30 4790 N 487.773 -1.03688 -1.18687 0
M  V30 4791 C 488.721 -0.618292 -2.24232 0
M  V30 4792 C 489.715 0.353045 -1.6568 0
M  V30 4793 O 490.921 0.220749 -1.78641 0
M  V30 4794 H 487.296 -0.181711 -0.729716 0
M  V30 4795 H 489.267 -1.51893 -2.56848 0
M  V30 4796 C 488.016 0.00677342 -3.47699 0
M  V30 4797 H 487.339 -0.731692 -3.93047 0
M  V30 4798 H 488.779 0.262492 -4.23187 0
M  V30 4799 C 487.238 1.25572 -3.12623 0
M  V30 4800 O 487.768 2.34691 -3.26011 0
M  V30 4801 N 485.974 1.14755 -2.66982 0
M  V30 4802 H 485.521 0.259601 -2.56289 0
M  V30 4803 H 485.479 1.98412 -2.43885 0
M  V30 4804 N 489.251 1.34841 -0.815825 0
M  V30 4805 C 490.198 2.29644 -0.230664 0
M  V30 4806 C 491.168 1.53253 0.640533 0
M  V30 4807 O 492.353 1.81653 0.583672 0
M  V30 4808 C 489.493 3.39715 0.607275 0
M  V30 4809 C 488.606 4.31056 -0.28538 0
M  V30 4810 C 487.741 5.28225 0.561446 0
M  V30 4811 C 486.78 6.11204 -0.331035 0
M  V30 4812 N 485.917 7.00483 0.476302 0
M  V30 4813 H 490.757 2.79095 -1.0445 0
M  V30 4814 H 488.294 1.37351 -0.526595 0
M  V30 4815 H 490.252 4.02208 1.10835 0
M  V30 4816 H 488.882 2.91517 1.38629 0
M  V30 4817 H 487.934 3.69487 -0.904621 0
M  V30 4818 H 489.246 4.89239 -0.97193 0
M  V30 4819 H 488.4 5.96135 1.12728 0
M  V30 4820 H 487.139 4.70562 1.28153 0
M  V30 4821 H 486.144 5.42232 -0.909069 0
M  V30 4822 H 487.369 6.70947 -1.04912 0
M  V30 4823 H 485.315 6.45296 1.18019 0
M  V30 4824 H 485.232 7.55847 -0.152008 0
M  V30 4825 H 486.5 7.7273 1.02512 0
M  V30 4826 N 490.729 0.570148 1.46925 0
M  V30 4827 C 491.677 -0.183181 2.31878 0
M  V30 4828 C 492.671 -0.896721 1.43719 0
M  V30 4829 O 493.877 -0.816536 1.60414 0
M  V30 4830 H 490.252 -0.077944 0.74795 0
M  V30 4831 H 492.223 0.552312 2.93244 0
M  V30 4832 C 490.972 -1.19172 3.2664 0
M  V30 4833 H 490.295 -0.652088 3.94446 0
M  V30 4834 H 491.735 -1.68946 3.88887 0
M  V30 4835 C 490.194 -2.24627 2.51086 0
M  V30 4836 O 490.724 -3.31773 2.26472 0
M  V30 4837 N 488.93 -1.98898 2.11867 0
M  V30 4838 H 488.477 -1.11777 2.32086 0
M  V30 4839 H 488.435 -2.6967 1.61634 0
M  V30 4840 N 492.207 -1.54576 0.307264 0
M  V30 4841 C 493.447 -2.02172 -0.300962 0
M  V30 4842 C 493.811 -1.19081 -1.50611 0
M  V30 4843 O 495.012 -1.56405 -2.18612 0
M  V30 4844 C 493.283 -3.51576 -0.642591 0
M  V30 4845 S 494.842 -4.21127 -1.23279 0
M  V30 4846 H 491.66 -0.705021 -0.0920141 0
M  V30 4847 H 494.262 -1.90563 0.436594 0
M  V30 4848 H 492.966 -4.09681 0.242901 0
M  V30 4849 H 492.497 -3.67234 -1.41077 0
M  V30 4850 H 494.512 -4.27426 -2.52034 0
M  V30 4851 N 493.685 -0.035106 -1.57561 0
M  V30 4852 C 495.096 0.502885 -1.798 0
M  V30 4853 C 495.447 1.71892 -0.945921 0
M  V30 4854 O 494.572 2.15822 -0.157991 0
M  V30 4855 C 495.167 0.919097 -3.26095 0
M  V30 4856 C 493.726 1.40216 -3.49308 0
M  V30 4857 C 492.873 0.369709 -2.74824 0
M  V30 4858 H 495.824 -0.261102 -1.56537 0
M  V30 4859 H 495.845 1.78308 -3.36135 0
M  V30 4860 H 495.357 0.0338526 -3.88085 0
M  V30 4861 H 493.458 2.30714 -2.92578 0
M  V30 4862 H 493.571 1.40541 -4.58023 0
M  V30 4863 H 491.935 0.839113 -2.40481 0
M  V30 4864 H 492.718 -0.507173 -3.39533 0
M  V30 4865 N 495.163 1.55791 0.238111 0
M  V30 4866 C 496.409 1.78297 0.966337 0
M  V30 4867 C 496.742 0.601903 1.84637 0
M  V30 4868 O 496.017 -0.399499 1.90353 0
M  V30 4869 C 496.3 3.10758 1.81939 0
M  V30 4870 C 496.153 4.39283 0.966958 0
M  V30 4871 C 497.472 3.39519 2.80027 0
M  V30 4872 H 494.591 0.648654 0.349882 0
M  V30 4873 H 497.233 1.88525 0.236253 0
M  V30 4874 H 495.383 3.02168 2.44185 0
M  V30 4875 H 497.055 4.59873 0.362514 0
M  V30 4876 H 495.298 4.32948 0.271669 0
M  V30 4877 H 495.969 5.28368 1.59784 0
M  V30 4878 H 498.445 3.48128 2.27917 0
M  V30 4879 H 497.321 4.33402 3.36829 0
M  V30 4880 H 497.582 2.60864 3.56934 0
M  V30 4881 N 496.642 -0.504142 1.49319 0
M  V30 4882 C 497.919 -1.26548 1.49147 0
M  V30 4883 C 498.299 -2.09977 0.21744 0
M  V30 4884 O 497.647 -2.14028 -0.800269 0
M  V30 4885 C 497.857 -2.12489 2.76857 0
M  V30 4886 C 499.205 -2.7178 3.26222 0
M  V30 4887 O 500.229 -2.22758 2.77952 0
M  V30 4888 O 499.088 -3.61015 4.10281 0
M  V30 4889 H 496.182 -0.572495 0.596806 0
M  V30 4890 H 498.728 -0.51867 1.61579 0
M  V30 4891 H 497.5 -1.50796 3.61077 0
M  V30 4892 H 497.123 -2.94368 2.6727 0
M  V30 4893 N 498.12 -1.38341 -0.754957 0
M  V30 4894 C 499.067 -1.3546 -1.86867 0
M  V30 4895 C 500.037 -0.217369 -1.64672 0
M  V30 4896 O 501.222 -0.409383 -1.86356 0
M  V30 4897 C 498.362 -1.18413 -3.24149 0
M  V30 4898 C 497.475 -2.41511 -3.58185 0
M  V30 4899 C 496.61 -2.17205 -4.84763 0
M  V30 4900 C 495.649 -3.36081 -5.11582 0
M  V30 4901 N 494.786 -3.11219 -6.29354 0
M  V30 4902 H 499.626 -2.30672 -1.88664 0
M  V30 4903 H 497.163 -1.14607 -0.922154 0
M  V30 4904 H 499.121 -1.06545 -4.03366 0
M  V30 4905 H 497.751 -0.268397 -3.21682 0
M  V30 4906 H 496.803 -2.64056 -2.73822 0
M  V30 4907 H 498.115 -3.30115 -3.73932 0
M  V30 4908 H 497.269 -2.02465 -5.7192 0
M  V30 4909 H 496.008 -1.25964 -4.71152 0
M  V30 4910 H 495.013 -3.51341 -4.22894 0
M  V30 4911 H 496.238 -4.28196 -5.27091 0
M  V30 4912 H 494.184 -2.22624 -6.17069 0
M  V30 4913 H 494.101 -3.93373 -6.45596 0
M  V30 4914 H 495.369 -3.00132 -7.19403 0
M  V30 4915 N 499.598 0.982988 -1.23187 0
M  V30 4916 C 501.014 1.2487 -0.993967 0
M  V30 4917 C 501.214 1.99155 0.306498 0
M  V30 4918 O 500.27 2.30688 1.0266 0
M  V30 4919 C 501.583 2.05078 -2.19917 0
M  V30 4920 C 503.131 2.18227 -2.2438 0
M  V30 4921 C 503.606 3.01825 -3.44479 0
M  V30 4922 N 505.097 3.09411 -3.44702 0
M  V30 4923 C 505.832 3.74412 -4.34285 0
M  V30 4924 N 505.328 4.41259 -5.341 0
M  V30 4925 N 507.121 3.71273 -4.22035 0
M  V30 4926 H 499.272 0.485253 -2.06783 0
M  V30 4927 H 501.535 0.276979 -0.906635 0
M  V30 4928 H 501.241 1.57867 -3.14279 0
M  V30 4929 H 501.115 3.05829 -2.2079 0
M  V30 4930 H 503.502 2.64648 -1.30559 0
M  V30 4931 H 503.583 1.16873 -2.2754 0
M  V30 4932 H 503.227 2.56102 -4.38605 0
M  V30 4933 H 503.157 4.03342 -3.38559 0
M  V30 4934 H 505.648 2.61845 -2.7248 0
M  V30 4935 H 505.961 4.88629 -5.98717 0
M  V30 4936 H 504.306 4.39975 -5.38002 0
M  V30 4937 H 507.497 3.18217 -3.43301 0
M  V30 4938 H 507.67 4.21649 -4.92053 0
M  V30 4939 N 501.076 1.04316 1.18135 0
M  V30 4940 C 502.492 0.762858 1.40188 0
M  V30 4941 C 502.692 -0.646547 1.90846 0
M  V30 4942 O 501.748 -1.41036 2.0944 0
M  V30 4943 C 503.061 1.81106 2.40044 0
M  V30 4944 C 504.609 1.83226 2.53766 0
M  V30 4945 C 505.084 2.87044 3.56889 0
M  V30 4946 N 506.575 2.85951 3.64398 0
M  V30 4947 C 507.31 3.62932 4.43923 0
M  V30 4948 N 506.806 4.49672 5.27036 0
M  V30 4949 N 508.599 3.51411 4.38711 0
M  V30 4950 H 500.75 1.95264 0.835805 0
M  V30 4951 H 503.013 0.845017 0.429709 0
M  V30 4952 H 502.719 2.82214 2.09876 0
M  V30 4953 H 502.593 1.64529 3.39426 0
M  V30 4954 H 504.98 0.827869 2.8325 0
M  V30 4955 H 505.061 2.03879 1.54489 0
M  V30 4956 H 504.705 3.87663 3.28145 0
M  V30 4957 H 504.635 2.63645 4.5585 0
M  V30 4958 H 507.126 2.23051 3.05052 0
M  V30 4959 H 507.439 5.05116 5.84874 0
M  V30 4960 H 505.784 4.53738 5.26447 0
M  V30 4961 H 508.975 2.83047 3.72829 0
M  V30 4962 H 509.148 4.11654 5.00445 0
M  V30 4963 N 502.554 -1.34406 0.822964 0
M  V30 4964 C 503.97 -1.51275 0.508727 0
M  V30 4965 C 504.17 -1.76776 -0.967083 0
M  V30 4966 O 503.226 -1.81871 -1.75155 0
M  V30 4967 C 504.539 -2.67765 1.36829 0
M  V30 4968 C 506.087 -2.81647 1.36542 0
M  V30 4969 C 506.562 -4.01181 2.20947 0
M  V30 4970 N 508.053 -4.08388 2.18571 0
M  V30 4971 C 508.788 -5.00036 2.80627 0
M  V30 4972 N 508.284 -5.96906 3.51674 0
M  V30 4973 N 510.077 -4.92908 2.70181 0
M  V30 4974 H 502.228 -1.16113 1.77852 0
M  V30 4975 H 504.491 -0.56947 0.757897 0
M  V30 4976 H 504.197 -2.55551 2.41633 0
M  V30 4977 H 504.071 -3.62779 1.03303 0
M  V30 4978 H 506.458 -2.93303 0.325163 0
M  V30 4979 H 506.539 -1.87443 1.74066 0
M  V30 4980 H 506.183 -3.90286 3.25022 0
M  V30 4981 H 506.113 -4.94599 1.80774 0
M  V30 4982 H 508.604 -3.39051 1.66891 0
M  V30 4983 H 508.917 -6.63468 3.96271 0
M  V30 4984 H 507.262 -5.9703 3.5578 0
M  V30 4985 H 510.453 -4.1619 2.14251 0
M  V30 4986 H 510.626 -5.64137 3.18831 0
M  V30 4987 N 504.032 -0.577932 -1.46621 0
M  V30 4988 C 504.98 0.170882 -2.31971 0
M  V30 4989 C 505.974 0.889086 -1.44193 0
M  V30 4990 O 507.18 0.808017 -1.60845 0
M  V30 4991 H 503.555 0.0739763 -0.748353 0
M  V30 4992 H 505.526 -0.567856 -2.92947 0
M  V30 4993 C 504.275 1.17438 -3.27267 0
M  V30 4994 H 503.598 0.63116 -3.94787 0
M  V30 4995 H 505.038 1.66882 -3.89778 0
M  V30 4996 C 503.497 2.23292 -2.52274 0
M  V30 4997 O 504.027 3.30567 -2.28229 0
M  V30 4998 N 502.233 1.97772 -2.12919 0
M  V30 4999 H 501.78 1.10545 -2.32675 0
M  V30 5000 H 501.738 2.68809 -1.63062 0
M  V30 5001 N 505.51 1.54411 -0.315457 0
M  V30 5002 C 506.926 1.59556 0.037464 0
M  V30 5003 C 507.126 1.33217 1.5118 0
M  V30 5004 O 506.182 1.11264 2.26664 0
M  V30 5005 C 507.495 2.98372 -0.373477 0
M  V30 5006 C 509.043 3.11324 -0.323452 0
M  V30 5007 C 509.518 4.52472 -0.709433 0
M  V30 5008 N 511.009 4.58437 -0.662524 0
M  V30 5009 C 511.744 5.65751 -0.933474 0
M  V30 5010 N 511.24 6.81039 -1.27114 0
M  V30 5011 N 513.033 5.55489 -0.859573 0
M  V30 5012 H 505.184 1.6979 -1.27614 0
M  V30 5013 H 507.447 0.793732 -0.518356 0
M  V30 5014 H 507.153 3.22618 -1.40037 0
M  V30 5015 H 507.027 3.76264 0.265615 0
M  V30 5016 H 509.414 2.86818 0.694223 0
M  V30 5017 H 509.495 2.35555 -0.997367 0
M  V30 5018 H 509.139 4.7771 -1.72498 0
M  V30 5019 H 509.069 5.26598 -0.0132923 0
M  V30 5020 H 511.56 3.75636 -0.413065 0
M  V30 5021 H 511.873 7.58816 -1.46348 0
M  V30 5022 H 510.218 6.82555 -1.30932 0
M  V30 5023 H 513.409 4.64299 -0.595324 0
M  V30 5024 H 513.582 6.39036 -1.0741 0
M  V30 5025 N 506.988 0.0434614 1.5754 0
M  V30 5026 C 508.228 -0.636023 1.94253 0
M  V30 5027 C 508.592 -1.68461 0.921132 0
M  V30 5028 O 509.793 -2.41762 1.17494 0
M  V30 5029 C 508.064 -1.22357 3.35803 0
M  V30 5030 S 509.623 -1.92213 3.94461 0
M  V30 5031 H 506.441 -0.209041 0.679575 0
M  V30 5032 H 509.043 0.110556 1.95187 0
M  V30 5033 H 507.747 -0.448162 4.07946 0
M  V30 5034 H 507.278 -2.00713 3.38346 0
M  V30 5035 H 509.293 -3.20199 3.79061 0
M  V30 5036 N 508.466 -1.55915 -0.229846 0
M  V30 5037 C 509.398 -1.88209 -1.30805 0
M  V30 5038 C 510.411 -0.769672 -1.43457 0
M  V30 5039 O 511.6 -1.04792 -1.44502 0
M  V30 5040 C 508.7 -2.06829 -2.68468 0
M  V30 5041 C 507.873 -3.37798 -2.77869 0
M  V30 5042 C 506.932 -3.45952 -3.96489 0
M  V30 5043 O 505.958 -4.19043 -3.85216 0
M  V30 5044 N 507.16 -2.76488 -5.10426 0
M  V30 5045 H 509.925 -2.81286 -1.03431 0
M  V30 5046 H 507.486 -1.5636 -0.41991 0
M  V30 5047 H 509.478 -2.09608 -3.46189 0
M  V30 5048 H 508.048 -1.20416 -2.88477 0
M  V30 5049 H 507.268 -3.4719 -1.86689 0
M  V30 5050 H 508.556 -4.24091 -2.81113 0
M  V30 5051 H 507.954 -2.16868 -5.2248 0
M  V30 5052 H 506.511 -2.84938 -5.8622 0
M  V30 5053 N 509.944 0.496216 -1.49584 0
M  V30 5054 C 511.174 1.27209 -1.62793 0
M  V30 5055 C 511.582 1.86799 -0.300476 0
M  V30 5056 O 510.925 1.68802 0.724674 0
M  V30 5057 C 510.987 2.43812 -2.64189 0
M  V30 5058 C 510.651 2.05055 -4.08414 0
M  V30 5059 C 511.648 1.58752 -4.9507 0
M  V30 5060 C 509.333 2.14543 -4.54177 0
M  V30 5061 C 511.327 1.22448 -6.25528 0
M  V30 5062 C 509.014 1.77851 -5.84647 0
M  V30 5063 C 510.012 1.31878 -6.70147 0
M  V30 5064 O 509.7 0.956834 -7.98185 0
M  V30 5065 H 509.432 0.391848 -0.550846 0
M  V30 5066 H 511.986 0.601712 -1.96389 0
M  V30 5067 H 510.216 3.13941 -2.25783 0
M  V30 5068 H 511.905 3.05829 -2.66877 0
M  V30 5069 H 512.671 1.50863 -4.60939 0
M  V30 5070 H 508.55 2.49277 -3.87791 0
M  V30 5071 H 512.094 0.864933 -6.92217 0
M  V30 5072 H 507.991 1.8539 -6.18305 0
M  V30 5073 H 508.759 1.08789 -8.11238 0
M  V30 5074 N 511.423 1.38739 0.74761 0
M  V30 5075 C 512.663 1.36695 1.51966 0
M  V30 5076 C 513.027 -0.0411889 1.91956 0
M  V30 5077 O 514.228 -0.186543 2.68152 0
M  V30 5078 C 512.499 2.30119 2.73459 0
M  V30 5079 S 514.058 2.4615 3.63257 0
M  V30 5080 H 510.876 0.484929 0.519966 0
M  V30 5081 H 513.478 1.7472 0.877104 0
M  V30 5082 H 512.182 3.31312 2.422 0
M  V30 5083 H 511.713 1.93265 3.42655 0
M  V30 5084 H 513.728 1.69001 4.66533 0
M  V30 5085 N 512.901 -0.976442 1.23707 0
M  V30 5086 C 514.317 -1.24341 1.00058 0
M  V30 5087 C 514.517 -1.99315 -0.295932 0
M  V30 5088 O 513.573 -2.3123 -1.01435 0
M  V30 5089 C 514.886 -2.03909 2.21001 0
M  V30 5090 C 516.434 -2.17034 2.25534 0
M  V30 5091 C 516.909 -2.99994 3.46075 0
M  V30 5092 N 518.4 -3.07578 3.46338 0
M  V30 5093 C 519.135 -3.72104 4.36264 0
M  V30 5094 N 518.631 -4.3842 5.36432 0
M  V30 5095 N 520.424 -3.69029 4.23998 0
M  V30 5096 H 512.575 -0.47428 2.07037 0
M  V30 5097 H 514.838 -0.272167 0.908091 0
M  V30 5098 H 514.544 -1.56198 3.15111 0
M  V30 5099 H 514.418 -3.04654 2.22409 0
M  V30 5100 H 516.805 -2.63951 1.31961 0
M  V30 5101 H 516.886 -1.15664 2.28156 0
M  V30 5102 H 516.53 -2.53772 4.39957 0
M  V30 5103 H 516.46 -4.01541 3.40694 0
M  V30 5104 H 518.951 -2.60397 2.73865 0
M  V30 5105 H 519.264 -4.85447 6.013 0
M  V30 5106 H 517.609 -4.37116 5.40328 0
M  V30 5107 H 520.8 -3.16392 3.44984 0
M  V30 5108 H 520.973 -4.19034 4.94282 0
M  V30 5109 N 514.379 -1.04941 -1.1758 0
M  V30 5110 C 515.626 -0.757989 -1.87779 0
M  V30 5111 C 515.954 0.714827 -1.80888 0
M  V30 5112 O 515.209 1.53824 -1.20982 0
M  V30 5113 C 515.508 -1.18062 -3.37337 0
M  V30 5114 C 515.174 -2.65521 -3.6443 0
M  V30 5115 C 513.836 -3.05804 -3.71534 0
M  V30 5116 C 516.188 -3.60822 -3.76108 0
M  V30 5117 C 513.516 -4.40256 -3.87803 0
M  V30 5118 C 515.868 -4.95005 -3.93895 0
M  V30 5119 C 514.532 -5.34945 -3.99237 0
M  V30 5120 H 513.802 -0.277368 -0.68713 0
M  V30 5121 H 516.449 -1.31603 -1.39115 0
M  V30 5122 H 514.754 -0.541525 -3.8804 0
M  V30 5123 H 516.451 -0.932368 -3.9001 0
M  V30 5124 H 513.041 -2.33324 -3.59524 0
M  V30 5125 H 517.225 -3.30841 -3.69943 0
M  V30 5126 H 512.481 -4.70707 -3.90186 0
M  V30 5127 H 516.655 -5.68746 -4.01872 0
M  V30 5128 H 514.282 -6.39135 -4.11596 0
M  V30 5129 N 515.857 1.33968 -0.830081 0
M  V30 5130 C 516.789 2.28194 -0.21448 0
M  V30 5131 C 517.802 1.5135 0.599752 0
M  V30 5132 O 518.991 1.73286 0.42826 0
M  V30 5133 C 516.091 3.31221 0.717356 0
M  V30 5134 C 515.264 4.37365 -0.055613 0
M  V30 5135 C 514.323 5.2011 0.798231 0
M  V30 5136 O 513.349 5.68691 0.240616 0
M  V30 5137 N 514.551 5.40523 2.11695 0
M  V30 5138 H 517.316 2.81662 -1.02405 0
M  V30 5139 H 514.877 1.46568 -0.687713 0
M  V30 5140 H 516.869 3.83477 1.29334 0
M  V30 5141 H 515.439 2.78095 1.42765 0
M  V30 5142 H 514.659 3.85727 -0.812936 0
M  V30 5143 H 515.947 5.05397 -0.587444 0
M  V30 5144 H 515.345 5.0274 2.59363 0
M  V30 5145 H 513.902 5.95871 2.64162 0
M  V30 5146 N 517.335 0.585699 1.46312 0
M  V30 5147 C 518.282 -0.145835 2.30339 0
M  V30 5148 C 519.252 -0.881215 1.40797 0
M  V30 5149 O 520.437 -0.871293 1.69744 0
M  V30 5150 C 517.577 -1.15161 3.25318 0
M  V30 5151 C 516.69 -0.419367 4.2996 0
M  V30 5152 C 515.825 -1.41293 5.12064 0
M  V30 5153 C 514.864 -0.667261 6.08452 0
M  V30 5154 N 514.001 -1.60903 6.83414 0
M  V30 5155 H 518.841 0.576755 2.92365 0
M  V30 5156 H 516.378 0.296237 1.44086 0
M  V30 5157 H 518.336 -1.74763 3.78832 0
M  V30 5158 H 516.966 -1.84188 2.65094 0
M  V30 5159 H 516.018 0.291751 3.7928 0
M  V30 5160 H 517.33 0.163433 4.98532 0
M  V30 5161 H 516.484 -2.08167 5.6987 0
M  V30 5162 H 515.223 -2.02966 4.43459 0
M  V30 5163 H 514.228 0.0152356 5.49798 0
M  V30 5164 H 515.453 -0.0558817 6.79077 0
M  V30 5165 H 513.399 -2.21381 6.17516 0
M  V30 5166 H 513.316 -1.07911 7.48259 0
M  V30 5167 H 514.584 -2.26802 7.45775 0
M  V30 5168 N 518.813 -1.54241 0.323641 0
M  V30 5169 C 520.053 -2.0248 -0.279502 0
M  V30 5170 C 520.417 -1.20672 -1.49339 0
M  V30 5171 O 521.618 -1.58715 -2.1694 0
M  V30 5172 C 519.889 -3.52238 -0.605266 0
M  V30 5173 S 521.448 -4.22411 -1.18805 0
M  V30 5174 H 518.266 -0.705957 -0.0845313 0
M  V30 5175 H 520.868 -1.90089 0.456781 0
M  V30 5176 H 519.572 -4.094 0.286339 0
M  V30 5177 H 519.103 -3.6871 -1.37174 0
M  V30 5178 H 521.118 -4.30075 -2.47487 0
M  V30 5179 N 520.291 -0.0518155 -1.57515 0
M  V30 5180 C 521.221 0.920283 -2.146 0
M  V30 5181 C 522.202 1.32406 -1.06783 0
M  V30 5182 O 523.387 1.39866 -1.34726 0
M  V30 5183 C 520.517 2.1949 -2.6915 0
M  V30 5184 C 519.471 1.93116 -3.81956 0
M  V30 5185 C 518.797 3.27037 -4.23026 0
M  V30 5186 C 520.097 1.25225 -5.07066 0
M  V30 5187 H 521.791 0.444801 -2.96077 0
M  V30 5188 H 519.337 0.212508 -1.42423 0
M  V30 5189 H 521.29 2.87894 -3.07725 0
M  V30 5190 H 520.014 2.69244 -1.84865 0
M  V30 5191 H 518.673 1.27123 -3.43854 0
M  V30 5192 H 518.321 3.74595 -3.3569 0
M  V30 5193 H 518.021 3.10189 -4.99056 0
M  V30 5194 H 519.545 3.96673 -4.64202 0
M  V30 5195 H 520.959 1.83666 -5.43083 0
M  V30 5196 H 519.356 1.18702 -5.88243 0
M  V30 5197 H 520.426 0.228382 -4.84362 0
M  V30 5198 N 521.769 1.56035 0.221574 0
M  V30 5199 C 522.994 1.83476 0.967026 0
M  V30 5200 C 523.419 0.632139 1.7716 0
M  V30 5201 O 522.777 -0.419082 1.7639 0
M  V30 5202 C 522.825 3.08907 1.86034 0
M  V30 5203 O 521.929 2.876 2.95567 0
M  V30 5204 H 521.27 0.604913 0.273817 0
M  V30 5205 H 523.8 2.03247 0.234893 0
M  V30 5206 H 523.81 3.3901 2.27016 0
M  V30 5207 H 522.485 3.96068 1.26898 0
M  V30 5208 H 521.062 2.6873 2.58532 0
M  V30 5209 N 523.247 -0.488276 1.49845 0
M  V30 5210 C 524.493 -1.24341 1.6021 0
M  V30 5211 C 524.826 -1.91967 0.293651 0
M  V30 5212 O 524.101 -1.81323 -0.703718 0
M  V30 5213 C 524.384 -2.3005 2.77036 0
M  V30 5214 C 524.237 -1.66842 4.17713 0
M  V30 5215 C 525.556 -3.31509 2.89464 0
M  V30 5216 H 522.675 -0.450704 0.583125 0
M  V30 5217 H 525.317 -0.539673 1.82174 0
M  V30 5218 H 523.467 -2.90071 2.58439 0
M  V30 5219 H 525.139 -1.1055 4.47858 0
M  V30 5220 H 523.382 -0.972079 4.22768 0
M  V30 5221 H 524.053 -2.43576 4.95353 0
M  V30 5222 H 526.529 -2.81493 3.06433 0
M  V30 5223 H 525.405 -4.02822 3.72861 0
M  V30 5224 H 525.666 -3.94603 1.99351 0
M  V30 5225 N 524.725 -1.39134 -0.740242 0
M  V30 5226 C 525.973 -1.35803 -1.49673 0
M  V30 5227 C 526.294 0.0470897 -1.94943 0
M  V30 5228 O 525.564 0.997347 -1.68611 0
M  V30 5229 H 524.144 -0.499736 -0.555224 0
M  V30 5230 H 526.806 -1.73947 -0.879107 0
M  V30 5231 H 525.902 -2.0174 -2.38133 0
M  V30 5232 N 526.204 0.969867 -1.24223 0
M  V30 5233 C 527.137 2.06279 -0.975926 0
M  V30 5234 C 528.115 1.62353 0.0895385 0
M  V30 5235 O 529.299 1.88442 -0.0469418 0
M  V30 5236 C 526.426 3.35391 -0.472315 0
M  V30 5237 C 525.472 3.98266 -1.526 0
M  V30 5238 S 526.305 4.36172 -3.10667 0
M  V30 5239 C 527.461 5.68423 -2.62003 0
M  V30 5240 H 527.694 2.28551 -1.90137 0
M  V30 5241 H 525.227 1.10748 -1.07584 0
M  V30 5242 H 527.185 4.10068 -0.188376 0
M  V30 5243 H 525.846 3.1111 0.432378 0
M  V30 5244 H 525.039 4.91307 -1.12399 0
M  V30 5245 H 524.641 3.30009 -1.75983 0
M  V30 5246 H 526.933 6.45842 -2.0468 0
M  V30 5247 H 527.876 6.13478 -3.53625 0
M  V30 5248 H 528.284 5.26928 -2.02502 0
M  V30 5249 N 527.682 1.05563 1.17022 0
M  V30 5250 C 528.928 0.769074 1.87652 0
M  V30 5251 C 529.261 -0.702326 1.81055 0
M  V30 5252 O 528.536 -1.5139 1.22112 0
M  V30 5253 C 528.819 1.25492 3.37526 0
M  V30 5254 C 528.672 2.78953 3.52853 0
M  V30 5255 C 529.991 0.856919 4.31677 0
M  V30 5256 H 527.11 0.280854 0.681388 0
M  V30 5257 H 529.752 1.31027 1.37593 0
M  V30 5258 H 527.902 0.794516 3.80289 0
M  V30 5259 H 529.574 3.33146 3.19079 0
M  V30 5260 H 527.817 3.18046 2.95007 0
M  V30 5261 H 528.488 3.08011 4.58076 0
M  V30 5262 H 530.964 1.25334 3.96775 0
M  V30 5263 H 529.84 1.22443 5.35069 0
M  V30 5264 H 530.101 -0.238787 4.41455 0
M  V30 5265 N 529.16 -1.33526 0.837174 0
M  V30 5266 C 530.107 -2.29248 0.267169 0
M  V30 5267 C 531.077 -1.54252 -0.616071 0
M  V30 5268 O 532.262 -1.82559 -0.554699 0
M  V30 5269 C 529.402 -3.40638 -0.553152 0
M  V30 5270 C 528.515 -4.30548 0.353921 0
M  V30 5271 C 527.65 -5.29051 -0.477339 0
M  V30 5272 C 526.689 -6.106 0.42823 0
M  V30 5273 N 525.826 -7.01152 -0.364801 0
M  V30 5274 H 530.666 -2.77398 1.08877 0
M  V30 5275 H 528.203 -1.36496 0.54838 0
M  V30 5276 H 530.161 -4.03921 -1.04422 0
M  V30 5277 H 528.791 -2.93685 -1.33973 0
M  V30 5278 H 527.843 -3.68001 0.963289 0
M  V30 5279 H 529.155 -4.87631 1.04964 0
M  V30 5280 H 528.309 -5.97853 -1.0323 0
M  V30 5281 H 527.048 -4.72541 -1.2065 0
M  V30 5282 H 526.053 -5.40718 0.995219 0
M  V30 5283 H 527.278 -6.69193 1.15573 0
M  V30 5284 H 525.224 -6.47092 -1.07738 0
M  V30 5285 H 525.141 -7.5551 0.272238 0
M  V30 5286 H 526.409 -7.74263 -0.902054 0
M  V30 5287 N 530.638 -0.59345 -1.46 0
M  V30 5288 C 531.548 0.135817 -2.34207 0
M  V30 5289 C 532.564 0.875008 -1.50398 0
M  V30 5290 O 533.74 0.835778 -1.83239 0
M  V30 5291 C 530.805 1.12977 -3.27776 0
M  V30 5292 C 529.866 0.394081 -4.27487 0
M  V30 5293 C 529.099 1.34068 -5.16586 0
M  V30 5294 O 529.322 2.5778 -5.08828 0
M  V30 5295 O 528.256 0.845426 -5.95933 0
M  V30 5296 H 532.082 -0.588691 -2.9794 0
M  V30 5297 H 529.667 -0.353784 -1.45151 0
M  V30 5298 H 531.549 1.70261 -3.85473 0
M  V30 5299 H 530.224 1.83556 -2.66625 0
M  V30 5300 H 529.131 -0.220869 -3.73447 0
M  V30 5301 H 530.464 -0.270939 -4.91454 0
M  V30 5302 N 532.116 1.54067 -0.331816 0
M  V30 5303 C 533.362 2.01012 0.268667 0
M  V30 5304 C 533.695 1.2195 1.51136 0
M  V30 5305 O 532.97 0.303972 1.9211 0
M  V30 5306 C 533.253 3.55158 0.59456 0
M  V30 5307 C 533.106 4.4494 -0.659409 0
M  V30 5308 C 534.425 4.16939 1.4089 0
M  V30 5309 H 531.544 0.730698 0.0961756 0
M  V30 5310 H 534.186 1.84593 -0.450031 0
M  V30 5311 H 532.336 3.6928 1.20685 0
M  V30 5312 H 534.008 4.42675 -1.29756 0
M  V30 5313 H 532.251 4.1428 -1.28665 0
M  V30 5314 H 532.922 5.50643 -0.386804 0
M  V30 5315 H 535.398 4.06443 0.891272 0
M  V30 5316 H 534.274 5.24889 1.60569 0
M  V30 5317 H 534.535 3.70798 2.40752 0
M  V30 5318 N 533.594 0.0601682 1.57485 0
M  V30 5319 C 534.84 -0.612501 1.93329 0
M  V30 5320 C 535.173 -1.6996 0.939526 0
M  V30 5321 O 534.448 -1.94472 -0.0330957 0
M  V30 5322 C 534.731 -1.20025 3.39508 0
M  V30 5323 C 534.584 -0.12059 4.49638 0
M  V30 5324 C 535.903 -2.10923 3.86264 0
M  V30 5325 H 533.022 -0.221185 0.703027 0
M  V30 5326 H 535.664 0.123768 1.89596 0
M  V30 5327 H 533.814 -1.82774 3.42821 0
M  V30 5328 H 535.486 0.51185 4.58452 0
M  V30 5329 H 533.729 0.550251 4.30296 0
M  V30 5330 H 534.4 -0.572019 5.49028 0
M  V30 5331 H 536.876 -1.58124 3.84884 0
M  V30 5332 H 535.752 -2.48987 4.8918 0
M  V30 5333 H 536.013 -3.01292 3.23536 0
M  V30 5334 N 535.072 -1.5615 -0.213296 0
M  V30 5335 C 536.488 -1.49327 -0.56336 0
M  V30 5336 C 536.688 -0.756826 -1.86747 0
M  V30 5337 O 535.744 -0.299866 -2.50713 0
M  V30 5338 C 537.057 -2.9392 -0.634944 0
M  V30 5339 C 538.605 -3.04487 -0.725013 0
M  V30 5340 C 539.08 -4.50456 -0.82787 0
M  V30 5341 N 540.571 -4.54533 -0.891876 0
M  V30 5342 C 541.306 -5.64766 -0.991315 0
M  V30 5343 N 540.802 -6.84733 -1.05419 0
M  V30 5344 N 542.595 -5.52637 -1.02709 0
M  V30 5345 H 534.746 -2.02453 0.642366 0
M  V30 5346 H 537.009 -0.920548 0.226487 0
M  V30 5347 H 536.715 -3.50783 0.253859 0
M  V30 5348 H 536.589 -3.46274 -1.49579 0
M  V30 5349 H 538.976 -2.47685 -1.60425 0
M  V30 5350 H 539.057 -2.55289 0.161669 0
M  V30 5351 H 538.701 -5.07878 0.0469464 0
M  V30 5352 H 538.631 -4.97369 -1.73009 0
M  V30 5353 H 541.122 -3.68141 -0.85327 0
M  V30 5354 H 541.435 -7.64493 -1.13007 0
M  V30 5355 H 539.78 -6.87427 -1.02318 0
M  V30 5356 H 542.971 -4.5784 -0.974687 0
M  V30 5357 H 543.144 -6.38576 -1.10113 0
M  V30 5358 N 536.55 0.480323 -1.50102 0
M  V30 5359 C 537.778 1.25657 -1.64371 0
M  V30 5360 C 538.193 1.86011 -0.323316 0
M  V30 5361 O 537.55 1.68803 0.693682 0
M  V30 5362 C 537.601 2.37197 -2.728 0
M  V30 5363 O 537.322 1.7932 -3.9972 0
M  V30 5364 C 538.823 3.2823 -2.9796 0
M  V30 5365 H 536.043 0.380369 -0.552775 0
M  V30 5366 H 538.587 0.574379 -1.96268 0
M  V30 5367 H 536.742 3.01208 -2.43623 0
M  V30 5368 H 537.156 2.52701 -4.59611 0
M  V30 5369 H 538.63 4.02725 -3.77513 0
M  V30 5370 H 539.107 3.86462 -2.08671 0
M  V30 5371 H 539.713 2.69964 -3.28633 0
M  V30 5372 N 538.028 1.39524 0.732853 0
M  V30 5373 C 539.305 1.27373 1.48444 0
M  V30 5374 C 539.685 -0.115725 2.10783 0
M  V30 5375 O 539.033 -1.12713 1.98766 0
M  V30 5376 C 539.243 2.39966 2.53412 0
M  V30 5377 C 540.591 2.79384 3.19733 0
M  V30 5378 O 541.615 2.39431 2.63725 0
M  V30 5379 O 540.474 3.48353 4.21085 0
M  V30 5380 H 537.568 0.499272 0.659285 0
M  V30 5381 H 540.114 1.51403 0.766496 0
M  V30 5382 H 538.886 3.32845 2.05742 0
M  V30 5383 H 538.509 2.17612 3.32762 0
M  V30 5384 N 539.506 -0.963266 1.24736 0
M  V30 5385 C 540.731 -1.74699 1.11781 0
M  V30 5386 C 541.156 -1.85267 -0.325258 0
M  V30 5387 O 540.514 -1.32681 -1.23553 0
M  V30 5388 C 540.562 -3.14322 1.76731 0
M  V30 5389 O 539.666 -3.99043 1.04109 0
M  V30 5390 H 539.007 -0.53684 0.390767 0
M  V30 5391 H 541.537 -1.20801 1.65131 0
M  V30 5392 H 541.547 -3.64824 1.82668 0
M  V30 5393 H 540.222 -3.05946 2.81726 0
M  V30 5394 H 538.799 -3.5752 1.05991 0
M  V30 5395 N 540.985 -1.06182 -1.16461 0
M  V30 5396 C 541.915 -0.692861 -2.22984 0
M  V30 5397 C 542.896 0.314122 -1.67174 0
M  V30 5398 O 544.081 0.189499 -1.93273 0
M  V30 5399 C 541.211 -0.07732 -3.47214 0
M  V30 5400 C 540.165 -1.01015 -4.15909 0
M  V30 5401 C 539.491 -0.257973 -5.34077 0
M  V30 5402 C 540.791 -2.33868 -4.67015 0
M  V30 5403 H 542.485 -1.58343 -2.54102 0
M  V30 5404 H 540.031 -0.76279 -1.22137 0
M  V30 5405 H 541.984 0.19266 -4.20959 0
M  V30 5406 H 540.708 0.848254 -3.15392 0
M  V30 5407 H 539.367 -1.26486 -3.44088 0
M  V30 5408 H 539.015 0.670684 -4.98509 0
M  V30 5409 H 538.715 -0.879638 -5.80979 0
M  V30 5410 H 540.239 0.00448788 -6.106 0
M  V30 5411 H 541.653 -2.1279 -5.32347 0
M  V30 5412 H 540.05 -2.91522 -5.24533 0
M  V30 5413 H 541.12 -2.97019 -3.83286 0
M  V30 5414 N 542.463 1.3308 -0.844243 0
M  V30 5415 C 543.41 2.29104 -0.279323 0
M  V30 5416 C 544.38 1.54577 0.607882 0
M  V30 5417 O 545.565 1.8285 0.545009 0
M  V30 5418 C 542.705 3.40927 0.53508 0
M  V30 5419 C 541.818 4.30354 -0.376749 0
M  V30 5420 C 540.953 5.29297 0.449276 0
M  V30 5421 C 539.992 6.10365 -0.460606 0
M  V30 5422 N 539.129 7.01335 0.327612 0
M  V30 5423 H 543.969 2.76817 -1.10346 0
M  V30 5424 H 541.506 1.36203 -0.555611 0
M  V30 5425 H 543.464 4.04469 1.02278 0
M  V30 5426 H 542.094 2.94391 1.32414 0
M  V30 5427 H 541.146 3.67485 -0.982791 0
M  V30 5428 H 542.458 4.87067 -1.07549 0
M  V30 5429 H 541.612 5.98392 1.00058 0
M  V30 5430 H 540.351 4.73174 1.18143 0
M  V30 5431 H 539.356 5.40182 -1.02388 0
M  V30 5432 H 540.581 6.68571 -1.1912 0
M  V30 5433 H 538.527 6.47655 1.04305 0
M  V30 5434 H 538.444 7.55355 -0.3123 0
M  V30 5435 H 539.712 7.74731 0.86098 0
M  V30 5436 N 543.941 0.601185 1.45683 0
M  V30 5437 C 545.189 0.0936957 2.01883 0
M  V30 5438 C 545.51 -1.2779 1.47291 0
M  V30 5439 O 544.78 -1.84279 0.664691 0
M  V30 5440 H 543.36 0.0316466 0.746329 0
M  V30 5441 H 546.022 0.781137 1.78562 0
M  V30 5442 H 545.118 0.0386297 3.12076 0
M  V30 5443 N 545.419 -1.53889 0.339982 0
M  V30 5444 C 546.835 -1.59595 -0.0120752 0
M  V30 5445 C 547.035 -1.35605 -1.49042 0
M  V30 5446 O 546.091 -1.14856 -2.24865 0
M  V30 5447 C 547.404 -2.9774 0.420898 0
M  V30 5448 C 548.952 -3.1077 0.37294 0
M  V30 5449 C 549.427 -4.51286 0.781327 0
M  V30 5450 N 550.918 -4.57325 0.735374 0
M  V30 5451 C 551.653 -5.64194 1.02336 0
M  V30 5452 N 551.149 -6.7893 1.37933 0
M  V30 5453 N 552.942 -5.54051 0.947838 0
M  V30 5454 H 545.093 -1.67738 1.30299 0
M  V30 5455 H 547.356 -0.785385 0.530918 0
M  V30 5456 H 547.062 -3.20349 1.45152 0
M  V30 5457 H 546.936 -3.76639 -0.205721 0
M  V30 5458 H 549.323 -2.87886 -0.648505 0
M  V30 5459 H 549.404 -2.33939 1.03472 0
M  V30 5460 H 549.048 -4.74905 1.80077 0
M  V30 5461 H 548.978 -5.26511 0.0970679 0
M  V30 5462 H 551.469 -3.74931 0.472773 0
M  V30 5463 H 551.782 -7.56392 1.58402 0
M  V30 5464 H 550.127 -6.80386 1.41774 0
M  V30 5465 H 553.318 -4.63293 0.669115 0
M  V30 5466 H 553.491 -6.37246 1.17563 0
M  V30 5467 N 546.897 -0.0685191 -1.57451 0
M  V30 5468 C 548.313 0.288101 -1.56978 0
M  V30 5469 C 548.513 1.70262 -1.07765 0
M  V30 5470 O 547.569 2.4135 -0.742054 0
M  V30 5471 C 548.882 0.100745 -3.00531 0
M  V30 5472 C 550.43 0.170531 -3.12535 0
M  V30 5473 C 550.905 0.0114944 -4.57999 0
M  V30 5474 N 552.396 0.0672065 -4.63151 0
M  V30 5475 C 553.131 -0.0314813 -5.73391 0
M  V30 5476 N 552.627 -0.183503 -6.92557 0
M  V30 5477 N 554.42 0.0253489 -5.62094 0
M  V30 5478 H 546.571 -0.993026 -1.87757 0
M  V30 5479 H 548.834 -0.386981 -0.865419 0
M  V30 5480 H 548.54 -0.875197 -3.40636 0
M  V30 5481 H 548.414 0.854457 -3.67395 0
M  V30 5482 H 550.801 1.13696 -2.72318 0
M  V30 5483 H 550.882 -0.614229 -2.48316 0
M  V30 5484 H 550.526 -0.951684 -4.98904 0
M  V30 5485 H 550.456 0.815617 -5.20245 0
M  V30 5486 H 552.947 0.183246 -3.77455 0
M  V30 5487 H 553.26 -0.251041 -7.72392 0
M  V30 5488 H 551.605 -0.218822 -6.94655 0
M  V30 5489 H 554.796 0.142794 -4.67882 0
M  V30 5490 H 554.969 -0.0550166 -6.47977 0
M  V30 5491 N 548.375 1.56261 0.205012 0
M  V30 5492 C 549.623 1.79684 0.925096 0
M  V30 5493 C 549.944 0.63989 1.84202 0
M  V30 5494 O 549.214 -0.342345 1.92885 0
M  V30 5495 H 547.794 0.662774 0.344587 0
M  V30 5496 H 550.456 1.93734 0.212899 0
M  V30 5497 H 549.552 2.72467 1.52211 0
M  V30 5498 N 549.853 -0.472356 1.50355 0
M  V30 5499 C 551.269 -0.806001 1.37753 0
M  V30 5500 C 551.469 -1.968 0.432649 0
M  V30 5501 O 550.525 -2.52189 -0.12519 0
M  V30 5502 C 551.838 -1.11926 2.79093 0
M  V30 5503 C 553.386 -1.22579 2.87999 0
M  V30 5504 C 553.861 -1.57218 4.3017 0
M  V30 5505 N 555.352 -1.64212 4.33115 0
M  V30 5506 C 556.087 -1.92517 5.40116 0
M  V30 5507 N 555.583 -2.1885 6.57325 0
M  V30 5508 N 557.376 -1.94008 5.27558 0
M  V30 5509 H 549.527 0.293451 2.10363 0
M  V30 5510 H 551.79 0.0687672 0.945503 0
M  V30 5511 H 551.496 -0.338504 3.50067 0
M  V30 5512 H 551.37 -2.05577 3.16256 0
M  V30 5513 H 553.757 -1.99722 2.17245 0
M  V30 5514 H 553.838 -0.269107 2.54381 0
M  V30 5515 H 553.482 -0.806154 5.01461 0
M  V30 5516 H 553.412 -2.54034 4.61275 0
M  V30 5517 H 555.903 -1.45906 3.48597 0
M  V30 5518 H 556.216 -2.39718 7.3468 0
M  V30 5519 H 554.561 -2.16245 6.60502 0
M  V30 5520 H 557.752 -1.72931 4.34986 0
M  V30 5521 H 557.925 -2.15731 6.11035 0
M  V30 5522 N 551.331 -1.39911 -0.725443 0
M  V30 5523 C 552.261 -1.42138 -1.85254 0
M  V30 5524 C 553.242 -0.283513 -1.67721 0
M  V30 5525 O 554.427 -0.490717 -1.87898 0
M  V30 5526 C 551.557 -1.27354 -3.23107 0
M  V30 5527 C 550.511 -2.3864 -3.55296 0
M  V30 5528 C 549.837 -2.08939 -4.92188 0
M  V30 5529 C 551.137 -3.8097 -3.57295 0
M  V30 5530 H 552.831 -2.36461 -1.83648 0
M  V30 5531 H 550.377 -1.13817 -0.882138 0
M  V30 5532 H 552.33 -1.2753 -4.01639 0
M  V30 5533 H 551.054 -0.295025 -3.25265 0
M  V30 5534 H 549.713 -2.37696 -2.79099 0
M  V30 5535 H 549.361 -1.09502 -4.90936 0
M  V30 5536 H 549.061 -2.83491 -5.14691 0
M  V30 5537 H 550.585 -2.10781 -5.73065 0
M  V30 5538 H 551.999 -3.8379 -4.25885 0
M  V30 5539 H 550.396 -4.5496 -3.9132 0
M  V30 5540 H 551.466 -4.11261 -2.5689 0
M  V30 5541 N 552.809 0.956637 -1.25245 0
M  V30 5542 C 554.22 1.51569 -1.09012 0
M  V30 5543 C 554.571 1.93322 0.334813 0
M  V30 5544 O 553.696 1.78421 1.22454 0
M  V30 5545 C 554.291 2.75444 -1.97271 0
M  V30 5546 C 552.85 3.27669 -1.8523 0
M  V30 5547 C 551.997 2.00517 -1.91542 0
M  V30 5548 H 554.948 0.773746 -1.3856 0
M  V30 5549 H 554.969 3.4919 -1.51151 0
M  V30 5550 H 554.481 2.45024 -3.00973 0
M  V30 5551 H 552.582 3.62914 -0.844045 0
M  V30 5552 H 552.695 3.9582 -2.69932 0
M  V30 5553 H 551.059 2.15727 -1.35404 0
M  V30 5554 H 551.842 1.72448 -2.96844 0
M  V30 5555 N 554.287 1.06798 1.15896 0
M  V30 5556 C 555.512 0.808739 1.90982 0
M  V30 5557 C 555.937 -0.6316 1.77179 0
M  V30 5558 O 555.295 -1.4407 1.10061 0
M  V30 5559 C 555.343 1.21468 3.39526 0
M  V30 5560 O 554.447 0.356562 4.10856 0
M  V30 5561 H 553.788 0.29512 0.594811 0
M  V30 5562 H 556.318 1.42513 1.46804 0
M  V30 5563 H 556.328 1.18844 3.90308 0
M  V30 5564 H 555.003 2.26379 3.48891 0
M  V30 5565 H 553.58 0.444808 3.70238 0
M  V30 5566 N 555.766 -1.3263 0.851289 0
M  V30 5567 C 556.713 -2.28952 0.291469 0
M  V30 5568 C 557.683 -1.54897 -0.599676 0
M  V30 5569 O 558.868 -1.83137 -0.535305 0
M  V30 5570 C 556.008 -3.41206 -0.516992 0
M  V30 5571 C 555.121 -4.30148 0.399566 0
M  V30 5572 C 554.256 -5.29527 -0.4212 0
M  V30 5573 C 553.295 -6.10112 0.492969 0
M  V30 5574 N 552.432 -7.01499 -0.290414 0
M  V30 5575 H 557.272 -2.76228 1.11813 0
M  V30 5576 H 554.809 -1.35907 0.562826 0
M  V30 5577 H 556.767 -4.05005 -1.00132 0
M  V30 5578 H 555.397 -2.9509 -1.30851 0
M  V30 5579 H 554.449 -3.66959 1.00227 0
M  V30 5580 H 555.761 -4.8649 1.1013 0
M  V30 5581 H 554.915 -5.98914 -0.968832 0
M  V30 5582 H 553.654 -4.73794 -1.15632 0
M  V30 5583 H 552.659 -5.39632 1.05251 0
M  V30 5584 H 553.884 -6.6793 1.22664 0
M  V30 5585 H 551.83 -6.48199 -1.00868 0
M  V30 5586 H 551.747 -7.55178 0.352354 0
M  V30 5587 H 553.015 -7.75176 -0.819882 0
M  V30 5588 N 557.244 -0.608902 -1.45362 0
M  V30 5589 C 558.655 -0.189511 -1.85736 0
M  V30 5590 C 559.006 1.2539 -1.50903 0
M  V30 5591 O 558.131 1.95094 -0.936347 0
M  V30 5592 C 558.726 -0.33716 -3.37118 0
M  V30 5593 C 557.285 0.0275487 -3.7639 0
M  V30 5594 C 556.432 -0.660983 -2.69307 0
M  V30 5595 H 559.383 -0.815499 -1.36144 0
M  V30 5596 H 559.404 0.430257 -3.7806 0
M  V30 5597 H 558.916 -1.38779 -3.62439 0
M  V30 5598 H 557.017 1.0773 -3.56686 0
M  V30 5599 H 557.13 -0.367018 -4.77692 0
M  V30 5600 H 555.494 -0.0984958 -2.54509 0
M  V30 5601 H 556.277 -1.71377 -2.97464 0
M  V30 5602 N 558.722 1.53707 -0.348139 0
M  V30 5603 C 559.669 2.25173 0.506518 0
M  V30 5604 C 560.639 1.25174 1.09182 0
M  V30 5605 O 561.824 1.53917 1.12757 0
M  V30 5606 C 558.964 3.03141 1.64923 0
M  V30 5607 C 558.077 4.18002 1.0908 0
M  V30 5608 C 557.212 4.83447 2.20119 0
M  V30 5609 C 556.251 5.90369 1.61651 0
M  V30 5610 N 555.388 6.49575 2.66451 0
M  V30 5611 H 560.228 2.97799 -0.109452 0
M  V30 5612 H 557.765 1.46953 -0.0657866 0
M  V30 5613 H 559.723 3.46607 2.32205 0
M  V30 5614 H 558.353 2.32803 2.23612 0
M  V30 5615 H 557.405 3.79145 0.308783 0
M  V30 5616 H 558.717 4.94892 0.623178 0
M  V30 5617 H 557.871 5.30008 2.95257 0
M  V30 5618 H 556.61 4.05991 2.70227 0
M  V30 5619 H 555.615 5.43186 0.850209 0
M  V30 5620 H 556.84 6.69735 1.1239 0
M  V30 5621 H 554.786 5.74981 3.15805 0
M  V30 5622 H 554.703 7.21952 2.24325 0
M  V30 5623 H 555.971 7.00789 3.41344 0
M  V30 5624 N 560.2 0.0768682 1.57412 0
M  V30 5625 C 561.425 -0.603404 1.98428 0
M  V30 5626 C 561.85 -1.62047 0.955108 0
M  V30 5627 O 561.208 -1.81129 -0.0786778 0
M  V30 5628 C 561.256 -1.24396 3.38464 0
M  V30 5629 O 560.36 -2.35982 3.3821 0
M  V30 5630 H 559.701 -0.154741 0.645718 0
M  V30 5631 H 562.231 0.152885 2.04028 0
M  V30 5632 H 562.241 -1.5896 3.7576 0
M  V30 5633 H 560.916 -0.498735 4.12899 0
M  V30 5634 H 559.493 -2.03173 3.1269 0
M  V30 5635 N 561.678 -1.56367 -0.196722 0
M  V30 5636 C 563.089 -1.70462 -0.761545 0
M  V30 5637 C 563.44 -0.683161 -1.83922 0
M  V30 5638 O 562.565 0.160753 -2.15802 0
M  V30 5639 C 563.16 -3.09057 -1.38814 0
M  V30 5640 C 561.719 -3.24922 -1.90007 0
M  V30 5641 C 560.866 -2.66412 -0.769399 0
M  V30 5642 H 563.817 -1.58675 0.0283263 0
M  V30 5643 H 563.838 -3.06296 -2.2575 0
M  V30 5644 H 563.35 -3.83378 -0.603559 0
M  V30 5645 H 561.451 -2.55514 -2.71189 0
M  V30 5646 H 561.564 -4.3241 -2.06297 0
M  V30 5647 H 559.928 -2.25546 -1.18326 0
M  V30 5648 H 560.711 -3.433 0.00291773 0
M  V30 5649 N 563.156 0.464375 -1.50603 0
M  V30 5650 C 564.086 1.56944 -1.72889 0
M  V30 5651 C 565.067 1.59979 -0.577997 0
M  V30 5652 O 566.252 1.76138 -0.817855 0
M  V30 5653 C 563.382 2.95225 -1.8292 0
M  V30 5654 C 562.336 3.07056 -2.98162 0
M  V30 5655 C 561.662 4.47051 -2.93343 0
M  V30 5656 C 562.962 2.83648 -4.38567 0
M  V30 5657 H 564.656 1.38547 -2.65415 0
M  V30 5658 H 562.202 0.665082 -1.27721 0
M  V30 5659 H 564.155 3.72467 -1.97095 0
M  V30 5660 H 562.879 3.14793 -0.870209 0
M  V30 5661 H 561.538 2.32248 -2.83648 0
M  V30 5662 H 561.186 4.63547 -1.95276 0
M  V30 5663 H 560.886 4.55902 -3.70712 0
M  V30 5664 H 562.41 5.26304 -3.09575 0
M  V30 5665 H 563.824 3.50636 -4.53572 0
M  V30 5666 H 562.221 3.03937 -5.17438 0
M  V30 5667 H 563.291 1.79451 -4.50472 0
M  V30 5668 N 564.634 1.40294 0.718013 0
M  V30 5669 C 565.566 1.36281 1.84283 0
M  V30 5670 C 566.579 0.268621 1.60569 0
M  V30 5671 O 567.768 0.528798 1.70487 0
M  V30 5672 C 564.868 1.09741 3.2064 0
M  V30 5673 C 564.041 2.30767 3.71571 0
M  V30 5674 C 563.1 2.00424 4.86535 0
M  V30 5675 O 562.126 2.73268 4.99313 0
M  V30 5676 N 563.328 0.980724 5.72156 0
M  V30 5677 H 566.093 2.3322 1.88225 0
M  V30 5678 H 563.654 1.34616 0.899453 0
M  V30 5679 H 565.646 0.874322 3.95143 0
M  V30 5680 H 564.216 0.214771 3.11861 0
M  V30 5681 H 563.436 2.68921 2.88228 0
M  V30 5682 H 564.724 3.11455 4.02335 0
M  V30 5683 H 564.122 0.377375 5.6444 0
M  V30 5684 H 562.679 0.817538 6.46653 0
M  V30 5685 N 566.112 -0.949982 1.2575 0
M  V30 5686 C 567.044 -2.05088 1.02331 0
M  V30 5687 C 568.057 -1.62795 -0.0133247 0
M  V30 5688 O 569.246 -1.77067 0.225759 0
M  V30 5689 C 566.346 -3.34794 0.525924 0
M  V30 5690 C 565.519 -4.05903 1.62978 0
M  V30 5691 C 564.578 -5.1388 1.13196 0
M  V30 5692 O 563.604 -5.39072 1.82729 0
M  V30 5693 N 564.806 -5.80495 -0.0242926 0
M  V30 5694 H 567.571 -2.25747 1.97125 0
M  V30 5695 H 565.132 -1.11886 1.17018 0
M  V30 5696 H 567.124 -4.04312 0.177263 0
M  V30 5697 H 565.694 -3.10872 -0.328202 0
M  V30 5698 H 564.914 -3.3042 2.1498 0
M  V30 5699 H 566.202 -4.50166 2.37124 0
M  V30 5700 H 565.6 -5.62454 -0.605184 0
M  V30 5701 H 564.157 -6.51043 -0.313947 0
M  V30 5702 N 567.59 -1.07411 -1.15328 0
M  V30 5703 C 568.5 -0.706438 -2.23711 0
M  V30 5704 C 569.516 0.282586 -1.7169 0
M  V30 5705 O 570.692 0.129066 -2.00986 0
M  V30 5706 C 567.757 -0.11048 -3.46524 0
M  V30 5707 C 566.818 -1.15282 -4.13532 0
M  V30 5708 C 566.051 -0.585205 -5.30482 0
M  V30 5709 O 566.274 0.598549 -5.67251 0
M  V30 5710 O 565.208 -1.33039 -5.87013 0
M  V30 5711 H 569.034 -1.61031 -2.57493 0
M  V30 5712 H 566.619 -0.847113 -1.23062 0
M  V30 5713 H 568.501 0.21957 -4.20828 0
M  V30 5714 H 567.176 0.766703 -3.14489 0
M  V30 5715 H 566.083 -1.53523 -3.41147 0
M  V30 5716 H 567.416 -2.00192 -4.49649 0
M  V30 5717 N 569.068 1.32177 -0.85831 0
M  V30 5718 C 570.479 1.79381 -0.517621 0
M  V30 5719 C 570.83 1.70841 0.964769 0
M  V30 5720 O 569.955 1.26917 1.75274 0
M  V30 5721 C 570.55 3.25706 -0.932801 0
M  V30 5722 C 569.109 3.70851 -0.643953 0
M  V30 5723 C 568.256 2.53208 -1.13054 0
M  V30 5724 H 571.207 1.19424 -1.04516 0
M  V30 5725 H 571.228 3.79673 -0.250674 0
M  V30 5726 H 570.74 3.31889 -2.01174 0
M  V30 5727 H 568.841 3.70178 0.424112 0
M  V30 5728 H 568.954 4.63495 -1.21281 0
M  V30 5729 H 567.318 2.48676 -0.550679 0
M  V30 5730 H 568.101 2.62143 -2.21666 0
M  V30 5731 N 570.547 0.616602 1.45037 0
M  V30 5732 C 571.772 0.120192 2.07051 0
M  V30 5733 C 572.197 -1.19008 1.45666 0
M  V30 5734 O 571.555 -1.7267 0.552692 0
M  V30 5735 C 571.603 0.00354901 3.606 0
M  V30 5736 O 570.707 -1.04431 3.98958 0
M  V30 5737 H 570.048 0.0781599 0.659384 0
M  V30 5738 H 572.578 0.849167 1.86146 0
M  V30 5739 H 572.588 -0.191754 4.07549 0
M  V30 5740 H 571.263 0.960239 4.04663 0
M  V30 5741 H 569.84 -0.824749 3.63665 0
M  V30 5742 N 572.025 -1.5352 0.356285 0
M  V30 5743 C 572.957 -2.23009 -0.529127 0
M  V30 5744 C 573.97 -1.241 -1.05371 0
M  V30 5745 O 575.159 -1.50379 -0.961679 0
M  V30 5746 C 572.259 -2.90685 -1.74229 0
M  V30 5747 C 571.432 -4.16019 -1.35081 0
M  V30 5748 C 570.491 -4.66989 -2.42502 0
M  V30 5749 O 569.517 -5.30895 -2.05279 0
M  V30 5750 N 570.719 -4.44006 -3.7395 0
M  V30 5751 H 573.484 -2.99627 0.0660501 0
M  V30 5752 H 571.045 -1.60885 0.181014 0
M  V30 5753 H 573.037 -3.21695 -2.4555 0
M  V30 5754 H 571.607 -2.17575 -2.24454 0
M  V30 5755 H 570.827 -3.91414 -0.467833 0
M  V30 5756 H 572.115 -4.9752 -1.06542 0
M  V30 5757 H 571.513 -3.92924 -4.06973 0
M  V30 5758 H 570.07 -4.7959 -4.41403 0
M  V30 5759 N 573.503 -0.0852151 -1.57369 0
M  V30 5760 C 574.914 0.445428 -1.81309 0
M  V30 5761 C 575.265 1.68795 -1.00013 0
M  V30 5762 O 574.39 2.15211 -0.226573 0
M  V30 5763 C 574.985 0.814887 -3.28854 0
M  V30 5764 C 573.544 1.29032 -3.53592 0
M  V30 5765 C 572.691 0.282089 -2.75861 0
M  V30 5766 H 575.642 -0.310771 -1.55627 0
M  V30 5767 H 575.663 1.67524 -3.41637 0
M  V30 5768 H 575.175 -0.0896309 -3.87996 0
M  V30 5769 H 573.276 2.21289 -2.9977 0
M  V30 5770 H 573.389 1.25898 -4.62262 0
M  V30 5771 H 571.753 0.762182 -2.43029 0
M  V30 5772 H 572.536 -0.614936 -3.37748 0
M  V30 5773 N 574.981 1.5647 0.188427 0
M  V30 5774 C 576.206 1.85486 0.927891 0
M  V30 5775 C 576.631 0.669575 1.75779 0
M  V30 5776 O 575.989 -0.381573 1.77239 0
M  V30 5777 C 576.037 3.12784 1.7944 0
M  V30 5778 O 575.141 2.93805 2.894 0
M  V30 5779 H 574.482 0.610585 0.260925 0
M  V30 5780 H 577.012 2.037 0.191729 0
M  V30 5781 H 577.022 3.43749 2.19774 0
M  V30 5782 H 575.697 3.98671 1.18468 0
M  V30 5783 H 574.274 2.74153 2.52774 0
M  V30 5784 N 576.459 -0.456382 1.50847 0
M  V30 5785 C 577.87 -1.03685 1.55262 0
M  V30 5786 C 578.221 -1.92779 0.364771 0
M  V30 5787 O 577.346 -2.10043 -0.52068 0
M  V30 5788 C 577.941 -1.88718 2.81374 0
M  V30 5789 C 576.5 -2.41847 2.88422 0
M  V30 5790 C 575.647 -1.20564 2.49719 0
M  V30 5791 H 578.598 -0.238399 1.56899 0
M  V30 5792 H 578.619 -2.73957 2.6406 0
M  V30 5793 H 578.131 -1.23847 3.67809 0
M  V30 5794 H 576.232 -3.10228 2.06372 0
M  V30 5795 H 576.345 -2.75947 3.9165 0
M  V30 5796 H 574.709 -1.54504 2.02486 0
M  V30 5797 H 575.492 -0.573326 3.38479 0
M  V30 5798 N 577.937 -1.40673 -0.710563 0
M  V30 5799 C 579.348 -1.34975 -1.28991 0
M  V30 5800 C 579.699 -0.0256272 -1.96183 0
M  V30 5801 O 578.824 0.876339 -1.97862 0
M  V30 5802 C 579.419 -2.44467 -2.34567 0
M  V30 5803 C 577.978 -2.42213 -2.88114 0
M  V30 5804 C 577.125 -2.25085 -1.61963 0
M  V30 5805 H 580.076 -1.50406 -0.506343 0
M  V30 5806 H 580.097 -2.12663 -3.15523 0
M  V30 5807 H 579.609 -3.40825 -1.85634 0
M  V30 5808 H 577.71 -1.49568 -3.41263 0
M  V30 5809 H 577.823 -3.37983 -3.39565 0
M  V30 5810 H 576.187 -1.72691 -1.87216 0
M  V30 5811 H 576.97 -3.23449 -1.15047 0
M  V30 5812 N 579.415 0.9433 -1.26252 0
M  V30 5813 C 580.64 1.72898 -1.14547 0
M  V30 5814 C 581.065 1.85761 0.295743 0
M  V30 5815 O 580.423 1.3463 1.21427 0
M  V30 5816 C 580.471 3.11471 -1.8171 0
M  V30 5817 O 579.575 3.97336 -1.10445 0
M  V30 5818 H 578.916 0.530555 -0.399259 0
M  V30 5819 H 581.446 1.18159 -1.67032 0
M  V30 5820 H 581.456 3.61872 -1.88449 0
M  V30 5821 H 580.131 3.01425 -2.86558 0
M  V30 5822 H 578.708 3.55788 -1.11666 0
M  V30 5823 N 580.893 1.08022 1.14757 0
M  V30 5824 C 582.304 0.829144 1.67279 0
M  V30 5825 C 582.655 -0.644721 1.85305 0
M  V30 5826 O 581.78 -1.49838 1.56133 0
M  V30 5827 C 582.375 1.49855 3.03857 0
M  V30 5828 C 580.934 1.29482 3.53428 0
M  V30 5829 C 580.081 1.56386 2.28995 0
M  V30 5830 H 583.032 1.24134 0.988762 0
M  V30 5831 H 583.053 0.923572 3.69121 0
M  V30 5832 H 582.565 2.57123 2.90705 0
M  V30 5833 H 580.666 0.242669 3.71809 0
M  V30 5834 H 580.779 2.01974 4.34446 0
M  V30 5835 H 579.143 0.985217 2.34874 0
M  V30 5836 H 579.926 2.64851 2.18423 0
M  V30 5837 N 582.371 -1.3172 0.865308 0
M  V30 5838 C 583.782 -1.79104 0.527126 0
M  V30 5839 C 584.133 -1.7135 -0.955695 0
M  V30 5840 O 583.258 -1.27845 -1.74598 0
M  V30 5841 C 583.853 -3.25207 0.950061 0
M  V30 5842 C 582.412 -3.70504 0.663611 0
M  V30 5843 C 581.559 -2.52605 1.14395 0
M  V30 5844 H 584.51 -1.18868 1.05148 0
M  V30 5845 H 584.531 -3.79535 0.270805 0
M  V30 5846 H 584.043 -3.30818 2.02931 0
M  V30 5847 H 582.144 -3.70398 -0.404474 0
M  V30 5848 H 582.257 -4.62845 1.23737 0
M  V30 5849 H 580.621 -2.4838 0.563859 0
M  V30 5850 H 581.404 -2.60964 2.23053 0
M  V30 5851 N 583.85 -0.624285 -1.44708 0
M  V30 5852 C 585.099 -0.123539 -2.01321 0
M  V30 5853 C 585.412 1.25966 -1.49639 0
M  V30 5854 O 586.618 1.85405 -1.98336 0
M  V30 5855 C 585.074 -0.170124 -3.59498 0
M  V30 5856 C 584.682 -1.55421 -4.20176 0
M  V30 5857 C 586.426 0.274513 -4.23611 0
M  V30 5858 C 584.332 -1.55628 -5.70556 0
M  V30 5859 H 583.263 -0.0424183 -0.752806 0
M  V30 5860 H 585.913 -0.782076 -1.65999 0
M  V30 5861 H 584.296 0.555385 -3.92086 0
M  V30 5862 H 585.47 -2.30276 -3.99136 0
M  V30 5863 H 583.784 -1.94235 -3.68323 0
M  V30 5864 H 586.382 0.292402 -5.339 0
M  V30 5865 H 586.725 1.3005 -3.95465 0
M  V30 5866 H 587.258 -0.398275 -3.95801 0
M  V30 5867 H 583.997 -2.56041 -6.03426 0
M  V30 5868 H 583.517 -0.850563 -5.93739 0
M  V30 5869 H 585.196 -1.28721 -6.34066 0
M  V30 5870 N 585.328 1.53329 -0.364422 0
M  V30 5871 C 586.568 2.0315 0.22572 0
M  V30 5872 C 586.932 1.24589 1.46087 0
M  V30 5873 O 588.133 1.64411 2.12656 0
M  V30 5874 C 586.404 3.53718 0.511663 0
M  V30 5875 S 587.963 4.25412 1.07564 0
M  V30 5876 H 584.781 0.70795 0.0657843 0
M  V30 5877 H 587.383 1.88811 -0.507019 0
M  V30 5878 H 586.087 4.08497 -0.394784 0
M  V30 5879 H 585.618 3.72217 1.27351 0
M  V30 5880 H 587.633 4.36486 2.35997 0
M  V30 5881 N 586.806 0.0935595 1.57322 0
M  V30 5882 C 587.739 -0.902505 2.09595 0
M  V30 5883 C 588.717 -1.27732 1.00615 0
M  V30 5884 O 589.901 -1.38283 1.28102 0
M  V30 5885 C 587.028 -2.20416 2.57166 0
M  V30 5886 C 586.074 -1.97932 3.7779 0
M  V30 5887 S 586.907 -1.21873 5.21447 0
M  V30 5888 C 588.063 -2.53273 5.72367 0
M  V30 5889 H 588.296 -0.457797 2.93754 0
M  V30 5890 H 585.829 -0.119694 1.53935 0
M  V30 5891 H 587.787 -2.95217 2.85232 0
M  V30 5892 H 586.448 -2.62008 1.73235 0
M  V30 5893 H 585.641 -2.94316 4.09138 0
M  V30 5894 H 585.243 -1.3126 3.5021 0
M  V30 5895 H 587.535 -3.49256 5.8054 0
M  V30 5896 H 588.478 -2.26505 6.70896 0
M  V30 5897 H 588.886 -2.61475 5.00291 0
M  V30 5898 N 588.284 -1.56567 -0.180126 0
M  V30 5899 C 589.217 -1.90813 -1.25163 0
M  V30 5900 C 590.195 -0.7699 -1.43218 0
M  V30 5901 O 591.379 -1.02236 -1.58367 0
M  V30 5902 C 588.506 -2.15138 -2.61597 0
M  V30 5903 C 587.552 -3.37834 -2.60328 0
M  V30 5904 S 588.385 -4.92486 -2.1028 0
M  V30 5905 C 589.541 -5.19896 -3.48509 0
M  V30 5906 H 589.774 -2.81398 -0.959283 0
M  V30 5907 H 587.307 -1.49541 -0.3843 0
M  V30 5908 H 589.265 -2.29835 -3.40127 0
M  V30 5909 H 587.926 -1.25276 -2.88036 0
M  V30 5910 H 587.119 -3.52027 -3.60684 0
M  V30 5911 H 586.721 -3.22208 -1.8989 0
M  V30 5912 H 589.013 -5.11334 -4.44459 0
M  V30 5913 H 589.956 -6.21571 -3.39198 0
M  V30 5914 H 590.364 -4.47489 -3.44114 0
M  V30 5915 N 589.762 0.448376 -1.51087 0
M  V30 5916 C 590.71 1.56407 -1.72161 0
M  V30 5917 C 591.704 1.58878 -0.587721 0
M  V30 5918 O 592.91 1.62755 -0.768822 0
M  V30 5919 H 589.285 0.519423 -0.543786 0
M  V30 5920 H 591.256 1.35803 -2.65707 0
M  V30 5921 C 590.005 2.94163 -1.85373 0
M  V30 5922 H 589.328 2.9299 -2.72024 0
M  V30 5923 H 590.768 3.71625 -2.04135 0
M  V30 5924 C 589.227 3.31317 -0.610803 0
M  V30 5925 O 589.757 4.00985 0.239636 0
M  V30 5926 N 587.963 2.86966 -0.458127 0
M  V30 5927 H 587.51 2.30443 -1.15124 0
M  V30 5928 H 587.468 3.12188 0.372289 0
M  V30 5929 N 591.24 1.41047 0.703093 0
M  V30 5930 C 592.203 1.42036 1.79884 0
M  V30 5931 C 593.203 0.312153 1.57741 0
M  V30 5932 O 594.393 0.571672 1.64553 0
M  V30 5933 C 591.525 1.22437 3.18154 0
M  V30 5934 H 592.718 2.39572 1.80403 0
M  V30 5935 H 590.271 1.27079 0.909977 0
M  V30 5936 H 591.006 0.257112 3.23279 0
M  V30 5937 H 590.791 2.02723 3.35627 0
M  V30 5938 H 592.281 1.25946 3.98155 0
M  V30 5939 N 592.718 -0.936591 1.26751 0
M  V30 5940 C 593.648 -2.05315 1.11212 0
M  V30 5941 C 594.629 -1.70092 0.0160262 0
M  V30 5942 O 595.814 -1.93279 0.188894 0
M  V30 5943 C 592.944 -3.39123 0.749171 0
M  V30 5944 C 591.898 -3.88425 1.79751 0
M  V30 5945 C 591.224 -5.18936 1.28876 0
M  V30 5946 C 592.524 -4.12798 3.19992 0
M  V30 5947 H 594.218 -2.18573 2.04613 0
M  V30 5948 H 591.764 -1.05027 0.985159 0
M  V30 5949 H 593.717 -4.16704 0.627323 0
M  V30 5950 H 592.441 -3.25855 -0.220543 0
M  V30 5951 H 591.1 -3.13028 1.90811 0
M  V30 5952 H 590.748 -5.02051 0.308757 0
M  V30 5953 H 590.448 -5.52892 1.98958 0
M  V30 5954 H 591.972 -5.99096 1.17967 0
M  V30 5955 H 593.386 -4.80977 3.11983 0
M  V30 5956 H 591.783 -4.58044 3.87705 0
M  V30 5957 H 592.853 -3.18412 3.65707 0
M  V30 5958 N 594.196 -1.08629 -1.14182 0
M  V30 5959 C 595.442 -0.818556 -1.85546 0
M  V30 5960 C 595.775 0.654076 -1.82854 0
M  V30 5961 O 595.05 1.48099 -1.26083 0
M  V30 5962 C 595.333 -1.34397 -3.3408 0
M  V30 5963 C 595.186 -2.8821 -3.45333 0
M  V30 5964 C 596.505 -0.971069 -4.29253 0
M  V30 5965 H 593.624 -0.298821 -0.673702 0
M  V30 5966 H 596.266 -1.34629 -1.34071 0
M  V30 5967 H 594.416 -0.895064 -3.78049 0
M  V30 5968 H 596.088 -3.41488 -3.10134 0
M  V30 5969 H 594.331 -3.25756 -2.86471 0
M  V30 5970 H 595.002 -3.20047 -4.49749 0
M  V30 5971 H 597.478 -1.35809 -3.93313 0
M  V30 5972 H 596.354 -1.36586 -5.31635 0
M  V30 5973 H 596.615 0.121659 -4.41933 0
M  V30 5974 N 595.674 1.31259 -0.872281 0
M  V30 5975 C 597.09 1.49283 -0.564521 0
M  V30 5976 C 597.29 1.80243 0.900807 0
M  V30 5977 O 596.346 1.88246 1.68284 0
M  V30 5978 C 597.659 2.62503 -1.46673 0
M  V30 5979 C 599.207 2.76386 -1.46901 0
M  V30 5980 C 599.682 3.92705 -2.35684 0
M  V30 5981 N 601.173 3.99995 -2.33577 0
M  V30 5982 C 601.908 4.89276 -2.98992 0
M  V30 5983 N 601.404 5.83443 -3.73585 0
M  V30 5984 N 603.197 4.82541 -2.88289 0
M  V30 5985 H 595.348 1.09432 -1.82039 0
M  V30 5986 H 597.611 0.540949 -0.77851 0
M  V30 5987 H 597.317 2.46407 -2.50951 0
M  V30 5988 H 597.191 3.58695 -1.16696 0
M  V30 5989 H 599.578 2.91894 -0.433796 0
M  V30 5990 H 599.659 1.80853 -1.80903 0
M  V30 5991 H 599.303 3.77954 -3.39283 0
M  V30 5992 H 599.233 4.87549 -1.99006 0
M  V30 5993 H 601.724 3.32624 -1.7936 0
M  V30 5994 H 602.037 6.48303 -4.20622 0
M  V30 5995 H 600.382 5.83415 -3.77694 0
M  V30 5996 H 603.573 4.07951 -2.2955 0
M  V30 5997 H 603.746 5.51916 -3.39549 0
M  V30 5998 N 597.152 0.631951 1.44375 0
M  V30 5999 C 598.115 -0.0628142 2.29114 0
M  V30 6000 C 599.115 -0.771494 1.41084 0
M  V30 6001 O 600.305 -0.615959 1.62947 0
M  V30 6002 C 597.437 -1.09953 3.22681 0
M  V30 6003 H 598.63 0.682509 2.92031 0
M  V30 6004 H 596.183 0.392128 1.51301 0
M  V30 6005 H 596.918 -1.87481 2.64616 0
M  V30 6006 H 596.703 -0.595286 3.87555 0
M  V30 6007 H 598.193 -1.58538 3.86336 0
M  V30 6008 N 598.631 -1.53133 0.372548 0
M  V30 6009 C 599.561 -2.28876 -0.462412 0
M  V30 6010 C 600.542 -1.31583 -1.07796 0
M  V30 6011 O 601.727 -1.60461 -1.09389 0
M  V30 6012 C 598.857 -3.08317 -1.59868 0
M  V30 6013 C 597.811 -4.13355 -1.11003 0
M  V30 6014 C 597.137 -4.8092 -2.33708 0
M  V30 6015 C 598.437 -5.21955 -0.18983 0
M  V30 6016 H 600.131 -2.9892 0.169511 0
M  V30 6017 H 597.677 -1.43761 0.0829658 0
M  V30 6018 H 599.63 -3.60055 -2.18949 0
M  V30 6019 H 598.354 -2.35976 -2.25794 0
M  V30 6020 H 597.013 -3.62573 -0.541869 0
M  V30 6021 H 596.661 -4.05144 -2.98106 0
M  V30 6022 H 596.361 -5.51904 -2.01682 0
M  V30 6023 H 597.885 -5.35455 -2.93462 0
M  V30 6024 H 599.299 -5.69153 -0.688319 0
M  V30 6025 H 597.696 -6.00087 0.0398887 0
M  V30 6026 H 598.766 -4.78811 0.766057 0
M  V30 6027 N 600.109 -0.101901 -1.5727 0
M  V30 6028 C 601.337 0.568392 -1.98939 0
M  V30 6029 C 601.752 1.61301 -0.981194 0
M  V30 6030 O 601.109 1.82478 0.0282869 0
M  V30 6031 C 601.16 1.20997 -3.40649 0
M  V30 6032 O 600.881 0.207129 -4.3761 0
M  V30 6033 C 602.382 1.96523 -3.97358 0
M  V30 6034 H 599.602 0.15186 -0.65359 0
M  V30 6035 H 602.146 -0.183198 -2.03678 0
M  V30 6036 H 600.301 1.91245 -3.36904 0
M  V30 6037 H 600.715 0.671071 -5.20189 0
M  V30 6038 H 602.189 2.36764 -4.98645 0
M  V30 6039 H 602.666 2.83376 -3.35552 0
M  V30 6040 H 603.272 1.31076 -4.04598 0
M  V30 6041 N 601.587 1.56661 0.17182 0
M  V30 6042 C 602.864 1.72838 0.915778 0
M  V30 6043 C 603.244 0.66316 2.00413 0
M  V30 6044 O 602.592 -0.322123 2.26218 0
M  V30 6045 C 602.802 3.16019 1.48097 0
M  V30 6046 C 604.15 3.76962 1.95408 0
M  V30 6047 O 605.174 3.19294 1.57892 0
M  V30 6048 O 604.033 4.78219 2.64516 0
M  V30 6049 H 601.127 0.705797 0.431021 0
M  V30 6050 H 603.673 1.68947 0.159689 0
M  V30 6051 H 602.445 3.85031 0.697618 0
M  V30 6052 H 602.068 3.24234 2.30126 0
M  V30 6053 N 603.065 -0.440357 1.51323 0
M  V30 6054 C 604.29 -1.21716 1.67928 0
M  V30 6055 C 604.715 -1.84328 0.374826 0
M  V30 6056 O 604.073 -1.68675 -0.664706 0
M  V30 6057 C 604.121 -2.27914 2.79442 0
M  V30 6058 O 603.225 -3.33325 2.42834 0
M  V30 6059 H 602.566 -0.35674 0.560029 0
M  V30 6060 H 605.096 -0.520417 1.97871 0
M  V30 6061 H 605.106 -2.72746 3.03436 0
M  V30 6062 H 603.781 -1.8172 3.741 0
M  V30 6063 H 602.358 -2.9399 2.294 0
M  V30 6064 N 604.543 -1.41418 -0.695603 0
M  V30 6065 C 605.771 -1.4413 -1.48439 0
M  V30 6066 C 606.186 -0.0465698 -1.88743 0
M  V30 6067 O 605.543 0.934117 -1.56782 0
M  V30 6068 C 605.594 -2.34998 -2.74696 0
M  V30 6069 O 605.315 -3.69043 -2.36091 0
M  V30 6070 C 606.816 -2.46513 -3.68438 0
M  V30 6071 H 604.036 -0.490905 -0.457442 0
M  V30 6072 H 606.58 -1.85702 -0.856454 0
M  V30 6073 H 604.735 -1.96735 -3.33728 0
M  V30 6074 H 605.149 -4.17505 -3.17474 0
M  V30 6075 H 606.623 -3.1426 -4.53811 0
M  V30 6076 H 607.1 -1.49638 -4.12922 0
M  V30 6077 H 607.706 -2.85412 -3.1531 0
M  V30 6078 N 606.021 0.929856 -1.27246 0
M  V30 6079 C 607.432 1.49223 -1.12203 0
M  V30 6080 C 607.783 1.93989 0.293731 0
M  V30 6081 O 606.908 1.80978 1.18642 0
M  V30 6082 C 607.503 2.71198 -2.0307 0
M  V30 6083 C 606.062 3.23666 -1.92139 0
M  V30 6084 C 605.209 1.96409 -1.95752 0
M  V30 6085 H 608.16 0.744181 -1.4017 0
M  V30 6086 H 608.181 3.45905 -1.58524 0
M  V30 6087 H 607.693 2.38585 -3.06102 0
M  V30 6088 H 605.794 3.61042 -0.920834 0
M  V30 6089 H 605.907 3.90006 -2.78267 0
M  V30 6090 H 604.271 2.12806 -1.39949 0
M  V30 6091 H 605.054 1.66113 -3.00436 0
M  V30 6092 N 607.499 1.09233 1.13605 0
M  V30 6093 C 608.915 0.82163 1.36826 0
M  V30 6094 C 609.115 -0.565021 1.93416 0
M  V30 6095 O 608.171 -1.32026 2.15234 0
M  V30 6096 C 609.484 1.91124 2.32147 0
M  V30 6097 C 611.032 1.93824 2.45767 0
M  V30 6098 C 611.507 3.01923 3.44393 0
M  V30 6099 N 612.998 3.01149 3.51942 0
M  V30 6100 C 613.733 3.81434 4.2813 0
M  V30 6101 N 613.229 4.71621 5.07489 0
M  V30 6102 N 615.022 3.69702 4.23411 0
M  V30 6103 H 607.173 1.98633 0.752234 0
M  V30 6104 H 609.436 0.862482 0.393482 0
M  V30 6105 H 609.142 2.90862 1.97717 0
M  V30 6106 H 609.016 1.78777 3.32142 0
M  V30 6107 H 611.403 0.94726 2.79483 0
M  V30 6108 H 611.484 2.10248 1.45703 0
M  V30 6109 H 611.128 4.01232 3.11408 0
M  V30 6110 H 611.058 2.82742 4.44257 0
M  V30 6111 H 613.549 2.35789 2.95317 0
M  V30 6112 H 613.862 5.29468 5.62924 0
M  V30 6113 H 612.207 4.75658 5.06729 0
M  V30 6114 H 615.398 2.98606 3.60489 0
M  V30 6115 H 615.571 4.32509 4.82535 0
M  V30 6116 N 608.977 -1.30795 0.87923 0
M  V30 6117 C 610.254 -1.91145 0.415086 0
M  V30 6118 C 610.634 -1.7995 -1.10368 0
M  V30 6119 O 609.982 -1.21305 -1.93642 0
M  V30 6120 C 610.192 -3.37014 0.906778 0
M  V30 6121 C 611.54 -4.14101 0.938358 0
M  V30 6122 O 612.564 -3.45834 0.853053 0
M  V30 6123 O 611.423 -5.36054 1.06342 0
M  V30 6124 H 608.517 -0.81736 0.125905 0
M  V30 6125 H 611.063 -1.39401 0.967753 0
M  V30 6126 H 609.835 -3.3922 1.95053 0
M  V30 6127 H 609.458 -3.96204 0.332948 0
M  V30 6128 N 610.455 -0.639598 -1.44038 0
M  V30 6129 C 611.385 0.0469443 -2.33453 0
M  V30 6130 C 612.366 0.82609 -1.48694 0
M  V30 6131 O 613.551 0.790285 -1.77393 0
M  V30 6132 C 610.681 1.02338 -3.3188 0
M  V30 6133 C 609.635 0.355284 -4.26523 0
M  V30 6134 C 608.961 1.44221 -5.14883 0
M  V30 6135 C 610.261 -0.743798 -5.16977 0
M  V30 6136 H 611.955 -0.699735 -2.91108 0
M  V30 6137 H 609.501 -0.337946 -1.39978 0
M  V30 6138 H 611.454 1.51247 -3.93322 0
M  V30 6139 H 610.178 1.80105 -2.72451 0
M  V30 6140 H 608.837 -0.113239 -3.66425 0
M  V30 6141 H 608.485 2.21097 -4.51802 0
M  V30 6142 H 608.185 1.00052 -5.79019 0
M  V30 6143 H 609.709 1.93295 -5.79197 0
M  V30 6144 H 611.123 -0.337444 -5.72306 0
M  V30 6145 H 609.52 -1.10914 -5.89761 0
M  V30 6146 H 610.59 -1.60745 -4.57481 0
M  V30 6147 N 611.933 1.52934 -0.380664 0
M  V30 6148 C 613.21 1.93845 0.261417 0
M  V30 6149 C 613.59 1.31544 1.65104 0
M  V30 6150 O 612.938 0.480234 2.23397 0
M  V30 6151 C 613.148 3.47739 0.296466 0
M  V30 6152 C 614.496 4.21284 0.529578 0
M  V30 6153 O 615.52 3.54199 0.377041 0
M  V30 6154 O 614.379 5.40195 0.827753 0
M  V30 6155 H 611.473 0.811318 0.160285 0
M  V30 6156 H 614.019 1.64042 -0.434544 0
M  V30 6157 H 612.791 3.85395 -0.67724 0
M  V30 6158 H 612.414 3.8382 1.0377 0
M  V30 6159 N 613.412 0.11024 1.57214 0
M  V30 6160 C 614.642 -0.557025 1.98949 0
M  V30 6161 C 615.05 -1.61317 0.988606 0
M  V30 6162 O 614.393 -1.83679 -0.0279159 0
M  V30 6163 C 614.455 -1.24956 3.37085 0
M  V30 6164 C 614.119 -0.342398 4.55716 0
M  V30 6165 C 615.116 0.415511 5.18237 0
M  V30 6166 C 612.801 -0.256029 5.01647 0
M  V30 6167 C 614.795 1.24761 6.25071 0
M  V30 6168 C 612.482 0.579713 6.08344 0
M  V30 6169 C 613.48 1.33017 6.69922 0
M  V30 6170 O 613.168 2.15205 7.74559 0
M  V30 6171 H 612.9 -0.152792 0.658506 0
M  V30 6172 H 615.454 0.19076 2.04512 0
M  V30 6173 H 613.684 -2.04424 3.2825 0
M  V30 6174 H 615.373 -1.81286 3.63167 0
M  V30 6175 H 616.139 0.358605 4.83672 0
M  V30 6176 H 612.018 -0.829831 4.5347 0
M  V30 6177 H 615.562 1.83386 6.73064 0
M  V30 6178 H 611.459 0.638044 6.42339 0
M  V30 6179 H 612.227 2.08052 7.91617 0
M  V30 6180 N 614.89 -1.56749 -0.16351 0
M  V30 6181 C 616.115 -1.86938 -0.898264 0
M  V30 6182 C 616.54 -0.697456 -1.74692 0
M  V30 6183 O 615.898 0.353327 -1.77824 0
M  V30 6184 C 615.946 -3.15599 -1.74441 0
M  V30 6185 O 615.05 -2.98371 -2.8469 0
M  V30 6186 H 614.391 -0.614659 -0.251178 0
M  V30 6187 H 616.921 -2.03979 -0.159298 0
M  V30 6188 H 616.931 -3.47202 -2.14277 0
M  V30 6189 H 615.606 -4.00505 -1.1211 0
M  V30 6190 H 614.183 -2.7814 -2.4838 0
M  V30 6191 N 616.368 0.432326 -1.51554 0
M  V30 6192 C 617.784 0.769195 -1.39841 0
M  V30 6193 C 617.984 1.95584 -0.484675 0
M  V30 6194 O 617.04 2.52433 0.0582829 0
M  V30 6195 C 618.353 1.04487 -2.81963 0
M  V30 6196 C 619.901 1.149 -2.91148 0
M  V30 6197 C 620.376 1.45758 -4.34187 0
M  V30 6198 N 621.867 1.52671 -4.37317 0
M  V30 6199 C 622.602 1.78129 -5.4503 0
M  V30 6200 N 622.098 2.01345 -6.62897 0
M  V30 6201 N 623.891 1.79953 -5.32516 0
M  V30 6202 H 616.042 -0.349122 -2.09511 0
M  V30 6203 H 618.305 -0.0938113 -0.943347 0
M  V30 6204 H 618.011 0.24557 -3.50842 0
M  V30 6205 H 617.885 1.97119 -3.21596 0
M  V30 6206 H 620.272 1.93891 -2.22464 0
M  V30 6207 H 620.353 0.201568 -2.55005 0
M  V30 6208 H 619.997 0.672917 -5.03423 0
M  V30 6209 H 619.927 2.41715 -4.67848 0
M  V30 6210 H 622.418 1.36612 -3.52343 0
M  V30 6211 H 622.731 2.20155 -7.40778 0
M  V30 6212 H 621.076 1.98657 -6.66003 0
M  V30 6213 H 624.267 1.61337 -4.39418 0
M  V30 6214 H 624.44 1.99455 -6.1654 0
M  V30 6215 N 617.846 1.41785 0.688094 0
M  V30 6216 C 619.076 1.44705 1.47459 0
M  V30 6217 C 619.484 0.052916 1.89126 0
M  V30 6218 O 618.827 -0.939781 1.57841 0
M  V30 6219 C 618.889 2.29935 2.76352 0
M  V30 6220 C 618.553 3.77996 2.56843 0
M  V30 6221 C 619.55 4.69976 2.22304 0
M  V30 6222 C 617.235 4.2212 2.7225 0
M  V30 6223 C 619.229 6.04068 2.03421 0
M  V30 6224 C 616.916 5.56275 2.52985 0
M  V30 6225 C 617.914 6.47065 2.18621 0
M  V30 6226 O 617.602 7.78744 1.9953 0
M  V30 6227 H 617.334 0.494703 0.460701 0
M  V30 6228 H 619.888 1.86802 0.854057 0
M  V30 6229 H 618.118 1.82664 3.40839 0
M  V30 6230 H 619.807 2.24467 3.38186 0
M  V30 6231 H 620.573 4.37175 2.10008 0
M  V30 6232 H 616.452 3.51752 2.97979 0
M  V30 6233 H 619.996 6.74897 1.76523 0
M  V30 6234 H 615.893 5.88653 2.64873 0
M  V30 6235 H 616.661 7.89966 2.14234 0
M  V30 6236 N 619.324 -0.923095 1.27737 0
M  V30 6237 C 620.564 -1.6858 1.15586 0
M  V30 6238 C 620.928 -1.89758 -0.292562 0
M  V30 6239 O 622.129 -2.6339 -0.536583 0
M  V30 6240 C 620.4 -3.01275 1.92271 0
M  V30 6241 S 621.959 -3.924 1.96387 0
M  V30 6242 H 618.777 -0.579069 0.412554 0
M  V30 6243 H 621.379 -1.09866 1.61709 0
M  V30 6244 H 620.083 -2.83556 2.96689 0
M  V30 6245 H 619.614 -3.6504 1.46661 0
M  V30 6246 H 621.629 -4.84667 1.06361 0
M  V30 6247 N 620.802 -1.09834 -1.13024 0
M  V30 6248 C 622.213 -0.855651 -1.65938 0
M  V30 6249 C 622.564 0.615159 -1.86307 0
M  V30 6250 O 621.689 1.47335 -1.58497 0
M  V30 6251 C 622.284 -1.5467 -3.01434 0
M  V30 6252 C 620.843 -1.35088 -3.51323 0
M  V30 6253 C 619.99 -1.6001 -2.26478 0
M  V30 6254 H 622.941 -1.25691 -0.968889 0
M  V30 6255 H 622.962 -0.982179 -3.67605 0
M  V30 6256 H 622.474 -2.61715 -2.86578 0
M  V30 6257 H 620.575 -0.30179 -3.71376 0
M  V30 6258 H 620.688 -2.0886 -4.31178 0
M  V30 6259 H 619.052 -1.02246 -2.33276 0
M  V30 6260 H 619.835 -2.68293 -2.14182 0
M  V30 6261 N 622.28 1.30327 -0.886154 0
M  V30 6262 C 623.508 2.00254 -0.520176 0
M  V30 6263 C 623.923 1.66419 0.891637 0
M  V30 6264 O 623.28 0.901951 1.58654 0
M  V30 6265 C 623.331 3.54916 -0.686775 0
M  V30 6266 O 623.052 3.87547 -2.04301 0
M  V30 6267 C 624.553 4.42115 -0.323945 0
M  V30 6268 H 621.773 0.640204 -0.200947 0
M  V30 6269 H 624.317 1.66183 -1.19178 0
M  V30 6270 H 622.472 3.8735 -0.0625273 0
M  V30 6271 H 622.886 4.82247 -2.06249 0
M  V30 6272 H 624.36 5.49808 -0.491407 0
M  V30 6273 H 624.837 4.32953 0.73811 0
M  V30 6274 H 625.443 4.15129 -0.924565 0
M  V30 6275 N 623.758 0.647228 1.43697 0
M  V30 6276 C 625.035 0.0883758 1.954 0
M  V30 6277 C 625.415 -1.39006 1.58873 0
M  V30 6278 O 624.763 -2.11255 0.87083 0
M  V30 6279 C 624.973 0.328263 3.47453 0
M  V30 6280 C 626.321 0.230009 4.23977 0
M  V30 6281 O 627.345 0.260496 3.55246 0
M  V30 6282 O 626.204 0.148615 5.46298 0
M  V30 6283 H 623.298 -0.0130683 0.826897 0
M  V30 6284 H 625.844 0.72005 1.53666 0
M  V30 6285 H 624.616 1.3535 3.67146 0
M  V30 6286 H 624.239 -0.336772 3.96171 0
M  V30 6287 N 625.236 -1.5273 0.388769 0
M  V30 6288 C 626.168 -2.24081 -0.481704 0
M  V30 6289 C 627.181 -1.26307 -1.02715 0
M  V30 6290 O 628.37 -1.52386 -0.929565 0
M  V30 6291 C 625.47 -2.94315 -1.68024 0
M  V30 6292 C 624.643 -4.18791 -1.26226 0
M  V30 6293 C 623.702 -4.72028 -2.32542 0
M  V30 6294 O 622.728 -5.35129 -1.93972 0
M  V30 6295 N 623.93 -4.51838 -3.64448 0
M  V30 6296 H 626.695 -2.9942 0.129591 0
M  V30 6297 H 624.256 -1.60465 0.2151 0
M  V30 6298 H 626.248 -3.26831 -2.38671 0
M  V30 6299 H 624.818 -2.22287 -2.19789 0
M  V30 6300 H 624.038 -3.92318 -0.384703 0
M  V30 6301 H 625.326 -4.99668 -0.959647 0
M  V30 6302 H 624.724 -4.01468 -3.98547 0
M  V30 6303 H 623.281 -4.88845 -4.31131 0
M  V30 6304 N 626.714 -0.118576 -1.57153 0
M  V30 6305 C 627.677 0.817464 -2.14127 0
M  V30 6306 C 628.677 1.1949 -1.07604 0
M  V30 6307 O 629.867 1.12048 -1.33382 0
M  V30 6308 C 626.999 2.10541 -2.68115 0
M  V30 6309 H 628.192 0.322339 -2.98163 0
M  V30 6310 H 625.745 0.130655 -1.55753 0
M  V30 6311 H 626.48 2.64485 -1.87665 0
M  V30 6312 H 626.265 1.84425 -3.4602 0
M  V30 6313 H 627.755 2.77453 -3.12105 0
M  V30 6314 N 628.193 1.56834 0.155195 0
M  V30 6315 C 629.156 1.96748 1.17571 0
M  V30 6316 C 630.156 0.853006 1.3631 0
M  V30 6317 O 631.346 1.11978 1.33441 0
M  V30 6318 C 628.478 2.27631 2.53765 0
M  V30 6319 H 629.671 2.88085 0.833498 0
M  V30 6320 H 627.224 1.51141 0.398242 0
M  V30 6321 H 627.959 1.39059 2.92973 0
M  V30 6322 H 627.744 3.0888 2.41527 0
M  V30 6323 H 629.234 2.59377 3.27282 0
M  V30 6324 N 629.671 -0.424282 1.51781 0
M  V30 6325 C 630.634 -1.49848 1.73431 0
M  V30 6326 C 631.634 -1.49016 0.604225 0
M  V30 6327 O 632.824 -1.50808 0.871935 0
M  V30 6328 C 629.956 -2.89332 1.80277 0
M  V30 6329 H 631.149 -1.3195 2.69312 0
M  V30 6330 H 628.702 -0.653809 1.41968 0
M  V30 6331 H 629.437 -3.12618 0.862568 0
M  V30 6332 H 629.222 -2.9134 2.62419 0
M  V30 6333 H 630.712 -3.67233 1.98821 0
M  V30 6334 N 631.149 -1.42148 -0.680565 0
M  V30 6335 C 632.397 -1.42029 -1.43779 0
M  V30 6336 C 632.718 -0.0356347 -1.94967 0
M  V30 6337 O 631.988 0.924936 -1.7269 0
M  V30 6338 H 630.568 -0.522835 -0.533529 0
M  V30 6339 H 633.23 -1.7752 -0.804538 0
M  V30 6340 H 632.326 -2.11658 -2.29363 0
M  V30 6341 N 632.627 0.916307 -1.28225 0
M  V30 6342 C 633.855 1.69901 -1.18073 0
M  V30 6343 C 634.27 1.86988 0.260968 0
M  V30 6344 O 633.627 1.39505 1.17663 0
M  V30 6345 C 633.678 3.09254 -1.87201 0
M  V30 6346 O 633.399 2.92959 -3.2574 0
M  V30 6347 C 634.9 4.0362 -1.83319 0
M  V30 6348 H 632.12 0.531181 -0.409985 0
M  V30 6349 H 634.664 1.14703 -1.69303 0
M  V30 6350 H 632.819 3.61277 -1.39848 0
M  V30 6351 H 633.233 3.81139 -3.60324 0
M  V30 6352 H 634.707 4.98873 -2.36282 0
M  V30 6353 H 635.184 4.3176 -0.805007 0
M  V30 6354 H 635.79 3.57524 -2.3034 0
M  V30 6355 N 634.105 1.10431 1.1244 0
M  V30 6356 C 635.382 0.758797 1.80282 0
M  V30 6357 C 635.762 -0.754727 1.97147 0
M  V30 6358 O 635.11 -1.68094 1.54779 0
M  V30 6359 C 635.32 1.50982 3.14651 0
M  V30 6360 C 636.668 1.68232 3.8985 0
M  V30 6361 O 637.692 1.47319 3.24308 0
M  V30 6362 O 636.551 2.02905 5.07437 0
M  V30 6363 H 633.645 0.273756 0.780376 0
M  V30 6364 H 636.191 1.20713 1.19275 0
M  V30 6365 H 634.963 2.53989 2.97666 0
M  V30 6366 H 634.586 1.05435 3.83366 0
M  V30 6367 N 635.583 -1.29855 0.893053 0
M  V30 6368 C 636.546 -2.26183 0.370687 0
M  V30 6369 C 637.546 -1.53108 -0.491385 0
M  V30 6370 O 638.736 -1.71643 -0.297386 0
M  V30 6371 C 635.868 -3.37633 -0.470827 0
M  V30 6372 H 637.061 -2.73903 1.22135 0
M  V30 6373 H 634.614 -1.41183 0.67061 0
M  V30 6374 H 635.349 -2.95241 -1.34175 0
M  V30 6375 H 635.134 -3.91825 0.146784 0
M  V30 6376 H 636.624 -4.09313 -0.827825 0
M  V30 6377 N 637.061 -0.65484 -1.43351 0
M  V30 6378 C 637.971 0.0363603 -2.34572 0
M  V30 6379 C 638.987 0.810432 -1.53974 0
M  V30 6380 O 640.163 0.757308 -1.86619 0
M  V30 6381 C 637.228 0.989733 -3.32273 0
M  V30 6382 C 636.289 0.212414 -4.28774 0
M  V30 6383 C 635.522 1.12038 -5.21808 0
M  V30 6384 O 635.745 2.35967 -5.19303 0
M  V30 6385 O 634.679 0.59191 -5.98982 0
M  V30 6386 H 638.505 -0.714527 -2.95175 0
M  V30 6387 H 636.09 -0.415029 -1.4352 0
M  V30 6388 H 637.972 1.53759 -3.92347 0
M  V30 6389 H 636.647 1.72082 -2.74171 0
M  V30 6390 H 635.554 -0.379062 -3.72175 0
M  V30 6391 H 636.887 -0.479138 -4.89862 0
M  V30 6392 N 638.539 1.52521 -0.396863 0
M  V30 6393 C 639.489 2.2348 0.451722 0
M  V30 6394 C 640.473 1.2415 1.0235 0
M  V30 6395 O 641.665 1.4945 0.948348 0
M  V30 6396 C 638.794 3.05067 1.57445 0
M  V30 6397 C 637.88 4.11799 1.01404 0
M  V30 6398 N 638.271 5.05482 0.179234 0
M  V30 6399 C 636.569 4.27064 1.28578 0
M  V30 6400 C 637.27 5.81552 -0.131202 0
M  V30 6401 N 636.246 5.41523 0.474735 0
M  V30 6402 H 640.048 2.93269 -0.192534 0
M  V30 6403 H 637.562 1.61081 -0.206591 0
M  V30 6404 H 639.559 3.54446 2.19485 0
M  V30 6405 H 638.219 2.36816 2.22145 0
M  V30 6406 H 639.23 5.17573 -0.18411 0
M  V30 6407 H 635.907 3.70042 1.93327 0
M  V30 6408 H 637.297 6.67023 -0.808061 0
M  V30 6409 N 640.017 0.126909 1.57088 0
M  V30 6410 C 641.263 -0.529952 1.95753 0
M  V30 6411 C 641.596 -1.65823 1.01077 0
M  V30 6412 O 640.871 -1.94437 0.0494162 0
M  V30 6413 C 641.154 -1.05517 3.44294 0
M  V30 6414 C 641.007 0.0702253 4.49745 0
M  V30 6415 C 642.326 -1.9435 3.94862 0
M  V30 6416 H 639.445 -0.191168 0.711775 0
M  V30 6417 H 642.087 0.204071 1.88901 0
M  V30 6418 H 640.237 -1.68069 3.50264 0
M  V30 6419 H 641.909 0.705834 4.55868 0
M  V30 6420 H 640.152 0.732259 4.27575 0
M  V30 6421 H 640.823 -0.338642 5.5096 0
M  V30 6422 H 643.299 -1.41658 3.91244 0
M  V30 6423 H 642.175 -2.28015 4.993 0
M  V30 6424 H 642.436 -2.87299 3.36024 0
M  V30 6425 N 641.495 -1.56914 -0.146875 0
M  V30 6426 C 642.427 -1.94878 -1.20645 0
M  V30 6427 C 643.44 -0.844633 -1.39175 0
M  V30 6428 O 644.629 -1.12304 -1.38744 0
M  V30 6429 C 641.729 -2.20769 -2.57127 0
M  V30 6430 C 640.902 -3.52053 -2.59572 0
M  V30 6431 C 639.961 -3.66482 -3.77594 0
M  V30 6432 O 638.987 -4.38873 -3.62462 0
M  V30 6433 N 640.189 -3.03156 -4.95052 0
M  V30 6434 H 642.954 -2.86374 -0.883757 0
M  V30 6435 H 640.515 -1.58366 -0.336436 0
M  V30 6436 H 642.507 -2.27664 -3.34591 0
M  V30 6437 H 641.077 -1.35538 -2.81688 0
M  V30 6438 H 640.297 -3.56598 -1.68023 0
M  V30 6439 H 641.585 -4.38396 -2.58238 0
M  V30 6440 H 640.983 -2.44258 -5.10249 0
M  V30 6441 H 639.54 -3.15611 -5.70292 0
M  V30 6442 N 642.974 0.416227 -1.52004 0
M  V30 6443 C 643.906 1.52552 -1.71058 0
M  V30 6444 C 644.919 1.51693 -0.59102 0
M  V30 6445 O 646.108 1.56087 -0.865973 0
M  V30 6446 C 643.208 2.91455 -1.72937 0
M  V30 6447 C 642.381 3.16584 -3.01816 0
M  V30 6448 C 641.44 4.35322 -2.95603 0
M  V30 6449 O 640.466 4.32947 -3.6952 0
M  V30 6450 N 641.668 5.40049 -2.12903 0
M  V30 6451 H 644.433 1.36604 -2.66757 0
M  V30 6452 H 641.994 0.60544 -1.50153 0
M  V30 6453 H 643.986 3.68944 -1.66321 0
M  V30 6454 H 642.556 3.00895 -0.847418 0
M  V30 6455 H 641.776 2.27203 -3.22137 0
M  V30 6456 H 643.064 3.30213 -3.87088 0
M  V30 6457 H 642.462 5.44823 -1.52265 0
M  V30 6458 H 641.019 6.16308 -2.1215 0
M  V30 6459 N 644.452 1.42507 0.673017 0
M  V30 6460 C 645.699 1.43072 1.43306 0
M  V30 6461 C 646.027 0.0478004 1.94441 0
M  V30 6462 O 645.282 -0.944106 1.71421 0
M  V30 6463 C 645.581 2.40351 2.64511 0
M  V30 6464 C 645.247 3.8669 2.31908 0
M  V30 6465 C 643.909 4.26551 2.22728 0
M  V30 6466 C 646.261 4.78991 2.05467 0
M  V30 6467 C 643.589 5.56691 1.85234 0
M  V30 6468 C 645.941 6.09476 1.69477 0
M  V30 6469 C 644.605 6.48334 1.58808 0
M  V30 6470 H 643.875 0.523536 0.524395 0
M  V30 6471 H 646.522 1.75459 0.76723 0
M  V30 6472 H 644.827 2.01297 3.36135 0
M  V30 6473 H 646.524 2.38051 3.22696 0
M  V30 6474 H 643.114 3.55132 2.39956 0
M  V30 6475 H 647.298 4.48982 2.11492 0
M  V30 6476 H 642.554 5.85657 1.75545 0
M  V30 6477 H 646.728 6.80482 1.48043 0
M  V30 6478 H 644.355 7.49084 1.29525 0
M  V30 6479 N 645.93 -0.909495 1.28709 0
M  V30 6480 C 647.16 -1.69027 1.188 0
M  V30 6481 C 647.568 -1.87469 -0.255329 0
M  V30 6482 O 646.911 -1.40458 -1.18394 0
M  V30 6483 C 646.973 -3.10064 1.81936 0
M  V30 6484 C 646.637 -3.14891 3.31199 0
M  V30 6485 C 647.634 -2.95768 4.27571 0
M  V30 6486 C 645.319 -3.37269 3.7223 0
M  V30 6487 C 647.313 -2.98942 5.6295 0
M  V30 6488 C 645 -3.40074 5.07733 0
M  V30 6489 C 645.998 -3.20932 6.02903 0
M  V30 6490 O 645.686 -3.23507 7.35934 0
M  V30 6491 H 645.418 -0.535014 0.413203 0
M  V30 6492 H 647.972 -1.14645 1.70428 0
M  V30 6493 H 646.202 -3.66005 1.24808 0
M  V30 6494 H 647.891 -3.70185 1.66486 0
M  V30 6495 H 648.657 -2.78302 3.97206 0
M  V30 6496 H 644.536 -3.51212 2.98615 0
M  V30 6497 H 648.08 -2.83919 6.37209 0
M  V30 6498 H 643.977 -3.5707 5.37747 0
M  V30 6499 H 644.745 -3.3984 7.44615 0
M  V30 6500 N 647.408 -1.11026 -1.11852 0
M  V30 6501 C 648.356 -0.759643 -2.19846 0
M  V30 6502 C 649.35 0.246964 -1.6759 0
M  V30 6503 O 650.556 0.106693 -1.79684 0
M  V30 6504 H 646.931 -0.22775 -0.716683 0
M  V30 6505 H 648.902 -1.6792 -2.46669 0
M  V30 6506 C 647.651 -0.214364 -3.47039 0
M  V30 6507 H 646.974 -0.980175 -3.87599 0
M  V30 6508 H 648.414 -0.00717047 -4.23999 0
M  V30 6509 C 646.873 1.05436 -3.19976 0
M  V30 6510 O 647.403 2.13483 -3.40276 0
M  V30 6511 N 645.609 0.975436 -2.7374 0
M  V30 6512 H 645.156 0.0960853 -2.57421 0
M  V30 6513 H 645.114 1.82501 -2.5601 0
M  V30 6514 N 648.886 1.2938 -0.899927 0
M  V30 6515 C 649.816 2.30144 -0.39446 0
M  V30 6516 C 650.797 1.61611 0.530639 0
M  V30 6517 O 651.982 1.89119 0.441319 0
M  V30 6518 C 649.112 3.45229 0.37868 0
M  V30 6519 C 648.066 4.25564 -0.456012 0
M  V30 6520 C 647.392 5.32848 0.444637 0
M  V30 6521 C 648.692 4.93651 -1.70605 0
M  V30 6522 H 650.386 2.72673 -1.23653 0
M  V30 6523 H 647.932 1.31086 -0.596034 0
M  V30 6524 H 649.885 4.14797 0.743037 0
M  V30 6525 H 648.609 3.01545 1.25453 0
M  V30 6526 H 647.268 3.57704 -0.802704 0
M  V30 6527 H 646.916 4.85408 1.31863 0
M  V30 6528 H 646.616 5.87497 -0.110154 0
M  V30 6529 H 648.14 6.05268 0.805182 0
M  V30 6530 H 649.554 5.55655 -1.41141 0
M  V30 6531 H 647.951 5.58233 -2.20217 0
M  V30 6532 H 649.021 4.18926 -2.4419 0
M  V30 6533 N 650.364 0.662433 1.43002 0
M  V30 6534 C 651.294 -0.00979809 2.33498 0
M  V30 6535 C 652.275 -0.802329 1.49989 0
M  V30 6536 O 653.46 -0.761964 1.78627 0
M  V30 6537 C 650.59 -0.970446 3.33466 0
M  V30 6538 C 649.544 -0.287383 4.27034 0
M  V30 6539 C 648.87 -1.36012 5.17112 0
M  V30 6540 C 650.17 0.82595 5.15728 0
M  V30 6541 H 651.864 0.745959 2.89958 0
M  V30 6542 H 649.41 0.360172 1.39423 0
M  V30 6543 H 651.363 -1.44971 3.95679 0
M  V30 6544 H 650.087 -1.75748 2.75282 0
M  V30 6545 H 648.746 0.17152 3.66199 0
M  V30 6546 H 648.394 -2.13882 4.55262 0
M  V30 6547 H 648.094 -0.908276 5.80538 0
M  V30 6548 H 649.618 -1.84056 5.82199 0
M  V30 6549 H 651.032 0.42845 5.71697 0
M  V30 6550 H 649.429 1.20282 5.87922 0
M  V30 6551 H 650.499 1.68003 4.54866 0
M  V30 6552 N 651.842 -1.52309 0.404946 0
M  V30 6553 C 653.07 -2.06185 -0.171818 0
M  V30 6554 C 653.485 -1.27536 -1.39212 0
M  V30 6555 O 652.842 -0.326112 -1.79563 0
M  V30 6556 C 652.893 -3.57647 -0.526417 0
M  V30 6557 O 652.614 -4.3332 0.645417 0
M  V30 6558 C 654.115 -4.27925 -1.15736 0
M  V30 6559 H 651.335 -0.670632 -0.0222328 0
M  V30 6560 H 653.879 -1.96259 0.574692 0
M  V30 6561 H 652.034 -3.67595 -1.22282 0
M  V30 6562 H 652.448 -5.23328 0.35042 0
M  V30 6563 H 653.922 -5.35093 -1.35572 0
M  V30 6564 H 654.399 -3.84134 -2.12926 0
M  V30 6565 H 655.005 -4.22335 -0.501281 0
M  V30 6566 N 653.32 -0.135238 -1.57019 0
M  V30 6567 C 654.283 0.794707 -2.14981 0
M  V30 6568 C 655.283 1.18342 -1.08866 0
M  V30 6569 O 656.473 1.10627 -1.34563 0
M  V30 6570 C 653.605 2.07685 -2.70333 0
M  V30 6571 H 654.798 0.290696 -2.98488 0
M  V30 6572 H 652.351 0.114128 -1.55883 0
M  V30 6573 H 653.086 2.6248 -1.9046 0
M  V30 6574 H 652.871 1.80745 -3.47957 0
M  V30 6575 H 654.361 2.74127 -3.1503 0
M  V30 6576 N 654.798 1.5699 0.138552 0
M  V30 6577 C 656.023 1.88344 0.86841 0
M  V30 6578 C 656.448 0.725159 1.7356 0
M  V30 6579 O 655.806 -0.324992 1.78363 0
M  V30 6580 C 655.854 3.18334 1.69398 0
M  V30 6581 O 654.958 3.02863 2.79907 0
M  V30 6582 H 654.299 0.618577 0.241367 0
M  V30 6583 H 656.829 2.04207 0.126826 0
M  V30 6584 H 656.839 3.50567 2.08726 0
M  V30 6585 H 655.514 4.02238 1.05725 0
M  V30 6586 H 654.091 2.82056 2.43924 0
M  V30 6587 N 656.276 -0.40816 1.52223 0
M  V30 6588 C 657.525 -1.15212 1.65557 0
M  V30 6589 C 657.838 -1.9163 0.392096 0
M  V30 6590 O 659.044 -2.68458 0.405256 0
M  V30 6591 C 657.5 -2.09691 2.92502 0
M  V30 6592 C 657.108 -1.38785 4.25961 0
M  V30 6593 C 658.852 -2.8434 3.152 0
M  V30 6594 C 656.759 -2.31919 5.44029 0
M  V30 6595 H 655.689 -0.433776 0.616729 0
M  V30 6596 H 658.34 -0.4165 1.78711 0
M  V30 6597 H 656.722 -2.8681 2.7305 0
M  V30 6598 H 657.896 -0.670248 4.55899 0
M  V30 6599 H 656.211 -0.761741 4.09373 0
M  V30 6600 H 658.808 -3.54166 4.00587 0
M  V30 6601 H 659.151 -3.47344 2.29473 0
M  V30 6602 H 659.684 -2.14321 3.35129 0
M  V30 6603 H 656.423 -1.7356 6.32105 0
M  V30 6604 H 655.943 -3.0165 5.18428 0
M  V30 6605 H 657.622 -2.92424 5.77146 0
M  V30 6606 N 657.755 -1.42862 -0.66545 0
M  V30 6607 C 659.032 -1.3431 -1.42197 0
M  V30 6608 C 659.412 0.0150265 -2.11095 0
M  V30 6609 O 658.76 1.03101 -2.03918 0
M  V30 6610 C 658.97 -2.51783 -2.41674 0
M  V30 6611 C 660.318 -2.94321 -3.0604 0
M  V30 6612 O 661.342 -2.51741 -2.52001 0
M  V30 6613 O 660.201 -3.68047 -4.03985 0
M  V30 6614 H 657.295 -0.530159 -0.634713 0
M  V30 6615 H 659.841 -1.54888 -0.693386 0
M  V30 6616 H 658.613 -3.42282 -1.89627 0
M  V30 6617 H 658.236 -2.33241 -3.22001 0
M  V30 6618 N 659.233 0.902656 -1.29189 0
M  V30 6619 C 660.479 1.65532 -1.17163 0
M  V30 6620 C 660.812 1.92216 0.276879 0
M  V30 6621 O 660.087 1.53048 1.20027 0
M  V30 6622 C 660.37 3.00629 -1.98228 0
M  V30 6623 C 660.223 2.81029 -3.51202 0
M  V30 6624 C 661.542 4.01321 -1.80635 0
M  V30 6625 H 658.661 0.60071 -0.426985 0
M  V30 6626 H 661.303 1.04578 -1.5863 0
M  V30 6627 H 659.453 3.52656 -1.62991 0
M  V30 6628 H 661.125 2.35927 -3.96404 0
M  V30 6629 H 659.368 2.1587 -3.76275 0
M  V30 6630 H 660.039 3.77014 -4.03192 0
M  V30 6631 H 662.515 3.58394 -2.11406 0
M  V30 6632 H 661.391 4.93792 -2.3971 0
M  V30 6633 H 661.652 4.35505 -0.760754 0
M  V30 6634 N 660.711 1.11618 1.11262 0
M  V30 6635 C 661.936 0.889013 1.8738 0
M  V30 6636 C 662.361 -0.555884 1.79698 0
M  V30 6637 O 661.719 -1.39272 1.16073 0
M  V30 6638 C 661.767 1.35759 3.34069 0
M  V30 6639 O 660.871 0.530499 4.08974 0
M  V30 6640 H 660.212 0.320082 0.581759 0
M  V30 6641 H 662.742 1.48611 1.40627 0
M  V30 6642 H 662.752 1.35291 3.84916 0
M  V30 6643 H 661.427 2.40973 3.38976 0
M  V30 6644 H 660.004 0.601439 3.68018 0
M  V30 6645 N 662.189 -1.289 0.906776 0
M  V30 6646 C 663.605 -1.47733 0.603902 0
M  V30 6647 C 663.805 -1.82568 -0.852702 0
M  V30 6648 O 662.861 -1.92642 -1.63234 0
M  V30 6649 C 664.174 -2.58522 1.53581 0
M  V30 6650 C 665.722 -2.72394 1.54177 0
M  V30 6651 C 666.197 -3.86318 2.46013 0
M  V30 6652 N 667.688 -3.93661 2.441 0
M  V30 6653 C 668.423 -4.81177 3.11859 0
M  V30 6654 N 667.919 -5.73333 3.88923 0
M  V30 6655 N 669.712 -4.74728 3.00981 0
M  V30 6656 H 661.863 -1.04567 1.84877 0
M  V30 6657 H 664.126 -0.520118 0.792579 0
M  V30 6658 H 663.832 -2.39667 2.57396 0
M  V30 6659 H 663.706 -3.55475 1.26165 0
M  V30 6660 H 666.093 -2.90641 0.511034 0
M  V30 6661 H 666.174 -1.75993 1.85634 0
M  V30 6662 H 665.818 -3.68826 3.49185 0
M  V30 6663 H 665.748 -4.82102 2.11862 0
M  V30 6664 H 668.239 -3.27751 1.88115 0
M  V30 6665 H 668.552 -6.36923 4.37663 0
M  V30 6666 H 666.897 -5.73196 3.93029 0
M  V30 6667 H 670.088 -4.01722 2.40286 0
M  V30 6668 H 670.261 -5.42719 3.54062 0
M  V30 6669 N 663.667 -0.670007 -1.42649 0
M  V30 6670 C 664.892 -0.196955 -2.06463 0
M  V30 6671 C 665.317 1.1352 -1.49983 0
M  V30 6672 O 664.675 1.705 -0.616397 0
M  V30 6673 C 664.723 -0.137381 -3.60338 0
M  V30 6674 O 663.827 0.895523 -4.02559 0
M  V30 6675 H 663.168 -0.102579 -0.656029 0
M  V30 6676 H 665.698 -0.917669 -1.82866 0
M  V30 6677 H 665.708 0.0403625 -4.0798 0
M  V30 6678 H 664.383 -1.10977 -4.0082 0
M  V30 6679 H 662.96 0.689209 -3.66476 0
M  V30 6680 N 665.145 1.52092 -0.413018 0
M  V30 6681 C 666.391 2.02815 0.154104 0
M  V30 6682 C 666.746 1.293 1.42475 0
M  V30 6683 O 666.039 0.391835 1.87551 0
M  V30 6684 C 666.233 3.54529 0.4521 0
M  V30 6685 C 666.062 4.4274 -0.788116 0
M  V30 6686 C 664.832 4.87903 -1.31447 0
M  V30 6687 C 667.03 4.86522 -1.66735 0
M  V30 6688 N 665.012 5.60254 -2.50976 0
M  V30 6689 C 666.383 5.57692 -2.70886 0
M  V30 6690 C 668.438 4.68534 -1.68465 0
M  V30 6691 C 667.141 6.12783 -3.76682 0
M  V30 6692 C 669.167 5.24524 -2.73182 0
M  V30 6693 C 668.529 5.9562 -3.76054 0
M  V30 6694 H 664.628 0.781796 0.0178567 0
M  V30 6695 H 667.212 1.86223 -0.568237 0
M  V30 6696 H 665.383 3.71186 1.14348 0
M  V30 6697 H 667.115 3.91934 1.00844 0
M  V30 6698 H 663.87 4.65504 -0.871931 0
M  V30 6699 H 664.294 6.01069 -3.11521 0
M  V30 6700 H 668.936 4.13051 -0.902708 0
M  V30 6701 H 666.654 6.67335 -4.55729 0
M  V30 6702 H 670.24 5.12473 -2.75433 0
M  V30 6703 H 669.12 6.38169 -4.55752 0
M  V30 6704 N 666.623 0.143563 1.56945 0
M  V30 6705 C 667.586 -0.783295 2.154 0
M  V30 6706 C 668.586 -1.17763 1.09492 0
M  V30 6707 O 669.776 -1.09912 1.35148 0
M  V30 6708 C 666.908 -2.06248 2.7143 0
M  V30 6709 H 668.101 -0.274863 2.98638 0
M  V30 6710 H 665.654 -0.105859 1.55941 0
M  V30 6711 H 666.389 -2.61466 1.91849 0
M  V30 6712 H 666.174 -1.78897 3.4891 0
M  V30 6713 H 667.664 -2.72453 3.16479 0
M  V30 6714 N 668.101 -1.57061 -0.130224 0
M  V30 6715 C 669.011 -2.02802 -1.17934 0
M  V30 6716 C 670.027 -0.946378 -1.46013 0
M  V30 6717 O 671.203 -1.25708 -1.57351 0
M  V30 6718 C 668.268 -2.41368 -2.48882 0
M  V30 6719 C 667.329 -3.63561 -2.28301 0
M  V30 6720 C 666.562 -4.00279 -3.53005 0
M  V30 6721 O 666.785 -3.37463 -4.59864 0
M  V30 6722 O 665.719 -4.93441 -3.44673 0
M  V30 6723 H 669.545 -2.92394 -0.820958 0
M  V30 6724 H 667.13 -1.45475 -0.340197 0
M  V30 6725 H 669.012 -2.66958 -3.26054 0
M  V30 6726 H 667.687 -1.54926 -2.84217 0
M  V30 6727 H 666.594 -3.43136 -1.49025 0
M  V30 6728 H 667.927 -4.50673 -1.97875 0
M  V30 6729 N 669.579 0.400081 -1.52437 0
M  V30 6730 C 670.526 1.48803 -1.76426 0
M  V30 6731 C 671.496 1.5461 -0.607032 0
M  V30 6732 O 672.681 1.71041 -0.845563 0
M  V30 6733 C 669.821 2.86156 -1.92896 0
M  V30 6734 C 668.934 2.89587 -3.20567 0
M  V30 6735 C 668.069 4.18296 -3.27417 0
M  V30 6736 C 667.108 4.15736 -4.49255 0
M  V30 6737 N 666.245 5.36032 -4.53447 0
M  V30 6738 H 671.085 1.27649 -2.69276 0
M  V30 6739 H 668.622 0.619451 -1.33421 0
M  V30 6740 H 670.58 3.65901 -2.00429 0
M  V30 6741 H 669.21 3.05785 -1.03418 0
M  V30 6742 H 668.262 2.02278 -3.22161 0
M  V30 6743 H 669.574 2.83562 -4.10358 0
M  V30 6744 H 668.728 5.06439 -3.34072 0
M  V30 6745 H 667.467 4.27028 -2.35581 0
M  V30 6746 H 666.472 3.25982 -4.42737 0
M  V30 6747 H 667.697 4.08636 -5.42396 0
M  V30 6748 H 665.643 5.45415 -3.64498 0
M  V30 6749 H 665.56 5.32038 -5.37096 0
M  V30 6750 H 666.828 6.26104 -4.64343 0
M  V30 6751 N 671.057 1.43213 0.657864 0
M  V30 6752 C 672.306 1.43871 1.41365 0
M  V30 6753 C 672.619 0.064898 1.95492 0
M  V30 6754 O 673.825 -0.0510796 2.71452 0
M  V30 6755 C 672.281 2.53158 2.55811 0
M  V30 6756 C 671.889 3.96624 2.08311 0
M  V30 6757 C 673.633 2.63004 3.3321 0
M  V30 6758 C 671.54 4.97385 3.1994 0
M  V30 6759 H 670.47 0.535174 0.531136 0
M  V30 6760 H 673.121 1.69185 0.710543 0
M  V30 6761 H 671.503 2.21037 3.2857 0
M  V30 6762 H 672.677 4.38182 1.42593 0
M  V30 6763 H 670.992 3.90781 1.43804 0
M  V30 6764 H 673.589 3.3546 4.16378 0
M  V30 6765 H 673.932 1.67918 3.80932 0
M  V30 6766 H 674.465 2.94403 2.67529 0
M  V30 6767 H 671.204 5.94007 2.77192 0
M  V30 6768 H 670.724 4.60444 3.84385 0
M  V30 6769 H 672.403 5.19877 3.85145 0
M  V30 6770 N 672.536 -0.895792 1.29666 0
M  V30 6771 C 673.947 -1.46195 1.1612 0
M  V30 6772 C 674.298 -1.94699 -0.242195 0
M  V30 6773 O 673.423 -1.8406 -1.13802 0
M  V30 6774 C 674.018 -2.65718 2.10189 0
M  V30 6775 C 672.577 -3.18458 2.00653 0
M  V30 6776 C 671.724 -1.91149 2.00891 0
M  V30 6777 H 674.675 -0.706756 1.42094 0
M  V30 6778 H 674.696 -3.4158 1.6764 0
M  V30 6779 H 674.208 -2.30386 3.12321 0
M  V30 6780 H 672.309 -3.58474 1.01623 0
M  V30 6781 H 672.422 -3.82491 2.88509 0
M  V30 6782 H 670.786 -2.09021 1.45542 0
M  V30 6783 H 671.569 -1.58089 3.04734 0
M  V30 6784 N 674.014 -1.12206 -1.10668 0
M  V30 6785 C 675.262 -0.874144 -1.82217 0
M  V30 6786 C 675.583 0.601736 -1.85484 0
M  V30 6787 O 674.853 1.43725 -1.33116 0
M  V30 6788 H 673.433 -0.320404 -0.674797 0
M  V30 6789 H 676.095 -1.41606 -1.33917 0
M  V30 6790 H 675.191 -1.25349 -2.85822 0
M  V30 6791 N 675.492 1.28418 -0.913599 0
M  V30 6792 C 676.739 1.94981 -0.546674 0
M  V30 6793 C 677.067 1.7192 0.909606 0
M  V30 6794 O 676.322 1.03314 1.66207 0
M  V30 6795 C 676.621 3.48283 -0.802099 0
M  V30 6796 C 676.287 3.91444 -2.2379 0
M  V30 6797 C 674.949 4.02939 -2.63046 0
M  V30 6798 C 677.301 4.13542 -3.17227 0
M  V30 6799 C 674.629 4.3391 -3.94891 0
M  V30 6800 C 676.981 4.45992 -4.48636 0
M  V30 6801 C 675.645 4.55698 -4.87746 0
M  V30 6802 H 674.915 0.713487 -0.200042 0
M  V30 6803 H 677.562 1.52756 -1.15489 0
M  V30 6804 H 675.867 3.91643 -0.111076 0
M  V30 6805 H 677.564 3.97903 -0.497375 0
M  V30 6806 H 674.154 3.83024 -1.9233 0
M  V30 6807 H 678.338 4.04114 -2.88107 0
M  V30 6808 H 673.594 4.39631 -4.24894 0
M  V30 6809 H 677.768 4.62038 -5.21051 0
M  V30 6810 H 675.395 4.79451 -5.89942 0
M  V30 6811 N 676.97 0.677563 1.42291 0
M  V30 6812 C 678.198 0.209459 2.05837 0
M  V30 6813 C 678.613 -1.13444 1.50917 0
M  V30 6814 O 677.97 -1.70529 0.65008 0
M  V30 6815 C 678.021 0.138819 3.61233 0
M  V30 6816 O 677.742 1.42962 4.14118 0
M  V30 6817 C 679.243 -0.352449 4.41897 0
M  V30 6818 H 676.463 0.101209 0.663323 0
M  V30 6819 H 679.007 0.925077 1.8238 0
M  V30 6820 H 677.162 -0.527505 3.83792 0
M  V30 6821 H 677.576 1.3048 5.08011 0
M  V30 6822 H 679.05 -0.350778 5.50884 0
M  V30 6823 H 679.527 -1.3882 4.16684 0
M  V30 6824 H 680.133 0.282236 4.24362 0
M  V30 6825 N 678.448 -1.51871 0.421078 0
M  V30 6826 C 679.725 -1.9447 -0.20993 0
M  V30 6827 C 680.105 -1.35875 -1.61558 0
M  V30 6828 O 679.453 -0.539294 -2.22045 0
M  V30 6829 C 679.663 -3.48402 -0.204165 0
M  V30 6830 C 681.011 -4.2254 -0.417696 0
M  V30 6831 O 682.035 -3.55074 -0.282999 0
M  V30 6832 O 680.894 -5.422 -0.684239 0
M  V30 6833 H 677.988 -0.815283 -0.138718 0
M  V30 6834 H 680.534 -1.62832 0.477884 0
M  V30 6835 H 679.306 -3.83464 0.779183 0
M  V30 6836 H 678.929 -3.86436 -0.935576 0
M  V30 6837 N 679.926 -0.151884 -1.56866 0
M  V30 6838 C 680.856 0.781943 -2.20018 0
M  V30 6839 C 681.837 1.25347 -1.14987 0
M  V30 6840 O 683.022 1.31015 -1.43348 0
M  V30 6841 C 680.152 2.01928 -2.82564 0
M  V30 6842 C 679.106 1.68434 -3.93464 0
M  V30 6843 C 678.432 2.99472 -4.42968 0
M  V30 6844 C 679.732 0.927244 -5.14003 0
M  V30 6845 H 681.426 0.255607 -2.98307 0
M  V30 6846 H 678.972 0.121502 -1.43486 0
M  V30 6847 H 680.925 2.67741 -3.25411 0
M  V30 6848 H 679.649 2.56943 -2.01614 0
M  V30 6849 H 678.308 1.04998 -3.51242 0
M  V30 6850 H 677.956 3.52488 -3.58834 0
M  V30 6851 H 677.656 2.77823 -5.17772 0
M  V30 6852 H 679.18 3.66348 -4.88489 0
M  V30 6853 H 680.594 1.48756 -5.53665 0
M  V30 6854 H 678.991 0.810513 -5.94601 0
M  V30 6855 H 680.061 -0.0801163 -4.84834 0
M  V30 6856 N 681.404 1.57128 0.121893 0
M  V30 6857 C 682.815 1.73902 0.679348 0
M  V30 6858 C 683.166 0.770135 1.80453 0
M  V30 6859 O 682.291 -0.0576083 2.16323 0
M  V30 6860 C 682.886 3.15328 1.2391 0
M  V30 6861 C 681.445 3.33618 1.74288 0
M  V30 6862 C 680.592 2.6978 0.641414 0
M  V30 6863 H 683.543 1.58359 -0.104 0
M  V30 6864 H 683.564 3.16718 2.10879 0
M  V30 6865 H 683.076 3.85821 0.419957 0
M  V30 6866 H 681.177 2.68162 2.58689 0
M  V30 6867 H 681.29 4.4176 1.85432 0
M  V30 6868 H 679.654 2.30935 1.0743 0
M  V30 6869 H 680.437 3.42895 -0.166707 0
M  V30 6870 N 682.882 -0.391992 1.52647 0
M  V30 6871 C 683.829 -1.47866 1.77213 0
M  V30 6872 C 684.799 -1.54286 0.615223 0
M  V30 6873 O 685.984 -1.7059 0.854622 0
M  V30 6874 C 683.124 -2.85129 1.94411 0
M  V30 6875 C 682.237 -2.87883 3.22098 0
M  V30 6876 C 681.372 -4.16553 3.29631 0
M  V30 6877 C 680.411 -4.13348 4.51453 0
M  V30 6878 N 679.548 -5.33619 4.56284 0
M  V30 6879 H 684.388 -1.26219 2.6995 0
M  V30 6880 H 681.925 -0.612367 1.33748 0
M  V30 6881 H 683.883 -3.64833 2.02367 0
M  V30 6882 H 682.513 -3.05232 1.05038 0
M  V30 6883 H 681.565 -2.00567 3.23229 0
M  V30 6884 H 682.877 -2.81382 4.11856 0
M  V30 6885 H 682.031 -5.0466 3.36753 0
M  V30 6886 H 680.77 -4.25773 2.37842 0
M  V30 6887 H 679.775 -3.23629 4.44459 0
M  V30 6888 H 681 -4.05754 5.44555 0
M  V30 6889 H 678.946 -5.43474 3.67385 0
M  V30 6890 H 678.863 -5.29182 5.3991 0
M  V30 6891 H 680.131 -6.23632 4.67657 0
M  V30 6892 N 684.36 -1.4356 -0.65026 0
M  V30 6893 C 685.27 -1.514 -1.79207 0
M  V30 6894 C 686.286 -0.400895 -1.69319 0
M  V30 6895 O 687.462 -0.655458 -1.90436 0
M  V30 6896 C 684.527 -1.43737 -3.155 0
M  V30 6897 C 683.588 -2.65743 -3.37163 0
M  V30 6898 C 682.821 -2.58436 -4.66954 0
M  V30 6899 O 683.044 -1.63374 -5.46503 0
M  V30 6900 O 681.978 -3.48984 -4.90402 0
M  V30 6901 H 685.804 -2.47825 -1.75547 0
M  V30 6902 H 683.389 -1.25594 -0.809111 0
M  V30 6903 H 685.271 -1.41916 -3.96784 0
M  V30 6904 H 683.946 -0.504488 -3.19745 0
M  V30 6905 H 682.853 -2.73136 -2.55632 0
M  V30 6906 H 684.186 -3.58014 -3.37768 0
M  V30 6907 N 685.838 0.888903 -1.30139 0
M  V30 6908 C 687.115 1.62145 -1.094 0
M  V30 6909 C 687.495 2.08041 0.358091 0
M  V30 6910 O 686.843 1.84438 1.34888 0
M  V30 6911 C 687.053 2.794 -2.09133 0
M  V30 6912 C 688.401 3.49826 -2.40638 0
M  V30 6913 O 689.425 2.89583 -2.07412 0
M  V30 6914 O 688.284 4.58457 -2.97455 0
M  V30 6915 H 685.378 0.712475 -0.41989 0
M  V30 6916 H 687.924 0.936023 -1.41551 0
M  V30 6917 H 686.696 2.42762 -3.06891 0
M  V30 6918 H 686.319 3.55643 -1.77776 0
M  V30 6919 N 687.317 1.12792 1.10072 0
M  V30 6920 C 688.249 0.757003 2.16338 0
M  V30 6921 C 689.262 -0.218144 1.61332 0
M  V30 6922 O 690.451 0.0010727 1.785 0
M  V30 6923 C 687.551 0.100303 3.38752 0
M  V30 6924 C 686.724 1.10586 4.2319 0
M  V30 6925 C 685.783 0.47609 5.24042 0
M  V30 6926 O 684.809 1.13418 5.57786 0
M  V30 6927 N 686.011 -0.754823 5.75572 0
M  V30 6928 H 688.776 1.6714 2.48766 0
M  V30 6929 H 686.337 1.02003 1.25726 0
M  V30 6930 H 688.329 -0.333092 4.03327 0
M  V30 6931 H 686.899 -0.716915 3.04268 0
M  V30 6932 H 686.119 1.71677 3.54853 0
M  V30 6933 H 687.407 1.78571 4.76435 0
M  V30 6934 H 686.805 -1.30838 5.50362 0
M  V30 6935 H 685.362 -1.13098 6.41913 0
M  V30 6936 N 688.795 -1.27931 0.920396 0
M  V30 6937 C 690.023 -1.98805 0.573087 0
M  V30 6938 C 690.438 -1.68724 -0.847201 0
M  V30 6939 O 689.795 -0.943699 -1.56207 0
M  V30 6940 C 689.846 -3.52971 0.780633 0
M  V30 6941 O 689.567 -3.81994 2.14504 0
M  V30 6942 C 691.068 -4.411 0.44105 0
M  V30 6943 H 688.288 -0.634651 0.21785 0
M  V30 6944 H 690.832 -1.62965 1.23542 0
M  V30 6945 H 688.987 -3.87048 0.165204 0
M  V30 6946 H 689.401 -4.76609 2.18962 0
M  V30 6947 H 690.875 -5.48312 0.637006 0
M  V30 6948 H 691.352 -4.34758 -0.62306 0
M  V30 6949 H 691.958 -4.12532 1.0343 0
M  V30 6950 N 690.273 -0.685099 -1.4193 0
M  V30 6951 C 691.203 -0.0273506 -2.33484 0
M  V30 6952 C 692.184 0.778366 -1.51246 0
M  V30 6953 O 693.369 0.733449 -1.79817 0
M  V30 6954 C 690.499 0.917272 -3.34968 0
M  V30 6955 C 689.453 0.21941 -4.27437 0
M  V30 6956 C 688.779 1.27768 -5.1921 0
M  V30 6957 C 690.079 -0.907894 -5.14349 0
M  V30 6958 H 691.773 -0.791994 -2.88735 0
M  V30 6959 H 689.319 -0.382308 -1.38832 0
M  V30 6960 H 691.272 1.38657 -3.97935 0
M  V30 6961 H 689.996 1.71346 -2.78043 0
M  V30 6962 H 688.655 -0.229757 -3.65879 0
M  V30 6963 H 688.303 2.06612 -4.58607 0
M  V30 6964 H 688.003 0.815803 -5.81909 0
M  V30 6965 H 689.527 1.7477 -5.85054 0
M  V30 6966 H 690.941 -0.519348 -5.70943 0
M  V30 6967 H 689.338 -1.2962 -5.85934 0
M  V30 6968 H 690.408 -1.75218 -4.52136 0
M  V30 6969 N 691.751 1.51645 -0.429126 0
M  V30 6970 C 692.681 2.30434 0.377148 0
M  V30 6971 C 693.662 1.35493 1.02838 0
M  V30 6972 O 694.847 1.6441 1.03359 0
M  V30 6973 C 691.977 3.14038 1.48315 0
M  V30 6974 C 690.931 4.1719 0.955855 0
M  V30 6975 C 690.257 4.89263 2.15698 0
M  V30 6976 C 691.557 5.223 -0.00402136 0
M  V30 6977 H 693.251 2.98085 -0.280336 0
M  V30 6978 H 690.797 1.43354 -0.136265 0
M  V30 6979 H 692.75 3.67933 2.05435 0
M  V30 6980 H 691.474 2.44193 2.16881 0
M  V30 6981 H 690.133 3.64335 0.406929 0
M  V30 6982 H 689.781 4.15929 2.82864 0
M  V30 6983 H 689.481 5.59009 1.81059 0
M  V30 6984 H 691.005 5.45978 2.73387 0
M  V30 6985 H 692.419 5.71315 0.476607 0
M  V30 6986 H 690.816 5.99525 -0.26258 0
M  V30 6987 H 691.886 4.75638 -0.943236 0
M  V30 6988 N 693.229 0.160201 1.56784 0
M  V30 6989 C 694.478 -0.487619 1.95717 0
M  V30 6990 C 694.791 -1.65136 1.0483 0
M  V30 6991 O 695.997 -2.36468 1.33398 0
M  V30 6992 C 694.453 -0.91888 3.47972 0
M  V30 6993 C 694.061 0.218655 4.47466 0
M  V30 6994 C 695.805 -1.53575 3.95746 0
M  V30 6995 C 693.712 -0.231614 5.90946 0
M  V30 6996 H 692.642 -0.185939 0.730714 0
M  V30 6997 H 695.293 0.246657 1.81835 0
M  V30 6998 H 693.675 -1.70881 3.57234 0
M  V30 6999 H 694.849 0.995825 4.49911 0
M  V30 7000 H 693.164 0.744767 4.09685 0
M  V30 7001 H 695.761 -1.88448 5.00391 0
M  V30 7002 H 696.104 -2.42959 3.38048 0
M  V30 7003 H 696.637 -0.810467 3.89456 0
M  V30 7004 H 693.376 0.62718 6.52493 0
M  V30 7005 H 692.896 -0.974379 5.91833 0
M  V30 7006 H 694.575 -0.67922 6.43425 0
M  V30 7007 N 694.707 -1.5719 -0.113559 0
M  V30 7008 C 695.617 -2.04041 -1.15777 0
M  V30 7009 C 696.633 -0.961812 -1.45001 0
M  V30 7010 O 697.809 -1.2737 -1.56009 0
M  V30 7011 C 694.874 -2.43994 -2.46308 0
M  V30 7012 C 693.935 -3.65962 -2.24433 0
M  V30 7013 C 693.168 -4.04 -3.4874 0
M  V30 7014 O 693.391 -3.42321 -4.56259 0
M  V30 7015 O 692.325 -4.97069 -3.3942 0
M  V30 7016 H 696.151 -2.93248 -0.789899 0
M  V30 7017 H 693.736 -1.45828 -0.324748 0
M  V30 7018 H 695.618 -2.70401 -3.23204 0
M  V30 7019 H 694.293 -1.57932 -2.82558 0
M  V30 7020 H 693.2 -3.44697 -1.45377 0
M  V30 7021 H 694.533 -4.52746 -1.93084 0
M  V30 7022 N 696.185 0.383891 -1.52853 0
M  V30 7023 C 697.41 1.154 -1.7233 0
M  V30 7024 C 697.835 1.82809 -0.44298 0
M  V30 7025 O 697.193 1.71026 0.601645 0
M  V30 7026 C 697.241 2.17386 -2.87708 0
M  V30 7027 O 696.345 3.24082 -2.55038 0
M  V30 7028 H 695.686 0.335709 -0.572883 0
M  V30 7029 H 698.216 0.44662 -1.99666 0
M  V30 7030 H 698.226 2.61296 -3.1335 0
M  V30 7031 H 696.901 1.6771 -3.80587 0
M  V30 7032 H 695.478 2.85273 -2.40153 0
M  V30 7033 N 697.663 1.43903 0.642637 0
M  V30 7034 C 698.626 1.49538 1.73698 0
M  V30 7035 C 699.626 0.378776 1.56275 0
M  V30 7036 O 700.816 0.64095 1.6198 0
M  V30 7037 C 697.948 1.35821 3.12675 0
M  V30 7038 H 699.141 2.47008 1.70079 0
M  V30 7039 H 696.694 1.30824 0.85526 0
M  V30 7040 H 697.429 0.393994 3.21898 0
M  V30 7041 H 697.214 2.16776 3.26727 0
M  V30 7042 H 698.704 1.4272 3.92455 0
M  V30 7043 N 699.141 -0.881989 1.30609 0
M  V30 7044 C 700.388 -1.63405 1.19604 0
M  V30 7045 C 700.716 -1.92905 -0.248574 0
M  V30 7046 O 699.971 -1.55062 -1.19391 0
M  V30 7047 C 700.27 -2.97999 1.97311 0
M  V30 7048 C 699.936 -2.88039 3.46907 0
M  V30 7049 C 698.598 -2.85029 3.877 0
M  V30 7050 C 700.95 -2.75948 4.42156 0
M  V30 7051 C 698.278 -2.67772 5.2203 0
M  V30 7052 C 700.63 -2.60228 5.76597 0
M  V30 7053 C 699.294 -2.55595 6.16626 0
M  V30 7054 H 698.564 -0.597941 0.437662 0
M  V30 7055 H 701.211 -1.02524 1.61744 0
M  V30 7056 H 699.516 -3.62847 1.47815 0
M  V30 7057 H 701.213 -3.55156 1.86186 0
M  V30 7058 H 697.803 -2.91192 3.14492 0
M  V30 7059 H 701.987 -2.77337 4.1158 0
M  V30 7060 H 697.243 -2.62601 5.52133 0
M  V30 7061 H 701.417 -2.49847 6.50038 0
M  V30 7062 H 699.044 -2.41981 7.20659 0
M  V30 7063 N 700.619 -1.13374 -1.09472 0
M  V30 7064 C 701.549 -0.833268 -2.18126 0
M  V30 7065 C 702.53 0.207169 -1.68834 0
M  V30 7066 O 703.715 0.0662012 -1.94087 0
M  V30 7067 C 700.845 -0.297979 -3.46019 0
M  V30 7068 C 699.799 -1.27261 -4.08642 0
M  V30 7069 C 699.125 -0.597104 -5.31356 0
M  V30 7070 C 700.425 -2.63095 -4.51197 0
M  V30 7071 H 702.119 -1.74182 -2.43518 0
M  V30 7072 H 699.665 -0.838921 -1.17039 0
M  V30 7073 H 701.618 -0.0754444 -4.21332 0
M  V30 7074 H 700.342 0.645959 -3.20148 0
M  V30 7075 H 699.001 -1.48113 -3.35348 0
M  V30 7076 H 698.649 0.352293 -5.01765 0
M  V30 7077 H 698.349 -1.24734 -5.74208 0
M  V30 7078 H 699.873 -0.38384 -6.09392 0
M  V30 7079 H 701.287 -2.46214 -5.17737 0
M  V30 7080 H 699.684 -3.2429 -5.04932 0
M  V30 7081 H 700.754 -3.20793 -3.6362 0
M  V30 7082 N 702.098 1.27442 -0.927168 0
M  V30 7083 C 703.008 2.30599 -0.431448 0
M  V30 7084 C 704.024 1.67028 0.48761 0
M  V30 7085 O 705.2 1.97962 0.370546 0
M  V30 7086 C 702.265 3.45327 0.308292 0
M  V30 7087 C 701.326 4.24418 -0.645615 0
M  V30 7088 C 700.559 5.33667 0.0589164 0
M  V30 7089 O 700.782 5.5589 1.27838 0
M  V30 7090 O 699.716 5.98774 -0.612638 0
M  V30 7091 H 703.542 2.75036 -1.28797 0
M  V30 7092 H 701.127 1.32382 -0.692495 0
M  V30 7093 H 703.009 4.15107 0.725555 0
M  V30 7094 H 701.684 3.02945 1.14043 0
M  V30 7095 H 700.591 3.57174 -1.11255 0
M  V30 7096 H 701.924 4.70512 -1.44496 0
M  V30 7097 N 703.576 0.692616 1.41565 0
M  V30 7098 C 704.506 0.0397325 2.33466 0
M  V30 7099 C 705.487 -0.770334 1.51657 0
M  V30 7100 O 706.672 -0.723903 1.80203 0
M  V30 7101 C 703.802 -0.899495 3.3545 0
M  V30 7102 C 702.756 -0.196738 4.27548 0
M  V30 7103 C 702.082 -1.25012 5.19881 0
M  V30 7104 C 703.382 0.935158 5.1386 0
M  V30 7105 H 705.076 0.807296 2.88311 0
M  V30 7106 H 702.622 0.389665 1.38628 0
M  V30 7107 H 704.575 -1.36545 3.98665 0
M  V30 7108 H 703.299 -1.69869 2.78948 0
M  V30 7109 H 701.958 0.249158 3.65752 0
M  V30 7110 H 701.606 -2.04177 4.59696 0
M  V30 7111 H 701.306 -0.784931 5.82334 0
M  V30 7112 H 702.83 -1.71665 5.85972 0
M  V30 7113 H 704.244 0.549619 5.70659 0
M  V30 7114 H 702.641 1.32726 5.85238 0
M  V30 7115 H 703.711 1.77613 4.512 0
M  V30 7116 N 705.054 -1.51416 0.437162 0
M  V30 7117 C 706.301 -2.02086 -0.129364 0
M  V30 7118 C 706.629 -1.32133 -1.42728 0
M  V30 7119 O 705.884 -0.424916 -1.91031 0
M  V30 7120 C 706.183 -3.55203 -0.39564 0
M  V30 7121 C 705.849 -4.43447 0.81644 0
M  V30 7122 C 704.511 -4.67285 1.14884 0
M  V30 7123 C 706.863 -4.95219 1.62503 0
M  V30 7124 C 704.191 -5.40141 2.29052 0
M  V30 7125 C 706.543 -5.69327 2.7577 0
M  V30 7126 C 705.207 -5.91429 3.09464 0
M  V30 7127 H 704.477 -0.739486 -0.0473375 0
M  V30 7128 H 707.124 -1.82368 0.584321 0
M  V30 7129 H 705.429 -3.73252 -1.19121 0
M  V30 7130 H 707.126 -3.91944 -0.847399 0
M  V30 7131 H 703.716 -4.2509 0.547422 0
M  V30 7132 H 707.9 -4.76686 1.38144 0
M  V30 7133 H 703.156 -5.55468 2.55471 0
M  V30 7134 H 707.33 -6.08433 3.38795 0
M  V30 7135 H 704.957 -6.47662 3.98042 0
M  V30 7136 N 706.532 -0.168513 -1.56696 0
M  V30 7137 C 707.778 0.477865 -1.9709 0
M  V30 7138 C 708.111 1.63084 -1.05438 0
M  V30 7139 O 707.386 1.94238 -0.10095 0
M  V30 7140 C 707.669 0.963521 -3.4697 0
M  V30 7141 C 707.522 -0.189443 -4.49401 0
M  V30 7142 C 708.841 1.83813 -3.99876 0
M  V30 7143 H 705.96 0.172229 -0.716593 0
M  V30 7144 H 708.602 -0.254083 -1.88293 0
M  V30 7145 H 706.752 1.58724 -3.54597 0
M  V30 7146 H 708.424 -0.826451 -4.53836 0
M  V30 7147 H 706.667 -0.845366 -4.25483 0
M  V30 7148 H 707.338 0.192446 -5.51664 0
M  V30 7149 H 709.814 1.31235 -3.94863 0
M  V30 7150 H 708.69 2.14697 -5.0517 0
M  V30 7151 H 708.951 2.78289 -3.43523 0
M  V30 7152 N 708.01 1.57248 0.105221 0
M  V30 7153 C 708.94 2.04374 1.12931 0
M  V30 7154 C 709.921 0.93074 1.42377 0
M  V30 7155 O 711.106 1.20136 1.52581 0
M  V30 7156 C 708.236 2.45967 2.45189 0
M  V30 7157 C 707.19 3.60838 2.30174 0
M  V30 7158 C 706.516 3.88374 3.67518 0
M  V30 7159 C 707.816 4.92084 1.75073 0
M  V30 7160 H 709.51 2.9018 0.737287 0
M  V30 7161 H 707.056 1.39601 0.353211 0
M  V30 7162 H 709.009 2.77542 3.17094 0
M  V30 7163 H 707.733 1.57148 2.86308 0
M  V30 7164 H 706.392 3.29493 1.60716 0
M  V30 7165 H 706.04 2.96739 4.06147 0
M  V30 7166 H 705.74 4.65703 3.58321 0
M  V30 7167 H 707.264 4.22415 4.40906 0
M  V30 7168 H 708.678 5.22106 2.36809 0
M  V30 7169 H 707.075 5.73507 1.76662 0
M  V30 7170 H 708.145 4.79684 0.709347 0
M  V30 7171 N 709.488 -0.375779 1.53054 0
M  V30 7172 C 710.904 -0.716764 1.426 0
M  V30 7173 C 711.104 -1.93651 0.556931 0
M  V30 7174 O 710.16 -2.52475 0.0354461 0
M  V30 7175 C 711.473 -0.939499 2.85646 0
M  V30 7176 C 713.021 -1.04015 2.95212 0
M  V30 7177 C 713.496 -1.29543 4.39298 0
M  V30 7178 N 714.987 -1.36335 4.42682 0
M  V30 7179 C 715.722 -1.57778 5.51266 0
M  V30 7180 N 715.218 -1.76604 6.69913 0
M  V30 7181 N 717.011 -1.60065 5.38828 0
M  V30 7182 H 709.162 0.42664 2.08071 0
M  V30 7183 H 711.425 0.128758 0.939215 0
M  V30 7184 H 711.131 -0.115189 3.51511 0
M  V30 7185 H 711.005 -1.85048 3.2869 0
M  V30 7186 H 713.392 -1.85501 2.29507 0
M  V30 7187 H 713.473 -0.106785 2.55577 0
M  V30 7188 H 713.117 -0.485611 5.05573 0
M  V30 7189 H 713.047 -2.24184 4.76497 0
M  V30 7190 H 715.538 -1.23441 3.5717 0
M  V30 7191 H 715.851 -1.9251 7.48438 0
M  V30 7192 H 714.196 -1.73802 6.72917 0
M  V30 7193 H 717.387 -1.44917 4.45103 0
M  V30 7194 H 717.56 -1.76435 6.23518 0
M  V30 7195 N 710.966 -1.44241 -0.634997 0
M  V30 7196 C 711.896 -1.53632 -1.7584 0
M  V30 7197 C 712.877 -0.389603 -1.65578 0
M  V30 7198 O 714.062 -0.609219 -1.84397 0
M  V30 7199 C 711.192 -1.47644 -3.14354 0
M  V30 7200 C 710.146 -2.60752 -3.394 0
M  V30 7201 C 709.472 -2.39817 -4.77904 0
M  V30 7202 C 710.772 -4.02921 -3.32343 0
M  V30 7203 H 712.466 -2.47662 -1.68238 0
M  V30 7204 H 710.012 -1.19197 -0.807969 0
M  V30 7205 H 711.965 -1.52815 -3.92716 0
M  V30 7206 H 710.689 -0.501284 -3.2273 0
M  V30 7207 H 709.348 -2.54965 -2.63417 0
M  V30 7208 H 708.996 -1.40502 -4.82978 0
M  V30 7209 H 708.696 -3.15649 -4.9562 0
M  V30 7210 H 710.22 -2.46799 -5.585 0
M  V30 7211 H 711.634 -4.10098 -4.00615 0
M  V30 7212 H 710.031 -4.78925 -3.61595 0
M  V30 7213 H 711.101 -4.26766 -2.30215 0
M  V30 7214 N 712.444 0.87505 -1.31075 0
M  V30 7215 C 713.669 1.66583 -1.23551 0
M  V30 7216 C 714.094 1.87067 0.19686 0
M  V30 7217 O 713.452 1.40877 1.1412 0
M  V30 7218 C 713.5 3.01401 -1.97965 0
M  V30 7219 O 712.604 3.90923 -1.31351 0
M  V30 7220 H 711.945 0.508645 -0.426821 0
M  V30 7221 H 714.475 1.09139 -1.7306 0
M  V30 7222 H 714.485 3.51374 -2.07366 0
M  V30 7223 H 713.16 2.85812 -3.02133 0
M  V30 7224 H 711.737 3.49369 -1.30368 0
M  V30 7225 N 713.922 1.13953 1.08869 0
M  V30 7226 C 715.171 0.899431 1.80536 0
M  V30 7227 C 715.484 -0.575781 1.86933 0
M  V30 7228 O 716.69 -0.932988 2.54966 0
M  V30 7229 C 715.146 1.55963 3.24351 0
M  V30 7230 C 714.754 3.07077 3.26202 0
M  V30 7231 C 716.498 1.40046 4.00733 0
M  V30 7232 C 714.405 3.65955 4.64576 0
M  V30 7233 H 713.335 0.332849 0.676556 0
M  V30 7234 H 715.986 1.3679 1.22314 0
M  V30 7235 H 714.368 1.01883 3.82669 0
M  V30 7236 H 715.542 3.67785 2.77617 0
M  V30 7237 H 713.857 3.22576 2.63312 0
M  V30 7238 H 716.454 1.81441 5.02974 0
M  V30 7239 H 716.797 0.345993 4.1486 0
M  V30 7240 H 717.33 1.91137 3.48872 0
M  V30 7241 H 714.069 4.71234 4.55652 0
M  V30 7242 H 713.589 3.10027 5.13462 0
M  V30 7243 H 715.268 3.65968 5.33551 0
M  V30 7244 N 715.4 -1.26948 0.933913 0
M  V30 7245 C 716.816 -1.46419 0.635103 0
M  V30 7246 C 717.016 -1.84336 -0.813785 0
M  V30 7247 O 716.072 -1.96061 -1.59111 0
M  V30 7248 C 717.385 -2.55206 1.5903 0
M  V30 7249 C 718.933 -2.69062 1.5992 0
M  V30 7250 C 719.408 -3.81013 2.54152 0
M  V30 7251 N 720.899 -3.88395 2.52395 0
M  V30 7252 C 721.634 -4.74454 3.21996 0
M  V30 7253 N 721.13 -5.64954 4.00997 0
M  V30 7254 N 722.923 -4.68237 3.10983 0
M  V30 7255 H 715.074 -1.00622 1.87053 0
M  V30 7256 H 717.337 -0.503189 0.803433 0
M  V30 7257 H 717.043 -2.34153 2.62422 0
M  V30 7258 H 716.917 -3.52719 1.33677 0
M  V30 7259 H 719.304 -2.89492 0.572569 0
M  V30 7260 H 719.385 -1.72016 1.89325 0
M  V30 7261 H 719.029 -3.61336 3.5693 0
M  V30 7262 H 718.959 -4.77499 2.22041 0
M  V30 7263 H 721.45 -3.23687 1.95025 0
M  V30 7264 H 721.763 -6.27496 4.51074 0
M  V30 7265 H 720.108 -5.6473 4.05099 0
M  V30 7266 H 723.299 -3.96535 2.48753 0
M  V30 7267 H 723.472 -5.35087 3.65494 0
M  V30 7268 N 716.879 -0.700114 -1.41195 0
M  V30 7269 C 718.104 -0.240704 -2.05998 0
M  V30 7270 C 718.529 1.10313 -1.52357 0
M  V30 7271 O 717.887 1.69154 -0.652424 0
M  V30 7272 C 717.935 -0.213783 -3.59966 0
M  V30 7273 O 717.039 0.809933 -4.04368 0
M  V30 7274 H 716.38 -0.116471 -0.653705 0
M  V30 7275 H 718.91 -0.956251 -1.80878 0
M  V30 7276 H 718.92 -0.0461852 -4.07974 0
M  V30 7277 H 717.595 -1.19454 -3.98376 0
M  V30 7278 H 716.172 0.611319 -3.67855 0
M  V30 7279 N 718.357 1.51182 -0.445186 0
M  V30 7280 C 719.305 2.29531 0.376597 0
M  V30 7281 C 720.299 1.35711 1.01385 0
M  V30 7282 O 721.505 1.53018 0.947922 0
M  V30 7283 H 717.88 0.738803 0.140267 0
M  V30 7284 H 719.851 2.96838 -0.304958 0
M  V30 7285 C 718.6 3.1552 1.4609 0
M  V30 7286 H 717.923 3.87605 0.979912 0
M  V30 7287 H 719.363 3.73384 2.009 0
M  V30 7288 C 717.822 2.31406 2.44852 0
M  V30 7289 O 718.352 1.97912 3.49562 0
M  V30 7290 N 716.558 1.94478 2.15932 0
M  V30 7291 H 716.105 2.21917 1.30808 0
M  V30 7292 H 716.063 1.38498 2.82251 0
M  V30 7293 N 719.835 0.176821 1.56605 0
M  V30 7294 C 721.063 -0.472828 2.01425 0
M  V30 7295 C 721.478 -1.56436 1.05703 0
M  V30 7296 O 720.835 -1.82405 0.058808 0
M  V30 7297 C 720.886 -1.04607 3.46034 0
M  V30 7298 O 720.607 0.00189608 4.381 0
M  V30 7299 C 722.108 -1.7734 4.06282 0
M  V30 7300 H 719.328 -0.120503 0.660091 0
M  V30 7301 H 721.872 0.280166 2.02572 0
M  V30 7302 H 720.027 -1.74953 3.45645 0
M  V30 7303 H 720.441 -0.422118 5.22799 0
M  V30 7304 H 721.915 -2.12703 5.09374 0
M  V30 7305 H 722.392 -2.67043 3.4869 0
M  V30 7306 H 722.998 -1.11623 4.10391 0
M  V30 7307 N 721.313 -1.57302 -0.09688 0
M  V30 7308 C 722.276 -2.00976 -1.10188 0
M  V30 7309 C 723.276 -0.903009 -1.3305 0
M  V30 7310 O 724.466 -1.16853 -1.29194 0
M  V30 7311 C 721.598 -2.36893 -2.45142 0
M  V30 7312 H 722.791 -2.9098 -0.726003 0
M  V30 7313 H 720.344 -1.52515 -0.341872 0
M  V30 7314 H 721.079 -1.49837 -2.8761 0
M  V30 7315 H 720.864 -3.17632 -2.29897 0
M  V30 7316 H 722.354 -2.71345 -3.1743 0
M  V30 7317 N 722.791 0.367657 -1.53252 0
M  V30 7318 C 723.701 1.47415 -1.82499 0
M  V30 7319 C 724.717 1.58711 -0.713222 0
M  V30 7320 O 725.893 1.74644 -1.00306 0
M  V30 7321 C 722.958 2.82706 -2.00694 0
M  V30 7322 C 722.019 2.80955 -3.24596 0
M  V30 7323 C 721.252 4.09793 -3.41914 0
M  V30 7324 O 721.475 5.05852 -2.63572 0
M  V30 7325 O 720.409 4.15731 -4.3526 0
M  V30 7326 H 724.235 1.25624 -2.765 0
M  V30 7327 H 721.82 0.557559 -1.38606 0
M  V30 7328 H 723.702 3.62873 -2.14246 0
M  V30 7329 H 722.377 3.04479 -1.09883 0
M  V30 7330 H 721.284 1.99494 -3.16469 0
M  V30 7331 H 722.617 2.64136 -4.15323 0
M  V30 7332 N 724.269 1.44576 0.627338 0
M  V30 7333 C 725.546 1.38033 1.38586 0
M  V30 7334 C 725.926 0.0409468 2.1106 0
M  V30 7335 O 725.274 -0.976582 2.0658 0
M  V30 7336 C 725.484 2.58102 2.34913 0
M  V30 7337 C 726.832 3.02332 2.98129 0
M  V30 7338 O 727.856 2.58334 2.45238 0
M  V30 7339 O 726.715 3.78628 3.94085 0
M  V30 7340 H 723.809 0.546801 0.620434 0
M  V30 7341 H 726.355 1.56672 0.652077 0
M  V30 7342 H 725.127 3.4719 1.80485 0
M  V30 7343 H 724.75 2.41696 3.15703 0
M  V30 7344 N 725.747 -0.868086 1.31537 0
M  V30 7345 C 726.694 -1.97548 1.19346 0
M  V30 7346 C 727.664 -1.65913 0.0787922 0
M  V30 7347 O 728.849 -1.89129 0.251985 0
M  V30 7348 C 725.989 -3.32922 0.908692 0
M  V30 7349 C 725.102 -3.77141 2.10687 0
M  V30 7350 C 724.237 -5.01241 1.75873 0
M  V30 7351 C 723.276 -5.37914 2.92088 0
M  V30 7352 N 722.413 -6.53192 2.57457 0
M  V30 7353 H 727.253 -2.07307 2.14074 0
M  V30 7354 H 724.79 -1.01483 1.06487 0
M  V30 7355 H 726.748 -4.10867 0.724138 0
M  V30 7356 H 725.378 -3.228 -0.0017611 0
M  V30 7357 H 724.43 -2.94961 2.40213 0
M  V30 7358 H 725.742 -4.00248 2.97663 0
M  V30 7359 H 724.896 -5.86858 1.53891 0
M  V30 7360 H 723.635 -4.80041 0.86091 0
M  V30 7361 H 722.64 -4.50814 3.14717 0
M  V30 7362 H 723.865 -5.61077 3.82582 0
M  V30 7363 H 721.811 -6.33536 1.702 0
M  V30 7364 H 721.728 -6.76252 3.37963 0
M  V30 7365 H 722.996 -7.41997 2.38873 0
M  V30 7366 N 727.225 -1.14528 -1.08264 0
M  V30 7367 C 728.472 -0.914405 -1.80679 0
M  V30 7368 C 728.8 0.558952 -1.86295 0
M  V30 7369 O 728.055 1.43017 -1.33584 0
M  V30 7370 C 728.354 -1.46226 -3.26117 0
M  V30 7371 C 728.02 -2.95451 -3.40616 0
M  V30 7372 C 726.682 -3.36191 -3.4428 0
M  V30 7373 C 729.034 -3.91399 -3.44175 0
M  V30 7374 C 726.362 -4.71539 -3.49096 0
M  V30 7375 C 728.714 -5.26606 -3.50526 0
M  V30 7376 C 727.378 -5.66856 -3.52464 0
M  V30 7377 H 726.648 -0.334604 -0.661151 0
M  V30 7378 H 729.295 -1.4292 -1.27461 0
M  V30 7379 H 727.6 -0.868442 -3.82054 0
M  V30 7380 H 729.297 -1.25955 -3.80705 0
M  V30 7381 H 725.887 -2.62955 -3.38456 0
M  V30 7382 H 730.071 -3.61004 -3.40573 0
M  V30 7383 H 725.327 -5.02082 -3.4889 0
M  V30 7384 H 729.501 -6.00758 -3.52225 0
M  V30 7385 H 727.128 -6.71718 -3.55948 0
M  V30 7386 N 728.703 1.26451 -0.940633 0
M  V30 7387 C 729.949 1.94065 -0.58878 0
M  V30 7388 C 730.282 1.7363 0.869853 0
M  V30 7389 O 729.557 1.073 1.62225 0
M  V30 7390 C 729.84 3.47852 -0.931199 0
M  V30 7391 C 729.693 3.77575 -2.44453 0
M  V30 7392 C 731.012 4.37832 -0.446229 0
M  V30 7393 H 728.131 0.704827 -0.21538 0
M  V30 7394 H 730.773 1.4933 -1.17475 0
M  V30 7395 H 728.923 3.86085 -0.432539 0
M  V30 7396 H 730.595 3.49059 -3.01588 0
M  V30 7397 H 728.838 3.23671 -2.88825 0
M  V30 7398 H 729.509 4.85068 -2.63464 0
M  V30 7399 H 731.985 4.06822 -0.873778 0
M  V30 7400 H 730.861 5.44228 -0.714648 0
M  V30 7401 H 731.122 4.37239 0.653815 0
M  V30 7402 N 730.181 0.707592 1.40822 0
M  V30 7403 C 731.428 0.243671 2.01029 0
M  V30 7404 C 731.756 -1.16057 1.5608 0
M  V30 7405 O 731.011 -1.7999 0.768251 0
M  V30 7406 C 731.31 0.262892 3.56432 0
M  V30 7407 C 730.976 1.61632 4.20935 0
M  V30 7408 C 729.638 1.98682 4.38268 0
M  V30 7409 C 731.99 2.50619 4.5699 0
M  V30 7410 C 729.318 3.2428 4.88937 0
M  V30 7411 C 731.67 3.75562 5.09054 0
M  V30 7412 C 730.334 4.12739 5.24598 0
M  V30 7413 H 729.604 0.0891654 0.735616 0
M  V30 7414 H 732.251 0.909051 1.68548 0
M  V30 7415 H 730.556 -0.486052 3.88773 0
M  V30 7416 H 732.253 -0.113775 4.00839 0
M  V30 7417 H 728.843 1.31818 4.07826 0
M  V30 7418 H 733.027 2.23272 4.43242 0
M  V30 7419 H 728.283 3.53064 4.99155 0
M  V30 7420 H 732.457 4.44692 5.35931 0
M  V30 7421 H 730.084 5.10132 5.63622 0
M  V30 7422 N 731.66 -1.50943 0.453197 0
M  V30 7423 C 732.9 -2.0412 -0.106894 0
M  V30 7424 C 733.264 -1.32895 -1.38575 0
M  V30 7425 O 734.465 -1.76529 -2.02709 0
M  V30 7426 C 732.736 -3.561 -0.304565 0
M  V30 7427 S 734.295 -4.3096 -0.825784 0
M  V30 7428 H 731.113 -0.710581 -0.0243969 0
M  V30 7429 H 733.715 -1.85534 0.616239 0
M  V30 7430 H 732.419 -4.055 0.632277 0
M  V30 7431 H 731.95 -3.79009 -1.05433 0
M  V30 7432 H 733.965 -4.49503 -2.10147 0
M  V30 7433 N 733.138 -0.185124 -1.56509 0
M  V30 7434 C 734.086 0.756505 -2.19954 0
M  V30 7435 C 735.08 1.22725 -1.16769 0
M  V30 7436 O 736.286 1.1913 -1.34937 0
M  V30 7437 H 732.661 0.262279 -0.704779 0
M  V30 7438 H 734.632 0.197587 -2.97745 0
M  V30 7439 C 733.381 1.96975 -2.86524 0
M  V30 7440 H 732.704 1.61658 -3.65659 0
M  V30 7441 H 734.144 2.60719 -3.34367 0
M  V30 7442 C 732.603 2.80219 -1.87027 0
M  V30 7443 O 733.133 3.77821 -1.36433 0
M  V30 7444 N 731.339 2.4551 -1.55477 0
M  V30 7445 H 730.886 1.66199 -1.96813 0
M  V30 7446 H 730.844 3.01493 -0.891597 0
M  V30 7447 N 734.616 1.57351 0.0885366 0
M  V30 7448 C 735.864 1.86051 0.789262 0
M  V30 7449 C 736.185 0.774763 1.78948 0
M  V30 7450 O 735.455 -0.198324 1.94894 0
M  V30 7451 H 734.035 0.686508 0.294475 0
M  V30 7452 H 736.697 1.94779 0.0686055 0
M  V30 7453 H 735.793 2.83007 1.31581 0
M  V30 7454 N 736.094 -0.359525 1.53444 0
M  V30 7455 C 737.024 -1.44662 1.8329 0
M  V30 7456 C 738.005 -1.55617 0.68683 0
M  V30 7457 O 739.19 -1.70086 0.93725 0
M  V30 7458 C 736.32 -2.81923 2.02822 0
M  V30 7459 C 735.274 -2.85787 3.18606 0
M  V30 7460 C 734.6 -4.25781 3.23442 0
M  V30 7461 C 735.9 -2.52762 4.57065 0
M  V30 7462 H 737.594 -1.19934 2.74329 0
M  V30 7463 H 735.14 -0.575517 1.31999 0
M  V30 7464 H 737.093 -3.58005 2.22285 0
M  V30 7465 H 735.817 -3.08051 1.085 0
M  V30 7466 H 734.476 -2.12157 2.98973 0
M  V30 7467 H 734.124 -4.48994 2.26745 0
M  V30 7468 H 733.824 -4.29281 4.01238 0
M  V30 7469 H 735.348 -5.03727 3.45096 0
M  V30 7470 H 736.762 -3.18557 4.76649 0
M  V30 7471 H 735.159 -2.67569 5.37147 0
M  V30 7472 H 736.229 -1.47993 4.61764 0
M  V30 7473 N 737.572 -1.44907 -0.619662 0
M  V30 7474 C 738.818 -1.48512 -1.38102 0
M  V30 7475 C 739.151 -0.121686 -1.93818 0
M  V30 7476 O 738.426 0.862256 -1.74343 0
M  V30 7477 C 738.709 -2.55469 -2.53787 0
M  V30 7478 C 738.562 -4.01212 -2.03345 0
M  V30 7479 C 739.881 -2.58821 -3.55949 0
M  V30 7480 H 737 -0.540712 -0.500799 0
M  V30 7481 H 739.642 -1.7665 -0.69962 0
M  V30 7482 H 737.792 -2.31606 -3.11915 0
M  V30 7483 H 739.464 -4.36245 -1.49959 0
M  V30 7484 H 737.707 -4.12443 -1.34438 0
M  V30 7485 H 738.378 -4.71717 -2.86683 0
M  V30 7486 H 740.854 -2.80172 -3.07641 0
M  V30 7487 H 739.73 -3.35542 -4.34399 0
M  V30 7488 H 739.991 -1.63451 -4.10775 0
M  V30 7489 N 739.05 0.861098 -1.31996 0
M  V30 7490 C 739.98 1.98482 -1.22993 0
M  V30 7491 C 740.961 1.6971 -0.115168 0
M  V30 7492 O 742.146 1.91849 -0.30126 0
M  V30 7493 C 739.276 3.34179 -0.945615 0
M  V30 7494 C 738.23 3.77284 -2.02091 0
M  V30 7495 C 737.556 5.1054 -1.58912 0
M  V30 7496 C 738.856 3.93439 -3.43515 0
M  V30 7497 H 740.55 2.06271 -2.17008 0
M  V30 7498 H 738.096 0.991043 -1.04472 0
M  V30 7499 H 740.049 4.12338 -0.869206 0
M  V30 7500 H 738.773 3.26586 0.0301849 0
M  V30 7501 H 737.432 3.01371 -2.08737 0
M  V30 7502 H 737.08 4.99397 -0.600942 0
M  V30 7503 H 736.78 5.40352 -2.30854 0
M  V30 7504 H 738.304 5.91199 -1.52696 0
M  V30 7505 H 739.718 4.6197 -3.39495 0
M  V30 7506 H 738.115 4.34661 -4.13751 0
M  V30 7507 H 739.185 2.96548 -3.8365 0
M  V30 7508 N 740.528 1.15101 1.07655 0
M  V30 7509 C 741.478 0.813448 2.12995 0
M  V30 7510 C 742.462 -0.200899 1.59641 0
M  V30 7511 O 743.654 -0.00209918 1.77 0
M  V30 7512 C 740.783 0.301078 3.41977 0
M  V30 7513 C 739.869 1.3454 4.02194 0
M  V30 7514 N 740.26 2.55181 4.36711 0
M  V30 7515 C 738.558 1.19742 4.29625 0
M  V30 7516 C 739.259 3.22094 4.84387 0
M  V30 7517 N 738.235 2.49486 4.82968 0
M  V30 7518 H 742.037 1.73105 2.37511 0
M  V30 7519 H 739.551 1.03601 1.25063 0
M  V30 7520 H 741.548 0.040914 4.1688 0
M  V30 7521 H 740.208 -0.610629 3.18907 0
M  V30 7522 H 741.219 2.92349 4.27496 0
M  V30 7523 H 737.896 0.345353 4.16069 0
M  V30 7524 H 739.286 4.24996 5.20411 0
M  V30 7525 N 742.006 -1.2595 0.947325 0
M  V30 7526 C 743.422 -1.45737 0.650597 0
M  V30 7527 C 743.622 -1.85189 -0.794188 0
M  V30 7528 O 742.678 -1.97738 -1.57022 0
M  V30 7529 C 743.991 -2.53505 1.61728 0
M  V30 7530 C 745.539 -2.67351 1.62765 0
M  V30 7531 C 746.014 -3.78296 2.58179 0
M  V30 7532 N 747.505 -3.85696 2.56501 0
M  V30 7533 C 748.24 -4.71012 3.2701 0
M  V30 7534 N 747.736 -5.60669 4.06966 0
M  V30 7535 N 749.529 -4.64912 3.15932 0
M  V30 7536 H 741.68 -0.986327 1.8811 0
M  V30 7537 H 743.943 -0.494639 0.808725 0
M  V30 7538 H 743.649 -2.31357 2.6489 0
M  V30 7539 H 743.523 -3.51281 1.3741 0
M  V30 7540 H 745.91 -2.88869 0.603241 0
M  V30 7541 H 745.991 -1.69998 1.91139 0
M  V30 7542 H 745.635 -3.5753 3.60742 0
M  V30 7543 H 745.565 -4.75117 2.27093 0
M  V30 7544 H 748.056 -3.21601 1.98447 0
M  V30 7545 H 748.369 -6.22677 4.57704 0
M  V30 7546 H 746.714 -5.60402 4.11066 0
M  V30 7547 H 749.905 -3.93874 2.52945 0
M  V30 7548 H 750.078 -5.3118 3.71149 0
M  V30 7549 N 743.484 -0.715051 -1.40445 0
M  V30 7550 C 744.414 -0.0768699 -2.33373 0
M  V30 7551 C 745.395 0.746109 -1.52863 0
M  V30 7552 O 746.58 0.695142 -1.81332 0
M  V30 7553 C 743.71 0.846014 -3.36838 0
M  V30 7554 C 742.664 0.128694 -4.27806 0
M  V30 7555 C 741.99 1.16726 -5.21804 0
M  V30 7556 C 743.29 -1.01679 -5.12307 0
M  V30 7557 H 744.984 -0.853061 -2.8699 0
M  V30 7558 H 742.53 -0.41167 -1.3799 0
M  V30 7559 H 744.483 1.30185 -4.00786 0
M  V30 7560 H 743.207 1.6541 -2.81615 0
M  V30 7561 H 741.866 -0.307314 -3.6531 0
M  V30 7562 H 741.514 1.96838 -4.62887 0
M  V30 7563 H 741.214 0.692188 -5.83509 0
M  V30 7564 H 742.738 1.62321 -5.88629 0
M  V30 7565 H 744.152 -0.640337 -5.69713 0
M  V30 7566 H 742.549 -1.4202 -5.83053 0
M  V30 7567 H 743.619 -1.84769 -4.48317 0
M  V30 7568 N 744.962 1.50701 -0.461195 0
M  V30 7569 C 745.894 2.26124 0.374244 0
M  V30 7570 C 746.907 1.31064 0.965715 0
M  V30 7571 O 748.096 1.56647 0.855801 0
M  V30 7572 C 745.196 3.01996 1.5379 0
M  V30 7573 C 744.369 4.24336 1.06101 0
M  V30 7574 C 743.428 4.82585 2.09756 0
M  V30 7575 O 742.454 5.43775 1.68219 0
M  V30 7576 N 743.656 4.68712 3.42475 0
M  V30 7577 H 746.421 2.9846 -0.2723 0
M  V30 7578 H 743.982 1.59256 -0.291415 0
M  V30 7579 H 745.974 3.37846 2.22806 0
M  V30 7580 H 744.544 2.32521 2.08933 0
M  V30 7581 H 743.764 3.93707 0.197085 0
M  V30 7582 H 745.052 5.03678 0.720156 0
M  V30 7583 H 744.45 4.20026 3.78938 0
M  V30 7584 H 743.007 5.08858 4.07317 0
M  V30 7585 N 746.441 0.193421 1.56409 0
M  V30 7586 C 747.681 -0.447977 1.9943 0
M  V30 7587 C 748.045 -1.58915 1.07751 0
M  V30 7588 O 749.246 -2.29462 1.40002 0
M  V30 7589 C 747.517 -0.89793 3.45936 0
M  V30 7590 S 749.076 -1.5374 4.10986 0
M  V30 7591 H 745.894 -0.143316 0.696406 0
M  V30 7592 H 748.496 0.296093 1.93245 0
M  V30 7593 H 747.2 -0.0572927 4.1036 0
M  V30 7594 H 746.731 -1.67551 3.55936 0
M  V30 7595 H 748.746 -2.82612 4.07854 0
M  V30 7596 N 747.919 -1.57396 -0.0801906 0
M  V30 7597 C 748.849 -2.06145 -1.09665 0
M  V30 7598 C 749.83 -0.953273 -1.40878 0
M  V30 7599 O 751.015 -1.22548 -1.50651 0
M  V30 7600 C 748.145 -2.49836 -2.41245 0
M  V30 7601 C 747.099 -3.64454 -2.24405 0
M  V30 7602 C 746.425 -3.94172 -3.61293 0
M  V30 7603 C 747.725 -4.94807 -1.67223 0
M  V30 7604 H 749.419 -2.91316 -0.691028 0
M  V30 7605 H 746.965 -1.40145 -0.330957 0
M  V30 7606 H 748.918 -2.82552 -3.12638 0
M  V30 7607 H 747.642 -1.61683 -2.83771 0
M  V30 7608 H 746.301 -3.32008 -1.55454 0
M  V30 7609 H 745.949 -3.03163 -4.01374 0
M  V30 7610 H 745.649 -4.71345 -3.50867 0
M  V30 7611 H 747.173 -4.29376 -4.3413 0
M  V30 7612 H 748.587 -5.25807 -2.28472 0
M  V30 7613 H 746.984 -5.76245 -1.67515 0
M  V30 7614 H 748.054 -4.80751 -0.632944 0
M  V30 7615 N 749.397 0.351382 -1.53633 0
M  V30 7616 C 750.813 0.693987 -1.43722 0
M  V30 7617 C 751.013 1.9274 -0.587669 0
M  V30 7618 O 750.069 2.52387 -0.0756082 0
M  V30 7619 C 751.382 0.893937 -2.87105 0
M  V30 7620 C 752.93 0.993051 -2.96829 0
M  V30 7621 C 753.405 1.22537 -4.41303 0
M  V30 7622 N 754.896 1.29275 -4.44795 0
M  V30 7623 C 755.631 1.48988 -5.53706 0
M  V30 7624 N 755.127 1.65924 -6.72637 0
M  V30 7625 N 756.92 1.51472 -5.41306 0
M  V30 7626 H 749.071 -0.459688 -2.07366 0
M  V30 7627 H 751.334 -0.143684 -0.937048 0
M  V30 7628 H 751.04 0.0592517 -3.5165 0
M  V30 7629 H 750.914 1.79795 -3.31592 0
M  V30 7630 H 753.301 1.81827 -2.32429 0
M  V30 7631 H 753.382 0.0661119 -2.55715 0
M  V30 7632 H 753.026 0.405117 -5.06282 0
M  V30 7633 H 752.956 2.16575 -4.80003 0
M  V30 7634 H 755.447 1.17743 -3.59089 0
M  V30 7635 H 755.76 1.80578 -7.51406 0
M  V30 7636 H 754.105 1.63075 -6.75597 0
M  V30 7637 H 757.296 1.37818 -4.47352 0
M  V30 7638 H 757.469 1.66493 -6.26246 0
M  V30 7639 N 750.875 1.45233 0.611969 0
M  V30 7640 C 752.123 1.48727 1.36838 0
M  V30 7641 C 752.444 0.128616 1.94575 0
M  V30 7642 O 751.714 -0.84149 1.76906 0
M  V30 7643 H 750.294 0.547695 0.507976 0
M  V30 7644 H 752.956 1.81156 0.718925 0
M  V30 7645 H 752.052 2.2236 2.19003 0
M  V30 7646 N 752.353 -0.854086 1.3245 0
M  V30 7647 C 753.6 -1.60831 1.23043 0
M  V30 7648 C 753.928 -1.93389 -0.2076 0
M  V30 7649 O 753.183 -1.5756 -1.16075 0
M  V30 7650 C 753.482 -2.93746 2.03587 0
M  V30 7651 C 753.148 -2.80615 3.52939 0
M  V30 7652 C 751.81 -2.76742 3.93659 0
M  V30 7653 C 754.162 -2.66507 4.4791 0
M  V30 7654 C 751.49 -2.56638 5.27592 0
M  V30 7655 C 753.842 -2.47939 5.81987 0
M  V30 7656 C 752.506 -2.42458 6.21909 0
M  V30 7657 H 751.776 -0.588523 0.450247 0
M  V30 7658 H 754.423 -0.990699 1.63882 0
M  V30 7659 H 752.728 -3.5963 1.55478 0
M  V30 7660 H 754.425 -3.51127 1.93677 0
M  V30 7661 H 751.015 -2.84456 3.20598 0
M  V30 7662 H 755.199 -2.68544 4.1737 0
M  V30 7663 H 750.455 -2.50831 5.57579 0
M  V30 7664 H 754.629 -2.36002 6.55192 0
M  V30 7665 H 752.256 -2.2664 7.2563 0
M  V30 7666 N 753.831 -1.1567 -1.07043 0
M  V30 7667 C 755.079 -0.931673 -1.79344 0
M  V30 7668 C 755.4 0.542421 -1.87304 0
M  V30 7669 O 754.67 1.39418 -1.37621 0
M  V30 7670 H 753.25 -0.34171 -0.664262 0
M  V30 7671 H 755.912 -1.45795 -1.29344 0
M  V30 7672 H 755.008 -1.34379 -2.81689 0
M  V30 7673 N 755.309 1.25446 -0.953992 0
M  V30 7674 C 756.219 2.29632 -0.480264 0
M  V30 7675 C 757.235 1.68025 0.452071 0
M  V30 7676 O 758.411 1.98703 0.328472 0
M  V30 7677 C 755.476 3.45903 0.234974 0
M  V30 7678 C 754.537 4.22953 -0.735495 0
M  V30 7679 C 753.77 5.33672 -0.0542957 0
M  V30 7680 O 753.993 5.58477 1.16018 0
M  V30 7681 O 752.927 5.9734 -0.739509 0
M  V30 7682 H 756.753 2.72242 -1.34602 0
M  V30 7683 H 754.338 1.30883 -0.720419 0
M  V30 7684 H 756.22 4.16552 0.637341 0
M  V30 7685 H 754.895 3.05296 1.07592 0
M  V30 7686 H 753.802 3.54734 -1.18806 0
M  V30 7687 H 755.135 4.67341 -1.54444 0
M  V30 7688 N 756.787 0.722489 1.40064 0
M  V30 7689 C 758.033 0.27422 2.01543 0
M  V30 7690 C 758.388 -1.12224 1.5628 0
M  V30 7691 O 757.681 -1.75179 0.776063 0
M  V30 7692 C 757.875 0.300682 3.56133 0
M  V30 7693 C 757.704 1.69818 4.16404 0
M  V30 7694 C 756.474 2.30747 4.49537 0
M  V30 7695 C 758.672 2.64962 4.40794 0
M  V30 7696 N 756.654 3.62781 4.9524 0
M  V30 7697 C 758.025 3.81712 4.88565 0
M  V30 7698 C 760.08 2.62885 4.22842 0
M  V30 7699 C 758.783 4.96703 5.20268 0
M  V30 7700 C 760.809 3.77009 4.55652 0
M  V30 7701 C 760.171 4.92492 5.03618 0
M  V30 7702 H 756.27 0.146328 0.768188 0
M  V30 7703 H 758.854 0.94577 1.70186 0
M  V30 7704 H 757.025 -0.340461 3.86905 0
M  V30 7705 H 758.757 -0.164951 4.04364 0
M  V30 7706 H 755.512 1.82783 4.36907 0
M  V30 7707 H 755.936 4.30533 5.22465 0
M  V30 7708 H 760.578 1.74803 3.84972 0
M  V30 7709 H 758.296 5.85425 5.57049 0
M  V30 7710 H 761.882 3.76685 4.43396 0
M  V30 7711 H 760.762 5.79336 5.28525 0
M  V30 7712 N 758.265 -1.50454 0.469181 0
M  V30 7713 C 759.195 -2.31353 -0.31592 0
M  V30 7714 C 760.176 -1.38172 -0.992094 0
M  V30 7715 O 761.361 -1.67093 -0.989633 0
M  V30 7716 C 758.491 -3.1786 -1.39937 0
M  V30 7717 C 757.445 -4.19578 -0.844909 0
M  V30 7718 C 756.771 -4.9481 -2.0265 0
M  V30 7719 C 758.071 -5.22106 0.142499 0
M  V30 7720 H 759.765 -2.97237 0.359269 0
M  V30 7721 H 757.311 -1.42942 0.174224 0
M  V30 7722 H 759.264 -3.7325 -1.95607 0
M  V30 7723 H 757.988 -2.49858 -2.1033 0
M  V30 7724 H 756.647 -3.65285 -0.310189 0
M  V30 7725 H 756.295 -4.23282 -2.71737 0
M  V30 7726 H 755.995 -5.63613 -1.66174 0
M  V30 7727 H 757.519 -5.53035 -2.58815 0
M  V30 7728 H 758.933 -5.72378 -0.324966 0
M  V30 7729 H 757.33 -5.98618 0.421441 0
M  V30 7730 H 758.4 -4.7297 1.06901 0
M  V30 7731 N 759.743 -0.201713 -1.56304 0
M  V30 7732 C 761.02 0.483273 -1.89536 0
M  V30 7733 C 761.4 1.79176 -1.11621 0
M  V30 7734 O 760.748 2.27445 -0.219339 0
M  V30 7735 C 760.958 0.695604 -3.41998 0
M  V30 7736 C 762.306 1.012 -4.12364 0
M  V30 7737 O 763.33 0.783094 -3.47485 0
M  V30 7738 O 762.189 1.44534 -5.27041 0
M  V30 7739 H 759.283 0.252801 -0.787414 0
M  V30 7740 H 761.829 -0.24242 -1.6796 0
M  V30 7741 H 760.601 -0.228165 -3.90634 0
M  V30 7742 H 760.224 1.47351 -3.69288 0
M  V30 7743 N 761.222 1.57436 0.0718424 0
M  V30 7744 C 762.447 1.91858 0.787745 0
M  V30 7745 C 762.872 0.798119 1.70328 0
M  V30 7746 O 762.23 -0.24905 1.79581 0
M  V30 7747 C 762.278 3.25232 1.55744 0
M  V30 7748 O 761.382 3.14462 2.6681 0
M  V30 7749 H 760.723 0.628258 0.214914 0
M  V30 7750 H 763.253 2.04561 0.0401012 0
M  V30 7751 H 763.263 3.59105 1.9367 0
M  V30 7752 H 761.938 4.0636 0.885691 0
M  V30 7753 H 760.515 2.92148 2.31741 0
M  V30 7754 N 762.7 -0.34323 1.53817 0
M  V30 7755 C 763.949 -1.08086 1.70295 0
M  V30 7756 C 764.262 -1.89794 0.47302 0
M  V30 7757 O 765.468 -2.66498 0.518754 0
M  V30 7758 C 763.924 -1.97097 3.01133 0
M  V30 7759 C 763.532 -1.20594 4.31464 0
M  V30 7760 C 765.276 -2.70715 3.26976 0
M  V30 7761 C 763.183 -2.08636 5.53376 0
M  V30 7762 H 762.113 -0.407228 0.634572 0
M  V30 7763 H 764.764 -0.340328 1.80316 0
M  V30 7764 H 763.146 -2.74971 2.84969 0
M  V30 7765 H 764.32 -0.476282 4.58332 0
M  V30 7766 H 762.635 -0.587426 4.12236 0
M  V30 7767 H 765.232 -3.36857 4.15248 0
M  V30 7768 H 765.575 -3.37299 2.43998 0
M  V30 7769 H 766.108 -1.99914 3.43917 0
M  V30 7770 H 762.847 -1.46594 6.38898 0
M  V30 7771 H 762.367 -2.7939 5.30755 0
M  V30 7772 H 764.046 -2.67682 5.89029 0
M  V30 7773 N 764.178 -1.45556 -0.604258 0
M  V30 7774 C 765.125 -1.54482 -1.71476 0
M  V30 7775 C 766.095 -0.390479 -1.61445 0
M  V30 7776 O 767.28 -0.604371 -1.80975 0
M  V30 7777 C 764.42 -1.52064 -3.09791 0
M  V30 7778 C 763.533 -2.78073 -3.30604 0
M  V30 7779 C 762.668 -2.67304 -4.59044 0
M  V30 7780 C 761.707 -3.88352 -4.73127 0
M  V30 7781 N 760.844 -3.76098 -5.9287 0
M  V30 7782 H 765.684 -2.49349 -1.63184 0
M  V30 7783 H 763.221 -1.23725 -0.795641 0
M  V30 7784 H 765.179 -1.48649 -3.89819 0
M  V30 7785 H 763.809 -0.607442 -3.17033 0
M  V30 7786 H 762.861 -2.91561 -2.44329 0
M  V30 7787 H 764.173 -3.67847 -3.36883 0
M  V30 7788 H 763.327 -2.61875 -5.47272 0
M  V30 7789 H 762.066 -1.75135 -4.55169 0
M  V30 7790 H 761.071 -3.94137 -3.83322 0
M  V30 7791 H 762.296 -4.81591 -4.78797 0
M  V30 7792 H 760.242 -2.867 -5.90033 0
M  V30 7793 H 760.159 -4.59509 -6.00323 0
M  V30 7794 H 761.427 -3.74607 -6.83586 0
M  V30 7795 N 765.656 0.84705 -1.32902 0
M  V30 7796 C 766.933 1.58583 -1.14503 0
M  V30 7797 C 767.313 2.09075 0.291724 0
M  V30 7798 O 766.661 1.88636 1.28952 0
M  V30 7799 C 766.871 2.72605 -2.17916 0
M  V30 7800 C 768.219 3.41993 -2.51646 0
M  V30 7801 O 769.243 2.82838 -2.1652 0
M  V30 7802 O 768.102 4.48761 -3.1189 0
M  V30 7803 H 765.196 0.698756 -0.442345 0
M  V30 7804 H 767.742 0.890516 -1.44457 0
M  V30 7805 H 766.514 2.32876 -3.14459 0
M  V30 7806 H 766.137 3.49807 -1.89 0
M  V30 7807 N 767.134 1.16236 1.06428 0
M  V30 7808 C 768.381 0.943034 1.79201 0
M  V30 7809 C 768.709 -0.529243 1.87161 0
M  V30 7810 O 767.964 -1.40874 1.35842 0
M  V30 7811 C 768.263 1.51396 3.2375 0
M  V30 7812 C 767.929 3.00833 3.35873 0
M  V30 7813 C 766.591 3.41626 3.38888 0
M  V30 7814 C 768.943 3.96825 3.37904 0
M  V30 7815 C 766.271 4.77033 3.4155 0
M  V30 7816 C 768.623 5.32116 3.42104 0
M  V30 7817 C 767.287 5.72392 3.43401 0
M  V30 7818 H 766.557 0.34508 0.655744 0
M  V30 7819 H 769.204 1.44929 1.25171 0
M  V30 7820 H 767.509 0.929114 3.80624 0
M  V30 7821 H 769.206 1.31996 3.78653 0
M  V30 7822 H 765.796 2.68306 3.3423 0
M  V30 7823 H 769.98 3.66376 3.34787 0
M  V30 7824 H 765.236 5.07569 3.40858 0
M  V30 7825 H 769.41 6.06286 3.42623 0
M  V30 7826 H 767.037 6.77296 3.45216 0
M  V30 7827 N 768.612 -1.24939 0.960631 0
M  V30 7828 C 769.837 -1.9742 0.635608 0
M  V30 7829 C 770.262 -1.70857 -0.786737 0
M  V30 7830 O 769.62 -0.968063 -1.53291 0
M  V30 7831 C 769.668 -3.48987 0.907771 0
M  V30 7832 O 768.772 -4.12399 -0.0104053 0
M  V30 7833 H 768.113 -0.61871 0.241027 0
M  V30 7834 H 770.643 -1.58901 1.28886 0
M  V30 7835 H 770.653 -3.99334 0.836453 0
M  V30 7836 H 769.328 -3.6765 1.94439 0
M  V30 7837 H 767.905 -3.72727 0.113631 0
M  V30 7838 N 770.09 -0.729906 -1.39679 0
M  V30 7839 C 771.02 -0.101618 -2.33279 0
M  V30 7840 C 772.001 0.729854 -1.53646 0
M  V30 7841 O 773.186 0.67587 -1.82059 0
M  V30 7842 C 770.316 0.81024 -3.37716 0
M  V30 7843 C 769.27 0.0833126 -4.27919 0
M  V30 7844 C 768.596 1.11185 -5.23012 0
M  V30 7845 C 769.896 -1.07107 -5.112 0
M  V30 7846 H 771.59 -0.883452 -2.86069 0
M  V30 7847 H 769.136 -0.426283 -1.37546 0
M  V30 7848 H 771.089 1.25927 -4.02145 0
M  V30 7849 H 769.813 1.62413 -2.83354 0
M  V30 7850 H 768.472 -0.346043 -3.64963 0
M  V30 7851 H 768.12 1.91917 -4.64948 0
M  V30 7852 H 767.82 0.63026 -5.8421 0
M  V30 7853 H 769.344 1.56068 -5.90318 0
M  V30 7854 H 770.758 -0.700726 -5.69002 0
M  V30 7855 H 769.155 -1.48196 -5.81514 0
M  V30 7856 H 770.225 -1.89513 -4.46332 0
M  V30 7857 N 771.568 1.50203 -0.477153 0
M  V30 7858 C 772.516 2.30278 0.327826 0
M  V30 7859 C 773.51 1.37831 0.984839 0
M  V30 7860 O 774.716 1.54994 0.915251 0
M  V30 7861 H 771.091 0.741612 0.124564 0
M  V30 7862 H 773.062 2.96124 -0.367853 0
M  V30 7863 C 771.811 3.18548 1.39365 0
M  V30 7864 H 771.134 3.89596 0.897475 0
M  V30 7865 H 772.574 3.77561 1.92934 0
M  V30 7866 C 771.033 2.36548 2.39889 0
M  V30 7867 O 771.563 2.05282 3.45286 0
M  V30 7868 N 769.769 1.99015 2.11758 0
M  V30 7869 H 769.316 2.24641 1.26071 0
M  V30 7870 H 769.274 1.44454 2.7925 0
M  V30 7871 N 773.046 0.209999 1.56195 0
M  V30 7872 C 773.976 -0.699746 2.22769 0
M  V30 7873 C 774.957 -1.20993 1.1956 0
M  V30 7874 O 776.142 -1.25605 1.48112 0
M  V30 7875 C 773.272 -1.91302 2.89863 0
M  V30 7876 C 772.226 -1.53715 3.99444 0
M  V30 7877 C 771.552 -2.82826 4.53777 0
M  V30 7878 C 772.852 -0.735836 5.17091 0
M  V30 7879 H 774.546 -0.144716 2.9905 0
M  V30 7880 H 772.092 -0.0681645 1.43839 0
M  V30 7881 H 774.045 -2.5548 3.35124 0
M  V30 7882 H 772.769 -2.49283 2.11011 0
M  V30 7883 H 771.428 -0.918892 3.54897 0
M  V30 7884 H 771.076 -3.38927 3.71669 0
M  V30 7885 H 770.776 -2.58415 5.27727 0
M  V30 7886 H 772.3 -3.47966 5.01749 0
M  V30 7887 H 773.714 -1.28105 5.58804 0
M  V30 7888 H 772.111 -0.589272 5.972 0
M  V30 7889 H 773.181 0.260004 4.84202 0
M  V30 7890 N 774.524 -1.57472 -0.0634922 0
M  V30 7891 C 775.456 -2.00999 -1.10145 0
M  V30 7892 C 776.469 -0.917219 -1.34503 0
M  V30 7893 O 777.658 -1.19501 -1.32596 0
M  V30 7894 C 774.758 -2.34089 -2.45063 0
M  V30 7895 C 773.931 -3.65317 -2.40546 0
M  V30 7896 C 772.99 -3.85982 -3.57637 0
M  V30 7897 O 772.016 -4.5747 -3.38689 0
M  V30 7898 N 773.218 -3.28971 -4.78287 0
M  V30 7899 H 775.983 -2.90656 -0.730714 0
M  V30 7900 H 773.544 -1.59926 -0.252017 0
M  V30 7901 H 775.536 -2.4508 -3.22053 0
M  V30 7902 H 774.106 -1.50279 -2.74107 0
M  V30 7903 H 773.326 -3.65003 -1.48885 0
M  V30 7904 H 774.614 -4.51468 -2.34636 0
M  V30 7905 H 774.012 -2.70962 -4.96584 0
M  V30 7906 H 772.569 -3.45398 -5.5276 0
M  V30 7907 N 776.003 0.335068 -1.53997 0
M  V30 7908 C 777.228 1.09859 -1.75914 0
M  V30 7909 C 777.653 1.81308 -0.500915 0
M  V30 7910 O 777.011 1.72854 0.54693 0
M  V30 7911 C 777.059 2.08122 -2.94478 0
M  V30 7912 O 776.163 3.15805 -2.65219 0
M  V30 7913 H 775.504 0.317313 -0.583274 0
M  V30 7914 H 778.034 0.382872 -2.00986 0
M  V30 7915 H 778.044 2.51195 -3.21504 0
M  V30 7916 H 776.719 1.55517 -3.8573 0
M  V30 7917 H 775.296 2.77489 -2.49107 0
M  V30 7918 N 777.481 1.45874 0.596531 0
M  V30 7919 C 778.411 1.5824 1.71705 0
M  V30 7920 C 779.392 0.433366 1.64487 0
M  V30 7921 O 780.577 0.657895 1.82717 0
M  V30 7922 C 777.707 1.55927 3.10329 0
M  V30 7923 C 776.661 2.69659 3.32367 0
M  V30 7924 C 775.987 2.52403 4.71377 0
M  V30 7925 C 777.287 4.11591 3.21544 0
M  V30 7926 H 778.981 2.52035 1.61613 0
M  V30 7927 H 776.527 1.21297 0.776082 0
M  V30 7928 H 778.48 1.63173 3.88526 0
M  V30 7929 H 777.204 0.586674 3.21288 0
M  V30 7930 H 775.863 2.61859 2.56564 0
M  V30 7931 H 775.511 1.53258 4.79083 0
M  V30 7932 H 775.211 3.28679 4.87077 0
M  V30 7933 H 776.735 2.6152 5.5176 0
M  V30 7934 H 778.149 4.20576 3.89601 0
M  V30 7935 H 776.546 4.88344 3.4877 0
M  V30 7936 H 777.616 4.32719 2.1882 0
M  V30 7937 N 778.959 -0.83999 1.33349 0
M  V30 7938 C 779.907 -1.97113 1.23488 0
M  V30 7939 C 780.901 -1.68849 0.136503 0
M  V30 7940 O 782.107 -1.77476 0.300389 0
M  V30 7941 H 778.482 -0.647049 0.383185 0
M  V30 7942 H 780.453 -2.02554 2.19122 0
M  V30 7943 C 779.202 -3.33314 0.989815 0
M  V30 7944 H 778.525 -3.556 1.82726 0
M  V30 7945 H 779.965 -4.12963 0.961123 0
M  V30 7946 C 778.424 -3.35496 -0.307272 0
M  V30 7947 O 778.954 -3.79589 -1.31434 0
M  V30 7948 N 777.16 -2.88669 -0.334414 0
M  V30 7949 H 776.707 -2.5298 0.485659 0
M  V30 7950 H 776.665 -2.90512 -1.20209 0
M  V30 7951 N 780.437 -1.16799 -1.0581 0
M  V30 7952 C 781.367 -0.902241 -2.15364 0
M  V30 7953 C 782.348 0.153351 -1.69407 0
M  V30 7954 O 783.533 0.00442032 -1.94199 0
M  V30 7955 C 780.663 -0.407911 -3.44896 0
M  V30 7956 C 779.617 -1.40197 -4.04387 0
M  V30 7957 C 778.943 -0.765848 -5.29187 0
M  V30 7958 C 780.243 -2.77316 -4.42598 0
M  V30 7959 H 781.937 -1.81841 -2.37853 0
M  V30 7960 H 779.483 -0.875731 -1.14311 0
M  V30 7961 H 781.436 -0.20945 -4.20879 0
M  V30 7962 H 780.16 0.54378 -3.22041 0
M  V30 7963 H 778.819 -1.58707 -3.30466 0
M  V30 7964 H 778.467 0.192482 -5.02632 0
M  V30 7965 H 778.167 -1.42939 -5.69949 0
M  V30 7966 H 779.691 -0.577519 -6.07863 0
M  V30 7967 H 781.105 -2.62561 -5.09642 0
M  V30 7968 H 779.502 -3.4019 -4.94359 0
M  V30 7969 H 780.572 -3.32199 -3.53231 0
M  V30 7970 N 781.915 1.24427 -0.967243 0
M  V30 7971 C 783.192 1.87831 -0.545776 0
M  V30 7972 C 783.572 1.87126 0.977099 0
M  V30 7973 O 782.92 1.34357 1.84826 0
M  V30 7974 C 783.13 3.29967 -1.13679 0
M  V30 7975 C 784.478 4.06654 -1.22139 0
M  V30 7976 O 785.502 3.39136 -1.08926 0
M  V30 7977 O 784.361 5.27455 -1.43017 0
M  V30 7978 H 781.455 0.806745 -0.181912 0
M  V30 7979 H 784.001 1.32403 -1.06148 0
M  V30 7980 H 782.773 3.24977 -2.17958 0
M  V30 7981 H 782.396 3.92969 -0.605093 0
M  V30 7982 N 783.393 0.737304 1.3929 0
M  V30 7983 C 784.642 0.283129 1.99703 0
M  V30 7984 C 784.955 -1.13677 1.59176 0
M  V30 7985 O 786.161 -1.69058 2.12442 0
M  V30 7986 C 784.617 0.455262 3.57009 0
M  V30 7987 C 784.225 1.88319 4.06497 0
M  V30 7988 C 785.969 0.0629786 4.24453 0
M  V30 7989 C 783.876 2.00475 5.56385 0
M  V30 7990 H 782.806 0.102106 0.747054 0
M  V30 7991 H 785.457 0.911515 1.5926 0
M  V30 7992 H 783.839 -0.242057 3.9526 0
M  V30 7993 H 785.013 2.61265 3.79575 0
M  V30 7994 H 783.328 2.2289 3.51723 0
M  V30 7995 H 785.925 0.132787 5.34535 0
M  V30 7996 H 786.268 -0.982128 4.04549 0
M  V30 7997 H 786.801 0.71154 3.91385 0
M  V30 7998 H 783.54 3.03182 5.81172 0
M  V30 7999 H 783.06 1.31969 5.85102 0
M  V30 8000 H 784.739 1.787 6.21832 0
M  V30 8001 N 784.871 -1.49948 0.485112 0
M  V30 8002 C 785.803 -2.26691 -0.338222 0
M  V30 8003 C 786.816 -1.32584 -0.944742 0
M  V30 8004 O 788.005 -1.57989 -0.830772 0
M  V30 8005 C 785.105 -3.04405 -1.48966 0
M  V30 8006 C 784.278 -4.25971 -0.993371 0
M  V30 8007 C 783.337 -4.85861 -2.02052 0
M  V30 8008 O 782.363 -5.46382 -1.59547 0
M  V30 8009 N 783.565 -4.74101 -3.34975 0
M  V30 8010 H 786.33 -2.97989 0.319748 0
M  V30 8011 H 783.891 -1.58772 0.316714 0
M  V30 8012 H 785.883 -3.41348 -2.17403 0
M  V30 8013 H 784.453 -2.35815 -2.05207 0
M  V30 8014 H 783.673 -3.93971 -0.134424 0
M  V30 8015 H 784.961 -5.0476 -0.639934 0
M  V30 8016 H 784.359 -4.26002 -3.72208 0
M  V30 8017 H 782.916 -5.15274 -3.9917 0
M  V30 8018 N 786.349 -0.21828 -1.56081 0
M  V30 8019 C 787.312 0.679633 -2.18892 0
M  V30 8020 C 788.312 1.12405 -1.14986 0
M  V30 8021 O 789.502 1.03339 -1.40238 0
M  V30 8022 C 786.634 1.93063 -2.80962 0
M  V30 8023 H 787.827 0.132066 -2.99609 0
M  V30 8024 H 785.38 0.0313374 -1.56269 0
M  V30 8025 H 786.115 2.52015 -2.04106 0
M  V30 8026 H 785.9 1.62046 -3.57048 0
M  V30 8027 H 787.39 2.57043 -3.29118 0
M  V30 8028 N 787.827 1.57504 0.0551401 0
M  V30 8029 C 788.757 2.07864 1.06372 0
M  V30 8030 C 789.738 0.975565 1.39344 0
M  V30 8031 O 790.923 1.24929 1.48682 0
M  V30 8032 C 788.053 2.53643 2.3724 0
M  V30 8033 C 787.007 3.67978 2.18578 0
M  V30 8034 C 786.333 3.9987 3.54976 0
M  V30 8035 C 787.633 4.97405 1.59329 0
M  V30 8036 H 789.327 2.92379 0.644595 0
M  V30 8037 H 786.873 1.40654 0.308619 0
M  V30 8038 H 788.826 2.8749 3.08103 0
M  V30 8039 H 787.55 1.66177 2.81163 0
M  V30 8040 H 786.209 3.3444 1.50152 0
M  V30 8041 H 785.857 3.0951 3.965 0
M  V30 8042 H 785.557 4.76867 3.43324 0
M  V30 8043 H 787.081 4.36228 4.27244 0
M  V30 8044 H 788.495 5.29375 2.20078 0
M  V30 8045 H 786.892 5.78837 1.58327 0
M  V30 8046 H 787.962 4.81697 0.55638 0
M  V30 8047 N 789.305 -0.326896 1.54172 0
M  V30 8048 C 790.268 -1.38515 1.8261 0
M  V30 8049 C 791.268 -1.44872 0.697771 0
M  V30 8050 O 792.458 -1.44957 0.966078 0
M  V30 8051 C 789.59 -2.77281 1.98313 0
M  V30 8052 H 790.783 -1.14556 2.77159 0
M  V30 8053 H 788.336 -0.562199 1.45839 0
M  V30 8054 H 789.071 -3.065 1.05964 0
M  V30 8055 H 788.856 -2.74061 2.80416 0
M  V30 8056 H 790.346 -3.53845 2.21773 0
M  V30 8057 N 790.784 -1.46188 -0.588786 0
M  V30 8058 C 792.024 -1.52738 -1.35833 0
M  V30 8059 C 792.388 -0.172403 -1.91224 0
M  V30 8060 O 793.589 -0.112633 -2.68564 0
M  V30 8061 C 791.86 -2.59085 -2.4619 0
M  V30 8062 S 793.419 -2.84997 -3.3365 0
M  V30 8063 H 790.237 -0.539713 -0.462851 0
M  V30 8064 H 792.839 -1.83386 -0.677489 0
M  V30 8065 H 791.543 -3.56177 -2.03878 0
M  V30 8066 H 791.074 -2.3015 -3.19053 0
M  V30 8067 H 793.089 -2.19804 -4.4486 0
M  V30 8068 N 792.262 0.832906 -1.33792 0
M  V30 8069 C 793.192 1.95828 -1.27176 0
M  V30 8070 C 794.173 1.69427 -0.15114 0
M  V30 8071 O 795.358 1.91167 -0.341886 0
M  V30 8072 C 792.488 3.32098 -1.01629 0
M  V30 8073 C 791.442 3.72912 -2.10049 0
M  V30 8074 C 790.768 5.07054 -1.69706 0
M  V30 8075 C 792.068 3.86064 -3.51783 0
M  V30 8076 H 793.762 2.01622 -2.21334 0
M  V30 8077 H 791.308 0.96866 -1.0655 0
M  V30 8078 H 793.261 4.10402 -0.956474 0
M  V30 8079 H 791.985 3.26577 -0.0390956 0
M  V30 8080 H 790.644 2.96876 -2.15082 0
M  V30 8081 H 790.292 4.9801 -0.706737 0
M  V30 8082 H 789.992 5.35333 -2.42264 0
M  V30 8083 H 791.516 5.87827 -1.65202 0
M  V30 8084 H 792.93 4.54665 -3.49218 0
M  V30 8085 H 791.327 4.25787 -4.22878 0
M  V30 8086 H 792.397 2.88344 -3.89854 0
M  V30 8087 N 793.74 1.17359 1.05189 0
M  V30 8088 C 794.965 0.98709 1.82404 0
M  V30 8089 C 795.39 -0.459848 1.82392 0
M  V30 8090 O 794.748 -1.32924 1.23292 0
M  V30 8091 C 794.796 1.53276 3.26403 0
M  V30 8092 O 793.9 0.746541 4.05587 0
M  V30 8093 H 793.241 0.35047 0.563974 0
M  V30 8094 H 795.771 1.55856 1.32552 0
M  V30 8095 H 795.781 1.55504 3.77203 0
M  V30 8096 H 794.456 2.58603 3.25726 0
M  V30 8097 H 793.033 0.795671 3.64312 0
M  V30 8098 N 795.218 -1.23913 0.973828 0
M  V30 8099 C 796.181 -2.23367 0.51378 0
M  V30 8100 C 797.181 -1.55923 -0.39302 0
M  V30 8101 O 798.371 -1.73187 -0.187626 0
M  V30 8102 C 795.503 -3.39944 -0.255152 0
M  V30 8103 H 796.696 -2.65581 1.39307 0
M  V30 8104 H 794.249 -1.36632 0.759039 0
M  V30 8105 H 794.984 -3.03177 -1.15127 0
M  V30 8106 H 794.769 -3.90098 0.395673 0
M  V30 8107 H 796.259 -4.13749 -0.565842 0
M  V30 8108 N 796.696 -0.74468 -1.38897 0
M  V30 8109 C 797.626 -0.126355 -2.33158 0
M  V30 8110 C 798.607 0.713517 -1.54412 0
M  V30 8111 O 799.792 0.656523 -1.82766 0
M  V30 8112 C 796.922 0.774375 -3.38557 0
M  V30 8113 C 795.876 0.0379214 -4.27983 0
M  V30 8114 C 795.202 1.05631 -5.24162 0
M  V30 8115 C 796.502 -1.12523 -5.10035 0
M  V30 8116 H 798.196 -0.913744 -2.85116 0
M  V30 8117 H 795.742 -0.440847 -1.37086 0
M  V30 8118 H 797.695 1.21655 -4.03458 0
M  V30 8119 H 796.419 1.59399 -2.85061 0
M  V30 8120 H 795.078 -0.384733 -3.64576 0
M  V30 8121 H 794.726 1.86975 -4.66958 0
M  V30 8122 H 794.426 0.568261 -5.84846 0
M  V30 8123 H 795.95 1.49799 -5.9194 0
M  V30 8124 H 797.364 -0.761037 -5.68226 0
M  V30 8125 H 795.761 -1.54355 -5.79909 0
M  V30 8126 H 796.831 -1.94237 -4.44297 0
M  V30 8127 N 798.174 1.49689 -0.493057 0
M  V30 8128 C 799.399 2.07331 0.0535114 0
M  V30 8129 C 799.824 1.35196 1.30781 0
M  V30 8130 O 799.182 0.406246 1.7669 0
M  V30 8131 C 799.23 3.59364 0.29825 0
M  V30 8132 O 798.334 3.88819 1.37454 0
M  V30 8133 H 797.675 0.663612 -0.0227018 0
M  V30 8134 H 800.205 1.926 -0.690402 0
M  V30 8135 H 800.215 4.04515 0.532159 0
M  V30 8136 H 798.89 4.1128 -0.618207 0
M  V30 8137 H 797.467 3.55487 1.12621 0
M  V30 8138 N 799.652 0.226554 1.55963 0
M  V30 8139 C 800.585 -0.721625 2.1649 0
M  V30 8140 C 801.563 -1.18745 1.11078 0
M  V30 8141 O 802.747 -1.26929 1.3936 0
M  V30 8142 C 799.874 -1.97828 2.74921 0
M  V30 8143 C 798.92 -1.65202 3.93206 0
M  V30 8144 S 799.753 -0.772419 5.299 0
M  V30 8145 C 800.909 -2.03853 5.91773 0
M  V30 8146 H 801.142 -0.207192 2.96577 0
M  V30 8147 H 798.675 0.0111976 1.54396 0
M  V30 8148 H 800.633 -2.69982 3.09225 0
M  V30 8149 H 799.294 -2.46384 1.94817 0
M  V30 8150 H 798.487 -2.58583 4.32609 0
M  V30 8151 H 798.089 -1.01108 3.60074 0
M  V30 8152 H 800.381 -2.98799 6.08051 0
M  V30 8153 H 801.324 -1.68831 6.87678 0
M  V30 8154 H 801.732 -2.18134 5.20651 0
M  V30 8155 N 801.13 -1.57531 -0.0467866 0
M  V30 8156 C 802.379 -1.87632 -0.740069 0
M  V30 8157 C 802.692 -0.822691 -1.77457 0
M  V30 8158 O 803.898 -1.01235 -2.5192 0
M  V30 8159 C 802.354 -3.32917 -1.36727 0
M  V30 8160 C 801.962 -4.46469 -0.370035 0
M  V30 8161 C 803.706 -3.72189 -2.04146 0
M  V30 8162 C 801.613 -5.82806 -1.00457 0
M  V30 8163 H 800.543 -0.70002 -0.280158 0
M  V30 8164 H 803.194 -1.83499 0.00607151 0
M  V30 8165 H 801.576 -3.31739 -2.16252 0
M  V30 8166 H 802.75 -4.59085 0.397217 0
M  V30 8167 H 801.065 -4.15914 0.201079 0
M  V30 8168 H 803.662 -4.71357 -2.52441 0
M  V30 8169 H 804.005 -3.03268 -2.85192 0
M  V30 8170 H 804.538 -3.75465 -1.3142 0
M  V30 8171 H 801.277 -6.55083 -0.233907 0
M  V30 8172 H 800.797 -5.73944 -1.74209 0
M  V30 8173 H 802.476 -6.28961 -1.51713 0
M  V30 8174 N 802.608 0.318715 -1.54344 0
M  V30 8175 C 803.836 1.0755 -1.7675 0
M  V30 8176 C 804.251 1.81543 -0.518422 0
M  V30 8177 O 803.608 1.75198 0.511078 0
M  V30 8178 C 803.659 2.06983 -2.96378 0
M  V30 8179 O 803.38 1.35995 -4.16458 0
M  V30 8180 C 804.881 2.94841 -3.31034 0
M  V30 8181 H 802.101 0.319711 -0.589937 0
M  V30 8182 H 804.645 0.363369 -2.01246 0
M  V30 8183 H 802.8 2.73724 -2.74142 0
M  V30 8184 H 803.214 2.02623 -4.83781 0
M  V30 8185 H 804.688 3.60496 -4.18027 0
M  V30 8186 H 805.165 3.62199 -2.48412 0
M  V30 8187 H 805.771 2.33656 -3.55366 0
M  V30 8188 N 804.086 1.46499 0.581025 0
M  V30 8189 C 804.996 1.59778 1.71779 0
M  V30 8190 C 806.012 0.481223 1.67213 0
M  V30 8191 O 807.188 0.74557 1.87091 0
M  V30 8192 C 804.253 1.58626 3.08283 0
M  V30 8193 C 803.314 2.81527 3.241 0
M  V30 8194 C 802.547 2.80421 4.54092 0
M  V30 8195 O 802.77 1.89262 5.38085 0
M  V30 8196 O 801.704 3.71984 4.73193 0
M  V30 8197 H 805.53 2.55918 1.63523 0
M  V30 8198 H 803.115 1.29311 0.748267 0
M  V30 8199 H 804.997 1.60686 3.89561 0
M  V30 8200 H 803.672 0.656467 3.16973 0
M  V30 8201 H 802.579 2.85021 2.42309 0
M  V30 8202 H 803.912 3.73721 3.20302 0
M  V30 8203 N 805.565 -0.825799 1.34232 0
M  V30 8204 C 806.981 -1.11848 1.13851 0
M  V30 8205 C 807.181 -2.01405 -0.0619031 0
M  V30 8206 O 806.237 -2.41465 -0.738287 0
M  V30 8207 C 807.55 -1.76797 2.43235 0
M  V30 8208 C 809.098 -1.89304 2.49265 0
M  V30 8209 C 809.573 -2.57669 3.78643 0
M  V30 8210 N 811.064 -2.65171 3.79788 0
M  V30 8211 C 811.799 -3.1879 4.76614 0
M  V30 8212 N 811.295 -3.72995 5.83821 0
M  V30 8213 N 813.088 -3.17164 4.64073 0
M  V30 8214 H 805.239 -0.230049 2.11151 0
M  V30 8215 H 807.502 -0.164609 0.9336 0
M  V30 8216 H 807.208 -1.18455 3.31152 0
M  V30 8217 H 807.082 -2.76693 2.56361 0
M  V30 8218 H 809.469 -2.46796 1.6179 0
M  V30 8219 H 809.55 -0.883191 2.4007 0
M  V30 8220 H 809.194 -2.00833 4.66507 0
M  V30 8221 H 809.124 -3.59152 3.8512 0
M  V30 8222 H 811.615 -2.26746 3.02315 0
M  V30 8223 H 811.928 -4.12151 6.53721 0
M  V30 8224 H 810.273 -3.71246 5.87538 0
M  V30 8225 H 813.464 -2.74082 3.79469 0
M  V30 8226 H 813.637 -3.58647 5.397 0
M  V30 8227 N 807.043 -1.17915 -1.04565 0
M  V30 8228 C 807.993 -0.869634 -2.10764 0
M  V30 8229 C 808.977 0.158502 -1.60117 0
M  V30 8230 O 810.169 -0.04483 -1.76943 0
M  V30 8231 C 807.298 -0.391642 -3.41059 0
M  V30 8232 C 806.384 -1.45156 -3.98485 0
M  V30 8233 N 806.775 -2.6667 -4.29792 0
M  V30 8234 C 805.073 -1.3109 -4.263 0
M  V30 8235 C 805.774 -3.34823 -4.75677 0
M  V30 8236 N 804.75 -2.62203 -4.76183 0
M  V30 8237 H 808.552 -1.79342 -2.32838 0
M  V30 8238 H 806.066 -1.0688 -1.22272 0
M  V30 8239 H 808.063 -0.151428 -4.16625 0
M  V30 8240 H 806.723 0.525862 -3.20413 0
M  V30 8241 H 807.734 -3.0358 -4.19594 0
M  V30 8242 H 804.411 -0.455545 -4.15007 0
M  V30 8243 H 805.801 -4.38645 -5.0896 0
M  V30 8244 N 808.521 1.23394 -0.980386 0
M  V30 8245 C 809.769 1.91431 -0.647978 0
M  V30 8246 C 810.09 1.76871 0.821066 0
M  V30 8247 O 809.36 1.14808 1.58732 0
M  V30 8248 H 807.94 0.708516 -0.236673 0
M  V30 8249 H 810.602 1.50019 -1.2442 0
M  V30 8250 H 809.698 2.98854 -0.899592 0
M  V30 8251 N 809.999 0.752036 1.385 0
M  V30 8252 C 810.929 0.138718 2.33088 0
M  V30 8253 C 811.91 -0.705318 1.54788 0
M  V30 8254 O 813.095 -0.646821 1.83112 0
M  V30 8255 C 810.225 -0.75641 3.38963 0
M  V30 8256 C 809.179 -0.0152239 4.27997 0
M  V30 8257 C 808.505 -1.0285 5.24715 0
M  V30 8258 C 809.805 1.15226 5.09431 0
M  V30 8259 H 811.499 0.928852 2.84627 0
M  V30 8260 H 809.045 0.448111 1.3685 0
M  V30 8261 H 810.998 -1.19513 4.04097 0
M  V30 8262 H 809.722 -1.57885 2.85902 0
M  V30 8263 H 808.381 0.404061 3.64366 0
M  V30 8264 H 808.029 -1.84496 4.67943 0
M  V30 8265 H 807.729 -0.537238 5.85139 0
M  V30 8266 H 809.253 -1.46657 5.92726 0
M  V30 8267 H 810.667 0.791161 5.67815 0
M  V30 8268 H 809.064 1.57428 5.79082 0
M  V30 8269 H 810.134 1.9659 4.43261 0
M  V30 8270 N 811.477 -1.49425 0.500989 0
M  V30 8271 C 812.424 -2.29126 -0.277443 0
M  V30 8272 C 813.394 -1.35522 -0.960363 0
M  V30 8273 O 814.579 -1.64479 -0.967027 0
M  V30 8274 C 811.719 -3.18193 -1.33593 0
M  V30 8275 C 810.832 -4.26854 -0.664791 0
M  V30 8276 C 809.967 -5.03137 -1.70372 0
M  V30 8277 C 809.006 -6.03635 -1.01445 0
M  V30 8278 N 808.143 -6.73083 -1.99758 0
M  V30 8279 H 812.983 -2.95187 0.408458 0
M  V30 8280 H 810.52 -1.45546 0.213275 0
M  V30 8281 H 812.478 -3.68207 -1.96161 0
M  V30 8282 H 811.108 -2.54116 -1.9906 0
M  V30 8283 H 810.16 -3.80328 0.0741708 0
M  V30 8284 H 811.472 -4.9865 -0.122197 0
M  V30 8285 H 810.626 -5.5702 -2.40445 0
M  V30 8286 H 809.365 -4.31114 -2.28017 0
M  V30 8287 H 808.37 -5.48984 -0.299496 0
M  V30 8288 H 809.595 -6.77644 -0.444497 0
M  V30 8289 H 807.541 -6.03832 -2.56365 0
M  V30 8290 H 807.458 -7.40855 -1.50565 0
M  V30 8291 H 808.726 -7.3157 -2.69119 0
M  V30 8292 N 812.955 -0.234822 -1.55841 0
M  V30 8293 C 813.865 0.680828 -2.24504 0
M  V30 8294 C 814.881 1.20306 -1.25708 0
M  V30 8295 O 816.057 1.24188 -1.58554 0
M  V30 8296 C 813.122 1.86636 -2.92178 0
M  V30 8297 C 812.183 1.3848 -4.06352 0
M  V30 8298 C 811.416 2.51382 -4.70789 0
M  V30 8299 O 811.639 3.69831 -4.34259 0
M  V30 8300 O 810.573 2.21828 -5.59532 0
M  V30 8301 H 814.399 0.12583 -3.03439 0
M  V30 8302 H 811.984 -0.00381817 -1.494 0
M  V30 8303 H 813.866 2.55845 -3.34845 0
M  V30 8304 H 812.541 2.40921 -2.16192 0
M  V30 8305 H 811.448 0.660341 -3.68226 0
M  V30 8306 H 812.781 0.888177 -4.8412 0
M  V30 8307 N 814.433 1.57553 0.0384317 0
M  V30 8308 C 815.844 1.77258 0.586211 0
M  V30 8309 C 816.195 0.864706 1.76117 0
M  V30 8310 O 815.32 0.057141 2.16325 0
M  V30 8311 C 815.915 3.21453 1.07021 0
M  V30 8312 C 814.474 3.42387 1.56358 0
M  V30 8313 C 813.621 2.72801 0.497508 0
M  V30 8314 H 816.572 1.57585 -0.187796 0
M  V30 8315 H 816.593 3.27451 1.93794 0
M  V30 8316 H 816.105 3.87505 0.214851 0
M  V30 8317 H 814.206 2.81497 2.44111 0
M  V30 8318 H 814.319 4.50968 1.61754 0
M  V30 8319 H 812.683 2.36305 0.95038 0
M  V30 8320 H 813.466 3.41529 -0.348234 0
M  V30 8321 N 815.911 -0.310526 1.54511 0
M  V30 8322 C 816.858 -1.38264 1.84802 0
M  V30 8323 C 817.828 -1.50808 0.696141 0
M  V30 8324 O 819.013 -1.6582 0.943846 0
M  V30 8325 C 816.153 -2.74422 2.09252 0
M  V30 8326 C 815.266 -2.70405 3.36906 0
M  V30 8327 C 814.401 -3.98495 3.51248 0
M  V30 8328 C 813.44 -3.88836 4.72729 0
M  V30 8329 N 812.577 -5.08683 4.83928 0
M  V30 8330 H 817.417 -1.11732 2.76261 0
M  V30 8331 H 814.954 -0.540609 1.36806 0
M  V30 8332 H 816.912 -3.53593 2.21422 0
M  V30 8333 H 815.542 -2.99235 1.2107 0
M  V30 8334 H 814.594 -1.83151 3.33406 0
M  V30 8335 H 815.906 -2.59155 4.26193 0
M  V30 8336 H 815.06 -4.861 3.63031 0
M  V30 8337 H 813.799 -4.12567 2.60077 0
M  V30 8338 H 812.804 -2.99615 4.60989 0
M  V30 8339 H 814.029 -3.76318 5.65298 0
M  V30 8340 H 811.975 -5.23236 3.95677 0
M  V30 8341 H 811.892 -4.99819 5.67201 0
M  V30 8342 H 813.16 -5.97966 5.00057 0
M  V30 8343 N 817.389 -1.46805 -0.573248 0
M  V30 8344 C 818.805 -1.31969 -0.897577 0
M  V30 8345 C 819.005 -0.298171 -1.99282 0
M  V30 8346 O 818.061 0.295953 -2.5076 0
M  V30 8347 C 819.374 -2.70859 -1.30598 0
M  V30 8348 C 820.922 -2.79022 -1.4183 0
M  V30 8349 C 821.397 -4.18516 -1.86033 0
M  V30 8350 N 822.888 -4.2098 -1.9321 0
M  V30 8351 C 823.623 -5.25814 -2.28707 0
M  V30 8352 N 823.119 -6.40968 -2.6293 0
M  V30 8353 N 824.912 -5.13184 -2.29343 0
M  V30 8354 H 817.063 -2.11869 0.150094 0
M  V30 8355 H 819.326 -0.947989 0.00447895 0
M  V30 8356 H 819.032 -3.46965 -0.575161 0
M  V30 8357 H 818.906 -3.01585 -2.26554 0
M  V30 8358 H 821.293 -2.03198 -2.13996 0
M  V30 8359 H 821.374 -2.51969 -0.441024 0
M  V30 8360 H 821.018 -4.94839 -1.14442 0
M  V30 8361 H 820.948 -4.42982 -2.84735 0
M  V30 8362 H 823.439 -3.37898 -1.69214 0
M  V30 8363 H 823.752 -7.16729 -2.88996 0
M  V30 8364 H 822.097 -6.44314 -2.60547 0
M  V30 8365 H 825.288 -4.22255 -2.02036 0
M  V30 8366 H 825.461 -5.94996 -2.56679 0
M  V30 8367 N 818.867 0.818669 -1.34668 0
M  V30 8368 C 820.113 1.57746 -1.27453 0
M  V30 8369 C 820.446 1.93588 0.154077 0
M  V30 8370 O 819.721 1.60371 1.10051 0
M  V30 8371 C 820.004 2.87414 -2.16945 0
M  V30 8372 C 819.857 2.58125 -3.68363 0
M  V30 8373 C 821.176 3.89021 -2.05792 0
M  V30 8374 H 818.295 0.572339 -0.464324 0
M  V30 8375 H 820.937 0.942784 -1.64959 0
M  V30 8376 H 819.087 3.41576 -1.85089 0
M  V30 8377 H 820.759 2.10239 -4.10606 0
M  V30 8378 H 819.002 1.91503 -3.89242 0
M  V30 8379 H 819.673 3.5061 -4.26353 0
M  V30 8380 H 822.149 3.44224 -2.33771 0
M  V30 8381 H 821.025 4.77548 -2.70628 0
M  V30 8382 H 821.286 4.29786 -1.03618 0
M  V30 8383 N 820.346 1.18468 1.03938 0
M  V30 8384 C 821.256 0.927889 2.1547 0
M  V30 8385 C 822.272 -0.108447 1.73662 0
M  V30 8386 O 823.448 0.0737636 2.01265 0
M  V30 8387 C 820.513 0.458494 3.43655 0
M  V30 8388 C 819.574 1.56295 3.99838 0
M  V30 8389 C 818.807 1.11586 5.21904 0
M  V30 8390 O 819.03 -0.0249057 5.70395 0
M  V30 8391 O 817.964 1.91412 5.70653 0
M  V30 8392 H 821.79 1.86116 2.39989 0
M  V30 8393 H 819.375 0.966607 1.13917 0
M  V30 8394 H 821.257 0.204861 4.20902 0
M  V30 8395 H 819.932 -0.446464 3.20606 0
M  V30 8396 H 818.839 1.87061 3.23974 0
M  V30 8397 H 820.172 2.44408 4.2723 0
M  V30 8398 N 821.824 -1.22873 0.986916 0
M  V30 8399 C 822.734 -2.28277 0.540978 0
M  V30 8400 C 823.75 -1.69164 -0.407363 0
M  V30 8401 O 824.926 -1.99504 -0.275674 0
M  V30 8402 C 821.991 -3.46404 -0.143181 0
M  V30 8403 C 821.052 -4.20854 0.847375 0
M  V30 8404 C 820.285 -5.33341 0.19577 0
M  V30 8405 O 820.508 -5.61356 -1.0117 0
M  V30 8406 O 819.442 -5.95169 0.897623 0
M  V30 8407 H 823.268 -2.68578 1.41773 0
M  V30 8408 H 820.853 -1.28927 0.754867 0
M  V30 8409 H 822.735 -4.18096 -0.526676 0
M  V30 8410 H 821.41 -3.08041 -0.994593 0
M  V30 8411 H 820.317 -3.51459 1.28169 0
M  V30 8412 H 821.65 -4.63082 1.6678 0
M  V30 8413 N 823.302 -0.75937 -1.38099 0
M  V30 8414 C 824.232 -0.151077 -2.33011 0
M  V30 8415 C 825.213 0.697099 -1.5516 0
M  V30 8416 O 826.398 0.637101 -1.83452 0
M  V30 8417 C 823.528 0.738423 -3.39359 0
M  V30 8418 C 822.482 -0.0074741 -4.27999 0
M  V30 8419 C 821.808 1.00066 -5.25253 0
M  V30 8420 C 823.108 -1.17926 -5.08813 0
M  V30 8421 H 824.802 -0.943933 -2.84131 0
M  V30 8422 H 822.348 -0.455362 -1.36611 0
M  V30 8423 H 824.301 1.17369 -4.04725 0
M  V30 8424 H 823.025 1.56366 -2.86735 0
M  V30 8425 H 821.684 -0.423379 -3.64147 0
M  V30 8426 H 821.332 1.82012 -4.68914 0
M  V30 8427 H 821.032 0.506199 -5.85416 0
M  V30 8428 H 822.556 1.43512 -5.93495 0
M  V30 8429 H 823.97 -0.821262 -5.67387 0
M  V30 8430 H 822.367 -1.60497 -5.78239 0
M  V30 8431 H 823.437 -1.98938 -4.42212 0
M  V30 8432 N 824.78 1.49157 -0.508906 0
M  V30 8433 C 826.02 2.04376 0.0310623 0
M  V30 8434 C 826.384 1.37946 1.33547 0
M  V30 8435 O 827.585 1.83931 1.96017 0
M  V30 8436 C 825.856 3.56985 0.172191 0
M  V30 8437 S 827.415 4.33728 0.665267 0
M  V30 8438 H 824.233 0.710997 -0.00199266 0
M  V30 8439 H 826.835 1.83119 -0.684674 0
M  V30 8440 H 825.539 4.02874 -0.78234 0
M  V30 8441 H 825.07 3.82661 0.912933 0
M  V30 8442 H 827.085 4.56992 1.9332 0
M  V30 8443 N 826.258 0.243083 1.55714 0
M  V30 8444 C 827.206 -0.674349 2.2261 0
M  V30 8445 C 828.2 -1.18307 1.21243 0
M  V30 8446 O 829.406 -1.1404 1.39265 0
M  V30 8447 H 825.781 -0.235941 0.714028 0
M  V30 8448 H 827.752 -0.0869446 2.98273 0
M  V30 8449 C 826.501 -1.86206 2.93637 0
M  V30 8450 H 825.824 -1.47975 3.71407 0
M  V30 8451 H 827.264 -2.4813 3.43813 0
M  V30 8452 C 825.723 -2.73084 1.97298 0
M  V30 8453 O 826.253 -3.72497 1.50361 0
M  V30 8454 N 824.459 -2.39571 1.64482 0
M  V30 8455 H 824.006 -1.5878 2.02846 0
M  V30 8456 H 823.964 -2.97976 1.00288 0
M  V30 8457 N 827.736 -1.57571 -0.0300757 0
M  V30 8458 C 828.683 -2.06492 -1.03101 0
M  V30 8459 C 829.653 -0.953862 -1.3598 0
M  V30 8460 O 830.838 -1.22436 -1.46335 0
M  V30 8461 C 827.978 -2.54826 -2.32718 0
M  V30 8462 C 827.091 -3.79718 -2.06006 0
M  V30 8463 C 826.226 -4.16668 -3.29487 0
M  V30 8464 C 825.265 -5.3448 -2.98324 0
M  V30 8465 N 824.402 -5.66867 -4.14254 0
M  V30 8466 H 829.242 -2.91755 -0.606877 0
M  V30 8467 H 826.779 -1.44252 -0.288038 0
M  V30 8468 H 828.737 -2.80916 -3.08451 0
M  V30 8469 H 827.367 -1.72481 -2.72856 0
M  V30 8470 H 826.419 -3.60718 -1.20774 0
M  V30 8471 H 827.731 -4.65569 -1.79017 0
M  V30 8472 H 826.885 -4.43881 -4.13588 0
M  V30 8473 H 825.624 -3.29466 -3.59588 0
M  V30 8474 H 824.629 -5.07021 -2.12625 0
M  V30 8475 H 825.854 -6.23334 -2.69502 0
M  V30 8476 H 823.8 -4.82625 -4.44308 0
M  V30 8477 H 823.717 -6.47226 -3.90685 0
M  V30 8478 H 824.985 -5.98656 -4.99231 0
M  V30 8479 N 829.214 0.302327 -1.54673 0
M  V30 8480 C 830.463 1.03533 -1.73101 0
M  V30 8481 C 830.776 1.88473 -0.523174 0
M  V30 8482 O 831.982 2.65029 -0.589229 0
M  V30 8483 C 830.438 1.89043 -3.06252 0
M  V30 8484 C 830.046 1.09112 -4.3451 0
M  V30 8485 C 831.79 2.61951 -3.34039 0
M  V30 8486 C 829.697 1.93891 -5.58713 0
M  V30 8487 H 828.627 0.390261 -0.645145 0
M  V30 8488 H 831.278 0.2924 -1.81155 0
M  V30 8489 H 829.66 2.67319 -2.92159 0
M  V30 8490 H 830.834 0.354596 -4.59434 0
M  V30 8491 H 829.149 0.477923 -4.13648 0
M  V30 8492 H 831.746 3.25729 -4.24033 0
M  V30 8493 H 832.089 3.30711 -2.52855 0
M  V30 8494 H 832.622 1.90725 -3.49097 0
M  V30 8495 H 829.361 1.29604 -6.4256 0
M  V30 8496 H 828.881 2.6522 -5.37976 0
M  V30 8497 H 830.56 2.51971 -5.95919 0
M  V30 8498 N 830.692 1.47107 0.565454 0
M  V30 8499 C 831.92 1.56909 1.3486 0
M  V30 8500 C 832.335 0.216312 1.87557 0
M  V30 8501 O 831.692 -0.789168 1.64555 0
M  V30 8502 C 831.743 2.58776 2.52423 0
M  V30 8503 O 831.464 3.888 2.01906 0
M  V30 8504 C 832.965 2.78683 3.44747 0
M  V30 8505 H 830.185 0.530096 0.411387 0
M  V30 8506 H 832.729 1.92658 0.685782 0
M  V30 8507 H 830.884 2.25983 3.1466 0
M  V30 8508 H 831.298 4.44393 2.78595 0
M  V30 8509 H 832.772 3.53842 4.23674 0
M  V30 8510 H 833.249 1.86208 3.97773 0
M  V30 8511 H 833.855 3.12641 2.88333 0
M  V30 8512 N 832.17 -0.811516 1.35101 0
M  V30 8513 C 833.395 -1.60499 1.31358 0
M  V30 8514 C 833.82 -1.87793 -0.107383 0
M  V30 8515 O 833.178 -1.46161 -1.07268 0
M  V30 8516 C 833.226 -2.91612 2.12119 0
M  V30 8517 O 832.33 -3.84211 1.49853 0
M  V30 8518 H 831.671 -0.487702 0.450603 0
M  V30 8519 H 834.201 -1.00758 1.7807 0
M  V30 8520 H 834.211 -3.4108 2.23894 0
M  V30 8521 H 832.886 -2.71071 3.15426 0
M  V30 8522 H 831.463 -3.42751 1.46889 0
M  V30 8523 N 833.648 -1.19017 -1.03309 0
M  V30 8524 C 834.873 -1.01598 -1.80811 0
M  V30 8525 C 835.298 0.430773 -1.83101 0
M  V30 8526 O 834.656 1.30946 -1.25391 0
M  V30 8527 C 834.704 -1.5845 -3.23923 0
M  V30 8528 O 833.808 -0.810972 -4.04348 0
M  V30 8529 H 833.149 -0.359398 -0.558327 0
M  V30 8530 H 835.679 -1.57945 -1.30055 0
M  V30 8531 H 835.689 -1.61486 -3.74682 0
M  V30 8532 H 834.364 -2.63752 -3.21571 0
M  V30 8533 H 832.941 -0.85353 -3.63 0
M  V30 8534 N 835.127 1.22348 -0.993418 0
M  V30 8535 C 836.057 2.26584 -0.564088 0
M  V30 8536 C 837.038 1.65102 0.409298 0
M  V30 8537 O 838.223 1.91872 0.299819 0
M  V30 8538 C 835.353 3.47087 0.121554 0
M  V30 8539 C 834.307 4.21009 -0.770429 0
M  V30 8540 C 833.633 5.34678 0.0481586 0
M  V30 8541 C 834.933 4.79636 -2.06752 0
M  V30 8542 H 836.627 2.62749 -1.43538 0
M  V30 8543 H 834.173 1.26303 -0.691628 0
M  V30 8544 H 836.126 4.19166 0.433303 0
M  V30 8545 H 834.85 3.1002 1.0274 0
M  V30 8546 H 833.509 3.50764 -1.06583 0
M  V30 8547 H 833.157 4.93852 0.954933 0
M  V30 8548 H 832.857 5.85061 -0.545641 0
M  V30 8549 H 834.381 6.09573 0.353991 0
M  V30 8550 H 835.795 5.43654 -1.81969 0
M  V30 8551 H 834.192 5.4036 -2.61019 0
M  V30 8552 H 835.262 3.99659 -2.74592 0
M  V30 8553 N 836.605 0.766683 1.37694 0
M  V30 8554 C 837.552 0.147725 2.30327 0
M  V30 8555 C 838.522 -0.695366 1.50844 0
M  V30 8556 O 839.707 -0.64878 1.79431 0
M  V30 8557 C 836.847 -0.72935 3.37305 0
M  V30 8558 C 835.96 0.129795 4.31805 0
M  V30 8559 C 835.095 -0.751511 5.25857 0
M  V30 8560 C 834.134 0.110475 6.12 0
M  V30 8561 N 833.271 -0.728522 6.9831 0
M  V30 8562 H 838.111 0.943204 2.82679 0
M  V30 8563 H 835.648 0.476736 1.3916 0
M  V30 8564 H 837.606 -1.25263 3.97951 0
M  V30 8565 H 836.236 -1.49048 2.86329 0
M  V30 8566 H 835.288 0.770829 3.72508 0
M  V30 8567 H 836.6 0.794923 4.92425 0
M  V30 8568 H 835.754 -1.34146 5.91684 0
M  V30 8569 H 834.493 -1.45034 4.65636 0
M  V30 8570 H 833.498 0.712999 5.45157 0
M  V30 8571 H 834.723 0.806557 6.74293 0
M  V30 8572 H 832.669 -1.41206 6.40622 0
M  V30 8573 H 832.586 -0.12058 7.55904 0
M  V30 8574 H 833.854 -1.30303 7.68532 0
M  V30 8575 N 838.083 -1.48885 0.516809 0
M  V30 8576 C 839.36 -1.95412 -0.0858293 0
M  V30 8577 C 839.74 -1.45875 -1.5259 0
M  V30 8578 O 839.088 -0.679415 -2.18166 0
M  V30 8579 C 839.298 -3.48995 0.0178194 0
M  V30 8580 C 840.646 -4.24342 -0.14813 0
M  V30 8581 O 841.67 -3.56155 -0.0566125 0
M  V30 8582 O 840.529 -5.45454 -0.338035 0
M  V30 8583 H 837.623 -0.822455 -0.0865884 0
M  V30 8584 H 840.169 -1.59464 0.580472 0
M  V30 8585 H 838.941 -3.77732 1.02147 0
M  V30 8586 H 838.564 -3.91604 -0.687924 0
M  V30 8587 N 839.561 -0.251338 -1.55583 0
M  V30 8588 C 840.511 0.660351 -2.18228 0
M  V30 8589 C 841.495 1.13596 -1.13951 0
M  V30 8590 O 842.687 1.08499 -1.39846 0
M  V30 8591 C 839.816 1.85498 -2.88869 0
M  V30 8592 C 838.902 1.39767 -4.00407 0
M  V30 8593 N 839.293 0.654876 -5.01543 0
M  V30 8594 C 837.591 1.68259 -4.13044 0
M  V30 8595 C 838.292 0.417521 -5.802 0
M  V30 8596 N 837.268 0.983032 -5.34638 0
M  V30 8597 H 841.07 0.0847425 -2.93778 0
M  V30 8598 H 838.584 -0.0538456 -1.62311 0
M  V30 8599 H 840.581 2.51916 -3.3218 0
M  V30 8600 H 839.241 2.43477 -2.14823 0
M  V30 8601 H 840.252 0.304545 -5.17004 0
M  V30 8602 H 836.929 2.27344 -3.50172 0
M  V30 8603 H 838.319 -0.175764 -6.7167 0
M  V30 8604 N 841.039 1.57585 0.0217189 0
M  V30 8605 C 841.971 2.03849 1.04777 0
M  V30 8606 C 842.984 0.952558 1.32023 0
M  V30 8607 O 844.173 1.22974 1.29381 0
M  V30 8608 C 841.273 2.40504 2.3877 0
M  V30 8609 C 840.446 3.71566 2.30775 0
M  V30 8610 C 839.505 3.95329 3.47277 0
M  V30 8611 O 838.531 4.66289 3.26441 0
M  V30 8612 N 839.733 3.41536 4.69397 0
M  V30 8613 H 842.498 2.92491 0.653395 0
M  V30 8614 H 840.059 1.60538 0.209527 0
M  V30 8615 H 842.051 2.53532 3.15442 0
M  V30 8616 H 840.621 1.57494 2.70027 0
M  V30 8617 H 839.841 3.68822 1.39155 0
M  V30 8618 H 841.129 4.5753 2.22584 0
M  V30 8619 H 840.527 2.84033 4.89226 0
M  V30 8620 H 839.084 3.59932 5.43408 0
M  V30 8621 N 842.517 -0.29412 1.54831 0
M  V30 8622 C 843.742 -1.05156 1.78765 0
M  V30 8623 C 844.167 -1.79916 0.548809 0
M  V30 8624 O 843.525 -1.74243 -0.500909 0
M  V30 8625 C 843.573 -2.00242 2.99893 0
M  V30 8626 O 842.677 -3.08662 2.73499 0
M  V30 8627 H 842.018 -0.301737 0.591482 0
M  V30 8628 H 844.548 -0.329449 2.0193 0
M  V30 8629 H 844.558 -2.42583 3.28051 0
M  V30 8630 H 843.233 -1.45235 3.89717 0
M  V30 8631 H 841.81 -2.70786 2.56377 0
M  V30 8632 N 843.995 -1.47404 -0.557645 0
M  V30 8633 C 844.942 -1.59859 -1.66475 0
M  V30 8634 C 845.912 -0.441644 -1.60121 0
M  V30 8635 O 847.097 -0.661641 -1.78961 0
M  V30 8636 C 844.237 -1.61843 -3.04797 0
M  V30 8637 C 843.35 -2.8845 -3.2159 0
M  V30 8638 C 842.485 -2.81773 -4.50308 0
M  V30 8639 C 841.524 -4.03208 -4.60532 0
M  V30 8640 N 840.661 -3.94769 -5.80604 0
M  V30 8641 H 845.501 -2.54415 -1.55168 0
M  V30 8642 H 843.038 -1.26194 -0.755876 0
M  V30 8643 H 844.996 -1.60976 -3.84893 0
M  V30 8644 H 843.626 -0.707997 -3.1494 0
M  V30 8645 H 842.678 -2.99186 -2.34929 0
M  V30 8646 H 843.99 -3.78379 -3.25009 0
M  V30 8647 H 843.144 -2.79153 -5.38663 0
M  V30 8648 H 841.883 -1.89527 -4.49367 0
M  V30 8649 H 840.888 -4.06133 -3.70589 0
M  V30 8650 H 842.113 -4.9658 -4.63233 0
M  V30 8651 H 840.059 -3.05326 -5.80613 0
M  V30 8652 H 839.976 -4.78375 -5.854 0
M  V30 8653 H 841.244 -3.96165 -6.71322 0
M  V30 8654 N 845.473 0.80434 -1.35529 0
M  V30 8655 C 846.721 1.55845 -1.28673 0
M  V30 8656 C 847.042 1.94511 0.137976 0
M  V30 8657 O 846.312 1.63775 1.07492 0
M  V30 8658 H 844.892 0.577931 -0.473291 0
M  V30 8659 H 847.554 0.959293 -1.69657 0
M  V30 8660 H 846.65 2.47285 -1.90411 0
M  V30 8661 N 846.951 1.19563 1.02676 0
M  V30 8662 C 847.883 0.893054 2.11086 0
M  V30 8663 C 848.896 -0.115101 1.62393 0
M  V30 8664 O 850.085 0.11459 1.78132 0
M  V30 8665 C 847.185 0.315533 3.37428 0
M  V30 8666 C 846.358 1.37276 4.153 0
M  V30 8667 C 845.417 0.808398 5.19953 0
M  V30 8668 O 844.443 1.48661 5.49444 0
M  V30 8669 N 845.645 -0.387253 5.79207 0
M  V30 8670 H 848.41 1.82622 2.37633 0
M  V30 8671 H 845.971 1.09792 1.18984 0
M  V30 8672 H 847.963 -0.0759166 4.04629 0
M  V30 8673 H 846.533 -0.521961 3.08211 0
M  V30 8674 H 845.753 1.93897 3.43217 0
M  V30 8675 H 847.041 2.08509 4.64114 0
M  V30 8676 H 846.439 -0.955725 5.57568 0
M  V30 8677 H 844.996 -0.720457 6.47806 0
M  V30 8678 N 848.429 -1.21819 0.999893 0
M  V30 8679 C 849.392 -2.22227 0.561044 0
M  V30 8680 C 850.392 -1.56722 -0.359858 0
M  V30 8681 O 851.582 -1.73546 -0.150848 0
M  V30 8682 C 848.714 -3.40409 -0.182987 0
M  V30 8683 H 849.907 -2.62567 1.44909 0
M  V30 8684 H 847.46 -1.34991 0.78785 0
M  V30 8685 H 848.195 -3.05551 -1.08671 0
M  V30 8686 H 847.98 -3.89171 0.47833 0
M  V30 8687 H 849.47 -4.14856 -0.477952 0
M  V30 8688 N 849.908 -0.773975 -1.37286 0
M  V30 8689 C 850.838 -0.175782 -2.32837 0
M  V30 8690 C 851.819 0.680603 -1.5589 0
M  V30 8691 O 853.004 0.617607 -1.84117 0
M  V30 8692 C 850.134 0.702388 -3.40123 0
M  V30 8693 C 849.088 -0.0528687 -4.27967 0
M  V30 8694 C 848.414 0.944891 -5.26285 0
M  V30 8695 C 849.714 -1.23316 -5.07534 0
M  V30 8696 H 851.408 -0.974016 -2.83114 0
M  V30 8697 H 848.954 -0.469826 -1.3612 0
M  V30 8698 H 850.907 1.13069 -4.05947 0
M  V30 8699 H 849.631 1.53316 -2.88378 0
M  V30 8700 H 848.29 -0.461978 -3.63678 0
M  V30 8701 H 847.938 1.77028 -4.70819 0
M  V30 8702 H 847.638 0.444079 -5.8592 0
M  V30 8703 H 849.162 1.37209 -5.94984 0
M  V30 8704 H 850.576 -0.881395 -5.66484 0
M  V30 8705 H 848.973 -1.66621 -5.76504 0
M  V30 8706 H 850.043 -2.03617 -4.40077 0
M  V30 8707 N 851.386 1.48609 -0.524698 0
M  V30 8708 C 852.296 2.33318 0.244923 0
M  V30 8709 C 853.312 1.46153 0.944214 0
M  V30 8710 O 854.488 1.79141 0.920347 0
M  V30 8711 C 851.553 3.22149 1.28144 0
M  V30 8712 C 850.614 4.25184 0.593068 0
M  V30 8713 C 849.847 5.0977 1.5802 0
M  V30 8714 O 850.07 4.96249 2.81235 0
M  V30 8715 O 849.004 5.9134 1.1225 0
M  V30 8716 H 852.83 3.00362 -0.449066 0
M  V30 8717 H 850.415 1.46643 -0.285689 0
M  V30 8718 H 852.297 3.77111 1.88057 0
M  V30 8719 H 850.972 2.57772 1.95793 0
M  V30 8720 H 849.879 3.74071 -0.0464214 0
M  V30 8721 H 851.212 4.92183 -0.0413893 0
M  V30 8722 N 852.864 0.259585 1.55447 0
M  V30 8723 C 854.275 -0.241165 1.85136 0
M  V30 8724 C 854.626 -1.56634 1.18153 0
M  V30 8725 O 853.751 -2.11359 0.464351 0
M  V30 8726 C 854.346 -0.444355 3.35873 0
M  V30 8727 C 852.905 -0.889354 3.65742 0
M  V30 8728 C 852.052 0.0262474 2.77288 0
M  V30 8729 H 855.003 0.481808 1.51209 0
M  V30 8730 H 855.024 -1.28517 3.58139 0
M  V30 8731 H 854.536 0.520289 3.84597 0
M  V30 8732 H 852.637 -1.86602 3.22507 0
M  V30 8733 H 852.75 -0.737432 4.73391 0
M  V30 8734 H 851.114 -0.487361 2.49994 0
M  V30 8735 H 851.897 0.986494 3.28821 0
M  V30 8736 N 854.342 -1.57594 -0.0133615 0
M  V30 8737 C 855.57 -1.94251 -0.712328 0
M  V30 8738 C 855.985 -0.86063 -1.68043 0
M  V30 8739 O 855.342 0.161632 -1.81783 0
M  V30 8740 C 855.393 -3.30891 -1.45581 0
M  V30 8741 O 855.114 -4.34924 -0.526539 0
M  V30 8742 C 856.615 -3.81926 -2.2505 0
M  V30 8743 H 853.835 -0.640737 -0.199241 0
M  V30 8744 H 856.379 -2.04472 0.0337855 0
M  V30 8745 H 854.534 -3.22019 -2.15366 0
M  V30 8746 H 854.948 -5.1389 -1.04962 0
M  V30 8747 H 856.422 -4.79999 -2.72589 0
M  V30 8748 H 856.899 -3.13934 -3.07152 0
M  V30 8749 H 857.505 -3.93931 -1.60308 0
M  V30 8750 N 855.82 0.285905 -1.54985 0
M  V30 8751 C 856.73 1.37534 -1.90057 0
M  V30 8752 C 857.746 1.54707 -0.796348 0
M  V30 8753 O 858.922 1.69082 -1.09423 0
M  V30 8754 C 855.987 2.7167 -2.15398 0
M  V30 8755 C 855.048 2.63354 -3.39033 0
M  V30 8756 C 854.281 3.91093 -3.63155 0
M  V30 8757 O 854.504 4.91169 -2.90015 0
M  V30 8758 O 853.438 3.92075 -4.56685 0
M  V30 8759 H 857.264 1.10791 -2.8277 0
M  V30 8760 H 854.849 0.483303 -1.41367 0
M  V30 8761 H 856.731 3.51006 -2.33179 0
M  V30 8762 H 855.406 2.98226 -1.25868 0
M  V30 8763 H 854.313 1.82438 -3.26599 0
M  V30 8764 H 855.646 2.41749 -4.2874 0
M  V30 8765 N 857.298 1.47698 0.54982 0
M  V30 8766 C 858.523 1.58579 1.33669 0
M  V30 8767 C 858.948 0.239049 1.86575 0
M  V30 8768 O 858.306 -0.786256 1.63364 0
M  V30 8769 C 858.354 2.62029 2.47736 0
M  V30 8770 O 857.458 2.17813 3.50188 0
M  V30 8771 H 856.799 0.532447 0.396732 0
M  V30 8772 H 859.329 1.93536 0.6637 0
M  V30 8773 H 859.339 2.82682 2.94202 0
M  V30 8774 H 858.014 3.59812 2.08586 0
M  V30 8775 H 856.591 2.07291 3.09976 0
M  V30 8776 N 858.776 -0.797141 1.35954 0
M  V30 8777 C 859.723 -1.90944 1.2965 0
M  V30 8778 C 860.693 -1.65262 0.166628 0
M  V30 8779 O 861.878 -1.87527 0.351883 0
M  V30 8780 C 859.018 -3.27637 1.08389 0
M  V30 8781 C 858.131 -3.65442 2.30382 0
M  V30 8782 C 857.266 -4.91213 2.02195 0
M  V30 8783 C 856.305 -5.21674 3.20191 0
M  V30 8784 N 855.442 -6.38627 2.91719 0
M  V30 8785 H 860.282 -1.95668 2.24762 0
M  V30 8786 H 857.819 -0.95696 1.11717 0
M  V30 8787 H 859.777 -4.06451 0.940912 0
M  V30 8788 H 858.407 -3.22355 0.169351 0
M  V30 8789 H 857.459 -2.81813 2.55511 0
M  V30 8790 H 858.771 -3.83907 3.18461 0
M  V30 8791 H 857.925 -5.77876 1.84783 0
M  V30 8792 H 856.664 -4.74803 1.11416 0
M  V30 8793 H 855.669 -4.33498 3.38171 0
M  V30 8794 H 856.894 -5.40009 4.11786 0
M  V30 8795 H 854.84 -6.23623 2.03543 0
M  V30 8796 H 854.757 -6.57387 3.73334 0
M  V30 8797 H 856.025 -7.28292 2.77868 0
M  V30 8798 N 860.254 -1.20106 -1.0204 0
M  V30 8799 C 861.5 -1.01039 -1.75838 0
M  V30 8800 C 861.833 0.456819 -1.88751 0
M  V30 8801 O 861.108 1.33919 -1.41053 0
M  V30 8802 C 861.391 -1.69009 -3.17975 0
M  V30 8803 C 861.244 -3.2315 -3.1288 0
M  V30 8804 C 862.563 -1.42005 -4.16561 0
M  V30 8805 H 859.682 -0.368465 -0.638281 0
M  V30 8806 H 862.324 -1.48066 -1.19064 0
M  V30 8807 H 860.474 -1.29026 -3.66449 0
M  V30 8808 H 862.146 -3.72402 -2.72239 0
M  V30 8809 H 860.389 -3.54253 -2.50374 0
M  V30 8810 H 861.06 -3.65862 -4.13339 0
M  V30 8811 H 863.536 -1.76685 -3.76725 0
M  V30 8812 H 862.412 -1.92101 -5.14187 0
M  V30 8813 H 862.673 -0.346884 -4.40737 0
M  V30 8814 N 861.732 1.21287 -1.00634 0
M  V30 8815 C 862.662 2.25973 -0.588089 0
M  V30 8816 C 863.643 1.65527 0.391764 0
M  V30 8817 O 864.828 1.92179 0.279452 0
M  V30 8818 C 861.958 3.47197 0.0847336 0
M  V30 8819 C 860.912 4.20168 -0.815039 0
M  V30 8820 C 860.238 5.34699 -0.00855393 0
M  V30 8821 C 861.538 4.77416 -2.11828 0
M  V30 8822 H 863.232 2.61212 -1.46317 0
M  V30 8823 H 860.778 1.25563 -0.704985 0
M  V30 8824 H 862.731 4.19602 0.388821 0
M  V30 8825 H 861.455 3.11092 0.994456 0
M  V30 8826 H 860.114 3.49614 -1.10297 0
M  V30 8827 H 859.762 4.94837 0.902499 0
M  V30 8828 H 859.462 5.84449 -0.607664 0
M  V30 8829 H 860.986 6.09914 0.289317 0
M  V30 8830 H 862.4 5.41694 -1.87725 0
M  V30 8831 H 860.797 5.37561 -2.66736 0
M  V30 8832 H 861.867 3.96724 -2.78816 0
M  V30 8833 N 863.21 0.781244 1.36873 0
M  V30 8834 C 864.458 0.349198 1.9906 0
M  V30 8835 C 864.779 -1.0806 1.62321 0
M  V30 8836 O 864.049 -1.74351 0.893229 0
M  V30 8837 H 862.629 0.126126 0.736275 0
M  V30 8838 H 865.291 1.00148 1.67202 0
M  V30 8839 H 864.387 0.434451 3.09061 0
M  V30 8840 N 864.689 -1.48329 0.532571 0
M  V30 8841 C 865.652 -2.2816 -0.218069 0
M  V30 8842 C 866.652 -1.35526 -0.865409 0
M  V30 8843 O 867.842 -1.58394 -0.725061 0
M  V30 8844 C 864.974 -3.1448 -1.31586 0
M  V30 8845 H 866.167 -2.95987 0.482865 0
M  V30 8846 H 863.72 -1.53612 0.288603 0
M  V30 8847 H 864.455 -2.5129 -2.04997 0
M  V30 8848 H 864.24 -3.82625 -0.856779 0
M  V30 8849 H 865.73 -3.74693 -1.84377 0
M  V30 8850 N 866.167 -0.267825 -1.55308 0
M  V30 8851 C 867.097 0.616585 -2.25212 0
M  V30 8852 C 868.078 1.16472 -1.23969 0
M  V30 8853 O 869.263 1.20021 -1.52672 0
M  V30 8854 C 866.393 1.80412 -2.96764 0
M  V30 8855 C 865.347 1.38784 -4.04874 0
M  V30 8856 C 864.673 2.65789 -4.63961 0
M  V30 8857 C 865.973 0.543415 -5.19465 0
M  V30 8858 H 867.667 0.0336257 -2.99381 0
M  V30 8859 H 865.213 0.0147328 -1.43992 0
M  V30 8860 H 867.166 2.42866 -3.44375 0
M  V30 8861 H 865.89 2.4128 -2.20118 0
M  V30 8862 H 864.549 0.786541 -3.58063 0
M  V30 8863 H 864.197 3.24899 -3.83992 0
M  V30 8864 H 863.897 2.38651 -5.36954 0
M  V30 8865 H 865.421 3.29104 -5.14318 0
M  V30 8866 H 866.835 1.07277 -5.63174 0
M  V30 8867 H 865.232 0.367219 -5.98975 0
M  V30 8868 H 866.302 -0.439534 -4.82904 0
M  V30 8869 N 867.645 1.57599 0.00500368 0
M  V30 8870 C 868.891 1.90631 0.691919 0
M  V30 8871 C 869.224 0.868443 1.737 0
M  V30 8872 O 868.499 -0.113482 1.94169 0
M  V30 8873 C 868.782 3.34255 1.33961 0
M  V30 8874 C 868.635 4.48755 0.306413 0
M  V30 8875 C 869.954 3.77211 2.26715 0
M  V30 8876 H 867.073 0.693279 0.250066 0
M  V30 8877 H 869.715 1.89946 -0.0452634 0
M  V30 8878 H 867.865 3.3497 1.96793 0
M  V30 8879 H 869.537 4.60176 -0.321841 0
M  V30 8880 H 867.78 4.32203 -0.371852 0
M  V30 8881 H 868.451 5.46193 0.798554 0
M  V30 8882 H 870.927 3.78017 1.73904 0
M  V30 8883 H 869.803 4.78466 2.69002 0
M  V30 8884 H 870.064 3.10801 3.14413 0
M  V30 8885 N 869.123 -0.277682 1.55134 0
M  V30 8886 C 870.033 -1.36524 1.90783 0
M  V30 8887 C 871.049 -1.54283 0.804542 0
M  V30 8888 O 872.225 -1.68499 1.10318 0
M  V30 8889 C 869.29 -2.70524 2.16835 0
M  V30 8890 C 868.351 -2.61552 3.40424 0
M  V30 8891 C 867.584 -3.89162 3.65224 0
M  V30 8892 O 867.807 -4.89624 2.92616 0
M  V30 8893 O 866.741 -3.89647 4.58758 0
M  V30 8894 H 870.567 -1.0929 2.83354 0
M  V30 8895 H 868.152 -0.475799 1.41621 0
M  V30 8896 H 870.034 -3.49765 2.35038 0
M  V30 8897 H 868.709 -2.97555 1.27448 0
M  V30 8898 H 867.616 -1.80704 3.27562 0
M  V30 8899 H 868.949 -2.39472 4.30016 0
M  V30 8900 N 870.601 -1.47988 -0.541979 0
M  V30 8901 C 871.531 -1.64503 -1.65713 0
M  V30 8902 C 872.512 -0.494116 -1.62765 0
M  V30 8903 O 873.697 -0.725256 -1.80149 0
M  V30 8904 C 870.827 -1.67337 -3.04328 0
M  V30 8905 C 869.781 -2.81809 -3.2213 0
M  V30 8906 C 869.107 -2.69724 -4.61685 0
M  V30 8907 C 870.407 -4.23241 -3.06046 0
M  V30 8908 H 872.101 -2.5786 -1.52147 0
M  V30 8909 H 869.647 -1.24094 -0.730529 0
M  V30 8910 H 871.6 -1.77481 -3.82202 0
M  V30 8911 H 870.324 -0.705514 -3.18889 0
M  V30 8912 H 868.983 -2.71201 -2.46669 0
M  V30 8913 H 868.631 -1.70934 -4.73065 0
M  V30 8914 H 868.331 -3.4653 -4.74543 0
M  V30 8915 H 869.855 -2.81818 -5.41674 0
M  V30 8916 H 871.269 -4.34746 -3.73723 0
M  V30 8917 H 869.666 -5.00952 -3.30405 0
M  V30 8918 H 870.736 -4.40543 -2.02609 0
M  V30 8919 N 872.079 0.78992 -1.36375 0
M  V30 8920 C 873.495 1.0879 -1.16777 0
M  V30 8921 C 873.695 2.01498 0.00848236 0
M  V30 8922 O 872.751 2.43338 0.674007 0
M  V30 8923 C 874.064 1.70285 -2.47837 0
M  V30 8924 C 875.612 1.82629 -2.54196 0
M  V30 8925 C 876.087 2.47539 -3.85342 0
M  V30 8926 N 877.578 2.55008 -3.86685 0
M  V30 8927 C 878.313 3.06041 -4.84898 0
M  V30 8928 N 877.809 3.57385 -5.93505 0
M  V30 8929 N 879.602 3.04748 -4.72319 0
M  V30 8930 H 871.753 0.173985 -2.11686 0
M  V30 8931 H 874.016 0.139798 -0.937636 0
M  V30 8932 H 873.722 1.09633 -3.34176 0
M  V30 8933 H 873.596 2.69799 -2.63607 0
M  V30 8934 H 875.983 2.42419 -1.68276 0
M  V30 8935 H 876.064 0.81923 -2.42327 0
M  V30 8936 H 875.708 1.88393 -4.71668 0
M  V30 8937 H 875.638 3.48815 -3.94507 0
M  V30 8938 H 878.129 2.18651 -3.08221 0
M  V30 8939 H 878.442 3.94674 -6.64419 0
M  V30 8940 H 876.787 3.55538 -5.97175 0
M  V30 8941 H 879.978 2.63925 -3.86602 0
M  V30 8942 H 880.151 3.44212 -5.49019 0
M  V30 8943 N 873.557 1.20646 1.01402 0
M  V30 8944 C 874.504 0.957618 2.09996 0
M  V30 8945 C 875.474 -0.113115 1.65714 0
M  V30 8946 O 876.659 0.032142 1.90773 0
M  V30 8947 C 873.799 0.5186 3.41181 0
M  V30 8948 C 872.912 1.65777 3.98926 0
M  V30 8949 C 872.047 1.16881 5.18182 0
M  V30 8950 C 871.086 2.2809 5.68015 0
M  V30 8951 N 870.223 1.80392 6.7853 0
M  V30 8952 H 875.063 1.88732 2.30617 0
M  V30 8953 H 872.6 0.940703 1.13089 0
M  V30 8954 H 874.558 0.245367 4.16478 0
M  V30 8955 H 873.188 -0.3741 3.20625 0
M  V30 8956 H 872.24 2.04586 3.207 0
M  V30 8957 H 873.552 2.49507 4.31912 0
M  V30 8958 H 872.706 0.851694 6.00692 0
M  V30 8959 H 871.445 0.301434 4.86768 0
M  V30 8960 H 870.45 2.60614 4.84108 0
M  V30 8961 H 871.675 3.15308 6.01463 0
M  V30 8962 H 869.621 0.959856 6.4894 0
M  V30 8963 H 869.538 2.57701 7.10722 0
M  V30 8964 H 870.806 1.51688 7.64598 0
M  V30 8965 N 875.035 -1.20752 1.01276 0
M  V30 8966 C 876.284 -1.8934 0.695229 0
M  V30 8967 C 876.597 -1.79459 -0.77806 0
M  V30 8968 O 877.803 -2.43146 -1.20799 0
M  V30 8969 C 876.259 -3.39548 1.1931 0
M  V30 8970 C 875.867 -3.58023 2.69302 0
M  V30 8971 C 877.611 -4.13714 0.950823 0
M  V30 8972 C 875.518 -5.02037 3.1259 0
M  V30 8973 H 874.448 -0.709084 0.25635 0
M  V30 8974 H 877.099 -1.36629 1.22494 0
M  V30 8975 H 875.481 -3.91559 0.591395 0
M  V30 8976 H 876.655 -3.16416 3.34989 0
M  V30 8977 H 874.97 -2.97222 2.9163 0
M  V30 8978 H 877.567 -5.19891 1.24971 0
M  V30 8979 H 877.91 -4.16147 -0.112791 0
M  V30 8980 H 878.443 -3.67792 1.51571 0
M  V30 8981 H 875.182 -5.04757 4.18211 0
M  V30 8982 H 874.702 -5.44469 2.51621 0
M  V30 8983 H 876.381 -5.70594 3.0501 0
M  V30 8984 N 876.513 -0.788492 -1.36457 0
M  V30 8985 C 877.753 -0.365855 -2.01099 0
M  V30 8986 C 878.117 1.04262 -1.61225 0
M  V30 8987 O 879.318 1.56628 -2.18451 0
M  V30 8988 C 877.589 -0.523344 -3.53548 0
M  V30 8989 S 879.148 -0.188448 -4.38395 0
M  V30 8990 H 875.966 -0.139832 -0.697114 0
M  V30 8991 H 878.568 -1.02678 -1.66365 0
M  V30 8992 H 877.272 -1.54874 -3.80055 0
M  V30 8993 H 876.803 0.153547 -3.931 0
M  V30 8994 H 878.818 1.0103 -4.85806 0
M  V30 8995 N 877.991 1.48044 -0.54043 0
M  V30 8996 C 879.219 2.06895 -0.0145153 0
M  V30 8997 C 879.634 1.39552 1.27164 0
M  V30 8998 O 878.991 0.486454 1.75897 0
M  V30 8999 C 879.042 3.60934 0.202278 0
M  V30 9000 O 878.763 4.25749 -1.03293 0
M  V30 9001 C 880.264 4.36607 0.767387 0
M  V30 9002 H 877.484 0.66991 -0.0382368 0
M  V30 9003 H 880.028 1.90288 -0.749057 0
M  V30 9004 H 878.183 3.77111 0.886897 0
M  V30 9005 H 878.597 5.18048 -0.820167 0
M  V30 9006 H 880.071 5.45126 0.86845 0
M  V30 9007 H 880.548 4.01745 1.77477 0
M  V30 9008 H 881.154 4.25133 0.119002 0
M  V30 9009 N 879.47 0.276058 1.55163 0
M  V30 9010 C 880.4 -0.604633 2.25536 0
M  V30 9011 C 881.381 -1.15813 1.24585 0
M  V30 9012 O 882.566 -1.1921 1.53306 0
M  V30 9013 C 879.696 -1.78836 2.97716 0
M  V30 9014 C 878.65 -1.36635 4.05604 0
M  V30 9015 C 877.976 -2.63325 4.65364 0
M  V30 9016 C 879.276 -0.515858 5.19746 0
M  V30 9017 H 880.97 -0.0177483 2.99395 0
M  V30 9018 H 878.516 -0.00709627 1.43998 0
M  V30 9019 H 880.469 -2.41036 3.45658 0
M  V30 9020 H 879.193 -2.40109 2.21394 0
M  V30 9021 H 877.852 -0.767541 3.58475 0
M  V30 9022 H 877.5 -3.22858 3.85709 0
M  V30 9023 H 877.2 -2.358 5.38212 0
M  V30 9024 H 878.724 -3.26372 5.16056 0
M  V30 9025 H 880.138 -1.04289 5.63735 0
M  V30 9026 H 878.535 -0.335449 5.99162 0
M  V30 9027 H 879.605 0.465137 4.82664 0
M  V30 9028 N 880.948 -1.576 0.00335426 0
M  V30 9029 C 882.196 -1.90336 -0.679446 0
M  V30 9030 C 882.517 -0.877777 -1.74127 0
M  V30 9031 O 881.787 0.0843585 -1.95718 0
M  V30 9032 H 880.367 -0.702509 -0.253948 0
M  V30 9033 H 883.029 -1.94848 0.0450731 0
M  V30 9034 H 882.125 -2.90197 -1.14857 0
M  V30 9035 N 882.426 0.269451 -1.5528 0
M  V30 9036 C 883.356 1.33729 -1.91413 0
M  V30 9037 C 884.337 1.51348 -0.776391 0
M  V30 9038 O 885.522 1.64332 -1.03482 0
M  V30 9039 C 882.652 2.69618 -2.18914 0
M  V30 9040 C 881.606 2.66725 -3.34726 0
M  V30 9041 C 880.932 4.06199 -3.47716 0
M  V30 9042 C 882.232 2.25684 -4.71025 0
M  V30 9043 H 883.926 1.03736 -2.80854 0
M  V30 9044 H 881.472 0.497579 -1.3513 0
M  V30 9045 H 883.425 3.44436 -2.42779 0
M  V30 9046 H 882.149 3.01201 -1.26275 0
M  V30 9047 H 880.808 1.94365 -3.10834 0
M  V30 9048 H 880.456 4.3501 -2.52537 0
M  V30 9049 H 880.156 4.05157 -4.25583 0
M  V30 9050 H 881.68 4.8275 -3.73877 0
M  V30 9051 H 883.094 2.90225 -4.94411 0
M  V30 9052 H 881.491 2.35797 -5.51833 0
M  V30 9053 H 882.561 1.20819 -4.69607 0
M  V30 9054 N 883.904 1.48273 0.534124 0
M  V30 9055 C 884.836 1.5857 1.65494 0
M  V30 9056 C 885.849 0.470266 1.5586 0
M  V30 9057 O 887.038 0.740928 1.62396 0
M  V30 9058 C 884.138 1.49554 3.04117 0
M  V30 9059 C 883.311 2.76066 3.39273 0
M  V30 9060 C 882.37 2.60562 4.57159 0
M  V30 9061 O 881.396 3.34438 4.60587 0
M  V30 9062 N 882.598 1.69906 5.55079 0
M  V30 9063 H 885.363 2.55226 1.57099 0
M  V30 9064 H 882.924 1.44944 0.721303 0
M  V30 9065 H 884.916 1.36882 3.80848 0
M  V30 9066 H 883.486 0.608895 3.06613 0
M  V30 9067 H 882.706 3.03332 2.51761 0
M  V30 9068 H 883.994 3.60006 3.59546 0
M  V30 9069 H 883.392 1.09079 5.55084 0
M  V30 9070 H 881.949 1.63175 6.31044 0
M  V30 9071 N 885.382 -0.782676 1.36792 0
M  V30 9072 C 886.798 -1.08169 1.17352 0
M  V30 9073 C 886.998 -2.015 0.0022037 0
M  V30 9074 O 886.054 -2.43692 -0.661093 0
M  V30 9075 C 887.367 -1.68969 2.48737 0
M  V30 9076 C 888.915 -1.81278 2.55161 0
M  V30 9077 C 889.39 -2.45492 3.86649 0
M  V30 9078 N 890.881 -2.52954 3.88032 0
M  V30 9079 C 891.616 -3.03465 4.86515 0
M  V30 9080 N 891.112 -3.54232 5.95392 0
M  V30 9081 N 892.905 -3.02239 4.73928 0
M  V30 9082 H 885.056 -0.162757 2.11775 0
M  V30 9083 H 887.319 -0.134823 0.938364 0
M  V30 9084 H 887.025 -1.07859 3.34753 0
M  V30 9085 H 886.899 -2.68397 2.65034 0
M  V30 9086 H 889.286 -2.41524 1.69559 0
M  V30 9087 H 889.367 -0.806367 2.42758 0
M  V30 9088 H 889.011 -1.85889 4.7266 0
M  V30 9089 H 888.941 -3.46718 3.96351 0
M  V30 9090 H 891.432 -2.17014 3.09376 0
M  V30 9091 H 891.745 -3.91145 6.66503 0
M  V30 9092 H 890.09 -3.52366 5.99052 0
M  V30 9093 H 893.281 -2.61871 3.87996 0
M  V30 9094 H 893.454 -3.41295 5.50837 0
M  V30 9095 N 886.86 -1.21182 -1.00761 0
M  V30 9096 C 888.109 -1.02166 -1.73911 0
M  V30 9097 C 888.422 0.445638 -1.90456 0
M  V30 9098 O 889.628 0.755132 -2.60787 0
M  V30 9099 C 888.084 -1.77936 -3.12837 0
M  V30 9100 C 887.692 -3.28819 -3.04273 0
M  V30 9101 C 889.436 -1.67319 -3.90134 0
M  V30 9102 C 887.343 -3.97089 -4.38262 0
M  V30 9103 H 886.273 -0.378665 -0.652019 0
M  V30 9104 H 888.924 -1.44891 -1.12601 0
M  V30 9105 H 887.306 -1.28003 -3.74742 0
M  V30 9106 H 888.48 -3.86035 -2.51622 0
M  V30 9107 H 886.795 -3.39949 -2.40465 0
M  V30 9108 H 889.392 -2.15659 -4.8928 0
M  V30 9109 H 889.735 -0.630959 -4.11491 0
M  V30 9110 H 890.268 -2.14716 -3.34876 0
M  V30 9111 H 887.007 -5.01503 -4.22107 0
M  V30 9112 H 886.527 -3.44662 -4.90885 0
M  V30 9113 H 888.206 -4.01854 -5.07072 0
M  V30 9114 N 888.338 1.20213 -1.01915 0
M  V30 9115 C 889.585 1.89647 -0.709955 0
M  V30 9116 C 889.913 1.7901 0.760631 0
M  V30 9117 O 889.168 1.17028 1.56853 0
M  V30 9118 C 889.467 3.40232 -1.09438 0
M  V30 9119 C 889.133 3.7107 -2.5616 0
M  V30 9120 C 887.795 3.79196 -2.96249 0
M  V30 9121 C 890.147 3.85169 -3.51133 0
M  V30 9122 C 887.475 3.98882 -4.30244 0
M  V30 9123 C 889.827 4.06365 -4.8482 0
M  V30 9124 C 888.491 4.12722 -5.24611 0
M  V30 9125 H 887.761 0.693967 -0.259791 0
M  V30 9126 H 890.408 1.42419 -1.2802 0
M  V30 9127 H 888.713 3.89292 -0.442596 0
M  V30 9128 H 890.41 3.92257 -0.832811 0
M  V30 9129 H 887 3.65346 -2.24099 0
M  V30 9130 H 891.184 3.78243 -3.21319 0
M  V30 9131 H 886.44 4.02039 -4.60624 0
M  V30 9132 H 890.614 4.16216 -5.58334 0
M  V30 9133 H 888.241 4.27728 -6.28453 0
M  V30 9134 N 889.816 0.795718 1.36037 0
M  V30 9135 C 891.046 0.382597 2.03026 0
M  V30 9136 C 891.454 -1.00779 1.60126 0
M  V30 9137 O 890.797 -1.65884 0.78919 0
M  V30 9138 C 890.859 0.374145 3.57548 0
M  V30 9139 C 890.523 1.71318 4.23673 0
M  V30 9140 C 891.52 2.6697 4.4612 0
M  V30 9141 C 889.205 1.99421 4.61017 0
M  V30 9142 C 891.199 3.88916 5.04998 0
M  V30 9143 C 888.886 3.21632 5.19611 0
M  V30 9144 C 889.884 4.16198 5.41542 0
M  V30 9145 O 889.572 5.36254 5.98905 0
M  V30 9146 H 889.304 0.154944 0.658003 0
M  V30 9147 H 891.858 1.07756 1.74865 0
M  V30 9148 H 890.088 -0.377349 3.84854 0
M  V30 9149 H 891.777 -0.01517 4.05897 0
M  V30 9150 H 892.543 2.46548 4.17659 0
M  V30 9151 H 888.422 1.2663 4.43267 0
M  V30 9152 H 891.966 4.6274 5.22032 0
M  V30 9153 H 887.863 3.4193 5.47498 0
M  V30 9154 H 888.631 5.37403 6.17366 0
M  V30 9155 N 891.294 -1.47756 0.548274 0
M  V30 9156 C 892.224 -2.32702 -0.19284 0
M  V30 9157 C 893.205 -1.43237 -0.917457 0
M  V30 9158 O 894.39 -1.72103 -0.89967 0
M  V30 9159 C 891.52 -3.24831 -1.22891 0
M  V30 9160 C 890.474 -4.23466 -0.621312 0
M  V30 9161 C 889.8 -5.04856 -1.76137 0
M  V30 9162 C 891.1 -5.20616 0.419055 0
M  V30 9163 H 892.794 -2.94914 0.516323 0
M  V30 9164 H 890.34 -1.41818 0.24975 0
M  V30 9165 H 892.293 -3.83094 -1.75547 0
M  V30 9166 H 891.017 -2.60656 -1.9679 0
M  V30 9167 H 889.676 -3.66416 -0.116123 0
M  V30 9168 H 889.324 -4.37091 -2.48918 0
M  V30 9169 H 889.024 -5.71629 -1.36065 0
M  V30 9170 H 890.548 -5.65976 -2.29136 0
M  V30 9171 H 891.962 -5.73296 -0.0211034 0
M  V30 9172 H 890.359 -5.95543 0.738163 0
M  V30 9173 H 891.429 -4.66638 1.31822 0
M  V30 9174 N 892.772 -0.284283 -1.55015 0
M  V30 9175 C 893.719 0.599194 -2.22886 0
M  V30 9176 C 894.689 1.14264 -1.20553 0
M  V30 9177 O 895.874 1.19025 -1.49123 0
M  V30 9178 C 893.014 1.77317 -2.96062 0
M  V30 9179 C 892.127 1.26271 -4.13134 0
M  V30 9180 C 891.262 2.39922 -4.73931 0
M  V30 9181 C 890.301 1.85925 -5.8318 0
M  V30 9182 N 889.438 2.93084 -6.38002 0
M  V30 9183 H 894.278 0.0137816 -2.97997 0
M  V30 9184 H 891.815 -0.00496503 -1.47099 0
M  V30 9185 H 893.773 2.46339 -3.36709 0
M  V30 9186 H 892.403 2.33047 -2.23358 0
M  V30 9187 H 891.455 0.465296 -3.77544 0
M  V30 9188 H 892.767 0.827284 -4.91892 0
M  V30 9189 H 891.921 3.1692 -5.17346 0
M  V30 9190 H 890.66 2.86784 -3.9447 0
M  V30 9191 H 889.665 1.07409 -5.39206 0
M  V30 9192 H 890.89 1.39987 -6.64515 0
M  V30 9193 H 888.836 3.3931 -5.61431 0
M  V30 9194 H 888.753 2.53986 -7.12058 0
M  V30 9195 H 890.021 3.7003 -6.86075 0
M  V30 9196 N 894.251 1.57596 -0.0117121 0
M  V30 9197 C 895.181 2.12188 0.9746 0
M  V30 9198 C 896.162 1.03379 1.35081 0
M  V30 9199 O 897.347 1.31123 1.4325 0
M  V30 9200 C 894.477 2.63477 2.26268 0
M  V30 9201 C 893.431 3.76917 2.02774 0
M  V30 9202 C 892.757 4.14566 3.37697 0
M  V30 9203 C 894.057 5.03715 1.38089 0
M  V30 9204 H 895.751 2.9485 0.520007 0
M  V30 9205 H 893.297 1.41836 0.248685 0
M  V30 9206 H 895.25 3.00299 2.95633 0
M  V30 9207 H 893.974 1.77953 2.73862 0
M  V30 9208 H 892.633 3.40507 1.35832 0
M  V30 9209 H 892.281 3.26048 3.83016 0
M  V30 9210 H 891.981 4.91 3.22789 0
M  V30 9211 H 893.505 4.53956 4.08358 0
M  V30 9212 H 894.919 5.38233 1.97428 0
M  V30 9213 H 893.316 5.85032 1.33634 0
M  V30 9214 H 894.386 4.83624 0.351575 0
M  V30 9215 N 895.729 -0.261212 1.5542 0
M  V30 9216 C 896.639 -1.34493 1.92221 0
M  V30 9217 C 897.655 -1.53421 0.82086 0
M  V30 9218 O 898.831 -1.6732 1.12099 0
M  V30 9219 C 895.896 -2.68209 2.19692 0
M  V30 9220 C 894.957 -2.57927 3.43179 0
M  V30 9221 C 894.19 -3.85266 3.69331 0
M  V30 9222 O 894.413 -4.86493 2.97793 0
M  V30 9223 O 893.347 -3.8476 4.62865 0
M  V30 9224 H 897.173 -1.06278 2.84497 0
M  V30 9225 H 894.758 -0.460752 1.42118 0
M  V30 9226 H 896.64 -3.47252 2.38734 0
M  V30 9227 H 895.315 -2.96186 1.30597 0
M  V30 9228 H 894.222 -1.77219 3.2946 0
M  V30 9229 H 895.555 -2.34898 4.32532 0
M  V30 9230 N 897.207 -1.48554 -0.526253 0
M  V30 9231 C 898.484 -1.47252 -1.28748 0
M  V30 9232 C 898.864 -0.186245 -2.10277 0
M  V30 9233 O 898.212 0.831954 -2.12816 0
M  V30 9234 C 898.422 -2.73672 -2.16575 0
M  V30 9235 C 899.77 -3.22151 -2.76593 0
M  V30 9236 O 900.794 -2.74614 -2.2686 0
M  V30 9237 O 899.653 -4.04877 -3.67066 0
M  V30 9238 H 896.747 -0.588242 -0.581292 0
M  V30 9239 H 899.293 -1.60792 -0.5426 0
M  V30 9240 H 898.065 -3.58798 -1.56139 0
M  V30 9241 H 897.688 -2.6287 -2.98304 0
M  V30 9242 N 898.685 0.775411 -1.37205 0
M  V30 9243 C 899.615 1.90258 -1.35367 0
M  V30 9244 C 900.596 1.68634 -0.222864 0
M  V30 9245 O 901.781 1.89545 -0.422659 0
M  V30 9246 C 898.911 3.27488 -1.15623 0
M  V30 9247 C 897.865 3.63668 -2.25676 0
M  V30 9248 C 897.191 4.994 -1.91059 0
M  V30 9249 C 898.491 3.70797 -3.67841 0
M  V30 9250 H 900.185 1.92053 -2.29687 0
M  V30 9251 H 897.731 0.922597 -1.10563 0
M  V30 9252 H 899.684 4.05976 -1.12968 0
M  V30 9253 H 898.408 3.26117 -0.177573 0
M  V30 9254 H 897.067 2.87486 -2.2748 0
M  V30 9255 H 896.715 4.94565 -0.917324 0
M  V30 9256 H 896.415 5.24576 -2.64751 0
M  V30 9257 H 897.939 5.80291 -1.89985 0
M  V30 9258 H 899.353 4.39444 -3.68187 0
M  V30 9259 H 897.75 4.07468 -4.40556 0
M  V30 9260 H 898.82 2.71549 -4.01732 0
M  V30 9261 N 900.163 1.21714 1.00117 0
M  V30 9262 C 901.409 1.03823 1.74208 0
M  V30 9263 C 901.742 -0.426733 1.89454 0
M  V30 9264 O 901.017 -1.31658 1.43166 0
M  V30 9265 C 901.3 1.74047 3.15246 0
M  V30 9266 C 901.153 3.28087 3.077 0
M  V30 9267 C 902.472 1.48614 4.14249 0
M  V30 9268 H 899.591 0.378573 0.632338 0
M  V30 9269 H 902.233 1.49942 1.16694 0
M  V30 9270 H 900.383 1.3484 3.64349 0
M  V30 9271 H 902.055 3.76686 2.6628 0
M  V30 9272 H 900.298 3.58191 2.44707 0
M  V30 9273 H 900.969 3.72392 4.07466 0
M  V30 9274 H 903.445 1.82656 3.73866 0
M  V30 9275 H 902.321 2.00257 5.11066 0
M  V30 9276 H 902.582 0.416957 4.40129 0
M  V30 9277 N 901.641 -1.19671 1.02551 0
M  V30 9278 C 902.866 -1.93774 0.739363 0
M  V30 9279 C 903.291 -1.74787 -0.695064 0
M  V30 9280 O 902.649 -1.04796 -1.47944 0
M  V30 9281 C 902.697 -3.43684 1.09149 0
M  V30 9282 O 901.801 -4.11874 0.208213 0
M  V30 9283 H 901.142 -0.605064 0.273484 0
M  V30 9284 H 903.672 -1.51846 1.37128 0
M  V30 9285 H 903.682 -3.94339 1.04695 0
M  V30 9286 H 902.357 -3.56826 2.13654 0
M  V30 9287 H 900.934 -3.716 0.311045 0
M  V30 9288 N 903.119 -0.802921 -1.35613 0
M  V30 9289 C 904.53 -0.443004 -1.81368 0
M  V30 9290 C 904.881 1.03459 -1.66706 0
M  V30 9291 O 904.006 1.80372 -1.19561 0
M  V30 9292 C 904.601 -0.797324 -3.29284 0
M  V30 9293 C 903.16 -0.490055 -3.73196 0
M  V30 9294 C 902.307 -1.02487 -2.57666 0
M  V30 9295 H 905.258 -0.994888 -1.23643 0
M  V30 9296 H 905.279 -0.0934638 -3.80385 0
M  V30 9297 H 904.791 -1.87278 -3.39924 0
M  V30 9298 H 902.892 0.576818 -3.68108 0
M  V30 9299 H 903.005 -1.02012 -4.68114 0
M  V30 9300 H 901.369 -0.44738 -2.5074 0
M  V30 9301 H 902.152 -2.10636 -2.71085 0
M  V30 9302 N 904.597 1.47463 -0.556102 0
M  V30 9303 C 906.008 1.86298 -0.122429 0
M  V30 9304 C 906.359 1.46285 1.30749 0
M  V30 9305 O 905.484 0.865405 1.98342 0
M  V30 9306 C 906.079 3.38115 -0.215407 0
M  V30 9307 C 904.638 3.76046 0.163223 0
M  V30 9308 C 903.785 2.71515 -0.563466 0
M  V30 9309 H 906.736 1.38996 -0.765888 0
M  V30 9310 H 906.757 3.76263 0.566271 0
M  V30 9311 H 906.269 3.67207 -1.25622 0
M  V30 9312 H 904.37 3.5257 1.20519 0
M  V30 9313 H 904.483 4.78705 -0.194568 0
M  V30 9314 H 902.847 2.54699 -0.00667879 0
M  V30 9315 H 903.63 3.03449 -1.60542 0
M  V30 9316 N 906.075 0.2925 1.54862 0
M  V30 9317 C 907.3 -0.32494 2.04839 0
M  V30 9318 C 907.725 -1.47381 1.16877 0
M  V30 9319 O 907.083 -1.80492 0.171028 0
M  V30 9320 C 907.131 -0.76694 3.5235 0
M  V30 9321 O 906.235 -1.87256 3.67436 0
M  V30 9322 H 905.576 -0.0645195 0.660858 0
M  V30 9323 H 908.106 0.431867 1.9999 0
M  V30 9324 H 908.116 -1.05804 3.94043 0
M  V30 9325 H 906.791 0.0735212 4.15835 0
M  V30 9326 H 905.368 -1.58266 3.37648 0
M  V30 9327 N 907.553 -1.57587 0.0200696 0
M  V30 9328 C 908.802 -1.90602 -0.659822 0
M  V30 9329 C 909.115 -0.897216 -1.73808 0
M  V30 9330 O 910.321 -1.11829 -2.47399 0
M  V30 9331 C 908.777 -3.38416 -1.22484 0
M  V30 9332 C 908.385 -4.47637 -0.180339 0
M  V30 9333 C 910.129 -3.80513 -1.88176 0
M  V30 9334 C 908.036 -5.86542 -0.756482 0
M  V30 9335 H 906.966 -0.711272 -0.250216 0
M  V30 9336 H 909.617 -1.83308 0.0838942 0
M  V30 9337 H 907.999 -3.40613 -2.01987 0
M  V30 9338 H 909.173 -4.56987 0.591573 0
M  V30 9339 H 907.488 -4.14687 0.377302 0
M  V30 9340 H 910.085 -4.8164 -2.32222 0
M  V30 9341 H 910.428 -3.15091 -2.72073 0
M  V30 9342 H 910.961 -3.80701 -1.15377 0
M  V30 9343 H 907.7 -6.55485 0.0441468 0
M  V30 9344 H 907.22 -5.80816 -1.49709 0
M  V30 9345 H 908.899 -6.3483 -1.249 0
M  V30 9346 N 909.032 0.252966 -1.55557 0
M  V30 9347 C 910.281 0.979736 -1.76307 0
M  V30 9348 C 910.594 1.86714 -0.582871 0
M  V30 9349 O 911.8 2.6302 -0.673247 0
M  V30 9350 C 910.256 1.79205 -3.12112 0
M  V30 9351 C 909.864 0.952333 -4.37761 0
M  V30 9352 C 911.608 2.51191 -3.42203 0
M  V30 9353 C 909.515 1.76018 -5.64599 0
M  V30 9354 H 908.445 0.369538 -0.657235 0
M  V30 9355 H 911.096 0.234619 -1.81994 0
M  V30 9356 H 909.478 2.57888 -3.00515 0
M  V30 9357 H 910.652 0.208251 -4.60329 0
M  V30 9358 H 908.967 0.346082 -4.14959 0
M  V30 9359 H 911.564 3.12074 -4.34182 0
M  V30 9360 H 911.907 3.22499 -2.63249 0
M  V30 9361 H 912.44 1.79523 -3.54988 0
M  V30 9362 H 909.179 1.09095 -6.46358 0
M  V30 9363 H 908.699 2.4797 -5.46142 0
M  V30 9364 H 910.378 2.32884 -6.03634 0
M  V30 9365 N 910.51 1.48831 0.518367 0
M  V30 9366 C 911.787 1.47933 1.27966 0
M  V30 9367 C 912.167 0.197393 2.10175 0
M  V30 9368 O 911.515 -0.820656 2.13255 0
M  V30 9369 C 911.725 2.74816 2.15121 0
M  V30 9370 C 913.073 3.23613 2.74881 0
M  V30 9371 O 914.097 2.75814 2.254 0
M  V30 9372 O 912.956 4.06818 3.64913 0
M  V30 9373 H 910.05 0.591316 0.578164 0
M  V30 9374 H 912.596 1.61077 0.534065 0
M  V30 9375 H 911.368 3.59621 1.54234 0
M  V30 9376 H 910.991 2.64449 2.96905 0
M  V30 9377 N 911.988 -0.768124 1.37614 0
M  V30 9378 C 912.935 -1.88151 1.33671 0
M  V30 9379 C 913.905 -1.64871 0.201645 0
M  V30 9380 O 915.09 -1.86739 0.391582 0
M  V30 9381 C 912.23 -3.25264 1.15314 0
M  V30 9382 C 911.343 -3.60473 2.38082 0
M  V30 9383 C 910.478 -4.86814 2.12569 0
M  V30 9384 C 909.517 -5.14765 3.31184 0
M  V30 9385 N 908.654 -6.32295 3.052 0
M  V30 9386 H 913.494 -1.90857 2.28862 0
M  V30 9387 H 911.031 -0.933048 1.13722 0
M  V30 9388 H 912.989 -4.04364 1.02691 0
M  V30 9389 H 911.619 -3.21924 0.237689 0
M  V30 9390 H 910.671 -2.7633 2.61431 0
M  V30 9391 H 911.983 -3.77065 3.26532 0
M  V30 9392 H 911.137 -5.73826 1.96999 0
M  V30 9393 H 909.876 -4.72333 1.21462 0
M  V30 9394 H 908.881 -4.26227 3.4729 0
M  V30 9395 H 910.106 -5.31153 4.23147 0
M  V30 9396 H 908.052 -6.19166 2.16726 0
M  V30 9397 H 907.969 -6.4932 3.87195 0
M  V30 9398 H 909.237 -7.22234 2.93254 0
M  V30 9399 N 913.466 -1.22244 -0.994698 0
M  V30 9400 C 914.396 -1.01513 -2.10279 0
M  V30 9401 C 915.377 0.0633365 -1.69982 0
M  V30 9402 O 916.562 -0.0985268 -1.9395 0
M  V30 9403 C 913.692 -0.59016 -3.42249 0
M  V30 9404 C 912.646 -1.61436 -3.96387 0
M  V30 9405 C 911.972 -1.04528 -5.24383 0
M  V30 9406 C 913.272 -3.00388 -4.27276 0
M  V30 9407 H 914.966 -1.94194 -2.2788 0
M  V30 9408 H 912.512 -0.935094 -1.09508 0
M  V30 9409 H 914.465 -0.432254 -4.19177 0
M  V30 9410 H 913.189 0.372308 -3.24471 0
M  V30 9411 H 911.848 -1.76001 -3.21589 0
M  V30 9412 H 911.496 -0.0742225 -5.02945 0
M  V30 9413 H 911.196 -1.72949 -5.61571 0
M  V30 9414 H 912.72 -0.898922 -6.03947 0
M  V30 9415 H 914.134 -2.89207 -4.95007 0
M  V30 9416 H 912.531 -3.65916 -4.75631 0
M  V30 9417 H 913.601 -3.50456 -3.35125 0
M  V30 9418 N 914.944 1.19125 -1.03184 0
M  V30 9419 C 916.191 1.88883 -0.730029 0
M  V30 9420 C 916.519 1.79807 0.741602 0
M  V30 9421 O 915.774 1.18686 1.55603 0
M  V30 9422 C 916.073 3.39052 -1.13041 0
M  V30 9423 C 915.739 3.68332 -2.60082 0
M  V30 9424 C 914.401 3.76033 -3.00254 0
M  V30 9425 C 916.753 3.81423 -3.55199 0
M  V30 9426 C 914.081 3.94296 -4.34451 0
M  V30 9427 C 916.433 4.012 -4.89103 0
M  V30 9428 C 915.097 4.07134 -5.28959 0
M  V30 9429 H 914.367 0.691172 -0.267137 0
M  V30 9430 H 917.014 1.41053 -1.29523 0
M  V30 9431 H 915.319 3.88801 -0.48386 0
M  V30 9432 H 917.016 3.91351 -0.874368 0
M  V30 9433 H 913.606 3.62948 -2.27961 0
M  V30 9434 H 917.79 3.74814 -3.25313 0
M  V30 9435 H 913.046 3.97131 -4.64863 0
M  V30 9436 H 917.22 4.10271 -5.62717 0
M  V30 9437 H 914.847 4.21038 -6.32954 0
M  V30 9438 N 916.422 0.810101 1.35185 0
M  V30 9439 C 917.352 0.237453 2.32289 0
M  V30 9440 C 918.333 -0.639032 1.5764 0
M  V30 9441 O 919.518 -0.568575 1.8569 0
M  V30 9442 C 916.648 -0.611964 3.41866 0
M  V30 9443 C 915.602 0.166318 4.27677 0
M  V30 9444 C 914.928 -0.805024 5.28605 0
M  V30 9445 C 916.228 1.36729 5.04086 0
M  V30 9446 H 917.922 1.04874 2.80432 0
M  V30 9447 H 915.468 0.505751 1.34826 0
M  V30 9448 H 917.421 -1.02267 4.08802 0
M  V30 9449 H 916.145 -1.45617 2.92341 0
M  V30 9450 H 914.804 0.558238 3.62325 0
M  V30 9451 H 914.452 -1.64483 4.75347 0
M  V30 9452 H 914.152 -0.288577 5.86891 0
M  V30 9453 H 915.676 -1.21386 5.98413 0
M  V30 9454 H 917.09 1.03128 5.63948 0
M  V30 9455 H 915.487 1.81848 5.71884 0
M  V30 9456 H 916.557 2.15214 4.34524 0
M  V30 9457 N 917.9 -1.47166 0.563914 0
M  V30 9458 C 919.177 -1.95586 -0.0236172 0
M  V30 9459 C 919.557 -1.50655 -1.47872 0
M  V30 9460 O 918.905 -0.748479 -2.15894 0
M  V30 9461 C 919.115 -3.48762 0.128841 0
M  V30 9462 C 920.463 -4.24598 -0.0130544 0
M  V30 9463 O 921.487 -3.56155 0.0567242 0
M  V30 9464 O 920.346 -5.46253 -0.164332 0
M  V30 9465 H 917.44 -0.824793 -0.0603789 0
M  V30 9466 H 919.986 -1.57536 0.63091 0
M  V30 9467 H 918.758 -3.74291 1.14113 0
M  V30 9468 H 918.381 -3.93594 -0.56299 0
M  V30 9469 N 919.378 -0.300708 -1.54705 0
M  V30 9470 C 920.606 0.31127 -2.04545 0
M  V30 9471 C 921.021 1.47542 -1.178 0
M  V30 9472 O 920.378 1.81361 -0.203571 0
M  V30 9473 C 920.429 0.767783 -3.53253 0
M  V30 9474 O 920.15 -0.350027 -4.36699 0
M  V30 9475 C 921.651 1.44494 -4.1909 0
M  V30 9476 H 918.871 0.067668 -0.667579 0
M  V30 9477 H 921.415 -0.440254 -1.99705 0
M  V30 9478 H 919.57 1.46933 -3.58454 0
M  V30 9479 H 919.984 0.00534038 -5.245 0
M  V30 9480 H 921.458 1.71553 -5.24665 0
M  V30 9481 H 921.935 2.3849 -3.68808 0
M  V30 9482 H 922.541 0.786581 -4.17963 0
M  V30 9483 N 920.856 1.57574 -0.0284266 0
M  V30 9484 C 921.786 2.1321 0.952039 0
M  V30 9485 C 922.767 1.04806 1.33977 0
M  V30 9486 O 923.952 1.32635 1.41851 0
M  V30 9487 C 921.082 2.65862 2.23461 0
M  V30 9488 C 920.036 3.79047 1.98765 0
M  V30 9489 C 919.362 4.18124 3.33281 0
M  V30 9490 C 920.662 5.05151 1.32739 0
M  V30 9491 H 922.356 2.95385 0.488705 0
M  V30 9492 H 919.902 1.42092 0.233628 0
M  V30 9493 H 921.855 3.03417 2.92431 0
M  V30 9494 H 920.579 1.80848 2.71959 0
M  V30 9495 H 919.238 3.41929 1.32213 0
M  V30 9496 H 918.886 3.30092 3.79537 0
M  V30 9497 H 918.586 4.94396 3.17563 0
M  V30 9498 H 920.11 4.58262 4.0352 0
M  V30 9499 H 921.524 5.40297 1.91708 0
M  V30 9500 H 919.921 5.86416 1.27421 0
M  V30 9501 H 920.991 4.83969 0.300261 0
M  V30 9502 N 922.334 -0.244713 1.55689 0
M  V30 9503 C 923.745 -0.813603 1.6804 0
M  V30 9504 C 924.096 -1.85936 0.626281 0
M  V30 9505 O 923.221 -2.15206 -0.227038 0
M  V30 9506 C 923.816 -1.48252 3.04642 0
M  V30 9507 C 922.375 -1.99908 3.18926 0
M  V30 9508 C 921.522 -0.850958 2.6392 0
M  V30 9509 H 924.473 -0.0204805 1.58687 0
M  V30 9510 H 924.494 -2.35062 2.99209 0
M  V30 9511 H 924.006 -0.721164 3.81341 0
M  V30 9512 H 922.107 -2.78918 2.47054 0
M  V30 9513 H 922.22 -2.19497 4.25862 0
M  V30 9514 H 920.584 -1.25206 2.21801 0
M  V30 9515 H 921.367 -0.10265 3.43146 0
M  V30 9516 N 923.813 -1.49104 -0.510467 0
M  V30 9517 C 925.06 -1.58112 -1.26518 0
M  V30 9518 C 925.388 -0.263603 -1.92705 0
M  V30 9519 O 924.643 0.747743 -1.80852 0
M  V30 9520 C 924.942 -2.68259 -2.36161 0
M  V30 9521 C 924.608 -4.10069 -1.87495 0
M  V30 9522 C 923.27 -4.48662 -1.73942 0
M  V30 9523 C 925.622 -4.98859 -1.5096 0
M  V30 9524 C 922.95 -5.73829 -1.22217 0
M  V30 9525 C 925.302 -6.24535 -1.00691 0
M  V30 9526 C 923.966 -6.61967 -0.857691 0
M  V30 9527 H 923.236 -0.578574 -0.462962 0
M  V30 9528 H 925.883 -1.82899 -0.567475 0
M  V30 9529 H 924.188 -2.37407 -3.11681 0
M  V30 9530 H 925.885 -2.7244 -2.9424 0
M  V30 9531 H 922.475 -3.79601 -1.99001 0
M  V30 9532 H 926.659 -4.69706 -1.60282 0
M  V30 9533 H 921.915 -6.01539 -1.09368 0
M  V30 9534 H 926.089 -6.9272 -0.71498 0
M  V30 9535 H 923.716 -7.58839 -0.454702 0
M  V30 9536 O 925.33 0.655661 -1.47592 0
M  V30 9537 H 926.021 1.30903 -1.42773 0
M  V30 END ATOM
M  V30 BEGIN BOND
M  V30 END BOND
M  V30 END CTAB
M  END
$$$$
