drugbank_target|P02747 Complement C1q subcomponent subunit C (DB00002; DB00110; DB00111; DB00112; DB01593; DB09130; DB14487; DB14533; DB14548)
 OpenBabel12092120043D

  0  0  0     0  0            999 V3000
M  V30 BEGIN CTAB
M  V30 COUNTS 3627 3683 0 0 0
M  V30 BEGIN ATOM
M  V30 1 H -0.908 1.98254 -0.117106 0
M  V30 2 N 0 1.576 0 0
M  V30 3 C 0.933 2.03868 1.02534 0
M  V30 4 C 1.911 0.928543 1.3348 0
M  V30 5 O 3.095 1.19667 1.45644 0
M  V30 6 C 0.222 2.43627 2.35294 0
M  V30 7 C -0.732 3.65373 2.2001 0
M  V30 8 S 0.101 5.13292 1.52614 0
M  V30 9 C 1.257 5.56322 2.86805 0
M  V30 10 H 1.49 2.90518 0.631377 0
M  V30 11 H -0.977 1.52953 0.210867 0
M  V30 12 H 0.981 2.67203 3.11629 0
M  V30 13 H -0.358 1.57376 2.7183 0
M  V30 14 H -1.165 3.90944 3.18086 0
M  V30 15 H -1.563 3.418 1.51819 0
M  V30 16 H 0.729 5.58782 3.83104 0
M  V30 17 H 1.672 6.56266 2.65933 0
M  V30 18 H 2.08 4.83886 2.90714 0
M  V30 19 N 1.4781 -0.272755 1.55222 0
M  V30 20 C 2.7551 -1.02562 1.66555 0
M  V30 21 C 3.1351 -2.04282 0.532189 0
M  V30 22 O 2.4831 -2.23662 -0.467717 0
M  V30 23 C 2.6931 -1.6822 3.05782 0
M  V30 24 C 4.0411 -2.19373 3.63539 0
M  V30 25 O 5.0651 -1.78206 3.08417 0
M  V30 26 O 3.9241 -2.94883 4.60115 0
M  V30 27 H 1.0181 -0.475755 0.676451 0
M  V30 28 H 3.5641 -0.268593 1.67561 0
M  V30 29 H 2.3361 -0.945112 3.79715 0
M  V30 30 H 1.9591 -2.50609 3.08676 0
M  V30 31 N 2.9562 -1.48159 -0.537278 0
M  V30 32 C 4.2022 -1.56035 -1.29541 0
M  V30 33 C 4.5352 -0.230377 -1.92829 0
M  V30 34 O 3.8102 0.762952 -1.78911 0
M  V30 35 C 4.0932 -2.69323 -2.39034 0
M  V30 36 C 3.9462 -4.12002 -1.80485 0
M  V30 37 C 5.2652 -2.78408 -3.40847 0
M  V30 38 H 2.3842 -0.567992 -0.469632 0
M  V30 39 H 5.0262 -1.80302 -0.599277 0
M  V30 40 H 3.1762 -2.48763 -2.98412 0
M  V30 41 H 4.8482 -4.43981 -1.25215 0
M  V30 42 H 3.0912 -4.19344 -1.11055 0
M  V30 43 H 3.7622 -4.87077 -2.59731 0
M  V30 44 H 6.2382 -2.97012 -2.91416 0
M  V30 45 H 5.1142 -3.59416 -4.14863 0
M  V30 46 H 5.3752 -1.86269 -4.00944 0
M  V30 47 N 4.4343 0.785586 -1.36625 0
M  V30 48 C 5.6823 1.54057 -1.30808 0
M  V30 49 C 6.0033 1.94683 0.111157 0
M  V30 50 O 5.2733 1.65241 1.05224 0
M  V30 51 H 3.8533 0.571354 -0.481211 0
M  V30 52 H 6.5153 0.935821 -1.70963 0
M  V30 53 H 5.6113 2.44637 -1.93801 0
M  V30 54 N 5.9124 1.20967 1.01018 0
M  V30 55 C 7.3234 1.02319 1.56165 0
M  V30 56 C 7.6744 -0.418546 1.91684 0
M  V30 57 O 6.7994 -1.30096 1.72928 0
M  V30 58 C 7.3944 1.85109 2.8376 0
M  V30 59 C 5.9534 1.70809 3.35412 0
M  V30 60 C 5.1004 1.82643 2.08655 0
M  V30 61 H 8.0514 1.35065 0.833255 0
M  V30 62 H 8.0724 1.35827 3.55431 0
M  V30 63 H 7.5844 2.90035 2.57878 0
M  V30 64 H 5.6854 0.685464 3.66241 0
M  V30 65 H 5.7984 2.52467 4.07182 0
M  V30 66 H 4.1624 1.25896 2.21409 0
M  V30 67 H 4.9454 2.89066 1.85191 0
M  V30 68 N 7.3905 -1.2043 1.01659 0
M  V30 69 C 8.6155 -1.94318 0.724942 0
M  V30 70 C 9.0405 -1.74266 -0.708034 0
M  V30 71 O 8.3985 -1.03694 -1.48719 0
M  V30 72 C 8.4465 -3.44486 1.06591 0
M  V30 73 O 7.5505 -4.12017 0.177599 0
M  V30 74 H 6.8915 -0.60708 0.26898 0
M  V30 75 H 9.4215 -1.52861 1.35995 0
M  V30 76 H 9.4315 -3.95106 1.01762 0
M  V30 77 H 8.1065 -3.58404 2.10997 0
M  V30 78 H 6.6835 -3.71821 0.283421 0
M  V30 79 N 8.8686 -0.792821 -1.36206 0
M  V30 80 C 10.0936 -0.377701 -2.03932 0
M  V30 81 C 10.5186 0.998947 -1.59382 0
M  V30 82 O 9.8766 1.64421 -0.763903 0
M  V30 83 C 9.9246 -0.453635 -3.57735 0
M  V30 84 O 9.0286 0.538151 -4.08874 0
M  V30 85 H 8.3696 -0.159855 -0.644471 0
M  V30 86 H 10.8996 -1.07488 -1.7409 0
M  V30 87 H 10.9096 -0.318464 -4.06755 0
M  V30 88 H 9.5846 -1.45784 -3.89512 0
M  V30 89 H 8.1616 0.364359 -3.71116 0
M  V30 90 N 10.3467 1.47872 -0.545128 0
M  V30 91 C 11.2767 2.32661 0.197793 0
M  V30 92 C 12.2577 1.43041 0.920504 0
M  V30 93 O 13.4427 1.71912 0.90333 0
M  V30 94 C 10.5727 3.24569 1.23582 0
M  V30 95 C 9.5267 4.23333 0.630323 0
M  V30 96 C 8.8527 5.0448 1.77211 0
M  V30 97 C 10.1527 5.20704 -0.407974 0
M  V30 98 H 11.8467 2.95024 -0.510045 0
M  V30 99 H 9.3927 1.4187 -0.246731 0
M  V30 100 H 11.3457 3.8272 1.76362 0
M  V30 101 H 10.0697 2.60236 1.97344 0
M  V30 102 H 8.7287 3.6639 0.123922 0
M  V30 103 H 8.3767 4.36561 2.49847 0
M  V30 104 H 8.0767 5.71339 1.37281 0
M  V30 105 H 9.6007 5.65487 2.3034 0
M  V30 106 H 11.0147 5.7329 0.033305 0
M  V30 107 H 9.4117 5.95699 -0.725486 0
M  V30 108 H 10.4817 4.66917 -1.30828 0
M  V30 109 N 11.8248 0.280983 1.55075 0
M  V30 110 C 13.2358 -0.215629 1.85451 0
M  V30 111 C 13.5868 -1.54991 1.203 0
M  V30 112 O 12.7118 -2.10699 0.493435 0
M  V30 113 C 13.3068 -0.398026 3.36454 0
M  V30 114 C 11.8658 -0.838866 3.66933 0
M  V30 115 C 11.0128 0.064458 2.77225 0
M  V30 116 H 13.9638 0.502601 1.50531 0
M  V30 117 H 13.9848 -1.23569 3.59876 0
M  V30 118 H 13.4968 0.573241 3.83843 0
M  V30 119 H 11.5978 -1.8214 3.25048 0
M  V30 120 H 11.7108 -0.672123 4.74362 0
M  V30 121 H 10.0748 -0.452863 2.50642 0
M  V30 122 H 10.8578 1.03172 3.2743 0
M  V30 123 N 13.3029 -1.57598 0.00835791 0
M  V30 124 C 14.2529 -2.05431 -0.989045 0
M  V30 125 C 15.2369 -0.950662 -1.29812 0
M  V30 126 O 16.4289 -1.21438 -1.28771 0
M  V30 127 C 13.5579 -2.56801 -2.27833 0
M  V30 128 C 12.6439 -3.74058 -1.99853 0
M  V30 129 N 13.0349 -4.8544 -1.42062 0
M  V30 130 C 11.3329 -3.82148 -2.29953 0
M  V30 131 C 12.0339 -5.66817 -1.30743 0
M  V30 132 N 11.0099 -5.13077 -1.7959 0
M  V30 133 H 14.8119 -2.88955 -0.536853 0
M  V30 134 H 12.3259 -1.61199 -0.197148 0
M  V30 135 H 14.3229 -2.89349 -3.00137 0
M  V30 136 H 12.9829 -1.74699 -2.73698 0
M  V30 137 H 13.9939 -5.0612 -1.09833 0
M  V30 138 H 10.6709 -3.10916 -2.78635 0
M  V30 139 H 12.0609 -6.66343 -0.862328 0
M  V30 140 N 14.781 0.264519 -1.55364 0
M  V30 141 C 15.711 1.33121 -1.91836 0
M  V30 142 C 16.692 1.51101 -0.781192 0
M  V30 143 O 17.877 1.64003 -1.04003 0
M  V30 144 C 15.007 2.68921 -2.19769 0
M  V30 145 C 13.961 2.65661 -3.35571 0
M  V30 146 C 13.287 4.05093 -3.49004 0
M  V30 147 C 14.587 2.24187 -4.71739 0
M  V30 148 H 16.281 1.02844 -2.81182 0
M  V30 149 H 13.827 0.493286 -1.35287 0
M  V30 150 H 15.78 3.43663 -2.43872 0
M  V30 151 H 14.504 3.00799 -1.27231 0
M  V30 152 H 13.163 1.93377 -3.1145 0
M  V30 153 H 12.811 4.34206 -2.53917 0
M  V30 154 H 12.511 4.03804 -4.26868 0
M  V30 155 H 14.035 4.81561 -3.75408 0
M  V30 156 H 15.449 2.88654 -4.9533 0
M  V30 157 H 13.846 2.34044 -5.52579 0
M  V30 158 H 14.916 1.19327 -4.69988 0
M  V30 159 N 16.2591 1.48442 0.529413 0
M  V30 160 C 17.5071 1.56179 1.28267 0
M  V30 161 C 17.8281 0.237721 1.93546 0
M  V30 162 O 17.0981 -0.740779 1.81354 0
M  V30 163 H 15.6781 0.575367 0.476405 0
M  V30 164 H 18.3401 1.84909 0.61602 0
M  V30 165 H 17.4361 2.34312 2.06165 0
M  V30 166 N 17.7372 -0.778329 1.37039 0
M  V30 167 C 18.6672 -1.90546 1.34962 0
M  V30 168 C 19.6482 -1.68681 0.219274 0
M  V30 169 O 20.8332 -1.89634 0.418624 0
M  V30 170 C 17.9632 -3.27734 1.14925 0
M  V30 171 C 16.9172 -3.64147 2.24902 0
M  V30 172 C 16.2432 -4.99806 1.89996 0
M  V30 173 C 17.5432 -3.71579 3.67051 0
M  V30 174 H 19.2372 -1.92541 2.29277 0
M  V30 175 H 16.7832 -0.924948 1.10366 0
M  V30 176 H 18.7362 -4.06215 1.12104 0
M  V30 177 H 17.4602 -3.26154 0.170631 0
M  V30 178 H 16.1192 -2.8797 2.26868 0
M  V30 179 H 15.7672 -4.94759 0.906796 0
M  V30 180 H 15.4672 -5.25139 2.63634 0
M  V30 181 H 16.9912 -5.80694 1.88749 0
M  V30 182 H 18.4052 -4.40227 3.67251 0
M  V30 183 H 16.8022 -4.08405 4.39688 0
M  V30 184 H 17.8722 -2.72404 4.01154 0
M  V30 185 N 19.2153 -1.21501 -1.00376 0
M  V30 186 C 20.1623 -0.975387 -2.09177 0
M  V30 187 C 21.1323 0.0990615 -1.65804 0
M  V30 188 O 22.3173 -0.0483147 -1.90739 0
M  V30 189 C 19.4573 -0.547507 -3.40729 0
M  V30 190 C 18.5703 -1.69153 -3.97506 0
M  V30 191 C 17.7053 -1.2127 -5.17172 0
M  V30 192 C 16.7443 -2.32897 -5.66061 0
M  V30 193 N 15.8813 -1.86138 -6.76976 0
M  V30 194 H 20.7213 -1.9068 -2.29009 0
M  V30 195 H 18.2583 -0.950257 -1.12288 0
M  V30 196 H 20.2163 -0.280667 -4.16255 0
M  V30 197 H 18.8463 0.346904 -3.20931 0
M  V30 198 H 17.8983 -2.07298 -3.18954 0
M  V30 199 H 19.2103 -2.5316 -4.29781 0
M  V30 200 H 18.3643 -0.902591 -5.99948 0
M  V30 201 H 17.1033 -0.342692 -4.86495 0
M  V30 202 H 16.1083 -2.64709 -4.81881 0
M  V30 203 H 17.3333 -3.20396 -5.98768 0
M  V30 204 H 15.2793 -1.01484 -6.48103 0
M  V30 205 H 15.1963 -2.63717 -7.08512 0
M  V30 206 H 16.4643 -1.58165 -7.63285 0
M  V30 207 N 20.6934 1.19889 -1.02296 0
M  V30 208 C 21.6234 2.25141 -0.619174 0
M  V30 209 C 22.6044 1.66051 0.368915 0
M  V30 210 O 23.7894 1.92546 0.252941 0
M  V30 211 C 20.9194 3.4728 0.0368783 0
M  V30 212 C 19.8734 4.19005 -0.872865 0
M  V30 213 C 19.1994 5.34637 -0.0822402 0
M  V30 214 C 20.4994 4.74452 -2.18387 0
M  V30 215 H 22.1934 2.59171 -1.49903 0
M  V30 216 H 19.7394 1.24579 -0.722222 0
M  V30 217 H 21.6924 4.20098 0.330958 0
M  V30 218 H 20.4164 3.12433 0.95149 0
M  V30 219 H 19.0754 3.48061 -1.15105 0
M  V30 220 H 18.7234 4.96034 0.83422 0
M  V30 221 H 18.4234 5.83557 -0.688149 0
M  V30 222 H 19.9474 6.10255 0.205238 0
M  V30 223 H 21.3614 5.39055 -1.95172 0
M  V30 224 H 19.7584 5.33834 -2.74119 0
M  V30 225 H 20.8284 3.92844 -2.84257 0
M  V30 226 N 22.1715 0.800033 1.35784 0
M  V30 227 C 23.1015 0.220184 2.3246 0
M  V30 228 C 24.0825 -0.65073 1.57161 0
M  V30 229 O 25.2675 -0.582359 1.85263 0
M  V30 230 C 22.3975 -0.637353 3.41402 0
M  V30 231 C 21.3515 0.134531 4.27789 0
M  V30 232 C 20.6775 -0.844285 5.27992 0
M  V30 233 C 21.9775 1.32979 5.05088 0
M  V30 234 H 23.6715 1.02787 2.81203 0
M  V30 235 H 21.2175 0.495717 1.35199 0
M  V30 236 H 23.1705 -1.05302 4.08031 0
M  V30 237 H 21.8945 -1.47785 2.91251 0
M  V30 238 H 20.5535 0.531296 3.6273 0
M  V30 239 H 20.2015 -1.68011 4.74111 0
M  V30 240 H 19.9015 -0.332184 5.8666 0
M  V30 241 H 21.4255 -1.2583 5.97494 0
M  V30 242 H 22.8395 0.98934 5.64699 0
M  V30 243 H 21.2365 1.77593 5.7322 0
M  V30 244 H 22.3065 2.11978 4.36111 0
M  V30 245 N 23.6496 -1.47581 0.552962 0
M  V30 246 C 24.5796 -2.32762 -0.185451 0
M  V30 247 C 25.5606 -1.43527 -0.912905 0
M  V30 248 O 26.7456 -1.72388 -0.894201 0
M  V30 249 C 23.8756 -3.25219 -1.21859 0
M  V30 250 C 22.8296 -4.23661 -0.607864 0
M  V30 251 C 22.1556 -5.05413 -1.74533 0
M  V30 252 C 23.4556 -5.20481 0.435582 0
M  V30 253 H 25.1496 -2.94749 0.525684 0
M  V30 254 H 22.6956 -1.41738 0.254251 0
M  V30 255 H 24.6486 -3.8365 -1.7433 0
M  V30 256 H 23.3726 -2.61279 -1.95961 0
M  V30 257 H 22.0316 -3.66451 -0.104489 0
M  V30 258 H 21.6796 -4.3788 -2.47529 0
M  V30 259 H 21.3796 -5.72059 -1.34249 0
M  V30 260 H 22.9036 -5.66701 -2.27338 0
M  V30 261 H 24.3176 -5.733 -0.00290157 0
M  V30 262 H 22.7146 -5.95305 0.757067 0
M  V30 263 H 23.7846 -4.66217 1.33303 0
M  V30 264 N 25.1277 -0.289203 -1.54924 0
M  V30 265 C 26.0577 0.58549 -2.2604 0
M  V30 266 C 27.0387 1.14753 -1.25562 0
M  V30 267 O 28.2237 1.17906 -1.54311 0
M  V30 268 C 25.3537 1.76305 -2.99222 0
M  V30 269 C 24.3077 1.33191 -4.06748 0
M  V30 270 C 23.6337 2.5937 -4.6758 0
M  V30 271 C 24.9337 0.471775 -5.20165 0
M  V30 272 H 26.6277 -0.00763532 -2.99399 0
M  V30 273 H 24.1737 -0.00511229 -1.43999 0
M  V30 274 H 26.1267 2.38097 -3.47689 0
M  V30 275 H 24.8507 2.38223 -2.23422 0
M  V30 276 H 23.5097 0.737121 -3.59113 0
M  V30 277 H 23.1577 3.19576 -3.88433 0
M  V30 278 H 22.8577 2.31228 -5.40192 0
M  V30 279 H 24.3817 3.21985 -5.18804 0
M  V30 280 H 25.7957 0.995056 -5.64599 0
M  V30 281 H 24.1927 0.284639 -5.99425 0
M  V30 282 H 25.2627 -0.506041 -4.82252 0
M  V30 283 N 26.6058 1.57591 -0.0167156 0
M  V30 284 C 27.5358 2.12496 0.967858 0
M  V30 285 C 28.5168 1.03807 1.34752 0
M  V30 286 O 29.7018 1.31577 1.42833 0
M  V30 287 C 26.8318 2.64194 2.25431 0
M  V30 288 C 25.7858 3.77559 2.01576 0
M  V30 289 C 25.1118 4.15636 3.36379 0
M  V30 290 C 26.4118 5.04151 1.36489 0
M  V30 291 H 28.1058 2.95013 0.510643 0
M  V30 292 H 25.6518 1.41915 0.244181 0
M  V30 293 H 27.6048 3.01236 2.94678 0
M  V30 294 H 26.3288 1.78821 2.73296 0
M  V30 295 H 24.9878 3.40937 1.34751 0
M  V30 296 H 24.6358 3.27263 3.81979 0
M  V30 297 H 24.3358 4.92022 3.21229 0
M  V30 298 H 25.8598 4.5525 4.06915 0
M  V30 299 H 27.2738 5.38857 1.95718 0
M  V30 300 H 25.6708 5.85453 1.31776 0
M  V30 301 H 26.7408 4.83733 0.336219 0
M  V30 302 N 28.0839 -0.256276 1.55502 0
M  V30 303 C 29.0139 -1.32102 1.92539 0
M  V30 304 C 29.9949 -1.50684 0.789194 0
M  V30 305 O 31.1799 -1.63449 1.04872 0
M  V30 306 C 28.3099 -2.67752 2.21192 0
M  V30 307 C 27.2639 -2.63878 3.36975 0
M  V30 308 C 26.5899 -4.03236 3.51147 0
M  V30 309 C 27.8899 -2.21682 4.72921 0
M  V30 310 H 29.5839 -1.01351 2.81724 0
M  V30 311 H 27.1299 -0.486105 1.35547 0
M  V30 312 H 29.0829 -3.42365 2.45691 0
M  V30 313 H 27.8069 -3.0012 1.28824 0
M  V30 314 H 26.4659 -1.91722 3.12471 0
M  V30 315 H 26.1139 -4.32854 2.56216 0
M  V30 316 H 25.8139 -4.01535 4.29003 0
M  V30 317 H 27.3379 -4.79563 3.77957 0
M  V30 318 H 28.7519 -2.86023 4.96854 0
M  V30 319 H 27.1489 -2.3111 5.53812 0
M  V30 320 H 28.2189 -1.16833 4.70615 0
M  V30 321 N 29.562 -1.4872 -0.521534 0
M  V30 322 C 30.492 -1.66771 -1.63431 0
M  V30 323 C 31.473 -0.516499 -1.62069 0
M  V30 324 O 32.658 -0.750013 -1.79132 0
M  V30 325 C 29.788 -1.71515 -3.01993 0
M  V30 326 C 28.742 -2.86222 -3.18216 0
M  V30 327 C 28.068 -2.76061 -4.57924 0
M  V30 328 C 29.368 -4.27419 -3.00184 0
M  V30 329 H 31.062 -2.59932 -1.48579 0
M  V30 330 H 28.608 -1.25089 -0.713358 0
M  V30 331 H 30.561 -1.82731 -3.7972 0
M  V30 332 H 29.285 -0.749393 -3.17886 0
M  V30 333 H 27.944 -2.74575 -2.42908 0
M  V30 334 H 27.592 -1.77437 -4.70665 0
M  V30 335 H 27.292 -3.53037 -4.69722 0
M  V30 336 H 28.816 -2.89256 -5.37739 0
M  V30 337 H 30.23 -4.39855 -3.67697 0
M  V30 338 H 28.627 -5.05458 -3.2347 0
M  V30 339 H 29.697 -4.43293 -1.96518 0
M  V30 340 N 31.0401 0.771051 -1.3745 0
M  V30 341 C 31.9701 1.89827 -1.3597 0
M  V30 342 C 32.9511 1.68562 -0.228216 0
M  V30 343 O 34.1361 1.8941 -0.428675 0
M  V30 344 C 31.2661 3.2712 -1.16662 0
M  V30 345 C 30.2201 3.6295 -2.2683 0
M  V30 346 C 29.5461 4.98791 -1.92644 0
M  V30 347 C 30.8461 3.69627 -3.69017 0
M  V30 348 H 32.5401 1.91323 -2.30295 0
M  V30 349 H 30.0861 0.919082 -1.10855 0
M  V30 350 H 32.0391 4.05615 -1.14256 0
M  V30 351 H 30.7631 3.26059 -0.187926 0
M  V30 352 H 29.4221 2.86763 -2.28392 0
M  V30 353 H 29.0701 4.94271 -0.933021 0
M  V30 354 H 28.7701 5.23733 -2.66416 0
M  V30 355 H 30.2941 5.79685 -1.91826 0
M  V30 356 H 31.7081 4.38273 -3.69581 0
M  V30 357 H 30.1051 4.06067 -4.41848 0
M  V30 358 H 31.1751 2.70273 -4.02592 0
M  V30 359 N 32.5182 1.22032 0.997298 0
M  V30 360 C 33.9292 1.0397 1.55071 0
M  V30 361 C 34.2802 -0.398192 1.92117 0
M  V30 362 O 33.4052 -1.28254 1.74298 0
M  V30 363 C 34.0002 1.88109 2.81781 0
M  V30 364 C 32.5592 1.74357 3.33581 0
M  V30 365 C 31.7062 1.84846 2.06706 0
M  V30 366 H 34.6572 1.35941 0.818883 0
M  V30 367 H 34.6782 1.39589 3.53971 0
M  V30 368 H 34.1902 2.92754 2.54787 0
M  V30 369 H 32.2912 0.72427 3.65493 0
M  V30 370 H 32.4042 2.56772 4.04481 0
M  V30 371 H 30.7682 1.28238 2.20062 0
M  V30 372 H 31.5512 2.91014 1.82114 0
M  V30 373 N 33.9963 -1.19345 1.0293 0
M  V30 374 C 34.9263 -2.2481 0.631105 0
M  V30 375 C 35.9073 -1.66245 -0.360104 0
M  V30 376 O 37.0923 -1.92677 -0.242726 0
M  V30 377 C 34.2223 -3.47295 -0.0184607 0
M  V30 378 C 33.1763 -4.18536 0.895073 0
M  V30 379 C 32.5023 -5.34586 0.110592 0
M  V30 380 C 33.8023 -4.73287 2.209 0
M  V30 381 H 35.4963 -2.58372 1.51275 0
M  V30 382 H 33.0423 -1.24194 0.728818 0
M  V30 383 H 34.9953 -4.20268 -0.308675 0
M  V30 384 H 33.7193 -3.12933 -0.934907 0
M  V30 385 H 32.3783 -3.47446 1.16949 0
M  V30 386 H 32.0263 -4.96469 -0.807902 0
M  V30 387 H 31.7263 -5.83183 0.719087 0
M  V30 388 H 33.2503 -6.10355 -0.172871 0
M  V30 389 H 34.6643 -5.38013 1.98028 0
M  V30 390 H 33.0613 -5.32373 2.76946 0
M  V30 391 H 34.1313 -3.91331 2.86336 0
M  V30 392 N 35.4744 -0.807222 -1.35358 0
M  V30 393 C 36.8904 -0.491038 -1.51858 0
M  V30 394 C 37.0904 0.987648 -1.75635 0
M  V30 395 O 36.1464 1.77265 -1.79815 0
M  V30 396 C 37.4594 -1.33695 -2.69344 0
M  V30 397 C 39.0074 -1.33246 -2.83222 0
M  V30 398 C 39.4824 -2.1625 -4.03733 0
M  V30 399 N 40.9734 -2.1379 -4.10911 0
M  V30 400 C 41.7084 -2.74772 -5.03277 0
M  V30 401 N 41.2044 -3.44684 -6.0097 0
M  V30 402 N 42.9974 -2.6441 -4.96028 0
M  V30 403 H 35.1484 -1.76485 -1.18181 0
M  V30 404 H 37.4114 -0.751199 -0.578276 0
M  V30 405 H 37.1174 -2.38634 -2.58354 0
M  V30 406 H 36.9914 -0.990618 -3.6396 0
M  V30 407 H 39.3784 -0.290911 -2.93663 0
M  V30 408 H 39.4594 -1.71866 -1.89461 0
M  V30 409 H 39.1034 -3.20445 -3.94052 0
M  V30 410 H 39.0334 -1.74989 -4.96675 0
M  V30 411 H 41.5244 -1.62923 -3.40976 0
M  V30 412 H 41.8374 -3.88501 -6.68047 0
M  V30 413 H 40.1824 -3.48788 -6.01142 0
M  V30 414 H 43.3734 -2.0938 -4.18662 0
M  V30 415 H 43.5464 -3.12225 -5.6782 0
M  V30 416 N 36.9525 1.47285 -0.560781 0
M  V30 417 C 38.2005 2.02064 -0.0379868 0
M  V30 418 C 38.5215 1.43711 1.31803 0
M  V30 419 O 37.7915 0.61362 1.86042 0
M  V30 420 H 36.3715 0.746918 -0.0110531 0
M  V30 421 H 39.0335 1.80648 -0.731598 0
M  V30 422 H 38.1295 3.12064 0.0474463 0
M  V30 423 N 38.4306 0.297415 1.54768 0
M  V30 424 C 39.3626 -0.613881 2.20826 0
M  V30 425 C 40.3756 -1.10032 1.19987 0
M  V30 426 O 41.5646 -1.01839 1.46598 0
M  V30 427 C 38.6646 -1.852 2.83821 0
M  V30 428 C 37.8376 -1.50865 4.10559 0
M  V30 429 C 36.8966 -2.60154 4.57391 0
M  V30 430 O 35.9226 -2.25398 5.2267 0
M  V30 431 N 37.1246 -3.90629 4.29406 0
M  V30 432 H 39.8896 -0.048389 2.99661 0
M  V30 433 H 37.4506 0.11946 1.61459 0
M  V30 434 H 39.4426 -2.57652 3.12086 0
M  V30 435 H 38.0126 -2.32597 2.08847 0
M  V30 436 H 37.2326 -0.616925 3.89343 0
M  V30 437 H 38.5206 -1.25458 4.9309 0
M  V30 438 H 37.9186 -4.21677 3.77101 0
M  V30 439 H 36.4756 -4.59391 4.62388 0
M  V30 440 N 39.9087 -1.5758 0.0250728 0
M  V30 441 C 40.8717 -2.08896 -0.943139 0
M  V30 442 C 41.8717 -1.00321 -1.25668 0
M  V30 443 O 43.0617 -1.26495 -1.19769 0
M  V30 444 C 40.1937 -2.55143 -2.26086 0
M  V30 445 H 41.3867 -2.95723 -0.498775 0
M  V30 446 H 38.9397 -1.54703 -0.222888 0
M  V30 447 H 39.6747 -1.71633 -2.75159 0
M  V30 448 H 39.4597 -3.34461 -2.04641 0
M  V30 449 H 40.9497 -2.95083 -2.95492 0
M  V30 450 N 41.3868 0.248026 -1.55636 0
M  V30 451 C 42.3348 1.32683 -1.91045 0
M  V30 452 C 43.3288 1.49883 -0.789401 0
M  V30 453 O 44.5348 1.51371 -0.974007 0
M  V30 454 H 40.9098 0.444272 -0.606734 0
M  V30 455 H 42.8808 1.00085 -2.81115 0
M  V30 456 C 41.6298 2.6755 -2.22064 0
M  V30 457 H 40.9528 2.55114 -3.07826 0
M  V30 458 H 42.3928 3.41912 -2.50743 0
M  V30 459 C 40.8518 3.20556 -1.0366 0
M  V30 460 O 41.3818 4.00695 -0.284016 0
M  V30 461 N 39.5878 2.78568 -0.82753 0
M  V30 462 H 39.1348 2.1351 -1.44123 0
M  V30 463 H 39.0928 3.14378 -0.0369803 0
M  V30 464 N 42.8649 1.48995 0.513639 0
M  V30 465 C 44.0929 1.61531 1.29288 0
M  V30 466 C 44.5079 0.281801 1.86685 0
M  V30 467 O 43.8649 -0.731111 1.67215 0
M  V30 468 C 43.9159 2.67449 2.43215 0
M  V30 469 O 43.6369 3.95626 1.88179 0
M  V30 470 C 45.1379 2.90575 3.34785 0
M  V30 471 H 42.3579 0.544165 0.392588 0
M  V30 472 H 44.9019 1.9494 0.617956 0
M  V30 473 H 43.0569 2.36853 3.0656 0
M  V30 474 H 43.4709 4.53868 2.62876 0
M  V30 475 H 44.9449 3.68449 4.11035 0
M  V30 476 H 45.4219 2.00011 3.91015 0
M  V30 477 H 46.0279 3.22538 2.77218 0
M  V30 478 N 44.343 -0.763751 1.37857 0
M  V30 479 C 45.591 -1.51957 1.33243 0
M  V30 480 C 45.912 -1.94835 -0.0801709 0
M  V30 481 O 45.182 -1.66894 -1.02582 0
M  V30 482 H 43.762 -0.563626 0.49024 0
M  V30 483 H 46.424 -0.908504 1.7243 0
M  V30 484 H 45.52 -2.41523 1.97669 0
M  V30 485 N 45.8211 -1.22559 -0.990812 0
M  V30 486 C 47.0611 -1.06302 -1.74583 0
M  V30 487 C 47.4251 0.394737 -1.87898 0
M  V30 488 O 48.6261 0.678214 -2.60103 0
M  V30 489 C 46.8971 -1.75699 -3.11231 0
M  V30 490 S 48.4561 -1.74882 -4.02445 0
M  V30 491 H 45.2741 -0.380639 -0.600529 0
M  V30 492 H 47.8761 -1.55532 -1.18449 0
M  V30 493 H 46.5801 -2.80923 -2.99183 0
M  V30 494 H 46.1111 -1.26708 -3.72436 0
M  V30 495 H 48.1261 -0.799997 -4.89709 0
M  V30 496 N 47.2992 1.18797 -1.03562 0
M  V30 497 C 48.5292 1.92319 -0.754773 0
M  V30 498 C 48.9372 1.7612 0.691248 0
M  V30 499 O 48.2802 1.08491 1.48241 0
M  V30 500 C 48.3422 3.44284 -1.03484 0
M  V30 501 C 48.0062 3.84258 -2.47376 0
M  V30 502 C 49.0032 3.88459 -3.45537 0
M  V30 503 C 46.6882 4.15701 -2.81954 0
M  V30 504 C 48.6822 4.23545 -4.76328 0
M  V30 505 C 46.3692 4.50458 -4.12954 0
M  V30 506 C 47.3672 4.54356 -5.09951 0
M  V30 507 O 47.0552 4.88305 -6.38603 0
M  V30 508 H 46.7872 0.617527 -0.275021 0
M  V30 509 H 49.3412 1.51683 -1.38497 0
M  V30 510 H 47.5712 3.85135 -0.347513 0
M  V30 511 H 49.2602 3.99049 -0.7426 0
M  V30 512 H 50.0262 3.6431 -3.20162 0
M  V30 513 H 45.9052 4.11847 -2.0713 0
M  V30 514 H 49.4492 4.26502 -5.52035 0
M  V30 515 H 45.3462 4.74067 -4.38099 0
M  V30 516 H 46.1142 5.06227 -6.43177 0
M  V30 517 N 48.7773 0.814389 1.34928 0
M  V30 518 C 50.0253 0.397636 1.9815 0
M  V30 519 C 50.3463 -1.04069 1.64908 0
M  V30 520 O 49.6163 -1.72121 0.93548 0
M  V30 521 H 48.1963 0.144043 0.732981 0
M  V30 522 H 50.8583 1.04195 1.6471 0
M  V30 523 H 49.9543 0.509688 3.0791 0
M  V30 524 N 50.2554 -1.46986 0.568584 0
M  V30 525 C 51.5044 -2.01646 0.0465894 0
M  V30 526 C 51.8174 -1.44721 -1.31587 0
M  V30 527 O 53.0234 -1.91113 -1.92842 0
M  V30 528 C 51.4794 -3.59885 0.032752 0
M  V30 529 C 51.0874 -4.25804 1.39266 0
M  V30 530 C 52.8314 -4.22255 -0.436038 0
M  V30 531 C 50.7384 -5.76081 1.33732 0
M  V30 532 H 49.6684 -0.753876 0.013647 0
M  V30 533 H 52.3194 -1.68864 0.718131 0
M  V30 534 H 50.7014 -3.8968 -0.704669 0
M  V30 535 H 51.8754 -4.07637 2.1487 0
M  V30 536 H 50.1904 -3.7547 1.80032 0
M  V30 537 H 52.7874 -5.32394 -0.49602 0
M  V30 538 H 53.1304 -3.90212 -1.45053 0
M  V30 539 H 53.6634 -3.97033 0.246877 0
M  V30 540 H 50.4024 -6.12761 2.32817 0
M  V30 541 H 49.9224 -5.96553 0.623267 0
M  V30 542 H 51.6014 -6.38518 1.0442 0
M  V30 543 N 51.7335 -0.305618 -1.54608 0
M  V30 544 C 53.1445 0.186098 -1.8577 0
M  V30 545 C 53.4955 1.53058 -1.22751 0
M  V30 546 O 52.6205 2.09888 -0.526893 0
M  V30 547 C 53.2155 0.344449 -3.37044 0
M  V30 548 C 51.7745 0.780384 -3.68221 0
M  V30 549 C 50.9215 -0.108554 -2.77087 0
M  V30 550 H 53.8725 -0.526485 -1.49712 0
M  V30 551 H 53.8935 1.17828 -3.61796 0
M  V30 552 H 53.4055 -0.634235 -3.82883 0
M  V30 553 H 51.5065 1.76945 -3.27904 0
M  V30 554 H 51.6195 0.596572 -4.75371 0
M  V30 555 H 49.9835 0.412931 -2.5133 0
M  V30 556 H 50.7665 -1.08368 -3.25747 0
M  V30 557 N 53.2116 1.57565 -0.0334293 0
M  V30 558 C 54.4596 1.91598 0.642999 0
M  V30 559 C 54.7806 0.910847 1.7242 0
M  V30 560 O 54.0506 -0.0469931 1.95844 0
M  V30 561 H 52.6306 0.707228 0.240496 0
M  V30 562 H 55.2926 1.94726 -0.0822488 0
M  V30 563 H 54.3886 2.92336 1.09298 0
M  V30 564 N 54.6897 -0.239769 1.55765 0
M  V30 565 C 55.6227 -1.32356 1.85895 0
M  V30 566 C 56.6007 -1.46053 0.714662 0
M  V30 567 O 57.7847 -1.62154 0.961157 0
M  V30 568 C 54.9117 -2.6962 2.04994 0
M  V30 569 C 53.9577 -2.73036 3.27648 0
M  V30 570 S 54.7907 -2.28929 4.84099 0
M  V30 571 C 55.9467 -3.68103 5.06212 0
M  V30 572 H 56.1797 -1.06601 2.77531 0
M  V30 573 H 53.7127 -0.441112 1.47965 0
M  V30 574 H 55.6707 -3.48653 2.16682 0
M  V30 575 H 54.3317 -2.92609 1.14188 0
M  V30 576 H 53.5247 -3.7386 3.38 0
M  V30 577 H 53.1267 -2.02052 3.14723 0
M  V30 578 H 55.4187 -4.63656 4.93993 0
M  V30 579 H 56.3617 -3.6268 6.08168 0
M  V30 580 H 56.7697 -3.60947 4.34025 0
M  V30 581 N 56.1678 -1.49265 -0.50573 0
M  V30 582 C 57.5788 -1.51769 -1.08734 0
M  V30 583 C 57.9298 -0.301192 -1.93874 0
M  V30 584 O 57.0548 0.589456 -2.08217 0
M  V30 585 C 57.6498 -2.75017 -1.97867 0
M  V30 586 C 56.2088 -2.80314 -2.51199 0
M  V30 587 C 55.3558 -2.4562 -1.28709 0
M  V30 588 H 58.3068 -1.56031 -0.289855 0
M  V30 589 H 58.3278 -2.5491 -2.82491 0
M  V30 590 H 57.8398 -3.63539 -1.35873 0
M  V30 591 H 55.9408 -1.96061 -3.16845 0
M  V30 592 H 56.0538 -3.82366 -2.88675 0
M  V30 593 H 54.4178 -1.97297 -1.61078 0
M  V30 594 H 55.2008 -3.36411 -0.6843 0
M  V30 595 N 57.6459 0.756429 -1.3826 0
M  V30 596 C 58.8939 1.51248 -1.34047 0
M  V30 597 C 59.2149 1.94875 0.0698372 0
M  V30 598 O 58.4849 1.67436 1.01696 0
M  V30 599 H 57.0649 0.561018 -0.493222 0
M  V30 600 H 59.7269 0.899347 -1.7291 0
M  V30 601 H 58.8229 2.40472 -1.98947 0
M  V30 602 N 59.124 1.23083 0.984299 0
M  V30 603 C 60.054 1.03292 2.09411 0
M  V30 604 C 61.035 -0.048923 1.7003 0
M  V30 605 O 62.22 0.114967 1.93859 0
M  V30 606 C 59.35 0.619155 3.41736 0
M  V30 607 C 58.304 1.64791 3.95004 0
M  V30 608 C 57.63 1.0897 5.23478 0
M  V30 609 C 58.93 3.03999 4.24714 0
M  V30 610 H 60.624 1.96119 2.26225 0
M  V30 611 H 58.17 0.944344 1.08711 0
M  V30 612 H 60.123 0.467777 4.18796 0
M  V30 613 H 58.847 -0.344786 3.24775 0
M  V30 614 H 57.506 1.78721 3.20085 0
M  V30 615 H 57.154 0.11686 5.02864 0
M  V30 616 H 56.854 1.77704 5.60085 0
M  V30 617 H 58.378 0.950093 6.03163 0
M  V30 618 H 59.792 2.93393 4.92538 0
M  V30 619 H 58.189 3.69936 4.72512 0
M  V30 620 H 59.259 3.53285 3.32142 0
M  V30 621 N 60.6021 -1.18246 1.0419 0
M  V30 622 C 62.0131 -1.69914 0.773698 0
M  V30 623 C 62.3641 -1.83085 -0.705297 0
M  V30 624 O 61.4891 -1.51123 -1.5489 0
M  V30 625 C 62.0841 -3.08619 1.39784 0
M  V30 626 C 60.6431 -3.57494 1.17792 0
M  V30 627 C 59.7901 -2.34013 1.48773 0
M  V30 628 H 62.7411 -1.02904 1.20816 0
M  V30 629 H 62.7621 -3.71958 0.801714 0
M  V30 630 H 62.2741 -2.99001 2.47426 0
M  V30 631 H 60.3751 -3.72406 0.120295 0
M  V30 632 H 60.4881 -4.40852 1.87581 0
M  V30 633 H 58.8521 -2.37986 0.907463 0
M  V30 634 H 59.6351 -2.27013 2.57527 0
M  V30 635 N 62.0802 -0.821533 -1.34494 0
M  V30 636 C 63.3282 -0.408139 -1.97936 0
M  V30 637 C 63.6492 1.03193 -1.65457 0
M  V30 638 O 62.9192 1.71622 -0.944595 0
M  V30 639 H 61.4992 -0.147928 -0.732206 0
M  V30 640 H 64.1612 -1.05067 -1.64155 0
M  V30 641 H 63.2572 -0.52601 -3.07635 0
M  V30 642 N 63.5583 1.46682 -0.576371 0
M  V30 643 C 64.5213 2.28707 0.150239 0
M  V30 644 C 65.5213 1.38035 0.824794 0
M  V30 645 O 66.7113 1.60476 0.677719 0
M  V30 646 C 63.8433 3.18248 1.22192 0
M  V30 647 H 65.0363 2.94423 -0.570521 0
M  V30 648 H 62.5893 1.52688 -0.334078 0
M  V30 649 H 63.3243 2.57265 1.97447 0
M  V30 650 H 63.1093 3.85 0.742812 0
M  V30 651 H 64.5993 3.80001 1.73172 0
M  V30 652 N 65.0364 0.313813 1.54444 0
M  V30 653 C 66.4474 -0.176243 1.85866 0
M  V30 654 C 66.7984 -1.52405 1.23561 0
M  V30 655 O 65.9234 -2.09605 0.538016 0
M  V30 656 C 66.5184 -0.32657 3.37222 0
M  V30 657 C 65.0774 -0.760846 3.6863 0
M  V30 658 C 64.2244 0.123247 2.77026 0
M  V30 659 H 67.1754 0.534418 1.49431 0
M  V30 660 H 67.1964 -1.15908 3.62416 0
M  V30 661 H 66.7084 0.654531 3.82541 0
M  V30 662 H 64.8094 -1.75204 3.28838 0
M  V30 663 H 64.9224 -0.571353 4.75681 0
M  V30 664 H 63.2864 -0.399597 2.51546 0
M  V30 665 H 64.0694 1.10094 3.25168 0
M  V30 666 N 66.5145 -1.57545 0.0417849 0
M  V30 667 C 67.7625 -1.91937 -0.632829 0
M  V30 668 C 68.0835 -0.919978 -1.71934 0
M  V30 669 O 67.3535 0.0366064 -1.95866 0
M  V30 670 H 65.9335 -0.708493 -0.236742 0
M  V30 671 H 68.5955 -1.9468 0.0925745 0
M  V30 672 H 67.6915 -2.92912 -1.07746 0
M  V30 673 N 67.9926 0.231505 -1.5589 0
M  V30 674 C 68.9396 1.28682 -1.91598 0
M  V30 675 C 69.9096 1.47071 -0.771974 0
M  V30 676 O 71.0946 1.60802 -1.027 0
M  V30 677 C 68.2346 2.6342 -2.22944 0
M  V30 678 C 67.3476 2.52912 -3.50228 0
M  V30 679 C 66.4826 3.80106 -3.7107 0
M  V30 680 C 65.5216 3.64279 -4.91902 0
M  V30 681 N 64.6586 4.834 -5.09184 0
M  V30 682 H 69.4986 0.975305 -2.81588 0
M  V30 683 H 67.0356 0.470299 -1.39379 0
M  V30 684 H 68.9936 3.41869 -2.39126 0
M  V30 685 H 67.6236 2.92687 -1.36139 0
M  V30 686 H 66.6756 1.6595 -3.42294 0
M  V30 687 H 67.9876 2.37133 -4.38827 0
M  V30 688 H 67.1416 4.66999 -3.87295 0
M  V30 689 H 65.8806 3.98799 -2.80733 0
M  V30 690 H 64.8856 2.7577 -4.75637 0
M  V30 691 H 66.1106 3.47067 -5.83714 0
M  V30 692 H 64.0566 5.02425 -4.21788 0
M  V30 693 H 63.9736 4.70311 -5.91898 0
M  V30 694 H 65.2416 5.71747 -5.29835 0
M  V30 695 N 69.4707 1.49531 0.497807 0
M  V30 696 C 70.7477 1.49682 1.25915 0
M  V30 697 C 71.1277 0.226339 2.09883 0
M  V30 698 O 70.4757 -0.791189 2.14365 0
M  V30 699 C 70.6857 2.77755 2.11313 0
M  V30 700 C 72.0337 3.27371 2.70395 0
M  V30 701 O 73.0577 2.78894 2.21578 0
M  V30 702 O 71.9167 4.11808 3.59272 0
M  V30 703 H 69.0107 0.599228 0.56996 0
M  V30 704 H 71.5567 1.61798 0.511816 0
M  V30 705 H 70.3287 3.61713 1.49264 0
M  V30 706 H 69.9517 2.68515 2.93233 0
M  V30 707 N 70.9488 -0.749086 1.3866 0
M  V30 708 C 72.1968 -1.50535 1.34847 0
M  V30 709 C 72.5178 -1.94909 -0.0595016 0
M  V30 710 O 71.7878 -1.67973 -1.00806 0
M  V30 711 H 70.3678 -0.558395 0.49619 0
M  V30 712 H 73.0298 -0.890165 1.73384 0
M  V30 713 H 72.1258 -2.39413 2.00219 0
M  V30 714 N 72.4269 -1.23603 -0.977757 0
M  V30 715 C 73.6569 -1.09487 -1.75203 0
M  V30 716 C 74.0649 0.356321 -1.85814 0
M  V30 717 O 73.4079 1.25816 -1.33851 0
M  V30 718 C 73.4699 -1.64905 -3.19447 0
M  V30 719 C 73.1339 -3.13688 -3.32338 0
M  V30 720 C 74.1309 -4.10953 -3.18455 0
M  V30 721 C 71.8159 -3.53449 -3.56902 0
M  V30 722 C 73.8099 -5.45962 -3.28944 0
M  V30 723 C 71.4969 -4.88602 -3.6703 0
M  V30 724 C 72.4949 -5.84668 -3.53062 0
M  V30 725 O 72.1829 -7.17365 -3.62826 0
M  V30 726 H 71.9149 -0.38367 -0.556573 0
M  V30 727 H 74.4689 -1.6398 -1.23693 0
M  V30 728 H 72.6989 -1.04835 -3.72218 0
M  V30 729 H 74.3879 -1.46226 -3.78646 0
M  V30 730 H 75.1539 -3.81577 -2.99372 0
M  V30 731 H 71.0329 -2.79188 -3.66844 0
M  V30 732 H 74.5769 -6.20925 -3.17958 0
M  V30 733 H 70.4739 -5.17653 -3.85623 0
M  V30 734 H 71.2419 -7.2515 -3.79605 0
M  V30 735 N 73.905 1.17692 -1.04816 0
M  V30 736 C 75.182 1.83768 -0.669963 0
M  V30 737 C 75.562 1.93232 0.849986 0
M  V30 738 O 74.91 1.46397 1.75443 0
M  V30 739 C 75.12 3.21641 -1.35455 0
M  V30 740 C 76.468 3.97592 -1.49017 0
M  V30 741 O 77.492 3.31107 -1.31326 0
M  V30 742 O 76.351 5.16729 -1.77914 0
M  V30 743 H 73.445 0.792799 -0.235368 0
M  V30 744 H 75.991 1.25021 -1.14751 0
M  V30 745 H 74.763 3.097 -2.39168 0
M  V30 746 H 74.386 3.88052 -0.866107 0
M  V30 747 N 75.3831 0.828654 1.34056 0
M  V30 748 C 76.6311 0.41863 1.97717 0
M  V30 749 C 76.9521 -1.02314 1.66002 0
M  V30 750 O 76.2221 -1.71119 0.953683 0
M  V30 751 H 74.8021 0.151809 0.731412 0
M  V30 752 H 77.4641 1.05936 1.63596 0
M  V30 753 H 76.5601 0.542318 3.07352 0
M  V30 754 N 76.8612 -1.46375 0.584142 0
M  V30 755 C 77.7912 -2.33103 -0.136037 0
M  V30 756 C 78.7722 -1.45431 -0.882255 0
M  V30 757 O 79.9572 -1.74246 -0.857434 0
M  V30 758 C 77.0872 -3.27731 -1.14933 0
M  V30 759 C 76.0412 -4.24855 -0.517862 0
M  V30 760 C 75.3672 -5.09001 -1.63773 0
M  V30 761 C 76.6672 -5.19439 0.545886 0
M  V30 762 H 78.3612 -2.93568 0.588086 0
M  V30 763 H 75.9072 -1.41166 0.284259 0
M  V30 764 H 77.8602 -3.87261 -1.66153 0
M  V30 765 H 76.5842 -2.65377 -1.90375 0
M  V30 766 H 75.2432 -3.6659 -0.0267361 0
M  V30 767 H 74.8912 -4.43031 -2.38185 0
M  V30 768 H 74.5912 -5.74777 -1.22085 0
M  V30 769 H 76.1152 -5.71396 -2.15266 0
M  V30 770 H 77.5292 -5.73177 0.118704 0
M  V30 771 H 75.9262 -5.93566 0.88317 0
M  V30 772 H 76.9962 -4.63285 1.43162 0
M  V30 773 N 78.3393 -0.321999 -1.54275 0
M  V30 774 C 79.7503 0.166384 -1.85957 0
M  V30 775 C 80.1013 1.51747 -1.24367 0
M  V30 776 O 79.2263 2.09317 -0.549124 0
M  V30 777 C 79.8213 0.308681 -3.37391 0
M  V30 778 C 78.3803 0.741286 -3.69028 0
M  V30 779 C 77.5273 -0.137937 -2.76957 0
M  V30 780 H 80.4783 -0.542335 -1.49146 0
M  V30 781 H 80.4993 1.13984 -3.63026 0
M  V30 782 H 80.0113 -0.674809 -3.82188 0
M  V30 783 H 78.1123 1.73458 -3.29762 0
M  V30 784 H 78.2253 0.546118 -4.75977 0
M  V30 785 H 76.5893 0.386251 -2.51754 0
M  V30 786 H 77.3723 -1.11816 -3.2458 0
M  V30 787 N 79.8174 1.5752 -0.0501392 0
M  V30 788 C 81.0654 1.9227 0.622642 0
M  V30 789 C 81.3864 0.929083 1.71444 0
M  V30 790 O 80.6564 -0.0262186 1.95882 0
M  V30 791 H 79.2364 0.709739 0.232981 0
M  V30 792 H 81.8984 1.94628 -0.102898 0
M  V30 793 H 80.9944 2.93479 1.06191 0
M  V30 794 N 81.2955 -0.223234 1.56011 0
M  V30 795 C 82.7065 -0.790368 1.69145 0
M  V30 796 C 83.0575 -1.85055 0.651845 0
M  V30 797 O 82.1825 -2.15498 -0.197359 0
M  V30 798 C 82.7775 -1.4404 3.06656 0
M  V30 799 C 81.3365 -1.95494 3.2165 0
M  V30 800 C 80.4835 -0.814506 2.65068 0
M  V30 801 H 83.4345 0.00139011 1.587 0
M  V30 802 H 83.4555 -2.30916 3.0242 0
M  V30 803 H 82.9675 -0.668543 3.82298 0
M  V30 804 H 81.0685 -2.75487 2.50874 0
M  V30 805 H 81.1815 -2.13607 4.28846 0
M  V30 806 H 79.5455 -1.22137 2.23505 0
M  V30 807 H 80.3285 -0.0553515 3.43255 0
M  V30 808 N 82.7736 -1.49793 -0.48987 0
M  V30 809 C 83.7206 -1.67281 -1.59014 0
M  V30 810 C 84.6906 -0.514177 -1.57941 0
M  V30 811 O 85.8756 -0.742533 -1.75759 0
M  V30 812 C 83.0156 -1.75569 -2.97102 0
M  V30 813 C 82.1286 -3.0281 -3.08107 0
M  V30 814 C 81.2636 -3.02008 -4.36995 0
M  V30 815 C 80.3026 -4.23782 -4.41673 0
M  V30 816 N 79.4396 -4.20826 -5.62005 0
M  V30 817 H 84.2796 -2.61224 -1.43409 0
M  V30 818 H 81.8166 -1.29508 -0.697565 0
M  V30 819 H 83.7746 -1.78354 -3.77155 0
M  V30 820 H 82.4046 -0.850827 -3.11385 0
M  V30 821 H 81.4566 -3.09584 -2.21047 0
M  V30 822 H 82.7686 -3.92801 -3.07423 0
M  V30 823 H 81.9226 -3.03418 -5.25378 0
M  V30 824 H 80.6616 -2.09815 -4.4026 0
M  V30 825 H 79.6666 -4.22604 -3.5169 0
M  V30 826 H 80.8916 -5.17181 -4.40115 0
M  V30 827 H 78.8376 -3.31476 -5.66091 0
M  V30 828 H 78.7546 -5.04564 -5.62984 0
M  V30 829 H 80.0226 -4.26355 -6.52565 0
M  V30 830 N 84.2517 0.741722 -1.39055 0
M  V30 831 C 85.4997 1.49818 -1.35643 0
M  V30 832 C 85.8207 1.94938 0.0491642 0
M  V30 833 O 85.0907 1.68505 0.999141 0
M  V30 834 H 83.6707 0.555755 -0.499144 0
M  V30 835 H 86.3327 0.880957 -1.73854 0
M  V30 836 H 85.4287 2.38348 -2.01486 0
M  V30 837 N 85.7298 1.2412 0.971189 0
M  V30 838 C 86.6398 1.04747 2.09917 0
M  V30 839 C 87.6558 -0.0107162 1.73997 0
M  V30 840 O 88.8318 0.186714 2.00533 0
M  V30 841 C 85.8968 0.650828 3.40537 0
M  V30 842 C 84.9578 1.7851 3.90426 0
M  V30 843 C 84.1908 1.40729 5.14812 0
M  V30 844 O 84.4138 0.29557 5.69634 0
M  V30 845 O 83.3478 2.23168 5.58999 0
M  V30 846 H 87.1738 1.99304 2.29154 0
M  V30 847 H 84.7588 1.02908 1.08307 0
M  V30 848 H 86.6408 0.440992 4.19086 0
M  V30 849 H 85.3158 -0.265649 3.22608 0
M  V30 850 H 84.2228 2.04966 3.12953 0
M  V30 851 H 85.5558 2.68023 4.12825 0
M  V30 852 N 87.2079 -1.17134 1.05439 0
M  V30 853 C 88.6189 -1.69084 0.791676 0
M  V30 854 C 88.9699 -1.83822 -0.685839 0
M  V30 855 O 88.0949 -1.52757 -1.53278 0
M  V30 856 C 88.6899 -3.07119 1.4305 0
M  V30 857 C 87.2489 -3.56225 1.21577 0
M  V30 858 C 86.3959 -2.32421 1.51247 0
M  V30 859 H 89.3469 -1.01617 1.219 0
M  V30 860 H 89.3679 -3.71087 0.84112 0
M  V30 861 H 88.8799 -2.9636 2.50584 0
M  V30 862 H 86.9809 -3.72257 0.159787 0
M  V30 863 H 87.0939 -4.38837 1.92246 0
M  V30 864 H 85.4579 -2.3701 0.932653 0
M  V30 865 H 86.2409 -2.24268 2.5992 0
M  V30 866 N 88.686 -0.835752 -1.33615 0
M  V30 867 C 89.934 -0.429109 -1.97492 0
M  V30 868 C 90.255 1.01433 -1.66543 0
M  V30 869 O 89.525 1.70611 -0.962744 0
M  V30 870 H 88.105 -0.155686 -0.730596 0
M  V30 871 H 90.767 -1.06802 -1.63031 0
M  V30 872 H 89.863 -0.55861 -3.0706 0
M  V30 873 N 90.1641 1.46063 -0.591896 0
M  V30 874 C 91.4131 2.01547 -0.0786637 0
M  V30 875 C 91.7261 1.46796 1.29268 0
M  V30 876 O 92.9321 1.94157 1.89777 0
M  V30 877 C 91.3881 3.59787 -0.0900024 0
M  V30 878 C 90.9961 4.23534 -1.46023 0
M  V30 879 C 92.7401 4.22895 0.368806 0
M  V30 880 C 90.6471 5.73881 -1.4288 0
M  V30 881 H 89.5771 0.753564 -0.0256388 0
M  V30 882 H 92.2281 1.677 -0.744905 0
M  V30 883 H 90.6101 3.90752 0.642586 0
M  V30 884 H 91.7841 4.04167 -2.21328 0
M  V30 885 H 90.0991 3.72558 -1.85982 0
M  V30 886 H 92.6961 5.33116 0.411258 0
M  V30 887 H 93.0391 3.9247 1.38827 0
M  V30 888 H 93.5721 3.9659 -0.31001 0
M  V30 889 H 90.3111 6.0898 -2.42536 0
M  V30 890 H 89.8311 5.95486 -0.718095 0
M  V30 891 H 91.5101 6.36776 -1.14565 0
M  V30 892 N 91.6422 0.330177 1.54103 0
M  V30 893 C 93.0532 -0.15652 1.86043 0
M  V30 894 C 93.4042 -1.51086 1.2517 0
M  V30 895 O 92.5292 -2.09023 0.560217 0
M  V30 896 C 93.1242 -0.290784 3.3755 0
M  V30 897 C 91.6832 -0.721705 3.69416 0
M  V30 898 C 90.8302 0.152622 2.7688 0
M  V30 899 H 93.7812 0.550237 1.48856 0
M  V30 900 H 93.8022 -1.12058 3.63625 0
M  V30 901 H 93.3142 0.695068 3.81825 0
M  V30 902 H 91.4152 -1.71706 3.30678 0
M  V30 903 H 91.5282 -0.520869 4.7626 0
M  V30 904 H 89.8922 -0.372894 2.51956 0
M  V30 905 H 90.6752 1.13536 3.23982 0
M  V30 906 N 93.1203 -1.57491 0.0584922 0
M  V30 907 C 94.0833 -2.1085 -0.898617 0
M  V30 908 C 95.0833 -1.02964 -1.23511 0
M  V30 909 O 96.2733 -1.29007 -1.17059 0
M  V30 910 C 93.4053 -2.59881 -2.20623 0
M  V30 911 H 94.5983 -2.96715 -0.435936 0
M  V30 912 H 92.1513 -1.55141 -0.190023 0
M  V30 913 H 92.8863 -1.77431 -2.71457 0
M  V30 914 H 92.6713 -3.38727 -1.97501 0
M  V30 915 H 94.1613 -3.01285 -2.89166 0
M  V30 916 N 94.5984 0.214957 -1.56127 0
M  V30 917 C 95.8474 0.936451 -1.78643 0
M  V30 918 C 96.1604 1.85237 -0.628229 0
M  V30 919 O 97.3664 2.613 -0.737186 0
M  V30 920 C 95.8224 1.7154 -3.16389 0
M  V30 921 C 95.4304 0.845299 -4.39953 0
M  V30 922 C 97.1744 2.42772 -3.48227 0
M  V30 923 C 95.0814 1.62198 -5.68723 0
M  V30 924 H 94.0114 0.353401 -0.666051 0
M  V30 925 H 96.6624 0.190169 -1.82512 0
M  V30 926 H 95.0444 2.50484 -3.06715 0
M  V30 927 H 96.2184 0.0959353 -4.607 0
M  V30 928 H 94.5334 0.244789 -4.1568 0
M  V30 929 H 97.1304 3.01394 -4.41663 0
M  V30 930 H 97.4734 3.15984 -2.71035 0
M  V30 931 H 98.0064 1.70813 -3.5926 0
M  V30 932 H 94.7454 0.933011 -6.48826 0
M  V30 933 H 94.2654 2.34579 -5.52026 0
M  V30 934 H 95.9444 2.18095 -6.09133 0
M  V30 935 N 96.0765 1.50051 0.48192 0
M  V30 936 C 97.4875 1.5348 1.06305 0
M  V30 937 C 97.8385 0.331997 1.93371 0
M  V30 938 O 96.9635 -0.556256 2.09129 0
M  V30 939 C 97.5585 2.7813 1.93466 0
M  V30 940 C 96.1175 2.84275 2.46707 0
M  V30 941 C 95.2645 2.47637 1.24785 0
M  V30 942 H 98.2155 1.56472 0.264995 0
M  V30 943 H 98.2365 2.59372 2.78399 0
M  V30 944 H 97.7485 3.65654 1.30072 0
M  V30 945 H 95.8495 2.01077 3.13686 0
M  V30 946 H 95.9625 3.8691 2.82555 0
M  V30 947 H 94.3265 1.99835 1.57918 0
M  V30 948 H 95.1095 3.37457 0.630694 0
M  V30 949 N 97.5546 -0.734337 1.39446 0
M  V30 950 C 98.8026 -1.49096 1.36436 0
M  V30 951 C 99.1236 -1.94961 -0.0388255 0
M  V30 952 O 98.3936 -1.69033 -0.990191 0
M  V30 953 H 96.9736 -0.5531 0.502085 0
M  V30 954 H 99.6356 -0.871725 1.74319 0
M  V30 955 H 98.7316 -2.37276 2.02747 0
M  V30 956 N 99.0327 -1.24633 -0.964593 0
M  V30 957 C 100.282 -1.08188 -1.7023 0
M  V30 958 C 100.595 0.37873 -1.91898 0
M  V30 959 O 101.801 0.663427 -2.6327 0
M  V30 960 C 100.257 -1.88773 -3.06419 0
M  V30 961 C 99.8647 -3.39263 -2.92582 0
M  V30 962 C 101.609 -1.80867 -3.84041 0
M  V30 963 C 99.5157 -4.1218 -4.24101 0
M  V30 964 H 98.4457 -0.401245 -0.638372 0
M  V30 965 H 101.097 -1.48742 -1.07462 0
M  V30 966 H 99.4787 -1.41035 -3.70034 0
M  V30 967 H 100.653 -3.94603 -2.37961 0
M  V30 968 H 98.9677 -3.48154 -2.28424 0
M  V30 969 H 101.565 -2.32646 -4.81435 0
M  V30 970 H 101.908 -0.774543 -4.09031 0
M  V30 971 H 102.441 -2.26301 -3.27159 0
M  V30 972 H 99.1797 -5.15965 -4.04303 0
M  V30 973 H 98.6997 -3.61626 -4.78526 0
M  V30 974 H 100.379 -4.19349 -4.92702 0
M  V30 975 N 100.511 1.16574 -1.06058 0
M  V30 976 C 101.927 1.3904 -0.783585 0
M  V30 977 C 102.127 1.91784 0.618145 0
M  V30 978 O 101.183 2.11511 1.37911 0
M  V30 979 C 102.496 2.37329 -1.84649 0
M  V30 980 C 104.044 2.51018 -1.86973 0
M  V30 981 C 104.519 3.52588 -2.92311 0
M  V30 982 N 106.01 3.60113 -2.91329 0
M  V30 983 C 106.745 4.38486 -3.69482 0
M  V30 984 N 106.241 5.20302 -4.57447 0
M  V30 985 N 108.034 4.33446 -3.57885 0
M  V30 986 H 100.185 0.806725 -1.96483 0
M  V30 987 H 102.448 0.417117 -0.851303 0
M  V30 988 H 102.154 2.05663 -2.85299 0
M  V30 989 H 102.028 3.36946 -1.6955 0
M  V30 990 H 104.415 2.81989 -0.869827 0
M  V30 991 H 104.496 1.51445 -2.0615 0
M  V30 992 H 104.14 3.22354 -3.92492 0
M  V30 993 H 104.07 4.51886 -2.70383 0
M  V30 994 H 106.561 3.01707 -2.27555 0
M  V30 995 H 106.874 5.77311 -5.13743 0
M  V30 996 H 105.219 5.19653 -4.61503 0
M  V30 997 H 108.41 3.68586 -2.88551 0
M  V30 998 H 108.583 4.94279 -4.19037 0
M  V30 999 N 101.989 0.842826 1.3317 0
M  V30 1000 C 103.237 0.439577 1.97262 0
M  V30 1001 C 103.558 -1.00548 1.67078 0
M  V30 1002 O 102.828 -1.70098 0.971779 0
M  V30 1003 H 101.408 0.159558 0.72976 0
M  V30 1004 H 104.07 1.07665 1.62463 0
M  V30 1005 H 103.166 0.574886 3.0676 0
M  V30 1006 N 103.467 -1.45747 0.599634 0
M  V30 1007 C 104.878 -1.85853 0.177681 0
M  V30 1008 C 105.229 -1.50102 -1.26348 0
M  V30 1009 O 104.354 -0.923905 -1.95686 0
M  V30 1010 C 104.949 -3.37326 0.315688 0
M  V30 1011 C 103.508 -3.76365 -0.0515144 0
M  V30 1012 C 102.655 -2.69722 0.643822 0
M  V30 1013 H 105.606 -1.36661 0.806814 0
M  V30 1014 H 105.627 -3.77778 -0.454321 0
M  V30 1015 H 105.139 -3.63315 1.36468 0
M  V30 1016 H 103.24 -3.55993 -1.09999 0
M  V30 1017 H 103.353 -4.77916 0.336594 0
M  V30 1018 H 101.717 -2.54567 0.0822881 0
M  V30 1019 H 102.5 -2.98549 1.6948 0
M  V30 1020 N 104.945 -0.338344 -1.53925 0
M  V30 1021 C 105.892 0.520845 -2.24846 0
M  V30 1022 C 106.862 1.09976 -1.24477 0
M  V30 1023 O 108.047 1.13735 -1.53196 0
M  V30 1024 C 105.187 1.6685 -3.02084 0
M  V30 1025 C 104.3 1.11739 -4.17299 0
M  V30 1026 C 103.435 2.23193 -4.82036 0
M  V30 1027 C 102.474 1.65407 -5.89328 0
M  V30 1028 N 101.611 2.70582 -6.47866 0
M  V30 1029 H 106.451 -0.0904881 -2.97863 0
M  V30 1030 H 103.988 -0.0564282 -1.46992 0
M  V30 1031 H 105.946 2.34407 -3.45122 0
M  V30 1032 H 104.576 2.2509 -2.31375 0
M  V30 1033 H 103.628 0.332919 -3.7894 0
M  V30 1034 H 104.94 0.654677 -4.94485 0
M  V30 1035 H 104.094 2.98626 -5.28117 0
M  V30 1036 H 102.833 2.72807 -4.04262 0
M  V30 1037 H 101.838 0.884779 -5.42634 0
M  V30 1038 H 103.063 1.16652 -6.69006 0
M  V30 1039 H 101.009 3.1946 -5.72959 0
M  V30 1040 H 100.926 2.28917 -7.20509 0
M  V30 1041 H 102.194 3.45799 -6.98601 0
M  V30 1042 N 106.423 1.57458 -0.0668435 0
M  V30 1043 C 107.671 1.92919 0.602214 0
M  V30 1044 C 107.992 0.947215 1.70449 0
M  V30 1045 O 107.262 -0.00544117 1.95899 0
M  V30 1046 H 105.842 0.71217 0.22544 0
M  V30 1047 H 108.504 1.94508 -0.123535 0
M  V30 1048 H 107.6 2.94589 1.03073 0
M  V30 1049 N 107.901 -0.206675 1.56239 0
M  V30 1050 C 108.833 -1.27997 1.9013 0
M  V30 1051 C 109.846 -1.42299 0.790883 0
M  V30 1052 O 111.035 -1.42931 1.06925 0
M  V30 1053 C 108.135 -2.65368 2.10792 0
M  V30 1054 C 107.308 -2.72824 3.41886 0
M  V30 1055 C 106.367 -3.9131 3.51799 0
M  V30 1056 O 105.393 -3.78953 4.24716 0
M  V30 1057 N 106.595 -5.06265 2.84035 0
M  V30 1058 H 109.36 -0.992444 2.82791 0
M  V30 1059 H 106.921 -0.396652 1.56966 0
M  V30 1060 H 108.913 -3.43039 2.14724 0
M  V30 1061 H 107.483 -2.86657 1.24685 0
M  V30 1062 H 106.703 -1.81515 3.49923 0
M  V30 1063 H 107.991 -2.74786 4.28217 0
M  V30 1064 H 107.389 -5.19203 2.246 0
M  V30 1065 H 105.946 -5.81925 2.93609 0
M  V30 1066 N 109.379 -1.50304 -0.473955 0
M  V30 1067 C 110.326 -1.68959 -1.57231 0
M  V30 1068 C 111.296 -0.530899 -1.57387 0
M  V30 1069 O 112.481 -0.761133 -1.74961 0
M  V30 1070 C 109.621 -1.7871 -2.95223 0
M  V30 1071 C 108.734 -3.06061 -3.04878 0
M  V30 1072 C 107.869 -3.06626 -4.33767 0
M  V30 1073 C 106.908 -4.28443 -4.37154 0
M  V30 1074 N 106.045 -4.26763 -5.5751 0
M  V30 1075 H 110.885 -2.6273 -1.40631 0
M  V30 1076 H 108.422 -1.30241 -0.683789 0
M  V30 1077 H 110.38 -1.82344 -3.75242 0
M  V30 1078 H 109.01 -0.883806 -3.10465 0
M  V30 1079 H 108.062 -3.11911 -2.17751 0
M  V30 1080 H 109.374 -3.96039 -3.0324 0
M  V30 1081 H 108.528 -3.08973 -5.22131 0
M  V30 1082 H 107.267 -2.14473 -4.3801 0
M  V30 1083 H 106.272 -4.2631 -3.47188 0
M  V30 1084 H 107.497 -5.2182 -4.34605 0
M  V30 1085 H 105.443 -3.37462 -5.62544 0
M  V30 1086 H 105.36 -5.10507 -5.57601 0
M  V30 1087 H 106.628 -4.33253 -6.48006 0
M  V30 1088 N 110.857 0.726932 -1.39834 0
M  V30 1089 C 112.105 1.4837 -1.37225 0
M  V30 1090 C 112.426 1.94979 0.0284857 0
M  V30 1091 O 111.696 1.69555 0.981213 0
M  V30 1092 H 110.276 0.55043 -0.505011 0
M  V30 1093 H 112.938 0.862468 -1.74778 0
M  V30 1094 H 112.034 2.36198 -2.04003 0
M  V30 1095 N 112.336 1.25143 0.95797 0
M  V30 1096 C 113.246 1.06968 2.08794 0
M  V30 1097 C 114.262 0.00773911 1.73998 0
M  V30 1098 O 115.438 0.207972 2.00323 0
M  V30 1099 C 112.503 0.68691 3.39827 0
M  V30 1100 C 111.564 1.82641 3.88511 0
M  V30 1101 C 110.797 1.46181 5.1329 0
M  V30 1102 O 111.02 0.355971 5.69288 0
M  V30 1103 O 109.954 2.29085 5.566 0
M  V30 1104 H 113.78 2.01723 2.27027 0
M  V30 1105 H 111.365 1.04051 1.07209 0
M  V30 1106 H 113.247 0.485417 4.18595 0
M  V30 1107 H 111.922 -0.231417 3.22872 0
M  V30 1108 H 110.829 2.08274 3.10762 0
M  V30 1109 H 112.162 2.72386 4.09959 0
M  V30 1110 N 113.814 -1.1601 1.06675 0
M  V30 1111 C 115.225 -1.68235 0.809565 0
M  V30 1112 C 115.576 -1.8454 -0.666303 0
M  V30 1113 O 114.701 -1.54374 -1.5165 0
M  V30 1114 C 115.296 -3.05585 1.46299 0
M  V30 1115 C 113.855 -3.54915 1.25349 0
M  V30 1116 C 113.002 -2.30804 1.53703 0
M  V30 1117 H 115.953 -1.00318 1.22971 0
M  V30 1118 H 115.974 -3.70174 0.880431 0
M  V30 1119 H 115.486 -2.93686 2.53713 0
M  V30 1120 H 113.587 -3.72067 0.199261 0
M  V30 1121 H 113.7 -4.36774 1.9689 0
M  V30 1122 H 112.064 -2.36007 0.957739 0
M  V30 1123 H 112.847 -2.21499 2.62284 0
M  V30 1124 N 115.292 -0.849877 -1.32721 0
M  V30 1125 C 116.54 -0.450032 -1.97026 0
M  V30 1126 C 116.861 0.996604 -1.67609 0
M  V30 1127 O 116.131 1.6958 -0.980786 0
M  V30 1128 H 114.711 -0.163426 -0.728904 0
M  V30 1129 H 117.373 -1.08526 -1.6189 0
M  V30 1130 H 116.469 -0.591146 -3.0645 0
M  V30 1131 N 116.77 1.45427 -0.607355 0
M  V30 1132 C 117.7 2.3329 0.0989352 0
M  V30 1133 C 118.681 1.46816 0.859007 0
M  V30 1134 O 119.866 1.75588 0.829604 0
M  V30 1135 C 116.996 3.29518 1.09705 0
M  V30 1136 C 115.95 4.25626 0.450206 0
M  V30 1137 C 115.276 5.11542 1.55655 0
M  V30 1138 C 116.576 5.18505 -0.628455 0
M  V30 1139 H 118.27 2.92595 -0.634716 0
M  V30 1140 H 115.816 1.40696 -0.306681 0
M  V30 1141 H 117.769 3.89855 1.59971 0
M  V30 1142 H 116.493 2.68372 1.86129 0
M  V30 1143 H 115.152 3.66586 -0.0315886 0
M  V30 1144 H 114.8 4.46765 2.31107 0
M  V30 1145 H 114.5 5.76647 1.12925 0
M  V30 1146 H 116.024 5.74748 2.06148 0
M  V30 1147 H 117.438 5.72916 -0.209877 0
M  V30 1148 H 115.835 5.92085 -0.977489 0
M  V30 1149 H 116.905 4.60948 -1.50514 0
M  V30 1150 N 118.248 0.346503 1.53744 0
M  V30 1151 C 119.659 -0.136779 1.86198 0
M  V30 1152 C 120.01 -1.49749 1.26766 0
M  V30 1153 O 119.135 -2.08417 0.582355 0
M  V30 1154 C 119.73 -0.254966 3.37839 0
M  V30 1155 C 118.289 -0.682482 3.70161 0
M  V30 1156 C 117.436 0.181981 2.76702 0
M  V30 1157 H 120.387 0.565994 1.48264 0
M  V30 1158 H 120.408 -1.08195 3.64793 0
M  V30 1159 H 119.92 0.735526 3.81066 0
M  V30 1160 H 118.021 -1.68189 3.3248 0
M  V30 1161 H 118.134 -0.470326 4.76786 0
M  V30 1162 H 116.498 -0.34615 2.52337 0
M  V30 1163 H 117.281 1.16966 3.2276 0
M  V30 1164 N 119.726 -1.57421 0.075193 0
M  V30 1165 C 120.974 -1.93236 -0.591974 0
M  V30 1166 C 121.295 -0.956241 -1.69944 0
M  V30 1167 O 120.565 -0.00494792 -1.95899 0
M  V30 1168 H 119.145 -0.713355 -0.22166 0
M  V30 1169 H 121.807 -1.9444 0.133848 0
M  V30 1170 H 120.903 -2.95131 -1.01509 0
M  V30 1171 N 121.204 0.198386 -1.56346 0
M  V30 1172 C 122.154 1.2499 -1.90687 0
M  V30 1173 C 123.138 1.41158 -0.772217 0
M  V30 1174 O 124.33 1.43584 -1.03502 0
M  V30 1175 C 121.459 2.59542 -2.24706 0
M  V30 1176 C 120.545 2.47181 -3.44619 0
M  V30 1177 N 120.936 2.04495 -4.62618 0
M  V30 1178 C 119.234 2.78082 -3.48692 0
M  V30 1179 C 119.935 2.03945 -5.44776 0
M  V30 1180 N 118.911 2.45323 -4.85095 0
M  V30 1181 H 122.713 0.911149 -2.7942 0
M  V30 1182 H 120.227 0.40684 -1.57221 0
M  V30 1183 H 122.224 3.3549 -2.47491 0
M  V30 1184 H 120.884 2.94244 -1.37298 0
M  V30 1185 H 121.895 1.75256 -4.87345 0
M  V30 1186 H 118.572 3.17002 -2.71691 0
M  V30 1187 H 119.962 1.72872 -6.4928 0
M  V30 1188 N 122.682 1.50554 0.465978 0
M  V30 1189 C 124.093 1.54599 1.04671 0
M  V30 1190 C 124.444 0.352488 1.93008 0
M  V30 1191 O 123.569 -0.534044 2.09707 0
M  V30 1192 C 124.164 2.80166 1.90505 0
M  V30 1193 C 122.723 2.86876 2.43678 0
M  V30 1194 C 121.87 2.48947 1.22151 0
M  V30 1195 H 124.821 1.56744 0.248384 0
M  V30 1196 H 124.842 2.62311 2.75633 0
M  V30 1197 H 124.354 3.67013 1.26186 0
M  V30 1198 H 122.455 2.04393 3.11536 0
M  V30 1199 H 122.568 3.89885 2.78436 0
M  V30 1200 H 120.932 2.01498 1.5579 0
M  V30 1201 H 121.715 3.38107 0.594866 0
M  V30 1202 N 124.16 -0.719506 1.40217 0
M  V30 1203 C 125.408 -1.47641 1.3801 0
M  V30 1204 C 125.729 -1.94992 -0.018145 0
M  V30 1205 O 124.999 -1.70073 -0.972207 0
M  V30 1206 H 123.579 -0.547744 0.507923 0
M  V30 1207 H 126.241 -0.853187 1.75233 0
M  V30 1208 H 125.337 -2.35112 2.05253 0
M  V30 1209 N 125.638 -1.25649 -0.95132 0
M  V30 1210 C 126.585 -1.06323 -2.04851 0
M  V30 1211 C 127.555 0.0286491 -1.66075 0
M  V30 1212 O 128.74 -0.12917 -1.90362 0
M  V30 1213 C 125.88 -0.691529 -3.381 0
M  V30 1214 C 124.993 -1.85861 -3.89974 0
M  V30 1215 C 124.128 -1.43096 -5.11563 0
M  V30 1216 C 123.167 -2.56696 -5.55674 0
M  V30 1217 N 122.304 -2.14684 -6.68472 0
M  V30 1218 H 127.144 -2.00222 -2.20715 0
M  V30 1219 H 124.681 -0.997027 -1.08156 0
M  V30 1220 H 126.639 -0.456963 -4.1469 0
M  V30 1221 H 125.269 0.210474 -3.22113 0
M  V30 1222 H 124.321 -2.20639 -3.09875 0
M  V30 1223 H 125.633 -2.71161 -4.18657 0
M  V30 1224 H 124.787 -1.15624 -5.9558 0
M  V30 1225 H 123.526 -0.548722 -4.84603 0
M  V30 1226 H 122.531 -2.84909 -4.7022 0
M  V30 1227 H 123.756 -3.45503 -5.8464 0
M  V30 1228 H 121.702 -1.28881 -6.43215 0
M  V30 1229 H 121.619 -2.9353 -6.96689 0
M  V30 1230 H 122.887 -1.90397 -7.5589 0
M  V30 1231 N 127.117 1.15442 -1.07289 0
M  V30 1232 C 128.065 2.22225 -0.686952 0
M  V30 1233 C 129.059 1.66688 0.30193 0
M  V30 1234 O 130.265 1.79236 0.165712 0
M  V30 1235 H 126.64 0.723783 -0.204064 0
M  V30 1236 H 128.611 2.52056 -1.5972 0
M  V30 1237 C 127.36 3.47556 -0.100149 0
M  V30 1238 H 126.683 3.90612 -0.852211 0
M  V30 1239 H 128.123 4.23794 0.132235 0
M  V30 1240 C 126.582 3.16337 1.159 0
M  V30 1241 O 127.112 3.33074 2.24555 0
M  V30 1242 N 125.318 2.70385 1.06491 0
M  V30 1243 H 124.865 2.56966 0.180668 0
M  V30 1244 H 124.823 2.49871 1.90819 0
M  V30 1245 N 128.595 0.856903 1.32268 0
M  V30 1246 C 129.843 0.460474 1.96784 0
M  V30 1247 C 130.164 -0.987701 1.68135 0
M  V30 1248 O 129.434 -1.69058 0.989765 0
M  V30 1249 H 128.014 0.167289 0.728027 0
M  V30 1250 H 130.676 1.09383 1.61312 0
M  V30 1251 H 129.772 0.60739 3.06133 0
M  V30 1252 N 130.073 -1.45103 0.615059 0
M  V30 1253 C 131.484 -1.85654 0.197383 0
M  V30 1254 C 131.835 -1.51433 -1.24749 0
M  V30 1255 O 130.96 -0.944608 -1.94695 0
M  V30 1256 C 131.555 -3.36972 0.351448 0
M  V30 1257 C 130.114 -3.76398 -0.011593 0
M  V30 1258 C 129.261 -2.69024 0.672394 0
M  V30 1259 H 132.212 -1.35797 0.821263 0
M  V30 1260 H 132.233 -3.78239 -0.414227 0
M  V30 1261 H 131.745 -3.61847 1.40314 0
M  V30 1262 H 129.846 -3.5714 -1.06217 0
M  V30 1263 H 129.959 -4.77532 0.387265 0
M  V30 1264 H 128.323 -2.54465 0.109284 0
M  V30 1265 H 129.106 -2.96735 1.72636 0
M  V30 1266 N 131.551 -0.354651 -1.53558 0
M  V30 1267 C 132.484 0.540273 -2.21712 0
M  V30 1268 C 133.462 1.09161 -1.2051 0
M  V30 1269 O 134.646 1.14979 -1.49372 0
M  V30 1270 C 131.773 1.74435 -2.90328 0
M  V30 1271 C 130.819 1.32146 -4.05512 0
M  V30 1272 S 131.652 0.331924 -5.3447 0
M  V30 1273 C 132.808 1.54258 -6.06593 0
M  V30 1274 H 133.041 -0.0385776 -2.97275 0
M  V30 1275 H 130.574 -0.138736 -1.53775 0
M  V30 1276 H 132.532 2.43507 -3.30476 0
M  V30 1277 H 131.193 2.29444 -2.1451 0
M  V30 1278 H 130.386 2.21952 -4.52497 0
M  V30 1279 H 129.988 0.710091 -3.67197 0
M  V30 1280 H 132.28 2.47534 -6.30661 0
M  V30 1281 H 133.223 1.11431 -6.99277 0
M  V30 1282 H 133.631 1.74367 -5.36895 0
M  V30 1283 N 133.029 1.57378 -0.0835403 0
M  V30 1284 C 134.277 1.93547 0.581718 0
M  V30 1285 C 134.598 0.96524 1.69435 0
M  V30 1286 O 133.868 0.0153369 1.95894 0
M  V30 1287 H 132.448 0.714521 0.217874 0
M  V30 1288 H 135.11 1.94366 -0.144158 0
M  V30 1289 H 134.206 2.95665 0.999423 0
M  V30 1290 N 134.507 -0.190092 1.56449 0
M  V30 1291 C 135.918 -0.754312 1.70784 0
M  V30 1292 C 136.269 -1.83631 0.690951 0
M  V30 1293 O 135.394 -2.15868 -0.151604 0
M  V30 1294 C 135.989 -1.37503 3.09642 0
M  V30 1295 C 134.548 -1.88628 3.25725 0
M  V30 1296 C 133.695 -0.758098 2.66736 0
M  V30 1297 H 136.646 0.0350524 1.58661 0
M  V30 1298 H 136.667 -2.2445 3.0725 0
M  V30 1299 H 136.179 -0.587302 3.83631 0
M  V30 1300 H 134.28 -2.70103 2.56661 0
M  V30 1301 H 134.393 -2.04462 4.3328 0
M  V30 1302 H 132.757 -1.17369 2.26046 0
M  V30 1303 H 133.54 0.0174705 3.43296 0
M  V30 1304 N 135.985 -1.50799 -0.457987 0
M  V30 1305 C 137.396 -1.55152 -1.0385 0
M  V30 1306 C 137.747 -0.362719 -1.92818 0
M  V30 1307 O 136.872 0.522915 -2.09987 0
M  V30 1308 C 137.467 -2.81173 -1.89017 0
M  V30 1309 C 136.026 -2.88164 -2.42154 0
M  V30 1310 C 135.173 -2.49591 -1.20829 0
M  V30 1311 H 138.124 -1.56874 -0.240068 0
M  V30 1312 H 138.145 -2.63769 -2.74238 0
M  V30 1313 H 137.657 -3.67677 -1.24238 0
M  V30 1314 H 135.758 -2.06042 -3.10447 0
M  V30 1315 H 135.871 -3.91356 -2.76364 0
M  V30 1316 H 134.235 -2.02322 -1.54719 0
M  V30 1317 H 135.018 -3.38418 -0.576927 0
M  V30 1318 N 137.463 0.71206 -1.40597 0
M  V30 1319 C 138.711 1.46907 -1.38791 0
M  V30 1320 C 139.032 1.94998 0.00780391 0
M  V30 1321 O 138.302 1.70587 0.963174 0
M  V30 1322 H 136.882 0.545043 -0.51082 0
M  V30 1323 H 139.544 0.843882 -1.75683 0
M  V30 1324 H 138.64 2.34021 -2.06496 0
M  V30 1325 N 138.941 1.26152 0.944643 0
M  V30 1326 C 139.874 1.01729 2.04271 0
M  V30 1327 C 140.852 -0.0568101 1.62501 0
M  V30 1328 O 142.036 0.0848987 1.88309 0
M  V30 1329 C 139.163 0.539792 3.34371 0
M  V30 1330 C 138.209 1.60593 3.9511 0
M  V30 1331 S 139.042 3.19392 4.29825 0
M  V30 1332 C 140.198 2.73402 5.63029 0
M  V30 1333 H 140.431 1.94703 2.24673 0
M  V30 1334 H 137.964 1.09793 1.08558 0
M  V30 1335 H 139.922 0.270956 4.09605 0
M  V30 1336 H 138.583 -0.369609 3.11918 0
M  V30 1337 H 137.776 1.22275 4.88943 0
M  V30 1338 H 137.378 1.82596 3.26397 0
M  V30 1339 H 139.67 2.1765 6.41588 0
M  V30 1340 H 140.613 3.65913 6.06229 0
M  V30 1341 H 141.021 2.13077 5.22741 0
M  V30 1342 N 140.419 -1.14872 1.07899 0
M  V30 1343 C 141.83 -1.67367 0.827363 0
M  V30 1344 C 142.181 -1.85236 -0.646693 0
M  V30 1345 O 141.306 -1.55974 -1.50004 0
M  V30 1346 C 141.901 -3.04016 1.49532 0
M  V30 1347 C 140.46 -3.53566 1.29106 0
M  V30 1348 C 139.607 -2.29161 1.56143 0
M  V30 1349 H 142.558 -0.990083 1.24028 0
M  V30 1350 H 142.579 -3.69219 0.919643 0
M  V30 1351 H 142.091 -2.90978 2.56814 0
M  V30 1352 H 140.192 -3.71835 0.238713 0
M  V30 1353 H 140.305 -4.34661 2.01511 0
M  V30 1354 H 138.669 -2.34978 0.982717 0
M  V30 1355 H 139.452 -2.18705 2.64619 0
M  V30 1356 N 141.898 -0.863906 -1.31812 0
M  V30 1357 C 143.146 -0.470904 -1.96537 0
M  V30 1358 C 143.467 0.978771 -1.68657 0
M  V30 1359 O 142.737 1.6853 -0.998717 0
M  V30 1360 H 141.317 -0.171148 -0.72713 0
M  V30 1361 H 143.979 -1.10236 -1.60729 0
M  V30 1362 H 143.075 -0.623616 -3.05806 0
M  V30 1363 N 143.376 1.44774 -0.622745 0
M  V30 1364 C 144.622 2.0242 -0.124083 0
M  V30 1365 C 144.955 1.4881 1.24777 0
M  V30 1366 O 144.23 0.668799 1.8264 0
M  V30 1367 C 144.513 3.59957 -0.101619 0
M  V30 1368 C 144.366 4.23867 -1.50521 0
M  V30 1369 C 145.685 4.36284 0.578272 0
M  V30 1370 H 142.804 0.735528 -0.0465645 0
M  V30 1371 H 145.446 1.72447 -0.797617 0
M  V30 1372 H 143.596 3.85623 0.471934 0
M  V30 1373 H 145.268 4.09336 -2.12701 0
M  V30 1374 H 143.511 3.81684 -2.06154 0
M  V30 1375 H 144.182 5.32843 -1.4416 0
M  V30 1376 H 146.658 4.16001 0.0906057 0
M  V30 1377 H 145.534 5.46004 0.563149 0
M  V30 1378 H 145.795 4.10271 1.64713 0
M  V30 1379 N 144.854 0.36279 1.53368 0
M  V30 1380 C 146.265 -0.117022 1.86333 0
M  V30 1381 C 146.616 -1.48397 1.28347 0
M  V30 1382 O 145.741 -2.07787 0.604428 0
M  V30 1383 C 146.336 -0.21912 3.38091 0
M  V30 1384 C 144.895 -0.643184 3.70864 0
M  V30 1385 C 144.042 0.211318 2.76494 0
M  V30 1386 H 146.993 0.581687 1.47655 0
M  V30 1387 H 147.014 -1.04319 3.6592 0
M  V30 1388 H 146.526 0.775902 3.80265 0
M  V30 1389 H 144.627 -1.64654 3.34245 0
M  V30 1390 H 144.74 -0.41973 4.77258 0
M  V30 1391 H 143.104 -0.319367 2.5269 0
M  V30 1392 H 143.887 1.20383 3.21501 0
M  V30 1393 N 146.332 -1.57332 0.0918853 0
M  V30 1394 C 147.58 -1.93853 -0.571446 0
M  V30 1395 C 147.901 -0.974212 -1.6892 0
M  V30 1396 O 147.171 -0.0257254 -1.95883 0
M  V30 1397 H 145.751 -0.715666 -0.214082 0
M  V30 1398 H 148.413 -1.94287 0.154464 0
M  V30 1399 H 147.509 -2.96191 -0.983729 0
M  V30 1400 N 147.81 0.181792 -1.56548 0
M  V30 1401 C 149.221 0.745244 -1.71181 0
M  V30 1402 C 149.572 1.83262 -0.70068 0
M  V30 1403 O 148.697 2.15946 0.140154 0
M  V30 1404 C 149.292 1.35859 -3.10367 0
M  V30 1405 C 147.851 1.86898 -3.2672 0
M  V30 1406 C 146.998 0.743942 -2.67134 0
M  V30 1407 H 149.949 -0.0434661 -1.5864 0
M  V30 1408 H 149.97 2.22817 -3.08436 0
M  V30 1409 H 149.482 0.566948 -3.83937 0
M  V30 1410 H 147.583 2.68738 -2.5809 0
M  V30 1411 H 147.696 2.02162 -4.34359 0
M  V30 1412 H 146.06 1.16169 -2.26665 0
M  V30 1413 H 146.843 -0.035676 -3.43281 0
M  V30 1414 N 149.288 1.51039 0.449983 0
M  V30 1415 C 150.221 1.66105 1.56474 0
M  V30 1416 C 151.199 0.508776 1.54435 0
M  V30 1417 O 152.383 0.731005 1.73749 0
M  V30 1418 C 149.51 1.66304 2.9506 0
M  V30 1419 C 148.556 2.87346 3.15174 0
M  V30 1420 S 149.389 4.4835 2.92818 0
M  V30 1421 C 150.545 4.51274 4.33708 0
M  V30 1422 H 150.778 2.60397 1.43459 0
M  V30 1423 H 148.311 1.40565 0.638805 0
M  V30 1424 H 150.269 1.67103 3.74949 0
M  V30 1425 H 148.93 0.732108 3.05449 0
M  V30 1426 H 148.123 2.83849 4.16468 0
M  V30 1427 H 147.725 2.84223 2.43091 0
M  V30 1428 H 150.017 4.26136 5.26701 0
M  V30 1429 H 150.96 5.53017 4.42242 0
M  V30 1430 H 151.368 3.80738 4.16772 0
M  V30 1431 N 150.766 -0.704594 1.40972 0
M  V30 1432 C 152.014 -1.46169 1.39568 0
M  V30 1433 C 152.335 -1.95 0.00253745 0
M  V30 1434 O 151.605 -1.71095 -0.954114 0
M  V30 1435 H 150.185 -0.542326 0.513704 0
M  V30 1436 H 152.847 -0.834553 1.76128 0
M  V30 1437 H 151.943 -2.32922 2.07735 0
M  V30 1438 N 152.244 -1.26651 -0.937939 0
M  V30 1439 C 153.493 -1.11775 -1.67897 0
M  V30 1440 C 153.806 0.33794 -1.92659 0
M  V30 1441 O 155.012 0.607434 -2.64618 0
M  V30 1442 C 153.468 -1.9523 -3.02346 0
M  V30 1443 C 153.076 -3.45393 -2.8532 0
M  V30 1444 C 154.82 -1.88972 -3.80118 0
M  V30 1445 C 152.727 -4.21083 -4.15263 0
M  V30 1446 H 151.657 -0.414696 -0.629717 0
M  V30 1447 H 154.308 -1.50988 -1.04283 0
M  V30 1448 H 152.69 -1.48853 -3.66959 0
M  V30 1449 H 153.864 -3.99561 -2.29537 0
M  V30 1450 H 152.179 -3.52921 -2.20988 0
M  V30 1451 H 154.776 -2.42805 -4.76392 0
M  V30 1452 H 155.119 -0.86113 -4.07296 0
M  V30 1453 H 155.652 -2.33189 -3.22285 0
M  V30 1454 H 152.391 -5.24425 -3.93267 0
M  V30 1455 H 151.911 -3.71695 -4.70747 0
M  V30 1456 H 153.59 -4.29706 -4.83696 0
M  V30 1457 N 153.722 1.14298 -1.08507 0
M  V30 1458 C 155.133 1.66926 -0.836227 0
M  V30 1459 C 155.484 1.85576 0.63686 0
M  V30 1460 O 154.609 1.56767 1.49175 0
M  V30 1461 C 155.204 3.03219 -1.51142 0
M  V30 1462 C 153.763 3.52876 -1.30979 0
M  V30 1463 C 152.91 2.2833 -1.57356 0
M  V30 1464 H 155.861 0.983491 -1.24552 0
M  V30 1465 H 155.882 3.68726 -0.939211 0
M  V30 1466 H 155.394 2.89612 -2.58353 0
M  V30 1467 H 153.495 3.71703 -0.258429 0
M  V30 1468 H 153.608 4.33586 -2.03814 0
M  V30 1469 H 151.972 2.34454 -0.995164 0
M  V30 1470 H 152.755 2.17298 -2.65775 0
M  V30 1471 N 155.201 0.870884 1.31352 0
M  V30 1472 C 156.449 0.48132 1.96285 0
M  V30 1473 C 156.77 -0.969813 1.69173 0
M  V30 1474 O 156.04 -1.67998 1.00764 0
M  V30 1475 H 154.62 0.175002 0.726212 0
M  V30 1476 H 157.282 1.11087 1.60143 0
M  V30 1477 H 156.378 0.639825 3.05471 0
M  V30 1478 N 156.679 -1.44442 0.630414 0
M  V30 1479 C 157.589 -2.34476 -0.0761693 0
M  V30 1480 C 158.605 -1.52576 -0.836449 0
M  V30 1481 O 159.781 -1.85307 -0.788874 0
M  V30 1482 C 156.846 -3.30545 -1.04599 0
M  V30 1483 C 155.907 -4.28352 -0.28516 0
M  V30 1484 C 155.14 -5.19831 -1.20878 0
M  V30 1485 O 155.363 -5.15223 -2.44747 0
M  V30 1486 O 154.297 -5.97892 -0.693491 0
M  V30 1487 H 158.123 -2.96345 0.664324 0
M  V30 1488 H 155.708 -1.44203 0.39061 0
M  V30 1489 H 157.59 -3.89681 -1.60396 0
M  V30 1490 H 156.265 -2.7121 -1.76711 0
M  V30 1491 H 155.172 -3.72764 0.315837 0
M  V30 1492 H 156.505 -4.90605 0.395924 0
M  V30 1493 N 158.157 -0.370918 -1.53173 0
M  V30 1494 C 159.568 0.107139 -1.86392 0
M  V30 1495 C 159.919 1.47714 -1.29132 0
M  V30 1496 O 159.044 2.07464 -0.615439 0
M  V30 1497 C 159.639 0.201187 -3.38202 0
M  V30 1498 C 158.198 0.623507 -3.712 0
M  V30 1499 C 157.345 -0.225978 -2.76378 0
M  V30 1500 H 160.296 -0.58951 -1.47345 0
M  V30 1501 H 160.317 1.02377 -3.66468 0
M  V30 1502 H 159.829 -0.796058 -3.79848 0
M  V30 1503 H 157.93 1.62879 -3.35114 0
M  V30 1504 H 158.043 0.394414 -4.77474 0
M  V30 1505 H 156.407 0.305962 -2.52856 0
M  V30 1506 H 157.19 -1.22086 -3.20858 0
M  V30 1507 N 159.635 1.57281 -0.100228 0
M  V30 1508 C 160.883 1.94153 0.561157 0
M  V30 1509 C 161.204 0.983157 1.68401 0
M  V30 1510 O 160.474 0.0361132 1.95867 0
M  V30 1511 H 159.054 0.716791 0.210283 0
M  V30 1512 H 161.716 1.94202 -0.164765 0
M  V30 1513 H 160.812 2.96709 0.968008 0
M  V30 1514 N 161.113 -0.173488 1.56642 0
M  V30 1515 C 162.023 -1.23482 1.99473 0
M  V30 1516 C 163.039 -1.48567 0.905752 0
M  V30 1517 O 164.215 -1.60758 1.21321 0
M  V30 1518 C 161.28 -2.55444 2.34413 0
M  V30 1519 C 160.341 -2.38241 3.57127 0
M  V30 1520 C 159.574 -3.63909 3.90392 0
M  V30 1521 O 159.797 -4.68996 3.24653 0
M  V30 1522 O 158.731 -3.58149 4.83749 0
M  V30 1523 H 162.557 -0.901279 2.90018 0
M  V30 1524 H 160.142 -0.380185 1.44482 0
M  V30 1525 H 162.024 -3.33292 2.57865 0
M  V30 1526 H 160.699 -2.88382 1.4703 0
M  V30 1527 H 159.606 -1.58431 3.38896 0
M  V30 1528 H 160.939 -2.10228 4.45045 0
M  V30 1529 N 162.591 -1.51276 -0.441967 0
M  V30 1530 C 163.501 -1.75092 -1.56141 0
M  V30 1531 C 164.517 -0.634963 -1.62001 0
M  V30 1532 O 165.693 -0.916686 -1.79329 0
M  V30 1533 C 162.758 -1.86666 -2.92158 0
M  V30 1534 C 161.819 -3.10506 -2.96453 0
M  V30 1535 C 161.052 -3.21519 -4.25982 0
M  V30 1536 O 161.275 -2.38586 -5.18105 0
M  V30 1537 O 160.209 -4.14465 -4.36466 0
M  V30 1538 H 164.035 -2.70044 -1.38961 0
M  V30 1539 H 161.62 -1.35722 -0.624499 0
M  V30 1540 H 163.502 -1.96292 -3.72891 0
M  V30 1541 H 162.177 -0.949014 -3.09476 0
M  V30 1542 H 161.084 -3.06363 -2.14692 0
M  V30 1543 H 162.417 -4.01945 -2.84079 0
M  V30 1544 N 164.069 0.697108 -1.41344 0
M  V30 1545 C 165.317 1.45426 -1.40341 0
M  V30 1546 C 165.638 1.94996 -0.0128787 0
M  V30 1547 O 164.908 1.71599 0.945027 0
M  V30 1548 H 163.488 0.539594 -0.516573 0
M  V30 1549 H 166.15 0.825201 -1.76569 0
M  V30 1550 H 165.246 2.31817 -2.08967 0
M  V30 1551 N 165.547 1.27147 0.931209 0
M  V30 1552 C 166.963 1.04475 1.20653 0
M  V30 1553 C 167.163 -0.223885 2.00252 0
M  V30 1554 O 166.219 -0.930332 2.34736 0
M  V30 1555 C 167.532 2.28209 1.95809 0
M  V30 1556 C 169.08 2.33211 2.08762 0
M  V30 1557 C 169.555 3.56665 2.87323 0
M  V30 1558 N 171.046 3.57201 2.94892 0
M  V30 1559 C 171.781 4.49395 3.56134 0
M  V30 1560 N 171.277 5.51889 4.18796 0
M  V30 1561 N 173.07 4.37026 3.53504 0
M  V30 1562 H 165.221 2.08612 0.399333 0
M  V30 1563 H 167.484 0.917312 0.239253 0
M  V30 1564 H 167.19 3.20538 1.44736 0
M  V30 1565 H 167.064 2.33247 2.96438 0
M  V30 1566 H 169.451 1.41391 2.59023 0
M  V30 1567 H 169.532 2.32178 1.07364 0
M  V30 1568 H 169.176 4.4882 2.37746 0
M  V30 1569 H 169.106 3.54948 3.88998 0
M  V30 1570 H 171.597 2.83074 2.50354 0
M  V30 1571 H 171.91 6.18409 4.63454 0
M  V30 1572 H 170.255 5.55735 4.17353 0
M  V30 1573 H 173.446 3.56166 3.03749 0
M  V30 1574 H 173.619 5.09067 4.00942 0
M  V30 1575 N 167.025 -1.13721 1.09112 0
M  V30 1576 C 168.255 -1.88499 0.845671 0
M  V30 1577 C 168.663 -1.79218 -0.606432 0
M  V30 1578 O 168.006 -1.1544 -1.42896 0
M  V30 1579 C 168.068 -3.38954 1.19793 0
M  V30 1580 C 167.732 -3.72018 2.65428 0
M  V30 1581 C 168.729 -3.7153 3.63677 0
M  V30 1582 C 166.414 -4.01775 3.01467 0
M  V30 1583 C 168.408 -4.00336 4.95994 0
M  V30 1584 C 166.095 -4.30243 4.33975 0
M  V30 1585 C 167.093 -4.29508 5.31048 0
M  V30 1586 O 166.781 -4.5728 6.61173 0
M  V30 1587 H 166.513 -0.603702 0.304171 0
M  V30 1588 H 169.067 -1.44903 1.45576 0
M  V30 1589 H 167.297 -3.83039 0.530871 0
M  V30 1590 H 168.986 -3.95052 0.932146 0
M  V30 1591 H 169.752 -3.4862 3.37179 0
M  V30 1592 H 165.631 -4.01496 2.26544 0
M  V30 1593 H 169.175 -3.99678 5.71755 0
M  V30 1594 H 165.072 -4.52625 4.60219 0
M  V30 1595 H 165.84 -4.74964 6.66597 0
M  V30 1596 N 168.503 -0.877838 -1.30888 0
M  V30 1597 C 169.45 -0.337538 -2.28318 0
M  V30 1598 C 170.42 0.568346 -1.56074 0
M  V30 1599 O 171.605 0.498298 -1.84178 0
M  V30 1600 C 168.745 0.448142 -3.42178 0
M  V30 1601 C 167.858 -0.48615 -4.29256 0
M  V30 1602 C 166.993 0.314427 -5.30269 0
M  V30 1603 C 166.032 -0.615791 -6.08995 0
M  V30 1604 N 165.169 0.14902 -7.01942 0
M  V30 1605 H 170.009 -1.17356 -2.73919 0
M  V30 1606 H 167.546 -0.590094 -1.34745 0
M  V30 1607 H 169.504 0.919517 -4.06941 0
M  V30 1608 H 168.134 1.24879 -2.97666 0
M  V30 1609 H 167.186 -1.076 -3.64865 0
M  V30 1610 H 168.498 -1.19909 -4.84173 0
M  V30 1611 H 167.652 0.847969 -6.00745 0
M  V30 1612 H 166.391 1.06062 -4.76027 0
M  V30 1613 H 165.396 -1.16102 -5.37401 0
M  V30 1614 H 166.621 -1.36097 -6.65323 0
M  V30 1615 H 164.567 0.877884 -6.50099 0
M  V30 1616 H 164.484 -0.504433 -7.54315 0
M  V30 1617 H 165.752 0.663537 -7.76671 0
M  V30 1618 N 169.982 1.44106 -0.638065 0
M  V30 1619 C 170.914 2.28976 0.101205 0
M  V30 1620 C 171.927 1.4167 0.802088 0
M  V30 1621 O 173.116 1.65755 0.662375 0
M  V30 1622 C 170.216 3.18217 1.16581 0
M  V30 1623 C 169.389 4.33978 0.546066 0
M  V30 1624 C 168.448 5.04202 1.50554 0
M  V30 1625 O 167.474 5.59986 1.01999 0
M  V30 1626 N 168.676 5.06296 2.8398 0
M  V30 1627 H 171.441 2.93064 -0.627186 0
M  V30 1628 H 169.002 1.54629 -0.479731 0
M  V30 1629 H 170.994 3.62061 1.80815 0
M  V30 1630 H 169.564 2.55833 1.79634 0
M  V30 1631 H 168.784 3.93239 -0.275046 0
M  V30 1632 H 170.072 5.08675 0.112793 0
M  V30 1633 H 169.47 4.62319 3.26002 0
M  V30 1634 H 168.027 5.53907 3.43556 0
M  V30 1635 N 171.46 0.379036 1.52974 0
M  V30 1636 C 172.407 -0.461048 2.26148 0
M  V30 1637 C 173.377 -1.06637 1.27349 0
M  V30 1638 O 174.562 -1.09633 1.56157 0
M  V30 1639 C 171.702 -1.58782 3.06402 0
M  V30 1640 C 170.815 -1.00636 4.20115 0
M  V30 1641 C 169.95 -2.10334 4.87784 0
M  V30 1642 C 168.989 -1.49724 5.93506 0
M  V30 1643 N 168.126 -2.5331 6.54812 0
M  V30 1644 H 172.966 0.169429 2.97518 0
M  V30 1645 H 170.503 0.0953806 1.4679 0
M  V30 1646 H 172.461 -2.25174 3.51215 0
M  V30 1647 H 171.091 -2.18876 2.37261 0
M  V30 1648 H 170.143 -0.232332 3.7969 0
M  V30 1649 H 171.455 -0.523343 4.96047 0
M  V30 1650 H 170.609 -2.84519 5.35849 0
M  V30 1651 H 169.348 -2.61992 4.11353 0
M  V30 1652 H 168.353 -0.740598 5.44789 0
M  V30 1653 H 169.578 -0.988732 6.71864 0
M  V30 1654 H 167.524 -3.04156 5.81227 0
M  V30 1655 H 167.441 -2.09734 7.26325 0
M  V30 1656 H 168.709 -3.27155 7.07524 0
M  V30 1657 N 172.938 -1.57226 0.108567 0
M  V30 1658 C 174.185 -1.94833 -0.551943 0
M  V30 1659 C 174.513 -0.991204 -1.67348 0
M  V30 1660 O 173.768 -0.0131878 -1.95696 0
M  V30 1661 C 174.067 -3.38911 -1.13463 0
M  V30 1662 C 173.733 -4.50696 -0.135509 0
M  V30 1663 C 172.395 -4.80998 0.139252 0
M  V30 1664 C 174.747 -5.18333 0.545957 0
M  V30 1665 C 172.075 -5.76259 1.10194 0
M  V30 1666 C 174.427 -6.14627 1.49721 0
M  V30 1667 C 173.091 -6.43327 1.78006 0
M  V30 1668 H 172.361 -0.712944 -0.20197 0
M  V30 1669 H 175.008 -1.90582 0.18726 0
M  V30 1670 H 173.313 -3.39805 -1.95037 0
M  V30 1671 H 175.01 -3.65317 -1.65362 0
M  V30 1672 H 171.6 -4.27087 -0.359846 0
M  V30 1673 H 175.784 -4.95087 0.346842 0
M  V30 1674 H 171.04 -5.96804 1.32795 0
M  V30 1675 H 175.214 -6.66126 2.03099 0
M  V30 1676 H 172.841 -7.1695 2.52759 0
M  V30 1677 N 174.416 0.165178 -1.56732 0
M  V30 1678 C 175.348 1.22911 -1.93457 0
M  V30 1679 C 176.361 1.40152 -0.828333 0
M  V30 1680 O 177.55 1.40046 -1.10677 0
M  V30 1681 C 174.65 2.59686 -2.17753 0
M  V30 1682 C 173.823 2.63663 -3.48999 0
M  V30 1683 C 172.882 3.81845 -3.62051 0
M  V30 1684 O 171.908 3.67559 -4.34613 0
M  V30 1685 N 173.11 4.98557 -2.97357 0
M  V30 1686 H 175.875 0.917118 -2.85323 0
M  V30 1687 H 173.436 0.354895 -1.57962 0
M  V30 1688 H 175.428 3.37225 -2.23743 0
M  V30 1689 H 173.998 2.83251 -1.32242 0
M  V30 1690 H 173.218 1.72173 -3.54612 0
M  V30 1691 H 174.506 2.63336 -4.35352 0
M  V30 1692 H 173.904 5.13065 -2.38287 0
M  V30 1693 H 172.461 5.73936 -3.08934 0
M  V30 1694 N 175.894 1.51508 0.433938 0
M  V30 1695 C 177.119 1.68443 1.21003 0
M  V30 1696 C 177.544 0.382636 1.84167 0
M  V30 1697 O 176.902 -0.65755 1.68956 0
M  V30 1698 C 176.95 2.80405 2.26727 0
M  V30 1699 O 176.054 2.44245 3.32292 0
M  V30 1700 H 175.395 0.561536 0.354363 0
M  V30 1701 H 177.925 1.9809 0.512024 0
M  V30 1702 H 177.935 3.0459 2.71457 0
M  V30 1703 H 176.61 3.74867 1.80132 0
M  V30 1704 H 175.187 2.30644 2.93015 0
M  V30 1705 N 177.372 -0.689602 1.41712 0
M  V30 1706 C 178.618 -1.45181 1.41599 0
M  V30 1707 C 178.951 -1.94181 0.0270081 0
M  V30 1708 O 178.226 -1.6993 -0.946265 0
M  V30 1709 C 178.509 -2.65945 2.42787 0
M  V30 1710 C 178.362 -2.22672 3.90816 0
M  V30 1711 C 179.681 -3.68149 2.41151 0
M  V30 1712 H 176.8 -0.526576 0.515642 0
M  V30 1713 H 179.442 -0.784947 1.73028 0
M  V30 1714 H 177.592 -3.2284 2.16116 0
M  V30 1715 H 179.264 -1.71058 4.28412 0
M  V30 1716 H 177.507 -1.54394 4.05395 0
M  V30 1717 H 178.178 -3.0935 4.57172 0
M  V30 1718 H 180.654 -3.2094 2.64834 0
M  V30 1719 H 179.53 -4.50248 3.13955 0
M  V30 1720 H 179.791 -4.18259 1.43221 0
M  V30 1721 N 178.85 -1.27639 -0.924453 0
M  V30 1722 C 180.097 -1.14167 -1.67249 0
M  V30 1723 C 180.425 0.311863 -1.91984 0
M  V30 1724 O 179.68 1.24425 -1.51053 0
M  V30 1725 C 179.979 -1.87407 -3.04325 0
M  V30 1726 C 179.645 -3.37249 -2.99289 0
M  V30 1727 C 178.307 -3.7812 -2.97622 0
M  V30 1728 C 180.659 -4.32845 -2.90336 0
M  V30 1729 C 177.987 -5.12944 -2.8479 0
M  V30 1730 C 180.339 -5.6773 -2.79045 0
M  V30 1731 C 179.003 -6.07889 -2.7573 0
M  V30 1732 H 178.273 -0.417766 -0.612007 0
M  V30 1733 H 180.92 -1.58286 -1.07786 0
M  V30 1734 H 179.225 -1.35805 -3.67511 0
M  V30 1735 H 180.922 -1.74408 -3.61086 0
M  V30 1736 H 177.512 -3.04748 -3.01374 0
M  V30 1737 H 181.696 -4.02239 -2.90719 0
M  V30 1738 H 176.952 -5.432 -2.80612 0
M  V30 1739 H 181.126 -6.41472 -2.71083 0
M  V30 1740 H 178.753 -7.12314 -2.65544 0
M  V30 1741 N 180.328 1.1314 -1.09713 0
M  V30 1742 C 181.556 1.88321 -0.856898 0
M  V30 1743 C 181.971 1.79276 0.592073 0
M  V30 1744 O 181.328 1.16142 1.40774 0
M  V30 1745 C 181.379 3.37812 -1.28706 0
M  V30 1746 O 181.1 3.46627 -2.67921 0
M  V30 1747 C 182.601 4.29952 -1.07964 0
M  V30 1748 H 179.821 0.596094 -0.308079 0
M  V30 1749 H 182.365 1.43205 -1.45988 0
M  V30 1750 H 180.52 3.805 -0.727912 0
M  V30 1751 H 180.934 4.39579 -2.8613 0
M  V30 1752 H 182.408 5.33159 -1.42986 0
M  V30 1753 H 182.885 4.39196 -0.0176577 0
M  V30 1754 H 183.491 3.93036 -1.62489 0
M  V30 1755 N 181.806 0.884767 1.30421 0
M  V30 1756 C 183.052 0.503851 1.96441 0
M  V30 1757 C 183.385 -0.944518 1.69684 0
M  V30 1758 O 182.66 -1.66737 1.00145 0
M  V30 1759 C 182.943 0.779085 3.51571 0
M  V30 1760 C 182.796 2.27807 3.87846 0
M  V30 1761 C 184.115 0.255452 4.39358 0
M  V30 1762 H 181.234 0.184533 0.713524 0
M  V30 1763 H 183.876 1.10872 1.54297 0
M  V30 1764 H 182.026 0.264274 3.876 0
M  V30 1765 H 183.698 2.86127 3.61841 0
M  V30 1766 H 181.941 2.74479 3.35922 0
M  V30 1767 H 182.612 2.42125 4.96064 0
M  V30 1768 H 185.088 0.696079 4.10236 0
M  V30 1769 H 183.964 0.477361 5.4682 0
M  V30 1770 H 184.225 -0.843293 4.33983 0
M  V30 1771 N 183.284 -1.43765 0.645699 0
M  V30 1772 C 184.512 -2.06253 0.163556 0
M  V30 1773 C 184.927 -1.48352 -1.16778 0
M  V30 1774 O 184.284 -0.611932 -1.71935 0
M  V30 1775 C 184.335 -3.61453 0.0583186 0
M  V30 1776 O 184.056 -4.172 1.33702 0
M  V30 1777 C 185.557 -4.41002 -0.450795 0
M  V30 1778 H 182.777 -0.665413 0.0864077 0
M  V30 1779 H 185.321 -1.84396 0.884222 0
M  V30 1780 H 183.476 -3.82522 -0.612865 0
M  V30 1781 H 183.89 -5.10791 1.19131 0
M  V30 1782 H 185.364 -5.49966 -0.473403 0
M  V30 1783 H 185.841 -4.13488 -1.48068 0
M  V30 1784 H 186.447 -4.24886 0.187637 0
M  V30 1785 N 184.763 -0.387143 -1.52771 0
M  V30 1786 C 186.179 -0.037007 -1.59557 0
M  V30 1787 C 186.379 1.44801 -1.40124 0
M  V30 1788 O 185.435 2.21227 -1.21716 0
M  V30 1789 C 186.748 -0.512256 -2.96305 0
M  V30 1790 C 188.296 -0.468328 -3.09476 0
M  V30 1791 C 188.771 -0.919731 -4.4867 0
M  V30 1792 N 190.262 -0.875656 -4.54848 0
M  V30 1793 C 190.997 -1.19637 -5.6078 0
M  V30 1794 N 190.493 -1.58745 -6.74368 0
M  V30 1795 N 192.286 -1.11776 -5.50874 0
M  V30 1796 H 184.437 -1.35395 -1.63652 0
M  V30 1797 H 186.7 -0.554818 -0.768688 0
M  V30 1798 H 186.406 -1.54935 -3.15734 0
M  V30 1799 H 186.28 0.089805 -3.77093 0
M  V30 1800 H 188.667 0.559671 -2.89744 0
M  V30 1801 H 188.748 -1.10616 -2.30646 0
M  V30 1802 H 188.392 -1.94595 -4.69143 0
M  V30 1803 H 188.322 -0.258927 -5.25963 0
M  V30 1804 H 190.813 -0.587843 -3.733 0
M  V30 1805 H 191.126 -1.81586 -7.51163 0
M  V30 1806 H 189.471 -1.6263 -6.75705 0
M  V30 1807 H 192.662 -0.811264 -4.61016 0
M  V30 1808 H 192.835 -1.37103 -6.3333 0
M  V30 1809 N 186.241 1.57166 -0.116904 0
M  V30 1810 C 187.173 2.12271 0.864507 0
M  V30 1811 C 188.186 1.06494 1.23138 0
M  V30 1812 O 189.375 1.33873 1.18069 0
M  V30 1813 C 186.475 2.60564 2.16702 0
M  V30 1814 C 185.648 3.90416 1.97216 0
M  V30 1815 C 184.707 4.24329 3.11178 0
M  V30 1816 O 183.733 4.93182 2.84184 0
M  V30 1817 N 184.935 3.8148 4.37554 0
M  V30 1818 H 187.7 2.97102 0.393726 0
M  V30 1819 H 185.261 1.61759 0.0675805 0
M  V30 1820 H 187.253 2.80282 2.91932 0
M  V30 1821 H 185.823 1.80623 2.55135 0
M  V30 1822 H 185.043 3.79627 1.06192 0
M  V30 1823 H 186.331 4.75327 1.81499 0
M  V30 1824 H 185.729 3.25943 4.62361 0
M  V30 1825 H 184.286 4.06311 5.09661 0
M  V30 1826 N 187.719 -0.156864 1.56817 0
M  V30 1827 C 188.947 -0.886316 1.86955 0
M  V30 1828 C 189.362 -1.75185 0.703975 0
M  V30 1829 O 188.719 -1.79555 -0.326552 0
M  V30 1830 C 188.77 -1.75117 3.16253 0
M  V30 1831 O 188.491 -0.920537 4.2832 0
M  V30 1832 C 189.992 -2.58905 3.59837 0
M  V30 1833 H 187.212 -0.25678 0.619923 0
M  V30 1834 H 189.756 -0.152615 2.0393 0
M  V30 1835 H 187.911 -2.43805 3.01062 0
M  V30 1836 H 188.325 -1.51337 5.02192 0
M  V30 1837 H 189.799 -3.1518 4.53172 0
M  V30 1838 H 190.276 -3.34472 2.84649 0
M  V30 1839 H 190.882 -1.95526 3.7769 0
M  V30 1840 N 189.197 -1.51736 -0.425897 0
M  V30 1841 C 190.147 -1.70258 -1.51645 0
M  V30 1842 C 191.131 -0.556488 -1.5097 0
M  V30 1843 O 192.323 -0.812879 -1.5723 0
M  V30 1844 C 189.452 -1.84143 -2.89735 0
M  V30 1845 C 188.538 -3.04572 -2.95122 0
M  V30 1846 N 188.929 -4.2756 -2.70233 0
M  V30 1847 C 187.227 -3.04061 -3.26286 0
M  V30 1848 C 187.928 -5.08908 -2.81757 0
M  V30 1849 N 186.904 -4.43797 -3.13919 0
M  V30 1850 H 190.706 -2.63004 -1.31172 0
M  V30 1851 H 188.22 -1.4954 -0.633375 0
M  V30 1852 H 190.217 -1.95525 -3.68206 0
M  V30 1853 H 188.877 -0.925857 -3.1122 0
M  V30 1854 H 189.888 -4.56315 -2.44943 0
M  V30 1855 H 186.565 -2.22179 -3.53473 0
M  V30 1856 H 187.955 -6.16843 -2.66372 0
M  V30 1857 N 190.675 0.682077 -1.42076 0
M  V30 1858 C 191.607 1.80755 -1.40926 0
M  V30 1859 C 192.62 1.59833 -0.309398 0
M  V30 1860 O 193.809 1.69087 -0.572014 0
M  V30 1861 C 190.909 3.17744 -1.17865 0
M  V30 1862 C 190.082 3.65578 -2.40149 0
M  V30 1863 C 189.141 4.81277 -2.12742 0
M  V30 1864 O 188.167 4.92197 -2.85887 0
M  V30 1865 N 189.369 5.69474 -1.12602 0
M  V30 1866 H 192.134 1.82229 -2.37935 0
M  V30 1867 H 189.695 0.864903 -1.36861 0
M  V30 1868 H 191.687 3.9279 -0.9746 0
M  V30 1869 H 190.257 3.11214 -0.294068 0
M  V30 1870 H 189.477 2.81291 -2.76169 0
M  V30 1871 H 190.765 3.94278 -3.21593 0
M  V30 1872 H 190.163 5.63297 -0.520899 0
M  V30 1873 H 188.72 6.44363 -0.981842 0
M  V30 1874 N 192.153 1.28127 0.917671 0
M  V30 1875 C 193.564 1.13622 1.48145 0
M  V30 1876 C 193.915 -0.275207 1.9426 0
M  V30 1877 O 193.04 -1.1691 1.82102 0
M  V30 1878 C 193.635 2.05648 2.69248 0
M  V30 1879 C 192.194 1.95219 3.21818 0
M  V30 1880 C 191.341 1.97618 1.94532 0
M  V30 1881 H 194.292 1.40874 0.730772 0
M  V30 1882 H 194.313 1.61818 3.44377 0
M  V30 1883 H 193.825 3.08365 2.35653 0
M  V30 1884 H 191.926 0.955244 3.60147 0
M  V30 1885 H 192.039 2.81976 3.87333 0
M  V30 1886 H 190.403 1.41973 2.11461 0
M  V30 1887 H 191.186 3.02007 1.63238 0
M  V30 1888 N 193.631 -1.12557 1.10312 0
M  V30 1889 C 195.042 -1.65574 0.862678 0
M  V30 1890 C 195.393 -1.86566 -0.607256 0
M  V30 1891 O 194.518 -1.59121 -1.46662 0
M  V30 1892 C 195.113 -3.00776 1.55947 0
M  V30 1893 C 193.672 -3.50748 1.36576 0
M  V30 1894 C 192.819 -2.25797 1.60968 0
M  V30 1895 H 195.77 -0.963552 1.26101 0
M  V30 1896 H 195.791 -3.67185 0.997753 0
M  V30 1897 H 195.303 -2.85465 2.62928 0
M  V30 1898 H 193.404 -3.71245 0.317531 0
M  V30 1899 H 193.517 -4.30289 2.10686 0
M  V30 1900 H 191.881 -2.32841 1.03234 0
M  V30 1901 H 192.664 -2.13043 2.69198 0
M  V30 1902 N 195.109 -0.891671 -1.2995 0
M  V30 1903 C 196.072 -0.36828 -2.26222 0
M  V30 1904 C 197.072 0.493014 -1.53056 0
M  V30 1905 O 198.262 0.299213 -1.71611 0
M  V30 1906 C 195.394 0.47442 -3.37583 0
M  V30 1907 H 196.587 -1.21844 -2.74033 0
M  V30 1908 H 194.14 -0.669107 -1.41254 0
M  V30 1909 H 194.875 1.34489 -2.95099 0
M  V30 1910 H 194.66 -0.142615 -3.91841 0
M  V30 1911 H 196.15 0.83218 -4.09224 0
M  V30 1912 N 196.587 1.43421 -0.653314 0
M  V30 1913 C 197.998 1.85065 -0.246537 0
M  V30 1914 C 198.349 1.54688 1.2069 0
M  V30 1915 O 197.474 0.995896 1.92122 0
M  V30 1916 C 198.069 3.35922 -0.440666 0
M  V30 1917 C 196.628 3.76297 -0.0882064 0
M  V30 1918 C 195.775 2.67147 -0.743484 0
M  V30 1919 H 198.726 1.33572 -0.856979 0
M  V30 1920 H 198.747 3.79204 0.313798 0
M  V30 1921 H 198.259 3.58 -1.49858 0
M  V30 1922 H 196.36 3.5983 0.96711 0
M  V30 1923 H 196.473 4.76338 -0.513738 0
M  V30 1924 H 194.837 2.54086 -0.176712 0
M  V30 1925 H 195.62 2.92053 -1.80443 0
M  V30 1926 N 198.065 0.39524 1.52563 0
M  V30 1927 C 199.013 -0.451859 2.28169 0
M  V30 1928 C 200.007 -1.05792 1.32304 0
M  V30 1929 O 201.213 -0.997718 1.49818 0
M  V30 1930 H 197.588 -0.164481 0.733792 0
M  V30 1931 H 199.559 0.207199 2.9768 0
M  V30 1932 C 198.308 -1.56385 3.10546 0
M  V30 1933 H 197.631 -1.10682 3.84174 0
M  V30 1934 H 199.071 -2.13067 3.66577 0
M  V30 1935 C 197.53 -2.52328 2.23231 0
M  V30 1936 O 198.06 -3.5588 1.86312 0
M  V30 1937 N 196.266 -2.22209 1.87274 0
M  V30 1938 H 195.813 -1.38033 2.17496 0
M  V30 1939 H 195.771 -2.86652 1.29143 0
M  V30 1940 N 199.544 -1.57102 0.125237 0
M  V30 1941 C 200.769 -2.0019 -0.542101 0
M  V30 1942 C 201.194 -1.00449 -1.59034 0
M  V30 1943 O 200.552 0.0229423 -1.81285 0
M  V30 1944 C 200.6 -3.42129 -1.13929 0
M  V30 1945 O 199.704 -3.45307 -2.2547 0
M  V30 1946 H 199.045 -0.650171 -0.134812 0
M  V30 1947 H 201.575 -2.03461 0.215553 0
M  V30 1948 H 201.585 -3.80471 -1.4733 0
M  V30 1949 H 200.26 -4.14237 -0.371531 0
M  V30 1950 H 198.837 -3.1879 -1.93462 0
M  V30 1951 N 201.022 0.148545 -1.56898 0
M  V30 1952 C 201.952 1.18524 -2.01182 0
M  V30 1953 C 202.933 1.4489 -0.891123 0
M  V30 1954 O 204.118 1.55836 -1.15882 0
M  V30 1955 C 201.248 2.51879 -2.39112 0
M  V30 1956 C 200.202 2.40038 -3.54353 0
M  V30 1957 C 199.528 3.78089 -3.78091 0
M  V30 1958 C 200.828 1.88577 -4.87069 0
M  V30 1959 H 202.522 0.817029 -2.88036 0
M  V30 1960 H 200.068 0.391575 -1.38574 0
M  V30 1961 H 202.021 3.24627 -2.68692 0
M  V30 1962 H 200.745 2.90532 -1.49193 0
M  V30 1963 H 199.404 1.69742 -3.24936 0
M  V30 1964 H 199.052 4.14175 -2.85426 0
M  V30 1965 H 198.752 3.71028 -4.55645 0
M  V30 1966 H 200.276 4.52387 -4.10095 0
M  V30 1967 H 201.69 2.51117 -5.15377 0
M  V30 1968 H 200.087 1.9241 -5.68417 0
M  V30 1969 H 201.157 0.84136 -4.77545 0
M  V30 1970 N 202.5 1.5196 0.417844 0
M  V30 1971 C 203.749 1.6482 1.16264 0
M  V30 1972 C 204.062 0.379886 1.91876 0
M  V30 1973 O 205.268 0.388154 2.68711 0
M  V30 1974 C 203.724 2.91161 2.1155 0
M  V30 1975 C 203.332 4.25068 1.41495 0
M  V30 1976 C 205.076 3.13383 2.86341 0
M  V30 1977 C 202.983 5.42541 2.35379 0
M  V30 1978 H 201.913 0.613954 0.437694 0
M  V30 1979 H 204.564 1.78442 0.427871 0
M  V30 1980 H 202.946 2.71218 2.88543 0
M  V30 1981 H 204.12 4.55463 0.699263 0
M  V30 1982 H 202.435 4.0888 0.787792 0
M  V30 1983 H 205.032 3.98324 3.5671 0
M  V30 1984 H 205.375 2.27256 3.48798 0
M  V30 1985 H 205.908 3.33757 2.1645 0
M  V30 1986 H 202.647 6.30987 1.77582 0
M  V30 1987 H 202.167 5.16497 3.04945 0
M  V30 1988 H 203.846 5.75272 2.96093 0
M  V30 1989 N 203.978 -0.674533 1.42435 0
M  V30 1990 C 205.394 -0.98769 1.25367 0
M  V30 1991 C 205.594 -2.00879 0.158044 0
M  V30 1992 O 204.65 -2.48075 -0.470633 0
M  V30 1993 C 205.963 -1.49224 2.6106 0
M  V30 1994 C 207.511 -1.61 2.68417 0
M  V30 1995 C 207.986 -2.14852 4.04478 0
M  V30 1996 N 209.477 -2.22185 4.06434 0
M  V30 1997 C 210.212 -2.64928 5.08528 0
M  V30 1998 N 209.708 -3.07121 6.21006 0
M  V30 1999 N 211.501 -2.64679 4.95885 0
M  V30 2000 H 203.652 0.00152503 2.124 0
M  V30 2001 H 205.915 -0.0618434 0.945981 0
M  V30 2002 H 205.621 -0.816453 3.42092 0
M  V30 2003 H 205.495 -2.47094 2.84999 0
M  V30 2004 H 207.882 -2.27686 1.87732 0
M  V30 2005 H 207.963 -0.616195 2.48267 0
M  V30 2006 H 207.607 -1.48775 4.85622 0
M  V30 2007 H 207.537 -3.15024 4.2198 0
M  V30 2008 H 210.028 -1.92435 3.25234 0
M  V30 2009 H 210.341 -3.38423 6.94759 0
M  V30 2010 H 208.686 -3.04978 6.24511 0
M  V30 2011 H 211.877 -2.31078 4.07088 0
M  V30 2012 H 212.05 -2.9767 5.75584 0
M  V30 2013 N 205.456 -1.28612 -0.910864 0
M  V30 2014 C 206.703 -1.15934 -1.66029 0
M  V30 2015 C 207.031 0.291483 -1.92303 0
M  V30 2016 O 206.286 1.22816 -1.52364 0
M  V30 2017 C 206.585 -1.90624 -3.0232 0
M  V30 2018 C 206.251 -3.40405 -2.95695 0
M  V30 2019 C 204.913 -3.81255 -2.93595 0
M  V30 2020 C 207.265 -4.359 -2.85728 0
M  V30 2021 C 204.593 -5.15936 -2.79334 0
M  V30 2022 C 206.945 -5.70657 -2.73007 0
M  V30 2023 C 205.609 -6.10779 -2.69267 0
M  V30 2024 H 204.879 -0.424234 -0.607541 0
M  V30 2025 H 207.526 -1.5942 -1.06101 0
M  V30 2026 H 205.831 -1.39696 -3.6605 0
M  V30 2027 H 207.528 -1.78228 -3.59215 0
M  V30 2028 H 204.118 -3.07927 -2.98125 0
M  V30 2029 H 208.302 -4.053 -2.86436 0
M  V30 2030 H 203.558 -5.46146 -2.74835 0
M  V30 2031 H 207.732 -6.44311 -2.64264 0
M  V30 2032 H 205.359 -7.1509 -2.57974 0
M  V30 2033 N 206.934 1.1197 -1.10907 0
M  V30 2034 C 207.882 2.19927 -0.757303 0
M  V30 2035 C 208.876 1.67564 0.248747 0
M  V30 2036 O 210.082 1.79672 0.108605 0
M  V30 2037 H 206.457 0.716925 -0.226987 0
M  V30 2038 H 208.428 2.46847 -1.67658 0
M  V30 2039 C 207.177 3.47061 -0.210671 0
M  V30 2040 H 206.5 3.87703 -0.976049 0
M  V30 2041 H 207.94 4.24 -0.0026584 0
M  V30 2042 C 206.399 3.19864 1.05777 0
M  V30 2043 O 206.929 3.40049 2.13845 0
M  V30 2044 N 205.135 2.73636 0.978349 0
M  V30 2045 H 204.682 2.5741 0.0988246 0
M  V30 2046 H 204.64 2.55815 1.82773 0
M  V30 2047 N 208.412 0.89855 1.29475 0
M  V30 2048 C 209.375 0.380272 2.26023 0
M  V30 2049 C 210.375 -0.484891 1.53315 0
M  V30 2050 O 211.565 -0.290108 1.71767 0
M  V30 2051 C 208.697 -0.45651 3.3783 0
M  V30 2052 H 209.89 1.23295 2.73383 0
M  V30 2053 H 207.443 0.676589 1.40897 0
M  V30 2054 H 208.178 -1.32922 2.95808 0
M  V30 2055 H 207.963 0.163393 3.91759 0
M  V30 2056 H 209.453 -0.810466 4.0966 0
M  V30 2057 N 209.89 -1.43072 0.660911 0
M  V30 2058 C 211.136 -2.0202 0.177708 0
M  V30 2059 C 211.469 -1.52066 -1.20787 0
M  V30 2060 O 210.744 -0.716987 -1.80802 0
M  V30 2061 C 211.027 -3.59561 0.197019 0
M  V30 2062 C 210.88 -4.19727 1.61706 0
M  V30 2063 C 212.199 -4.37664 -0.462396 0
M  V30 2064 H 209.318 -0.734034 0.0660494 0
M  V30 2065 H 211.96 -1.70272 0.843058 0
M  V30 2066 H 210.11 -3.86739 -0.369527 0
M  V30 2067 H 211.782 -4.03553 2.23479 0
M  V30 2068 H 210.025 -3.76084 2.16201 0
M  V30 2069 H 210.696 -5.28834 1.58237 0
M  V30 2070 H 213.172 -4.16095 0.0197215 0
M  V30 2071 H 212.048 -5.47305 -0.418188 0
M  V30 2072 H 212.309 -4.14493 -1.53778 0
M  V30 2073 N 211.368 -0.403325 -1.52352 0
M  V30 2074 C 212.298 0.416205 -2.29761 0
M  V30 2075 C 213.279 1.05123 -1.33728 0
M  V30 2076 O 214.464 1.06134 -1.62632 0
M  V30 2077 C 211.594 1.53624 -3.11475 0
M  V30 2078 C 210.548 1.02653 -4.15507 0
M  V30 2079 C 209.874 2.23971 -4.85532 0
M  V30 2080 C 211.174 0.08463 -5.22231 0
M  V30 2081 H 212.868 -0.229701 -2.98518 0
M  V30 2082 H 210.414 -0.111913 -1.43564 0
M  V30 2083 H 212.367 2.1165 -3.64393 0
M  V30 2084 H 211.091 2.20994 -2.40477 0
M  V30 2085 H 209.75 0.46871 -3.63591 0
M  V30 2086 H 209.398 2.89883 -4.11068 0
M  V30 2087 H 209.098 1.90521 -5.55856 0
M  V30 2088 H 210.622 2.82614 -5.41259 0
M  V30 2089 H 212.036 0.573509 -5.70424 0
M  V30 2090 H 210.433 -0.160783 -5.99885 0
M  V30 2091 H 211.503 -0.86237 -4.7717 0
M  V30 2092 N 212.846 1.57033 -0.133567 0
M  V30 2093 C 214.074 2.00044 0.528195 0
M  V30 2094 C 214.489 1.01349 1.59291 0
M  V30 2095 O 213.846 0.00848369 1.82498 0
M  V30 2096 C 213.897 3.43018 1.1411 0
M  V30 2097 O 213.618 4.37939 0.11892 0
M  V30 2098 C 215.119 4.01237 1.88477 0
M  V30 2099 H 212.339 0.656517 0.138661 0
M  V30 2100 H 214.883 2.03267 -0.224196 0
M  V30 2101 H 213.038 3.40688 1.84418 0
M  V30 2102 H 213.452 5.21436 0.56613 0
M  V30 2103 H 214.926 5.03314 2.26669 0
M  V30 2104 H 215.403 3.41193 2.76558 0
M  V30 2105 H 216.009 4.07156 1.22898 0
M  V30 2106 N 214.325 -0.140222 1.56975 0
M  V30 2107 C 215.273 -1.19207 1.99731 0
M  V30 2108 C 216.267 -1.44089 0.890777 0
M  V30 2109 O 217.473 -1.44301 1.07597 0
M  V30 2110 H 213.848 -0.40142 0.635898 0
M  V30 2111 H 215.819 -0.804813 2.87342 0
M  V30 2112 C 214.568 -2.51617 2.39967 0
M  V30 2113 H 213.891 -2.33303 3.24669 0
M  V30 2114 H 215.331 -3.23827 2.73701 0
M  V30 2115 C 213.79 -3.12654 1.25496 0
M  V30 2116 O 214.32 -3.97786 0.559371 0
M  V30 2117 N 212.526 -2.72206 1.01746 0
M  V30 2118 H 212.073 -2.03074 1.58489 0
M  V30 2119 H 212.031 -3.13377 0.253461 0
M  V30 2120 N 215.803 -1.52179 -0.40978 0
M  V30 2121 C 217.214 -1.58377 -0.988615 0
M  V30 2122 C 217.565 -0.423879 -1.91566 0
M  V30 2123 O 216.69 0.455844 -2.11544 0
M  V30 2124 C 217.285 -2.87044 -1.79976 0
M  V30 2125 C 215.844 -2.95722 -2.32863 0
M  V30 2126 C 214.991 -2.53309 -1.12828 0
M  V30 2127 H 217.942 -1.57558 -0.190039 0
M  V30 2128 H 217.963 -2.7236 -2.65707 0
M  V30 2129 H 217.475 -3.71444 -1.12478 0
M  V30 2130 H 215.576 -2.15814 -3.03735 0
M  V30 2131 H 215.689 -3.99951 -2.63773 0
M  V30 2132 H 214.053 -2.07142 -1.48204 0
M  V30 2133 H 214.836 -3.40082 -0.46897 0
M  V30 2134 N 217.281 0.66697 -1.42791 0
M  V30 2135 C 218.213 1.7925 -1.42836 0
M  V30 2136 C 219.226 1.59496 -0.326333 0
M  V30 2137 O 220.415 1.6847 -0.589916 0
M  V30 2138 C 217.515 3.16476 -1.21229 0
M  V30 2139 C 216.688 3.63011 -2.44013 0
M  V30 2140 C 215.747 4.78993 -2.17834 0
M  V30 2141 O 214.773 4.89137 -2.91091 0
M  V30 2142 N 215.975 5.68248 -1.18635 0
M  V30 2143 H 218.74 1.79695 -2.39854 0
M  V30 2144 H 216.301 0.850338 -1.37771 0
M  V30 2145 H 218.293 3.91734 -1.01621 0
M  V30 2146 H 216.863 3.10884 -0.32706 0
M  V30 2147 H 216.083 2.78346 -2.79137 0
M  V30 2148 H 217.371 3.90845 -3.25757 0
M  V30 2149 H 216.769 5.62712 -0.580615 0
M  V30 2150 H 215.326 6.43285 -1.05013 0
M  V30 2151 N 218.759 1.29093 0.90403 0
M  V30 2152 C 220.007 1.16583 1.65085 0
M  V30 2153 C 220.328 -0.283933 1.92922 0
M  V30 2154 O 219.598 -1.19509 1.55224 0
M  V30 2155 H 218.178 0.428467 0.611903 0
M  V30 2156 H 220.84 1.61959 1.08422 0
M  V30 2157 H 219.936 1.71266 2.6091 0
M  V30 2158 N 220.237 -1.11381 1.11499 0
M  V30 2159 C 221.514 -1.7955 0.775965 0
M  V30 2160 C 221.894 -1.97859 -0.73588 0
M  V30 2161 O 221.242 -1.56376 -1.66609 0
M  V30 2162 C 221.452 -3.13196 1.53977 0
M  V30 2163 C 222.8 -3.88227 1.71944 0
M  V30 2164 O 223.824 -3.22887 1.50407 0
M  V30 2165 O 222.683 -5.05477 2.07738 0
M  V30 2166 H 219.777 -0.777728 0.28119 0
M  V30 2167 H 222.323 -1.18118 1.21845 0
M  V30 2168 H 221.095 -2.95229 2.56818 0
M  V30 2169 H 220.718 -3.82342 1.09088 0
M  V30 2170 N 221.715 -0.905404 -1.28997 0
M  V30 2171 C 222.945 -0.549049 -1.99171 0
M  V30 2172 C 223.353 0.87203 -1.67906 0
M  V30 2173 O 222.696 1.58796 -0.923561 0
M  V30 2174 C 222.758 -0.668306 -3.53234 0
M  V30 2175 C 222.422 -2.0574 -4.08069 0
M  V30 2176 C 223.419 -3.0292 -4.22534 0
M  V30 2177 C 221.104 -2.36833 -4.42962 0
M  V30 2178 C 223.098 -4.29314 -4.71135 0
M  V30 2179 C 220.785 -3.63467 -4.91258 0
M  V30 2180 C 221.783 -4.59522 -5.053 0
M  V30 2181 O 221.471 -5.83907 -5.52546 0
M  V30 2182 H 221.203 -0.208784 -0.64295 0
M  V30 2183 H 223.757 -1.21836 -1.65363 0
M  V30 2184 H 221.987 0.0580547 -3.86656 0
M  V30 2185 H 223.676 -0.320273 -4.04634 0
M  V30 2186 H 224.442 -2.80216 -3.95859 0
M  V30 2187 H 220.321 -1.62824 -4.31288 0
M  V30 2188 H 223.865 -5.04293 -4.8201 0
M  V30 2189 H 219.762 -3.86 -5.17372 0
M  V30 2190 H 220.53 -5.86578 -5.70849 0
M  V30 2191 N 223.193 1.4272 -0.668489 0
M  V30 2192 C 224.47 1.95248 -0.117373 0
M  V30 2193 C 224.85 1.60919 1.36632 0
M  V30 2194 O 224.198 0.902095 2.09939 0
M  V30 2195 C 224.408 3.46927 -0.379806 0
M  V30 2196 C 225.756 4.23588 -0.292923 0
M  V30 2197 O 226.78 3.5482 -0.313204 0
M  V30 2198 O 225.639 5.46017 -0.229697 0
M  V30 2199 H 222.733 0.827 0.00079152 0
M  V30 2200 H 225.279 1.52581 -0.742783 0
M  V30 2201 H 224.051 3.65096 -1.40786 0
M  V30 2202 H 223.674 3.96627 0.277923 0
M  V30 2203 N 224.671 0.411399 1.52136 0
M  V30 2204 C 225.899 -0.163076 2.06256 0
M  V30 2205 C 226.314 -1.3867 1.28125 0
M  V30 2206 O 225.671 -1.79423 0.333721 0
M  V30 2207 C 225.722 -0.511252 3.57867 0
M  V30 2208 O 225.443 0.66378 4.33042 0
M  V30 2209 C 226.944 -1.13921 4.28412 0
M  V30 2210 H 224.164 -0.0193897 0.67072 0
M  V30 2211 H 226.708 0.583007 1.96013 0
M  V30 2212 H 224.863 -1.20723 3.6811 0
M  V30 2213 H 225.277 0.372601 5.23175 0
M  V30 2214 H 226.751 -1.33302 5.35663 0
M  V30 2215 H 227.228 -2.11296 3.85033 0
M  V30 2216 H 227.834 -0.483373 4.22544 0
M  V30 2217 N 226.149 -1.5696 0.141893 0
M  V30 2218 C 227.374 -2.00754 -0.520838 0
M  V30 2219 C 227.799 -1.0213 -1.57959 0
M  V30 2220 O 227.157 0.00371324 -1.813 0
M  V30 2221 C 227.205 -3.43318 -1.10294 0
M  V30 2222 O 226.309 -3.47679 -2.21795 0
M  V30 2223 H 225.65 -0.651564 -0.127908 0
M  V30 2224 H 228.18 -2.03221 0.23712 0
M  V30 2225 H 228.19 -3.82012 -1.43287 0
M  V30 2226 H 226.865 -4.14608 -0.327574 0
M  V30 2227 H 225.442 -3.20824 -1.9007 0
M  V30 2228 N 227.627 0.131896 -1.57047 0
M  V30 2229 C 228.855 0.856461 -1.88341 0
M  V30 2230 C 229.27 1.74042 -0.731757 0
M  V30 2231 O 228.627 1.80051 0.297945 0
M  V30 2232 C 228.678 1.70064 -3.18999 0
M  V30 2233 O 228.399 0.852278 -4.2973 0
M  V30 2234 C 229.9 2.53148 -3.63911 0
M  V30 2235 H 227.12 0.246885 -0.62393 0
M  V30 2236 H 229.664 0.120152 -2.04147 0
M  V30 2237 H 227.819 2.38984 -3.04902 0
M  V30 2238 H 228.233 1.43329 -5.04537 0
M  V30 2239 H 229.707 3.07931 -4.58129 0
M  V30 2240 H 230.184 3.29901 -2.89935 0
M  V30 2241 H 230.79 1.89492 -3.80753 0
M  V30 2242 N 229.106 1.52395 0.401703 0
M  V30 2243 C 230.354 1.66488 1.14569 0
M  V30 2244 C 230.675 0.400897 1.90835 0
M  V30 2245 O 229.945 -0.584415 1.8698 0
M  V30 2246 H 228.525 0.613672 0.425929 0
M  V30 2247 H 231.187 1.89464 0.457093 0
M  V30 2248 H 230.283 2.50942 1.85566 0
M  V30 2249 N 230.584 -0.659388 1.43143 0
M  V30 2250 C 231.531 -1.77249 1.47822 0
M  V30 2251 C 232.501 -1.62818 0.328558 0
M  V30 2252 O 233.686 -1.83151 0.534838 0
M  V30 2253 C 230.826 -3.15371 1.40126 0
M  V30 2254 C 229.939 -3.4098 2.65249 0
M  V30 2255 C 229.074 -4.68915 2.49584 0
M  V30 2256 C 228.113 -4.87608 3.70006 0
M  V30 2257 N 227.25 -6.06796 3.53189 0
M  V30 2258 H 232.09 -1.72584 2.42938 0
M  V30 2259 H 229.627 -0.842297 1.20598 0
M  V30 2260 H 231.585 -3.9521 1.33659 0
M  V30 2261 H 230.215 -3.19121 0.485964 0
M  V30 2262 H 229.267 -2.55282 2.8202 0
M  V30 2263 H 230.579 -3.50681 3.54717 0
M  V30 2264 H 229.733 -5.56871 2.4079 0
M  V30 2265 H 228.472 -4.61524 1.5763 0
M  V30 2266 H 227.477 -3.9809 3.79215 0
M  V30 2267 H 228.702 -4.96834 4.62961 0
M  V30 2268 H 226.648 -6.00549 2.63965 0
M  V30 2269 H 226.565 -6.17428 4.36255 0
M  V30 2270 H 227.833 -6.9739 3.48236 0
M  V30 2271 N 232.062 -1.29571 -0.897171 0
M  V30 2272 C 233.309 -1.17689 -1.6479 0
M  V30 2273 C 233.637 0.27107 -1.92602 0
M  V30 2274 O 232.892 1.21193 -1.53658 0
M  V30 2275 C 233.191 -1.9382 -3.00281 0
M  V30 2276 C 232.857 -3.43522 -2.92068 0
M  V30 2277 C 231.519 -3.84348 -2.89535 0
M  V30 2278 C 233.871 -4.38906 -2.81089 0
M  V30 2279 C 231.199 -5.18869 -2.73846 0
M  V30 2280 C 233.551 -5.73521 -2.66939 0
M  V30 2281 C 232.215 -6.13601 -2.62774 0
M  V30 2282 H 231.485 -0.430654 -0.603008 0
M  V30 2283 H 234.132 -1.60536 -1.04404 0
M  V30 2284 H 232.437 -1.4357 -3.64547 0
M  V30 2285 H 234.134 -1.82028 -3.57305 0
M  V30 2286 H 230.724 -3.11072 -2.94842 0
M  V30 2287 H 234.908 -4.08315 -2.82121 0
M  V30 2288 H 230.164 -5.4903 -2.69027 0
M  V30 2289 H 234.338 -6.47078 -2.57416 0
M  V30 2290 H 231.965 -7.17786 -2.50375 0
M  V30 2291 N 233.54 1.10788 -1.12088 0
M  V30 2292 C 234.768 1.86461 -0.896651 0
M  V30 2293 C 235.183 1.80492 0.553912 0
M  V30 2294 O 234.54 1.19102 1.38278 0
M  V30 2295 C 234.591 3.35006 -1.35843 0
M  V30 2296 O 234.312 3.40866 -2.75213 0
M  V30 2297 C 235.813 4.27565 -1.1706 0
M  V30 2298 H 233.033 0.589425 -0.320654 0
M  V30 2299 H 235.577 1.40076 -1.48993 0
M  V30 2300 H 233.732 3.7887 -0.808458 0
M  V30 2301 H 234.146 4.33411 -2.9539 0
M  V30 2302 H 235.62 5.30007 -1.54263 0
M  V30 2303 H 236.097 4.3906 -0.110814 0
M  V30 2304 H 236.703 3.89501 -1.70789 0
M  V30 2305 N 235.018 0.912232 1.28515 0
M  V30 2306 C 236.258 0.551677 1.96814 0
M  V30 2307 C 236.622 -0.887825 1.7024 0
M  V30 2308 O 237.823 -1.35588 2.32098 0
M  V30 2309 C 236.094 0.850555 3.47132 0
M  V30 2310 S 237.653 0.59619 4.34731 0
M  V30 2311 H 234.471 0.204191 0.681049 0
M  V30 2312 H 237.073 1.17736 1.56072 0
M  V30 2313 H 235.777 1.8962 3.63968 0
M  V30 2314 H 235.308 0.213471 3.9282 0
M  V30 2315 H 237.323 -0.553154 4.93107 0
M  V30 2316 N 236.496 -1.42363 0.676048 0
M  V30 2317 C 237.443 -2.308 -0.00150904 0
M  V30 2318 C 238.413 -1.46032 -0.791444 0
M  V30 2319 O 239.598 -1.74861 -0.76344 0
M  V30 2320 C 236.738 -3.31883 -0.945919 0
M  V30 2321 C 235.851 -4.31741 -0.149675 0
M  V30 2322 C 234.986 -5.19898 -1.08995 0
M  V30 2323 C 234.025 -6.11434 -0.285465 0
M  V30 2324 N 233.162 -6.92138 -1.17851 0
M  V30 2325 H 238.002 -2.88187 0.758455 0
M  V30 2326 H 235.539 -1.41952 0.38576 0
M  V30 2327 H 237.497 -3.89019 -1.50731 0
M  V30 2328 H 236.127 -2.76093 -1.6725 0
M  V30 2329 H 235.179 -3.76713 0.528359 0
M  V30 2330 H 236.491 -4.96534 0.474866 0
M  V30 2331 H 235.645 -5.81772 -1.72123 0
M  V30 2332 H 234.384 -4.55284 -1.74837 0
M  V30 2333 H 233.389 -5.48627 0.359018 0
M  V30 2334 H 234.614 -6.78097 0.368883 0
M  V30 2335 H 232.56 -6.30152 -1.82332 0
M  V30 2336 H 232.477 -7.53542 -0.609082 0
M  V30 2337 H 233.745 -7.58499 -1.79722 0
M  V30 2338 N 237.974 -0.419461 -1.51915 0
M  V30 2339 C 239.22 0.153166 -2.02221 0
M  V30 2340 C 239.553 1.43907 -1.30401 0
M  V30 2341 O 238.828 1.90055 -0.413438 0
M  V30 2342 C 239.111 0.390291 -3.57979 0
M  V30 2343 C 238.964 -0.913014 -4.40436 0
M  V30 2344 C 240.283 1.16794 -4.2432 0
M  V30 2345 H 237.402 0.0541924 -0.735005 0
M  V30 2346 H 240.044 -0.554955 -1.81715 0
M  V30 2347 H 238.194 0.993491 -3.75582 0
M  V30 2348 H 239.866 -1.54882 -4.34522 0
M  V30 2349 H 238.109 -1.52168 -4.06236 0
M  V30 2350 H 238.78 -0.701361 -5.47526 0
M  V30 2351 H 241.256 0.657161 -4.10878 0
M  V30 2352 H 240.132 1.3026 -5.3322 0
M  V30 2353 H 240.393 2.19132 -3.83971 0
M  V30 2354 N 239.452 1.56882 -0.150215 0
M  V30 2355 C 240.863 1.82995 0.370076 0
M  V30 2356 C 241.214 1.06907 1.64515 0
M  V30 2357 O 240.339 0.315369 2.1409 0
M  V30 2358 C 240.934 3.31942 0.678208 0
M  V30 2359 C 239.493 3.58625 1.14301 0
M  V30 2360 C 238.64 2.76792 0.167778 0
M  V30 2361 H 241.591 1.54209 -0.374858 0
M  V30 2362 H 241.612 3.48272 1.53254 0
M  V30 2363 H 241.124 3.87294 -0.249991 0
M  V30 2364 H 239.225 3.08664 2.08704 0
M  V30 2365 H 239.338 4.67073 1.06676 0
M  V30 2366 H 237.702 2.45972 0.661037 0
M  V30 2367 H 238.485 3.34916 -0.754069 0
M  V30 2368 N 240.93 -0.123565 1.57115 0
M  V30 2369 C 242.178 -0.83051 1.84247 0
M  V30 2370 C 242.499 -1.80629 0.73471 0
M  V30 2371 O 241.769 -1.94403 -0.241688 0
M  V30 2372 H 240.349 -0.309694 0.679778 0
M  V30 2373 H 243.011 -0.111976 1.94578 0
M  V30 2374 H 242.107 -1.37852 2.80006 0
M  V30 2375 N 242.408 -1.52605 -0.393616 0
M  V30 2376 C 243.338 -1.80022 -1.48709 0
M  V30 2377 C 244.319 -0.651995 -1.57108 0
M  V30 2378 O 245.504 -0.89913 -1.72132 0
M  V30 2379 C 242.634 -1.96492 -2.86371 0
M  V30 2380 C 241.588 -3.12161 -2.92813 0
M  V30 2381 C 240.914 -3.13877 -4.3288 0
M  V30 2382 C 242.214 -4.51322 -2.6288 0
M  V30 2383 H 243.908 -2.71589 -1.26015 0
M  V30 2384 H 241.454 -1.30684 -0.604778 0
M  V30 2385 H 243.407 -2.14255 -3.62867 0
M  V30 2386 H 242.131 -1.01611 -3.10391 0
M  V30 2387 H 240.79 -2.94173 -2.18764 0
M  V30 2388 H 240.438 -2.16687 -4.53933 0
M  V30 2389 H 240.138 -3.91576 -4.38112 0
M  V30 2390 H 241.662 -3.33789 -5.1129 0
M  V30 2391 H 243.076 -4.69435 -3.29096 0
M  V30 2392 H 241.473 -5.31053 -2.79468 0
M  V30 2393 H 242.543 -4.58353 -1.58242 0
M  V30 2394 N 243.887 0.651787 -1.4349 0
M  V30 2395 C 245.117 1.43728 -1.48411 0
M  V30 2396 C 245.525 1.8893 -0.10103 0
M  V30 2397 O 244.868 1.60182 0.899307 0
M  V30 2398 C 244.93 2.70411 -2.36893 0
M  V30 2399 C 244.594 2.4714 -3.8441 0
M  V30 2400 C 245.591 2.10271 -4.75481 0
M  V30 2401 C 243.276 2.6142 -4.28912 0
M  V30 2402 C 245.27 1.87982 -6.0905 0
M  V30 2403 C 242.957 2.38746 -5.62533 0
M  V30 2404 C 243.955 2.02083 -6.5242 0
M  V30 2405 O 243.643 1.79647 -7.8357 0
M  V30 2406 H 243.375 0.447962 -0.506267 0
M  V30 2407 H 245.929 0.80624 -1.88915 0
M  V30 2408 H 244.159 3.36079 -1.91278 0
M  V30 2409 H 245.848 3.32364 -2.33 0
M  V30 2410 H 246.614 1.98814 -4.42378 0
M  V30 2411 H 242.493 2.88931 -3.59222 0
M  V30 2412 H 246.037 1.5929 -6.7917 0
M  V30 2413 H 241.934 2.49806 -5.95203 0
M  V30 2414 H 242.702 1.9406 -7.95162 0
M  V30 2415 N 245.365 1.30045 0.890287 0
M  V30 2416 C 246.595 1.21296 1.67245 0
M  V30 2417 C 247.003 -0.227471 1.87828 0
M  V30 2418 O 246.346 -1.16296 1.422 0
M  V30 2419 C 246.408 1.86519 3.07329 0
M  V30 2420 C 246.072 3.35837 3.09939 0
M  V30 2421 C 247.069 4.31915 2.89389 0
M  V30 2422 C 244.754 3.77196 3.31706 0
M  V30 2423 C 246.748 5.67325 2.90552 0
M  V30 2424 C 244.435 5.12725 3.32499 0
M  V30 2425 C 245.433 6.076 3.11947 0
M  V30 2426 O 245.121 7.40655 3.12547 0
M  V30 2427 H 244.853 0.4211 0.528821 0
M  V30 2428 H 247.407 1.72111 1.12103 0
M  V30 2429 H 245.637 1.30228 3.64112 0
M  V30 2430 H 247.326 1.71963 3.67673 0
M  V30 2431 H 248.092 4.01294 2.72375 0
M  V30 2432 H 243.971 3.03796 3.4674 0
M  V30 2433 H 247.515 6.41354 2.74429 0
M  V30 2434 H 243.412 5.42988 3.49047 0
M  V30 2435 H 244.18 7.49577 3.28749 0
M  V30 2436 N 246.843 -1.10192 1.12674 0
M  V30 2437 C 248.09 -1.82205 0.883606 0
M  V30 2438 C 248.418 -1.8532 -0.590492 0
M  V30 2439 O 247.673 -1.31137 -1.45264 0
M  V30 2440 C 247.972 -3.28552 1.4067 0
M  V30 2441 C 247.638 -3.45582 2.89627 0
M  V30 2442 C 246.3 -3.49937 3.30299 0
M  V30 2443 C 248.652 -3.50768 3.85501 0
M  V30 2444 C 245.98 -3.57049 4.65546 0
M  V30 2445 C 248.332 -3.59414 5.20581 0
M  V30 2446 C 246.996 -3.62034 5.60792 0
M  V30 2447 H 246.266 -0.666735 0.323334 0
M  V30 2448 H 248.913 -1.29868 1.40736 0
M  V30 2449 H 247.218 -3.83473 0.80347 0
M  V30 2450 H 248.915 -3.82788 1.19475 0
M  V30 2451 H 245.505 -3.42871 2.57172 0
M  V30 2452 H 249.689 -3.46651 3.55171 0
M  V30 2453 H 244.945 -3.57361 4.96088 0
M  V30 2454 H 249.119 -3.62371 5.94693 0
M  V30 2455 H 246.746 -3.67298 6.6558 0
M  V30 2456 N 248.321 -0.919034 -1.28029 0
M  V30 2457 C 249.567 -0.555757 -1.95036 0
M  V30 2458 C 249.9 0.899198 -1.72128 0
M  V30 2459 O 249.175 1.64023 -1.04531 0
M  V30 2460 C 249.458 -0.872024 -3.49382 0
M  V30 2461 C 249.311 -2.3801 -3.81669 0
M  V30 2462 C 250.63 -0.37185 -4.38526 0
M  V30 2463 H 247.749 -0.203386 -0.708381 0
M  V30 2464 H 250.391 -1.14924 -1.51303 0
M  V30 2465 H 248.541 -0.366946 -3.86763 0
M  V30 2466 H 250.213 -2.9562 -3.54128 0
M  V30 2467 H 248.456 -2.83289 -3.28526 0
M  V30 2468 H 249.127 -2.55192 -4.8947 0
M  V30 2469 H 251.603 -0.804602 -4.08247 0
M  V30 2470 H 250.479 -0.622173 -5.45362 0
M  V30 2471 H 250.74 0.727934 -4.36066 0
M  V30 2472 N 249.799 1.42003 -0.683588 0
M  V30 2473 C 251.029 2.05448 -0.217866 0
M  V30 2474 C 251.437 1.51491 1.13346 0
M  V30 2475 O 250.78 0.653048 1.717 0
M  V30 2476 C 250.842 3.59399 -0.0850118 0
M  V30 2477 C 250.506 4.36093 -1.36645 0
M  V30 2478 C 251.503 4.66169 -2.30179 0
M  V30 2479 C 249.188 4.75578 -1.61649 0
M  V30 2480 C 251.182 5.34676 -3.46988 0
M  V30 2481 C 248.869 5.43824 -2.78745 0
M  V30 2482 C 249.867 5.73299 -3.71238 0
M  V30 2483 O 249.555 6.40142 -4.86285 0
M  V30 2484 H 249.287 0.668344 -0.101454 0
M  V30 2485 H 251.841 1.82974 -0.933248 0
M  V30 2486 H 250.071 3.80566 0.686031 0
M  V30 2487 H 251.76 4.04457 0.341973 0
M  V30 2488 H 252.526 4.36156 -2.12115 0
M  V30 2489 H 248.405 4.52025 -0.905243 0
M  V30 2490 H 251.949 5.57599 -4.19201 0
M  V30 2491 H 247.846 5.73254 -2.96732 0
M  V30 2492 H 248.614 6.58636 -4.85944 0
M  V30 2493 N 251.277 0.427512 1.51691 0
M  V30 2494 C 252.227 -0.406604 2.24345 0
M  V30 2495 C 253.211 -0.998276 1.26187 0
M  V30 2496 O 254.403 -0.918045 1.51331 0
M  V30 2497 C 251.532 -1.51266 3.08177 0
M  V30 2498 C 250.618 -0.930868 4.13758 0
M  V30 2499 N 251.009 -0.0773552 5.05741 0
M  V30 2500 C 249.307 -1.19948 4.29568 0
M  V30 2501 C 250.008 0.248344 5.8117 0
M  V30 2502 N 248.984 -0.365535 5.4237 0
M  V30 2503 H 252.786 0.251581 2.92821 0
M  V30 2504 H 250.3 0.239003 1.60632 0
M  V30 2505 H 252.297 -2.123 3.58796 0
M  V30 2506 H 250.957 -2.17328 2.41244 0
M  V30 2507 H 251.968 0.288351 5.17097 0
M  V30 2508 H 248.645 -1.85832 3.73862 0
M  V30 2509 H 250.035 0.942286 6.6526 0
M  V30 2510 N 252.755 -1.56801 0.158532 0
M  V30 2511 C 253.718 -2.16138 -0.762705 0
M  V30 2512 C 254.718 -1.1061 -1.16713 0
M  V30 2513 O 255.908 -1.36191 -1.08617 0
M  V30 2514 C 253.04 -2.73386 -2.03649 0
M  V30 2515 H 254.233 -2.98886 -0.246354 0
M  V30 2516 H 251.786 -1.56035 -0.0909744 0
M  V30 2517 H 252.521 -1.94335 -2.59623 0
M  V30 2518 H 252.306 -3.50601 -1.75559 0
M  V30 2519 H 253.796 -3.19065 -2.6942 0
M  V30 2520 N 254.233 0.115231 -1.57178 0
M  V30 2521 C 255.458 0.840354 -1.89612 0
M  V30 2522 C 255.883 1.72464 -0.750845 0
M  V30 2523 O 255.241 1.78826 0.298478 0
M  V30 2524 C 255.289 1.64654 -3.20814 0
M  V30 2525 O 254.393 2.7538 -3.06985 0
M  V30 2526 H 253.734 0.232158 -0.622092 0
M  V30 2527 H 256.264 0.0964977 -2.04372 0
M  V30 2528 H 256.274 2.03499 -3.53627 0
M  V30 2529 H 254.949 0.997416 -4.03763 0
M  V30 2530 H 253.526 2.3971 -2.85646 0
M  V30 2531 N 255.711 1.52812 0.385517 0
M  V30 2532 C 256.661 1.74219 1.47078 0
M  V30 2533 C 257.645 0.59632 1.49442 0
M  V30 2534 O 258.837 0.85428 1.5502 0
M  V30 2535 C 255.966 1.9176 2.84751 0
M  V30 2536 C 255.052 3.12289 2.86943 0
M  V30 2537 N 255.443 4.34575 2.58802 0
M  V30 2538 C 253.741 3.12605 3.1811 0
M  V30 2539 C 254.442 5.162 2.68166 0
M  V30 2540 N 253.418 4.51964 3.02043 0
M  V30 2541 H 257.22 2.6639 1.24152 0
M  V30 2542 H 254.734 1.51166 0.593504 0
M  V30 2543 H 256.731 2.05218 3.62893 0
M  V30 2544 H 255.391 1.00805 3.08656 0
M  V30 2545 H 256.402 4.62649 2.32759 0
M  V30 2546 H 253.079 2.31472 3.47458 0
M  V30 2547 H 254.469 6.23689 2.49923 0
M  V30 2548 N 257.189 -0.644168 1.43834 0
M  V30 2549 C 258.417 -1.43147 1.49387 0
M  V30 2550 C 258.832 -1.88452 0.114583 0
M  V30 2551 O 258.189 -1.60047 -0.876989 0
M  V30 2552 C 258.24 -2.66046 2.44748 0
M  V30 2553 O 257.961 -2.22633 3.77314 0
M  V30 2554 C 259.462 -3.59311 2.59635 0
M  V30 2555 H 256.682 -0.439447 0.507077 0
M  V30 2556 H 259.226 -0.78895 1.88669 0
M  V30 2557 H 257.381 -3.26418 2.08638 0
M  V30 2558 H 257.795 -3.02216 4.28679 0
M  V30 2559 H 259.269 -4.42187 3.30416 0
M  V30 2560 H 259.746 -4.07259 1.64427 0
M  V30 2561 H 260.352 -3.04816 2.96593 0
M  V30 2562 N 258.668 -1.30515 -0.883378 0
M  V30 2563 C 259.631 -1.1701 -1.97082 0
M  V30 2564 C 260.631 -0.10089 -1.60483 0
M  V30 2565 O 261.821 -0.349127 -1.70666 0
M  V30 2566 C 258.953 -0.793045 -3.31547 0
M  V30 2567 H 260.146 -2.13622 -2.10489 0
M  V30 2568 H 257.699 -1.13935 -1.06998 0
M  V30 2569 H 258.434 0.172499 -3.23841 0
M  V30 2570 H 258.219 -1.56576 -3.5948 0
M  V30 2571 H 259.709 -0.722073 -4.1131 0
M  V30 2572 N 260.146 1.09593 -1.13257 0
M  V30 2573 C 261.094 2.18271 -0.803783 0
M  V30 2574 C 262.088 1.68054 0.213148 0
M  V30 2575 O 263.294 1.79862 0.0704699 0
M  V30 2576 H 259.669 0.711949 -0.242143 0
M  V30 2577 H 261.64 2.43235 -1.72856 0
M  V30 2578 C 260.389 3.46536 -0.28424 0
M  V30 2579 H 259.712 3.85545 -1.05807 0
M  V30 2580 H 261.152 4.23899 -0.0925945 0
M  V30 2581 C 259.611 3.22036 0.989684 0
M  V30 2582 O 260.141 3.44509 2.06584 0
M  V30 2583 N 258.347 2.7565 0.920086 0
M  V30 2584 H 257.894 2.57562 0.0442019 0
M  V30 2585 H 257.852 2.59635 1.77306 0
M  V30 2586 N 261.624 0.925811 1.2754 0
M  V30 2587 C 262.554 0.440748 2.29303 0
M  V30 2588 C 263.535 -0.497971 1.62648 0
M  V30 2589 O 264.72 -0.403126 1.8997 0
M  V30 2590 C 261.85 -0.309048 3.45922 0
M  V30 2591 C 260.804 0.54166 4.24559 0
M  V30 2592 C 260.13 -0.337191 5.33636 0
M  V30 2593 C 261.43 1.80516 4.90114 0
M  V30 2594 H 263.124 1.29121 2.70126 0
M  V30 2595 H 260.67 0.622323 1.29858 0
M  V30 2596 H 262.623 -0.659315 4.1621 0
M  V30 2597 H 261.347 -1.19352 3.04011 0
M  V30 2598 H 260.006 0.874609 3.56014 0
M  V30 2599 H 259.654 -1.22056 4.87966 0
M  V30 2600 H 259.354 0.228497 5.87156 0
M  V30 2601 H 260.878 -0.683072 6.06767 0
M  V30 2602 H 262.292 1.52307 5.52698 0
M  V30 2603 H 260.689 2.3142 5.53683 0
M  V30 2604 H 261.759 2.52581 4.13921 0
M  V30 2605 N 263.102 -1.41638 0.69111 0
M  V30 2606 C 264.342 -2.03166 0.224291 0
M  V30 2607 C 264.706 -1.53537 -1.15284 0
M  V30 2608 O 265.907 -2.0696 -1.71525 0
M  V30 2609 C 264.178 -3.56342 0.274758 0
M  V30 2610 S 265.737 -4.3864 -0.118669 0
M  V30 2611 H 262.555 -0.705188 0.0907263 0
M  V30 2612 H 265.157 -1.7314 0.907895 0
M  V30 2613 H 263.861 -3.89958 1.2791 0
M  V30 2614 H 263.392 -3.91063 -0.428142 0
M  V30 2615 H 265.407 -4.77549 -1.34764 0
M  V30 2616 N 264.58 -0.43555 -1.51462 0
M  V30 2617 C 265.826 0.131709 -2.02372 0
M  V30 2618 C 266.159 1.42516 -1.3192 0
M  V30 2619 O 265.434 1.89606 -0.433573 0
M  V30 2620 C 265.717 0.352301 -3.58373 0
M  V30 2621 C 265.57 -0.959676 -4.39443 0
M  V30 2622 C 266.889 1.12286 -4.25535 0
M  V30 2623 H 264.008 0.0463936 -0.735538 0
M  V30 2624 H 266.65 -0.574197 -1.81116 0
M  V30 2625 H 264.8 0.9536 -3.76615 0
M  V30 2626 H 266.472 -1.59482 -4.32855 0
M  V30 2627 H 264.715 -1.56468 -4.04599 0
M  V30 2628 H 265.386 -0.759394 -5.46752 0
M  V30 2629 H 267.862 0.613545 -4.11552 0
M  V30 2630 H 266.738 1.24598 -5.34571 0
M  V30 2631 H 266.999 2.15048 -3.86273 0
M  V30 2632 N 266.058 1.56714 -0.166846 0
M  V30 2633 C 266.988 2.20754 0.760913 0
M  V30 2634 C 267.969 1.16178 1.24244 0
M  V30 2635 O 269.154 1.44592 1.29641 0
M  V30 2636 C 266.284 2.84478 1.99223 0
M  V30 2637 C 265.238 3.95053 1.64672 0
M  V30 2638 C 264.564 4.45805 2.95232 0
M  V30 2639 C 265.864 5.14865 0.878155 0
M  V30 2640 H 267.558 2.98537 0.22713 0
M  V30 2641 H 265.104 1.43596 0.107805 0
M  V30 2642 H 267.057 3.27951 2.64624 0
M  V30 2643 H 265.781 2.04056 2.55007 0
M  V30 2644 H 264.44 3.52228 1.01641 0
M  V30 2645 H 264.088 3.62181 3.49047 0
M  V30 2646 H 263.788 5.204 2.7287 0
M  V30 2647 H 265.312 4.91962 3.6167 0
M  V30 2648 H 266.726 5.55059 1.43466 0
M  V30 2649 H 265.123 5.95348 0.753738 0
M  V30 2650 H 266.193 4.84735 -0.126377 0
M  V30 2651 N 267.536 -0.106894 1.57237 0
M  V30 2652 C 268.466 -1.13148 2.04254 0
M  V30 2653 C 269.447 -1.42476 0.929224 0
M  V30 2654 O 270.632 -1.52709 1.19973 0
M  V30 2655 C 267.762 -2.4545 2.45706 0
M  V30 2656 C 266.716 -2.30558 3.60592 0
M  V30 2657 C 266.042 -3.67931 3.87983 0
M  V30 2658 C 267.342 -1.75597 4.91897 0
M  V30 2659 H 269.036 -0.740374 2.90101 0
M  V30 2660 H 266.582 -0.354696 1.39563 0
M  V30 2661 H 268.535 -3.17389 2.77205 0
M  V30 2662 H 267.259 -2.86475 1.56843 0
M  V30 2663 H 265.918 -1.61067 3.29322 0
M  V30 2664 H 265.566 -4.06462 2.96306 0
M  V30 2665 H 265.266 -3.58817 4.65322 0
M  V30 2666 H 266.79 -4.41356 4.21945 0
M  V30 2667 H 268.204 -2.37364 5.21854 0
M  V30 2668 H 266.601 -1.77272 5.73319 0
M  V30 2669 H 267.671 -0.714451 4.79608 0
M  V30 2670 N 269.014 -1.53014 -0.377408 0
M  V30 2671 C 270.244 -1.72265 -1.14054 0
M  V30 2672 C 270.652 -0.44601 -1.83868 0
M  V30 2673 O 269.995 0.590095 -1.73964 0
M  V30 2674 C 270.057 -2.82492 -2.22348 0
M  V30 2675 C 269.721 -4.23233 -1.72402 0
M  V30 2676 C 270.718 -5.05992 -1.19448 0
M  V30 2677 C 268.403 -4.696 -1.78273 0
M  V30 2678 C 270.397 -6.33203 -0.730268 0
M  V30 2679 C 268.084 -5.96792 -1.31464 0
M  V30 2680 C 269.082 -6.78424 -0.789297 0
M  V30 2681 O 268.77 -8.0323 -0.328077 0
M  V30 2682 H 268.502 -0.579873 -0.347453 0
M  V30 2683 H 271.056 -2.00502 -0.445882 0
M  V30 2684 H 269.286 -2.49702 -2.95272 0
M  V30 2685 H 270.975 -2.90034 -2.83963 0
M  V30 2686 H 271.741 -4.71349 -1.14259 0
M  V30 2687 H 267.62 -4.06142 -2.18106 0
M  V30 2688 H 271.164 -6.96868 -0.319542 0
M  V30 2689 H 267.061 -6.30937 -1.36342 0
M  V30 2690 H 267.829 -8.1727 -0.448493 0
M  V30 2691 N 270.492 0.636531 -1.44174 0
M  V30 2692 C 271.908 0.954104 -1.27941 0
M  V30 2693 C 272.108 2.0039 -0.211248 0
M  V30 2694 O 271.164 2.49236 0.404695 0
M  V30 2695 C 272.477 1.4225 -2.64925 0
M  V30 2696 C 274.025 1.53827 -2.72592 0
M  V30 2697 C 274.5 2.04053 -4.10032 0
M  V30 2698 N 275.991 2.11331 -4.12182 0
M  V30 2699 C 276.726 2.51352 -5.15374 0
M  V30 2700 N 276.222 2.90549 -6.2893 0
M  V30 2701 N 278.015 2.51438 -5.02728 0
M  V30 2702 H 270.166 -0.0578386 -2.12321 0
M  V30 2703 H 272.429 0.0367406 -0.947288 0
M  V30 2704 H 272.135 0.725466 -3.44136 0
M  V30 2705 H 272.009 2.39451 -2.9145 0
M  V30 2706 H 274.396 2.22628 -1.93702 0
M  V30 2707 H 274.477 0.550154 -2.49814 0
M  V30 2708 H 274.121 1.35848 -4.89395 0
M  V30 2709 H 274.051 3.03726 -4.30184 0
M  V30 2710 H 276.542 1.83745 -3.30222 0
M  V30 2711 H 276.855 3.19884 -7.03487 0
M  V30 2712 H 275.2 2.88313 -6.32377 0
M  V30 2713 H 278.391 2.20203 -4.13072 0
M  V30 2714 H 278.564 2.82304 -5.83274 0
M  V30 2715 N 271.97 1.30982 0.876444 0
M  V30 2716 C 273.195 1.23373 1.66715 0
M  V30 2717 C 273.62 -0.19885 1.87046 0
M  V30 2718 O 272.978 -1.1427 1.40756 0
M  V30 2719 C 273.026 1.97644 3.01611 0
M  V30 2720 O 272.13 1.30935 3.91062 0
M  V30 2721 H 271.471 0.426279 0.509099 0
M  V30 2722 H 274.001 1.72944 1.09323 0
M  V30 2723 H 274.011 2.06992 3.51594 0
M  V30 2724 H 272.686 3.01829 2.86133 0
M  V30 2725 H 271.263 1.29996 3.49507 0
M  V30 2726 N 273.449 -1.08991 1.13837 0
M  V30 2727 C 274.697 -1.80899 0.901098 0
M  V30 2728 C 275.018 -1.86356 -0.574134 0
M  V30 2729 O 274.288 -1.35235 -1.41733 0
M  V30 2730 H 272.868 -0.669966 0.330386 0
M  V30 2731 H 275.53 -1.318 1.43578 0
M  V30 2732 H 274.626 -2.83929 1.29578 0
M  V30 2733 N 274.927 -0.932562 -1.27047 0
M  V30 2734 C 276.173 -0.576412 -1.94436 0
M  V30 2735 C 276.506 0.880891 -1.73072 0
M  V30 2736 O 275.781 1.62905 -1.06264 0
M  V30 2737 C 276.064 -0.909031 -3.48437 0
M  V30 2738 C 275.917 -2.42044 -3.79123 0
M  V30 2739 C 277.236 -0.418341 -4.38107 0
M  V30 2740 H 274.355 -0.210888 -0.706184 0
M  V30 2741 H 276.997 -1.16522 -1.50075 0
M  V30 2742 H 275.147 -0.407947 -3.86352 0
M  V30 2743 H 276.819 -2.99359 -3.50973 0
M  V30 2744 H 275.062 -2.86758 -3.25503 0
M  V30 2745 H 275.733 -2.6037 -4.86736 0
M  V30 2746 H 278.209 -0.847856 -4.0737 0
M  V30 2747 H 277.085 -0.679981 -5.44672 0
M  V30 2748 H 277.346 0.681642 -4.36814 0
M  V30 2749 N 276.405 1.4127 -0.698611 0
M  V30 2750 C 277.352 2.30773 -0.0352094 0
M  V30 2751 C 278.322 1.47273 0.768111 0
M  V30 2752 O 279.507 1.76053 0.735524 0
M  V30 2753 C 276.647 3.33346 0.893 0
M  V30 2754 C 275.76 4.31924 0.0809695 0
M  V30 2755 C 274.895 5.21566 1.0071 0
M  V30 2756 C 273.934 6.11811 0.188155 0
M  V30 2757 N 273.071 6.93926 1.06825 0
M  V30 2758 H 277.911 2.86943 -0.804207 0
M  V30 2759 H 275.448 1.4132 -0.408294 0
M  V30 2760 H 277.406 3.91368 1.44523 0
M  V30 2761 H 276.036 2.78719 1.62836 0
M  V30 2762 H 275.088 3.75825 -0.588224 0
M  V30 2763 H 276.4 4.95716 -0.553801 0
M  V30 2764 H 275.554 5.84437 1.62845 0
M  V30 2765 H 274.293 4.58008 1.67572 0
M  V30 2766 H 273.298 5.47986 -0.446254 0
M  V30 2767 H 274.523 6.77425 -0.476716 0
M  V30 2768 H 272.469 6.32973 1.72283 0
M  V30 2769 H 272.386 7.54416 0.489123 0
M  V30 2770 H 273.654 7.61262 1.67632 0
M  V30 2771 N 277.883 0.443576 1.51229 0
M  V30 2772 C 279.129 -0.120975 2.02439 0
M  V30 2773 C 279.462 -1.41815 1.32674 0
M  V30 2774 O 278.737 -1.89373 0.443622 0
M  V30 2775 C 279.02 -0.333291 3.58554 0
M  V30 2776 C 278.873 0.982968 4.38928 0
M  V30 2777 C 280.192 -1.10028 4.26124 0
M  V30 2778 H 277.311 -0.0424923 0.735774 0
M  V30 2779 H 279.953 0.583794 1.80809 0
M  V30 2780 H 278.103 -0.933614 3.77115 0
M  V30 2781 H 279.775 1.61775 4.32003 0
M  V30 2782 H 278.018 1.58611 4.03763 0
M  V30 2783 H 278.689 0.788379 5.46341 0
M  V30 2784 H 281.165 -0.591711 4.11871 0
M  V30 2785 H 280.041 -1.21761 5.35225 0
M  V30 2786 H 280.302 -2.12996 3.87408 0
M  V30 2787 N 279.361 -1.56624 0.175154 0
M  V30 2788 C 280.607 -1.9729 -0.469506 0
M  V30 2789 C 280.94 -1.06128 -1.62636 0
M  V30 2790 O 280.215 -0.109183 -1.94193 0
M  V30 2791 C 280.498 -3.47375 -0.948804 0
M  V30 2792 C 280.351 -4.49317 0.208491 0
M  V30 2793 C 281.67 -4.00652 -1.82116 0
M  V30 2794 H 278.789 -0.717317 -0.16919 0
M  V30 2795 H 281.431 -1.88184 0.262062 0
M  V30 2796 H 279.581 -3.55267 -1.57219 0
M  V30 2797 H 281.253 -4.53482 0.845682 0
M  V30 2798 H 279.496 -4.25121 0.863395 0
M  V30 2799 H 280.167 -5.51741 -0.169059 0
M  V30 2800 H 282.643 -3.95416 -1.2956 0
M  V30 2801 H 281.519 -5.06075 -2.12554 0
M  V30 2802 H 281.78 -3.44699 -2.7683 0
M  V30 2803 N 280.839 0.0985539 -1.57292 0
M  V30 2804 C 282.067 0.816318 -1.90115 0
M  V30 2805 C 282.482 1.72451 -0.768509 0
M  V30 2806 O 281.839 1.80643 0.259687 0
M  V30 2807 C 281.89 1.63259 -3.22535 0
M  V30 2808 O 281.611 0.760934 -4.31441 0
M  V30 2809 C 283.112 2.45372 -3.69199 0
M  V30 2810 H 280.332 0.233595 -0.629027 0
M  V30 2811 H 282.876 0.0768229 -2.04356 0
M  V30 2812 H 281.031 2.32463 -3.09903 0
M  V30 2813 H 281.445 1.32595 -5.07463 0
M  V30 2814 H 282.919 2.98144 -4.64558 0
M  V30 2815 H 283.396 3.23677 -2.96867 0
M  V30 2816 H 284.002 1.81373 -3.84687 0
M  V30 2817 N 282.317 1.53212 0.369288 0
M  V30 2818 C 283.564 1.69215 1.11232 0
M  V30 2819 C 283.892 0.442048 1.8941 0
M  V30 2820 O 283.147 -0.575944 1.87033 0
M  V30 2821 C 283.446 2.89101 2.10132 0
M  V30 2822 C 283.112 4.25758 1.48463 0
M  V30 2823 C 281.774 4.6292 1.31372 0
M  V30 2824 C 284.126 5.10757 1.03811 0
M  V30 2825 C 281.454 5.82722 0.68207 0
M  V30 2826 C 283.806 6.31201 0.420487 0
M  V30 2827 C 282.47 6.67079 0.237038 0
M  V30 2828 H 281.74 0.619201 0.407027 0
M  V30 2829 H 284.387 1.87391 0.394552 0
M  V30 2830 H 282.692 2.65421 2.88199 0
M  V30 2831 H 284.389 2.98676 2.6757 0
M  V30 2832 H 280.979 3.96494 1.62758 0
M  V30 2833 H 285.163 4.82599 1.1581 0
M  V30 2834 H 280.419 6.09113 0.528316 0
M  V30 2835 H 284.593 6.96368 0.0662874 0
M  V30 2836 H 282.22 7.59774 -0.254477 0
M  V30 2837 N 283.795 -0.628877 1.44509 0
M  V30 2838 C 285.035 -1.39993 1.48934 0
M  V30 2839 C 285.399 -1.91627 0.119604 0
M  V30 2840 O 286.6 -2.68772 0.0385283 0
M  V30 2841 C 284.871 -2.53241 2.52198 0
M  V30 2842 S 286.43 -3.41383 2.75687 0
M  V30 2843 H 283.248 -0.477558 0.526744 0
M  V30 2844 H 285.85 -0.727804 1.81448 0
M  V30 2845 H 284.554 -2.13622 3.50419 0
M  V30 2846 H 284.085 -3.25278 2.21264 0
M  V30 2847 H 286.1 -4.50752 2.07453 0
M  V30 2848 N 285.273 -1.31445 -0.869486 0
M  V30 2849 C 286.521 -1.20918 -1.61936 0
M  V30 2850 C 286.842 0.232683 -1.93607 0
M  V30 2851 O 286.112 1.15352 -1.58338 0
M  V30 2852 H 284.692 -0.44454 -0.600328 0
M  V30 2853 H 287.354 -1.64776 -1.0409 0
M  V30 2854 H 286.45 -1.78124 -2.56278 0
M  V30 2855 N 286.751 1.08385 -1.14413 0
M  V30 2856 C 287.701 2.13509 -0.79987 0
M  V30 2857 C 288.685 1.5951 0.211059 0
M  V30 2858 O 289.877 1.76995 0.0133694 0
M  V30 2859 C 287.006 3.42162 -0.279297 0
M  V30 2860 C 286.092 4.03042 -1.31976 0
M  V30 2861 N 286.483 4.38327 -2.52395 0
M  V30 2862 C 284.781 4.30379 -1.17004 0
M  V30 2863 C 285.482 4.86428 -3.19003 0
M  V30 2864 N 284.458 4.84547 -2.46405 0
M  V30 2865 H 288.26 2.38609 -1.7159 0
M  V30 2866 H 285.774 1.2572 -1.02802 0
M  V30 2867 H 287.771 4.16898 -0.0143688 0
M  V30 2868 H 286.431 3.18511 0.630923 0
M  V30 2869 H 287.442 4.29349 -2.89621 0
M  V30 2870 H 284.119 4.16281 -0.318854 0
M  V30 2871 H 285.509 5.23107 -4.21674 0
M  V30 2872 N 288.23 0.939286 1.26551 0
M  V30 2873 C 289.458 0.602536 1.97932 0
M  V30 2874 C 289.873 -0.82206 1.69964 0
M  V30 2875 O 289.23 -1.54789 0.966784 0
M  V30 2876 C 289.281 0.832946 3.51773 0
M  V30 2877 O 289.002 2.20151 3.78768 0
M  V30 2878 C 290.503 0.506483 4.40397 0
M  V30 2879 H 287.723 0.227248 0.631347 0
M  V30 2880 H 290.267 1.25948 1.61113 0
M  V30 2881 H 288.422 0.222644 3.8676 0
M  V30 2882 H 288.836 2.26013 4.73306 0
M  V30 2883 H 290.31 0.718333 5.47306 0
M  V30 2884 H 290.787 -0.558451 4.35635 0
M  V30 2885 H 291.393 1.09543 4.10951 0
M  V30 2886 N 289.708 -1.40897 0.706093 0
M  V30 2887 C 290.933 -2.05895 0.249435 0
M  V30 2888 C 291.358 -1.52823 -1.09666 0
M  V30 2889 O 290.716 -0.659589 -1.68876 0
M  V30 2890 C 290.764 -3.59872 0.22904 0
M  V30 2891 O 289.868 -4.04708 -0.792784 0
M  V30 2892 H 289.209 -0.653206 0.119241 0
M  V30 2893 H 291.739 -1.80471 0.96391 0
M  V30 2894 H 291.749 -4.07951 0.0634791 0
M  V30 2895 H 290.424 -3.97866 1.21141 0
M  V30 2896 H 289.001 -3.68111 -0.59572 0
M  V30 2897 N 291.186 -0.45159 -1.50991 0
M  V30 2898 C 292.133 0.352625 -2.2809 0
M  V30 2899 C 293.103 1.0044 -1.32291 0
M  V30 2900 O 294.288 1.02058 -1.6121 0
M  V30 2901 C 291.428 1.43983 -3.13629 0
M  V30 2902 C 290.541 0.804772 -4.24438 0
M  V30 2903 C 289.676 1.86822 -4.97263 0
M  V30 2904 C 288.715 1.21236 -5.99973 0
M  V30 2905 N 287.852 2.2178 -6.66152 0
M  V30 2906 H 292.692 -0.311186 -2.96371 0
M  V30 2907 H 290.229 -0.165308 -1.46168 0
M  V30 2908 H 292.187 2.08161 -3.61559 0
M  V30 2909 H 290.817 2.07307 -2.47434 0
M  V30 2910 H 289.869 0.0509129 -3.80366 0
M  V30 2911 H 291.181 0.286076 -4.97979 0
M  V30 2912 H 290.335 2.58628 -5.48813 0
M  V30 2913 H 289.074 2.42068 -4.23385 0
M  V30 2914 H 288.079 0.479828 -5.47702 0
M  V30 2915 H 289.304 0.667051 -6.75816 0
M  V30 2916 H 287.25 2.76079 -5.95077 0
M  V30 2917 H 287.167 1.74841 -7.35504 0
M  V30 2918 H 288.435 2.93026 -7.22327 0
M  V30 2919 N 292.664 1.56529 -0.183458 0
M  V30 2920 C 293.892 2.01623 0.464285 0
M  V30 2921 C 294.307 1.06366 1.55986 0
M  V30 2922 O 293.664 0.0665398 1.82379 0
M  V30 2923 C 293.715 3.46475 1.03139 0
M  V30 2924 O 293.436 4.38095 -0.0204675 0
M  V30 2925 C 294.937 4.0703 1.75617 0
M  V30 2926 H 292.157 0.660596 0.117704 0
M  V30 2927 H 294.701 2.02451 -0.288751 0
M  V30 2928 H 292.856 3.46383 1.73486 0
M  V30 2929 H 293.27 5.22973 0.399952 0
M  V30 2930 H 294.744 5.10271 2.10542 0
M  V30 2931 H 295.221 3.49819 2.65563 0
M  V30 2932 H 295.827 4.1086 1.09882 0
M  V30 2933 N 294.142 -0.090211 1.57342 0
M  V30 2934 C 295.09 -1.12792 2.03422 0
M  V30 2935 C 296.084 -1.41182 0.936166 0
M  V30 2936 O 297.29 -1.40805 1.12133 0
M  V30 2937 H 293.665 -0.380986 0.648347 0
M  V30 2938 H 295.636 -0.71299 2.89757 0
M  V30 2939 C 294.385 -2.43855 2.47851 0
M  V30 2940 H 293.708 -2.22855 3.31927 0
M  V30 2941 H 295.148 -3.14955 2.83865 0
M  V30 2942 C 293.607 -3.08503 1.3538 0
M  V30 2943 O 294.137 -3.95805 0.685641 0
M  V30 2944 N 292.343 -2.68831 1.10355 0
M  V30 2945 H 291.89 -1.97929 1.64869 0
M  V30 2946 H 291.848 -3.12412 0.353031 0
M  V30 2947 N 295.62 -1.53406 -0.361157 0
M  V30 2948 C 296.552 -1.76446 -1.46286 0
M  V30 2949 C 297.565 -0.645322 -1.49464 0
M  V30 2950 O 298.754 -0.921681 -1.52864 0
M  V30 2951 C 295.854 -1.83332 -2.85031 0
M  V30 2952 C 295.027 -3.13033 -3.05498 0
M  V30 2953 C 294.086 -3.11104 -4.24383 0
M  V30 2954 O 293.112 -3.84888 -4.19344 0
M  V30 2955 N 294.314 -2.32234 -5.32022 0
M  V30 2956 H 297.079 -2.71508 -1.26899 0
M  V30 2957 H 294.64 -1.52238 -0.550915 0
M  V30 2958 H 296.632 -1.79514 -3.62708 0
M  V30 2959 H 295.202 -0.955342 -2.97644 0
M  V30 2960 H 294.422 -3.30119 -2.15442 0
M  V30 2961 H 295.71 -3.9874 -3.16044 0
M  V30 2962 H 295.108 -1.71807 -5.38979 0
M  V30 2963 H 293.665 -2.3423 -6.08259 0
M  V30 2964 N 297.098 0.621204 -1.44841 0
M  V30 2965 C 298.344 1.3826 -1.48365 0
M  V30 2966 C 298.677 1.93831 -0.119624 0
M  V30 2967 O 297.952 1.74251 0.864111 0
M  V30 2968 C 298.235 2.54058 -2.55199 0
M  V30 2969 C 298.088 2.03772 -4.00995 0
M  V30 2970 C 299.407 3.56225 -2.58442 0
M  V30 2971 H 296.526 0.501374 -0.540179 0
M  V30 2972 H 299.168 0.7015 -1.76576 0
M  V30 2973 H 297.318 3.12162 -2.31274 0
M  V30 2974 H 298.99 1.50423 -4.36086 0
M  V30 2975 H 297.233 1.34876 -4.12299 0
M  V30 2976 H 297.904 2.87185 -4.71411 0
M  V30 2977 H 300.38 3.07939 -2.79844 0
M  V30 2978 H 299.256 4.34756 -3.3508 0
M  V30 2979 H 299.517 4.10949 -1.63013 0
M  V30 2980 N 298.576 1.31904 0.862503 0
M  V30 2981 C 299.524 1.20125 1.9918 0
M  V30 2982 C 300.518 0.107824 1.69056 0
M  V30 2983 O 301.724 0.270223 1.7796 0
M  V30 2984 H 298.099 0.372148 0.65346 0
M  V30 2985 H 300.07 2.15652 2.06244 0
M  V30 2986 C 298.819 0.933099 3.34946 0
M  V30 2987 H 298.142 1.76664 3.5865 0
M  V30 2988 H 299.582 0.890892 4.14535 0
M  V30 2989 C 298.041 -0.364172 3.34926 0
M  V30 2990 O 298.571 -1.37858 3.77304 0
M  V30 2991 N 296.777 -0.383362 2.8806 0
M  V30 2992 H 296.324 0.442651 2.53768 0
M  V30 2993 H 296.282 -1.25123 2.8843 0
M  V30 2994 N 300.054 -1.07777 1.14986 0
M  V30 2995 C 301.279 -1.84558 0.946213 0
M  V30 2996 C 301.704 -1.81323 -0.500362 0
M  V30 2997 O 301.062 -1.20301 -1.35637 0
M  V30 2998 C 301.11 -3.29736 1.45968 0
M  V30 2999 O 300.214 -4.07149 0.65601 0
M  V30 3000 H 299.555 -0.571641 0.33782 0
M  V30 3001 H 302.085 -1.35991 1.52865 0
M  V30 3002 H 302.095 -3.80574 1.47063 0
M  V30 3003 H 300.77 -3.31406 2.51283 0
M  V30 3004 H 299.347 -3.65994 0.714322 0
M  V30 3005 N 301.532 -0.945985 -1.26051 0
M  V30 3006 C 302.78 -0.594941 -1.93145 0
M  V30 3007 C 303.101 0.86953 -1.7454 0
M  V30 3008 O 302.371 1.61838 -1.10387 0
M  V30 3009 H 300.951 -0.217044 -0.714773 0
M  V30 3010 H 303.613 -1.20235 -1.53393 0
M  V30 3011 H 302.709 -0.816835 -3.01221 0
M  V30 3012 N 303.011 1.40521 -0.713556 0
M  V30 3013 C 304.259 2.00527 -0.251692 0
M  V30 3014 C 304.58 1.56857 1.15848 0
M  V30 3015 O 303.85 0.807127 1.785 0
M  V30 3016 H 302.43 0.741551 -0.0900646 0
M  V30 3017 H 305.092 1.71887 -0.918733 0
M  V30 3018 H 304.188 3.10813 -0.283192 0
M  V30 3019 N 304.489 0.459591 1.5075 0
M  V30 3020 C 305.735 -0.0994966 2.02556 0
M  V30 3021 C 306.068 -1.40399 1.3417 0
M  V30 3022 O 305.343 -1.88892 0.463683 0
M  V30 3023 C 305.626 -0.295242 3.58888 0
M  V30 3024 C 305.479 1.02947 4.37861 0
M  V30 3025 C 306.798 -1.05502 4.27267 0
M  V30 3026 H 303.917 -0.034686 0.736183 0
M  V30 3027 H 306.559 0.602938 1.8018 0
M  V30 3028 H 304.709 -0.893563 3.78084 0
M  V30 3029 H 306.381 1.66348 4.30263 0
M  V30 3030 H 304.624 1.62885 4.02058 0
M  V30 3031 H 305.295 0.846281 5.45474 0
M  V30 3032 H 307.771 -0.547993 4.12476 0
M  V30 3033 H 306.647 -1.16077 5.36486 0
M  V30 3034 H 306.908 -2.08875 3.89645 0
M  V30 3035 N 305.967 -1.56429 0.191757 0
M  V30 3036 C 306.897 -2.21937 -0.725696 0
M  V30 3037 C 307.878 -1.1814 -1.2238 0
M  V30 3038 O 309.063 -1.46636 -1.27325 0
M  V30 3039 C 306.193 -2.87611 -1.94672 0
M  V30 3040 C 305.147 -3.97623 -1.58366 0
M  V30 3041 C 304.473 -4.50446 -2.88102 0
M  V30 3042 C 305.773 -5.16197 -0.796133 0
M  V30 3043 H 307.467 -2.98861 -0.179606 0
M  V30 3044 H 305.013 -1.43749 -0.0849464 0
M  V30 3045 H 306.966 -3.3212 -2.59373 0
M  V30 3046 H 305.69 -2.08087 -2.51728 0
M  V30 3047 H 304.349 -3.53801 -0.960247 0
M  V30 3048 H 303.997 -3.67688 -3.43241 0
M  V30 3049 H 303.697 -5.24675 -2.64556 0
M  V30 3050 H 305.221 -4.97654 -3.53798 0
M  V30 3051 H 306.635 -5.57271 -1.34618 0
M  V30 3052 H 305.032 -5.96471 -0.658928 0
M  V30 3053 H 306.102 -4.84473 0.203478 0
M  V30 3054 N 307.445 0.0818655 -1.57387 0
M  V30 3055 C 308.375 1.09885 -2.06028 0
M  V30 3056 C 309.356 1.4098 -0.951774 0
M  V30 3057 O 310.541 1.50781 -1.22387 0
M  V30 3058 C 307.671 2.4151 -2.4958 0
M  V30 3059 C 306.625 2.24792 -3.64215 0
M  V30 3060 C 305.951 3.61712 -3.93787 0
M  V30 3061 C 307.251 1.67749 -4.94629 0
M  V30 3062 H 308.945 0.694128 -2.91243 0
M  V30 3063 H 306.491 0.332448 -1.4011 0
M  V30 3064 H 308.444 3.12939 -2.82219 0
M  V30 3065 H 307.168 2.83943 -1.61381 0
M  V30 3066 H 305.827 1.55807 -3.31843 0
M  V30 3067 H 305.475 4.01697 -3.02735 0
M  V30 3068 H 305.175 3.51368 -4.70971 0
M  V30 3069 H 306.699 4.34587 -4.28913 0
M  V30 3070 H 308.113 2.29032 -5.25564 0
M  V30 3071 H 306.51 1.68128 -5.76067 0
M  V30 3072 H 307.58 0.638059 -4.80684 0
M  V30 3073 N 308.923 1.53595 0.353017 0
M  V30 3074 C 310.339 1.43648 0.695516 0
M  V30 3075 C 310.539 0.585617 1.92802 0
M  V30 3076 O 309.595 0.0729223 2.52395 0
M  V30 3077 C 310.908 2.8701 0.896991 0
M  V30 3078 C 312.456 2.96723 0.996209 0
M  V30 3079 C 312.931 4.41173 1.23007 0
M  V30 3080 N 314.422 4.44657 1.29749 0
M  V30 3081 C 315.157 5.53547 1.49577 0
M  V30 3082 N 314.653 6.72461 1.66639 0
M  V30 3083 N 316.446 5.41145 1.52048 0
M  V30 3084 H 308.597 2.07415 -0.457481 0
M  V30 3085 H 310.86 0.9372 -0.142687 0
M  V30 3086 H 310.566 3.51644 0.0629938 0
M  V30 3087 H 310.44 3.31401 1.80148 0
M  V30 3088 H 312.827 2.32235 1.82074 0
M  V30 3089 H 312.908 2.55707 0.0688331 0
M  V30 3090 H 312.552 5.06238 0.410505 0
M  V30 3091 H 312.482 4.79772 2.17086 0
M  V30 3092 H 314.973 3.58963 1.18126 0
M  V30 3093 H 315.286 7.51214 1.81378 0
M  V30 3094 H 313.631 6.75423 1.63794 0
M  V30 3095 H 316.822 4.47205 1.38294 0
M  V30 3096 H 316.995 6.26068 1.67159 0
M  V30 3097 N 310.401 -0.613514 1.45168 0
M  V30 3098 C 311.331 -1.7354 1.56225 0
M  V30 3099 C 312.312 -1.64981 0.41414 0
M  V30 3100 O 313.497 -1.83472 0.636526 0
M  V30 3101 C 310.627 -3.12128 1.52295 0
M  V30 3102 C 309.581 -3.35491 2.65762 0
M  V30 3103 C 308.907 -4.74291 2.46885 0
M  V30 3104 C 310.207 -3.26325 4.0781 0
M  V30 3105 H 311.901 -1.64543 2.50132 0
M  V30 3106 H 309.447 -0.790185 1.20383 0
M  V30 3107 H 311.4 -3.90404 1.58628 0
M  V30 3108 H 310.124 -3.2195 0.549139 0
M  V30 3109 H 308.783 -2.59603 2.58847 0
M  V30 3110 H 308.431 -4.80839 1.47657 0
M  V30 3111 H 308.131 -4.9088 3.22972 0
M  V30 3112 H 309.655 -5.54775 2.55063 0
M  V30 3113 H 311.069 -3.94483 4.16 0
M  V30 3114 H 309.466 -3.54445 4.8424 0
M  V30 3115 H 310.536 -2.23855 4.30136 0
M  V30 3116 N 311.879 -1.3236 -0.855495 0
M  V30 3117 C 312.811 -1.17052 -1.97057 0
M  V30 3118 C 313.824 -0.10574 -1.62456 0
M  V30 3119 O 315.013 -0.354619 -1.74942 0
M  V30 3120 C 312.113 -0.769305 -3.30053 0
M  V30 3121 C 311.286 -1.9222 -3.929 0
M  V30 3122 C 310.345 -1.50466 -5.04228 0
M  V30 3123 O 309.371 -2.21655 -5.24269 0
M  V30 3124 N 310.573 -0.400209 -5.79119 0
M  V30 3125 H 313.338 -2.13103 -2.1073 0
M  V30 3126 H 310.899 -1.24885 -1.0303 0
M  V30 3127 H 312.891 -0.472407 -4.01933 0
M  V30 3128 H 311.461 0.100025 -3.1244 0
M  V30 3129 H 310.681 -2.38563 -3.13817 0
M  V30 3130 H 311.969 -2.69403 -4.31624 0
M  V30 3131 H 311.367 0.192319 -5.65373 0
M  V30 3132 H 309.924 -0.162912 -6.51596 0
M  V30 3133 N 313.357 1.07166 -1.15556 0
M  V30 3134 C 314.603 1.80065 -0.932984 0
M  V30 3135 C 314.936 1.86586 0.53845 0
M  V30 3136 O 314.211 1.35098 1.39924 0
M  V30 3137 C 314.494 3.25022 -1.55025 0
M  V30 3138 C 314.347 3.26634 -3.09242 0
M  V30 3139 C 315.666 4.22341 -1.2376 0
M  V30 3140 H 312.785 0.653697 -0.340366 0
M  V30 3141 H 315.427 1.25389 -1.4275 0
M  V30 3142 H 313.577 3.71712 -1.12972 0
M  V30 3143 H 315.249 2.88173 -3.60214 0
M  V30 3144 H 313.492 2.65539 -3.43033 0
M  V30 3145 H 314.163 4.28854 -3.47546 0
M  V30 3146 H 316.639 3.8405 -1.60139 0
M  V30 3147 H 315.515 5.22053 -1.69564 0
M  V30 3148 H 315.776 4.41828 -0.154938 0
M  V30 3149 N 314.835 0.952656 1.25548 0
M  V30 3150 C 316.083 0.605176 1.92826 0
M  V30 3151 C 316.404 -0.860261 1.74999 0
M  V30 3152 O 315.674 -1.6125 1.11244 0
M  V30 3153 H 314.254 0.220832 0.713612 0
M  V30 3154 H 316.916 1.21047 1.52754 0
M  V30 3155 H 316.012 0.832798 3.00784 0
M  V30 3156 N 316.313 -1.40141 0.720998 0
M  V30 3157 C 317.223 -2.34486 0.0731031 0
M  V30 3158 C 318.239 -1.57587 -0.737723 0
M  V30 3159 O 319.415 -1.89949 -0.669429 0
M  V30 3160 C 316.48 -3.36528 -0.833656 0
M  V30 3161 C 315.541 -4.29298 -0.0121673 0
M  V30 3162 C 314.774 -5.26466 -0.875742 0
M  V30 3163 O 314.997 -5.29745 -2.11485 0
M  V30 3164 O 313.931 -6.01092 -0.31185 0
M  V30 3165 H 317.757 -2.9152 0.851444 0
M  V30 3166 H 315.342 -1.41427 0.481527 0
M  V30 3167 H 317.224 -3.99093 -1.35289 0
M  V30 3168 H 315.899 -2.81899 -1.59105 0
M  V30 3169 H 314.806 -3.70001 0.552262 0
M  V30 3170 H 316.139 -4.87094 0.707129 0
M  V30 3171 N 317.792 -0.46758 -1.50504 0
M  V30 3172 C 318.702 0.33382 -2.32213 0
M  V30 3173 C 319.718 0.999323 -1.42441 0
M  V30 3174 O 320.894 0.988068 -1.75497 0
M  V30 3175 C 317.959 1.4035 -3.17022 0
M  V30 3176 C 317.02 0.754961 -4.2261 0
M  V30 3177 C 316.253 1.77367 -5.03365 0
M  V30 3178 O 316.476 2.99976 -4.8515 0
M  V30 3179 O 315.41 1.34744 -5.86624 0
M  V30 3180 H 319.236 -0.334067 -3.01857 0
M  V30 3181 H 316.821 -0.229496 -1.47627 0
M  V30 3182 H 318.703 2.02318 -3.69656 0
M  V30 3183 H 317.378 2.05492 -2.5011 0
M  V30 3184 H 316.285 0.0964244 -3.73976 0
M  V30 3185 H 317.618 0.146545 -4.91982 0
M  V30 3186 N 319.27 1.56325 -0.20005 0
M  V30 3187 C 320.516 1.98012 0.438059 0
M  V30 3188 C 320.849 1.08702 1.60927 0
M  V30 3189 O 320.124 0.140064 1.93995 0
M  V30 3190 C 320.407 3.48841 0.893419 0
M  V30 3191 C 320.26 4.48928 -0.279947 0
M  V30 3192 C 321.579 4.03498 1.75719 0
M  V30 3193 H 318.698 0.719918 0.157757 0
M  V30 3194 H 321.34 1.87743 -0.291968 0
M  V30 3195 H 319.49 3.57723 1.51547 0
M  V30 3196 H 321.162 4.52079 -0.91772 0
M  V30 3197 H 319.405 4.23694 -0.930919 0
M  V30 3198 H 320.076 5.5194 0.0812601 0
M  V30 3199 H 322.552 3.97427 1.23253 0
M  V30 3200 H 321.428 5.09393 2.04476 0
M  V30 3201 H 321.689 3.4906 2.71311 0
M  V30 3202 N 320.748 -0.0735177 1.57428 0
M  V30 3203 C 321.994 -0.768909 1.88307 0
M  V30 3204 C 322.349 -1.75273 0.793535 0
M  V30 3205 O 321.642 -1.90527 -0.202466 0
M  V30 3206 C 321.836 -1.51799 3.23561 0
M  V30 3207 C 321.665 -0.608217 4.45568 0
M  V30 3208 C 320.435 -0.245808 5.04702 0
M  V30 3209 C 322.633 0.0942904 5.14214 0
M  V30 3210 N 320.615 0.66987 6.10234 0
M  V30 3211 C 321.986 0.867222 6.13905 0
M  V30 3212 C 324.041 0.165943 4.97623 0
M  V30 3213 C 322.744 1.70515 6.98797 0
M  V30 3214 C 324.77 0.990837 5.83041 0
M  V30 3215 C 324.132 1.75182 6.82269 0
M  V30 3216 H 320.231 -0.25685 0.738615 0
M  V30 3217 H 322.815 -0.030499 1.94676 0
M  V30 3218 H 320.986 -2.22713 3.18203 0
M  V30 3219 H 322.718 -2.16226 3.42094 0
M  V30 3220 H 319.473 -0.598284 4.69806 0
M  V30 3221 H 319.897 1.1209 6.67656 0
M  V30 3222 H 324.539 -0.408064 4.20826 0
M  V30 3223 H 322.257 2.29013 7.7497 0
M  V30 3224 H 325.843 1.04923 5.72261 0
M  V30 3225 H 324.723 2.37983 7.47217 0
M  V30 3226 N 322.226 -1.5378 -0.344866 0
M  V30 3227 C 323.156 -1.84662 -1.42906 0
M  V30 3228 C 324.137 -0.701648 -1.54955 0
M  V30 3229 O 325.322 -0.953438 -1.69184 0
M  V30 3230 C 322.452 -2.05503 -2.79974 0
M  V30 3231 C 321.406 -3.21318 -2.82734 0
M  V30 3232 C 320.732 -3.2749 -4.22675 0
M  V30 3233 C 322.032 -4.59456 -2.48389 0
M  V30 3234 H 323.726 -2.75461 -1.17311 0
M  V30 3235 H 321.272 -1.32542 -0.562896 0
M  V30 3236 H 323.225 -2.25691 -3.55867 0
M  V30 3237 H 321.949 -1.11434 -3.07002 0
M  V30 3238 H 320.608 -3.00984 -2.09294 0
M  V30 3239 H 320.256 -2.31019 -4.4681 0
M  V30 3240 H 319.956 -4.05316 -4.25433 0
M  V30 3241 H 321.48 -3.49887 -5.00412 0
M  V30 3242 H 322.894 -4.79667 -3.13995 0
M  V30 3243 H 321.291 -5.39675 -2.62432 0
M  V30 3244 H 322.361 -4.63155 -1.4358 0
M  V30 3245 N 323.704 0.605807 -1.45491 0
M  V30 3246 C 324.667 1.69836 -1.5391 0
M  V30 3247 C 325.667 1.55261 -0.418424 0
M  V30 3248 O 326.857 1.60296 -0.681965 0
M  V30 3249 C 323.989 3.09117 -1.43734 0
M  V30 3250 H 325.182 1.63738 -2.51257 0
M  V30 3251 H 322.735 0.821689 -1.32959 0
M  V30 3252 H 323.47 3.20791 -0.475788 0
M  V30 3253 H 323.255 3.21104 -2.25021 0
M  V30 3254 H 324.745 3.88696 -1.52661 0
M  V30 3255 N 325.182 1.32811 0.848464 0
M  V30 3256 C 326.428 1.23907 1.60546 0
M  V30 3257 C 326.761 -0.197161 1.93197 0
M  V30 3258 O 326.036 -1.13596 1.5788 0
M  V30 3259 C 326.319 2.10489 2.92175 0
M  V30 3260 C 326.172 3.62522 2.66266 0
M  V30 3261 C 327.491 1.97075 3.93509 0
M  V30 3262 H 324.61 0.451459 0.58254 0
M  V30 3263 H 327.252 1.62818 0.979296 0
M  V30 3264 H 325.402 1.77434 3.45614 0
M  V30 3265 H 327.074 4.05821 2.19334 0
M  V30 3266 H 325.317 3.84879 2.00126 0
M  V30 3267 H 325.988 4.18437 3.6002 0
M  V30 3268 H 328.464 2.26045 3.49346 0
M  V30 3269 H 327.34 2.59923 4.83457 0
M  V30 3270 H 327.601 0.940186 4.31987 0
M  V30 3271 N 326.66 -1.06551 1.16123 0
M  V30 3272 C 327.608 -2.16063 0.861371 0
M  V30 3273 C 328.602 -1.6856 -0.168517 0
M  V30 3274 O 329.808 -1.79986 -0.0227579 0
M  V30 3275 H 326.183 -0.705278 0.260934 0
M  V30 3276 H 328.154 -2.38567 1.79244 0
M  V30 3277 C 326.903 -3.45661 0.376018 0
M  V30 3278 H 326.226 -3.82604 1.15992 0
M  V30 3279 H 327.666 -4.23504 0.204951 0
M  V30 3280 C 326.125 -3.24546 -0.903954 0
M  V30 3281 O 326.655 -3.49865 -1.97377 0
M  V30 3282 N 324.861 -2.77992 -0.846679 0
M  V30 3283 H 324.408 -2.57589 0.0241017 0
M  V30 3284 H 324.366 -2.64244 -1.70359 0
M  V30 3285 N 328.138 -0.959301 -1.25041 0
M  V30 3286 C 329.415 -0.533805 -1.88175 0
M  V30 3287 C 329.795 0.988994 -1.865 0
M  V30 3288 O 329.143 1.85677 -1.33177 0
M  V30 3289 C 329.353 -1.11575 -3.30684 0
M  V30 3290 C 330.701 -1.19548 -4.07423 0
M  V30 3291 O 331.725 -1.06765 -3.39823 0
M  V30 3292 O 330.584 -1.39656 -5.28354 0
M  V30 3293 H 327.678 -0.176772 -0.807887 0
M  V30 3294 H 330.224 -1.05303 -1.33076 0
M  V30 3295 H 328.996 -2.15884 -3.26358 0
M  V30 3296 H 328.619 -0.580059 -3.93346 0
M  V30 3297 N 329.616 1.39756 -0.72842 0
M  V30 3298 C 330.846 2.04651 -0.283117 0
M  V30 3299 C 331.254 1.5502 1.08469 0
M  V30 3300 O 330.597 0.707343 1.69536 0
M  V30 3301 C 330.659 3.58947 -0.199309 0
M  V30 3302 C 330.323 4.31525 -1.5045 0
M  V30 3303 C 331.32 4.5861 -2.44894 0
M  V30 3304 C 329.005 4.70195 -1.76698 0
M  V30 3305 C 330.999 5.23366 -3.63822 0
M  V30 3306 C 328.686 5.3468 -2.95906 0
M  V30 3307 C 329.684 5.61198 -3.89289 0
M  V30 3308 O 329.372 6.24347 -5.06404 0
M  V30 3309 H 329.104 0.664777 -0.122666 0
M  V30 3310 H 331.658 1.79913 -0.990987 0
M  V30 3311 H 329.888 3.82556 0.56461 0
M  V30 3312 H 331.577 4.0534 0.213125 0
M  V30 3313 H 332.343 4.29187 -2.25883 0
M  V30 3314 H 328.222 4.48916 -1.04859 0
M  V30 3315 H 331.766 5.4398 -4.36728 0
M  V30 3316 H 327.663 5.63524 -3.14819 0
M  V30 3317 H 328.431 6.42842 -5.06652 0
M  V30 3318 N 331.094 0.475555 1.50254 0
M  V30 3319 C 332.324 -0.0753399 2.06463 0
M  V30 3320 C 332.732 -1.33661 1.33908 0
M  V30 3321 O 332.075 -1.79219 0.403257 0
M  V30 3322 C 332.137 -0.424921 3.5698 0
M  V30 3323 C 331.801 0.734965 4.51051 0
M  V30 3324 C 332.798 1.61827 4.94073 0
M  V30 3325 C 330.483 0.926557 4.9368 0
M  V30 3326 C 332.477 2.67754 5.78434 0
M  V30 3327 C 330.164 1.98904 5.77824 0
M  V30 3328 C 331.162 2.8629 6.20103 0
M  V30 3329 O 330.85 3.90708 7.02568 0
M  V30 3330 H 330.582 0.00576308 0.675975 0
M  V30 3331 H 333.136 0.664662 1.94349 0
M  V30 3332 H 331.366 -1.21817 3.67012 0
M  V30 3333 H 333.055 -0.911422 3.95535 0
M  V30 3334 H 333.821 1.48196 4.61804 0
M  V30 3335 H 329.7 0.25584 4.6029 0
M  V30 3336 H 333.244 3.35992 6.11355 0
M  V30 3337 H 329.141 2.12541 6.09505 0
M  V30 3338 H 329.909 3.87751 7.20827 0
M  V30 3339 N 332.573 -1.56217 0.208337 0
M  V30 3340 C 333.85 -1.89739 -0.475234 0
M  V30 3341 C 334.23 -1.1238 -1.78701 0
M  V30 3342 O 333.578 -0.228979 -2.2735 0
M  V30 3343 C 333.788 -3.42289 -0.681101 0
M  V30 3344 C 335.136 -4.12789 -0.994507 0
M  V30 3345 O 336.16 -3.47814 -0.768357 0
M  V30 3346 O 335.019 -5.27649 -1.42299 0
M  V30 3347 H 332.113 -0.788478 -0.249461 0
M  V30 3348 H 334.659 -1.67855 0.249538 0
M  V30 3349 H 333.431 -3.90534 0.244722 0
M  V30 3350 H 333.054 -3.69909 -1.45785 0
M  V30 3351 N 334.051 0.0651679 -1.57465 0
M  V30 3352 C 334.984 1.10876 -1.99453 0
M  V30 3353 C 335.962 1.37205 -0.872555 0
M  V30 3354 O 337.146 1.50468 -1.13542 0
M  V30 3355 C 334.273 2.45167 -2.3369 0
M  V30 3356 C 333.319 2.3493 -3.55964 0
M  V30 3357 S 334.152 1.73708 -5.06543 0
M  V30 3358 C 335.308 3.09563 -5.43987 0
M  V30 3359 H 335.541 0.750967 -2.87659 0
M  V30 3360 H 333.074 0.273933 -1.51951 0
M  V30 3361 H 335.032 3.22412 -2.54088 0
M  V30 3362 H 333.693 2.78105 -1.46001 0
M  V30 3363 H 332.886 3.3398 -3.77457 0
M  V30 3364 H 332.488 1.65823 -3.3523 0
M  V30 3365 H 334.78 4.05882 -5.42463 0
M  V30 3366 H 335.723 2.92843 -6.44708 0
M  V30 3367 H 336.131 3.10474 -4.71451 0
M  V30 3368 N 335.529 1.53961 0.336706 0
M  V30 3369 C 336.775 1.7179 1.07777 0
M  V30 3370 C 337.108 0.483263 1.88091 0
M  V30 3371 O 336.383 -0.519747 1.87427 0
M  V30 3372 C 336.666 2.98558 2.01334 0
M  V30 3373 C 336.519 4.32245 1.24437 0
M  V30 3374 C 337.838 3.21023 3.01052 0
M  V30 3375 H 334.957 0.625089 0.390426 0
M  V30 3376 H 337.599 1.86641 0.35567 0
M  V30 3377 H 335.749 2.86028 2.62908 0
M  V30 3378 H 337.421 4.56637 0.654243 0
M  V30 3379 H 335.664 4.30344 0.546458 0
M  V30 3380 H 336.335 5.17137 1.93063 0
M  V30 3381 H 338.811 3.32929 2.49595 0
M  V30 3382 H 337.687 4.11104 3.6371 0
M  V30 3383 H 337.948 2.37637 3.72802 0
M  V30 3384 N 337.007 -0.598083 1.45811 0
M  V30 3385 C 338.255 -1.35413 1.50026 0
M  V30 3386 C 338.576 -1.94444 0.147177 0
M  V30 3387 O 337.846 -1.77701 -0.824571 0
M  V30 3388 H 336.426 -0.502727 0.552517 0
M  V30 3389 H 339.088 -0.701606 1.81834 0
M  V30 3390 H 338.184 -2.16871 2.2444 0
M  V30 3391 N 338.485 -1.33259 -0.841409 0
M  V30 3392 C 339.734 -1.23921 -1.59143 0
M  V30 3393 C 340.047 0.1941 -1.94635 0
M  V30 3394 O 341.253 0.409474 -2.68394 0
M  V30 3395 C 339.709 -2.17119 -2.87032 0
M  V30 3396 C 339.317 -3.65606 -2.58914 0
M  V30 3397 C 341.061 -2.16648 -3.65053 0
M  V30 3398 C 338.968 -4.50726 -3.82884 0
M  V30 3399 H 337.898 -0.460264 -0.597221 0
M  V30 3400 H 340.549 -1.58307 -0.927959 0
M  V30 3401 H 338.931 -1.75663 -3.54906 0
M  V30 3402 H 340.105 -4.15487 -1.99267 0
M  V30 3403 H 338.42 -3.68341 -1.942 0
M  V30 3404 H 341.017 -2.77474 -4.57069 0
M  V30 3405 H 341.36 -1.16088 -3.99787 0
M  V30 3406 H 341.893 -2.56453 -3.041 0
M  V30 3407 H 338.632 -5.52151 -3.53283 0
M  V30 3408 H 338.152 -4.0559 -4.41879 0
M  V30 3409 H 339.831 -4.64401 -4.50489 0
M  V30 3410 N 339.963 1.05934 -1.16686 0
M  V30 3411 C 340.895 2.13468 -0.834503 0
M  V30 3412 C 341.908 1.62013 0.15984 0
M  V30 3413 O 343.097 1.7838 -0.0654228 0
M  V30 3414 C 340.197 3.3817 -0.222361 0
M  V30 3415 C 339.37 4.18928 -1.25771 0
M  V30 3416 C 338.429 5.21985 -0.664703 0
M  V30 3417 O 337.455 5.53334 -1.33453 0
M  V30 3418 N 338.657 5.77919 0.546834 0
M  V30 3419 H 341.422 2.42578 -1.75999 0
M  V30 3420 H 338.983 1.21967 -1.06469 0
M  V30 3421 H 340.975 4.04266 0.187472 0
M  V30 3422 H 339.545 3.06655 0.606758 0
M  V30 3423 H 338.765 3.48433 -1.84358 0
M  V30 3424 H 340.053 4.69687 -1.95631 0
M  V30 3425 H 339.451 5.54721 1.10912 0
M  V30 3426 H 338.008 6.45573 0.898829 0
M  V30 3427 N 341.441 0.965919 1.2453 0
M  V30 3428 C 342.689 0.625593 1.92174 0
M  V30 3429 C 343.01 -0.841652 1.75901 0
M  V30 3430 O 342.28 -1.60061 1.12948 0
M  V30 3431 H 340.86 0.228388 0.71123 0
M  V30 3432 H 343.522 1.2266 1.51461 0
M  V30 3433 H 342.618 0.864653 2.99884 0
M  V30 3434 N 342.919 -1.39368 0.735821 0
M  V30 3435 C 344.144 -2.05319 0.293052 0
M  V30 3436 C 344.569 -1.55115 -1.064 0
M  V30 3437 O 343.927 -0.695261 -1.67439 0
M  V30 3438 C 343.975 -3.59305 0.305323 0
M  V30 3439 O 343.079 -4.06299 -0.706761 0
M  V30 3440 H 342.42 -0.650529 0.13307 0
M  V30 3441 H 344.95 -1.78386 1.00197 0
M  V30 3442 H 344.96 -4.07724 0.149997 0
M  V30 3443 H 343.635 -3.95207 1.29553 0
M  V30 3444 H 342.212 -3.69292 -0.517504 0
M  V30 3445 N 344.397 -0.483516 -1.5 0
M  V30 3446 C 345.674 0.129337 -1.95172 0
M  V30 3447 C 346.054 1.55802 -1.4244 0
M  V30 3448 O 345.402 2.19625 -0.630649 0
M  V30 3449 C 345.612 0.0599251 -3.48949 0
M  V30 3450 C 346.96 0.242617 -4.23906 0
M  V30 3451 O 347.984 0.135933 -3.55941 0
M  V30 3452 O 346.843 0.459454 -5.44565 0
M  V30 3453 H 343.937 0.104887 -0.820322 0
M  V30 3454 H 346.483 -0.544807 -1.60717 0
M  V30 3455 H 345.255 -0.937079 -3.79914 0
M  V30 3456 H 344.878 0.774984 -3.89974 0
M  V30 3457 N 345.875 1.56104 -0.216619 0
M  V30 3458 C 347.1 2.0301 0.424462 0
M  V30 3459 C 347.525 1.0955 1.52907 0
M  V30 3460 O 346.883 0.0827914 1.81111 0
M  V30 3461 C 346.931 3.4819 0.937883 0
M  V30 3462 O 346.035 3.57865 2.04955 0
M  V30 3463 H 345.376 0.656925 0.0966755 0
M  V30 3464 H 347.906 2.01859 -0.33381 0
M  V30 3465 H 347.916 3.88413 1.24897 0
M  V30 3466 H 346.591 4.15699 0.129387 0
M  V30 3467 H 345.168 3.29527 1.74546 0
M  V30 3468 N 347.353 -0.0568162 1.57498 0
M  V30 3469 C 348.599 -0.75422 1.88253 0
M  V30 3470 C 348.932 -1.76461 0.810865 0
M  V30 3471 O 348.207 -1.93691 -0.177259 0
M  V30 3472 C 348.49 -1.44878 3.2967 0
M  V30 3473 C 348.343 -0.453789 4.47505 0
M  V30 3474 C 349.662 -2.38994 3.69554 0
M  V30 3475 H 346.781 -0.272724 0.684683 0
M  V30 3476 H 349.423 -0.0172113 1.89992 0
M  V30 3477 H 347.573 -2.077 3.28318 0
M  V30 3478 H 349.245 0.170371 4.60985 0
M  V30 3479 H 347.488 0.229552 4.33192 0
M  V30 3480 H 348.159 -0.977699 5.43273 0
M  V30 3481 H 350.635 -1.86239 3.72095 0
M  V30 3482 H 349.511 -2.84587 4.69363 0
M  V30 3483 H 349.772 -3.24461 3.00296 0
M  V30 3484 N 348.832 -1.54138 -0.328536 0
M  V30 3485 C 350.079 -1.72105 -1.06706 0
M  V30 3486 C 350.407 -0.492111 -1.88171 0
M  V30 3487 O 349.662 0.526153 -1.88494 0
M  V30 3488 C 349.961 -2.9457 -2.02393 0
M  V30 3489 C 349.627 -4.29544 -1.37122 0
M  V30 3490 C 348.289 -4.6624 -1.19052 0
M  V30 3491 C 350.641 -5.1333 -0.902331 0
M  V30 3492 C 347.969 -5.84325 -0.527331 0
M  V30 3493 C 350.321 -6.32094 -0.252988 0
M  V30 3494 C 348.985 -6.67473 -0.0600901 0
M  V30 3495 H 348.255 -0.629775 -0.390466 0
M  V30 3496 H 350.902 -1.88372 -0.34473 0
M  V30 3497 H 349.207 -2.72969 -2.81061 0
M  V30 3498 H 350.904 -3.05665 -2.59557 0
M  V30 3499 H 347.494 -4.0067 -1.52188 0
M  V30 3500 H 351.678 -4.855 -1.02974 0
M  V30 3501 H 346.934 -6.103 -0.366634 0
M  V30 3502 H 351.108 -6.96299 0.118366 0
M  V30 3503 H 348.735 -7.58832 0.455828 0
M  V30 3504 N 350.31 0.590341 -1.46126 0
M  V30 3505 C 351.535 1.37991 -1.54833 0
M  V30 3506 C 351.96 1.87163 -0.187506 0
M  V30 3507 O 351.318 1.61133 0.831008 0
M  V30 3508 C 351.366 2.54867 -2.55098 0
M  V30 3509 O 350.47 3.56061 -2.08073 0
M  V30 3510 H 349.811 0.411265 -0.521303 0
M  V30 3511 H 352.341 0.716819 -1.91632 0
M  V30 3512 H 352.351 3.01886 -2.74461 0
M  V30 3513 H 351.026 2.18429 -3.53923 0
M  V30 3514 H 349.603 3.15574 -1.98664 0
M  V30 3515 N 351.788 1.33704 0.83433 0
M  V30 3516 C 353.036 1.25169 1.58673 0
M  V30 3517 C 353.357 -0.18127 1.94156 0
M  V30 3518 O 352.627 -1.11113 1.6134 0
M  V30 3519 H 351.207 0.4603 0.58833 0
M  V30 3520 H 353.869 1.67478 0.996847 0
M  V30 3521 H 352.965 1.84856 2.51465 0
M  V30 3522 N 353.266 -1.05314 1.17247 0
M  V30 3523 C 354.513 -1.78293 0.960091 0
M  V30 3524 C 354.841 -1.87658 -0.51136 0
M  V30 3525 O 354.096 -1.3718 -1.39571 0
M  V30 3526 C 354.395 -3.2229 1.54479 0
M  V30 3527 C 354.061 -3.32987 3.04024 0
M  V30 3528 C 352.723 -3.35613 3.44844 0
M  V30 3529 C 355.075 -3.34102 4.00031 0
M  V30 3530 C 352.403 -3.36982 4.8027 0
M  V30 3531 C 354.755 -3.3701 5.35357 0
M  V30 3532 C 353.419 -3.37923 5.75642 0
M  V30 3533 H 352.689 -0.652422 0.351322 0
M  V30 3534 H 355.336 -1.23782 1.46117 0
M  V30 3535 H 353.641 -3.7972 0.965391 0
M  V30 3536 H 355.338 -3.77376 1.35603 0
M  V30 3537 H 351.928 -3.31655 2.71483 0
M  V30 3538 H 356.112 -3.31276 3.69554 0
M  V30 3539 H 351.368 -3.35999 5.10798 0
M  V30 3540 H 355.542 -3.36822 6.09528 0
M  V30 3541 H 353.169 -3.38738 6.80559 0
M  V30 3542 N 354.744 -0.972509 -1.24016 0
M  V30 3543 C 355.674 -0.525548 -2.27509 0
M  V30 3544 C 356.655 0.437262 -1.64384 0
M  V30 3545 O 357.84 0.332343 -1.91335 0
M  V30 3546 C 354.97 0.180448 -3.46831 0
M  V30 3547 C 353.924 -0.698859 -4.22256 0
M  V30 3548 C 353.25 0.138903 -5.3452 0
M  V30 3549 C 354.55 -1.98582 -4.83076 0
M  V30 3550 H 356.244 -1.39058 -2.65148 0
M  V30 3551 H 353.79 -0.67009 -1.27459 0
M  V30 3552 H 355.743 0.504387 -4.18371 0
M  V30 3553 H 354.467 1.07987 -3.08231 0
M  V30 3554 H 353.126 -1.00614 -3.52523 0
M  V30 3555 H 352.774 1.03862 -4.9216 0
M  V30 3556 H 352.474 -0.446259 -5.85903 0
M  V30 3557 H 353.998 0.457404 -6.08884 0
M  V30 3558 H 355.412 -1.72715 -5.46665 0
M  V30 3559 H 353.809 -2.5181 -5.44713 0
M  V30 3560 H 354.879 -2.67769 -4.04262 0
M  V30 3561 N 356.222 1.38976 -0.743202 0
M  V30 3562 C 357.152 2.33171 -0.123873 0
M  V30 3563 C 358.133 1.54336 0.71516 0
M  V30 3564 O 359.318 1.82696 0.658467 0
M  V30 3565 C 356.448 3.38474 0.777978 0
M  V30 3566 C 355.402 4.27979 0.0424758 0
M  V30 3567 C 354.728 5.2405 1.06189 0
M  V30 3568 C 356.028 5.10155 -1.1198 0
M  V30 3569 H 357.722 2.85213 -0.910709 0
M  V30 3570 H 355.268 1.37133 -0.439388 0
M  V30 3571 H 357.221 4.03328 1.22084 0
M  V30 3572 H 355.945 2.84891 1.59702 0
M  V30 3573 H 354.604 3.64616 -0.380853 0
M  V30 3574 H 354.252 4.66758 1.87472 0
M  V30 3575 H 353.952 5.84785 0.574485 0
M  V30 3576 H 355.476 5.9178 1.50428 0
M  V30 3577 H 356.89 5.68307 -0.75499 0
M  V30 3578 H 355.287 5.80073 -1.53738 0
M  V30 3579 H 356.357 4.44504 -1.93764 0
M  V30 3580 N 357.7 0.491464 1.49741 0
M  V30 3581 C 358.947 -0.0564256 2.02421 0
M  V30 3582 C 359.275 -1.37872 1.37192 0
M  V30 3583 O 358.53 -1.89375 0.493508 0
M  V30 3584 C 358.829 -0.267329 3.56399 0
M  V30 3585 C 358.495 0.975775 4.40215 0
M  V30 3586 C 357.157 1.31655 4.62839 0
M  V30 3587 C 359.509 1.80251 4.89039 0
M  V30 3588 C 356.837 2.48375 5.31532 0
M  V30 3589 C 359.189 2.96116 5.59015 0
M  V30 3590 C 357.853 3.30585 5.79888 0
M  V30 3591 H 357.123 -0.0206476 0.740712 0
M  V30 3592 H 359.77 0.649686 1.80143 0
M  V30 3593 H 358.075 -1.05588 3.77304 0
M  V30 3594 H 359.772 -0.705549 3.94744 0
M  V30 3595 H 356.362 0.700315 4.2284 0
M  V30 3596 H 360.546 1.55239 4.71396 0
M  V30 3597 H 355.802 2.7533 5.45897 0
M  V30 3598 H 359.976 3.60509 5.95824 0
M  V30 3599 H 357.603 4.21132 6.32892 0
M  V30 3600 N 359.178 -1.55987 0.224894 0
M  V30 3601 C 360.589 -1.84553 -0.282345 0
M  V30 3602 C 360.94 -1.14634 -1.59227 0
M  V30 3603 O 360.065 -0.417155 -2.12341 0
M  V30 3604 C 360.66 -3.348 -0.519062 0
M  V30 3605 C 359.219 -3.63671 -0.970604 0
M  V30 3606 C 358.366 -2.77277 -0.0355261 0
M  V30 3607 H 361.317 -1.52245 0.448006 0
M  V30 3608 H 361.338 -3.55187 -1.36463 0
M  V30 3609 H 360.85 -3.8566 0.43449 0
M  V30 3610 H 358.951 -3.1827 -1.9374 0
M  V30 3611 H 359.064 -4.71631 -0.842698 0
M  V30 3612 H 357.428 -2.48846 -0.542927 0
M  V30 3613 H 358.211 -3.30937 0.913003 0
M  V30 3614 N 360.656 0.0484629 -1.57525 0
M  V30 3615 C 361.933 0.777447 -1.79486 0
M  V30 3616 C 362.313 1.94597 -0.818251 0
M  V30 3617 O 361.661 2.28047 0.143767 0
M  V30 3618 C 361.871 1.22864 -3.26658 0
M  V30 3619 C 363.219 1.65251 -3.91123 0
M  V30 3620 O 364.243 1.32372 -3.3069 0
M  V30 3621 O 363.102 2.26207 -4.97486 0
M  V30 3622 H 360.196 0.374357 -0.737419 0
M  V30 3623 H 362.742 0.0267359 -1.69679 0
M  V30 3624 H 361.514 0.393589 -3.89316 0
M  V30 3625 H 361.137 2.03996 -3.41279 0
M  V30 3626 O 362.173 1.60359 0.191666 0
M  V30 3627 H 362.864 1.75005 0.830227 0
M  V30 END ATOM
M  V30 BEGIN BOND
M  V30 END BOND
M  V30 END CTAB
M  END
$$$$
