drugbank_target|Q8RLY5 Nucleoside 2-deoxyribosyltransferase (DB00173; DB02168; DB02753; DB03371)
 OpenBabel12092120243D

  0  0  0     0  0            999 V3000
M  V30 BEGIN CTAB
M  V30 COUNTS 2589 2622 0 0 0
M  V30 BEGIN ATOM
M  V30 1 H -0.908 1.98254 -0.117106 0
M  V30 2 N 0 1.576 0 0
M  V30 3 C 0.933 2.03868 1.02534 0
M  V30 4 C 1.911 0.928543 1.3348 0
M  V30 5 O 3.095 1.19667 1.45644 0
M  V30 6 C 0.222 2.43627 2.35294 0
M  V30 7 C -0.732 3.65373 2.2001 0
M  V30 8 S 0.101 5.13292 1.52614 0
M  V30 9 C 1.257 5.56322 2.86805 0
M  V30 10 H 1.49 2.90518 0.631377 0
M  V30 11 H -0.977 1.52953 0.210867 0
M  V30 12 H 0.981 2.67203 3.11629 0
M  V30 13 H -0.358 1.57376 2.7183 0
M  V30 14 H -1.165 3.90944 3.18086 0
M  V30 15 H -1.563 3.418 1.51819 0
M  V30 16 H 0.729 5.58782 3.83104 0
M  V30 17 H 1.672 6.56266 2.65933 0
M  V30 18 H 2.08 4.83886 2.90714 0
M  V30 19 N 1.4781 -0.272755 1.55222 0
M  V30 20 C 2.4251 -1.33716 1.88119 0
M  V30 21 C 3.3951 -1.49066 0.73271 0
M  V30 22 O 4.5801 -1.63469 0.984002 0
M  V30 23 C 1.7201 -2.69238 2.15882 0
M  V30 24 C 0.8331 -2.62108 3.43399 0
M  V30 25 C -0.0319 -3.89811 3.60861 0
M  V30 26 C -0.9929 -3.77193 4.8207 0
M  V30 27 N -1.8559 -4.9673 4.96189 0
M  V30 28 H 2.9841 -1.04962 2.78903 0
M  V30 29 H 0.5211 -0.507088 1.38083 0
M  V30 30 H 2.4791 -3.48089 2.29978 0
M  V30 31 H 1.1091 -2.96194 1.28331 0
M  V30 32 H 0.1611 -1.74967 3.37773 0
M  V30 33 H 1.4731 -2.48685 4.32386 0
M  V30 34 H 0.6271 -4.77103 3.74777 0
M  V30 35 H -0.6339 -4.06102 2.7006 0
M  V30 36 H -1.6289 -2.88284 4.68159 0
M  V30 37 H -0.4039 -3.62421 5.74307 0
M  V30 38 H -2.4579 -5.13431 4.08319 0
M  V30 39 H -2.5409 -4.85839 5.79221 0
M  V30 40 H -1.2729 -5.85594 5.1449 0
M  V30 41 N 2.9562 -1.48159 -0.537278 0
M  V30 42 C 3.9192 -1.61665 -1.62472 0
M  V30 43 C 4.9192 -0.490395 -1.5314 0
M  V30 44 O 6.1092 -0.755998 -1.5694 0
M  V30 45 C 3.2412 -1.57997 -3.02076 0
M  V30 46 H 4.4342 -2.58621 -1.51839 0
M  V30 47 H 1.9872 -1.36647 -0.758771 0
M  V30 48 H 2.7222 -0.624913 -3.18222 0
M  V30 49 H 2.5072 -2.39755 -3.10258 0
M  V30 50 H 3.9972 -1.70627 -3.81151 0
M  V30 51 N 4.4343 0.785586 -1.36625 0
M  V30 52 C 5.6803 1.54591 -1.31261 0
M  V30 53 C 6.0133 1.93906 0.106823 0
M  V30 54 O 5.2883 1.63007 1.06108 0
M  V30 55 C 5.5713 2.82038 -2.23889 0
M  V30 56 C 5.4243 2.49066 -3.74548 0
M  V30 57 C 6.7433 3.83887 -2.15217 0
M  V30 58 H 3.8623 0.560846 -0.478143 0
M  V30 59 H 6.5043 0.902278 -1.67209 0
M  V30 60 H 4.6543 3.36961 -1.93363 0
M  V30 61 H 6.3263 2.00164 -4.15611 0
M  V30 62 H 4.5693 1.81954 -3.93796 0
M  V30 63 H 5.2403 3.40109 -4.34776 0
M  V30 64 H 7.7163 3.38421 -2.42096 0
M  V30 65 H 6.5923 4.70806 -2.82193 0
M  V30 66 H 6.8533 4.27131 -1.14068 0
M  V30 67 N 5.9124 1.20967 1.01018 0
M  V30 68 C 7.1584 1.02526 1.74975 0
M  V30 69 C 7.4914 -0.4408 1.89131 0
M  V30 70 O 6.7664 -1.32718 1.42184 0
M  V30 71 C 7.0494 1.71699 3.1653 0
M  V30 72 C 6.9024 3.25791 3.10129 0
M  V30 73 C 8.2214 1.45531 4.15342 0
M  V30 74 H 5.3404 0.373863 0.635134 0
M  V30 75 H 7.9824 1.49071 1.17805 0
M  V30 76 H 6.1324 1.32128 3.65341 0
M  V30 77 H 7.8044 3.74697 2.69072 0
M  V30 78 H 6.0474 3.56363 2.47362 0
M  V30 79 H 6.7184 3.69353 4.10222 0
M  V30 80 H 9.1944 1.79872 3.75213 0
M  V30 81 H 8.0704 1.96453 5.1254 0
M  V30 82 H 8.3314 0.384237 4.40427 0
M  V30 83 N 7.3905 -1.2043 1.01659 0
M  V30 84 C 8.8015 -1.71517 0.737482 0
M  V30 85 C 9.1525 -1.81547 -0.743973 0
M  V30 86 O 8.2775 -1.47803 -1.58061 0
M  V30 87 C 8.8725 -3.11515 1.33206 0
M  V30 88 C 7.4315 -3.59912 1.10183 0
M  V30 89 C 6.5785 -2.37116 1.43776 0
M  V30 90 H 9.5295 -1.05444 1.18606 0
M  V30 91 H 9.5505 -3.73575 0.722636 0
M  V30 92 H 9.0625 -3.04182 2.41028 0
M  V30 93 H 7.1635 -3.72577 0.0412756 0
M  V30 94 H 7.2765 -4.44731 1.78188 0
M  V30 95 H 5.6405 -2.39857 0.856778 0
M  V30 96 H 6.4235 -2.32424 2.52654 0
M  V30 97 N 8.8686 -0.792821 -1.36206 0
M  V30 98 C 10.0966 -0.378825 -2.03402 0
M  V30 99 C 10.5116 1.00586 -1.59774 0
M  V30 100 O 9.8686 1.64574 -0.788764 0
M  V30 101 C 9.9196 -0.43683 -3.58851 0
M  V30 102 O 9.6406 -1.76691 -4.00889 0
M  V30 103 C 11.1416 -0.0138943 -4.43298 0
M  V30 104 H 8.3616 -0.155673 -0.652692 0
M  V30 105 H 10.9056 -1.07261 -1.74113 0
M  V30 106 H 9.0606 0.208575 -3.86838 0
M  V30 107 H 9.4746 -1.72011 -4.95492 0
M  V30 108 H 10.9486 -0.105615 -5.51899 0
M  V30 109 H 11.4256 1.03915 -4.2673 0
M  V30 110 H 12.0316 -0.63192 -4.20579 0
M  V30 111 N 10.3467 1.47872 -0.545128 0
M  V30 112 C 11.5947 2.02093 -0.016553 0
M  V30 113 C 11.9157 1.42305 1.3332 0
M  V30 114 O 11.1857 0.593853 1.86682 0
M  V30 115 H 9.7657 0.746993 -0.00313038 0
M  V30 116 H 12.4277 1.81414 -0.712397 0
M  V30 117 H 11.5237 3.11996 0.0805422 0
M  V30 118 N 11.8248 0.280983 1.55075 0
M  V30 119 C 12.7718 -0.603937 2.22758 0
M  V30 120 C 13.7418 -1.1452 1.20309 0
M  V30 121 O 14.9268 -1.19343 1.48869 0
M  V30 122 C 12.0668 -1.77947 2.95684 0
M  V30 123 C 11.1798 -1.2715 4.12864 0
M  V30 124 C 10.3148 -2.4093 4.7342 0
M  V30 125 C 9.3538 -1.87165 5.82783 0
M  V30 126 N 8.4908 -2.94441 6.37377 0
M  V30 127 H 13.3308 -0.020124 2.97993 0
M  V30 128 H 10.8678 0.00183425 1.471 0
M  V30 129 H 12.8258 -2.47055 3.36184 0
M  V30 130 H 11.4558 -2.33522 2.22861 0
M  V30 131 H 10.5078 -0.473331 3.77444 0
M  V30 132 H 11.8198 -0.837751 4.91715 0
M  V30 133 H 10.9738 -3.18021 5.1667 0
M  V30 134 H 9.7128 -2.87623 3.93859 0
M  V30 135 H 8.7178 -1.08556 5.38976 0
M  V30 136 H 9.9428 -1.41401 6.64216 0
M  V30 137 H 7.8888 -3.40505 5.60707 0
M  V30 138 H 7.8058 -2.55501 7.11516 0
M  V30 139 H 9.0738 -3.71489 6.85285 0
M  V30 140 N 13.3029 -1.57598 0.00835791 0
M  V30 141 C 14.5519 -1.90107 -0.673968 0
M  V30 142 C 14.8649 -0.884275 -1.7447 0
M  V30 143 O 16.0709 -1.09987 -2.48224 0
M  V30 144 C 14.5269 -3.37497 -1.24995 0
M  V30 145 C 14.1349 -4.47491 -0.2136 0
M  V30 146 C 15.8789 -3.79104 -1.90999 0
M  V30 147 C 13.7859 -5.85963 -0.80005 0
M  V30 148 H 12.7159 -0.709393 -0.255495 0
M  V30 149 H 15.3669 -1.83365 0.0702693 0
M  V30 150 H 13.7489 -3.39102 -2.04513 0
M  V30 151 H 14.9229 -4.57414 0.557596 0
M  V30 152 H 13.2379 -4.14956 0.346474 0
M  V30 153 H 15.8349 -4.79901 -2.35795 0
M  V30 154 H 16.1779 -3.1306 -2.74407 0
M  V30 155 H 16.7109 -3.79833 -1.18203 0
M  V30 156 H 13.4499 -6.555 -0.00456708 0
M  V30 157 H 12.9699 -5.79687 -1.54021 0
M  V30 158 H 14.6489 -6.33884 -1.29615 0
M  V30 159 N 14.781 0.264519 -1.55364 0
M  V30 160 C 16.011 1.01153 -1.80143 0
M  V30 161 C 16.419 1.80115 -0.579253 0
M  V30 162 O 15.762 1.77813 0.46132 0
M  V30 163 C 15.824 2.01098 -2.97993 0
M  V30 164 C 15.488 1.40995 -4.34706 0
M  V30 165 C 16.485 0.821316 -5.13372 0
M  V30 166 C 14.17 1.43461 -4.81378 0
M  V30 167 C 16.164 0.265339 -6.36847 0
M  V30 168 C 13.851 0.874771 -6.04807 0
M  V30 169 C 14.849 0.291146 -6.82379 0
M  V30 170 O 14.537 -0.260093 -8.03479 0
M  V30 171 H 14.269 0.304125 -0.603725 0
M  V30 172 H 16.823 0.298089 -2.03225 0
M  V30 173 H 15.053 2.76224 -2.70623 0
M  V30 174 H 16.742 2.61997 -3.1002 0
M  V30 175 H 17.508 0.794903 -4.78442 0
M  V30 176 H 13.387 1.87826 -4.21002 0
M  V30 177 H 16.931 -0.190837 -6.97339 0
M  V30 178 H 12.828 0.898452 -6.39217 0
M  V30 179 H 13.596 -0.150265 -8.18362 0
M  V30 180 N 16.2591 1.48442 0.529413 0
M  V30 181 C 17.1891 1.65902 1.64313 0
M  V30 182 C 18.1701 0.507897 1.6234 0
M  V30 183 O 19.3551 0.740503 1.79528 0
M  V30 184 C 16.4851 1.69911 3.02898 0
M  V30 185 C 15.4391 2.8453 3.19729 0
M  V30 186 C 14.7651 2.73629 4.59381 0
M  V30 187 C 16.0651 4.25821 3.02447 0
M  V30 188 H 17.7591 2.5914 1.49955 0
M  V30 189 H 15.3051 1.24709 0.719982 0
M  V30 190 H 17.2581 1.80715 3.80684 0
M  V30 191 H 15.9821 0.732524 3.18279 0
M  V30 192 H 14.6411 2.73283 2.44361 0
M  V30 193 H 14.2891 1.74938 4.71599 0
M  V30 194 H 13.9891 3.50541 4.71588 0
M  V30 195 H 15.5131 2.86401 5.39265 0
M  V30 196 H 16.9271 4.37898 3.70024 0
M  V30 197 H 15.3241 5.03735 3.26146 0
M  V30 198 H 16.3941 4.42244 1.98867 0
M  V30 199 N 17.7372 -0.778329 1.37039 0
M  V30 200 C 18.9852 -1.53361 1.31623 0
M  V30 201 C 19.3062 -1.94739 -0.100831 0
M  V30 202 O 18.5762 -1.65797 -1.04347 0
M  V30 203 H 17.1562 -0.568794 0.484234 0
M  V30 204 H 19.8182 -0.926742 1.71457 0
M  V30 205 H 18.9142 -2.43606 1.95096 0
M  V30 206 N 19.2153 -1.21501 -1.00376 0
M  V30 207 C 20.4403 -1.05977 -1.78279 0
M  V30 208 C 20.8653 0.385994 -1.84097 0
M  V30 209 O 20.2233 1.27849 -1.28547 0
M  V30 210 C 20.2713 -1.66302 -3.19963 0
M  V30 211 O 19.3753 -0.909333 -4.0225 0
M  V30 212 H 18.7163 -0.372906 -0.549397 0
M  V30 213 H 21.2463 -1.6107 -1.26165 0
M  V30 214 H 21.2563 -1.70574 -3.70632 0
M  V30 215 H 19.9313 -2.71515 -3.15043 0
M  V30 216 H 18.5083 -0.941795 -3.60811 0
M  V30 217 N 20.6934 1.19889 -1.02296 0
M  V30 218 C 22.1044 1.71124 -0.746568 0
M  V30 219 C 22.4554 1.81939 0.734335 0
M  V30 220 O 21.5804 1.48639 1.57275 0
M  V30 221 C 22.1754 3.10804 -1.34857 0
M  V30 222 C 20.7344 3.59323 -1.1209 0
M  V30 223 C 19.8814 2.3635 -1.45031 0
M  V30 224 H 22.8324 1.04813 -1.19163 0
M  V30 225 H 22.8534 3.73186 -0.742437 0
M  V30 226 H 22.3654 3.029 -2.42638 0
M  V30 227 H 20.4664 3.7255 -0.0610337 0
M  V30 228 H 20.5794 4.4378 -1.80544 0
M  V30 229 H 18.9434 2.39399 -0.869487 0
M  V30 230 H 19.7264 2.31081 -2.53883 0
M  V30 231 N 22.1715 0.800033 1.35784 0
M  V30 232 C 23.4185 0.377342 1.98953 0
M  V30 233 C 23.7465 -1.05378 1.6348 0
M  V30 234 O 23.0015 -1.74459 0.886707 0
M  V30 235 C 23.3005 0.500276 3.53881 0
M  V30 236 C 22.9665 1.89375 4.09204 0
M  V30 237 C 21.6285 2.27499 4.24025 0
M  V30 238 C 23.9805 2.8057 4.39238 0
M  V30 239 C 21.3085 3.562 4.66195 0
M  V30 240 C 23.6605 4.0871 4.82844 0
M  V30 241 C 22.3245 4.46843 4.95871 0
M  V30 242 H 21.5945 0.138079 0.728021 0
M  V30 243 H 24.2415 1.01955 1.62103 0
M  V30 244 H 22.5465 -0.225405 3.91151 0
M  V30 245 H 24.2435 0.154097 4.00704 0
M  V30 246 H 20.8335 1.58753 3.98115 0
M  V30 247 H 25.0175 2.52367 4.27346 0
M  V30 248 H 20.2735 3.85602 4.74469 0
M  V30 249 H 24.4475 4.79481 5.05046 0
M  V30 250 H 22.0745 5.46623 5.28306 0
M  V30 251 N 23.6496 -1.47581 0.552962 0
M  V30 252 C 24.8796 -2.06575 0.0320091 0
M  V30 253 C 25.2876 -1.4067 -1.26525 0
M  V30 254 O 24.6306 -0.495808 -1.76883 0
M  V30 255 C 24.6926 -3.58705 -0.238913 0
M  V30 256 C 24.3566 -4.46625 0.968272 0
M  V30 257 C 25.3536 -4.85 1.87274 0
M  V30 258 C 23.0386 -4.88201 1.18175 0
M  V30 259 C 25.0326 -5.63745 2.9744 0
M  V30 260 C 22.7196 -5.66712 2.28651 0
M  V30 261 C 23.7176 -6.04394 3.18114 0
M  V30 262 O 23.4056 -6.81324 4.26676 0
M  V30 263 H 23.1376 -0.674763 0.0408689 0
M  V30 264 H 25.6916 -1.90634 0.764719 0
M  V30 265 H 23.9216 -3.72844 -1.02588 0
M  V30 266 H 25.6106 -3.99735 -0.704731 0
M  V30 267 H 26.3766 -4.53482 1.71984 0
M  V30 268 H 22.2556 -4.58339 0.494593 0
M  V30 269 H 25.7996 -5.93077 3.67296 0
M  V30 270 H 21.6966 -5.97642 2.43915 0
M  V30 271 H 22.4646 -6.99712 4.24671 0
M  V30 272 N 25.1277 -0.289203 -1.54924 0
M  V30 273 C 26.3527 0.329299 -2.04769 0
M  V30 274 C 26.7777 1.4763 -1.16564 0
M  V30 275 O 26.1357 1.80527 -0.167186 0
M  V30 276 C 26.1837 0.774438 -3.52186 0
M  V30 277 O 25.2877 1.88038 -3.67036 0
M  V30 278 H 24.6287 0.0659259 -0.660719 0
M  V30 279 H 27.1587 -0.42761 -2.00082 0
M  V30 280 H 27.1687 1.06642 -3.93816 0
M  V30 281 H 25.8437 -0.0646707 -4.1585 0
M  V30 282 H 24.4207 1.58985 -3.3731 0
M  V30 283 N 26.6058 1.57591 -0.0167156 0
M  V30 284 C 27.8828 1.82547 0.702564 0
M  V30 285 C 28.2628 0.898018 1.91047 0
M  V30 286 O 27.6108 -0.0493456 2.28447 0
M  V30 287 C 27.8208 3.31459 1.09251 0
M  V30 288 C 29.1688 3.97622 1.48937 0
M  V30 289 O 30.1928 3.35881 1.18584 0
M  V30 290 O 29.0518 5.06415 2.05442 0
M  V30 291 H 26.1458 0.752268 0.343544 0
M  V30 292 H 28.6918 1.69644 -0.0434495 0
M  V30 293 H 27.4638 3.9061 0.23227 0
M  V30 294 H 27.0868 3.49422 1.89709 0
M  V30 295 N 28.0839 -0.256276 1.55502 0
M  V30 296 C 29.0469 -1.30047 1.88734 0
M  V30 297 C 30.0469 -1.4154 0.763086 0
M  V30 298 O 31.2369 -1.40403 1.03115 0
M  V30 299 C 28.3689 -2.67953 2.10747 0
M  V30 300 H 29.5619 -1.01802 2.82093 0
M  V30 301 H 27.1149 -0.495134 1.4825 0
M  V30 302 H 27.8499 -3.01351 1.19825 0
M  V30 303 H 27.6349 -2.60993 2.92617 0
M  V30 304 H 29.1249 -3.43368 2.37673 0
M  V30 305 N 29.562 -1.4872 -0.521534 0
M  V30 306 C 30.494 -1.59968 -1.64143 0
M  V30 307 C 31.507 -0.483463 -1.55456 0
M  V30 308 O 32.696 -0.75467 -1.61762 0
M  V30 309 C 29.796 -1.52127 -3.02838 0
M  V30 310 C 28.969 -2.78932 -3.36921 0
M  V30 311 C 28.028 -2.64428 -4.54933 0
M  V30 312 O 27.054 -3.38331 -4.57735 0
M  V30 313 N 28.256 -1.74606 -5.53618 0
M  V30 314 H 31.021 -2.56548 -1.54929 0
M  V30 315 H 28.582 -1.45551 -0.708988 0
M  V30 316 H 30.574 -1.40106 -3.79674 0
M  V30 317 H 29.144 -0.634868 -3.06085 0
M  V30 318 H 28.364 -3.05455 -2.4918 0
M  V30 319 H 29.652 -3.63041 -3.56481 0
M  V30 320 H 29.05 -1.13782 -5.54139 0
M  V30 321 H 27.607 -1.6852 -6.29638 0
M  V30 322 N 31.0401 0.771051 -1.3745 0
M  V30 323 C 32.4561 1.07171 -1.18265 0
M  V30 324 C 32.6561 2.01491 -0.019287 0
M  V30 325 O 31.7121 2.44244 0.640408 0
M  V30 326 C 33.0251 1.66854 -2.50161 0
M  V30 327 C 34.5731 1.79109 -2.56689 0
M  V30 328 C 35.0481 2.42205 -3.88717 0
M  V30 329 N 36.5391 2.49655 -3.90162 0
M  V30 330 C 37.2741 2.9933 -4.8907 0
M  V30 331 N 36.7701 3.49172 -5.98374 0
M  V30 332 N 38.5631 2.9821 -4.76474 0
M  V30 333 H 30.7141 0.144796 -2.11906 0
M  V30 334 H 32.9771 0.126863 -0.939473 0
M  V30 335 H 32.6831 1.05017 -3.35655 0
M  V30 336 H 32.5571 2.6614 -2.673 0
M  V30 337 H 34.9441 2.40077 -1.71601 0
M  V30 338 H 35.0251 0.785757 -2.43433 0
M  V30 339 H 34.6691 1.81875 -4.74219 0
M  V30 340 H 34.5991 3.43345 -3.99276 0
M  V30 341 H 37.0901 2.14383 -3.11205 0
M  V30 342 H 37.4031 3.8548 -6.69795 0
M  V30 343 H 35.7481 3.47275 -6.02018 0
M  V30 344 H 38.9391 2.58572 -3.90203 0
M  V30 345 H 39.1121 3.36613 -5.53711 0
M  V30 346 N 32.5182 1.22032 0.997298 0
M  V30 347 C 33.4282 1.00271 2.12092 0
M  V30 348 C 34.4442 -0.047621 1.73935 0
M  V30 349 O 35.6202 0.144136 2.00884 0
M  V30 350 C 32.6852 0.578449 3.4184 0
M  V30 351 C 31.7462 1.70189 3.94125 0
M  V30 352 C 30.9792 1.29778 5.17681 0
M  V30 353 O 31.2022 0.174676 5.70132 0
M  V30 354 O 30.1362 2.11261 5.63607 0
M  V30 355 H 33.9622 1.94398 2.3333 0
M  V30 356 H 31.5472 1.00587 1.10465 0
M  V30 357 H 33.4292 0.351998 4.19927 0
M  V30 358 H 32.1042 -0.334019 3.21972 0
M  V30 359 H 31.0112 1.98282 3.1723 0
M  V30 360 H 32.3442 2.59206 4.18417 0
M  V30 361 N 33.9963 -1.19345 1.0293 0
M  V30 362 C 35.4123 -1.41069 0.746446 0
M  V30 363 C 35.6123 -1.90078 -0.668776 0
M  V30 364 O 34.6683 -2.0778 -1.4347 0
M  V30 365 C 35.9813 -2.42141 1.78292 0
M  V30 366 C 37.5293 -2.55887 1.80252 0
M  V30 367 C 38.0043 -3.60214 2.8286 0
M  V30 368 N 39.4953 -3.67711 2.81679 0
M  V30 369 C 40.2303 -4.48128 3.57727 0
M  V30 370 N 39.7263 -5.32248 4.43491 0
M  V30 371 N 41.5193 -4.42782 3.46267 0
M  V30 372 H 33.6703 -0.858536 1.94275 0
M  V30 373 H 35.9333 -0.439541 0.839945 0
M  V30 374 H 35.6393 -2.13155 2.79746 0
M  V30 375 H 35.5133 -3.41323 1.60557 0
M  V30 376 H 37.9003 -2.84196 0.794757 0
M  V30 377 H 37.9813 -1.56858 2.02062 0
M  V30 378 H 37.6253 -3.32647 3.83807 0
M  V30 379 H 37.5553 -4.58895 2.58307 0
M  V30 380 H 40.0463 -3.07634 2.19476 0
M  V30 381 H 40.3593 -5.90729 4.98256 0
M  V30 382 H 38.7043 -5.31707 4.47564 0
M  V30 383 H 41.8953 -3.76107 2.78677 0
M  V30 384 H 42.0683 -5.05215 4.05785 0
M  V30 385 N 35.4744 -0.807222 -1.35358 0
M  V30 386 C 36.4374 -0.223665 -2.28106 0
M  V30 387 C 37.4374 0.589354 -1.4961 0
M  V30 388 O 38.6274 0.407745 -1.69361 0
M  V30 389 C 35.7594 0.688149 -3.33882 0
M  V30 390 H 36.9524 -1.04169 -2.81227 0
M  V30 391 H 34.5054 -0.577921 -1.45223 0
M  V30 392 H 35.2404 1.52984 -2.85948 0
M  V30 393 H 35.0254 0.10687 -3.91954 0
M  V30 394 H 36.5154 1.09075 -4.03104 0
M  V30 395 N 36.9525 1.47285 -0.560781 0
M  V30 396 C 37.9155 2.28535 0.174488 0
M  V30 397 C 38.9155 1.37153 0.839388 0
M  V30 398 O 40.1055 1.59748 0.694702 0
M  V30 399 C 37.2375 3.16934 1.25561 0
M  V30 400 H 38.4305 2.95012 -0.539262 0
M  V30 401 H 35.9835 1.53034 -0.317865 0
M  V30 402 H 36.7185 2.55157 2.00164 0
M  V30 403 H 36.5035 3.8419 0.783604 0
M  V30 404 H 37.9935 3.78143 1.77193 0
M  V30 405 N 38.4306 0.297415 1.54768 0
M  V30 406 C 39.3776 -0.580276 2.23386 0
M  V30 407 C 40.3476 -1.13238 1.21517 0
M  V30 408 O 41.5326 -1.17757 1.50126 0
M  V30 409 C 38.6726 -1.74801 2.97555 0
M  V30 410 C 37.7856 -1.22764 4.1419 0
M  V30 411 C 36.9206 -2.35895 4.75949 0
M  V30 412 C 35.9596 -1.80974 5.84735 0
M  V30 413 N 35.0966 -2.87664 6.40464 0
M  V30 414 H 39.9366 0.0114833 2.97998 0
M  V30 415 H 37.4736 0.0174361 1.4709 0
M  V30 416 H 39.4316 -2.43475 3.38786 0
M  V30 417 H 38.0616 -2.31145 2.25326 0
M  V30 418 H 37.1136 -0.433271 3.77924 0
M  V30 419 H 38.4256 -0.785551 4.92575 0
M  V30 420 H 37.5796 -3.12523 5.20014 0
M  V30 421 H 36.3186 -2.83429 3.96887 0
M  V30 422 H 35.3236 -1.02834 5.40097 0
M  V30 423 H 36.5486 -1.34348 6.65678 0
M  V30 424 H 34.4946 -3.34538 5.64287 0
M  V30 425 H 34.4116 -2.4794 7.14186 0
M  V30 426 H 35.6796 -3.642 6.89187 0
M  V30 427 N 39.9087 -1.5758 0.0250728 0
M  V30 428 C 40.8717 -2.08896 -0.943139 0
M  V30 429 C 41.8717 -1.00321 -1.25668 0
M  V30 430 O 43.0617 -1.26495 -1.19769 0
M  V30 431 C 40.1937 -2.55143 -2.26086 0
M  V30 432 H 41.3867 -2.95723 -0.498775 0
M  V30 433 H 38.9397 -1.54703 -0.222888 0
M  V30 434 H 39.6747 -1.71633 -2.75159 0
M  V30 435 H 39.4597 -3.34461 -2.04641 0
M  V30 436 H 40.9497 -2.95083 -2.95492 0
M  V30 437 N 41.3868 0.248026 -1.55636 0
M  V30 438 C 42.3338 1.30707 -1.90222 0
M  V30 439 C 43.3038 1.47881 -0.756332 0
M  V30 440 O 44.4888 1.61883 -1.00988 0
M  V30 441 C 41.6288 2.65769 -2.20138 0
M  V30 442 C 40.7418 2.56612 -3.47526 0
M  V30 443 C 39.8768 3.8402 -3.67017 0
M  V30 444 C 38.9158 3.69476 -4.8801 0
M  V30 445 N 38.0528 4.88774 -5.04029 0
M  V30 446 H 42.8928 1.00512 -2.80538 0
M  V30 447 H 40.4298 0.485055 -1.38873 0
M  V30 448 H 42.3878 3.44386 -2.35487 0
M  V30 449 H 41.0178 2.94115 -1.33027 0
M  V30 450 H 40.0698 1.69571 -3.40514 0
M  V30 451 H 41.3818 2.41774 -4.36287 0
M  V30 452 H 40.5358 4.7108 -3.8232 0
M  V30 453 H 39.2748 4.01754 -2.76487 0
M  V30 454 H 38.2798 2.80799 -4.72686 0
M  V30 455 H 39.5048 3.53238 -5.8 0
M  V30 456 H 37.4508 5.0687 -4.16435 0
M  V30 457 H 37.3678 4.76562 -5.86877 0
M  V30 458 H 38.6358 5.77335 -5.23741 0
M  V30 459 N 42.8649 1.48995 0.513639 0
M  V30 460 C 43.7749 1.67443 1.64317 0
M  V30 461 C 44.7909 0.556947 1.64846 0
M  V30 462 O 45.9669 0.830082 1.83498 0
M  V30 463 C 43.0319 1.72515 3.00732 0
M  V30 464 C 42.0929 2.96009 3.1093 0
M  V30 465 C 41.3259 3.00829 4.40837 0
M  V30 466 O 41.5489 2.13594 5.28898 0
M  V30 467 O 40.4829 3.93168 4.55744 0
M  V30 468 H 44.3089 2.63106 1.51687 0
M  V30 469 H 41.8939 1.32588 0.688543 0
M  V30 470 H 43.7759 1.78277 3.81831 0
M  V30 471 H 42.4509 0.800278 3.13651 0
M  V30 472 H 41.3579 2.9577 2.29065 0
M  V30 473 H 42.6909 3.87934 3.02933 0
M  V30 474 N 44.343 -0.763751 1.37857 0
M  V30 475 C 45.273 -1.89103 1.36975 0
M  V30 476 C 46.254 -1.68439 0.237152 0
M  V30 477 O 47.439 -1.8918 0.438713 0
M  V30 478 C 44.569 -3.26496 1.18395 0
M  V30 479 C 43.523 -3.61741 2.28751 0
M  V30 480 C 42.849 -4.97762 1.95286 0
M  V30 481 C 44.149 -3.67665 3.70972 0
M  V30 482 H 45.843 -1.90099 2.31307 0
M  V30 483 H 43.389 -0.91319 1.11341 0
M  V30 484 H 45.342 -4.05003 1.16406 0
M  V30 485 H 44.066 -3.25955 0.205215 0
M  V30 486 H 42.725 -2.85547 2.29909 0
M  V30 487 H 42.373 -4.93769 0.959221 0
M  V30 488 H 42.073 -5.22313 2.69189 0
M  V30 489 H 43.597 -5.7866 1.94898 0
M  V30 490 H 45.011 -4.36307 3.719 0
M  V30 491 H 43.408 -4.03718 4.43995 0
M  V30 492 H 44.478 -2.68134 4.0402 0
M  V30 493 N 45.8211 -1.22559 -0.990812 0
M  V30 494 C 46.7511 -1.0218 -2.09956 0
M  V30 495 C 47.7321 0.0579394 -1.70001 0
M  V30 496 O 48.9171 -0.104684 -1.93918 0
M  V30 497 C 46.0471 -0.601023 -3.4206 0
M  V30 498 C 45.0011 -1.62694 -3.95872 0
M  V30 499 C 44.3271 -1.06193 -5.24049 0
M  V30 500 C 45.6271 -3.01743 -4.2632 0
M  V30 501 H 47.3211 -1.94916 -2.27262 0
M  V30 502 H 44.8671 -0.938566 -1.09211 0
M  V30 503 H 46.8201 -0.445561 -4.19038 0
M  V30 504 H 45.5441 0.362005 -3.24588 0
M  V30 505 H 44.2031 -1.77021 -3.21028 0
M  V30 506 H 43.8511 -0.0901903 -5.02919 0
M  V30 507 H 43.5511 -1.74732 -5.61019 0
M  V30 508 H 45.0751 -0.918092 -6.03658 0
M  V30 509 H 46.4891 -2.90777 -4.94087 0
M  V30 510 H 44.8861 -3.67425 -4.74467 0
M  V30 511 H 45.9561 -3.51518 -3.34011 0
M  V30 512 N 47.2992 1.18797 -1.03562 0
M  V30 513 C 48.2622 2.20464 -0.626769 0
M  V30 514 C 49.2622 1.57721 0.313173 0
M  V30 515 O 50.4522 1.73917 0.0992615 0
M  V30 516 C 47.5842 3.40802 0.0818498 0
M  V30 517 H 48.7772 2.58149 -1.5264 0
M  V30 518 H 46.3302 1.32593 -0.827578 0
M  V30 519 H 47.0652 3.08642 0.995518 0
M  V30 520 H 46.8502 3.8758 -0.593652 0
M  V30 521 H 48.3402 4.16092 0.354584 0
M  V30 522 N 48.7773 0.814389 1.34928 0
M  V30 523 C 49.7243 0.22822 2.29669 0
M  V30 524 C 50.6943 -0.642164 1.53184 0
M  V30 525 O 51.8793 -0.585605 1.81591 0
M  V30 526 C 49.0193 -0.61089 3.3965 0
M  V30 527 C 48.1323 0.280792 4.31086 0
M  V30 528 C 47.2673 -0.567067 5.28165 0
M  V30 529 C 46.3063 0.324531 6.11239 0
M  V30 530 N 45.4433 -0.483756 7.00431 0
M  V30 531 H 50.2833 1.04153 2.79206 0
M  V30 532 H 47.8203 0.525133 1.37407 0
M  V30 533 H 49.7783 -1.11263 4.0209 0
M  V30 534 H 48.4083 -1.38939 2.91369 0
M  V30 535 H 47.4603 0.900688 3.69583 0
M  V30 536 H 48.7723 0.966723 4.89342 0
M  V30 537 H 47.9263 -1.13363 5.96015 0
M  V30 538 H 46.6653 -1.28654 4.70425 0
M  V30 539 H 45.6703 0.903298 5.42329 0
M  V30 540 H 46.8953 1.04198 6.71059 0
M  V30 541 H 44.8413 -1.18706 6.45171 0
M  V30 542 H 44.7583 0.143965 7.55863 0
M  V30 543 H 46.0263 -1.03334 7.7262 0
M  V30 544 N 50.2554 -1.46986 0.568584 0
M  V30 545 C 51.2034 -2.31858 -0.185649 0
M  V30 546 C 52.1974 -1.43624 -0.898249 0
M  V30 547 O 53.4034 -1.60327 -0.818242 0
M  V30 548 H 49.7784 -0.747866 -0.0787399 0
M  V30 549 H 51.7494 -2.93303 0.549191 0
M  V30 550 C 50.4984 -3.26513 -1.19519 0
M  V30 551 H 49.8214 -3.94377 -0.656285 0
M  V30 552 H 51.2614 -3.88707 -1.6936 0
M  V30 553 C 49.7204 -2.50847 -2.24894 0
M  V30 554 O 50.2504 -2.26119 -3.32014 0
M  V30 555 N 48.4564 -2.11656 -1.99124 0
M  V30 556 H 48.0034 -2.31966 -1.12024 0
M  V30 557 H 47.9614 -1.61347 -2.69842 0
M  V30 558 N 51.7335 -0.305618 -1.54608 0
M  V30 559 C 53.1445 0.186098 -1.8577 0
M  V30 560 C 53.4955 1.53058 -1.22751 0
M  V30 561 O 52.6205 2.09888 -0.526893 0
M  V30 562 C 53.2155 0.344449 -3.37044 0
M  V30 563 C 51.7745 0.780384 -3.68221 0
M  V30 564 C 50.9215 -0.108554 -2.77087 0
M  V30 565 H 53.8725 -0.526485 -1.49712 0
M  V30 566 H 53.8935 1.17828 -3.61796 0
M  V30 567 H 53.4055 -0.634235 -3.82883 0
M  V30 568 H 51.5065 1.76945 -3.27904 0
M  V30 569 H 51.6195 0.596572 -4.75371 0
M  V30 570 H 49.9835 0.412931 -2.5133 0
M  V30 571 H 50.7665 -1.08368 -3.25747 0
M  V30 572 N 53.2116 1.57565 -0.0334293 0
M  V30 573 C 54.4366 1.96689 0.657895 0
M  V30 574 C 54.8616 0.910057 1.64619 0
M  V30 575 O 54.2196 -0.128598 1.80843 0
M  V30 576 C 54.2676 3.34905 1.33683 0
M  V30 577 O 53.3716 3.31574 2.45219 0
M  V30 578 H 52.7126 0.641205 0.172489 0
M  V30 579 H 55.2426 2.04372 -0.0965621 0
M  V30 580 H 55.2526 3.71234 1.69262 0
M  V30 581 H 53.9276 4.11366 0.612411 0
M  V30 582 H 52.5046 3.06968 2.11719 0
M  V30 583 N 54.6897 -0.239769 1.55765 0
M  V30 584 C 55.9387 -0.964754 1.77131 0
M  V30 585 C 56.2517 -1.86213 0.59868 0
M  V30 586 O 57.4577 -2.6244 0.695522 0
M  V30 587 C 55.9137 -1.76552 3.1362 0
M  V30 588 C 55.5217 -0.915185 4.38553 0
M  V30 589 C 57.2657 -2.48281 3.44321 0
M  V30 590 C 55.1727 -1.71225 5.66071 0
M  V30 591 H 54.1027 -0.363953 0.660344 0
M  V30 592 H 56.7537 -0.219181 1.82186 0
M  V30 593 H 55.1357 -2.55331 3.02691 0
M  V30 594 H 56.3097 -0.169217 4.60489 0
M  V30 595 H 54.6247 -0.310889 4.15238 0
M  V30 596 H 57.2217 -3.08382 4.36812 0
M  V30 597 H 57.5647 -3.20256 2.65973 0
M  V30 598 H 58.0977 -1.76507 3.56497 0
M  V30 599 H 54.8367 -1.03612 6.4726 0
M  V30 600 H 54.3567 -2.43331 5.48224 0
M  V30 601 H 56.0357 -2.27758 6.05587 0
M  V30 602 N 56.1678 -1.49265 -0.50573 0
M  V30 603 C 57.1308 -1.65075 -1.59006 0
M  V30 604 C 58.1308 -0.522768 -1.52065 0
M  V30 605 O 59.3208 -0.789117 -1.55302 0
M  V30 606 C 56.4528 -1.64369 -2.98656 0
M  V30 607 H 57.6458 -2.61784 -1.46319 0
M  V30 608 H 55.1988 -1.38226 -0.729616 0
M  V30 609 H 55.9338 -0.692272 -3.16825 0
M  V30 610 H 55.7188 -2.46282 -3.05103 0
M  V30 611 H 57.2088 -1.78674 -3.77446 0
M  V30 612 N 57.6459 0.756429 -1.3826 0
M  V30 613 C 58.5959 1.86069 -1.31766 0
M  V30 614 C 59.5799 1.59621 -0.202483 0
M  V30 615 O 60.7719 1.7149 -0.438211 0
M  V30 616 C 57.9009 3.23742 -1.1422 0
M  V30 617 C 56.9869 3.56091 -2.30348 0
M  V30 618 N 57.3779 3.59517 -3.55783 0
M  V30 619 C 55.6759 3.86341 -2.22838 0
M  V30 620 C 56.3769 3.89052 -4.32451 0
M  V30 621 N 55.3529 4.05736 -3.61772 0
M  V30 622 H 59.1549 1.86992 -2.26741 0
M  V30 623 H 56.6689 0.953643 -1.31451 0
M  V30 624 H 58.6659 4.02761 -1.07652 0
M  V30 625 H 57.3259 3.24073 -0.201763 0
M  V30 626 H 58.3369 3.41347 -3.89491 0
M  V30 627 H 55.0139 3.94404 -1.36937 0
M  V30 628 H 56.4039 3.98349 -5.4108 0
M  V30 629 N 59.124 1.23083 0.984299 0
M  V30 630 C 60.37 1.06214 1.72761 0
M  V30 631 C 60.703 -0.400584 1.90024 0
M  V30 632 O 59.978 -1.29672 1.44967 0
M  V30 633 C 60.261 1.78375 3.12817 0
M  V30 634 C 60.114 3.32296 3.03149 0
M  V30 635 C 61.433 1.54309 4.12161 0
M  V30 636 H 58.552 0.387251 0.627061 0
M  V30 637 H 61.194 1.51536 1.14616 0
M  V30 638 H 59.344 1.39848 3.62457 0
M  V30 639 H 61.016 3.8032 2.61064 0
M  V30 640 H 59.259 3.6153 2.39747 0
M  V30 641 H 59.93 3.77972 4.02295 0
M  V30 642 H 62.406 1.87791 3.71314 0
M  V30 643 H 61.282 2.07281 5.08258 0
M  V30 644 H 61.543 0.477572 4.39513 0
M  V30 645 N 60.6021 -1.18246 1.0419 0
M  V30 646 C 61.8491 -1.88257 0.746017 0
M  V30 647 C 62.1771 -1.80429 -0.726331 0
M  V30 648 O 61.4321 -1.2 -1.54591 0
M  V30 649 C 61.7311 -3.38082 1.15911 0
M  V30 650 C 61.3971 -3.66114 2.63195 0
M  V30 651 C 60.0591 -3.73474 3.03432 0
M  V30 652 C 62.4111 -3.78398 3.5842 0
M  V30 653 C 59.7391 -3.90599 4.37778 0
M  V30 654 C 62.0911 -3.97039 4.92487 0
M  V30 655 C 60.7551 -4.02635 5.32392 0
M  V30 656 H 60.0251 -0.688883 0.272987 0
M  V30 657 H 62.6721 -1.3995 1.30715 0
M  V30 658 H 60.9771 -3.88377 0.516806 0
M  V30 659 H 62.6741 -3.90596 0.907516 0
M  V30 660 H 59.2641 -3.61003 2.3103 0
M  V30 661 H 63.4481 -3.72042 3.28479 0
M  V30 662 H 58.7041 -3.93175 4.68213 0
M  V30 663 H 62.8781 -4.05486 5.66175 0
M  V30 664 H 60.5051 -4.15657 6.36501 0
M  V30 665 N 62.0802 -0.821533 -1.34494 0
M  V30 666 C 63.3272 -0.408946 -1.98328 0
M  V30 667 C 63.6552 1.02764 -1.65136 0
M  V30 668 O 62.9102 1.73026 -0.914349 0
M  V30 669 C 63.2092 -0.556512 -3.53041 0
M  V30 670 C 62.8752 -1.95861 -4.0614 0
M  V30 671 C 61.5372 -2.34217 -4.20352 0
M  V30 672 C 63.8892 -2.87523 -4.34718 0
M  V30 673 C 61.2172 -3.63572 -4.6047 0
M  V30 674 C 63.5692 -4.1634 -4.76281 0
M  V30 675 C 62.2332 -4.54675 -4.88699 0
M  V30 676 H 61.5032 -0.149644 -0.725732 0
M  V30 677 H 64.1502 -1.04521 -1.6046 0
M  V30 678 H 62.4552 0.163148 -3.9146 0
M  V30 679 H 64.1522 -0.217826 -4.00408 0
M  V30 680 H 60.7422 -1.65066 -3.95539 0
M  V30 681 H 64.9262 -2.59133 -4.23277 0
M  V30 682 H 60.1822 -3.93101 -4.68275 0
M  V30 683 H 64.3562 -4.87455 -4.97354 0
M  V30 684 H 61.9832 -5.54959 -5.19542 0
M  V30 685 N 63.5583 1.46682 -0.576371 0
M  V30 686 C 64.9693 1.86112 -0.148091 0
M  V30 687 C 65.3203 1.48073 1.2872 0
M  V30 688 O 64.4453 0.892656 1.97131 0
M  V30 689 C 65.0403 3.37786 -0.261982 0
M  V30 690 C 63.5993 3.76235 0.111384 0
M  V30 691 C 62.7463 2.70713 -0.60083 0
M  V30 692 H 65.6973 1.37927 -0.78497 0
M  V30 693 H 65.7183 3.77007 0.514364 0
M  V30 694 H 65.2303 3.6544 -1.30671 0
M  V30 695 H 63.3313 3.54198 1.15649 0
M  V30 696 H 63.4443 4.78391 -0.26052 0
M  V30 697 H 61.8083 2.54666 -0.0417783 0
M  V30 698 H 62.5913 3.01208 -1.64708 0
M  V30 699 N 65.0364 0.313813 1.54444 0
M  V30 700 C 66.2834 -0.291675 2.00388 0
M  V30 701 C 66.6114 -1.52904 1.2021 0
M  V30 702 O 65.8664 -1.93833 0.269707 0
M  V30 703 C 66.1654 -0.680386 3.50864 0
M  V30 704 C 65.8314 0.456699 4.48581 0
M  V30 705 C 64.4934 0.768824 4.75018 0
M  V30 706 C 66.8454 1.22098 5.06697 0
M  V30 707 C 64.1734 1.84812 5.56831 0
M  V30 708 C 66.5254 2.29029 5.89685 0
M  V30 709 C 65.1894 2.60834 6.14428 0
M  V30 710 H 64.4594 -0.106732 0.733273 0
M  V30 711 H 67.1064 0.43557 1.86481 0
M  V30 712 H 65.4114 -1.48791 3.62448 0
M  V30 713 H 67.1084 -1.16026 3.83847 0
M  V30 714 H 63.6984 0.203337 4.28117 0
M  V30 715 H 67.8824 0.993096 4.86263 0
M  V30 716 H 63.1384 2.09912 5.74236 0
M  V30 717 H 67.3124 2.887 6.33739 0
M  V30 718 H 64.9394 3.44596 6.77612 0
M  V30 719 N 66.5145 -1.57545 0.0417849 0
M  V30 720 C 67.7915 -1.83642 -0.673433 0
M  V30 721 C 68.1715 -0.928298 -1.89594 0
M  V30 722 O 67.5195 0.0129955 -2.28496 0
M  V30 723 C 67.7295 -3.33155 -1.03964 0
M  V30 724 C 69.0775 -3.99941 -1.42592 0
M  V30 725 O 70.1015 -3.37725 -1.13226 0
M  V30 726 O 68.9605 -5.09619 -1.9736 0
M  V30 727 H 66.0545 -0.757638 -0.331533 0
M  V30 728 H 68.6005 -1.69554 0.070433 0
M  V30 729 H 67.3725 -3.9093 -0.170098 0
M  V30 730 H 66.9955 -3.52396 -1.84126 0
M  V30 731 N 67.9926 0.231505 -1.5589 0
M  V30 732 C 69.2696 0.981096 -1.69215 0
M  V30 733 C 69.6496 2.02799 -0.586164 0
M  V30 734 O 68.9976 2.24823 0.408253 0
M  V30 735 C 69.2076 1.60054 -3.10135 0
M  V30 736 C 70.5556 2.09658 -3.69227 0
M  V30 737 O 71.5796 1.69967 -3.13033 0
M  V30 738 O 70.4386 2.8258 -4.67772 0
M  V30 739 H 67.5326 0.457653 -0.688827 0
M  V30 740 H 70.0786 0.224073 -1.68214 0
M  V30 741 H 68.8506 0.844105 -3.82087 0
M  V30 742 H 68.4736 2.42336 -3.15212 0
M  V30 743 N 69.4707 1.49531 0.497807 0
M  V30 744 C 70.7187 1.58865 1.24926 0
M  V30 745 C 71.0397 0.278721 1.92998 0
M  V30 746 O 70.3097 -0.702144 1.82885 0
M  V30 747 H 68.8897 0.585343 0.464094 0
M  V30 748 H 71.5517 1.86174 0.57666 0
M  V30 749 H 70.6477 2.38633 2.01149 0
M  V30 750 N 70.9488 -0.749086 1.3866 0
M  V30 751 C 72.1958 -1.50833 1.35114 0
M  V30 752 C 72.5238 -1.94415 -0.0574049 0
M  V30 753 O 71.7788 -1.66065 -1.03541 0
M  V30 754 C 72.0778 -2.7712 2.25697 0
M  V30 755 C 71.7438 -2.52477 3.73585 0
M  V30 756 C 70.4058 -2.45466 4.13884 0
M  V30 757 C 72.7578 -2.31066 4.67181 0
M  V30 758 C 70.0858 -2.15064 5.45861 0
M  V30 759 C 72.4378 -2.02183 5.9942 0
M  V30 760 C 71.1018 -1.93631 6.38798 0
M  V30 761 H 70.3718 -0.551936 0.494416 0
M  V30 762 H 73.0188 -0.860979 1.71054 0
M  V30 763 H 71.3238 -3.46528 1.82827 0
M  V30 764 H 73.0208 -3.35096 2.20254 0
M  V30 765 H 69.6108 -2.58807 3.41638 0
M  V30 766 H 73.7948 -2.35459 4.3689 0
M  V30 767 H 69.0508 -2.06954 5.75308 0
M  V30 768 H 73.2248 -1.8462 6.71482 0
M  V30 769 H 70.8518 -1.69839 7.40985 0
M  V30 770 N 72.4269 -1.23603 -0.977757 0
M  V30 771 C 73.6549 -1.09646 -1.75458 0
M  V30 772 C 74.0699 0.351859 -1.85492 0
M  V30 773 O 73.4269 1.24327 -1.336 0
M  V30 774 C 73.4779 -1.71895 -3.18016 0
M  V30 775 O 73.1989 -3.11063 -3.08498 0
M  V30 776 C 74.6999 -1.63415 -4.12081 0
M  V30 777 H 71.9199 -0.38359 -0.550545 0
M  V30 778 H 74.4639 -1.63507 -1.22824 0
M  V30 779 H 72.6189 -1.22061 -3.67668 0
M  V30 780 H 73.0329 -3.41305 -3.9826 0
M  V30 781 H 74.5069 -2.11669 -5.09804 0
M  V30 782 H 74.9839 -0.593462 -4.35172 0
M  V30 783 H 75.5899 -2.12628 -3.68334 0
M  V30 784 N 73.905 1.17692 -1.04816 0
M  V30 785 C 75.182 1.83768 -0.669963 0
M  V30 786 C 75.562 1.93232 0.849986 0
M  V30 787 O 74.91 1.46397 1.75443 0
M  V30 788 C 75.12 3.21641 -1.35455 0
M  V30 789 C 76.468 3.97592 -1.49017 0
M  V30 790 O 77.492 3.31107 -1.31326 0
M  V30 791 O 76.351 5.16729 -1.77914 0
M  V30 792 H 73.445 0.792799 -0.235368 0
M  V30 793 H 75.991 1.25021 -1.14751 0
M  V30 794 H 74.763 3.097 -2.39168 0
M  V30 795 H 74.386 3.88052 -0.866107 0
M  V30 796 N 75.3831 0.828654 1.34056 0
M  V30 797 C 76.7941 0.477534 1.8049 0
M  V30 798 C 77.1451 -1.00258 1.6865 0
M  V30 799 O 76.2701 -1.78057 1.22982 0
M  V30 800 C 76.8651 0.860018 3.27703 0
M  V30 801 C 75.4241 0.561185 3.72193 0
M  V30 802 C 74.5711 1.07385 2.55663 0
M  V30 803 H 77.5221 1.0183 1.21722 0
M  V30 804 H 77.5431 0.166038 3.80138 0
M  V30 805 H 77.0551 1.93731 3.36288 0
M  V30 806 H 75.1561 -0.506465 3.69142 0
M  V30 807 H 75.2691 1.10926 4.66082 0
M  V30 808 H 73.6331 0.495149 2.49841 0
M  V30 809 H 74.4161 2.15771 2.67016 0
M  V30 810 N 76.8612 -1.46375 0.584142 0
M  V30 811 C 78.1382 -1.956 0.0033388 0
M  V30 812 C 78.5182 -1.52679 -1.45782 0
M  V30 813 O 77.8662 -0.77816 -2.14842 0
M  V30 814 C 78.0762 -3.48551 0.176891 0
M  V30 815 C 79.4242 -4.24576 0.0454609 0
M  V30 816 O 80.4482 -3.56043 0.105801 0
M  V30 817 O 79.3072 -5.46427 -0.0890376 0
M  V30 818 H 76.4012 -0.825547 -0.0490066 0
M  V30 819 H 78.9472 -1.56652 0.65256 0
M  V30 820 H 77.7192 -3.72683 1.1926 0
M  V30 821 H 77.3422 -3.94332 -0.508695 0
M  V30 822 N 78.3393 -0.321999 -1.54275 0
M  V30 823 C 79.2493 0.553631 -2.27974 0
M  V30 824 C 80.2653 1.13054 -1.32268 0
M  V30 825 O 81.4413 1.15084 -1.6528 0
M  V30 826 C 78.5063 1.69927 -3.02201 0
M  V30 827 C 77.5673 1.15433 -4.1349 0
M  V30 828 C 76.8003 2.24537 -4.84168 0
M  V30 829 O 77.0233 3.44852 -4.5435 0
M  V30 830 O 75.9573 1.90044 -5.7111 0
M  V30 831 H 79.7833 -0.0448345 -3.03667 0
M  V30 832 H 77.3683 -0.0877418 -1.49142 0
M  V30 833 H 79.2503 2.3663 -3.48689 0
M  V30 834 H 77.9253 2.28395 -2.29385 0
M  V30 835 H 76.8323 0.452436 -3.71354 0
M  V30 836 H 78.1653 0.614805 -4.88345 0
M  V30 837 N 79.8174 1.5752 -0.0501392 0
M  V30 838 C 80.7644 2.1147 0.924603 0
M  V30 839 C 81.7344 1.02182 1.30951 0
M  V30 840 O 82.9194 1.29723 1.39916 0
M  V30 841 C 80.0594 2.66337 2.19451 0
M  V30 842 C 79.1724 3.89708 1.86418 0
M  V30 843 C 78.3074 4.32893 3.07859 0
M  V30 844 C 77.3464 5.48967 2.70742 0
M  V30 845 N 76.4834 5.87211 3.84874 0
M  V30 846 H 81.3234 2.94465 0.457639 0
M  V30 847 H 78.8604 1.45531 0.214266 0
M  V30 848 H 80.8184 2.96247 2.93758 0
M  V30 849 H 79.4484 1.86141 2.63726 0
M  V30 850 H 78.5004 3.66396 1.02264 0
M  V30 851 H 79.8124 4.74074 1.55096 0
M  V30 852 H 78.9664 4.6435 3.90466 0
M  V30 853 H 77.7054 3.47336 3.42358 0
M  V30 854 H 76.7104 5.17183 1.86551 0
M  V30 855 H 77.9354 6.3624 2.37436 0
M  V30 856 H 75.8814 5.04607 4.19175 0
M  V30 857 H 75.7984 6.66266 3.57247 0
M  V30 858 H 77.0664 6.23282 4.68123 0
M  V30 859 N 81.2955 -0.223234 1.56011 0
M  V30 860 C 82.2435 -1.29627 1.93131 0
M  V30 861 C 83.2375 -1.48608 0.813146 0
M  V30 862 O 84.4435 -1.49802 0.997966 0
M  V30 863 H 80.8185 -0.434563 0.613726 0
M  V30 864 H 82.7895 -0.955995 2.82672 0
M  V30 865 C 81.5385 -2.63983 2.26292 0
M  V30 866 H 80.8615 -2.50185 3.11846 0
M  V30 867 H 82.3015 -3.3788 2.56151 0
M  V30 868 C 80.7605 -3.18866 1.08747 0
M  V30 869 O 81.2905 -4.00192 0.347727 0
M  V30 870 N 79.4965 -2.77217 0.871743 0
M  V30 871 H 79.0435 -2.1119 1.47501 0
M  V30 872 H 79.0015 -3.1428 0.0869905 0
M  V30 873 N 82.7736 -1.49793 -0.48987 0
M  V30 874 C 84.1846 -1.52914 -1.07118 0
M  V30 875 C 84.5356 -0.321738 -1.93544 0
M  V30 876 O 83.6606 0.567338 -2.08831 0
M  V30 877 C 84.2556 -2.771 -1.94938 0
M  V30 878 C 82.8146 -2.82963 -2.48212 0
M  V30 879 C 81.9616 -2.46972 -1.26096 0
M  V30 880 H 84.9126 -1.56329 -0.273289 0
M  V30 881 H 84.9336 -2.57892 -2.79771 0
M  V30 882 H 84.4456 -3.64959 -1.32009 0
M  V30 883 H 82.5466 -1.99411 -3.14748 0
M  V30 884 H 82.6596 -3.85406 -2.84603 0
M  V30 885 H 81.0236 -1.98994 -1.58976 0
M  V30 886 H 81.8066 -3.37118 -0.648581 0
M  V30 887 N 84.2517 0.741722 -1.39055 0
M  V30 888 C 85.1617 1.88621 -1.39496 0
M  V30 889 C 86.1777 1.71557 -0.290578 0
M  V30 890 O 87.3537 1.94275 -0.530954 0
M  V30 891 C 84.4187 3.24134 -1.23037 0
M  V30 892 C 83.4797 3.5364 -2.43387 0
M  V30 893 C 82.7127 4.82687 -2.27703 0
M  V30 894 O 82.9357 5.55922 -1.27696 0
M  V30 895 O 81.8697 5.1194 -3.16545 0
M  V30 896 H 85.6957 1.91203 -2.35956 0
M  V30 897 H 83.2807 0.888625 -1.20099 0
M  V30 898 H 85.1627 4.0513 -1.15964 0
M  V30 899 H 83.8377 3.22337 -0.296691 0
M  V30 900 H 82.7447 2.72758 -2.56035 0
M  V30 901 H 84.0777 3.60209 -3.35425 0
M  V30 902 N 85.7298 1.2412 0.971189 0
M  V30 903 C 86.9788 1.07284 1.70801 0
M  V30 904 C 87.2918 -0.388902 1.91695 0
M  V30 905 O 88.4978 -0.677379 2.62914 0
M  V30 906 C 86.9538 1.87145 3.07416 0
M  V30 907 C 86.5618 3.37707 2.94377 0
M  V30 908 C 88.3058 1.78828 3.84995 0
M  V30 909 C 86.2128 4.09925 4.26281 0
M  V30 910 H 85.1428 0.397854 0.64049 0
M  V30 911 H 87.7938 1.4817 1.0825 0
M  V30 912 H 86.1758 1.39071 3.70777 0
M  V30 913 H 87.3498 3.93335 2.4005 0
M  V30 914 H 85.6648 3.46938 2.30267 0
M  V30 915 H 88.2618 2.30089 4.82662 0
M  V30 916 H 88.6048 0.75284 4.09436 0
M  V30 917 H 89.1378 2.24563 3.28354 0
M  V30 918 H 85.8768 5.13813 4.07033 0
M  V30 919 H 85.3968 3.59083 4.80437 0
M  V30 920 H 87.0758 4.1673 4.94919 0
M  V30 921 N 87.2079 -1.17134 1.05439 0
M  V30 922 C 88.4559 -1.87085 0.764429 0
M  V30 923 C 88.7769 -1.81584 -0.710787 0
M  V30 924 O 88.0469 -1.24349 -1.51374 0
M  V30 925 H 86.6269 -0.692627 0.279779 0
M  V30 926 H 89.2889 -1.42087 1.33406 0
M  V30 927 H 88.3849 -2.92759 1.0816 0
M  V30 928 N 88.686 -0.835752 -1.33615 0
M  V30 929 C 89.934 -0.429109 -1.97492 0
M  V30 930 C 90.255 1.01433 -1.66543 0
M  V30 931 O 89.525 1.70611 -0.962744 0
M  V30 932 H 88.105 -0.155686 -0.730596 0
M  V30 933 H 90.767 -1.06802 -1.63031 0
M  V30 934 H 89.863 -0.55861 -3.0706 0
M  V30 935 N 90.1641 1.46063 -0.591896 0
M  V30 936 C 91.4131 2.01547 -0.0786637 0
M  V30 937 C 91.7261 1.46796 1.29268 0
M  V30 938 O 92.9321 1.94157 1.89777 0
M  V30 939 C 91.3881 3.59787 -0.0900024 0
M  V30 940 C 90.9961 4.23534 -1.46023 0
M  V30 941 C 92.7401 4.22895 0.368806 0
M  V30 942 C 90.6471 5.73881 -1.4288 0
M  V30 943 H 89.5771 0.753564 -0.0256388 0
M  V30 944 H 92.2281 1.677 -0.744905 0
M  V30 945 H 90.6101 3.90752 0.642586 0
M  V30 946 H 91.7841 4.04167 -2.21328 0
M  V30 947 H 90.0991 3.72558 -1.85982 0
M  V30 948 H 92.6961 5.33116 0.411258 0
M  V30 949 H 93.0391 3.9247 1.38827 0
M  V30 950 H 93.5721 3.9659 -0.31001 0
M  V30 951 H 90.3111 6.0898 -2.42536 0
M  V30 952 H 89.8311 5.95486 -0.718095 0
M  V30 953 H 91.5101 6.36776 -1.14565 0
M  V30 954 N 91.6422 0.330177 1.54103 0
M  V30 955 C 93.0582 -0.0222371 1.59585 0
M  V30 956 C 93.2582 -1.49902 1.34654 0
M  V30 957 O 92.3142 -2.25592 1.13421 0
M  V30 958 C 93.6272 0.401932 2.98002 0
M  V30 959 C 95.1752 0.353145 3.11001 0
M  V30 960 C 95.6502 0.752576 4.51775 0
M  V30 961 N 97.1412 0.706239 4.57784 0
M  V30 962 C 97.8762 0.987417 5.64834 0
M  V30 963 N 97.3722 1.33607 6.79795 0
M  V30 964 N 99.1652 0.91254 5.54643 0
M  V30 965 H 91.3162 1.29228 1.68564 0
M  V30 966 H 93.5792 0.525906 0.78875 0
M  V30 967 H 93.2852 1.4311 3.21267 0
M  V30 968 H 93.1592 -0.229699 3.765 0
M  V30 969 H 95.5462 -0.666822 2.87467 0
M  V30 970 H 95.6272 1.0198 2.34593 0
M  V30 971 H 95.2712 1.77049 4.76042 0
M  V30 972 H 95.2012 0.0635409 5.26562 0
M  V30 973 H 97.6922 0.44889 3.75224 0
M  V30 974 H 98.0052 1.53582 7.57385 0
M  V30 975 H 96.3502 1.37439 6.81275 0
M  V30 976 H 99.5412 0.639601 4.6371 0
M  V30 977 H 99.7142 1.13503 6.37982 0
M  V30 978 N 93.1203 -1.57491 0.0584922 0
M  V30 979 C 94.3453 -1.97711 -0.62652 0
M  V30 980 C 94.7703 -0.936132 -1.63151 0
M  V30 981 O 94.1283 0.099811 -1.81025 0
M  V30 982 C 94.1763 -3.36989 -1.28338 0
M  V30 983 O 93.2803 -3.35433 -2.39913 0
M  V30 984 H 92.6213 -0.643868 -0.162266 0
M  V30 985 H 95.1513 -2.04193 0.129064 0
M  V30 986 H 95.1613 -3.73879 -1.63335 0
M  V30 987 H 93.8363 -4.12289 -0.546889 0
M  V30 988 H 92.4133 -3.10298 -2.06809 0
M  V30 989 N 94.5984 0.214957 -1.56127 0
M  V30 990 C 95.5314 1.29382 -1.87977 0
M  V30 991 C 96.5094 1.44897 -0.737807 0
M  V30 992 O 97.6934 1.60605 -0.986833 0
M  V30 993 C 94.8204 2.66325 -2.09258 0
M  V30 994 C 93.8664 2.67789 -3.31951 0
M  V30 995 S 94.6994 2.21198 -4.8768 0
M  V30 996 C 95.8554 3.60003 -5.12004 0
M  V30 997 H 96.0884 1.02173 -2.79192 0
M  V30 998 H 93.6214 0.417516 -1.48648 0
M  V30 999 H 95.5794 3.45162 -2.22201 0
M  V30 1000 H 94.2404 2.90755 -1.18829 0
M  V30 1001 H 93.4334 3.68436 -3.43906 0
M  V30 1002 H 93.0354 1.9702 -3.17898 0
M  V30 1003 H 95.3274 4.55739 -5.01307 0
M  V30 1004 H 96.2704 3.52959 -6.13861 0
M  V30 1005 H 96.6784 3.53996 -4.39712 0
M  V30 1006 N 96.0765 1.50051 0.48192 0
M  V30 1007 C 97.3225 1.60736 1.2366 0
M  V30 1008 C 97.6555 0.301786 1.91841 0
M  V30 1009 O 96.9305 -0.696025 1.8162 0
M  V30 1010 C 97.2135 2.78009 2.28874 0
M  V30 1011 C 97.0665 4.18416 1.65069 0
M  V30 1012 C 98.3855 2.90867 3.30279 0
M  V30 1013 H 95.5045 0.585031 0.448228 0
M  V30 1014 H 98.1465 1.82402 0.531946 0
M  V30 1015 H 96.2965 2.59667 2.88973 0
M  V30 1016 H 97.9685 4.48322 1.0865 0
M  V30 1017 H 96.2115 4.23177 0.954148 0
M  V30 1018 H 96.8825 4.96381 2.41474 0
M  V30 1019 H 99.3585 3.07623 2.80191 0
M  V30 1020 H 98.2345 3.74566 4.01238 0
M  V30 1021 H 98.4955 2.01021 3.93755 0
M  V30 1022 N 97.5546 -0.734337 1.39446 0
M  V30 1023 C 98.8006 -1.49505 1.37913 0
M  V30 1024 C 99.1556 -1.92384 -0.0248416 0
M  V30 1025 O 98.4486 -1.6395 -0.991506 0
M  V30 1026 C 98.6426 -2.74711 2.28623 0
M  V30 1027 C 98.4716 -2.44075 3.777 0
M  V30 1028 C 97.2416 -2.36338 4.46623 0
M  V30 1029 C 99.4396 -2.09574 4.69663 0
M  V30 1030 N 97.4216 -1.9818 5.81032 0
M  V30 1031 C 98.7926 -1.81865 5.92727 0
M  V30 1032 C 100.848 -1.96048 4.57678 0
M  V30 1033 C 99.5506 -1.41992 7.05146 0
M  V30 1034 C 101.577 -1.57579 5.7002 0
M  V30 1035 C 100.939 -1.30754 6.92158 0
M  V30 1036 H 97.0376 -0.545896 0.55993 0
M  V30 1037 H 99.6216 -0.853373 1.75002 0
M  V30 1038 H 97.7926 -3.36657 1.93692 0
M  V30 1039 H 99.5246 -3.40916 2.18078 0
M  V30 1040 H 96.2796 -2.53456 4.00071 0
M  V30 1041 H 96.7036 -1.81691 6.52163 0
M  V30 1042 H 101.346 -2.15455 3.63784 0
M  V30 1043 H 99.0636 -1.21327 7.9894 0
M  V30 1044 H 102.65 -1.47718 5.62735 0
M  V30 1045 H 101.53 -1.01432 7.77612 0
M  V30 1046 N 99.0327 -1.24633 -0.964593 0
M  V30 1047 C 100.449 -1.01239 -1.2338 0
M  V30 1048 C 100.649 0.2769 -1.99588 0
M  V30 1049 O 99.7047 0.992241 -2.32187 0
M  V30 1050 C 101.018 -2.22937 -2.01791 0
M  V30 1051 C 102.566 -2.27594 -2.14872 0
M  V30 1052 C 103.041 -3.48921 -2.96678 0
M  V30 1053 N 104.532 -3.49257 -3.04259 0
M  V30 1054 C 105.267 -4.39795 -3.67924 0
M  V30 1055 N 104.763 -5.40591 -4.33281 0
M  V30 1056 N 106.556 -4.275 -3.64966 0
M  V30 1057 H 98.7067 -2.0748 -0.454502 0
M  V30 1058 H 100.97 -0.910647 -0.26349 0
M  V30 1059 H 100.676 -3.16587 -1.53184 0
M  V30 1060 H 100.55 -2.25306 -3.02518 0
M  V30 1061 H 102.937 -1.34473 -2.6268 0
M  V30 1062 H 103.018 -2.2925 -1.13482 0
M  V30 1063 H 102.662 -4.42359 -2.49562 0
M  V30 1064 H 102.592 -3.4451 -3.98272 0
M  V30 1065 H 105.083 -2.76337 -2.57771 0
M  V30 1066 H 105.396 -6.05904 -4.79687 0
M  V30 1067 H 103.741 -5.44475 -4.3194 0
M  V30 1068 H 106.932 -3.47987 -3.13086 0
M  V30 1069 H 107.105 -4.98258 -4.14298 0
M  V30 1070 N 100.511 1.16574 -1.06058 0
M  V30 1071 C 101.788 1.83048 -0.689416 0
M  V30 1072 C 102.168 1.94122 0.829443 0
M  V30 1073 O 101.516 1.48249 1.7388 0
M  V30 1074 C 101.726 3.20186 -1.38859 0
M  V30 1075 C 103.074 3.95989 -1.53226 0
M  V30 1076 O 104.098 3.29696 -1.3483 0
M  V30 1077 O 102.957 5.14813 -1.83384 0
M  V30 1078 H 100.051 0.790258 -0.243764 0
M  V30 1079 H 102.597 1.23797 -1.16071 0
M  V30 1080 H 101.369 3.07146 -2.4244 0
M  V30 1081 H 100.992 3.87112 -0.907216 0
M  V30 1082 N 101.989 0.842826 1.3317 0
M  V30 1083 C 102.952 0.284065 2.27433 0
M  V30 1084 C 103.952 -0.54948 1.5112 0
M  V30 1085 O 105.142 -0.362699 1.70382 0
M  V30 1086 C 102.274 -0.599384 3.35589 0
M  V30 1087 H 103.467 1.11589 2.78366 0
M  V30 1088 H 101.02 0.616221 1.4364 0
M  V30 1089 H 101.755 -1.45349 2.89904 0
M  V30 1090 H 101.54 -0.00291266 3.921 0
M  V30 1091 H 103.03 -0.983488 4.05854 0
M  V30 1092 N 103.467 -1.45747 0.599634 0
M  V30 1093 C 104.695 -2.06668 0.0978551 0
M  V30 1094 C 105.11 -1.44562 -1.21439 0
M  V30 1095 O 104.467 -0.556923 -1.73795 0
M  V30 1096 C 104.518 -3.61456 -0.0567044 0
M  V30 1097 O 104.239 -4.21242 1.20361 0
M  V30 1098 C 105.74 -4.39345 -0.590869 0
M  V30 1099 H 102.96 -0.667825 0.0651943 0
M  V30 1100 H 105.504 -1.87115 0.82511 0
M  V30 1101 H 103.659 -3.80378 -0.734251 0
M  V30 1102 H 104.073 -5.14323 1.02821 0
M  V30 1103 H 105.547 -5.48182 -0.648131 0
M  V30 1104 H 106.024 -4.08568 -1.61147 0
M  V30 1105 H 106.63 -4.25268 0.0523679 0
M  V30 1106 N 104.945 -0.338344 -1.53925 0
M  V30 1107 C 106.175 0.260919 -2.04946 0
M  V30 1108 C 106.583 1.45174 -1.2133 0
M  V30 1109 O 105.926 1.82122 -0.240262 0
M  V30 1110 C 105.988 0.744596 -3.51704 0
M  V30 1111 C 105.652 -0.325883 -4.55837 0
M  V30 1112 C 106.649 -1.16687 -5.06636 0
M  V30 1113 C 104.334 -0.478317 -5.00017 0
M  V30 1114 C 106.328 -2.14588 -6.00192 0
M  V30 1115 C 104.015 -1.46073 -5.93385 0
M  V30 1116 C 105.013 -2.29297 -6.4336 0
M  V30 1117 O 104.701 -3.25867 -7.34892 0
M  V30 1118 H 104.433 0.0551207 -0.673749 0
M  V30 1119 H 106.987 -0.486984 -1.99544 0
M  V30 1120 H 105.217 1.54366 -3.54553 0
M  V30 1121 H 106.906 1.26383 -3.85723 0
M  V30 1122 H 107.672 -1.06016 -4.73271 0
M  V30 1123 H 103.551 0.159613 -4.60724 0
M  V30 1124 H 107.095 -2.79585 -6.39123 0
M  V30 1125 H 102.992 -1.56802 -6.26166 0
M  V30 1126 H 103.76 -3.21278 -7.5281 0
M  V30 1127 N 106.423 1.57458 -0.0668435 0
M  V30 1128 C 107.355 2.09413 0.931601 0
M  V30 1129 C 108.368 1.02522 1.26464 0
M  V30 1130 O 109.557 1.30049 1.22269 0
M  V30 1131 C 106.657 2.53537 2.24882 0
M  V30 1132 C 105.83 3.83944 2.09537 0
M  V30 1133 C 104.889 4.14214 3.2452 0
M  V30 1134 O 103.915 4.83891 2.9973 0
M  V30 1135 N 105.117 3.67367 4.49469 0
M  V30 1136 H 107.882 2.95699 0.488048 0
M  V30 1137 H 105.443 1.61462 0.119009 0
M  V30 1138 H 107.435 2.70853 3.00701 0
M  V30 1139 H 106.005 1.72415 2.60753 0
M  V30 1140 H 105.225 3.76057 1.18215 0
M  V30 1141 H 106.513 4.69312 1.96529 0
M  V30 1142 H 105.911 3.11068 4.72497 0
M  V30 1143 H 104.468 3.89891 5.2233 0
M  V30 1144 N 107.901 -0.206675 1.56239 0
M  V30 1145 C 108.849 -1.27571 1.94495 0
M  V30 1146 C 109.843 -1.47737 0.828862 0
M  V30 1147 O 111.049 -1.48735 1.0138 0
M  V30 1148 H 107.424 -0.428029 0.6183 0
M  V30 1149 H 109.395 -0.925961 2.8367 0
M  V30 1150 C 108.144 -2.61568 2.29079 0
M  V30 1151 H 107.467 -2.46863 3.14482 0
M  V30 1152 H 108.907 -3.35144 2.5972 0
M  V30 1153 C 107.366 -3.17695 1.12123 0
M  V30 1154 O 107.896 -3.99801 0.390153 0
M  V30 1155 N 106.102 -2.76276 0.901097 0
M  V30 1156 H 105.649 -2.09613 1.49733 0
M  V30 1157 H 105.607 -3.1417 0.120319 0
M  V30 1158 N 109.379 -1.50304 -0.473955 0
M  V30 1159 C 110.656 -1.51667 -1.23518 0
M  V30 1160 C 111.036 -0.259701 -2.09496 0
M  V30 1161 O 110.384 0.756986 -2.15597 0
M  V30 1162 C 110.594 -2.81082 -2.06868 0
M  V30 1163 C 111.942 -3.31631 -2.65153 0
M  V30 1164 O 112.966 -2.82384 -2.17113 0
M  V30 1165 O 111.825 -4.17471 -3.52675 0
M  V30 1166 H 108.919 -0.60822 -0.560355 0
M  V30 1167 H 111.465 -1.62592 -0.486011 0
M  V30 1168 H 110.237 -3.64041 -1.4349 0
M  V30 1169 H 109.86 -2.73146 -2.88924 0
M  V30 1170 N 110.857 0.726932 -1.39834 0
M  V30 1171 C 111.787 1.85405 -1.41941 0
M  V30 1172 C 112.768 1.67751 -0.281728 0
M  V30 1173 O 113.953 1.8795 -0.488717 0
M  V30 1174 C 111.083 3.23243 -1.2701 0
M  V30 1175 C 110.037 3.55549 -2.38262 0
M  V30 1176 C 109.363 4.9241 -2.08415 0
M  V30 1177 C 110.663 3.577 -3.80589 0
M  V30 1178 H 112.357 1.83899 -2.36266 0
M  V30 1179 H 109.903 0.883349 -1.13723 0
M  V30 1180 H 111.856 4.01775 -1.27103 0
M  V30 1181 H 110.58 3.25296 -0.291564 0
M  V30 1182 H 109.239 2.79351 -2.37399 0
M  V30 1183 H 108.887 4.91052 -1.0898 0
M  V30 1184 H 108.587 5.14992 -2.82943 0
M  V30 1185 H 110.111 5.73289 -2.10171 0
M  V30 1186 H 111.525 4.26293 -3.83337 0
M  V30 1187 H 109.922 3.91804 -4.54543 0
M  V30 1188 H 110.992 2.57328 -4.10987 0
M  V30 1189 N 112.336 1.25143 0.95797 0
M  V30 1190 C 113.564 1.12424 1.73691 0
M  V30 1191 C 113.979 -0.322304 1.86029 0
M  V30 1192 O 113.336 -1.22186 1.35561 0
M  V30 1193 C 113.387 1.76933 3.15241 0
M  V30 1194 O 113.108 3.15932 3.03511 0
M  V30 1195 C 114.609 1.6995 4.09429 0
M  V30 1196 H 111.829 0.3923 0.544373 0
M  V30 1197 H 114.373 1.6544 1.20207 0
M  V30 1198 H 112.528 1.27895 3.6568 0
M  V30 1199 H 112.942 3.47598 3.9278 0
M  V30 1200 H 114.416 2.19753 5.06372 0
M  V30 1201 H 114.893 0.662619 4.34173 0
M  V30 1202 H 115.499 2.18461 3.64904 0
M  V30 1203 N 113.814 -1.1601 1.06675 0
M  V30 1204 C 115.062 -1.86264 0.784229 0
M  V30 1205 C 115.383 -1.82328 -0.691488 0
M  V30 1206 O 114.653 -1.25947 -1.50047 0
M  V30 1207 H 113.233 -0.689621 0.28711 0
M  V30 1208 H 115.895 -1.40664 1.34906 0
M  V30 1209 H 114.991 -2.91595 1.11259 0
M  V30 1210 N 115.292 -0.849877 -1.32721 0
M  V30 1211 C 116.541 -0.447175 -1.96681 0
M  V30 1212 C 116.854 1.00135 -1.68025 0
M  V30 1213 O 118.06 1.50926 -2.25685 0
M  V30 1214 C 116.516 -0.7487 -3.52026 0
M  V30 1215 C 116.124 -2.21264 -3.89546 0
M  V30 1216 C 117.868 -0.413487 -4.22481 0
M  V30 1217 C 115.775 -2.45763 -5.37917 0
M  V30 1218 H 114.705 -0.163486 -0.736063 0
M  V30 1219 H 117.356 -1.03999 -1.51183 0
M  V30 1220 H 115.738 -0.0853727 -3.95908 0
M  V30 1221 H 116.912 -2.91736 -3.56689 0
M  V30 1222 H 115.227 -2.5119 -3.32103 0
M  V30 1223 H 117.824 -0.574017 -5.3161 0
M  V30 1224 H 118.167 0.644492 -4.11281 0
M  V30 1225 H 118.7 -1.03251 -3.84167 0
M  V30 1226 H 115.439 -3.50168 -5.54132 0
M  V30 1227 H 114.959 -1.79864 -5.72197 0
M  V30 1228 H 116.638 -2.29471 -6.0494 0
M  V30 1229 N 116.77 1.45427 -0.607355 0
M  V30 1230 C 117.995 2.07124 -0.107006 0
M  V30 1231 C 118.42 1.44906 1.19933 0
M  V30 1232 O 117.778 0.541687 1.73019 0
M  V30 1233 C 117.826 3.60595 0.0194119 0
M  V30 1234 O 116.93 3.98285 1.0697 0
M  V30 1235 H 116.271 0.659868 -0.0739597 0
M  V30 1236 H 118.801 1.86683 -0.837297 0
M  V30 1237 H 118.811 4.07419 0.2177 0
M  V30 1238 H 117.486 4.05266 -0.934453 0
M  V30 1239 H 116.063 3.63133 0.847889 0
M  V30 1240 N 118.248 0.346503 1.53744 0
M  V30 1241 C 119.196 -0.52422 2.26616 0
M  V30 1242 C 120.19 -1.09948 1.28871 0
M  V30 1243 O 121.396 -1.04488 1.46568 0
M  V30 1244 H 117.771 -0.187743 0.728187 0
M  V30 1245 H 119.742 0.11239 2.98188 0
M  V30 1246 C 118.491 -1.66186 3.05414 0
M  V30 1247 H 117.814 -1.22848 3.80458 0
M  V30 1248 H 119.254 -2.24622 3.59612 0
M  V30 1249 C 117.713 -2.59302 2.1509 0
M  V30 1250 O 118.243 -3.61628 1.74895 0
M  V30 1251 N 116.449 -2.28055 1.8011 0
M  V30 1252 H 115.996 -1.44883 2.12994 0
M  V30 1253 H 115.954 -2.90615 1.19958 0
M  V30 1254 N 119.726 -1.57421 0.075193 0
M  V30 1255 C 120.689 -2.11791 -0.876203 0
M  V30 1256 C 121.689 -1.04268 -1.22412 0
M  V30 1257 O 122.879 -1.30242 -1.15684 0
M  V30 1258 C 120.011 -2.62207 -2.17854 0
M  V30 1259 H 121.204 -2.9716 -0.40444 0
M  V30 1260 H 118.757 -1.55333 -0.173557 0
M  V30 1261 H 119.492 -1.803 -2.6956 0
M  V30 1262 H 119.277 -3.40802 -1.93897 0
M  V30 1263 H 120.767 -3.04335 -2.85955 0
M  V30 1264 N 121.204 0.198386 -1.56346 0
M  V30 1265 C 122.432 0.935572 -1.84539 0
M  V30 1266 C 122.847 1.76989 -0.657281 0
M  V30 1267 O 122.204 1.78626 0.374043 0
M  V30 1268 C 122.255 1.8344 -3.11499 0
M  V30 1269 O 121.976 1.03377 -4.25728 0
M  V30 1270 C 123.477 2.68355 -3.52846 0
M  V30 1271 H 120.697 0.273126 -0.612897 0
M  V30 1272 H 123.241 0.20663 -2.03453 0
M  V30 1273 H 121.396 2.51701 -2.94492 0
M  V30 1274 H 121.81 1.64599 -4.98003 0
M  V30 1275 H 123.284 3.27085 -4.44657 0
M  V30 1276 H 123.761 3.41901 -2.75681 0
M  V30 1277 H 124.367 2.05471 -3.72373 0
M  V30 1278 N 122.682 1.50554 0.465978 0
M  V30 1279 C 123.922 1.63439 1.22747 0
M  V30 1280 C 124.286 0.329822 1.89146 0
M  V30 1281 O 125.487 0.334161 2.66715 0
M  V30 1282 C 123.758 2.78542 2.2394 0
M  V30 1283 S 125.317 3.11591 3.0896 0
M  V30 1284 H 122.135 0.576113 0.416672 0
M  V30 1285 H 124.737 1.88357 0.523641 0
M  V30 1286 H 123.441 3.71805 1.7375 0
M  V30 1287 H 122.972 2.55726 2.98944 0
M  V30 1288 H 124.987 2.55811 4.25176 0
M  V30 1289 N 124.16 -0.719506 1.40217 0
M  V30 1290 C 125.408 -1.47641 1.3801 0
M  V30 1291 C 125.729 -1.94992 -0.018145 0
M  V30 1292 O 124.999 -1.70073 -0.972207 0
M  V30 1293 H 123.579 -0.547744 0.507923 0
M  V30 1294 H 126.241 -0.853187 1.75233 0
M  V30 1295 H 125.337 -2.35112 2.05253 0
M  V30 1296 N 125.638 -1.25649 -0.95132 0
M  V30 1297 C 126.884 -1.10757 -1.69884 0
M  V30 1298 C 127.217 0.350061 -1.91019 0
M  V30 1299 O 126.492 1.25783 -1.48354 0
M  V30 1300 C 126.775 -1.86606 -3.07978 0
M  V30 1301 C 126.628 -3.40217 -2.94232 0
M  V30 1302 C 127.947 -1.65182 -4.07925 0
M  V30 1303 H 125.066 -0.40374 -0.616574 0
M  V30 1304 H 127.708 -1.54521 -1.10558 0
M  V30 1305 H 125.858 -1.49409 -3.58621 0
M  V30 1306 H 127.53 -3.87108 -2.50889 0
M  V30 1307 H 125.773 -3.67759 -2.30078 0
M  V30 1308 H 126.444 -3.88505 -3.92133 0
M  V30 1309 H 128.92 -1.9757 -3.66204 0
M  V30 1310 H 127.796 -2.20683 -5.02583 0
M  V30 1311 H 128.057 -0.593933 -4.38092 0
M  V30 1312 N 127.117 1.15442 -1.07289 0
M  V30 1313 C 128.364 1.86213 -0.795668 0
M  V30 1314 C 128.692 1.82291 0.678238 0
M  V30 1315 O 127.947 1.24057 1.51355 0
M  V30 1316 C 128.246 3.3489 -1.24834 0
M  V30 1317 C 127.912 3.59007 -2.72809 0
M  V30 1318 C 126.574 3.65298 -3.13227 0
M  V30 1319 C 128.926 3.68762 -3.68326 0
M  V30 1320 C 126.254 3.78854 -4.4798 0
M  V30 1321 C 128.606 3.83842 -5.0284 0
M  V30 1322 C 127.27 3.88378 -5.4288 0
M  V30 1323 H 126.54 0.681403 -0.291155 0
M  V30 1324 H 129.187 1.36435 -1.34379 0
M  V30 1325 H 127.492 3.8687 -0.619595 0
M  V30 1326 H 129.189 3.88052 -1.01076 0
M  V30 1327 H 125.779 3.5475 -2.40521 0
M  V30 1328 H 129.963 3.63202 -3.38227 0
M  V30 1329 H 125.219 3.80623 -4.78472 0
M  V30 1330 H 129.393 3.90332 -5.76727 0
M  V30 1331 H 127.02 3.98635 -6.47298 0
M  V30 1332 N 128.595 0.856903 1.32268 0
M  V30 1333 C 129.525 0.31858 2.31316 0
M  V30 1334 C 130.506 -0.583487 1.59779 0
M  V30 1335 O 131.691 -0.503259 1.87566 0
M  V30 1336 C 128.821 -0.491979 3.43798 0
M  V30 1337 C 127.775 0.315849 4.26833 0
M  V30 1338 C 127.101 -0.619586 5.31098 0
M  V30 1339 C 128.401 1.54282 4.98993 0
M  V30 1340 H 130.095 1.14621 2.76591 0
M  V30 1341 H 127.641 0.552613 1.32974 0
M  V30 1342 H 129.594 -0.879012 4.1213 0
M  V30 1343 H 128.318 -1.35299 2.97257 0
M  V30 1344 H 126.977 0.684664 3.6015 0
M  V30 1345 H 126.625 -1.47751 4.8081 0
M  V30 1346 H 126.325 -0.0830621 5.87541 0
M  V30 1347 H 127.849 -1.00375 6.02293 0
M  V30 1348 H 129.263 1.22796 5.59995 0
M  V30 1349 H 127.66 2.01745 5.65172 0
M  V30 1350 H 128.73 2.30285 4.26728 0
M  V30 1351 N 130.073 -1.45103 0.615059 0
M  V30 1352 C 131.303 -2.06254 0.119596 0
M  V30 1353 C 131.711 -1.4591 -1.20445 0
M  V30 1354 O 131.054 -0.570384 -1.7462 0
M  V30 1355 C 131.116 -3.59396 -0.0865591 0
M  V30 1356 C 130.78 -4.42116 1.15683 0
M  V30 1357 C 131.777 -4.7662 2.07676 0
M  V30 1358 C 129.462 -4.82749 1.38775 0
M  V30 1359 C 131.456 -5.50622 3.21082 0
M  V30 1360 C 129.143 -5.56504 2.52481 0
M  V30 1361 C 130.141 -5.90358 3.43463 0
M  V30 1362 O 129.829 -6.62615 4.55189 0
M  V30 1363 H 129.561 -0.672423 0.0694512 0
M  V30 1364 H 132.115 -1.87219 0.844885 0
M  V30 1365 H 130.345 -3.76859 -0.866823 0
M  V30 1366 H 132.034 -4.02365 -0.534555 0
M  V30 1367 H 132.8 -4.4578 1.91063 0
M  V30 1368 H 128.679 -4.55829 0.688545 0
M  V30 1369 H 132.223 -5.76965 3.92119 0
M  V30 1370 H 128.12 -5.86759 2.69043 0
M  V30 1371 H 128.888 -6.81071 4.53966 0
M  V30 1372 N 131.551 -0.354651 -1.53558 0
M  V30 1373 C 132.828 0.294281 -1.93374 0
M  V30 1374 C 133.208 1.67313 -1.28723 0
M  V30 1375 O 132.556 2.24179 -0.442247 0
M  V30 1376 C 132.766 0.355445 -3.47185 0
M  V30 1377 C 134.114 0.601007 -4.20325 0
M  V30 1378 O 135.138 0.437106 -3.53508 0
M  V30 1379 O 133.997 0.919322 -5.38712 0
M  V30 1380 H 131.091 0.174033 -0.808481 0
M  V30 1381 H 133.637 -0.406638 -1.64756 0
M  V30 1382 H 132.409 -0.611729 -3.86489 0
M  V30 1383 H 132.032 1.1027 -3.82003 0
M  V30 1384 N 133.029 1.57378 -0.0835403 0
M  V30 1385 C 133.962 2.09016 0.915833 0
M  V30 1386 C 134.94 0.997993 1.2837 0
M  V30 1387 O 136.124 1.27219 1.39096 0
M  V30 1388 C 133.251 2.55757 2.22049 0
M  V30 1389 C 132.297 3.76522 2.00333 0
M  V30 1390 S 133.13 5.20661 1.25191 0
M  V30 1391 C 134.286 5.70743 2.56912 0
M  V30 1392 H 134.519 2.93457 0.476492 0
M  V30 1393 H 132.052 1.53856 0.129493 0
M  V30 1394 H 134.01 2.83346 2.97027 0
M  V30 1395 H 132.671 1.71564 2.63106 0
M  V30 1396 H 131.864 4.07256 2.96916 0
M  V30 1397 H 131.466 3.49367 1.33488 0
M  V30 1398 H 133.758 5.78304 3.52946 0
M  V30 1399 H 134.701 6.6944 2.30772 0
M  V30 1400 H 135.109 4.98616 2.64655 0
M  V30 1401 N 134.507 -0.190092 1.56449 0
M  V30 1402 C 135.784 -0.935886 1.71757 0
M  V30 1403 C 136.164 -2.01173 0.639726 0
M  V30 1404 O 135.512 -2.25827 -0.348502 0
M  V30 1405 C 135.722 -1.51775 3.1427 0
M  V30 1406 C 137.07 -1.99794 3.74656 0
M  V30 1407 O 138.094 -1.61607 3.1743 0
M  V30 1408 O 136.953 -2.70079 4.751 0
M  V30 1409 H 134.047 -0.439229 0.700719 0
M  V30 1410 H 136.593 -0.179395 1.68749 0
M  V30 1411 H 135.365 -0.742505 3.84191 0
M  V30 1412 H 134.988 -2.33894 3.21527 0
M  V30 1413 N 135.985 -1.50799 -0.457987 0
M  V30 1414 C 136.917 -1.66786 -1.57211 0
M  V30 1415 C 137.93 -0.548962 -1.53265 0
M  V30 1416 O 139.119 -0.8226 -1.58416 0
M  V30 1417 C 136.219 -1.64834 -2.96113 0
M  V30 1418 C 135.392 -2.92971 -3.24787 0
M  V30 1419 C 134.451 -2.83485 -4.43309 0
M  V30 1420 O 133.477 -3.5744 -4.42973 0
M  V30 1421 N 134.679 -1.97929 -5.45714 0
M  V30 1422 H 137.444 -2.62889 -1.43909 0
M  V30 1423 H 135.005 -1.48427 -0.646617 0
M  V30 1424 H 136.997 -1.56084 -3.7339 0
M  V30 1425 H 135.567 -0.764118 -3.03117 0
M  V30 1426 H 134.787 -3.15749 -2.36 0
M  V30 1427 H 136.075 -3.77834 -3.40762 0
M  V30 1428 H 135.473 -1.37182 -5.48815 0
M  V30 1429 H 134.03 -1.95073 -6.21924 0
M  V30 1430 N 137.463 0.71206 -1.40597 0
M  V30 1431 C 138.393 1.83889 -1.43899 0
M  V30 1432 C 139.374 1.67442 -0.299504 0
M  V30 1433 O 140.559 1.87421 -0.508624 0
M  V30 1434 C 137.689 3.21877 -1.30431 0
M  V30 1435 C 136.643 3.53002 -2.42019 0
M  V30 1436 C 135.969 4.90172 -2.13626 0
M  V30 1437 C 137.269 3.53643 -3.84362 0
M  V30 1438 H 138.963 1.81383 -2.38203 0
M  V30 1439 H 136.509 0.871237 -1.14654 0
M  V30 1440 H 138.462 4.00404 -1.31357 0
M  V30 1441 H 137.186 3.24968 -0.326049 0
M  V30 1442 H 135.845 2.76818 -2.40349 0
M  V30 1443 H 135.493 4.89869 -1.14182 0
M  V30 1444 H 135.193 5.11962 -2.88389 0
M  V30 1445 H 136.717 5.71028 -2.1624 0
M  V30 1446 H 138.131 4.22203 -3.87837 0
M  V30 1447 H 136.528 3.86961 -4.58673 0
M  V30 1448 H 137.598 2.52954 -4.13693 0
M  V30 1449 N 138.941 1.26152 0.944643 0
M  V30 1450 C 140.218 1.02247 1.66748 0
M  V30 1451 C 140.598 -0.448202 2.06287 0
M  V30 1452 O 139.946 -1.42779 1.78399 0
M  V30 1453 C 140.156 1.96788 2.88228 0
M  V30 1454 C 141.504 2.25201 3.59958 0
M  V30 1455 O 142.528 1.94626 2.98327 0
M  V30 1456 O 141.387 2.77242 4.70956 0
M  V30 1457 H 138.481 0.388517 0.730057 0
M  V30 1458 H 141.027 1.37348 0.99668 0
M  V30 1459 H 139.799 2.96047 2.55875 0
M  V30 1460 H 139.422 1.62145 3.63035 0
M  V30 1461 N 140.419 -1.14872 1.07899 0
M  V30 1462 C 141.696 -1.81928 0.71845 0
M  V30 1463 C 142.076 -1.95417 -0.798455 0
M  V30 1464 O 141.424 -1.50997 -1.715 0
M  V30 1465 C 141.634 -3.17937 1.43935 0
M  V30 1466 C 142.982 -3.93501 1.59506 0
M  V30 1467 O 144.006 -3.27509 1.40058 0
M  V30 1468 O 142.865 -5.1183 1.91551 0
M  V30 1469 H 139.959 -0.78628 0.256305 0
M  V30 1470 H 142.505 -1.21934 1.18026 0
M  V30 1471 H 141.277 -3.0325 2.47295 0
M  V30 1472 H 140.9 -3.85619 0.968687 0
M  V30 1473 N 141.898 -0.863906 -1.31812 0
M  V30 1474 C 143.146 -0.470904 -1.96537 0
M  V30 1475 C 143.467 0.978771 -1.68657 0
M  V30 1476 O 142.737 1.6853 -0.998717 0
M  V30 1477 H 141.317 -0.171148 -0.72713 0
M  V30 1478 H 143.979 -1.10236 -1.60729 0
M  V30 1479 H 143.075 -0.623616 -3.05806 0
M  V30 1480 N 143.376 1.44774 -0.622745 0
M  V30 1481 C 144.601 2.06999 -0.128968 0
M  V30 1482 C 145.026 1.4617 1.1839 0
M  V30 1483 O 144.384 0.560007 1.72434 0
M  V30 1484 C 144.432 3.60595 -0.0188351 0
M  V30 1485 O 143.536 3.99398 1.02739 0
M  V30 1486 H 142.877 0.659047 -0.0809544 0
M  V30 1487 H 145.407 1.85784 -0.85705 0
M  V30 1488 H 145.417 4.07627 0.174476 0
M  V30 1489 H 144.092 4.04252 -0.977384 0
M  V30 1490 H 142.669 3.64011 0.809326 0
M  V30 1491 N 144.854 0.36279 1.53368 0
M  V30 1492 C 145.817 -0.472679 2.24273 0
M  V30 1493 C 146.817 -1.012 1.24961 0
M  V30 1494 O 148.007 -0.898194 1.49259 0
M  V30 1495 C 145.139 -1.66039 2.97731 0
M  V30 1496 H 146.332 0.14773 2.99536 0
M  V30 1497 H 143.885 0.114434 1.55881 0
M  V30 1498 H 144.62 -2.31896 2.26704 0
M  V30 1499 H 144.405 -1.28066 3.70596 0
M  V30 1500 H 145.895 -2.25252 3.51641 0
M  V30 1501 N 146.332 -1.57332 0.0918853 0
M  V30 1502 C 147.579 -1.94236 -0.572577 0
M  V30 1503 C 147.907 -0.973398 -1.6839 0
M  V30 1504 O 147.162 0.00756912 -1.95699 0
M  V30 1505 C 147.461 -3.37689 -1.17051 0
M  V30 1506 C 147.127 -4.50527 -0.183304 0
M  V30 1507 C 145.789 -4.81119 0.0882276 0
M  V30 1508 C 148.141 -5.18883 0.49095 0
M  V30 1509 C 145.469 -5.77395 1.04076 0
M  V30 1510 C 147.821 -6.1618 1.43193 0
M  V30 1511 C 146.485 -6.45179 1.71173 0
M  V30 1512 H 145.755 -0.710762 -0.209521 0
M  V30 1513 H 148.402 -1.9077 0.167036 0
M  V30 1514 H 146.707 -3.37718 -1.9863 0
M  V30 1515 H 148.404 -3.63543 -1.69227 0
M  V30 1516 H 144.994 -4.26681 -0.405124 0
M  V30 1517 H 149.178 -4.95427 0.294312 0
M  V30 1518 H 144.434 -5.98179 1.26457 0
M  V30 1519 H 148.608 -6.68243 1.96023 0
M  V30 1520 H 146.235 -7.1959 2.4514 0
M  V30 1521 N 147.81 0.181792 -1.56548 0
M  V30 1522 C 148.72 1.24538 -1.98815 0
M  V30 1523 C 149.736 1.49045 -0.897861 0
M  V30 1524 O 150.912 1.61399 -1.20467 0
M  V30 1525 C 147.977 2.56683 -2.33055 0
M  V30 1526 C 147.038 2.40131 -3.55859 0
M  V30 1527 C 146.271 3.65975 -3.88456 0
M  V30 1528 O 146.494 4.70711 -3.22161 0
M  V30 1529 O 145.428 3.6071 -4.81842 0
M  V30 1530 H 149.254 0.916647 -2.89536 0
M  V30 1531 H 146.839 0.387842 -1.44278 0
M  V30 1532 H 148.721 3.34655 -2.56094 0
M  V30 1533 H 147.396 2.89157 -1.45498 0
M  V30 1534 H 146.303 1.60226 -3.38051 0
M  V30 1535 H 147.636 2.12585 -4.43924 0
M  V30 1536 N 149.288 1.51039 0.449983 0
M  V30 1537 C 150.537 1.62317 1.19733 0
M  V30 1538 C 150.85 0.339101 1.92638 0
M  V30 1539 O 152.056 0.331069 2.69474 0
M  V30 1540 C 150.512 2.86608 2.17678 0
M  V30 1541 C 150.12 4.21972 1.50479 0
M  V30 1542 C 151.864 3.07239 2.92924 0
M  V30 1543 C 149.771 5.37426 2.46834 0
M  V30 1544 H 148.701 0.604532 0.450619 0
M  V30 1545 H 151.352 1.77494 0.465625 0
M  V30 1546 H 149.734 2.65037 2.94231 0
M  V30 1547 H 150.908 4.53878 0.795716 0
M  V30 1548 H 149.223 4.07117 0.874344 0
M  V30 1549 H 151.82 3.90668 3.65079 0
M  V30 1550 H 152.163 2.19807 3.5354 0
M  V30 1551 H 152.696 3.29091 2.23481 0
M  V30 1552 H 149.435 6.27079 1.90926 0
M  V30 1553 H 148.955 5.09912 3.15832 0
M  V30 1554 H 150.634 5.68862 3.08228 0
M  V30 1555 N 150.766 -0.704594 1.40972 0
M  V30 1556 C 152.014 -1.46169 1.39568 0
M  V30 1557 C 152.335 -1.95 0.00253745 0
M  V30 1558 O 151.605 -1.71095 -0.954114 0
M  V30 1559 H 150.185 -0.542326 0.513704 0
M  V30 1560 H 152.847 -0.834553 1.76128 0
M  V30 1561 H 151.943 -2.32922 2.07735 0
M  V30 1562 N 152.244 -1.26651 -0.937939 0
M  V30 1563 C 153.491 -1.12387 -1.6845 0
M  V30 1564 C 153.819 0.332208 -1.91642 0
M  V30 1565 O 153.074 1.2602 -1.49725 0
M  V30 1566 C 153.373 -1.84168 -3.06295 0
M  V30 1567 C 153.039 -3.34056 -3.02849 0
M  V30 1568 C 151.701 -3.74942 -3.01616 0
M  V30 1569 C 154.053 -4.29741 -2.9491 0
M  V30 1570 C 151.381 -5.09894 -2.90215 0
M  V30 1571 C 153.733 -5.64738 -2.8505 0
M  V30 1572 C 152.397 -6.0493 -2.82162 0
M  V30 1573 H 151.667 -0.411252 -0.616403 0
M  V30 1574 H 154.314 -1.57134 -1.09459 0
M  V30 1575 H 152.619 -1.319 -3.6893 0
M  V30 1576 H 154.316 -1.70569 -3.62915 0
M  V30 1577 H 150.906 -3.01534 -3.0459 0
M  V30 1578 H 155.09 -3.99133 -2.94969 0
M  V30 1579 H 150.346 -5.40194 -2.86358 0
M  V30 1580 H 154.52 -6.38561 -2.77872 0
M  V30 1581 H 152.147 -7.09457 -2.73084 0
M  V30 1582 N 153.722 1.14298 -1.08507 0
M  V30 1583 C 154.655 2.18447 -0.660004 0
M  V30 1584 C 155.633 1.59242 0.328749 0
M  V30 1585 O 156.817 1.87062 0.232367 0
M  V30 1586 C 153.944 3.38688 0.0290807 0
M  V30 1587 C 152.99 4.1646 -0.919982 0
M  V30 1588 S 153.823 4.77334 -2.42718 0
M  V30 1589 C 154.979 6.00931 -1.75024 0
M  V30 1590 H 155.212 2.54166 -1.54231 0
M  V30 1591 H 152.745 1.25446 -0.900149 0
M  V30 1592 H 154.703 4.08342 0.420378 0
M  V30 1593 H 153.364 3.01289 0.887895 0
M  V30 1594 H 152.557 5.02529 -0.384751 0
M  V30 1595 H 152.159 3.52414 -1.25223 0
M  V30 1596 H 154.451 6.69017 -1.06877 0
M  V30 1597 H 155.394 6.59044 -2.58971 0
M  V30 1598 H 155.802 5.51089 -1.22317 0
M  V30 1599 N 155.201 0.870884 1.31352 0
M  V30 1600 C 156.617 0.562932 1.49343 0
M  V30 1601 C 156.817 -0.902725 1.80148 0
M  V30 1602 O 155.873 -1.68484 1.88067 0
M  V30 1603 C 157.186 1.46393 2.62659 0
M  V30 1604 C 158.734 1.46607 2.76542 0
M  V30 1605 C 159.209 2.35266 3.92955 0
M  V30 1606 N 160.7 2.33151 4.00243 0
M  V30 1607 C 161.435 2.98471 4.89594 0
M  V30 1608 N 160.931 3.72964 5.8384 0
M  V30 1609 N 162.724 2.87775 4.82848 0
M  V30 1610 H 154.875 1.81923 1.09626 0
M  V30 1611 H 157.138 0.777934 0.541777 0
M  V30 1612 H 156.844 2.50689 2.46674 0
M  V30 1613 H 156.718 1.16314 3.58819 0
M  V30 1614 H 159.105 0.43069 2.9194 0
M  V30 1615 H 159.186 1.8071 1.81046 0
M  V30 1616 H 158.83 3.38881 3.78315 0
M  V30 1617 H 158.76 1.98487 4.87761 0
M  V30 1618 H 161.251 1.79006 3.32814 0
M  V30 1619 H 161.564 4.19932 6.4875 0
M  V30 1620 H 159.909 3.77073 5.83816 0
M  V30 1621 H 163.1 2.29116 4.08195 0
M  V30 1622 H 163.273 3.38961 5.52277 0
M  V30 1623 N 156.679 -1.44442 0.630414 0
M  V30 1624 C 157.642 -2.29107 -0.0652523 0
M  V30 1625 C 158.642 -1.41002 -0.772995 0
M  V30 1626 O 159.832 -1.62881 -0.617692 0
M  V30 1627 C 156.964 -3.22564 -1.10296 0
M  V30 1628 H 158.157 -2.92103 0.679401 0
M  V30 1629 H 155.71 -1.51343 0.390517 0
M  V30 1630 H 156.445 -2.64416 -1.87762 0
M  V30 1631 H 156.23 -3.87491 -0.59941 0
M  V30 1632 H 157.72 -3.86167 -1.5895 0
M  V30 1633 N 158.157 -0.370918 -1.53173 0
M  V30 1634 C 159.09 0.516727 -2.22273 0
M  V30 1635 C 160.068 1.07877 -1.21661 0
M  V30 1636 O 161.252 1.13389 -1.50583 0
M  V30 1637 C 158.379 1.71346 -2.92161 0
M  V30 1638 C 157.425 1.27838 -4.0689 0
M  V30 1639 S 158.258 0.275217 -5.34792 0
M  V30 1640 C 159.414 1.47816 -6.08195 0
M  V30 1641 H 159.647 -0.0701054 -2.97217 0
M  V30 1642 H 157.18 -0.155038 -1.5362 0
M  V30 1643 H 159.138 2.39988 -3.3304 0
M  V30 1644 H 157.799 2.27156 -2.16931 0
M  V30 1645 H 156.992 2.17141 -4.54825 0
M  V30 1646 H 156.594 0.671105 -3.6793 0
M  V30 1647 H 158.886 2.40831 -6.33251 0
M  V30 1648 H 159.829 1.04008 -7.0042 0
M  V30 1649 H 160.237 1.68663 -5.38714 0
M  V30 1650 N 159.635 1.57281 -0.100228 0
M  V30 1651 C 160.585 2.10848 0.86759 0
M  V30 1652 C 161.569 1.02473 1.24049 0
M  V30 1653 O 162.761 1.28739 1.21471 0
M  V30 1654 C 159.89 2.69648 2.12474 0
M  V30 1655 C 158.976 3.85074 1.77704 0
M  V30 1656 N 159.367 4.92897 1.13518 0
M  V30 1657 C 157.665 3.94905 2.07282 0
M  V30 1658 C 158.366 5.73475 0.974735 0
M  V30 1659 N 157.342 5.22675 1.4937 0
M  V30 1660 H 161.144 2.91594 0.367471 0
M  V30 1661 H 158.658 1.62074 0.102829 0
M  V30 1662 H 160.655 3.06356 2.82757 0
M  V30 1663 H 159.315 1.90359 2.63047 0
M  V30 1664 H 160.326 5.11662 0.801381 0
M  V30 1665 H 157.003 3.26633 2.60033 0
M  V30 1666 H 158.393 6.70238 0.472364 0
M  V30 1667 N 161.113 -0.173488 1.56642 0
M  V30 1668 C 162.06 -1.21482 1.96242 0
M  V30 1669 C 163.03 -1.44104 0.826027 0
M  V30 1670 O 164.215 -1.5688 1.08597 0
M  V30 1671 C 161.355 -2.54964 2.32567 0
M  V30 1672 C 160.468 -2.39739 3.59373 0
M  V30 1673 C 159.603 -3.66072 3.84921 0
M  V30 1674 C 158.642 -3.45771 5.05083 0
M  V30 1675 N 157.779 -4.64169 5.26775 0
M  V30 1676 H 162.619 -0.870123 2.85014 0
M  V30 1677 H 160.156 -0.418245 1.41029 0
M  V30 1678 H 162.114 -3.32758 2.5165 0
M  V30 1679 H 160.744 -2.87433 1.46908 0
M  V30 1680 H 159.796 -1.53131 3.48217 0
M  V30 1681 H 161.108 -2.20683 4.47326 0
M  V30 1682 H 160.262 -4.52303 4.0436 0
M  V30 1683 H 159.001 -3.88105 2.9534 0
M  V30 1684 H 158.006 -2.57927 4.85545 0
M  V30 1685 H 159.231 -3.25163 5.96193 0
M  V30 1686 H 157.177 -4.86425 4.40144 0
M  V30 1687 H 157.094 -4.48019 6.08946 0
M  V30 1688 H 158.362 -5.51689 5.5069 0
M  V30 1689 N 162.591 -1.51276 -0.441967 0
M  V30 1690 C 164.002 -1.56244 -1.02199 0
M  V30 1691 C 164.353 -0.383149 -1.92422 0
M  V30 1692 O 163.478 0.500613 -2.1053 0
M  V30 1693 C 164.073 -2.83162 -1.86024 0
M  V30 1694 C 162.632 -2.90716 -2.39084 0
M  V30 1695 C 161.779 -2.50858 -1.18175 0
M  V30 1696 H 164.73 -1.5712 -0.223416 0
M  V30 1697 H 164.751 -2.66663 -2.71425 0
M  V30 1698 H 164.263 -3.68974 -1.20331 0
M  V30 1699 H 162.364 -2.09323 -3.08244 0
M  V30 1700 H 162.477 -3.94266 -2.72198 0
M  V30 1701 H 160.841 -2.03951 -1.52565 0
M  V30 1702 H 161.624 -3.3901 -0.541001 0
M  V30 1703 N 164.069 0.697108 -1.41344 0
M  V30 1704 C 165.315 1.4593 -1.40827 0
M  V30 1705 C 165.648 1.94193 -0.0167098 0
M  V30 1706 O 164.923 1.69425 0.955263 0
M  V30 1707 C 165.206 2.67229 -2.41373 0
M  V30 1708 C 165.059 2.24741 -3.8963 0
M  V30 1709 C 166.378 3.69423 -2.39196 0
M  V30 1710 H 163.497 0.529303 -0.512842 0
M  V30 1711 H 166.139 0.794112 -1.72609 0
M  V30 1712 H 164.289 3.23982 -2.14401 0
M  V30 1713 H 165.961 1.73327 -4.27499 0
M  V30 1714 H 164.204 1.56542 -4.0457 0
M  V30 1715 H 164.875 3.1177 -4.55525 0
M  V30 1716 H 167.351 3.2234 -2.63128 0
M  V30 1717 H 166.227 4.51907 -3.11563 0
M  V30 1718 H 166.488 4.19012 -1.41001 0
M  V30 1719 N 165.547 1.27147 0.931209 0
M  V30 1720 C 166.796 1.12664 1.67302 0
M  V30 1721 C 167.109 -0.327718 1.92835 0
M  V30 1722 O 168.315 -0.593392 2.64936 0
M  V30 1723 C 166.771 1.9683 3.01307 0
M  V30 1724 C 166.379 3.46901 2.83485 0
M  V30 1725 C 168.123 1.90985 3.79111 0
M  V30 1726 C 166.03 4.23279 4.13024 0
M  V30 1727 H 164.96 0.41803 0.627509 0
M  V30 1728 H 167.611 1.51539 1.03481 0
M  V30 1729 H 165.993 1.50797 3.66164 0
M  V30 1730 H 167.167 4.00773 2.27415 0
M  V30 1731 H 165.482 3.54088 2.19113 0
M  V30 1732 H 168.079 2.45328 4.75098 0
M  V30 1733 H 168.422 0.882718 4.06834 0
M  V30 1734 H 168.955 2.34895 3.21044 0
M  V30 1735 H 165.694 5.26503 3.90481 0
M  V30 1736 H 165.214 3.74186 4.6877 0
M  V30 1737 H 166.893 4.32265 4.81411 0
M  V30 1738 N 167.025 -1.13721 1.09112 0
M  V30 1739 C 167.955 -2.21148 0.749385 0
M  V30 1740 C 168.936 -1.6792 -0.271475 0
M  V30 1741 O 170.121 -1.93693 -0.140251 0
M  V30 1742 C 167.251 -3.46905 0.165659 0
M  V30 1743 C 166.205 -4.13203 1.11567 0
M  V30 1744 C 165.531 -5.33248 0.393809 0
M  V30 1745 C 166.831 -4.60912 2.45678 0
M  V30 1746 H 168.525 -2.4999 1.64758 0
M  V30 1747 H 166.071 -1.20156 0.793626 0
M  V30 1748 H 168.024 -4.21313 -0.085466 0
M  V30 1749 H 166.748 -3.17449 -0.767714 0
M  V30 1750 H 165.407 -3.40758 1.35202 0
M  V30 1751 H 165.055 -5.00054 -0.543599 0
M  V30 1752 H 164.755 -5.78552 1.02721 0
M  V30 1753 H 166.279 -6.10413 0.150908 0
M  V30 1754 H 167.693 -5.26759 2.26269 0
M  V30 1755 H 166.09 -5.16944 3.04776 0
M  V30 1756 H 167.16 -3.75603 3.06677 0
M  V30 1757 N 168.503 -0.877838 -1.30888 0
M  V30 1758 C 169.749 -0.493426 -1.96706 0
M  V30 1759 C 170.082 0.953504 -1.6918 0
M  V30 1760 O 169.357 1.67266 -0.992594 0
M  V30 1761 C 169.64 -0.760429 -3.51979 0
M  V30 1762 C 169.493 -2.25747 -3.89048 0
M  V30 1763 C 170.812 -0.232148 -4.39487 0
M  V30 1764 H 167.931 -0.180746 -0.714493 0
M  V30 1765 H 170.573 -1.10052 -1.54882 0
M  V30 1766 H 168.723 -0.243715 -3.87735 0
M  V30 1767 H 170.395 -2.84204 -3.63354 0
M  V30 1768 H 168.638 -2.72694 -3.37373 0
M  V30 1769 H 169.309 -2.39491 -4.97341 0
M  V30 1770 H 171.785 -0.674314 -4.106 0
M  V30 1771 H 170.661 -0.448355 -5.47066 0
M  V30 1772 H 170.922 0.866297 -4.33529 0
M  V30 1773 N 169.982 1.44106 -0.638065 0
M  V30 1774 C 171.393 1.85316 -0.226894 0
M  V30 1775 C 171.744 1.53399 1.22324 0
M  V30 1776 O 170.869 0.975463 1.93167 0
M  V30 1777 C 171.464 3.3637 -0.405013 0
M  V30 1778 C 170.023 3.76369 -0.0482902 0
M  V30 1779 C 169.17 2.67921 -0.715108 0
M  V30 1780 H 172.121 1.34474 -0.842764 0
M  V30 1781 H 172.142 3.7885 0.354 0
M  V30 1782 H 171.654 3.59569 -1.46053 0
M  V30 1783 H 169.755 3.58784 1.00522 0
M  V30 1784 H 169.868 4.76856 -0.463187 0
M  V30 1785 H 168.232 2.54259 -0.149753 0
M  V30 1786 H 169.015 2.93951 -1.77335 0
M  V30 1787 N 171.46 0.379036 1.52974 0
M  V30 1788 C 172.707 -0.206421 2.01445 0
M  V30 1789 C 173.035 -1.47668 1.26587 0
M  V30 1790 O 172.29 -1.92514 0.351675 0
M  V30 1791 C 172.589 -0.53096 3.53434 0
M  V30 1792 C 172.255 0.646546 4.46241 0
M  V30 1793 C 170.917 0.969604 4.7133 0
M  V30 1794 C 173.269 1.43479 5.01062 0
M  V30 1795 C 170.597 2.08263 5.48492 0
M  V30 1796 C 172.949 2.53834 5.7944 0
M  V30 1797 C 171.613 2.86659 6.02812 0
M  V30 1798 H 170.883 -0.0755349 0.73714 0
M  V30 1799 H 173.53 0.514271 1.84465 0
M  V30 1800 H 171.835 -1.33285 3.68432 0
M  V30 1801 H 173.532 -0.996417 3.88423 0
M  V30 1802 H 170.122 0.384734 4.2687 0
M  V30 1803 H 174.306 1.19844 4.81613 0
M  V30 1804 H 169.562 2.34078 5.64816 0
M  V30 1805 H 173.736 3.15319 6.20924 0
M  V30 1806 H 171.363 3.73026 6.62387 0
M  V30 1807 N 172.938 -1.57226 0.108567 0
M  V30 1808 C 174.166 -1.99179 -0.559954 0
M  V30 1809 C 174.581 -0.988022 -1.60884 0
M  V30 1810 O 173.938 0.0205512 -1.82488 0
M  V30 1811 C 173.989 -3.41159 -1.19552 0
M  V30 1812 O 173.71 -4.37694 -0.188577 0
M  V30 1813 C 175.211 -3.98188 -1.94837 0
M  V30 1814 H 172.431 -0.654228 -0.149088 0
M  V30 1815 H 174.975 -2.03598 0.19183 0
M  V30 1816 H 173.13 -3.37711 -1.89815 0
M  V30 1817 H 173.544 -5.20469 -0.649014 0
M  V30 1818 H 175.018 -4.99644 -2.34648 0
M  V30 1819 H 175.495 -3.3675 -2.81951 0
M  V30 1820 H 176.101 -4.0515 -1.2936 0
M  V30 1821 N 174.416 0.165178 -1.56732 0
M  V30 1822 C 175.326 1.22423 -2.00125 0
M  V30 1823 C 176.342 1.48084 -0.913619 0
M  V30 1824 O 177.518 1.60112 -1.22172 0
M  V30 1825 C 174.583 2.54197 -2.35764 0
M  V30 1826 C 173.644 2.36343 -3.58386 0
M  V30 1827 C 172.877 3.61834 -3.92316 0
M  V30 1828 O 173.1 4.67267 -3.27135 0
M  V30 1829 O 172.034 3.55579 -4.85641 0
M  V30 1830 H 175.86 0.885886 -2.90492 0
M  V30 1831 H 173.445 0.372518 -1.44681 0
M  V30 1832 H 175.327 3.3192 -2.59629 0
M  V30 1833 H 174.002 2.87598 -1.48557 0
M  V30 1834 H 172.909 1.56632 -3.39731 0
M  V30 1835 H 174.242 2.07865 -4.46154 0
M  V30 1836 N 175.894 1.51508 0.433938 0
M  V30 1837 C 176.844 1.69451 1.52546 0
M  V30 1838 C 177.828 0.548474 1.51263 0
M  V30 1839 O 179.02 0.804529 1.57659 0
M  V30 1840 C 176.149 1.82604 2.90707 0
M  V30 1841 C 175.235 3.03002 2.96733 0
M  V30 1842 N 175.626 4.26121 2.72496 0
M  V30 1843 C 173.924 3.02327 3.27894 0
M  V30 1844 C 174.625 5.07407 2.84452 0
M  V30 1845 N 173.601 4.42126 3.16269 0
M  V30 1846 H 177.403 2.62305 1.32564 0
M  V30 1847 H 174.917 1.49202 0.641297 0
M  V30 1848 H 176.914 1.93569 3.69238 0
M  V30 1849 H 175.574 0.909339 3.11707 0
M  V30 1850 H 176.585 4.55009 2.4736 0
M  V30 1851 H 173.262 2.20301 3.54646 0
M  V30 1852 H 174.652 6.15422 2.69639 0
M  V30 1853 N 177.372 -0.689602 1.41712 0
M  V30 1854 C 178.783 -1.26973 1.36875 0
M  V30 1855 C 179.134 -1.96124 0.054748 0
M  V30 1856 O 178.259 -1.99141 -0.84687 0
M  V30 1857 C 178.854 -2.30912 2.47922 0
M  V30 1858 C 177.413 -2.84486 2.46464 0
M  V30 1859 C 176.56 -1.58603 2.27465 0
M  V30 1860 H 179.511 -0.48396 1.51141 0
M  V30 1861 H 179.532 -3.12331 2.17323 0
M  V30 1862 H 179.044 -1.80554 3.43543 0
M  V30 1863 H 177.145 -3.39005 1.54617 0
M  V30 1864 H 177.258 -3.34511 3.42986 0
M  V30 1865 H 175.622 -1.84632 1.75451 0
M  V30 1866 H 176.405 -1.10233 3.25121 0
M  V30 1867 N 178.85 -1.27639 -0.924453 0
M  V30 1868 C 179.76 -1.12466 -2.05885 0
M  V30 1869 C 180.776 -0.053869 -1.73917 0
M  V30 1870 O 181.952 -0.261012 -1.99702 0
M  V30 1871 C 179.017 -0.776768 -3.37886 0
M  V30 1872 C 178.078 -1.92878 -3.83532 0
M  V30 1873 C 177.311 -1.59739 -5.09234 0
M  V30 1874 O 177.534 -0.506782 -5.68144 0
M  V30 1875 O 176.468 -2.43761 -5.50331 0
M  V30 1876 H 180.294 -2.07671 -2.21599 0
M  V30 1877 H 177.879 -1.06857 -1.04413 0
M  V30 1878 H 179.761 -0.596229 -4.17161 0
M  V30 1879 H 178.436 0.145732 -3.23372 0
M  V30 1880 H 177.343 -2.1644 -3.0513 0
M  V30 1881 H 178.676 -2.8316 -4.02593 0
M  V30 1882 N 180.328 1.1314 -1.09713 0
M  V30 1883 C 181.275 2.18642 -0.739196 0
M  V30 1884 C 182.245 1.63706 0.280978 0
M  V30 1885 O 183.43 1.90111 0.161946 0
M  V30 1886 C 180.57 3.44685 -0.169102 0
M  V30 1887 C 179.683 4.13711 -1.24367 0
M  V30 1888 C 178.818 5.27379 -0.636019 0
M  V30 1889 C 177.857 5.88259 -1.69169 0
M  V30 1890 N 176.994 6.93352 -1.10485 0
M  V30 1891 H 181.834 2.48607 -1.64312 0
M  V30 1892 H 179.371 1.22066 -0.820875 0
M  V30 1893 H 181.329 4.16815 0.179256 0
M  V30 1894 H 179.959 3.15161 0.698079 0
M  V30 1895 H 179.011 3.39835 -1.70927 0
M  V30 1896 H 180.323 4.55037 -2.04311 0
M  V30 1897 H 179.477 6.06238 -0.236677 0
M  V30 1898 H 178.216 4.8731 0.194928 0
M  V30 1899 H 177.221 5.08092 -2.10055 0
M  V30 1900 H 178.446 6.30399 -2.52536 0
M  V30 1901 H 176.392 6.55335 -0.295234 0
M  V30 1902 H 176.309 7.33236 -1.84121 0
M  V30 1903 H 177.577 7.76057 -0.73181 0
M  V30 1904 N 181.806 0.884767 1.30421 0
M  V30 1905 C 182.716 0.355398 2.31892 0
M  V30 1906 C 183.732 -0.542261 1.65335 0
M  V30 1907 O 184.908 -0.435432 1.96637 0
M  V30 1908 C 181.973 -0.421661 3.44126 0
M  V30 1909 C 181.034 0.505727 4.26311 0
M  V30 1910 C 180.267 -0.234343 5.33185 0
M  V30 1911 O 180.49 -1.46045 5.51386 0
M  V30 1912 O 179.424 0.415443 6.00465 0
M  V30 1913 H 183.25 1.19685 2.79122 0
M  V30 1914 H 180.835 0.648596 1.34587 0
M  V30 1915 H 182.717 -0.861641 4.12497 0
M  V30 1916 H 181.392 -1.23942 2.99032 0
M  V30 1917 H 180.299 0.994513 3.60639 0
M  V30 1918 H 181.632 1.28948 4.75009 0
M  V30 1919 N 183.284 -1.43765 0.645699 0
M  V30 1920 C 184.231 -2.30745 -0.0504648 0
M  V30 1921 C 185.201 -1.4432 -0.822241 0
M  V30 1922 O 186.386 -1.73202 -0.800358 0
M  V30 1923 C 183.526 -3.29802 -1.0161 0
M  V30 1924 C 182.639 -4.31326 -0.241219 0
M  V30 1925 C 181.774 -5.17469 -1.19998 0
M  V30 1926 C 180.813 -6.10691 -0.415094 0
M  V30 1927 N 179.95 -6.89483 -1.32506 0
M  V30 1928 H 184.79 -2.8973 0.697155 0
M  V30 1929 H 182.327 -1.42738 0.355563 0
M  V30 1930 H 184.285 -3.85734 -1.58949 0
M  V30 1931 H 182.915 -2.72483 -1.73069 0
M  V30 1932 H 181.967 -3.77749 0.448334 0
M  V30 1933 H 183.279 -4.9743 0.369437 0
M  V30 1934 H 182.433 -5.7799 -1.84424 0
M  V30 1935 H 181.172 -4.51473 -1.84455 0
M  V30 1936 H 180.177 -5.49265 0.242565 0
M  V30 1937 H 181.402 -6.78727 0.224966 0
M  V30 1938 H 179.348 -6.26142 -1.95657 0
M  V30 1939 H 179.265 -7.52081 -0.768783 0
M  V30 1940 H 180.533 -7.54516 -1.9577 0
M  V30 1941 N 184.763 -0.387143 -1.52771 0
M  V30 1942 C 185.71 0.449048 -2.26389 0
M  V30 1943 C 186.68 1.05961 -1.27912 0
M  V30 1944 O 187.865 1.08804 -1.56737 0
M  V30 1945 C 185.005 1.57155 -3.0724 0
M  V30 1946 C 184.118 0.984066 -4.20643 0
M  V30 1947 C 183.253 2.07745 -4.88892 0
M  V30 1948 C 182.292 1.46574 -5.94292 0
M  V30 1949 N 181.429 2.49834 -6.56146 0
M  V30 1950 H 186.269 -0.185205 -2.97424 0
M  V30 1951 H 183.806 -0.103164 -1.46738 0
M  V30 1952 H 185.764 2.23309 -3.52405 0
M  V30 1953 H 184.394 2.17615 -2.38419 0
M  V30 1954 H 183.446 0.212193 -3.79808 0
M  V30 1955 H 184.758 0.497029 -4.96318 0
M  V30 1956 H 183.912 2.81673 -5.3735 0
M  V30 1957 H 182.651 2.59807 -4.12737 0
M  V30 1958 H 181.656 0.711696 -5.45174 0
M  V30 1959 H 182.881 0.953088 -6.72379 0
M  V30 1960 H 180.827 3.0107 -5.82832 0
M  V30 1961 H 180.744 2.05879 -7.27427 0
M  V30 1962 H 182.012 3.23399 -7.09249 0
M  V30 1963 N 186.241 1.57166 -0.116904 0
M  V30 1964 C 187.174 2.10912 0.871291 0
M  V30 1965 C 188.152 1.025 1.26224 0
M  V30 1966 O 189.336 1.3014 1.36366 0
M  V30 1967 C 186.463 2.6041 2.16574 0
M  V30 1968 C 185.509 3.80687 1.92302 0
M  V30 1969 S 186.342 5.23199 1.14119 0
M  V30 1970 C 187.498 5.76064 2.44748 0
M  V30 1971 H 187.731 2.94401 0.414138 0
M  V30 1972 H 185.264 1.54096 0.096829 0
M  V30 1973 H 187.222 2.89583 2.9095 0
M  V30 1974 H 185.883 1.77106 2.59408 0
M  V30 1975 H 185.076 4.13462 2.8821 0
M  V30 1976 H 184.678 3.5212 1.26047 0
M  V30 1977 H 186.97 5.8566 3.406 0
M  V30 1978 H 187.913 6.74184 2.16521 0
M  V30 1979 H 188.321 5.04117 2.54019 0
M  V30 1980 N 187.719 -0.156864 1.56817 0
M  V30 1981 C 188.667 -1.21319 1.98455 0
M  V30 1982 C 189.661 -1.45025 0.875444 0
M  V30 1983 O 190.867 -1.45435 1.0606 0
M  V30 1984 H 187.242 -0.408142 0.631605 0
M  V30 1985 H 189.213 -0.835244 2.86472 0
M  V30 1986 C 187.962 -2.54148 2.37285 0
M  V30 1987 H 187.285 -2.36733 3.22176 0
M  V30 1988 H 188.725 -3.26712 2.70251 0
M  V30 1989 C 187.184 -3.13967 1.22173 0
M  V30 1990 O 187.714 -3.98357 0.517149 0
M  V30 1991 N 185.92 -2.7327 0.988536 0
M  V30 1992 H 185.467 -2.04744 1.56326 0
M  V30 1993 H 185.425 -3.13628 0.220209 0
M  V30 1994 N 189.197 -1.51736 -0.425897 0
M  V30 1995 C 190.127 -1.76827 -1.52494 0
M  V30 1996 C 191.108 -0.618524 -1.58456 0
M  V30 1997 O 192.293 -0.862416 -1.74 0
M  V30 1998 C 189.423 -1.90374 -2.90474 0
M  V30 1999 C 188.377 -3.0588 -2.99369 0
M  V30 2000 C 187.703 -3.04625 -4.3944 0
M  V30 2001 C 189.003 -4.45644 -2.72394 0
M  V30 2002 H 190.697 -2.68855 -1.31748 0
M  V30 2003 H 188.243 -1.29372 -0.632362 0
M  V30 2004 H 190.196 -2.0651 -3.6733 0
M  V30 2005 H 188.92 -0.95004 -3.12477 0
M  V30 2006 H 187.579 -2.89467 -2.24954 0
M  V30 2007 H 187.227 -2.0701 -4.58428 0
M  V30 2008 H 186.927 -3.82195 -4.46319 0
M  V30 2009 H 188.451 -3.22869 -5.18255 0
M  V30 2010 H 189.865 -4.62348 -3.38979 0
M  V30 2011 H 188.262 -5.25006 -2.9067 0
M  V30 2012 H 189.332 -4.54893 -1.67929 0
M  V30 2013 N 190.675 0.682077 -1.42076 0
M  V30 2014 C 191.608 1.80666 -1.3941 0
M  V30 2015 C 192.586 1.60518 -0.25939 0
M  V30 2016 O 193.77 1.83088 -0.448456 0
M  V30 2017 C 190.897 3.17556 -1.17796 0
M  V30 2018 C 189.943 3.56468 -2.34164 0
M  V30 2019 S 190.776 3.59729 -3.96681 0
M  V30 2020 C 191.932 4.99323 -3.77395 0
M  V30 2021 H 192.165 1.82652 -2.34575 0
M  V30 2022 H 189.698 0.852062 -1.2876 0
M  V30 2023 H 191.656 3.96575 -1.06012 0
M  V30 2024 H 190.317 3.13164 -0.242279 0
M  V30 2025 H 189.51 4.5595 -2.1477 0
M  V30 2026 H 189.112 2.84792 -2.42425 0
M  V30 2027 H 191.404 5.87202 -3.37935 0
M  V30 2028 H 192.347 5.23763 -4.76527 0
M  V30 2029 H 192.755 4.71498 -3.10403 0
M  V30 2030 N 192.153 1.28127 0.917671 0
M  V30 2031 C 193.402 1.14432 1.66097 0
M  V30 2032 C 193.715 -0.307247 1.93172 0
M  V30 2033 O 194.921 -0.565259 2.65551 0
M  V30 2034 C 193.377 2.00015 2.99202 0
M  V30 2035 C 192.985 3.49889 2.79789 0
M  V30 2036 C 194.729 1.94996 3.77064 0
M  V30 2037 C 192.636 4.27636 4.08511 0
M  V30 2038 H 191.566 0.424662 0.62304 0
M  V30 2039 H 194.217 1.52628 1.01868 0
M  V30 2040 H 192.599 1.54672 3.64544 0
M  V30 2041 H 193.773 4.03162 2.23152 0
M  V30 2042 H 192.088 3.56392 2.15345 0
M  V30 2043 H 194.685 2.50354 4.72469 0
M  V30 2044 H 195.028 0.925819 4.05875 0
M  V30 2045 H 195.561 2.38287 3.18534 0
M  V30 2046 H 192.3 5.30615 3.84874 0
M  V30 2047 H 191.82 3.79137 4.64774 0
M  V30 2048 H 193.499 4.37346 4.76799 0
M  V30 2049 N 193.631 -1.12557 1.10312 0
M  V30 2050 C 194.594 -2.16434 0.75424 0
M  V30 2051 C 195.594 -1.59278 -0.220685 0
M  V30 2052 O 196.784 -1.742 0.00230591 0
M  V30 2053 C 193.916 -3.40699 0.116987 0
M  V30 2054 H 195.109 -2.48811 1.67431 0
M  V30 2055 H 192.662 -1.27542 0.903475 0
M  V30 2056 H 193.397 -3.13921 -0.813877 0
M  V30 2057 H 193.182 -3.83459 0.818613 0
M  V30 2058 H 194.672 -4.17451 -0.111387 0
M  V30 2059 N 195.109 -0.891671 -1.2995 0
M  V30 2060 C 196.041 -0.320695 -2.26945 0
M  V30 2061 C 197.054 0.528497 -1.53983 0
M  V30 2062 O 198.243 0.346959 -1.75096 0
M  V30 2063 C 195.343 0.562066 -3.34207 0
M  V30 2064 C 194.516 -0.259576 -4.36629 0
M  V30 2065 C 193.575 0.554739 -5.23268 0
M  V30 2066 O 192.601 -0.0249311 -5.69195 0
M  V30 2067 N 193.803 1.8625 -5.4981 0
M  V30 2068 H 196.568 -1.15432 -2.76578 0
M  V30 2069 H 194.129 -0.755336 -1.432 0
M  V30 2070 H 196.121 1.11304 -3.89093 0
M  V30 2071 H 194.691 1.29637 -2.84452 0
M  V30 2072 H 193.911 -0.991986 -3.81514 0
M  V30 2073 H 195.199 -0.822564 -5.02107 0
M  V30 2074 H 194.597 2.35628 -5.14292 0
M  V30 2075 H 193.154 2.36078 -6.07545 0
M  V30 2076 N 196.587 1.43421 -0.653314 0
M  V30 2077 C 197.835 2.01414 -0.166415 0
M  V30 2078 C 198.156 1.51803 1.22397 0
M  V30 2079 O 197.426 0.730693 1.81763 0
M  V30 2080 H 196.006 0.744703 -0.0585319 0
M  V30 2081 H 198.668 1.75629 -0.845003 0
M  V30 2082 H 197.764 3.11734 -0.151111 0
M  V30 2083 N 198.065 0.39524 1.52563 0
M  V30 2084 C 199.311 -0.185318 2.01952 0
M  V30 2085 C 199.644 -1.45964 1.28095 0
M  V30 2086 O 198.919 -1.90689 0.38315 0
M  V30 2087 C 199.202 -0.447193 3.57312 0
M  V30 2088 C 199.055 0.842828 4.41833 0
M  V30 2089 C 200.374 -1.23529 4.22408 0
M  V30 2090 H 197.493 -0.0658788 0.73405 0
M  V30 2091 H 200.135 0.525975 1.82575 0
M  V30 2092 H 198.285 -1.05312 3.73954 0
M  V30 2093 H 199.957 1.4795 4.36931 0
M  V30 2094 H 198.2 1.45686 4.08605 0
M  V30 2095 H 198.871 0.614165 5.48573 0
M  V30 2096 H 201.347 -0.722445 4.0978 0
M  V30 2097 H 200.223 -1.38727 5.3108 0
M  V30 2098 H 200.484 -2.25213 3.80436 0
M  V30 2099 N 199.544 -1.57102 0.125237 0
M  V30 2100 C 200.772 -1.99761 -0.538797 0
M  V30 2101 C 201.187 -1.00503 -1.59827 0
M  V30 2102 O 200.544 0.00119474 -1.825 0
M  V30 2103 C 200.595 -3.42408 -1.15927 0
M  V30 2104 O 200.316 -4.37869 -0.142143 0
M  V30 2105 C 201.817 -4.00232 -1.90602 0
M  V30 2106 H 199.037 -0.655772 -0.14214 0
M  V30 2107 H 201.581 -2.03383 0.213413 0
M  V30 2108 H 199.736 -3.39706 -1.86223 0
M  V30 2109 H 200.15 -5.21128 -0.593775 0
M  V30 2110 H 201.624 -5.02105 -2.29335 0
M  V30 2111 H 202.101 -3.39721 -2.78363 0
M  V30 2112 H 202.707 -4.06499 -1.25055 0
M  V30 2113 N 201.022 0.148545 -1.56898 0
M  V30 2114 C 202.25 0.876389 -1.87422 0
M  V30 2115 C 202.665 1.74809 -0.713256 0
M  V30 2116 O 202.022 1.79725 0.317025 0
M  V30 2117 C 202.073 1.73438 -3.17178 0
M  V30 2118 O 201.794 0.897809 -4.28802 0
M  V30 2119 C 203.295 2.56993 -3.61205 0
M  V30 2120 H 200.515 0.253489 -0.621277 0
M  V30 2121 H 203.059 0.141798 -2.04008 0
M  V30 2122 H 201.214 2.42205 -3.0235 0
M  V30 2123 H 201.628 1.48672 -5.02988 0
M  V30 2124 H 203.102 3.12773 -4.54838 0
M  V30 2125 H 203.579 3.32958 -2.86419 0
M  V30 2126 H 204.185 1.9352 -3.78722 0
M  V30 2127 N 202.5 1.5196 0.417844 0
M  V30 2128 C 203.749 1.6482 1.16264 0
M  V30 2129 C 204.062 0.379886 1.91876 0
M  V30 2130 O 205.268 0.388154 2.68711 0
M  V30 2131 C 203.724 2.91161 2.1155 0
M  V30 2132 C 203.332 4.25068 1.41495 0
M  V30 2133 C 205.076 3.13383 2.86341 0
M  V30 2134 C 202.983 5.42541 2.35379 0
M  V30 2135 H 201.913 0.613954 0.437694 0
M  V30 2136 H 204.564 1.78442 0.427871 0
M  V30 2137 H 202.946 2.71218 2.88543 0
M  V30 2138 H 204.12 4.55463 0.699263 0
M  V30 2139 H 202.435 4.0888 0.787792 0
M  V30 2140 H 205.032 3.98324 3.5671 0
M  V30 2141 H 205.375 2.27256 3.48798 0
M  V30 2142 H 205.908 3.33757 2.1645 0
M  V30 2143 H 202.647 6.30987 1.77582 0
M  V30 2144 H 202.167 5.16497 3.04945 0
M  V30 2145 H 203.846 5.75272 2.96093 0
M  V30 2146 N 203.978 -0.674533 1.42435 0
M  V30 2147 C 205.227 -1.43034 1.42212 0
M  V30 2148 C 205.54 -1.95555 0.0420788 0
M  V30 2149 O 206.746 -2.71374 -0.0827558 0
M  V30 2150 C 205.202 -2.58748 2.50155 0
M  V30 2151 C 204.81 -2.12925 3.94166 0
M  V30 2152 C 206.554 -3.36257 2.59098 0
M  V30 2153 C 204.461 -3.25723 4.93618 0
M  V30 2154 H 203.391 -0.537345 0.528939 0
M  V30 2155 H 206.042 -0.73024 1.68344 0
M  V30 2156 H 204.424 -3.31128 2.17188 0
M  V30 2157 H 205.598 -1.47697 4.36488 0
M  V30 2158 H 203.913 -1.48354 3.89076 0
M  V30 2159 H 206.51 -4.20264 3.30578 0
M  V30 2160 H 206.853 -3.82866 1.63461 0
M  V30 2161 H 207.386 -2.70947 2.9126 0
M  V30 2162 H 204.125 -2.84105 5.90732 0
M  V30 2163 H 203.645 -3.89732 4.55926 0
M  V30 2164 H 205.324 -3.91186 5.15347 0
M  V30 2165 N 205.456 -1.28612 -0.910864 0
M  V30 2166 C 206.733 -1.06632 -1.63979 0
M  V30 2167 C 207.113 0.393351 -2.07403 0
M  V30 2168 O 206.461 1.37999 -1.82122 0
M  V30 2169 C 206.671 -2.0436 -2.8291 0
M  V30 2170 C 208.019 -2.34666 -3.5386 0
M  V30 2171 O 209.043 -2.02467 -2.93062 0
M  V30 2172 O 207.902 -2.89631 -4.63439 0
M  V30 2173 H 204.996 -0.407737 -0.7195 0
M  V30 2174 H 207.542 -1.39942 -0.959914 0
M  V30 2175 H 206.314 -3.02727 -2.47936 0
M  V30 2176 H 205.937 -1.71714 -3.58609 0
M  V30 2177 N 206.934 1.1197 -1.10907 0
M  V30 2178 C 208.182 1.83225 -0.852819 0
M  V30 2179 C 208.503 1.84769 0.623341 0
M  V30 2180 O 207.773 1.3143 1.45269 0
M  V30 2181 H 206.353 0.67849 -0.312507 0
M  V30 2182 H 209.015 1.3556 -1.40033 0
M  V30 2183 H 208.111 2.87265 -1.22005 0
M  V30 2184 N 208.412 0.89855 1.29475 0
M  V30 2185 C 209.36 0.365253 2.29714 0
M  V30 2186 C 210.354 -0.534993 1.6073 0
M  V30 2187 O 211.56 -0.417921 1.75081 0
M  V30 2188 H 207.935 0.0994853 0.74539 0
M  V30 2189 H 209.906 1.22406 2.72138 0
M  V30 2190 C 208.655 -0.393159 3.4547 0
M  V30 2191 H 207.978 0.290332 3.98744 0
M  V30 2192 H 209.418 -0.731189 4.17648 0
M  V30 2193 C 207.877 -1.59539 2.9673 0
M  V30 2194 O 208.407 -2.69469 2.97908 0
M  V30 2195 N 206.613 -1.43716 2.52575 0
M  V30 2196 H 206.16 -0.542828 2.51816 0
M  V30 2197 H 206.118 -2.24288 2.20323 0
M  V30 2198 N 209.89 -1.43072 0.660911 0
M  V30 2199 C 211.118 -2.06067 0.185422 0
M  V30 2200 C 211.533 -1.49582 -1.15198 0
M  V30 2201 O 210.89 -0.630134 -1.71276 0
M  V30 2202 C 210.941 -3.61371 0.0966523 0
M  V30 2203 O 210.662 -4.15758 1.38119 0
M  V30 2204 C 212.163 -4.41455 -0.403996 0
M  V30 2205 H 209.383 -0.664459 0.0934604 0
M  V30 2206 H 211.927 -1.83447 0.90373 0
M  V30 2207 H 210.082 -3.8315 -0.572259 0
M  V30 2208 H 210.496 -5.09499 1.24542 0
M  V30 2209 H 211.97 -5.50437 -0.415045 0
M  V30 2210 H 212.447 -4.15036 -1.43674 0
M  V30 2211 H 213.053 -4.24663 0.232691 0
M  V30 2212 N 211.368 -0.403325 -1.52352 0
M  V30 2213 C 212.278 0.432009 -2.30588 0
M  V30 2214 C 213.294 1.05884 -1.38075 0
M  V30 2215 O 214.47 1.06161 -1.71148 0
M  V30 2216 C 211.535 1.53669 -3.10784 0
M  V30 2217 C 210.596 0.933525 -4.19027 0
M  V30 2218 C 209.829 1.98557 -4.9539 0
M  V30 2219 O 210.052 3.20283 -4.71991 0
M  V30 2220 O 208.986 1.59504 -5.80381 0
M  V30 2221 H 212.812 -0.205739 -3.03002 0
M  V30 2222 H 210.397 -0.166675 -1.48467 0
M  V30 2223 H 212.279 2.17814 -3.60742 0
M  V30 2224 H 210.954 2.15915 -2.41169 0
M  V30 2225 H 209.861 0.254954 -3.7323 0
M  V30 2226 H 211.194 0.35508 -4.90918 0
M  V30 2227 N 212.846 1.57033 -0.133567 0
M  V30 2228 C 214.093 1.95686 0.520877 0
M  V30 2229 C 214.421 1.0177 1.6575 0
M  V30 2230 O 213.676 0.0443195 1.9565 0
M  V30 2231 C 213.975 3.40674 1.08057 0
M  V30 2232 C 213.641 4.50855 0.0637899 0
M  V30 2233 C 212.303 4.80716 -0.215757 0
M  V30 2234 C 214.655 5.17398 -0.62835 0
M  V30 2235 C 211.983 5.74433 -1.19348 0
M  V30 2236 C 214.335 6.12167 -1.5948 0
M  V30 2237 C 212.999 6.40414 -1.88218 0
M  V30 2238 H 212.269 0.716067 0.190602 0
M  V30 2239 H 214.916 1.9026 -0.217556 0
M  V30 2240 H 213.221 3.42865 1.89606 0
M  V30 2241 H 214.918 3.67902 1.59529 0
M  V30 2242 H 211.508 4.27605 0.291855 0
M  V30 2243 H 215.692 4.94472 -0.425562 0
M  V30 2244 H 210.948 5.94616 -1.42272 0
M  V30 2245 H 215.122 6.6281 -2.13671 0
M  V30 2246 H 212.749 7.12838 -2.64133 0
M  V30 2247 N 214.325 -0.140222 1.56975 0
M  V30 2248 C 215.235 -1.19223 2.02047 0
M  V30 2249 C 216.251 -1.46612 0.937062 0
M  V30 2250 O 217.427 -1.58148 1.24704 0
M  V30 2251 C 214.492 -2.50414 2.39778 0
M  V30 2252 C 213.553 -2.30612 3.621 0
M  V30 2253 C 212.786 -3.55547 3.98023 0
M  V30 2254 O 213.009 -4.62004 3.34528 0
M  V30 2255 O 211.943 -3.47808 4.91237 0
M  V30 2256 H 215.769 -0.839559 2.91865 0
M  V30 2257 H 213.354 -0.349453 1.45256 0
M  V30 2258 H 215.236 -3.27747 2.64877 0
M  V30 2259 H 213.911 -2.85198 1.53114 0
M  V30 2260 H 212.818 -1.51207 3.4218 0
M  V30 2261 H 214.151 -2.00741 4.49404 0
M  V30 2262 N 215.803 -1.52179 -0.40978 0
M  V30 2263 C 216.75 -1.75475 -1.49924 0
M  V30 2264 C 217.72 -0.597175 -1.54994 0
M  V30 2265 O 218.905 -0.834655 -1.71575 0
M  V30 2266 C 216.045 -1.9107 -2.87378 0
M  V30 2267 C 215.158 -3.18717 -2.91622 0
M  V30 2268 C 214.293 -3.24747 -4.20372 0
M  V30 2269 C 213.332 -4.46598 -4.18588 0
M  V30 2270 N 212.469 -4.50025 -5.38908 0
M  V30 2271 H 217.309 -2.68458 -1.29361 0
M  V30 2272 H 214.846 -1.33024 -0.627934 0
M  V30 2273 H 216.804 -1.98096 -3.6717 0
M  V30 2274 H 215.434 -1.01469 -3.06437 0
M  V30 2275 H 214.486 -3.20866 -2.04326 0
M  V30 2276 H 215.798 -4.08544 -2.86169 0
M  V30 2277 H 214.952 -3.30841 -5.08556 0
M  V30 2278 H 213.691 -2.32857 -4.28519 0
M  V30 2279 H 212.696 -4.40652 -3.28794 0
M  V30 2280 H 213.921 -5.39783 -4.12081 0
M  V30 2281 H 211.867 -3.61017 -5.47725 0
M  V30 2282 H 211.784 -5.33697 -5.35447 0
M  V30 2283 H 213.052 -4.60347 -6.29048 0
M  V30 2284 N 217.281 0.66697 -1.42791 0
M  V30 2285 C 218.211 1.79218 -1.49677 0
M  V30 2286 C 219.192 1.66405 -0.352623 0
M  V30 2287 O 220.377 1.85708 -0.567993 0
M  V30 2288 C 217.507 3.17565 -1.40605 0
M  V30 2289 C 216.461 3.45124 -2.53127 0
M  V30 2290 C 215.787 4.83127 -2.29112 0
M  V30 2291 C 217.087 3.41236 -3.95418 0
M  V30 2292 H 218.781 1.73713 -2.43853 0
M  V30 2293 H 216.327 0.83432 -1.17367 0
M  V30 2294 H 218.28 3.96022 -1.44029 0
M  V30 2295 H 217.004 3.23767 -0.429271 0
M  V30 2296 H 215.663 2.69031 -2.49034 0
M  V30 2297 H 215.311 4.85988 -1.29709 0
M  V30 2298 H 215.011 5.02528 -3.04531 0
M  V30 2299 H 216.535 5.63859 -2.34297 0
M  V30 2300 H 217.949 4.09651 -4.01073 0
M  V30 2301 H 216.346 3.72173 -4.70752 0
M  V30 2302 H 217.416 2.39665 -4.21532 0
M  V30 2303 N 218.759 1.29093 0.90403 0
M  V30 2304 C 219.722 1.1386 1.98919 0
M  V30 2305 C 220.722 0.0753457 1.60623 0
M  V30 2306 O 221.912 0.321931 1.71199 0
M  V30 2307 C 219.044 0.740198 3.32767 0
M  V30 2308 H 220.237 2.10246 2.13861 0
M  V30 2309 H 217.79 1.12218 1.08797 0
M  V30 2310 H 218.525 -0.223997 3.23525 0
M  V30 2311 H 218.31 1.50838 3.61926 0
M  V30 2312 H 219.8 0.656546 4.12407 0
M  V30 2313 N 220.237 -1.11381 1.11499 0
M  V30 2314 C 221.514 -1.7955 0.775965 0
M  V30 2315 C 221.894 -1.97859 -0.73588 0
M  V30 2316 O 221.242 -1.56376 -1.66609 0
M  V30 2317 C 221.452 -3.13196 1.53977 0
M  V30 2318 C 222.8 -3.88227 1.71944 0
M  V30 2319 O 223.824 -3.22887 1.50407 0
M  V30 2320 O 222.683 -5.05477 2.07738 0
M  V30 2321 H 219.777 -0.777728 0.28119 0
M  V30 2322 H 222.323 -1.18118 1.21845 0
M  V30 2323 H 221.095 -2.95229 2.56818 0
M  V30 2324 H 220.718 -3.82342 1.09088 0
M  V30 2325 N 221.715 -0.905404 -1.28997 0
M  V30 2326 C 222.945 -0.549049 -1.99171 0
M  V30 2327 C 223.353 0.87203 -1.67906 0
M  V30 2328 O 222.696 1.58796 -0.923561 0
M  V30 2329 C 222.758 -0.668306 -3.53234 0
M  V30 2330 C 222.422 -2.0574 -4.08069 0
M  V30 2331 C 223.419 -3.0292 -4.22534 0
M  V30 2332 C 221.104 -2.36833 -4.42962 0
M  V30 2333 C 223.098 -4.29314 -4.71135 0
M  V30 2334 C 220.785 -3.63467 -4.91258 0
M  V30 2335 C 221.783 -4.59522 -5.053 0
M  V30 2336 O 221.471 -5.83907 -5.52546 0
M  V30 2337 H 221.203 -0.208784 -0.64295 0
M  V30 2338 H 223.757 -1.21836 -1.65363 0
M  V30 2339 H 221.987 0.0580547 -3.86656 0
M  V30 2340 H 223.676 -0.320273 -4.04634 0
M  V30 2341 H 224.442 -2.80216 -3.95859 0
M  V30 2342 H 220.321 -1.62824 -4.31288 0
M  V30 2343 H 223.865 -5.04293 -4.8201 0
M  V30 2344 H 219.762 -3.86 -5.17372 0
M  V30 2345 H 220.53 -5.86578 -5.70849 0
M  V30 2346 N 223.193 1.4272 -0.668489 0
M  V30 2347 C 224.141 2.32586 0.0254857 0
M  V30 2348 C 225.135 1.49471 0.797176 0
M  V30 2349 O 226.341 1.65583 0.705853 0
M  V30 2350 H 222.716 0.751514 0.0270339 0
M  V30 2351 H 224.687 2.88823 -0.749936 0
M  V30 2352 C 223.436 3.3397 0.967427 0
M  V30 2353 H 222.759 3.97961 0.383048 0
M  V30 2354 H 224.199 3.9945 1.42181 0
M  V30 2355 C 222.658 2.65744 2.0708 0
M  V30 2356 O 223.188 2.48454 3.15648 0
M  V30 2357 N 221.394 2.2487 1.8407 0
M  V30 2358 H 220.941 2.39132 0.95778 0
M  V30 2359 H 220.899 1.79552 2.58086 0
M  V30 2360 N 224.671 0.411399 1.52136 0
M  V30 2361 C 225.918 -0.163645 2.01838 0
M  V30 2362 C 226.246 -1.4495 1.29691 0
M  V30 2363 O 225.501 -1.91725 0.392431 0
M  V30 2364 C 225.8 -0.455872 3.54481 0
M  V30 2365 C 225.466 0.741055 4.44769 0
M  V30 2366 C 224.128 1.06936 4.69167 0
M  V30 2367 C 226.48 1.54075 4.97906 0
M  V30 2368 C 223.808 2.19851 5.43951 0
M  V30 2369 C 226.16 2.66067 5.73926 0
M  V30 2370 C 224.824 2.99381 5.96596 0
M  V30 2371 H 224.094 -0.0598821 0.738576 0
M  V30 2372 H 226.741 0.553283 1.83333 0
M  V30 2373 H 225.046 -1.2544 3.71177 0
M  V30 2374 H 226.743 -0.913802 3.90449 0
M  V30 2375 H 223.333 0.475192 4.25958 0
M  V30 2376 H 227.517 1.30033 4.78963 0
M  V30 2377 H 222.773 2.46006 5.59724 0
M  V30 2378 H 226.947 3.28419 6.14096 0
M  V30 2379 H 224.574 3.86992 6.54325 0
M  V30 2380 N 226.149 -1.5696 0.141893 0
M  V30 2381 C 227.097 -2.17784 -0.816874 0
M  V30 2382 C 228.091 -1.1334 -1.25899 0
M  V30 2383 O 229.297 -1.316 -1.22806 0
M  V30 2384 H 225.672 -0.697278 -0.281615 0
M  V30 2385 H 227.643 -2.97087 -0.279621 0
M  V30 2386 C 226.392 -2.80983 -2.04802 0
M  V30 2387 H 225.715 -3.61062 -1.7168 0
M  V30 2388 H 227.155 -3.2705 -2.69841 0
M  V30 2389 C 225.614 -1.79228 -2.8527 0
M  V30 2390 O 226.144 -1.25962 -3.8144 0
M  V30 2391 N 224.35 -1.48647 -2.49704 0
M  V30 2392 H 223.897 -1.92155 -1.71564 0
M  V30 2393 H 223.855 -0.808115 -3.03837 0
M  V30 2394 N 227.627 0.131896 -1.57047 0
M  V30 2395 C 228.537 1.1815 -2.02676 0
M  V30 2396 C 229.553 1.46113 -0.944824 0
M  V30 2397 O 230.729 1.57485 -1.25541 0
M  V30 2398 C 227.794 2.49139 -2.41103 0
M  V30 2399 C 226.855 2.28688 -3.63318 0
M  V30 2400 C 226.088 3.53431 -3.99903 0
M  V30 2401 O 226.311 4.60223 -3.36973 0
M  V30 2402 O 225.245 3.45198 -4.93074 0
M  V30 2403 H 229.071 0.824069 -2.92306 0
M  V30 2404 H 226.656 0.341745 -1.45439 0
M  V30 2405 H 228.538 3.26338 -2.66611 0
M  V30 2406 H 227.213 2.84382 -1.54624 0
M  V30 2407 H 226.12 1.4939 -3.42977 0
M  V30 2408 H 227.453 1.98355 -4.50462 0
M  V30 2409 N 229.106 1.52395 0.401703 0
M  V30 2410 C 230.346 1.68498 1.15705 0
M  V30 2411 C 230.71 0.409748 1.87577 0
M  V30 2412 O 231.911 0.446983 2.65058 0
M  V30 2413 C 230.182 2.87789 2.11924 0
M  V30 2414 S 231.741 3.24415 2.95466 0
M  V30 2415 H 228.559 0.593267 0.391862 0
M  V30 2416 H 231.161 1.90408 0.443282 0
M  V30 2417 H 229.865 3.7884 1.57824 0
M  V30 2418 H 229.396 2.68175 2.87829 0
M  V30 2419 H 231.411 2.73614 4.13944 0
M  V30 2420 N 230.584 -0.659388 1.43143 0
M  V30 2421 C 231.995 -1.24041 1.39537 0
M  V30 2422 C 232.346 -1.95963 0.0963364 0
M  V30 2423 O 231.471 -2.00892 -0.804438 0
M  V30 2424 C 232.066 -2.25601 2.52764 0
M  V30 2425 C 230.625 -2.79195 2.52443 0
M  V30 2426 C 229.772 -1.53743 2.30778 0
M  V30 2427 H 232.723 -0.451792 1.52133 0
M  V30 2428 H 232.744 -3.07651 2.23899 0
M  V30 2429 H 232.256 -1.73226 3.47296 0
M  V30 2430 H 230.357 -3.35649 1.61773 0
M  V30 2431 H 230.47 -3.2716 3.50004 0
M  V30 2432 H 228.834 -1.80869 1.79328 0
M  V30 2433 H 229.617 -1.03312 3.27386 0
M  V30 2434 N 232.062 -1.29571 -0.897171 0
M  V30 2435 C 233.287 -1.20705 -1.68656 0
M  V30 2436 C 233.712 0.228582 -1.86706 0
M  V30 2437 O 233.07 1.16494 -1.3892 0
M  V30 2438 C 233.118 -1.9282 -3.04717 0
M  V30 2439 O 232.222 -1.24697 -3.93096 0
M  V30 2440 H 231.563 -0.418126 -0.515816 0
M  V30 2441 H 234.093 -1.71183 -1.12061 0
M  V30 2442 H 234.103 -2.01372 -3.54843 0
M  V30 2443 H 232.778 -2.97239 -2.90899 0
M  V30 2444 H 231.355 -1.2442 -3.51531 0
M  V30 2445 N 233.54 1.10788 -1.12088 0
M  V30 2446 C 234.488 2.19111 -0.780587 0
M  V30 2447 C 235.482 1.67818 0.230961 0
M  V30 2448 O 236.688 1.79777 0.0895427 0
M  V30 2449 H 233.063 0.714477 -0.234578 0
M  V30 2450 H 235.034 2.45055 -1.70266 0
M  V30 2451 C 233.783 3.46818 -0.24747 0
M  V30 2452 H 233.106 3.86646 -1.01712 0
M  V30 2453 H 234.546 4.23973 -0.0476291 0
M  V30 2454 C 233.005 3.20968 1.02378 0
M  V30 2455 O 233.535 3.42298 2.10226 0
M  V30 2456 N 231.741 2.74658 0.949271 0
M  V30 2457 H 231.288 2.57501 0.0715173 0
M  V30 2458 H 231.246 2.57739 1.80049 0
M  V30 2459 N 235.018 0.912232 1.28515 0
M  V30 2460 C 236.429 0.591352 1.77087 0
M  V30 2461 C 236.78 -0.8933 1.74684 0
M  V30 2462 O 235.905 -1.69876 1.34056 0
M  V30 2463 C 236.5 1.06668 3.2157 0
M  V30 2464 C 235.059 0.79675 3.67871 0
M  V30 2465 C 234.206 1.23427 2.48316 0
M  V30 2466 H 237.157 1.09365 1.15 0
M  V30 2467 H 237.178 0.407455 3.78312 0
M  V30 2468 H 236.69 2.14726 3.23287 0
M  V30 2469 H 234.791 -0.270679 3.71616 0
M  V30 2470 H 234.904 1.40343 4.58084 0
M  V30 2471 H 233.268 0.653036 2.46186 0
M  V30 2472 H 234.051 2.32316 2.52753 0
M  V30 2473 N 236.496 -1.42363 0.676048 0
M  V30 2474 C 237.742 -2.0182 0.199125 0
M  V30 2475 C 238.075 -1.53339 -1.19168 0
M  V30 2476 O 237.35 -0.736124 -1.80032 0
M  V30 2477 C 237.633 -3.59331 0.235144 0
M  V30 2478 C 237.486 -4.17989 1.66149 0
M  V30 2479 C 238.805 -4.3813 -0.41595 0
M  V30 2480 H 235.924 -0.733293 0.0738311 0
M  V30 2481 H 238.566 -1.69368 0.86107 0
M  V30 2482 H 236.716 -3.87109 -0.328487 0
M  V30 2483 H 238.388 -4.0116 2.27747 0
M  V30 2484 H 236.631 -3.7377 2.20178 0
M  V30 2485 H 237.302 -5.27126 1.63837 0
M  V30 2486 H 239.778 -4.16051 0.0638529 0
M  V30 2487 H 238.654 -5.47717 -0.360115 0
M  V30 2488 H 238.915 -4.16101 -1.49373 0
M  V30 2489 N 237.974 -0.419461 -1.51915 0
M  V30 2490 C 239.39 -0.0708431 -1.59443 0
M  V30 2491 C 239.59 1.41796 -1.43164 0
M  V30 2492 O 238.646 2.18596 -1.26381 0
M  V30 2493 C 239.959 -0.574991 -2.95151 0
M  V30 2494 C 241.507 -0.533867 -3.08413 0
M  V30 2495 C 241.982 -1.01469 -4.46618 0
M  V30 2496 N 243.473 -0.971939 -4.52888 0
M  V30 2497 C 244.208 -1.31505 -5.58116 0
M  V30 2498 N 243.704 -1.73014 -6.70849 0
M  V30 2499 N 245.497 -1.23436 -5.48379 0
M  V30 2500 H 237.648 -1.38836 -1.60743 0
M  V30 2501 H 239.911 -0.570998 -0.756747 0
M  V30 2502 H 239.617 -1.61597 -3.12377 0
M  V30 2503 H 239.491 0.00979777 -3.77199 0
M  V30 2504 H 241.878 0.498086 -2.90866 0
M  V30 2505 H 241.959 -1.15484 -2.28248 0
M  V30 2506 H 241.603 -2.04502 -4.6491 0
M  V30 2507 H 241.533 -0.370433 -5.25295 0
M  V30 2508 H 244.024 -0.666893 -3.71969 0
M  V30 2509 H 244.337 -1.97479 -7.47143 0
M  V30 2510 H 242.682 -1.76926 -6.72103 0
M  V30 2511 H 245.873 -0.908869 -4.59192 0
M  V30 2512 H 246.046 -1.50506 -6.30279 0
M  V30 2513 N 239.452 1.56882 -0.150215 0
M  V30 2514 C 240.7 1.9584 0.499105 0
M  V30 2515 C 241.021 1.03623 1.65188 0
M  V30 2516 O 240.291 0.0984084 1.95653 0
M  V30 2517 H 238.871 0.723119 0.187373 0
M  V30 2518 H 241.533 1.9358 -0.226466 0
M  V30 2519 H 240.629 2.99638 0.873122 0
M  V30 2520 N 240.93 -0.123565 1.57115 0
M  V30 2521 C 242.16 -0.845233 1.88519 0
M  V30 2522 C 242.568 -1.74168 0.739064 0
M  V30 2523 O 241.911 -1.81244 -0.299355 0
M  V30 2524 C 241.973 -1.73452 3.14888 0
M  V30 2525 C 241.637 -1.01285 4.45635 0
M  V30 2526 C 242.634 -0.355774 5.18681 0
M  V30 2527 C 240.319 -0.99538 4.92339 0
M  V30 2528 C 242.313 0.309114 6.3665 0
M  V30 2529 C 240 -0.32669 6.10226 0
M  V30 2530 C 240.998 0.324406 6.82229 0
M  V30 2531 O 240.686 0.982437 7.97874 0
M  V30 2532 H 240.418 -0.248534 0.628655 0
M  V30 2533 H 242.972 -0.113907 2.05084 0
M  V30 2534 H 241.202 -2.50737 2.94394 0
M  V30 2535 H 242.891 -2.33021 3.32349 0
M  V30 2536 H 243.657 -0.360918 4.83655 0
M  V30 2537 H 239.536 -1.49159 4.36202 0
M  V30 2538 H 243.08 0.8179 6.92789 0
M  V30 2539 H 238.977 -0.319294 6.4471 0
M  V30 2540 H 239.745 0.886454 8.13686 0
M  V30 2541 N 242.408 -1.52605 -0.393616 0
M  V30 2542 C 243.656 -1.67093 -1.13685 0
M  V30 2543 C 243.977 -0.411011 -1.90619 0
M  V30 2544 O 243.247 0.574491 -1.87287 0
M  V30 2545 H 241.827 -0.615923 -0.422668 0
M  V30 2546 H 244.489 -1.89704 -0.447039 0
M  V30 2547 H 243.585 -2.51922 -1.84232 0
M  V30 2548 N 243.887 0.651787 -1.4349 0
M  V30 2549 C 245.136 1.40754 -1.44469 0
M  V30 2550 C 245.449 1.95463 -0.0731845 0
M  V30 2551 O 246.655 2.71471 0.0395721 0
M  V30 2552 C 245.111 2.54735 -2.5424 0
M  V30 2553 C 244.719 2.06628 -3.97504 0
M  V30 2554 C 246.463 3.32092 -2.64414 0
M  V30 2555 C 244.37 3.17829 -4.98737 0
M  V30 2556 H 243.3 0.528862 -0.53742 0
M  V30 2557 H 245.951 0.703365 -1.69485 0
M  V30 2558 H 244.333 3.2763 -2.22428 0
M  V30 2559 H 245.507 1.40734 -4.38783 0
M  V30 2560 H 243.822 1.42146 -3.91387 0
M  V30 2561 H 246.419 4.14952 -3.37223 0
M  V30 2562 H 246.762 3.80217 -1.69532 0
M  V30 2563 H 247.295 2.66279 -2.95534 0
M  V30 2564 H 244.034 2.74671 -5.95177 0
M  V30 2565 H 243.554 3.82429 -4.62069 0
M  V30 2566 H 245.233 3.82937 -5.21505 0
M  V30 2567 N 245.365 1.30045 0.890287 0
M  V30 2568 C 246.595 1.21296 1.67245 0
M  V30 2569 C 247.003 -0.227471 1.87828 0
M  V30 2570 O 246.346 -1.16296 1.422 0
M  V30 2571 C 246.408 1.86519 3.07329 0
M  V30 2572 C 246.072 3.35837 3.09939 0
M  V30 2573 C 247.069 4.31915 2.89389 0
M  V30 2574 C 244.754 3.77196 3.31706 0
M  V30 2575 C 246.748 5.67325 2.90552 0
M  V30 2576 C 244.435 5.12725 3.32499 0
M  V30 2577 C 245.433 6.076 3.11947 0
M  V30 2578 O 245.121 7.40655 3.12547 0
M  V30 2579 H 244.853 0.4211 0.528821 0
M  V30 2580 H 247.407 1.72111 1.12103 0
M  V30 2581 H 245.637 1.30228 3.64112 0
M  V30 2582 H 247.326 1.71963 3.67673 0
M  V30 2583 H 248.092 4.01294 2.72375 0
M  V30 2584 H 243.971 3.03796 3.4674 0
M  V30 2585 H 247.515 6.41354 2.74429 0
M  V30 2586 H 243.412 5.42988 3.49047 0
M  V30 2587 H 244.18 7.49577 3.28749 0
M  V30 2588 O 246.882 -1.02616 1.24708 0
M  V30 2589 H 247.573 -1.6429 1.02608 0
M  V30 END ATOM
M  V30 BEGIN BOND
M  V30 END BOND
M  V30 END CTAB
M  END
$$$$
