drugbank_target|P9WIB9 Secreted chorismate mutase (DB08648)
 OpenBabel12092120513D

  0  0  0     0  0            999 V3000
M  V30 BEGIN CTAB
M  V30 COUNTS 3086 3119 0 0 0
M  V30 BEGIN ATOM
M  V30 1 H -0.908 1.98254 -0.117106 0
M  V30 2 N 0 1.576 0 0
M  V30 3 C 0.933 2.03868 1.02534 0
M  V30 4 C 1.911 0.928543 1.3348 0
M  V30 5 O 3.095 1.19667 1.45644 0
M  V30 6 C 0.222 2.43627 2.35294 0
M  V30 7 C -0.732 3.65373 2.2001 0
M  V30 8 S 0.101 5.13292 1.52614 0
M  V30 9 C 1.257 5.56322 2.86805 0
M  V30 10 H 1.49 2.90518 0.631377 0
M  V30 11 H -0.977 1.52953 0.210867 0
M  V30 12 H 0.981 2.67203 3.11629 0
M  V30 13 H -0.358 1.57376 2.7183 0
M  V30 14 H -1.165 3.90944 3.18086 0
M  V30 15 H -1.563 3.418 1.51819 0
M  V30 16 H 0.729 5.58782 3.83104 0
M  V30 17 H 1.672 6.56266 2.65933 0
M  V30 18 H 2.08 4.83886 2.90714 0
M  V30 19 N 1.4781 -0.272755 1.55222 0
M  V30 20 C 2.4081 -1.34136 1.91127 0
M  V30 21 C 3.3891 -1.51513 0.773168 0
M  V30 22 O 4.5741 -1.64552 1.03132 0
M  V30 23 C 1.7041 -2.70083 2.1834 0
M  V30 24 C 0.6581 -2.67437 3.34158 0
M  V30 25 C -0.0159 -4.06938 3.46851 0
M  V30 26 C 1.2841 -2.26686 4.70543 0
M  V30 27 H 2.9781 -1.04333 2.80633 0
M  V30 28 H 0.5241 -0.500454 1.35024 0
M  V30 29 H 2.4771 -3.44952 2.42046 0
M  V30 30 H 1.2011 -3.01469 1.25634 0
M  V30 31 H -0.1399 -1.95026 3.1042 0
M  V30 32 H -0.4919 -4.35547 2.51611 0
M  V30 33 H -0.7919 -4.06062 4.2472 0
M  V30 34 H 0.7321 -4.83545 3.72849 0
M  V30 35 H 2.1461 -2.91277 4.93792 0
M  V30 36 H 0.5431 -2.36971 5.5133 0
M  V30 37 H 1.6131 -1.21818 4.69349 0
M  V30 38 N 2.9562 -1.48159 -0.537278 0
M  V30 39 C 4.1842 -1.59454 -1.31841 0
M  V30 40 C 4.5992 -0.252065 -1.8711 0
M  V30 41 O 3.9562 0.757621 -1.66031 0
M  V30 42 C 4.0072 -2.63546 -2.47439 0
M  V30 43 O 3.7282 -3.92583 -1.94449 0
M  V30 44 C 5.2292 -2.85212 -3.39366 0
M  V30 45 H 2.4492 -0.53785 -0.401196 0
M  V30 46 H 4.9932 -1.93932 -0.648891 0
M  V30 47 H 3.1482 -2.31946 -3.1029 0
M  V30 48 H 3.5622 -4.49629 -2.70063 0
M  V30 49 H 5.0362 -3.61863 -4.16844 0
M  V30 50 H 5.5132 -1.93765 -3.94147 0
M  V30 51 H 6.1192 -3.18086 -2.82314 0
M  V30 52 N 4.4343 0.785586 -1.36625 0
M  V30 53 C 5.8503 1.08419 -1.17122 0
M  V30 54 C 6.0503 2.015 0.00208491 0
M  V30 55 O 5.1063 2.43551 0.666278 0
M  V30 56 C 6.4193 1.69498 -2.48377 0
M  V30 57 C 7.9673 1.81821 -2.54775 0
M  V30 58 C 8.4423 2.46315 -3.86126 0
M  V30 59 N 9.9333 2.53779 -3.87492 0
M  V30 60 C 10.6683 3.045 -4.85868 0
M  V30 61 N 10.1643 3.55499 -5.94637 0
M  V30 62 N 11.9573 3.03247 -4.73284 0
M  V30 63 H 4.1083 0.167264 -2.1174 0
M  V30 64 H 6.3713 0.13682 -0.938075 0
M  V30 65 H 6.0773 1.08571 -3.34522 0
M  V30 66 H 5.9513 2.6896 -2.64462 0
M  V30 67 H 8.3383 2.41884 -1.69045 0
M  V30 68 H 8.4193 0.811532 -2.42586 0
M  V30 69 H 8.0633 1.86895 -4.72263 0
M  V30 70 H 7.9933 3.47561 -3.95612 0
M  V30 71 H 10.4843 2.17672 -3.08913 0
M  V30 72 H 10.7973 3.92562 -6.65669 0
M  V30 73 H 9.1423 3.5364 -5.98301 0
M  V30 74 H 12.3333 2.62696 -3.87438 0
M  V30 75 H 12.5063 3.42467 -5.50109 0
M  V30 76 N 5.9124 1.20967 1.01018 0
M  V30 77 C 7.3234 1.02319 1.56165 0
M  V30 78 C 7.6744 -0.418546 1.91684 0
M  V30 79 O 6.7994 -1.30096 1.72928 0
M  V30 80 C 7.3944 1.85109 2.8376 0
M  V30 81 C 5.9534 1.70809 3.35412 0
M  V30 82 C 5.1004 1.82643 2.08655 0
M  V30 83 H 8.0514 1.35065 0.833255 0
M  V30 84 H 8.0724 1.35827 3.55431 0
M  V30 85 H 7.5844 2.90035 2.57878 0
M  V30 86 H 5.6854 0.685464 3.66241 0
M  V30 87 H 5.7984 2.52467 4.07182 0
M  V30 88 H 4.1624 1.25896 2.21409 0
M  V30 89 H 4.9454 2.89066 1.85191 0
M  V30 90 N 7.3905 -1.2043 1.01659 0
M  V30 91 C 8.8065 -1.41852 0.731442 0
M  V30 92 C 9.0065 -1.89358 -0.688898 0
M  V30 93 O 8.0625 -2.06247 -1.45666 0
M  V30 94 C 9.3755 -2.44019 1.75714 0
M  V30 95 C 10.9235 -2.57785 1.77527 0
M  V30 96 C 11.3985 -3.63194 2.79023 0
M  V30 97 N 12.8895 -3.70678 2.77763 0
M  V30 98 C 13.6245 -4.51897 3.52954 0
M  V30 99 N 13.1205 -5.36921 4.37821 0
M  V30 100 N 14.9135 -4.4643 3.41551 0
M  V30 101 H 7.0645 -0.879093 1.93354 0
M  V30 102 H 9.3275 -0.448425 0.835236 0
M  V30 103 H 9.0335 -2.1611 2.77469 0
M  V30 104 H 8.9075 -3.43007 1.56927 0
M  V30 105 H 11.2945 -2.85023 0.764569 0
M  V30 106 H 11.3755 -1.58992 2.00387 0
M  V30 107 H 11.0195 -3.36699 3.80258 0
M  V30 108 H 10.9495 -4.61609 2.53425 0
M  V30 109 H 13.4405 -3.09944 2.16201 0
M  V30 110 H 13.7535 -5.95981 4.91962 0
M  V30 111 H 12.0985 -5.36424 4.41899 0
M  V30 112 H 15.2895 -3.79042 2.74672 0
M  V30 113 H 15.4625 -5.09491 4.00404 0
M  V30 114 N 8.8686 -0.792821 -1.36206 0
M  V30 115 C 9.7786 -0.194808 -2.3379 0
M  V30 116 C 10.7946 0.654869 -1.61206 0
M  V30 117 O 11.9706 0.569856 -1.9317 0
M  V30 118 C 9.0356 0.657721 -3.40404 0
M  V30 119 C 8.0966 -0.210849 -4.28782 0
M  V30 120 C 7.3296 0.601086 -5.30304 0
M  V30 121 O 7.5526 1.83682 -5.40016 0
M  V30 122 O 6.4866 -0.000808277 -6.019 0
M  V30 123 H 10.3126 -1.00172 -2.86704 0
M  V30 124 H 7.8976 -0.554341 -1.38735 0
M  V30 125 H 9.7796 1.14375 -4.05581 0
M  V30 126 H 8.4546 1.44247 -2.89784 0
M  V30 127 H 7.3616 -0.743714 -3.66633 0
M  V30 128 H 8.6946 -0.959195 -4.82763 0
M  V30 129 N 10.3467 1.47872 -0.545128 0
M  V30 130 C 11.5957 2.01695 -0.0145033 0
M  V30 131 C 11.9087 1.42609 1.33873 0
M  V30 132 O 13.1147 1.88021 1.95858 0
M  V30 133 C 11.5707 3.59892 0.0245068 0
M  V30 134 C 11.1787 4.27966 -1.32475 0
M  V30 135 C 12.9227 4.21507 0.50316 0
M  V30 136 C 10.8297 5.78136 -1.2455 0
M  V30 137 H 9.7597 0.753998 -0.00165172 0
M  V30 138 H 12.4107 1.69985 -0.691175 0
M  V30 139 H 10.7927 3.88509 0.766575 0
M  V30 140 H 11.9667 4.11003 -2.08357 0
M  V30 141 H 10.2817 3.78286 -1.74036 0
M  V30 142 H 12.8787 5.31538 0.580656 0
M  V30 143 H 13.2217 3.87855 1.51243 0
M  V30 144 H 13.7547 3.97376 -0.183681 0
M  V30 145 H 10.4937 6.16388 -2.23039 0
M  V30 146 H 10.0137 5.97469 -0.528282 0
M  V30 147 H 11.6927 6.40099 -0.942488 0
M  V30 148 N 11.8248 0.280983 1.55075 0
M  V30 149 C 13.0548 -0.336804 2.03836 0
M  V30 150 C 13.4628 -1.49577 1.15859 0
M  V30 151 O 12.8058 -1.82888 0.172503 0
M  V30 152 C 12.8678 -0.874616 3.48699 0
M  V30 153 C 12.5318 0.156478 4.56732 0
M  V30 154 C 13.5288 0.978032 5.10618 0
M  V30 155 C 11.2138 0.292409 5.01448 0
M  V30 156 C 13.2078 1.92165 6.07743 0
M  V30 157 C 10.8948 1.23949 5.98398 0
M  V30 158 C 11.8928 2.05261 6.51427 0
M  V30 159 O 11.5808 2.98367 7.4648 0
M  V30 160 H 11.3128 -0.0800885 0.671239 0
M  V30 161 H 13.8668 0.412589 2.01213 0
M  V30 162 H 12.0968 -1.67418 3.4858 0
M  V30 163 H 13.7858 -1.40612 3.80766 0
M  V30 164 H 14.5518 0.883782 4.7688 0
M  V30 165 H 10.4308 -0.330498 4.59814 0
M  V30 166 H 13.9748 2.55672 6.49059 0
M  V30 167 H 9.8718 1.33454 6.31554 0
M  V30 168 H 10.6398 2.93116 7.64215 0
M  V30 169 N 13.3029 -1.57598 0.00835791 0
M  V30 170 C 14.2329 -2.1198 -0.979113 0
M  V30 171 C 15.2139 -1.03091 -1.35301 0
M  V30 172 O 16.3989 -1.30818 -1.43528 0
M  V30 173 C 13.5289 -2.62995 -2.26828 0
M  V30 174 C 12.4829 -3.76485 -2.03576 0
M  V30 175 C 11.8089 -4.13846 -3.38579 0
M  V30 176 C 13.1089 -5.0342 -1.39161 0
M  V30 177 H 14.8029 -2.94738 -0.526281 0
M  V30 178 H 12.3489 -1.41783 -0.251704 0
M  V30 179 H 14.3019 -2.99669 -2.96271 0
M  V30 180 H 13.0259 -1.7737 -2.7424 0
M  V30 181 H 11.6849 -3.40217 -1.36557 0
M  V30 182 H 11.3329 -3.25232 -3.83709 0
M  V30 183 H 11.0329 -4.90312 -3.23834 0
M  V30 184 H 12.5569 -4.53086 -4.09323 0
M  V30 185 H 13.9709 -5.37812 -1.98573 0
M  V30 186 H 12.3679 -5.84746 -1.34878 0
M  V30 187 H 13.4379 -4.83548 -0.361868 0
M  V30 188 N 14.781 0.264519 -1.55364 0
M  V30 189 C 15.744 1.31046 -1.88042 0
M  V30 190 C 16.744 1.41943 -0.755569 0
M  V30 191 O 17.934 1.40947 -1.02369 0
M  V30 192 C 15.066 2.69067 -2.09323 0
M  V30 193 H 16.259 1.03297 -2.81549 0
M  V30 194 H 13.812 0.502989 -1.47986 0
M  V30 195 H 14.547 3.01982 -1.18226 0
M  V30 196 H 14.332 2.62542 -2.91229 0
M  V30 197 H 15.822 3.44623 -2.35848 0
M  V30 198 N 16.2591 1.48442 0.529413 0
M  V30 199 C 17.4871 1.60151 1.30994 0
M  V30 200 C 17.9021 0.261985 1.86973 0
M  V30 201 O 17.2591 -0.748805 1.66431 0
M  V30 202 C 17.3101 2.64854 2.46038 0
M  V30 203 O 17.0311 3.93608 1.92365 0
M  V30 204 C 18.5321 2.87007 3.37849 0
M  V30 205 H 15.7521 0.539971 0.398338 0
M  V30 206 H 18.2961 1.94273 0.638597 0
M  V30 207 H 16.4511 2.33589 3.09055 0
M  V30 208 H 16.8651 4.51055 2.67675 0
M  V30 209 H 18.3391 3.64068 4.14919 0
M  V30 210 H 18.8161 1.95852 3.93114 0
M  V30 211 H 19.4221 3.19579 2.80623 0
M  V30 212 N 17.7372 -0.778329 1.37039 0
M  V30 213 C 18.7002 -1.87301 1.32102 0
M  V30 214 C 19.7002 -1.59198 0.226405 0
M  V30 215 O 20.8902 -1.67403 0.481861 0
M  V30 216 C 18.0222 -3.24309 1.05055 0
M  V30 217 H 19.2152 -1.93093 2.29467 0
M  V30 218 H 16.7682 -0.977358 1.21973 0
M  V30 219 H 17.5032 -3.24196 0.0819373 0
M  V30 220 H 17.2882 -3.46098 1.84279 0
M  V30 221 H 18.7782 -4.04382 1.04234 0
M  V30 222 N 19.2153 -1.21501 -1.00376 0
M  V30 223 C 20.4613 -1.03452 -1.74429 0
M  V30 224 C 20.7943 0.430764 -1.89362 0
M  V30 225 O 20.0693 1.31962 -1.42886 0
M  V30 226 C 20.3523 -1.73375 -3.15615 0
M  V30 227 C 20.2053 -3.27431 -3.08397 0
M  V30 228 C 21.5243 -1.47732 -4.14564 0
M  V30 229 H 18.6433 -0.377226 -0.633143 0
M  V30 230 H 21.2853 -1.49693 -1.17013 0
M  V30 231 H 19.4353 -1.34064 -3.64636 0
M  V30 232 H 21.1073 -3.76119 -2.67081 0
M  V30 233 H 19.3503 -3.5767 -2.45468 0
M  V30 234 H 20.0213 -3.71524 -4.08258 0
M  V30 235 H 22.4973 -1.8186 -3.74254 0
M  V30 236 H 21.3733 -1.99169 -5.11491 0
M  V30 237 H 21.6343 -0.407589 -4.40217 0
M  V30 238 N 20.6934 1.19889 -1.02296 0
M  V30 239 C 21.9184 1.9393 -0.735237 0
M  V30 240 C 22.3434 1.74639 0.698782 0
M  V30 241 O 21.7014 1.04481 1.48167 0
M  V30 242 C 21.7494 3.43916 -1.08417 0
M  V30 243 O 20.8534 4.11917 -0.199446 0
M  V30 244 H 20.1944 0.605645 -0.272196 0
M  V30 245 H 22.7244 1.52137 -1.36804 0
M  V30 246 H 22.7344 3.9456 -1.03856 0
M  V30 247 H 21.4094 3.5728 -2.12894 0
M  V30 248 H 19.9864 3.71666 -0.303136 0
M  V30 249 N 22.1715 0.800033 1.35784 0
M  V30 250 C 23.4205 0.37387 1.98205 0
M  V30 251 C 23.7335 -1.06302 1.64193 0
M  V30 252 O 24.9395 -1.59198 2.19928 0
M  V30 253 C 23.3955 0.617532 3.54562 0
M  V30 254 C 23.0035 2.06654 3.9749 0
M  V30 255 C 24.7475 0.256401 4.23725 0
M  V30 256 C 22.6545 2.2563 5.46667 0
M  V30 257 H 21.5845 0.136055 0.741623 0
M  V30 258 H 24.2355 0.983166 1.54939 0
M  V30 259 H 22.6175 -0.0616248 3.95952 0
M  V30 260 H 23.7915 2.78296 3.67271 0
M  V30 261 H 22.1065 2.38691 3.41197 0
M  V30 262 H 24.7035 0.376318 5.33374 0
M  V30 263 H 25.0465 -0.796692 4.08606 0
M  V30 264 H 25.5795 0.889214 3.87734 0
M  V30 265 H 22.3185 3.2936 5.66747 0
M  V30 266 H 21.8385 1.58504 5.78478 0
M  V30 267 H 23.5175 2.06861 6.1304 0
M  V30 268 N 23.6496 -1.47581 0.552962 0
M  V30 269 C 24.8976 -2.02082 0.0272703 0
M  V30 270 C 25.2186 -1.4301 -1.32563 0
M  V30 271 O 24.4886 -0.603745 -1.86365 0
M  V30 272 H 23.0686 -0.746966 0.00709182 0
M  V30 273 H 25.7306 -1.81033 0.722008 0
M  V30 274 H 24.8266 -3.12034 -0.0639951 0
M  V30 275 N 25.1277 -0.289203 -1.54924 0
M  V30 276 C 26.3767 0.324231 -1.99077 0
M  V30 277 C 26.6897 1.5591 -1.18117 0
M  V30 278 O 27.8957 2.24637 -1.52481 0
M  V30 279 C 26.3517 0.628209 -3.54375 0
M  V30 280 C 25.9597 -0.587647 -4.44129 0
M  V30 281 C 27.7037 1.20349 -4.07083 0
M  V30 282 C 25.6107 -0.257475 -5.90839 0
M  V30 283 H 24.5407 0.124924 -0.743579 0
M  V30 284 H 27.1917 -0.396063 -1.79175 0
M  V30 285 H 25.5737 1.40778 -3.70132 0
M  V30 286 H 26.7477 -1.36418 -4.40144 0
M  V30 287 H 25.0627 -1.08074 -4.0213 0
M  V30 288 H 27.6597 1.46456 -5.14252 0
M  V30 289 H 28.0027 2.14195 -3.56968 0
M  V30 290 H 28.5357 0.485889 -3.94821 0
M  V30 291 H 25.2747 -1.16419 -6.45079 0
M  V30 292 H 24.7947 0.482018 -5.9786 0
M  V30 293 H 26.4737 0.145238 -6.46837 0
M  V30 294 N 26.6058 1.57591 -0.0167156 0
M  V30 295 C 27.5358 2.12496 0.967858 0
M  V30 296 C 28.5168 1.03807 1.34752 0
M  V30 297 O 29.7018 1.31577 1.42833 0
M  V30 298 C 26.8318 2.64194 2.25431 0
M  V30 299 C 25.7858 3.77559 2.01576 0
M  V30 300 C 25.1118 4.15636 3.36379 0
M  V30 301 C 26.4118 5.04151 1.36489 0
M  V30 302 H 28.1058 2.95013 0.510643 0
M  V30 303 H 25.6518 1.41915 0.244181 0
M  V30 304 H 27.6048 3.01236 2.94678 0
M  V30 305 H 26.3288 1.78821 2.73296 0
M  V30 306 H 24.9878 3.40937 1.34751 0
M  V30 307 H 24.6358 3.27263 3.81979 0
M  V30 308 H 24.3358 4.92022 3.21229 0
M  V30 309 H 25.8598 4.5525 4.06915 0
M  V30 310 H 27.2738 5.38857 1.95718 0
M  V30 311 H 25.6708 5.85453 1.31776 0
M  V30 312 H 26.7408 4.83733 0.336219 0
M  V30 313 N 28.0839 -0.256276 1.55502 0
M  V30 314 C 29.0139 -1.32102 1.92539 0
M  V30 315 C 29.9949 -1.50684 0.789194 0
M  V30 316 O 31.1799 -1.63449 1.04872 0
M  V30 317 C 28.3099 -2.67752 2.21192 0
M  V30 318 C 27.2639 -2.63878 3.36975 0
M  V30 319 C 26.5899 -4.03236 3.51147 0
M  V30 320 C 27.8899 -2.21682 4.72921 0
M  V30 321 H 29.5839 -1.01351 2.81724 0
M  V30 322 H 27.1299 -0.486105 1.35547 0
M  V30 323 H 29.0829 -3.42365 2.45691 0
M  V30 324 H 27.8069 -3.0012 1.28824 0
M  V30 325 H 26.4659 -1.91722 3.12471 0
M  V30 326 H 26.1139 -4.32854 2.56216 0
M  V30 327 H 25.8139 -4.01535 4.29003 0
M  V30 328 H 27.3379 -4.79563 3.77957 0
M  V30 329 H 28.7519 -2.86023 4.96854 0
M  V30 330 H 27.1489 -2.3111 5.53812 0
M  V30 331 H 28.2189 -1.16833 4.70615 0
M  V30 332 N 29.562 -1.4872 -0.521534 0
M  V30 333 C 30.787 -1.61101 -1.30618 0
M  V30 334 C 31.212 -0.274611 -1.86085 0
M  V30 335 O 30.57 0.754937 -1.64834 0
M  V30 336 C 30.618 -2.66709 -2.4269 0
M  V30 337 O 29.722 -2.24456 -3.45967 0
M  V30 338 H 29.063 -0.539921 -0.386499 0
M  V30 339 H 31.593 -1.94767 -0.626645 0
M  V30 340 H 31.603 -2.88245 -2.88754 0
M  V30 341 H 30.278 -3.63727 -2.01682 0
M  V30 342 H 28.855 -2.13168 -3.05964 0
M  V30 343 N 31.0401 0.771051 -1.3745 0
M  V30 344 C 31.9701 1.89827 -1.3597 0
M  V30 345 C 32.9511 1.68562 -0.228216 0
M  V30 346 O 34.1361 1.8941 -0.428675 0
M  V30 347 C 31.2661 3.2712 -1.16662 0
M  V30 348 C 30.2201 3.6295 -2.2683 0
M  V30 349 C 29.5461 4.98791 -1.92644 0
M  V30 350 C 30.8461 3.69627 -3.69017 0
M  V30 351 H 32.5401 1.91323 -2.30295 0
M  V30 352 H 30.0861 0.919082 -1.10855 0
M  V30 353 H 32.0391 4.05615 -1.14256 0
M  V30 354 H 30.7631 3.26059 -0.187926 0
M  V30 355 H 29.4221 2.86763 -2.28392 0
M  V30 356 H 29.0701 4.94271 -0.933021 0
M  V30 357 H 28.7701 5.23733 -2.66416 0
M  V30 358 H 30.2941 5.79685 -1.91826 0
M  V30 359 H 31.7081 4.38273 -3.69581 0
M  V30 360 H 30.1051 4.06067 -4.41848 0
M  V30 361 H 31.1751 2.70273 -4.02592 0
M  V30 362 N 32.5182 1.22032 0.997298 0
M  V30 363 C 33.7672 1.03637 1.73038 0
M  V30 364 C 34.0802 -0.429475 1.90827 0
M  V30 365 O 35.2862 -0.732995 2.61418 0
M  V30 366 C 33.7422 1.80582 3.11317 0
M  V30 367 C 33.3502 3.31387 3.01474 0
M  V30 368 C 35.0942 1.70621 3.88701 0
M  V30 369 C 33.0012 4.00791 4.3488 0
M  V30 370 H 31.9312 0.384179 0.648785 0
M  V30 371 H 34.5822 1.4584 1.11368 0
M  V30 372 H 32.9642 1.31175 3.73643 0
M  V30 373 H 34.1382 3.88155 2.4834 0
M  V30 374 H 32.4532 3.41976 2.37575 0
M  V30 375 H 35.0502 2.19799 4.87434 0
M  V30 376 H 35.3932 0.665823 4.10941 0
M  V30 377 H 35.9262 2.17547 3.33044 0
M  V30 378 H 32.6652 5.05064 4.1784 0
M  V30 379 H 32.1852 3.48811 4.87945 0
M  V30 380 H 33.8642 4.06139 5.03647 0
M  V30 381 N 33.9963 -1.19345 1.0293 0
M  V30 382 C 34.9593 -2.20793 0.615069 0
M  V30 383 C 35.9593 -1.57553 -0.321533 0
M  V30 384 O 37.1493 -1.73862 -0.108483 0
M  V30 385 C 34.2813 -3.40754 -0.0999222 0
M  V30 386 H 35.4743 -2.58955 1.51269 0
M  V30 387 H 33.0273 -1.3303 0.820534 0
M  V30 388 H 33.7623 -3.0811 -1.01187 0
M  V30 389 H 33.5473 -3.87889 0.57309 0
M  V30 390 H 35.0373 -4.15898 -0.376645 0
M  V30 391 N 35.4744 -0.807222 -1.35358 0
M  V30 392 C 36.8854 -0.44876 -1.81226 0
M  V30 393 C 37.2364 1.02929 -1.67033 0
M  V30 394 O 36.3614 1.79991 -1.20133 0
M  V30 395 C 36.9564 -0.807774 -3.2903 0
M  V30 396 C 35.5154 -0.501901 -3.73039 0
M  V30 397 C 34.6624 -1.03304 -2.57339 0
M  V30 398 H 37.6134 -0.998808 -1.23327 0
M  V30 399 H 37.6344 -0.10554 -3.80354 0
M  V30 400 H 37.1464 -1.88357 -3.39328 0
M  V30 401 H 35.2474 0.565128 -3.68289 0
M  V30 402 H 35.3604 -1.03497 -4.67787 0
M  V30 403 H 33.7244 -0.455339 -2.50597 0
M  V30 404 H 34.5074 -2.11496 -2.70415 0
M  V30 405 N 36.9525 1.47285 -0.560781 0
M  V30 406 C 37.8825 2.32857 0.173105 0
M  V30 407 C 38.8635 1.44009 0.905281 0
M  V30 408 O 40.0485 1.7286 0.885046 0
M  V30 409 C 37.1785 3.25861 1.20133 0
M  V30 410 C 36.1325 4.23978 0.585388 0
M  V30 411 C 35.4585 5.06332 1.7185 0
M  V30 412 C 36.7585 5.20242 -0.463178 0
M  V30 413 H 38.4525 2.94466 -0.541307 0
M  V30 414 H 35.9985 1.41601 -0.261764 0
M  V30 415 H 37.9515 3.84569 1.72293 0
M  V30 416 H 36.6755 2.62315 1.94573 0
M  V30 417 H 35.3345 3.66501 0.085054 0
M  V30 418 H 34.9825 4.39186 2.45203 0
M  V30 419 H 34.6825 5.72762 1.31213 0
M  V30 420 H 36.2065 5.67899 2.24329 0
M  V30 421 H 37.6205 5.73293 -0.027502 0
M  V30 422 H 36.0175 5.94896 -0.788627 0
M  V30 423 H 37.0875 4.65504 -1.35773 0
M  V30 424 N 38.4306 0.297415 1.54768 0
M  V30 425 C 39.6786 -0.312295 1.99673 0
M  V30 426 C 39.9996 -1.54686 1.18732 0
M  V30 427 O 39.2696 -1.93854 0.282382 0
M  V30 428 H 37.8496 -0.118381 0.73756 0
M  V30 429 H 40.5116 0.407915 1.90583 0
M  V30 430 H 39.6076 -0.586813 3.06534 0
M  V30 431 N 39.9087 -1.5758 0.0250728 0
M  V30 432 C 41.3197 -1.79476 -0.514323 0
M  V30 433 C 41.6707 -0.934956 -1.72491 0
M  V30 434 O 40.7957 -0.144245 -2.15919 0
M  V30 435 C 41.3907 -3.25503 -0.939842 0
M  V30 436 C 39.9497 -3.48408 -1.42438 0
M  V30 437 C 39.0967 -2.74583 -0.387201 0
M  V30 438 H 42.0477 -1.567 0.25113 0
M  V30 439 H 42.0687 -3.34992 -1.80445 0
M  V30 440 H 41.5807 -3.88056 -0.0585628 0
M  V30 441 H 39.6817 -2.91103 -2.32572 0
M  V30 442 H 39.7947 -4.57119 -1.43455 0
M  V30 443 H 38.1587 -2.39942 -0.854409 0
M  V30 444 H 38.9417 -3.39849 0.485543 0
M  V30 445 N 41.3868 0.248026 -1.55636 0
M  V30 446 C 42.7978 0.817177 -1.67866 0
M  V30 447 C 43.1488 1.86069 -0.622322 0
M  V30 448 O 42.2738 2.15157 0.231618 0
M  V30 449 C 42.8688 1.489 -3.04326 0
M  V30 450 C 41.4278 2.00587 -3.185 0
M  V30 451 C 40.5748 0.856573 -2.63739 0
M  V30 452 H 43.5258 0.0238579 -1.58682 0
M  V30 453 H 43.5468 2.35698 -2.98708 0
M  V30 454 H 43.0588 0.729279 -3.81186 0
M  V30 455 H 41.1598 2.79443 -2.4646 0
M  V30 456 H 41.2728 2.20402 -4.25393 0
M  V30 457 H 39.6368 1.25678 -2.21534 0
M  V30 458 H 40.4198 0.109953 -3.43124 0
M  V30 459 N 42.8649 1.48995 0.513639 0
M  V30 460 C 43.7949 1.67636 1.62544 0
M  V30 461 C 44.7759 0.525087 1.61793 0
M  V30 462 O 45.9609 0.759502 1.78732 0
M  V30 463 C 43.0909 1.73114 3.01079 0
M  V30 464 C 42.0449 2.87905 3.16693 0
M  V30 465 C 41.3709 2.78486 4.56453 0
M  V30 466 C 42.6709 4.29005 2.97913 0
M  V30 467 H 44.3649 2.60716 1.47198 0
M  V30 468 H 41.9109 1.25465 0.706714 0
M  V30 469 H 43.8639 1.84742 3.78746 0
M  V30 470 H 42.5879 0.766241 3.17484 0
M  V30 471 H 41.2469 2.75859 2.41448 0
M  V30 472 H 40.8949 1.7993 4.69717 0
M  V30 473 H 40.5949 3.55523 4.67843 0
M  V30 474 H 42.1189 2.92104 5.36197 0
M  V30 475 H 43.5329 4.41798 3.65359 0
M  V30 476 H 41.9299 5.07166 3.20785 0
M  V30 477 H 42.9999 4.44329 1.94165 0
M  V30 478 N 44.343 -0.763751 1.37857 0
M  V30 479 C 45.306 -1.85889 1.34081 0
M  V30 480 C 46.306 -1.58949 0.243277 0
M  V30 481 O 47.496 -1.66882 0.499589 0
M  V30 482 C 44.628 -3.23176 1.08489 0
M  V30 483 H 45.821 -1.90648 2.31502 0
M  V30 484 H 43.374 -0.964367 1.23003 0
M  V30 485 H 44.109 -3.24091 0.116318 0
M  V30 486 H 43.894 -3.44124 1.8794 0
M  V30 487 H 45.384 -4.03254 1.08517 0
M  V30 488 N 45.8211 -1.22559 -0.990812 0
M  V30 489 C 47.2371 -0.985996 -1.255 0
M  V30 490 C 47.4371 0.319173 -1.98956 0
M  V30 491 O 46.4931 1.04127 -2.3003 0
M  V30 492 C 47.8061 -2.18607 -2.06474 0
M  V30 493 C 49.3541 -2.22985 -2.19651 0
M  V30 494 C 49.8291 -3.4255 -3.04012 0
M  V30 495 N 51.3201 -3.42725 -3.11599 0
M  V30 496 C 52.0551 -4.31892 -3.7717 0
M  V30 497 N 51.5511 -5.31279 -4.44651 0
M  V30 498 N 53.3441 -4.19662 -3.73952 0
M  V30 499 H 45.4951 -2.06469 -0.49841 0
M  V30 500 H 47.7581 -0.904853 -0.282747 0
M  V30 501 H 47.4641 -3.13267 -1.59865 0
M  V30 502 H 47.3381 -2.18838 -3.07229 0
M  V30 503 H 49.7251 -1.28871 -2.65474 0
M  V30 504 H 49.8061 -2.26791 -1.18319 0
M  V30 505 H 49.4501 -4.36965 -2.58889 0
M  V30 506 H 49.3801 -3.35984 -4.0549 0
M  V30 507 H 51.8711 -2.70807 -2.63575 0
M  V30 508 H 52.1841 -5.95593 -4.92431 0
M  V30 509 H 50.5291 -5.3519 -4.43392 0
M  V30 510 H 53.7201 -3.41268 -3.20396 0
M  V30 511 H 53.8931 -4.89358 -4.24774 0
M  V30 512 N 47.2992 1.18797 -1.03562 0
M  V30 513 C 48.2622 2.20464 -0.626769 0
M  V30 514 C 49.2622 1.57721 0.313173 0
M  V30 515 O 50.4522 1.73917 0.0992615 0
M  V30 516 C 47.5842 3.40802 0.0818498 0
M  V30 517 H 48.7772 2.58149 -1.5264 0
M  V30 518 H 46.3302 1.32593 -0.827578 0
M  V30 519 H 47.0652 3.08642 0.995518 0
M  V30 520 H 46.8502 3.8758 -0.593652 0
M  V30 521 H 48.3402 4.16092 0.354584 0
M  V30 522 N 48.7773 0.814389 1.34928 0
M  V30 523 C 50.0543 0.321363 1.92942 0
M  V30 524 C 50.4343 -1.19014 1.74353 0
M  V30 525 O 49.7823 -1.99328 1.11716 0
M  V30 526 C 49.9923 0.741323 3.41036 0
M  V30 527 C 51.3403 0.735266 4.18185 0
M  V30 528 O 52.3643 0.68336 3.49584 0
M  V30 529 O 51.2233 0.800703 5.40602 0
M  V30 530 H 48.3173 0.0858893 0.822528 0
M  V30 531 H 50.8633 0.898609 1.43955 0
M  V30 532 H 49.6353 1.78276 3.4833 0
M  V30 533 H 49.2583 0.139307 3.97356 0
M  V30 534 N 50.2554 -1.46986 0.568584 0
M  V30 535 C 51.5034 -2.02041 0.0487022 0
M  V30 536 C 51.8244 -1.44408 -1.31039 0
M  V30 537 O 51.0944 -0.623477 -1.85714 0
M  V30 538 H 49.6744 -0.746849 0.015014 0
M  V30 539 H 52.3364 -1.80257 0.741168 0
M  V30 540 H 51.4324 -3.12085 -0.0308961 0
M  V30 541 N 51.7335 -0.305618 -1.54608 0
M  V30 542 C 52.9615 0.304775 -2.04643 0
M  V30 543 C 53.3765 1.47167 -1.18268 0
M  V30 544 O 52.7335 1.81296 -0.209328 0
M  V30 545 C 52.7845 0.756564 -3.53495 0
M  V30 546 O 52.5055 -0.36389 -4.36586 0
M  V30 547 C 54.0065 1.43163 -4.19546 0
M  V30 548 H 51.2265 0.0655481 -0.667791 0
M  V30 549 H 53.7705 -0.446592 -1.99564 0
M  V30 550 H 51.9255 1.45794 -3.58919 0
M  V30 551 H 52.3395 -0.0113121 -5.24499 0
M  V30 552 H 53.8135 1.69886 -5.25207 0
M  V30 553 H 54.2905 2.37318 -3.69563 0
M  V30 554 H 54.8965 0.773307 -4.18211 0
M  V30 555 N 53.2116 1.57565 -0.0334293 0
M  V30 556 C 54.4366 1.96689 0.657895 0
M  V30 557 C 54.8616 0.910057 1.64619 0
M  V30 558 O 54.2196 -0.128598 1.80843 0
M  V30 559 C 54.2676 3.34905 1.33683 0
M  V30 560 O 53.3716 3.31574 2.45219 0
M  V30 561 H 52.7126 0.641205 0.172489 0
M  V30 562 H 55.2426 2.04372 -0.0965621 0
M  V30 563 H 55.2526 3.71234 1.69262 0
M  V30 564 H 53.9276 4.11366 0.612411 0
M  V30 565 H 52.5046 3.06968 2.11719 0
M  V30 566 N 54.6897 -0.239769 1.55765 0
M  V30 567 C 55.6217 -1.32001 1.87372 0
M  V30 568 C 56.6347 -1.43944 0.760522 0
M  V30 569 O 57.8237 -1.45167 1.0387 0
M  V30 570 C 54.9237 -2.69779 2.05115 0
M  V30 571 C 54.0967 -2.80014 3.36022 0
M  V30 572 C 53.1557 -3.98684 3.4342 0
M  V30 573 O 52.1817 -3.87877 4.16582 0
M  V30 574 N 53.3837 -5.12176 2.73232 0
M  V30 575 H 56.1487 -1.0522 2.80622 0
M  V30 576 H 53.7097 -0.429857 1.56089 0
M  V30 577 H 55.7017 -3.47517 2.07399 0
M  V30 578 H 54.2717 -2.89237 1.18577 0
M  V30 579 H 53.4917 -1.88896 3.45994 0
M  V30 580 H 54.7797 -2.83808 4.22292 0
M  V30 581 H 54.1777 -5.2385 2.13536 0
M  V30 582 H 52.7347 -5.88022 2.81199 0
M  V30 583 N 56.1678 -1.49265 -0.50573 0
M  V30 584 C 57.0978 -1.68495 -1.61653 0
M  V30 585 C 58.0788 -0.53366 -1.61512 0
M  V30 586 O 59.2638 -0.76897 -1.78327 0
M  V30 587 C 56.3938 -1.74709 -3.00157 0
M  V30 588 C 55.3478 -2.89581 -3.15162 0
M  V30 589 C 54.6738 -2.80903 -4.5497 0
M  V30 590 C 55.9738 -4.30578 -2.95634 0
M  V30 591 H 57.6678 -2.61493 -1.45814 0
M  V30 592 H 55.2138 -1.25838 -0.70005 0
M  V30 593 H 57.1668 -1.86748 -3.77761 0
M  V30 594 H 55.8908 -0.783067 -3.17074 0
M  V30 595 H 54.5498 -2.77136 -2.39982 0
M  V30 596 H 54.1978 -1.82419 -4.68756 0
M  V30 597 H 53.8978 -3.57999 -4.65951 0
M  V30 598 H 55.4218 -2.94944 -5.34641 0
M  V30 599 H 56.8358 -4.4373 -3.63011 0
M  V30 600 H 55.2328 -5.0886 -3.18091 0
M  V30 601 H 56.3028 -4.45352 -1.91806 0
M  V30 602 N 57.6459 0.756429 -1.3826 0
M  V30 603 C 58.6089 1.85176 -1.35065 0
M  V30 604 C 59.6089 1.58818 -0.251703 0
M  V30 605 O 60.7989 1.66615 -0.508433 0
M  V30 606 C 57.9309 3.22596 -1.10201 0
M  V30 607 H 59.1239 1.89417 -2.3251 0
M  V30 608 H 56.6769 0.95783 -1.23512 0
M  V30 609 H 57.4119 3.24025 -0.133504 0
M  V30 610 H 57.1969 3.43122 -1.89762 0
M  V30 611 H 58.6869 4.02673 -1.10654 0
M  V30 612 N 59.124 1.23083 0.984299 0
M  V30 613 C 60.034 1.02515 2.11016 0
M  V30 614 C 61.05 -0.0291702 1.73976 0
M  V30 615 O 62.226 0.165434 2.00719 0
M  V30 616 C 59.291 0.614673 3.41208 0
M  V30 617 C 58.352 1.74359 3.92297 0
M  V30 618 C 57.585 1.35261 5.16275 0
M  V30 619 O 57.808 0.235136 5.69915 0
M  V30 620 O 56.742 2.17227 5.61334 0
M  V30 621 H 60.568 1.96862 2.31255 0
M  V30 622 H 58.153 1.01753 1.09392 0
M  V30 623 H 60.035 0.396518 4.1953 0
M  V30 624 H 58.71 -0.299851 3.22308 0
M  V30 625 H 57.617 2.01635 3.1511 0
M  V30 626 H 58.95 2.63629 4.15645 0
M  V30 627 N 60.6021 -1.18246 1.0419 0
M  V30 628 C 61.5321 -2.24127 0.654914 0
M  V30 629 C 62.5131 -1.66617 -0.342451 0
M  V30 630 O 63.6981 -1.92924 -0.222277 0
M  V30 631 C 60.8281 -3.47295 0.0183757 0
M  V30 632 C 59.7821 -4.17563 0.939414 0
M  V30 633 C 59.1081 -5.34438 0.167286 0
M  V30 634 C 60.4081 -4.70917 2.25908 0
M  V30 635 H 62.1021 -2.56753 1.54007 0
M  V30 636 H 59.6481 -1.23414 0.74195 0
M  V30 637 H 61.6011 -4.20572 -0.264082 0
M  V30 638 H 60.3251 -3.13907 -0.901664 0
M  V30 639 H 58.9841 -3.46186 1.20628 0
M  V30 640 H 58.6321 -4.97298 -0.7552 0
M  V30 641 H 58.3321 -5.82388 0.780901 0
M  V30 642 H 59.8561 -6.10504 -0.108125 0
M  V30 643 H 61.2701 -5.35882 2.03724 0
M  V30 644 H 59.6671 -5.29406 2.82577 0
M  V30 645 H 60.7371 -3.88272 2.9047 0
M  V30 646 N 62.0802 -0.821533 -1.34494 0
M  V30 647 C 63.3262 -0.409552 -1.98622 0
M  V30 648 C 63.6592 1.0244 -1.64984 0
M  V30 649 O 62.9342 1.71325 -0.920758 0
M  V30 650 C 63.2172 -0.610458 -3.54888 0
M  V30 651 C 63.0702 -2.09043 -3.98273 0
M  V30 652 C 64.3892 -0.0455379 -4.40076 0
M  V30 653 H 61.5082 -0.15028 -0.721516 0
M  V30 654 H 64.1502 -1.03384 -1.59411 0
M  V30 655 H 62.3002 -0.079044 -3.8842 0
M  V30 656 H 63.9722 -2.68537 -3.75081 0
M  V30 657 H 62.2152 -2.58139 -3.48635 0
M  V30 658 H 62.8862 -2.18182 -5.07051 0
M  V30 659 H 65.3622 -0.499557 -4.1309 0
M  V30 660 H 64.2382 -0.215922 -5.48475 0
M  V30 661 H 64.4992 1.04939 -4.29465 0
M  V30 662 N 63.5583 1.46682 -0.576371 0
M  V30 663 C 64.8353 1.95599 0.00703437 0
M  V30 664 C 65.2153 1.51904 1.46589 0
M  V30 665 O 64.5633 0.766755 2.15251 0
M  V30 666 C 64.7733 3.4864 -0.158404 0
M  V30 667 C 66.1213 4.24594 -0.0229439 0
M  V30 668 O 67.1453 3.56094 -0.0869173 0
M  V30 669 O 66.0043 5.46373 0.118015 0
M  V30 670 H 63.0983 0.825275 0.053384 0
M  V30 671 H 65.6443 1.56996 -0.644244 0
M  V30 672 H 64.4163 3.7331 -1.17282 0
M  V30 673 H 64.0393 3.94057 0.5296 0
M  V30 674 N 65.0364 0.313813 1.54444 0
M  V30 675 C 65.9994 -0.54379 2.22656 0
M  V30 676 C 66.9994 -1.05124 1.21678 0
M  V30 677 O 68.1894 -0.945225 1.46325 0
M  V30 678 C 65.3214 -1.75427 2.92298 0
M  V30 679 H 66.5144 0.0523599 2.99854 0
M  V30 680 H 64.0674 0.0647834 1.56166 0
M  V30 681 H 64.8024 -2.38991 2.19211 0
M  V30 682 H 64.5874 -1.39791 3.66334 0
M  V30 683 H 66.0774 -2.36325 3.44297 0
M  V30 684 N 66.5145 -1.57545 0.0417849 0
M  V30 685 C 67.4775 -2.09885 -0.92093 0
M  V30 686 C 68.4775 -1.01648 -1.24596 0
M  V30 687 O 69.6675 -1.27759 -1.1842 0
M  V30 688 C 66.7995 -2.57527 -2.23367 0
M  V30 689 H 67.9925 -2.96236 -0.467382 0
M  V30 690 H 65.5455 -1.5493 -0.206467 0
M  V30 691 H 66.2805 -1.74542 -2.73323 0
M  V30 692 H 66.0655 -3.36613 -2.01083 0
M  V30 693 H 67.5555 -2.98201 -2.92346 0
M  V30 694 N 67.9926 0.231505 -1.5589 0
M  V30 695 C 68.9556 1.27028 -1.90779 0
M  V30 696 C 69.9556 1.40308 -0.785507 0
M  V30 697 O 71.1456 1.38744 -1.05336 0
M  V30 698 C 68.2776 2.64566 -2.14983 0
M  V30 699 H 69.4706 0.973017 -2.83677 0
M  V30 700 H 67.0236 0.471486 -1.49019 0
M  V30 701 H 67.7586 2.99406 -1.24604 0
M  V30 702 H 67.5436 2.56305 -2.96732 0
M  V30 703 H 69.0336 3.39543 -2.43105 0
M  V30 704 N 69.4707 1.49531 0.497807 0
M  V30 705 C 70.3807 1.69176 1.62532 0
M  V30 706 C 71.3967 0.5744 1.64246 0
M  V30 707 O 72.5727 0.849497 1.82608 0
M  V30 708 C 69.6377 1.75695 2.98885 0
M  V30 709 C 68.6987 2.9929 3.07773 0
M  V30 710 C 67.9317 3.05488 4.37622 0
M  V30 711 O 68.1547 2.19192 5.26603 0
M  V30 712 O 67.0887 3.9798 4.51548 0
M  V30 713 H 70.9147 2.647 1.48887 0
M  V30 714 H 68.4997 1.3331 0.674441 0
M  V30 715 H 70.3817 1.82317 3.79919 0
M  V30 716 H 69.0567 0.8335 3.12785 0
M  V30 717 H 67.9637 2.98183 2.25915 0
M  V30 718 H 69.2967 3.91125 2.98801 0
M  V30 719 N 70.9488 -0.749086 1.3866 0
M  V30 720 C 72.3648 -1.05276 1.19955 0
M  V30 721 C 72.5648 -2.01435 0.05134 0
M  V30 722 O 71.6208 -2.45232 -0.60147 0
M  V30 723 C 72.9338 -1.62853 2.52783 0
M  V30 724 C 74.4818 -1.75002 2.59506 0
M  V30 725 C 74.9568 -2.35991 3.92521 0
M  V30 726 N 76.4478 -2.43416 3.94085 0
M  V30 727 C 77.1828 -2.91511 4.9377 0
M  V30 728 N 76.6788 -3.39608 6.03853 0
M  V30 729 N 78.4718 -2.90592 4.81157 0
M  V30 730 H 70.6228 -0.111066 2.12109 0
M  V30 731 H 72.8858 -0.111901 0.941373 0
M  V30 732 H 72.5918 -0.99664 3.37283 0
M  V30 733 H 72.4658 -2.61854 2.715 0
M  V30 734 H 74.8528 -2.37317 1.75398 0
M  V30 735 H 74.9338 -0.74693 2.44652 0
M  V30 736 H 74.5778 -1.74308 4.77053 0
M  V30 737 H 74.5078 -3.3695 4.04688 0
M  V30 738 H 76.9988 -2.09405 3.14576 0
M  V30 739 H 77.3118 -3.74775 6.75843 0
M  V30 740 H 75.6568 -3.37653 6.07466 0
M  V30 741 H 78.8478 -2.52332 3.94267 0
M  V30 742 H 79.0208 -3.27762 5.58996 0
M  V30 743 N 72.4269 -1.23603 -0.977757 0
M  V30 744 C 73.3569 -1.04401 -2.0886 0
M  V30 745 C 74.3379 0.0399052 -1.70053 0
M  V30 746 O 75.5229 -0.125246 -1.93796 0
M  V30 747 C 72.6529 -0.637269 -3.41403 0
M  V30 748 C 71.6069 -1.66883 -3.94124 0
M  V30 749 C 70.9329 -1.11745 -5.22893 0
M  V30 750 C 72.2329 -3.06247 -4.23096 0
M  V30 751 H 73.9269 -1.97316 -2.25182 0
M  V30 752 H 71.4729 -0.950096 -1.08209 0
M  V30 753 H 73.4259 -0.48998 -4.18542 0
M  V30 754 H 72.1499 0.327557 -3.24953 0
M  V30 755 H 70.8089 -1.80416 -3.19133 0
M  V30 756 H 70.4569 -0.143527 -5.02795 0
M  V30 757 H 70.1569 -1.80672 -5.59134 0
M  V30 758 H 71.6809 -0.982067 -6.02651 0
M  V30 759 H 73.0949 -2.96001 -4.90975 0
M  V30 760 H 71.4919 -3.72436 -4.70544 0
M  V30 761 H 72.5619 -3.55041 -3.30263 0
M  V30 762 N 73.905 1.17692 -1.04816 0
M  V30 763 C 74.815 2.25229 -0.65643 0
M  V30 764 C 75.831 1.71018 0.320761 0
M  V30 765 O 77.007 2.00649 0.173805 0
M  V30 766 C 74.072 3.46684 -0.0332629 0
M  V30 767 C 73.133 4.15997 -1.06042 0
M  V30 768 C 72.366 5.31654 -0.466893 0
M  V30 769 O 72.589 5.65777 0.724758 0
M  V30 770 O 71.523 5.89831 -1.1993 0
M  V30 771 H 75.349 2.61016 -1.55255 0
M  V30 772 H 72.934 1.24919 -0.81949 0
M  V30 773 H 74.816 4.20234 0.313256 0
M  V30 774 H 73.491 3.12703 0.836566 0
M  V30 775 H 72.398 3.44482 -1.45886 0
M  V30 776 H 73.731 4.53996 -1.90127 0
M  V30 777 N 75.3831 0.828654 1.34056 0
M  V30 778 C 76.6291 0.42008 1.98402 0
M  V30 779 C 76.9621 -1.01564 1.65525 0
M  V30 780 O 76.2371 -1.70834 0.929831 0
M  V30 781 C 76.5201 0.62927 3.54559 0
M  V30 782 C 76.3731 2.11152 3.97159 0
M  V30 783 C 77.6921 0.0688756 4.40046 0
M  V30 784 H 74.8111 0.154104 0.720709 0
M  V30 785 H 77.4531 1.04228 1.5886 0
M  V30 786 H 75.6031 0.0996418 3.88372 0
M  V30 787 H 77.2751 2.70522 3.73651 0
M  V30 788 H 75.5181 2.59985 3.47261 0
M  V30 789 H 76.1891 2.20868 5.05887 0
M  V30 790 H 78.6651 0.521458 4.1282 0
M  V30 791 H 77.5411 0.245006 5.48353 0
M  V30 792 H 77.8021 -1.0266 4.30015 0
M  V30 793 N 76.8612 -1.46375 0.584142 0
M  V30 794 C 77.8242 -2.28784 -0.138108 0
M  V30 795 C 78.8242 -1.38471 -0.817462 0
M  V30 796 O 80.0142 -1.60833 -0.669199 0
M  V30 797 C 77.1462 -3.18892 -1.20503 0
M  V30 798 H 78.3392 -2.94117 0.586127 0
M  V30 799 H 75.8922 -1.52509 0.342171 0
M  V30 800 H 76.6272 -2.58309 -1.96079 0
M  V30 801 H 76.4122 -3.85388 -0.722384 0
M  V30 802 H 77.9022 -3.80914 -1.71155 0
M  V30 803 N 78.3393 -0.321999 -1.54275 0
M  V30 804 C 79.6163 0.335232 -1.92706 0
M  V30 805 C 79.9963 1.70006 -1.25145 0
M  V30 806 O 79.3443 2.25067 -0.394596 0
M  V30 807 C 79.5543 0.429008 -3.46353 0
M  V30 808 C 80.9023 0.690029 -4.18956 0
M  V30 809 O 81.9263 0.511992 -3.52501 0
M  V30 810 O 80.7853 1.03338 -5.36641 0
M  V30 811 H 77.8793 0.191143 -0.804608 0
M  V30 812 H 80.4253 -0.3716 -1.65581 0
M  V30 813 H 79.1973 -0.529611 -3.87699 0
M  V30 814 H 78.8203 1.18348 -3.79578 0
M  V30 815 N 79.8174 1.5752 -0.0501392 0
M  V30 816 C 81.2284 1.80271 0.485705 0
M  V30 817 C 81.5794 0.96228 1.70981 0
M  V30 818 O 80.7044 0.178578 2.15662 0
M  V30 819 C 81.2994 3.26957 0.887938 0
M  V30 820 C 79.8584 3.5063 1.36877 0
M  V30 821 C 79.0054 2.75165 0.343468 0
M  V30 822 H 81.9564 1.56281 -0.276028 0
M  V30 823 H 81.9774 3.37821 1.75093 0
M  V30 824 H 81.4894 3.881 -0.0031809 0
M  V30 825 H 79.5904 2.94766 2.27911 0
M  V30 826 H 79.7034 4.59343 1.36164 0
M  V30 827 H 78.0674 2.4127 0.816128 0
M  V30 828 H 78.8504 3.39034 -0.539548 0
M  V30 829 N 81.2955 -0.223234 1.56011 0
M  V30 830 C 82.5415 -0.949279 1.79211 0
M  V30 831 C 82.8745 -1.84054 0.619494 0
M  V30 832 O 82.1495 -1.90726 -0.381317 0
M  V30 833 C 82.4325 -1.78965 3.12479 0
M  V30 834 C 82.2855 -0.924997 4.40186 0
M  V30 835 C 83.6045 -2.76774 3.42175 0
M  V30 836 H 80.7235 -0.343676 0.651963 0
M  V30 837 H 83.3655 -0.218253 1.88742 0
M  V30 838 H 81.5155 -2.41291 3.04485 0
M  V30 839 H 83.1875 -0.318615 4.60198 0
M  V30 840 H 81.4305 -0.230344 4.33188 0
M  V30 841 H 82.1015 -1.54735 5.29869 0
M  V30 842 H 84.5775 -2.24584 3.50287 0
M  V30 843 H 83.4535 -3.32678 4.36597 0
M  V30 844 H 83.7145 -3.54429 2.64258 0
M  V30 845 N 82.7736 -1.49793 -0.48987 0
M  V30 846 C 83.7366 -1.66752 -1.57246 0
M  V30 847 C 84.7366 -0.538867 -1.51502 0
M  V30 848 O 85.9266 -0.805545 -1.54456 0
M  V30 849 C 83.0586 -1.67528 -2.96896 0
M  V30 850 H 84.2516 -2.63321 -1.43534 0
M  V30 851 H 81.8046 -1.38992 -0.714914 0
M  V30 852 H 82.5396 -0.725837 -3.16073 0
M  V30 853 H 82.3246 -2.49504 -3.02473 0
M  V30 854 H 83.8146 -1.82667 -3.7553 0
M  V30 855 N 84.2517 0.741722 -1.39055 0
M  V30 856 C 85.2147 1.83733 -1.37021 0
M  V30 857 C 86.2147 1.58542 -0.268534 0
M  V30 858 O 87.4047 1.66067 -0.526076 0
M  V30 859 C 84.5367 3.2141 -1.13617 0
M  V30 860 H 85.7297 1.86941 -2.34506 0
M  V30 861 H 83.2827 0.944676 -1.24521 0
M  V30 862 H 84.0177 3.23865 -0.167863 0
M  V30 863 H 83.8027 3.4109 -1.93391 0
M  V30 864 H 85.2927 4.01477 -1.14918 0
M  V30 865 N 85.7298 1.2412 0.971189 0
M  V30 866 C 86.9768 1.07881 1.71371 0
M  V30 867 C 87.3048 -0.382901 1.90694 0
M  V30 868 O 86.5598 -1.29945 1.46331 0
M  V30 869 C 86.8588 1.75983 3.11071 0
M  V30 870 C 86.5248 3.25909 3.11599 0
M  V30 871 C 85.1868 3.66813 3.11451 0
M  V30 872 C 87.5388 4.21771 3.062 0
M  V30 873 C 84.8668 5.02021 3.03631 0
M  V30 874 C 87.2188 5.56982 2.99923 0
M  V30 875 C 85.8828 5.97237 2.98102 0
M  V30 876 H 85.1528 0.394764 0.62709 0
M  V30 877 H 87.7998 1.54176 1.13587 0
M  V30 878 H 86.1048 1.22072 3.72298 0
M  V30 879 H 87.8018 1.60887 3.6731 0
M  V30 880 H 84.3918 2.93353 3.12477 0
M  V30 881 H 88.5758 3.91172 3.05447 0
M  V30 882 H 83.8318 5.32411 3.0058 0
M  V30 883 H 88.0058 6.30969 2.94704 0
M  V30 884 H 85.6328 7.01967 2.91798 0
M  V30 885 N 87.2079 -1.17134 1.05439 0
M  V30 886 C 88.1549 -2.21235 0.657539 0
M  V30 887 C 89.1249 -1.62551 -0.341543 0
M  V30 888 O 90.3099 -1.89379 -0.232393 0
M  V30 889 C 87.4499 -3.45076 0.0410575 0
M  V30 890 C 86.5629 -4.18042 1.08927 0
M  V30 891 C 85.6979 -5.29376 0.439848 0
M  V30 892 C 84.7369 -5.94132 1.4722 0
M  V30 893 N 83.8739 -6.96975 0.846756 0
M  V30 894 H 88.7139 -2.54534 1.54972 0
M  V30 895 H 86.2509 -1.25028 0.775006 0
M  V30 896 H 88.2089 -4.15862 -0.33383 0
M  V30 897 H 86.8389 -3.12353 -0.814568 0
M  V30 898 H 85.8909 -3.45945 1.58196 0
M  V30 899 H 87.2029 -4.62306 1.87282 0
M  V30 900 H 86.3569 -6.06699 0.0115125 0
M  V30 901 H 85.0959 -4.86251 -0.375656 0
M  V30 902 H 84.1009 -5.15538 1.91052 0
M  V30 903 H 85.3259 -6.39337 2.28965 0
M  V30 904 H 83.2719 -6.5598 0.0518075 0
M  V30 905 H 83.1889 -7.39565 1.5678 0
M  V30 906 H 84.4569 -7.78239 0.443277 0
M  V30 907 N 88.686 -0.835752 -1.33615 0
M  V30 908 C 89.932 -0.439817 -1.98588 0
M  V30 909 C 90.287 0.989274 -1.65019 0
M  V30 910 O 89.58 1.68168 -0.918159 0
M  V30 911 C 89.774 -0.593925 -3.52431 0
M  V30 912 C 89.603 -2.03644 -4.00948 0
M  V30 913 C 88.373 -2.67103 -4.28934 0
M  V30 914 C 90.571 -3.00479 -4.17393 0
M  V30 915 N 88.553 -4.02462 -4.6357 0
M  V30 916 C 89.924 -4.20777 -4.55353 0
M  V30 917 C 91.979 -2.96926 -3.99674 0
M  V30 918 C 90.682 -5.37994 -4.77447 0
M  V30 919 C 92.708 -4.1337 -4.22941 0
M  V30 920 C 92.07 -5.32422 -4.61201 0
M  V30 921 H 88.169 -0.209303 -0.75347 0
M  V30 922 H 90.753 -1.08316 -1.61789 0
M  V30 923 H 88.924 0.019599 -3.88395 0
M  V30 924 H 90.656 -0.169738 -4.04344 0
M  V30 925 H 87.411 -2.18259 -4.20309 0
M  V30 926 H 87.835 -4.72232 -4.85104 0
M  V30 927 H 92.477 -2.06015 -3.69212 0
M  V30 928 H 90.195 -6.29451 -5.06771 0
M  V30 929 H 93.781 -4.12034 -4.10754 0
M  V30 930 H 92.661 -6.21027 -4.78848 0
M  V30 931 N 90.1641 1.46063 -0.591896 0
M  V30 932 C 91.5801 1.57561 -0.254288 0
M  V30 933 C 91.7801 1.58565 1.24336 0
M  V30 934 O 90.8361 1.50753 2.02558 0
M  V30 935 C 92.1491 2.86549 -0.911611 0
M  V30 936 C 93.6971 3.00197 -0.886059 0
M  V30 937 C 94.1721 4.31933 -1.5231 0
M  V30 938 N 95.6631 4.38654 -1.48786 0
M  V30 939 C 96.3981 5.39222 -1.95006 0
M  V30 940 N 95.8941 6.46414 -2.49241 0
M  V30 941 N 97.6871 5.3048 -1.85868 0
M  V30 942 H 89.8381 1.43655 -1.56451 0
M  V30 943 H 92.1011 0.68583 -0.654478 0
M  V30 944 H 91.8071 2.91651 -1.96551 0
M  V30 945 H 91.6811 3.74794 -0.425368 0
M  V30 946 H 94.0681 2.9467 0.159246 0
M  V30 947 H 94.1491 2.13403 -1.41041 0
M  V30 948 H 93.7931 4.38217 -2.56765 0
M  V30 949 H 93.7231 5.17516 -0.973891 0
M  V30 950 H 96.2141 3.61793 -1.09151 0
M  V30 951 H 96.5271 7.19376 -2.82344 0
M  V30 952 H 94.8721 6.47208 -2.53272 0
M  V30 953 H 98.0631 4.45643 -1.43248 0
M  V30 954 H 98.2361 6.08711 -2.22204 0
M  V30 955 N 91.6422 0.330177 1.54103 0
M  V30 956 C 92.6052 -0.520144 2.2322 0
M  V30 957 C 93.6052 -1.03828 1.22786 0
M  V30 958 O 94.7952 -0.929652 1.4732 0
M  V30 959 C 91.9272 -1.72317 2.94142 0
M  V30 960 H 93.1202 0.0841605 2.99782 0
M  V30 961 H 90.6732 0.0813433 1.56088 0
M  V30 962 H 91.4082 -2.36653 2.21734 0
M  V30 963 H 91.1932 -1.35898 3.67796 0
M  V30 964 H 92.6832 -2.3266 3.46784 0
M  V30 965 N 93.1203 -1.57491 0.0584922 0
M  V30 966 C 94.0523 -2.08916 -0.942694 0
M  V30 967 C 95.0653 -1.0185 -1.27006 0
M  V30 968 O 96.2543 -1.29398 -1.22957 0
M  V30 969 C 93.3543 -2.52341 -2.26224 0
M  V30 970 C 92.5273 -3.82827 -2.1157 0
M  V30 971 C 91.5863 -4.12487 -3.26712 0
M  V30 972 O 90.6123 -4.82295 -3.02292 0
M  V30 973 N 91.8143 -3.64978 -4.5141 0
M  V30 974 H 94.5793 -2.95437 -0.503722 0
M  V30 975 H 92.1403 -1.61397 -0.12757 0
M  V30 976 H 94.1323 -2.69254 -3.02133 0
M  V30 977 H 92.7023 -1.7103 -2.61663 0
M  V30 978 H 91.9223 -3.75425 -1.20208 0
M  V30 979 H 93.2103 -4.68263 -1.99015 0
M  V30 980 H 92.6083 -3.08558 -4.7414 0
M  V30 981 H 91.1653 -3.87115 -5.2439 0
M  V30 982 N 94.5984 0.214957 -1.56127 0
M  V30 983 C 95.5284 1.2695 -1.95974 0
M  V30 984 C 96.5094 1.48539 -0.828868 0
M  V30 985 O 97.6944 1.60611 -1.09168 0
M  V30 986 C 94.8244 2.61794 -2.28214 0
M  V30 987 C 93.7784 2.54851 -3.43853 0
M  V30 988 C 93.1044 3.93785 -3.61715 0
M  V30 989 C 94.4044 2.09065 -4.78632 0
M  V30 990 H 96.0984 0.93846 -2.84312 0
M  V30 991 H 93.6444 0.449996 -1.36788 0
M  V30 992 H 95.5974 3.35731 -2.54682 0
M  V30 993 H 94.3214 2.96599 -1.36736 0
M  V30 994 H 92.9804 1.8337 -3.17444 0
M  V30 995 H 92.6284 4.25908 -2.67602 0
M  V30 996 H 92.3284 3.90019 -4.39498 0
M  V30 997 H 93.8524 4.69374 -3.90539 0
M  V30 998 H 95.2664 2.7275 -5.04262 0
M  V30 999 H 93.6634 2.16346 -5.59745 0
M  V30 1000 H 94.7334 1.04315 -4.73547 0
M  V30 1001 N 96.0765 1.50051 0.48192 0
M  V30 1002 C 97.4875 1.5348 1.06305 0
M  V30 1003 C 97.8385 0.331997 1.93371 0
M  V30 1004 O 96.9635 -0.556256 2.09129 0
M  V30 1005 C 97.5585 2.7813 1.93466 0
M  V30 1006 C 96.1175 2.84275 2.46707 0
M  V30 1007 C 95.2645 2.47637 1.24785 0
M  V30 1008 H 98.2155 1.56472 0.264995 0
M  V30 1009 H 98.2365 2.59372 2.78399 0
M  V30 1010 H 97.7485 3.65654 1.30072 0
M  V30 1011 H 95.8495 2.01077 3.13686 0
M  V30 1012 H 95.9625 3.8691 2.82555 0
M  V30 1013 H 94.3265 1.99835 1.57918 0
M  V30 1014 H 95.1095 3.37457 0.630694 0
M  V30 1015 N 97.5546 -0.734337 1.39446 0
M  V30 1016 C 98.8036 -1.48937 1.36017 0
M  V30 1017 C 99.1166 -1.95557 -0.0409005 0
M  V30 1018 O 100.323 -2.70779 -0.19778 0
M  V30 1019 C 98.7786 -2.69125 2.38955 0
M  V30 1020 C 98.3866 -2.29452 3.8478 0
M  V30 1021 C 100.131 -3.46944 2.44603 0
M  V30 1022 C 98.0376 -3.46366 4.79358 0
M  V30 1023 H 96.9676 -0.559296 0.505672 0
M  V30 1024 H 99.6186 -0.800983 1.65095 0
M  V30 1025 H 98.0006 -3.40041 2.02948 0
M  V30 1026 H 99.1746 -1.66077 4.29831 0
M  V30 1027 H 97.4896 -1.64723 3.82433 0
M  V30 1028 H 100.087 -4.33907 3.12456 0
M  V30 1029 H 100.43 -3.89454 1.47076 0
M  V30 1030 H 100.963 -2.83056 2.79507 0
M  V30 1031 H 97.7016 -3.08905 5.78151 0
M  V30 1032 H 97.2216 -4.08719 4.38986 0
M  V30 1033 H 98.9006 -4.12691 4.98292 0
M  V30 1034 N 99.0327 -1.24633 -0.964593 0
M  V30 1035 C 99.9427 -1.05859 -2.09359 0
M  V30 1036 C 100.959 0.00148855 -1.74 0
M  V30 1037 O 102.135 -0.197346 -2.00431 0
M  V30 1038 C 99.1997 -0.668879 -3.40187 0
M  V30 1039 C 98.2607 -1.80578 -3.89474 0
M  V30 1040 C 97.4937 -1.43457 -5.14058 0
M  V30 1041 O 97.7167 -0.325775 -5.69469 0
M  V30 1042 O 96.6507 -2.2613 -5.57807 0
M  V30 1043 H 100.477 -2.00516 -2.28094 0
M  V30 1044 H 98.0617 -1.03481 -1.0776 0
M  V30 1045 H 99.9437 -0.463211 -4.18846 0
M  V30 1046 H 98.6187 0.248536 -3.22744 0
M  V30 1047 H 97.5257 -2.06623 -3.11862 0
M  V30 1048 H 98.8587 -2.70208 -4.11398 0
M  V30 1049 N 100.511 1.16574 -1.06058 0
M  V30 1050 C 101.788 1.83048 -0.689416 0
M  V30 1051 C 102.168 1.94122 0.829443 0
M  V30 1052 O 101.516 1.48249 1.7388 0
M  V30 1053 C 101.726 3.20186 -1.38859 0
M  V30 1054 C 103.074 3.95989 -1.53226 0
M  V30 1055 O 104.098 3.29696 -1.3483 0
M  V30 1056 O 102.957 5.14813 -1.83384 0
M  V30 1057 H 100.051 0.790258 -0.243764 0
M  V30 1058 H 102.597 1.23797 -1.16071 0
M  V30 1059 H 101.369 3.07146 -2.4244 0
M  V30 1060 H 100.992 3.87112 -0.907216 0
M  V30 1061 N 101.989 0.842826 1.3317 0
M  V30 1062 C 103.214 0.453129 2.02389 0
M  V30 1063 C 103.639 -0.939105 1.6298 0
M  V30 1064 O 102.997 -1.61472 0.8244 0
M  V30 1065 C 103.045 0.586094 3.55805 0
M  V30 1066 O 102.149 -0.386029 4.10589 0
M  V30 1067 H 101.49 0.183664 0.638094 0
M  V30 1068 H 104.02 1.13875 1.69981 0
M  V30 1069 H 104.03 0.469209 4.05293 0
M  V30 1070 H 102.705 1.6014 3.83833 0
M  V30 1071 H 101.282 -0.226371 3.72212 0
M  V30 1072 N 103.467 -1.45747 0.599634 0
M  V30 1073 C 104.715 -2.01893 0.0915472 0
M  V30 1074 C 105.036 -1.47155 -1.27946 0
M  V30 1075 O 104.306 -0.66273 -1.84349 0
M  V30 1076 H 102.886 -0.746363 0.0308524 0
M  V30 1077 H 105.548 -1.78645 0.779237 0
M  V30 1078 H 104.644 -3.1208 0.0353086 0
M  V30 1079 N 104.945 -0.338344 -1.53925 0
M  V30 1080 C 106.361 0.0137736 -1.59594 0
M  V30 1081 C 106.561 1.49186 -1.35447 0
M  V30 1082 O 105.617 2.24987 -1.14616 0
M  V30 1083 C 106.93 -0.41773 -2.97784 0
M  V30 1084 C 108.478 -0.369633 -3.1081 0
M  V30 1085 C 108.953 -0.776524 -4.51369 0
M  V30 1086 N 110.444 -0.730506 -4.57403 0
M  V30 1087 C 111.179 -1.01736 -5.64303 0
M  V30 1088 N 110.675 -1.3721 -6.79077 0
M  V30 1089 N 112.468 -0.941942 -5.54151 0
M  V30 1090 H 104.619 -1.3012 -1.67876 0
M  V30 1091 H 106.882 -0.530082 -0.78595 0
M  V30 1092 H 106.588 -1.44811 -3.20504 0
M  V30 1093 H 106.462 0.209729 -3.76616 0
M  V30 1094 H 108.849 0.651568 -2.87817 0
M  V30 1095 H 108.93 -1.03223 -2.34049 0
M  V30 1096 H 108.574 -1.79571 -4.75096 0
M  V30 1097 H 108.504 -0.0914649 -5.26521 0
M  V30 1098 H 110.995 -0.468783 -3.74981 0
M  V30 1099 H 111.308 -1.57597 -7.5656 0
M  V30 1100 H 109.653 -1.4105 -6.80536 0
M  V30 1101 H 112.844 -0.664184 -4.63364 0
M  V30 1102 H 113.017 -1.16884 -6.37371 0
M  V30 1103 N 106.423 1.57458 -0.0668435 0
M  V30 1104 C 107.669 1.93587 0.6043 0
M  V30 1105 C 108.002 0.946722 1.69561 0
M  V30 1106 O 107.277 -0.0248516 1.94484 0
M  V30 1107 C 107.56 3.40014 1.18585 0
M  V30 1108 C 107.413 4.49685 0.101529 0
M  V30 1109 C 108.732 3.87154 2.09284 0
M  V30 1110 H 105.851 0.703958 0.218202 0
M  V30 1111 H 108.493 1.89542 -0.131804 0
M  V30 1112 H 106.643 3.43592 1.81319 0
M  V30 1113 H 108.315 4.5823 -0.531279 0
M  V30 1114 H 106.558 4.30059 -0.568487 0
M  V30 1115 H 107.229 5.49266 0.54874 0
M  V30 1116 H 109.705 3.85551 1.56491 0
M  V30 1117 H 108.581 4.90231 2.46911 0
M  V30 1118 H 108.842 3.2481 2.99918 0
M  V30 1119 N 107.901 -0.206675 1.56239 0
M  V30 1120 C 108.811 -1.27686 1.96808 0
M  V30 1121 C 109.827 -1.50455 0.874035 0
M  V30 1122 O 111.003 -1.63295 1.17884 0
M  V30 1123 C 108.068 -2.60358 2.28942 0
M  V30 1124 C 107.129 -2.45762 3.51994 0
M  V30 1125 C 106.362 -3.72108 3.82585 0
M  V30 1126 O 106.585 -4.75776 3.14631 0
M  V30 1127 O 105.519 -3.6833 4.76043 0
M  V30 1128 H 109.345 -0.962593 2.88041 0
M  V30 1129 H 106.93 -0.410746 1.43643 0
M  V30 1130 H 108.812 -3.38687 2.50737 0
M  V30 1131 H 107.487 -2.91435 1.4088 0
M  V30 1132 H 106.394 -1.65584 3.35459 0
M  V30 1133 H 107.727 -2.19621 4.40486 0
M  V30 1134 N 109.379 -1.50304 -0.473955 0
M  V30 1135 C 110.311 -1.65109 -1.58971 0
M  V30 1136 C 111.324 -0.532676 -1.53839 0
M  V30 1137 O 112.513 -0.805751 -1.59279 0
M  V30 1138 C 109.613 -1.61684 -2.97845 0
M  V30 1139 C 108.786 -2.8951 -3.27876 0
M  V30 1140 C 107.845 -2.78768 -4.4629 0
M  V30 1141 O 106.871 -3.52722 -4.46739 0
M  V30 1142 N 108.073 -1.9213 -5.47783 0
M  V30 1143 H 110.838 -2.61347 -1.46689 0
M  V30 1144 H 108.399 -1.47732 -0.662324 0
M  V30 1145 H 110.391 -1.52114 -3.75024 0
M  V30 1146 H 108.961 -0.731925 -3.03911 0
M  V30 1147 H 108.181 -3.13228 -2.39336 0
M  V30 1148 H 109.469 -3.74199 -3.4475 0
M  V30 1149 H 108.867 -1.31353 -5.50239 0
M  V30 1150 H 107.424 -1.88466 -6.23958 0
M  V30 1151 N 110.857 0.726932 -1.39834 0
M  V30 1152 C 111.789 1.85147 -1.35104 0
M  V30 1153 C 112.802 1.60736 -0.258392 0
M  V30 1154 O 113.991 1.70821 -0.517931 0
M  V30 1155 C 111.091 3.21332 -1.07697 0
M  V30 1156 C 110.264 3.73033 -2.28396 0
M  V30 1157 C 109.323 4.87802 -1.97322 0
M  V30 1158 O 108.349 5.01043 -2.70083 0
M  V30 1159 N 109.551 5.72768 -0.944273 0
M  V30 1160 H 112.316 1.89706 -2.32017 0
M  V30 1161 H 109.877 0.908006 -1.3404 0
M  V30 1162 H 111.869 3.95691 -0.849144 0
M  V30 1163 H 110.439 3.11992 -0.194909 0
M  V30 1164 H 109.659 2.89934 -2.6708 0
M  V30 1165 H 110.947 4.0431 -3.08887 0
M  V30 1166 H 110.345 5.64669 -0.341427 0
M  V30 1167 H 108.902 6.4716 -0.776346 0
M  V30 1168 N 112.336 1.25143 0.95797 0
M  V30 1169 C 113.266 1.07711 2.07173 0
M  V30 1170 C 114.247 -0.0128462 1.70095 0
M  V30 1171 O 115.432 0.156061 1.93572 0
M  V30 1172 C 112.562 0.691503 3.40346 0
M  V30 1173 C 111.516 1.73132 3.9142 0
M  V30 1174 C 110.842 1.20049 5.21049 0
M  V30 1175 C 112.142 3.1294 4.1817 0
M  V30 1176 H 113.836 2.00873 2.22014 0
M  V30 1177 H 111.382 0.967191 1.06684 0
M  V30 1178 H 113.335 0.556505 4.17709 0
M  V30 1179 H 112.059 -0.275819 3.25433 0
M  V30 1180 H 110.718 1.8547 3.16222 0
M  V30 1181 H 110.366 0.223499 5.02503 0
M  V30 1182 H 110.066 1.89545 5.56189 0
M  V30 1183 H 111.59 1.07782 6.01012 0
M  V30 1184 H 113.004 3.03775 4.86203 0
M  V30 1185 H 111.401 3.79875 4.64559 0
M  V30 1186 H 112.471 3.6025 3.24573 0
M  V30 1187 N 113.814 -1.1601 1.06675 0
M  V30 1188 C 114.777 -2.18724 0.685001 0
M  V30 1189 C 115.777 -1.58496 -0.271246 0
M  V30 1190 O 116.967 -1.74119 -0.0531156 0
M  V30 1191 C 114.099 -3.40899 0.00853648 0
M  V30 1192 H 115.292 -2.54011 1.59431 0
M  V30 1193 H 112.845 -1.30352 0.862441 0
M  V30 1194 H 113.58 -3.11173 -0.913337 0
M  V30 1195 H 113.365 -3.8587 0.696204 0
M  V30 1196 H 114.855 -4.16886 -0.24414 0
M  V30 1197 N 115.292 -0.849877 -1.32721 0
M  V30 1198 C 116.239 -0.289033 -2.28983 0
M  V30 1199 C 117.209 0.601324 -1.54833 0
M  V30 1200 O 118.394 0.537253 -1.8308 0
M  V30 1201 C 115.534 0.520623 -3.4115 0
M  V30 1202 C 114.647 -0.394989 -4.3019 0
M  V30 1203 C 113.782 0.426834 -5.29482 0
M  V30 1204 C 112.821 -0.486476 -6.10164 0
M  V30 1205 N 111.958 0.297879 -7.01468 0
M  V30 1206 H 116.798 -1.11519 -2.76347 0
M  V30 1207 H 114.335 -0.56138 -1.35967 0
M  V30 1208 H 116.293 1.00563 -4.04899 0
M  V30 1209 H 114.923 1.31165 -2.9495 0
M  V30 1210 H 113.975 -0.99836 -3.67065 0
M  V30 1211 H 115.287 -1.09612 -4.86607 0
M  V30 1212 H 114.441 0.975205 -5.98811 0
M  V30 1213 H 113.18 1.16136 -4.73671 0
M  V30 1214 H 112.185 -1.04677 -5.39743 0
M  V30 1215 H 113.41 -1.21953 -6.6806 0
M  V30 1216 H 111.356 1.01558 -6.48091 0
M  V30 1217 H 111.273 -0.344318 -7.55216 0
M  V30 1218 H 112.541 0.828131 -7.75089 0
M  V30 1219 N 116.77 1.45427 -0.607355 0
M  V30 1220 C 117.7 2.3329 0.0989352 0
M  V30 1221 C 118.681 1.46816 0.859007 0
M  V30 1222 O 119.866 1.75588 0.829604 0
M  V30 1223 C 116.996 3.29518 1.09705 0
M  V30 1224 C 115.95 4.25626 0.450206 0
M  V30 1225 C 115.276 5.11542 1.55655 0
M  V30 1226 C 116.576 5.18505 -0.628455 0
M  V30 1227 H 118.27 2.92595 -0.634716 0
M  V30 1228 H 115.816 1.40696 -0.306681 0
M  V30 1229 H 117.769 3.89855 1.59971 0
M  V30 1230 H 116.493 2.68372 1.86129 0
M  V30 1231 H 115.152 3.66586 -0.0315886 0
M  V30 1232 H 114.8 4.46765 2.31107 0
M  V30 1233 H 114.5 5.76647 1.12925 0
M  V30 1234 H 116.024 5.74748 2.06148 0
M  V30 1235 H 117.438 5.72916 -0.209877 0
M  V30 1236 H 115.835 5.92085 -0.977489 0
M  V30 1237 H 116.905 4.60948 -1.50514 0
M  V30 1238 N 118.248 0.346503 1.53744 0
M  V30 1239 C 119.496 -0.248612 2.00565 0
M  V30 1240 C 119.817 -1.5083 1.23593 0
M  V30 1241 O 119.087 -1.92858 0.343912 0
M  V30 1242 H 117.667 -0.0948564 0.740953 0
M  V30 1243 H 120.329 0.468341 1.89189 0
M  V30 1244 H 119.425 -0.488994 3.08245 0
M  V30 1245 N 119.726 -1.57421 0.075193 0
M  V30 1246 C 120.636 -2.1642 -0.905511 0
M  V30 1247 C 121.652 -1.12828 -1.32461 0
M  V30 1248 O 122.828 -1.45109 -1.39661 0
M  V30 1249 C 119.893 -2.71693 -2.15369 0
M  V30 1250 C 118.954 -3.90171 -1.79068 0
M  V30 1251 C 118.187 -4.42798 -2.97936 0
M  V30 1252 O 118.41 -3.94416 -4.12058 0
M  V30 1253 O 117.344 -5.34085 -2.77555 0
M  V30 1254 H 121.17 -3.00588 -0.433626 0
M  V30 1255 H 118.755 -1.48664 -0.148067 0
M  V30 1256 H 120.637 -3.07104 -2.88557 0
M  V30 1257 H 119.312 -1.90582 -2.61649 0
M  V30 1258 H 118.219 -3.59606 -1.03122 0
M  V30 1259 H 119.552 -4.72584 -1.37569 0
M  V30 1260 N 121.204 0.198386 -1.56346 0
M  V30 1261 C 122.481 0.944982 -1.71258 0
M  V30 1262 C 122.861 2.0151 -0.629048 0
M  V30 1263 O 122.209 2.25639 0.360473 0
M  V30 1264 C 122.419 1.5344 -3.1346 0
M  V30 1265 C 123.767 2.01778 -3.73591 0
M  V30 1266 O 124.791 1.63288 -3.16568 0
M  V30 1267 O 123.65 2.72594 -4.73661 0
M  V30 1268 H 120.744 0.442939 -0.69838 0
M  V30 1269 H 123.29 0.188342 -1.68652 0
M  V30 1270 H 122.062 0.762869 -3.83792 0
M  V30 1271 H 121.685 2.35596 -3.20282 0
M  V30 1272 N 122.682 1.50554 0.465978 0
M  V30 1273 C 123.645 1.69233 1.54574 0
M  V30 1274 C 124.645 0.562901 1.50626 0
M  V30 1275 O 125.835 0.830016 1.53155 0
M  V30 1276 C 122.967 1.7223 2.94193 0
M  V30 1277 H 124.16 2.65571 1.39327 0
M  V30 1278 H 121.713 1.40111 0.692711 0
M  V30 1279 H 122.448 0.77603 3.14878 0
M  V30 1280 H 122.233 2.54285 2.98466 0
M  V30 1281 H 123.723 1.88618 3.72576 0
M  V30 1282 N 124.16 -0.719506 1.40217 0
M  V30 1283 C 125.576 -1.02707 1.22161 0
M  V30 1284 C 125.776 -2.0128 0.0940557 0
M  V30 1285 O 124.832 -2.46452 -0.549318 0
M  V30 1286 C 126.145 -1.57454 2.56181 0
M  V30 1287 C 127.693 -1.69458 2.63159 0
M  V30 1288 C 128.168 -2.27611 3.97438 0
M  V30 1289 N 129.659 -2.35002 3.99159 0
M  V30 1290 C 130.394 -2.80972 4.99842 0
M  V30 1291 N 129.89 -3.26723 6.10921 0
M  V30 1292 N 131.683 -2.80321 4.87213 0
M  V30 1293 H 123.834 -0.0660492 2.12297 0
M  V30 1294 H 126.097 -0.0919077 0.943534 0
M  V30 1295 H 125.803 -0.924873 3.39321 0
M  V30 1296 H 125.677 -2.56036 2.76993 0
M  V30 1297 H 128.064 -2.33543 1.80393 0
M  V30 1298 H 128.145 -0.694867 2.46181 0
M  V30 1299 H 127.789 -1.6415 4.80643 0
M  V30 1300 H 127.719 -3.2829 4.11744 0
M  V30 1301 H 130.21 -2.02685 3.18947 0
M  V30 1302 H 130.523 -3.60355 6.8364 0
M  V30 1303 H 128.868 -3.24692 6.14492 0
M  V30 1304 H 132.059 -2.43912 3.9953 0
M  V30 1305 H 132.232 -3.15831 5.65822 0
M  V30 1306 N 125.638 -1.25649 -0.95132 0
M  V30 1307 C 126.863 -1.13443 -1.73624 0
M  V30 1308 C 127.288 0.307565 -1.85568 0
M  V30 1309 O 126.646 1.22282 -1.33854 0
M  V30 1310 C 126.694 -1.79723 -3.12621 0
M  V30 1311 O 125.798 -1.07912 -3.98031 0
M  V30 1312 H 125.139 -0.395872 -0.533086 0
M  V30 1313 H 127.669 -1.66276 -1.1922 0
M  V30 1314 H 127.679 -1.86141 -3.63064 0
M  V30 1315 H 126.354 -2.84633 -3.03244 0
M  V30 1316 H 124.931 -1.09398 -3.56492 0
M  V30 1317 N 127.117 1.15442 -1.07289 0
M  V30 1318 C 128.049 2.19773 -0.650585 0
M  V30 1319 C 129.062 1.60076 0.296572 0
M  V30 1320 O 130.251 1.78293 0.0859905 0
M  V30 1321 C 127.351 3.38838 0.0650398 0
M  V30 1322 C 126.524 4.2808 -0.898141 0
M  V30 1323 C 125.583 5.2574 -0.219926 0
M  V30 1324 O 124.609 5.62654 -0.860773 0
M  V30 1325 N 125.811 5.71205 1.03466 0
M  V30 1326 H 128.576 2.56622 -1.54808 0
M  V30 1327 H 126.137 1.30551 -0.957494 0
M  V30 1328 H 128.129 4.01222 0.529415 0
M  V30 1329 H 126.699 3.00409 0.864466 0
M  V30 1330 H 125.919 3.62804 -1.54165 0
M  V30 1331 H 127.207 4.84577 -1.5512 0
M  V30 1332 H 126.605 5.43325 1.57526 0
M  V30 1333 H 125.162 6.35633 1.44272 0
M  V30 1334 N 128.595 0.856903 1.32268 0
M  V30 1335 C 129.545 0.274899 2.26337 0
M  V30 1336 C 130.529 -0.580543 1.50062 0
M  V30 1337 O 131.721 -0.429559 1.71708 0
M  V30 1338 C 128.85 -0.533841 3.39124 0
M  V30 1339 C 127.936 0.334114 4.22782 0
M  V30 1340 N 128.327 1.42143 4.85416 0
M  V30 1341 C 126.625 0.124256 4.45827 0
M  V30 1342 C 127.326 1.95559 5.47843 0
M  V30 1343 N 126.302 1.25444 5.28928 0
M  V30 1344 H 130.104 1.10612 2.72291 0
M  V30 1345 H 127.618 0.703258 1.46383 0
M  V30 1346 H 129.615 -0.96722 4.05525 0
M  V30 1347 H 128.275 -1.36283 2.94715 0
M  V30 1348 H 129.286 1.80436 4.85451 0
M  V30 1349 H 125.963 -0.669837 4.12092 0
M  V30 1350 H 127.353 2.86714 6.07655 0
M  V30 1351 N 130.073 -1.45103 0.615059 0
M  V30 1352 C 131.322 -2.01396 0.110718 0
M  V30 1353 C 131.635 -1.48834 -1.26916 0
M  V30 1354 O 132.841 -1.97152 -1.86664 0
M  V30 1355 C 131.297 -3.59599 0.14723 0
M  V30 1356 C 130.905 -4.21158 1.52743 0
M  V30 1357 C 132.649 -4.23428 -0.30148 0
M  V30 1358 C 130.556 -5.71535 1.51992 0
M  V30 1359 H 129.486 -0.753061 0.0376241 0
M  V30 1360 H 132.137 -1.66494 0.77149 0
M  V30 1361 H 130.519 -3.91724 -0.580339 0
M  V30 1362 H 131.693 -4.00594 2.2773 0
M  V30 1363 H 130.008 -3.69552 1.91886 0
M  V30 1364 H 132.605 -5.33703 -0.326392 0
M  V30 1365 H 132.948 -3.94629 -1.32565 0
M  V30 1366 H 133.481 -3.96047 0.373065 0
M  V30 1367 H 130.22 -6.05044 2.52193 0
M  V30 1368 H 129.74 -5.94268 0.81274 0
M  V30 1369 H 131.419 -6.34873 1.24681 0
M  V30 1370 N 131.551 -0.354651 -1.53558 0
M  V30 1371 C 132.828 0.294281 -1.93374 0
M  V30 1372 C 133.208 1.67313 -1.28723 0
M  V30 1373 O 132.556 2.24179 -0.442247 0
M  V30 1374 C 132.766 0.355445 -3.47185 0
M  V30 1375 C 134.114 0.601007 -4.20325 0
M  V30 1376 O 135.138 0.437106 -3.53508 0
M  V30 1377 O 133.997 0.919322 -5.38712 0
M  V30 1378 H 131.091 0.174033 -0.808481 0
M  V30 1379 H 133.637 -0.406638 -1.64756 0
M  V30 1380 H 132.409 -0.611729 -3.86489 0
M  V30 1381 H 132.032 1.1027 -3.82003 0
M  V30 1382 N 133.029 1.57378 -0.0835403 0
M  V30 1383 C 134.44 1.81261 0.447358 0
M  V30 1384 C 134.791 0.998331 1.68902 0
M  V30 1385 O 133.916 0.224282 2.15235 0
M  V30 1386 C 134.511 3.28767 0.818386 0
M  V30 1387 C 133.07 3.53455 1.29409 0
M  V30 1388 C 132.217 2.75831 0.285024 0
M  V30 1389 H 135.168 1.5566 -0.309115 0
M  V30 1390 H 135.189 3.41459 1.67887 0
M  V30 1391 H 134.701 3.88006 -0.0855019 0
M  V30 1392 H 132.802 2.99534 2.21608 0
M  V30 1393 H 132.915 4.62128 1.2639 0
M  V30 1394 H 131.279 2.42947 0.764767 0
M  V30 1395 H 132.062 3.37813 -0.611341 0
M  V30 1396 N 134.507 -0.190092 1.56449 0
M  V30 1397 C 135.784 -0.935886 1.71757 0
M  V30 1398 C 136.164 -2.01173 0.639726 0
M  V30 1399 O 135.512 -2.25827 -0.348502 0
M  V30 1400 C 135.722 -1.51775 3.1427 0
M  V30 1401 C 137.07 -1.99794 3.74656 0
M  V30 1402 O 138.094 -1.61607 3.1743 0
M  V30 1403 O 136.953 -2.70079 4.751 0
M  V30 1404 H 134.047 -0.439229 0.700719 0
M  V30 1405 H 136.593 -0.179395 1.68749 0
M  V30 1406 H 135.365 -0.742505 3.84191 0
M  V30 1407 H 134.988 -2.33894 3.21527 0
M  V30 1408 N 135.985 -1.50799 -0.457987 0
M  V30 1409 C 137.215 -1.65977 -1.23025 0
M  V30 1410 C 137.623 -0.347918 -1.85974 0
M  V30 1411 O 136.966 0.68148 -1.70592 0
M  V30 1412 C 137.028 -2.70309 -2.3701 0
M  V30 1413 C 136.692 -4.135 -1.94594 0
M  V30 1414 C 137.689 -4.98949 -1.46101 0
M  V30 1415 C 135.374 -4.5949 -2.02915 0
M  V30 1416 C 137.368 -6.28442 -1.06489 0
M  V30 1417 C 135.055 -5.88984 -1.62914 0
M  V30 1418 C 136.053 -6.73286 -1.1478 0
M  V30 1419 O 135.741 -8.00362 -0.75339 0
M  V30 1420 H 135.473 -0.56064 -0.377702 0
M  V30 1421 H 138.027 -1.97857 -0.551537 0
M  V30 1422 H 136.257 -2.337 -3.08093 0
M  V30 1423 H 137.946 -2.74574 -2.98938 0
M  V30 1424 H 138.712 -4.6463 -1.39084 0
M  V30 1425 H 134.591 -3.94009 -2.39328 0
M  V30 1426 H 138.135 -6.94194 -0.688488 0
M  V30 1427 H 134.032 -6.22822 -1.69595 0
M  V30 1428 H 134.8 -8.13744 -0.88108 0
M  V30 1429 N 137.463 0.71206 -1.40597 0
M  V30 1430 C 138.709 1.47416 -1.39271 0
M  V30 1431 C 139.042 1.942 0.00388791 0
M  V30 1432 O 138.317 1.68403 0.973179 0
M  V30 1433 C 138.6 2.69774 -2.38525 0
M  V30 1434 C 138.453 2.28861 -3.87224 0
M  V30 1435 C 139.772 3.71939 -2.35264 0
M  V30 1436 H 136.891 0.534713 -0.5072 0
M  V30 1437 H 139.533 0.812375 -1.71757 0
M  V30 1438 H 137.683 3.26238 -2.10953 0
M  V30 1439 H 139.355 1.77852 -4.25636 0
M  V30 1440 H 137.598 1.60824 -4.02887 0
M  V30 1441 H 138.269 3.16584 -4.52193 0
M  V30 1442 H 140.745 3.25113 -2.59694 0
M  V30 1443 H 139.621 4.55186 -3.06753 0
M  V30 1444 H 139.882 4.20484 -1.36549 0
M  V30 1445 N 138.941 1.26152 0.944643 0
M  V30 1446 C 140.169 1.14259 1.72489 0
M  V30 1447 C 140.584 -0.302555 1.8636 0
M  V30 1448 O 139.941 -1.20741 1.36849 0
M  V30 1449 C 139.992 1.80266 3.13347 0
M  V30 1450 O 139.713 3.19133 3.00143 0
M  V30 1451 C 141.214 1.74283 4.07603 0
M  V30 1452 H 138.434 0.398051 0.540181 0
M  V30 1453 H 140.978 1.66706 1.18446 0
M  V30 1454 H 139.133 1.31766 3.64303 0
M  V30 1455 H 139.547 3.51744 3.89071 0
M  V30 1456 H 141.021 2.25111 5.04013 0
M  V30 1457 H 141.498 0.708631 4.33446 0
M  V30 1458 H 142.104 2.22319 3.62567 0
M  V30 1459 N 140.419 -1.14872 1.07899 0
M  V30 1460 C 141.835 -1.37776 0.805606 0
M  V30 1461 C 142.035 -1.92743 -0.587555 0
M  V30 1462 O 141.091 -2.13678 -1.34528 0
M  V30 1463 C 142.404 -2.34361 1.88402 0
M  V30 1464 C 143.952 -2.48012 1.90942 0
M  V30 1465 C 144.427 -3.47893 2.97883 0
M  V30 1466 N 145.918 -3.55433 2.97021 0
M  V30 1467 C 146.653 -4.32553 3.76412 0
M  V30 1468 N 146.149 -5.12959 4.65666 0
M  V30 1469 N 147.942 -4.27697 3.64735 0
M  V30 1470 H 140.093 -0.775365 1.97742 0
M  V30 1471 H 142.356 -0.403521 0.857831 0
M  V30 1472 H 142.062 -2.01098 2.88535 0
M  V30 1473 H 141.936 -3.34206 1.74889 0
M  V30 1474 H 144.323 -2.8057 0.914579 0
M  V30 1475 H 144.404 -1.48147 2.08534 0
M  V30 1476 H 144.048 -3.16069 3.97571 0
M  V30 1477 H 143.978 -4.47527 2.77538 0
M  V30 1478 H 146.469 -2.98048 2.32326 0
M  V30 1479 H 146.782 -5.69065 5.22862 0
M  V30 1480 H 145.127 -5.12245 4.69712 0
M  V30 1481 H 148.318 -3.63949 2.94378 0
M  V30 1482 H 148.491 -4.8755 4.26848 0
M  V30 1483 N 141.898 -0.863906 -1.31812 0
M  V30 1484 C 143.144 -0.472535 -1.97218 0
M  V30 1485 C 143.477 0.971394 -1.68159 0
M  V30 1486 O 142.752 1.68309 -0.974798 0
M  V30 1487 C 143.035 -0.723054 -3.52766 0
M  V30 1488 C 142.888 -2.21608 -3.91421 0
M  V30 1489 C 144.207 -0.185522 -4.39709 0
M  V30 1490 H 141.326 -0.173158 -0.71637 0
M  V30 1491 H 143.968 -1.08403 -1.56041 0
M  V30 1492 H 142.118 -0.202577 -3.87971 0
M  V30 1493 H 143.79 -2.80334 -3.66347 0
M  V30 1494 H 142.033 -2.691 -3.40246 0
M  V30 1495 H 142.704 -2.34203 -4.99853 0
M  V30 1496 H 145.18 -0.630726 -4.11292 0
M  V30 1497 H 144.056 -0.390306 -5.47511 0
M  V30 1498 H 144.317 0.912229 -4.32586 0
M  V30 1499 N 143.376 1.44774 -0.622745 0
M  V30 1500 C 144.623 2.02121 -0.1239 0
M  V30 1501 C 144.951 1.48915 1.25118 0
M  V30 1502 O 144.206 0.660045 1.84233 0
M  V30 1503 C 144.505 3.57364 -0.0508323 0
M  V30 1504 C 144.171 4.29787 -1.36358 0
M  V30 1505 C 142.833 4.4929 -1.72314 0
M  V30 1506 C 145.185 4.71062 -2.23048 0
M  V30 1507 C 142.513 5.07325 -2.94682 0
M  V30 1508 C 144.865 5.30452 -3.44679 0
M  V30 1509 C 143.529 5.48175 -3.80868 0
M  V30 1510 H 142.799 0.739612 -0.0453381 0
M  V30 1511 H 145.446 1.73648 -0.807389 0
M  V30 1512 H 143.751 3.85202 0.715991 0
M  V30 1513 H 145.448 3.99456 0.351533 0
M  V30 1514 H 142.038 4.14932 -1.07375 0
M  V30 1515 H 146.222 4.55715 -1.96565 0
M  V30 1516 H 141.478 5.19235 -3.22809 0
M  V30 1517 H 145.652 5.61385 -4.12092 0
M  V30 1518 H 143.279 5.92912 -4.75773 0
M  V30 1519 N 144.854 0.36279 1.53368 0
M  V30 1520 C 146.131 -0.284021 1.93527 0
M  V30 1521 C 146.511 -1.66628 1.29608 0
M  V30 1522 O 145.859 -2.23942 0.45413 0
M  V30 1523 C 146.069 -0.337028 3.47369 0
M  V30 1524 C 147.417 -0.578708 4.20638 0
M  V30 1525 O 148.441 -0.418352 3.53735 0
M  V30 1526 O 147.3 -0.89074 5.39192 0
M  V30 1527 H 144.394 -0.169743 0.809393 0
M  V30 1528 H 146.94 0.41537 1.64538 0
M  V30 1529 H 145.712 0.632217 3.86159 0
M  V30 1530 H 145.335 -1.08243 3.82582 0
M  V30 1531 N 146.332 -1.57332 0.0918853 0
M  V30 1532 C 147.609 -1.85691 -0.614668 0
M  V30 1533 C 147.989 -0.988146 -1.86545 0
M  V30 1534 O 147.337 -0.0597055 -2.28422 0
M  V30 1535 C 147.547 -3.36294 -0.933126 0
M  V30 1536 C 148.895 -4.04275 -1.29796 0
M  V30 1537 O 149.919 -3.41157 -1.02424 0
M  V30 1538 O 148.778 -5.1564 -1.81047 0
M  V30 1539 H 145.872 -0.767802 -0.307261 0
M  V30 1540 H 148.418 -1.69244 0.12434 0
M  V30 1541 H 147.19 -3.91273 -0.0456404 0
M  V30 1542 H 146.813 -3.58076 -1.72822 0
M  V30 1543 N 147.81 0.181792 -1.56548 0
M  V30 1544 C 148.742 1.24956 -1.92142 0
M  V30 1545 C 149.755 1.41022 -0.813422 0
M  V30 1546 O 150.944 1.41212 -1.09186 0
M  V30 1547 C 148.044 2.61981 -2.14987 0
M  V30 1548 C 147.217 2.6735 -3.46183 0
M  V30 1549 C 146.276 3.85664 -3.5798 0
M  V30 1550 O 145.302 3.72148 -4.30691 0
M  V30 1551 N 146.504 5.01683 -2.92053 0
M  V30 1552 H 149.269 0.947329 -2.84334 0
M  V30 1553 H 146.83 0.371629 -1.57577 0
M  V30 1554 H 148.822 3.3958 -2.20154 0
M  V30 1555 H 147.392 2.84637 -1.2923 0
M  V30 1556 H 146.612 1.75925 -3.52766 0
M  V30 1557 H 147.9 2.67939 -4.32534 0
M  V30 1558 H 147.298 5.15564 -2.32832 0
M  V30 1559 H 145.855 5.77181 -3.0283 0
M  V30 1560 N 149.288 1.51039 0.449983 0
M  V30 1561 C 150.537 1.62317 1.19733 0
M  V30 1562 C 150.85 0.339101 1.92638 0
M  V30 1563 O 152.056 0.331069 2.69474 0
M  V30 1564 C 150.512 2.86608 2.17678 0
M  V30 1565 C 150.12 4.21972 1.50479 0
M  V30 1566 C 151.864 3.07239 2.92924 0
M  V30 1567 C 149.771 5.37426 2.46834 0
M  V30 1568 H 148.701 0.604532 0.450619 0
M  V30 1569 H 151.352 1.77494 0.465625 0
M  V30 1570 H 149.734 2.65037 2.94231 0
M  V30 1571 H 150.908 4.53878 0.795716 0
M  V30 1572 H 149.223 4.07117 0.874344 0
M  V30 1573 H 151.82 3.90668 3.65079 0
M  V30 1574 H 152.163 2.19807 3.5354 0
M  V30 1575 H 152.696 3.29091 2.23481 0
M  V30 1576 H 149.435 6.27079 1.90926 0
M  V30 1577 H 148.955 5.09912 3.15832 0
M  V30 1578 H 150.634 5.68862 3.08228 0
M  V30 1579 N 150.766 -0.704594 1.40972 0
M  V30 1580 C 152.182 -1.01406 1.23244 0
M  V30 1581 C 152.382 -2.01169 0.115399 0
M  V30 1582 O 151.438 -2.47021 -0.523147 0
M  V30 1583 C 152.751 -1.54728 2.57836 0
M  V30 1584 C 154.299 -1.66658 2.64942 0
M  V30 1585 C 154.774 -2.23383 3.9983 0
M  V30 1586 N 156.265 -2.30756 4.01629 0
M  V30 1587 C 157 -2.75655 5.02794 0
M  V30 1588 N 156.496 -3.20225 6.14352 0
M  V30 1589 N 158.289 -2.75138 4.90159 0
M  V30 1590 H 150.44 -0.0435285 2.12355 0
M  V30 1591 H 152.703 -0.0818951 0.944456 0
M  V30 1592 H 152.409 -0.888832 3.40283 0
M  V30 1593 H 152.283 -2.53084 2.79693 0
M  V30 1594 H 154.67 -2.31617 1.8286 0
M  V30 1595 H 154.751 -0.668717 2.46904 0
M  V30 1596 H 154.395 -1.59043 4.82357 0
M  V30 1597 H 154.325 -3.23904 4.15203 0
M  V30 1598 H 156.816 -1.99291 3.21079 0
M  V30 1599 H 157.129 -3.53084 6.87424 0
M  V30 1600 H 155.474 -3.18156 6.17901 0
M  V30 1601 H 158.665 -2.39661 4.02095 0
M  V30 1602 H 158.838 -3.09812 5.6914 0
M  V30 1603 N 152.244 -1.26651 -0.937939 0
M  V30 1604 C 153.207 -1.08546 -2.01867 0
M  V30 1605 C 154.207 -0.0327327 -1.60767 0
M  V30 1606 O 155.397 -0.276427 -1.71993 0
M  V30 1607 C 152.529 -0.651711 -3.34613 0
M  V30 1608 H 153.722 -2.04502 -2.1936 0
M  V30 1609 H 151.275 -1.09294 -1.11734 0
M  V30 1610 H 152.01 0.309696 -3.22818 0
M  V30 1611 H 151.795 -1.41189 -3.65798 0
M  V30 1612 H 153.285 -0.546973 -4.14002 0
M  V30 1613 N 153.722 1.14298 -1.08507 0
M  V30 1614 C 154.95 1.89219 -0.836876 0
M  V30 1615 C 155.365 1.78638 0.611054 0
M  V30 1616 O 154.722 1.14643 1.41998 0
M  V30 1617 C 154.773 3.39158 -1.25116 0
M  V30 1618 O 154.494 3.49449 -2.64229 0
M  V30 1619 C 155.995 4.31073 -1.03398 0
M  V30 1620 H 153.215 0.599328 -0.301739 0
M  V30 1621 H 155.759 1.44746 -1.44461 0
M  V30 1622 H 153.914 3.81251 -0.687514 0
M  V30 1623 H 154.328 4.42589 -2.81452 0
M  V30 1624 H 155.802 5.34646 -1.37323 0
M  V30 1625 H 156.279 4.3919 0.0289259 0
M  V30 1626 H 156.885 3.94738 -1.58311 0
M  V30 1627 N 155.201 0.870884 1.31352 0
M  V30 1628 C 156.111 0.330783 2.32256 0
M  V30 1629 C 157.127 -0.559767 1.6475 0
M  V30 1630 O 158.303 -0.456263 1.96164 0
M  V30 1631 C 155.368 -0.458137 3.4366 0
M  V30 1632 C 154.429 0.460482 4.26823 0
M  V30 1633 C 153.662 -0.290881 5.32907 0
M  V30 1634 O 153.885 -1.51885 5.49806 0
M  V30 1635 O 152.819 0.351732 6.00871 0
M  V30 1636 H 156.645 1.16718 2.80376 0
M  V30 1637 H 154.23 0.634285 1.35267 0
M  V30 1638 H 156.112 -0.905343 4.1156 0
M  V30 1639 H 154.787 -1.27106 2.97701 0
M  V30 1640 H 153.694 0.956207 3.61673 0
M  V30 1641 H 155.027 1.23903 4.7635 0
M  V30 1642 N 156.679 -1.44442 0.630414 0
M  V30 1643 C 157.642 -2.29107 -0.0652523 0
M  V30 1644 C 158.642 -1.41002 -0.772995 0
M  V30 1645 O 159.832 -1.62881 -0.617692 0
M  V30 1646 C 156.964 -3.22564 -1.10296 0
M  V30 1647 H 158.157 -2.92103 0.679401 0
M  V30 1648 H 155.71 -1.51343 0.390517 0
M  V30 1649 H 156.445 -2.64416 -1.87762 0
M  V30 1650 H 156.23 -3.87491 -0.59941 0
M  V30 1651 H 157.72 -3.86167 -1.5895 0
M  V30 1652 N 158.157 -0.370918 -1.53173 0
M  V30 1653 C 159.406 0.218249 -2.00516 0
M  V30 1654 C 159.719 1.49429 -1.26215 0
M  V30 1655 O 160.925 2.16239 -1.64174 0
M  V30 1656 C 159.381 0.43948 -3.57207 0
M  V30 1657 C 158.989 -0.822244 -4.4039 0
M  V30 1658 C 160.733 0.986012 -4.1289 0
M  V30 1659 C 158.64 -0.570304 -5.88644 0
M  V30 1660 H 157.57 0.0853333 -0.749156 0
M  V30 1661 H 160.221 -0.490483 -1.76823 0
M  V30 1662 H 158.603 1.20961 -3.77074 0
M  V30 1663 H 159.777 -1.59557 -4.32294 0
M  V30 1664 H 158.092 -1.29238 -3.95836 0
M  V30 1665 H 160.689 1.18991 -5.21292 0
M  V30 1666 H 161.032 1.94972 -3.6782 0
M  V30 1667 H 161.565 0.27592 -3.96842 0
M  V30 1668 H 158.304 -1.50449 -6.38001 0
M  V30 1669 H 157.824 0.164427 -5.99575 0
M  V30 1670 H 159.503 -0.19784 -6.46697 0
M  V30 1671 N 159.635 1.57281 -0.100228 0
M  V30 1672 C 160.545 2.17833 0.870965 0
M  V30 1673 C 161.561 1.14921 1.30649 0
M  V30 1674 O 162.737 1.47313 1.37335 0
M  V30 1675 C 159.802 2.75085 2.1102 0
M  V30 1676 C 158.863 3.9297 1.72838 0
M  V30 1677 C 158.096 4.47482 2.90854 0
M  V30 1678 O 158.319 4.00922 4.05731 0
M  V30 1679 O 157.253 5.38433 2.69023 0
M  V30 1680 H 161.079 3.0124 0.38575 0
M  V30 1681 H 158.664 1.48881 0.124397 0
M  V30 1682 H 160.546 3.11656 2.83634 0
M  V30 1683 H 159.221 1.94721 2.58584 0
M  V30 1684 H 158.128 3.61201 0.973883 0
M  V30 1685 H 159.461 4.74713 1.30033 0
M  V30 1686 N 161.113 -0.173488 1.56642 0
M  V30 1687 C 162.343 -0.904781 1.85734 0
M  V30 1688 C 162.751 -1.76431 0.68328 0
M  V30 1689 O 162.094 -1.802 -0.356865 0
M  V30 1690 C 162.156 -1.83382 3.09211 0
M  V30 1691 C 161.82 -1.15411 4.42187 0
M  V30 1692 C 162.817 -0.520609 5.17287 0
M  V30 1693 C 160.502 -1.15151 4.88923 0
M  V30 1694 C 162.496 0.106412 6.37311 0
M  V30 1695 C 160.183 -0.520664 6.08878 0
M  V30 1696 C 161.181 0.107196 6.82916 0
M  V30 1697 O 160.869 0.728102 8.00596 0
M  V30 1698 H 160.601 -0.268408 0.62043 0
M  V30 1699 H 163.155 -0.179096 2.04618 0
M  V30 1700 H 161.385 -2.59976 2.86268 0
M  V30 1701 H 163.074 -2.43476 3.24768 0
M  V30 1702 H 163.84 -0.514606 4.82262 0
M  V30 1703 H 159.719 -1.62961 4.31236 0
M  V30 1704 H 163.263 0.597081 6.9504 0
M  V30 1705 H 159.16 -0.524242 6.43368 0
M  V30 1706 H 159.928 0.627138 8.16094 0
M  V30 1707 N 162.591 -1.51276 -0.441967 0
M  V30 1708 C 163.816 -1.67799 -1.21895 0
M  V30 1709 C 164.241 -0.372864 -1.84367 0
M  V30 1710 O 163.599 0.666501 -1.68604 0
M  V30 1711 C 163.647 -2.79199 -2.28211 0
M  V30 1712 O 162.751 -2.42479 -3.33583 0
M  V30 1713 H 162.092 -0.559649 -0.357336 0
M  V30 1714 H 164.622 -1.97815 -0.522522 0
M  V30 1715 H 164.632 -3.03146 -2.73069 0
M  V30 1716 H 163.307 -3.73906 -1.82118 0
M  V30 1717 H 161.884 -2.29087 -2.94234 0
M  V30 1718 N 164.069 0.697108 -1.41344 0
M  V30 1719 C 165.485 1.00751 -1.2378 0
M  V30 1720 C 165.685 2.01105 -0.126066 0
M  V30 1721 O 164.741 2.47295 0.51004 0
M  V30 1722 C 166.054 1.53359 -2.58653 0
M  V30 1723 C 167.602 1.6525 -2.65822 0
M  V30 1724 C 168.077 2.2126 -4.01009 0
M  V30 1725 N 169.568 2.28622 -4.02847 0
M  V30 1726 C 170.303 2.72984 -5.04249 0
M  V30 1727 N 169.799 3.16962 -6.16041 0
M  V30 1728 N 171.592 2.72534 -4.91611 0
M  V30 1729 H 163.743 0.0322662 -2.12375 0
M  V30 1730 H 166.006 0.0768853 -0.944877 0
M  V30 1731 H 165.712 0.870773 -3.4075 0
M  V30 1732 H 165.586 2.51597 -2.81032 0
M  V30 1733 H 167.973 2.30644 -1.84086 0
M  V30 1734 H 168.054 0.655614 -2.47256 0
M  V30 1735 H 167.698 1.56482 -4.83193 0
M  V30 1736 H 167.628 3.21698 -4.16915 0
M  V30 1737 H 170.119 1.97585 -3.22131 0
M  V30 1738 H 170.432 3.49434 -6.89287 0
M  V30 1739 H 168.777 3.14875 -6.1958 0
M  V30 1740 H 171.968 2.37525 -4.0336 0
M  V30 1741 H 172.141 3.06789 -5.70775 0
M  V30 1742 N 165.547 1.27147 0.931209 0
M  V30 1743 C 166.794 1.13278 1.67852 0
M  V30 1744 C 167.122 -0.32204 1.91815 0
M  V30 1745 O 166.377 -1.25224 1.50391 0
M  V30 1746 C 166.676 1.8579 3.05314 0
M  V30 1747 C 166.342 3.35657 3.01073 0
M  V30 1748 C 165.004 3.76536 2.99623 0
M  V30 1749 C 167.356 4.31299 2.92627 0
M  V30 1750 C 164.684 5.11426 2.87506 0
M  V30 1751 C 167.036 5.66242 2.82051 0
M  V30 1752 C 165.7 6.06418 2.7895 0
M  V30 1753 H 164.97 0.414515 0.614214 0
M  V30 1754 H 167.617 1.57712 1.08624 0
M  V30 1755 H 165.922 1.33854 3.68226 0
M  V30 1756 H 167.619 1.72491 3.62005 0
M  V30 1757 H 164.209 3.03146 3.02986 0
M  V30 1758 H 168.393 4.00692 2.92848 0
M  V30 1759 H 163.649 5.41705 2.83489 0
M  V30 1760 H 167.823 6.40026 2.74481 0
M  V30 1761 H 165.45 7.10895 2.69318 0
M  V30 1762 N 167.025 -1.13721 1.09112 0
M  V30 1763 C 168.25 -1.89314 0.847053 0
M  V30 1764 C 168.675 -1.78416 -0.595774 0
M  V30 1765 O 168.033 -1.12942 -1.41823 0
M  V30 1766 C 168.081 -3.3701 1.28284 0
M  V30 1767 O 167.185 -4.10054 0.439267 0
M  V30 1768 H 166.526 -0.588745 0.307044 0
M  V30 1769 H 169.056 -1.43902 1.45442 0
M  V30 1770 H 169.066 -3.87834 1.26683 0
M  V30 1771 H 167.741 -3.4426 2.33363 0
M  V30 1772 H 166.318 -3.69266 0.519312 0
M  V30 1773 N 168.503 -0.877838 -1.30888 0
M  V30 1774 C 169.78 -0.413052 -1.91189 0
M  V30 1775 C 170.16 1.1056 -1.79832 0
M  V30 1776 O 169.508 1.93771 -1.21099 0
M  V30 1777 C 169.718 -0.903191 -3.3711 0
M  V30 1778 C 171.066 -0.93395 -4.14201 0
M  V30 1779 O 172.09 -0.849373 -3.45925 0
M  V30 1780 O 170.949 -1.05772 -5.36167 0
M  V30 1781 H 168.043 -0.125035 -0.817493 0
M  V30 1782 H 170.589 -0.966269 -1.39504 0
M  V30 1783 H 169.361 -1.94692 -3.39427 0
M  V30 1784 H 168.984 -0.328732 -3.96239 0
M  V30 1785 N 169.982 1.44106 -0.638065 0
M  V30 1786 C 171.228 2.02815 -0.15409 0
M  V30 1787 C 171.583 1.49342 1.21304 0
M  V30 1788 O 170.876 0.670699 1.79478 0
M  V30 1789 C 171.07 3.5729 -0.0887327 0
M  V30 1790 C 170.899 4.2575 -1.44799 0
M  V30 1791 C 169.669 4.62443 -2.03653 0
M  V30 1792 C 171.867 4.55746 -2.38327 0
M  V30 1793 N 169.849 5.15903 -3.32741 0
M  V30 1794 C 171.22 5.10364 -3.52036 0
M  V30 1795 C 173.275 4.37703 -2.3732 0
M  V30 1796 C 171.978 5.48837 -4.64941 0
M  V30 1797 C 174.004 4.77229 -3.49294 0
M  V30 1798 C 173.366 5.31966 -4.61726 0
M  V30 1799 H 169.465 0.775519 -0.100466 0
M  V30 1800 H 172.049 1.755 -0.843071 0
M  V30 1801 H 170.22 3.84201 0.569548 0
M  V30 1802 H 171.952 4.02671 0.404711 0
M  V30 1803 H 168.707 4.46987 -1.56523 0
M  V30 1804 H 169.131 5.47102 -3.98758 0
M  V30 1805 H 173.773 3.94671 -1.51641 0
M  V30 1806 H 171.491 5.9082 -5.51323 0
M  V30 1807 H 175.077 4.64976 -3.49698 0
M  V30 1808 H 173.957 5.61986 -5.46939 0
M  V30 1809 N 171.46 0.379036 1.52974 0
M  V30 1810 C 172.407 -0.461048 2.26148 0
M  V30 1811 C 173.377 -1.06637 1.27349 0
M  V30 1812 O 174.562 -1.09633 1.56157 0
M  V30 1813 C 171.702 -1.58782 3.06402 0
M  V30 1814 C 170.815 -1.00636 4.20115 0
M  V30 1815 C 169.95 -2.10334 4.87784 0
M  V30 1816 C 168.989 -1.49724 5.93506 0
M  V30 1817 N 168.126 -2.5331 6.54812 0
M  V30 1818 H 172.966 0.169429 2.97518 0
M  V30 1819 H 170.503 0.0953806 1.4679 0
M  V30 1820 H 172.461 -2.25174 3.51215 0
M  V30 1821 H 171.091 -2.18876 2.37261 0
M  V30 1822 H 170.143 -0.232332 3.7969 0
M  V30 1823 H 171.455 -0.523343 4.96047 0
M  V30 1824 H 170.609 -2.84519 5.35849 0
M  V30 1825 H 169.348 -2.61992 4.11353 0
M  V30 1826 H 168.353 -0.740598 5.44789 0
M  V30 1827 H 169.578 -0.988732 6.71864 0
M  V30 1828 H 167.524 -3.04156 5.81227 0
M  V30 1829 H 167.441 -2.09734 7.26325 0
M  V30 1830 H 168.709 -3.27155 7.07524 0
M  V30 1831 N 172.938 -1.57226 0.108567 0
M  V30 1832 C 173.868 -2.17778 -0.84232 0
M  V30 1833 C 174.849 -1.11487 -1.2847 0
M  V30 1834 O 176.034 -1.39681 -1.34918 0
M  V30 1835 C 173.164 -2.76888 -2.09644 0
M  V30 1836 C 172.118 -3.88669 -1.79221 0
M  V30 1837 C 171.444 -4.34541 -3.11574 0
M  V30 1838 C 172.744 -5.11251 -1.06864 0
M  V30 1839 H 174.438 -2.97489 -0.337774 0
M  V30 1840 H 171.984 -1.43097 -0.161025 0
M  V30 1841 H 173.937 -3.17904 -2.76614 0
M  V30 1842 H 172.661 -1.94451 -2.62405 0
M  V30 1843 H 171.32 -3.48213 -1.14644 0
M  V30 1844 H 170.968 -3.48977 -3.62249 0
M  V30 1845 H 170.668 -5.09914 -2.91996 0
M  V30 1846 H 172.192 -4.782 -3.7968 0
M  V30 1847 H 173.606 -5.49352 -1.63968 0
M  V30 1848 H 172.003 -5.9214 -0.974178 0
M  V30 1849 H 173.073 -4.8487 -0.0536168 0
M  V30 1850 N 174.416 0.165178 -1.56732 0
M  V30 1851 C 175.364 1.22369 -1.97809 0
M  V30 1852 C 176.358 1.45488 -0.867741 0
M  V30 1853 O 177.564 1.45995 -1.05288 0
M  V30 1854 H 173.939 0.411486 -0.629431 0
M  V30 1855 H 175.91 0.850425 -2.86025 0
M  V30 1856 C 174.659 2.55403 -2.35934 0
M  V30 1857 H 173.982 2.38438 -3.20916 0
M  V30 1858 H 175.422 3.2814 -2.68514 0
M  V30 1859 C 173.881 3.14611 -1.20506 0
M  V30 1860 O 174.411 3.98626 -0.496016 0
M  V30 1861 N 172.617 2.7379 -0.97403 0
M  V30 1862 H 172.164 2.0557 -1.55238 0
M  V30 1863 H 172.122 3.1374 -0.203573 0
M  V30 1864 N 175.894 1.51508 0.433938 0
M  V30 1865 C 177.305 1.56784 1.01369 0
M  V30 1866 C 177.656 0.393349 1.92217 0
M  V30 1867 O 176.781 -0.489441 2.10792 0
M  V30 1868 C 177.376 2.84144 1.8452 0
M  V30 1869 C 175.935 2.9198 2.37539 0
M  V30 1870 C 175.082 2.51482 1.16843 0
M  V30 1871 H 178.033 1.57236 0.215081 0
M  V30 1872 H 178.054 2.68098 2.70007 0
M  V30 1873 H 177.566 3.69607 1.18373 0
M  V30 1874 H 175.667 2.10955 3.0713 0
M  V30 1875 H 175.78 3.95704 2.70103 0
M  V30 1876 H 174.144 2.04758 1.51481 0
M  V30 1877 H 174.927 3.39293 0.523015 0
M  V30 1878 N 177.372 -0.689602 1.41712 0
M  V30 1879 C 178.335 -1.78521 1.43746 0
M  V30 1880 C 179.335 -1.57436 0.327191 0
M  V30 1881 O 180.525 -1.64 0.587348 0
M  V30 1882 C 177.657 -3.16971 1.25467 0
M  V30 1883 H 178.85 -1.78108 2.41283 0
M  V30 1884 H 176.403 -0.89781 1.27942 0
M  V30 1885 H 177.138 -3.23019 0.287948 0
M  V30 1886 H 176.923 -3.33678 2.05917 0
M  V30 1887 H 178.413 -3.96935 1.2974 0
M  V30 1888 N 178.85 -1.27639 -0.924453 0
M  V30 1889 C 180.075 -1.17101 -1.71179 0
M  V30 1890 C 180.5 0.268134 -1.86179 0
M  V30 1891 O 179.858 1.19415 -1.36418 0
M  V30 1892 C 179.906 -1.86313 -3.08739 0
M  V30 1893 O 179.01 -1.16331 -3.95652 0
M  V30 1894 H 178.351 -0.407091 -0.524569 0
M  V30 1895 H 180.881 -1.68767 -1.15666 0
M  V30 1896 H 180.891 -1.938 -3.59034 0
M  V30 1897 H 179.566 -2.91001 -2.97138 0
M  V30 1898 H 178.143 -1.16935 -3.54091 0
M  V30 1899 N 180.328 1.1314 -1.09713 0
M  V30 1900 C 181.291 2.16831 -0.742751 0
M  V30 1901 C 182.291 1.59159 0.229129 0
M  V30 1902 O 183.481 1.74199 0.00693237 0
M  V30 1903 C 180.613 3.40756 -0.0989168 0
M  V30 1904 H 181.806 2.49695 -1.66109 0
M  V30 1905 H 179.359 1.2802 -0.896699 0
M  V30 1906 H 180.094 3.13485 0.830514 0
M  V30 1907 H 179.879 3.83888 -0.798265 0
M  V30 1908 H 181.369 4.17386 0.133524 0
M  V30 1909 N 181.806 0.884767 1.30421 0
M  V30 1910 C 183.217 0.553656 1.78302 0
M  V30 1911 C 183.568 -0.930153 1.7275 0
M  V30 1912 O 182.693 -1.72681 1.30423 0
M  V30 1913 C 183.288 0.998234 3.2376 0
M  V30 1914 C 181.847 0.71854 3.69478 0
M  V30 1915 C 180.994 1.18132 2.50879 0
M  V30 1916 H 183.945 1.06901 1.17294 0
M  V30 1917 H 183.966 0.327118 3.79091 0
M  V30 1918 H 183.478 2.0782 3.27769 0
M  V30 1919 H 181.579 -0.349444 3.70958 0
M  V30 1920 H 181.692 1.30595 4.60958 0
M  V30 1921 H 180.056 0.600669 2.47516 0
M  V30 1922 H 180.839 2.26902 2.57624 0
M  V30 1923 N 183.284 -1.43765 0.645699 0
M  V30 1924 C 184.695 -1.85193 0.236719 0
M  V30 1925 C 185.046 -1.54045 -1.21509 0
M  V30 1926 O 184.171 -0.985694 -1.92647 0
M  V30 1927 C 184.766 -3.36151 0.422845 0
M  V30 1928 C 183.325 -3.76338 0.0682492 0
M  V30 1929 C 182.472 -2.67538 0.729306 0
M  V30 1930 H 185.423 -1.34025 0.849883 0
M  V30 1931 H 185.444 -3.79032 -0.333904 0
M  V30 1932 H 184.956 -3.5879 1.47958 0
M  V30 1933 H 183.057 -3.59312 -0.986179 0
M  V30 1934 H 183.17 -4.76603 0.488469 0
M  V30 1935 H 181.534 -2.54176 0.163235 0
M  V30 1936 H 182.317 -2.93006 1.78892 0
M  V30 1937 N 184.763 -0.387143 -1.52771 0
M  V30 1938 C 185.673 0.456442 -2.30117 0
M  V30 1939 C 186.689 1.07342 -1.36944 0
M  V30 1940 O 187.865 1.07971 -1.70013 0
M  V30 1941 C 184.93 1.56957 -3.09136 0
M  V30 1942 C 183.991 0.977916 -4.18014 0
M  V30 1943 C 183.224 2.038 -4.93256 0
M  V30 1944 O 183.447 3.25271 -4.68567 0
M  V30 1945 O 182.381 1.6565 -5.78657 0
M  V30 1946 H 186.207 -0.17359 -3.03203 0
M  V30 1947 H 183.792 -0.150919 -1.48636 0
M  V30 1948 H 185.674 2.21628 -3.58412 0
M  V30 1949 H 184.349 2.18461 -2.38865 0
M  V30 1950 H 183.256 0.294525 -3.72939 0
M  V30 1951 H 184.589 0.407128 -4.90513 0
M  V30 1952 N 186.241 1.57166 -0.116904 0
M  V30 1953 C 187.652 1.82169 0.408809 0
M  V30 1954 C 188.003 1.03393 1.66746 0
M  V30 1955 O 187.128 0.269886 2.1471 0
M  V30 1956 C 187.723 3.30429 0.748466 0
M  V30 1957 C 186.282 3.5612 1.21882 0
M  V30 1958 C 185.429 2.76374 0.226452 0
M  V30 1959 H 188.38 1.5497 -0.342063 0
M  V30 1960 H 188.401 3.44943 1.60607 0
M  V30 1961 H 187.913 3.87737 -0.167784 0
M  V30 1962 H 186.014 3.04168 2.15204 0
M  V30 1963 H 186.127 4.64705 1.16559 0
M  V30 1964 H 184.491 2.44515 0.713063 0
M  V30 1965 H 185.274 3.3644 -0.682859 0
M  V30 1966 N 187.719 -0.156864 1.56817 0
M  V30 1967 C 189.13 -0.717916 1.72345 0
M  V30 1968 C 189.481 -1.82124 0.729747 0
M  V30 1969 O 188.606 -2.16141 -0.105781 0
M  V30 1970 C 189.201 -1.30904 3.12489 0
M  V30 1971 C 187.76 -1.81676 3.29653 0
M  V30 1972 C 186.907 -0.701349 2.68284 0
M  V30 1973 H 189.858 0.0686989 1.58551 0
M  V30 1974 H 189.879 -2.17882 3.11942 0
M  V30 1975 H 189.391 -0.505796 3.8479 0
M  V30 1976 H 187.492 -2.64598 2.62333 0
M  V30 1977 H 187.605 -1.95226 4.3752 0
M  V30 1978 H 185.969 -1.12548 2.28484 0
M  V30 1979 H 186.752 0.0902846 3.43181 0
M  V30 1980 N 189.197 -1.51736 -0.425897 0
M  V30 1981 C 190.474 -1.55519 -1.1863 0
M  V30 1982 C 190.854 -0.326219 -2.08564 0
M  V30 1983 O 190.202 0.688012 -2.17896 0
M  V30 1984 C 190.412 -2.87521 -1.9782 0
M  V30 1985 C 191.76 -3.39899 -2.54468 0
M  V30 1986 O 192.784 -2.89148 -2.08019 0
M  V30 1987 O 191.643 -4.2848 -3.39215 0
M  V30 1988 H 188.737 -0.625739 -0.540721 0
M  V30 1989 H 191.283 -1.64055 -0.434038 0
M  V30 1990 H 190.055 -3.68422 -1.31836 0
M  V30 1991 H 189.678 -2.822 -2.80088 0
M  V30 1992 N 190.675 0.682077 -1.42076 0
M  V30 1993 C 191.605 1.80796 -1.47767 0
M  V30 1994 C 192.586 1.6677 -0.334954 0
M  V30 1995 O 193.771 1.863 -0.548264 0
M  V30 1996 C 190.901 3.19038 -1.37229 0
M  V30 1997 C 189.855 3.47789 -2.49453 0
M  V30 1998 C 189.181 4.8553 -2.23975 0
M  V30 1999 C 190.481 3.45411 -3.91776 0
M  V30 2000 H 192.175 1.7629 -2.41997 0
M  V30 2001 H 189.721 0.846721 -1.16476 0
M  V30 2002 H 191.674 3.97528 -1.39821 0
M  V30 2003 H 190.398 3.24204 -0.394907 0
M  V30 2004 H 189.057 2.71657 -2.46166 0
M  V30 2005 H 188.705 4.87337 -1.24547 0
M  V30 2006 H 188.405 5.0573 -2.99184 0
M  V30 2007 H 189.929 5.66312 -2.28304 0
M  V30 2008 H 191.343 4.13882 -3.96705 0
M  V30 2009 H 189.74 3.77145 -4.66778 0
M  V30 2010 H 190.81 2.44122 -4.18966 0
M  V30 2011 N 192.153 1.28127 0.917671 0
M  V30 2012 C 193.378 1.18007 1.70555 0
M  V30 2013 C 193.803 -0.258257 1.86319 0
M  V30 2014 O 193.161 -1.1869 1.37049 0
M  V30 2015 C 193.209 1.87948 3.07746 0
M  V30 2016 O 192.313 1.18427 3.9503 0
M  V30 2017 H 191.654 0.409867 0.522403 0
M  V30 2018 H 194.184 1.69379 1.1477 0
M  V30 2019 H 194.194 1.95701 3.58001 0
M  V30 2020 H 192.869 2.92573 2.95591 0
M  V30 2021 H 191.446 1.18811 3.53466 0
M  V30 2022 N 193.631 -1.12557 1.10312 0
M  V30 2023 C 194.594 -2.16434 0.75424 0
M  V30 2024 C 195.594 -1.59278 -0.220685 0
M  V30 2025 O 196.784 -1.742 0.00230591 0
M  V30 2026 C 193.916 -3.40699 0.116987 0
M  V30 2027 H 195.109 -2.48811 1.67431 0
M  V30 2028 H 192.662 -1.27542 0.903475 0
M  V30 2029 H 193.397 -3.13921 -0.813877 0
M  V30 2030 H 193.182 -3.83459 0.818613 0
M  V30 2031 H 194.672 -4.17451 -0.111387 0
M  V30 2032 N 195.109 -0.891671 -1.2995 0
M  V30 2033 C 196.334 -0.527932 -2.00568 0
M  V30 2034 C 196.759 0.877969 -1.66353 0
M  V30 2035 O 196.117 1.58301 -0.883762 0
M  V30 2036 C 196.165 -0.717745 -3.53385 0
M  V30 2037 O 195.269 0.233376 -4.11739 0
M  V30 2038 H 194.61 -0.20722 -0.630837 0
M  V30 2039 H 197.14 -1.20105 -1.65638 0
M  V30 2040 H 197.15 -0.619307 -4.03272 0
M  V30 2041 H 195.825 -1.74276 -3.77625 0
M  V30 2042 H 194.402 0.0880706 -3.72796 0
M  V30 2043 N 196.587 1.43421 -0.653314 0
M  V30 2044 C 198.003 1.56341 -0.320886 0
M  V30 2045 C 198.203 1.63696 1.17499 0
M  V30 2046 O 197.259 1.59208 1.95982 0
M  V30 2047 C 198.572 2.82424 -1.03233 0
M  V30 2048 C 200.12 2.96168 -1.01259 0
M  V30 2049 C 200.595 4.25084 -1.70492 0
M  V30 2050 N 202.086 4.31948 -1.67257 0
M  V30 2051 C 202.821 5.30466 -2.17701 0
M  V30 2052 N 202.317 6.35261 -2.76434 0
M  V30 2053 N 204.11 5.2212 -2.082 0
M  V30 2054 H 196.261 1.3689 -1.62403 0
M  V30 2055 H 198.524 0.657455 -0.682977 0
M  V30 2056 H 198.23 2.83053 -2.08744 0
M  V30 2057 H 198.104 3.72653 -0.583948 0
M  V30 2058 H 200.491 2.9508 0.0341235 0
M  V30 2059 H 200.572 2.07229 -1.49966 0
M  V30 2060 H 200.216 4.26932 -2.7512 0
M  V30 2061 H 200.146 5.1292 -1.19251 0
M  V30 2062 H 202.637 3.56838 -1.24398 0
M  V30 2063 H 202.95 7.06754 -3.12601 0
M  V30 2064 H 201.295 6.35884 -2.80495 0
M  V30 2065 H 204.486 4.39166 -1.62021 0
M  V30 2066 H 204.659 5.98739 -2.47822 0
M  V30 2067 N 198.065 0.39524 1.52563 0
M  V30 2068 C 199.29 -0.187456 2.06551 0
M  V30 2069 C 199.715 -1.39249 1.26457 0
M  V30 2070 O 199.073 -1.78947 0.291151 0
M  V30 2071 C 199.121 -0.529985 3.56684 0
M  V30 2072 O 198.225 -1.62307 3.79118 0
M  V30 2073 H 197.566 -0.0202537 0.663691 0
M  V30 2074 H 200.096 0.564426 1.96661 0
M  V30 2075 H 200.106 -0.792598 4.00227 0
M  V30 2076 H 198.781 0.350987 4.14416 0
M  V30 2077 H 197.358 -1.3537 3.47461 0
M  V30 2078 N 199.544 -1.57102 0.125237 0
M  V30 2079 C 200.507 -2.14471 -0.80838 0
M  V30 2080 C 201.507 -1.0811 -1.19033 0
M  V30 2081 O 202.697 -1.33856 -1.11482 0
M  V30 2082 C 199.829 -2.69005 -2.09402 0
M  V30 2083 H 201.022 -2.98297 -0.309696 0
M  V30 2084 H 198.575 -1.55807 -0.124051 0
M  V30 2085 H 199.31 -1.88785 -2.63687 0
M  V30 2086 H 199.095 -3.46799 -1.82957 0
M  V30 2087 H 200.585 -3.13278 -2.76128 0
M  V30 2088 N 201.022 0.148545 -1.56898 0
M  V30 2089 C 202.271 0.85984 -1.82454 0
M  V30 2090 C 202.584 1.82406 -0.706229 0
M  V30 2091 O 203.79 2.57938 -0.847349 0
M  V30 2092 C 202.246 1.57967 -3.2338 0
M  V30 2093 C 201.854 0.65794 -4.43142 0
M  V30 2094 C 203.598 2.27784 -3.58211 0
M  V30 2095 C 201.505 1.3793 -5.75091 0
M  V30 2096 H 200.435 0.324834 -0.68044 0
M  V30 2097 H 203.086 0.112588 -1.83154 0
M  V30 2098 H 201.468 2.37249 -3.17063 0
M  V30 2099 H 202.642 -0.0995497 -4.60692 0
M  V30 2100 H 200.957 0.0682643 -4.16344 0
M  V30 2101 H 203.554 2.8239 -4.54048 0
M  V30 2102 H 203.897 3.04204 -2.84193 0
M  V30 2103 H 204.43 1.55421 -3.66182 0
M  V30 2104 H 201.169 0.656982 -6.52199 0
M  V30 2105 H 200.689 2.10954 -5.61479 0
M  V30 2106 H 202.368 1.92063 -6.17835 0
M  V30 2107 N 202.5 1.5196 0.417844 0
M  V30 2108 C 203.777 1.56146 1.17803 0
M  V30 2109 C 204.157 0.337275 2.08388 0
M  V30 2110 O 203.505 -0.676447 2.18258 0
M  V30 2111 C 203.715 2.88566 1.96293 0
M  V30 2112 C 205.063 3.41244 2.52662 0
M  V30 2113 O 206.087 2.90247 2.06483 0
M  V30 2114 O 204.946 4.30273 3.36938 0
M  V30 2115 H 202.04 0.628598 0.537395 0
M  V30 2116 H 204.586 1.64283 0.425331 0
M  V30 2117 H 203.358 3.69116 1.2988 0
M  V30 2118 H 202.981 2.83681 2.78587 0
M  V30 2119 N 203.978 -0.674533 1.42435 0
M  V30 2120 C 205.203 -1.46784 1.46524 0
M  V30 2121 C 205.628 -1.87938 0.078066 0
M  V30 2122 O 204.986 -1.56014 -0.92354 0
M  V30 2123 C 205.034 -2.69307 2.39805 0
M  V30 2124 O 204.138 -3.67587 1.86959 0
M  V30 2125 H 203.479 -0.440959 0.496439 0
M  V30 2126 H 206.009 -0.827326 1.87127 0
M  V30 2127 H 206.019 -3.17374 2.56393 0
M  V30 2128 H 204.694 -2.38692 3.40586 0
M  V30 2129 H 203.271 -3.2662 1.79927 0
M  V30 2130 N 205.456 -1.28612 -0.910864 0
M  V30 2131 C 206.386 -1.15326 -2.03032 0
M  V30 2132 C 207.367 -0.0502924 -1.70026 0
M  V30 2133 O 208.552 -0.227797 -1.92859 0
M  V30 2134 C 205.682 -0.817343 -3.37545 0
M  V30 2135 C 204.636 -1.8754 -3.84724 0
M  V30 2136 C 203.962 -1.39305 -5.16235 0
M  V30 2137 C 205.262 -3.28244 -4.06267 0
M  V30 2138 H 206.956 -2.08975 -2.14406 0
M  V30 2139 H 204.502 -1.00612 -1.03021 0
M  V30 2140 H 206.455 -0.711151 -4.15356 0
M  V30 2141 H 205.179 0.154846 -3.26233 0
M  V30 2142 H 203.838 -1.97079 -3.09121 0
M  V30 2143 H 203.486 -0.409846 -5.01328 0
M  V30 2144 H 203.186 -2.10057 -5.48771 0
M  V30 2145 H 204.71 -1.30014 -5.96598 0
M  V30 2146 H 206.124 -3.21611 -4.74594 0
M  V30 2147 H 204.521 -3.96855 -4.5014 0
M  V30 2148 H 205.591 -3.72048 -3.10979 0
M  V30 2149 N 206.934 1.1197 -1.10907 0
M  V30 2150 C 207.882 2.19927 -0.757303 0
M  V30 2151 C 208.876 1.67564 0.248747 0
M  V30 2152 O 210.082 1.79672 0.108605 0
M  V30 2153 H 206.457 0.716925 -0.226987 0
M  V30 2154 H 208.428 2.46847 -1.67658 0
M  V30 2155 C 207.177 3.47061 -0.210671 0
M  V30 2156 H 206.5 3.87703 -0.976049 0
M  V30 2157 H 207.94 4.24 -0.0026584 0
M  V30 2158 C 206.399 3.19864 1.05777 0
M  V30 2159 O 206.929 3.40049 2.13845 0
M  V30 2160 N 205.135 2.73636 0.978349 0
M  V30 2161 H 204.682 2.5741 0.0988246 0
M  V30 2162 H 204.64 2.55815 1.82773 0
M  V30 2163 N 208.412 0.89855 1.29475 0
M  V30 2164 C 209.36 0.365253 2.29714 0
M  V30 2165 C 210.354 -0.534993 1.6073 0
M  V30 2166 O 211.56 -0.417921 1.75081 0
M  V30 2167 H 207.935 0.0994853 0.74539 0
M  V30 2168 H 209.906 1.22406 2.72138 0
M  V30 2169 C 208.655 -0.393159 3.4547 0
M  V30 2170 H 207.978 0.290332 3.98744 0
M  V30 2171 H 209.418 -0.731189 4.17648 0
M  V30 2172 C 207.877 -1.59539 2.9673 0
M  V30 2173 O 208.407 -2.69469 2.97908 0
M  V30 2174 N 206.613 -1.43716 2.52575 0
M  V30 2175 H 206.16 -0.542828 2.51816 0
M  V30 2176 H 206.118 -2.24288 2.20323 0
M  V30 2177 N 209.89 -1.43072 0.660911 0
M  V30 2178 C 211.306 -1.56169 0.329173 0
M  V30 2179 C 211.506 -1.64317 -1.16629 0
M  V30 2180 O 210.562 -1.60245 -1.95135 0
M  V30 2181 C 211.875 -2.81873 1.04729 0
M  V30 2182 C 213.423 -2.95627 1.02828 0
M  V30 2183 C 213.898 -4.24174 1.72744 0
M  V30 2184 N 215.389 -4.31055 1.69545 0
M  V30 2185 C 216.124 -5.29304 2.20511 0
M  V30 2186 N 215.62 -6.33786 2.79799 0
M  V30 2187 N 217.413 -5.21008 2.10966 0
M  V30 2188 H 209.564 -1.36027 1.63127 0
M  V30 2189 H 211.827 -0.653823 0.686454 0
M  V30 2190 H 211.533 -2.81942 2.10242 0
M  V30 2191 H 211.407 -3.72338 0.603702 0
M  V30 2192 H 213.794 -2.95094 -0.0184742 0
M  V30 2193 H 213.875 -2.06431 1.51063 0
M  V30 2194 H 213.519 -4.25467 2.7738 0
M  V30 2195 H 213.449 -5.1228 1.2197 0
M  V30 2196 H 215.94 -3.56174 1.26288 0
M  V30 2197 H 216.253 -7.05086 3.16344 0
M  V30 2198 H 214.598 -6.34387 2.83863 0
M  V30 2199 H 217.789 -4.38301 1.64347 0
M  V30 2200 H 217.962 -5.97416 2.50993 0
M  V30 2201 N 211.368 -0.403325 -1.52352 0
M  V30 2202 C 212.301 0.469463 -2.23319 0
M  V30 2203 C 213.279 1.05272 -1.23922 0
M  V30 2204 O 214.463 1.10169 -1.52954 0
M  V30 2205 C 211.59 1.6511 -2.9573 0
M  V30 2206 C 210.636 1.19178 -4.0951 0
M  V30 2207 S 211.469 0.161718 -5.35256 0
M  V30 2208 C 212.625 1.34882 -6.11194 0
M  V30 2209 H 212.858 -0.133134 -2.97002 0
M  V30 2210 H 210.391 -0.187588 -1.53256 0
M  V30 2211 H 212.349 2.3287 -3.38056 0
M  V30 2212 H 211.01 2.22503 -2.21701 0
M  V30 2213 H 210.203 2.07444 -4.59329 0
M  V30 2214 H 209.805 0.592911 -3.6927 0
M  V30 2215 H 212.097 2.27345 -6.38217 0
M  V30 2216 H 213.04 0.89128 -7.02468 0
M  V30 2217 H 213.448 1.57198 -5.42171 0
M  V30 2218 N 212.846 1.57033 -0.133567 0
M  V30 2219 C 213.776 2.1909 0.807567 0
M  V30 2220 C 214.757 1.13517 1.26681 0
M  V30 2221 O 215.942 1.41809 1.32679 0
M  V30 2222 C 213.072 2.80188 2.05212 0
M  V30 2223 C 212.026 3.91471 1.73015 0
M  V30 2224 C 211.352 4.39443 3.04622 0
M  V30 2225 C 212.652 5.12886 0.987168 0
M  V30 2226 H 214.346 2.97988 0.290403 0
M  V30 2227 H 211.892 1.43335 0.138239 0
M  V30 2228 H 213.845 3.22264 2.71521 0
M  V30 2229 H 212.569 1.98601 2.59278 0
M  V30 2230 H 211.228 3.49993 1.0909 0
M  V30 2231 H 210.876 3.54695 3.56651 0
M  V30 2232 H 210.576 5.14495 2.83847 0
M  V30 2233 H 212.1 4.8418 3.72024 0
M  V30 2234 H 213.514 5.51891 1.55208 0
M  V30 2235 H 211.911 5.93615 0.87985 0
M  V30 2236 H 212.981 4.84894 -0.0235286 0
M  V30 2237 N 214.325 -0.140222 1.56975 0
M  V30 2238 C 215.55 -0.870414 1.88251 0
M  V30 2239 C 215.975 -1.73637 0.723312 0
M  V30 2240 O 215.333 -1.78329 -0.32689 0
M  V30 2241 C 215.381 -1.69737 3.18154 0
M  V30 2242 O 214.485 -2.80229 3.02565 0
M  V30 2243 H 213.826 -0.242025 0.61832 0
M  V30 2244 H 216.356 -0.128999 2.04193 0
M  V30 2245 H 216.366 -2.09099 3.50345 0
M  V30 2246 H 215.041 -1.06152 4.02125 0
M  V30 2247 H 213.618 -2.44224 2.81796 0
M  V30 2248 N 215.803 -1.52179 -0.40978 0
M  V30 2249 C 216.735 -1.71703 -1.51825 0
M  V30 2250 C 217.748 -0.597445 -1.51441 0
M  V30 2251 O 218.937 -0.872582 -1.55719 0
M  V30 2252 C 216.037 -1.74171 -2.90719 0
M  V30 2253 C 215.21 -3.03156 -3.15302 0
M  V30 2254 C 214.269 -2.97445 -4.34065 0
M  V30 2255 O 213.295 -3.71352 -4.31377 0
M  V30 2256 N 214.497 -2.15191 -5.39141 0
M  V30 2257 H 217.262 -2.67334 -1.35472 0
M  V30 2258 H 214.823 -1.50409 -0.599069 0
M  V30 2259 H 216.815 -1.67884 -3.68235 0
M  V30 2260 H 215.385 -0.860166 -3.00533 0
M  V30 2261 H 214.605 -3.23097 -2.25836 0
M  V30 2262 H 215.893 -3.88484 -3.28569 0
M  V30 2263 H 215.291 -1.54573 -5.44173 0
M  V30 2264 H 213.848 -2.1476 -6.15403 0
M  V30 2265 N 217.281 0.66697 -1.42791 0
M  V30 2266 C 218.53 1.42278 -1.42968 0
M  V30 2267 C 218.843 1.9553 -0.0524489 0
M  V30 2268 O 220.049 2.71414 0.068363 0
M  V30 2269 C 218.505 2.57418 -2.51524 0
M  V30 2270 C 218.113 2.10832 -3.9529 0
M  V30 2271 C 219.857 3.34878 -2.60877 0
M  V30 2272 C 217.764 3.23101 -4.95338 0
M  V30 2273 H 216.694 0.534533 -0.531781 0
M  V30 2274 H 219.345 0.721302 -1.68729 0
M  V30 2275 H 217.727 3.29971 -2.18941 0
M  V30 2276 H 218.901 1.4538 -4.37266 0
M  V30 2277 H 217.216 1.46289 -3.89857 0
M  V30 2278 H 219.813 4.18505 -3.32802 0
M  V30 2279 H 220.156 3.81993 -1.6549 0
M  V30 2280 H 220.689 2.69398 -2.92693 0
M  V30 2281 H 217.428 2.80969 -5.9223 0
M  V30 2282 H 216.948 3.87309 -4.57987 0
M  V30 2283 H 218.627 3.88447 -5.17415 0
M  V30 2284 N 218.759 1.29093 0.90403 0
M  V30 2285 C 220.005 1.17996 1.65676 0
M  V30 2286 C 220.36 -0.266816 1.90541 0
M  V30 2287 O 219.653 -1.19 1.50165 0
M  V30 2288 C 219.847 1.92224 3.01305 0
M  V30 2289 C 219.676 3.43972 2.89678 0
M  V30 2290 C 218.446 4.1332 2.90679 0
M  V30 2291 C 220.644 4.39546 2.67028 0
M  V30 2292 N 218.626 5.51463 2.69743 0
M  V30 2293 C 219.997 5.65119 2.5503 0
M  V30 2294 C 222.052 4.29359 2.52101 0
M  V30 2295 C 220.755 6.81663 2.29626 0
M  V30 2296 C 222.781 5.4565 2.28079 0
M  V30 2297 C 222.143 6.70193 2.16843 0
M  V30 2298 H 218.242 0.486759 0.612037 0
M  V30 2299 H 220.826 1.62868 1.06688 0
M  V30 2300 H 218.997 1.49773 3.58361 0
M  V30 2301 H 220.729 1.73429 3.65656 0
M  V30 2302 H 217.484 3.64984 3.01801 0
M  V30 2303 H 217.908 6.24105 2.6234 0
M  V30 2304 H 222.55 3.33769 2.59534 0
M  V30 2305 H 220.268 7.77313 2.20932 0
M  V30 2306 H 223.854 5.39664 2.1738 0
M  V30 2307 H 222.734 7.58659 1.98511 0
M  V30 2308 N 220.237 -1.11381 1.11499 0
M  V30 2309 C 221.462 -1.87475 0.887019 0
M  V30 2310 C 221.887 -1.79639 -0.557796 0
M  V30 2311 O 221.245 -1.15924 -1.39396 0
M  V30 2312 C 221.293 -3.34213 1.35403 0
M  V30 2313 O 220.397 -4.0903 0.526146 0
M  V30 2314 H 219.738 -0.582099 0.319463 0
M  V30 2315 H 222.268 -1.40785 1.48461 0
M  V30 2316 H 222.278 -3.8506 1.34881 0
M  V30 2317 H 220.953 -3.39232 2.40612 0
M  V30 2318 H 219.53 -3.68082 0.597522 0
M  V30 2319 N 221.715 -0.905404 -1.28997 0
M  V30 2320 C 222.665 -0.358713 -2.25161 0
M  V30 2321 C 223.649 0.524449 -1.52113 0
M  V30 2322 O 224.841 0.365534 -1.73184 0
M  V30 2323 C 221.97 0.407609 -3.40872 0
M  V30 2324 C 221.056 -0.490797 -4.21251 0
M  V30 2325 N 221.447 -1.60061 -4.79806 0
M  V30 2326 C 219.745 -0.289636 -4.45059 0
M  V30 2327 C 220.446 -2.15757 -5.40207 0
M  V30 2328 N 219.422 -1.44988 -5.23908 0
M  V30 2329 H 223.224 -1.20642 -2.67998 0
M  V30 2330 H 220.738 -0.757103 -1.43672 0
M  V30 2331 H 222.735 0.816046 -4.08835 0
M  V30 2332 H 221.395 1.25251 -2.9957 0
M  V30 2333 H 222.406 -1.98329 -4.7842 0
M  V30 2334 H 219.083 0.51643 -4.14294 0
M  V30 2335 H 220.473 -3.09069 -5.96595 0
M  V30 2336 N 223.193 1.4272 -0.668489 0
M  V30 2337 C 224.439 2.02443 -0.197076 0
M  V30 2338 C 224.794 1.51882 1.18109 0
M  V30 2339 O 224.087 0.708618 1.78015 0
M  V30 2340 C 224.281 3.57021 -0.164499 0
M  V30 2341 C 224.11 4.22583 -1.53797 0
M  V30 2342 C 222.88 4.58019 -2.13416 0
M  V30 2343 C 225.078 4.50588 -2.47941 0
M  V30 2344 N 223.06 5.08729 -3.4361 0
M  V30 2345 C 224.431 5.02782 -3.62782 0
M  V30 2346 C 226.486 4.32571 -2.46551 0
M  V30 2347 C 225.189 5.38852 -4.76478 0
M  V30 2348 C 227.215 4.69713 -3.59338 0
M  V30 2349 C 226.577 5.22053 -4.72906 0
M  V30 2350 H 222.676 0.773214 -0.116894 0
M  V30 2351 H 225.26 1.73673 -0.880108 0
M  V30 2352 H 223.431 3.85323 0.487925 0
M  V30 2353 H 225.163 4.03439 0.319207 0
M  V30 2354 H 221.918 4.43566 -1.65969 0
M  V30 2355 H 222.342 5.38521 -4.10273 0
M  V30 2356 H 226.984 3.91365 -1.59978 0
M  V30 2357 H 224.702 5.78993 -5.63731 0
M  V30 2358 H 228.288 4.57454 -3.59482 0
M  V30 2359 H 227.168 5.50258 -5.58736 0
M  V30 2360 N 224.671 0.411399 1.52136 0
M  V30 2361 C 225.896 -0.165538 2.06738 0
M  V30 2362 C 226.321 -1.379 1.27926 0
M  V30 2363 O 225.679 -1.78628 0.310114 0
M  V30 2364 C 225.727 -0.492124 3.57226 0
M  V30 2365 O 224.831 -1.58276 3.80818 0
M  V30 2366 H 224.172 -0.0132132 0.663869 0
M  V30 2367 H 226.702 0.585253 1.96051 0
M  V30 2368 H 226.712 -0.750104 4.01045 0
M  V30 2369 H 225.387 0.394922 4.14021 0
M  V30 2370 H 223.964 -1.31677 3.48877 0
M  V30 2371 N 226.149 -1.5696 0.141893 0
M  V30 2372 C 227.079 -2.19516 -0.795936 0
M  V30 2373 C 228.06 -1.14187 -1.26077 0
M  V30 2374 O 229.245 -1.42511 -1.31925 0
M  V30 2375 C 226.375 -2.81272 -2.03723 0
M  V30 2376 C 225.329 -3.92384 -1.70936 0
M  V30 2377 C 224.655 -4.41052 -3.02287 0
M  V30 2378 C 225.955 -5.13403 -0.959954 0
M  V30 2379 H 227.649 -2.98138 -0.274596 0
M  V30 2380 H 225.195 -1.43406 -0.130636 0
M  V30 2381 H 227.148 -3.237 -2.69808 0
M  V30 2382 H 225.872 -1.99973 -2.58221 0
M  V30 2383 H 224.531 -3.50566 -1.07232 0
M  V30 2384 H 224.179 -3.56582 -3.54765 0
M  V30 2385 H 223.879 -5.15993 -2.81114 0
M  V30 2386 H 225.403 -4.86146 -3.69451 0
M  V30 2387 H 226.817 -5.52706 -1.52279 0
M  V30 2388 H 225.214 -5.94073 -0.848357 0
M  V30 2389 H 226.284 -4.84875 0.0492434 0
M  V30 2390 N 227.627 0.131896 -1.57047 0
M  V30 2391 C 228.557 1.16384 -2.02428 0
M  V30 2392 C 229.538 1.43936 -0.90644 0
M  V30 2393 O 230.723 1.54599 -1.17528 0
M  V30 2394 C 227.853 2.49328 -2.4177 0
M  V30 2395 C 226.807 2.36266 -3.56879 0
M  V30 2396 C 226.133 3.74057 -3.8208 0
M  V30 2397 C 227.433 1.834 -4.89042 0
M  V30 2398 H 229.127 0.786433 -2.88887 0
M  V30 2399 H 226.673 0.376855 -1.38981 0
M  V30 2400 H 228.626 3.21759 -2.7212 0
M  V30 2401 H 227.35 2.88934 -1.52266 0
M  V30 2402 H 226.009 1.66286 -3.26718 0
M  V30 2403 H 225.657 4.11125 -2.89803 0
M  V30 2404 H 225.357 3.66174 -4.59554 0
M  V30 2405 H 226.881 4.48012 -4.1487 0
M  V30 2406 H 228.295 2.45636 -5.18011 0
M  V30 2407 H 226.692 1.8637 -5.70426 0
M  V30 2408 H 227.762 0.790662 -4.7841 0
M  V30 2409 N 229.106 1.52395 0.401703 0
M  V30 2410 C 230.331 1.70972 1.17403 0
M  V30 2411 C 230.756 0.421615 1.83314 0
M  V30 2412 O 230.114 -0.621564 1.70312 0
M  V30 2413 C 230.162 2.85151 2.20728 0
M  V30 2414 O 229.266 2.51238 3.27037 0
M  V30 2415 H 228.607 0.568927 0.342372 0
M  V30 2416 H 231.137 1.99131 0.469891 0
M  V30 2417 H 231.147 3.10279 2.64936 0
M  V30 2418 H 229.822 3.78603 1.7214 0
M  V30 2419 H 228.399 2.36808 2.88057 0
M  V30 2420 N 230.584 -0.659388 1.43143 0
M  V30 2421 C 231.547 -1.75432 1.47501 0
M  V30 2422 C 232.547 -1.56707 0.360512 0
M  V30 2423 O 233.737 -1.62717 0.622002 0
M  V30 2424 C 230.869 -3.14239 1.32162 0
M  V30 2425 H 232.062 -1.7295 2.45006 0
M  V30 2426 H 229.615 -0.870469 1.29817 0
M  V30 2427 H 230.35 -3.22336 0.356401 0
M  V30 2428 H 230.135 -3.29235 2.12948 0
M  V30 2429 H 231.625 -3.94094 1.3813 0
M  V30 2430 N 232.062 -1.29571 -0.897171 0
M  V30 2431 C 233.473 -1.15964 -1.46319 0
M  V30 2432 C 233.824 0.244267 -1.94674 0
M  V30 2433 O 232.949 1.13998 -1.83939 0
M  V30 2434 C 233.544 -2.09906 -2.65942 0
M  V30 2435 C 232.103 -2.00314 -3.18671 0
M  V30 2436 C 231.25 -2.00687 -1.91363 0
M  V30 2437 H 234.201 -1.42019 -0.708268 0
M  V30 2438 H 234.222 -1.67276 -3.41759 0
M  V30 2439 H 233.734 -3.12075 -2.30718 0
M  V30 2440 H 231.835 -1.01242 -3.58582 0
M  V30 2441 H 231.948 -2.88102 -3.82798 0
M  V30 2442 H 230.312 -1.45319 -2.09175 0
M  V30 2443 H 231.095 -3.04566 -1.58413 0
M  V30 2444 N 233.54 1.10788 -1.12088 0
M  V30 2445 C 234.765 1.87002 -0.896949 0
M  V30 2446 C 235.19 1.79933 0.548261 0
M  V30 2447 O 234.548 1.16662 1.38779 0
M  V30 2448 C 234.596 3.3349 -1.37174 0
M  V30 2449 O 233.7 4.08745 -0.547831 0
M  V30 2450 H 233.041 0.580397 -0.322545 0
M  V30 2451 H 235.571 1.39996 -1.49206 0
M  V30 2452 H 235.581 3.84339 -1.36922 0
M  V30 2453 H 234.256 3.37951 -2.42408 0
M  V30 2454 H 232.833 3.6776 -0.617034 0
M  V30 2455 N 235.018 0.912232 1.28515 0
M  V30 2456 C 236.258 0.551677 1.96814 0
M  V30 2457 C 236.622 -0.887825 1.7024 0
M  V30 2458 O 237.823 -1.35588 2.32098 0
M  V30 2459 C 236.094 0.850555 3.47132 0
M  V30 2460 S 237.653 0.59619 4.34731 0
M  V30 2461 H 234.471 0.204191 0.681049 0
M  V30 2462 H 237.073 1.17736 1.56072 0
M  V30 2463 H 235.777 1.8962 3.63968 0
M  V30 2464 H 235.308 0.213471 3.9282 0
M  V30 2465 H 237.323 -0.553154 4.93107 0
M  V30 2466 N 236.496 -1.42363 0.676048 0
M  V30 2467 C 237.459 -2.29199 0.00766941 0
M  V30 2468 C 238.459 -1.43389 -0.727745 0
M  V30 2469 O 239.649 -1.64764 -0.56556 0
M  V30 2470 C 236.781 -3.2591 -0.999785 0
M  V30 2471 H 237.974 -2.89794 0.771988 0
M  V30 2472 H 235.527 -1.50024 0.438468 0
M  V30 2473 H 236.262 -2.70256 -1.79255 0
M  V30 2474 H 236.047 -3.89202 -0.475829 0
M  V30 2475 H 237.537 -3.91028 -1.46583 0
M  V30 2476 N 237.974 -0.419461 -1.51915 0
M  V30 2477 C 238.937 0.389116 -2.25873 0
M  V30 2478 C 239.937 0.964924 -1.28631 0
M  V30 2479 O 241.127 0.842179 -1.52489 0
M  V30 2480 C 238.259 1.54874 -3.03689 0
M  V30 2481 H 239.452 -0.258799 -2.98781 0
M  V30 2482 H 237.005 -0.172209 -1.55348 0
M  V30 2483 H 237.74 2.23323 -2.35154 0
M  V30 2484 H 237.525 1.14223 -3.75094 0
M  V30 2485 H 239.015 2.12046 -3.59759 0
M  V30 2486 N 239.452 1.56882 -0.150215 0
M  V30 2487 C 240.384 2.14057 0.819286 0
M  V30 2488 C 241.397 1.09082 1.20851 0
M  V30 2489 O 242.586 1.36347 1.15203 0
M  V30 2490 C 239.686 2.65102 2.11127 0
M  V30 2491 C 238.859 3.94511 1.88891 0
M  V30 2492 C 237.918 4.30834 3.02107 0
M  V30 2493 O 236.944 4.99099 2.73659 0
M  V30 2494 N 238.146 3.90676 4.29363 0
M  V30 2495 H 240.911 2.97871 0.330618 0
M  V30 2496 H 238.472 1.61866 0.0332538 0
M  V30 2497 H 240.464 2.86411 2.85921 0
M  V30 2498 H 239.034 1.85994 2.51247 0
M  V30 2499 H 238.254 3.81795 0.981152 0
M  V30 2500 H 239.542 4.7907 1.71376 0
M  V30 2501 H 238.94 3.35677 4.55343 0
M  V30 2502 H 237.497 4.1703 5.00928 0
M  V30 2503 N 240.93 -0.123565 1.57115 0
M  V30 2504 C 241.86 -1.15309 2.03042 0
M  V30 2505 C 242.841 -1.43454 0.914061 0
M  V30 2506 O 244.026 -1.53973 1.18347 0
M  V30 2507 C 241.156 -2.48043 2.43089 0
M  V30 2508 C 240.11 -2.3437 3.58127 0
M  V30 2509 C 239.436 -3.72026 3.84059 0
M  V30 2510 C 240.736 -1.80804 4.90007 0
M  V30 2511 H 242.43 -0.771102 2.893 0
M  V30 2512 H 239.976 -0.369479 1.39179 0
M  V30 2513 H 241.929 -3.20311 2.73823 0
M  V30 2514 H 240.653 -2.88122 1.53796 0
M  V30 2515 H 239.312 -1.64551 3.27595 0
M  V30 2516 H 238.96 -4.09582 2.91979 0
M  V30 2517 H 238.66 -3.63732 4.6149 0
M  V30 2518 H 240.184 -4.45806 4.1724 0
M  V30 2519 H 241.598 -2.42886 5.19307 0
M  V30 2520 H 239.995 -1.83343 5.71407 0
M  V30 2521 H 241.065 -0.76528 4.78823 0
M  V30 2522 N 242.408 -1.52605 -0.393616 0
M  V30 2523 C 243.685 -1.58001 -1.15304 0
M  V30 2524 C 244.065 -0.370385 -2.07825 0
M  V30 2525 O 243.413 0.641638 -2.19306 0
M  V30 2526 C 243.623 -2.91652 -1.91677 0
M  V30 2527 C 244.971 -3.4522 -2.47201 0
M  V30 2528 O 245.995 -2.93495 -2.01839 0
M  V30 2529 O 244.854 -4.35579 -3.3005 0
M  V30 2530 H 241.948 -0.637068 -0.527327 0
M  V30 2531 H 244.494 -1.64939 -0.399141 0
M  V30 2532 H 243.266 -3.71136 -1.23992 0
M  V30 2533 H 242.889 -2.88077 -2.74039 0
M  V30 2534 N 243.887 0.651787 -1.4349 0
M  V30 2535 C 245.303 0.96762 -1.26922 0
M  V30 2536 C 245.503 2.00602 -0.189982 0
M  V30 2537 O 244.559 2.48793 0.431107 0
M  V30 2538 C 245.872 1.45052 -2.63401 0
M  V30 2539 C 247.42 1.5671 -2.70945 0
M  V30 2540 C 247.895 2.0839 -4.07845 0
M  V30 2541 N 249.386 2.1569 -4.09917 0
M  V30 2542 C 250.121 2.56804 -5.12679 0
M  V30 2543 N 249.617 2.97203 -6.25813 0
M  V30 2544 N 251.41 2.56756 -5.00033 0
M  V30 2545 H 243.561 -0.0353158 -2.12371 0
M  V30 2546 H 245.824 0.0467858 -0.946845 0
M  V30 2547 H 245.53 0.761926 -3.43348 0
M  V30 2548 H 245.404 2.42529 -2.88894 0
M  V30 2549 H 247.791 2.2467 -1.9133 0
M  V30 2550 H 247.872 0.57662 -2.49216 0
M  V30 2551 H 247.516 1.41031 -4.87927 0
M  V30 2552 H 247.446 3.08271 -4.26938 0
M  V30 2553 H 249.937 1.87237 -3.28254 0
M  V30 2554 H 250.25 3.27328 -7.00055 0
M  V30 2555 H 248.595 2.95004 -6.29283 0
M  V30 2556 H 251.786 2.24572 -4.10713 0
M  V30 2557 H 251.959 2.88475 -5.80247 0
M  V30 2558 N 245.365 1.30045 0.890287 0
M  V30 2559 C 246.328 1.15963 1.977 0
M  V30 2560 C 247.328 0.0923777 1.60534 0
M  V30 2561 O 248.518 0.340071 1.70848 0
M  V30 2562 C 245.65 0.775451 3.31963 0
M  V30 2563 H 246.843 2.12502 2.11619 0
M  V30 2564 H 244.396 1.13366 1.07601 0
M  V30 2565 H 245.131 -0.189671 3.23745 0
M  V30 2566 H 244.916 1.54668 3.60306 0
M  V30 2567 H 246.406 0.700251 4.11687 0
M  V30 2568 N 246.843 -1.10192 1.12674 0
M  V30 2569 C 247.79 -2.16606 0.796906 0
M  V30 2570 C 248.76 -1.64394 -0.237476 0
M  V30 2571 O 249.945 -1.90474 -0.111484 0
M  V30 2572 C 247.085 -3.44116 0.26043 0
M  V30 2573 C 246.198 -4.10268 1.35293 0
M  V30 2574 C 245.333 -5.25507 0.775621 0
M  V30 2575 C 244.372 -5.83567 1.84706 0
M  V30 2576 N 243.509 -6.90179 1.28829 0
M  V30 2577 H 248.349 -2.44163 1.70846 0
M  V30 2578 H 245.886 -1.19846 0.85295 0
M  V30 2579 H 247.844 -4.17143 -0.0686814 0
M  V30 2580 H 246.474 -3.16901 -0.614274 0
M  V30 2581 H 245.526 -3.35184 1.79877 0
M  V30 2582 H 246.838 -4.4946 2.16303 0
M  V30 2583 H 245.992 -6.05398 0.397327 0
M  V30 2584 H 244.731 -4.87656 -0.0656581 0
M  V30 2585 H 243.736 -5.02344 2.23452 0
M  V30 2586 H 244.961 -6.23482 2.69161 0
M  V30 2587 H 242.907 -6.54322 0.468881 0
M  V30 2588 H 242.824 -7.28097 2.03497 0
M  V30 2589 H 244.092 -7.73844 0.937311 0
M  V30 2590 N 248.321 -0.919034 -1.28029 0
M  V30 2591 C 249.737 -0.617972 -1.4715 0
M  V30 2592 C 249.937 0.835242 -1.83374 0
M  V30 2593 O 248.993 1.61388 -1.94191 0
M  V30 2594 C 250.306 -1.56041 -2.57044 0
M  V30 2595 C 251.854 -1.56769 -2.7091 0
M  V30 2596 C 252.329 -2.49688 -3.83953 0
M  V30 2597 N 253.82 -2.47845 -3.91314 0
M  V30 2598 C 254.555 -3.16437 -4.78179 0
M  V30 2599 N 254.051 -3.94376 -5.69596 0
M  V30 2600 N 255.844 -3.05498 -4.71834 0
M  V30 2601 H 247.995 -1.85866 -1.02798 0
M  V30 2602 H 250.258 -0.797506 -0.512531 0
M  V30 2603 H 249.964 -2.59671 -2.372 0
M  V30 2604 H 249.838 -1.29551 -3.54255 0
M  V30 2605 H 252.225 -0.538745 -2.90141 0
M  V30 2606 H 252.306 -1.87305 -1.74214 0
M  V30 2607 H 251.95 -3.52688 -3.65477 0
M  V30 2608 H 251.88 -2.16453 -4.80058 0
M  V30 2609 H 254.371 -1.91234 -3.25941 0
M  V30 2610 H 254.684 -4.43721 -6.32718 0
M  V30 2611 H 253.029 -3.98481 -5.69419 0
M  V30 2612 H 256.22 -2.44108 -3.99411 0
M  V30 2613 H 256.393 -3.59225 -5.39316 0
M  V30 2614 N 249.799 1.42003 -0.683588 0
M  V30 2615 C 251.076 1.95112 -0.138075 0
M  V30 2616 C 251.456 1.62359 1.34918 0
M  V30 2617 O 250.804 0.924311 2.08971 0
M  V30 2618 C 251.014 3.46505 -0.416581 0
M  V30 2619 C 252.362 4.23254 -0.337834 0
M  V30 2620 O 253.386 3.54468 -0.35082 0
M  V30 2621 O 252.245 5.45743 -0.287596 0
M  V30 2622 H 249.339 0.826961 -0.00797996 0
M  V30 2623 H 251.885 1.51784 -0.758924 0
M  V30 2624 H 250.657 3.63582 -1.4465 0
M  V30 2625 H 250.28 3.969 0.235839 0
M  V30 2626 N 251.277 0.427512 1.51691 0
M  V30 2627 C 252.526 -0.143679 2.01188 0
M  V30 2628 C 252.839 -1.44642 1.31674 0
M  V30 2629 O 254.045 -2.09997 1.72086 0
M  V30 2630 C 252.501 -0.306602 3.58592 0
M  V30 2631 C 252.109 0.985125 4.37035 0
M  V30 2632 C 253.853 -0.832091 4.16265 0
M  V30 2633 C 251.76 0.788382 5.86122 0
M  V30 2634 H 250.69 -0.0574701 0.751807 0
M  V30 2635 H 253.341 0.555772 1.74881 0
M  V30 2636 H 251.723 -1.06882 3.81303 0
M  V30 2637 H 252.897 1.75492 4.26074 0
M  V30 2638 H 251.212 1.4384 3.90767 0
M  V30 2639 H 253.809 -0.995617 5.25349 0
M  V30 2640 H 254.152 -1.81186 3.74803 0
M  V30 2641 H 254.685 -0.128444 3.97593 0
M  V30 2642 H 251.424 1.74025 6.31978 0
M  V30 2643 H 250.944 0.0582143 5.99772 0
M  V30 2644 H 252.623 0.437722 6.45518 0
M  V30 2645 N 252.755 -1.56801 0.158532 0
M  V30 2646 C 254.001 -1.96781 -0.490405 0
M  V30 2647 C 254.334 -1.04397 -1.63753 0
M  V30 2648 O 253.609 -0.0885805 -1.94298 0
M  V30 2649 C 253.892 -3.4635 -0.985594 0
M  V30 2650 C 253.745 -4.49512 0.160824 0
M  V30 2651 C 255.064 -3.98697 -1.86355 0
M  V30 2652 H 252.183 -0.715482 -0.176788 0
M  V30 2653 H 254.825 -1.88451 0.242088 0
M  V30 2654 H 252.975 -3.53579 -1.60978 0
M  V30 2655 H 254.647 -4.54353 0.797537 0
M  V30 2656 H 252.89 -4.26013 0.818256 0
M  V30 2657 H 253.561 -5.51531 -0.227569 0
M  V30 2658 H 256.037 -3.94019 -1.33746 0
M  V30 2659 H 254.913 -5.03792 -2.17909 0
M  V30 2660 H 255.174 -3.41744 -2.8047 0
M  V30 2661 N 254.233 0.115231 -1.57178 0
M  V30 2662 C 255.649 0.468877 -1.52557 0
M  V30 2663 C 255.849 1.81649 -0.872125 0
M  V30 2664 O 254.905 2.48347 -0.45606 0
M  V30 2665 C 256.218 0.4499 -2.97315 0
M  V30 2666 C 257.766 0.533185 -3.08425 0
M  V30 2667 C 258.241 0.54456 -4.54751 0
M  V30 2668 N 259.732 0.605892 -4.5922 0
M  V30 2669 C 260.467 0.636203 -5.6986 0
M  V30 2670 N 259.963 0.623931 -6.89985 0
M  V30 2671 N 261.756 0.679496 -5.57978 0
M  V30 2672 H 253.907 -0.767712 -1.9804 0
M  V30 2673 H 256.17 -0.283609 -0.904583 0
M  V30 2674 H 255.876 -0.472721 -3.48509 0
M  V30 2675 H 255.75 1.27632 -3.5495 0
M  V30 2676 H 258.137 1.44623 -2.57232 0
M  V30 2677 H 258.218 -0.320995 -2.53778 0
M  V30 2678 H 257.862 -0.364452 -5.06591 0
M  V30 2679 H 257.792 1.41568 -5.07214 0
M  V30 2680 H 260.283 0.621386 -3.72756 0
M  V30 2681 H 260.596 0.649787 -7.70063 0
M  V30 2682 H 258.941 0.591296 -6.9248 0
M  V30 2683 H 262.132 0.686472 -4.63039 0
M  V30 2684 H 262.305 0.69965 -6.44212 0
M  V30 2685 N 255.711 1.52812 0.385517 0
M  V30 2686 C 256.936 1.72207 1.15583 0
M  V30 2687 C 257.361 0.441034 1.82857 0
M  V30 2688 O 256.719 -0.603465 1.70962 0
M  V30 2689 C 256.767 2.87476 2.17692 0
M  V30 2690 O 255.871 2.54693 3.24354 0
M  V30 2691 H 255.212 0.572526 0.336319 0
M  V30 2692 H 257.742 1.99618 0.448744 0
M  V30 2693 H 257.752 3.13072 2.6163 0
M  V30 2694 H 256.427 3.80408 1.68115 0
M  V30 2695 H 255.004 2.3985 2.85529 0
M  V30 2696 N 257.189 -0.644168 1.43834 0
M  V30 2697 C 258.605 -0.960875 1.27434 0
M  V30 2698 C 258.805 -2.00499 0.200618 0
M  V30 2699 O 257.861 -2.49018 -0.417906 0
M  V30 2700 C 259.174 -1.43653 2.64167 0
M  V30 2701 C 260.722 -1.55271 2.71772 0
M  V30 2702 C 261.197 -2.06224 4.08944 0
M  V30 2703 N 262.688 -2.13513 4.11055 0
M  V30 2704 C 263.423 -2.54081 5.14033 0
M  V30 2705 N 262.919 -2.9388 6.27381 0
M  V30 2706 N 264.712 -2.54101 5.01387 0
M  V30 2707 H 256.863 0.0465779 2.12349 0
M  V30 2708 H 259.126 -0.0417638 0.94708 0
M  V30 2709 H 258.832 -0.743706 3.43747 0
M  V30 2710 H 258.706 -2.40993 2.90176 0
M  V30 2711 H 261.093 -2.23653 1.92519 0
M  V30 2712 H 261.174 -0.563395 2.49519 0
M  V30 2713 H 260.818 -1.38441 4.88668 0
M  V30 2714 H 260.748 -3.06003 4.28567 0
M  V30 2715 H 263.239 -1.85493 3.29242 0
M  V30 2716 H 263.552 -3.2361 7.01781 0
M  V30 2717 H 261.897 -2.91663 6.30839 0
M  V30 2718 H 265.088 -2.22391 4.11898 0
M  V30 2719 H 265.261 -2.85394 5.81768 0
M  V30 2720 N 258.668 -1.30515 -0.883378 0
M  V30 2721 C 259.618 -1.13641 -1.9766 0
M  V30 2722 C 260.602 -0.0511314 -1.60819 0
M  V30 2723 O 261.794 -0.274623 -1.74857 0
M  V30 2724 C 258.923 -0.831976 -3.33066 0
M  V30 2725 C 258.009 -1.95759 -3.76217 0
M  V30 2726 N 258.4 -3.20313 -3.9145 0
M  V30 2727 C 256.698 -1.85431 -4.05625 0
M  V30 2728 C 257.399 -3.93856 -4.2808 0
M  V30 2729 N 256.375 -3.21919 -4.38029 0
M  V30 2730 H 260.177 -2.08106 -2.07531 0
M  V30 2731 H 257.691 -1.21877 -1.0733 0
M  V30 2732 H 259.688 -0.692102 -4.11115 0
M  V30 2733 H 258.348 0.104588 -3.24532 0
M  V30 2734 H 259.359 -3.55583 -3.76538 0
M  V30 2735 H 256.036 -0.991531 -4.05555 0
M  V30 2736 H 257.426 -5.01125 -4.47575 0
M  V30 2737 N 260.146 1.09593 -1.13257 0
M  V30 2738 C 261.076 2.18214 -0.830946 0
M  V30 2739 C 262.057 1.68812 0.208966 0
M  V30 2740 O 263.242 1.9408 0.0682666 0
M  V30 2741 C 260.372 3.46051 -0.294296 0
M  V30 2742 C 259.326 4.08778 -1.26826 0
M  V30 2743 C 258.652 5.31419 -0.591449 0
M  V30 2744 C 259.952 4.51476 -2.62615 0
M  V30 2745 H 261.646 2.43703 -1.73923 0
M  V30 2746 H 259.192 1.17128 -0.837675 0
M  V30 2747 H 261.145 4.2134 -0.0709606 0
M  V30 2748 H 259.869 3.20079 0.649366 0
M  V30 2749 H 258.528 3.35505 -1.47756 0
M  V30 2750 H 258.176 5.01727 0.357633 0
M  V30 2751 H 257.876 5.74341 -1.24123 0
M  V30 2752 H 259.4 6.09433 -0.377355 0
M  V30 2753 H 260.814 5.17999 -2.45663 0
M  V30 2754 H 259.211 5.05277 -3.23752 0
M  V30 2755 H 260.281 3.63962 -3.20406 0
M  V30 2756 N 261.624 0.925811 1.2754 0
M  V30 2757 C 262.901 0.483726 1.89524 0
M  V30 2758 C 263.281 -1.03809 1.83812 0
M  V30 2759 O 262.629 -1.89143 1.28207 0
M  V30 2760 C 262.839 1.02769 3.33526 0
M  V30 2761 C 264.187 1.08703 4.10449 0
M  V30 2762 O 265.211 0.977175 3.42534 0
M  V30 2763 O 264.07 1.25599 5.31871 0
M  V30 2764 H 261.164 0.15529 0.812289 0
M  V30 2765 H 263.71 1.01738 1.35822 0
M  V30 2766 H 262.482 2.07155 3.31967 0
M  V30 2767 H 262.105 0.475567 3.94746 0
M  V30 2768 N 263.102 -1.41638 0.69111 0
M  V30 2769 C 264.327 -2.06148 0.227583 0
M  V30 2770 C 264.752 -1.51652 -1.11281 0
M  V30 2771 O 264.11 -0.64164 -1.69566 0
M  V30 2772 C 264.158 -3.60095 0.190858 0
M  V30 2773 O 263.262 -4.03845 -0.835664 0
M  V30 2774 H 262.603 -0.654434 0.112306 0
M  V30 2775 H 265.133 -1.81484 0.944714 0
M  V30 2776 H 265.143 -4.07995 0.020207 0
M  V30 2777 H 263.818 -3.99129 1.16915 0
M  V30 2778 H 262.395 -3.67458 -0.63473 0
M  V30 2779 N 264.58 -0.43555 -1.51462 0
M  V30 2780 C 265.51 0.367376 -2.30592 0
M  V30 2781 C 266.491 1.02263 -1.35928 0
M  V30 2782 O 267.676 1.02661 -1.64847 0
M  V30 2783 C 264.806 1.46983 -3.14664 0
M  V30 2784 C 263.76 0.938161 -4.17591 0
M  V30 2785 C 263.086 2.13622 -4.90173 0
M  V30 2786 C 264.386 -0.0261621 -5.22293 0
M  V30 2787 H 266.08 -0.292969 -2.97963 0
M  V30 2788 H 263.626 -0.14234 -1.43295 0
M  V30 2789 H 265.579 2.03873 -3.688 0
M  V30 2790 H 264.303 2.15843 -2.4511 0
M  V30 2791 H 262.962 0.391481 -3.64504 0
M  V30 2792 H 262.61 2.81098 -4.17124 0
M  V30 2793 H 262.31 1.78688 -5.59772 0
M  V30 2794 H 263.834 2.7107 -5.47132 0
M  V30 2795 H 265.248 0.452384 -5.71512 0
M  V30 2796 H 263.645 -0.287992 -5.99409 0
M  V30 2797 H 264.715 -0.963391 -4.75233 0
M  V30 2798 N 266.058 1.56714 -0.166846 0
M  V30 2799 C 267.288 2.00828 0.48494 0
M  V30 2800 C 267.696 1.04612 1.57648 0
M  V30 2801 O 267.039 0.0383201 1.8366 0
M  V30 2802 C 267.101 3.4137 1.12723 0
M  V30 2803 C 266.765 4.56654 0.177886 0
M  V30 2804 C 267.762 5.16402 -0.60207 0
M  V30 2805 C 265.447 5.02244 0.0750139 0
M  V30 2806 C 267.441 6.20167 -1.47215 0
M  V30 2807 C 265.128 6.05859 -0.798649 0
M  V30 2808 C 266.126 6.64691 -1.57082 0
M  V30 2809 O 265.814 7.66297 -2.42989 0
M  V30 2810 H 265.546 0.663587 0.128953 0
M  V30 2811 H 268.1 2.03692 -0.264365 0
M  V30 2812 H 266.33 3.35406 1.92457 0
M  V30 2813 H 268.019 3.69466 1.68076 0
M  V30 2814 H 268.785 4.82065 -0.53274 0
M  V30 2815 H 264.664 4.56167 0.665812 0
M  V30 2816 H 268.208 6.66016 -2.07531 0
M  V30 2817 H 264.105 6.39621 -0.869199 0
M  V30 2818 H 264.873 7.83601 -2.36455 0
M  V30 2819 N 267.536 -0.106894 1.57237 0
M  V30 2820 C 268.468 -1.15646 1.97885 0
M  V30 2821 C 269.481 -1.36981 0.879779 0
M  V30 2822 O 270.67 -1.35841 1.15799 0
M  V30 2823 C 267.77 -2.51425 2.27241 0
M  V30 2824 C 266.943 -2.50529 3.58545 0
M  V30 2825 C 266.002 -3.68145 3.75973 0
M  V30 2826 O 265.028 -3.51176 4.47956 0
M  V30 2827 N 266.23 -4.87177 3.15656 0
M  V30 2828 H 268.995 -0.81059 2.8853 0
M  V30 2829 H 266.556 -0.296024 1.59171 0
M  V30 2830 H 268.548 -3.28689 2.36105 0
M  V30 2831 H 267.118 -2.78147 1.42663 0
M  V30 2832 H 266.338 -1.58894 3.60758 0
M  V30 2833 H 267.626 -2.46997 4.44826 0
M  V30 2834 H 267.024 -5.03868 2.57165 0
M  V30 2835 H 265.581 -5.62075 3.30023 0
M  V30 2836 N 269.014 -1.53014 -0.377408 0
M  V30 2837 C 270.43 -1.42523 -0.718281 0
M  V30 2838 C 270.63 -0.55487 -1.9371 0
M  V30 2839 O 269.686 -0.0327593 -2.52479 0
M  V30 2840 C 270.999 -2.85546 -0.942539 0
M  V30 2841 C 272.547 -2.95101 -1.04329 0
M  V30 2842 C 273.022 -4.3916 -1.3001 0
M  V30 2843 N 274.513 -4.42536 -1.36806 0
M  V30 2844 C 275.248 -5.51097 -1.58364 0
M  V30 2845 N 274.744 -6.69724 -1.77317 0
M  V30 2846 N 276.537 -5.38657 -1.60638 0
M  V30 2847 H 268.688 -2.08116 0.424426 0
M  V30 2848 H 270.951 -0.939352 0.127759 0
M  V30 2849 H 270.657 -3.51499 -0.118929 0
M  V30 2850 H 270.531 -3.28493 -1.85397 0
M  V30 2851 H 272.918 -2.29309 -1.85745 0
M  V30 2852 H 272.999 -2.55566 -0.109505 0
M  V30 2853 H 272.643 -5.05521 -0.490991 0
M  V30 2854 H 272.573 -4.76258 -2.24691 0
M  V30 2855 H 275.064 -3.57039 -1.23821 0
M  V30 2856 H 275.377 -7.48233 -1.93306 0
M  V30 2857 H 273.722 -6.72732 -1.74518 0
M  V30 2858 H 276.913 -4.44948 -1.45391 0
M  V30 2859 H 277.086 -6.2333 -1.77098 0
M  V30 2860 N 270.492 0.636531 -1.44174 0
M  V30 2861 C 271.455 1.73063 -1.50273 0
M  V30 2862 C 272.455 1.56113 -0.385397 0
M  V30 2863 O 273.645 1.61707 -0.64781 0
M  V30 2864 C 270.777 3.12096 -1.37145 0
M  V30 2865 H 271.97 1.69031 -2.47727 0
M  V30 2866 H 269.523 0.849706 -1.31186 0
M  V30 2867 H 270.258 3.21728 -0.407636 0
M  V30 2868 H 270.043 3.25805 -2.18159 0
M  V30 2869 H 271.533 3.91846 -1.44382 0
M  V30 2870 N 271.97 1.30982 0.876444 0
M  V30 2871 C 272.9 1.20668 1.99903 0
M  V30 2872 C 273.881 0.095354 1.69833 0
M  V30 2873 O 275.066 0.27885 1.92188 0
M  V30 2874 C 272.196 0.90655 3.3526 0
M  V30 2875 C 271.15 1.97675 3.79617 0
M  V30 2876 C 270.476 1.52943 5.1236 0
M  V30 2877 C 271.776 3.389 3.97422 0
M  V30 2878 H 273.47 2.14586 2.0879 0
M  V30 2879 H 271.016 1.03308 1.00317 0
M  V30 2880 H 272.969 0.821025 4.13324 0
M  V30 2881 H 271.693 -0.0682969 3.26529 0
M  V30 2882 H 270.352 2.05205 3.03787 0
M  V30 2883 H 270 0.54262 5.00065 0
M  V30 2884 H 269.7 2.24532 5.43009 0
M  V30 2885 H 271.224 1.45786 5.92941 0
M  V30 2886 H 272.638 3.34081 4.659 0
M  V30 2887 H 271.035 4.0865 4.3946 0
M  V30 2888 H 272.105 3.80163 3.01006 0
M  V30 2889 N 273.449 -1.08991 1.13837 0
M  V30 2890 C 274.677 -1.85011 0.926202 0
M  V30 2891 C 275.092 -1.8135 -0.525127 0
M  V30 2892 O 274.449 -1.21287 -1.36366 0
M  V30 2893 C 274.5 -3.32802 1.41155 0
M  V30 2894 O 274.221 -3.36444 2.80601 0
M  V30 2895 C 275.722 -4.25649 1.23847 0
M  V30 2896 H 272.942 -0.584249 0.32999 0
M  V30 2897 H 275.486 -1.37688 1.51202 0
M  V30 2898 H 273.641 -3.77536 0.868631 0
M  V30 2899 H 274.055 -4.28657 3.02248 0
M  V30 2900 H 275.529 -5.27485 1.62675 0
M  V30 2901 H 276.006 -4.38828 0.18065 0
M  V30 2902 H 276.612 -3.86735 1.76964 0
M  V30 2903 N 274.927 -0.932562 -1.27047 0
M  V30 2904 C 276.155 -0.592031 -1.98249 0
M  V30 2905 C 276.57 0.831062 -1.69525 0
M  V30 2906 O 275.927 1.55299 -0.958561 0
M  V30 2907 C 275.978 -0.814279 -3.5221 0
M  V30 2908 O 275.699 -2.18139 -3.7993 0
M  V30 2909 C 277.2 -0.483121 -4.4066 0
M  V30 2910 H 274.42 -0.223896 -0.632544 0
M  V30 2911 H 276.964 -1.25091 -1.61779 0
M  V30 2912 H 275.119 -0.20213 -3.86872 0
M  V30 2913 H 275.533 -2.235 -4.74498 0
M  V30 2914 H 277.007 -0.689298 -5.47679 0
M  V30 2915 H 277.484 0.581546 -4.35333 0
M  V30 2916 H 278.09 -1.07362 -4.11526 0
M  V30 2917 N 276.405 1.4127 -0.698611 0
M  V30 2918 C 277.368 2.29158 -0.044132 0
M  V30 2919 C 278.368 1.44529 0.704841 0
M  V30 2920 O 279.558 1.65643 0.539276 0
M  V30 2921 C 276.69 3.27459 0.947809 0
M  V30 2922 H 277.883 2.88529 -0.817994 0
M  V30 2923 H 275.436 1.49307 -0.46228 0
M  V30 2924 H 276.171 2.73073 1.74933 0
M  V30 2925 H 275.956 3.8991 0.41385 0
M  V30 2926 H 277.446 3.93311 1.40344 0
M  V30 2927 N 277.883 0.443576 1.51229 0
M  V30 2928 C 279.111 -0.11929 2.06556 0
M  V30 2929 C 279.526 -1.35921 1.31038 0
M  V30 2930 O 278.883 -1.78675 0.371704 0
M  V30 2931 C 278.934 -0.435228 3.5887 0
M  V30 2932 O 278.655 0.755486 4.31537 0
M  V30 2933 C 280.156 -1.04808 4.30732 0
M  V30 2934 H 277.376 -0.0051584 0.67098 0
M  V30 2935 H 279.92 0.624453 1.94733 0
M  V30 2936 H 278.075 -1.12887 3.70588 0
M  V30 2937 H 278.489 0.483491 5.22267 0
M  V30 2938 H 279.963 -1.2191 5.3837 0
M  V30 2939 H 280.44 -2.03081 3.89429 0
M  V30 2940 H 281.046 -0.393637 4.23474 0
M  V30 2941 N 279.361 -1.56624 0.175154 0
M  V30 2942 C 280.293 -2.15333 -0.785128 0
M  V30 2943 C 281.306 -1.1099 -1.19101 0
M  V30 2944 O 282.495 -1.38162 -1.13019 0
M  V30 2945 C 279.595 -2.68427 -2.06882 0
M  V30 2946 C 278.768 -3.97466 -1.8259 0
M  V30 2947 C 277.827 -4.35585 -2.95215 0
M  V30 2948 O 276.853 -5.03389 -2.65684 0
M  V30 2949 N 278.055 -3.97457 -4.23094 0
M  V30 2950 H 280.82 -2.98359 -0.283187 0
M  V30 2951 H 278.381 -1.61898 -0.00749817 0
M  V30 2952 H 280.373 -2.90924 -2.81328 0
M  V30 2953 H 278.943 -1.89968 -2.48256 0
M  V30 2954 H 278.163 -3.83307 -0.920287 0
M  V30 2955 H 279.451 -4.81736 -1.63733 0
M  V30 2956 H 278.849 -3.42878 -4.49945 0
M  V30 2957 H 277.406 -4.24947 -4.9423 0
M  V30 2958 N 280.839 0.0985539 -1.57292 0
M  V30 2959 C 282.064 0.820196 -1.90493 0
M  V30 2960 C 282.489 1.71658 -0.769094 0
M  V30 2961 O 281.847 1.79133 0.279495 0
M  V30 2962 C 281.895 1.61242 -3.22542 0
M  V30 2963 O 280.999 2.72108 -3.09888 0
M  V30 2964 H 280.34 0.225547 -0.62452 0
M  V30 2965 H 282.87 0.0748159 -2.04463 0
M  V30 2966 H 282.88 1.99737 -3.55766 0
M  V30 2967 H 281.555 0.954535 -4.04798 0
M  V30 2968 H 280.132 2.36667 -2.88172 0
M  V30 2969 N 282.317 1.53212 0.369288 0
M  V30 2970 C 283.547 1.72868 1.13139 0
M  V30 2971 C 283.955 0.455754 1.83629 0
M  V30 2972 O 283.298 -0.580861 1.74275 0
M  V30 2973 C 283.36 2.83667 2.20847 0
M  V30 2974 C 283.024 4.24142 1.70155 0
M  V30 2975 C 284.021 5.06619 1.16763 0
M  V30 2976 C 281.706 4.70539 1.7578 0
M  V30 2977 C 283.7 6.33581 0.696678 0
M  V30 2978 C 281.387 5.97481 1.28297 0
M  V30 2979 C 282.385 6.78833 0.753307 0
M  V30 2980 O 282.073 8.03393 0.285475 0
M  V30 2981 H 281.805 0.581707 0.344373 0
M  V30 2982 H 284.359 2.00736 0.435243 0
M  V30 2983 H 282.589 2.51265 2.93944 0
M  V30 2984 H 284.278 2.91536 2.82421 0
M  V30 2985 H 285.044 4.71948 1.11758 0
M  V30 2986 H 280.923 4.07293 2.15949 0
M  V30 2987 H 284.467 6.97027 0.282581 0
M  V30 2988 H 280.364 6.31651 1.32994 0
M  V30 2989 H 281.132 8.17497 0.405145 0
M  V30 2990 N 283.795 -0.628877 1.44509 0
M  V30 2991 C 285.035 -1.39993 1.48934 0
M  V30 2992 C 285.399 -1.91627 0.119604 0
M  V30 2993 O 286.6 -2.68772 0.0385283 0
M  V30 2994 C 284.871 -2.53241 2.52198 0
M  V30 2995 S 286.43 -3.41383 2.75687 0
M  V30 2996 H 283.248 -0.477558 0.526744 0
M  V30 2997 H 285.85 -0.727804 1.81448 0
M  V30 2998 H 284.554 -2.13622 3.50419 0
M  V30 2999 H 284.085 -3.25278 2.21264 0
M  V30 3000 H 286.1 -4.50752 2.07453 0
M  V30 3001 N 285.273 -1.31445 -0.869486 0
M  V30 3002 C 286.205 -1.14955 -1.98287 0
M  V30 3003 C 287.218 -0.0885037 -1.62559 0
M  V30 3004 O 288.407 -0.336044 -1.75308 0
M  V30 3005 C 285.507 -0.734255 -3.3085 0
M  V30 3006 C 284.68 -1.88042 -3.94917 0
M  V30 3007 C 283.739 -1.4511 -5.05796 0
M  V30 3008 O 282.765 -2.16082 -5.2659 0
M  V30 3009 N 283.967 -0.338763 -5.79511 0
M  V30 3010 H 286.732 -2.10856 -2.12979 0
M  V30 3011 H 284.293 -1.23786 -1.04349 0
M  V30 3012 H 286.285 -0.42975 -4.02412 0
M  V30 3013 H 284.855 0.133158 -3.12316 0
M  V30 3014 H 284.075 -2.35222 -3.1633 0
M  V30 3015 H 285.363 -2.6481 -4.34457 0
M  V30 3016 H 284.761 0.252274 -5.65137 0
M  V30 3017 H 283.318 -0.0937925 -6.51733 0
M  V30 3018 N 286.751 1.08385 -1.14413 0
M  V30 3019 C 287.714 2.13486 -0.834048 0
M  V30 3020 C 288.714 1.59988 0.161418 0
M  V30 3021 O 289.904 1.74071 -0.0669575 0
M  V30 3022 C 287.036 3.4003 -0.243354 0
M  V30 3023 H 288.229 2.42425 -1.7655 0
M  V30 3024 H 285.782 1.24101 -0.950189 0
M  V30 3025 H 286.517 3.16726 0.696807 0
M  V30 3026 H 286.302 3.80157 -0.960367 0
M  V30 3027 H 287.792 4.17577 -0.0436242 0
M  V30 3028 N 288.23 0.939286 1.26551 0
M  V30 3029 C 289.16 0.465044 2.28822 0
M  V30 3030 C 290.141 -0.480692 1.63167 0
M  V30 3031 O 291.326 -0.382955 1.90387 0
M  V30 3032 C 288.456 -0.27234 3.46231 0
M  V30 3033 C 287.41 0.58666 4.2396 0
M  V30 3034 C 286.736 -0.280573 5.33963 0
M  V30 3035 C 288.036 1.85704 4.88171 0
M  V30 3036 H 289.73 1.31979 2.68741 0
M  V30 3037 H 287.276 0.636061 1.29191 0
M  V30 3038 H 289.229 -0.615133 4.16886 0
M  V30 3039 H 287.953 -1.16121 3.0526 0
M  V30 3040 H 286.612 0.91232 3.55067 0
M  V30 3041 H 286.26 -1.16874 4.89234 0
M  V30 3042 H 285.96 0.29076 5.8688 0
M  V30 3043 H 287.484 -0.618678 6.07458 0
M  V30 3044 H 288.898 1.58161 5.51052 0
M  V30 3045 H 287.295 2.37279 5.51197 0
M  V30 3046 H 288.365 2.56957 4.11219 0
M  V30 3047 N 289.708 -1.40897 0.706093 0
M  V30 3048 C 291.119 -1.84023 0.315052 0
M  V30 3049 C 291.47 -1.5906 -1.14866 0
M  V30 3050 O 290.595 -1.06651 -1.88293 0
M  V30 3051 C 291.19 -3.34055 0.565038 0
M  V30 3052 C 289.749 -3.7571 0.227806 0
M  V30 3053 C 288.896 -2.64204 0.842122 0
M  V30 3054 H 291.847 -1.303 0.905963 0
M  V30 3055 H 291.868 -3.80107 -0.172843 0
M  V30 3056 H 291.38 -3.52192 1.63042 0
M  V30 3057 H 289.481 -3.63172 -0.832895 0
M  V30 3058 H 289.594 -4.74103 0.690174 0
M  V30 3059 H 287.958 -2.53255 0.270893 0
M  V30 3060 H 288.741 -2.85155 1.91158 0
M  V30 3061 N 291.186 -0.45159 -1.50991 0
M  V30 3062 C 292.597 0.00818571 -1.86698 0
M  V30 3063 C 292.948 1.40661 -1.3678 0
M  V30 3064 O 292.073 2.0391 -0.724546 0
M  V30 3065 C 292.668 0.0216303 -3.38793 0
M  V30 3066 C 291.227 0.425865 -3.73983 0
M  V30 3067 C 290.374 -0.372163 -2.74791 0
M  V30 3068 H 293.325 -0.666785 -1.44013 0
M  V30 3069 H 293.346 0.828078 -3.7138 0
M  V30 3070 H 292.858 -0.996288 -3.75094 0
M  V30 3071 H 290.959 1.44886 -3.43277 0
M  V30 3072 H 291.072 0.140761 -4.78893 0
M  V30 3073 H 289.436 0.171498 -2.54122 0
M  V30 3074 H 290.219 -1.38922 -3.13935 0
M  V30 3075 N 292.664 1.56529 -0.183458 0
M  V30 3076 C 293.627 2.17324 0.728223 0
M  V30 3077 C 294.627 1.12453 1.14939 0
M  V30 3078 O 295.817 1.37902 1.06437 0
M  V30 3079 C 292.949 2.76591 1.99274 0
M  V30 3080 H 294.142 2.99241 0.198772 0
M  V30 3081 H 291.695 1.5616 0.0661391 0
M  V30 3082 H 292.43 1.98441 2.56499 0
M  V30 3083 H 292.215 3.5335 1.69959 0
M  V30 3084 H 293.705 3.23311 2.6431 0
M  V30 3085 O 294.181 0.04597 1.61435 0
M  V30 3086 H 294.872 -0.564149 1.85303 0
M  V30 END ATOM
M  V30 BEGIN BOND
M  V30 END BOND
M  V30 END CTAB
M  END
$$$$
