drugbank_target|Q9GZU7 Carboxy-terminal domain RNA polymerase II polypeptide A small phosphatase 1 (DB04156; DB04272)
 OpenBabel12092120553D

  0  0  0     0  0            999 V3000
M  V30 BEGIN CTAB
M  V30 COUNTS 5725 6099 0 0 0
M  V30 BEGIN ATOM
M  V30 1 H -2.588 8.49073 -0.0679273 0
M  V30 2 O -1.492 9.37262 0.0843559 0
M  V30 3 P 0 8.791 0 0
M  V30 4 O 1.422 9.31096 0.027933 0
M  V30 5 O -0.36 7.77869 -1.04071 0
M  V30 6 O -0.323 8.09533 1.41463 0
M  V30 7 C -0.483 9.0349 2.53943 0
M  V30 8 C 0.057 8.35226 3.79016 0
M  V30 9 O -0.999 7.57992 4.15078 0
M  V30 10 C 1.275 7.45087 3.67298 0
M  V30 11 O 2.013 7.27796 4.85194 0
M  V30 12 C 0.606 6.17323 3.12027 0
M  V30 13 O 1.405 5.04231 3.47188 0
M  V30 14 C -0.731 6.19961 3.81809 0
M  V30 15 H -0.699 5.58218 4.73051 0
M  V30 16 H 0.484 6.21726 2.02589 0
M  V30 17 H 1.968 7.86112 2.9231 0
M  V30 18 H 0.274 9.11627 4.55076 0
M  V30 19 H 0.084 9.9573 2.34194 0
M  V30 20 H -1.546 9.2792 2.67832 0
M  V30 21 H 1.093 4.67702 4.28772 0
M  V30 22 P 2.95057 7.39546 4.75277 0
M  V30 23 O 4.37257 7.81777 5.05738 0
M  V30 24 O 2.59057 7.1065 3.32998 0
M  V30 25 O 2.62757 6.04542 5.56673 0
M  V30 26 C 2.46757 6.22772 7.02095 0
M  V30 27 C 3.00757 4.97725 7.70406 0
M  V30 28 O 1.95157 4.13256 7.58987 0
M  V30 29 C 4.22557 4.28231 7.11815 0
M  V30 30 O 4.96357 3.49945 8.01648 0
M  V30 31 C 3.55657 3.5063 5.96244 0
M  V30 32 O 4.35557 2.36482 5.64681 0
M  V30 33 C 2.21957 3.15122 6.56374 0
M  V30 34 H 2.25157 2.13853 6.99751 0
M  V30 35 H 3.43457 4.13501 5.06559 0
M  V30 36 H 4.91857 5.03285 6.70911 0
M  V30 37 H 3.22457 5.20877 8.75697 0
M  V30 38 H 3.03457 7.11046 7.35349 0
M  V30 39 H 1.40457 6.35815 7.26986 0
M  V30 40 H 4.04357 1.61644 6.13565 0
M  V30 41 P 5.90114 3.65191 7.99657 0
M  V30 42 O 7.32314 3.8425 8.48115 0
M  V30 43 O 5.54114 4.17805 6.64342 0
M  V30 44 O 5.57814 2.07613 7.95143 0
M  V30 45 C 5.41814 1.44328 9.27336 0
M  V30 46 C 5.95814 0.0220036 9.17197 0
M  V30 47 O 4.90214 -0.626867 8.61923 0
M  V30 48 C 7.17614 -0.24586 8.30336 0
M  V30 49 O 7.91414 -1.39011 8.63583 0
M  V30 50 C 6.50714 -0.273849 6.91158 0
M  V30 51 O 7.30614 -1.06348 6.02892 0
M  V30 52 C 5.17014 -0.897649 7.22545 0
M  V30 53 H 5.20214 -1.9841 7.04286 0
M  V30 54 H 6.38514 0.739928 6.497 0
M  V30 55 H 7.86914 0.60668 8.36503 0
M  V30 56 H 6.17514 -0.352479 10.1829 0
M  V30 57 H 5.98514 2.00611 10.0304 0
M  V30 58 H 4.35514 1.41843 9.55327 0
M  V30 59 H 6.99414 -1.95734 6.03555 0
M  V30 60 P 8.85171 -1.25109 8.70152 0
M  V30 61 O 10.2737 -1.35274 9.21221 0
M  V30 62 O 8.49171 -0.0769065 7.84762 0
M  V30 63 O 8.52871 -2.55232 7.81161 0
M  V30 64 C 8.36871 -3.79939 8.58154 0
M  V30 65 C 8.90871 -4.94023 7.72785 0
M  V30 66 O 7.85271 -5.18726 6.91205 0
M  V30 67 C 10.1267 -4.69597 6.85231 0
M  V30 68 O 10.8647 -5.83832 6.51337 0
M  V30 69 C 9.45771 -3.96706 5.66633 0
M  V30 70 O 10.2567 -4.15414 4.49689 0
M  V30 71 C 8.12071 -4.66153 5.59313 0
M  V30 72 H 8.15271 -5.47679 4.85214 0
M  V30 73 H 9.33571 -2.89008 5.86566 0
M  V30 74 H 10.8197 -4.0121 7.36511 0
M  V30 75 H 9.12571 -5.80182 8.37584 0
M  V30 76 H 8.93571 -3.73517 9.52265 0
M  V30 77 H 7.30571 -3.97163 8.80359 0
M  V30 78 H 9.94471 -4.90969 4.01921 0
M  V30 79 P 11.8023 -5.75688 6.64379 0
M  V30 80 O 13.2233 -6.11915 7.01921 0
M  V30 81 O 11.4423 -4.30744 6.56026 0
M  V30 82 O 11.4793 -6.37042 5.19165 0
M  V30 83 C 11.3183 -7.83662 5.1657 0
M  V30 84 C 11.8593 -8.33398 3.83019 0
M  V30 85 O 10.8043 -8.0998 3.00999 0
M  V30 86 C 13.0773 -7.65514 3.2257 0
M  V30 87 O 13.8153 -8.4329 2.32297 0
M  V30 88 C 12.4093 -6.40075 2.62207 0
M  V30 89 O 13.2073 -5.92338 1.5428 0
M  V30 90 C 11.0713 -6.9454 2.18503 0
M  V30 91 N 10.0283 -5.95905 2.39948 0
M  V30 92 C 10.1973 -4.98383 3.32108 0
M  V30 93 N 9.17028 -4.16798 3.41761 0
M  V30 94 C 8.28528 -4.65287 2.47461 0
M  V30 95 C 7.01828 -4.18946 2.07461 0
M  V30 96 N 6.41928 -3.09661 2.60717 0
M  V30 97 N 6.45328 -4.95327 1.09101 0
M  V30 98 C 7.05528 -6.04369 0.519812 0
M  V30 99 N 8.23228 -6.50694 0.855982 0
M  V30 100 C 8.80728 -5.75818 1.84322 0
M  V30 101 H 11.1033 -7.22964 1.12076 0
M  V30 102 H 12.2863 -5.60502 3.36589 0
M  V30 103 H 13.7693 -7.35707 4.02681 0
M  V30 104 H 12.0753 -9.41302 3.90009 0
M  V30 105 H 11.8853 -8.29056 5.99158 0
M  V30 106 H 10.2553 -8.10073 5.25882 0
M  V30 107 H 6.51928 -6.55843 -0.270373 0
M  V30 108 H 11.0973 -4.88564 3.92502 0
M  V30 109 H 5.48928 -2.80523 2.27218 0
M  V30 110 H 6.89328 -2.55848 3.34465 0
M  V30 111 H 12.8953 -6.30224 0.72668 0
M  V30 112 P 14.7528 -8.4349 2.47671 0
M  V30 113 O 16.1748 -8.94167 2.5964 0
M  V30 114 O 14.3928 -7.1704 3.19006 0
M  V30 115 O 14.4298 -8.16596 0.923387 0
M  V30 116 C 14.2698 -9.38437 0.108857 0
M  V30 117 C 14.8098 -9.08175 -1.28353 0
M  V30 118 O 13.7538 -8.44229 -1.84713 0
M  V30 119 C 16.0278 -8.18386 -1.42505 0
M  V30 120 O 16.7659 -8.3501 -2.60497 0
M  V30 121 C 15.3588 -6.80225 -1.25468 0
M  V30 122 O 16.1578 -5.81621 -1.91066 0
M  V30 123 C 14.0218 -7.02416 -1.9168 0
M  V30 124 H 14.0538 -6.6888 -2.96621 0
M  V30 125 H 15.2368 -6.53617 -0.192223 0
M  V30 126 H 16.7208 -8.36622 -0.589963 0
M  V30 127 H 15.0268 -10.0291 -1.79807 0
M  V30 128 H 14.8368 -10.2138 0.558219 0
M  V30 129 H 13.2068 -9.6579 0.0444202 0
M  V30 130 H 15.8458 -5.69556 -2.79637 0
M  V30 131 P 17.7034 -8.4349 -2.47671 0
M  V30 132 O 19.1254 -8.92593 -2.65 0
M  V30 133 O 17.3434 -7.7568 -1.19296 0
M  V30 134 O 17.3804 -7.36886 -3.63805 0
M  V30 135 C 17.2204 -7.95349 -4.982 0
M  V30 136 C 17.7604 -6.94612 -5.98974 0
M  V30 137 O 16.7044 -6.10347 -6.11815 0
M  V30 138 C 18.9784 -6.11426 -5.62335 0
M  V30 139 O 19.7164 -5.6162 -6.70584 0
M  V30 140 C 18.3094 -5.04409 -4.73308 0
M  V30 141 O 19.1084 -3.85992 -4.75183 0
M  V30 142 C 16.9724 -4.8728 -5.41006 0
M  V30 143 H 17.0044 -4.02333 -6.11157 0
M  V30 144 H 18.1874 -5.39466 -3.69543 0
M  V30 145 H 19.6714 -6.71916 -5.01943 0
M  V30 146 H 17.9774 -7.4649 -6.93477 0
M  V30 147 H 17.7874 -8.89416 -5.05237 0
M  V30 148 H 16.1574 -8.14876 -5.18409 0
M  V30 149 H 18.7964 -3.27957 -5.4317 0
M  V30 150 P 20.654 -5.75688 -6.64379 0
M  V30 151 O 22.076 -6.07627 -7.05504 0
M  V30 152 O 20.294 -5.88047 -5.19722 0
M  V30 153 O 20.331 -4.2322 -7.04443 0
M  V30 154 C 20.171 -3.99743 -8.4911 0
M  V30 155 C 20.711 -2.60516 -8.79425 0
M  V30 156 O 19.655 -1.82684 -8.4467 0
M  V30 157 C 21.929 -2.10343 -8.03628 0
M  V30 158 O 22.667 -1.09919 -8.67766 0
M  V30 159 C 21.26 -1.68446 -6.70876 0
M  V30 160 O 22.059 -0.678137 -6.08433 0
M  V30 161 C 19.923 -1.17436 -7.18567 0
M  V30 162 H 19.955 -0.0804732 -7.31656 0
M  V30 163 H 21.138 -2.54037 -6.02537 0
M  V30 164 H 22.622 -2.93881 -7.85526 0
M  V30 165 H 20.928 -2.53065 -9.86973 0
M  V30 166 H 20.738 -4.75072 -9.05887 0
M  V30 167 H 19.108 -4.05244 -8.76668 0
M  V30 168 H 21.747 0.177647 -6.34251 0
M  V30 169 P 23.6046 -1.25109 -8.70152 0
M  V30 170 O 25.0266 -1.29744 -9.22016 0
M  V30 171 O 23.2446 -2.13714 -7.55141 0
M  V30 172 O 23.2816 0.248149 -8.21425 0
M  V30 173 C 23.1216 1.22779 -9.30434 0
M  V30 174 C 23.6616 2.56293 -8.80664 0
M  V30 175 O 22.6056 3.02979 -8.09349 0
M  V30 176 C 24.8796 2.57523 -7.89775 0
M  V30 177 O 25.6176 3.7668 -7.89438 0
M  V30 178 C 24.2106 2.20997 -6.55446 0
M  V30 179 O 25.0096 2.71895 -5.48509 0
M  V30 180 C 22.8736 2.89693 -6.67988 0
M  V30 181 H 22.9056 3.88793 -6.19859 0
M  V30 182 H 24.0886 1.12046 -6.44229 0
M  V30 183 H 25.5726 1.7746 -8.19711 0
M  V30 184 H 23.8786 3.20706 -9.67112 0
M  V30 185 H 23.6886 0.901032 -10.1892 0
M  V30 186 H 22.0586 1.33049 -9.56592 0
M  V30 187 H 24.6976 3.57847 -5.23962 0
M  V30 188 P 26.5551 3.65191 -7.99657 0
M  V30 189 O 27.9771 3.89332 -8.45794 0
M  V30 190 O 26.1951 2.28472 -7.50807 0
M  V30 191 O 26.2321 4.64972 -6.77611 0
M  V30 192 C 26.0721 6.06319 -7.16352 0
M  V30 193 C 26.6121 6.91731 -6.02299 0
M  V30 194 O 25.5561 6.92449 -5.17064 0
M  V30 195 C 27.8301 6.43627 -5.25174 0
M  V30 196 O 28.5681 7.43686 -4.60469 0
M  V30 197 C 27.1611 5.40275 -4.31916 0
M  V30 198 O 27.9601 5.25279 -3.14438 0
M  V30 199 C 25.8241 6.04847 -4.05327 0
M  V30 200 H 25.8561 6.62195 -3.11261 0
M  V30 201 H 27.0391 4.42556 -4.81383 0
M  V30 202 H 28.5231 5.92458 -5.93643 0
M  V30 203 H 26.8291 7.92655 -6.402 0
M  V30 204 H 26.6391 6.26671 -8.0846 0
M  V30 205 H 25.0091 6.29101 -7.32804 0
M  V30 206 H 27.6481 5.84315 -2.47318 0
M  V30 207 P 29.5057 7.39546 -4.75277 0
M  V30 208 O 30.9277 7.84798 -5.01039 0
M  V30 209 O 29.1457 5.9812 -5.08098 0
M  V30 210 O 29.1827 7.57503 -3.1866 0
M  V30 211 C 29.0227 8.97357 -2.74833 0
M  V30 212 C 29.5627 9.07548 -1.32709 0
M  V30 213 O 28.5067 8.62072 -0.606159 0
M  V30 214 C 30.7807 8.25383 -0.938334 0
M  V30 215 O 31.5187 8.74577 0.146954 0
M  V30 216 C 30.1117 6.8802 -0.712559 0
M  V30 217 O 30.9107 6.1189 0.194655 0
M  V30 218 C 28.7747 7.27966 -0.139777 0
M  V30 219 H 28.8067 7.25354 0.961601 0
M  V30 220 H 29.9897 6.32557 -1.65702 0
M  V30 221 H 31.4737 8.19355 -1.79097 0
M  V30 222 H 29.7797 10.1294 -1.10029 0
M  V30 223 H 29.5897 9.64276 -3.41316 0
M  V30 224 H 27.9597 9.25417 -2.76357 0
M  V30 225 H 30.5987 6.25267 1.07847 0
M  V30 226 P 32.4563 8.791 -9.96115e-15 0
M  V30 227 O 33.8783 9.31096 0.027933 0
M  V30 228 O 32.0963 7.77869 -1.04071 0
M  V30 229 O 32.1333 8.09533 1.41463 0
M  V30 230 C 31.9733 9.0349 2.53943 0
M  V30 231 C 32.5133 8.35226 3.79016 0
M  V30 232 O 31.4573 7.57992 4.15078 0
M  V30 233 C 33.7313 7.45087 3.67298 0
M  V30 234 O 34.4693 7.27796 4.85194 0
M  V30 235 C 33.0623 6.17323 3.12027 0
M  V30 236 O 33.8613 5.04231 3.47188 0
M  V30 237 C 31.7253 6.19961 3.81809 0
M  V30 238 H 31.7573 5.58218 4.73051 0
M  V30 239 H 32.9403 6.21726 2.02589 0
M  V30 240 H 34.4243 7.86112 2.9231 0
M  V30 241 H 32.7303 9.11627 4.55076 0
M  V30 242 H 32.5403 9.9573 2.34194 0
M  V30 243 H 30.9103 9.2792 2.67832 0
M  V30 244 H 33.5493 4.67702 4.28772 0
M  V30 245 P 35.4068 7.39546 4.75277 0
M  V30 246 O 36.8288 7.81777 5.05738 0
M  V30 247 O 35.0468 7.1065 3.32998 0
M  V30 248 O 35.0838 6.04542 5.56673 0
M  V30 249 C 34.9238 6.22772 7.02095 0
M  V30 250 C 35.4638 4.97725 7.70406 0
M  V30 251 O 34.4078 4.13256 7.58987 0
M  V30 252 C 36.6818 4.28231 7.11815 0
M  V30 253 O 37.4198 3.49945 8.01648 0
M  V30 254 C 36.0128 3.5063 5.96244 0
M  V30 255 O 36.8118 2.36482 5.64681 0
M  V30 256 C 34.6758 3.15122 6.56374 0
M  V30 257 H 34.7078 2.13853 6.99751 0
M  V30 258 H 35.8908 4.13501 5.06559 0
M  V30 259 H 37.3748 5.03285 6.70911 0
M  V30 260 H 35.6808 5.20877 8.75697 0
M  V30 261 H 35.4908 7.11046 7.35349 0
M  V30 262 H 33.8608 6.35815 7.26986 0
M  V30 263 H 36.4998 1.61644 6.13565 0
M  V30 264 P 38.3574 3.65191 7.99657 0
M  V30 265 O 39.7794 3.8425 8.48115 0
M  V30 266 O 37.9974 4.17805 6.64342 0
M  V30 267 O 38.0344 2.07613 7.95143 0
M  V30 268 C 37.8744 1.44328 9.27336 0
M  V30 269 C 38.4144 0.0220036 9.17197 0
M  V30 270 O 37.3584 -0.626867 8.61923 0
M  V30 271 C 39.6324 -0.24586 8.30336 0
M  V30 272 O 40.3704 -1.39011 8.63583 0
M  V30 273 C 38.9634 -0.273849 6.91158 0
M  V30 274 O 39.7624 -1.06348 6.02892 0
M  V30 275 C 37.6264 -0.897649 7.22545 0
M  V30 276 H 37.6584 -1.9841 7.04286 0
M  V30 277 H 38.8414 0.739928 6.497 0
M  V30 278 H 40.3254 0.60668 8.36503 0
M  V30 279 H 38.6314 -0.352479 10.1829 0
M  V30 280 H 38.4414 2.00611 10.0304 0
M  V30 281 H 36.8114 1.41843 9.55327 0
M  V30 282 H 39.4504 -1.95734 6.03555 0
M  V30 283 P 41.308 -1.25109 8.70152 0
M  V30 284 O 42.729 -1.35288 9.2132 0
M  V30 285 O 40.948 -0.0769065 7.84762 0
M  V30 286 O 40.985 -2.55232 7.81161 0
M  V30 287 C 40.824 -3.79979 8.58246 0
M  V30 288 C 41.365 -4.94023 7.72785 0
M  V30 289 O 40.31 -5.18666 6.91125 0
M  V30 290 C 42.583 -4.69597 6.85231 0
M  V30 291 O 43.321 -5.83832 6.51337 0
M  V30 292 C 41.915 -3.96706 5.66633 0
M  V30 293 O 42.713 -4.14896 4.5003 0
M  V30 294 C 40.577 -4.66153 5.59313 0
M  V30 295 N 39.534 -3.71582 5.24027 0
M  V30 296 C 39.703 -2.39715 5.48833 0
M  V30 297 N 38.676 -1.65863 5.12845 0
M  V30 298 C 37.791 -2.57637 4.5973 0
M  V30 299 C 36.524 -2.40278 4.01027 0
M  V30 300 N 35.925 -1.19549 3.86744 0
M  V30 301 N 35.959 -3.57711 3.59575 0
M  V30 302 C 36.561 -4.80324 3.70476 0
M  V30 303 N 37.738 -5.01121 4.23801 0
M  V30 304 C 38.313 -3.84757 4.66372 0
M  V30 305 H 40.609 -5.47604 4.85148 0
M  V30 306 H 41.792 -2.8955 5.86187 0
M  V30 307 H 43.275 -4.0121 7.36511 0
M  V30 308 H 41.581 -5.81019 8.37003 0
M  V30 309 H 41.391 -3.73517 9.52265 0
M  V30 310 H 39.761 -3.97163 8.80359 0
M  V30 311 H 36.025 -5.66348 3.3183 0
M  V30 312 H 40.603 -1.98804 5.94332 0
M  V30 313 H 34.995 -1.13147 3.4281 0
M  V30 314 H 36.399 -0.344074 4.19692 0
M  V30 315 H 42.401 -4.90891 4.01857 0
M  V30 316 P 44.2585 -5.75688 6.64379 0
M  V30 317 O 45.6795 -6.11915 7.01921 0
M  V30 318 O 43.8985 -4.30744 6.56026 0
M  V30 319 O 43.9355 -6.37042 5.19165 0
M  V30 320 C 43.7745 -7.83662 5.1657 0
M  V30 321 C 44.3155 -8.33398 3.83019 0
M  V30 322 O 43.2605 -8.0998 3.00999 0
M  V30 323 C 45.5335 -7.65514 3.2257 0
M  V30 324 O 46.2715 -8.4329 2.32297 0
M  V30 325 C 44.8655 -6.40075 2.62207 0
M  V30 326 O 45.6635 -5.92338 1.5428 0
M  V30 327 C 43.5275 -6.9454 2.18503 0
M  V30 328 N 42.4845 -5.95905 2.39948 0
M  V30 329 C 42.6535 -4.98383 3.32108 0
M  V30 330 N 41.6265 -4.16798 3.41761 0
M  V30 331 C 40.7415 -4.65287 2.47461 0
M  V30 332 C 39.4745 -4.18946 2.07461 0
M  V30 333 N 38.9095 -4.95327 1.09101 0
M  V30 334 C 39.5115 -6.04369 0.519812 0
M  V30 335 N 40.6885 -6.50694 0.855982 0
M  V30 336 C 41.2635 -5.75818 1.84322 0
M  V30 337 H 44.7425 -5.60502 3.36589 0
M  V30 338 H 46.2255 -7.35707 4.02681 0
M  V30 339 H 44.5315 -9.41302 3.90009 0
M  V30 340 H 44.3415 -8.29056 5.99158 0
M  V30 341 H 42.7115 -8.10073 5.25882 0
M  V30 342 H 43.5535 -4.88564 3.92502 0
M  V30 343 H 45.3515 -6.30224 0.72668 0
M  V30 344 P 47.2091 -8.4349 2.47671 0
M  V30 345 O 48.6311 -8.94359 2.59696 0
M  V30 346 O 46.8491 -7.1704 3.19006 0
M  V30 347 O 46.8861 -8.16596 0.923387 0
M  V30 348 C 46.7261 -9.38437 0.108857 0
M  V30 349 C 47.2661 -9.08076 -1.28339 0
M  V30 350 O 46.2111 -8.44229 -1.84713 0
M  V30 351 C 48.4841 -8.18386 -1.42505 0
M  V30 352 O 49.2221 -8.3501 -2.60497 0
M  V30 353 C 47.8161 -6.80225 -1.25468 0
M  V30 354 O 48.6141 -5.81526 -1.91035 0
M  V30 355 C 46.4781 -7.02416 -1.9168 0
M  V30 356 N 45.4351 -6.31033 -1.20314 0
M  V30 357 C 45.4971 -6.18781 0.121293 0
M  V30 358 N 44.4521 -5.49762 0.588272 0
M  V30 359 C 43.7181 -5.22015 -0.488988 0
M  V30 360 C 42.4121 -4.61966 -0.596448 0
M  V30 361 O 41.6791 -4.19162 0.309059 0
M  V30 362 N 41.9821 -4.53773 -1.878 0
M  V30 363 C 42.7311 -4.99623 -2.99082 0
M  V30 364 N 42.1341 -4.78912 -4.21227 0
M  V30 365 N 43.8841 -5.59957 -2.91093 0
M  V30 366 C 44.3411 -5.70225 -1.64218 0
M  V30 367 H 46.5101 -6.6888 -2.96621 0
M  V30 368 H 47.6931 -6.53517 -0.192194 0
M  V30 369 H 49.1781 -8.36563 -0.598329 0
M  V30 370 H 47.4831 -10.0291 -1.79807 0
M  V30 371 H 47.2931 -10.2138 0.558219 0
M  V30 372 H 45.6621 -9.6579 0.0444202 0
M  V30 373 H 41.0861 -4.12883 -2.05283 0
M  V30 374 H 46.2931 -6.59596 0.745856 0
M  V30 375 H 41.2231 -4.31425 -4.2628 0
M  V30 376 H 42.5991 -5.11219 -5.07148 0
M  V30 377 H 48.3031 -5.69466 -2.79593 0
M  V30 378 P 50.1597 -8.4349 -2.47671 0
M  V30 379 O 51.5817 -8.92593 -2.65 0
M  V30 380 O 49.7997 -7.7568 -1.19296 0
M  V30 381 O 49.8367 -7.36886 -3.63805 0
M  V30 382 C 49.6767 -7.95349 -4.982 0
M  V30 383 C 50.2167 -6.94612 -5.98974 0
M  V30 384 O 49.1607 -6.10347 -6.11815 0
M  V30 385 C 51.4347 -6.11426 -5.62335 0
M  V30 386 O 52.1727 -5.6162 -6.70584 0
M  V30 387 C 50.7657 -5.04409 -4.73308 0
M  V30 388 O 51.5647 -3.85992 -4.75183 0
M  V30 389 C 49.4287 -4.8728 -5.41006 0
M  V30 390 H 49.4607 -4.02333 -6.11157 0
M  V30 391 H 50.6437 -5.39466 -3.69543 0
M  V30 392 H 52.1277 -6.71916 -5.01943 0
M  V30 393 H 50.4337 -7.4649 -6.93477 0
M  V30 394 H 50.2437 -8.89416 -5.05237 0
M  V30 395 H 48.6137 -8.14876 -5.18409 0
M  V30 396 H 51.2527 -3.27957 -5.4317 0
M  V30 397 P 53.1103 -5.75688 -6.64379 0
M  V30 398 O 54.5323 -6.07627 -7.05504 0
M  V30 399 O 52.7503 -5.88047 -5.19722 0
M  V30 400 O 52.7873 -4.2322 -7.04443 0
M  V30 401 C 52.6273 -3.99743 -8.4911 0
M  V30 402 C 53.1673 -2.60516 -8.79425 0
M  V30 403 O 52.1113 -1.82684 -8.4467 0
M  V30 404 C 54.3853 -2.10343 -8.03628 0
M  V30 405 O 55.1233 -1.09919 -8.67766 0
M  V30 406 C 53.7163 -1.68446 -6.70876 0
M  V30 407 O 54.5153 -0.678137 -6.08433 0
M  V30 408 C 52.3793 -1.17436 -7.18567 0
M  V30 409 H 52.4113 -0.0804732 -7.31656 0
M  V30 410 H 53.5943 -2.54037 -6.02537 0
M  V30 411 H 55.0783 -2.93881 -7.85526 0
M  V30 412 H 53.3843 -2.53065 -9.86973 0
M  V30 413 H 53.1943 -4.75072 -9.05887 0
M  V30 414 H 51.5643 -4.05244 -8.76668 0
M  V30 415 H 54.2033 0.177647 -6.34251 0
M  V30 416 P 56.0608 -1.25109 -8.70152 0
M  V30 417 O 57.4818 -1.29758 -9.22115 0
M  V30 418 O 55.7008 -2.13714 -7.55141 0
M  V30 419 O 55.7378 0.248149 -8.21425 0
M  V30 420 C 55.5768 1.22792 -9.30533 0
M  V30 421 C 56.1178 2.56293 -8.80664 0
M  V30 422 O 55.0628 3.02944 -8.09255 0
M  V30 423 C 57.3358 2.57523 -7.89775 0
M  V30 424 O 58.0738 3.7668 -7.89438 0
M  V30 425 C 56.6678 2.20997 -6.55446 0
M  V30 426 O 57.4658 2.71302 -5.48691 0
M  V30 427 C 55.3298 2.89693 -6.67988 0
M  V30 428 N 54.2868 2.08895 -6.07487 0
M  V30 429 C 54.4558 0.753809 -5.94137 0
M  V30 430 N 53.4288 0.146592 -5.38801 0
M  V30 431 C 52.5438 1.1768 -5.13693 0
M  V30 432 C 51.2768 1.17563 -4.52477 0
M  V30 433 N 50.7118 2.41918 -4.45789 0
M  V30 434 C 51.3138 3.56493 -4.90792 0
M  V30 435 N 52.4908 3.61423 -5.47817 0
M  V30 436 C 53.0658 2.37779 -5.5588 0
M  V30 437 H 56.5448 1.12673 -6.44018 0
M  V30 438 H 58.0278 1.7746 -8.19711 0
M  V30 439 H 56.3338 3.21673 -9.66791 0
M  V30 440 H 56.1438 0.901032 -10.1892 0
M  V30 441 H 54.5138 1.33049 -9.56592 0
M  V30 442 H 55.3558 0.233081 -6.26266 0
M  V30 443 H 57.1538 3.5779 -5.23879 0
M  V30 444 P 59.0114 3.65191 -7.99657 0
M  V30 445 O 60.4334 3.89416 -8.45976 0
M  V30 446 O 58.6514 2.28472 -7.50807 0
M  V30 447 O 58.6884 4.64972 -6.77611 0
M  V30 448 C 58.5284 6.06319 -7.16352 0
M  V30 449 C 59.0684 6.91655 -6.02234 0
M  V30 450 O 58.0134 6.92449 -5.17064 0
M  V30 451 C 60.2864 6.43627 -5.25174 0
M  V30 452 O 61.0244 7.43686 -4.60469 0
M  V30 453 C 59.6184 5.40275 -4.31916 0
M  V30 454 O 60.4164 5.25193 -3.14386 0
M  V30 455 C 58.2804 6.04847 -4.05327 0
M  V30 456 N 57.2374 5.04166 -3.98114 0
M  V30 457 C 57.2994 3.96049 -4.75587 0
M  V30 458 N 56.2544 3.15559 -4.54006 0
M  V30 459 C 55.5204 3.78802 -3.62491 0
M  V30 460 C 54.2144 3.476 -3.10071 0
M  V30 461 O 53.4814 2.51136 -3.37021 0
M  V30 462 N 53.7844 4.39088 -2.19956 0
M  V30 463 C 54.5334 5.53215 -1.81733 0
M  V30 464 N 53.9364 6.31963 -0.860928 0
M  V30 465 N 55.6864 5.86688 -2.32562 0
M  V30 466 C 56.1434 4.97525 -3.23407 0
M  V30 467 H 58.3124 6.62195 -3.11261 0
M  V30 468 H 59.4954 4.42488 -4.8131 0
M  V30 469 H 60.9804 5.93051 -5.9305 0
M  V30 470 H 59.2854 7.92655 -6.402 0
M  V30 471 H 59.0954 6.26671 -8.0846 0
M  V30 472 H 57.4644 6.29101 -7.32804 0
M  V30 473 H 52.8884 4.25523 -1.77604 0
M  V30 474 H 58.0954 3.75576 -5.47333 0
M  V30 475 H 53.0254 6.04684 -0.468946 0
M  V30 476 H 54.4014 7.18054 -0.542422 0
M  V30 477 H 60.1054 5.84223 -2.47279 0
M  V30 478 P 61.962 7.39546 -4.75277 0
M  V30 479 O 63.384 7.84798 -5.01039 0
M  V30 480 O 61.602 5.9812 -5.08098 0
M  V30 481 O 61.639 7.57503 -3.1866 0
M  V30 482 C 61.479 8.97357 -2.74833 0
M  V30 483 C 62.019 9.07548 -1.32709 0
M  V30 484 O 60.963 8.62072 -0.606159 0
M  V30 485 C 63.237 8.25383 -0.938334 0
M  V30 486 O 63.975 8.74577 0.146954 0
M  V30 487 C 62.568 6.8802 -0.712559 0
M  V30 488 O 63.367 6.1189 0.194655 0
M  V30 489 C 61.231 7.27966 -0.139777 0
M  V30 490 H 61.263 7.25354 0.961601 0
M  V30 491 H 62.446 6.32557 -1.65702 0
M  V30 492 H 63.93 8.19355 -1.79097 0
M  V30 493 H 62.236 10.1294 -1.10029 0
M  V30 494 H 62.046 9.64276 -3.41316 0
M  V30 495 H 60.416 9.25417 -2.76357 0
M  V30 496 H 63.055 6.25267 1.07847 0
M  V30 497 P 64.9125 8.791 -3.55383e-14 0
M  V30 498 O 66.3345 9.31296 0.027939 0
M  V30 499 O 64.5525 7.77869 -1.04071 0
M  V30 500 O 64.5895 8.09533 1.41463 0
M  V30 501 C 64.4295 9.0349 2.53943 0
M  V30 502 C 64.9695 8.35135 3.78975 0
M  V30 503 O 63.9145 7.57992 4.15078 0
M  V30 504 C 66.1875 7.45087 3.67298 0
M  V30 505 O 66.9255 7.27796 4.85194 0
M  V30 506 C 65.5195 6.17323 3.12027 0
M  V30 507 O 66.3175 5.04149 3.47132 0
M  V30 508 C 64.1815 6.19961 3.81809 0
M  V30 509 N 63.1385 5.71575 2.93223 0
M  V30 510 C 63.2005 5.97133 1.62693 0
M  V30 511 N 62.1555 5.44066 0.984414 0
M  V30 512 C 61.4215 4.87093 1.93987 0
M  V30 513 C 60.1155 4.26449 1.8738 0
M  V30 514 O 59.3825 4.1089 0.884377 0
M  V30 515 N 59.6855 3.82483 3.08036 0
M  V30 516 C 60.4345 3.95124 4.27727 0
M  V30 517 N 59.8375 3.4084 5.39089 0
M  V30 518 N 61.5875 4.55264 4.3706 0
M  V30 519 C 62.0445 5.00861 3.18217 0
M  V30 520 H 64.2135 5.58218 4.73051 0
M  V30 521 H 65.3965 6.21631 2.02558 0
M  V30 522 H 66.8815 7.85819 2.93096 0
M  V30 523 H 65.1865 9.11627 4.55076 0
M  V30 524 H 64.9965 9.9573 2.34194 0
M  V30 525 H 63.3655 9.2792 2.67832 0
M  V30 526 H 58.7895 3.38323 3.1329 0
M  V30 527 H 63.9965 6.53891 1.14265 0
M  V30 528 H 58.9265 2.93852 5.30559 0
M  V30 529 H 60.3025 3.47631 6.30632 0
M  V30 530 H 66.0065 4.67628 4.28704 0
M  V30 531 P 67.8631 7.39546 4.75277 0
M  V30 532 O 69.2851 7.81777 5.05738 0
M  V30 533 O 67.5031 7.1065 3.32998 0
M  V30 534 O 67.5401 6.04542 5.56673 0
M  V30 535 C 67.3801 6.22772 7.02095 0
M  V30 536 C 67.9201 4.97725 7.70406 0
M  V30 537 O 66.8641 4.13256 7.58987 0
M  V30 538 C 69.1381 4.28231 7.11815 0
M  V30 539 O 69.8761 3.49945 8.01648 0
M  V30 540 C 68.4691 3.5063 5.96244 0
M  V30 541 O 69.2681 2.36482 5.64681 0
M  V30 542 C 67.1321 3.15122 6.56374 0
M  V30 543 H 67.1641 2.13853 6.99751 0
M  V30 544 H 68.3471 4.13501 5.06559 0
M  V30 545 H 69.8311 5.03285 6.70911 0
M  V30 546 H 68.1371 5.20877 8.75697 0
M  V30 547 H 67.9471 7.11046 7.35349 0
M  V30 548 H 66.3171 6.35815 7.26986 0
M  V30 549 H 68.9561 1.61644 6.13565 0
M  V30 550 P 70.8137 3.65191 7.99657 0
M  V30 551 O 72.2357 3.8425 8.48115 0
M  V30 552 O 70.4537 4.17805 6.64342 0
M  V30 553 O 70.4907 2.07613 7.95143 0
M  V30 554 C 70.3307 1.44328 9.27336 0
M  V30 555 C 70.8707 0.0220036 9.17197 0
M  V30 556 O 69.8147 -0.626867 8.61923 0
M  V30 557 C 72.0887 -0.24586 8.30336 0
M  V30 558 O 72.8267 -1.39011 8.63583 0
M  V30 559 C 71.4197 -0.273849 6.91158 0
M  V30 560 O 72.2187 -1.06348 6.02892 0
M  V30 561 C 70.0827 -0.897649 7.22545 0
M  V30 562 H 70.1147 -1.9841 7.04286 0
M  V30 563 H 71.2977 0.739928 6.497 0
M  V30 564 H 72.7817 0.60668 8.36503 0
M  V30 565 H 71.0877 -0.352479 10.1829 0
M  V30 566 H 70.8977 2.00611 10.0304 0
M  V30 567 H 69.2677 1.41843 9.55327 0
M  V30 568 H 71.9067 -1.95734 6.03555 0
M  V30 569 P 73.7642 -1.25109 8.70152 0
M  V30 570 O 75.1862 -1.35274 9.21221 0
M  V30 571 O 73.4042 -0.0769065 7.84762 0
M  V30 572 O 73.4412 -2.55232 7.81161 0
M  V30 573 C 73.2812 -3.79939 8.58154 0
M  V30 574 C 73.8212 -4.94023 7.72785 0
M  V30 575 O 72.7652 -5.18726 6.91205 0
M  V30 576 C 75.0392 -4.69597 6.85231 0
M  V30 577 O 75.7772 -5.83832 6.51337 0
M  V30 578 C 74.3702 -3.96706 5.66633 0
M  V30 579 O 75.1692 -4.15414 4.49689 0
M  V30 580 C 73.0332 -4.66153 5.59313 0
M  V30 581 H 73.0652 -5.47679 4.85214 0
M  V30 582 H 74.2482 -2.89008 5.86566 0
M  V30 583 H 75.7322 -4.0121 7.36511 0
M  V30 584 H 74.0382 -5.80182 8.37584 0
M  V30 585 H 73.8482 -3.73517 9.52265 0
M  V30 586 H 72.2182 -3.97163 8.80359 0
M  V30 587 H 74.8572 -4.90969 4.01921 0
M  V30 588 P 76.7148 -5.75688 6.64379 0
M  V30 589 O 78.1368 -6.11849 7.01846 0
M  V30 590 O 76.3548 -4.30744 6.56026 0
M  V30 591 O 76.3918 -6.37042 5.19165 0
M  V30 592 C 76.2318 -7.83578 5.16515 0
M  V30 593 C 76.7718 -8.33398 3.83019 0
M  V30 594 O 75.7158 -8.10074 3.01034 0
M  V30 595 C 77.9898 -7.65514 3.2257 0
M  V30 596 O 78.7278 -8.4329 2.32297 0
M  V30 597 C 77.3208 -6.40075 2.62207 0
M  V30 598 O 78.1198 -5.92589 1.53712 0
M  V30 599 C 75.9838 -6.9454 2.18503 0
M  V30 600 H 76.0158 -7.23063 1.12091 0
M  V30 601 H 77.1988 -5.6025 3.37201 0
M  V30 602 H 78.6828 -7.35707 4.02681 0
M  V30 603 H 76.9888 -9.40912 3.9095 0
M  V30 604 H 76.7988 -8.29056 5.99158 0
M  V30 605 H 75.1688 -8.10073 5.25882 0
M  V30 606 H 77.8078 -6.30324 0.726794 0
M  V30 607 P 79.6654 -8.4349 2.47671 0
M  V30 608 O 81.0864 -8.94263 2.59668 0
M  V30 609 O 79.3054 -7.1704 3.19006 0
M  V30 610 O 79.3424 -8.16596 0.923387 0
M  V30 611 C 79.1814 -9.38537 0.108869 0
M  V30 612 C 79.7224 -9.08175 -1.28353 0
M  V30 613 O 78.6674 -8.44131 -1.84692 0
M  V30 614 C 80.9404 -8.18386 -1.42505 0
M  V30 615 O 81.6784 -8.3501 -2.60497 0
M  V30 616 C 80.2724 -6.80225 -1.25468 0
M  V30 617 O 81.0704 -5.81716 -1.90454 0
M  V30 618 C 78.9344 -7.02416 -1.9168 0
M  V30 619 N 77.8914 -6.31033 -1.20314 0
M  V30 620 C 78.0604 -5.98817 0.0994088 0
M  V30 621 N 77.0334 -5.35403 0.621694 0
M  V30 622 C 76.1484 -5.25212 -0.43376 0
M  V30 623 C 74.8814 -4.64602 -0.519722 0
M  V30 624 N 74.2824 -4.01457 0.519136 0
M  V30 625 N 74.3164 -4.7568 -1.76013 0
M  V30 626 C 74.9184 -5.3653 -2.83017 0
M  V30 627 N 76.0954 -5.93676 -2.79782 0
M  V30 628 C 76.6704 -5.84061 -1.56249 0
M  V30 629 H 78.9664 -6.68789 -2.9658 0
M  V30 630 H 80.1494 -6.53498 -0.198729 0
M  V30 631 H 81.6324 -8.36622 -0.589963 0
M  V30 632 H 79.9384 -10.0273 -1.8081 0
M  V30 633 H 79.7484 -10.2138 0.558219 0
M  V30 634 H 78.1184 -9.6579 0.0444202 0
M  V30 635 H 74.3824 -5.37113 -3.77321 0
M  V30 636 H 78.9604 -6.23209 0.660562 0
M  V30 637 H 73.3524 -3.58834 0.394862 0
M  V30 638 H 74.7564 -3.96059 1.43048 0
M  V30 639 H 80.7584 -5.69466 -2.79593 0
M  V30 640 P 82.616 -8.4349 -2.47671 0
M  V30 641 O 84.037 -8.92689 -2.65029 0
M  V30 642 O 82.256 -7.7568 -1.19296 0
M  V30 643 O 82.293 -7.36886 -3.63805 0
M  V30 644 C 82.132 -7.95433 -4.98253 0
M  V30 645 C 82.673 -6.94612 -5.98974 0
M  V30 646 O 81.618 -6.10277 -6.11744 0
M  V30 647 C 83.891 -6.11426 -5.62335 0
M  V30 648 O 84.629 -5.6162 -6.70584 0
M  V30 649 C 83.223 -5.04409 -4.73308 0
M  V30 650 O 84.021 -3.86404 -4.74719 0
M  V30 651 C 81.885 -4.8728 -5.41006 0
M  V30 652 N 80.842 -4.65812 -4.42377 0
M  V30 653 C 81.011 -5.09132 -3.15382 0
M  V30 654 N 79.984 -4.84021 -2.3716 0
M  V30 655 C 79.099 -4.18386 -3.20441 0
M  V30 656 C 77.832 -3.6275 -2.94905 0
M  V30 657 N 77.233 -3.65794 -1.73372 0
M  V30 658 N 77.267 -3.05008 -4.05243 0
M  V30 659 C 77.869 -2.98348 -5.28159 0
M  V30 660 N 79.046 -3.48171 -5.56333 0
M  V30 661 C 79.621 -4.06869 -4.47212 0
M  V30 662 H 81.917 -4.02278 -6.11074 0
M  V30 663 H 83.1 -5.39013 -3.70026 0
M  V30 664 H 84.583 -6.71916 -5.01943 0
M  V30 665 H 82.889 -7.45796 -6.94223 0
M  V30 666 H 82.699 -8.89416 -5.05237 0
M  V30 667 H 81.069 -8.14876 -5.18409 0
M  V30 668 H 77.333 -2.47853 -6.07807 0
M  V30 669 H 81.911 -5.59989 -2.81362 0
M  V30 670 H 76.303 -3.23218 -1.60782 0
M  V30 671 H 77.707 -4.10523 -0.937856 0
M  V30 672 H 83.709 -3.27906 -5.43085 0
M  V30 673 P 85.5665 -5.75688 -6.64379 0
M  V30 674 O 86.9885 -6.07627 -7.05504 0
M  V30 675 O 85.2065 -5.88047 -5.19722 0
M  V30 676 O 85.2435 -4.2322 -7.04443 0
M  V30 677 C 85.0835 -3.99743 -8.4911 0
M  V30 678 C 85.6235 -2.60516 -8.79425 0
M  V30 679 O 84.5675 -1.82684 -8.4467 0
M  V30 680 C 86.8415 -2.10343 -8.03628 0
M  V30 681 O 87.5795 -1.09919 -8.67766 0
M  V30 682 C 86.1725 -1.68446 -6.70876 0
M  V30 683 O 86.9715 -0.678137 -6.08433 0
M  V30 684 C 84.8355 -1.17436 -7.18567 0
M  V30 685 H 84.8675 -0.0804732 -7.31656 0
M  V30 686 H 86.0505 -2.54037 -6.02537 0
M  V30 687 H 87.5345 -2.93881 -7.85526 0
M  V30 688 H 85.8405 -2.53065 -9.86973 0
M  V30 689 H 85.6505 -4.75072 -9.05887 0
M  V30 690 H 84.0205 -4.05244 -8.76668 0
M  V30 691 H 86.6595 0.177647 -6.34251 0
M  V30 692 P 88.5171 -1.25109 -8.70152 0
M  V30 693 O 89.9391 -1.29744 -9.22016 0
M  V30 694 O 88.1571 -2.13714 -7.55141 0
M  V30 695 O 88.1941 0.248149 -8.21425 0
M  V30 696 C 88.0341 1.22779 -9.30434 0
M  V30 697 C 88.5741 2.56293 -8.80664 0
M  V30 698 O 87.5181 3.02979 -8.09349 0
M  V30 699 C 89.7921 2.57523 -7.89775 0
M  V30 700 O 90.5301 3.7668 -7.89438 0
M  V30 701 C 89.1231 2.20997 -6.55446 0
M  V30 702 O 89.9221 2.71895 -5.48509 0
M  V30 703 C 87.7861 2.89693 -6.67988 0
M  V30 704 H 87.8181 3.88793 -6.19859 0
M  V30 705 H 89.0011 1.12046 -6.44229 0
M  V30 706 H 90.4851 1.7746 -8.19711 0
M  V30 707 H 88.7911 3.20706 -9.67112 0
M  V30 708 H 88.6011 0.901032 -10.1892 0
M  V30 709 H 86.9711 1.33049 -9.56592 0
M  V30 710 H 89.6101 3.57847 -5.23962 0
M  V30 711 P 91.4677 3.65191 -7.99657 0
M  V30 712 O 92.8897 3.89332 -8.45794 0
M  V30 713 O 91.1077 2.28472 -7.50807 0
M  V30 714 O 91.1447 4.64972 -6.77611 0
M  V30 715 C 90.9847 6.06319 -7.16352 0
M  V30 716 C 91.5247 6.91731 -6.02299 0
M  V30 717 O 90.4687 6.92449 -5.17064 0
M  V30 718 C 92.7427 6.43627 -5.25174 0
M  V30 719 O 93.4807 7.43686 -4.60469 0
M  V30 720 C 92.0737 5.40275 -4.31916 0
M  V30 721 O 92.8727 5.25279 -3.14438 0
M  V30 722 C 90.7367 6.04847 -4.05327 0
M  V30 723 H 90.7687 6.62195 -3.11261 0
M  V30 724 H 91.9517 4.42556 -4.81383 0
M  V30 725 H 93.4357 5.92458 -5.93643 0
M  V30 726 H 91.7417 7.92655 -6.402 0
M  V30 727 H 91.5517 6.26671 -8.0846 0
M  V30 728 H 89.9217 6.29101 -7.32804 0
M  V30 729 H 92.5607 5.84315 -2.47318 0
M  V30 730 P 94.4182 7.39546 -4.75277 0
M  V30 731 O 95.8402 7.84798 -5.01039 0
M  V30 732 O 94.0582 5.9812 -5.08098 0
M  V30 733 O 94.0952 7.57503 -3.1866 0
M  V30 734 C 93.9352 8.97357 -2.74833 0
M  V30 735 C 94.4752 9.07548 -1.32709 0
M  V30 736 O 93.4192 8.62072 -0.606159 0
M  V30 737 C 95.6932 8.25383 -0.938334 0
M  V30 738 O 96.4312 8.74577 0.146954 0
M  V30 739 C 95.0242 6.8802 -0.712559 0
M  V30 740 O 95.8232 6.1189 0.194655 0
M  V30 741 C 93.6872 7.27966 -0.139777 0
M  V30 742 H 93.7192 7.25354 0.961601 0
M  V30 743 H 94.9022 6.32557 -1.65702 0
M  V30 744 H 96.3862 8.19355 -1.79097 0
M  V30 745 H 94.6922 10.1294 -1.10029 0
M  V30 746 H 94.5022 9.64276 -3.41316 0
M  V30 747 H 92.8722 9.25417 -2.76357 0
M  V30 748 H 95.5112 6.25267 1.07847 0
M  V30 749 P 97.3688 8.791 -6.89233e-14 0
M  V30 750 O 98.7898 9.31196 0.027936 0
M  V30 751 O 97.0088 7.77869 -1.04071 0
M  V30 752 O 97.0458 8.09533 1.41463 0
M  V30 753 C 96.8848 9.03587 2.5397 0
M  V30 754 C 97.4258 8.35226 3.79016 0
M  V30 755 O 96.3708 7.57904 4.1503 0
M  V30 756 C 98.6438 7.45087 3.67298 0
M  V30 757 O 99.3818 7.27796 4.85194 0
M  V30 758 C 97.9758 6.17323 3.12027 0
M  V30 759 O 98.7738 5.04496 3.46627 0
M  V30 760 C 96.6378 6.19961 3.81809 0
M  V30 761 N 95.5948 5.71575 2.93223 0
M  V30 762 C 95.7638 5.77362 1.59168 0
M  V30 763 N 94.7368 5.3123 0.911893 0
M  V30 764 C 93.8518 4.91717 1.89588 0
M  V30 765 C 92.5848 4.3114 1.8076 0
M  V30 766 N 92.0198 4.06823 3.02898 0
M  V30 767 C 92.6218 4.35062 4.22711 0
M  V30 768 N 93.7988 4.90805 4.35707 0
M  V30 769 C 94.3738 5.16382 3.14469 0
M  V30 770 H 97.8528 6.21428 2.0318 0
M  V30 771 H 99.3358 7.86112 2.9231 0
M  V30 772 H 97.6418 9.11171 4.55987 0
M  V30 773 H 97.4518 9.9573 2.34194 0
M  V30 774 H 95.8218 9.2792 2.67832 0
M  V30 775 H 96.6638 6.16575 1.12198 0
M  V30 776 H 98.4618 4.67628 4.28704 0
M  V30 777 P 100.319 7.39546 4.75277 0
M  V30 778 O 101.741 7.81777 5.05738 0
M  V30 779 O 99.9594 7.1065 3.32998 0
M  V30 780 O 99.9964 6.04542 5.56673 0
M  V30 781 C 99.8364 6.22772 7.02095 0
M  V30 782 C 100.376 4.97725 7.70406 0
M  V30 783 O 99.3204 4.13256 7.58987 0
M  V30 784 C 101.594 4.28231 7.11815 0
M  V30 785 O 102.332 3.49945 8.01648 0
M  V30 786 C 100.925 3.5063 5.96244 0
M  V30 787 O 101.724 2.36482 5.64681 0
M  V30 788 C 99.5884 3.15122 6.56374 0
M  V30 789 H 99.6204 2.13853 6.99751 0
M  V30 790 H 100.803 4.13501 5.06559 0
M  V30 791 H 102.287 5.03285 6.70911 0
M  V30 792 H 100.593 5.20877 8.75697 0
M  V30 793 H 100.403 7.11046 7.35349 0
M  V30 794 H 98.7734 6.35815 7.26986 0
M  V30 795 H 101.412 1.61644 6.13565 0
M  V30 796 P 103.27 3.65191 7.99657 0
M  V30 797 O 104.691 3.84292 8.48206 0
M  V30 798 O 102.91 4.17805 6.64342 0
M  V30 799 O 102.947 2.07613 7.95143 0
M  V30 800 C 102.786 1.44344 9.27435 0
M  V30 801 C 103.327 0.0220036 9.17197 0
M  V30 802 O 102.272 -0.626794 8.61824 0
M  V30 803 C 104.545 -0.24586 8.30336 0
M  V30 804 O 105.283 -1.39011 8.63583 0
M  V30 805 C 103.877 -0.273849 6.91158 0
M  V30 806 O 104.675 -1.05728 6.029 0
M  V30 807 C 102.539 -0.897649 7.22545 0
M  V30 808 N 101.496 -0.292839 6.41732 0
M  V30 809 C 101.665 0.950603 5.91308 0
M  V30 810 N 100.638 1.37732 5.21105 0
M  V30 811 C 99.7529 0.318109 5.26039 0
M  V30 812 C 98.4859 0.146766 4.6727 0
M  V30 813 N 97.9209 -1.06525 4.95887 0
M  V30 814 C 98.5229 -2.0378 5.71347 0
M  V30 815 N 99.6999 -1.92445 6.27451 0
M  V30 816 C 100.275 -0.715382 6.00353 0
M  V30 817 H 103.754 0.733318 6.49674 0
M  V30 818 H 105.237 0.60668 8.36503 0
M  V30 819 H 103.543 -0.362662 10.1825 0
M  V30 820 H 103.353 2.00611 10.0304 0
M  V30 821 H 101.723 1.41843 9.55327 0
M  V30 822 H 102.565 1.54076 6.07465 0
M  V30 823 H 104.363 -1.95704 6.0346 0
M  V30 824 P 106.221 -1.25109 8.70152 0
M  V30 825 O 107.643 -1.35303 9.21419 0
M  V30 826 O 105.861 -0.0769065 7.84762 0
M  V30 827 O 105.898 -2.55232 7.81161 0
M  V30 828 C 105.738 -3.79939 8.58154 0
M  V30 829 C 106.278 -4.93969 7.72701 0
M  V30 830 O 105.223 -5.18726 6.91205 0
M  V30 831 C 107.496 -4.69597 6.85231 0
M  V30 832 O 108.234 -5.83832 6.51337 0
M  V30 833 C 106.828 -3.96706 5.66633 0
M  V30 834 O 107.626 -4.15346 4.49615 0
M  V30 835 C 105.49 -4.66153 5.59313 0
M  V30 836 N 104.447 -3.71582 5.24027 0
M  V30 837 C 104.509 -2.46018 5.67902 0
M  V30 838 N 103.464 -1.74868 5.24518 0
M  V30 839 C 102.73 -2.61333 4.54528 0
M  V30 840 C 101.424 -2.46162 3.95441 0
M  V30 841 O 100.691 -1.46013 3.94122 0
M  V30 842 N 100.994 -3.59334 3.34752 0
M  V30 843 C 101.743 -4.79605 3.3023 0
M  V30 844 N 101.146 -5.82109 2.6065 0
M  V30 845 N 102.896 -4.97402 3.8843 0
M  V30 846 C 103.353 -3.86258 4.50476 0
M  V30 847 H 105.522 -5.47679 4.85214 0
M  V30 848 H 106.705 -2.88964 5.86476 0
M  V30 849 H 108.19 -4.01947 7.36109 0
M  V30 850 H 106.495 -5.80182 8.37584 0
M  V30 851 H 106.305 -3.73517 9.52265 0
M  V30 852 H 104.674 -3.97163 8.80359 0
M  V30 853 H 100.098 -3.5825 2.90294 0
M  V30 854 H 105.305 -2.06161 6.30974 0
M  V30 855 H 100.235 -5.66979 2.15354 0
M  V30 856 H 101.611 -6.73686 2.54344 0
M  V30 857 H 107.315 -4.90891 4.01857 0
M  V30 858 P 109.171 -5.75688 6.64379 0
M  V30 859 O 110.593 -6.11849 7.01846 0
M  V30 860 O 108.811 -4.30744 6.56026 0
M  V30 861 O 108.848 -6.37042 5.19165 0
M  V30 862 C 108.688 -7.83578 5.16515 0
M  V30 863 C 109.228 -8.33398 3.83019 0
M  V30 864 O 108.172 -8.10074 3.01034 0
M  V30 865 C 110.446 -7.65514 3.2257 0
M  V30 866 O 111.184 -8.4329 2.32297 0
M  V30 867 C 109.777 -6.40075 2.62207 0
M  V30 868 O 110.576 -5.92589 1.53712 0
M  V30 869 C 108.44 -6.9454 2.18503 0
M  V30 870 H 108.472 -7.23063 1.12091 0
M  V30 871 H 109.655 -5.6025 3.37201 0
M  V30 872 H 111.139 -7.35707 4.02681 0
M  V30 873 H 109.445 -9.40912 3.9095 0
M  V30 874 H 109.255 -8.29056 5.99158 0
M  V30 875 H 107.625 -8.10073 5.25882 0
M  V30 876 H 110.264 -6.30324 0.726794 0
M  V30 877 P 112.122 -8.4349 2.47671 0
M  V30 878 O 113.544 -8.94167 2.5964 0
M  V30 879 O 111.762 -7.1704 3.19006 0
M  V30 880 O 111.799 -8.16596 0.923387 0
M  V30 881 C 111.639 -9.38437 0.108857 0
M  V30 882 C 112.179 -9.08175 -1.28353 0
M  V30 883 O 111.123 -8.44229 -1.84713 0
M  V30 884 C 113.397 -8.18386 -1.42505 0
M  V30 885 O 114.135 -8.3501 -2.60497 0
M  V30 886 C 112.728 -6.80225 -1.25468 0
M  V30 887 O 113.527 -5.81621 -1.91066 0
M  V30 888 C 111.391 -7.02416 -1.9168 0
M  V30 889 H 111.423 -6.6888 -2.96621 0
M  V30 890 H 112.606 -6.53617 -0.192223 0
M  V30 891 H 114.09 -8.36622 -0.589963 0
M  V30 892 H 112.396 -10.0291 -1.79807 0
M  V30 893 H 112.206 -10.2138 0.558219 0
M  V30 894 H 110.576 -9.6579 0.0444202 0
M  V30 895 H 113.215 -5.69556 -2.79637 0
M  V30 896 P 115.072 -8.4349 -2.47671 0
M  V30 897 O 116.494 -8.92593 -2.65 0
M  V30 898 O 114.712 -7.7568 -1.19296 0
M  V30 899 O 114.749 -7.36886 -3.63805 0
M  V30 900 C 114.589 -7.95349 -4.982 0
M  V30 901 C 115.129 -6.94612 -5.98974 0
M  V30 902 O 114.073 -6.10347 -6.11815 0
M  V30 903 C 116.347 -6.11426 -5.62335 0
M  V30 904 O 117.085 -5.6162 -6.70584 0
M  V30 905 C 115.678 -5.04409 -4.73308 0
M  V30 906 O 116.477 -3.85992 -4.75183 0
M  V30 907 C 114.341 -4.8728 -5.41006 0
M  V30 908 H 114.373 -4.02333 -6.11157 0
M  V30 909 H 115.556 -5.39466 -3.69543 0
M  V30 910 H 117.04 -6.71916 -5.01943 0
M  V30 911 H 115.346 -7.4649 -6.93477 0
M  V30 912 H 115.156 -8.89416 -5.05237 0
M  V30 913 H 113.526 -8.14876 -5.18409 0
M  V30 914 H 116.165 -3.27957 -5.4317 0
M  V30 915 P 118.023 -5.75688 -6.64379 0
M  V30 916 O 119.445 -6.07627 -7.05504 0
M  V30 917 O 117.663 -5.88047 -5.19722 0
M  V30 918 O 117.7 -4.2322 -7.04443 0
M  V30 919 C 117.54 -3.99743 -8.4911 0
M  V30 920 C 118.08 -2.60516 -8.79425 0
M  V30 921 O 117.024 -1.82684 -8.4467 0
M  V30 922 C 119.298 -2.10343 -8.03628 0
M  V30 923 O 120.036 -1.09919 -8.67766 0
M  V30 924 C 118.629 -1.68446 -6.70876 0
M  V30 925 O 119.428 -0.678137 -6.08433 0
M  V30 926 C 117.292 -1.17436 -7.18567 0
M  V30 927 H 117.324 -0.0804732 -7.31656 0
M  V30 928 H 118.507 -2.54037 -6.02537 0
M  V30 929 H 119.991 -2.93881 -7.85526 0
M  V30 930 H 118.297 -2.53065 -9.86973 0
M  V30 931 H 118.107 -4.75072 -9.05887 0
M  V30 932 H 116.477 -4.05244 -8.76668 0
M  V30 933 H 119.116 0.177647 -6.34251 0
M  V30 934 P 120.973 -1.25109 -8.70152 0
M  V30 935 O 122.395 -1.29744 -9.22016 0
M  V30 936 O 120.613 -2.13714 -7.55141 0
M  V30 937 O 120.65 0.248149 -8.21425 0
M  V30 938 C 120.49 1.22779 -9.30434 0
M  V30 939 C 121.03 2.56293 -8.80664 0
M  V30 940 O 119.974 3.02979 -8.09349 0
M  V30 941 C 122.248 2.57523 -7.89775 0
M  V30 942 O 122.986 3.7668 -7.89438 0
M  V30 943 C 121.579 2.20997 -6.55446 0
M  V30 944 O 122.378 2.71895 -5.48509 0
M  V30 945 C 120.242 2.89693 -6.67988 0
M  V30 946 H 120.274 3.88793 -6.19859 0
M  V30 947 H 121.457 1.12046 -6.44229 0
M  V30 948 H 122.941 1.7746 -8.19711 0
M  V30 949 H 121.247 3.20706 -9.67112 0
M  V30 950 H 121.057 0.901032 -10.1892 0
M  V30 951 H 119.427 1.33049 -9.56592 0
M  V30 952 H 122.066 3.57847 -5.23962 0
M  V30 953 P 123.924 3.65191 -7.99657 0
M  V30 954 O 125.346 3.89332 -8.45794 0
M  V30 955 O 123.564 2.28472 -7.50807 0
M  V30 956 O 123.601 4.64972 -6.77611 0
M  V30 957 C 123.441 6.06319 -7.16352 0
M  V30 958 C 123.981 6.91731 -6.02299 0
M  V30 959 O 122.925 6.92449 -5.17064 0
M  V30 960 C 125.199 6.43627 -5.25174 0
M  V30 961 O 125.937 7.43686 -4.60469 0
M  V30 962 C 124.53 5.40275 -4.31916 0
M  V30 963 O 125.329 5.25279 -3.14438 0
M  V30 964 C 123.193 6.04847 -4.05327 0
M  V30 965 H 123.225 6.62195 -3.11261 0
M  V30 966 H 124.408 4.42556 -4.81383 0
M  V30 967 H 125.892 5.92458 -5.93643 0
M  V30 968 H 124.198 7.92655 -6.402 0
M  V30 969 H 124.008 6.26671 -8.0846 0
M  V30 970 H 122.378 6.29101 -7.32804 0
M  V30 971 H 125.017 5.84315 -2.47318 0
M  V30 972 P 126.875 7.39546 -4.75277 0
M  V30 973 O 128.276 7.86988 -5.07993 0
M  V30 974 O 126.497 5.99957 -5.13804 0
M  V30 975 O 126.552 7.57411 -3.18621 0
M  V30 976 C 126.392 8.97357 -2.74833 0
M  V30 977 C 126.932 9.0745 -1.32694 0
M  V30 978 O 125.876 8.61972 -0.606089 0
M  V30 979 C 128.149 8.25383 -0.938334 0
M  V30 980 O 128.888 8.74577 0.146954 0
M  V30 981 C 127.482 6.8802 -0.712559 0
M  V30 982 O 128.28 6.11791 0.194623 0
M  V30 983 C 126.144 7.27966 -0.139777 0
M  V30 984 N 125.101 6.39368 -0.623421 0
M  V30 985 C 124.066 6.08088 0.223886 0
M  V30 986 O 124.105 6.5102 1.39986 0
M  V30 987 N 123.054 5.30627 -0.224051 0
M  V30 988 C 123.102 4.82531 -1.47257 0
M  V30 989 N 122.092 4.07328 -1.89378 0
M  V30 990 C 124.198 5.09974 -2.34008 0
M  V30 991 C 125.164 5.89548 -1.87678 0
M  V30 992 H 126.176 7.25255 0.961469 0
M  V30 993 H 127.359 6.32625 -1.65044 0
M  V30 994 H 128.843 8.19631 -1.78299 0
M  V30 995 H 127.149 10.1305 -1.09016 0
M  V30 996 H 126.958 9.64276 -3.41316 0
M  V30 997 H 125.328 9.25321 -2.76328 0
M  V30 998 H 124.246 4.67832 -3.3413 0
M  V30 999 H 126.01 6.14434 -2.51991 0
M  V30 1000 H 121.302 3.87329 -1.26296 0
M  V30 1001 H 122.097 3.69014 -2.84741 0
M  V30 1002 H 128.064 6.35931 1.08377 0
M  V30 1003 P 129.825 8.791 -1.02308e-13 0
M  V30 1004 O 131.226 9.36698 -0.018734 0
M  V30 1005 O 129.447 7.82499 -1.07878 0
M  V30 1006 O 129.502 8.09434 1.41446 0
M  V30 1007 C 129.342 9.0349 2.53943 0
M  V30 1008 C 129.882 8.35135 3.78975 0
M  V30 1009 O 128.826 7.57904 4.1503 0
M  V30 1010 C 131.099 7.45087 3.67298 0
M  V30 1011 O 131.838 7.27796 4.85194 0
M  V30 1012 C 130.432 6.17323 3.12027 0
M  V30 1013 O 131.23 5.04149 3.47132 0
M  V30 1014 C 129.094 6.19961 3.81809 0
M  V30 1015 N 128.051 5.71575 2.93223 0
M  V30 1016 C 127.016 4.99452 3.47592 0
M  V30 1017 O 127.055 4.7199 4.69732 0
M  V30 1018 N 126.004 4.58505 2.6803 0
M  V30 1019 C 126.052 4.85544 1.36995 0
M  V30 1020 N 125.042 4.45052 0.609031 0
M  V30 1021 C 127.148 5.55532 0.788532 0
M  V30 1022 C 128.114 5.97426 1.60849 0
M  V30 1023 H 129.126 5.58142 4.72986 0
M  V30 1024 H 130.309 6.21428 2.0318 0
M  V30 1025 H 131.793 7.85913 2.93131 0
M  V30 1026 H 130.099 9.11171 4.55987 0
M  V30 1027 H 129.908 9.9573 2.34194 0
M  V30 1028 H 128.278 9.27824 2.67805 0
M  V30 1029 H 127.196 5.7421 -0.281588 0
M  V30 1030 H 128.96 6.53132 1.202 0
M  V30 1031 H 124.252 3.94123 1.03159 0
M  V30 1032 H 125.047 4.64377 -0.400352 0
M  V30 1033 H 131.014 4.76386 4.34983 0
M  V30 1034 P 132.776 7.39546 4.75277 0
M  V30 1035 O 134.198 7.81777 5.05738 0
M  V30 1036 O 132.416 7.1065 3.32998 0
M  V30 1037 O 132.453 6.04542 5.56673 0
M  V30 1038 C 132.293 6.22772 7.02095 0
M  V30 1039 C 132.833 4.97725 7.70406 0
M  V30 1040 O 131.777 4.13256 7.58987 0
M  V30 1041 C 134.051 4.28231 7.11815 0
M  V30 1042 O 134.789 3.49945 8.01648 0
M  V30 1043 C 133.382 3.5063 5.96244 0
M  V30 1044 O 134.181 2.36482 5.64681 0
M  V30 1045 C 132.045 3.15122 6.56374 0
M  V30 1046 H 132.077 2.13853 6.99751 0
M  V30 1047 H 133.26 4.13501 5.06559 0
M  V30 1048 H 134.744 5.03285 6.70911 0
M  V30 1049 H 133.05 5.20877 8.75697 0
M  V30 1050 H 132.86 7.11046 7.35349 0
M  V30 1051 H 131.23 6.35815 7.26986 0
M  V30 1052 H 133.869 1.61644 6.13565 0
M  V30 1053 P 135.726 3.65191 7.99657 0
M  V30 1054 O 137.127 3.90823 8.51272 0
M  V30 1055 O 135.348 4.23191 6.66972 0
M  V30 1056 O 135.403 2.07587 7.95046 0
M  V30 1057 C 135.243 1.44328 9.27336 0
M  V30 1058 C 135.783 0.0220012 9.17097 0
M  V30 1059 O 134.727 -0.626794 8.61824 0
M  V30 1060 C 137 -0.24586 8.30336 0
M  V30 1061 O 137.739 -1.39011 8.63583 0
M  V30 1062 C 136.333 -0.273849 6.91158 0
M  V30 1063 O 137.131 -1.06331 6.02794 0
M  V30 1064 C 134.995 -0.897649 7.22545 0
M  V30 1065 N 133.952 -0.292839 6.41732 0
M  V30 1066 C 132.917 -1.08701 5.98712 0
M  V30 1067 O 132.956 -2.31211 6.24471 0
M  V30 1068 N 131.905 -0.533391 5.28415 0
M  V30 1069 C 131.953 0.770866 4.98576 0
M  V30 1070 N 130.943 1.29482 4.30134 0
M  V30 1071 C 133.049 1.59049 5.38086 0
M  V30 1072 C 134.015 1.01866 6.10256 0
M  V30 1073 H 135.027 -1.98383 7.04189 0
M  V30 1074 H 136.21 0.733318 6.49674 0
M  V30 1075 H 137.694 0.598386 8.36663 0
M  V30 1076 H 136 -0.362662 10.1825 0
M  V30 1077 H 135.809 2.00611 10.0304 0
M  V30 1078 H 134.179 1.41828 9.55228 0
M  V30 1079 H 133.097 2.6415 5.10622 0
M  V30 1080 H 134.861 1.61983 6.44042 0
M  V30 1081 H 130.153 0.69888 4.01361 0
M  V30 1082 H 130.948 2.29327 4.05781 0
M  V30 1083 H 136.915 -1.97777 6.14035 0
M  V30 1084 P 138.677 -1.25109 8.70152 0
M  V30 1085 O 140.098 -1.35288 9.2132 0
M  V30 1086 O 138.317 -0.0769065 7.84762 0
M  V30 1087 O 138.354 -2.55232 7.81161 0
M  V30 1088 C 138.193 -3.79979 8.58246 0
M  V30 1089 C 138.734 -4.94023 7.72785 0
M  V30 1090 O 137.679 -5.18666 6.91125 0
M  V30 1091 C 139.952 -4.69597 6.85231 0
M  V30 1092 O 140.69 -5.83832 6.51337 0
M  V30 1093 C 139.284 -3.96706 5.66633 0
M  V30 1094 O 140.082 -4.14896 4.5003 0
M  V30 1095 C 137.946 -4.66153 5.59313 0
M  V30 1096 N 136.903 -3.71582 5.24027 0
M  V30 1097 C 137.072 -2.39715 5.48833 0
M  V30 1098 N 136.045 -1.65863 5.12845 0
M  V30 1099 C 135.16 -2.57637 4.5973 0
M  V30 1100 C 133.893 -2.40278 4.01027 0
M  V30 1101 N 133.328 -3.57711 3.59575 0
M  V30 1102 C 133.93 -4.80324 3.70476 0
M  V30 1103 N 135.107 -5.01121 4.23801 0
M  V30 1104 C 135.682 -3.84757 4.66372 0
M  V30 1105 H 139.161 -2.8955 5.86187 0
M  V30 1106 H 140.644 -4.0121 7.36511 0
M  V30 1107 H 138.95 -5.81019 8.37003 0
M  V30 1108 H 138.76 -3.73517 9.52265 0
M  V30 1109 H 137.13 -3.97163 8.80359 0
M  V30 1110 H 137.972 -1.98804 5.94332 0
M  V30 1111 H 139.77 -4.90891 4.01857 0
M  V30 1112 P 141.627 -5.75688 6.64379 0
M  V30 1113 O 143.049 -6.11849 7.01846 0
M  V30 1114 O 141.267 -4.30744 6.56026 0
M  V30 1115 O 141.304 -6.37042 5.19165 0
M  V30 1116 C 141.144 -7.83578 5.16515 0
M  V30 1117 C 141.684 -8.33398 3.83019 0
M  V30 1118 O 140.628 -8.10074 3.01034 0
M  V30 1119 C 142.902 -7.65514 3.2257 0
M  V30 1120 O 143.64 -8.4329 2.32297 0
M  V30 1121 C 142.233 -6.40075 2.62207 0
M  V30 1122 O 143.032 -5.92589 1.53712 0
M  V30 1123 C 140.896 -6.9454 2.18503 0
M  V30 1124 H 140.928 -7.23063 1.12091 0
M  V30 1125 H 142.111 -5.6025 3.37201 0
M  V30 1126 H 143.595 -7.35707 4.02681 0
M  V30 1127 H 141.901 -9.40912 3.9095 0
M  V30 1128 H 141.711 -8.29056 5.99158 0
M  V30 1129 H 140.081 -8.10073 5.25882 0
M  V30 1130 H 142.72 -6.30324 0.726794 0
M  V30 1131 P 144.578 -8.4349 2.47671 0
M  V30 1132 O 146 -8.94167 2.5964 0
M  V30 1133 O 144.218 -7.1704 3.19006 0
M  V30 1134 O 144.255 -8.16596 0.923387 0
M  V30 1135 C 144.095 -9.38437 0.108857 0
M  V30 1136 C 144.635 -9.08175 -1.28353 0
M  V30 1137 O 143.579 -8.44229 -1.84713 0
M  V30 1138 C 145.853 -8.18386 -1.42505 0
M  V30 1139 O 146.591 -8.3501 -2.60497 0
M  V30 1140 C 145.184 -6.80225 -1.25468 0
M  V30 1141 O 145.983 -5.81621 -1.91066 0
M  V30 1142 C 143.847 -7.02416 -1.9168 0
M  V30 1143 H 143.879 -6.6888 -2.96621 0
M  V30 1144 H 145.062 -6.53617 -0.192223 0
M  V30 1145 H 146.546 -8.36622 -0.589963 0
M  V30 1146 H 144.852 -10.0291 -1.79807 0
M  V30 1147 H 144.662 -10.2138 0.558219 0
M  V30 1148 H 143.032 -9.6579 0.0444202 0
M  V30 1149 H 145.671 -5.69556 -2.79637 0
M  V30 1150 P 147.528 -8.4349 -2.47671 0
M  V30 1151 O 148.95 -8.92785 -2.65057 0
M  V30 1152 O 147.168 -7.7568 -1.19296 0
M  V30 1153 O 147.205 -7.36886 -3.63805 0
M  V30 1154 C 147.045 -7.95349 -4.982 0
M  V30 1155 C 147.585 -6.94537 -5.98908 0
M  V30 1156 O 146.53 -6.10347 -6.11815 0
M  V30 1157 C 148.803 -6.11426 -5.62335 0
M  V30 1158 O 149.541 -5.6162 -6.70584 0
M  V30 1159 C 148.135 -5.04409 -4.73308 0
M  V30 1160 O 148.933 -3.85929 -4.75106 0
M  V30 1161 C 146.797 -4.8728 -5.41006 0
M  V30 1162 N 145.754 -4.65812 -4.42377 0
M  V30 1163 C 145.816 -5.27109 -3.24335 0
M  V30 1164 N 144.771 -4.94293 -2.47735 0
M  V30 1165 C 144.037 -4.1271 -3.23359 0
M  V30 1166 C 142.731 -3.56384 -2.99934 0
M  V30 1167 O 141.998 -3.69331 -2.00616 0
M  V30 1168 N 142.301 -2.80206 -4.03316 0
M  V30 1169 C 143.05 -2.58614 -5.2172 0
M  V30 1170 N 142.453 -1.75154 -6.13278 0
M  V30 1171 N 144.203 -3.13689 -5.47619 0
M  V30 1172 C 144.66 -3.90921 -4.46436 0
M  V30 1173 H 146.829 -4.02333 -6.11157 0
M  V30 1174 H 148.012 -5.39383 -3.69487 0
M  V30 1175 H 149.497 -6.71414 -5.02615 0
M  V30 1176 H 147.802 -7.4649 -6.93477 0
M  V30 1177 H 147.612 -8.89416 -5.05237 0
M  V30 1178 H 145.981 -8.14876 -5.18409 0
M  V30 1179 H 141.405 -2.36355 -3.95916 0
M  V30 1180 H 146.612 -5.95212 -2.93859 0
M  V30 1181 H 141.542 -1.32473 -5.91856 0
M  V30 1182 H 142.918 -1.5588 -7.03026 0
M  V30 1183 H 148.622 -3.27906 -5.43085 0
M  V30 1184 P 150.479 -5.75688 -6.64379 0
M  V30 1185 O 151.901 -6.07627 -7.05504 0
M  V30 1186 O 150.119 -5.88047 -5.19722 0
M  V30 1187 O 150.156 -4.2322 -7.04443 0
M  V30 1188 C 149.996 -3.99743 -8.4911 0
M  V30 1189 C 150.536 -2.60516 -8.79425 0
M  V30 1190 O 149.48 -1.82684 -8.4467 0
M  V30 1191 C 151.754 -2.10343 -8.03628 0
M  V30 1192 O 152.492 -1.09919 -8.67766 0
M  V30 1193 C 151.085 -1.68446 -6.70876 0
M  V30 1194 O 151.884 -0.678137 -6.08433 0
M  V30 1195 C 149.748 -1.17436 -7.18567 0
M  V30 1196 H 149.78 -0.0804732 -7.31656 0
M  V30 1197 H 150.963 -2.54037 -6.02537 0
M  V30 1198 H 152.447 -2.93881 -7.85526 0
M  V30 1199 H 150.753 -2.53065 -9.86973 0
M  V30 1200 H 150.563 -4.75072 -9.05887 0
M  V30 1201 H 148.933 -4.05244 -8.76668 0
M  V30 1202 H 151.572 0.177647 -6.34251 0
M  V30 1203 P 153.43 -1.25109 -8.70152 0
M  V30 1204 O 154.851 -1.29758 -9.22115 0
M  V30 1205 O 153.07 -2.13714 -7.55141 0
M  V30 1206 O 153.107 0.248149 -8.21425 0
M  V30 1207 C 152.946 1.22792 -9.30533 0
M  V30 1208 C 153.487 2.56293 -8.80664 0
M  V30 1209 O 152.432 3.02944 -8.09255 0
M  V30 1210 C 154.705 2.57523 -7.89775 0
M  V30 1211 O 155.443 3.7668 -7.89438 0
M  V30 1212 C 154.037 2.20997 -6.55446 0
M  V30 1213 O 154.835 2.71302 -5.48691 0
M  V30 1214 C 152.699 2.89693 -6.67988 0
M  V30 1215 N 151.656 2.08895 -6.07487 0
M  V30 1216 C 151.825 0.753809 -5.94137 0
M  V30 1217 N 150.798 0.146592 -5.38801 0
M  V30 1218 C 149.913 1.1768 -5.13693 0
M  V30 1219 C 148.646 1.17563 -4.52477 0
M  V30 1220 N 148.047 0.057481 -4.04759 0
M  V30 1221 N 148.081 2.41918 -4.45789 0
M  V30 1222 C 148.683 3.56493 -4.90792 0
M  V30 1223 N 149.86 3.61423 -5.47817 0
M  V30 1224 C 150.435 2.37779 -5.5588 0
M  V30 1225 H 152.731 3.8874 -6.19774 0
M  V30 1226 H 153.914 1.12673 -6.44018 0
M  V30 1227 H 155.397 1.7746 -8.19711 0
M  V30 1228 H 153.703 3.21673 -9.66791 0
M  V30 1229 H 153.513 0.901032 -10.1892 0
M  V30 1230 H 151.883 1.33049 -9.56592 0
M  V30 1231 H 148.147 4.49919 -4.77947 0
M  V30 1232 H 152.725 0.233081 -6.26266 0
M  V30 1233 H 147.117 0.119831 -3.60801 0
M  V30 1234 H 148.521 -0.852272 -4.12385 0
M  V30 1235 H 154.523 3.5779 -5.23879 0
M  V30 1236 P 156.38 3.65191 -7.99657 0
M  V30 1237 O 157.802 3.89332 -8.45794 0
M  V30 1238 O 156.02 2.28472 -7.50807 0
M  V30 1239 O 156.057 4.64972 -6.77611 0
M  V30 1240 C 155.897 6.06319 -7.16352 0
M  V30 1241 C 156.437 6.91731 -6.02299 0
M  V30 1242 O 155.381 6.92449 -5.17064 0
M  V30 1243 C 157.655 6.43627 -5.25174 0
M  V30 1244 O 158.393 7.43686 -4.60469 0
M  V30 1245 C 156.986 5.40275 -4.31916 0
M  V30 1246 O 157.785 5.25279 -3.14438 0
M  V30 1247 C 155.649 6.04847 -4.05327 0
M  V30 1248 H 155.681 6.62195 -3.11261 0
M  V30 1249 H 156.864 4.42556 -4.81383 0
M  V30 1250 H 158.348 5.92458 -5.93643 0
M  V30 1251 H 156.654 7.92655 -6.402 0
M  V30 1252 H 156.464 6.26671 -8.0846 0
M  V30 1253 H 154.834 6.29101 -7.32804 0
M  V30 1254 H 157.473 5.84315 -2.47318 0
M  V30 1255 P 159.331 7.39546 -4.75277 0
M  V30 1256 O 160.753 7.84798 -5.01039 0
M  V30 1257 O 158.971 5.9812 -5.08098 0
M  V30 1258 O 159.008 7.57503 -3.1866 0
M  V30 1259 C 158.848 8.97357 -2.74833 0
M  V30 1260 C 159.388 9.07548 -1.32709 0
M  V30 1261 O 158.332 8.62072 -0.606159 0
M  V30 1262 C 160.606 8.25383 -0.938334 0
M  V30 1263 O 161.344 8.74577 0.146954 0
M  V30 1264 C 159.937 6.8802 -0.712559 0
M  V30 1265 O 160.736 6.1189 0.194655 0
M  V30 1266 C 158.6 7.27966 -0.139777 0
M  V30 1267 H 158.632 7.25354 0.961601 0
M  V30 1268 H 159.815 6.32557 -1.65702 0
M  V30 1269 H 161.299 8.19355 -1.79097 0
M  V30 1270 H 159.605 10.1294 -1.10029 0
M  V30 1271 H 159.415 9.64276 -3.41316 0
M  V30 1272 H 157.785 9.25417 -2.76357 0
M  V30 1273 H 160.424 6.25267 1.07847 0
M  V30 1274 P 162.281 8.791 -1.35693e-13 0
M  V30 1275 O 163.702 9.31196 0.027936 0
M  V30 1276 O 161.921 7.77869 -1.04071 0
M  V30 1277 O 161.958 8.09533 1.41463 0
M  V30 1278 C 161.797 9.03587 2.5397 0
M  V30 1279 C 162.338 8.35226 3.79016 0
M  V30 1280 O 161.283 7.57904 4.1503 0
M  V30 1281 C 163.556 7.45087 3.67298 0
M  V30 1282 O 164.294 7.27796 4.85194 0
M  V30 1283 C 162.888 6.17323 3.12027 0
M  V30 1284 O 163.686 5.04496 3.46627 0
M  V30 1285 C 161.55 6.19961 3.81809 0
M  V30 1286 N 160.507 5.71575 2.93223 0
M  V30 1287 C 160.676 5.77362 1.59168 0
M  V30 1288 N 159.649 5.3123 0.911893 0
M  V30 1289 C 158.764 4.91717 1.89588 0
M  V30 1290 C 157.497 4.3114 1.8076 0
M  V30 1291 N 156.898 3.99821 0.632928 0
M  V30 1292 N 156.932 4.06823 3.02898 0
M  V30 1293 C 157.534 4.35062 4.22711 0
M  V30 1294 N 158.711 4.90805 4.35707 0
M  V30 1295 C 159.286 5.16382 3.14469 0
M  V30 1296 H 161.582 5.58142 4.72986 0
M  V30 1297 H 162.765 6.21428 2.0318 0
M  V30 1298 H 164.248 7.86112 2.9231 0
M  V30 1299 H 162.554 9.11171 4.55987 0
M  V30 1300 H 162.364 9.9573 2.34194 0
M  V30 1301 H 160.734 9.2792 2.67832 0
M  V30 1302 H 156.998 4.09052 5.13359 0
M  V30 1303 H 161.576 6.16575 1.12198 0
M  V30 1304 H 155.968 3.55423 0.632085 0
M  V30 1305 H 157.372 4.20317 -0.256712 0
M  V30 1306 H 163.374 4.67628 4.28704 0
M  V30 1307 P 165.232 7.39546 4.75277 0
M  V30 1308 O 166.654 7.81777 5.05738 0
M  V30 1309 O 164.872 7.1065 3.32998 0
M  V30 1310 O 164.909 6.04542 5.56673 0
M  V30 1311 C 164.749 6.22772 7.02095 0
M  V30 1312 C 165.289 4.97725 7.70406 0
M  V30 1313 O 164.233 4.13256 7.58987 0
M  V30 1314 C 166.507 4.28231 7.11815 0
M  V30 1315 O 167.245 3.49945 8.01648 0
M  V30 1316 C 165.838 3.5063 5.96244 0
M  V30 1317 O 166.637 2.36482 5.64681 0
M  V30 1318 C 164.501 3.15122 6.56374 0
M  V30 1319 H 164.533 2.13853 6.99751 0
M  V30 1320 H 165.716 4.13501 5.06559 0
M  V30 1321 H 167.2 5.03285 6.70911 0
M  V30 1322 H 165.506 5.20877 8.75697 0
M  V30 1323 H 165.316 7.11046 7.35349 0
M  V30 1324 H 163.686 6.35815 7.26986 0
M  V30 1325 H 166.325 1.61644 6.13565 0
M  V30 1326 P 168.182 3.65191 7.99657 0
M  V30 1327 O 169.604 3.8425 8.48115 0
M  V30 1328 O 167.822 4.17805 6.64342 0
M  V30 1329 O 167.859 2.07613 7.95143 0
M  V30 1330 C 167.699 1.44328 9.27336 0
M  V30 1331 C 168.239 0.0220036 9.17197 0
M  V30 1332 O 167.183 -0.626867 8.61923 0
M  V30 1333 C 169.457 -0.24586 8.30336 0
M  V30 1334 O 170.195 -1.39011 8.63583 0
M  V30 1335 C 168.788 -0.273849 6.91158 0
M  V30 1336 O 169.587 -1.06348 6.02892 0
M  V30 1337 C 167.451 -0.897649 7.22545 0
M  V30 1338 H 167.483 -1.9841 7.04286 0
M  V30 1339 H 168.666 0.739928 6.497 0
M  V30 1340 H 170.15 0.60668 8.36503 0
M  V30 1341 H 168.456 -0.352479 10.1829 0
M  V30 1342 H 168.266 2.00611 10.0304 0
M  V30 1343 H 166.636 1.41843 9.55327 0
M  V30 1344 H 169.275 -1.95734 6.03555 0
M  V30 1345 P 171.133 -1.25109 8.70152 0
M  V30 1346 O 172.555 -1.35303 9.21419 0
M  V30 1347 O 170.773 -0.0769065 7.84762 0
M  V30 1348 O 170.81 -2.55232 7.81161 0
M  V30 1349 C 170.65 -3.79939 8.58154 0
M  V30 1350 C 171.19 -4.93969 7.72701 0
M  V30 1351 O 170.135 -5.18726 6.91205 0
M  V30 1352 C 172.408 -4.69597 6.85231 0
M  V30 1353 O 173.146 -5.83832 6.51337 0
M  V30 1354 C 171.74 -3.96706 5.66633 0
M  V30 1355 O 172.538 -4.15346 4.49615 0
M  V30 1356 C 170.402 -4.66153 5.59313 0
M  V30 1357 N 169.359 -3.71582 5.24027 0
M  V30 1358 C 169.421 -2.46018 5.67902 0
M  V30 1359 N 168.376 -1.74868 5.24518 0
M  V30 1360 C 167.642 -2.61333 4.54528 0
M  V30 1361 C 166.336 -2.46162 3.95441 0
M  V30 1362 O 165.603 -1.46013 3.94122 0
M  V30 1363 N 165.906 -3.59334 3.34752 0
M  V30 1364 C 166.655 -4.79605 3.3023 0
M  V30 1365 N 166.058 -5.82109 2.6065 0
M  V30 1366 N 167.808 -4.97402 3.8843 0
M  V30 1367 C 168.265 -3.86258 4.50476 0
M  V30 1368 H 170.434 -5.47679 4.85214 0
M  V30 1369 H 171.617 -2.88964 5.86476 0
M  V30 1370 H 173.102 -4.01947 7.36109 0
M  V30 1371 H 171.407 -5.80182 8.37584 0
M  V30 1372 H 171.217 -3.73517 9.52265 0
M  V30 1373 H 169.586 -3.97163 8.80359 0
M  V30 1374 H 165.01 -3.5825 2.90294 0
M  V30 1375 H 170.217 -2.06161 6.30974 0
M  V30 1376 H 165.147 -5.66979 2.15354 0
M  V30 1377 H 166.523 -6.73686 2.54344 0
M  V30 1378 H 172.227 -4.90891 4.01857 0
M  V30 1379 P 174.084 -5.75688 6.64379 0
M  V30 1380 O 175.505 -6.11915 7.01921 0
M  V30 1381 O 173.724 -4.30744 6.56026 0
M  V30 1382 O 173.761 -6.37042 5.19165 0
M  V30 1383 C 173.6 -7.83662 5.1657 0
M  V30 1384 C 174.141 -8.33398 3.83019 0
M  V30 1385 O 173.086 -8.0998 3.00999 0
M  V30 1386 C 175.359 -7.65514 3.2257 0
M  V30 1387 O 176.097 -8.4329 2.32297 0
M  V30 1388 C 174.691 -6.40075 2.62207 0
M  V30 1389 O 175.489 -5.92338 1.5428 0
M  V30 1390 C 173.353 -6.9454 2.18503 0
M  V30 1391 N 172.31 -5.95905 2.39948 0
M  V30 1392 C 172.479 -4.98383 3.32108 0
M  V30 1393 N 171.452 -4.16798 3.41761 0
M  V30 1394 C 170.567 -4.65287 2.47461 0
M  V30 1395 C 169.3 -4.18946 2.07461 0
M  V30 1396 N 168.701 -3.09661 2.60717 0
M  V30 1397 N 168.735 -4.95327 1.09101 0
M  V30 1398 C 169.337 -6.04369 0.519812 0
M  V30 1399 N 170.514 -6.50694 0.855982 0
M  V30 1400 C 171.089 -5.75818 1.84322 0
M  V30 1401 H 173.385 -7.22964 1.12076 0
M  V30 1402 H 174.568 -5.60502 3.36589 0
M  V30 1403 H 176.051 -7.35707 4.02681 0
M  V30 1404 H 174.357 -9.41302 3.90009 0
M  V30 1405 H 174.167 -8.29056 5.99158 0
M  V30 1406 H 172.537 -8.10073 5.25882 0
M  V30 1407 H 168.801 -6.55843 -0.270373 0
M  V30 1408 H 173.379 -4.88564 3.92502 0
M  V30 1409 H 167.771 -2.80523 2.27218 0
M  V30 1410 H 169.175 -2.55848 3.34465 0
M  V30 1411 H 175.177 -6.30224 0.72668 0
M  V30 1412 P 177.034 -8.4349 2.47671 0
M  V30 1413 O 178.456 -8.94167 2.5964 0
M  V30 1414 O 176.674 -7.1704 3.19006 0
M  V30 1415 O 176.711 -8.16596 0.923387 0
M  V30 1416 C 176.551 -9.38437 0.108857 0
M  V30 1417 C 177.091 -9.08175 -1.28353 0
M  V30 1418 O 176.035 -8.44229 -1.84713 0
M  V30 1419 C 178.309 -8.18386 -1.42505 0
M  V30 1420 O 179.047 -8.3501 -2.60497 0
M  V30 1421 C 177.64 -6.80225 -1.25468 0
M  V30 1422 O 178.439 -5.81621 -1.91066 0
M  V30 1423 C 176.303 -7.02416 -1.9168 0
M  V30 1424 H 176.335 -6.6888 -2.96621 0
M  V30 1425 H 177.518 -6.53617 -0.192223 0
M  V30 1426 H 179.002 -8.36622 -0.589963 0
M  V30 1427 H 177.308 -10.0291 -1.79807 0
M  V30 1428 H 177.118 -10.2138 0.558219 0
M  V30 1429 H 175.488 -9.6579 0.0444202 0
M  V30 1430 H 178.127 -5.69556 -2.79637 0
M  V30 1431 P 179.985 -8.4349 -2.47671 0
M  V30 1432 O 181.407 -8.92593 -2.65 0
M  V30 1433 O 179.625 -7.7568 -1.19296 0
M  V30 1434 O 179.662 -7.36886 -3.63805 0
M  V30 1435 C 179.502 -7.95349 -4.982 0
M  V30 1436 C 180.042 -6.94612 -5.98974 0
M  V30 1437 O 178.986 -6.10347 -6.11815 0
M  V30 1438 C 181.26 -6.11426 -5.62335 0
M  V30 1439 O 181.998 -5.6162 -6.70584 0
M  V30 1440 C 180.591 -5.04409 -4.73308 0
M  V30 1441 O 181.39 -3.85992 -4.75183 0
M  V30 1442 C 179.254 -4.8728 -5.41006 0
M  V30 1443 H 179.286 -4.02333 -6.11157 0
M  V30 1444 H 180.469 -5.39466 -3.69543 0
M  V30 1445 H 181.953 -6.71916 -5.01943 0
M  V30 1446 H 180.259 -7.4649 -6.93477 0
M  V30 1447 H 180.069 -8.89416 -5.05237 0
M  V30 1448 H 178.439 -8.14876 -5.18409 0
M  V30 1449 H 181.078 -3.27957 -5.4317 0
M  V30 1450 P 182.935 -5.75688 -6.64379 0
M  V30 1451 O 184.357 -6.07627 -7.05504 0
M  V30 1452 O 182.575 -5.88047 -5.19722 0
M  V30 1453 O 182.612 -4.2322 -7.04443 0
M  V30 1454 C 182.452 -3.99743 -8.4911 0
M  V30 1455 C 182.992 -2.60516 -8.79425 0
M  V30 1456 O 181.936 -1.82684 -8.4467 0
M  V30 1457 C 184.21 -2.10343 -8.03628 0
M  V30 1458 O 184.948 -1.09919 -8.67766 0
M  V30 1459 C 183.541 -1.68446 -6.70876 0
M  V30 1460 O 184.34 -0.678137 -6.08433 0
M  V30 1461 C 182.204 -1.17436 -7.18567 0
M  V30 1462 H 182.236 -0.0804732 -7.31656 0
M  V30 1463 H 183.419 -2.54037 -6.02537 0
M  V30 1464 H 184.903 -2.93881 -7.85526 0
M  V30 1465 H 183.209 -2.53065 -9.86973 0
M  V30 1466 H 183.019 -4.75072 -9.05887 0
M  V30 1467 H 181.389 -4.05244 -8.76668 0
M  V30 1468 H 184.028 0.177647 -6.34251 0
M  V30 1469 P 185.886 -1.25109 -8.70152 0
M  V30 1470 O 187.308 -1.29744 -9.22016 0
M  V30 1471 O 185.526 -2.13714 -7.55141 0
M  V30 1472 O 185.563 0.248149 -8.21425 0
M  V30 1473 C 185.403 1.22779 -9.30434 0
M  V30 1474 C 185.943 2.56293 -8.80664 0
M  V30 1475 O 184.887 3.02979 -8.09349 0
M  V30 1476 C 187.161 2.57523 -7.89775 0
M  V30 1477 O 187.899 3.7668 -7.89438 0
M  V30 1478 C 186.492 2.20997 -6.55446 0
M  V30 1479 O 187.291 2.71895 -5.48509 0
M  V30 1480 C 185.155 2.89693 -6.67988 0
M  V30 1481 H 185.187 3.88793 -6.19859 0
M  V30 1482 H 186.37 1.12046 -6.44229 0
M  V30 1483 H 187.854 1.7746 -8.19711 0
M  V30 1484 H 186.16 3.20706 -9.67112 0
M  V30 1485 H 185.97 0.901032 -10.1892 0
M  V30 1486 H 184.34 1.33049 -9.56592 0
M  V30 1487 H 186.979 3.57847 -5.23962 0
M  V30 1488 P 188.836 3.65191 -7.99657 0
M  V30 1489 O 190.258 3.89332 -8.45794 0
M  V30 1490 O 188.476 2.28472 -7.50807 0
M  V30 1491 O 188.513 4.64972 -6.77611 0
M  V30 1492 C 188.353 6.06319 -7.16352 0
M  V30 1493 C 188.893 6.91731 -6.02299 0
M  V30 1494 O 187.837 6.92449 -5.17064 0
M  V30 1495 C 190.111 6.43627 -5.25174 0
M  V30 1496 O 190.849 7.43686 -4.60469 0
M  V30 1497 C 189.442 5.40275 -4.31916 0
M  V30 1498 O 190.241 5.25279 -3.14438 0
M  V30 1499 C 188.105 6.04847 -4.05327 0
M  V30 1500 H 188.137 6.62195 -3.11261 0
M  V30 1501 H 189.32 4.42556 -4.81383 0
M  V30 1502 H 190.804 5.92458 -5.93643 0
M  V30 1503 H 189.11 7.92655 -6.402 0
M  V30 1504 H 188.92 6.26671 -8.0846 0
M  V30 1505 H 187.29 6.29101 -7.32804 0
M  V30 1506 H 189.929 5.84315 -2.47318 0
M  V30 1507 P 191.787 7.39546 -4.75277 0
M  V30 1508 O 193.209 7.84798 -5.01039 0
M  V30 1509 O 191.427 5.9812 -5.08098 0
M  V30 1510 O 191.464 7.57503 -3.1866 0
M  V30 1511 C 191.304 8.97357 -2.74833 0
M  V30 1512 C 191.844 9.07548 -1.32709 0
M  V30 1513 O 190.788 8.62072 -0.606159 0
M  V30 1514 C 193.062 8.25383 -0.938334 0
M  V30 1515 O 193.8 8.74577 0.146954 0
M  V30 1516 C 192.393 6.8802 -0.712559 0
M  V30 1517 O 193.192 6.1189 0.194655 0
M  V30 1518 C 191.056 7.27966 -0.139777 0
M  V30 1519 H 191.088 7.25354 0.961601 0
M  V30 1520 H 192.271 6.32557 -1.65702 0
M  V30 1521 H 193.755 8.19355 -1.79097 0
M  V30 1522 H 192.061 10.1294 -1.10029 0
M  V30 1523 H 191.871 9.64276 -3.41316 0
M  V30 1524 H 190.241 9.25417 -2.76357 0
M  V30 1525 H 192.88 6.25267 1.07847 0
M  V30 1526 P 194.738 8.791 1.12009e-13 0
M  V30 1527 O 196.16 9.31096 0.027933 0
M  V30 1528 O 194.378 7.77869 -1.04071 0
M  V30 1529 O 194.415 8.09533 1.41463 0
M  V30 1530 C 194.255 9.0349 2.53943 0
M  V30 1531 C 194.795 8.35226 3.79016 0
M  V30 1532 O 193.739 7.57992 4.15078 0
M  V30 1533 C 196.013 7.45087 3.67298 0
M  V30 1534 O 196.751 7.27796 4.85194 0
M  V30 1535 C 195.344 6.17323 3.12027 0
M  V30 1536 O 196.143 5.04231 3.47188 0
M  V30 1537 C 194.007 6.19961 3.81809 0
M  V30 1538 H 194.039 5.58218 4.73051 0
M  V30 1539 H 195.222 6.21726 2.02589 0
M  V30 1540 H 196.706 7.86112 2.9231 0
M  V30 1541 H 195.012 9.11627 4.55076 0
M  V30 1542 H 194.822 9.9573 2.34194 0
M  V30 1543 H 193.192 9.2792 2.67832 0
M  V30 1544 H 195.831 4.67702 4.28772 0
M  V30 1545 P 197.688 7.39546 4.75277 0
M  V30 1546 O 199.11 7.81945 5.05847 0
M  V30 1547 O 197.328 7.1065 3.32998 0
M  V30 1548 O 197.365 6.04542 5.56673 0
M  V30 1549 C 197.205 6.22772 7.02095 0
M  V30 1550 C 197.745 4.97671 7.70322 0
M  V30 1551 O 196.69 4.13256 7.58987 0
M  V30 1552 C 198.963 4.28231 7.11815 0
M  V30 1553 O 199.701 3.49945 8.01648 0
M  V30 1554 C 198.295 3.5063 5.96244 0
M  V30 1555 O 199.093 2.36443 5.64589 0
M  V30 1556 C 196.957 3.15122 6.56374 0
M  V30 1557 N 195.914 3.22311 5.55692 0
M  V30 1558 C 195.976 4.14382 4.59701 0
M  V30 1559 N 194.931 4.04476 3.76958 0
M  V30 1560 C 194.197 3.04892 4.26534 0
M  V30 1561 C 192.891 2.57447 3.88189 0
M  V30 1562 O 192.158 2.9785 2.96543 0
M  V30 1563 N 192.461 1.55228 4.65922 0
M  V30 1564 C 193.21 1.01152 5.73447 0
M  V30 1565 N 192.613 -0.0472117 6.37783 0
M  V30 1566 N 194.363 1.467 6.13813 0
M  V30 1567 C 194.82 2.4931 5.38487 0
M  V30 1568 H 196.989 2.13853 6.99751 0
M  V30 1569 H 198.172 4.13438 5.06482 0
M  V30 1570 H 199.657 5.02614 6.71414 0
M  V30 1571 H 197.962 5.20877 8.75697 0
M  V30 1572 H 197.772 7.11046 7.35349 0
M  V30 1573 H 196.141 6.35815 7.26986 0
M  V30 1574 H 191.565 1.15238 4.46468 0
M  V30 1575 H 196.772 4.88312 4.49647 0
M  V30 1576 H 191.702 -0.396382 6.05203 0
M  V30 1577 H 193.078 -0.484997 7.18465 0
M  V30 1578 H 198.782 1.61619 6.13468 0
M  V30 1579 P 200.639 3.65191 7.99657 0
M  V30 1580 O 202.06 3.84292 8.48206 0
M  V30 1581 O 200.279 4.17805 6.64342 0
M  V30 1582 O 200.316 2.07613 7.95143 0
M  V30 1583 C 200.155 1.44344 9.27435 0
M  V30 1584 C 200.696 0.0220036 9.17197 0
M  V30 1585 O 199.641 -0.626794 8.61824 0
M  V30 1586 C 201.914 -0.24586 8.30336 0
M  V30 1587 O 202.652 -1.39011 8.63583 0
M  V30 1588 C 201.246 -0.273849 6.91158 0
M  V30 1589 O 202.044 -1.05728 6.029 0
M  V30 1590 C 199.908 -0.897649 7.22545 0
M  V30 1591 N 198.865 -0.292839 6.41732 0
M  V30 1592 C 199.034 0.950603 5.91308 0
M  V30 1593 N 198.007 1.37732 5.21105 0
M  V30 1594 C 197.122 0.318109 5.26039 0
M  V30 1595 C 195.855 0.146766 4.6727 0
M  V30 1596 N 195.256 1.08519 3.89983 0
M  V30 1597 N 195.29 -1.06525 4.95887 0
M  V30 1598 C 195.892 -2.0378 5.71347 0
M  V30 1599 N 197.069 -1.92445 6.27451 0
M  V30 1600 C 197.644 -0.715382 6.00353 0
M  V30 1601 H 199.94 -1.98383 7.04189 0
M  V30 1602 H 201.123 0.733318 6.49674 0
M  V30 1603 H 202.606 0.60668 8.36503 0
M  V30 1604 H 200.912 -0.362662 10.1825 0
M  V30 1605 H 200.722 2.00611 10.0304 0
M  V30 1606 H 199.092 1.41843 9.55327 0
M  V30 1607 H 195.356 -2.97041 5.85344 0
M  V30 1608 H 199.934 1.54076 6.07465 0
M  V30 1609 H 194.326 0.901517 3.49562 0
M  V30 1610 H 195.73 1.97957 3.71669 0
M  V30 1611 H 201.732 -1.95704 6.0346 0
M  V30 1612 P 203.589 -1.25109 8.70152 0
M  V30 1613 O 205.011 -1.35274 9.21221 0
M  V30 1614 O 203.229 -0.0769065 7.84762 0
M  V30 1615 O 203.266 -2.55232 7.81161 0
M  V30 1616 C 203.106 -3.79939 8.58154 0
M  V30 1617 C 203.646 -4.94023 7.72785 0
M  V30 1618 O 202.59 -5.18726 6.91205 0
M  V30 1619 C 204.864 -4.69597 6.85231 0
M  V30 1620 O 205.602 -5.83832 6.51337 0
M  V30 1621 C 204.195 -3.96706 5.66633 0
M  V30 1622 O 204.994 -4.15414 4.49689 0
M  V30 1623 C 202.858 -4.66153 5.59313 0
M  V30 1624 H 202.89 -5.47679 4.85214 0
M  V30 1625 H 204.073 -2.89008 5.86566 0
M  V30 1626 H 205.557 -4.0121 7.36511 0
M  V30 1627 H 203.863 -5.80182 8.37584 0
M  V30 1628 H 203.673 -3.73517 9.52265 0
M  V30 1629 H 202.043 -3.97163 8.80359 0
M  V30 1630 H 204.682 -4.90969 4.01921 0
M  V30 1631 P 206.54 -5.75688 6.64379 0
M  V30 1632 O 207.962 -6.11849 7.01846 0
M  V30 1633 O 206.18 -4.30744 6.56026 0
M  V30 1634 O 206.217 -6.37042 5.19165 0
M  V30 1635 C 206.057 -7.83578 5.16515 0
M  V30 1636 C 206.597 -8.33398 3.83019 0
M  V30 1637 O 205.541 -8.10074 3.01034 0
M  V30 1638 C 207.815 -7.65514 3.2257 0
M  V30 1639 O 208.553 -8.4329 2.32297 0
M  V30 1640 C 207.146 -6.40075 2.62207 0
M  V30 1641 O 207.945 -5.92589 1.53712 0
M  V30 1642 C 205.809 -6.9454 2.18503 0
M  V30 1643 H 205.841 -7.23063 1.12091 0
M  V30 1644 H 207.024 -5.6025 3.37201 0
M  V30 1645 H 208.508 -7.35707 4.02681 0
M  V30 1646 H 206.814 -9.40912 3.9095 0
M  V30 1647 H 206.624 -8.29056 5.99158 0
M  V30 1648 H 204.994 -8.10073 5.25882 0
M  V30 1649 H 207.633 -6.30324 0.726794 0
M  V30 1650 P 209.49 -8.4349 2.47671 0
M  V30 1651 O 210.912 -8.94167 2.5964 0
M  V30 1652 O 209.13 -7.1704 3.19006 0
M  V30 1653 O 209.167 -8.16596 0.923387 0
M  V30 1654 C 209.007 -9.38437 0.108857 0
M  V30 1655 C 209.547 -9.08175 -1.28353 0
M  V30 1656 O 208.491 -8.44229 -1.84713 0
M  V30 1657 C 210.765 -8.18386 -1.42505 0
M  V30 1658 O 211.503 -8.3501 -2.60497 0
M  V30 1659 C 210.096 -6.80225 -1.25468 0
M  V30 1660 O 210.895 -5.81621 -1.91066 0
M  V30 1661 C 208.759 -7.02416 -1.9168 0
M  V30 1662 H 208.791 -6.6888 -2.96621 0
M  V30 1663 H 209.974 -6.53617 -0.192223 0
M  V30 1664 H 211.458 -8.36622 -0.589963 0
M  V30 1665 H 209.764 -10.0291 -1.79807 0
M  V30 1666 H 209.574 -10.2138 0.558219 0
M  V30 1667 H 207.944 -9.6579 0.0444202 0
M  V30 1668 H 210.583 -5.69556 -2.79637 0
M  V30 1669 P 212.441 -8.4349 -2.47671 0
M  V30 1670 O 213.863 -8.92593 -2.65 0
M  V30 1671 O 212.081 -7.7568 -1.19296 0
M  V30 1672 O 212.118 -7.36886 -3.63805 0
M  V30 1673 C 211.958 -7.95349 -4.982 0
M  V30 1674 C 212.498 -6.94612 -5.98974 0
M  V30 1675 O 211.442 -6.10347 -6.11815 0
M  V30 1676 C 213.716 -6.11426 -5.62335 0
M  V30 1677 O 214.454 -5.6162 -6.70584 0
M  V30 1678 C 213.047 -5.04409 -4.73308 0
M  V30 1679 O 213.846 -3.85992 -4.75183 0
M  V30 1680 C 211.71 -4.8728 -5.41006 0
M  V30 1681 H 211.742 -4.02333 -6.11157 0
M  V30 1682 H 212.925 -5.39466 -3.69543 0
M  V30 1683 H 214.409 -6.71916 -5.01943 0
M  V30 1684 H 212.715 -7.4649 -6.93477 0
M  V30 1685 H 212.525 -8.89416 -5.05237 0
M  V30 1686 H 210.895 -8.14876 -5.18409 0
M  V30 1687 H 213.534 -3.27957 -5.4317 0
M  V30 1688 P 215.392 -5.75688 -6.64379 0
M  V30 1689 O 216.814 -6.07627 -7.05504 0
M  V30 1690 O 215.032 -5.88047 -5.19722 0
M  V30 1691 O 215.069 -4.2322 -7.04443 0
M  V30 1692 C 214.909 -3.99743 -8.4911 0
M  V30 1693 C 215.449 -2.60516 -8.79425 0
M  V30 1694 O 214.393 -1.82684 -8.4467 0
M  V30 1695 C 216.667 -2.10343 -8.03628 0
M  V30 1696 O 217.405 -1.09919 -8.67766 0
M  V30 1697 C 215.998 -1.68446 -6.70876 0
M  V30 1698 O 216.797 -0.678137 -6.08433 0
M  V30 1699 C 214.661 -1.17436 -7.18567 0
M  V30 1700 H 214.693 -0.0804732 -7.31656 0
M  V30 1701 H 215.876 -2.54037 -6.02537 0
M  V30 1702 H 217.36 -2.93881 -7.85526 0
M  V30 1703 H 215.666 -2.53065 -9.86973 0
M  V30 1704 H 215.476 -4.75072 -9.05887 0
M  V30 1705 H 213.846 -4.05244 -8.76668 0
M  V30 1706 H 216.485 0.177647 -6.34251 0
M  V30 1707 P 218.342 -1.25109 -8.70152 0
M  V30 1708 O 219.764 -1.29744 -9.22016 0
M  V30 1709 O 217.982 -2.13714 -7.55141 0
M  V30 1710 O 218.019 0.248149 -8.21425 0
M  V30 1711 C 217.859 1.22779 -9.30434 0
M  V30 1712 C 218.399 2.56293 -8.80664 0
M  V30 1713 O 217.343 3.02979 -8.09349 0
M  V30 1714 C 219.617 2.57523 -7.89775 0
M  V30 1715 O 220.355 3.7668 -7.89438 0
M  V30 1716 C 218.948 2.20997 -6.55446 0
M  V30 1717 O 219.747 2.71895 -5.48509 0
M  V30 1718 C 217.611 2.89693 -6.67988 0
M  V30 1719 H 217.643 3.88793 -6.19859 0
M  V30 1720 H 218.826 1.12046 -6.44229 0
M  V30 1721 H 220.31 1.7746 -8.19711 0
M  V30 1722 H 218.616 3.20706 -9.67112 0
M  V30 1723 H 218.426 0.901032 -10.1892 0
M  V30 1724 H 216.796 1.33049 -9.56592 0
M  V30 1725 H 219.435 3.57847 -5.23962 0
M  V30 1726 P 221.293 3.65191 -7.99657 0
M  V30 1727 O 222.715 3.89332 -8.45794 0
M  V30 1728 O 220.933 2.28472 -7.50807 0
M  V30 1729 O 220.97 4.64972 -6.77611 0
M  V30 1730 C 220.81 6.06319 -7.16352 0
M  V30 1731 C 221.35 6.91731 -6.02299 0
M  V30 1732 O 220.294 6.92449 -5.17064 0
M  V30 1733 C 222.568 6.43627 -5.25174 0
M  V30 1734 O 223.306 7.43686 -4.60469 0
M  V30 1735 C 221.899 5.40275 -4.31916 0
M  V30 1736 O 222.698 5.25279 -3.14438 0
M  V30 1737 C 220.562 6.04847 -4.05327 0
M  V30 1738 H 220.594 6.62195 -3.11261 0
M  V30 1739 H 221.777 4.42556 -4.81383 0
M  V30 1740 H 223.261 5.92458 -5.93643 0
M  V30 1741 H 221.567 7.92655 -6.402 0
M  V30 1742 H 221.377 6.26671 -8.0846 0
M  V30 1743 H 219.747 6.29101 -7.32804 0
M  V30 1744 H 222.386 5.84315 -2.47318 0
M  V30 1745 P 224.243 7.39546 -4.75277 0
M  V30 1746 O 225.665 7.84798 -5.01039 0
M  V30 1747 O 223.883 5.9812 -5.08098 0
M  V30 1748 O 223.92 7.57503 -3.1866 0
M  V30 1749 C 223.76 8.97357 -2.74833 0
M  V30 1750 C 224.3 9.07548 -1.32709 0
M  V30 1751 O 223.244 8.62072 -0.606159 0
M  V30 1752 C 225.518 8.25383 -0.938334 0
M  V30 1753 O 226.256 8.74577 0.146954 0
M  V30 1754 C 224.849 6.8802 -0.712559 0
M  V30 1755 O 225.648 6.1189 0.194655 0
M  V30 1756 C 223.512 7.27966 -0.139777 0
M  V30 1757 H 223.544 7.25354 0.961601 0
M  V30 1758 H 224.727 6.32557 -1.65702 0
M  V30 1759 H 226.211 8.19355 -1.79097 0
M  V30 1760 H 224.517 10.1294 -1.10029 0
M  V30 1761 H 224.327 9.64276 -3.41316 0
M  V30 1762 H 222.697 9.25417 -2.76357 0
M  V30 1763 H 225.336 6.25267 1.07847 0
M  V30 1764 P 227.194 8.791 4.22174e-13 0
M  V30 1765 O 228.595 9.36698 -0.018734 0
M  V30 1766 O 226.816 7.82499 -1.07878 0
M  V30 1767 O 226.871 8.09434 1.41446 0
M  V30 1768 C 226.711 9.0349 2.53943 0
M  V30 1769 C 227.251 8.35135 3.78975 0
M  V30 1770 O 226.195 7.57904 4.1503 0
M  V30 1771 C 228.468 7.45087 3.67298 0
M  V30 1772 O 229.207 7.27796 4.85194 0
M  V30 1773 C 227.801 6.17323 3.12027 0
M  V30 1774 O 228.599 5.04149 3.47132 0
M  V30 1775 C 226.463 6.19961 3.81809 0
M  V30 1776 N 225.42 5.71575 2.93223 0
M  V30 1777 C 224.385 4.99452 3.47592 0
M  V30 1778 O 224.424 4.7199 4.69732 0
M  V30 1779 N 223.373 4.58505 2.6803 0
M  V30 1780 C 223.421 4.85544 1.36995 0
M  V30 1781 C 224.517 5.55532 0.788532 0
M  V30 1782 C 225.483 5.97426 1.60849 0
M  V30 1783 H 226.495 5.58142 4.72986 0
M  V30 1784 H 227.678 6.21428 2.0318 0
M  V30 1785 H 229.162 7.85913 2.93131 0
M  V30 1786 H 227.468 9.11171 4.55987 0
M  V30 1787 H 227.277 9.9573 2.34194 0
M  V30 1788 H 225.647 9.27824 2.67805 0
M  V30 1789 H 224.565 5.7421 -0.281588 0
M  V30 1790 H 226.329 6.53132 1.202 0
M  V30 1791 H 228.383 4.76386 4.34983 0
M  V30 1792 P 230.144 7.39546 4.75277 0
M  V30 1793 O 231.566 7.81777 5.05738 0
M  V30 1794 O 229.784 7.1065 3.32998 0
M  V30 1795 O 229.821 6.04542 5.56673 0
M  V30 1796 C 229.661 6.22772 7.02095 0
M  V30 1797 C 230.201 4.97725 7.70406 0
M  V30 1798 O 229.145 4.13256 7.58987 0
M  V30 1799 C 231.419 4.28231 7.11815 0
M  V30 1800 O 232.157 3.49945 8.01648 0
M  V30 1801 C 230.75 3.5063 5.96244 0
M  V30 1802 O 231.549 2.36482 5.64681 0
M  V30 1803 C 229.413 3.15122 6.56374 0
M  V30 1804 H 229.445 2.13853 6.99751 0
M  V30 1805 H 230.628 4.13501 5.06559 0
M  V30 1806 H 232.112 5.03285 6.70911 0
M  V30 1807 H 230.418 5.20877 8.75697 0
M  V30 1808 H 230.228 7.11046 7.35349 0
M  V30 1809 H 228.598 6.35815 7.26986 0
M  V30 1810 H 231.237 1.61644 6.13565 0
M  V30 1811 P 233.095 3.65191 7.99657 0
M  V30 1812 O 234.517 3.8425 8.48115 0
M  V30 1813 O 232.735 4.17805 6.64342 0
M  V30 1814 O 232.772 2.07613 7.95143 0
M  V30 1815 C 232.612 1.44328 9.27336 0
M  V30 1816 C 233.152 0.0220036 9.17197 0
M  V30 1817 O 232.096 -0.626867 8.61923 0
M  V30 1818 C 234.37 -0.24586 8.30336 0
M  V30 1819 O 235.108 -1.39011 8.63583 0
M  V30 1820 C 233.701 -0.273849 6.91158 0
M  V30 1821 O 234.5 -1.06348 6.02892 0
M  V30 1822 C 232.364 -0.897649 7.22545 0
M  V30 1823 H 232.396 -1.9841 7.04286 0
M  V30 1824 H 233.579 0.739928 6.497 0
M  V30 1825 H 235.063 0.60668 8.36503 0
M  V30 1826 H 233.369 -0.352479 10.1829 0
M  V30 1827 H 233.179 2.00611 10.0304 0
M  V30 1828 H 231.549 1.41843 9.55327 0
M  V30 1829 H 234.188 -1.95734 6.03555 0
M  V30 1830 P 236.046 -1.25109 8.70152 0
M  V30 1831 O 237.468 -1.35274 9.21221 0
M  V30 1832 O 235.686 -0.0769065 7.84762 0
M  V30 1833 O 235.723 -2.55232 7.81161 0
M  V30 1834 C 235.563 -3.79939 8.58154 0
M  V30 1835 C 236.103 -4.94023 7.72785 0
M  V30 1836 O 235.047 -5.18726 6.91205 0
M  V30 1837 C 237.321 -4.69597 6.85231 0
M  V30 1838 O 238.059 -5.83832 6.51337 0
M  V30 1839 C 236.652 -3.96706 5.66633 0
M  V30 1840 O 237.451 -4.15414 4.49689 0
M  V30 1841 C 235.315 -4.66153 5.59313 0
M  V30 1842 H 235.347 -5.47679 4.85214 0
M  V30 1843 H 236.53 -2.89008 5.86566 0
M  V30 1844 H 238.014 -4.0121 7.36511 0
M  V30 1845 H 236.32 -5.80182 8.37584 0
M  V30 1846 H 236.13 -3.73517 9.52265 0
M  V30 1847 H 234.5 -3.97163 8.80359 0
M  V30 1848 H 237.139 -4.90969 4.01921 0
M  V30 1849 P 238.996 -5.75688 6.64379 0
M  V30 1850 O 240.418 -6.11849 7.01846 0
M  V30 1851 O 238.636 -4.30744 6.56026 0
M  V30 1852 O 238.673 -6.37042 5.19165 0
M  V30 1853 C 238.513 -7.83578 5.16515 0
M  V30 1854 C 239.053 -8.33398 3.83019 0
M  V30 1855 O 237.997 -8.10074 3.01034 0
M  V30 1856 C 240.271 -7.65514 3.2257 0
M  V30 1857 O 241.009 -8.4329 2.32297 0
M  V30 1858 C 239.602 -6.40075 2.62207 0
M  V30 1859 O 240.401 -5.92589 1.53712 0
M  V30 1860 C 238.265 -6.9454 2.18503 0
M  V30 1861 H 238.297 -7.23063 1.12091 0
M  V30 1862 H 239.48 -5.6025 3.37201 0
M  V30 1863 H 240.964 -7.35707 4.02681 0
M  V30 1864 H 239.27 -9.40912 3.9095 0
M  V30 1865 H 239.08 -8.29056 5.99158 0
M  V30 1866 H 237.45 -8.10073 5.25882 0
M  V30 1867 H 240.089 -6.30324 0.726794 0
M  V30 1868 P 241.947 -8.4349 2.47671 0
M  V30 1869 O 243.368 -8.94263 2.59668 0
M  V30 1870 O 241.587 -7.1704 3.19006 0
M  V30 1871 O 241.624 -8.16596 0.923387 0
M  V30 1872 C 241.463 -9.38537 0.108869 0
M  V30 1873 C 242.004 -9.08175 -1.28353 0
M  V30 1874 O 240.949 -8.44131 -1.84692 0
M  V30 1875 C 243.222 -8.18386 -1.42505 0
M  V30 1876 O 243.96 -8.3501 -2.60497 0
M  V30 1877 C 242.554 -6.80225 -1.25468 0
M  V30 1878 O 243.352 -5.81716 -1.90454 0
M  V30 1879 C 241.216 -7.02416 -1.9168 0
M  V30 1880 N 240.173 -6.31033 -1.20314 0
M  V30 1881 C 240.342 -5.98817 0.0994088 0
M  V30 1882 N 239.315 -5.35403 0.621694 0
M  V30 1883 C 238.43 -5.25212 -0.43376 0
M  V30 1884 C 237.163 -4.64602 -0.519722 0
M  V30 1885 N 236.564 -4.01457 0.519136 0
M  V30 1886 N 236.598 -4.7568 -1.76013 0
M  V30 1887 C 237.2 -5.3653 -2.83017 0
M  V30 1888 N 238.377 -5.93676 -2.79782 0
M  V30 1889 C 238.952 -5.84061 -1.56249 0
M  V30 1890 H 241.248 -6.68789 -2.9658 0
M  V30 1891 H 242.431 -6.53498 -0.198729 0
M  V30 1892 H 243.914 -8.36622 -0.589963 0
M  V30 1893 H 242.22 -10.0273 -1.8081 0
M  V30 1894 H 242.03 -10.2138 0.558219 0
M  V30 1895 H 240.4 -9.6579 0.0444202 0
M  V30 1896 H 236.664 -5.37113 -3.77321 0
M  V30 1897 H 241.242 -6.23209 0.660562 0
M  V30 1898 H 235.634 -3.58834 0.394862 0
M  V30 1899 H 237.038 -3.96059 1.43048 0
M  V30 1900 H 243.04 -5.69466 -2.79593 0
M  V30 1901 P 244.897 -8.4349 -2.47671 0
M  V30 1902 O 246.319 -8.92593 -2.65 0
M  V30 1903 O 244.537 -7.7568 -1.19296 0
M  V30 1904 O 244.574 -7.36886 -3.63805 0
M  V30 1905 C 244.414 -7.95349 -4.982 0
M  V30 1906 C 244.954 -6.94612 -5.98974 0
M  V30 1907 O 243.898 -6.10347 -6.11815 0
M  V30 1908 C 246.172 -6.11426 -5.62335 0
M  V30 1909 O 246.91 -5.6162 -6.70584 0
M  V30 1910 C 245.503 -5.04409 -4.73308 0
M  V30 1911 O 246.302 -3.85992 -4.75183 0
M  V30 1912 C 244.166 -4.8728 -5.41006 0
M  V30 1913 H 244.198 -4.02333 -6.11157 0
M  V30 1914 H 245.381 -5.39466 -3.69543 0
M  V30 1915 H 246.865 -6.71916 -5.01943 0
M  V30 1916 H 245.171 -7.4649 -6.93477 0
M  V30 1917 H 244.981 -8.89416 -5.05237 0
M  V30 1918 H 243.351 -8.14876 -5.18409 0
M  V30 1919 H 245.99 -3.27957 -5.4317 0
M  V30 1920 P 247.848 -5.75688 -6.64379 0
M  V30 1921 O 249.269 -6.07692 -7.0558 0
M  V30 1922 O 247.488 -5.88047 -5.19722 0
M  V30 1923 O 247.525 -4.2322 -7.04443 0
M  V30 1924 C 247.364 -3.99785 -8.49201 0
M  V30 1925 C 247.905 -2.60516 -8.79425 0
M  V30 1926 O 246.85 -1.82663 -8.44573 0
M  V30 1927 C 249.123 -2.10343 -8.03628 0
M  V30 1928 O 249.861 -1.09919 -8.67766 0
M  V30 1929 C 248.455 -1.68446 -6.70876 0
M  V30 1930 O 249.253 -0.684109 -6.08265 0
M  V30 1931 C 247.117 -1.17436 -7.18567 0
M  V30 1932 N 246.074 -1.52699 -6.23988 0
M  V30 1933 C 246.243 -2.578 -5.40574 0
M  V30 1934 N 245.216 -2.78966 -4.61193 0
M  V30 1935 C 244.331 -1.78725 -4.95769 0
M  V30 1936 C 243.064 -1.45727 -4.44207 0
M  V30 1937 N 242.465 -2.13994 -3.43613 0
M  V30 1938 N 242.499 -0.374977 -5.05812 0
M  V30 1939 C 243.101 0.345585 -6.05615 0
M  V30 1940 N 244.278 0.0787651 -6.56253 0
M  V30 1941 C 244.853 -1.00499 -5.96189 0
M  V30 1942 H 247.149 -0.0804622 -7.31556 0
M  V30 1943 H 248.332 -2.53396 -6.02698 0
M  V30 1944 H 249.815 -2.93881 -7.85526 0
M  V30 1945 H 248.121 -2.52078 -9.87225 0
M  V30 1946 H 247.931 -4.75072 -9.05887 0
M  V30 1947 H 246.301 -4.05244 -8.76668 0
M  V30 1948 H 242.565 1.20098 -6.4532 0
M  V30 1949 H 247.143 -3.18977 -5.3945 0
M  V30 1950 H 241.535 -1.84983 -3.10004 0
M  V30 1951 H 242.939 -2.9465 -3.00843 0
M  V30 1952 H 248.941 0.177619 -6.34151 0
M  V30 1953 P 250.798 -1.25109 -8.70152 0
M  V30 1954 O 252.22 -1.29744 -9.22016 0
M  V30 1955 O 250.438 -2.13714 -7.55141 0
M  V30 1956 O 250.475 0.248149 -8.21425 0
M  V30 1957 C 250.315 1.22779 -9.30434 0
M  V30 1958 C 250.855 2.56293 -8.80664 0
M  V30 1959 O 249.799 3.02979 -8.09349 0
M  V30 1960 C 252.073 2.57523 -7.89775 0
M  V30 1961 O 252.811 3.7668 -7.89438 0
M  V30 1962 C 251.404 2.20997 -6.55446 0
M  V30 1963 O 252.203 2.71895 -5.48509 0
M  V30 1964 C 250.067 2.89693 -6.67988 0
M  V30 1965 H 250.099 3.88793 -6.19859 0
M  V30 1966 H 251.282 1.12046 -6.44229 0
M  V30 1967 H 252.766 1.7746 -8.19711 0
M  V30 1968 H 251.072 3.20706 -9.67112 0
M  V30 1969 H 250.882 0.901032 -10.1892 0
M  V30 1970 H 249.252 1.33049 -9.56592 0
M  V30 1971 H 251.891 3.57847 -5.23962 0
M  V30 1972 P 253.749 3.65191 -7.99657 0
M  V30 1973 O 255.171 3.89332 -8.45794 0
M  V30 1974 O 253.389 2.28472 -7.50807 0
M  V30 1975 O 253.426 4.64972 -6.77611 0
M  V30 1976 C 253.266 6.06319 -7.16352 0
M  V30 1977 C 253.806 6.91731 -6.02299 0
M  V30 1978 O 252.75 6.92449 -5.17064 0
M  V30 1979 C 255.024 6.43627 -5.25174 0
M  V30 1980 O 255.762 7.43686 -4.60469 0
M  V30 1981 C 254.355 5.40275 -4.31916 0
M  V30 1982 O 255.154 5.25279 -3.14438 0
M  V30 1983 C 253.018 6.04847 -4.05327 0
M  V30 1984 H 253.05 6.62195 -3.11261 0
M  V30 1985 H 254.233 4.42556 -4.81383 0
M  V30 1986 H 255.717 5.92458 -5.93643 0
M  V30 1987 H 254.023 7.92655 -6.402 0
M  V30 1988 H 253.833 6.26671 -8.0846 0
M  V30 1989 H 252.203 6.29101 -7.32804 0
M  V30 1990 H 254.842 5.84315 -2.47318 0
M  V30 1991 P 256.7 7.39546 -4.75277 0
M  V30 1992 O 258.122 7.84798 -5.01039 0
M  V30 1993 O 256.34 5.9812 -5.08098 0
M  V30 1994 O 256.377 7.57503 -3.1866 0
M  V30 1995 C 256.217 8.97357 -2.74833 0
M  V30 1996 C 256.757 9.07548 -1.32709 0
M  V30 1997 O 255.701 8.62072 -0.606159 0
M  V30 1998 C 257.975 8.25383 -0.938334 0
M  V30 1999 O 258.713 8.74577 0.146954 0
M  V30 2000 C 257.306 6.8802 -0.712559 0
M  V30 2001 O 258.105 6.1189 0.194655 0
M  V30 2002 C 255.969 7.27966 -0.139777 0
M  V30 2003 H 256.001 7.25354 0.961601 0
M  V30 2004 H 257.184 6.32557 -1.65702 0
M  V30 2005 H 258.668 8.19355 -1.79097 0
M  V30 2006 H 256.974 10.1294 -1.10029 0
M  V30 2007 H 256.784 9.64276 -3.41316 0
M  V30 2008 H 255.154 9.25417 -2.76357 0
M  V30 2009 H 257.793 6.25267 1.07847 0
M  V30 2010 P 259.65 8.791 7.3234e-13 0
M  V30 2011 O 261.072 9.31096 0.027933 0
M  V30 2012 O 259.29 7.77869 -1.04071 0
M  V30 2013 O 259.327 8.09533 1.41463 0
M  V30 2014 C 259.167 9.0349 2.53943 0
M  V30 2015 C 259.707 8.35226 3.79016 0
M  V30 2016 O 258.651 7.57992 4.15078 0
M  V30 2017 C 260.925 7.45087 3.67298 0
M  V30 2018 O 261.663 7.27796 4.85194 0
M  V30 2019 C 260.256 6.17323 3.12027 0
M  V30 2020 O 261.055 5.04231 3.47188 0
M  V30 2021 C 258.919 6.19961 3.81809 0
M  V30 2022 H 258.951 5.58218 4.73051 0
M  V30 2023 H 260.134 6.21726 2.02589 0
M  V30 2024 H 261.618 7.86112 2.9231 0
M  V30 2025 H 259.924 9.11627 4.55076 0
M  V30 2026 H 259.734 9.9573 2.34194 0
M  V30 2027 H 258.104 9.2792 2.67832 0
M  V30 2028 H 260.743 4.67702 4.28772 0
M  V30 2029 P 262.601 7.39546 4.75277 0
M  V30 2030 O 264.023 7.81777 5.05738 0
M  V30 2031 O 262.241 7.1065 3.32998 0
M  V30 2032 O 262.278 6.04542 5.56673 0
M  V30 2033 C 262.118 6.22772 7.02095 0
M  V30 2034 C 262.658 4.97725 7.70406 0
M  V30 2035 O 261.602 4.13256 7.58987 0
M  V30 2036 C 263.876 4.28231 7.11815 0
M  V30 2037 O 264.614 3.49945 8.01648 0
M  V30 2038 C 263.207 3.5063 5.96244 0
M  V30 2039 O 264.006 2.36482 5.64681 0
M  V30 2040 C 261.87 3.15122 6.56374 0
M  V30 2041 H 261.902 2.13853 6.99751 0
M  V30 2042 H 263.085 4.13501 5.06559 0
M  V30 2043 H 264.569 5.03285 6.70911 0
M  V30 2044 H 262.875 5.20877 8.75697 0
M  V30 2045 H 262.685 7.11046 7.35349 0
M  V30 2046 H 261.055 6.35815 7.26986 0
M  V30 2047 H 263.694 1.61644 6.13565 0
M  V30 2048 P 265.551 3.65191 7.99657 0
M  V30 2049 O 266.973 3.8425 8.48115 0
M  V30 2050 O 265.191 4.17805 6.64342 0
M  V30 2051 O 265.228 2.07613 7.95143 0
M  V30 2052 C 265.068 1.44328 9.27336 0
M  V30 2053 C 265.608 0.0220036 9.17197 0
M  V30 2054 O 264.552 -0.626867 8.61923 0
M  V30 2055 C 266.826 -0.24586 8.30336 0
M  V30 2056 O 267.564 -1.39011 8.63583 0
M  V30 2057 C 266.157 -0.273849 6.91158 0
M  V30 2058 O 266.956 -1.06348 6.02892 0
M  V30 2059 C 264.82 -0.897649 7.22545 0
M  V30 2060 H 264.852 -1.9841 7.04286 0
M  V30 2061 H 266.035 0.739928 6.497 0
M  V30 2062 H 267.519 0.60668 8.36503 0
M  V30 2063 H 265.825 -0.352479 10.1829 0
M  V30 2064 H 265.635 2.00611 10.0304 0
M  V30 2065 H 264.005 1.41843 9.55327 0
M  V30 2066 H 266.644 -1.95734 6.03555 0
M  V30 2067 P 268.502 -1.25109 8.70152 0
M  V30 2068 O 269.903 -1.31452 9.27431 0
M  V30 2069 O 268.124 -0.0458113 7.89887 0
M  V30 2070 O 268.179 -2.55201 7.81066 0
M  V30 2071 C 268.019 -3.79939 8.58154 0
M  V30 2072 C 268.559 -4.93969 7.72701 0
M  V30 2073 O 267.503 -5.18666 6.91125 0
M  V30 2074 C 269.776 -4.69597 6.85231 0
M  V30 2075 O 270.515 -5.83832 6.51337 0
M  V30 2076 C 269.109 -3.96706 5.66633 0
M  V30 2077 O 269.907 -4.15346 4.49615 0
M  V30 2078 C 267.771 -4.66153 5.59313 0
M  V30 2079 N 266.728 -3.71582 5.24027 0
M  V30 2080 C 265.693 -4.15133 4.44901 0
M  V30 2081 O 265.732 -5.32122 4.00336 0
M  V30 2082 N 264.681 -3.30554 4.15693 0
M  V30 2083 C 264.729 -2.04701 4.61105 0
M  V30 2084 N 263.719 -1.23621 4.31855 0
M  V30 2085 C 265.825 -1.57111 5.38655 0
M  V30 2086 C 266.791 -2.44234 5.68454 0
M  V30 2087 H 267.803 -5.47604 4.85148 0
M  V30 2088 H 268.986 -2.8955 5.86187 0
M  V30 2089 H 270.47 -4.01995 7.36197 0
M  V30 2090 H 268.776 -5.81019 8.37003 0
M  V30 2091 H 268.585 -3.73517 9.52265 0
M  V30 2092 H 266.955 -3.97122 8.80267 0
M  V30 2093 H 265.873 -0.538464 5.72373 0
M  V30 2094 H 267.637 -2.11927 6.29377 0
M  V30 2095 H 262.929 -1.58199 3.7543 0
M  V30 2096 H 263.724 -0.264601 4.65348 0
M  V30 2097 H 269.691 -4.98352 4.09633 0
M  V30 2098 P 271.452 -5.75688 6.64379 0
M  V30 2099 O 272.874 -6.11849 7.01846 0
M  V30 2100 O 271.092 -4.30744 6.56026 0
M  V30 2101 O 271.129 -6.37042 5.19165 0
M  V30 2102 C 270.969 -7.83578 5.16515 0
M  V30 2103 C 271.509 -8.33398 3.83019 0
M  V30 2104 O 270.453 -8.10074 3.01034 0
M  V30 2105 C 272.727 -7.65514 3.2257 0
M  V30 2106 O 273.465 -8.4329 2.32297 0
M  V30 2107 C 272.058 -6.40075 2.62207 0
M  V30 2108 O 272.857 -5.92589 1.53712 0
M  V30 2109 C 270.721 -6.9454 2.18503 0
M  V30 2110 H 270.753 -7.23063 1.12091 0
M  V30 2111 H 271.936 -5.6025 3.37201 0
M  V30 2112 H 273.42 -7.35707 4.02681 0
M  V30 2113 H 271.726 -9.40912 3.9095 0
M  V30 2114 H 271.536 -8.29056 5.99158 0
M  V30 2115 H 269.906 -8.10073 5.25882 0
M  V30 2116 H 272.545 -6.30324 0.726794 0
M  V30 2117 P 274.403 -8.4349 2.47671 0
M  V30 2118 O 275.825 -8.94167 2.5964 0
M  V30 2119 O 274.043 -7.1704 3.19006 0
M  V30 2120 O 274.08 -8.16596 0.923387 0
M  V30 2121 C 273.92 -9.38437 0.108857 0
M  V30 2122 C 274.46 -9.08175 -1.28353 0
M  V30 2123 O 273.404 -8.44229 -1.84713 0
M  V30 2124 C 275.678 -8.18386 -1.42505 0
M  V30 2125 O 276.416 -8.3501 -2.60497 0
M  V30 2126 C 275.009 -6.80225 -1.25468 0
M  V30 2127 O 275.808 -5.81621 -1.91066 0
M  V30 2128 C 273.672 -7.02416 -1.9168 0
M  V30 2129 H 273.704 -6.6888 -2.96621 0
M  V30 2130 H 274.887 -6.53617 -0.192223 0
M  V30 2131 H 276.371 -8.36622 -0.589963 0
M  V30 2132 H 274.677 -10.0291 -1.79807 0
M  V30 2133 H 274.487 -10.2138 0.558219 0
M  V30 2134 H 272.857 -9.6579 0.0444202 0
M  V30 2135 H 275.496 -5.69556 -2.79637 0
M  V30 2136 P 277.354 -8.4349 -2.47671 0
M  V30 2137 O 278.776 -8.92593 -2.65 0
M  V30 2138 O 276.994 -7.7568 -1.19296 0
M  V30 2139 O 277.031 -7.36886 -3.63805 0
M  V30 2140 C 276.871 -7.95349 -4.982 0
M  V30 2141 C 277.411 -6.94612 -5.98974 0
M  V30 2142 O 276.355 -6.10347 -6.11815 0
M  V30 2143 C 278.629 -6.11426 -5.62335 0
M  V30 2144 O 279.367 -5.6162 -6.70584 0
M  V30 2145 C 277.96 -5.04409 -4.73308 0
M  V30 2146 O 278.759 -3.85992 -4.75183 0
M  V30 2147 C 276.623 -4.8728 -5.41006 0
M  V30 2148 H 276.655 -4.02333 -6.11157 0
M  V30 2149 H 277.838 -5.39466 -3.69543 0
M  V30 2150 H 279.322 -6.71916 -5.01943 0
M  V30 2151 H 277.628 -7.4649 -6.93477 0
M  V30 2152 H 277.438 -8.89416 -5.05237 0
M  V30 2153 H 275.808 -8.14876 -5.18409 0
M  V30 2154 H 278.447 -3.27957 -5.4317 0
M  V30 2155 P 280.304 -5.75688 -6.64379 0
M  V30 2156 O 281.726 -6.07627 -7.05504 0
M  V30 2157 O 279.944 -5.88047 -5.19722 0
M  V30 2158 O 279.981 -4.2322 -7.04443 0
M  V30 2159 C 279.821 -3.99743 -8.4911 0
M  V30 2160 C 280.361 -2.60516 -8.79425 0
M  V30 2161 O 279.305 -1.82684 -8.4467 0
M  V30 2162 C 281.579 -2.10343 -8.03628 0
M  V30 2163 O 282.317 -1.09919 -8.67766 0
M  V30 2164 C 280.91 -1.68446 -6.70876 0
M  V30 2165 O 281.709 -0.678137 -6.08433 0
M  V30 2166 C 279.573 -1.17436 -7.18567 0
M  V30 2167 H 279.605 -0.0804732 -7.31656 0
M  V30 2168 H 280.788 -2.54037 -6.02537 0
M  V30 2169 H 282.272 -2.93881 -7.85526 0
M  V30 2170 H 280.578 -2.53065 -9.86973 0
M  V30 2171 H 280.388 -4.75072 -9.05887 0
M  V30 2172 H 278.758 -4.05244 -8.76668 0
M  V30 2173 H 281.397 0.177647 -6.34251 0
M  V30 2174 P 283.255 -1.25109 -8.70152 0
M  V30 2175 O 284.677 -1.29744 -9.22016 0
M  V30 2176 O 282.895 -2.13714 -7.55141 0
M  V30 2177 O 282.932 0.248149 -8.21425 0
M  V30 2178 C 282.772 1.22779 -9.30434 0
M  V30 2179 C 283.312 2.56293 -8.80664 0
M  V30 2180 O 282.256 3.02979 -8.09349 0
M  V30 2181 C 284.53 2.57523 -7.89775 0
M  V30 2182 O 285.268 3.7668 -7.89438 0
M  V30 2183 C 283.861 2.20997 -6.55446 0
M  V30 2184 O 284.66 2.71895 -5.48509 0
M  V30 2185 C 282.524 2.89693 -6.67988 0
M  V30 2186 H 282.556 3.88793 -6.19859 0
M  V30 2187 H 283.739 1.12046 -6.44229 0
M  V30 2188 H 285.223 1.7746 -8.19711 0
M  V30 2189 H 283.529 3.20706 -9.67112 0
M  V30 2190 H 283.339 0.901032 -10.1892 0
M  V30 2191 H 281.709 1.33049 -9.56592 0
M  V30 2192 H 284.348 3.57847 -5.23962 0
M  V30 2193 P 286.205 3.65191 -7.99657 0
M  V30 2194 O 287.627 3.89332 -8.45794 0
M  V30 2195 O 285.845 2.28472 -7.50807 0
M  V30 2196 O 285.882 4.64972 -6.77611 0
M  V30 2197 C 285.722 6.06319 -7.16352 0
M  V30 2198 C 286.262 6.91731 -6.02299 0
M  V30 2199 O 285.206 6.92449 -5.17064 0
M  V30 2200 C 287.48 6.43627 -5.25174 0
M  V30 2201 O 288.218 7.43686 -4.60469 0
M  V30 2202 C 286.811 5.40275 -4.31916 0
M  V30 2203 O 287.61 5.25279 -3.14438 0
M  V30 2204 C 285.474 6.04847 -4.05327 0
M  V30 2205 H 285.506 6.62195 -3.11261 0
M  V30 2206 H 286.689 4.42556 -4.81383 0
M  V30 2207 H 288.173 5.92458 -5.93643 0
M  V30 2208 H 286.479 7.92655 -6.402 0
M  V30 2209 H 286.289 6.26671 -8.0846 0
M  V30 2210 H 284.659 6.29101 -7.32804 0
M  V30 2211 H 287.298 5.84315 -2.47318 0
M  V30 2212 P 289.156 7.39546 -4.75277 0
M  V30 2213 O 290.578 7.84798 -5.01039 0
M  V30 2214 O 288.796 5.9812 -5.08098 0
M  V30 2215 O 288.833 7.57503 -3.1866 0
M  V30 2216 C 288.673 8.97357 -2.74833 0
M  V30 2217 C 289.213 9.07548 -1.32709 0
M  V30 2218 O 288.157 8.62072 -0.606159 0
M  V30 2219 C 290.431 8.25383 -0.938334 0
M  V30 2220 O 291.169 8.74577 0.146954 0
M  V30 2221 C 289.762 6.8802 -0.712559 0
M  V30 2222 O 290.561 6.1189 0.194655 0
M  V30 2223 C 288.425 7.27966 -0.139777 0
M  V30 2224 H 288.457 7.25354 0.961601 0
M  V30 2225 H 289.64 6.32557 -1.65702 0
M  V30 2226 H 291.124 8.19355 -1.79097 0
M  V30 2227 H 289.43 10.1294 -1.10029 0
M  V30 2228 H 289.24 9.64276 -3.41316 0
M  V30 2229 H 287.61 9.25417 -2.76357 0
M  V30 2230 H 290.249 6.25267 1.07847 0
M  V30 2231 P 292.106 8.791 1.04251e-12 0
M  V30 2232 O 293.528 9.31096 0.027933 0
M  V30 2233 O 291.746 7.77869 -1.04071 0
M  V30 2234 O 291.783 8.09533 1.41463 0
M  V30 2235 C 291.623 9.0349 2.53943 0
M  V30 2236 C 292.163 8.35226 3.79016 0
M  V30 2237 O 291.107 7.57992 4.15078 0
M  V30 2238 C 293.381 7.45087 3.67298 0
M  V30 2239 O 294.119 7.27796 4.85194 0
M  V30 2240 C 292.712 6.17323 3.12027 0
M  V30 2241 O 293.511 5.04231 3.47188 0
M  V30 2242 C 291.375 6.19961 3.81809 0
M  V30 2243 H 291.407 5.58218 4.73051 0
M  V30 2244 H 292.59 6.21726 2.02589 0
M  V30 2245 H 294.074 7.86112 2.9231 0
M  V30 2246 H 292.38 9.11627 4.55076 0
M  V30 2247 H 292.19 9.9573 2.34194 0
M  V30 2248 H 290.56 9.2792 2.67832 0
M  V30 2249 H 293.199 4.67702 4.28772 0
M  V30 2250 P 295.057 7.39546 4.75277 0
M  V30 2251 O 296.479 7.81777 5.05738 0
M  V30 2252 O 294.697 7.1065 3.32998 0
M  V30 2253 O 294.734 6.04542 5.56673 0
M  V30 2254 C 294.574 6.22772 7.02095 0
M  V30 2255 C 295.114 4.97725 7.70406 0
M  V30 2256 O 294.058 4.13256 7.58987 0
M  V30 2257 C 296.332 4.28231 7.11815 0
M  V30 2258 O 297.07 3.49945 8.01648 0
M  V30 2259 C 295.663 3.5063 5.96244 0
M  V30 2260 O 296.462 2.36482 5.64681 0
M  V30 2261 C 294.326 3.15122 6.56374 0
M  V30 2262 H 294.358 2.13853 6.99751 0
M  V30 2263 H 295.541 4.13501 5.06559 0
M  V30 2264 H 297.025 5.03285 6.70911 0
M  V30 2265 H 295.331 5.20877 8.75697 0
M  V30 2266 H 295.141 7.11046 7.35349 0
M  V30 2267 H 293.511 6.35815 7.26986 0
M  V30 2268 H 296.15 1.61644 6.13565 0
M  V30 2269 P 298.008 3.65191 7.99657 0
M  V30 2270 O 299.43 3.8425 8.48115 0
M  V30 2271 O 297.648 4.17805 6.64342 0
M  V30 2272 O 297.685 2.07613 7.95143 0
M  V30 2273 C 297.525 1.44328 9.27336 0
M  V30 2274 C 298.065 0.0220036 9.17197 0
M  V30 2275 O 297.009 -0.626867 8.61923 0
M  V30 2276 C 299.283 -0.24586 8.30336 0
M  V30 2277 O 300.021 -1.39011 8.63583 0
M  V30 2278 C 298.614 -0.273849 6.91158 0
M  V30 2279 O 299.413 -1.06348 6.02892 0
M  V30 2280 C 297.277 -0.897649 7.22545 0
M  V30 2281 H 297.309 -1.9841 7.04286 0
M  V30 2282 H 298.492 0.739928 6.497 0
M  V30 2283 H 299.976 0.60668 8.36503 0
M  V30 2284 H 298.282 -0.352479 10.1829 0
M  V30 2285 H 298.092 2.00611 10.0304 0
M  V30 2286 H 296.462 1.41843 9.55327 0
M  V30 2287 H 299.101 -1.95734 6.03555 0
M  V30 2288 P 300.958 -1.25109 8.70152 0
M  V30 2289 O 302.38 -1.35274 9.21221 0
M  V30 2290 O 300.598 -0.0769065 7.84762 0
M  V30 2291 O 300.635 -2.55232 7.81161 0
M  V30 2292 C 300.475 -3.79939 8.58154 0
M  V30 2293 C 301.015 -4.94023 7.72785 0
M  V30 2294 O 299.959 -5.18726 6.91205 0
M  V30 2295 C 302.233 -4.69597 6.85231 0
M  V30 2296 O 302.971 -5.83832 6.51337 0
M  V30 2297 C 301.564 -3.96706 5.66633 0
M  V30 2298 O 302.363 -4.15414 4.49689 0
M  V30 2299 C 300.227 -4.66153 5.59313 0
M  V30 2300 H 300.259 -5.47679 4.85214 0
M  V30 2301 H 301.442 -2.89008 5.86566 0
M  V30 2302 H 302.926 -4.0121 7.36511 0
M  V30 2303 H 301.232 -5.80182 8.37584 0
M  V30 2304 H 301.042 -3.73517 9.52265 0
M  V30 2305 H 299.412 -3.97163 8.80359 0
M  V30 2306 H 302.051 -4.90969 4.01921 0
M  V30 2307 P 303.909 -5.75688 6.64379 0
M  V30 2308 O 305.331 -6.11849 7.01846 0
M  V30 2309 O 303.549 -4.30744 6.56026 0
M  V30 2310 O 303.586 -6.37042 5.19165 0
M  V30 2311 C 303.426 -7.83578 5.16515 0
M  V30 2312 C 303.966 -8.33398 3.83019 0
M  V30 2313 O 302.91 -8.10074 3.01034 0
M  V30 2314 C 305.184 -7.65514 3.2257 0
M  V30 2315 O 305.922 -8.4329 2.32297 0
M  V30 2316 C 304.515 -6.40075 2.62207 0
M  V30 2317 O 305.314 -5.92589 1.53712 0
M  V30 2318 C 303.178 -6.9454 2.18503 0
M  V30 2319 H 303.21 -7.23063 1.12091 0
M  V30 2320 H 304.393 -5.6025 3.37201 0
M  V30 2321 H 305.877 -7.35707 4.02681 0
M  V30 2322 H 304.183 -9.40912 3.9095 0
M  V30 2323 H 303.993 -8.29056 5.99158 0
M  V30 2324 H 302.363 -8.10073 5.25882 0
M  V30 2325 H 305.002 -6.30324 0.726794 0
M  V30 2326 P 306.859 -8.4349 2.47671 0
M  V30 2327 O 308.281 -8.94167 2.5964 0
M  V30 2328 O 306.499 -7.1704 3.19006 0
M  V30 2329 O 306.536 -8.16596 0.923387 0
M  V30 2330 C 306.376 -9.38437 0.108857 0
M  V30 2331 C 306.916 -9.08175 -1.28353 0
M  V30 2332 O 305.86 -8.44229 -1.84713 0
M  V30 2333 C 308.134 -8.18386 -1.42505 0
M  V30 2334 O 308.872 -8.3501 -2.60497 0
M  V30 2335 C 307.465 -6.80225 -1.25468 0
M  V30 2336 O 308.264 -5.81621 -1.91066 0
M  V30 2337 C 306.128 -7.02416 -1.9168 0
M  V30 2338 H 306.16 -6.6888 -2.96621 0
M  V30 2339 H 307.343 -6.53617 -0.192223 0
M  V30 2340 H 308.827 -8.36622 -0.589963 0
M  V30 2341 H 307.133 -10.0291 -1.79807 0
M  V30 2342 H 306.943 -10.2138 0.558219 0
M  V30 2343 H 305.313 -9.6579 0.0444202 0
M  V30 2344 H 307.952 -5.69556 -2.79637 0
M  V30 2345 P 309.81 -8.4349 -2.47671 0
M  V30 2346 O 311.232 -8.92593 -2.65 0
M  V30 2347 O 309.45 -7.7568 -1.19296 0
M  V30 2348 O 309.487 -7.36886 -3.63805 0
M  V30 2349 C 309.327 -7.95349 -4.982 0
M  V30 2350 C 309.867 -6.94612 -5.98974 0
M  V30 2351 O 308.811 -6.10347 -6.11815 0
M  V30 2352 C 311.085 -6.11426 -5.62335 0
M  V30 2353 O 311.823 -5.6162 -6.70584 0
M  V30 2354 C 310.416 -5.04409 -4.73308 0
M  V30 2355 O 311.215 -3.85992 -4.75183 0
M  V30 2356 C 309.079 -4.8728 -5.41006 0
M  V30 2357 H 309.111 -4.02333 -6.11157 0
M  V30 2358 H 310.294 -5.39466 -3.69543 0
M  V30 2359 H 311.778 -6.71916 -5.01943 0
M  V30 2360 H 310.084 -7.4649 -6.93477 0
M  V30 2361 H 309.894 -8.89416 -5.05237 0
M  V30 2362 H 308.264 -8.14876 -5.18409 0
M  V30 2363 H 310.903 -3.27957 -5.4317 0
M  V30 2364 P 312.76 -5.75688 -6.64379 0
M  V30 2365 O 314.182 -6.07627 -7.05504 0
M  V30 2366 O 312.4 -5.88047 -5.19722 0
M  V30 2367 O 312.437 -4.2322 -7.04443 0
M  V30 2368 C 312.277 -3.99743 -8.4911 0
M  V30 2369 C 312.817 -2.60516 -8.79425 0
M  V30 2370 O 311.761 -1.82684 -8.4467 0
M  V30 2371 C 314.035 -2.10343 -8.03628 0
M  V30 2372 O 314.773 -1.09919 -8.67766 0
M  V30 2373 C 313.366 -1.68446 -6.70876 0
M  V30 2374 O 314.165 -0.678137 -6.08433 0
M  V30 2375 C 312.029 -1.17436 -7.18567 0
M  V30 2376 H 312.061 -0.0804732 -7.31656 0
M  V30 2377 H 313.244 -2.54037 -6.02537 0
M  V30 2378 H 314.728 -2.93881 -7.85526 0
M  V30 2379 H 313.034 -2.53065 -9.86973 0
M  V30 2380 H 312.844 -4.75072 -9.05887 0
M  V30 2381 H 311.214 -4.05244 -8.76668 0
M  V30 2382 H 313.853 0.177647 -6.34251 0
M  V30 2383 P 315.711 -1.25109 -8.70152 0
M  V30 2384 O 317.133 -1.29744 -9.22016 0
M  V30 2385 O 315.351 -2.13714 -7.55141 0
M  V30 2386 O 315.388 0.248149 -8.21425 0
M  V30 2387 C 315.228 1.22779 -9.30434 0
M  V30 2388 C 315.768 2.56293 -8.80664 0
M  V30 2389 O 314.712 3.02979 -8.09349 0
M  V30 2390 C 316.986 2.57523 -7.89775 0
M  V30 2391 O 317.724 3.7668 -7.89438 0
M  V30 2392 C 316.317 2.20997 -6.55446 0
M  V30 2393 O 317.116 2.71895 -5.48509 0
M  V30 2394 C 314.98 2.89693 -6.67988 0
M  V30 2395 H 315.012 3.88793 -6.19859 0
M  V30 2396 H 316.195 1.12046 -6.44229 0
M  V30 2397 H 317.679 1.7746 -8.19711 0
M  V30 2398 H 315.985 3.20706 -9.67112 0
M  V30 2399 H 315.795 0.901032 -10.1892 0
M  V30 2400 H 314.165 1.33049 -9.56592 0
M  V30 2401 H 316.804 3.57847 -5.23962 0
M  V30 2402 P 318.662 3.65191 -7.99657 0
M  V30 2403 O 320.084 3.89332 -8.45794 0
M  V30 2404 O 318.302 2.28472 -7.50807 0
M  V30 2405 O 318.339 4.64972 -6.77611 0
M  V30 2406 C 318.179 6.06319 -7.16352 0
M  V30 2407 C 318.719 6.91731 -6.02299 0
M  V30 2408 O 317.663 6.92449 -5.17064 0
M  V30 2409 C 319.937 6.43627 -5.25174 0
M  V30 2410 O 320.675 7.43686 -4.60469 0
M  V30 2411 C 319.268 5.40275 -4.31916 0
M  V30 2412 O 320.067 5.25279 -3.14438 0
M  V30 2413 C 317.931 6.04847 -4.05327 0
M  V30 2414 H 317.963 6.62195 -3.11261 0
M  V30 2415 H 319.146 4.42556 -4.81383 0
M  V30 2416 H 320.63 5.92458 -5.93643 0
M  V30 2417 H 318.936 7.92655 -6.402 0
M  V30 2418 H 318.746 6.26671 -8.0846 0
M  V30 2419 H 317.116 6.29101 -7.32804 0
M  V30 2420 H 319.755 5.84315 -2.47318 0
M  V30 2421 P 321.612 7.39546 -4.75277 0
M  V30 2422 O 323.034 7.84798 -5.01039 0
M  V30 2423 O 321.252 5.9812 -5.08098 0
M  V30 2424 O 321.289 7.57503 -3.1866 0
M  V30 2425 C 321.129 8.97357 -2.74833 0
M  V30 2426 C 321.669 9.07548 -1.32709 0
M  V30 2427 O 320.613 8.62072 -0.606159 0
M  V30 2428 C 322.887 8.25383 -0.938334 0
M  V30 2429 O 323.625 8.74577 0.146954 0
M  V30 2430 C 322.218 6.8802 -0.712559 0
M  V30 2431 O 323.017 6.1189 0.194655 0
M  V30 2432 C 320.881 7.27966 -0.139777 0
M  V30 2433 H 320.913 7.25354 0.961601 0
M  V30 2434 H 322.096 6.32557 -1.65702 0
M  V30 2435 H 323.58 8.19355 -1.79097 0
M  V30 2436 H 321.886 10.1294 -1.10029 0
M  V30 2437 H 321.696 9.64276 -3.41316 0
M  V30 2438 H 320.066 9.25417 -2.76357 0
M  V30 2439 H 322.705 6.25267 1.07847 0
M  V30 2440 P 324.563 8.791 1.35267e-12 0
M  V30 2441 O 325.985 9.31096 0.027933 0
M  V30 2442 O 324.203 7.77869 -1.04071 0
M  V30 2443 O 324.24 8.09533 1.41463 0
M  V30 2444 C 324.08 9.0349 2.53943 0
M  V30 2445 C 324.62 8.35226 3.79016 0
M  V30 2446 O 323.564 7.57992 4.15078 0
M  V30 2447 C 325.838 7.45087 3.67298 0
M  V30 2448 O 326.576 7.27796 4.85194 0
M  V30 2449 C 325.169 6.17323 3.12027 0
M  V30 2450 O 325.968 5.04231 3.47188 0
M  V30 2451 C 323.832 6.19961 3.81809 0
M  V30 2452 H 323.864 5.58218 4.73051 0
M  V30 2453 H 325.047 6.21726 2.02589 0
M  V30 2454 H 326.531 7.86112 2.9231 0
M  V30 2455 H 324.837 9.11627 4.55076 0
M  V30 2456 H 324.647 9.9573 2.34194 0
M  V30 2457 H 323.017 9.2792 2.67832 0
M  V30 2458 H 325.656 4.67702 4.28772 0
M  V30 2459 P 327.513 7.39546 4.75277 0
M  V30 2460 O 328.934 7.81861 5.05793 0
M  V30 2461 O 327.153 7.1065 3.32998 0
M  V30 2462 O 327.19 6.04542 5.56673 0
M  V30 2463 C 327.029 6.22839 7.02169 0
M  V30 2464 C 327.57 4.97725 7.70406 0
M  V30 2465 O 326.515 4.13208 7.58899 0
M  V30 2466 C 328.788 4.28231 7.11815 0
M  V30 2467 O 329.526 3.49945 8.01648 0
M  V30 2468 C 328.12 3.5063 5.96244 0
M  V30 2469 O 328.918 2.37008 5.64352 0
M  V30 2470 C 326.782 3.15122 6.56374 0
M  V30 2471 N 325.739 3.22311 5.55692 0
M  V30 2472 C 325.908 3.99655 4.46046 0
M  V30 2473 N 324.881 3.97599 3.63918 0
M  V30 2474 C 323.996 3.11159 4.25334 0
M  V30 2475 C 322.729 2.64972 3.85157 0
M  V30 2476 N 322.13 3.02132 2.69405 0
M  V30 2477 N 322.164 1.78482 4.74759 0
M  V30 2478 C 322.766 1.37463 5.90819 0
M  V30 2479 N 323.943 1.7733 6.31889 0
M  V30 2480 C 324.518 2.64393 5.43725 0
M  V30 2481 H 326.814 2.13823 6.99656 0
M  V30 2482 H 327.997 4.12931 5.06895 0
M  V30 2483 H 329.48 5.03285 6.70911 0
M  V30 2484 H 327.786 5.20001 8.76217 0
M  V30 2485 H 327.596 7.11046 7.35349 0
M  V30 2486 H 325.966 6.35815 7.26986 0
M  V30 2487 H 322.23 0.66574 6.53015 0
M  V30 2488 H 326.808 4.58037 4.27732 0
M  V30 2489 H 321.2 2.64828 2.45331 0
M  V30 2490 H 322.604 3.67472 2.05644 0
M  V30 2491 H 328.606 1.61619 6.13468 0
M  V30 2492 P 330.464 3.65191 7.99657 0
M  V30 2493 O 331.886 3.8425 8.48115 0
M  V30 2494 O 330.104 4.17805 6.64342 0
M  V30 2495 O 330.141 2.07613 7.95143 0
M  V30 2496 C 329.981 1.44328 9.27336 0
M  V30 2497 C 330.521 0.0220036 9.17197 0
M  V30 2498 O 329.465 -0.626867 8.61923 0
M  V30 2499 C 331.739 -0.24586 8.30336 0
M  V30 2500 O 332.477 -1.39011 8.63583 0
M  V30 2501 C 331.07 -0.273849 6.91158 0
M  V30 2502 O 331.869 -1.06348 6.02892 0
M  V30 2503 C 329.733 -0.897649 7.22545 0
M  V30 2504 H 329.765 -1.9841 7.04286 0
M  V30 2505 H 330.948 0.739928 6.497 0
M  V30 2506 H 332.432 0.60668 8.36503 0
M  V30 2507 H 330.738 -0.352479 10.1829 0
M  V30 2508 H 330.548 2.00611 10.0304 0
M  V30 2509 H 328.918 1.41843 9.55327 0
M  V30 2510 H 331.557 -1.95734 6.03555 0
M  V30 2511 P 333.414 -1.25109 8.70152 0
M  V30 2512 O 334.836 -1.35274 9.21221 0
M  V30 2513 O 333.054 -0.0769065 7.84762 0
M  V30 2514 O 333.091 -2.55232 7.81161 0
M  V30 2515 C 332.931 -3.79939 8.58154 0
M  V30 2516 C 333.471 -4.94023 7.72785 0
M  V30 2517 O 332.415 -5.18726 6.91205 0
M  V30 2518 C 334.689 -4.69597 6.85231 0
M  V30 2519 O 335.427 -5.83832 6.51337 0
M  V30 2520 C 334.02 -3.96706 5.66633 0
M  V30 2521 O 334.819 -4.15414 4.49689 0
M  V30 2522 C 332.683 -4.66153 5.59313 0
M  V30 2523 H 332.715 -5.47679 4.85214 0
M  V30 2524 H 333.898 -2.89008 5.86566 0
M  V30 2525 H 335.382 -4.0121 7.36511 0
M  V30 2526 H 333.688 -5.80182 8.37584 0
M  V30 2527 H 333.498 -3.73517 9.52265 0
M  V30 2528 H 331.868 -3.97163 8.80359 0
M  V30 2529 H 334.507 -4.90969 4.01921 0
M  V30 2530 P 336.365 -5.75688 6.64379 0
M  V30 2531 O 337.787 -6.11849 7.01846 0
M  V30 2532 O 336.005 -4.30744 6.56026 0
M  V30 2533 O 336.042 -6.37042 5.19165 0
M  V30 2534 C 335.882 -7.83578 5.16515 0
M  V30 2535 C 336.422 -8.33398 3.83019 0
M  V30 2536 O 335.366 -8.10074 3.01034 0
M  V30 2537 C 337.64 -7.65514 3.2257 0
M  V30 2538 O 338.378 -8.4329 2.32297 0
M  V30 2539 C 336.971 -6.40075 2.62207 0
M  V30 2540 O 337.77 -5.92589 1.53712 0
M  V30 2541 C 335.634 -6.9454 2.18503 0
M  V30 2542 H 335.666 -7.23063 1.12091 0
M  V30 2543 H 336.849 -5.6025 3.37201 0
M  V30 2544 H 338.333 -7.35707 4.02681 0
M  V30 2545 H 336.639 -9.40912 3.9095 0
M  V30 2546 H 336.449 -8.29056 5.99158 0
M  V30 2547 H 334.819 -8.10073 5.25882 0
M  V30 2548 H 337.458 -6.30324 0.726794 0
M  V30 2549 P 339.316 -8.4349 2.47671 0
M  V30 2550 O 340.738 -8.94167 2.5964 0
M  V30 2551 O 338.956 -7.1704 3.19006 0
M  V30 2552 O 338.993 -8.16596 0.923387 0
M  V30 2553 C 338.833 -9.38437 0.108857 0
M  V30 2554 C 339.373 -9.08175 -1.28353 0
M  V30 2555 O 338.317 -8.44229 -1.84713 0
M  V30 2556 C 340.591 -8.18386 -1.42505 0
M  V30 2557 O 341.329 -8.3501 -2.60497 0
M  V30 2558 C 339.922 -6.80225 -1.25468 0
M  V30 2559 O 340.721 -5.81621 -1.91066 0
M  V30 2560 C 338.585 -7.02416 -1.9168 0
M  V30 2561 H 338.617 -6.6888 -2.96621 0
M  V30 2562 H 339.8 -6.53617 -0.192223 0
M  V30 2563 H 341.284 -8.36622 -0.589963 0
M  V30 2564 H 339.59 -10.0291 -1.79807 0
M  V30 2565 H 339.4 -10.2138 0.558219 0
M  V30 2566 H 337.77 -9.6579 0.0444202 0
M  V30 2567 H 340.409 -5.69556 -2.79637 0
M  V30 2568 P 342.266 -8.4349 -2.47671 0
M  V30 2569 O 343.688 -8.92593 -2.65 0
M  V30 2570 O 341.906 -7.7568 -1.19296 0
M  V30 2571 O 341.943 -7.36886 -3.63805 0
M  V30 2572 C 341.783 -7.95349 -4.982 0
M  V30 2573 C 342.323 -6.94612 -5.98974 0
M  V30 2574 O 341.267 -6.10347 -6.11815 0
M  V30 2575 C 343.541 -6.11426 -5.62335 0
M  V30 2576 O 344.279 -5.6162 -6.70584 0
M  V30 2577 C 342.872 -5.04409 -4.73308 0
M  V30 2578 O 343.671 -3.85992 -4.75183 0
M  V30 2579 C 341.535 -4.8728 -5.41006 0
M  V30 2580 H 341.567 -4.02333 -6.11157 0
M  V30 2581 H 342.75 -5.39466 -3.69543 0
M  V30 2582 H 344.234 -6.71916 -5.01943 0
M  V30 2583 H 342.54 -7.4649 -6.93477 0
M  V30 2584 H 342.35 -8.89416 -5.05237 0
M  V30 2585 H 340.72 -8.14876 -5.18409 0
M  V30 2586 H 343.359 -3.27957 -5.4317 0
M  V30 2587 P 345.217 -5.75688 -6.64379 0
M  V30 2588 O 346.639 -6.07627 -7.05504 0
M  V30 2589 O 344.857 -5.88047 -5.19722 0
M  V30 2590 O 344.894 -4.2322 -7.04443 0
M  V30 2591 C 344.734 -3.99743 -8.4911 0
M  V30 2592 C 345.274 -2.60516 -8.79425 0
M  V30 2593 O 344.218 -1.82684 -8.4467 0
M  V30 2594 C 346.492 -2.10343 -8.03628 0
M  V30 2595 O 347.23 -1.09919 -8.67766 0
M  V30 2596 C 345.823 -1.68446 -6.70876 0
M  V30 2597 O 346.622 -0.678137 -6.08433 0
M  V30 2598 C 344.486 -1.17436 -7.18567 0
M  V30 2599 H 344.518 -0.0804732 -7.31656 0
M  V30 2600 H 345.701 -2.54037 -6.02537 0
M  V30 2601 H 347.185 -2.93881 -7.85526 0
M  V30 2602 H 345.491 -2.53065 -9.86973 0
M  V30 2603 H 345.301 -4.75072 -9.05887 0
M  V30 2604 H 343.671 -4.05244 -8.76668 0
M  V30 2605 H 346.31 0.177647 -6.34251 0
M  V30 2606 P 348.167 -1.25109 -8.70152 0
M  V30 2607 O 349.589 -1.29744 -9.22016 0
M  V30 2608 O 347.807 -2.13714 -7.55141 0
M  V30 2609 O 347.844 0.248149 -8.21425 0
M  V30 2610 C 347.684 1.22779 -9.30434 0
M  V30 2611 C 348.224 2.56293 -8.80664 0
M  V30 2612 O 347.168 3.02979 -8.09349 0
M  V30 2613 C 349.442 2.57523 -7.89775 0
M  V30 2614 O 350.18 3.7668 -7.89438 0
M  V30 2615 C 348.773 2.20997 -6.55446 0
M  V30 2616 O 349.572 2.71895 -5.48509 0
M  V30 2617 C 347.436 2.89693 -6.67988 0
M  V30 2618 H 347.468 3.88793 -6.19859 0
M  V30 2619 H 348.651 1.12046 -6.44229 0
M  V30 2620 H 350.135 1.7746 -8.19711 0
M  V30 2621 H 348.441 3.20706 -9.67112 0
M  V30 2622 H 348.251 0.901032 -10.1892 0
M  V30 2623 H 346.621 1.33049 -9.56592 0
M  V30 2624 H 349.26 3.57847 -5.23962 0
M  V30 2625 P 351.118 3.65191 -7.99657 0
M  V30 2626 O 352.54 3.89332 -8.45794 0
M  V30 2627 O 350.758 2.28472 -7.50807 0
M  V30 2628 O 350.795 4.64972 -6.77611 0
M  V30 2629 C 350.635 6.06319 -7.16352 0
M  V30 2630 C 351.175 6.91731 -6.02299 0
M  V30 2631 O 350.119 6.92449 -5.17064 0
M  V30 2632 C 352.393 6.43627 -5.25174 0
M  V30 2633 O 353.131 7.43686 -4.60469 0
M  V30 2634 C 351.724 5.40275 -4.31916 0
M  V30 2635 O 352.523 5.25279 -3.14438 0
M  V30 2636 C 350.387 6.04847 -4.05327 0
M  V30 2637 H 350.419 6.62195 -3.11261 0
M  V30 2638 H 351.602 4.42556 -4.81383 0
M  V30 2639 H 353.086 5.92458 -5.93643 0
M  V30 2640 H 351.392 7.92655 -6.402 0
M  V30 2641 H 351.202 6.26671 -8.0846 0
M  V30 2642 H 349.572 6.29101 -7.32804 0
M  V30 2643 H 352.211 5.84315 -2.47318 0
M  V30 2644 P 354.068 7.39546 -4.75277 0
M  V30 2645 O 355.49 7.84798 -5.01039 0
M  V30 2646 O 353.708 5.9812 -5.08098 0
M  V30 2647 O 353.745 7.57503 -3.1866 0
M  V30 2648 C 353.585 8.97357 -2.74833 0
M  V30 2649 C 354.125 9.07548 -1.32709 0
M  V30 2650 O 353.069 8.62072 -0.606159 0
M  V30 2651 C 355.343 8.25383 -0.938334 0
M  V30 2652 O 356.081 8.74577 0.146954 0
M  V30 2653 C 354.674 6.8802 -0.712559 0
M  V30 2654 O 355.473 6.1189 0.194655 0
M  V30 2655 C 353.337 7.27966 -0.139777 0
M  V30 2656 H 353.369 7.25354 0.961601 0
M  V30 2657 H 354.552 6.32557 -1.65702 0
M  V30 2658 H 356.036 8.19355 -1.79097 0
M  V30 2659 H 354.342 10.1294 -1.10029 0
M  V30 2660 H 354.152 9.64276 -3.41316 0
M  V30 2661 H 352.522 9.25417 -2.76357 0
M  V30 2662 H 355.161 6.25267 1.07847 0
M  V30 2663 P 357.019 8.791 1.66284e-12 0
M  V30 2664 O 358.441 9.31296 0.027939 0
M  V30 2665 O 356.659 7.77869 -1.04071 0
M  V30 2666 O 356.696 8.09533 1.41463 0
M  V30 2667 C 356.536 9.0349 2.53943 0
M  V30 2668 C 357.076 8.35135 3.78975 0
M  V30 2669 O 356.021 7.57992 4.15078 0
M  V30 2670 C 358.294 7.45087 3.67298 0
M  V30 2671 O 359.032 7.27796 4.85194 0
M  V30 2672 C 357.626 6.17323 3.12027 0
M  V30 2673 O 358.424 5.04149 3.47132 0
M  V30 2674 C 356.288 6.19961 3.81809 0
M  V30 2675 N 355.245 5.71575 2.93223 0
M  V30 2676 C 355.307 5.97133 1.62693 0
M  V30 2677 N 354.262 5.44066 0.984414 0
M  V30 2678 C 353.528 4.87093 1.93987 0
M  V30 2679 C 352.222 4.26449 1.8738 0
M  V30 2680 O 351.489 4.1089 0.884377 0
M  V30 2681 N 351.792 3.82483 3.08036 0
M  V30 2682 C 352.541 3.95124 4.27727 0
M  V30 2683 N 351.944 3.4084 5.39089 0
M  V30 2684 N 353.694 4.55264 4.3706 0
M  V30 2685 C 354.151 5.00861 3.18217 0
M  V30 2686 H 356.32 5.58218 4.73051 0
M  V30 2687 H 357.503 6.21631 2.02558 0
M  V30 2688 H 358.988 7.85819 2.93096 0
M  V30 2689 H 357.293 9.11627 4.55076 0
M  V30 2690 H 357.103 9.9573 2.34194 0
M  V30 2691 H 355.472 9.2792 2.67832 0
M  V30 2692 H 350.896 3.38323 3.1329 0
M  V30 2693 H 356.103 6.53891 1.14265 0
M  V30 2694 H 351.033 2.93852 5.30559 0
M  V30 2695 H 352.409 3.47631 6.30632 0
M  V30 2696 H 358.113 4.67628 4.28704 0
M  V30 2697 P 359.97 7.39546 4.75277 0
M  V30 2698 O 361.392 7.81777 5.05738 0
M  V30 2699 O 359.61 7.1065 3.32998 0
M  V30 2700 O 359.647 6.04542 5.56673 0
M  V30 2701 C 359.487 6.22772 7.02095 0
M  V30 2702 C 360.027 4.97725 7.70406 0
M  V30 2703 O 358.971 4.13256 7.58987 0
M  V30 2704 C 361.245 4.28231 7.11815 0
M  V30 2705 O 361.983 3.49945 8.01648 0
M  V30 2706 C 360.576 3.5063 5.96244 0
M  V30 2707 O 361.375 2.36482 5.64681 0
M  V30 2708 C 359.239 3.15122 6.56374 0
M  V30 2709 H 359.271 2.13853 6.99751 0
M  V30 2710 H 360.454 4.13501 5.06559 0
M  V30 2711 H 361.938 5.03285 6.70911 0
M  V30 2712 H 360.244 5.20877 8.75697 0
M  V30 2713 H 360.054 7.11046 7.35349 0
M  V30 2714 H 358.424 6.35815 7.26986 0
M  V30 2715 H 361.063 1.61644 6.13565 0
M  V30 2716 P 362.92 3.65191 7.99657 0
M  V30 2717 O 364.342 3.8425 8.48115 0
M  V30 2718 O 362.56 4.17805 6.64342 0
M  V30 2719 O 362.597 2.07613 7.95143 0
M  V30 2720 C 362.437 1.44328 9.27336 0
M  V30 2721 C 362.977 0.0220036 9.17197 0
M  V30 2722 O 361.921 -0.626867 8.61923 0
M  V30 2723 C 364.195 -0.24586 8.30336 0
M  V30 2724 O 364.933 -1.39011 8.63583 0
M  V30 2725 C 363.526 -0.273849 6.91158 0
M  V30 2726 O 364.325 -1.06348 6.02892 0
M  V30 2727 C 362.189 -0.897649 7.22545 0
M  V30 2728 H 362.221 -1.9841 7.04286 0
M  V30 2729 H 363.404 0.739928 6.497 0
M  V30 2730 H 364.888 0.60668 8.36503 0
M  V30 2731 H 363.194 -0.352479 10.1829 0
M  V30 2732 H 363.004 2.00611 10.0304 0
M  V30 2733 H 361.374 1.41843 9.55327 0
M  V30 2734 H 364.013 -1.95734 6.03555 0
M  V30 2735 P 365.871 -1.25109 8.70152 0
M  V30 2736 O 367.293 -1.35274 9.21221 0
M  V30 2737 O 365.511 -0.0769065 7.84762 0
M  V30 2738 O 365.548 -2.55232 7.81161 0
M  V30 2739 C 365.388 -3.79939 8.58154 0
M  V30 2740 C 365.928 -4.94023 7.72785 0
M  V30 2741 O 364.872 -5.18726 6.91205 0
M  V30 2742 C 367.146 -4.69597 6.85231 0
M  V30 2743 O 367.884 -5.83832 6.51337 0
M  V30 2744 C 366.477 -3.96706 5.66633 0
M  V30 2745 O 367.276 -4.15414 4.49689 0
M  V30 2746 C 365.14 -4.66153 5.59313 0
M  V30 2747 H 365.172 -5.47679 4.85214 0
M  V30 2748 H 366.355 -2.89008 5.86566 0
M  V30 2749 H 367.839 -4.0121 7.36511 0
M  V30 2750 H 366.145 -5.80182 8.37584 0
M  V30 2751 H 365.955 -3.73517 9.52265 0
M  V30 2752 H 364.325 -3.97163 8.80359 0
M  V30 2753 H 366.964 -4.90969 4.01921 0
M  V30 2754 P 368.821 -5.75688 6.64379 0
M  V30 2755 O 370.243 -6.11849 7.01846 0
M  V30 2756 O 368.461 -4.30744 6.56026 0
M  V30 2757 O 368.498 -6.37042 5.19165 0
M  V30 2758 C 368.338 -7.83578 5.16515 0
M  V30 2759 C 368.878 -8.33398 3.83019 0
M  V30 2760 O 367.822 -8.10074 3.01034 0
M  V30 2761 C 370.096 -7.65514 3.2257 0
M  V30 2762 O 370.834 -8.4329 2.32297 0
M  V30 2763 C 369.427 -6.40075 2.62207 0
M  V30 2764 O 370.226 -5.92589 1.53712 0
M  V30 2765 C 368.09 -6.9454 2.18503 0
M  V30 2766 H 368.122 -7.23063 1.12091 0
M  V30 2767 H 369.305 -5.6025 3.37201 0
M  V30 2768 H 370.789 -7.35707 4.02681 0
M  V30 2769 H 369.095 -9.40912 3.9095 0
M  V30 2770 H 368.905 -8.29056 5.99158 0
M  V30 2771 H 367.275 -8.10073 5.25882 0
M  V30 2772 H 369.914 -6.30324 0.726794 0
M  V30 2773 P 371.772 -8.4349 2.47671 0
M  V30 2774 O 373.194 -8.94167 2.5964 0
M  V30 2775 O 371.412 -7.1704 3.19006 0
M  V30 2776 O 371.449 -8.16596 0.923387 0
M  V30 2777 C 371.289 -9.38437 0.108857 0
M  V30 2778 C 371.829 -9.08175 -1.28353 0
M  V30 2779 O 370.773 -8.44229 -1.84713 0
M  V30 2780 C 373.047 -8.18386 -1.42505 0
M  V30 2781 O 373.785 -8.3501 -2.60497 0
M  V30 2782 C 372.378 -6.80225 -1.25468 0
M  V30 2783 O 373.177 -5.81621 -1.91066 0
M  V30 2784 C 371.041 -7.02416 -1.9168 0
M  V30 2785 H 371.073 -6.6888 -2.96621 0
M  V30 2786 H 372.256 -6.53617 -0.192223 0
M  V30 2787 H 373.74 -8.36622 -0.589963 0
M  V30 2788 H 372.046 -10.0291 -1.79807 0
M  V30 2789 H 371.856 -10.2138 0.558219 0
M  V30 2790 H 370.226 -9.6579 0.0444202 0
M  V30 2791 H 372.865 -5.69556 -2.79637 0
M  V30 2792 P 374.722 -8.4349 -2.47671 0
M  V30 2793 O 376.123 -8.99283 -2.62101 0
M  V30 2794 O 374.344 -7.81195 -1.16947 0
M  V30 2795 O 374.399 -7.36797 -3.63761 0
M  V30 2796 C 374.239 -7.95349 -4.982 0
M  V30 2797 C 374.779 -6.94537 -5.98908 0
M  V30 2798 O 373.723 -6.10277 -6.11744 0
M  V30 2799 C 375.996 -6.11426 -5.62335 0
M  V30 2800 O 376.735 -5.6162 -6.70584 0
M  V30 2801 C 375.329 -5.04409 -4.73308 0
M  V30 2802 O 376.127 -3.85929 -4.75106 0
M  V30 2803 C 373.991 -4.8728 -5.41006 0
M  V30 2804 N 372.948 -4.65812 -4.42377 0
M  V30 2805 C 371.913 -3.81293 -4.74224 0
M  V30 2806 O 371.952 -3.20533 -5.83679 0
M  V30 2807 N 370.901 -3.6442 -3.86349 0
M  V30 2808 C 370.949 -4.2728 -2.6824 0
M  V30 2809 C 372.045 -5.10813 -2.3217 0
M  V30 2810 C 373.011 -5.27909 -3.22647 0
M  V30 2811 H 374.023 -4.02278 -6.11074 0
M  V30 2812 H 375.206 -5.39013 -3.70026 0
M  V30 2813 H 376.69 -6.71494 -5.02675 0
M  V30 2814 H 374.996 -7.45796 -6.94223 0
M  V30 2815 H 374.805 -8.89416 -5.05237 0
M  V30 2816 H 373.175 -8.14791 -5.18355 0
M  V30 2817 H 372.093 -5.58884 -1.34755 0
M  V30 2818 H 373.857 -5.92811 -2.9934 0
M  V30 2819 H 375.911 -3.3454 -5.51577 0
M  V30 2820 P 377.673 -5.75688 -6.64379 0
M  V30 2821 O 379.095 -6.07627 -7.05504 0
M  V30 2822 O 377.313 -5.88047 -5.19722 0
M  V30 2823 O 377.35 -4.2322 -7.04443 0
M  V30 2824 C 377.19 -3.99743 -8.4911 0
M  V30 2825 C 377.73 -2.60516 -8.79425 0
M  V30 2826 O 376.674 -1.82684 -8.4467 0
M  V30 2827 C 378.948 -2.10343 -8.03628 0
M  V30 2828 O 379.686 -1.09919 -8.67766 0
M  V30 2829 C 378.279 -1.68446 -6.70876 0
M  V30 2830 O 379.078 -0.678137 -6.08433 0
M  V30 2831 C 376.942 -1.17436 -7.18567 0
M  V30 2832 H 376.974 -0.0804732 -7.31656 0
M  V30 2833 H 378.157 -2.54037 -6.02537 0
M  V30 2834 H 379.641 -2.93881 -7.85526 0
M  V30 2835 H 377.947 -2.53065 -9.86973 0
M  V30 2836 H 377.757 -4.75072 -9.05887 0
M  V30 2837 H 376.127 -4.05244 -8.76668 0
M  V30 2838 H 378.766 0.177647 -6.34251 0
M  V30 2839 P 380.624 -1.25109 -8.70152 0
M  V30 2840 O 382.046 -1.29744 -9.22016 0
M  V30 2841 O 380.264 -2.13714 -7.55141 0
M  V30 2842 O 380.301 0.248149 -8.21425 0
M  V30 2843 C 380.141 1.22779 -9.30434 0
M  V30 2844 C 380.681 2.56293 -8.80664 0
M  V30 2845 O 379.625 3.02979 -8.09349 0
M  V30 2846 C 381.899 2.57523 -7.89775 0
M  V30 2847 O 382.637 3.7668 -7.89438 0
M  V30 2848 C 381.23 2.20997 -6.55446 0
M  V30 2849 O 382.029 2.71895 -5.48509 0
M  V30 2850 C 379.893 2.89693 -6.67988 0
M  V30 2851 H 379.925 3.88793 -6.19859 0
M  V30 2852 H 381.108 1.12046 -6.44229 0
M  V30 2853 H 382.592 1.7746 -8.19711 0
M  V30 2854 H 380.898 3.20706 -9.67112 0
M  V30 2855 H 380.708 0.901032 -10.1892 0
M  V30 2856 H 379.078 1.33049 -9.56592 0
M  V30 2857 H 381.717 3.57847 -5.23962 0
M  V30 2858 P 383.574 3.65191 -7.99657 0
M  V30 2859 O 384.996 3.89332 -8.45794 0
M  V30 2860 O 383.214 2.28472 -7.50807 0
M  V30 2861 O 383.251 4.64972 -6.77611 0
M  V30 2862 C 383.091 6.06319 -7.16352 0
M  V30 2863 C 383.631 6.91731 -6.02299 0
M  V30 2864 O 382.575 6.92449 -5.17064 0
M  V30 2865 C 384.849 6.43627 -5.25174 0
M  V30 2866 O 385.587 7.43686 -4.60469 0
M  V30 2867 C 384.18 5.40275 -4.31916 0
M  V30 2868 O 384.979 5.25279 -3.14438 0
M  V30 2869 C 382.843 6.04847 -4.05327 0
M  V30 2870 H 382.875 6.62195 -3.11261 0
M  V30 2871 H 384.058 4.42556 -4.81383 0
M  V30 2872 H 385.542 5.92458 -5.93643 0
M  V30 2873 H 383.848 7.92655 -6.402 0
M  V30 2874 H 383.658 6.26671 -8.0846 0
M  V30 2875 H 382.028 6.29101 -7.32804 0
M  V30 2876 H 384.667 5.84315 -2.47318 0
M  V30 2877 P 386.525 7.39546 -4.75277 0
M  V30 2878 O 387.946 7.84882 -5.01092 0
M  V30 2879 O 386.165 5.9812 -5.08098 0
M  V30 2880 O 386.202 7.57503 -3.1866 0
M  V30 2881 C 386.041 8.97452 -2.74862 0
M  V30 2882 C 386.582 9.07548 -1.32709 0
M  V30 2883 O 385.527 8.61972 -0.606089 0
M  V30 2884 C 387.8 8.25383 -0.938334 0
M  V30 2885 O 388.538 8.74577 0.146954 0
M  V30 2886 C 387.132 6.8802 -0.712559 0
M  V30 2887 O 387.93 6.1181 0.188505 0
M  V30 2888 C 385.794 7.27966 -0.139777 0
M  V30 2889 N 384.751 6.39368 -0.623421 0
M  V30 2890 C 384.92 5.71761 -1.78245 0
M  V30 2891 N 383.893 4.962 -2.10491 0
M  V30 2892 C 383.008 5.16158 -1.0635 0
M  V30 2893 C 381.741 4.60425 -0.810266 0
M  V30 2894 N 381.176 5.06 0.348685 0
M  V30 2895 C 381.778 5.94532 1.20395 0
M  V30 2896 N 382.955 6.48452 1.01191 0
M  V30 2897 C 383.53 6.04423 -0.146291 0
M  V30 2898 H 387.009 6.32625 -1.65044 0
M  V30 2899 H 388.492 8.19355 -1.79097 0
M  V30 2900 H 386.798 10.1305 -1.09016 0
M  V30 2901 H 386.608 9.64276 -3.41316 0
M  V30 2902 H 384.978 9.25417 -2.76357 0
M  V30 2903 H 385.82 5.79354 -2.38959 0
M  V30 2904 H 387.618 6.25169 1.0783 0
M  V30 2905 P 389.475 8.791 1.973e-12 0
M  V30 2906 O 390.897 9.31096 0.027933 0
M  V30 2907 O 389.115 7.77869 -1.04071 0
M  V30 2908 O 389.152 8.09533 1.41463 0
M  V30 2909 C 388.992 9.0349 2.53943 0
M  V30 2910 C 389.532 8.35226 3.79016 0
M  V30 2911 O 388.476 7.57992 4.15078 0
M  V30 2912 C 390.75 7.45087 3.67298 0
M  V30 2913 O 391.488 7.27796 4.85194 0
M  V30 2914 C 390.081 6.17323 3.12027 0
M  V30 2915 O 390.88 5.04231 3.47188 0
M  V30 2916 C 388.744 6.19961 3.81809 0
M  V30 2917 H 388.776 5.58218 4.73051 0
M  V30 2918 H 389.959 6.21726 2.02589 0
M  V30 2919 H 391.443 7.86112 2.9231 0
M  V30 2920 H 389.749 9.11627 4.55076 0
M  V30 2921 H 389.559 9.9573 2.34194 0
M  V30 2922 H 387.929 9.2792 2.67832 0
M  V30 2923 H 390.568 4.67702 4.28772 0
M  V30 2924 P 392.426 7.39546 4.75277 0
M  V30 2925 O 393.848 7.81777 5.05738 0
M  V30 2926 O 392.066 7.1065 3.32998 0
M  V30 2927 O 392.103 6.04542 5.56673 0
M  V30 2928 C 391.943 6.22772 7.02095 0
M  V30 2929 C 392.483 4.97725 7.70406 0
M  V30 2930 O 391.427 4.13256 7.58987 0
M  V30 2931 C 393.701 4.28231 7.11815 0
M  V30 2932 O 394.439 3.49945 8.01648 0
M  V30 2933 C 393.032 3.5063 5.96244 0
M  V30 2934 O 393.831 2.36482 5.64681 0
M  V30 2935 C 391.695 3.15122 6.56374 0
M  V30 2936 H 391.727 2.13853 6.99751 0
M  V30 2937 H 392.91 4.13501 5.06559 0
M  V30 2938 H 394.394 5.03285 6.70911 0
M  V30 2939 H 392.7 5.20877 8.75697 0
M  V30 2940 H 392.51 7.11046 7.35349 0
M  V30 2941 H 390.88 6.35815 7.26986 0
M  V30 2942 H 393.519 1.61644 6.13565 0
M  V30 2943 P 395.376 3.65191 7.99657 0
M  V30 2944 O 396.798 3.8425 8.48115 0
M  V30 2945 O 395.016 4.17805 6.64342 0
M  V30 2946 O 395.053 2.07613 7.95143 0
M  V30 2947 C 394.893 1.44328 9.27336 0
M  V30 2948 C 395.433 0.0220036 9.17197 0
M  V30 2949 O 394.377 -0.626867 8.61923 0
M  V30 2950 C 396.651 -0.24586 8.30336 0
M  V30 2951 O 397.389 -1.39011 8.63583 0
M  V30 2952 C 395.982 -0.273849 6.91158 0
M  V30 2953 O 396.781 -1.06348 6.02892 0
M  V30 2954 C 394.645 -0.897649 7.22545 0
M  V30 2955 H 394.677 -1.9841 7.04286 0
M  V30 2956 H 395.86 0.739928 6.497 0
M  V30 2957 H 397.344 0.60668 8.36503 0
M  V30 2958 H 395.65 -0.352479 10.1829 0
M  V30 2959 H 395.46 2.00611 10.0304 0
M  V30 2960 H 393.83 1.41843 9.55327 0
M  V30 2961 H 396.469 -1.95734 6.03555 0
M  V30 2962 P 398.327 -1.25109 8.70152 0
M  V30 2963 O 399.749 -1.35274 9.21221 0
M  V30 2964 O 397.967 -0.0769065 7.84762 0
M  V30 2965 O 398.004 -2.55232 7.81161 0
M  V30 2966 C 397.844 -3.79939 8.58154 0
M  V30 2967 C 398.384 -4.94023 7.72785 0
M  V30 2968 O 397.328 -5.18726 6.91205 0
M  V30 2969 C 399.602 -4.69597 6.85231 0
M  V30 2970 O 400.34 -5.83832 6.51337 0
M  V30 2971 C 398.933 -3.96706 5.66633 0
M  V30 2972 O 399.732 -4.15414 4.49689 0
M  V30 2973 C 397.596 -4.66153 5.59313 0
M  V30 2974 H 397.628 -5.47679 4.85214 0
M  V30 2975 H 398.811 -2.89008 5.86566 0
M  V30 2976 H 400.295 -4.0121 7.36511 0
M  V30 2977 H 398.601 -5.80182 8.37584 0
M  V30 2978 H 398.411 -3.73517 9.52265 0
M  V30 2979 H 396.781 -3.97163 8.80359 0
M  V30 2980 H 399.42 -4.90969 4.01921 0
M  V30 2981 P 401.278 -5.75688 6.64379 0
M  V30 2982 O 402.7 -6.11849 7.01846 0
M  V30 2983 O 400.918 -4.30744 6.56026 0
M  V30 2984 O 400.955 -6.37042 5.19165 0
M  V30 2985 C 400.795 -7.83578 5.16515 0
M  V30 2986 C 401.335 -8.33398 3.83019 0
M  V30 2987 O 400.279 -8.10074 3.01034 0
M  V30 2988 C 402.553 -7.65514 3.2257 0
M  V30 2989 O 403.291 -8.4329 2.32297 0
M  V30 2990 C 401.884 -6.40075 2.62207 0
M  V30 2991 O 402.683 -5.92589 1.53712 0
M  V30 2992 C 400.547 -6.9454 2.18503 0
M  V30 2993 H 400.579 -7.23063 1.12091 0
M  V30 2994 H 401.762 -5.6025 3.37201 0
M  V30 2995 H 403.246 -7.35707 4.02681 0
M  V30 2996 H 401.552 -9.40912 3.9095 0
M  V30 2997 H 401.362 -8.29056 5.99158 0
M  V30 2998 H 399.732 -8.10073 5.25882 0
M  V30 2999 H 402.371 -6.30324 0.726794 0
M  V30 3000 P 404.228 -8.4349 2.47671 0
M  V30 3001 O 405.65 -8.94167 2.5964 0
M  V30 3002 O 403.868 -7.1704 3.19006 0
M  V30 3003 O 403.905 -8.16596 0.923387 0
M  V30 3004 C 403.745 -9.38437 0.108857 0
M  V30 3005 C 404.285 -9.08175 -1.28353 0
M  V30 3006 O 403.229 -8.44229 -1.84713 0
M  V30 3007 C 405.503 -8.18386 -1.42505 0
M  V30 3008 O 406.241 -8.3501 -2.60497 0
M  V30 3009 C 404.834 -6.80225 -1.25468 0
M  V30 3010 O 405.633 -5.81621 -1.91066 0
M  V30 3011 C 403.497 -7.02416 -1.9168 0
M  V30 3012 H 403.529 -6.6888 -2.96621 0
M  V30 3013 H 404.712 -6.53617 -0.192223 0
M  V30 3014 H 406.196 -8.36622 -0.589963 0
M  V30 3015 H 404.502 -10.0291 -1.79807 0
M  V30 3016 H 404.312 -10.2138 0.558219 0
M  V30 3017 H 402.682 -9.6579 0.0444202 0
M  V30 3018 H 405.321 -5.69556 -2.79637 0
M  V30 3019 P 407.179 -8.4349 -2.47671 0
M  V30 3020 O 408.601 -8.92593 -2.65 0
M  V30 3021 O 406.819 -7.7568 -1.19296 0
M  V30 3022 O 406.856 -7.36886 -3.63805 0
M  V30 3023 C 406.696 -7.95349 -4.982 0
M  V30 3024 C 407.236 -6.94612 -5.98974 0
M  V30 3025 O 406.18 -6.10347 -6.11815 0
M  V30 3026 C 408.454 -6.11426 -5.62335 0
M  V30 3027 O 409.192 -5.6162 -6.70584 0
M  V30 3028 C 407.785 -5.04409 -4.73308 0
M  V30 3029 O 408.584 -3.85992 -4.75183 0
M  V30 3030 C 406.448 -4.8728 -5.41006 0
M  V30 3031 H 406.48 -4.02333 -6.11157 0
M  V30 3032 H 407.663 -5.39466 -3.69543 0
M  V30 3033 H 409.147 -6.71916 -5.01943 0
M  V30 3034 H 407.453 -7.4649 -6.93477 0
M  V30 3035 H 407.263 -8.89416 -5.05237 0
M  V30 3036 H 405.633 -8.14876 -5.18409 0
M  V30 3037 H 408.272 -3.27957 -5.4317 0
M  V30 3038 P 410.129 -5.75688 -6.64379 0
M  V30 3039 O 411.551 -6.07627 -7.05504 0
M  V30 3040 O 409.769 -5.88047 -5.19722 0
M  V30 3041 O 409.806 -4.2322 -7.04443 0
M  V30 3042 C 409.646 -3.99743 -8.4911 0
M  V30 3043 C 410.186 -2.60516 -8.79425 0
M  V30 3044 O 409.13 -1.82684 -8.4467 0
M  V30 3045 C 411.404 -2.10343 -8.03628 0
M  V30 3046 O 412.142 -1.09919 -8.67766 0
M  V30 3047 C 410.735 -1.68446 -6.70876 0
M  V30 3048 O 411.534 -0.678137 -6.08433 0
M  V30 3049 C 409.398 -1.17436 -7.18567 0
M  V30 3050 H 409.43 -0.0804732 -7.31656 0
M  V30 3051 H 410.613 -2.54037 -6.02537 0
M  V30 3052 H 412.097 -2.93881 -7.85526 0
M  V30 3053 H 410.403 -2.53065 -9.86973 0
M  V30 3054 H 410.213 -4.75072 -9.05887 0
M  V30 3055 H 408.583 -4.05244 -8.76668 0
M  V30 3056 H 411.222 0.177647 -6.34251 0
M  V30 3057 P 413.08 -1.25109 -8.70152 0
M  V30 3058 O 414.501 -1.29758 -9.22115 0
M  V30 3059 O 412.72 -2.13714 -7.55141 0
M  V30 3060 O 412.757 0.248149 -8.21425 0
M  V30 3061 C 412.596 1.22792 -9.30533 0
M  V30 3062 C 413.137 2.56293 -8.80664 0
M  V30 3063 O 412.082 3.02944 -8.09255 0
M  V30 3064 C 414.355 2.57523 -7.89775 0
M  V30 3065 O 415.093 3.7668 -7.89438 0
M  V30 3066 C 413.687 2.20997 -6.55446 0
M  V30 3067 O 414.485 2.71302 -5.48691 0
M  V30 3068 C 412.349 2.89693 -6.67988 0
M  V30 3069 N 411.306 2.08895 -6.07487 0
M  V30 3070 C 411.475 0.753809 -5.94137 0
M  V30 3071 N 410.448 0.146592 -5.38801 0
M  V30 3072 C 409.563 1.1768 -5.13693 0
M  V30 3073 C 408.296 1.17563 -4.52477 0
M  V30 3074 N 407.731 2.41918 -4.45789 0
M  V30 3075 C 408.333 3.56493 -4.90792 0
M  V30 3076 N 409.51 3.61423 -5.47817 0
M  V30 3077 C 410.085 2.37779 -5.5588 0
M  V30 3078 H 413.564 1.12673 -6.44018 0
M  V30 3079 H 415.047 1.7746 -8.19711 0
M  V30 3080 H 413.353 3.21673 -9.66791 0
M  V30 3081 H 413.163 0.901032 -10.1892 0
M  V30 3082 H 411.533 1.33049 -9.56592 0
M  V30 3083 H 412.375 0.233081 -6.26266 0
M  V30 3084 H 414.173 3.5779 -5.23879 0
M  V30 3085 P 416.03 3.65191 -7.99657 0
M  V30 3086 O 417.452 3.89332 -8.45794 0
M  V30 3087 O 415.67 2.28472 -7.50807 0
M  V30 3088 O 415.707 4.64972 -6.77611 0
M  V30 3089 C 415.547 6.06319 -7.16352 0
M  V30 3090 C 416.087 6.91731 -6.02299 0
M  V30 3091 O 415.031 6.92449 -5.17064 0
M  V30 3092 C 417.305 6.43627 -5.25174 0
M  V30 3093 O 418.043 7.43686 -4.60469 0
M  V30 3094 C 416.636 5.40275 -4.31916 0
M  V30 3095 O 417.435 5.25279 -3.14438 0
M  V30 3096 C 415.299 6.04847 -4.05327 0
M  V30 3097 H 415.331 6.62195 -3.11261 0
M  V30 3098 H 416.514 4.42556 -4.81383 0
M  V30 3099 H 417.998 5.92458 -5.93643 0
M  V30 3100 H 416.304 7.92655 -6.402 0
M  V30 3101 H 416.114 6.26671 -8.0846 0
M  V30 3102 H 414.484 6.29101 -7.32804 0
M  V30 3103 H 417.123 5.84315 -2.47318 0
M  V30 3104 P 418.981 7.39546 -4.75277 0
M  V30 3105 O 420.403 7.84966 -5.01146 0
M  V30 3106 O 418.621 5.9812 -5.08098 0
M  V30 3107 O 418.658 7.57503 -3.1866 0
M  V30 3108 C 418.498 8.97357 -2.74833 0
M  V30 3109 C 419.038 9.0745 -1.32694 0
M  V30 3110 O 417.983 8.62072 -0.606159 0
M  V30 3111 C 420.256 8.25383 -0.938334 0
M  V30 3112 O 420.994 8.74577 0.146954 0
M  V30 3113 C 419.588 6.8802 -0.712559 0
M  V30 3114 O 420.386 6.11791 0.194623 0
M  V30 3115 C 418.25 7.27966 -0.139777 0
M  V30 3116 N 417.207 6.39368 -0.623421 0
M  V30 3117 C 417.269 5.90299 -1.85969 0
M  V30 3118 N 416.224 5.10919 -2.1133 0
M  V30 3119 C 415.49 5.14646 -1.0015 0
M  V30 3120 C 414.184 4.60057 -0.729219 0
M  V30 3121 O 413.451 3.93476 -1.47746 0
M  V30 3122 N 413.754 4.88302 0.523505 0
M  V30 3123 C 414.503 5.63646 1.46207 0
M  V30 3124 N 413.906 5.78186 2.69239 0
M  V30 3125 N 415.656 6.19285 1.21544 0
M  V30 3126 C 416.113 5.93392 -0.0308487 0
M  V30 3127 H 418.282 7.25354 0.961601 0
M  V30 3128 H 419.465 6.3246 -1.65676 0
M  V30 3129 H 420.95 8.19533 -1.78278 0
M  V30 3130 H 419.255 10.1294 -1.10029 0
M  V30 3131 H 419.065 9.64276 -3.41316 0
M  V30 3132 H 417.434 9.25417 -2.76357 0
M  V30 3133 H 412.858 4.53993 0.806451 0
M  V30 3134 H 418.065 6.11865 -2.57394 0
M  V30 3135 H 412.995 5.34046 2.87467 0
M  V30 3136 H 414.371 6.33391 3.42578 0
M  V30 3137 H 420.075 6.25169 1.0783 0
M  V30 3138 P 421.932 8.791 2.28317e-12 0
M  V30 3139 O 423.354 9.31096 0.027933 0
M  V30 3140 O 421.572 7.77869 -1.04071 0
M  V30 3141 O 421.609 8.09533 1.41463 0
M  V30 3142 C 421.449 9.0349 2.53943 0
M  V30 3143 C 421.989 8.35226 3.79016 0
M  V30 3144 O 420.933 7.57992 4.15078 0
M  V30 3145 C 423.207 7.45087 3.67298 0
M  V30 3146 O 423.945 7.27796 4.85194 0
M  V30 3147 C 422.538 6.17323 3.12027 0
M  V30 3148 O 423.337 5.04231 3.47188 0
M  V30 3149 C 421.201 6.19961 3.81809 0
M  V30 3150 H 421.233 5.58218 4.73051 0
M  V30 3151 H 422.416 6.21726 2.02589 0
M  V30 3152 H 423.9 7.86112 2.9231 0
M  V30 3153 H 422.206 9.11627 4.55076 0
M  V30 3154 H 422.016 9.9573 2.34194 0
M  V30 3155 H 420.386 9.2792 2.67832 0
M  V30 3156 H 423.025 4.67702 4.28772 0
M  V30 3157 P 424.882 7.39546 4.75277 0
M  V30 3158 O 426.304 7.81777 5.05738 0
M  V30 3159 O 424.522 7.1065 3.32998 0
M  V30 3160 O 424.559 6.04542 5.56673 0
M  V30 3161 C 424.399 6.22772 7.02095 0
M  V30 3162 C 424.939 4.97725 7.70406 0
M  V30 3163 O 423.883 4.13256 7.58987 0
M  V30 3164 C 426.157 4.28231 7.11815 0
M  V30 3165 O 426.895 3.49945 8.01648 0
M  V30 3166 C 425.488 3.5063 5.96244 0
M  V30 3167 O 426.287 2.36482 5.64681 0
M  V30 3168 C 424.151 3.15122 6.56374 0
M  V30 3169 H 424.183 2.13853 6.99751 0
M  V30 3170 H 425.366 4.13501 5.06559 0
M  V30 3171 H 426.85 5.03285 6.70911 0
M  V30 3172 H 425.156 5.20877 8.75697 0
M  V30 3173 H 424.966 7.11046 7.35349 0
M  V30 3174 H 423.336 6.35815 7.26986 0
M  V30 3175 H 425.975 1.61644 6.13565 0
M  V30 3176 P 427.833 3.65191 7.99657 0
M  V30 3177 O 429.255 3.8425 8.48115 0
M  V30 3178 O 427.473 4.17805 6.64342 0
M  V30 3179 O 427.51 2.07613 7.95143 0
M  V30 3180 C 427.35 1.44328 9.27336 0
M  V30 3181 C 427.89 0.0220036 9.17197 0
M  V30 3182 O 426.834 -0.626867 8.61923 0
M  V30 3183 C 429.108 -0.24586 8.30336 0
M  V30 3184 O 429.846 -1.39011 8.63583 0
M  V30 3185 C 428.439 -0.273849 6.91158 0
M  V30 3186 O 429.238 -1.06348 6.02892 0
M  V30 3187 C 427.102 -0.897649 7.22545 0
M  V30 3188 H 427.134 -1.9841 7.04286 0
M  V30 3189 H 428.317 0.739928 6.497 0
M  V30 3190 H 429.801 0.60668 8.36503 0
M  V30 3191 H 428.107 -0.352479 10.1829 0
M  V30 3192 H 427.917 2.00611 10.0304 0
M  V30 3193 H 426.287 1.41843 9.55327 0
M  V30 3194 H 428.926 -1.95734 6.03555 0
M  V30 3195 P 430.783 -1.25109 8.70152 0
M  V30 3196 O 432.205 -1.35274 9.21221 0
M  V30 3197 O 430.423 -0.0769065 7.84762 0
M  V30 3198 O 430.46 -2.55232 7.81161 0
M  V30 3199 C 430.3 -3.79939 8.58154 0
M  V30 3200 C 430.84 -4.94023 7.72785 0
M  V30 3201 O 429.784 -5.18726 6.91205 0
M  V30 3202 C 432.058 -4.69597 6.85231 0
M  V30 3203 O 432.796 -5.83832 6.51337 0
M  V30 3204 C 431.389 -3.96706 5.66633 0
M  V30 3205 O 432.188 -4.15414 4.49689 0
M  V30 3206 C 430.052 -4.66153 5.59313 0
M  V30 3207 H 430.084 -5.47679 4.85214 0
M  V30 3208 H 431.267 -2.89008 5.86566 0
M  V30 3209 H 432.751 -4.0121 7.36511 0
M  V30 3210 H 431.057 -5.80182 8.37584 0
M  V30 3211 H 430.867 -3.73517 9.52265 0
M  V30 3212 H 429.237 -3.97163 8.80359 0
M  V30 3213 H 431.876 -4.90969 4.01921 0
M  V30 3214 P 433.734 -5.75688 6.64379 0
M  V30 3215 O 435.135 -6.11991 7.09136 0
M  V30 3216 O 433.356 -4.30899 6.62018 0
M  V30 3217 O 433.411 -6.36965 5.19102 0
M  V30 3218 C 433.251 -7.83578 5.16515 0
M  V30 3219 C 433.791 -8.33307 3.82977 0
M  V30 3220 O 432.735 -8.0998 3.00999 0
M  V30 3221 C 435.008 -7.65514 3.2257 0
M  V30 3222 O 435.747 -8.4329 2.32297 0
M  V30 3223 C 434.341 -6.40075 2.62207 0
M  V30 3224 O 435.139 -5.92492 1.53687 0
M  V30 3225 C 433.003 -6.9454 2.18503 0
M  V30 3226 N 431.96 -5.95905 2.39948 0
M  V30 3227 C 430.925 -5.89764 1.49837 0
M  V30 3228 O 430.964 -6.64088 0.490975 0
M  V30 3229 N 429.913 -5.02821 1.70992 0
M  V30 3230 C 429.961 -4.21498 2.77236 0
M  V30 3231 N 428.951 -3.37475 2.96465 0
M  V30 3232 C 431.057 -4.23389 3.68205 0
M  V30 3233 C 432.023 -5.12792 3.46171 0
M  V30 3234 H 433.035 -7.22964 1.12076 0
M  V30 3235 H 434.218 -5.60502 3.36589 0
M  V30 3236 H 435.702 -7.36197 4.01993 0
M  V30 3237 H 434.008 -9.41302 3.90009 0
M  V30 3238 H 433.817 -8.29056 5.99158 0
M  V30 3239 H 432.187 -8.09989 5.25828 0
M  V30 3240 H 431.105 -3.54747 4.52399 0
M  V30 3241 H 432.869 -5.18551 4.1489 0
M  V30 3242 H 428.161 -3.36058 2.30304 0
M  V30 3243 H 428.956 -2.73846 3.77171 0
M  V30 3244 H 434.923 -6.40705 0.751752 0
M  V30 3245 P 436.684 -8.4349 2.47671 0
M  V30 3246 O 438.106 -8.94167 2.5964 0
M  V30 3247 O 436.324 -7.1704 3.19006 0
M  V30 3248 O 436.361 -8.16596 0.923387 0
M  V30 3249 C 436.201 -9.38437 0.108857 0
M  V30 3250 C 436.741 -9.08175 -1.28353 0
M  V30 3251 O 435.685 -8.44229 -1.84713 0
M  V30 3252 C 437.959 -8.18386 -1.42505 0
M  V30 3253 O 438.697 -8.3501 -2.60497 0
M  V30 3254 C 437.29 -6.80225 -1.25468 0
M  V30 3255 O 438.089 -5.81621 -1.91066 0
M  V30 3256 C 435.953 -7.02416 -1.9168 0
M  V30 3257 H 435.985 -6.6888 -2.96621 0
M  V30 3258 H 437.168 -6.53617 -0.192223 0
M  V30 3259 H 438.652 -8.36622 -0.589963 0
M  V30 3260 H 436.958 -10.0291 -1.79807 0
M  V30 3261 H 436.768 -10.2138 0.558219 0
M  V30 3262 H 435.138 -9.6579 0.0444202 0
M  V30 3263 H 437.777 -5.69556 -2.79637 0
M  V30 3264 P 439.635 -8.4349 -2.47671 0
M  V30 3265 O 441.057 -8.92593 -2.65 0
M  V30 3266 O 439.275 -7.7568 -1.19296 0
M  V30 3267 O 439.312 -7.36886 -3.63805 0
M  V30 3268 C 439.152 -7.95349 -4.982 0
M  V30 3269 C 439.692 -6.94612 -5.98974 0
M  V30 3270 O 438.636 -6.10347 -6.11815 0
M  V30 3271 C 440.91 -6.11426 -5.62335 0
M  V30 3272 O 441.648 -5.6162 -6.70584 0
M  V30 3273 C 440.241 -5.04409 -4.73308 0
M  V30 3274 O 441.04 -3.85992 -4.75183 0
M  V30 3275 C 438.904 -4.8728 -5.41006 0
M  V30 3276 H 438.936 -4.02333 -6.11157 0
M  V30 3277 H 440.119 -5.39466 -3.69543 0
M  V30 3278 H 441.603 -6.71916 -5.01943 0
M  V30 3279 H 439.909 -7.4649 -6.93477 0
M  V30 3280 H 439.719 -8.89416 -5.05237 0
M  V30 3281 H 438.089 -8.14876 -5.18409 0
M  V30 3282 H 440.728 -3.27957 -5.4317 0
M  V30 3283 P 442.586 -5.75688 -6.64379 0
M  V30 3284 O 444.008 -6.07627 -7.05504 0
M  V30 3285 O 442.226 -5.88047 -5.19722 0
M  V30 3286 O 442.263 -4.2322 -7.04443 0
M  V30 3287 C 442.103 -3.99743 -8.4911 0
M  V30 3288 C 442.643 -2.60516 -8.79425 0
M  V30 3289 O 441.587 -1.82684 -8.4467 0
M  V30 3290 C 443.861 -2.10343 -8.03628 0
M  V30 3291 O 444.599 -1.09919 -8.67766 0
M  V30 3292 C 443.192 -1.68446 -6.70876 0
M  V30 3293 O 443.991 -0.678137 -6.08433 0
M  V30 3294 C 441.855 -1.17436 -7.18567 0
M  V30 3295 H 441.887 -0.0804732 -7.31656 0
M  V30 3296 H 443.07 -2.54037 -6.02537 0
M  V30 3297 H 444.554 -2.93881 -7.85526 0
M  V30 3298 H 442.86 -2.53065 -9.86973 0
M  V30 3299 H 442.67 -4.75072 -9.05887 0
M  V30 3300 H 441.04 -4.05244 -8.76668 0
M  V30 3301 H 443.679 0.177647 -6.34251 0
M  V30 3302 P 445.536 -1.25109 -8.70152 0
M  V30 3303 O 446.958 -1.29744 -9.22016 0
M  V30 3304 O 445.176 -2.13714 -7.55141 0
M  V30 3305 O 445.213 0.248149 -8.21425 0
M  V30 3306 C 445.053 1.22779 -9.30434 0
M  V30 3307 C 445.593 2.56293 -8.80664 0
M  V30 3308 O 444.537 3.02979 -8.09349 0
M  V30 3309 C 446.811 2.57523 -7.89775 0
M  V30 3310 O 447.549 3.7668 -7.89438 0
M  V30 3311 C 446.142 2.20997 -6.55446 0
M  V30 3312 O 446.941 2.71895 -5.48509 0
M  V30 3313 C 444.805 2.89693 -6.67988 0
M  V30 3314 H 444.837 3.88793 -6.19859 0
M  V30 3315 H 446.02 1.12046 -6.44229 0
M  V30 3316 H 447.504 1.7746 -8.19711 0
M  V30 3317 H 445.81 3.20706 -9.67112 0
M  V30 3318 H 445.62 0.901032 -10.1892 0
M  V30 3319 H 443.99 1.33049 -9.56592 0
M  V30 3320 H 446.629 3.57847 -5.23962 0
M  V30 3321 P 448.487 3.65191 -7.99657 0
M  V30 3322 O 449.908 3.89374 -8.45885 0
M  V30 3323 O 448.127 2.28472 -7.50807 0
M  V30 3324 O 448.164 4.64972 -6.77611 0
M  V30 3325 C 448.003 6.06383 -7.16428 0
M  V30 3326 C 448.544 6.91731 -6.02299 0
M  V30 3327 O 447.489 6.92369 -5.17005 0
M  V30 3328 C 449.762 6.43627 -5.25174 0
M  V30 3329 O 450.5 7.43686 -4.60469 0
M  V30 3330 C 449.094 5.40275 -4.31916 0
M  V30 3331 O 449.892 5.24878 -3.14911 0
M  V30 3332 C 447.756 6.04847 -4.05327 0
M  V30 3333 N 446.713 5.04166 -3.98114 0
M  V30 3334 C 446.882 3.84629 -4.59066 0
M  V30 3335 N 445.855 3.0363 -4.45343 0
M  V30 3336 C 444.97 3.76722 -3.68523 0
M  V30 3337 C 443.703 3.43528 -3.17088 0
M  V30 3338 N 443.104 2.23665 -3.37397 0
M  V30 3339 N 443.138 4.44526 -2.44231 0
M  V30 3340 C 443.74 5.65243 -2.20146 0
M  V30 3341 N 444.917 6.00221 -2.65453 0
M  V30 3342 C 445.492 5.00564 -3.39083 0
M  V30 3343 H 447.788 6.62104 -3.11218 0
M  V30 3344 H 448.971 4.42969 -4.80867 0
M  V30 3345 H 450.454 5.92458 -5.93643 0
M  V30 3346 H 448.76 7.93295 -6.39407 0
M  V30 3347 H 448.57 6.26671 -8.0846 0
M  V30 3348 H 446.94 6.29101 -7.32804 0
M  V30 3349 H 443.204 6.36894 -1.5883 0
M  V30 3350 H 447.782 3.58193 -5.14248 0
M  V30 3351 H 442.174 2.05145 -2.97047 0
M  V30 3352 H 443.578 1.51255 -3.92998 0
M  V30 3353 H 449.58 5.84223 -2.47279 0
M  V30 3354 P 451.437 7.39546 -4.75277 0
M  V30 3355 O 452.859 7.84798 -5.01039 0
M  V30 3356 O 451.077 5.9812 -5.08098 0
M  V30 3357 O 451.114 7.57503 -3.1866 0
M  V30 3358 C 450.954 8.97357 -2.74833 0
M  V30 3359 C 451.494 9.07548 -1.32709 0
M  V30 3360 O 450.438 8.62072 -0.606159 0
M  V30 3361 C 452.712 8.25383 -0.938334 0
M  V30 3362 O 453.45 8.74577 0.146954 0
M  V30 3363 C 452.043 6.8802 -0.712559 0
M  V30 3364 O 452.842 6.1189 0.194655 0
M  V30 3365 C 450.706 7.27966 -0.139777 0
M  V30 3366 H 450.738 7.25354 0.961601 0
M  V30 3367 H 451.921 6.32557 -1.65702 0
M  V30 3368 H 453.405 8.19355 -1.79097 0
M  V30 3369 H 451.711 10.1294 -1.10029 0
M  V30 3370 H 451.521 9.64276 -3.41316 0
M  V30 3371 H 449.891 9.25417 -2.76357 0
M  V30 3372 H 452.53 6.25267 1.07847 0
M  V30 3373 P 454.388 8.791 2.59334e-12 0
M  V30 3374 O 455.81 9.31096 0.027933 0
M  V30 3375 O 454.028 7.77869 -1.04071 0
M  V30 3376 O 454.065 8.09533 1.41463 0
M  V30 3377 C 453.905 9.0349 2.53943 0
M  V30 3378 C 454.445 8.35226 3.79016 0
M  V30 3379 O 453.389 7.57992 4.15078 0
M  V30 3380 C 455.663 7.45087 3.67298 0
M  V30 3381 O 456.401 7.27796 4.85194 0
M  V30 3382 C 454.994 6.17323 3.12027 0
M  V30 3383 O 455.793 5.04231 3.47188 0
M  V30 3384 C 453.657 6.19961 3.81809 0
M  V30 3385 H 453.689 5.58218 4.73051 0
M  V30 3386 H 454.872 6.21726 2.02589 0
M  V30 3387 H 456.356 7.86112 2.9231 0
M  V30 3388 H 454.662 9.11627 4.55076 0
M  V30 3389 H 454.472 9.9573 2.34194 0
M  V30 3390 H 452.842 9.2792 2.67832 0
M  V30 3391 H 455.481 4.67702 4.28772 0
M  V30 3392 P 457.338 7.39546 4.75277 0
M  V30 3393 O 458.759 7.81861 5.05793 0
M  V30 3394 O 456.978 7.1065 3.32998 0
M  V30 3395 O 457.015 6.04542 5.56673 0
M  V30 3396 C 456.854 6.22839 7.02169 0
M  V30 3397 C 457.395 4.97725 7.70406 0
M  V30 3398 O 456.34 4.13208 7.58899 0
M  V30 3399 C 458.613 4.28231 7.11815 0
M  V30 3400 O 459.351 3.49945 8.01648 0
M  V30 3401 C 457.945 3.5063 5.96244 0
M  V30 3402 O 458.743 2.37008 5.64352 0
M  V30 3403 C 456.607 3.15122 6.56374 0
M  V30 3404 N 455.564 3.22311 5.55692 0
M  V30 3405 C 455.733 3.99655 4.46046 0
M  V30 3406 N 454.706 3.97599 3.63918 0
M  V30 3407 C 453.821 3.11159 4.25334 0
M  V30 3408 C 452.554 2.64972 3.85157 0
M  V30 3409 N 451.955 3.02132 2.69405 0
M  V30 3410 N 451.989 1.78482 4.74759 0
M  V30 3411 C 452.591 1.37463 5.90819 0
M  V30 3412 N 453.768 1.7733 6.31889 0
M  V30 3413 C 454.343 2.64393 5.43725 0
M  V30 3414 H 456.639 2.13823 6.99656 0
M  V30 3415 H 457.822 4.12931 5.06895 0
M  V30 3416 H 459.305 5.03285 6.70911 0
M  V30 3417 H 457.611 5.20001 8.76217 0
M  V30 3418 H 457.421 7.11046 7.35349 0
M  V30 3419 H 455.791 6.35815 7.26986 0
M  V30 3420 H 452.055 0.66574 6.53015 0
M  V30 3421 H 456.633 4.58037 4.27732 0
M  V30 3422 H 451.025 2.64828 2.45331 0
M  V30 3423 H 452.429 3.67472 2.05644 0
M  V30 3424 H 458.431 1.61619 6.13468 0
M  V30 3425 P 460.289 3.65191 7.99657 0
M  V30 3426 O 461.711 3.8425 8.48115 0
M  V30 3427 O 459.929 4.17805 6.64342 0
M  V30 3428 O 459.966 2.07613 7.95143 0
M  V30 3429 C 459.806 1.44328 9.27336 0
M  V30 3430 C 460.346 0.0220036 9.17197 0
M  V30 3431 O 459.29 -0.626867 8.61923 0
M  V30 3432 C 461.564 -0.24586 8.30336 0
M  V30 3433 O 462.302 -1.39011 8.63583 0
M  V30 3434 C 460.895 -0.273849 6.91158 0
M  V30 3435 O 461.694 -1.06348 6.02892 0
M  V30 3436 C 459.558 -0.897649 7.22545 0
M  V30 3437 H 459.59 -1.9841 7.04286 0
M  V30 3438 H 460.773 0.739928 6.497 0
M  V30 3439 H 462.257 0.60668 8.36503 0
M  V30 3440 H 460.563 -0.352479 10.1829 0
M  V30 3441 H 460.373 2.00611 10.0304 0
M  V30 3442 H 458.743 1.41843 9.55327 0
M  V30 3443 H 461.382 -1.95734 6.03555 0
M  V30 3444 P 463.239 -1.25109 8.70152 0
M  V30 3445 O 464.64 -1.31452 9.27431 0
M  V30 3446 O 462.861 -0.0458113 7.89887 0
M  V30 3447 O 462.916 -2.55201 7.81066 0
M  V30 3448 C 462.756 -3.79939 8.58154 0
M  V30 3449 C 463.296 -4.93969 7.72701 0
M  V30 3450 O 462.24 -5.18666 6.91125 0
M  V30 3451 C 464.513 -4.69597 6.85231 0
M  V30 3452 O 465.252 -5.83832 6.51337 0
M  V30 3453 C 463.846 -3.96706 5.66633 0
M  V30 3454 O 464.644 -4.15346 4.49615 0
M  V30 3455 C 462.508 -4.66153 5.59313 0
M  V30 3456 N 461.465 -3.71582 5.24027 0
M  V30 3457 C 460.43 -4.15133 4.44901 0
M  V30 3458 O 460.469 -5.32122 4.00336 0
M  V30 3459 N 459.418 -3.30554 4.15693 0
M  V30 3460 C 459.466 -2.04701 4.61105 0
M  V30 3461 C 460.562 -1.57111 5.38655 0
M  V30 3462 C 461.528 -2.44234 5.68454 0
M  V30 3463 H 462.54 -5.47604 4.85148 0
M  V30 3464 H 463.723 -2.8955 5.86187 0
M  V30 3465 H 465.207 -4.01995 7.36197 0
M  V30 3466 H 463.513 -5.81019 8.37003 0
M  V30 3467 H 463.322 -3.73517 9.52265 0
M  V30 3468 H 461.692 -3.97122 8.80267 0
M  V30 3469 H 460.61 -0.538464 5.72373 0
M  V30 3470 H 462.374 -2.11927 6.29377 0
M  V30 3471 H 464.428 -4.98352 4.09633 0
M  V30 3472 P 466.19 -5.75688 6.64379 0
M  V30 3473 O 467.611 -6.11915 7.01921 0
M  V30 3474 O 465.83 -4.30744 6.56026 0
M  V30 3475 O 465.867 -6.37042 5.19165 0
M  V30 3476 C 465.706 -7.83662 5.1657 0
M  V30 3477 C 466.247 -8.33398 3.83019 0
M  V30 3478 O 465.192 -8.0998 3.00999 0
M  V30 3479 C 467.465 -7.65514 3.2257 0
M  V30 3480 O 468.203 -8.4329 2.32297 0
M  V30 3481 C 466.797 -6.40075 2.62207 0
M  V30 3482 O 467.595 -5.92338 1.5428 0
M  V30 3483 C 465.459 -6.9454 2.18503 0
M  V30 3484 N 464.416 -5.95905 2.39948 0
M  V30 3485 C 464.585 -4.98383 3.32108 0
M  V30 3486 N 463.558 -4.16798 3.41761 0
M  V30 3487 C 462.673 -4.65287 2.47461 0
M  V30 3488 C 461.406 -4.18946 2.07461 0
M  V30 3489 N 460.807 -3.09661 2.60717 0
M  V30 3490 N 460.841 -4.95327 1.09101 0
M  V30 3491 C 461.443 -6.04369 0.519812 0
M  V30 3492 N 462.62 -6.50694 0.855982 0
M  V30 3493 C 463.195 -5.75818 1.84322 0
M  V30 3494 H 465.491 -7.22964 1.12076 0
M  V30 3495 H 466.674 -5.60502 3.36589 0
M  V30 3496 H 468.157 -7.35707 4.02681 0
M  V30 3497 H 466.463 -9.41302 3.90009 0
M  V30 3498 H 466.273 -8.29056 5.99158 0
M  V30 3499 H 464.643 -8.10073 5.25882 0
M  V30 3500 H 460.907 -6.55843 -0.270373 0
M  V30 3501 H 465.485 -4.88564 3.92502 0
M  V30 3502 H 459.877 -2.80523 2.27218 0
M  V30 3503 H 461.281 -2.55848 3.34465 0
M  V30 3504 H 467.283 -6.30224 0.72668 0
M  V30 3505 P 469.141 -8.4349 2.47671 0
M  V30 3506 O 470.563 -8.94167 2.5964 0
M  V30 3507 O 468.781 -7.1704 3.19006 0
M  V30 3508 O 468.818 -8.16596 0.923387 0
M  V30 3509 C 468.658 -9.38437 0.108857 0
M  V30 3510 C 469.198 -9.08175 -1.28353 0
M  V30 3511 O 468.142 -8.44229 -1.84713 0
M  V30 3512 C 470.416 -8.18386 -1.42505 0
M  V30 3513 O 471.154 -8.3501 -2.60497 0
M  V30 3514 C 469.747 -6.80225 -1.25468 0
M  V30 3515 O 470.546 -5.81621 -1.91066 0
M  V30 3516 C 468.41 -7.02416 -1.9168 0
M  V30 3517 H 468.442 -6.6888 -2.96621 0
M  V30 3518 H 469.625 -6.53617 -0.192223 0
M  V30 3519 H 471.109 -8.36622 -0.589963 0
M  V30 3520 H 469.415 -10.0291 -1.79807 0
M  V30 3521 H 469.225 -10.2138 0.558219 0
M  V30 3522 H 467.595 -9.6579 0.0444202 0
M  V30 3523 H 470.234 -5.69556 -2.79637 0
M  V30 3524 P 472.091 -8.4349 -2.47671 0
M  V30 3525 O 473.513 -8.92593 -2.65 0
M  V30 3526 O 471.731 -7.7568 -1.19296 0
M  V30 3527 O 471.768 -7.36886 -3.63805 0
M  V30 3528 C 471.608 -7.95349 -4.982 0
M  V30 3529 C 472.148 -6.94612 -5.98974 0
M  V30 3530 O 471.092 -6.10347 -6.11815 0
M  V30 3531 C 473.366 -6.11426 -5.62335 0
M  V30 3532 O 474.104 -5.6162 -6.70584 0
M  V30 3533 C 472.697 -5.04409 -4.73308 0
M  V30 3534 O 473.496 -3.85992 -4.75183 0
M  V30 3535 C 471.36 -4.8728 -5.41006 0
M  V30 3536 H 471.392 -4.02333 -6.11157 0
M  V30 3537 H 472.575 -5.39466 -3.69543 0
M  V30 3538 H 474.059 -6.71916 -5.01943 0
M  V30 3539 H 472.365 -7.4649 -6.93477 0
M  V30 3540 H 472.175 -8.89416 -5.05237 0
M  V30 3541 H 470.545 -8.14876 -5.18409 0
M  V30 3542 H 473.184 -3.27957 -5.4317 0
M  V30 3543 P 475.042 -5.75688 -6.64379 0
M  V30 3544 O 476.464 -6.07627 -7.05504 0
M  V30 3545 O 474.682 -5.88047 -5.19722 0
M  V30 3546 O 474.719 -4.2322 -7.04443 0
M  V30 3547 C 474.559 -3.99743 -8.4911 0
M  V30 3548 C 475.099 -2.60516 -8.79425 0
M  V30 3549 O 474.043 -1.82684 -8.4467 0
M  V30 3550 C 476.317 -2.10343 -8.03628 0
M  V30 3551 O 477.055 -1.09919 -8.67766 0
M  V30 3552 C 475.648 -1.68446 -6.70876 0
M  V30 3553 O 476.447 -0.678137 -6.08433 0
M  V30 3554 C 474.311 -1.17436 -7.18567 0
M  V30 3555 H 474.343 -0.0804732 -7.31656 0
M  V30 3556 H 475.526 -2.54037 -6.02537 0
M  V30 3557 H 477.01 -2.93881 -7.85526 0
M  V30 3558 H 475.316 -2.53065 -9.86973 0
M  V30 3559 H 475.126 -4.75072 -9.05887 0
M  V30 3560 H 473.496 -4.05244 -8.76668 0
M  V30 3561 H 476.135 0.177647 -6.34251 0
M  V30 3562 P 477.992 -1.25109 -8.70152 0
M  V30 3563 O 479.413 -1.29758 -9.22115 0
M  V30 3564 O 477.632 -2.13714 -7.55141 0
M  V30 3565 O 477.669 0.248149 -8.21425 0
M  V30 3566 C 477.508 1.22792 -9.30533 0
M  V30 3567 C 478.049 2.56293 -8.80664 0
M  V30 3568 O 476.994 3.02944 -8.09255 0
M  V30 3569 C 479.267 2.57523 -7.89775 0
M  V30 3570 O 480.005 3.7668 -7.89438 0
M  V30 3571 C 478.599 2.20997 -6.55446 0
M  V30 3572 O 479.397 2.71302 -5.48691 0
M  V30 3573 C 477.261 2.89693 -6.67988 0
M  V30 3574 N 476.218 2.08895 -6.07487 0
M  V30 3575 C 476.387 0.753809 -5.94137 0
M  V30 3576 N 475.36 0.146592 -5.38801 0
M  V30 3577 C 474.475 1.1768 -5.13693 0
M  V30 3578 C 473.208 1.17563 -4.52477 0
M  V30 3579 N 472.609 0.057481 -4.04759 0
M  V30 3580 N 472.643 2.41918 -4.45789 0
M  V30 3581 C 473.245 3.56493 -4.90792 0
M  V30 3582 N 474.422 3.61423 -5.47817 0
M  V30 3583 C 474.997 2.37779 -5.5588 0
M  V30 3584 H 477.293 3.8874 -6.19774 0
M  V30 3585 H 478.476 1.12673 -6.44018 0
M  V30 3586 H 479.959 1.7746 -8.19711 0
M  V30 3587 H 478.265 3.21673 -9.66791 0
M  V30 3588 H 478.075 0.901032 -10.1892 0
M  V30 3589 H 476.445 1.33049 -9.56592 0
M  V30 3590 H 472.709 4.49919 -4.77947 0
M  V30 3591 H 477.287 0.233081 -6.26266 0
M  V30 3592 H 471.679 0.119831 -3.60801 0
M  V30 3593 H 473.083 -0.852272 -4.12385 0
M  V30 3594 H 479.085 3.5779 -5.23879 0
M  V30 3595 P 480.943 3.65191 -7.99657 0
M  V30 3596 O 482.365 3.89332 -8.45794 0
M  V30 3597 O 480.583 2.28472 -7.50807 0
M  V30 3598 O 480.62 4.64972 -6.77611 0
M  V30 3599 C 480.46 6.06319 -7.16352 0
M  V30 3600 C 481 6.91731 -6.02299 0
M  V30 3601 O 479.944 6.92449 -5.17064 0
M  V30 3602 C 482.218 6.43627 -5.25174 0
M  V30 3603 O 482.956 7.43686 -4.60469 0
M  V30 3604 C 481.549 5.40275 -4.31916 0
M  V30 3605 O 482.348 5.25279 -3.14438 0
M  V30 3606 C 480.212 6.04847 -4.05327 0
M  V30 3607 H 480.244 6.62195 -3.11261 0
M  V30 3608 H 481.427 4.42556 -4.81383 0
M  V30 3609 H 482.911 5.92458 -5.93643 0
M  V30 3610 H 481.217 7.92655 -6.402 0
M  V30 3611 H 481.027 6.26671 -8.0846 0
M  V30 3612 H 479.397 6.29101 -7.32804 0
M  V30 3613 H 482.036 5.84315 -2.47318 0
M  V30 3614 P 483.893 7.39546 -4.75277 0
M  V30 3615 O 485.315 7.84798 -5.01039 0
M  V30 3616 O 483.533 5.9812 -5.08098 0
M  V30 3617 O 483.57 7.57503 -3.1866 0
M  V30 3618 C 483.41 8.97357 -2.74833 0
M  V30 3619 C 483.95 9.07548 -1.32709 0
M  V30 3620 O 482.894 8.62072 -0.606159 0
M  V30 3621 C 485.168 8.25383 -0.938334 0
M  V30 3622 O 485.906 8.74577 0.146954 0
M  V30 3623 C 484.499 6.8802 -0.712559 0
M  V30 3624 O 485.298 6.1189 0.194655 0
M  V30 3625 C 483.162 7.27966 -0.139777 0
M  V30 3626 H 483.194 7.25354 0.961601 0
M  V30 3627 H 484.377 6.32557 -1.65702 0
M  V30 3628 H 485.861 8.19355 -1.79097 0
M  V30 3629 H 484.167 10.1294 -1.10029 0
M  V30 3630 H 483.977 9.64276 -3.41316 0
M  V30 3631 H 482.347 9.25417 -2.76357 0
M  V30 3632 H 484.986 6.25267 1.07847 0
M  V30 3633 P 486.844 8.791 2.9035e-12 0
M  V30 3634 O 488.266 9.31096 0.027933 0
M  V30 3635 O 486.484 7.77869 -1.04071 0
M  V30 3636 O 486.521 8.09533 1.41463 0
M  V30 3637 C 486.361 9.0349 2.53943 0
M  V30 3638 C 486.901 8.35226 3.79016 0
M  V30 3639 O 485.845 7.57992 4.15078 0
M  V30 3640 C 488.119 7.45087 3.67298 0
M  V30 3641 O 488.857 7.27796 4.85194 0
M  V30 3642 C 487.45 6.17323 3.12027 0
M  V30 3643 O 488.249 5.04231 3.47188 0
M  V30 3644 C 486.113 6.19961 3.81809 0
M  V30 3645 H 486.145 5.58218 4.73051 0
M  V30 3646 H 487.328 6.21726 2.02589 0
M  V30 3647 H 488.812 7.86112 2.9231 0
M  V30 3648 H 487.118 9.11627 4.55076 0
M  V30 3649 H 486.928 9.9573 2.34194 0
M  V30 3650 H 485.298 9.2792 2.67832 0
M  V30 3651 H 487.937 4.67702 4.28772 0
M  V30 3652 P 489.795 7.39546 4.75277 0
M  V30 3653 O 491.217 7.81777 5.05738 0
M  V30 3654 O 489.435 7.1065 3.32998 0
M  V30 3655 O 489.472 6.04542 5.56673 0
M  V30 3656 C 489.312 6.22772 7.02095 0
M  V30 3657 C 489.852 4.97725 7.70406 0
M  V30 3658 O 488.796 4.13256 7.58987 0
M  V30 3659 C 491.07 4.28231 7.11815 0
M  V30 3660 O 491.808 3.49945 8.01648 0
M  V30 3661 C 490.401 3.5063 5.96244 0
M  V30 3662 O 491.2 2.36482 5.64681 0
M  V30 3663 C 489.064 3.15122 6.56374 0
M  V30 3664 H 489.096 2.13853 6.99751 0
M  V30 3665 H 490.279 4.13501 5.06559 0
M  V30 3666 H 491.763 5.03285 6.70911 0
M  V30 3667 H 490.069 5.20877 8.75697 0
M  V30 3668 H 489.879 7.11046 7.35349 0
M  V30 3669 H 488.249 6.35815 7.26986 0
M  V30 3670 H 490.888 1.61644 6.13565 0
M  V30 3671 P 492.745 3.65191 7.99657 0
M  V30 3672 O 494.167 3.8425 8.48115 0
M  V30 3673 O 492.385 4.17805 6.64342 0
M  V30 3674 O 492.422 2.07613 7.95143 0
M  V30 3675 C 492.262 1.44328 9.27336 0
M  V30 3676 C 492.802 0.0220036 9.17197 0
M  V30 3677 O 491.746 -0.626867 8.61923 0
M  V30 3678 C 494.02 -0.24586 8.30336 0
M  V30 3679 O 494.758 -1.39011 8.63583 0
M  V30 3680 C 493.351 -0.273849 6.91158 0
M  V30 3681 O 494.15 -1.06348 6.02892 0
M  V30 3682 C 492.014 -0.897649 7.22545 0
M  V30 3683 H 492.046 -1.9841 7.04286 0
M  V30 3684 H 493.229 0.739928 6.497 0
M  V30 3685 H 494.713 0.60668 8.36503 0
M  V30 3686 H 493.019 -0.352479 10.1829 0
M  V30 3687 H 492.829 2.00611 10.0304 0
M  V30 3688 H 491.199 1.41843 9.55327 0
M  V30 3689 H 493.838 -1.95734 6.03555 0
M  V30 3690 P 495.696 -1.25109 8.70152 0
M  V30 3691 O 497.118 -1.35274 9.21221 0
M  V30 3692 O 495.336 -0.0769065 7.84762 0
M  V30 3693 O 495.373 -2.55232 7.81161 0
M  V30 3694 C 495.213 -3.79939 8.58154 0
M  V30 3695 C 495.753 -4.94023 7.72785 0
M  V30 3696 O 494.697 -5.18726 6.91205 0
M  V30 3697 C 496.971 -4.69597 6.85231 0
M  V30 3698 O 497.709 -5.83832 6.51337 0
M  V30 3699 C 496.302 -3.96706 5.66633 0
M  V30 3700 O 497.101 -4.15414 4.49689 0
M  V30 3701 C 494.965 -4.66153 5.59313 0
M  V30 3702 H 494.997 -5.47679 4.85214 0
M  V30 3703 H 496.18 -2.89008 5.86566 0
M  V30 3704 H 497.664 -4.0121 7.36511 0
M  V30 3705 H 495.97 -5.80182 8.37584 0
M  V30 3706 H 495.78 -3.73517 9.52265 0
M  V30 3707 H 494.15 -3.97163 8.80359 0
M  V30 3708 H 496.789 -4.90969 4.01921 0
M  V30 3709 P 498.646 -5.75688 6.64379 0
M  V30 3710 O 500.068 -6.11981 7.01997 0
M  V30 3711 O 498.286 -4.30744 6.56026 0
M  V30 3712 O 498.323 -6.37042 5.19165 0
M  V30 3713 C 498.163 -7.83578 5.16515 0
M  V30 3714 C 498.703 -8.33307 3.82977 0
M  V30 3715 O 497.648 -8.10074 3.01034 0
M  V30 3716 C 499.921 -7.65514 3.2257 0
M  V30 3717 O 500.659 -8.4329 2.32297 0
M  V30 3718 C 499.253 -6.40075 2.62207 0
M  V30 3719 O 500.051 -5.92492 1.53687 0
M  V30 3720 C 497.915 -6.9454 2.18503 0
M  V30 3721 N 496.872 -5.95905 2.39948 0
M  V30 3722 C 496.934 -5.13994 3.44742 0
M  V30 3723 N 495.889 -4.30684 3.46712 0
M  V30 3724 C 495.155 -4.65583 2.41086 0
M  V30 3725 C 493.849 -4.20877 1.99581 0
M  V30 3726 O 493.116 -3.35913 2.52616 0
M  V30 3727 N 493.419 -4.83271 0.873406 0
M  V30 3728 C 494.168 -5.82006 0.185129 0
M  V30 3729 N 493.571 -6.30619 -0.95439 0
M  V30 3730 N 495.321 -6.28443 0.578524 0
M  V30 3731 C 495.778 -5.68486 1.70138 0
M  V30 3732 H 497.947 -7.23063 1.12091 0
M  V30 3733 H 499.13 -5.60165 3.3715 0
M  V30 3734 H 500.615 -7.3611 4.01946 0
M  V30 3735 H 498.92 -9.40912 3.9095 0
M  V30 3736 H 498.73 -8.29056 5.99158 0
M  V30 3737 H 497.099 -8.10073 5.25882 0
M  V30 3738 H 492.523 -4.58323 0.505262 0
M  V30 3739 H 497.73 -5.14564 4.1935 0
M  V30 3740 H 492.66 -5.93402 -1.25364 0
M  V30 3741 H 494.036 -7.0425 -1.50254 0
M  V30 3742 H 499.74 -6.30224 0.72668 0
M  V30 3743 P 501.597 -8.4349 2.47671 0
M  V30 3744 O 503.018 -8.94263 2.59668 0
M  V30 3745 O 501.237 -7.1704 3.19006 0
M  V30 3746 O 501.274 -8.16596 0.923387 0
M  V30 3747 C 501.113 -9.38537 0.108869 0
M  V30 3748 C 501.654 -9.08175 -1.28353 0
M  V30 3749 O 500.599 -8.44131 -1.84692 0
M  V30 3750 C 502.872 -8.18386 -1.42505 0
M  V30 3751 O 503.61 -8.3501 -2.60497 0
M  V30 3752 C 502.204 -6.80225 -1.25468 0
M  V30 3753 O 503.002 -5.81716 -1.90454 0
M  V30 3754 C 500.866 -7.02416 -1.9168 0
M  V30 3755 N 499.823 -6.31033 -1.20314 0
M  V30 3756 C 499.992 -5.98817 0.0994088 0
M  V30 3757 N 498.965 -5.35403 0.621694 0
M  V30 3758 C 498.08 -5.25212 -0.43376 0
M  V30 3759 C 496.813 -4.64602 -0.519722 0
M  V30 3760 N 496.214 -4.01457 0.519136 0
M  V30 3761 N 496.248 -4.7568 -1.76013 0
M  V30 3762 C 496.85 -5.3653 -2.83017 0
M  V30 3763 N 498.027 -5.93676 -2.79782 0
M  V30 3764 C 498.602 -5.84061 -1.56249 0
M  V30 3765 H 500.898 -6.68789 -2.9658 0
M  V30 3766 H 502.081 -6.53498 -0.198729 0
M  V30 3767 H 503.564 -8.36622 -0.589963 0
M  V30 3768 H 501.87 -10.0273 -1.8081 0
M  V30 3769 H 501.68 -10.2138 0.558219 0
M  V30 3770 H 500.05 -9.6579 0.0444202 0
M  V30 3771 H 496.314 -5.37113 -3.77321 0
M  V30 3772 H 500.892 -6.23209 0.660562 0
M  V30 3773 H 495.284 -3.58834 0.394862 0
M  V30 3774 H 496.688 -3.96059 1.43048 0
M  V30 3775 H 502.69 -5.69466 -2.79593 0
M  V30 3776 P 504.547 -8.4349 -2.47671 0
M  V30 3777 O 505.969 -8.92593 -2.65 0
M  V30 3778 O 504.187 -7.7568 -1.19296 0
M  V30 3779 O 504.224 -7.36886 -3.63805 0
M  V30 3780 C 504.064 -7.95349 -4.982 0
M  V30 3781 C 504.604 -6.94612 -5.98974 0
M  V30 3782 O 503.548 -6.10347 -6.11815 0
M  V30 3783 C 505.822 -6.11426 -5.62335 0
M  V30 3784 O 506.56 -5.6162 -6.70584 0
M  V30 3785 C 505.153 -5.04409 -4.73308 0
M  V30 3786 O 505.952 -3.85992 -4.75183 0
M  V30 3787 C 503.816 -4.8728 -5.41006 0
M  V30 3788 H 503.848 -4.02333 -6.11157 0
M  V30 3789 H 505.031 -5.39466 -3.69543 0
M  V30 3790 H 506.515 -6.71916 -5.01943 0
M  V30 3791 H 504.821 -7.4649 -6.93477 0
M  V30 3792 H 504.631 -8.89416 -5.05237 0
M  V30 3793 H 503.001 -8.14876 -5.18409 0
M  V30 3794 H 505.64 -3.27957 -5.4317 0
M  V30 3795 P 507.498 -5.75688 -6.64379 0
M  V30 3796 O 508.919 -6.07692 -7.0558 0
M  V30 3797 O 507.138 -5.88047 -5.19722 0
M  V30 3798 O 507.175 -4.2322 -7.04443 0
M  V30 3799 C 507.014 -3.99785 -8.49201 0
M  V30 3800 C 507.555 -2.60516 -8.79425 0
M  V30 3801 O 506.5 -1.82663 -8.44573 0
M  V30 3802 C 508.773 -2.10343 -8.03628 0
M  V30 3803 O 509.511 -1.09919 -8.67766 0
M  V30 3804 C 508.105 -1.68446 -6.70876 0
M  V30 3805 O 508.903 -0.684109 -6.08265 0
M  V30 3806 C 506.767 -1.17436 -7.18567 0
M  V30 3807 N 505.724 -1.52699 -6.23988 0
M  V30 3808 C 505.893 -2.578 -5.40574 0
M  V30 3809 N 504.866 -2.78966 -4.61193 0
M  V30 3810 C 503.981 -1.78725 -4.95769 0
M  V30 3811 C 502.714 -1.45727 -4.44207 0
M  V30 3812 N 502.149 -0.374977 -5.05812 0
M  V30 3813 C 502.751 0.345585 -6.05615 0
M  V30 3814 N 503.928 0.0787651 -6.56253 0
M  V30 3815 C 504.503 -1.00499 -5.96189 0
M  V30 3816 H 507.982 -2.53396 -6.02698 0
M  V30 3817 H 509.465 -2.93881 -7.85526 0
M  V30 3818 H 507.771 -2.52078 -9.87225 0
M  V30 3819 H 507.581 -4.75072 -9.05887 0
M  V30 3820 H 505.951 -4.05244 -8.76668 0
M  V30 3821 H 506.793 -3.18977 -5.3945 0
M  V30 3822 H 508.591 0.177619 -6.34151 0
M  V30 3823 P 510.449 -1.25109 -8.70152 0
M  V30 3824 O 511.87 -1.29758 -9.22115 0
M  V30 3825 O 510.089 -2.13714 -7.55141 0
M  V30 3826 O 510.126 0.248149 -8.21425 0
M  V30 3827 C 509.965 1.22792 -9.30533 0
M  V30 3828 C 510.506 2.56293 -8.80664 0
M  V30 3829 O 509.451 3.02944 -8.09255 0
M  V30 3830 C 511.724 2.57523 -7.89775 0
M  V30 3831 O 512.462 3.7668 -7.89438 0
M  V30 3832 C 511.056 2.20997 -6.55446 0
M  V30 3833 O 511.854 2.71302 -5.48691 0
M  V30 3834 C 509.718 2.89693 -6.67988 0
M  V30 3835 N 508.675 2.08895 -6.07487 0
M  V30 3836 C 508.844 0.753809 -5.94137 0
M  V30 3837 N 507.817 0.146592 -5.38801 0
M  V30 3838 C 506.932 1.1768 -5.13693 0
M  V30 3839 C 505.665 1.17563 -4.52477 0
M  V30 3840 N 505.066 0.057481 -4.04759 0
M  V30 3841 N 505.1 2.41918 -4.45789 0
M  V30 3842 C 505.702 3.56493 -4.90792 0
M  V30 3843 N 506.879 3.61423 -5.47817 0
M  V30 3844 C 507.454 2.37779 -5.5588 0
M  V30 3845 H 509.75 3.8874 -6.19774 0
M  V30 3846 H 510.933 1.12673 -6.44018 0
M  V30 3847 H 512.416 1.7746 -8.19711 0
M  V30 3848 H 510.722 3.21673 -9.66791 0
M  V30 3849 H 510.532 0.901032 -10.1892 0
M  V30 3850 H 508.902 1.33049 -9.56592 0
M  V30 3851 H 505.166 4.49919 -4.77947 0
M  V30 3852 H 509.744 0.233081 -6.26266 0
M  V30 3853 H 504.136 0.119831 -3.60801 0
M  V30 3854 H 505.54 -0.852272 -4.12385 0
M  V30 3855 H 511.542 3.5779 -5.23879 0
M  V30 3856 P 513.399 3.65191 -7.99657 0
M  V30 3857 O 514.82 3.89374 -8.45885 0
M  V30 3858 O 513.039 2.28472 -7.50807 0
M  V30 3859 O 513.076 4.64972 -6.77611 0
M  V30 3860 C 512.915 6.06383 -7.16428 0
M  V30 3861 C 513.456 6.91731 -6.02299 0
M  V30 3862 O 512.401 6.92369 -5.17005 0
M  V30 3863 C 514.674 6.43627 -5.25174 0
M  V30 3864 O 515.412 7.43686 -4.60469 0
M  V30 3865 C 514.006 5.40275 -4.31916 0
M  V30 3866 O 514.804 5.24878 -3.14911 0
M  V30 3867 C 512.668 6.04847 -4.05327 0
M  V30 3868 N 511.625 5.04166 -3.98114 0
M  V30 3869 C 511.794 3.84629 -4.59066 0
M  V30 3870 N 510.767 3.0363 -4.45343 0
M  V30 3871 C 509.882 3.76722 -3.68523 0
M  V30 3872 C 508.615 3.43528 -3.17088 0
M  V30 3873 N 508.05 4.44526 -2.44231 0
M  V30 3874 C 508.652 5.65243 -2.20146 0
M  V30 3875 N 509.829 6.00221 -2.65453 0
M  V30 3876 C 510.404 5.00564 -3.39083 0
M  V30 3877 H 513.883 4.42969 -4.80867 0
M  V30 3878 H 515.366 5.92458 -5.93643 0
M  V30 3879 H 513.672 7.93295 -6.39407 0
M  V30 3880 H 513.482 6.26671 -8.0846 0
M  V30 3881 H 511.852 6.29101 -7.32804 0
M  V30 3882 H 512.694 3.58193 -5.14248 0
M  V30 3883 H 514.492 5.84223 -2.47279 0
M  V30 3884 P 516.35 7.39546 -4.75277 0
M  V30 3885 O 517.772 7.84798 -5.01039 0
M  V30 3886 O 515.99 5.9812 -5.08098 0
M  V30 3887 O 516.027 7.57503 -3.1866 0
M  V30 3888 C 515.867 8.97357 -2.74833 0
M  V30 3889 C 516.407 9.07548 -1.32709 0
M  V30 3890 O 515.351 8.62072 -0.606159 0
M  V30 3891 C 517.625 8.25383 -0.938334 0
M  V30 3892 O 518.363 8.74577 0.146954 0
M  V30 3893 C 516.956 6.8802 -0.712559 0
M  V30 3894 O 517.755 6.1189 0.194655 0
M  V30 3895 C 515.619 7.27966 -0.139777 0
M  V30 3896 H 515.651 7.25354 0.961601 0
M  V30 3897 H 516.834 6.32557 -1.65702 0
M  V30 3898 H 518.318 8.19355 -1.79097 0
M  V30 3899 H 516.624 10.1294 -1.10029 0
M  V30 3900 H 516.434 9.64276 -3.41316 0
M  V30 3901 H 514.804 9.25417 -2.76357 0
M  V30 3902 H 517.443 6.25267 1.07847 0
M  V30 3903 P 519.3 8.791 3.21367e-12 0
M  V30 3904 O 520.722 9.31096 0.027933 0
M  V30 3905 O 518.94 7.77869 -1.04071 0
M  V30 3906 O 518.977 8.09533 1.41463 0
M  V30 3907 C 518.817 9.0349 2.53943 0
M  V30 3908 C 519.357 8.35226 3.79016 0
M  V30 3909 O 518.301 7.57992 4.15078 0
M  V30 3910 C 520.575 7.45087 3.67298 0
M  V30 3911 O 521.313 7.27796 4.85194 0
M  V30 3912 C 519.906 6.17323 3.12027 0
M  V30 3913 O 520.705 5.04231 3.47188 0
M  V30 3914 C 518.569 6.19961 3.81809 0
M  V30 3915 H 518.601 5.58218 4.73051 0
M  V30 3916 H 519.784 6.21726 2.02589 0
M  V30 3917 H 521.268 7.86112 2.9231 0
M  V30 3918 H 519.574 9.11627 4.55076 0
M  V30 3919 H 519.384 9.9573 2.34194 0
M  V30 3920 H 517.754 9.2792 2.67832 0
M  V30 3921 H 520.393 4.67702 4.28772 0
M  V30 3922 P 522.251 7.39546 4.75277 0
M  V30 3923 O 523.672 7.81861 5.05793 0
M  V30 3924 O 521.891 7.1065 3.32998 0
M  V30 3925 O 521.928 6.04542 5.56673 0
M  V30 3926 C 521.767 6.22839 7.02169 0
M  V30 3927 C 522.308 4.97725 7.70406 0
M  V30 3928 O 521.253 4.13208 7.58899 0
M  V30 3929 C 523.526 4.28231 7.11815 0
M  V30 3930 O 524.264 3.49945 8.01648 0
M  V30 3931 C 522.858 3.5063 5.96244 0
M  V30 3932 O 523.656 2.37008 5.64352 0
M  V30 3933 C 521.52 3.15122 6.56374 0
M  V30 3934 N 520.477 3.22311 5.55692 0
M  V30 3935 C 520.646 3.99655 4.46046 0
M  V30 3936 N 519.619 3.97599 3.63918 0
M  V30 3937 C 518.734 3.11159 4.25334 0
M  V30 3938 C 517.467 2.64972 3.85157 0
M  V30 3939 N 516.902 1.78482 4.74759 0
M  V30 3940 C 517.504 1.37463 5.90819 0
M  V30 3941 N 518.681 1.7733 6.31889 0
M  V30 3942 C 519.256 2.64393 5.43725 0
M  V30 3943 H 522.735 4.12931 5.06895 0
M  V30 3944 H 524.218 5.03285 6.70911 0
M  V30 3945 H 522.524 5.20001 8.76217 0
M  V30 3946 H 522.334 7.11046 7.35349 0
M  V30 3947 H 520.704 6.35815 7.26986 0
M  V30 3948 H 521.546 4.58037 4.27732 0
M  V30 3949 H 523.344 1.61619 6.13468 0
M  V30 3950 P 525.201 3.65191 7.99657 0
M  V30 3951 O 526.623 3.8425 8.48115 0
M  V30 3952 O 524.841 4.17805 6.64342 0
M  V30 3953 O 524.878 2.07613 7.95143 0
M  V30 3954 C 524.718 1.44328 9.27336 0
M  V30 3955 C 525.258 0.0220036 9.17197 0
M  V30 3956 O 524.202 -0.626867 8.61923 0
M  V30 3957 C 526.476 -0.24586 8.30336 0
M  V30 3958 O 527.214 -1.39011 8.63583 0
M  V30 3959 C 525.807 -0.273849 6.91158 0
M  V30 3960 O 526.606 -1.06348 6.02892 0
M  V30 3961 C 524.47 -0.897649 7.22545 0
M  V30 3962 H 524.502 -1.9841 7.04286 0
M  V30 3963 H 525.685 0.739928 6.497 0
M  V30 3964 H 527.169 0.60668 8.36503 0
M  V30 3965 H 525.475 -0.352479 10.1829 0
M  V30 3966 H 525.285 2.00611 10.0304 0
M  V30 3967 H 523.655 1.41843 9.55327 0
M  V30 3968 H 526.294 -1.95734 6.03555 0
M  V30 3969 P 528.152 -1.25109 8.70152 0
M  V30 3970 O 529.574 -1.35274 9.21221 0
M  V30 3971 O 527.792 -0.0769065 7.84762 0
M  V30 3972 O 527.829 -2.55232 7.81161 0
M  V30 3973 C 527.669 -3.79939 8.58154 0
M  V30 3974 C 528.209 -4.94023 7.72785 0
M  V30 3975 O 527.153 -5.18726 6.91205 0
M  V30 3976 C 529.427 -4.69597 6.85231 0
M  V30 3977 O 530.165 -5.83832 6.51337 0
M  V30 3978 C 528.758 -3.96706 5.66633 0
M  V30 3979 O 529.557 -4.15414 4.49689 0
M  V30 3980 C 527.421 -4.66153 5.59313 0
M  V30 3981 H 527.453 -5.47679 4.85214 0
M  V30 3982 H 528.636 -2.89008 5.86566 0
M  V30 3983 H 530.12 -4.0121 7.36511 0
M  V30 3984 H 528.426 -5.80182 8.37584 0
M  V30 3985 H 528.236 -3.73517 9.52265 0
M  V30 3986 H 526.606 -3.97163 8.80359 0
M  V30 3987 H 529.245 -4.90969 4.01921 0
M  V30 3988 P 531.103 -5.75688 6.64379 0
M  V30 3989 O 532.504 -6.11991 7.09136 0
M  V30 3990 O 530.725 -4.30899 6.62018 0
M  V30 3991 O 530.78 -6.36965 5.19102 0
M  V30 3992 C 530.62 -7.83578 5.16515 0
M  V30 3993 C 531.16 -8.33307 3.82977 0
M  V30 3994 O 530.104 -8.0998 3.00999 0
M  V30 3995 C 532.377 -7.65514 3.2257 0
M  V30 3996 O 533.116 -8.4329 2.32297 0
M  V30 3997 C 531.71 -6.40075 2.62207 0
M  V30 3998 O 532.508 -5.92492 1.53687 0
M  V30 3999 C 530.372 -6.9454 2.18503 0
M  V30 4000 N 529.329 -5.95905 2.39948 0
M  V30 4001 C 528.294 -5.89764 1.49837 0
M  V30 4002 O 528.333 -6.64088 0.490975 0
M  V30 4003 N 527.282 -5.02821 1.70992 0
M  V30 4004 C 527.33 -4.21498 2.77236 0
M  V30 4005 N 526.32 -3.37475 2.96465 0
M  V30 4006 C 528.426 -4.23389 3.68205 0
M  V30 4007 C 529.392 -5.12792 3.46171 0
M  V30 4008 H 530.404 -7.22964 1.12076 0
M  V30 4009 H 531.587 -5.60502 3.36589 0
M  V30 4010 H 533.071 -7.36197 4.01993 0
M  V30 4011 H 531.377 -9.41302 3.90009 0
M  V30 4012 H 531.186 -8.29056 5.99158 0
M  V30 4013 H 529.556 -8.09989 5.25828 0
M  V30 4014 H 528.474 -3.54747 4.52399 0
M  V30 4015 H 530.238 -5.18551 4.1489 0
M  V30 4016 H 525.53 -3.36058 2.30304 0
M  V30 4017 H 526.325 -2.73846 3.77171 0
M  V30 4018 H 532.292 -6.40705 0.751752 0
M  V30 4019 P 534.053 -8.4349 2.47671 0
M  V30 4020 O 535.475 -8.94167 2.5964 0
M  V30 4021 O 533.693 -7.1704 3.19006 0
M  V30 4022 O 533.73 -8.16596 0.923387 0
M  V30 4023 C 533.57 -9.38437 0.108857 0
M  V30 4024 C 534.11 -9.08175 -1.28353 0
M  V30 4025 O 533.054 -8.44229 -1.84713 0
M  V30 4026 C 535.328 -8.18386 -1.42505 0
M  V30 4027 O 536.066 -8.3501 -2.60497 0
M  V30 4028 C 534.659 -6.80225 -1.25468 0
M  V30 4029 O 535.458 -5.81621 -1.91066 0
M  V30 4030 C 533.322 -7.02416 -1.9168 0
M  V30 4031 H 533.354 -6.6888 -2.96621 0
M  V30 4032 H 534.537 -6.53617 -0.192223 0
M  V30 4033 H 536.021 -8.36622 -0.589963 0
M  V30 4034 H 534.327 -10.0291 -1.79807 0
M  V30 4035 H 534.137 -10.2138 0.558219 0
M  V30 4036 H 532.507 -9.6579 0.0444202 0
M  V30 4037 H 535.146 -5.69556 -2.79637 0
M  V30 4038 P 537.004 -8.4349 -2.47671 0
M  V30 4039 O 538.426 -8.92593 -2.65 0
M  V30 4040 O 536.644 -7.7568 -1.19296 0
M  V30 4041 O 536.681 -7.36886 -3.63805 0
M  V30 4042 C 536.521 -7.95349 -4.982 0
M  V30 4043 C 537.061 -6.94612 -5.98974 0
M  V30 4044 O 536.005 -6.10347 -6.11815 0
M  V30 4045 C 538.279 -6.11426 -5.62335 0
M  V30 4046 O 539.017 -5.6162 -6.70584 0
M  V30 4047 C 537.61 -5.04409 -4.73308 0
M  V30 4048 O 538.409 -3.85992 -4.75183 0
M  V30 4049 C 536.273 -4.8728 -5.41006 0
M  V30 4050 H 536.305 -4.02333 -6.11157 0
M  V30 4051 H 537.488 -5.39466 -3.69543 0
M  V30 4052 H 538.972 -6.71916 -5.01943 0
M  V30 4053 H 537.278 -7.4649 -6.93477 0
M  V30 4054 H 537.088 -8.89416 -5.05237 0
M  V30 4055 H 535.458 -8.14876 -5.18409 0
M  V30 4056 H 538.097 -3.27957 -5.4317 0
M  V30 4057 P 539.954 -5.75688 -6.64379 0
M  V30 4058 O 541.376 -6.07627 -7.05504 0
M  V30 4059 O 539.594 -5.88047 -5.19722 0
M  V30 4060 O 539.631 -4.2322 -7.04443 0
M  V30 4061 C 539.471 -3.99743 -8.4911 0
M  V30 4062 C 540.011 -2.60516 -8.79425 0
M  V30 4063 O 538.955 -1.82684 -8.4467 0
M  V30 4064 C 541.229 -2.10343 -8.03628 0
M  V30 4065 O 541.967 -1.09919 -8.67766 0
M  V30 4066 C 540.56 -1.68446 -6.70876 0
M  V30 4067 O 541.359 -0.678137 -6.08433 0
M  V30 4068 C 539.223 -1.17436 -7.18567 0
M  V30 4069 H 539.255 -0.0804732 -7.31656 0
M  V30 4070 H 540.438 -2.54037 -6.02537 0
M  V30 4071 H 541.922 -2.93881 -7.85526 0
M  V30 4072 H 540.228 -2.53065 -9.86973 0
M  V30 4073 H 540.038 -4.75072 -9.05887 0
M  V30 4074 H 538.408 -4.05244 -8.76668 0
M  V30 4075 H 541.047 0.177647 -6.34251 0
M  V30 4076 P 542.905 -1.25109 -8.70152 0
M  V30 4077 O 544.326 -1.29758 -9.22115 0
M  V30 4078 O 542.545 -2.13714 -7.55141 0
M  V30 4079 O 542.582 0.248149 -8.21425 0
M  V30 4080 C 542.421 1.22792 -9.30533 0
M  V30 4081 C 542.962 2.56293 -8.80664 0
M  V30 4082 O 541.907 3.02944 -8.09255 0
M  V30 4083 C 544.18 2.57523 -7.89775 0
M  V30 4084 O 544.918 3.7668 -7.89438 0
M  V30 4085 C 543.512 2.20997 -6.55446 0
M  V30 4086 O 544.31 2.71302 -5.48691 0
M  V30 4087 C 542.174 2.89693 -6.67988 0
M  V30 4088 N 541.131 2.08895 -6.07487 0
M  V30 4089 C 541.3 0.753809 -5.94137 0
M  V30 4090 N 540.273 0.146592 -5.38801 0
M  V30 4091 C 539.388 1.1768 -5.13693 0
M  V30 4092 C 538.121 1.17563 -4.52477 0
M  V30 4093 N 537.556 2.41918 -4.45789 0
M  V30 4094 C 538.158 3.56493 -4.90792 0
M  V30 4095 N 539.335 3.61423 -5.47817 0
M  V30 4096 C 539.91 2.37779 -5.5588 0
M  V30 4097 H 543.389 1.12673 -6.44018 0
M  V30 4098 H 544.872 1.7746 -8.19711 0
M  V30 4099 H 543.178 3.21673 -9.66791 0
M  V30 4100 H 542.988 0.901032 -10.1892 0
M  V30 4101 H 541.358 1.33049 -9.56592 0
M  V30 4102 H 542.2 0.233081 -6.26266 0
M  V30 4103 H 543.998 3.5779 -5.23879 0
M  V30 4104 P 545.855 3.65191 -7.99657 0
M  V30 4105 O 547.277 3.89416 -8.45976 0
M  V30 4106 O 545.495 2.28472 -7.50807 0
M  V30 4107 O 545.532 4.64972 -6.77611 0
M  V30 4108 C 545.372 6.06319 -7.16352 0
M  V30 4109 C 545.912 6.91655 -6.02234 0
M  V30 4110 O 544.857 6.92449 -5.17064 0
M  V30 4111 C 547.13 6.43627 -5.25174 0
M  V30 4112 O 547.868 7.43686 -4.60469 0
M  V30 4113 C 546.462 5.40275 -4.31916 0
M  V30 4114 O 547.26 5.25193 -3.14386 0
M  V30 4115 C 545.124 6.04847 -4.05327 0
M  V30 4116 N 544.081 5.04166 -3.98114 0
M  V30 4117 C 544.143 3.96049 -4.75587 0
M  V30 4118 N 543.098 3.15559 -4.54006 0
M  V30 4119 C 542.364 3.78802 -3.62491 0
M  V30 4120 C 541.058 3.476 -3.10071 0
M  V30 4121 O 540.325 2.51136 -3.37021 0
M  V30 4122 N 540.628 4.39088 -2.19956 0
M  V30 4123 C 541.377 5.53215 -1.81733 0
M  V30 4124 N 540.78 6.31963 -0.860928 0
M  V30 4125 N 542.53 5.86688 -2.32562 0
M  V30 4126 C 542.987 4.97525 -3.23407 0
M  V30 4127 H 545.156 6.62195 -3.11261 0
M  V30 4128 H 546.339 4.42488 -4.8131 0
M  V30 4129 H 547.824 5.93051 -5.9305 0
M  V30 4130 H 546.129 7.92655 -6.402 0
M  V30 4131 H 545.939 6.26671 -8.0846 0
M  V30 4132 H 544.308 6.29101 -7.32804 0
M  V30 4133 H 539.732 4.25523 -1.77604 0
M  V30 4134 H 544.939 3.75576 -5.47333 0
M  V30 4135 H 539.869 6.04684 -0.468946 0
M  V30 4136 H 541.245 7.18054 -0.542422 0
M  V30 4137 H 546.949 5.84223 -2.47279 0
M  V30 4138 P 548.806 7.39546 -4.75277 0
M  V30 4139 O 550.228 7.84798 -5.01039 0
M  V30 4140 O 548.446 5.9812 -5.08098 0
M  V30 4141 O 548.483 7.57503 -3.1866 0
M  V30 4142 C 548.323 8.97357 -2.74833 0
M  V30 4143 C 548.863 9.07548 -1.32709 0
M  V30 4144 O 547.807 8.62072 -0.606159 0
M  V30 4145 C 550.081 8.25383 -0.938334 0
M  V30 4146 O 550.819 8.74577 0.146954 0
M  V30 4147 C 549.412 6.8802 -0.712559 0
M  V30 4148 O 550.211 6.1189 0.194655 0
M  V30 4149 C 548.075 7.27966 -0.139777 0
M  V30 4150 H 548.107 7.25354 0.961601 0
M  V30 4151 H 549.29 6.32557 -1.65702 0
M  V30 4152 H 550.774 8.19355 -1.79097 0
M  V30 4153 H 549.08 10.1294 -1.10029 0
M  V30 4154 H 548.89 9.64276 -3.41316 0
M  V30 4155 H 547.26 9.25417 -2.76357 0
M  V30 4156 H 549.899 6.25267 1.07847 0
M  V30 4157 P 551.757 8.791 3.52383e-12 0
M  V30 4158 O 553.158 9.36698 -0.018734 0
M  V30 4159 O 551.379 7.82499 -1.07878 0
M  V30 4160 O 551.434 8.09434 1.41446 0
M  V30 4161 C 551.274 9.0349 2.53943 0
M  V30 4162 C 551.814 8.35135 3.78975 0
M  V30 4163 O 550.758 7.57904 4.1503 0
M  V30 4164 C 553.031 7.45087 3.67298 0
M  V30 4165 O 553.77 7.27796 4.85194 0
M  V30 4166 C 552.364 6.17323 3.12027 0
M  V30 4167 O 553.162 5.04149 3.47132 0
M  V30 4168 C 551.026 6.19961 3.81809 0
M  V30 4169 N 549.983 5.71575 2.93223 0
M  V30 4170 C 548.948 4.99452 3.47592 0
M  V30 4171 O 548.987 4.7199 4.69732 0
M  V30 4172 N 547.936 4.58505 2.6803 0
M  V30 4173 C 547.984 4.85544 1.36995 0
M  V30 4174 C 549.08 5.55532 0.788532 0
M  V30 4175 C 550.046 5.97426 1.60849 0
M  V30 4176 H 551.058 5.58142 4.72986 0
M  V30 4177 H 552.241 6.21428 2.0318 0
M  V30 4178 H 553.725 7.85913 2.93131 0
M  V30 4179 H 552.031 9.11171 4.55987 0
M  V30 4180 H 551.84 9.9573 2.34194 0
M  V30 4181 H 550.21 9.27824 2.67805 0
M  V30 4182 H 549.128 5.7421 -0.281588 0
M  V30 4183 H 550.892 6.53132 1.202 0
M  V30 4184 H 552.946 4.76386 4.34983 0
M  V30 4185 P 554.707 7.39546 4.75277 0
M  V30 4186 O 556.129 7.81777 5.05738 0
M  V30 4187 O 554.347 7.1065 3.32998 0
M  V30 4188 O 554.384 6.04542 5.56673 0
M  V30 4189 C 554.224 6.22772 7.02095 0
M  V30 4190 C 554.764 4.97725 7.70406 0
M  V30 4191 O 553.708 4.13256 7.58987 0
M  V30 4192 C 555.982 4.28231 7.11815 0
M  V30 4193 O 556.72 3.49945 8.01648 0
M  V30 4194 C 555.313 3.5063 5.96244 0
M  V30 4195 O 556.112 2.36482 5.64681 0
M  V30 4196 C 553.976 3.15122 6.56374 0
M  V30 4197 H 554.008 2.13853 6.99751 0
M  V30 4198 H 555.191 4.13501 5.06559 0
M  V30 4199 H 556.675 5.03285 6.70911 0
M  V30 4200 H 554.981 5.20877 8.75697 0
M  V30 4201 H 554.791 7.11046 7.35349 0
M  V30 4202 H 553.161 6.35815 7.26986 0
M  V30 4203 H 555.8 1.61644 6.13565 0
M  V30 4204 P 557.658 3.65191 7.99657 0
M  V30 4205 O 559.08 3.8425 8.48115 0
M  V30 4206 O 557.298 4.17805 6.64342 0
M  V30 4207 O 557.335 2.07613 7.95143 0
M  V30 4208 C 557.175 1.44328 9.27336 0
M  V30 4209 C 557.715 0.0220036 9.17197 0
M  V30 4210 O 556.659 -0.626867 8.61923 0
M  V30 4211 C 558.933 -0.24586 8.30336 0
M  V30 4212 O 559.671 -1.39011 8.63583 0
M  V30 4213 C 558.264 -0.273849 6.91158 0
M  V30 4214 O 559.063 -1.06348 6.02892 0
M  V30 4215 C 556.927 -0.897649 7.22545 0
M  V30 4216 H 556.959 -1.9841 7.04286 0
M  V30 4217 H 558.142 0.739928 6.497 0
M  V30 4218 H 559.626 0.60668 8.36503 0
M  V30 4219 H 557.932 -0.352479 10.1829 0
M  V30 4220 H 557.742 2.00611 10.0304 0
M  V30 4221 H 556.112 1.41843 9.55327 0
M  V30 4222 H 558.751 -1.95734 6.03555 0
M  V30 4223 P 560.608 -1.25109 8.70152 0
M  V30 4224 O 562.03 -1.35274 9.21221 0
M  V30 4225 O 560.248 -0.0769065 7.84762 0
M  V30 4226 O 560.285 -2.55232 7.81161 0
M  V30 4227 C 560.125 -3.79939 8.58154 0
M  V30 4228 C 560.665 -4.94023 7.72785 0
M  V30 4229 O 559.609 -5.18726 6.91205 0
M  V30 4230 C 561.883 -4.69597 6.85231 0
M  V30 4231 O 562.621 -5.83832 6.51337 0
M  V30 4232 C 561.214 -3.96706 5.66633 0
M  V30 4233 O 562.013 -4.15414 4.49689 0
M  V30 4234 C 559.877 -4.66153 5.59313 0
M  V30 4235 H 559.909 -5.47679 4.85214 0
M  V30 4236 H 561.092 -2.89008 5.86566 0
M  V30 4237 H 562.576 -4.0121 7.36511 0
M  V30 4238 H 560.882 -5.80182 8.37584 0
M  V30 4239 H 560.692 -3.73517 9.52265 0
M  V30 4240 H 559.062 -3.97163 8.80359 0
M  V30 4241 H 561.701 -4.90969 4.01921 0
M  V30 4242 P 563.559 -5.75688 6.64379 0
M  V30 4243 O 564.981 -6.11849 7.01846 0
M  V30 4244 O 563.199 -4.30744 6.56026 0
M  V30 4245 O 563.236 -6.37042 5.19165 0
M  V30 4246 C 563.076 -7.83578 5.16515 0
M  V30 4247 C 563.616 -8.33398 3.83019 0
M  V30 4248 O 562.56 -8.10074 3.01034 0
M  V30 4249 C 564.834 -7.65514 3.2257 0
M  V30 4250 O 565.572 -8.4329 2.32297 0
M  V30 4251 C 564.165 -6.40075 2.62207 0
M  V30 4252 O 564.964 -5.92589 1.53712 0
M  V30 4253 C 562.828 -6.9454 2.18503 0
M  V30 4254 H 562.86 -7.23063 1.12091 0
M  V30 4255 H 564.043 -5.6025 3.37201 0
M  V30 4256 H 565.527 -7.35707 4.02681 0
M  V30 4257 H 563.833 -9.40912 3.9095 0
M  V30 4258 H 563.643 -8.29056 5.99158 0
M  V30 4259 H 562.013 -8.10073 5.25882 0
M  V30 4260 H 564.652 -6.30324 0.726794 0
M  V30 4261 P 566.509 -8.4349 2.47671 0
M  V30 4262 O 567.931 -8.94167 2.5964 0
M  V30 4263 O 566.149 -7.1704 3.19006 0
M  V30 4264 O 566.186 -8.16596 0.923387 0
M  V30 4265 C 566.026 -9.38437 0.108857 0
M  V30 4266 C 566.566 -9.08175 -1.28353 0
M  V30 4267 O 565.51 -8.44229 -1.84713 0
M  V30 4268 C 567.784 -8.18386 -1.42505 0
M  V30 4269 O 568.522 -8.3501 -2.60497 0
M  V30 4270 C 567.115 -6.80225 -1.25468 0
M  V30 4271 O 567.914 -5.81621 -1.91066 0
M  V30 4272 C 565.778 -7.02416 -1.9168 0
M  V30 4273 H 565.81 -6.6888 -2.96621 0
M  V30 4274 H 566.993 -6.53617 -0.192223 0
M  V30 4275 H 568.477 -8.36622 -0.589963 0
M  V30 4276 H 566.783 -10.0291 -1.79807 0
M  V30 4277 H 566.593 -10.2138 0.558219 0
M  V30 4278 H 564.963 -9.6579 0.0444202 0
M  V30 4279 H 567.602 -5.69556 -2.79637 0
M  V30 4280 P 569.46 -8.4349 -2.47671 0
M  V30 4281 O 570.881 -8.92689 -2.65029 0
M  V30 4282 O 569.1 -7.7568 -1.19296 0
M  V30 4283 O 569.137 -7.36886 -3.63805 0
M  V30 4284 C 568.976 -7.95433 -4.98253 0
M  V30 4285 C 569.517 -6.94612 -5.98974 0
M  V30 4286 O 568.462 -6.10277 -6.11744 0
M  V30 4287 C 570.735 -6.11426 -5.62335 0
M  V30 4288 O 571.473 -5.6162 -6.70584 0
M  V30 4289 C 570.067 -5.04409 -4.73308 0
M  V30 4290 O 570.865 -3.86404 -4.74719 0
M  V30 4291 C 568.729 -4.8728 -5.41006 0
M  V30 4292 N 567.686 -4.65812 -4.42377 0
M  V30 4293 C 567.855 -5.09132 -3.15382 0
M  V30 4294 N 566.828 -4.84021 -2.3716 0
M  V30 4295 C 565.943 -4.18386 -3.20441 0
M  V30 4296 C 564.676 -3.6275 -2.94905 0
M  V30 4297 N 564.111 -3.05008 -4.05243 0
M  V30 4298 C 564.713 -2.98348 -5.28159 0
M  V30 4299 N 565.89 -3.48171 -5.56333 0
M  V30 4300 C 566.465 -4.06869 -4.47212 0
M  V30 4301 H 569.944 -5.39013 -3.70026 0
M  V30 4302 H 571.427 -6.71916 -5.01943 0
M  V30 4303 H 569.733 -7.45796 -6.94223 0
M  V30 4304 H 569.543 -8.89416 -5.05237 0
M  V30 4305 H 567.913 -8.14876 -5.18409 0
M  V30 4306 H 568.755 -5.59989 -2.81362 0
M  V30 4307 H 570.553 -3.27906 -5.43085 0
M  V30 4308 P 572.411 -5.75688 -6.64379 0
M  V30 4309 O 573.833 -6.07627 -7.05504 0
M  V30 4310 O 572.051 -5.88047 -5.19722 0
M  V30 4311 O 572.088 -4.2322 -7.04443 0
M  V30 4312 C 571.928 -3.99743 -8.4911 0
M  V30 4313 C 572.468 -2.60516 -8.79425 0
M  V30 4314 O 571.412 -1.82684 -8.4467 0
M  V30 4315 C 573.686 -2.10343 -8.03628 0
M  V30 4316 O 574.424 -1.09919 -8.67766 0
M  V30 4317 C 573.017 -1.68446 -6.70876 0
M  V30 4318 O 573.816 -0.678137 -6.08433 0
M  V30 4319 C 571.68 -1.17436 -7.18567 0
M  V30 4320 H 571.712 -0.0804732 -7.31656 0
M  V30 4321 H 572.895 -2.54037 -6.02537 0
M  V30 4322 H 574.379 -2.93881 -7.85526 0
M  V30 4323 H 572.685 -2.53065 -9.86973 0
M  V30 4324 H 572.495 -4.75072 -9.05887 0
M  V30 4325 H 570.865 -4.05244 -8.76668 0
M  V30 4326 H 573.504 0.177647 -6.34251 0
M  V30 4327 P 575.361 -1.25109 -8.70152 0
M  V30 4328 O 576.783 -1.29772 -9.22214 0
M  V30 4329 O 575.001 -2.13714 -7.55141 0
M  V30 4330 O 575.038 0.248149 -8.21425 0
M  V30 4331 C 574.878 1.22779 -9.30434 0
M  V30 4332 C 575.418 2.56265 -8.80568 0
M  V30 4333 O 574.363 3.02979 -8.09349 0
M  V30 4334 C 576.636 2.57523 -7.89775 0
M  V30 4335 O 577.374 3.7668 -7.89438 0
M  V30 4336 C 575.968 2.20997 -6.55446 0
M  V30 4337 O 576.766 2.71851 -5.48419 0
M  V30 4338 C 574.63 2.89693 -6.67988 0
M  V30 4339 N 573.587 2.08895 -6.07487 0
M  V30 4340 C 573.649 0.760559 -6.14209 0
M  V30 4341 N 572.604 0.200108 -5.52538 0
M  V30 4342 C 571.87 1.22692 -5.09742 0
M  V30 4343 C 570.564 1.24782 -4.48775 0
M  V30 4344 O 569.831 0.290617 -4.19294 0
M  V30 4345 N 570.134 2.50468 -4.22428 0
M  V30 4346 C 570.883 3.67142 -4.51974 0
M  V30 4347 N 570.286 4.85096 -4.14091 0
M  V30 4348 N 572.036 3.67821 -5.12831 0
M  V30 4349 C 572.493 2.43698 -5.4105 0
M  V30 4350 H 574.662 3.88793 -6.19859 0
M  V30 4351 H 575.845 1.12029 -6.4413 0
M  V30 4352 H 577.33 1.78279 -8.19533 0
M  V30 4353 H 575.635 3.20706 -9.67112 0
M  V30 4354 H 575.445 0.901032 -10.1892 0
M  V30 4355 H 573.814 1.33049 -9.56592 0
M  V30 4356 H 569.238 2.61953 -3.79465 0
M  V30 4357 H 574.445 0.200439 -6.63497 0
M  V30 4358 H 569.375 4.8334 -3.66367 0
M  V30 4359 H 570.751 5.7474 -4.33841 0
M  V30 4360 H 576.455 3.5779 -5.23879 0
M  V30 4361 P 578.312 3.65191 -7.99657 0
M  V30 4362 O 579.733 3.89374 -8.45885 0
M  V30 4363 O 577.952 2.28472 -7.50807 0
M  V30 4364 O 577.989 4.64972 -6.77611 0
M  V30 4365 C 577.828 6.06383 -7.16428 0
M  V30 4366 C 578.369 6.91731 -6.02299 0
M  V30 4367 O 577.314 6.92369 -5.17005 0
M  V30 4368 C 579.587 6.43627 -5.25174 0
M  V30 4369 O 580.325 7.43686 -4.60469 0
M  V30 4370 C 578.919 5.40275 -4.31916 0
M  V30 4371 O 579.717 5.24878 -3.14911 0
M  V30 4372 C 577.581 6.04847 -4.05327 0
M  V30 4373 N 576.538 5.04166 -3.98114 0
M  V30 4374 C 576.707 3.84629 -4.59066 0
M  V30 4375 N 575.68 3.0363 -4.45343 0
M  V30 4376 C 574.795 3.76722 -3.68523 0
M  V30 4377 C 573.528 3.43528 -3.17088 0
M  V30 4378 N 572.963 4.44526 -2.44231 0
M  V30 4379 C 573.565 5.65243 -2.20146 0
M  V30 4380 N 574.742 6.00221 -2.65453 0
M  V30 4381 C 575.317 5.00564 -3.39083 0
M  V30 4382 H 578.796 4.42969 -4.80867 0
M  V30 4383 H 580.279 5.92458 -5.93643 0
M  V30 4384 H 578.585 7.93295 -6.39407 0
M  V30 4385 H 578.395 6.26671 -8.0846 0
M  V30 4386 H 576.765 6.29101 -7.32804 0
M  V30 4387 H 577.607 3.58193 -5.14248 0
M  V30 4388 H 579.405 5.84223 -2.47279 0
M  V30 4389 P 581.262 7.39546 -4.75277 0
M  V30 4390 O 582.684 7.84798 -5.01039 0
M  V30 4391 O 580.902 5.9812 -5.08098 0
M  V30 4392 O 580.939 7.57503 -3.1866 0
M  V30 4393 C 580.779 8.97357 -2.74833 0
M  V30 4394 C 581.319 9.07548 -1.32709 0
M  V30 4395 O 580.263 8.62072 -0.606159 0
M  V30 4396 C 582.537 8.25383 -0.938334 0
M  V30 4397 O 583.275 8.74577 0.146954 0
M  V30 4398 C 581.868 6.8802 -0.712559 0
M  V30 4399 O 582.667 6.1189 0.194655 0
M  V30 4400 C 580.531 7.27966 -0.139777 0
M  V30 4401 H 580.563 7.25354 0.961601 0
M  V30 4402 H 581.746 6.32557 -1.65702 0
M  V30 4403 H 583.23 8.19355 -1.79097 0
M  V30 4404 H 581.536 10.1294 -1.10029 0
M  V30 4405 H 581.346 9.64276 -3.41316 0
M  V30 4406 H 579.716 9.25417 -2.76357 0
M  V30 4407 H 582.355 6.25267 1.07847 0
M  V30 4408 P 584.213 8.791 3.834e-12 0
M  V30 4409 O 585.635 9.31096 0.027933 0
M  V30 4410 O 583.853 7.77869 -1.04071 0
M  V30 4411 O 583.89 8.09533 1.41463 0
M  V30 4412 C 583.73 9.0349 2.53943 0
M  V30 4413 C 584.27 8.35226 3.79016 0
M  V30 4414 O 583.214 7.57992 4.15078 0
M  V30 4415 C 585.488 7.45087 3.67298 0
M  V30 4416 O 586.226 7.27796 4.85194 0
M  V30 4417 C 584.819 6.17323 3.12027 0
M  V30 4418 O 585.618 5.04231 3.47188 0
M  V30 4419 C 583.482 6.19961 3.81809 0
M  V30 4420 H 583.514 5.58218 4.73051 0
M  V30 4421 H 584.697 6.21726 2.02589 0
M  V30 4422 H 586.181 7.86112 2.9231 0
M  V30 4423 H 584.487 9.11627 4.55076 0
M  V30 4424 H 584.297 9.9573 2.34194 0
M  V30 4425 H 582.667 9.2792 2.67832 0
M  V30 4426 H 585.306 4.67702 4.28772 0
M  V30 4427 P 587.163 7.39546 4.75277 0
M  V30 4428 O 588.584 7.81861 5.05793 0
M  V30 4429 O 586.803 7.1065 3.32998 0
M  V30 4430 O 586.84 6.04542 5.56673 0
M  V30 4431 C 586.679 6.22839 7.02169 0
M  V30 4432 C 587.22 4.97725 7.70406 0
M  V30 4433 O 586.165 4.13208 7.58899 0
M  V30 4434 C 588.438 4.28231 7.11815 0
M  V30 4435 O 589.176 3.49945 8.01648 0
M  V30 4436 C 587.77 3.5063 5.96244 0
M  V30 4437 O 588.568 2.37008 5.64352 0
M  V30 4438 C 586.432 3.15122 6.56374 0
M  V30 4439 N 585.389 3.22311 5.55692 0
M  V30 4440 C 585.558 3.99655 4.46046 0
M  V30 4441 N 584.531 3.97599 3.63918 0
M  V30 4442 C 583.646 3.11159 4.25334 0
M  V30 4443 C 582.379 2.64972 3.85157 0
M  V30 4444 N 581.814 1.78482 4.74759 0
M  V30 4445 C 582.416 1.37463 5.90819 0
M  V30 4446 N 583.593 1.7733 6.31889 0
M  V30 4447 C 584.168 2.64393 5.43725 0
M  V30 4448 H 587.647 4.12931 5.06895 0
M  V30 4449 H 589.13 5.03285 6.70911 0
M  V30 4450 H 587.436 5.20001 8.76217 0
M  V30 4451 H 587.246 7.11046 7.35349 0
M  V30 4452 H 585.616 6.35815 7.26986 0
M  V30 4453 H 586.458 4.58037 4.27732 0
M  V30 4454 H 588.256 1.61619 6.13468 0
M  V30 4455 P 590.114 3.65191 7.99657 0
M  V30 4456 O 591.535 3.84292 8.48206 0
M  V30 4457 O 589.754 4.17805 6.64342 0
M  V30 4458 O 589.791 2.07613 7.95143 0
M  V30 4459 C 589.63 1.44344 9.27435 0
M  V30 4460 C 590.171 0.0220036 9.17197 0
M  V30 4461 O 589.116 -0.626794 8.61824 0
M  V30 4462 C 591.389 -0.24586 8.30336 0
M  V30 4463 O 592.127 -1.39011 8.63583 0
M  V30 4464 C 590.721 -0.273849 6.91158 0
M  V30 4465 O 591.519 -1.05728 6.029 0
M  V30 4466 C 589.383 -0.897649 7.22545 0
M  V30 4467 N 588.34 -0.292839 6.41732 0
M  V30 4468 C 588.509 0.950603 5.91308 0
M  V30 4469 N 587.482 1.37732 5.21105 0
M  V30 4470 C 586.597 0.318109 5.26039 0
M  V30 4471 C 585.33 0.146766 4.6727 0
M  V30 4472 N 584.765 -1.06525 4.95887 0
M  V30 4473 C 585.367 -2.0378 5.71347 0
M  V30 4474 N 586.544 -1.92445 6.27451 0
M  V30 4475 C 587.119 -0.715382 6.00353 0
M  V30 4476 H 590.598 0.733318 6.49674 0
M  V30 4477 H 592.081 0.60668 8.36503 0
M  V30 4478 H 590.387 -0.362662 10.1825 0
M  V30 4479 H 590.197 2.00611 10.0304 0
M  V30 4480 H 588.567 1.41843 9.55327 0
M  V30 4481 H 589.409 1.54076 6.07465 0
M  V30 4482 H 591.207 -1.95704 6.0346 0
M  V30 4483 P 593.065 -1.25109 8.70152 0
M  V30 4484 O 594.487 -1.35274 9.21221 0
M  V30 4485 O 592.705 -0.0769065 7.84762 0
M  V30 4486 O 592.742 -2.55232 7.81161 0
M  V30 4487 C 592.582 -3.79939 8.58154 0
M  V30 4488 C 593.122 -4.94023 7.72785 0
M  V30 4489 O 592.066 -5.18726 6.91205 0
M  V30 4490 C 594.34 -4.69597 6.85231 0
M  V30 4491 O 595.078 -5.83832 6.51337 0
M  V30 4492 C 593.671 -3.96706 5.66633 0
M  V30 4493 O 594.47 -4.15414 4.49689 0
M  V30 4494 C 592.334 -4.66153 5.59313 0
M  V30 4495 H 592.366 -5.47679 4.85214 0
M  V30 4496 H 593.549 -2.89008 5.86566 0
M  V30 4497 H 595.033 -4.0121 7.36511 0
M  V30 4498 H 593.339 -5.80182 8.37584 0
M  V30 4499 H 593.149 -3.73517 9.52265 0
M  V30 4500 H 591.519 -3.97163 8.80359 0
M  V30 4501 H 594.158 -4.90969 4.01921 0
M  V30 4502 P 596.015 -5.75688 6.64379 0
M  V30 4503 O 597.437 -6.11849 7.01846 0
M  V30 4504 O 595.655 -4.30744 6.56026 0
M  V30 4505 O 595.692 -6.37042 5.19165 0
M  V30 4506 C 595.532 -7.83578 5.16515 0
M  V30 4507 C 596.072 -8.33398 3.83019 0
M  V30 4508 O 595.016 -8.10074 3.01034 0
M  V30 4509 C 597.29 -7.65514 3.2257 0
M  V30 4510 O 598.028 -8.4329 2.32297 0
M  V30 4511 C 596.621 -6.40075 2.62207 0
M  V30 4512 O 597.42 -5.92589 1.53712 0
M  V30 4513 C 595.284 -6.9454 2.18503 0
M  V30 4514 H 595.316 -7.23063 1.12091 0
M  V30 4515 H 596.499 -5.6025 3.37201 0
M  V30 4516 H 597.983 -7.35707 4.02681 0
M  V30 4517 H 596.289 -9.40912 3.9095 0
M  V30 4518 H 596.099 -8.29056 5.99158 0
M  V30 4519 H 594.469 -8.10073 5.25882 0
M  V30 4520 H 597.108 -6.30324 0.726794 0
M  V30 4521 P 598.966 -8.4349 2.47671 0
M  V30 4522 O 600.388 -8.94167 2.5964 0
M  V30 4523 O 598.606 -7.1704 3.19006 0
M  V30 4524 O 598.643 -8.16596 0.923387 0
M  V30 4525 C 598.483 -9.38437 0.108857 0
M  V30 4526 C 599.023 -9.08175 -1.28353 0
M  V30 4527 O 597.967 -8.44229 -1.84713 0
M  V30 4528 C 600.241 -8.18386 -1.42505 0
M  V30 4529 O 600.979 -8.3501 -2.60497 0
M  V30 4530 C 599.572 -6.80225 -1.25468 0
M  V30 4531 O 600.371 -5.81621 -1.91066 0
M  V30 4532 C 598.235 -7.02416 -1.9168 0
M  V30 4533 H 598.267 -6.6888 -2.96621 0
M  V30 4534 H 599.45 -6.53617 -0.192223 0
M  V30 4535 H 600.934 -8.36622 -0.589963 0
M  V30 4536 H 599.24 -10.0291 -1.79807 0
M  V30 4537 H 599.05 -10.2138 0.558219 0
M  V30 4538 H 597.42 -9.6579 0.0444202 0
M  V30 4539 H 600.059 -5.69556 -2.79637 0
M  V30 4540 P 601.916 -8.4349 -2.47671 0
M  V30 4541 O 603.338 -8.92593 -2.65 0
M  V30 4542 O 601.556 -7.7568 -1.19296 0
M  V30 4543 O 601.593 -7.36886 -3.63805 0
M  V30 4544 C 601.433 -7.95349 -4.982 0
M  V30 4545 C 601.973 -6.94612 -5.98974 0
M  V30 4546 O 600.917 -6.10347 -6.11815 0
M  V30 4547 C 603.191 -6.11426 -5.62335 0
M  V30 4548 O 603.929 -5.6162 -6.70584 0
M  V30 4549 C 602.522 -5.04409 -4.73308 0
M  V30 4550 O 603.321 -3.85992 -4.75183 0
M  V30 4551 C 601.185 -4.8728 -5.41006 0
M  V30 4552 H 601.217 -4.02333 -6.11157 0
M  V30 4553 H 602.4 -5.39466 -3.69543 0
M  V30 4554 H 603.884 -6.71916 -5.01943 0
M  V30 4555 H 602.19 -7.4649 -6.93477 0
M  V30 4556 H 602 -8.89416 -5.05237 0
M  V30 4557 H 600.37 -8.14876 -5.18409 0
M  V30 4558 H 603.009 -3.27957 -5.4317 0
M  V30 4559 P 604.867 -5.75688 -6.64379 0
M  V30 4560 O 606.289 -6.07627 -7.05504 0
M  V30 4561 O 604.507 -5.88047 -5.19722 0
M  V30 4562 O 604.544 -4.2322 -7.04443 0
M  V30 4563 C 604.384 -3.99743 -8.4911 0
M  V30 4564 C 604.924 -2.60516 -8.79425 0
M  V30 4565 O 603.868 -1.82684 -8.4467 0
M  V30 4566 C 606.142 -2.10343 -8.03628 0
M  V30 4567 O 606.88 -1.09919 -8.67766 0
M  V30 4568 C 605.473 -1.68446 -6.70876 0
M  V30 4569 O 606.272 -0.678137 -6.08433 0
M  V30 4570 C 604.136 -1.17436 -7.18567 0
M  V30 4571 H 604.168 -0.0804732 -7.31656 0
M  V30 4572 H 605.351 -2.54037 -6.02537 0
M  V30 4573 H 606.835 -2.93881 -7.85526 0
M  V30 4574 H 605.141 -2.53065 -9.86973 0
M  V30 4575 H 604.951 -4.75072 -9.05887 0
M  V30 4576 H 603.321 -4.05244 -8.76668 0
M  V30 4577 H 605.96 0.177647 -6.34251 0
M  V30 4578 P 607.817 -1.25109 -8.70152 0
M  V30 4579 O 609.239 -1.29744 -9.22016 0
M  V30 4580 O 607.457 -2.13714 -7.55141 0
M  V30 4581 O 607.494 0.248149 -8.21425 0
M  V30 4582 C 607.334 1.22779 -9.30434 0
M  V30 4583 C 607.874 2.56293 -8.80664 0
M  V30 4584 O 606.818 3.02979 -8.09349 0
M  V30 4585 C 609.092 2.57523 -7.89775 0
M  V30 4586 O 609.83 3.7668 -7.89438 0
M  V30 4587 C 608.423 2.20997 -6.55446 0
M  V30 4588 O 609.222 2.71895 -5.48509 0
M  V30 4589 C 607.086 2.89693 -6.67988 0
M  V30 4590 H 607.118 3.88793 -6.19859 0
M  V30 4591 H 608.301 1.12046 -6.44229 0
M  V30 4592 H 609.785 1.7746 -8.19711 0
M  V30 4593 H 608.091 3.20706 -9.67112 0
M  V30 4594 H 607.901 0.901032 -10.1892 0
M  V30 4595 H 606.271 1.33049 -9.56592 0
M  V30 4596 H 608.91 3.57847 -5.23962 0
M  V30 4597 P 610.768 3.65191 -7.99657 0
M  V30 4598 O 612.19 3.89332 -8.45794 0
M  V30 4599 O 610.408 2.28472 -7.50807 0
M  V30 4600 O 610.445 4.64972 -6.77611 0
M  V30 4601 C 610.285 6.06319 -7.16352 0
M  V30 4602 C 610.825 6.91731 -6.02299 0
M  V30 4603 O 609.769 6.92449 -5.17064 0
M  V30 4604 C 612.043 6.43627 -5.25174 0
M  V30 4605 O 612.781 7.43686 -4.60469 0
M  V30 4606 C 611.374 5.40275 -4.31916 0
M  V30 4607 O 612.173 5.25279 -3.14438 0
M  V30 4608 C 610.037 6.04847 -4.05327 0
M  V30 4609 H 610.069 6.62195 -3.11261 0
M  V30 4610 H 611.252 4.42556 -4.81383 0
M  V30 4611 H 612.736 5.92458 -5.93643 0
M  V30 4612 H 611.042 7.92655 -6.402 0
M  V30 4613 H 610.852 6.26671 -8.0846 0
M  V30 4614 H 609.222 6.29101 -7.32804 0
M  V30 4615 H 611.861 5.84315 -2.47318 0
M  V30 4616 P 613.719 7.39546 -4.75277 0
M  V30 4617 O 615.141 7.84798 -5.01039 0
M  V30 4618 O 613.359 5.9812 -5.08098 0
M  V30 4619 O 613.396 7.57503 -3.1866 0
M  V30 4620 C 613.236 8.97357 -2.74833 0
M  V30 4621 C 613.776 9.07548 -1.32709 0
M  V30 4622 O 612.72 8.62072 -0.606159 0
M  V30 4623 C 614.994 8.25383 -0.938334 0
M  V30 4624 O 615.732 8.74577 0.146954 0
M  V30 4625 C 614.325 6.8802 -0.712559 0
M  V30 4626 O 615.124 6.1189 0.194655 0
M  V30 4627 C 612.988 7.27966 -0.139777 0
M  V30 4628 H 613.02 7.25354 0.961601 0
M  V30 4629 H 614.203 6.32557 -1.65702 0
M  V30 4630 H 615.687 8.19355 -1.79097 0
M  V30 4631 H 613.993 10.1294 -1.10029 0
M  V30 4632 H 613.803 9.64276 -3.41316 0
M  V30 4633 H 612.173 9.25417 -2.76357 0
M  V30 4634 H 614.812 6.25267 1.07847 0
M  V30 4635 P 616.669 8.791 4.14417e-12 0
M  V30 4636 O 618.09 9.31196 0.027936 0
M  V30 4637 O 616.309 7.77869 -1.04071 0
M  V30 4638 O 616.346 8.09533 1.41463 0
M  V30 4639 C 616.185 9.03587 2.5397 0
M  V30 4640 C 616.726 8.35226 3.79016 0
M  V30 4641 O 615.671 7.57904 4.1503 0
M  V30 4642 C 617.944 7.45087 3.67298 0
M  V30 4643 O 618.682 7.27796 4.85194 0
M  V30 4644 C 617.276 6.17323 3.12027 0
M  V30 4645 O 618.074 5.04496 3.46627 0
M  V30 4646 C 615.938 6.19961 3.81809 0
M  V30 4647 N 614.895 5.71575 2.93223 0
M  V30 4648 C 615.064 5.77362 1.59168 0
M  V30 4649 N 614.037 5.3123 0.911893 0
M  V30 4650 C 613.152 4.91717 1.89588 0
M  V30 4651 C 611.885 4.3114 1.8076 0
M  V30 4652 N 611.286 3.99821 0.632928 0
M  V30 4653 N 611.32 4.06823 3.02898 0
M  V30 4654 C 611.922 4.35062 4.22711 0
M  V30 4655 N 613.099 4.90805 4.35707 0
M  V30 4656 C 613.674 5.16382 3.14469 0
M  V30 4657 H 615.97 5.58142 4.72986 0
M  V30 4658 H 617.153 6.21428 2.0318 0
M  V30 4659 H 618.636 7.86112 2.9231 0
M  V30 4660 H 616.942 9.11171 4.55987 0
M  V30 4661 H 616.752 9.9573 2.34194 0
M  V30 4662 H 615.122 9.2792 2.67832 0
M  V30 4663 H 611.386 4.09052 5.13359 0
M  V30 4664 H 615.964 6.16575 1.12198 0
M  V30 4665 H 610.356 3.55423 0.632085 0
M  V30 4666 H 611.76 4.20317 -0.256712 0
M  V30 4667 H 617.762 4.67628 4.28704 0
M  V30 4668 P 619.62 7.39546 4.75277 0
M  V30 4669 O 621.042 7.81777 5.05738 0
M  V30 4670 O 619.26 7.1065 3.32998 0
M  V30 4671 O 619.297 6.04542 5.56673 0
M  V30 4672 C 619.137 6.22772 7.02095 0
M  V30 4673 C 619.677 4.97725 7.70406 0
M  V30 4674 O 618.621 4.13256 7.58987 0
M  V30 4675 C 620.895 4.28231 7.11815 0
M  V30 4676 O 621.633 3.49945 8.01648 0
M  V30 4677 C 620.226 3.5063 5.96244 0
M  V30 4678 O 621.025 2.36482 5.64681 0
M  V30 4679 C 618.889 3.15122 6.56374 0
M  V30 4680 H 618.921 2.13853 6.99751 0
M  V30 4681 H 620.104 4.13501 5.06559 0
M  V30 4682 H 621.588 5.03285 6.70911 0
M  V30 4683 H 619.894 5.20877 8.75697 0
M  V30 4684 H 619.704 7.11046 7.35349 0
M  V30 4685 H 618.074 6.35815 7.26986 0
M  V30 4686 H 620.713 1.61644 6.13565 0
M  V30 4687 P 622.57 3.65191 7.99657 0
M  V30 4688 O 623.971 3.90823 8.51272 0
M  V30 4689 O 622.192 4.23191 6.66972 0
M  V30 4690 O 622.247 2.07587 7.95046 0
M  V30 4691 C 622.087 1.44328 9.27336 0
M  V30 4692 C 622.627 0.0220012 9.17097 0
M  V30 4693 O 621.571 -0.626794 8.61824 0
M  V30 4694 C 623.844 -0.24586 8.30336 0
M  V30 4695 O 624.583 -1.39011 8.63583 0
M  V30 4696 C 623.177 -0.273849 6.91158 0
M  V30 4697 O 623.975 -1.06331 6.02794 0
M  V30 4698 C 621.839 -0.897649 7.22545 0
M  V30 4699 N 620.796 -0.292839 6.41732 0
M  V30 4700 C 619.761 -1.08701 5.98712 0
M  V30 4701 O 619.8 -2.31211 6.24471 0
M  V30 4702 N 618.749 -0.533391 5.28415 0
M  V30 4703 C 618.797 0.770866 4.98576 0
M  V30 4704 C 619.893 1.59049 5.38086 0
M  V30 4705 C 620.859 1.01866 6.10256 0
M  V30 4706 H 621.871 -1.98383 7.04189 0
M  V30 4707 H 623.054 0.733318 6.49674 0
M  V30 4708 H 624.538 0.598386 8.36663 0
M  V30 4709 H 622.844 -0.362662 10.1825 0
M  V30 4710 H 622.653 2.00611 10.0304 0
M  V30 4711 H 621.023 1.41828 9.55228 0
M  V30 4712 H 619.941 2.6415 5.10622 0
M  V30 4713 H 621.705 1.61983 6.44042 0
M  V30 4714 H 623.759 -1.97777 6.14035 0
M  V30 4715 P 625.521 -1.25109 8.70152 0
M  V30 4716 O 626.943 -1.35274 9.21221 0
M  V30 4717 O 625.161 -0.0769065 7.84762 0
M  V30 4718 O 625.198 -2.55232 7.81161 0
M  V30 4719 C 625.038 -3.79939 8.58154 0
M  V30 4720 C 625.578 -4.94023 7.72785 0
M  V30 4721 O 624.522 -5.18726 6.91205 0
M  V30 4722 C 626.796 -4.69597 6.85231 0
M  V30 4723 O 627.534 -5.83832 6.51337 0
M  V30 4724 C 626.127 -3.96706 5.66633 0
M  V30 4725 O 626.926 -4.15414 4.49689 0
M  V30 4726 C 624.79 -4.66153 5.59313 0
M  V30 4727 H 624.822 -5.47679 4.85214 0
M  V30 4728 H 626.005 -2.89008 5.86566 0
M  V30 4729 H 627.489 -4.0121 7.36511 0
M  V30 4730 H 625.795 -5.80182 8.37584 0
M  V30 4731 H 625.605 -3.73517 9.52265 0
M  V30 4732 H 623.975 -3.97163 8.80359 0
M  V30 4733 H 626.614 -4.90969 4.01921 0
M  V30 4734 P 628.471 -5.75688 6.64379 0
M  V30 4735 O 629.893 -6.11849 7.01846 0
M  V30 4736 O 628.111 -4.30744 6.56026 0
M  V30 4737 O 628.148 -6.37042 5.19165 0
M  V30 4738 C 627.988 -7.83578 5.16515 0
M  V30 4739 C 628.528 -8.33398 3.83019 0
M  V30 4740 O 627.472 -8.10074 3.01034 0
M  V30 4741 C 629.746 -7.65514 3.2257 0
M  V30 4742 O 630.484 -8.4329 2.32297 0
M  V30 4743 C 629.077 -6.40075 2.62207 0
M  V30 4744 O 629.876 -5.92589 1.53712 0
M  V30 4745 C 627.74 -6.9454 2.18503 0
M  V30 4746 H 627.772 -7.23063 1.12091 0
M  V30 4747 H 628.955 -5.6025 3.37201 0
M  V30 4748 H 630.439 -7.35707 4.02681 0
M  V30 4749 H 628.745 -9.40912 3.9095 0
M  V30 4750 H 628.555 -8.29056 5.99158 0
M  V30 4751 H 626.925 -8.10073 5.25882 0
M  V30 4752 H 629.564 -6.30324 0.726794 0
M  V30 4753 P 631.422 -8.4349 2.47671 0
M  V30 4754 O 632.844 -8.94167 2.5964 0
M  V30 4755 O 631.062 -7.1704 3.19006 0
M  V30 4756 O 631.099 -8.16596 0.923387 0
M  V30 4757 C 630.939 -9.38437 0.108857 0
M  V30 4758 C 631.479 -9.08175 -1.28353 0
M  V30 4759 O 630.423 -8.44229 -1.84713 0
M  V30 4760 C 632.697 -8.18386 -1.42505 0
M  V30 4761 O 633.435 -8.3501 -2.60497 0
M  V30 4762 C 632.028 -6.80225 -1.25468 0
M  V30 4763 O 632.827 -5.81621 -1.91066 0
M  V30 4764 C 630.691 -7.02416 -1.9168 0
M  V30 4765 H 630.723 -6.6888 -2.96621 0
M  V30 4766 H 631.906 -6.53617 -0.192223 0
M  V30 4767 H 633.39 -8.36622 -0.589963 0
M  V30 4768 H 631.696 -10.0291 -1.79807 0
M  V30 4769 H 631.506 -10.2138 0.558219 0
M  V30 4770 H 629.876 -9.6579 0.0444202 0
M  V30 4771 H 632.515 -5.69556 -2.79637 0
M  V30 4772 P 634.373 -8.4349 -2.47671 0
M  V30 4773 O 635.795 -8.92593 -2.65 0
M  V30 4774 O 634.013 -7.7568 -1.19296 0
M  V30 4775 O 634.05 -7.36886 -3.63805 0
M  V30 4776 C 633.89 -7.95349 -4.982 0
M  V30 4777 C 634.43 -6.94612 -5.98974 0
M  V30 4778 O 633.374 -6.10347 -6.11815 0
M  V30 4779 C 635.648 -6.11426 -5.62335 0
M  V30 4780 O 636.386 -5.6162 -6.70584 0
M  V30 4781 C 634.979 -5.04409 -4.73308 0
M  V30 4782 O 635.778 -3.85992 -4.75183 0
M  V30 4783 C 633.642 -4.8728 -5.41006 0
M  V30 4784 H 633.674 -4.02333 -6.11157 0
M  V30 4785 H 634.857 -5.39466 -3.69543 0
M  V30 4786 H 636.341 -6.71916 -5.01943 0
M  V30 4787 H 634.647 -7.4649 -6.93477 0
M  V30 4788 H 634.457 -8.89416 -5.05237 0
M  V30 4789 H 632.827 -8.14876 -5.18409 0
M  V30 4790 H 635.466 -3.27957 -5.4317 0
M  V30 4791 P 637.323 -5.75688 -6.64379 0
M  V30 4792 O 638.745 -6.07627 -7.05504 0
M  V30 4793 O 636.963 -5.88047 -5.19722 0
M  V30 4794 O 637 -4.2322 -7.04443 0
M  V30 4795 C 636.84 -3.99743 -8.4911 0
M  V30 4796 C 637.38 -2.60516 -8.79425 0
M  V30 4797 O 636.324 -1.82684 -8.4467 0
M  V30 4798 C 638.598 -2.10343 -8.03628 0
M  V30 4799 O 639.336 -1.09919 -8.67766 0
M  V30 4800 C 637.929 -1.68446 -6.70876 0
M  V30 4801 O 638.728 -0.678137 -6.08433 0
M  V30 4802 C 636.592 -1.17436 -7.18567 0
M  V30 4803 H 636.624 -0.0804732 -7.31656 0
M  V30 4804 H 637.807 -2.54037 -6.02537 0
M  V30 4805 H 639.291 -2.93881 -7.85526 0
M  V30 4806 H 637.597 -2.53065 -9.86973 0
M  V30 4807 H 637.407 -4.75072 -9.05887 0
M  V30 4808 H 635.777 -4.05244 -8.76668 0
M  V30 4809 H 638.416 0.177647 -6.34251 0
M  V30 4810 P 640.274 -1.25109 -8.70152 0
M  V30 4811 O 641.696 -1.29744 -9.22016 0
M  V30 4812 O 639.914 -2.13714 -7.55141 0
M  V30 4813 O 639.951 0.248149 -8.21425 0
M  V30 4814 C 639.791 1.22779 -9.30434 0
M  V30 4815 C 640.331 2.56293 -8.80664 0
M  V30 4816 O 639.275 3.02979 -8.09349 0
M  V30 4817 C 641.549 2.57523 -7.89775 0
M  V30 4818 O 642.287 3.7668 -7.89438 0
M  V30 4819 C 640.88 2.20997 -6.55446 0
M  V30 4820 O 641.679 2.71895 -5.48509 0
M  V30 4821 C 639.543 2.89693 -6.67988 0
M  V30 4822 H 639.575 3.88793 -6.19859 0
M  V30 4823 H 640.758 1.12046 -6.44229 0
M  V30 4824 H 642.242 1.7746 -8.19711 0
M  V30 4825 H 640.548 3.20706 -9.67112 0
M  V30 4826 H 640.358 0.901032 -10.1892 0
M  V30 4827 H 638.728 1.33049 -9.56592 0
M  V30 4828 H 641.367 3.57847 -5.23962 0
M  V30 4829 P 643.224 3.65191 -7.99657 0
M  V30 4830 O 644.645 3.89374 -8.45885 0
M  V30 4831 O 642.864 2.28472 -7.50807 0
M  V30 4832 O 642.901 4.64972 -6.77611 0
M  V30 4833 C 642.74 6.06383 -7.16428 0
M  V30 4834 C 643.281 6.91731 -6.02299 0
M  V30 4835 O 642.226 6.92369 -5.17005 0
M  V30 4836 C 644.499 6.43627 -5.25174 0
M  V30 4837 O 645.237 7.43686 -4.60469 0
M  V30 4838 C 643.831 5.40275 -4.31916 0
M  V30 4839 O 644.629 5.24878 -3.14911 0
M  V30 4840 C 642.493 6.04847 -4.05327 0
M  V30 4841 N 641.45 5.04166 -3.98114 0
M  V30 4842 C 641.619 3.84629 -4.59066 0
M  V30 4843 N 640.592 3.0363 -4.45343 0
M  V30 4844 C 639.707 3.76722 -3.68523 0
M  V30 4845 C 638.44 3.43528 -3.17088 0
M  V30 4846 N 637.841 2.23665 -3.37397 0
M  V30 4847 N 637.875 4.44526 -2.44231 0
M  V30 4848 C 638.477 5.65243 -2.20146 0
M  V30 4849 N 639.654 6.00221 -2.65453 0
M  V30 4850 C 640.229 5.00564 -3.39083 0
M  V30 4851 H 642.525 6.62104 -3.11218 0
M  V30 4852 H 643.708 4.42969 -4.80867 0
M  V30 4853 H 645.191 5.92458 -5.93643 0
M  V30 4854 H 643.497 7.93295 -6.39407 0
M  V30 4855 H 643.307 6.26671 -8.0846 0
M  V30 4856 H 641.677 6.29101 -7.32804 0
M  V30 4857 H 637.941 6.36894 -1.5883 0
M  V30 4858 H 642.519 3.58193 -5.14248 0
M  V30 4859 H 636.911 2.05145 -2.97047 0
M  V30 4860 H 638.315 1.51255 -3.92998 0
M  V30 4861 H 644.317 5.84223 -2.47279 0
M  V30 4862 P 646.175 7.39546 -4.75277 0
M  V30 4863 O 647.597 7.84798 -5.01039 0
M  V30 4864 O 645.815 5.9812 -5.08098 0
M  V30 4865 O 645.852 7.57503 -3.1866 0
M  V30 4866 C 645.692 8.97357 -2.74833 0
M  V30 4867 C 646.232 9.07548 -1.32709 0
M  V30 4868 O 645.176 8.62072 -0.606159 0
M  V30 4869 C 647.45 8.25383 -0.938334 0
M  V30 4870 O 648.188 8.74577 0.146954 0
M  V30 4871 C 646.781 6.8802 -0.712559 0
M  V30 4872 O 647.58 6.1189 0.194655 0
M  V30 4873 C 645.444 7.27966 -0.139777 0
M  V30 4874 H 645.476 7.25354 0.961601 0
M  V30 4875 H 646.659 6.32557 -1.65702 0
M  V30 4876 H 648.143 8.19355 -1.79097 0
M  V30 4877 H 646.449 10.1294 -1.10029 0
M  V30 4878 H 646.259 9.64276 -3.41316 0
M  V30 4879 H 644.629 9.25417 -2.76357 0
M  V30 4880 H 647.268 6.25267 1.07847 0
M  V30 4881 P 649.125 8.791 4.45433e-12 0
M  V30 4882 O 650.547 9.31096 0.027933 0
M  V30 4883 O 648.765 7.77869 -1.04071 0
M  V30 4884 O 648.802 8.09533 1.41463 0
M  V30 4885 C 648.642 9.0349 2.53943 0
M  V30 4886 C 649.182 8.35226 3.79016 0
M  V30 4887 O 648.126 7.57992 4.15078 0
M  V30 4888 C 650.4 7.45087 3.67298 0
M  V30 4889 O 651.138 7.27796 4.85194 0
M  V30 4890 C 649.731 6.17323 3.12027 0
M  V30 4891 O 650.53 5.04231 3.47188 0
M  V30 4892 C 648.394 6.19961 3.81809 0
M  V30 4893 H 648.426 5.58218 4.73051 0
M  V30 4894 H 649.609 6.21726 2.02589 0
M  V30 4895 H 651.093 7.86112 2.9231 0
M  V30 4896 H 649.399 9.11627 4.55076 0
M  V30 4897 H 649.209 9.9573 2.34194 0
M  V30 4898 H 647.579 9.2792 2.67832 0
M  V30 4899 H 650.218 4.67702 4.28772 0
M  V30 4900 P 652.076 7.39546 4.75277 0
M  V30 4901 O 653.498 7.81777 5.05738 0
M  V30 4902 O 651.716 7.1065 3.32998 0
M  V30 4903 O 651.753 6.04542 5.56673 0
M  V30 4904 C 651.593 6.22772 7.02095 0
M  V30 4905 C 652.133 4.97725 7.70406 0
M  V30 4906 O 651.077 4.13256 7.58987 0
M  V30 4907 C 653.351 4.28231 7.11815 0
M  V30 4908 O 654.089 3.49945 8.01648 0
M  V30 4909 C 652.682 3.5063 5.96244 0
M  V30 4910 O 653.481 2.36482 5.64681 0
M  V30 4911 C 651.345 3.15122 6.56374 0
M  V30 4912 H 651.377 2.13853 6.99751 0
M  V30 4913 H 652.56 4.13501 5.06559 0
M  V30 4914 H 654.044 5.03285 6.70911 0
M  V30 4915 H 652.35 5.20877 8.75697 0
M  V30 4916 H 652.16 7.11046 7.35349 0
M  V30 4917 H 650.53 6.35815 7.26986 0
M  V30 4918 H 653.169 1.61644 6.13565 0
M  V30 4919 P 655.027 3.65191 7.99657 0
M  V30 4920 O 656.448 3.84292 8.48206 0
M  V30 4921 O 654.667 4.17805 6.64342 0
M  V30 4922 O 654.704 2.07613 7.95143 0
M  V30 4923 C 654.543 1.44344 9.27435 0
M  V30 4924 C 655.084 0.0220036 9.17197 0
M  V30 4925 O 654.029 -0.626794 8.61824 0
M  V30 4926 C 656.302 -0.24586 8.30336 0
M  V30 4927 O 657.04 -1.39011 8.63583 0
M  V30 4928 C 655.634 -0.273849 6.91158 0
M  V30 4929 O 656.432 -1.05728 6.029 0
M  V30 4930 C 654.296 -0.897649 7.22545 0
M  V30 4931 N 653.253 -0.292839 6.41732 0
M  V30 4932 C 653.422 0.950603 5.91308 0
M  V30 4933 N 652.395 1.37732 5.21105 0
M  V30 4934 C 651.51 0.318109 5.26039 0
M  V30 4935 C 650.243 0.146766 4.6727 0
M  V30 4936 N 649.644 1.08519 3.89983 0
M  V30 4937 N 649.678 -1.06525 4.95887 0
M  V30 4938 C 650.28 -2.0378 5.71347 0
M  V30 4939 N 651.457 -1.92445 6.27451 0
M  V30 4940 C 652.032 -0.715382 6.00353 0
M  V30 4941 H 654.328 -1.98383 7.04189 0
M  V30 4942 H 655.511 0.733318 6.49674 0
M  V30 4943 H 656.994 0.60668 8.36503 0
M  V30 4944 H 655.3 -0.362662 10.1825 0
M  V30 4945 H 655.11 2.00611 10.0304 0
M  V30 4946 H 653.48 1.41843 9.55327 0
M  V30 4947 H 649.744 -2.97041 5.85344 0
M  V30 4948 H 654.322 1.54076 6.07465 0
M  V30 4949 H 648.714 0.901517 3.49562 0
M  V30 4950 H 650.118 1.97957 3.71669 0
M  V30 4951 H 656.12 -1.95704 6.0346 0
M  V30 4952 P 657.977 -1.25109 8.70152 0
M  V30 4953 O 659.399 -1.35274 9.21221 0
M  V30 4954 O 657.617 -0.0769065 7.84762 0
M  V30 4955 O 657.654 -2.55232 7.81161 0
M  V30 4956 C 657.494 -3.79939 8.58154 0
M  V30 4957 C 658.034 -4.94023 7.72785 0
M  V30 4958 O 656.978 -5.18726 6.91205 0
M  V30 4959 C 659.252 -4.69597 6.85231 0
M  V30 4960 O 659.99 -5.83832 6.51337 0
M  V30 4961 C 658.583 -3.96706 5.66633 0
M  V30 4962 O 659.382 -4.15414 4.49689 0
M  V30 4963 C 657.246 -4.66153 5.59313 0
M  V30 4964 H 657.278 -5.47679 4.85214 0
M  V30 4965 H 658.461 -2.89008 5.86566 0
M  V30 4966 H 659.945 -4.0121 7.36511 0
M  V30 4967 H 658.251 -5.80182 8.37584 0
M  V30 4968 H 658.061 -3.73517 9.52265 0
M  V30 4969 H 656.431 -3.97163 8.80359 0
M  V30 4970 H 659.07 -4.90969 4.01921 0
M  V30 4971 P 660.928 -5.75688 6.64379 0
M  V30 4972 O 662.35 -6.11849 7.01846 0
M  V30 4973 O 660.568 -4.30744 6.56026 0
M  V30 4974 O 660.605 -6.37042 5.19165 0
M  V30 4975 C 660.445 -7.83578 5.16515 0
M  V30 4976 C 660.985 -8.33398 3.83019 0
M  V30 4977 O 659.929 -8.10074 3.01034 0
M  V30 4978 C 662.203 -7.65514 3.2257 0
M  V30 4979 O 662.941 -8.4329 2.32297 0
M  V30 4980 C 661.534 -6.40075 2.62207 0
M  V30 4981 O 662.333 -5.92589 1.53712 0
M  V30 4982 C 660.197 -6.9454 2.18503 0
M  V30 4983 H 660.229 -7.23063 1.12091 0
M  V30 4984 H 661.412 -5.6025 3.37201 0
M  V30 4985 H 662.896 -7.35707 4.02681 0
M  V30 4986 H 661.202 -9.40912 3.9095 0
M  V30 4987 H 661.012 -8.29056 5.99158 0
M  V30 4988 H 659.382 -8.10073 5.25882 0
M  V30 4989 H 662.021 -6.30324 0.726794 0
M  V30 4990 P 663.878 -8.4349 2.47671 0
M  V30 4991 O 665.3 -8.94167 2.5964 0
M  V30 4992 O 663.518 -7.1704 3.19006 0
M  V30 4993 O 663.555 -8.16596 0.923387 0
M  V30 4994 C 663.395 -9.38437 0.108857 0
M  V30 4995 C 663.935 -9.08175 -1.28353 0
M  V30 4996 O 662.879 -8.44229 -1.84713 0
M  V30 4997 C 665.153 -8.18386 -1.42505 0
M  V30 4998 O 665.891 -8.3501 -2.60497 0
M  V30 4999 C 664.484 -6.80225 -1.25468 0
M  V30 5000 O 665.283 -5.81621 -1.91066 0
M  V30 5001 C 663.147 -7.02416 -1.9168 0
M  V30 5002 H 663.179 -6.6888 -2.96621 0
M  V30 5003 H 664.362 -6.53617 -0.192223 0
M  V30 5004 H 665.846 -8.36622 -0.589963 0
M  V30 5005 H 664.152 -10.0291 -1.79807 0
M  V30 5006 H 663.962 -10.2138 0.558219 0
M  V30 5007 H 662.332 -9.6579 0.0444202 0
M  V30 5008 H 664.971 -5.69556 -2.79637 0
M  V30 5009 P 666.829 -8.4349 -2.47671 0
M  V30 5010 O 668.251 -8.92593 -2.65 0
M  V30 5011 O 666.469 -7.7568 -1.19296 0
M  V30 5012 O 666.506 -7.36886 -3.63805 0
M  V30 5013 C 666.346 -7.95349 -4.982 0
M  V30 5014 C 666.886 -6.94612 -5.98974 0
M  V30 5015 O 665.83 -6.10347 -6.11815 0
M  V30 5016 C 668.104 -6.11426 -5.62335 0
M  V30 5017 O 668.842 -5.6162 -6.70584 0
M  V30 5018 C 667.435 -5.04409 -4.73308 0
M  V30 5019 O 668.234 -3.85992 -4.75183 0
M  V30 5020 C 666.098 -4.8728 -5.41006 0
M  V30 5021 H 666.13 -4.02333 -6.11157 0
M  V30 5022 H 667.313 -5.39466 -3.69543 0
M  V30 5023 H 668.797 -6.71916 -5.01943 0
M  V30 5024 H 667.103 -7.4649 -6.93477 0
M  V30 5025 H 666.913 -8.89416 -5.05237 0
M  V30 5026 H 665.283 -8.14876 -5.18409 0
M  V30 5027 H 667.922 -3.27957 -5.4317 0
M  V30 5028 P 669.779 -5.75688 -6.64379 0
M  V30 5029 O 671.201 -6.07627 -7.05504 0
M  V30 5030 O 669.419 -5.88047 -5.19722 0
M  V30 5031 O 669.456 -4.2322 -7.04443 0
M  V30 5032 C 669.296 -3.99743 -8.4911 0
M  V30 5033 C 669.836 -2.60516 -8.79425 0
M  V30 5034 O 668.78 -1.82684 -8.4467 0
M  V30 5035 C 671.054 -2.10343 -8.03628 0
M  V30 5036 O 671.792 -1.09919 -8.67766 0
M  V30 5037 C 670.385 -1.68446 -6.70876 0
M  V30 5038 O 671.184 -0.678137 -6.08433 0
M  V30 5039 C 669.048 -1.17436 -7.18567 0
M  V30 5040 H 669.08 -0.0804732 -7.31656 0
M  V30 5041 H 670.263 -2.54037 -6.02537 0
M  V30 5042 H 671.747 -2.93881 -7.85526 0
M  V30 5043 H 670.053 -2.53065 -9.86973 0
M  V30 5044 H 669.863 -4.75072 -9.05887 0
M  V30 5045 H 668.233 -4.05244 -8.76668 0
M  V30 5046 H 670.872 0.177647 -6.34251 0
M  V30 5047 P 672.73 -1.25109 -8.70152 0
M  V30 5048 O 674.152 -1.29744 -9.22016 0
M  V30 5049 O 672.37 -2.13714 -7.55141 0
M  V30 5050 O 672.407 0.248149 -8.21425 0
M  V30 5051 C 672.247 1.22779 -9.30434 0
M  V30 5052 C 672.787 2.56293 -8.80664 0
M  V30 5053 O 671.731 3.02979 -8.09349 0
M  V30 5054 C 674.005 2.57523 -7.89775 0
M  V30 5055 O 674.743 3.7668 -7.89438 0
M  V30 5056 C 673.336 2.20997 -6.55446 0
M  V30 5057 O 674.135 2.71895 -5.48509 0
M  V30 5058 C 671.999 2.89693 -6.67988 0
M  V30 5059 H 672.031 3.88793 -6.19859 0
M  V30 5060 H 673.214 1.12046 -6.44229 0
M  V30 5061 H 674.698 1.7746 -8.19711 0
M  V30 5062 H 673.004 3.20706 -9.67112 0
M  V30 5063 H 672.814 0.901032 -10.1892 0
M  V30 5064 H 671.184 1.33049 -9.56592 0
M  V30 5065 H 673.823 3.57847 -5.23962 0
M  V30 5066 P 675.681 3.65191 -7.99657 0
M  V30 5067 O 677.103 3.89332 -8.45794 0
M  V30 5068 O 675.321 2.28472 -7.50807 0
M  V30 5069 O 675.358 4.64972 -6.77611 0
M  V30 5070 C 675.198 6.06319 -7.16352 0
M  V30 5071 C 675.738 6.91731 -6.02299 0
M  V30 5072 O 674.682 6.92449 -5.17064 0
M  V30 5073 C 676.956 6.43627 -5.25174 0
M  V30 5074 O 677.694 7.43686 -4.60469 0
M  V30 5075 C 676.287 5.40275 -4.31916 0
M  V30 5076 O 677.086 5.25279 -3.14438 0
M  V30 5077 C 674.95 6.04847 -4.05327 0
M  V30 5078 H 674.982 6.62195 -3.11261 0
M  V30 5079 H 676.165 4.42556 -4.81383 0
M  V30 5080 H 677.649 5.92458 -5.93643 0
M  V30 5081 H 675.955 7.92655 -6.402 0
M  V30 5082 H 675.765 6.26671 -8.0846 0
M  V30 5083 H 674.135 6.29101 -7.32804 0
M  V30 5084 H 676.774 5.84315 -2.47318 0
M  V30 5085 P 678.631 7.39546 -4.75277 0
M  V30 5086 O 680.053 7.84798 -5.01039 0
M  V30 5087 O 678.271 5.9812 -5.08098 0
M  V30 5088 O 678.308 7.57503 -3.1866 0
M  V30 5089 C 678.148 8.97357 -2.74833 0
M  V30 5090 C 678.688 9.07548 -1.32709 0
M  V30 5091 O 677.632 8.62072 -0.606159 0
M  V30 5092 C 679.906 8.25383 -0.938334 0
M  V30 5093 O 680.644 8.74577 0.146954 0
M  V30 5094 C 679.237 6.8802 -0.712559 0
M  V30 5095 O 680.036 6.1189 0.194655 0
M  V30 5096 C 677.9 7.27966 -0.139777 0
M  V30 5097 H 677.932 7.25354 0.961601 0
M  V30 5098 H 679.115 6.32557 -1.65702 0
M  V30 5099 H 680.599 8.19355 -1.79097 0
M  V30 5100 H 678.905 10.1294 -1.10029 0
M  V30 5101 H 678.715 9.64276 -3.41316 0
M  V30 5102 H 677.085 9.25417 -2.76357 0
M  V30 5103 H 679.724 6.25267 1.07847 0
M  V30 5104 P 681.582 8.791 4.7645e-12 0
M  V30 5105 O 683.004 9.31096 0.027933 0
M  V30 5106 O 681.222 7.77869 -1.04071 0
M  V30 5107 O 681.259 8.09533 1.41463 0
M  V30 5108 C 681.099 9.0349 2.53943 0
M  V30 5109 C 681.639 8.35226 3.79016 0
M  V30 5110 O 680.583 7.57992 4.15078 0
M  V30 5111 C 682.857 7.45087 3.67298 0
M  V30 5112 O 683.595 7.27796 4.85194 0
M  V30 5113 C 682.188 6.17323 3.12027 0
M  V30 5114 O 682.987 5.04231 3.47188 0
M  V30 5115 C 680.851 6.19961 3.81809 0
M  V30 5116 H 680.883 5.58218 4.73051 0
M  V30 5117 H 682.066 6.21726 2.02589 0
M  V30 5118 H 683.55 7.86112 2.9231 0
M  V30 5119 H 681.856 9.11627 4.55076 0
M  V30 5120 H 681.666 9.9573 2.34194 0
M  V30 5121 H 680.036 9.2792 2.67832 0
M  V30 5122 H 682.675 4.67702 4.28772 0
M  V30 5123 P 684.532 7.39546 4.75277 0
M  V30 5124 O 685.954 7.81777 5.05738 0
M  V30 5125 O 684.172 7.1065 3.32998 0
M  V30 5126 O 684.209 6.04542 5.56673 0
M  V30 5127 C 684.049 6.22772 7.02095 0
M  V30 5128 C 684.589 4.97725 7.70406 0
M  V30 5129 O 683.533 4.13256 7.58987 0
M  V30 5130 C 685.807 4.28231 7.11815 0
M  V30 5131 O 686.545 3.49945 8.01648 0
M  V30 5132 C 685.138 3.5063 5.96244 0
M  V30 5133 O 685.937 2.36482 5.64681 0
M  V30 5134 C 683.801 3.15122 6.56374 0
M  V30 5135 H 683.833 2.13853 6.99751 0
M  V30 5136 H 685.016 4.13501 5.06559 0
M  V30 5137 H 686.5 5.03285 6.70911 0
M  V30 5138 H 684.806 5.20877 8.75697 0
M  V30 5139 H 684.616 7.11046 7.35349 0
M  V30 5140 H 682.986 6.35815 7.26986 0
M  V30 5141 H 685.625 1.61644 6.13565 0
M  V30 5142 P 687.483 3.65191 7.99657 0
M  V30 5143 O 688.905 3.8425 8.48115 0
M  V30 5144 O 687.123 4.17805 6.64342 0
M  V30 5145 O 687.16 2.07613 7.95143 0
M  V30 5146 C 687 1.44328 9.27336 0
M  V30 5147 C 687.54 0.0220036 9.17197 0
M  V30 5148 O 686.484 -0.626867 8.61923 0
M  V30 5149 C 688.758 -0.24586 8.30336 0
M  V30 5150 O 689.496 -1.39011 8.63583 0
M  V30 5151 C 688.089 -0.273849 6.91158 0
M  V30 5152 O 688.888 -1.06348 6.02892 0
M  V30 5153 C 686.752 -0.897649 7.22545 0
M  V30 5154 H 686.784 -1.9841 7.04286 0
M  V30 5155 H 687.967 0.739928 6.497 0
M  V30 5156 H 689.451 0.60668 8.36503 0
M  V30 5157 H 687.757 -0.352479 10.1829 0
M  V30 5158 H 687.567 2.00611 10.0304 0
M  V30 5159 H 685.937 1.41843 9.55327 0
M  V30 5160 H 688.576 -1.95734 6.03555 0
M  V30 5161 P 690.433 -1.25109 8.70152 0
M  V30 5162 O 691.855 -1.35274 9.21221 0
M  V30 5163 O 690.073 -0.0769065 7.84762 0
M  V30 5164 O 690.11 -2.55232 7.81161 0
M  V30 5165 C 689.95 -3.79939 8.58154 0
M  V30 5166 C 690.49 -4.94023 7.72785 0
M  V30 5167 O 689.434 -5.18726 6.91205 0
M  V30 5168 C 691.708 -4.69597 6.85231 0
M  V30 5169 O 692.446 -5.83832 6.51337 0
M  V30 5170 C 691.039 -3.96706 5.66633 0
M  V30 5171 O 691.838 -4.15414 4.49689 0
M  V30 5172 C 689.702 -4.66153 5.59313 0
M  V30 5173 H 689.734 -5.47679 4.85214 0
M  V30 5174 H 690.917 -2.89008 5.86566 0
M  V30 5175 H 692.401 -4.0121 7.36511 0
M  V30 5176 H 690.707 -5.80182 8.37584 0
M  V30 5177 H 690.517 -3.73517 9.52265 0
M  V30 5178 H 688.887 -3.97163 8.80359 0
M  V30 5179 H 691.526 -4.90969 4.01921 0
M  V30 5180 P 693.384 -5.75688 6.64379 0
M  V30 5181 O 694.806 -6.11849 7.01846 0
M  V30 5182 O 693.024 -4.30744 6.56026 0
M  V30 5183 O 693.061 -6.37042 5.19165 0
M  V30 5184 C 692.901 -7.83578 5.16515 0
M  V30 5185 C 693.441 -8.33398 3.83019 0
M  V30 5186 O 692.385 -8.10074 3.01034 0
M  V30 5187 C 694.659 -7.65514 3.2257 0
M  V30 5188 O 695.397 -8.4329 2.32297 0
M  V30 5189 C 693.99 -6.40075 2.62207 0
M  V30 5190 O 694.789 -5.92589 1.53712 0
M  V30 5191 C 692.653 -6.9454 2.18503 0
M  V30 5192 H 692.685 -7.23063 1.12091 0
M  V30 5193 H 693.868 -5.6025 3.37201 0
M  V30 5194 H 695.352 -7.35707 4.02681 0
M  V30 5195 H 693.658 -9.40912 3.9095 0
M  V30 5196 H 693.468 -8.29056 5.99158 0
M  V30 5197 H 691.838 -8.10073 5.25882 0
M  V30 5198 H 694.477 -6.30324 0.726794 0
M  V30 5199 P 696.335 -8.4349 2.47671 0
M  V30 5200 O 697.757 -8.94167 2.5964 0
M  V30 5201 O 695.975 -7.1704 3.19006 0
M  V30 5202 O 696.012 -8.16596 0.923387 0
M  V30 5203 C 695.852 -9.38437 0.108857 0
M  V30 5204 C 696.392 -9.08175 -1.28353 0
M  V30 5205 O 695.336 -8.44229 -1.84713 0
M  V30 5206 C 697.61 -8.18386 -1.42505 0
M  V30 5207 O 698.348 -8.3501 -2.60497 0
M  V30 5208 C 696.941 -6.80225 -1.25468 0
M  V30 5209 O 697.74 -5.81621 -1.91066 0
M  V30 5210 C 695.604 -7.02416 -1.9168 0
M  V30 5211 H 695.636 -6.6888 -2.96621 0
M  V30 5212 H 696.819 -6.53617 -0.192223 0
M  V30 5213 H 698.303 -8.36622 -0.589963 0
M  V30 5214 H 696.609 -10.0291 -1.79807 0
M  V30 5215 H 696.419 -10.2138 0.558219 0
M  V30 5216 H 694.789 -9.6579 0.0444202 0
M  V30 5217 H 697.428 -5.69556 -2.79637 0
M  V30 5218 P 699.285 -8.4349 -2.47671 0
M  V30 5219 O 700.707 -8.92593 -2.65 0
M  V30 5220 O 698.925 -7.7568 -1.19296 0
M  V30 5221 O 698.962 -7.36886 -3.63805 0
M  V30 5222 C 698.802 -7.95349 -4.982 0
M  V30 5223 C 699.342 -6.94612 -5.98974 0
M  V30 5224 O 698.286 -6.10347 -6.11815 0
M  V30 5225 C 700.56 -6.11426 -5.62335 0
M  V30 5226 O 701.298 -5.6162 -6.70584 0
M  V30 5227 C 699.891 -5.04409 -4.73308 0
M  V30 5228 O 700.69 -3.85992 -4.75183 0
M  V30 5229 C 698.554 -4.8728 -5.41006 0
M  V30 5230 H 698.586 -4.02333 -6.11157 0
M  V30 5231 H 699.769 -5.39466 -3.69543 0
M  V30 5232 H 701.253 -6.71916 -5.01943 0
M  V30 5233 H 699.559 -7.4649 -6.93477 0
M  V30 5234 H 699.369 -8.89416 -5.05237 0
M  V30 5235 H 697.739 -8.14876 -5.18409 0
M  V30 5236 H 700.378 -3.27957 -5.4317 0
M  V30 5237 P 702.236 -5.75688 -6.64379 0
M  V30 5238 O 703.658 -6.07627 -7.05504 0
M  V30 5239 O 701.876 -5.88047 -5.19722 0
M  V30 5240 O 701.913 -4.2322 -7.04443 0
M  V30 5241 C 701.753 -3.99743 -8.4911 0
M  V30 5242 C 702.293 -2.60516 -8.79425 0
M  V30 5243 O 701.237 -1.82684 -8.4467 0
M  V30 5244 C 703.511 -2.10343 -8.03628 0
M  V30 5245 O 704.249 -1.09919 -8.67766 0
M  V30 5246 C 702.842 -1.68446 -6.70876 0
M  V30 5247 O 703.641 -0.678137 -6.08433 0
M  V30 5248 C 701.505 -1.17436 -7.18567 0
M  V30 5249 H 701.537 -0.0804732 -7.31656 0
M  V30 5250 H 702.72 -2.54037 -6.02537 0
M  V30 5251 H 704.204 -2.93881 -7.85526 0
M  V30 5252 H 702.51 -2.53065 -9.86973 0
M  V30 5253 H 702.32 -4.75072 -9.05887 0
M  V30 5254 H 700.69 -4.05244 -8.76668 0
M  V30 5255 H 703.329 0.177647 -6.34251 0
M  V30 5256 P 705.186 -1.25109 -8.70152 0
M  V30 5257 O 706.608 -1.29744 -9.22016 0
M  V30 5258 O 704.826 -2.13714 -7.55141 0
M  V30 5259 O 704.863 0.248149 -8.21425 0
M  V30 5260 C 704.703 1.22779 -9.30434 0
M  V30 5261 C 705.243 2.56293 -8.80664 0
M  V30 5262 O 704.187 3.02979 -8.09349 0
M  V30 5263 C 706.461 2.57523 -7.89775 0
M  V30 5264 O 707.199 3.7668 -7.89438 0
M  V30 5265 C 705.792 2.20997 -6.55446 0
M  V30 5266 O 706.591 2.71895 -5.48509 0
M  V30 5267 C 704.455 2.89693 -6.67988 0
M  V30 5268 H 704.487 3.88793 -6.19859 0
M  V30 5269 H 705.67 1.12046 -6.44229 0
M  V30 5270 H 707.154 1.7746 -8.19711 0
M  V30 5271 H 705.46 3.20706 -9.67112 0
M  V30 5272 H 705.27 0.901032 -10.1892 0
M  V30 5273 H 703.64 1.33049 -9.56592 0
M  V30 5274 H 706.279 3.57847 -5.23962 0
M  V30 5275 P 708.137 3.65191 -7.99657 0
M  V30 5276 O 709.559 3.89332 -8.45794 0
M  V30 5277 O 707.777 2.28472 -7.50807 0
M  V30 5278 O 707.814 4.64972 -6.77611 0
M  V30 5279 C 707.654 6.06319 -7.16352 0
M  V30 5280 C 708.194 6.91731 -6.02299 0
M  V30 5281 O 707.138 6.92449 -5.17064 0
M  V30 5282 C 709.412 6.43627 -5.25174 0
M  V30 5283 O 710.15 7.43686 -4.60469 0
M  V30 5284 C 708.743 5.40275 -4.31916 0
M  V30 5285 O 709.542 5.25279 -3.14438 0
M  V30 5286 C 707.406 6.04847 -4.05327 0
M  V30 5287 H 707.438 6.62195 -3.11261 0
M  V30 5288 H 708.621 4.42556 -4.81383 0
M  V30 5289 H 710.105 5.92458 -5.93643 0
M  V30 5290 H 708.411 7.92655 -6.402 0
M  V30 5291 H 708.221 6.26671 -8.0846 0
M  V30 5292 H 706.591 6.29101 -7.32804 0
M  V30 5293 H 709.23 5.84315 -2.47318 0
M  V30 5294 P 711.087 7.39546 -4.75277 0
M  V30 5295 O 712.509 7.84798 -5.01039 0
M  V30 5296 O 710.727 5.9812 -5.08098 0
M  V30 5297 O 710.764 7.57503 -3.1866 0
M  V30 5298 C 710.604 8.97357 -2.74833 0
M  V30 5299 C 711.144 9.07548 -1.32709 0
M  V30 5300 O 710.088 8.62072 -0.606159 0
M  V30 5301 C 712.362 8.25383 -0.938334 0
M  V30 5302 O 713.1 8.74577 0.146954 0
M  V30 5303 C 711.693 6.8802 -0.712559 0
M  V30 5304 O 712.492 6.1189 0.194655 0
M  V30 5305 C 710.356 7.27966 -0.139777 0
M  V30 5306 H 710.388 7.25354 0.961601 0
M  V30 5307 H 711.571 6.32557 -1.65702 0
M  V30 5308 H 713.055 8.19355 -1.79097 0
M  V30 5309 H 711.361 10.1294 -1.10029 0
M  V30 5310 H 711.171 9.64276 -3.41316 0
M  V30 5311 H 709.541 9.25417 -2.76357 0
M  V30 5312 H 712.18 6.25267 1.07847 0
M  V30 5313 P 714.038 8.791 5.07466e-12 0
M  V30 5314 O 715.46 9.31096 0.027933 0
M  V30 5315 O 713.678 7.77869 -1.04071 0
M  V30 5316 O 713.715 8.09533 1.41463 0
M  V30 5317 C 713.555 9.0349 2.53943 0
M  V30 5318 C 714.095 8.35226 3.79016 0
M  V30 5319 O 713.039 7.57992 4.15078 0
M  V30 5320 C 715.313 7.45087 3.67298 0
M  V30 5321 O 716.051 7.27796 4.85194 0
M  V30 5322 C 714.644 6.17323 3.12027 0
M  V30 5323 O 715.443 5.04231 3.47188 0
M  V30 5324 C 713.307 6.19961 3.81809 0
M  V30 5325 H 713.339 5.58218 4.73051 0
M  V30 5326 H 714.522 6.21726 2.02589 0
M  V30 5327 H 716.006 7.86112 2.9231 0
M  V30 5328 H 714.312 9.11627 4.55076 0
M  V30 5329 H 714.122 9.9573 2.34194 0
M  V30 5330 H 712.492 9.2792 2.67832 0
M  V30 5331 H 715.131 4.67702 4.28772 0
M  V30 5332 P 716.989 7.39546 4.75277 0
M  V30 5333 O 718.411 7.81777 5.05738 0
M  V30 5334 O 716.629 7.1065 3.32998 0
M  V30 5335 O 716.666 6.04542 5.56673 0
M  V30 5336 C 716.506 6.22772 7.02095 0
M  V30 5337 C 717.046 4.97725 7.70406 0
M  V30 5338 O 715.99 4.13256 7.58987 0
M  V30 5339 C 718.264 4.28231 7.11815 0
M  V30 5340 O 719.002 3.49945 8.01648 0
M  V30 5341 C 717.595 3.5063 5.96244 0
M  V30 5342 O 718.394 2.36482 5.64681 0
M  V30 5343 C 716.258 3.15122 6.56374 0
M  V30 5344 H 716.29 2.13853 6.99751 0
M  V30 5345 H 717.473 4.13501 5.06559 0
M  V30 5346 H 718.957 5.03285 6.70911 0
M  V30 5347 H 717.263 5.20877 8.75697 0
M  V30 5348 H 717.073 7.11046 7.35349 0
M  V30 5349 H 715.443 6.35815 7.26986 0
M  V30 5350 H 718.082 1.61644 6.13565 0
M  V30 5351 P 719.939 3.65191 7.99657 0
M  V30 5352 O 721.361 3.8425 8.48115 0
M  V30 5353 O 719.579 4.17805 6.64342 0
M  V30 5354 O 719.616 2.07613 7.95143 0
M  V30 5355 C 719.456 1.44328 9.27336 0
M  V30 5356 C 719.996 0.0220036 9.17197 0
M  V30 5357 O 718.94 -0.626867 8.61923 0
M  V30 5358 C 721.214 -0.24586 8.30336 0
M  V30 5359 O 721.952 -1.39011 8.63583 0
M  V30 5360 C 720.545 -0.273849 6.91158 0
M  V30 5361 O 721.344 -1.06348 6.02892 0
M  V30 5362 C 719.208 -0.897649 7.22545 0
M  V30 5363 H 719.24 -1.9841 7.04286 0
M  V30 5364 H 720.423 0.739928 6.497 0
M  V30 5365 H 721.907 0.60668 8.36503 0
M  V30 5366 H 720.213 -0.352479 10.1829 0
M  V30 5367 H 720.023 2.00611 10.0304 0
M  V30 5368 H 718.393 1.41843 9.55327 0
M  V30 5369 H 721.032 -1.95734 6.03555 0
M  V30 5370 P 722.89 -1.25109 8.70152 0
M  V30 5371 O 724.311 -1.35288 9.2132 0
M  V30 5372 O 722.53 -0.0769065 7.84762 0
M  V30 5373 O 722.567 -2.55232 7.81161 0
M  V30 5374 C 722.406 -3.79979 8.58246 0
M  V30 5375 C 722.947 -4.94023 7.72785 0
M  V30 5376 O 721.892 -5.18666 6.91125 0
M  V30 5377 C 724.165 -4.69597 6.85231 0
M  V30 5378 O 724.903 -5.83832 6.51337 0
M  V30 5379 C 723.497 -3.96706 5.66633 0
M  V30 5380 O 724.295 -4.14896 4.5003 0
M  V30 5381 C 722.159 -4.66153 5.59313 0
M  V30 5382 N 721.116 -3.71582 5.24027 0
M  V30 5383 C 721.285 -2.39715 5.48833 0
M  V30 5384 N 720.258 -1.65863 5.12845 0
M  V30 5385 C 719.373 -2.57637 4.5973 0
M  V30 5386 C 718.106 -2.40278 4.01027 0
M  V30 5387 N 717.541 -3.57711 3.59575 0
M  V30 5388 C 718.143 -4.80324 3.70476 0
M  V30 5389 N 719.32 -5.01121 4.23801 0
M  V30 5390 C 719.895 -3.84757 4.66372 0
M  V30 5391 H 723.374 -2.8955 5.86187 0
M  V30 5392 H 724.857 -4.0121 7.36511 0
M  V30 5393 H 723.163 -5.81019 8.37003 0
M  V30 5394 H 722.973 -3.73517 9.52265 0
M  V30 5395 H 721.343 -3.97163 8.80359 0
M  V30 5396 H 722.185 -1.98804 5.94332 0
M  V30 5397 H 723.983 -4.90891 4.01857 0
M  V30 5398 P 725.84 -5.75688 6.64379 0
M  V30 5399 O 727.262 -6.11849 7.01846 0
M  V30 5400 O 725.48 -4.30744 6.56026 0
M  V30 5401 O 725.517 -6.37042 5.19165 0
M  V30 5402 C 725.357 -7.83578 5.16515 0
M  V30 5403 C 725.897 -8.33398 3.83019 0
M  V30 5404 O 724.841 -8.10074 3.01034 0
M  V30 5405 C 727.115 -7.65514 3.2257 0
M  V30 5406 O 727.853 -8.4329 2.32297 0
M  V30 5407 C 726.446 -6.40075 2.62207 0
M  V30 5408 O 727.245 -5.92589 1.53712 0
M  V30 5409 C 725.109 -6.9454 2.18503 0
M  V30 5410 H 725.141 -7.23063 1.12091 0
M  V30 5411 H 726.324 -5.6025 3.37201 0
M  V30 5412 H 727.808 -7.35707 4.02681 0
M  V30 5413 H 726.114 -9.40912 3.9095 0
M  V30 5414 H 725.924 -8.29056 5.99158 0
M  V30 5415 H 724.294 -8.10073 5.25882 0
M  V30 5416 H 726.933 -6.30324 0.726794 0
M  V30 5417 P 728.791 -8.4349 2.47671 0
M  V30 5418 O 730.213 -8.94167 2.5964 0
M  V30 5419 O 728.431 -7.1704 3.19006 0
M  V30 5420 O 728.468 -8.16596 0.923387 0
M  V30 5421 C 728.308 -9.38437 0.108857 0
M  V30 5422 C 728.848 -9.08175 -1.28353 0
M  V30 5423 O 727.792 -8.44229 -1.84713 0
M  V30 5424 C 730.066 -8.18386 -1.42505 0
M  V30 5425 O 730.804 -8.3501 -2.60497 0
M  V30 5426 C 729.397 -6.80225 -1.25468 0
M  V30 5427 O 730.196 -5.81621 -1.91066 0
M  V30 5428 C 728.06 -7.02416 -1.9168 0
M  V30 5429 H 728.092 -6.6888 -2.96621 0
M  V30 5430 H 729.275 -6.53617 -0.192223 0
M  V30 5431 H 730.759 -8.36622 -0.589963 0
M  V30 5432 H 729.065 -10.0291 -1.79807 0
M  V30 5433 H 728.875 -10.2138 0.558219 0
M  V30 5434 H 727.245 -9.6579 0.0444202 0
M  V30 5435 H 729.884 -5.69556 -2.79637 0
M  V30 5436 P 731.741 -8.4349 -2.47671 0
M  V30 5437 O 733.163 -8.92593 -2.65 0
M  V30 5438 O 731.381 -7.7568 -1.19296 0
M  V30 5439 O 731.418 -7.36886 -3.63805 0
M  V30 5440 C 731.258 -7.95349 -4.982 0
M  V30 5441 C 731.798 -6.94612 -5.98974 0
M  V30 5442 O 730.742 -6.10347 -6.11815 0
M  V30 5443 C 733.016 -6.11426 -5.62335 0
M  V30 5444 O 733.754 -5.6162 -6.70584 0
M  V30 5445 C 732.347 -5.04409 -4.73308 0
M  V30 5446 O 733.146 -3.85992 -4.75183 0
M  V30 5447 C 731.01 -4.8728 -5.41006 0
M  V30 5448 H 731.042 -4.02333 -6.11157 0
M  V30 5449 H 732.225 -5.39466 -3.69543 0
M  V30 5450 H 733.709 -6.71916 -5.01943 0
M  V30 5451 H 732.015 -7.4649 -6.93477 0
M  V30 5452 H 731.825 -8.89416 -5.05237 0
M  V30 5453 H 730.195 -8.14876 -5.18409 0
M  V30 5454 H 732.834 -3.27957 -5.4317 0
M  V30 5455 P 734.692 -5.75688 -6.64379 0
M  V30 5456 O 736.114 -6.07627 -7.05504 0
M  V30 5457 O 734.332 -5.88047 -5.19722 0
M  V30 5458 O 734.369 -4.2322 -7.04443 0
M  V30 5459 C 734.209 -3.99743 -8.4911 0
M  V30 5460 C 734.749 -2.60516 -8.79425 0
M  V30 5461 O 733.693 -1.82684 -8.4467 0
M  V30 5462 C 735.967 -2.10343 -8.03628 0
M  V30 5463 O 736.705 -1.09919 -8.67766 0
M  V30 5464 C 735.298 -1.68446 -6.70876 0
M  V30 5465 O 736.097 -0.678137 -6.08433 0
M  V30 5466 C 733.961 -1.17436 -7.18567 0
M  V30 5467 H 733.993 -0.0804732 -7.31656 0
M  V30 5468 H 735.176 -2.54037 -6.02537 0
M  V30 5469 H 736.66 -2.93881 -7.85526 0
M  V30 5470 H 734.966 -2.53065 -9.86973 0
M  V30 5471 H 734.776 -4.75072 -9.05887 0
M  V30 5472 H 733.146 -4.05244 -8.76668 0
M  V30 5473 H 735.785 0.177647 -6.34251 0
M  V30 5474 P 737.643 -1.25109 -8.70152 0
M  V30 5475 O 739.043 -1.3516 -9.26897 0
M  V30 5476 O 737.264 -2.18141 -7.59181 0
M  V30 5477 O 737.32 0.248118 -8.21325 0
M  V30 5478 C 737.16 1.22779 -9.30434 0
M  V30 5479 C 737.7 2.56265 -8.80568 0
M  V30 5480 O 736.644 3.02944 -8.09255 0
M  V30 5481 C 738.917 2.57523 -7.89775 0
M  V30 5482 O 739.656 3.7668 -7.89438 0
M  V30 5483 C 738.25 2.20997 -6.55446 0
M  V30 5484 O 739.048 2.71851 -5.48419 0
M  V30 5485 C 736.912 2.89693 -6.67988 0
M  V30 5486 N 735.869 2.08895 -6.07487 0
M  V30 5487 C 734.834 2.72974 -5.43836 0
M  V30 5488 O 734.873 3.97779 -5.34036 0
M  V30 5489 N 733.822 2.0005 -4.91983 0
M  V30 5490 C 733.87 0.66501 -5.00098 0
M  V30 5491 C 734.966 -0.0100979 -5.61099 0
M  V30 5492 C 735.932 0.74189 -6.14236 0
M  V30 5493 H 736.944 3.8874 -6.19774 0
M  V30 5494 H 738.127 1.12673 -6.44018 0
M  V30 5495 H 739.611 1.783 -8.19631 0
M  V30 5496 H 737.917 3.21673 -9.66791 0
M  V30 5497 H 737.726 0.901032 -10.1892 0
M  V30 5498 H 736.096 1.33036 -9.56493 0
M  V30 5499 H 735.014 -1.09591 -5.64358 0
M  V30 5500 H 736.778 0.260263 -6.6359 0
M  V30 5501 H 738.832 3.62759 -5.33442 0
M  V30 5502 P 740.593 3.65191 -7.99657 0
M  V30 5503 O 742.015 3.89332 -8.45794 0
M  V30 5504 O 740.233 2.28472 -7.50807 0
M  V30 5505 O 740.27 4.64972 -6.77611 0
M  V30 5506 C 740.11 6.06319 -7.16352 0
M  V30 5507 C 740.65 6.91731 -6.02299 0
M  V30 5508 O 739.594 6.92449 -5.17064 0
M  V30 5509 C 741.868 6.43627 -5.25174 0
M  V30 5510 O 742.606 7.43686 -4.60469 0
M  V30 5511 C 741.199 5.40275 -4.31916 0
M  V30 5512 O 741.998 5.25279 -3.14438 0
M  V30 5513 C 739.862 6.04847 -4.05327 0
M  V30 5514 H 739.894 6.62195 -3.11261 0
M  V30 5515 H 741.077 4.42556 -4.81383 0
M  V30 5516 H 742.561 5.92458 -5.93643 0
M  V30 5517 H 740.867 7.92655 -6.402 0
M  V30 5518 H 740.677 6.26671 -8.0846 0
M  V30 5519 H 739.047 6.29101 -7.32804 0
M  V30 5520 H 741.686 5.84315 -2.47318 0
M  V30 5521 P 743.544 7.39546 -4.75277 0
M  V30 5522 O 744.966 7.84798 -5.01039 0
M  V30 5523 O 743.184 5.9812 -5.08098 0
M  V30 5524 O 743.221 7.57503 -3.1866 0
M  V30 5525 C 743.061 8.97357 -2.74833 0
M  V30 5526 C 743.601 9.07548 -1.32709 0
M  V30 5527 O 742.545 8.62072 -0.606159 0
M  V30 5528 C 744.819 8.25383 -0.938334 0
M  V30 5529 O 745.557 8.74577 0.146954 0
M  V30 5530 C 744.15 6.8802 -0.712559 0
M  V30 5531 O 744.949 6.1189 0.194655 0
M  V30 5532 C 742.813 7.27966 -0.139777 0
M  V30 5533 H 742.845 7.25354 0.961601 0
M  V30 5534 H 744.028 6.32557 -1.65702 0
M  V30 5535 H 745.512 8.19355 -1.79097 0
M  V30 5536 H 743.818 10.1294 -1.10029 0
M  V30 5537 H 743.628 9.64276 -3.41316 0
M  V30 5538 H 741.998 9.25417 -2.76357 0
M  V30 5539 H 744.637 6.25267 1.07847 0
M  V30 5540 P 746.494 8.791 5.38483e-12 0
M  V30 5541 O 747.916 9.31096 0.027933 0
M  V30 5542 O 746.134 7.77869 -1.04071 0
M  V30 5543 O 746.171 8.09533 1.41463 0
M  V30 5544 C 746.011 9.0349 2.53943 0
M  V30 5545 C 746.551 8.35226 3.79016 0
M  V30 5546 O 745.495 7.57992 4.15078 0
M  V30 5547 C 747.769 7.45087 3.67298 0
M  V30 5548 O 748.507 7.27796 4.85194 0
M  V30 5549 C 747.1 6.17323 3.12027 0
M  V30 5550 O 747.899 5.04231 3.47188 0
M  V30 5551 C 745.763 6.19961 3.81809 0
M  V30 5552 H 745.795 5.58218 4.73051 0
M  V30 5553 H 746.978 6.21726 2.02589 0
M  V30 5554 H 748.462 7.86112 2.9231 0
M  V30 5555 H 746.768 9.11627 4.55076 0
M  V30 5556 H 746.578 9.9573 2.34194 0
M  V30 5557 H 744.948 9.2792 2.67832 0
M  V30 5558 H 747.587 4.67702 4.28772 0
M  V30 5559 P 749.445 7.39546 4.75277 0
M  V30 5560 O 750.866 7.81861 5.05793 0
M  V30 5561 O 749.085 7.1065 3.32998 0
M  V30 5562 O 749.122 6.04542 5.56673 0
M  V30 5563 C 748.961 6.22839 7.02169 0
M  V30 5564 C 749.502 4.97725 7.70406 0
M  V30 5565 O 748.447 4.13208 7.58899 0
M  V30 5566 C 750.72 4.28231 7.11815 0
M  V30 5567 O 751.458 3.49945 8.01648 0
M  V30 5568 C 750.052 3.5063 5.96244 0
M  V30 5569 O 750.85 2.37008 5.64352 0
M  V30 5570 C 748.714 3.15122 6.56374 0
M  V30 5571 N 747.671 3.22311 5.55692 0
M  V30 5572 C 747.84 3.99655 4.46046 0
M  V30 5573 N 746.813 3.97599 3.63918 0
M  V30 5574 C 745.928 3.11159 4.25334 0
M  V30 5575 C 744.661 2.64972 3.85157 0
M  V30 5576 N 744.096 1.78482 4.74759 0
M  V30 5577 C 744.698 1.37463 5.90819 0
M  V30 5578 N 745.875 1.7733 6.31889 0
M  V30 5579 C 746.45 2.64393 5.43725 0
M  V30 5580 H 749.929 4.12931 5.06895 0
M  V30 5581 H 751.412 5.03285 6.70911 0
M  V30 5582 H 749.718 5.20001 8.76217 0
M  V30 5583 H 749.528 7.11046 7.35349 0
M  V30 5584 H 747.898 6.35815 7.26986 0
M  V30 5585 H 748.74 4.58037 4.27732 0
M  V30 5586 H 750.538 1.61619 6.13468 0
M  V30 5587 P 752.395 3.65191 7.99657 0
M  V30 5588 O 753.817 3.8425 8.48115 0
M  V30 5589 O 752.035 4.17805 6.64342 0
M  V30 5590 O 752.072 2.07613 7.95143 0
M  V30 5591 C 751.912 1.44328 9.27336 0
M  V30 5592 C 752.452 0.0220036 9.17197 0
M  V30 5593 O 751.396 -0.626867 8.61923 0
M  V30 5594 C 753.67 -0.24586 8.30336 0
M  V30 5595 O 754.408 -1.39011 8.63583 0
M  V30 5596 C 753.001 -0.273849 6.91158 0
M  V30 5597 O 753.8 -1.06348 6.02892 0
M  V30 5598 C 751.664 -0.897649 7.22545 0
M  V30 5599 H 751.696 -1.9841 7.04286 0
M  V30 5600 H 752.879 0.739928 6.497 0
M  V30 5601 H 754.363 0.60668 8.36503 0
M  V30 5602 H 752.669 -0.352479 10.1829 0
M  V30 5603 H 752.479 2.00611 10.0304 0
M  V30 5604 H 750.849 1.41843 9.55327 0
M  V30 5605 H 753.488 -1.95734 6.03555 0
M  V30 5606 P 755.346 -1.25109 8.70152 0
M  V30 5607 O 756.768 -1.35274 9.21221 0
M  V30 5608 O 754.986 -0.0769065 7.84762 0
M  V30 5609 O 755.023 -2.55232 7.81161 0
M  V30 5610 C 754.863 -3.79939 8.58154 0
M  V30 5611 C 755.403 -4.94023 7.72785 0
M  V30 5612 O 754.347 -5.18726 6.91205 0
M  V30 5613 C 756.621 -4.69597 6.85231 0
M  V30 5614 O 757.359 -5.83832 6.51337 0
M  V30 5615 C 755.952 -3.96706 5.66633 0
M  V30 5616 O 756.751 -4.15414 4.49689 0
M  V30 5617 C 754.615 -4.66153 5.59313 0
M  V30 5618 H 754.647 -5.47679 4.85214 0
M  V30 5619 H 755.83 -2.89008 5.86566 0
M  V30 5620 H 757.314 -4.0121 7.36511 0
M  V30 5621 H 755.62 -5.80182 8.37584 0
M  V30 5622 H 755.43 -3.73517 9.52265 0
M  V30 5623 H 753.8 -3.97163 8.80359 0
M  V30 5624 H 756.439 -4.90969 4.01921 0
M  V30 5625 P 758.296 -5.75688 6.64379 0
M  V30 5626 O 759.717 -6.11915 7.01921 0
M  V30 5627 O 757.936 -4.30744 6.56026 0
M  V30 5628 O 757.973 -6.37042 5.19165 0
M  V30 5629 C 757.812 -7.83662 5.1657 0
M  V30 5630 C 758.353 -8.33398 3.83019 0
M  V30 5631 O 757.298 -8.0998 3.00999 0
M  V30 5632 C 759.571 -7.65514 3.2257 0
M  V30 5633 O 760.309 -8.4329 2.32297 0
M  V30 5634 C 758.903 -6.40075 2.62207 0
M  V30 5635 O 759.701 -5.92338 1.5428 0
M  V30 5636 C 757.565 -6.9454 2.18503 0
M  V30 5637 N 756.522 -5.95905 2.39948 0
M  V30 5638 C 756.691 -4.98383 3.32108 0
M  V30 5639 N 755.664 -4.16798 3.41761 0
M  V30 5640 C 754.779 -4.65287 2.47461 0
M  V30 5641 C 753.512 -4.18946 2.07461 0
M  V30 5642 N 752.947 -4.95327 1.09101 0
M  V30 5643 C 753.549 -6.04369 0.519812 0
M  V30 5644 N 754.726 -6.50694 0.855982 0
M  V30 5645 C 755.301 -5.75818 1.84322 0
M  V30 5646 H 758.78 -5.60502 3.36589 0
M  V30 5647 H 760.263 -7.35707 4.02681 0
M  V30 5648 H 758.569 -9.41302 3.90009 0
M  V30 5649 H 758.379 -8.29056 5.99158 0
M  V30 5650 H 756.749 -8.10073 5.25882 0
M  V30 5651 H 757.591 -4.88564 3.92502 0
M  V30 5652 H 759.389 -6.30224 0.72668 0
M  V30 5653 P 761.247 -8.4349 2.47671 0
M  V30 5654 O 762.669 -8.94167 2.5964 0
M  V30 5655 O 760.887 -7.1704 3.19006 0
M  V30 5656 O 760.924 -8.16596 0.923387 0
M  V30 5657 C 760.764 -9.38437 0.108857 0
M  V30 5658 C 761.304 -9.08175 -1.28353 0
M  V30 5659 O 760.248 -8.44229 -1.84713 0
M  V30 5660 C 762.522 -8.18386 -1.42505 0
M  V30 5661 O 763.26 -8.3501 -2.60497 0
M  V30 5662 C 761.853 -6.80225 -1.25468 0
M  V30 5663 O 762.652 -5.81621 -1.91066 0
M  V30 5664 C 760.516 -7.02416 -1.9168 0
M  V30 5665 H 760.548 -6.6888 -2.96621 0
M  V30 5666 H 761.731 -6.53617 -0.192223 0
M  V30 5667 H 763.215 -8.36622 -0.589963 0
M  V30 5668 H 761.521 -10.0291 -1.79807 0
M  V30 5669 H 761.331 -10.2138 0.558219 0
M  V30 5670 H 759.701 -9.6579 0.0444202 0
M  V30 5671 H 762.34 -5.69556 -2.79637 0
M  V30 5672 P 764.198 -8.4349 -2.47671 0
M  V30 5673 O 765.62 -8.92785 -2.65057 0
M  V30 5674 O 763.838 -7.7568 -1.19296 0
M  V30 5675 O 763.875 -7.36886 -3.63805 0
M  V30 5676 C 763.715 -7.95349 -4.982 0
M  V30 5677 C 764.255 -6.94537 -5.98908 0
M  V30 5678 O 763.2 -6.10347 -6.11815 0
M  V30 5679 C 765.473 -6.11426 -5.62335 0
M  V30 5680 O 766.211 -5.6162 -6.70584 0
M  V30 5681 C 764.805 -5.04409 -4.73308 0
M  V30 5682 O 765.603 -3.85929 -4.75106 0
M  V30 5683 C 763.467 -4.8728 -5.41006 0
M  V30 5684 N 762.424 -4.65812 -4.42377 0
M  V30 5685 C 762.486 -5.27109 -3.24335 0
M  V30 5686 N 761.441 -4.94293 -2.47735 0
M  V30 5687 C 760.707 -4.1271 -3.23359 0
M  V30 5688 C 759.401 -3.56384 -2.99934 0
M  V30 5689 O 758.668 -3.69331 -2.00616 0
M  V30 5690 N 758.971 -2.80206 -4.03316 0
M  V30 5691 C 759.72 -2.58614 -5.2172 0
M  V30 5692 N 759.123 -1.75154 -6.13278 0
M  V30 5693 N 760.873 -3.13689 -5.47619 0
M  V30 5694 C 761.33 -3.90921 -4.46436 0
M  V30 5695 H 763.499 -4.02333 -6.11157 0
M  V30 5696 H 764.682 -5.39383 -3.69487 0
M  V30 5697 H 766.167 -6.71414 -5.02615 0
M  V30 5698 H 764.472 -7.4649 -6.93477 0
M  V30 5699 H 764.282 -8.89416 -5.05237 0
M  V30 5700 H 762.651 -8.14876 -5.18409 0
M  V30 5701 H 758.075 -2.36355 -3.95916 0
M  V30 5702 H 763.282 -5.95212 -2.93859 0
M  V30 5703 H 758.212 -1.32473 -5.91856 0
M  V30 5704 H 759.588 -1.5588 -7.03026 0
M  V30 5705 H 765.292 -3.27906 -5.43085 0
M  V30 5706 P 767.148 -5.75688 -6.64379 0
M  V30 5707 O 768.57 -6.07627 -7.05504 0
M  V30 5708 O 766.788 -5.88047 -5.19722 0
M  V30 5709 O 766.825 -4.2322 -7.04443 0
M  V30 5710 C 766.665 -3.99743 -8.4911 0
M  V30 5711 C 767.205 -2.60516 -8.79425 0
M  V30 5712 O 766.149 -1.82684 -8.4467 0
M  V30 5713 C 768.423 -2.10343 -8.03628 0
M  V30 5714 O 769.161 -1.09919 -8.67766 0
M  V30 5715 C 767.754 -1.68446 -6.70876 0
M  V30 5716 O 768.553 -0.678137 -6.08433 0
M  V30 5717 C 766.417 -1.17436 -7.18567 0
M  V30 5718 H 766.449 -0.0804732 -7.31656 0
M  V30 5719 H 767.632 -2.54037 -6.02537 0
M  V30 5720 H 769.116 -2.93881 -7.85526 0
M  V30 5721 H 767.422 -2.53065 -9.86973 0
M  V30 5722 H 767.232 -4.75072 -9.05887 0
M  V30 5723 H 765.602 -4.05244 -8.76668 0
M  V30 5724 H 768.241 0.177647 -6.34251 0
M  V30 5725 H 770.794 -1.2072 -8.15311 0
M  V30 END ATOM
M  V30 BEGIN BOND
M  V30 END BOND
M  V30 END CTAB
M  END
$$$$
