drugbank_target|P9WK17 Malate synthase G (DB01992; DB03499; DB04343)
 OpenBabel12092119593D

  0  0  0     0  0            999 V3000
M  V30 BEGIN CTAB
M  V30 COUNTS 11250 11358 0 0 0
M  V30 BEGIN ATOM
M  V30 1 H -0.908 1.98254 -0.117106 0
M  V30 2 N 0 1.576 0 0
M  V30 3 C 0.933 2.03868 1.02534 0
M  V30 4 C 1.911 0.928543 1.3348 0
M  V30 5 O 3.095 1.19667 1.45644 0
M  V30 6 C 0.222 2.43627 2.35294 0
M  V30 7 C -0.732 3.65373 2.2001 0
M  V30 8 S 0.101 5.13292 1.52614 0
M  V30 9 C 1.257 5.56322 2.86805 0
M  V30 10 H 1.49 2.90518 0.631377 0
M  V30 11 H -0.977 1.52953 0.210867 0
M  V30 12 H 0.981 2.67203 3.11629 0
M  V30 13 H -0.358 1.57376 2.7183 0
M  V30 14 H -1.165 3.90944 3.18086 0
M  V30 15 H -1.563 3.418 1.51819 0
M  V30 16 H 0.729 5.58782 3.83104 0
M  V30 17 H 1.672 6.56266 2.65933 0
M  V30 18 H 2.08 4.83886 2.90714 0
M  V30 19 N 1.4781 -0.272755 1.55222 0
M  V30 20 C 2.7061 -1.02255 1.79865 0
M  V30 21 C 3.1211 -1.79924 0.572088 0
M  V30 22 O 2.4781 -1.76638 -0.458842 0
M  V30 23 C 2.5291 -1.98094 3.02392 0
M  V30 24 O 2.2501 -1.23572 4.20311 0
M  V30 25 C 3.7511 -2.84884 3.39641 0
M  V30 26 H 0.9711 -0.302057 0.599168 0
M  V30 27 H 3.5151 -0.303465 2.02236 0
M  V30 28 H 1.6701 -2.65465 2.82147 0
M  V30 29 H 2.0841 -1.88172 4.89583 0
M  V30 30 H 3.5581 -3.47927 4.28545 0
M  V30 31 H 4.0351 -3.54665 2.59055 0
M  V30 32 H 4.6411 -2.23003 3.62146 0
M  V30 33 N 2.9562 -1.48159 -0.537278 0
M  V30 34 C 4.2332 -1.46291 -1.29839 0
M  V30 35 C 4.6132 -0.170613 -2.10409 0
M  V30 36 O 3.9612 0.847746 -2.12192 0
M  V30 37 C 4.1712 -2.72055 -2.18603 0
M  V30 38 C 5.5192 -3.20087 -2.7898 0
M  V30 39 O 6.5432 -2.72921 -2.28894 0
M  V30 40 O 5.4022 -4.02138 -3.70064 0
M  V30 41 H 2.4962 -0.583906 -0.585647 0
M  V30 42 H 5.0422 -1.60384 -0.554534 0
M  V30 43 H 3.8142 -3.57628 -1.58801 0
M  V30 44 H 3.4372 -2.60646 -3.00249 0
M  V30 45 N 4.4343 0.785586 -1.36625 0
M  V30 46 C 5.8503 1.08419 -1.17122 0
M  V30 47 C 6.0503 2.015 0.00208491 0
M  V30 48 O 5.1063 2.43551 0.666278 0
M  V30 49 C 6.4193 1.69498 -2.48377 0
M  V30 50 C 7.9673 1.81821 -2.54775 0
M  V30 51 C 8.4423 2.46315 -3.86126 0
M  V30 52 N 9.9333 2.53779 -3.87492 0
M  V30 53 C 10.6683 3.045 -4.85868 0
M  V30 54 N 10.1643 3.55499 -5.94637 0
M  V30 55 N 11.9573 3.03247 -4.73284 0
M  V30 56 H 4.1083 0.167264 -2.1174 0
M  V30 57 H 6.3713 0.13682 -0.938075 0
M  V30 58 H 6.0773 1.08571 -3.34522 0
M  V30 59 H 5.9513 2.6896 -2.64462 0
M  V30 60 H 8.3383 2.41884 -1.69045 0
M  V30 61 H 8.4193 0.811532 -2.42586 0
M  V30 62 H 8.0633 1.86895 -4.72263 0
M  V30 63 H 7.9933 3.47561 -3.95612 0
M  V30 64 H 10.4843 2.17672 -3.08913 0
M  V30 65 H 10.7973 3.92562 -6.65669 0
M  V30 66 H 9.1423 3.5364 -5.98301 0
M  V30 67 H 12.3333 2.62696 -3.87438 0
M  V30 68 H 12.5063 3.42467 -5.50109 0
M  V30 69 N 5.9124 1.20967 1.01018 0
M  V30 70 C 7.1584 1.02526 1.74975 0
M  V30 71 C 7.4914 -0.4408 1.89131 0
M  V30 72 O 6.7664 -1.32718 1.42184 0
M  V30 73 C 7.0494 1.71699 3.1653 0
M  V30 74 C 6.9024 3.25791 3.10129 0
M  V30 75 C 8.2214 1.45531 4.15342 0
M  V30 76 H 5.3404 0.373863 0.635134 0
M  V30 77 H 7.9824 1.49071 1.17805 0
M  V30 78 H 6.1324 1.32128 3.65341 0
M  V30 79 H 7.8044 3.74697 2.69072 0
M  V30 80 H 6.0474 3.56363 2.47362 0
M  V30 81 H 6.7184 3.69353 4.10222 0
M  V30 82 H 9.1944 1.79872 3.75213 0
M  V30 83 H 8.0704 1.96453 5.1254 0
M  V30 84 H 8.3314 0.384237 4.40427 0
M  V30 85 N 7.3905 -1.2043 1.01659 0
M  V30 86 C 8.6155 -1.94318 0.724942 0
M  V30 87 C 9.0405 -1.74266 -0.708034 0
M  V30 88 O 8.3985 -1.03694 -1.48719 0
M  V30 89 C 8.4465 -3.44486 1.06591 0
M  V30 90 O 7.5505 -4.12017 0.177599 0
M  V30 91 H 6.8915 -0.60708 0.26898 0
M  V30 92 H 9.4215 -1.52861 1.35995 0
M  V30 93 H 9.4315 -3.95106 1.01762 0
M  V30 94 H 8.1065 -3.58404 2.10997 0
M  V30 95 H 6.6835 -3.71821 0.283421 0
M  V30 96 N 8.8686 -0.792821 -1.36206 0
M  V30 97 C 10.1146 -0.36733 -1.99446 0
M  V30 98 C 10.4476 1.05917 -1.62774 0
M  V30 99 O 9.7226 1.7324 -0.88421 0
M  V30 100 C 10.0056 -0.535044 -3.56103 0
M  V30 101 C 9.8586 -2.00548 -4.02617 0
M  V30 102 C 11.1776 0.0478191 -4.40074 0
M  V30 103 H 8.2966 -0.134941 -0.724541 0
M  V30 104 H 10.9386 -0.999794 -1.61568 0
M  V30 105 H 9.0886 0.00336329 -3.885 0
M  V30 106 H 10.7606 -2.60521 -3.80692 0
M  V30 107 H 9.0036 -2.50686 -3.54032 0
M  V30 108 H 9.6746 -2.07377 -5.11565 0
M  V30 109 H 12.1506 -0.411822 -4.14057 0
M  V30 110 H 11.0266 -0.0995336 -5.4881 0
M  V30 111 H 11.2876 1.14025 -4.27142 0
M  V30 112 N 10.3467 1.47872 -0.545128 0
M  V30 113 C 11.5947 2.02093 -0.016553 0
M  V30 114 C 11.9157 1.42305 1.3332 0
M  V30 115 O 11.1857 0.593853 1.86682 0
M  V30 116 H 9.7657 0.746993 -0.00313038 0
M  V30 117 H 12.4277 1.81414 -0.712397 0
M  V30 118 H 11.5237 3.11996 0.0805422 0
M  V30 119 N 11.8248 0.280983 1.55075 0
M  V30 120 C 12.7728 -0.619864 2.24188 0
M  V30 121 C 13.7668 -1.15315 1.24092 0
M  V30 122 O 14.9728 -1.1061 1.42005 0
M  V30 123 H 11.3478 -0.218459 0.719569 0
M  V30 124 H 13.3188 -0.0141831 2.98397 0
M  V30 125 C 12.0678 -1.7899 2.98091 0
M  V30 126 H 11.3908 -1.38874 3.74905 0
M  V30 127 H 12.8308 -2.39672 3.49762 0
M  V30 128 C 11.2898 -2.68192 2.03899 0
M  V30 129 O 11.8198 -3.6872 1.594 0
M  V30 130 N 10.0258 -2.35488 1.70275 0
M  V30 131 H 9.5728 -1.53787 2.06658 0
M  V30 132 H 9.5308 -2.95442 1.07524 0
M  V30 133 N 13.3029 -1.57598 0.00835791 0
M  V30 134 C 14.2329 -2.1198 -0.979113 0
M  V30 135 C 15.2139 -1.03091 -1.35301 0
M  V30 136 O 16.3989 -1.30818 -1.43528 0
M  V30 137 C 13.5289 -2.62995 -2.26828 0
M  V30 138 C 12.4829 -3.76485 -2.03576 0
M  V30 139 C 11.8089 -4.13846 -3.38579 0
M  V30 140 C 13.1089 -5.0342 -1.39161 0
M  V30 141 H 14.8029 -2.94738 -0.526281 0
M  V30 142 H 12.3489 -1.41783 -0.251704 0
M  V30 143 H 14.3019 -2.99669 -2.96271 0
M  V30 144 H 13.0259 -1.7737 -2.7424 0
M  V30 145 H 11.6849 -3.40217 -1.36557 0
M  V30 146 H 11.3329 -3.25232 -3.83709 0
M  V30 147 H 11.0329 -4.90312 -3.23834 0
M  V30 148 H 12.5569 -4.53086 -4.09323 0
M  V30 149 H 13.9709 -5.37812 -1.98573 0
M  V30 150 H 12.3679 -5.84746 -1.34878 0
M  V30 151 H 13.4379 -4.83548 -0.361868 0
M  V30 152 N 14.781 0.264519 -1.55364 0
M  V30 153 C 16.197 0.61215 -1.47394 0
M  V30 154 C 16.397 1.89134 -0.695018 0
M  V30 155 O 15.453 2.51563 -0.217275 0
M  V30 156 C 16.766 0.731235 -2.91674 0
M  V30 157 C 18.314 0.82473 -3.01939 0
M  V30 158 C 18.789 0.975522 -4.4749 0
M  V30 159 N 20.28 1.04083 -4.51354 0
M  V30 160 C 21.015 1.17646 -5.61201 0
M  V30 161 N 20.511 1.27874 -6.80896 0
M  V30 162 N 22.304 1.20823 -5.48961 0
M  V30 163 H 14.455 -0.575456 -2.04456 0
M  V30 164 H 16.718 -0.196099 -0.927496 0
M  V30 165 H 16.424 -0.138392 -3.51428 0
M  V30 166 H 16.298 1.60883 -3.41169 0
M  V30 167 H 18.685 1.68482 -2.42276 0
M  V30 168 H 18.766 -0.0776479 -2.55682 0
M  V30 169 H 18.41 0.120058 -5.07758 0
M  V30 170 H 18.34 1.89268 -4.91412 0
M  V30 171 H 20.831 0.973846 -3.65136 0
M  V30 172 H 21.144 1.38081 -7.60364 0
M  V30 173 H 19.489 1.24863 -6.83692 0
M  V30 174 H 22.68 1.12469 -4.54388 0
M  V30 175 H 22.853 1.31049 -6.3461 0
M  V30 176 N 16.2591 1.48442 0.529413 0
M  V30 177 C 17.5081 1.55742 1.28169 0
M  V30 178 C 17.8211 0.236511 1.94165 0
M  V30 179 O 19.0271 0.187761 2.7085 0
M  V30 180 C 17.4831 2.74667 2.32564 0
M  V30 181 C 17.0911 4.13402 1.72636 0
M  V30 182 C 18.8351 2.9128 3.08798 0
M  V30 183 C 16.7421 5.23587 2.74975 0
M  V30 184 H 15.6721 0.579796 0.48203 0
M  V30 185 H 18.3231 1.74776 0.559056 0
M  V30 186 H 16.7051 2.49067 3.07866 0
M  V30 187 H 17.8791 4.49022 1.03519 0
M  V30 188 H 16.1941 4.0191 1.08892 0
M  V30 189 H 18.7911 3.70767 3.85274 0
M  V30 190 H 19.1341 2.00757 3.64695 0
M  V30 191 H 19.6671 3.16782 2.40611 0
M  V30 192 H 16.4061 6.16076 2.23897 0
M  V30 193 H 15.9261 4.92454 3.42417 0
M  V30 194 H 17.6051 5.51724 3.37949 0
M  V30 195 N 17.7372 -0.778329 1.37039 0
M  V30 196 C 18.7002 -1.87301 1.32102 0
M  V30 197 C 19.7002 -1.59198 0.226405 0
M  V30 198 O 20.8902 -1.67403 0.481861 0
M  V30 199 C 18.0222 -3.24309 1.05055 0
M  V30 200 H 19.2152 -1.93093 2.29467 0
M  V30 201 H 16.7682 -0.977358 1.21973 0
M  V30 202 H 17.5032 -3.24196 0.0819373 0
M  V30 203 H 17.2882 -3.46098 1.84279 0
M  V30 204 H 18.7782 -4.04382 1.04234 0
M  V30 205 N 19.2153 -1.21501 -1.00376 0
M  V30 206 C 20.6313 -0.972629 -1.26539 0
M  V30 207 C 20.8313 0.340257 -1.98606 0
M  V30 208 O 19.8873 1.06561 -2.28913 0
M  V30 209 C 21.2003 -2.16404 -2.08781 0
M  V30 210 C 22.7483 -2.20643 -2.22004 0
M  V30 211 C 23.2233 -3.39306 -3.07629 0
M  V30 212 N 24.7143 -3.39401 -3.15217 0
M  V30 213 C 25.4493 -4.27867 -3.81729 0
M  V30 214 N 24.9453 -5.26533 -4.5026 0
M  V30 215 N 26.7383 -4.15672 -3.78382 0
M  V30 216 H 18.8893 -2.05929 -0.520281 0
M  V30 217 H 21.1523 -0.901803 -0.292328 0
M  V30 218 H 20.8583 -3.11554 -1.63178 0
M  V30 219 H 20.7323 -2.15567 -3.09533 0
M  V30 220 H 23.1193 -1.26048 -2.66825 0
M  V30 221 H 23.2003 -2.25523 -1.20718 0
M  V30 222 H 22.8443 -4.34195 -2.63509 0
M  V30 223 H 22.7743 -3.31665 -4.09031 0
M  V30 224 H 25.2653 -2.67997 -2.66432 0
M  V30 225 H 25.5783 -5.90337 -4.98721 0
M  V30 226 H 23.9233 -5.30457 -4.49044 0
M  V30 227 H 27.1143 -3.3785 -3.23998 0
M  V30 228 H 27.2873 -4.84825 -4.2994 0
M  V30 229 N 20.6934 1.19889 -1.02296 0
M  V30 230 C 21.9394 1.89701 -0.717033 0
M  V30 231 C 22.2724 1.7905 0.751989 0
M  V30 232 O 21.5474 1.17891 1.547 0
M  V30 233 C 21.8304 3.40858 -1.16136 0
M  V30 234 C 21.6834 3.60411 -2.69117 0
M  V30 235 C 23.0024 4.33876 -0.737549 0
M  V30 236 H 20.1214 0.688874 -0.261957 0
M  V30 237 H 22.7634 1.41154 -1.27183 0
M  V30 238 H 20.9134 3.82335 -0.689342 0
M  V30 239 H 22.5854 3.28145 -3.2422 0
M  V30 240 H 20.8284 3.03665 -3.0979 0
M  V30 241 H 21.4994 4.66396 -2.95261 0
M  V30 242 H 23.9754 4.00081 -1.14344 0
M  V30 243 H 22.8514 5.38242 -1.0764 0
M  V30 244 H 23.1124 4.40628 0.360436 0
M  V30 245 N 22.1715 0.800033 1.35784 0
M  V30 246 C 23.1015 0.220184 2.3246 0
M  V30 247 C 24.0825 -0.65073 1.57161 0
M  V30 248 O 25.2675 -0.582359 1.85263 0
M  V30 249 C 22.3975 -0.637353 3.41402 0
M  V30 250 C 21.3515 0.134531 4.27789 0
M  V30 251 C 20.6775 -0.844285 5.27992 0
M  V30 252 C 21.9775 1.32979 5.05088 0
M  V30 253 H 23.6715 1.02787 2.81203 0
M  V30 254 H 21.2175 0.495717 1.35199 0
M  V30 255 H 23.1705 -1.05302 4.08031 0
M  V30 256 H 21.8945 -1.47785 2.91251 0
M  V30 257 H 20.5535 0.531296 3.6273 0
M  V30 258 H 20.2015 -1.68011 4.74111 0
M  V30 259 H 19.9015 -0.332184 5.8666 0
M  V30 260 H 21.4255 -1.2583 5.97494 0
M  V30 261 H 22.8395 0.98934 5.64699 0
M  V30 262 H 21.2365 1.77593 5.7322 0
M  V30 263 H 22.3065 2.11978 4.36111 0
M  V30 264 N 23.6496 -1.47581 0.552962 0
M  V30 265 C 24.8796 -2.06575 0.0320091 0
M  V30 266 C 25.2876 -1.4067 -1.26525 0
M  V30 267 O 24.6306 -0.495808 -1.76883 0
M  V30 268 C 24.6926 -3.58705 -0.238913 0
M  V30 269 C 24.3566 -4.46625 0.968272 0
M  V30 270 C 25.3536 -4.85 1.87274 0
M  V30 271 C 23.0386 -4.88201 1.18175 0
M  V30 272 C 25.0326 -5.63745 2.9744 0
M  V30 273 C 22.7196 -5.66712 2.28651 0
M  V30 274 C 23.7176 -6.04394 3.18114 0
M  V30 275 O 23.4056 -6.81324 4.26676 0
M  V30 276 H 23.1376 -0.674763 0.0408689 0
M  V30 277 H 25.6916 -1.90634 0.764719 0
M  V30 278 H 23.9216 -3.72844 -1.02588 0
M  V30 279 H 25.6106 -3.99735 -0.704731 0
M  V30 280 H 26.3766 -4.53482 1.71984 0
M  V30 281 H 22.2556 -4.58339 0.494593 0
M  V30 282 H 25.7996 -5.93077 3.67296 0
M  V30 283 H 21.6966 -5.97642 2.43915 0
M  V30 284 H 22.4646 -6.99712 4.24671 0
M  V30 285 N 25.1277 -0.289203 -1.54924 0
M  V30 286 C 26.4047 0.376032 -1.91951 0
M  V30 287 C 26.7847 1.72622 -1.21511 0
M  V30 288 O 26.1327 2.25853 -0.346767 0
M  V30 289 C 26.3427 0.502378 -3.45365 0
M  V30 290 C 27.6907 0.778741 -4.17398 0
M  V30 291 O 28.7147 0.586647 -3.51336 0
M  V30 292 O 27.5737 1.14698 -5.34328 0
M  V30 293 H 24.6677 0.208167 -0.800372 0
M  V30 294 H 27.2137 -0.336394 -1.66332 0
M  V30 295 H 25.9857 -0.447255 -3.88736 0
M  V30 296 H 25.6087 1.26373 -3.76982 0
M  V30 297 N 26.6058 1.57591 -0.0167156 0
M  V30 298 C 27.8528 1.91283 0.664597 0
M  V30 299 C 28.1808 0.891949 1.72842 0
M  V30 300 O 27.4358 -0.100931 1.9544 0
M  V30 301 C 27.7348 3.3172 1.33029 0
M  V30 302 C 27.4008 4.4914 0.398047 0
M  V30 303 C 26.0628 4.80992 0.141421 0
M  V30 304 C 28.4148 5.20634 -0.242825 0
M  V30 305 C 25.7428 5.81703 -0.764092 0
M  V30 306 C 28.0948 6.22311 -1.13632 0
M  V30 307 C 26.7588 6.52611 -1.40196 0
M  V30 308 H 26.0288 0.699956 0.243193 0
M  V30 309 H 28.6758 1.9135 -0.0758267 0
M  V30 310 H 26.9808 3.27856 2.14517 0
M  V30 311 H 28.6778 3.55055 1.86379 0
M  V30 312 H 25.2678 4.24262 0.608238 0
M  V30 313 H 29.4518 4.96267 -0.0576019 0
M  V30 314 H 24.7078 6.03532 -0.977732 0
M  V30 315 H 28.8818 6.76834 -1.63917 0
M  V30 316 H 26.5088 7.30467 -2.10529 0
M  V30 317 N 28.0839 -0.256276 1.55502 0
M  V30 318 C 29.3299 -0.987079 1.77157 0
M  V30 319 C 29.6629 -1.85327 0.580315 0
M  V30 320 O 28.9379 -1.89874 -0.421686 0
M  V30 321 C 29.2209 -1.85553 3.08613 0
M  V30 322 C 29.0739 -1.01816 4.38125 0
M  V30 323 C 30.3929 -2.8397 3.36228 0
M  V30 324 H 27.5119 -0.357428 0.644526 0
M  V30 325 H 30.1539 -0.258239 1.88237 0
M  V30 326 H 28.3039 -2.47695 2.99298 0
M  V30 327 H 29.9759 -0.416159 4.59419 0
M  V30 328 H 28.2189 -0.322178 4.32602 0
M  V30 329 H 28.8899 -1.65939 5.26468 0
M  V30 330 H 31.3659 -2.31964 3.45445 0
M  V30 331 H 30.2419 -3.41864 4.29442 0
M  V30 332 H 30.5029 -3.59955 2.56681 0
M  V30 333 N 29.562 -1.4872 -0.521534 0
M  V30 334 C 30.51 -1.64328 -1.64618 0
M  V30 335 C 31.504 -0.50953 -1.61555 0
M  V30 336 O 32.71 -0.688525 -1.66311 0
M  V30 337 H 29.085 -0.517805 -0.545328 0
M  V30 338 H 31.056 -2.58767 -1.48601 0
M  V30 339 C 29.805 -1.70805 -3.02855 0
M  V30 340 H 29.128 -2.5741 -3.05909 0
M  V30 341 H 30.568 -1.85766 -3.81139 0
M  V30 342 C 29.027 -0.448479 -3.33902 0
M  V30 343 O 29.557 0.434928 -3.99339 0
M  V30 344 N 27.763 -0.317616 -2.88859 0
M  V30 345 H 27.31 -1.03748 -2.35784 0
M  V30 346 H 27.268 0.524113 -3.10001 0
M  V30 347 N 31.0401 0.771051 -1.3745 0
M  V30 348 C 31.9881 1.90574 -1.33358 0
M  V30 349 C 32.9821 1.67936 -0.22224 0
M  V30 350 O 34.1881 1.75717 -0.390304 0
M  V30 351 H 30.5631 0.626714 -0.415612 0
M  V30 352 H 32.5341 1.91142 -2.29144 0
M  V30 353 C 31.2831 3.27845 -1.15813 0
M  V30 354 H 30.6061 3.45842 -2.00583 0
M  V30 355 H 32.0461 4.07538 -1.17 0
M  V30 356 C 30.5051 3.36625 0.136165 0
M  V30 357 O 31.0351 3.85785 1.11949 0
M  V30 358 N 29.2411 2.89997 0.187099 0
M  V30 359 H 28.7881 2.50182 -0.613753 0
M  V30 360 H 28.7461 2.96252 1.05272 0
M  V30 361 N 32.5182 1.22032 0.997298 0
M  V30 362 C 33.4282 1.00271 2.12092 0
M  V30 363 C 34.4442 -0.047621 1.73935 0
M  V30 364 O 35.6202 0.144136 2.00884 0
M  V30 365 C 32.6852 0.578449 3.4184 0
M  V30 366 C 31.7462 1.70189 3.94125 0
M  V30 367 C 30.9792 1.29778 5.17681 0
M  V30 368 O 31.2022 0.174676 5.70132 0
M  V30 369 O 30.1362 2.11261 5.63607 0
M  V30 370 H 33.9622 1.94398 2.3333 0
M  V30 371 H 31.5472 1.00587 1.10465 0
M  V30 372 H 33.4292 0.351998 4.19927 0
M  V30 373 H 32.1042 -0.334019 3.21972 0
M  V30 374 H 31.0112 1.98282 3.1723 0
M  V30 375 H 32.3442 2.59206 4.18417 0
M  V30 376 N 33.9963 -1.19345 1.0293 0
M  V30 377 C 34.9593 -2.20793 0.615069 0
M  V30 378 C 35.9593 -1.57553 -0.321533 0
M  V30 379 O 37.1493 -1.73862 -0.108483 0
M  V30 380 C 34.2813 -3.40754 -0.0999222 0
M  V30 381 H 35.4743 -2.58955 1.51269 0
M  V30 382 H 33.0273 -1.3303 0.820534 0
M  V30 383 H 33.7623 -3.0811 -1.01187 0
M  V30 384 H 33.5473 -3.87889 0.57309 0
M  V30 385 H 35.0373 -4.15898 -0.376645 0
M  V30 386 N 35.4744 -0.807222 -1.35358 0
M  V30 387 C 36.4044 -0.232509 -2.3234 0
M  V30 388 C 37.3854 0.642386 -1.57504 0
M  V30 389 O 38.5704 0.572526 -1.85569 0
M  V30 390 C 35.7004 0.619238 -3.41735 0
M  V30 391 C 34.6544 -0.157215 -4.27711 0
M  V30 392 C 33.9804 0.816273 -5.28433 0
M  V30 393 C 35.2804 -1.35656 -5.04376 0
M  V30 394 H 36.9744 -1.04276 -2.80654 0
M  V30 395 H 34.5204 -0.50288 -1.34934 0
M  V30 396 H 36.4734 1.03137 -4.08584 0
M  V30 397 H 35.1974 1.46239 -2.92031 0
M  V30 398 H 33.8564 -0.550525 -3.62443 0
M  V30 399 H 33.5044 1.65494 -4.74996 0
M  V30 400 H 33.2044 0.301067 -5.86828 0
M  V30 401 H 34.7284 1.22659 -5.98153 0
M  V30 402 H 36.1424 -1.01927 -5.64166 0
M  V30 403 H 34.5394 -1.8063 -5.7227 0
M  V30 404 H 35.6094 -2.14288 -4.34981 0
M  V30 405 N 36.9525 1.47285 -0.560781 0
M  V30 406 C 38.3635 1.86258 -0.128343 0
M  V30 407 C 38.7145 1.46699 1.30284 0
M  V30 408 O 37.8395 0.871698 1.98067 0
M  V30 409 C 38.4345 3.38044 -0.22614 0
M  V30 410 C 36.9935 3.76096 0.151283 0
M  V30 411 C 36.1405 2.71335 -0.572084 0
M  V30 412 H 39.0915 1.38752 -0.770297 0
M  V30 413 H 39.1125 3.76441 0.554322 0
M  V30 414 H 38.6245 3.66806 -1.26788 0
M  V30 415 H 36.7255 3.52951 1.19399 0
M  V30 416 H 36.8385 4.78641 -0.209765 0
M  V30 417 H 35.2025 2.54696 -0.0147653 0
M  V30 418 H 35.9855 3.02938 -1.61504 0
M  V30 419 N 38.4306 0.297415 1.54768 0
M  V30 420 C 39.6786 -0.312295 1.99673 0
M  V30 421 C 39.9996 -1.54686 1.18732 0
M  V30 422 O 39.2696 -1.93854 0.282382 0
M  V30 423 H 37.8496 -0.118381 0.73756 0
M  V30 424 H 40.5116 0.407915 1.90583 0
M  V30 425 H 39.6076 -0.586813 3.06534 0
M  V30 426 N 39.9087 -1.5758 0.0250728 0
M  V30 427 C 41.1367 -1.9593 -0.664747 0
M  V30 428 C 41.5517 -0.901352 -1.65895 0
M  V30 429 O 40.9087 0.117255 -1.82123 0
M  V30 430 C 40.9597 -3.34342 -1.37468 0
M  V30 431 O 40.6807 -4.36079 -0.420324 0
M  V30 432 C 42.1817 -3.873 -2.1567 0
M  V30 433 H 39.4017 -0.645405 -0.183557 0
M  V30 434 H 41.9457 -2.04329 0.0836372 0
M  V30 435 H 40.1007 -3.27175 -2.0745 0
M  V30 436 H 40.5147 -5.16297 -0.923991 0
M  V30 437 H 41.9887 -4.86504 -2.60803 0
M  V30 438 H 42.4657 -3.21331 -2.99405 0
M  V30 439 H 43.0717 -3.97723 -1.50654 0
M  V30 440 N 41.3868 0.248026 -1.55636 0
M  V30 441 C 42.6638 0.998988 -1.68165 0
M  V30 442 C 43.0438 2.03409 -0.564621 0
M  V30 443 O 42.3918 2.24378 0.432076 0
M  V30 444 C 42.6018 1.63334 -3.0842 0
M  V30 445 C 43.9498 2.13562 -3.66983 0
M  V30 446 O 44.9738 1.73277 -3.11213 0
M  V30 447 O 43.8328 2.87526 -4.64749 0
M  V30 448 H 40.9268 0.464933 -0.683935 0
M  V30 449 H 43.4728 0.241902 -1.67967 0
M  V30 450 H 42.2448 0.884583 -3.8117 0
M  V30 451 H 41.8678 2.45666 -3.12624 0
M  V30 452 N 42.8649 1.48995 0.513639 0
M  V30 453 C 44.1139 1.57093 1.2651 0
M  V30 454 C 44.4269 0.257091 1.93903 0
M  V30 455 O 45.6329 0.216478 2.70636 0
M  V30 456 C 44.0889 2.77118 2.29638 0
M  V30 457 C 43.6969 4.15209 1.68241 0
M  V30 458 C 45.4409 2.94538 3.05692 0
M  V30 459 C 43.3479 5.26474 2.69406 0
M  V30 460 H 42.2779 0.584876 0.475854 0
M  V30 461 H 44.9289 1.7536 0.540487 0
M  V30 462 H 43.3109 2.52319 3.05207 0
M  V30 463 H 44.4849 4.50094 0.987505 0
M  V30 464 H 42.7999 4.03042 1.04623 0
M  V30 465 H 45.3969 3.74832 3.8132 0
M  V30 466 H 45.7399 2.04614 3.62545 0
M  V30 467 H 46.2729 3.19316 2.37238 0
M  V30 468 H 43.0119 6.18417 2.17351 0
M  V30 469 H 42.5319 4.96058 3.37175 0
M  V30 470 H 44.2109 5.55277 3.32078 0
M  V30 471 N 44.343 -0.763751 1.37857 0
M  V30 472 C 45.62 -1.51244 1.24035 0
M  V30 473 C 46 -2.10472 -0.162649 0
M  V30 474 O 45.348 -1.96206 -1.17112 0
M  V30 475 C 45.558 -2.58694 2.34261 0
M  V30 476 C 46.906 -3.25878 2.72193 0
M  V30 477 O 47.93 -2.68993 2.33497 0
M  V30 478 O 46.789 -4.2874 3.38887 0
M  V30 479 H 43.883 -0.670243 0.484462 0
M  V30 480 H 46.429 -0.800031 1.49658 0
M  V30 481 H 45.201 -2.13105 3.2818 0
M  V30 482 H 44.824 -3.37527 2.10146 0
M  V30 483 N 45.8211 -1.22559 -0.990812 0
M  V30 484 C 47.2321 -1.04791 -1.54518 0
M  V30 485 C 47.5831 0.387998 -1.92325 0
M  V30 486 O 46.7081 1.27328 -1.74976 0
M  V30 487 C 47.3031 -1.896 -2.80779 0
M  V30 488 C 45.8621 -1.76124 -3.32652 0
M  V30 489 C 45.0091 -1.8594 -2.05722 0
M  V30 490 H 47.9601 -1.36374 -0.811662 0
M  V30 491 H 47.9811 -1.41464 -3.53225 0
M  V30 492 H 47.4931 -2.94101 -2.53231 0
M  V30 493 H 45.5941 -0.743643 -3.65104 0
M  V30 494 H 45.7071 -2.58913 -4.03114 0
M  V30 495 H 44.0711 -1.29403 -2.19379 0
M  V30 496 H 44.8541 -2.91976 -1.80568 0
M  V30 497 N 47.2992 1.18797 -1.03562 0
M  V30 498 C 48.5762 1.84469 -0.650434 0
M  V30 499 C 48.9562 1.92319 0.870433 0
M  V30 500 O 48.3042 1.44528 1.76986 0
M  V30 501 C 48.5142 3.2306 -1.32036 0
M  V30 502 C 49.8622 3.9915 -1.44792 0
M  V30 503 O 50.8862 3.32481 -1.27806 0
M  V30 504 O 49.7452 5.18587 -1.72423 0
M  V30 505 H 46.8392 0.795251 -0.226946 0
M  V30 506 H 49.3852 1.26231 -1.13419 0
M  V30 507 H 48.1572 3.1222 -2.3587 0
M  V30 508 H 47.7802 3.88949 -0.8249 0
M  V30 509 N 48.7773 0.814389 1.34928 0
M  V30 510 C 50.0023 0.410097 2.03305 0
M  V30 511 C 50.4273 -0.973464 1.60951 0
M  V30 512 O 49.7853 -1.63185 0.789964 0
M  V30 513 C 49.8333 0.51049 3.56968 0
M  V30 514 O 48.9373 -0.473035 4.09678 0
M  V30 515 H 48.2783 0.170088 0.641846 0
M  V30 516 H 50.8083 1.10244 1.72358 0
M  V30 517 H 50.8183 0.383135 4.06197 0
M  V30 518 H 49.4933 1.51963 3.87144 0
M  V30 519 H 48.0703 -0.305272 3.71648 0
M  V30 520 N 50.2554 -1.46986 0.568584 0
M  V30 521 C 51.5024 -2.02441 0.0487986 0
M  V30 522 C 51.8304 -1.44169 -1.30559 0
M  V30 523 O 51.0854 -0.591213 -1.86556 0
M  V30 524 C 51.3844 -3.57306 -0.081836 0
M  V30 525 C 51.0504 -4.34552 1.20313 0
M  V30 526 C 49.7124 -4.55376 1.5552 0
M  V30 527 C 52.0644 -4.79016 2.05411 0
M  V30 528 C 49.3924 -5.17913 2.7565 0
M  V30 529 C 51.7444 -5.42879 3.24754 0
M  V30 530 C 50.4084 -5.61933 3.60261 0
M  V30 531 H 49.6784 -0.740785 0.0178567 0
M  V30 532 H 52.3254 -1.76525 0.742384 0
M  V30 533 H 50.6304 -3.8228 -0.858463 0
M  V30 534 H 52.3274 -3.97876 -0.499546 0
M  V30 535 H 48.9174 -4.18631 0.919014 0
M  V30 536 H 53.1014 -4.62696 1.79516 0
M  V30 537 H 48.3574 -5.30858 3.03315 0
M  V30 538 H 52.5314 -5.76293 3.90973 0
M  V30 539 H 50.1584 -6.10161 4.53439 0
M  V30 540 N 51.7335 -0.305618 -1.54608 0
M  V30 541 C 52.9795 0.295595 -2.01241 0
M  V30 542 C 53.3345 1.51171 -1.19018 0
M  V30 543 O 52.6275 1.89832 -0.259684 0
M  V30 544 C 52.8215 0.698983 -3.50498 0
M  V30 545 C 52.6505 -0.476491 -4.47168 0
M  V30 546 C 51.4205 -0.969963 -4.95903 0
M  V30 547 C 53.6185 -1.32294 -4.96994 0
M  V30 548 N 51.6005 -2.11172 -5.76437 0
M  V30 549 C 52.9715 -2.31212 -5.75275 0
M  V30 550 C 55.0265 -1.35278 -4.7917 0
M  V30 551 C 53.7295 -3.32896 -6.37631 0
M  V30 552 C 55.7555 -2.35823 -5.42348 0
M  V30 553 C 55.1175 -3.33469 -6.20466 0
M  V30 554 H 51.2165 0.0724992 -0.778632 0
M  V30 555 H 53.8005 -0.436583 -1.89742 0
M  V30 556 H 51.9715 1.40032 -3.62278 0
M  V30 557 H 53.7035 1.28013 -3.8392 0
M  V30 558 H 50.4585 -0.544178 -4.70463 0
M  V30 559 H 50.8825 -2.68714 -6.21387 0
M  V30 560 H 55.5245 -0.61157 -4.18354 0
M  V30 561 H 53.2425 -4.07933 -6.97579 0
M  V30 562 H 56.8285 -2.38911 -5.30484 0
M  V30 563 H 55.7085 -4.09996 -6.68485 0
M  V30 564 N 53.2116 1.57565 -0.0334293 0
M  V30 565 C 54.1746 2.09393 0.932048 0
M  V30 566 C 55.1746 1.00986 1.25134 0
M  V30 567 O 56.3646 1.27129 1.19096 0
M  V30 568 C 53.4966 2.56338 2.2473 0
M  V30 569 H 54.6896 2.95984 0.483085 0
M  V30 570 H 52.2426 1.54819 0.21468 0
M  V30 571 H 52.9776 1.7309 2.74245 0
M  V30 572 H 52.7626 3.35542 2.02865 0
M  V30 573 H 54.2526 2.96646 2.93923 0
M  V30 574 N 54.6897 -0.239769 1.55765 0
M  V30 575 C 55.9377 -0.964892 1.77579 0
M  V30 576 C 56.2587 -1.85582 0.598699 0
M  V30 577 O 55.5287 -1.92075 -0.385226 0
M  V30 578 H 54.1087 -0.359265 0.654933 0
M  V30 579 H 56.7707 -0.256001 1.93211 0
M  V30 580 H 55.8667 -1.58243 2.69009 0
M  V30 581 N 56.1678 -1.49265 -0.50573 0
M  V30 582 C 57.4138 -1.58748 -1.26202 0
M  V30 583 C 57.7468 -0.271227 -1.92297 0
M  V30 584 O 57.0218 0.724831 -1.80489 0
M  V30 585 C 57.3048 -2.74332 -2.33268 0
M  V30 586 C 57.1578 -4.15737 -1.71705 0
M  V30 587 C 58.4768 -2.85576 -3.34865 0
M  V30 588 H 55.5958 -0.577826 -0.457478 0
M  V30 589 H 58.2378 -1.81532 -0.560897 0
M  V30 590 H 56.3878 -2.55036 -2.93068 0
M  V30 591 H 58.0598 -4.46537 -1.15769 0
M  V30 592 H 56.3028 -4.21605 -1.02135 0
M  V30 593 H 56.9738 -4.92477 -2.49341 0
M  V30 594 H 59.4498 -3.03127 -2.8505 0
M  V30 595 H 58.3258 -3.68135 -4.07146 0
M  V30 596 H 58.5868 -1.94732 -3.96903 0
M  V30 597 N 57.6459 0.756429 -1.3826 0
M  V30 598 C 58.9229 1.50584 -1.24835 0
M  V30 599 C 59.3029 2.10556 0.151485 0
M  V30 600 O 58.6509 1.96825 1.1607 0
M  V30 601 C 58.8609 2.57448 -2.3563 0
M  V30 602 C 60.2089 3.24429 -2.73917 0
M  V30 603 O 61.2329 2.67751 -2.34921 0
M  V30 604 O 60.0919 4.26937 -3.41156 0
M  V30 605 H 57.1859 0.667664 -0.48801 0
M  V30 606 H 59.7319 0.792083 -1.5008 0
M  V30 607 H 58.5039 2.11362 -3.29305 0
M  V30 608 H 58.1269 3.36408 -2.11933 0
M  V30 609 N 59.124 1.23083 0.984299 0
M  V30 610 C 60.071 1.00854 2.07598 0
M  V30 611 C 61.041 -0.0726709 1.65941 0
M  V30 612 O 62.226 0.0786535 1.90638 0
M  V30 613 C 59.366 0.601645 3.39815 0
M  V30 614 C 58.479 1.75456 3.94765 0
M  V30 615 C 57.614 1.29482 5.15177 0
M  V30 616 C 56.653 2.41873 5.62284 0
M  V30 617 N 55.79 1.96885 6.73929 0
M  V30 618 H 60.63 1.943 2.25946 0
M  V30 619 H 58.167 0.968001 1.10762 0
M  V30 620 H 60.125 0.346854 4.15756 0
M  V30 621 H 58.755 -0.295803 3.21442 0
M  V30 622 H 57.807 2.12346 3.15616 0
M  V30 623 H 59.119 2.59965 4.25699 0
M  V30 624 H 58.273 0.997923 5.98437 0
M  V30 625 H 57.012 0.420046 4.85888 0
M  V30 626 H 56.017 2.72342 4.77608 0
M  V30 627 H 57.242 3.29881 5.93595 0
M  V30 628 H 55.188 1.11782 6.46406 0
M  V30 629 H 55.105 2.74956 7.04227 0
M  V30 630 H 56.373 1.70289 7.60672 0
M  V30 631 N 60.6021 -1.18246 1.0419 0
M  V30 632 C 61.8481 -1.88536 0.747122 0
M  V30 633 C 62.1811 -1.80223 -0.723409 0
M  V30 634 O 61.4561 -1.20337 -1.52804 0
M  V30 635 C 61.7391 -3.38968 1.21544 0
M  V30 636 C 61.5921 -3.56084 2.74816 0
M  V30 637 C 62.9111 -4.32648 0.806482 0
M  V30 638 H 60.0301 -0.684619 0.272883 0
M  V30 639 H 62.6721 -1.39113 1.29413 0
M  V30 640 H 60.8221 -3.8119 0.750081 0
M  V30 641 H 62.4941 -3.22946 3.29399 0
M  V30 642 H 60.7371 -2.98699 3.14582 0
M  V30 643 H 61.4081 -4.61639 3.02644 0
M  V30 644 H 63.8841 -3.98211 1.20695 0
M  V30 645 H 62.7601 -5.36462 1.1619 0
M  V30 646 H 63.0211 -4.41146 -0.29029 0
M  V30 647 N 62.0802 -0.821533 -1.34494 0
M  V30 648 C 63.3262 -0.409552 -1.98622 0
M  V30 649 C 63.6592 1.0244 -1.64984 0
M  V30 650 O 62.9342 1.71325 -0.920758 0
M  V30 651 C 63.2172 -0.610458 -3.54888 0
M  V30 652 C 63.0702 -2.09043 -3.98273 0
M  V30 653 C 64.3892 -0.0455379 -4.40076 0
M  V30 654 H 61.5082 -0.15028 -0.721516 0
M  V30 655 H 64.1502 -1.03384 -1.59411 0
M  V30 656 H 62.3002 -0.079044 -3.8842 0
M  V30 657 H 63.9722 -2.68537 -3.75081 0
M  V30 658 H 62.2152 -2.58139 -3.48635 0
M  V30 659 H 62.8862 -2.18182 -5.07051 0
M  V30 660 H 65.3622 -0.499557 -4.1309 0
M  V30 661 H 64.2382 -0.215922 -5.48475 0
M  V30 662 H 64.4992 1.04939 -4.29465 0
M  V30 663 N 63.5583 1.46682 -0.576371 0
M  V30 664 C 64.5213 2.28707 0.150239 0
M  V30 665 C 65.5213 1.38035 0.824794 0
M  V30 666 O 66.7113 1.60476 0.677719 0
M  V30 667 C 63.8433 3.18248 1.22192 0
M  V30 668 H 65.0363 2.94423 -0.570521 0
M  V30 669 H 62.5893 1.52688 -0.334078 0
M  V30 670 H 63.3243 2.57265 1.97447 0
M  V30 671 H 63.1093 3.85 0.742812 0
M  V30 672 H 64.5993 3.80001 1.73172 0
M  V30 673 N 65.0364 0.313813 1.54444 0
M  V30 674 C 66.3134 -0.345447 1.92525 0
M  V30 675 C 66.6934 -1.70667 1.24242 0
M  V30 676 O 66.0414 -2.25273 0.382654 0
M  V30 677 C 66.2514 -0.44737 3.46121 0
M  V30 678 C 67.5994 -0.712238 4.18584 0
M  V30 679 O 68.6234 -0.530678 3.52225 0
M  V30 680 O 67.4824 -1.06183 5.36085 0
M  V30 681 H 64.5764 -0.195407 0.803583 0
M  V30 682 H 67.1224 0.362813 1.65776 0
M  V30 683 H 65.8944 0.509043 3.87975 0
M  V30 684 H 65.5174 -1.20359 3.78945 0
M  V30 685 N 66.5145 -1.57545 0.0417849 0
M  V30 686 C 67.4445 -2.14009 -0.933929 0
M  V30 687 C 68.4255 -1.05938 -1.33083 0
M  V30 688 O 69.6105 -1.33833 -1.40721 0
M  V30 689 C 66.7405 -2.67747 -2.21199 0
M  V30 690 C 65.6945 -3.80718 -1.95544 0
M  V30 691 C 65.0205 -4.20935 -3.29724 0
M  V30 692 C 66.3205 -5.06258 -1.28452 0
M  V30 693 H 68.0145 -2.95788 -0.463645 0
M  V30 694 H 65.5605 -1.42285 -0.221573 0
M  V30 695 H 67.5135 -3.05886 -2.89848 0
M  V30 696 H 66.2375 -1.83147 -2.70416 0
M  V30 697 H 64.8965 -3.43037 -1.2931 0
M  V30 698 H 64.5445 -3.33298 -3.76724 0
M  V30 699 H 64.2445 -4.9707 -3.13361 0
M  V30 700 H 65.7685 -4.61666 -3.9962 0
M  V30 701 H 67.1825 -5.41903 -1.8712 0
M  V30 702 H 65.5795 -5.87475 -1.22445 0
M  V30 703 H 66.6495 -4.84207 -0.259219 0
M  V30 704 N 67.9926 0.231505 -1.5589 0
M  V30 705 C 69.2206 0.974505 -1.82513 0
M  V30 706 C 69.6356 1.78344 -0.619591 0
M  V30 707 O 68.9926 1.77792 0.411848 0
M  V30 708 C 69.0436 1.90007 -3.07538 0
M  V30 709 O 68.7646 1.12385 -4.2344 0
M  V30 710 C 70.2656 2.75779 -3.47075 0
M  V30 711 H 67.4856 0.286065 -0.606966 0
M  V30 712 H 70.0296 0.249739 -2.02969 0
M  V30 713 H 68.1846 2.57891 -2.89086 0
M  V30 714 H 68.5986 1.75125 -4.944 0
M  V30 715 H 70.0726 3.36443 -4.37619 0
M  V30 716 H 70.5496 3.47672 -2.68367 0
M  V30 717 H 71.1556 2.13323 -3.67931 0
M  V30 718 N 69.4707 1.49531 0.497807 0
M  V30 719 C 70.8817 1.52344 1.07927 0
M  V30 720 C 71.2327 0.311469 1.93712 0
M  V30 721 O 70.3577 -0.578405 2.08527 0
M  V30 722 C 70.9527 2.76062 1.96405 0
M  V30 723 C 69.5117 2.81643 2.49709 0
M  V30 724 C 68.6587 2.46299 1.27404 0
M  V30 725 H 71.6097 1.56182 0.281576 0
M  V30 726 H 71.6307 2.56405 2.81135 0
M  V30 727 H 71.1427 3.64254 1.33943 0
M  V30 728 H 69.2437 1.97739 3.15801 0
M  V30 729 H 69.3567 3.83891 2.86643 0
M  V30 730 H 67.7207 1.98148 1.60029 0
M  V30 731 H 68.5037 3.36769 0.66645 0
M  V30 732 N 70.9488 -0.749086 1.3866 0
M  V30 733 C 71.8808 -1.87273 1.32142 0
M  V30 734 C 72.8938 -1.61127 0.232787 0
M  V30 735 O 74.0828 -1.71623 0.49069 0
M  V30 736 C 71.1828 -3.23005 1.02571 0
M  V30 737 C 70.3558 -3.7662 2.22433 0
M  V30 738 C 69.4148 -4.90879 1.89537 0
M  V30 739 O 68.4408 -5.05276 2.62078 0
M  V30 740 N 69.6428 -5.74198 0.853031 0
M  V30 741 H 72.4078 -1.93373 2.28969 0
M  V30 742 H 69.9688 -0.929216 1.32579 0
M  V30 743 H 71.9608 -3.96992 0.786085 0
M  V30 744 H 70.5308 -3.12262 0.145249 0
M  V30 745 H 69.7508 -2.94147 2.62434 0
M  V30 746 H 71.0388 -4.09173 3.02415 0
M  V30 747 H 70.4368 -5.6514 0.25155 0
M  V30 748 H 68.9938 -6.48313 0.67329 0
M  V30 749 N 72.4269 -1.23603 -0.977757 0
M  V30 750 C 73.3749 -1.01704 -2.09187 0
M  V30 751 C 74.3689 0.0448214 -1.69341 0
M  V30 752 O 75.5749 -0.108902 -1.7967 0
M  V30 753 H 71.9499 -0.311803 -0.684312 0
M  V30 754 H 73.9209 -1.96207 -2.24823 0
M  V30 755 C 72.6699 -0.627746 -3.41986 0
M  V30 756 H 71.9929 -1.43656 -3.73099 0
M  V30 757 H 73.4329 -0.514053 -4.20872 0
M  V30 758 C 71.8919 0.664238 -3.30287 0
M  V30 759 O 72.4219 1.71268 -3.6336 0
M  V30 760 N 70.6279 0.641156 -2.83439 0
M  V30 761 H 70.1749 -0.212376 -2.56723 0
M  V30 762 H 70.1329 1.50583 -2.75993 0
M  V30 763 N 73.905 1.17692 -1.04816 0
M  V30 764 C 74.837 2.21103 -0.603822 0
M  V30 765 C 75.85 1.59411 0.33046 0
M  V30 766 O 77.039 1.7807 0.12379 0
M  V30 767 C 74.139 3.38623 0.136898 0
M  V30 768 C 73.312 4.29888 -0.807137 0
M  V30 769 C 72.371 5.26088 -0.10836 0
M  V30 770 O 71.397 5.64353 -0.741232 0
M  V30 771 N 72.599 5.68882 1.15558 0
M  V30 772 H 75.364 2.59848 -1.49329 0
M  V30 773 H 72.925 1.32553 -0.929587 0
M  V30 774 H 74.917 4.00009 0.614401 0
M  V30 775 H 73.487 2.98508 0.927993 0
M  V30 776 H 72.707 3.65993 -1.46434 0
M  V30 777 H 73.995 4.87759 -1.44807 0
M  V30 778 H 73.393 5.39861 1.69015 0
M  V30 779 H 71.95 6.32429 1.57722 0
M  V30 780 N 75.3831 0.828654 1.34056 0
M  V30 781 C 76.3461 0.259927 2.27721 0
M  V30 782 C 77.3461 -0.565478 1.50529 0
M  V30 783 O 78.5361 -0.38075 1.69988 0
M  V30 784 C 75.6681 -0.634944 3.34935 0
M  V30 785 H 76.8611 1.0863 2.79534 0
M  V30 786 H 74.4141 0.600951 1.44285 0
M  V30 787 H 75.1491 -1.48416 2.88346 0
M  V30 788 H 74.9341 -0.0444999 3.92075 0
M  V30 789 H 76.4241 -1.02648 4.04788 0
M  V30 790 N 76.8612 -1.46375 0.584142 0
M  V30 791 C 77.7912 -2.33103 -0.136037 0
M  V30 792 C 78.7722 -1.45431 -0.882255 0
M  V30 793 O 79.9572 -1.74246 -0.857434 0
M  V30 794 C 77.0872 -3.27731 -1.14933 0
M  V30 795 C 76.0412 -4.24855 -0.517862 0
M  V30 796 C 75.3672 -5.09001 -1.63773 0
M  V30 797 C 76.6672 -5.19439 0.545886 0
M  V30 798 H 78.3612 -2.93568 0.588086 0
M  V30 799 H 75.9072 -1.41166 0.284259 0
M  V30 800 H 77.8602 -3.87261 -1.66153 0
M  V30 801 H 76.5842 -2.65377 -1.90375 0
M  V30 802 H 75.2432 -3.6659 -0.0267361 0
M  V30 803 H 74.8912 -4.43031 -2.38185 0
M  V30 804 H 74.5912 -5.74777 -1.22085 0
M  V30 805 H 76.1152 -5.71396 -2.15266 0
M  V30 806 H 77.5292 -5.73177 0.118704 0
M  V30 807 H 75.9262 -5.93566 0.88317 0
M  V30 808 H 76.9962 -4.63285 1.43162 0
M  V30 809 N 78.3393 -0.321999 -1.54275 0
M  V30 810 C 79.2693 0.537411 -2.27231 0
M  V30 811 C 80.2503 1.12064 -1.27968 0
M  V30 812 O 81.4353 1.14606 -1.56777 0
M  V30 813 C 78.5653 1.69919 -3.02894 0
M  V30 814 C 77.5193 1.24534 -4.09482 0
M  V30 815 C 76.8453 2.49394 -4.72977 0
M  V30 816 C 78.1453 0.361335 -5.21049 0
M  V30 817 H 79.8393 -0.0711406 -2.99315 0
M  V30 818 H 77.3853 -0.0356555 -1.43956 0
M  V30 819 H 79.3383 2.30668 -3.52662 0
M  V30 820 H 78.0623 2.33431 -2.28424 0
M  V30 821 H 76.7213 0.660782 -3.60596 0
M  V30 822 H 76.3693 3.11265 -3.95124 0
M  V30 823 H 76.0693 2.19718 -5.44975 0
M  V30 824 H 77.5933 3.10908 -5.25517 0
M  V30 825 H 79.0073 0.875072 -5.66582 0
M  V30 826 H 77.4043 0.157428 -5.99893 0
M  V30 827 H 78.4743 -0.60822 -4.8107 0
M  V30 828 N 79.8174 1.5752 -0.0501392 0
M  V30 829 C 80.7654 2.12651 0.942459 0
M  V30 830 C 81.7594 1.05807 1.32292 0
M  V30 831 O 82.9654 1.24217 1.3027 0
M  V30 832 H 79.3404 0.679673 0.321789 0
M  V30 833 H 81.3114 2.94951 0.452356 0
M  V30 834 C 80.0604 2.68565 2.20836 0
M  V30 835 H 79.3834 3.50439 1.92439 0
M  V30 836 H 80.8234 3.10761 2.8845 0
M  V30 837 C 79.2824 1.62291 2.95234 0
M  V30 838 O 79.8124 1.03508 3.88135 0
M  V30 839 N 78.0184 1.33836 2.57946 0
M  V30 840 H 77.5654 1.81826 1.82475 0
M  V30 841 H 77.5234 0.629595 3.08032 0
M  V30 842 N 81.2955 -0.223234 1.56011 0
M  V30 843 C 82.2585 -1.26014 1.9145 0
M  V30 844 C 83.2585 -1.3989 0.792937 0
M  V30 845 O 84.4485 -1.38184 1.0607 0
M  V30 846 C 81.5805 -2.63422 2.16383 0
M  V30 847 H 82.7735 -0.95796 2.84189 0
M  V30 848 H 80.3265 -0.463576 1.49267 0
M  V30 849 H 81.0615 -2.98741 1.2619 0
M  V30 850 H 80.8465 -2.54728 2.98088 0
M  V30 851 H 82.3365 -3.38249 2.44903 0
M  V30 852 N 82.7736 -1.49793 -0.48987 0
M  V30 853 C 84.1896 -1.36803 -0.822022 0
M  V30 854 C 84.3896 -0.409652 -1.97292 0
M  V30 855 O 83.4456 0.154614 -2.52026 0
M  V30 856 C 84.7586 -2.77768 -1.15175 0
M  V30 857 C 86.3066 -2.86549 -1.25931 0
M  V30 858 C 86.7816 -4.28306 -1.62228 0
M  V30 859 N 88.2726 -4.31169 -1.69256 0
M  V30 860 C 89.0076 -5.37832 -1.98807 0
M  V30 861 N 88.5036 -6.54726 -2.26507 0
M  V30 862 N 90.2966 -5.25258 -2.00152 0
M  V30 863 H 82.4476 -2.10691 0.268881 0
M  V30 864 H 84.7106 -0.946241 0.057728 0
M  V30 865 H 84.4166 -3.49648 -0.379335 0
M  V30 866 H 84.2906 -3.13836 -2.09253 0
M  V30 867 H 86.6776 -2.14899 -2.02243 0
M  V30 868 H 86.7586 -2.54049 -0.298776 0
M  V30 869 H 86.4026 -5.00486 -0.864622 0
M  V30 870 H 86.3326 -4.58279 -2.594 0
M  V30 871 H 88.8236 -3.4687 -1.49965 0
M  V30 872 H 89.1366 -7.31833 -2.48276 0
M  V30 873 H 87.4816 -6.57933 -2.23939 0
M  V30 874 H 90.6726 -4.32938 -1.77996 0
M  V30 875 H 90.8456 -6.08476 -2.22848 0
M  V30 876 N 84.2517 0.741722 -1.39055 0
M  V30 877 C 85.5287 1.49252 -1.26425 0
M  V30 878 C 85.9087 2.10705 0.129144 0
M  V30 879 O 85.2567 1.98045 1.13976 0
M  V30 880 C 85.4667 2.54934 -2.38347 0
M  V30 881 C 86.8147 3.21506 -2.77343 0
M  V30 882 O 87.8387 2.65245 -2.37747 0
M  V30 883 O 86.6977 4.23294 -3.45665 0
M  V30 884 H 83.7917 0.662451 -0.495064 0
M  V30 885 H 86.3377 0.776121 -1.50912 0
M  V30 886 H 85.1097 2.07857 -3.31529 0
M  V30 887 H 84.7327 3.34141 -2.15489 0
M  V30 888 N 85.7298 1.2412 0.971189 0
M  V30 889 C 86.6398 1.04747 2.09917 0
M  V30 890 C 87.6558 -0.0107162 1.73997 0
M  V30 891 O 88.8318 0.186714 2.00533 0
M  V30 892 C 85.8968 0.650828 3.40537 0
M  V30 893 C 84.9578 1.7851 3.90426 0
M  V30 894 C 84.1908 1.40729 5.14812 0
M  V30 895 O 84.4138 0.29557 5.69634 0
M  V30 896 O 83.3478 2.23168 5.58999 0
M  V30 897 H 87.1738 1.99304 2.29154 0
M  V30 898 H 84.7588 1.02908 1.08307 0
M  V30 899 H 86.6408 0.440992 4.19086 0
M  V30 900 H 85.3158 -0.265649 3.22608 0
M  V30 901 H 84.2228 2.04966 3.12953 0
M  V30 902 H 85.5558 2.68023 4.12825 0
M  V30 903 N 87.2079 -1.17134 1.05439 0
M  V30 904 C 88.1379 -2.2342 0.678649 0
M  V30 905 C 89.1189 -1.66971 -0.32476 0
M  V30 906 O 90.3039 -1.93149 -0.201802 0
M  V30 907 C 87.4339 -3.47256 0.0552099 0
M  V30 908 C 86.3879 -4.16543 0.98365 0
M  V30 909 C 85.7139 -5.34231 0.223961 0
M  V30 910 C 87.0139 -4.68495 2.3089 0
M  V30 911 H 88.7079 -2.55105 1.56722 0
M  V30 912 H 86.2539 -1.2262 0.754998 0
M  V30 913 H 88.2069 -4.20828 -0.21946 0
M  V30 914 H 86.9309 -3.14846 -0.868319 0
M  V30 915 H 85.5899 -3.44887 1.24293 0
M  V30 916 H 85.2379 -4.98071 -0.702412 0
M  V30 917 H 84.9379 -5.81527 0.842627 0
M  V30 918 H 86.4619 -6.10585 -0.0433671 0
M  V30 919 H 87.8759 -5.33691 2.09396 0
M  V30 920 H 86.2729 -5.26379 2.88176 0
M  V30 921 H 87.3429 -3.85169 2.94572 0
M  V30 922 N 88.686 -0.835752 -1.33615 0
M  V30 923 C 89.618 -0.224151 -2.28101 0
M  V30 924 C 90.631 0.593331 -1.51603 0
M  V30 925 O 91.82 0.420911 -1.73466 0
M  V30 926 C 88.92 0.703309 -3.31522 0
M  V30 927 C 88.093 -0.0741528 -4.37337 0
M  V30 928 C 87.152 0.776176 -5.20444 0
M  V30 929 O 86.178 0.216506 -5.68788 0
M  V30 930 N 87.38 2.09401 -5.41416 0
M  V30 931 H 90.145 -1.03598 -2.81225 0
M  V30 932 H 87.706 -0.69392 -1.46275 0
M  V30 933 H 89.698 1.27707 -3.84022 0
M  V30 934 H 88.268 1.41585 -2.78698 0
M  V30 935 H 87.488 -0.82928 -3.85378 0
M  V30 936 H 88.776 -0.608863 -5.05144 0
M  V30 937 H 88.174 2.57229 -5.03835 0
M  V30 938 H 86.731 2.61633 -5.96985 0
M  V30 939 N 90.1641 1.46063 -0.591896 0
M  V30 940 C 91.1271 2.28854 0.125973 0
M  V30 941 C 92.1271 1.38903 0.810107 0
M  V30 942 O 93.3171 1.61186 0.66066 0
M  V30 943 C 90.4491 3.19526 1.1881 0
M  V30 944 H 91.6421 2.93802 -0.601717 0
M  V30 945 H 89.1951 1.52325 -0.350254 0
M  V30 946 H 89.9301 2.59345 1.94707 0
M  V30 947 H 89.7151 3.85766 0.701936 0
M  V30 948 H 91.2051 3.81817 1.69132 0
M  V30 949 N 91.6422 0.330177 1.54103 0
M  V30 950 C 92.5742 -0.566902 2.22079 0
M  V30 951 C 93.5872 -1.07462 1.22294 0
M  V30 952 O 94.7762 -0.987065 1.48726 0
M  V30 953 C 91.8762 -1.79138 2.87685 0
M  V30 954 C 91.0492 -1.42123 4.13666 0
M  V30 955 C 90.1082 -2.50394 4.62806 0
M  V30 956 O 89.1342 -2.14261 5.27334 0
M  V30 957 N 90.3362 -3.81433 4.37595 0
M  V30 958 H 93.1012 0.0151844 2.99696 0
M  V30 959 H 90.6622 0.153681 1.61169 0
M  V30 960 H 92.6542 -2.50975 3.1748 0
M  V30 961 H 91.2242 -2.28115 2.13734 0
M  V30 962 H 90.4442 -0.534201 3.90564 0
M  V30 963 H 91.7322 -1.14971 4.9564 0
M  V30 964 H 91.1302 -4.13584 3.8596 0
M  V30 965 H 89.6872 -4.4948 4.72029 0
M  V30 966 N 93.1203 -1.57491 0.0584922 0
M  V30 967 C 94.3693 -1.92155 -0.613146 0
M  V30 968 C 94.6823 -0.939334 -1.71569 0
M  V30 969 O 95.8883 -1.17829 -2.44599 0
M  V30 970 C 94.3443 -3.41303 -1.14195 0
M  V30 971 C 93.9523 -4.47944 -0.0711265 0
M  V30 972 C 95.6963 -3.84988 -1.78841 0
M  V30 973 C 93.6033 -5.88212 -0.613225 0
M  V30 974 H 92.5333 -0.717162 -0.232796 0
M  V30 975 H 95.1843 -1.83049 0.12857 0
M  V30 976 H 93.5663 -3.45437 -1.93621 0
M  V30 977 H 94.7403 -4.55408 0.702836 0
M  V30 978 H 93.0553 -4.13644 0.478313 0
M  V30 979 H 95.6523 -4.87159 -2.20408 0
M  V30 980 H 95.9953 -3.21632 -2.64308 0
M  V30 981 H 96.5283 -3.83401 -1.06059 0
M  V30 982 H 93.2673 -6.55183 0.203978 0
M  V30 983 H 92.7873 -5.84294 -1.35501 0
M  V30 984 H 94.4663 -6.37687 -1.09383 0
M  V30 985 N 94.5984 0.214957 -1.56127 0
M  V30 986 C 95.8754 0.963093 -1.70247 0
M  V30 987 C 96.2554 2.02166 -0.60764 0
M  V30 988 O 95.6034 2.25244 0.384385 0
M  V30 989 C 95.8134 1.56756 -3.11815 0
M  V30 990 C 97.1614 2.0573 -3.7143 0
M  V30 991 O 98.1854 1.66637 -3.14818 0
M  V30 992 O 97.0444 2.77603 -4.70743 0
M  V30 993 H 94.1384 0.450321 -0.693643 0
M  V30 994 H 96.6844 0.206219 -1.68442 0
M  V30 995 H 95.4564 0.803533 -3.82961 0
M  V30 996 H 95.0794 2.3898 -3.17765 0
M  V30 997 N 96.0765 1.50051 0.48192 0
M  V30 998 C 97.0235 1.68122 1.58125 0
M  V30 999 C 97.9935 0.522545 1.57666 0
M  V30 1000 O 99.1785 0.751844 1.75362 0
M  V30 1001 C 96.3185 1.77142 2.96167 0
M  V30 1002 C 95.4315 3.0444 3.06497 0
M  V30 1003 C 94.5665 3.04321 4.35387 0
M  V30 1004 C 93.6055 4.26118 4.3942 0
M  V30 1005 N 92.7425 4.238 5.59766 0
M  V30 1006 H 97.5825 2.6198 1.42022 0
M  V30 1007 H 95.1195 1.29877 0.690687 0
M  V30 1008 H 97.0775 1.80352 3.76203 0
M  V30 1009 H 95.7075 0.867329 3.1093 0
M  V30 1010 H 94.7595 3.10752 2.19402 0
M  V30 1011 H 96.0715 3.94426 3.05336 0
M  V30 1012 H 95.2255 3.062 5.23762 0
M  V30 1013 H 93.9645 2.12147 4.39141 0
M  V30 1014 H 92.9695 4.24463 3.49444 0
M  V30 1015 H 94.1945 5.19507 4.37366 0
M  V30 1016 H 92.1405 3.34474 5.64326 0
M  V30 1017 H 92.0575 5.07542 5.60301 0
M  V30 1018 H 93.3255 4.2981 6.50295 0
M  V30 1019 N 97.5546 -0.734337 1.39446 0
M  V30 1020 C 98.8006 -1.49505 1.37913 0
M  V30 1021 C 99.1556 -1.92384 -0.0248416 0
M  V30 1022 O 98.4486 -1.6395 -0.991506 0
M  V30 1023 C 98.6426 -2.74711 2.28623 0
M  V30 1024 C 98.4716 -2.44075 3.777 0
M  V30 1025 C 97.2416 -2.36338 4.46623 0
M  V30 1026 C 99.4396 -2.09574 4.69663 0
M  V30 1027 N 97.4216 -1.9818 5.81032 0
M  V30 1028 C 98.7926 -1.81865 5.92727 0
M  V30 1029 C 100.848 -1.96048 4.57678 0
M  V30 1030 C 99.5506 -1.41992 7.05146 0
M  V30 1031 C 101.577 -1.57579 5.7002 0
M  V30 1032 C 100.939 -1.30754 6.92158 0
M  V30 1033 H 97.0376 -0.545896 0.55993 0
M  V30 1034 H 99.6216 -0.853373 1.75002 0
M  V30 1035 H 97.7926 -3.36657 1.93692 0
M  V30 1036 H 99.5246 -3.40916 2.18078 0
M  V30 1037 H 96.2796 -2.53456 4.00071 0
M  V30 1038 H 96.7036 -1.81691 6.52163 0
M  V30 1039 H 101.346 -2.15455 3.63784 0
M  V30 1040 H 99.0636 -1.21327 7.9894 0
M  V30 1041 H 102.65 -1.47718 5.62735 0
M  V30 1042 H 101.53 -1.01432 7.77612 0
M  V30 1043 N 99.0327 -1.24633 -0.964593 0
M  V30 1044 C 99.9827 -1.00841 -2.04487 0
M  V30 1045 C 100.967 0.0512468 -1.60818 0
M  V30 1046 O 102.159 -0.162865 -1.76249 0
M  V30 1047 C 99.2877 -0.618474 -3.37683 0
M  V30 1048 C 98.3737 -1.71437 -3.87905 0
M  V30 1049 N 98.7647 -2.9477 -4.11029 0
M  V30 1050 C 97.0627 -1.5926 -4.16596 0
M  V30 1051 C 97.7637 -3.65834 -4.52261 0
M  V30 1052 N 96.7397 -2.9341 -4.57615 0
M  V30 1053 H 100.542 -1.94487 -2.20345 0
M  V30 1054 H 98.0557 -1.14805 -1.14863 0
M  V30 1055 H 100.053 -0.429247 -4.14684 0
M  V30 1056 H 98.7127 0.310766 -3.23209 0
M  V30 1057 H 99.7237 -3.30917 -3.9839 0
M  V30 1058 H 96.4007 -0.731606 -4.1104 0
M  V30 1059 H 97.7907 -4.71646 -4.78539 0
M  V30 1060 N 100.511 1.16574 -1.06058 0
M  V30 1061 C 101.927 1.3904 -0.783585 0
M  V30 1062 C 102.127 1.91784 0.618145 0
M  V30 1063 O 101.183 2.11511 1.37911 0
M  V30 1064 C 102.496 2.37329 -1.84649 0
M  V30 1065 C 104.044 2.51018 -1.86973 0
M  V30 1066 C 104.519 3.52588 -2.92311 0
M  V30 1067 N 106.01 3.60113 -2.91329 0
M  V30 1068 C 106.745 4.38486 -3.69482 0
M  V30 1069 N 106.241 5.20302 -4.57447 0
M  V30 1070 N 108.034 4.33446 -3.57885 0
M  V30 1071 H 100.185 0.806725 -1.96483 0
M  V30 1072 H 102.448 0.417117 -0.851303 0
M  V30 1073 H 102.154 2.05663 -2.85299 0
M  V30 1074 H 102.028 3.36946 -1.6955 0
M  V30 1075 H 104.415 2.81989 -0.869827 0
M  V30 1076 H 104.496 1.51445 -2.0615 0
M  V30 1077 H 104.14 3.22354 -3.92492 0
M  V30 1078 H 104.07 4.51886 -2.70383 0
M  V30 1079 H 106.561 3.01707 -2.27555 0
M  V30 1080 H 106.874 5.77311 -5.13743 0
M  V30 1081 H 105.219 5.19653 -4.61503 0
M  V30 1082 H 108.41 3.68586 -2.88551 0
M  V30 1083 H 108.583 4.94279 -4.19037 0
M  V30 1084 N 101.989 0.842826 1.3317 0
M  V30 1085 C 103.405 0.531128 1.50503 0
M  V30 1086 C 103.605 -0.940734 1.78192 0
M  V30 1087 O 102.661 -1.72436 1.84451 0
M  V30 1088 C 103.974 1.40789 2.65705 0
M  V30 1089 C 105.522 1.40708 2.79589 0
M  V30 1090 C 105.997 2.26878 3.97857 0
M  V30 1091 N 107.488 2.24609 4.05099 0
M  V30 1092 C 108.223 2.88019 4.95815 0
M  V30 1093 N 107.719 3.60496 5.9162 0
M  V30 1094 N 109.512 2.77469 4.88843 0
M  V30 1095 H 101.663 1.79557 1.1346 0
M  V30 1096 H 103.926 0.766267 0.558156 0
M  V30 1097 H 103.632 2.454 2.51936 0
M  V30 1098 H 103.506 1.08677 3.61205 0
M  V30 1099 H 105.893 0.368668 2.92788 0
M  V30 1100 H 105.974 1.76829 1.84838 0
M  V30 1101 H 105.618 3.3078 3.85418 0
M  V30 1102 H 105.548 1.88096 4.91861 0
M  V30 1103 H 108.039 1.71906 3.36536 0
M  V30 1104 H 108.352 4.06076 6.57512 0
M  V30 1105 H 106.697 3.64604 5.91683 0
M  V30 1106 H 109.888 2.20406 4.12963 0
M  V30 1107 H 110.061 3.2717 5.59342 0
M  V30 1108 N 103.467 -1.45747 0.599634 0
M  V30 1109 C 104.883 -1.57424 0.26264 0
M  V30 1110 C 105.083 -1.59222 -1.23493 0
M  V30 1111 O 104.139 -1.51825 -2.01756 0
M  V30 1112 C 105.452 -2.86061 0.926795 0
M  V30 1113 C 107 -2.99722 0.901967 0
M  V30 1114 C 107.475 -4.31119 1.54598 0
M  V30 1115 N 108.966 -4.37858 1.5111 0
M  V30 1116 C 109.701 -5.3818 1.97863 0
M  V30 1117 N 109.197 -6.45083 2.52666 0
M  V30 1118 N 110.99 -5.29487 1.88679 0
M  V30 1119 H 103.141 -1.42823 1.57211 0
M  V30 1120 H 105.404 -0.68235 0.658105 0
M  V30 1121 H 105.11 -2.90605 1.98095 0
M  V30 1122 H 104.984 -3.74563 0.445238 0
M  V30 1123 H 107.371 -2.9475 -0.143617 0
M  V30 1124 H 107.452 -2.12652 1.42171 0
M  V30 1125 H 107.096 -4.36849 2.59085 0
M  V30 1126 H 107.026 -5.16992 1.00132 0
M  V30 1127 H 109.517 -3.61209 1.11068 0
M  V30 1128 H 109.83 -7.17869 2.86155 0
M  V30 1129 H 108.175 -6.45856 2.56701 0
M  V30 1130 H 111.366 -4.44877 1.4561 0
M  V30 1131 H 111.539 -6.07524 2.25429 0
M  V30 1132 N 104.945 -0.338344 -1.53925 0
M  V30 1133 C 106.191 0.260143 -2.01125 0
M  V30 1134 C 106.524 1.50617 -1.22589 0
M  V30 1135 O 105.799 1.91979 -0.312113 0
M  V30 1136 C 106.082 0.579499 -3.55407 0
M  V30 1137 C 105.935 -0.678264 -4.44657 0
M  V30 1138 C 107.254 1.39122 -4.17532 0
M  V30 1139 H 104.373 0.0930772 -0.731099 0
M  V30 1140 H 107.015 -0.457852 -1.84401 0
M  V30 1141 H 105.165 1.19118 -3.69788 0
M  V30 1142 H 106.837 -1.31631 -4.42121 0
M  V30 1143 H 105.08 -1.3042 -4.13731 0
M  V30 1144 H 105.751 -0.410143 -5.50474 0
M  V30 1145 H 108.227 0.874035 -4.06817 0
M  V30 1146 H 107.103 1.58342 -5.25565 0
M  V30 1147 H 107.364 2.39178 -3.71815 0
M  V30 1148 N 106.423 1.57458 -0.0668435 0
M  V30 1149 C 107.672 1.92477 0.602947 0
M  V30 1150 C 107.985 0.948419 1.71068 0
M  V30 1151 O 109.191 1.19124 2.43971 0
M  V30 1152 C 107.647 3.41903 1.12383 0
M  V30 1153 C 107.255 4.47975 0.04737 0
M  V30 1154 C 108.999 3.85931 1.76797 0
M  V30 1155 C 106.906 5.88529 0.582022 0
M  V30 1156 H 105.836 0.718387 0.22899 0
M  V30 1157 H 108.487 1.82978 -0.138276 0
M  V30 1158 H 106.869 3.46459 1.91787 0
M  V30 1159 H 108.043 4.55029 -0.726978 0
M  V30 1160 H 106.358 4.13384 -0.500243 0
M  V30 1161 H 108.955 4.88322 2.17821 0
M  V30 1162 H 109.298 3.23029 2.62599 0
M  V30 1163 H 109.831 3.83958 1.04024 0
M  V30 1164 H 106.57 6.55065 -0.238721 0
M  V30 1165 H 106.09 5.85004 1.324 0
M  V30 1166 H 107.769 6.38258 1.05999 0
M  V30 1167 N 107.901 -0.206675 1.56239 0
M  V30 1168 C 108.811 -1.27686 1.96808 0
M  V30 1169 C 109.827 -1.50455 0.874035 0
M  V30 1170 O 111.003 -1.63295 1.17884 0
M  V30 1171 C 108.068 -2.60358 2.28942 0
M  V30 1172 C 107.129 -2.45762 3.51994 0
M  V30 1173 C 106.362 -3.72108 3.82585 0
M  V30 1174 O 106.585 -4.75776 3.14631 0
M  V30 1175 O 105.519 -3.6833 4.76043 0
M  V30 1176 H 109.345 -0.962593 2.88041 0
M  V30 1177 H 106.93 -0.410746 1.43643 0
M  V30 1178 H 108.812 -3.38687 2.50737 0
M  V30 1179 H 107.487 -2.91435 1.4088 0
M  V30 1180 H 106.394 -1.65584 3.35459 0
M  V30 1181 H 107.727 -2.19621 4.40486 0
M  V30 1182 N 109.379 -1.50304 -0.473955 0
M  V30 1183 C 110.79 -1.54042 -1.0549 0
M  V30 1184 C 111.141 -0.342248 -1.93192 0
M  V30 1185 O 110.266 0.545157 -2.09421 0
M  V30 1186 C 110.861 -2.79152 -1.91989 0
M  V30 1187 C 109.42 -2.8558 -2.45196 0
M  V30 1188 C 108.567 -2.48295 -1.2347 0
M  V30 1189 H 111.518 -1.5661 -0.256693 0
M  V30 1190 H 111.539 -2.60845 -2.7702 0
M  V30 1191 H 111.051 -3.66339 -1.28131 0
M  V30 1192 H 109.152 -2.02738 -3.12615 0
M  V30 1193 H 109.265 -3.88403 -2.80499 0
M  V30 1194 H 107.629 -2.00669 -1.56856 0
M  V30 1195 H 108.412 -3.37787 -0.612789 0
M  V30 1196 N 110.857 0.726932 -1.39834 0
M  V30 1197 C 112.106 1.48214 -1.36805 0
M  V30 1198 C 112.419 1.95576 0.0305291 0
M  V30 1199 O 113.625 2.7088 0.183417 0
M  V30 1200 C 112.081 2.67854 -2.40379 0
M  V30 1201 C 111.689 2.27408 -3.85992 0
M  V30 1202 C 113.433 3.45641 -2.46439 0
M  V30 1203 C 111.34 3.43819 -4.81189 0
M  V30 1204 H 110.27 0.556606 -0.508631 0
M  V30 1205 H 112.921 0.792216 -1.65518 0
M  V30 1206 H 111.303 3.3896 -2.04749 0
M  V30 1207 H 112.477 1.63795 -4.30706 0
M  V30 1208 H 110.792 1.62692 -3.83302 0
M  V30 1209 H 113.389 4.32244 -3.14753 0
M  V30 1210 H 113.732 3.88669 -1.49139 0
M  V30 1211 H 114.265 2.8157 -2.81004 0
M  V30 1212 H 111.004 3.05834 -5.79781 0
M  V30 1213 H 110.524 4.06385 -4.41148 0
M  V30 1214 H 112.203 4.10043 -5.00474 0
M  V30 1215 N 112.336 1.25143 0.95797 0
M  V30 1216 C 113.613 1.00472 1.67823 0
M  V30 1217 C 113.993 -0.470056 2.058 0
M  V30 1218 O 113.341 -1.44663 1.76875 0
M  V30 1219 C 113.551 1.9372 2.90299 0
M  V30 1220 C 114.899 2.21371 3.62326 0
M  V30 1221 O 115.923 1.91451 3.00375 0
M  V30 1222 O 114.782 2.72231 4.7387 0
M  V30 1223 H 111.876 0.380752 0.734137 0
M  V30 1224 H 114.422 1.36283 1.01119 0
M  V30 1225 H 113.194 2.93316 2.59001 0
M  V30 1226 H 112.817 1.58286 3.64735 0
M  V30 1227 N 113.814 -1.1601 1.06675 0
M  V30 1228 C 114.747 -2.1947 0.625168 0
M  V30 1229 C 115.725 -1.58699 -0.354041 0
M  V30 1230 O 116.909 -1.86669 -0.262098 0
M  V30 1231 C 114.036 -3.38598 -0.0829593 0
M  V30 1232 C 113.082 -4.1787 0.853611 0
M  V30 1233 S 113.915 -4.81135 2.35094 0
M  V30 1234 C 115.071 -6.03639 1.65441 0
M  V30 1235 H 115.304 -2.56587 1.50168 0
M  V30 1236 H 112.837 -1.26862 0.880078 0
M  V30 1237 H 114.795 -4.07621 -0.485288 0
M  V30 1238 H 113.456 -2.99839 -0.935716 0
M  V30 1239 H 112.649 -5.03078 0.304755 0
M  V30 1240 H 112.251 -3.54361 1.196 0
M  V30 1241 H 114.543 -6.70632 0.962201 0
M  V30 1242 H 115.486 -6.63081 2.48454 0
M  V30 1243 H 115.894 -5.52965 1.13534 0
M  V30 1244 N 115.292 -0.849877 -1.32721 0
M  V30 1245 C 116.569 -0.372405 -1.92022 0
M  V30 1246 C 116.949 1.1435 -1.77447 0
M  V30 1247 O 116.297 1.96296 -1.16962 0
M  V30 1248 C 116.507 -0.831482 -3.3895 0
M  V30 1249 C 117.855 -0.845882 -4.16089 0
M  V30 1250 O 118.879 -0.775806 -3.47649 0
M  V30 1251 O 117.738 -0.943753 -5.38289 0
M  V30 1252 H 114.832 -0.107667 -0.819961 0
M  V30 1253 H 117.378 -0.93646 -1.41522 0
M  V30 1254 H 116.15 -1.87448 -3.4348 0
M  V30 1255 H 115.773 -0.24461 -3.96847 0
M  V30 1256 N 116.77 1.45427 -0.607355 0
M  V30 1257 C 117.733 2.28974 0.101693 0
M  V30 1258 C 118.733 1.39754 0.795329 0
M  V30 1259 O 119.923 1.61878 0.643527 0
M  V30 1260 C 117.055 3.20768 1.15414 0
M  V30 1261 H 118.248 2.93147 -0.632844 0
M  V30 1262 H 115.801 1.51945 -0.366391 0
M  V30 1263 H 116.536 2.61395 1.91945 0
M  V30 1264 H 116.321 3.86489 0.66098 0
M  V30 1265 H 117.811 3.83589 1.65073 0
M  V30 1266 N 118.248 0.346503 1.53744 0
M  V30 1267 C 119.478 -0.250047 2.05081 0
M  V30 1268 C 119.886 -1.44529 1.22098 0
M  V30 1269 O 119.229 -1.81992 0.249917 0
M  V30 1270 C 119.291 -0.725934 3.52094 0
M  V30 1271 C 118.955 0.350053 4.55657 0
M  V30 1272 C 119.952 1.19372 5.0601 0
M  V30 1273 C 117.637 0.504827 4.99757 0
M  V30 1274 C 119.631 2.17768 5.99046 0
M  V30 1275 C 117.318 1.49218 5.92602 0
M  V30 1276 C 118.316 2.32706 6.42135 0
M  V30 1277 O 118.004 3.2976 7.33153 0
M  V30 1278 H 117.736 -0.0515469 0.674032 0
M  V30 1279 H 120.29 0.497559 1.99282 0
M  V30 1280 H 118.52 -1.52483 3.55367 0
M  V30 1281 H 120.209 -1.24336 3.86388 0
M  V30 1282 H 120.975 1.08525 4.72702 0
M  V30 1283 H 116.854 -0.135178 4.60802 0
M  V30 1284 H 120.398 2.82971 6.37631 0
M  V30 1285 H 116.295 1.6012 6.25325 0
M  V30 1286 H 117.063 3.25265 7.51096 0
M  V30 1287 N 119.726 -1.57421 0.075193 0
M  V30 1288 C 121.142 -1.57099 -0.281444 0
M  V30 1289 C 121.342 -1.08486 -1.69803 0
M  V30 1290 O 120.398 -0.752279 -2.41033 0
M  V30 1291 C 121.711 -3.00571 -0.0880041 0
M  V30 1292 C 123.259 -3.12605 -0.157281 0
M  V30 1293 C 123.734 -4.57999 0.0079207 0
M  V30 1294 N 125.225 -4.63176 -0.0475725 0
M  V30 1295 C 125.96 -5.73373 0.0557876 0
M  V30 1296 N 125.456 -6.92473 0.21286 0
M  V30 1297 N 127.249 -5.621 -0.00152098 0
M  V30 1298 H 119.4 -1.87335 1.00098 0
M  V30 1299 H 121.663 -0.86377 0.390646 0
M  V30 1300 H 121.369 -3.40262 0.889629 0
M  V30 1301 H 121.243 -3.67754 -0.838875 0
M  V30 1302 H 123.63 -2.72798 -1.1254 0
M  V30 1303 H 123.711 -2.48053 0.62475 0
M  V30 1304 H 123.355 -4.98496 0.972824 0
M  V30 1305 H 123.285 -5.20586 -0.793556 0
M  V30 1306 H 125.776 -3.7753 -0.167244 0
M  V30 1307 H 126.089 -7.72279 0.283781 0
M  V30 1308 H 124.434 -6.94556 0.248267 0
M  V30 1309 H 127.625 -4.67938 -0.122958 0
M  V30 1310 H 127.798 -6.47948 0.0824844 0
M  V30 1311 N 121.204 0.198386 -1.56346 0
M  V30 1312 C 122.136 1.26987 -1.90806 0
M  V30 1313 C 123.149 1.41877 -0.798419 0
M  V30 1314 O 124.338 1.42362 -1.07682 0
M  V30 1315 C 121.438 2.64246 -2.12196 0
M  V30 1316 C 120.611 2.71007 -3.43328 0
M  V30 1317 C 119.67 3.89439 -3.5387 0
M  V30 1318 O 118.696 3.76695 -4.26719 0
M  V30 1319 N 119.898 5.04752 -2.86715 0
M  V30 1320 H 122.663 0.977433 -2.83313 0
M  V30 1321 H 120.224 0.388322 -1.57174 0
M  V30 1322 H 122.216 3.41896 -2.1654 0
M  V30 1323 H 120.786 2.85992 -1.26204 0
M  V30 1324 H 120.006 1.79657 -3.50881 0
M  V30 1325 H 121.294 2.72512 -4.29668 0
M  V30 1326 H 120.692 5.18004 -2.2735 0
M  V30 1327 H 119.249 5.8036 -2.96691 0
M  V30 1328 N 122.682 1.50554 0.465978 0
M  V30 1329 C 123.929 1.61798 1.21768 0
M  V30 1330 C 124.257 0.320696 1.91838 0
M  V30 1331 O 123.512 -0.693724 1.82992 0
M  V30 1332 C 123.811 2.75152 2.28093 0
M  V30 1333 C 123.477 4.15454 1.75239 0
M  V30 1334 C 122.139 4.53628 1.60546 0
M  V30 1335 C 124.491 5.03121 1.36083 0
M  V30 1336 C 121.819 5.77204 1.05128 0
M  V30 1337 C 124.171 6.27249 0.821056 0
M  V30 1338 C 122.835 6.64221 0.660795 0
M  V30 1339 H 122.105 0.592063 0.445582 0
M  V30 1340 H 124.752 1.84503 0.512927 0
M  V30 1341 H 123.057 2.46556 3.04496 0
M  V30 1342 H 124.754 2.81055 2.86023 0
M  V30 1343 H 121.344 3.85341 1.87644 0
M  V30 1344 H 125.528 4.74257 1.46267 0
M  V30 1345 H 120.784 6.0452 0.91462 0
M  V30 1346 H 124.958 6.94537 0.509018 0
M  V30 1347 H 122.585 7.59854 0.229226 0
M  V30 1348 N 124.16 -0.719506 1.40217 0
M  V30 1349 C 125.09 -1.8465 1.42922 0
M  V30 1350 C 126.071 -1.67599 0.29062 0
M  V30 1351 O 127.256 -1.87688 0.498677 0
M  V30 1352 C 124.386 -3.22565 1.28722 0
M  V30 1353 C 123.34 -3.54281 2.40144 0
M  V30 1354 C 122.666 -4.91298 2.11023 0
M  V30 1355 C 123.966 -3.55676 3.82481 0
M  V30 1356 H 125.66 -1.82644 2.37237 0
M  V30 1357 H 123.206 -0.877305 1.1419 0
M  V30 1358 H 125.159 -4.01095 1.29232 0
M  V30 1359 H 123.883 -3.25137 0.308811 0
M  V30 1360 H 122.542 -2.78088 2.38877 0
M  V30 1361 H 122.19 -4.90468 1.11582 0
M  V30 1362 H 121.89 -5.13485 2.8567 0
M  V30 1363 H 123.414 -5.72166 2.13209 0
M  V30 1364 H 124.828 -4.24254 3.85592 0
M  V30 1365 H 123.225 -3.89388 4.56614 0
M  V30 1366 H 124.295 -2.55144 4.12346 0
M  V30 1367 N 125.638 -1.25649 -0.95132 0
M  V30 1368 C 126.866 -1.13343 -1.73092 0
M  V30 1369 C 127.281 0.312434 -1.86197 0
M  V30 1370 O 126.638 1.21465 -1.36207 0
M  V30 1371 C 126.689 -1.78602 -3.14299 0
M  V30 1372 O 126.41 -3.17537 -3.01831 0
M  V30 1373 C 127.911 -1.72119 -4.08522 0
M  V30 1374 H 125.131 -0.395181 -0.542285 0
M  V30 1375 H 127.675 -1.66076 -1.19328 0
M  V30 1376 H 125.83 -1.29832 -3.64996 0
M  V30 1377 H 126.244 -3.49676 -3.90931 0
M  V30 1378 H 127.718 -2.22435 -5.052 0
M  V30 1379 H 128.195 -0.685635 -4.33815 0
M  V30 1380 H 128.801 -2.20393 -3.63741 0
M  V30 1381 N 127.117 1.15442 -1.07289 0
M  V30 1382 C 128.027 2.23786 -0.704057 0
M  V30 1383 C 129.043 1.7166 0.284413 0
M  V30 1384 O 130.219 2.00972 0.131205 0
M  V30 1385 C 127.284 3.46535 -0.106792 0
M  V30 1386 C 126.345 4.13654 -1.14842 0
M  V30 1387 C 125.578 5.30544 -0.57956 0
M  V30 1388 O 125.801 5.67187 0.604585 0
M  V30 1389 O 124.735 5.87154 -1.32414 0
M  V30 1390 H 128.561 2.57664 -1.60757 0
M  V30 1391 H 126.146 1.23152 -0.845803 0
M  V30 1392 H 128.028 4.20804 0.224048 0
M  V30 1393 H 126.703 3.14407 0.770049 0
M  V30 1394 H 125.61 3.4131 -1.5316 0
M  V30 1395 H 126.943 4.49861 -1.99714 0
M  V30 1396 N 128.595 0.856903 1.32268 0
M  V30 1397 C 129.844 0.457599 1.96441 0
M  V30 1398 C 130.157 -0.992426 1.68553 0
M  V30 1399 O 131.363 -1.49727 2.26482 0
M  V30 1400 C 129.819 0.767358 3.51624 0
M  V30 1401 C 129.427 2.23326 3.88367 0
M  V30 1402 C 131.171 0.435887 4.22256 0
M  V30 1403 C 129.078 2.48613 5.36606 0
M  V30 1404 H 128.008 0.167387 0.735185 0
M  V30 1405 H 130.659 1.048 1.5063 0
M  V30 1406 H 129.041 0.106367 3.95857 0
M  V30 1407 H 130.215 2.93623 3.55137 0
M  V30 1408 H 128.53 2.52948 3.30766 0
M  V30 1409 H 131.127 0.602202 5.31298 0
M  V30 1410 H 131.47 -0.622672 4.11617 0
M  V30 1411 H 132.003 1.05286 3.83614 0
M  V30 1412 H 128.742 3.53101 5.52268 0
M  V30 1413 H 128.262 1.82896 5.71235 0
M  V30 1414 H 129.941 2.32676 6.03714 0
M  V30 1415 N 130.073 -1.45103 0.615059 0
M  V30 1416 C 131.321 -2.01784 0.112955 0
M  V30 1417 C 131.642 -1.48504 -1.26378 0
M  V30 1418 O 130.912 -0.682245 -1.83636 0
M  V30 1419 H 129.492 -0.745993 0.0387668 0
M  V30 1420 H 132.154 -1.77808 0.798141 0
M  V30 1421 H 131.25 -3.12025 0.0684069 0
M  V30 1422 N 131.551 -0.354651 -1.53558 0
M  V30 1423 C 132.781 0.239167 -2.05211 0
M  V30 1424 C 133.189 1.43879 -1.22863 0
M  V30 1425 O 132.532 1.81857 -0.259565 0
M  V30 1426 C 132.594 0.707251 -3.52474 0
M  V30 1427 C 132.258 -0.374212 -4.55465 0
M  V30 1428 C 133.255 -1.22054 -5.0537 0
M  V30 1429 C 130.94 -0.531323 -4.99482 0
M  V30 1430 C 132.934 -2.20942 -5.97882 0
M  V30 1431 C 130.621 -1.52358 -5.91802 0
M  V30 1432 C 131.619 -2.36108 -6.40892 0
M  V30 1433 O 131.307 -3.33643 -7.31394 0
M  V30 1434 H 131.039 0.0479716 -0.674296 0
M  V30 1435 H 133.593 -0.508121 -1.99016 0
M  V30 1436 H 131.823 1.50596 -3.56171 0
M  V30 1437 H 133.512 1.22285 -3.87042 0
M  V30 1438 H 134.278 -1.1103 -4.7212 0
M  V30 1439 H 130.157 0.110738 -4.60867 0
M  V30 1440 H 133.701 -2.86348 -6.36121 0
M  V30 1441 H 129.598 -1.63434 -6.24467 0
M  V30 1442 H 130.366 -3.29244 -7.4936 0
M  V30 1443 N 133.029 1.57378 -0.0835403 0
M  V30 1444 C 133.959 2.1641 0.87686 0
M  V30 1445 C 134.94 1.09429 1.30228 0
M  V30 1446 O 136.125 1.37516 1.37124 0
M  V30 1447 C 133.255 2.73517 2.14022 0
M  V30 1448 C 132.209 3.85769 1.85381 0
M  V30 1449 C 131.535 4.29529 3.18448 0
M  V30 1450 C 132.835 5.09486 1.14984 0
M  V30 1451 H 134.529 2.96914 0.385059 0
M  V30 1452 H 132.075 1.42823 0.18377 0
M  V30 1453 H 134.028 3.13463 2.81636 0
M  V30 1454 H 132.752 1.90252 2.65465 0
M  V30 1455 H 131.411 3.46345 1.20169 0
M  V30 1456 H 131.059 3.43169 3.67755 0
M  V30 1457 H 130.759 5.05204 3.00071 0
M  V30 1458 H 132.283 4.72099 3.8724 0
M  V30 1459 H 133.697 5.46674 1.72687 0
M  V30 1460 H 132.094 5.90515 1.06826 0
M  V30 1461 H 133.164 4.84724 0.130749 0
M  V30 1462 N 134.507 -0.190092 1.56449 0
M  V30 1463 C 135.437 -1.23816 1.97969 0
M  V30 1464 C 136.418 -1.47201 0.852395 0
M  V30 1465 O 137.603 -1.58854 1.1171 0
M  V30 1466 C 134.733 -2.5813 2.3235 0
M  V30 1467 C 133.687 -2.49348 3.47864 0
M  V30 1468 C 133.013 -3.8798 3.67934 0
M  V30 1469 C 134.313 -2.01424 4.81898 0
M  V30 1470 H 136.007 -0.89311 2.85769 0
M  V30 1471 H 133.553 -0.428177 1.37487 0
M  V30 1472 H 135.506 -3.31637 2.59991 0
M  V30 1473 H 134.23 -2.94386 1.41438 0
M  V30 1474 H 132.889 -1.78297 3.20321 0
M  V30 1475 H 132.537 -4.21597 2.74344 0
M  V30 1476 H 132.237 -3.82978 4.45648 0
M  V30 1477 H 133.761 -4.63101 3.97957 0
M  V30 1478 H 135.175 -2.64693 5.08538 0
M  V30 1479 H 133.572 -2.07413 5.63116 0
M  V30 1480 H 134.642 -0.967677 4.75146 0
M  V30 1481 N 135.985 -1.50799 -0.457987 0
M  V30 1482 C 137.396 -1.55152 -1.0385 0
M  V30 1483 C 137.747 -0.362719 -1.92818 0
M  V30 1484 O 136.872 0.522915 -2.09987 0
M  V30 1485 C 137.467 -2.81173 -1.89017 0
M  V30 1486 C 136.026 -2.88164 -2.42154 0
M  V30 1487 C 135.173 -2.49591 -1.20829 0
M  V30 1488 H 138.124 -1.56874 -0.240068 0
M  V30 1489 H 138.145 -2.63769 -2.74238 0
M  V30 1490 H 137.657 -3.67677 -1.24238 0
M  V30 1491 H 135.758 -2.06042 -3.10447 0
M  V30 1492 H 135.871 -3.91356 -2.76364 0
M  V30 1493 H 134.235 -2.02322 -1.54719 0
M  V30 1494 H 135.018 -3.38418 -0.576927 0
M  V30 1495 N 137.463 0.71206 -1.40597 0
M  V30 1496 C 138.373 1.8562 -1.43466 0
M  V30 1497 C 139.389 1.70902 -0.326902 0
M  V30 1498 O 140.565 1.93105 -0.572043 0
M  V30 1499 C 137.63 3.21451 -1.29884 0
M  V30 1500 C 136.691 3.48398 -2.50833 0
M  V30 1501 C 135.924 4.77749 -2.3789 0
M  V30 1502 O 136.147 5.53089 -1.39459 0
M  V30 1503 O 135.081 5.05111 -3.27333 0
M  V30 1504 H 138.907 1.86155 -2.39958 0
M  V30 1505 H 136.492 0.86295 -1.21957 0
M  V30 1506 H 138.374 4.02579 -1.24531 0
M  V30 1507 H 137.049 3.21636 -0.364997 0
M  V30 1508 H 135.956 2.67265 -2.61763 0
M  V30 1509 H 137.289 3.53014 -3.4299 0
M  V30 1510 N 138.941 1.26152 0.944643 0
M  V30 1511 C 140.352 1.10454 1.50522 0
M  V30 1512 C 140.703 -0.31635 1.93633 0
M  V30 1513 O 139.828 -1.20746 1.79581 0
M  V30 1514 C 140.423 1.99891 2.73549 0
M  V30 1515 C 138.982 1.88348 3.25886 0
M  V30 1516 C 138.129 1.93447 1.9868 0
M  V30 1517 H 141.08 1.39292 0.760489 0
M  V30 1518 H 141.101 1.54477 3.47732 0
M  V30 1519 H 140.613 3.03297 2.42141 0
M  V30 1520 H 138.714 0.878636 3.62092 0
M  V30 1521 H 138.827 2.73696 3.93227 0
M  V30 1522 H 137.191 1.37456 2.14425 0
M  V30 1523 H 137.974 2.98476 1.69607 0
M  V30 1524 N 140.419 -1.14872 1.07899 0
M  V30 1525 C 141.696 -1.81928 0.71845 0
M  V30 1526 C 142.076 -1.95417 -0.798455 0
M  V30 1527 O 141.424 -1.50997 -1.715 0
M  V30 1528 C 141.634 -3.17937 1.43935 0
M  V30 1529 C 142.982 -3.93501 1.59506 0
M  V30 1530 O 144.006 -3.27509 1.40058 0
M  V30 1531 O 142.865 -5.1183 1.91551 0
M  V30 1532 H 139.959 -0.78628 0.256305 0
M  V30 1533 H 142.505 -1.21934 1.18026 0
M  V30 1534 H 141.277 -3.0325 2.47295 0
M  V30 1535 H 140.9 -3.85619 0.968687 0
M  V30 1536 N 141.898 -0.863906 -1.31812 0
M  V30 1537 C 143.175 -0.39275 -1.91616 0
M  V30 1538 C 143.555 1.12461 -1.7865 0
M  V30 1539 O 142.903 1.95045 -1.19037 0
M  V30 1540 C 143.113 -0.867385 -3.38049 0
M  V30 1541 C 144.461 -0.889966 -4.15168 0
M  V30 1542 O 145.485 -0.812635 -3.46806 0
M  V30 1543 O 144.344 -1.00079 -5.37258 0
M  V30 1544 H 141.438 -0.116358 -0.818773 0
M  V30 1545 H 143.984 -0.951418 -1.40521 0
M  V30 1546 H 142.756 -1.91081 -3.41473 0
M  V30 1547 H 142.379 -0.286687 -3.96565 0
M  V30 1548 N 143.376 1.44774 -0.622745 0
M  V30 1549 C 144.623 2.02121 -0.1239 0
M  V30 1550 C 144.951 1.48915 1.25118 0
M  V30 1551 O 144.206 0.660045 1.84233 0
M  V30 1552 C 144.505 3.57364 -0.0508323 0
M  V30 1553 C 144.171 4.29787 -1.36358 0
M  V30 1554 C 142.833 4.4929 -1.72314 0
M  V30 1555 C 145.185 4.71062 -2.23048 0
M  V30 1556 C 142.513 5.07325 -2.94682 0
M  V30 1557 C 144.865 5.30452 -3.44679 0
M  V30 1558 C 143.529 5.48175 -3.80868 0
M  V30 1559 H 142.799 0.739612 -0.0453381 0
M  V30 1560 H 145.446 1.73648 -0.807389 0
M  V30 1561 H 143.751 3.85202 0.715991 0
M  V30 1562 H 145.448 3.99456 0.351533 0
M  V30 1563 H 142.038 4.14932 -1.07375 0
M  V30 1564 H 146.222 4.55715 -1.96565 0
M  V30 1565 H 141.478 5.19235 -3.22809 0
M  V30 1566 H 145.652 5.61385 -4.12092 0
M  V30 1567 H 143.279 5.92912 -4.75773 0
M  V30 1568 N 144.854 0.36279 1.53368 0
M  V30 1569 C 146.082 -0.228613 2.05633 0
M  V30 1570 C 146.497 -1.42676 1.23649 0
M  V30 1571 O 145.854 -1.80394 0.27647 0
M  V30 1572 C 145.905 -0.624845 3.56059 0
M  V30 1573 O 145.626 0.525675 4.34935 0
M  V30 1574 C 147.127 -1.27493 4.24571 0
M  V30 1575 H 144.347 -0.0407183 0.669763 0
M  V30 1576 H 146.891 0.520352 1.97769 0
M  V30 1577 H 145.046 -1.32373 3.64083 0
M  V30 1578 H 145.46 0.205969 5.24095 0
M  V30 1579 H 146.934 -1.50277 5.31151 0
M  V30 1580 H 147.411 -2.23439 3.78116 0
M  V30 1581 H 148.017 -0.617558 4.20792 0
M  V30 1582 N 146.332 -1.57332 0.0918853 0
M  V30 1583 C 147.581 -1.93412 -0.572249 0
M  V30 1584 C 147.894 -0.975515 -1.69538 0
M  V30 1585 O 149.1 -1.22991 -2.42045 0
M  V30 1586 C 147.556 -3.43648 -1.0693 0
M  V30 1587 C 147.164 -4.47994 0.0239049 0
M  V30 1588 C 148.908 -3.88695 -1.70635 0
M  V30 1589 C 146.815 -5.89381 -0.488319 0
M  V30 1590 H 145.745 -0.721939 -0.217532 0
M  V30 1591 H 148.396 -1.82735 0.167369 0
M  V30 1592 H 146.778 -3.49466 -1.8625 0
M  V30 1593 H 147.952 -4.53815 0.799277 0
M  V30 1594 H 146.267 -4.12536 0.565946 0
M  V30 1595 H 148.864 -4.91725 -2.10025 0
M  V30 1596 H 149.207 -3.27166 -2.57426 0
M  V30 1597 H 149.74 -3.85564 -0.979023 0
M  V30 1598 H 146.479 -6.54602 0.342906 0
M  V30 1599 H 145.999 -5.87037 -1.23077 0
M  V30 1600 H 147.678 -6.39863 -0.958317 0
M  V30 1601 N 147.81 0.181792 -1.56548 0
M  V30 1602 C 149.038 0.915947 -1.85521 0
M  V30 1603 C 149.453 1.76282 -0.676016 0
M  V30 1604 O 148.81 1.79012 0.355077 0
M  V30 1605 C 148.861 1.80126 -3.13427 0
M  V30 1606 O 148.582 0.988562 -4.26801 0
M  V30 1607 C 150.083 2.64597 -3.55673 0
M  V30 1608 H 147.303 0.26661 -0.61576 0
M  V30 1609 H 149.847 0.185039 -2.03661 0
M  V30 1610 H 148.002 2.48563 -2.97145 0
M  V30 1611 H 148.416 1.59308 -4.99721 0
M  V30 1612 H 149.89 3.2235 -4.48101 0
M  V30 1613 H 150.367 3.38958 -2.79292 0
M  V30 1614 H 150.973 2.0151 -3.74532 0
M  V30 1615 N 149.288 1.51039 0.449983 0
M  V30 1616 C 150.516 1.66869 1.2232 0
M  V30 1617 C 150.931 0.360727 1.85322 0
M  V30 1618 O 150.288 -0.659531 1.70166 0
M  V30 1619 C 150.339 2.77524 2.31652 0
M  V30 1620 O 150.06 4.03252 1.7123 0
M  V30 1621 C 151.561 3.04512 3.2216 0
M  V30 1622 H 148.781 0.560326 0.369155 0
M  V30 1623 H 151.325 1.97385 0.534719 0
M  V30 1624 H 149.48 2.49642 2.96239 0
M  V30 1625 H 149.894 4.64609 2.43389 0
M  V30 1626 H 151.368 3.85551 3.95038 0
M  V30 1627 H 151.845 2.16415 3.8218 0
M  V30 1628 H 152.451 3.34005 2.63288 0
M  V30 1629 N 150.766 -0.704594 1.40972 0
M  V30 1630 C 151.991 -1.49858 1.43378 0
M  V30 1631 C 152.416 -1.88061 0.038184 0
M  V30 1632 O 151.774 -1.5402 -0.956425 0
M  V30 1633 C 151.822 -2.74333 2.34038 0
M  V30 1634 O 150.926 -3.7147 1.7912 0
M  V30 1635 H 150.267 -0.45139 0.486974 0
M  V30 1636 H 152.797 -0.866832 1.8533 0
M  V30 1637 H 152.807 -3.22741 2.49604 0
M  V30 1638 H 151.482 -2.45863 3.35446 0
M  V30 1639 H 150.059 -3.30363 1.72958 0
M  V30 1640 N 152.244 -1.26651 -0.937939 0
M  V30 1641 C 153.492 -1.12165 -1.68118 0
M  V30 1642 C 153.813 0.334983 -1.92101 0
M  V30 1643 O 153.083 1.23583 -1.52 0
M  V30 1644 H 151.663 -0.412093 -0.623048 0
M  V30 1645 H 154.325 -1.59027 -1.12678 0
M  V30 1646 H 153.421 -1.64289 -2.6536 0
M  V30 1647 N 153.722 1.14298 -1.08507 0
M  V30 1648 C 154.968 1.85633 -0.816581 0
M  V30 1649 C 155.301 1.82784 0.656021 0
M  V30 1650 O 154.576 1.25926 1.48233 0
M  V30 1651 C 154.859 3.34223 -1.34041 0
M  V30 1652 C 154.712 3.45639 -2.87843 0
M  V30 1653 C 156.031 4.29356 -0.9665 0
M  V30 1654 H 153.15 0.67402 -0.298104 0
M  V30 1655 H 155.792 1.34214 -1.34487 0
M  V30 1656 H 153.942 3.78144 -0.89104 0
M  V30 1657 H 155.614 3.10498 -3.41158 0
M  V30 1658 H 153.857 2.86817 -3.25451 0
M  V30 1659 H 154.528 4.50089 -3.19569 0
M  V30 1660 H 157.004 3.93457 -1.35391 0
M  V30 1661 H 155.88 5.3178 -1.3602 0
M  V30 1662 H 156.141 4.41919 0.126362 0
M  V30 1663 N 155.201 0.870884 1.31352 0
M  V30 1664 C 156.478 0.402907 1.91405 0
M  V30 1665 C 156.858 -1.11512 1.79244 0
M  V30 1666 O 156.206 -1.94411 1.2007 0
M  V30 1667 C 156.416 0.885301 3.37585 0
M  V30 1668 C 157.764 0.911971 4.14691 0
M  V30 1669 O 158.788 0.831016 3.46371 0
M  V30 1670 O 157.647 1.02927 5.3672 0
M  V30 1671 H 154.741 0.120698 0.818145 0
M  V30 1672 H 157.287 0.958857 1.40014 0
M  V30 1673 H 156.059 1.92889 3.40455 0
M  V30 1674 H 155.682 0.307714 3.96407 0
M  V30 1675 N 156.679 -1.44442 0.630414 0
M  V30 1676 C 157.642 -2.29107 -0.0652523 0
M  V30 1677 C 158.642 -1.41002 -0.772995 0
M  V30 1678 O 159.832 -1.62881 -0.617692 0
M  V30 1679 C 156.964 -3.22564 -1.10296 0
M  V30 1680 H 158.157 -2.92103 0.679401 0
M  V30 1681 H 155.71 -1.51343 0.390517 0
M  V30 1682 H 156.445 -2.64416 -1.87762 0
M  V30 1683 H 156.23 -3.87491 -0.59941 0
M  V30 1684 H 157.72 -3.86167 -1.5895 0
M  V30 1685 N 158.157 -0.370918 -1.53173 0
M  V30 1686 C 159.067 0.480823 -2.2962 0
M  V30 1687 C 160.083 1.08789 -1.35798 0
M  V30 1688 O 161.259 1.09768 -1.68858 0
M  V30 1689 C 158.324 1.60227 -3.07454 0
M  V30 1690 C 157.385 1.0222 -4.16953 0
M  V30 1691 C 156.618 2.0902 -4.91066 0
M  V30 1692 O 156.841 3.30222 -4.65091 0
M  V30 1693 O 155.775 1.71778 -5.76867 0
M  V30 1694 H 159.601 -0.141421 -3.03371 0
M  V30 1695 H 157.186 -0.135146 -1.48787 0
M  V30 1696 H 159.068 2.25417 -3.56041 0
M  V30 1697 H 157.743 2.20982 -2.36535 0
M  V30 1698 H 156.65 0.334064 -3.72605 0
M  V30 1699 H 157.983 0.459131 -4.90054 0
M  V30 1700 N 159.635 1.57281 -0.100228 0
M  V30 1701 C 160.884 1.93713 0.561984 0
M  V30 1702 C 161.197 0.984492 1.69018 0
M  V30 1703 O 162.403 1.24273 2.41389 0
M  V30 1704 C 160.859 3.4421 1.05106 0
M  V30 1705 C 160.467 4.47975 -0.0476628 0
M  V30 1706 C 162.211 3.89595 1.68571 0
M  V30 1707 C 160.118 5.89631 0.457055 0
M  V30 1708 H 159.048 0.723082 0.2137 0
M  V30 1709 H 161.699 1.82644 -0.177057 0
M  V30 1710 H 160.081 3.50449 1.84395 0
M  V30 1711 H 161.255 4.53385 -0.823333 0
M  V30 1712 H 159.57 4.1223 -0.587816 0
M  V30 1713 H 162.167 4.92832 2.07414 0
M  V30 1714 H 162.51 3.28526 2.55688 0
M  V30 1715 H 163.043 3.86078 0.958562 0
M  V30 1716 H 159.782 6.54411 -0.377616 0
M  V30 1717 H 159.302 5.87681 1.19962 0
M  V30 1718 H 160.981 6.40363 0.92437 0
M  V30 1719 N 161.113 -0.173488 1.56642 0
M  V30 1720 C 162.341 -0.906095 1.86004 0
M  V30 1721 C 162.756 -1.75921 0.685355 0
M  V30 1722 O 162.113 -1.79198 -0.345578 0
M  V30 1723 C 162.164 -1.78462 3.14378 0
M  V30 1724 O 161.885 -0.965914 4.27319 0
M  V30 1725 C 163.386 -2.62707 3.57071 0
M  V30 1726 H 160.606 -0.263341 0.617165 0
M  V30 1727 H 163.15 -0.174236 2.03756 0
M  V30 1728 H 161.305 -2.46984 2.98459 0
M  V30 1729 H 161.719 -1.56655 5.00559 0
M  V30 1730 H 163.193 -3.19969 4.49804 0
M  V30 1731 H 163.67 -3.37472 2.81086 0
M  V30 1732 H 164.276 -1.99521 3.75595 0
M  V30 1733 N 162.591 -1.51276 -0.441967 0
M  V30 1734 C 163.819 -1.67516 -1.21434 0
M  V30 1735 C 164.234 -0.37055 -1.85128 0
M  V30 1736 O 163.591 0.650498 -1.70513 0
M  V30 1737 C 163.642 -2.78748 -2.30177 0
M  V30 1738 O 163.363 -4.04154 -1.69089 0
M  V30 1739 C 164.864 -3.06217 -3.20541 0
M  V30 1740 H 162.084 -0.562276 -0.366178 0
M  V30 1741 H 164.628 -1.97666 -0.524244 0
M  V30 1742 H 162.783 -2.5121 -2.94911 0
M  V30 1743 H 163.197 -4.65894 -2.40922 0
M  V30 1744 H 164.671 -3.8764 -3.92987 0
M  V30 1745 H 165.148 -2.18439 -3.81026 0
M  V30 1746 H 165.754 -3.35397 -2.61513 0
M  V30 1747 N 164.069 0.697108 -1.41344 0
M  V30 1748 C 165.297 1.48593 -1.43972 0
M  V30 1749 C 165.712 1.88747 -0.0445612 0
M  V30 1750 O 165.069 1.56682 0.935785 0
M  V30 1751 C 165.12 2.74946 -2.34706 0
M  V30 1752 O 164.841 2.36484 -3.68791 0
M  V30 1753 C 166.342 3.687 -2.46121 0
M  V30 1754 H 163.562 0.457964 -0.490418 0
M  V30 1755 H 166.106 0.858429 -1.8561 0
M  V30 1756 H 164.261 3.33937 -1.9638 0
M  V30 1757 H 164.675 3.17918 -4.17167 0
M  V30 1758 H 166.149 4.54145 -3.13777 0
M  V30 1759 H 166.626 4.13081 -1.49199 0
M  V30 1760 H 167.232 3.15613 -2.85076 0
M  V30 1761 N 165.547 1.27147 0.931209 0
M  V30 1762 C 166.51 1.09615 2.01289 0
M  V30 1763 C 167.51 0.0412581 1.60747 0
M  V30 1764 O 168.7 0.285545 1.71844 0
M  V30 1765 C 165.832 0.669447 3.34262 0
M  V30 1766 H 167.025 2.05662 2.18273 0
M  V30 1767 H 164.578 1.09885 1.11153 0
M  V30 1768 H 165.313 -0.292572 3.22978 0
M  V30 1769 H 165.098 1.43127 3.65044 0
M  V30 1770 H 166.588 0.568921 4.13706 0
M  V30 1771 N 167.025 -1.13721 1.09112 0
M  V30 1772 C 168.273 -1.84559 0.823562 0
M  V30 1773 C 168.594 -1.83754 -0.652658 0
M  V30 1774 O 167.864 -1.29102 -1.47342 0
M  V30 1775 H 166.444 -0.683376 0.301673 0
M  V30 1776 H 169.106 -1.37771 1.37859 0
M  V30 1777 H 168.202 -2.8917 1.17419 0
M  V30 1778 N 168.503 -0.877838 -1.30888 0
M  V30 1779 C 169.914 -0.544193 -1.78593 0
M  V30 1780 C 170.265 0.939301 -1.72254 0
M  V30 1781 O 169.39 1.7337 -1.29505 0
M  V30 1782 C 169.985 -0.98105 -3.24285 0
M  V30 1783 C 168.544 -0.698935 -3.69854 0
M  V30 1784 C 167.691 -1.168 -2.51502 0
M  V30 1785 H 170.642 -1.06278 -1.17859 0
M  V30 1786 H 170.663 -0.307009 -3.79259 0
M  V30 1787 H 170.175 -2.06079 -3.28866 0
M  V30 1788 H 168.276 0.369112 -3.70767 0
M  V30 1789 H 168.389 -1.28148 -4.61644 0
M  V30 1790 H 166.753 -0.587535 -2.47831 0
M  V30 1791 H 167.536 -2.25533 -2.58824 0
M  V30 1792 N 169.982 1.44106 -0.638065 0
M  V30 1793 C 170.914 2.28976 0.101205 0
M  V30 1794 C 171.927 1.4167 0.802088 0
M  V30 1795 O 173.116 1.65755 0.662375 0
M  V30 1796 C 170.216 3.18217 1.16581 0
M  V30 1797 C 169.389 4.33978 0.546066 0
M  V30 1798 C 168.448 5.04202 1.50554 0
M  V30 1799 O 167.474 5.59986 1.01999 0
M  V30 1800 N 168.676 5.06296 2.8398 0
M  V30 1801 H 171.441 2.93064 -0.627186 0
M  V30 1802 H 169.002 1.54629 -0.479731 0
M  V30 1803 H 170.994 3.62061 1.80815 0
M  V30 1804 H 169.564 2.55833 1.79634 0
M  V30 1805 H 168.784 3.93239 -0.275046 0
M  V30 1806 H 170.072 5.08675 0.112793 0
M  V30 1807 H 169.47 4.62319 3.26002 0
M  V30 1808 H 168.027 5.53907 3.43556 0
M  V30 1809 N 171.46 0.379036 1.52974 0
M  V30 1810 C 172.39 -0.452706 2.29069 0
M  V30 1811 C 173.371 -1.07237 1.32039 0
M  V30 1812 O 174.556 -1.08708 1.60923 0
M  V30 1813 C 171.686 -1.5856 3.08992 0
M  V30 1814 C 170.64 -1.0925 4.13822 0
M  V30 1815 C 169.966 -2.31668 4.81907 0
M  V30 1816 C 171.266 -0.167702 5.22031 0
M  V30 1817 H 172.96 0.182181 2.98845 0
M  V30 1818 H 170.506 0.0890592 1.43724 0
M  V30 1819 H 172.459 -2.1742 3.6098 0
M  V30 1820 H 171.183 -2.24792 2.36931 0
M  V30 1821 H 169.842 -0.526494 3.628 0
M  V30 1822 H 169.49 -2.96386 4.06404 0
M  V30 1823 H 169.19 -1.9934 5.52754 0
M  V30 1824 H 170.714 -2.91189 5.36695 0
M  V30 1825 H 172.128 -0.664186 5.6944 0
M  V30 1826 H 170.525 0.0653265 6.00064 0
M  V30 1827 H 171.595 0.786347 4.78482 0
M  V30 1828 N 172.938 -1.57226 0.108567 0
M  V30 1829 C 174.184 -1.95121 -0.552761 0
M  V30 1830 C 174.517 -0.991345 -1.66991 0
M  V30 1831 O 173.792 -0.0267211 -1.94482 0
M  V30 1832 C 174.075 -3.43039 -1.09528 0
M  V30 1833 C 173.928 -4.49797 0.0177332 0
M  V30 1834 C 175.247 -3.92567 -1.98945 0
M  V30 1835 H 172.366 -0.709496 -0.199461 0
M  V30 1836 H 175.008 -1.89126 0.182011 0
M  V30 1837 H 173.158 -3.48279 -1.72146 0
M  V30 1838 H 174.83 -4.56661 0.652584 0
M  V30 1839 H 173.073 -4.284 0.682309 0
M  V30 1840 H 173.744 -5.50528 -0.402919 0
M  V30 1841 H 176.22 -3.89565 -1.46214 0
M  V30 1842 H 175.096 -4.96605 -2.33827 0
M  V30 1843 H 175.357 -3.32648 -2.91201 0
M  V30 1844 N 174.416 0.165178 -1.56732 0
M  V30 1845 C 175.662 0.882112 -1.82611 0
M  V30 1846 C 175.995 1.81628 -0.687378 0
M  V30 1847 O 175.27 1.92009 0.310267 0
M  V30 1848 C 175.553 1.67245 -3.18906 0
M  V30 1849 C 175.406 0.760987 -4.43316 0
M  V30 1850 C 176.725 2.63884 -3.52212 0
M  V30 1851 H 173.844 0.319242 -0.664269 0
M  V30 1852 H 176.486 0.148052 -1.89422 0
M  V30 1853 H 174.636 2.29824 -3.1323 0
M  V30 1854 H 176.308 0.147596 -4.61064 0
M  V30 1855 H 174.551 0.0694102 -4.33744 0
M  V30 1856 H 175.222 1.34962 -5.35247 0
M  V30 1857 H 177.698 2.11429 -3.58381 0
M  V30 1858 H 176.574 3.16245 -4.48643 0
M  V30 1859 H 176.835 3.44377 -2.77231 0
M  V30 1860 N 175.894 1.51508 0.433938 0
M  V30 1861 C 177.305 1.56784 1.01369 0
M  V30 1862 C 177.656 0.393349 1.92217 0
M  V30 1863 O 176.781 -0.489441 2.10792 0
M  V30 1864 C 177.376 2.84144 1.8452 0
M  V30 1865 C 175.935 2.9198 2.37539 0
M  V30 1866 C 175.082 2.51482 1.16843 0
M  V30 1867 H 178.033 1.57236 0.215081 0
M  V30 1868 H 178.054 2.68098 2.70007 0
M  V30 1869 H 177.566 3.69607 1.18373 0
M  V30 1870 H 175.667 2.10955 3.0713 0
M  V30 1871 H 175.78 3.95704 2.70103 0
M  V30 1872 H 174.144 2.04758 1.51481 0
M  V30 1873 H 174.927 3.39293 0.523015 0
M  V30 1874 N 177.372 -0.689602 1.41712 0
M  V30 1875 C 178.618 -1.45181 1.41599 0
M  V30 1876 C 178.951 -1.94181 0.0270081 0
M  V30 1877 O 178.226 -1.6993 -0.946265 0
M  V30 1878 C 178.509 -2.65945 2.42787 0
M  V30 1879 C 178.362 -2.22672 3.90816 0
M  V30 1880 C 179.681 -3.68149 2.41151 0
M  V30 1881 H 176.8 -0.526576 0.515642 0
M  V30 1882 H 179.442 -0.784947 1.73028 0
M  V30 1883 H 177.592 -3.2284 2.16116 0
M  V30 1884 H 179.264 -1.71058 4.28412 0
M  V30 1885 H 177.507 -1.54394 4.05395 0
M  V30 1886 H 178.178 -3.0935 4.57172 0
M  V30 1887 H 180.654 -3.2094 2.64834 0
M  V30 1888 H 179.53 -4.50248 3.13955 0
M  V30 1889 H 179.791 -4.18259 1.43221 0
M  V30 1890 N 178.85 -1.27639 -0.924453 0
M  V30 1891 C 179.78 -1.13166 -2.04244 0
M  V30 1892 C 180.761 -0.032256 -1.70069 0
M  V30 1893 O 181.946 -0.207328 -1.9309 0
M  V30 1894 C 179.076 -0.781496 -3.38393 0
M  V30 1895 C 178.03 -1.83449 -3.86692 0
M  V30 1896 C 177.356 -1.33822 -5.17683 0
M  V30 1897 C 178.656 -3.23917 -4.09726 0
M  V30 1898 H 180.35 -2.06689 -2.1661 0
M  V30 1899 H 177.896 -0.995136 -1.04082 0
M  V30 1900 H 179.849 -0.667057 -4.16087 0
M  V30 1901 H 178.573 0.189439 -3.2605 0
M  V30 1902 H 177.232 -1.93789 -3.11193 0
M  V30 1903 H 176.88 -0.35665 -5.01734 0
M  V30 1904 H 176.58 -2.04224 -5.50968 0
M  V30 1905 H 178.104 -1.23679 -5.97943 0
M  V30 1906 H 179.518 -3.16559 -4.77978 0
M  V30 1907 H 177.915 -3.92059 -4.54324 0
M  V30 1908 H 178.985 -3.68729 -3.14908 0
M  V30 1909 N 180.328 1.1314 -1.09713 0
M  V30 1910 C 181.276 2.20717 -0.733934 0
M  V30 1911 C 182.27 1.6729 0.266506 0
M  V30 1912 O 183.476 1.79547 0.127656 0
M  V30 1913 H 179.851 0.719292 -0.21937 0
M  V30 1914 H 181.822 2.48611 -1.6503 0
M  V30 1915 C 180.571 3.47265 -0.173849 0
M  V30 1916 H 179.894 3.88716 -0.934873 0
M  V30 1917 H 181.334 4.23979 0.0423126 0
M  V30 1918 C 179.793 3.18724 1.09164 0
M  V30 1919 O 180.323 3.37762 2.17439 0
M  V30 1920 N 178.529 2.72583 1.00732 0
M  V30 1921 H 178.076 2.57291 0.126121 0
M  V30 1922 H 178.034 2.53862 1.85476 0
M  V30 1923 N 181.806 0.884767 1.30421 0
M  V30 1924 C 182.769 0.356277 2.26414 0
M  V30 1925 C 183.769 -0.501124 1.52792 0
M  V30 1926 O 184.959 -0.30831 1.7145 0
M  V30 1927 C 182.091 -0.492316 3.37326 0
M  V30 1928 H 183.284 1.20389 2.74675 0
M  V30 1929 H 180.837 0.661607 1.41607 0
M  V30 1930 H 181.572 -1.36052 2.94381 0
M  V30 1931 H 181.357 0.121832 3.91911 0
M  V30 1932 H 182.847 -0.853871 4.08777 0
M  V30 1933 N 183.284 -1.43765 0.645699 0
M  V30 1934 C 184.7 -1.56509 0.312591 0
M  V30 1935 C 184.9 -1.6307 -1.18365 0
M  V30 1936 O 183.956 -1.58167 -1.96824 0
M  V30 1937 C 185.269 -2.82968 1.01733 0
M  V30 1938 C 186.817 -2.96701 0.996865 0
M  V30 1939 C 187.292 -4.25982 1.68236 0
M  V30 1940 N 188.783 -4.32829 1.64964 0
M  V30 1941 C 189.518 -5.31613 2.14885 0
M  V30 1942 N 189.014 -6.36718 2.73061 0
M  V30 1943 N 190.807 -5.23217 2.05428 0
M  V30 1944 H 182.958 -1.3775 1.61675 0
M  V30 1945 H 185.221 -0.661067 0.679481 0
M  V30 1946 H 184.927 -2.84156 2.0724 0
M  V30 1947 H 184.801 -3.72957 0.564177 0
M  V30 1948 H 187.188 -2.95058 -0.0497719 0
M  V30 1949 H 187.269 -2.08022 1.48865 0
M  V30 1950 H 186.913 -4.28386 2.72852 0
M  V30 1951 H 186.843 -5.13545 1.16529 0
M  V30 1952 H 189.334 -3.57493 1.22503 0
M  V30 1953 H 189.647 -7.08401 3.08848 0
M  V30 1954 H 187.992 -6.37362 2.77118 0
M  V30 1955 H 191.183 -4.40019 1.59689 0
M  V30 1956 H 191.356 -6.00045 2.44643 0
M  V30 1957 N 184.763 -0.387143 -1.52771 0
M  V30 1958 C 186.01 0.195735 -2.01552 0
M  V30 1959 C 186.338 1.46995 -1.27369 0
M  V30 1960 O 185.593 1.92325 -0.361879 0
M  V30 1961 C 185.892 0.512209 -3.53711 0
M  V30 1962 C 185.558 -0.670202 -4.45891 0
M  V30 1963 C 184.22 -0.994586 -4.70809 0
M  V30 1964 C 186.572 -1.46134 -5.00294 0
M  V30 1965 C 183.9 -2.11169 -5.4738 0
M  V30 1966 C 186.252 -2.56903 -5.78086 0
M  V30 1967 C 184.916 -2.89852 -6.01284 0
M  V30 1968 H 184.186 0.0716246 -0.73753 0
M  V30 1969 H 186.833 -0.524046 -1.8419 0
M  V30 1970 H 185.138 1.31329 -3.69134 0
M  V30 1971 H 186.835 0.975804 -3.88946 0
M  V30 1972 H 183.425 -0.407366 -4.2666 0
M  V30 1973 H 187.609 -1.22397 -4.80971 0
M  V30 1974 H 182.865 -2.3707 -5.63567 0
M  V30 1975 H 187.039 -3.18608 -6.19243 0
M  V30 1976 H 184.666 -3.76533 -6.60399 0
M  V30 1977 N 186.241 1.57166 -0.116904 0
M  V30 1978 C 187.204 2.14039 0.819742 0
M  V30 1979 C 188.204 1.07477 1.19605 0
M  V30 1980 O 189.394 1.33263 1.1219 0
M  V30 1981 C 186.526 2.67891 2.10826 0
M  V30 1982 H 187.719 2.98128 0.325511 0
M  V30 1983 H 185.272 1.55739 0.132312 0
M  V30 1984 H 186.007 1.87384 2.64685 0
M  V30 1985 H 185.792 3.45823 1.84793 0
M  V30 1986 H 187.282 3.11809 2.77785 0
M  V30 1987 N 187.719 -0.156864 1.56817 0
M  V30 1988 C 188.649 -1.19589 2.00551 0
M  V30 1989 C 189.63 -1.4536 0.883426 0
M  V30 1990 O 190.815 -1.56449 1.15054 0
M  V30 1991 C 187.945 -2.53143 2.37773 0
M  V30 1992 C 186.899 -2.41913 3.53075 0
M  V30 1993 C 186.225 -3.80088 3.76081 0
M  V30 1994 C 187.525 -1.91157 4.86062 0
M  V30 1995 H 189.219 -0.832293 2.87599 0
M  V30 1996 H 186.765 -0.398918 1.38364 0
M  V30 1997 H 188.718 -3.26047 2.66967 0
M  V30 1998 H 187.442 -2.91319 1.4765 0
M  V30 1999 H 186.101 -1.71462 3.24031 0
M  V30 2000 H 185.749 -4.15683 2.83225 0
M  V30 2001 H 185.449 -3.73439 4.53671 0
M  V30 2002 H 186.973 -4.54556 4.0769 0
M  V30 2003 H 188.387 -2.53846 5.14038 0
M  V30 2004 H 186.784 -1.95422 5.67389 0
M  V30 2005 H 187.854 -0.866673 4.77092 0
M  V30 2006 N 189.197 -1.51736 -0.425897 0
M  V30 2007 C 190.145 -1.74464 -1.53834 0
M  V30 2008 C 191.139 -0.611241 -1.57988 0
M  V30 2009 O 192.345 -0.792899 -1.61596 0
M  V30 2010 H 188.72 -0.551437 -0.511293 0
M  V30 2011 H 190.691 -2.67694 -1.31843 0
M  V30 2012 C 189.44 -1.8972 -2.91379 0
M  V30 2013 H 188.763 -2.76344 -2.88919 0
M  V30 2014 H 190.203 -2.09629 -3.68553 0
M  V30 2015 C 188.662 -0.65992 -3.30374 0
M  V30 2016 O 189.192 0.180083 -4.01296 0
M  V30 2017 N 187.398 -0.500677 -2.86254 0
M  V30 2018 H 186.945 -1.18532 -2.28709 0
M  V30 2019 H 186.903 0.325903 -3.12706 0
M  V30 2020 N 190.675 0.682077 -1.42076 0
M  V30 2021 C 191.638 1.77756 -1.44691 0
M  V30 2022 C 192.638 1.5726 -0.335535 0
M  V30 2023 O 193.828 1.63686 -0.596037 0
M  V30 2024 C 190.96 3.16301 -1.27146 0
M  V30 2025 H 192.153 1.76826 -2.42224 0
M  V30 2026 H 189.706 0.891012 -1.28416 0
M  V30 2027 H 190.441 3.22862 -0.305075 0
M  V30 2028 H 190.226 3.32581 -2.07683 0
M  V30 2029 H 191.716 3.96241 -1.31843 0
M  V30 2030 N 192.153 1.28127 0.917671 0
M  V30 2031 C 193.116 1.11744 2.00115 0
M  V30 2032 C 194.116 0.0583052 1.60694 0
M  V30 2033 O 195.306 0.303755 1.71531 0
M  V30 2034 C 192.438 0.704862 3.33533 0
M  V30 2035 H 193.631 2.07966 2.16079 0
M  V30 2036 H 191.184 1.11058 1.09981 0
M  V30 2037 H 191.919 -0.258299 3.2327 0
M  V30 2038 H 191.704 1.4699 3.63505 0
M  V30 2039 H 193.194 0.612768 4.1308 0
M  V30 2040 N 193.631 -1.12557 1.10312 0
M  V30 2041 C 194.579 -2.20325 0.745629 0
M  V30 2042 C 195.573 -1.67429 -0.25763 0
M  V30 2043 O 196.779 -1.79612 -0.118132 0
M  V30 2044 H 193.154 -0.718118 0.223182 0
M  V30 2045 H 195.125 -2.47733 1.66346 0
M  V30 2046 C 193.874 -3.47168 0.192262 0
M  V30 2047 H 193.197 -3.88215 0.955475 0
M  V30 2048 H 194.637 -4.23995 -0.0198274 0
M  V30 2049 C 193.096 -3.19298 -1.07472 0
M  V30 2050 O 193.626 -3.3891 -2.15645 0
M  V30 2051 N 191.832 -2.73113 -0.992847 0
M  V30 2052 H 191.379 -2.57354 -0.112474 0
M  V30 2053 H 191.337 -2.54842 -1.84127 0
M  V30 2054 N 195.109 -0.891671 -1.2995 0
M  V30 2055 C 196.072 -0.36828 -2.26222 0
M  V30 2056 C 197.072 0.493014 -1.53056 0
M  V30 2057 O 198.262 0.299213 -1.71611 0
M  V30 2058 C 195.394 0.47442 -3.37583 0
M  V30 2059 H 196.587 -1.21844 -2.74033 0
M  V30 2060 H 194.14 -0.669107 -1.41254 0
M  V30 2061 H 194.875 1.34489 -2.95099 0
M  V30 2062 H 194.66 -0.142615 -3.91841 0
M  V30 2063 H 196.15 0.83218 -4.09224 0
M  V30 2064 N 196.587 1.43421 -0.653314 0
M  V30 2065 C 198.003 1.56341 -0.320886 0
M  V30 2066 C 198.203 1.63696 1.17499 0
M  V30 2067 O 197.259 1.59208 1.95982 0
M  V30 2068 C 198.572 2.82424 -1.03233 0
M  V30 2069 C 200.12 2.96168 -1.01259 0
M  V30 2070 C 200.595 4.25084 -1.70492 0
M  V30 2071 N 202.086 4.31948 -1.67257 0
M  V30 2072 C 202.821 5.30466 -2.17701 0
M  V30 2073 N 202.317 6.35261 -2.76434 0
M  V30 2074 N 204.11 5.2212 -2.082 0
M  V30 2075 H 196.261 1.3689 -1.62403 0
M  V30 2076 H 198.524 0.657455 -0.682977 0
M  V30 2077 H 198.23 2.83053 -2.08744 0
M  V30 2078 H 198.104 3.72653 -0.583948 0
M  V30 2079 H 200.491 2.9508 0.0341235 0
M  V30 2080 H 200.572 2.07229 -1.49966 0
M  V30 2081 H 200.216 4.26932 -2.7512 0
M  V30 2082 H 200.146 5.1292 -1.19251 0
M  V30 2083 H 202.637 3.56838 -1.24398 0
M  V30 2084 H 202.95 7.06754 -3.12601 0
M  V30 2085 H 201.295 6.35884 -2.80495 0
M  V30 2086 H 204.486 4.39166 -1.62021 0
M  V30 2087 H 204.659 5.98739 -2.47822 0
M  V30 2088 N 198.065 0.39524 1.52563 0
M  V30 2089 C 199.311 -0.177763 2.02622 0
M  V30 2090 C 199.666 -1.43974 1.27629 0
M  V30 2091 O 198.959 -1.87995 0.36992 0
M  V30 2092 C 199.153 -0.493444 3.53977 0
M  V30 2093 C 198.982 0.736392 4.4363 0
M  V30 2094 C 197.752 1.25744 4.89404 0
M  V30 2095 C 199.95 1.61046 4.88435 0
M  V30 2096 N 197.932 2.44421 5.63145 0
M  V30 2097 C 199.303 2.64359 5.60816 0
M  V30 2098 C 201.358 1.62985 4.70468 0
M  V30 2099 C 200.061 3.69505 6.17137 0
M  V30 2100 C 202.087 2.67042 5.27677 0
M  V30 2101 C 201.449 3.69077 5.99968 0
M  V30 2102 H 197.548 -0.0269794 0.781534 0
M  V30 2103 H 200.132 0.546466 1.86874 0
M  V30 2104 H 198.303 -1.18672 3.69826 0
M  V30 2105 H 200.035 -1.05412 3.90731 0
M  V30 2106 H 196.79 0.817546 4.6649 0
M  V30 2107 H 197.214 3.04485 6.04663 0
M  V30 2108 H 201.856 0.854442 4.14076 0
M  V30 2109 H 199.574 4.4791 6.72608 0
M  V30 2110 H 203.16 2.69433 5.15652 0
M  V30 2111 H 202.04 4.48273 6.43444 0
M  V30 2112 N 199.544 -1.57102 0.125237 0
M  V30 2113 C 200.792 -1.95021 -0.530198 0
M  V30 2114 C 201.113 -1.00982 -1.66816 0
M  V30 2115 O 200.383 -0.0672693 -1.95784 0
M  V30 2116 H 198.963 -0.720046 -0.198853 0
M  V30 2117 H 201.625 -1.93916 0.19564 0
M  V30 2118 H 200.721 -2.98211 -0.920681 0
M  V30 2119 N 201.022 0.148545 -1.56898 0
M  V30 2120 C 202.247 0.880385 -1.87787 0
M  V30 2121 C 202.672 1.74018 -0.714093 0
M  V30 2122 O 202.03 1.78153 0.336343 0
M  V30 2123 C 202.078 1.71422 -3.17249 0
M  V30 2124 O 201.182 2.8183 -3.01074 0
M  V30 2125 H 200.523 0.245301 -0.617028 0
M  V30 2126 H 203.053 0.139826 -2.04122 0
M  V30 2127 H 203.063 2.10954 -3.49231 0
M  V30 2128 H 201.738 1.08284 -4.01556 0
M  V30 2129 H 200.315 2.45715 -2.80497 0
M  V30 2130 N 202.5 1.5196 0.417844 0
M  V30 2131 C 203.43 1.77634 1.51554 0
M  V30 2132 C 204.411 0.626918 1.58126 0
M  V30 2133 O 205.596 0.871632 1.7354 0
M  V30 2134 C 202.726 1.91911 2.8946 0
M  V30 2135 C 201.68 3.07463 2.97743 0
M  V30 2136 C 201.006 3.06951 4.37819 0
M  V30 2137 C 202.306 4.47082 2.70027 0
M  V30 2138 H 204 2.6955 1.3032 0
M  V30 2139 H 201.546 1.29706 0.625492 0
M  V30 2140 H 203.499 2.08455 3.6623 0
M  V30 2141 H 202.223 0.966598 3.11969 0
M  V30 2142 H 200.882 2.90656 2.23416 0
M  V30 2143 H 200.53 2.09438 4.57323 0
M  V30 2144 H 200.23 3.84556 4.44286 0
M  V30 2145 H 201.754 3.25613 5.16535 0
M  V30 2146 H 203.168 4.6414 3.36522 0
M  V30 2147 H 201.565 5.2654 2.87881 0
M  V30 2148 H 202.635 4.55777 1.65514 0
M  V30 2149 N 203.978 -0.674533 1.42435 0
M  V30 2150 C 205.208 -1.46071 1.46105 0
M  V30 2151 C 205.616 -1.89067 0.0709605 0
M  V30 2152 O 204.959 -1.58731 -0.924677 0
M  V30 2153 C 205.021 -2.74145 2.32561 0
M  V30 2154 C 204.685 -2.53224 3.8043 0
M  V30 2155 C 205.682 -2.17809 4.72075 0
M  V30 2156 C 203.367 -2.6821 4.24698 0
M  V30 2157 C 205.361 -1.97648 6.05982 0
M  V30 2158 C 203.048 -2.47665 5.58664 0
M  V30 2159 C 204.046 -2.12437 6.49122 0
M  V30 2160 O 203.734 -1.9209 7.80613 0
M  V30 2161 H 203.466 -0.455959 0.499076 0
M  V30 2162 H 206.02 -0.836193 1.87609 0
M  V30 2163 H 204.25 -3.3908 1.85908 0
M  V30 2164 H 205.939 -3.36028 2.27683 0
M  V30 2165 H 206.705 -2.05826 4.39159 0
M  V30 2166 H 202.584 -2.94609 3.54579 0
M  V30 2167 H 206.128 -1.70075 6.7655 0
M  V30 2168 H 202.025 -2.59244 5.91154 0
M  V30 2169 H 202.793 -2.06686 7.91974 0
M  V30 2170 N 205.456 -1.28612 -0.910864 0
M  V30 2171 C 206.733 -1.06632 -1.63979 0
M  V30 2172 C 207.113 0.393351 -2.07403 0
M  V30 2173 O 206.461 1.37999 -1.82122 0
M  V30 2174 C 206.671 -2.0436 -2.8291 0
M  V30 2175 C 208.019 -2.34666 -3.5386 0
M  V30 2176 O 209.043 -2.02467 -2.93062 0
M  V30 2177 O 207.902 -2.89631 -4.63439 0
M  V30 2178 H 204.996 -0.407737 -0.7195 0
M  V30 2179 H 207.542 -1.39942 -0.959914 0
M  V30 2180 H 206.314 -3.02727 -2.47936 0
M  V30 2181 H 205.937 -1.71714 -3.58609 0
M  V30 2182 N 206.934 1.1197 -1.10907 0
M  V30 2183 C 207.897 2.16031 -0.765707 0
M  V30 2184 C 208.897 1.59393 0.212235 0
M  V30 2185 O 210.087 1.74196 -0.0115441 0
M  V30 2186 C 207.219 3.40632 -0.135053 0
M  V30 2187 H 208.412 2.47919 -1.68748 0
M  V30 2188 H 205.965 1.27061 -0.910226 0
M  V30 2189 H 206.7 3.14348 0.797218 0
M  V30 2190 H 206.485 3.8302 -0.838937 0
M  V30 2191 H 207.975 4.17505 0.0892469 0
M  V30 2192 N 208.412 0.89855 1.29475 0
M  V30 2193 C 209.342 0.39201 2.30186 0
M  V30 2194 C 210.323 -0.532359 1.61555 0
M  V30 2195 O 211.508 -0.443331 1.89072 0
M  V30 2196 C 208.638 -0.382353 3.45189 0
M  V30 2197 C 207.592 0.451483 4.25612 0
M  V30 2198 C 206.918 -0.450307 5.328 0
M  V30 2199 C 208.218 1.70079 4.93832 0
M  V30 2200 H 209.912 1.23362 2.72804 0
M  V30 2201 H 207.458 0.594638 1.31149 0
M  V30 2202 H 209.411 -0.747451 4.14718 0
M  V30 2203 H 208.135 -1.25774 3.01411 0
M  V30 2204 H 206.794 0.798897 3.57789 0
M  V30 2205 H 206.442 -1.32379 4.85268 0
M  V30 2206 H 206.142 0.103902 5.87508 0
M  V30 2207 H 207.666 -0.811623 6.05182 0
M  V30 2208 H 209.08 1.40549 5.55805 0
M  V30 2209 H 207.477 2.19623 5.58467 0
M  V30 2210 H 208.547 2.43744 4.19186 0
M  V30 2211 N 209.89 -1.43072 0.660911 0
M  V30 2212 C 211.12 -2.05769 0.185153 0
M  V30 2213 C 211.528 -1.49668 -1.15742 0
M  V30 2214 O 210.871 -0.625649 -1.72717 0
M  V30 2215 C 210.933 -3.59489 0.0278237 0
M  V30 2216 C 210.597 -4.38212 1.2969 0
M  V30 2217 C 211.594 -4.69772 2.22734 0
M  V30 2218 C 209.279 -4.7809 1.54063 0
M  V30 2219 C 211.273 -5.40129 3.38437 0
M  V30 2220 C 208.96 -5.4819 2.70058 0
M  V30 2221 C 209.958 -5.79132 3.62071 0
M  V30 2222 O 209.646 -6.47798 4.76039 0
M  V30 2223 H 209.378 -0.669873 0.0908086 0
M  V30 2224 H 211.932 -1.84436 0.90402 0
M  V30 2225 H 210.162 -3.79426 -0.746489 0
M  V30 2226 H 211.851 -4.03862 -0.406275 0
M  V30 2227 H 212.617 -4.39476 2.05149 0
M  V30 2228 H 208.496 -4.53408 0.833215 0
M  V30 2229 H 212.04 -5.64198 4.10277 0
M  V30 2230 H 207.937 -5.77902 2.87574 0
M  V30 2231 H 208.705 -6.66283 4.75404 0
M  V30 2232 N 211.368 -0.403325 -1.52352 0
M  V30 2233 C 212.616 0.174003 -2.0135 0
M  V30 2234 C 212.937 1.46139 -1.29106 0
M  V30 2235 O 212.207 1.91448 -0.415253 0
M  V30 2236 H 210.787 0.0672911 -0.743963 0
M  V30 2237 H 213.449 -0.538235 -1.87321 0
M  V30 2238 H 212.545 0.374254 -3.09848 0
M  V30 2239 N 212.846 1.57033 -0.133567 0
M  V30 2240 C 214.074 2.00044 0.528195 0
M  V30 2241 C 214.489 1.01349 1.59291 0
M  V30 2242 O 213.846 0.00848369 1.82498 0
M  V30 2243 C 213.897 3.43018 1.1411 0
M  V30 2244 O 213.618 4.37939 0.11892 0
M  V30 2245 C 215.119 4.01237 1.88477 0
M  V30 2246 H 212.339 0.656517 0.138661 0
M  V30 2247 H 214.883 2.03267 -0.224196 0
M  V30 2248 H 213.038 3.40688 1.84418 0
M  V30 2249 H 213.452 5.21436 0.56613 0
M  V30 2250 H 214.926 5.03314 2.26669 0
M  V30 2251 H 215.403 3.41193 2.76558 0
M  V30 2252 H 216.009 4.07156 1.22898 0
M  V30 2253 N 214.325 -0.140222 1.56975 0
M  V30 2254 C 215.602 -0.880769 1.74648 0
M  V30 2255 C 215.982 -1.99036 0.703404 0
M  V30 2256 O 215.33 -2.26821 -0.27648 0
M  V30 2257 C 215.54 -1.417 3.18939 0
M  V30 2258 C 216.888 -1.87774 3.80823 0
M  V30 2259 O 217.912 -1.51427 3.2241 0
M  V30 2260 O 216.771 -2.54827 4.83452 0
M  V30 2261 H 213.865 -0.416713 0.714338 0
M  V30 2262 H 216.411 -0.125618 1.69234 0
M  V30 2263 H 215.183 -0.619902 3.86359 0
M  V30 2264 H 214.806 -2.23546 3.28805 0
M  V30 2265 N 215.803 -1.52179 -0.40978 0
M  V30 2266 C 217.049 -1.66453 -1.15851 0
M  V30 2267 C 217.382 -0.392972 -1.90182 0
M  V30 2268 O 216.657 0.608579 -1.84734 0
M  V30 2269 C 216.94 -2.88612 -2.15349 0
M  V30 2270 C 216.793 -4.25815 -1.44918 0
M  V30 2271 C 218.112 -3.06294 -3.16026 0
M  V30 2272 H 215.231 -0.60575 -0.419805 0
M  V30 2273 H 217.873 -1.84732 -0.444314 0
M  V30 2274 H 216.023 -2.73158 -2.76255 0
M  V30 2275 H 217.695 -4.52995 -0.871365 0
M  V30 2276 H 215.938 -4.27247 -0.751159 0
M  V30 2277 H 216.609 -5.07337 -2.17516 0
M  V30 2278 H 219.085 -3.20641 -2.65195 0
M  V30 2279 H 217.961 -3.93283 -3.8291 0
M  V30 2280 H 218.222 -2.19579 -3.83715 0
M  V30 2281 N 217.281 0.66697 -1.42791 0
M  V30 2282 C 218.53 1.42278 -1.42968 0
M  V30 2283 C 218.843 1.9553 -0.0524489 0
M  V30 2284 O 220.049 2.71414 0.068363 0
M  V30 2285 C 218.505 2.57418 -2.51524 0
M  V30 2286 C 218.113 2.10832 -3.9529 0
M  V30 2287 C 219.857 3.34878 -2.60877 0
M  V30 2288 C 217.764 3.23101 -4.95338 0
M  V30 2289 H 216.694 0.534533 -0.531781 0
M  V30 2290 H 219.345 0.721302 -1.68729 0
M  V30 2291 H 217.727 3.29971 -2.18941 0
M  V30 2292 H 218.901 1.4538 -4.37266 0
M  V30 2293 H 217.216 1.46289 -3.89857 0
M  V30 2294 H 219.813 4.18505 -3.32802 0
M  V30 2295 H 220.156 3.81993 -1.6549 0
M  V30 2296 H 220.689 2.69398 -2.92693 0
M  V30 2297 H 217.428 2.80969 -5.9223 0
M  V30 2298 H 216.948 3.87309 -4.57987 0
M  V30 2299 H 218.627 3.88447 -5.17415 0
M  V30 2300 N 218.759 1.29093 0.90403 0
M  V30 2301 C 220.17 1.15186 1.46932 0
M  V30 2302 C 220.521 -0.254587 1.94541 0
M  V30 2303 O 219.646 -1.14972 1.83332 0
M  V30 2304 C 220.241 2.08492 2.67051 0
M  V30 2305 C 218.8 1.98621 3.19729 0
M  V30 2306 C 217.947 1.9967 1.92425 0
M  V30 2307 H 220.898 1.41641 0.715789 0
M  V30 2308 H 220.919 1.65461 3.42641 0
M  V30 2309 H 220.431 3.10847 2.3237 0
M  V30 2310 H 218.532 0.993389 3.59114 0
M  V30 2311 H 218.645 2.86068 3.8432 0
M  V30 2312 H 217.009 1.44208 2.09943 0
M  V30 2313 H 217.792 3.03721 1.60026 0
M  V30 2314 N 220.237 -1.11381 1.11499 0
M  V30 2315 C 221.147 -2.21019 0.786628 0
M  V30 2316 C 222.163 -1.72597 -0.220507 0
M  V30 2317 O 223.339 -2.01321 -0.0565251 0
M  V30 2318 C 220.404 -3.459 0.235333 0
M  V30 2319 C 219.465 -4.09107 1.30115 0
M  V30 2320 C 218.698 -5.28027 0.776068 0
M  V30 2321 O 218.921 -5.6904 -0.393661 0
M  V30 2322 O 217.855 -5.81835 1.54114 0
M  V30 2323 H 221.681 -2.51521 1.70209 0
M  V30 2324 H 219.266 -1.19928 0.890928 0
M  V30 2325 H 221.148 -4.21346 -0.067715 0
M  V30 2326 H 219.823 -3.17049 -0.652828 0
M  V30 2327 H 218.73 -3.35391 1.65722 0
M  V30 2328 H 220.063 -4.42139 2.16273 0
M  V30 2329 N 221.715 -0.905404 -1.28997 0
M  V30 2330 C 222.943 -0.549846 -1.9946 0
M  V30 2331 C 223.358 0.866834 -1.67724 0
M  V30 2332 O 222.715 1.57298 -0.925404 0
M  V30 2333 C 222.766 -0.739387 -3.53858 0
M  V30 2334 O 222.487 -2.10031 -3.84472 0
M  V30 2335 C 223.988 -0.389541 -4.41585 0
M  V30 2336 H 221.208 -0.210429 -0.637151 0
M  V30 2337 H 223.752 -1.21632 -1.64396 0
M  V30 2338 H 221.907 -0.120023 -3.87214 0
M  V30 2339 H 222.321 -2.13385 -4.79132 0
M  V30 2340 H 223.795 -0.572972 -5.49018 0
M  V30 2341 H 224.272 0.673756 -4.34001 0
M  V30 2342 H 224.878 -0.986089 -4.1371 0
M  V30 2343 N 223.193 1.4272 -0.668489 0
M  V30 2344 C 224.47 1.95248 -0.117373 0
M  V30 2345 C 224.85 1.60919 1.36632 0
M  V30 2346 O 224.198 0.902095 2.09939 0
M  V30 2347 C 224.408 3.46927 -0.379806 0
M  V30 2348 C 225.756 4.23588 -0.292923 0
M  V30 2349 O 226.78 3.5482 -0.313204 0
M  V30 2350 O 225.639 5.46017 -0.229697 0
M  V30 2351 H 222.733 0.827 0.00079152 0
M  V30 2352 H 225.279 1.52581 -0.742783 0
M  V30 2353 H 224.051 3.65096 -1.40786 0
M  V30 2354 H 223.674 3.96627 0.277923 0
M  V30 2355 N 224.671 0.411399 1.52136 0
M  V30 2356 C 225.919 -0.163322 2.01439 0
M  V30 2357 C 226.24 -1.45453 1.29879 0
M  V30 2358 O 225.51 -1.91225 0.4254 0
M  V30 2359 H 224.09 -0.0633447 0.744309 0
M  V30 2360 H 226.752 0.548161 1.87033 0
M  V30 2361 H 225.848 -0.357817 3.10042 0
M  V30 2362 N 226.149 -1.5696 0.141893 0
M  V30 2363 C 227.112 -2.15316 -0.785587 0
M  V30 2364 C 228.112 -1.09366 -1.1788 0
M  V30 2365 O 229.302 -1.35031 -1.10056 0
M  V30 2366 C 226.434 -2.71211 -2.06537 0
M  V30 2367 H 227.627 -2.98608 -0.278041 0
M  V30 2368 H 225.18 -1.5593 -0.107519 0
M  V30 2369 H 225.915 -1.91571 -2.6167 0
M  V30 2370 H 225.7 -3.4872 -1.79268 0
M  V30 2371 H 227.19 -3.16189 -2.72789 0
M  V30 2372 N 227.627 0.131896 -1.57047 0
M  V30 2373 C 228.537 1.1815 -2.02676 0
M  V30 2374 C 229.553 1.46113 -0.944824 0
M  V30 2375 O 230.729 1.57485 -1.25541 0
M  V30 2376 C 227.794 2.49139 -2.41103 0
M  V30 2377 C 226.855 2.28688 -3.63318 0
M  V30 2378 C 226.088 3.53431 -3.99903 0
M  V30 2379 O 226.311 4.60223 -3.36973 0
M  V30 2380 O 225.245 3.45198 -4.93074 0
M  V30 2381 H 229.071 0.824069 -2.92306 0
M  V30 2382 H 226.656 0.341745 -1.45439 0
M  V30 2383 H 228.538 3.26338 -2.66611 0
M  V30 2384 H 227.213 2.84382 -1.54624 0
M  V30 2385 H 226.12 1.4939 -3.42977 0
M  V30 2386 H 227.453 1.98355 -4.50462 0
M  V30 2387 N 229.106 1.52395 0.401703 0
M  V30 2388 C 230.053 1.76268 1.48991 0
M  V30 2389 C 231.023 0.605386 1.54675 0
M  V30 2390 O 232.208 0.843742 1.7113 0
M  V30 2391 C 229.348 1.92592 2.86361 0
M  V30 2392 C 228.461 3.20259 2.89928 0
M  V30 2393 C 227.596 3.26972 4.18644 0
M  V30 2394 C 226.635 4.48812 4.16214 0
M  V30 2395 N 225.772 4.52877 5.36514 0
M  V30 2396 H 230.612 2.6914 1.27935 0
M  V30 2397 H 228.149 1.33355 0.620871 0
M  V30 2398 H 230.107 2.0004 3.66115 0
M  V30 2399 H 228.737 1.03093 3.05895 0
M  V30 2400 H 227.789 3.21945 2.02621 0
M  V30 2401 H 229.101 4.10056 2.83999 0
M  V30 2402 H 228.255 3.33533 5.06794 0
M  V30 2403 H 226.994 2.35126 4.27278 0
M  V30 2404 H 225.999 4.4239 3.26453 0
M  V30 2405 H 227.224 5.41961 4.09213 0
M  V30 2406 H 225.17 3.63917 5.45802 0
M  V30 2407 H 225.087 5.36529 5.32609 0
M  V30 2408 H 226.355 4.63676 6.26597 0
M  V30 2409 N 230.584 -0.659388 1.43143 0
M  V30 2410 C 231.832 -1.41654 1.44147 0
M  V30 2411 C 232.153 -1.94893 0.0645739 0
M  V30 2412 O 231.423 -1.74044 -0.899198 0
M  V30 2413 H 230.003 -0.525708 0.530697 0
M  V30 2414 H 232.665 -0.778097 1.78694 0
M  V30 2415 H 231.761 -2.26195 2.1504 0
M  V30 2416 N 232.062 -1.29571 -0.897171 0
M  V30 2417 C 233.473 -1.15964 -1.46319 0
M  V30 2418 C 233.824 0.244267 -1.94674 0
M  V30 2419 O 232.949 1.13998 -1.83939 0
M  V30 2420 C 233.544 -2.09906 -2.65942 0
M  V30 2421 C 232.103 -2.00314 -3.18671 0
M  V30 2422 C 231.25 -2.00687 -1.91363 0
M  V30 2423 H 234.201 -1.42019 -0.708268 0
M  V30 2424 H 234.222 -1.67276 -3.41759 0
M  V30 2425 H 233.734 -3.12075 -2.30718 0
M  V30 2426 H 231.835 -1.01242 -3.58582 0
M  V30 2427 H 231.948 -2.88102 -3.82798 0
M  V30 2428 H 230.312 -1.45319 -2.09175 0
M  V30 2429 H 231.095 -3.04566 -1.58413 0
M  V30 2430 N 233.54 1.10788 -1.12088 0
M  V30 2431 C 234.768 1.86461 -0.896651 0
M  V30 2432 C 235.183 1.80492 0.553912 0
M  V30 2433 O 234.54 1.19102 1.38278 0
M  V30 2434 C 234.591 3.35006 -1.35843 0
M  V30 2435 O 234.312 3.40866 -2.75213 0
M  V30 2436 C 235.813 4.27565 -1.1706 0
M  V30 2437 H 233.033 0.589425 -0.320654 0
M  V30 2438 H 235.577 1.40076 -1.48993 0
M  V30 2439 H 233.732 3.7887 -0.808458 0
M  V30 2440 H 234.146 4.33411 -2.9539 0
M  V30 2441 H 235.62 5.30007 -1.54263 0
M  V30 2442 H 236.097 4.3906 -0.110814 0
M  V30 2443 H 236.703 3.89501 -1.70789 0
M  V30 2444 N 235.018 0.912232 1.28515 0
M  V30 2445 C 236.248 0.559604 1.98877 0
M  V30 2446 C 236.656 -0.863113 1.68366 0
M  V30 2447 O 235.999 -1.58304 0.931969 0
M  V30 2448 C 236.061 0.68703 3.52874 0
M  V30 2449 C 235.725 2.07901 4.06972 0
M  V30 2450 C 236.722 3.05157 4.20922 0
M  V30 2451 C 234.407 2.39178 4.417 0
M  V30 2452 C 236.401 4.31806 4.68852 0
M  V30 2453 C 234.088 3.66068 4.89324 0
M  V30 2454 C 235.086 4.62195 5.02856 0
M  V30 2455 O 234.774 5.86829 5.49442 0
M  V30 2456 H 234.506 0.212191 0.641834 0
M  V30 2457 H 237.06 1.22712 1.64715 0
M  V30 2458 H 235.29 -0.0375486 3.86682 0
M  V30 2459 H 236.979 0.341727 4.04459 0
M  V30 2460 H 237.745 2.82311 3.94367 0
M  V30 2461 H 233.624 1.65109 4.30418 0
M  V30 2462 H 237.168 5.06842 4.79329 0
M  V30 2463 H 233.065 3.88739 5.15318 0
M  V30 2464 H 233.833 5.89597 5.6773 0
M  V30 2465 N 236.496 -1.42363 0.676048 0
M  V30 2466 C 237.444 -2.32596 -0.0131507 0
M  V30 2467 C 238.438 -1.49891 -0.789238 0
M  V30 2468 O 239.644 -1.65955 -0.697061 0
M  V30 2469 H 236.019 -0.751647 -0.0230481 0
M  V30 2470 H 237.99 -2.88421 0.765243 0
M  V30 2471 C 236.739 -3.34479 -0.949702 0
M  V30 2472 H 236.062 -3.98158 -0.361938 0
M  V30 2473 H 237.502 -4.00199 -1.4006 0
M  V30 2474 C 235.961 -2.66838 -2.05667 0
M  V30 2475 O 236.491 -2.50124 -3.14326 0
M  V30 2476 N 234.697 -2.25843 -1.82875 0
M  V30 2477 H 234.244 -2.39637 -0.945085 0
M  V30 2478 H 234.202 -1.80918 -2.5713 0
M  V30 2479 N 237.974 -0.419461 -1.51915 0
M  V30 2480 C 238.921 0.400927 -2.27291 0
M  V30 2481 C 239.891 1.03224 -1.30131 0
M  V30 2482 O 241.076 1.05455 -1.59009 0
M  V30 2483 C 238.216 1.50603 -3.10504 0
M  V30 2484 C 237.329 0.89462 -4.22635 0
M  V30 2485 C 236.464 1.97328 -4.93189 0
M  V30 2486 C 235.503 1.33935 -5.97267 0
M  V30 2487 N 234.64 2.3586 -6.61298 0
M  V30 2488 H 239.48 -0.248251 -2.96964 0
M  V30 2489 H 237.017 -0.134266 -1.46486 0
M  V30 2490 H 238.975 2.15783 -3.57062 0
M  V30 2491 H 237.605 2.12509 -2.42981 0
M  V30 2492 H 236.657 0.131583 -3.80172 0
M  V30 2493 H 237.969 0.391641 -4.9726 0
M  V30 2494 H 237.123 2.70211 -5.43204 0
M  V30 2495 H 235.862 2.50994 -4.18155 0
M  V30 2496 H 234.867 0.595896 -5.46561 0
M  V30 2497 H 236.092 0.810252 -6.74249 0
M  V30 2498 H 234.038 2.88639 -5.89087 0
M  V30 2499 H 233.955 1.90403 -7.3163 0
M  V30 2500 H 235.223 3.08282 -7.15949 0
M  V30 2501 N 239.452 1.56882 -0.150215 0
M  V30 2502 C 240.698 1.96518 0.500834 0
M  V30 2503 C 241.031 1.03527 1.64304 0
M  V30 2504 O 240.306 0.0782751 1.94342 0
M  V30 2505 C 240.589 3.45822 1.00395 0
M  V30 2506 C 240.442 4.49591 -0.136983 0
M  V30 2507 C 241.761 3.97704 1.88467 0
M  V30 2508 H 238.88 0.714535 0.18058 0
M  V30 2509 H 241.522 1.88577 -0.232091 0
M  V30 2510 H 239.672 3.5272 1.62851 0
M  V30 2511 H 241.344 4.5477 -0.77343 0
M  V30 2512 H 239.587 4.26441 -0.795652 0
M  V30 2513 H 240.258 5.51402 0.256815 0
M  V30 2514 H 242.734 3.93304 1.35834 0
M  V30 2515 H 241.61 5.0263 2.20578 0
M  V30 2516 H 241.871 3.40252 2.82279 0
M  V30 2517 N 240.93 -0.123565 1.57115 0
M  V30 2518 C 242.346 -0.476961 1.52306 0
M  V30 2519 C 242.546 -1.82109 0.86248 0
M  V30 2520 O 241.602 -2.48586 0.442884 0
M  V30 2521 C 242.915 -0.465661 2.97073 0
M  V30 2522 C 244.463 -0.549534 3.08138 0
M  V30 2523 C 244.938 -0.568669 4.54456 0
M  V30 2524 N 246.429 -0.630237 4.58892 0
M  V30 2525 C 247.164 -0.666415 5.69514 0
M  V30 2526 N 246.66 -0.660514 6.89644 0
M  V30 2527 N 248.453 -0.709077 5.5761 0
M  V30 2528 H 240.604 0.757198 1.98445 0
M  V30 2529 H 242.867 0.278808 0.906074 0
M  V30 2530 H 242.573 0.454232 3.48754 0
M  V30 2531 H 242.447 -1.29513 3.54269 0
M  V30 2532 H 244.834 -1.45985 2.56461 0
M  V30 2533 H 244.915 0.307532 2.53945 0
M  V30 2534 H 244.559 0.337581 5.06777 0
M  V30 2535 H 244.489 -1.44256 5.06456 0
M  V30 2536 H 246.98 -0.641146 3.72421 0
M  V30 2537 H 247.293 -0.690616 7.69708 0
M  V30 2538 H 245.638 -0.628012 6.92157 0
M  V30 2539 H 248.829 -0.711019 4.62668 0
M  V30 2540 H 249.002 -0.733804 6.43832 0
M  V30 2541 N 242.408 -1.52605 -0.393616 0
M  V30 2542 C 243.656 -1.67093 -1.13685 0
M  V30 2543 C 243.977 -0.411011 -1.90619 0
M  V30 2544 O 243.247 0.574491 -1.87287 0
M  V30 2545 H 241.827 -0.615923 -0.422668 0
M  V30 2546 H 244.489 -1.89704 -0.447039 0
M  V30 2547 H 243.585 -2.51922 -1.84232 0
M  V30 2548 N 243.887 0.651787 -1.4349 0
M  V30 2549 C 245.164 1.40909 -1.35661 0
M  V30 2550 C 245.544 2.11099 -0.00511733 0
M  V30 2551 O 244.892 2.04892 1.0115 0
M  V30 2552 C 245.102 2.3926 -2.54078 0
M  V30 2553 C 246.45 3.03217 -2.97228 0
M  V30 2554 O 247.474 2.49588 -2.54135 0
M  V30 2555 O 246.333 4.00455 -3.71885 0
M  V30 2556 H 243.427 0.629625 -0.536191 0
M  V30 2557 H 245.973 0.678575 -1.55542 0
M  V30 2558 H 244.745 1.86352 -3.44076 0
M  V30 2559 H 244.368 3.1976 -2.36303 0
M  V30 2560 N 245.365 1.30045 0.890287 0
M  V30 2561 C 246.312 1.15976 1.99545 0
M  V30 2562 C 247.282 0.0506202 1.66023 0
M  V30 2563 O 248.467 0.219847 1.89529 0
M  V30 2564 C 245.607 0.852054 3.34416 0
M  V30 2565 C 244.72 2.04255 3.80662 0
M  V30 2566 C 243.855 1.6734 5.04154 0
M  V30 2567 C 242.894 2.82916 5.42794 0
M  V30 2568 N 242.031 2.46333 6.57468 0
M  V30 2569 H 246.871 2.10524 2.10911 0
M  V30 2570 H 244.408 1.04749 1.03276 0
M  V30 2571 H 246.366 0.654296 4.12037 0
M  V30 2572 H 244.996 -0.0565502 3.2275 0
M  V30 2573 H 244.048 2.35172 2.98995 0
M  V30 2574 H 245.36 2.90826 4.05242 0
M  V30 2575 H 244.514 1.43908 5.89386 0
M  V30 2576 H 243.253 0.779308 4.81433 0
M  V30 2577 H 242.258 3.0702 4.56091 0
M  V30 2578 H 243.483 3.73004 5.6749 0
M  V30 2579 H 241.429 1.59423 6.36334 0
M  V30 2580 H 241.346 3.26436 6.81891 0
M  V30 2581 H 242.614 2.26244 7.45945 0
M  V30 2582 N 246.843 -1.10192 1.12674 0
M  V30 2583 C 248.089 -1.82475 0.884915 0
M  V30 2584 C 248.422 -1.85093 -0.58773 0
M  V30 2585 O 247.697 -1.3134 -1.43457 0
M  V30 2586 C 247.98 -3.29018 1.46353 0
M  V30 2587 C 247.833 -3.34718 3.00473 0
M  V30 2588 C 249.152 -4.25473 1.12519 0
M  V30 2589 H 246.271 -0.662492 0.322915 0
M  V30 2590 H 248.913 -1.2913 1.39375 0
M  V30 2591 H 247.063 -3.74576 1.03077 0
M  V30 2592 H 248.735 -2.97622 3.52447 0
M  V30 2593 H 246.978 -2.74541 3.35872 0
M  V30 2594 H 247.649 -4.37918 3.36053 0
M  V30 2595 H 250.125 -3.88161 1.499 0
M  V30 2596 H 249.001 -5.26365 1.55663 0
M  V30 2597 H 249.262 -4.42084 0.0377407 0
M  V30 2598 N 248.321 -0.919034 -1.28029 0
M  V30 2599 C 249.57 -0.550802 -1.94034 0
M  V30 2600 C 249.883 0.910877 -1.73096 0
M  V30 2601 O 251.089 1.3875 -2.33368 0
M  V30 2602 C 249.545 -0.934249 -3.47563 0
M  V30 2603 C 249.153 -2.41602 -3.7727 0
M  V30 2604 C 250.897 -0.636854 -4.19696 0
M  V30 2605 C 248.804 -2.73932 -5.24133 0
M  V30 2606 H 247.734 -0.202273 -0.726362 0
M  V30 2607 H 250.385 -1.11867 -1.45458 0
M  V30 2608 H 248.767 -0.295115 -3.94899 0
M  V30 2609 H 249.941 -3.10233 -3.40723 0
M  V30 2610 H 248.256 -2.68441 -3.18321 0
M  V30 2611 H 250.853 -0.855005 -5.2782 0
M  V30 2612 H 251.196 0.425575 -4.14119 0
M  V30 2613 H 251.729 -1.23469 -3.78154 0
M  V30 2614 H 248.468 -3.79049 -5.34792 0
M  V30 2615 H 247.988 -2.09942 -5.61858 0
M  V30 2616 H 249.667 -2.61215 -5.91925 0
M  V30 2617 N 249.799 1.42003 -0.683588 0
M  V30 2618 C 250.762 2.29191 -0.0198243 0
M  V30 2619 C 251.762 1.43773 0.72013 0
M  V30 2620 O 252.952 1.65061 0.556815 0
M  V30 2621 C 250.084 3.26435 0.982487 0
M  V30 2622 H 251.277 2.8938 -0.787345 0
M  V30 2623 H 248.83 1.49789 -0.446418 0
M  V30 2624 H 249.565 2.71203 1.77819 0
M  V30 2625 H 249.35 3.89449 0.455182 0
M  V30 2626 H 250.84 3.918 1.44508 0
M  V30 2627 N 251.277 0.427512 1.51691 0
M  V30 2628 C 252.507 -0.140986 2.06118 0
M  V30 2629 C 252.915 -1.37854 1.29588 0
M  V30 2630 O 252.258 -1.80411 0.346036 0
M  V30 2631 C 252.32 -0.538276 3.55447 0
M  V30 2632 C 251.984 0.591095 4.53161 0
M  V30 2633 C 252.981 1.46027 4.98971 0
M  V30 2634 C 250.666 0.769028 4.96378 0
M  V30 2635 C 252.66 2.49216 5.8666 0
M  V30 2636 C 250.347 1.80421 5.83859 0
M  V30 2637 C 251.345 2.66417 6.28897 0
M  V30 2638 O 251.033 3.68159 7.14643 0
M  V30 2639 H 250.765 -0.0157455 0.675817 0
M  V30 2640 H 253.319 0.602495 1.96365 0
M  V30 2641 H 251.549 -1.33432 3.6295 0
M  V30 2642 H 253.238 -1.0368 3.92435 0
M  V30 2643 H 254.004 1.33429 4.66285 0
M  V30 2644 H 249.883 0.109273 4.6087 0
M  V30 2645 H 253.427 3.16372 6.21735 0
M  V30 2646 H 249.324 1.93042 6.15959 0
M  V30 2647 H 250.092 3.64622 7.32798 0
M  V30 2648 N 252.755 -1.56801 0.158532 0
M  V30 2649 C 253.718 -2.16138 -0.762705 0
M  V30 2650 C 254.718 -1.1061 -1.16713 0
M  V30 2651 O 255.908 -1.36191 -1.08617 0
M  V30 2652 C 253.04 -2.73386 -2.03649 0
M  V30 2653 H 254.233 -2.98886 -0.246354 0
M  V30 2654 H 251.786 -1.56035 -0.0909744 0
M  V30 2655 H 252.521 -1.94335 -2.59623 0
M  V30 2656 H 252.306 -3.50601 -1.75559 0
M  V30 2657 H 253.796 -3.19065 -2.6942 0
M  V30 2658 N 254.233 0.115231 -1.57178 0
M  V30 2659 C 255.649 0.468877 -1.52557 0
M  V30 2660 C 255.849 1.81649 -0.872125 0
M  V30 2661 O 254.905 2.48347 -0.45606 0
M  V30 2662 C 256.218 0.4499 -2.97315 0
M  V30 2663 C 257.766 0.533185 -3.08425 0
M  V30 2664 C 258.241 0.54456 -4.54751 0
M  V30 2665 N 259.732 0.605892 -4.5922 0
M  V30 2666 C 260.467 0.636203 -5.6986 0
M  V30 2667 N 259.963 0.623931 -6.89985 0
M  V30 2668 N 261.756 0.679496 -5.57978 0
M  V30 2669 H 253.907 -0.767712 -1.9804 0
M  V30 2670 H 256.17 -0.283609 -0.904583 0
M  V30 2671 H 255.876 -0.472721 -3.48509 0
M  V30 2672 H 255.75 1.27632 -3.5495 0
M  V30 2673 H 258.137 1.44623 -2.57232 0
M  V30 2674 H 258.218 -0.320995 -2.53778 0
M  V30 2675 H 257.862 -0.364452 -5.06591 0
M  V30 2676 H 257.792 1.41568 -5.07214 0
M  V30 2677 H 260.283 0.621386 -3.72756 0
M  V30 2678 H 260.596 0.649787 -7.70063 0
M  V30 2679 H 258.941 0.591296 -6.9248 0
M  V30 2680 H 262.132 0.686472 -4.63039 0
M  V30 2681 H 262.305 0.69965 -6.44212 0
M  V30 2682 N 255.711 1.52812 0.385517 0
M  V30 2683 C 256.658 1.77838 1.47113 0
M  V30 2684 C 257.628 0.621757 1.54024 0
M  V30 2685 O 258.813 0.861846 1.70226 0
M  V30 2686 C 255.953 1.95618 2.84302 0
M  V30 2687 C 255.066 3.23316 2.86515 0
M  V30 2688 C 254.201 3.31394 4.15152 0
M  V30 2689 C 253.24 4.53201 4.1143 0
M  V30 2690 N 252.377 4.58542 5.3168 0
M  V30 2691 H 257.217 2.70482 1.25073 0
M  V30 2692 H 254.754 1.34006 0.606692 0
M  V30 2693 H 256.712 2.03912 3.63972 0
M  V30 2694 H 255.342 1.06331 3.04784 0
M  V30 2695 H 254.394 3.24076 1.99195 0
M  V30 2696 H 255.706 4.13045 2.79634 0
M  V30 2697 H 254.86 3.3889 5.03228 0
M  V30 2698 H 253.599 2.39645 4.24761 0
M  V30 2699 H 252.604 4.45827 3.21742 0
M  V30 2700 H 253.829 5.46271 4.03442 0
M  V30 2701 H 251.775 3.69686 5.41912 0
M  V30 2702 H 251.692 5.42148 5.26889 0
M  V30 2703 H 252.96 4.70296 6.21644 0
M  V30 2704 N 257.189 -0.644168 1.43834 0
M  V30 2705 C 258.436 -1.40395 1.4593 0
M  V30 2706 C 258.764 -1.94305 0.0869658 0
M  V30 2707 O 258.019 -1.73288 -0.909378 0
M  V30 2708 C 258.318 -2.59615 2.45631 0
M  V30 2709 C 257.984 -2.2407 3.91284 0
M  V30 2710 C 256.646 -2.14089 4.30952 0
M  V30 2711 C 258.998 -1.95775 4.83034 0
M  V30 2712 C 256.326 -1.73981 5.6031 0
M  V30 2713 C 258.678 -1.57163 6.12766 0
M  V30 2714 C 257.342 -1.45713 6.51402 0
M  V30 2715 H 256.612 -0.513741 0.533995 0
M  V30 2716 H 259.259 -0.731724 1.76969 0
M  V30 2717 H 257.564 -3.32011 2.08028 0
M  V30 2718 H 259.261 -3.17834 2.44504 0
M  V30 2719 H 255.851 -2.32753 3.59895 0
M  V30 2720 H 260.035 -2.02403 4.53152 0
M  V30 2721 H 255.291 -1.63709 5.89075 0
M  V30 2722 H 259.465 -1.34303 6.83327 0
M  V30 2723 H 257.092 -1.14406 7.51542 0
M  V30 2724 N 258.668 -1.30515 -0.883378 0
M  V30 2725 C 259.598 -1.19607 -2.00541 0
M  V30 2726 C 260.579 -0.086346 -1.69881 0
M  V30 2727 O 261.764 -0.268654 -1.92333 0
M  V30 2728 C 258.894 -0.888758 -3.35736 0
M  V30 2729 C 257.848 -1.95659 -3.8066 0
M  V30 2730 C 257.174 -1.50224 -5.13164 0
M  V30 2731 C 258.474 -3.36788 -3.99213 0
M  V30 2732 H 260.168 -2.13476 -2.09925 0
M  V30 2733 H 257.714 -1.02775 -1.00863 0
M  V30 2734 H 259.667 -0.799094 -4.13754 0
M  V30 2735 H 258.391 0.0856125 -3.26488 0
M  V30 2736 H 257.05 -2.03591 -3.04871 0
M  V30 2737 H 256.698 -0.516092 -5.00345 0
M  V30 2738 H 256.398 -2.2165 -5.44192 0
M  V30 2739 H 257.922 -1.42639 -5.93706 0
M  V30 2740 H 259.336 -3.31605 -4.67665 0
M  V30 2741 H 257.733 -4.06314 -4.41621 0
M  V30 2742 H 258.803 -3.78561 -3.03017 0
M  V30 2743 N 260.146 1.09593 -1.13257 0
M  V30 2744 C 261.423 1.78293 -0.804432 0
M  V30 2745 C 261.803 1.99004 0.70431 0
M  V30 2746 O 261.151 1.59007 1.641 0
M  V30 2747 C 261.361 3.10707 -1.5894 0
M  V30 2748 C 262.709 3.85443 -1.78099 0
M  V30 2749 O 263.733 3.20454 -1.55525 0
M  V30 2750 O 262.592 5.02108 -2.15753 0
M  V30 2751 H 259.686 0.773156 -0.293528 0
M  V30 2752 H 262.232 1.16164 -1.23709 0
M  V30 2753 H 261.004 2.91106 -2.61482 0
M  V30 2754 H 260.627 3.80558 -1.15157 0
M  V30 2755 N 261.624 0.925811 1.2754 0
M  V30 2756 C 262.901 0.483726 1.89524 0
M  V30 2757 C 263.281 -1.03809 1.83812 0
M  V30 2758 O 262.629 -1.89143 1.28207 0
M  V30 2759 C 262.839 1.02769 3.33526 0
M  V30 2760 C 264.187 1.08703 4.10449 0
M  V30 2761 O 265.211 0.977175 3.42534 0
M  V30 2762 O 264.07 1.25599 5.31871 0
M  V30 2763 H 261.164 0.15529 0.812289 0
M  V30 2764 H 263.71 1.01738 1.35822 0
M  V30 2765 H 262.482 2.07155 3.31967 0
M  V30 2766 H 262.105 0.475567 3.94746 0
M  V30 2767 N 263.102 -1.41638 0.69111 0
M  V30 2768 C 264.327 -2.06148 0.227583 0
M  V30 2769 C 264.752 -1.51652 -1.11281 0
M  V30 2770 O 264.11 -0.64164 -1.69566 0
M  V30 2771 C 264.158 -3.60095 0.190858 0
M  V30 2772 O 263.262 -4.03845 -0.835664 0
M  V30 2773 H 262.603 -0.654434 0.112306 0
M  V30 2774 H 265.133 -1.81484 0.944714 0
M  V30 2775 H 265.143 -4.07995 0.020207 0
M  V30 2776 H 263.818 -3.99129 1.16915 0
M  V30 2777 H 262.395 -3.67458 -0.63473 0
M  V30 2778 N 264.58 -0.43555 -1.51462 0
M  V30 2779 C 265.826 0.131709 -2.02372 0
M  V30 2780 C 266.159 1.42516 -1.3192 0
M  V30 2781 O 265.434 1.89606 -0.433573 0
M  V30 2782 C 265.717 0.352301 -3.58373 0
M  V30 2783 C 265.57 -0.959676 -4.39443 0
M  V30 2784 C 266.889 1.12286 -4.25535 0
M  V30 2785 H 264.008 0.0463936 -0.735538 0
M  V30 2786 H 266.65 -0.574197 -1.81116 0
M  V30 2787 H 264.8 0.9536 -3.76615 0
M  V30 2788 H 266.472 -1.59482 -4.32855 0
M  V30 2789 H 264.715 -1.56468 -4.04599 0
M  V30 2790 H 265.386 -0.759394 -5.46752 0
M  V30 2791 H 267.862 0.613545 -4.11552 0
M  V30 2792 H 266.738 1.24598 -5.34571 0
M  V30 2793 H 266.999 2.15048 -3.86273 0
M  V30 2794 N 266.058 1.56714 -0.166846 0
M  V30 2795 C 267.469 1.83378 0.350646 0
M  V30 2796 C 267.82 1.08646 1.63372 0
M  V30 2797 O 266.945 0.338058 2.13743 0
M  V30 2798 C 267.54 3.32643 0.642963 0
M  V30 2799 C 266.099 3.59818 1.10491 0
M  V30 2800 C 265.246 2.76954 0.138411 0
M  V30 2801 H 268.197 1.53803 -0.391193 0
M  V30 2802 H 268.218 3.49878 1.49551 0
M  V30 2803 H 267.73 3.87007 -0.291055 0
M  V30 2804 H 265.831 3.1086 2.05418 0
M  V30 2805 H 265.944 4.68178 1.01716 0
M  V30 2806 H 264.308 2.4666 0.634911 0
M  V30 2807 H 265.091 3.34097 -0.789549 0
M  V30 2808 N 267.536 -0.106894 1.57237 0
M  V30 2809 C 268.466 -1.13148 2.04254 0
M  V30 2810 C 269.447 -1.42476 0.929224 0
M  V30 2811 O 270.632 -1.52709 1.19973 0
M  V30 2812 C 267.762 -2.4545 2.45706 0
M  V30 2813 C 266.716 -2.30558 3.60592 0
M  V30 2814 C 266.042 -3.67931 3.87983 0
M  V30 2815 C 267.342 -1.75597 4.91897 0
M  V30 2816 H 269.036 -0.740374 2.90101 0
M  V30 2817 H 266.582 -0.354696 1.39563 0
M  V30 2818 H 268.535 -3.17389 2.77205 0
M  V30 2819 H 267.259 -2.86475 1.56843 0
M  V30 2820 H 265.918 -1.61067 3.29322 0
M  V30 2821 H 265.566 -4.06462 2.96306 0
M  V30 2822 H 265.266 -3.58817 4.65322 0
M  V30 2823 H 266.79 -4.41356 4.21945 0
M  V30 2824 H 268.204 -2.37364 5.21854 0
M  V30 2825 H 266.601 -1.77272 5.73319 0
M  V30 2826 H 267.671 -0.714451 4.79608 0
M  V30 2827 N 269.014 -1.53014 -0.377408 0
M  V30 2828 C 270.239 -1.72818 -1.14668 0
M  V30 2829 C 270.664 -0.450725 -1.8262 0
M  V30 2830 O 270.022 0.59439 -1.7128 0
M  V30 2831 C 270.07 -2.88627 -2.16164 0
M  V30 2832 O 269.174 -2.56409 -3.22998 0
M  V30 2833 H 268.515 -0.574301 -0.333278 0
M  V30 2834 H 271.045 -1.99853 -0.438152 0
M  V30 2835 H 271.055 -3.14455 -2.59966 0
M  V30 2836 H 269.73 -3.81294 -1.66095 0
M  V30 2837 H 268.307 -2.4136 -2.84253 0
M  V30 2838 N 270.492 0.636531 -1.44174 0
M  V30 2839 C 271.717 1.42847 -1.50364 0
M  V30 2840 C 272.142 1.87665 -0.127867 0
M  V30 2841 O 271.5 1.58408 0.88185 0
M  V30 2842 C 271.548 2.62854 -2.4686 0
M  V30 2843 O 270.652 3.62501 -1.9664 0
M  V30 2844 H 269.993 0.427642 -0.507955 0
M  V30 2845 H 272.523 0.777422 -1.89255 0
M  V30 2846 H 272.533 3.10465 -2.64718 0
M  V30 2847 H 271.208 2.29578 -3.46795 0
M  V30 2848 H 269.785 3.21735 -1.88523 0
M  V30 2849 N 271.97 1.30982 0.876444 0
M  V30 2850 C 273.218 1.20058 1.62575 0
M  V30 2851 C 273.539 -0.242947 1.93481 0
M  V30 2852 O 272.809 -1.1619 1.57724 0
M  V30 2853 H 271.389 0.44135 0.602677 0
M  V30 2854 H 274.051 1.64222 1.04962 0
M  V30 2855 H 273.147 1.76762 2.57219 0
M  V30 2856 N 273.449 -1.08991 1.13837 0
M  V30 2857 C 274.674 -1.85551 0.926585 0
M  V30 2858 C 275.099 -1.80782 -0.519566 0
M  V30 2859 O 274.457 -1.18855 -1.36906 0
M  V30 2860 C 274.505 -3.31266 1.42462 0
M  V30 2861 O 273.609 -4.07822 0.612789 0
M  V30 2862 H 272.95 -0.575192 0.331738 0
M  V30 2863 H 275.48 -1.37604 1.51414 0
M  V30 2864 H 275.49 -3.82112 1.43019 0
M  V30 2865 H 274.165 -3.34052 2.47754 0
M  V30 2866 H 272.742 -3.66731 0.675463 0
M  V30 2867 N 274.927 -0.932562 -1.27047 0
M  V30 2868 C 276.174 -0.575559 -1.94148 0
M  V30 2869 C 276.502 0.883984 -1.73251 0
M  V30 2870 O 275.757 1.64655 -1.0577 0
M  V30 2871 C 276.056 -0.853713 -3.47054 0
M  V30 2872 C 275.722 -2.29577 -3.88079 0
M  V30 2873 C 274.384 -2.68999 -3.9899 0
M  V30 2874 C 276.736 -3.23331 -4.08787 0
M  V30 2875 C 274.064 -4.01289 -4.28 0
M  V30 2876 C 276.416 -4.55207 -4.39282 0
M  V30 2877 C 275.08 -4.94457 -4.48407 0
M  V30 2878 H 274.35 -0.210612 -0.710439 0
M  V30 2879 H 276.997 -1.17744 -1.51025 0
M  V30 2880 H 275.302 -0.169204 -3.91434 0
M  V30 2881 H 276.999 -0.55639 -3.97121 0
M  V30 2882 H 273.589 -1.97994 -3.80127 0
M  V30 2883 H 277.773 -2.94074 -3.99793 0
M  V30 2884 H 273.029 -4.31374 -4.33275 0
M  V30 2885 H 277.203 -5.27852 -4.54252 0
M  V30 2886 H 274.83 -5.96994 -4.7064 0
M  V30 2887 N 276.405 1.4127 -0.698611 0
M  V30 2888 C 277.653 2.00782 -0.230409 0
M  V30 2889 C 277.974 1.5562 1.17505 0
M  V30 2890 O 277.244 0.78815 1.79346 0
M  V30 2891 H 275.824 0.742464 -0.0821944 0
M  V30 2892 H 278.486 1.72852 -0.90045 0
M  V30 2893 H 277.582 3.11095 -0.25021 0
M  V30 2894 N 277.883 0.443576 1.51229 0
M  V30 2895 C 279.16 -0.181038 1.9476 0
M  V30 2896 C 279.54 -1.59523 1.38259 0
M  V30 2897 O 278.888 -2.2122 0.572198 0
M  V30 2898 C 279.098 -0.152422 3.48667 0
M  V30 2899 C 280.446 -0.354923 4.23114 0
M  V30 2900 O 281.47 -0.230257 3.55455 0
M  V30 2901 O 280.329 -0.603674 5.43156 0
M  V30 2902 H 277.423 -0.1266 0.817252 0
M  V30 2903 H 279.969 0.502004 1.62105 0
M  V30 2904 H 278.741 0.836022 3.82265 0
M  V30 2905 H 278.364 -0.878107 3.87782 0
M  V30 2906 N 279.361 -1.56624 0.175154 0
M  V30 2907 C 280.324 -2.16934 -0.739738 0
M  V30 2908 C 281.324 -1.11842 -1.15533 0
M  V30 2909 O 282.514 -1.37335 -1.07167 0
M  V30 2910 C 279.646 -2.75531 -2.00738 0
M  V30 2911 H 280.839 -2.99131 -0.214639 0
M  V30 2912 H 278.392 -1.56123 -0.0744197 0
M  V30 2913 H 279.127 -1.97078 -2.57548 0
M  V30 2914 H 278.912 -3.52444 -1.71831 0
M  V30 2915 H 280.402 -3.21904 -2.66021 0
M  V30 2916 N 280.839 0.0985539 -1.57292 0
M  V30 2917 C 282.067 0.816318 -1.90115 0
M  V30 2918 C 282.482 1.72451 -0.768509 0
M  V30 2919 O 281.839 1.80643 0.259687 0
M  V30 2920 C 281.89 1.63259 -3.22535 0
M  V30 2921 O 281.611 0.760934 -4.31441 0
M  V30 2922 C 283.112 2.45372 -3.69199 0
M  V30 2923 H 280.332 0.233595 -0.629027 0
M  V30 2924 H 282.876 0.0768229 -2.04356 0
M  V30 2925 H 281.031 2.32463 -3.09903 0
M  V30 2926 H 281.445 1.32595 -5.07463 0
M  V30 2927 H 282.919 2.98144 -4.64558 0
M  V30 2928 H 283.396 3.23677 -2.96867 0
M  V30 2929 H 284.002 1.81373 -3.84687 0
M  V30 2930 N 282.317 1.53212 0.369288 0
M  V30 2931 C 283.565 1.68881 1.11012 0
M  V30 2932 C 283.886 0.441285 1.89941 0
M  V30 2933 O 283.156 -0.544623 1.88177 0
M  V30 2934 H 281.736 0.622569 0.412816 0
M  V30 2935 H 284.398 1.90391 0.416802 0
M  V30 2936 H 283.494 2.54822 1.80201 0
M  V30 2937 N 283.795 -0.628877 1.44509 0
M  V30 2938 C 285.042 -1.38839 1.47411 0
M  V30 2939 C 285.37 -1.94202 0.10757 0
M  V30 2940 O 284.625 -1.74243 -0.890947 0
M  V30 2941 C 284.924 -2.56995 2.48371 0
M  V30 2942 C 284.59 -2.19908 3.93639 0
M  V30 2943 C 283.252 -2.09506 4.33198 0
M  V30 2944 C 285.604 -1.9064 4.85083 0
M  V30 2945 C 282.932 -1.68028 5.62124 0
M  V30 2946 C 285.284 -1.50655 6.14399 0
M  V30 2947 C 283.948 -1.38796 6.5291 0
M  V30 2948 H 283.218 -0.508048 0.539414 0
M  V30 2949 H 285.865 -0.712913 1.77735 0
M  V30 2950 H 284.17 -3.29786 2.11538 0
M  V30 2951 H 285.867 -3.15223 2.47861 0
M  V30 2952 H 282.457 -2.28922 3.62343 0
M  V30 2953 H 286.641 -1.97585 4.55273 0
M  V30 2954 H 281.897 -1.57452 5.90778 0
M  V30 2955 H 286.071 -1.27048 6.84713 0
M  V30 2956 H 283.698 -1.06429 7.52713 0
M  V30 2957 N 285.273 -1.31445 -0.869486 0
M  V30 2958 C 286.501 -1.24122 -1.65534 0
M  V30 2959 C 286.916 0.193387 -1.87807 0
M  V30 2960 O 286.273 1.12557 -1.43656 0
M  V30 2961 C 286.324 -1.98229 -3.02304 0
M  V30 2962 O 286.045 -3.3609 -2.81026 0
M  V30 2963 C 287.546 -1.97751 -3.96749 0
M  V30 2964 H 284.766 -0.428868 -0.516055 0
M  V30 2965 H 287.31 -1.73328 -1.08525 0
M  V30 2966 H 285.465 -1.52782 -3.56001 0
M  V30 2967 H 285.879 -3.7383 -3.67902 0
M  V30 2968 H 287.353 -2.54114 -4.90031 0
M  V30 2969 H 287.83 -0.960137 -4.28577 0
M  V30 2970 H 288.436 -2.43079 -3.48988 0
M  V30 2971 N 286.751 1.08385 -1.14413 0
M  V30 2972 C 287.997 1.81044 -0.913834 0
M  V30 2973 C 288.33 1.86004 0.558209 0
M  V30 2974 O 287.605 1.33606 1.4135 0
M  V30 2975 C 287.888 3.26648 -1.51569 0
M  V30 2976 C 287.741 3.29895 -3.0576 0
M  V30 2977 C 289.06 4.23629 -1.19273 0
M  V30 2978 H 286.179 0.65727 -0.333414 0
M  V30 2979 H 288.821 1.26896 -1.41412 0
M  V30 2980 H 286.971 3.72889 -1.09023 0
M  V30 2981 H 288.643 2.91977 -3.57137 0
M  V30 2982 H 286.886 2.69163 -3.40197 0
M  V30 2983 H 287.557 4.32516 -3.42977 0
M  V30 2984 H 290.033 3.85727 -1.56057 0
M  V30 2985 H 288.909 5.23822 -1.64017 0
M  V30 2986 H 289.17 4.41968 -0.108068 0
M  V30 2987 N 288.23 0.939286 1.26551 0
M  V30 2988 C 289.162 0.404704 2.25599 0
M  V30 2989 C 290.175 -0.470983 1.55838 0
M  V30 2990 O 291.364 -0.281734 1.76263 0
M  V30 2991 C 288.464 -0.43764 3.36062 0
M  V30 2992 C 287.637 0.421449 4.35365 0
M  V30 2993 C 286.696 -0.36015 5.24966 0
M  V30 2994 O 285.722 0.236167 5.6871 0
M  V30 2995 N 286.924 -1.65715 5.56344 0
M  V30 2996 H 289.689 1.25618 2.72103 0
M  V30 2997 H 287.25 0.807963 1.40298 0
M  V30 2998 H 289.242 -0.967866 3.92956 0
M  V30 2999 H 287.812 -1.18991 2.89067 0
M  V30 3000 H 287.032 1.1329 3.7757 0
M  V30 3001 H 288.32 1.00835 4.98708 0
M  V30 3002 H 287.718 -2.16378 5.22682 0
M  V30 3003 H 286.275 -2.13366 6.15888 0
M  V30 3004 N 289.708 -1.40897 0.706093 0
M  V30 3005 C 290.985 -1.94868 0.169099 0
M  V30 3006 C 291.365 -1.64485 -1.32318 0
M  V30 3007 O 290.713 -0.95744 -2.07474 0
M  V30 3008 C 290.923 -3.45798 0.471654 0
M  V30 3009 C 292.271 -4.22663 0.405127 0
M  V30 3010 O 293.295 -3.53865 0.407168 0
M  V30 3011 O 292.154 -5.45216 0.374383 0
M  V30 3012 H 289.248 -0.82673 0.0211352 0
M  V30 3013 H 291.794 -1.50558 0.782976 0
M  V30 3014 H 290.566 -3.61235 1.50416 0
M  V30 3015 H 290.189 -3.97225 -0.172666 0
M  V30 3016 N 291.186 -0.45159 -1.50991 0
M  V30 3017 C 292.434 0.109857 -2.01801 0
M  V30 3018 C 292.755 1.41958 -1.3369 0
M  V30 3019 O 292.025 1.9003 -0.475951 0
M  V30 3020 H 290.605 0.0435884 -0.745727 0
M  V30 3021 H 293.267 -0.597557 -1.85514 0
M  V30 3022 H 292.363 0.275489 -3.10882 0
M  V30 3023 N 292.664 1.56529 -0.183458 0
M  V30 3024 C 293.596 2.15747 0.773697 0
M  V30 3025 C 294.609 1.1162 1.1851 0
M  V30 3026 O 295.798 1.3876 1.12285 0
M  V30 3027 C 292.898 2.6952 2.05456 0
M  V30 3028 C 292.071 3.98429 1.8048 0
M  V30 3029 C 291.13 4.37145 2.92901 0
M  V30 3030 O 290.156 5.04791 2.6301 0
M  V30 3031 N 291.358 3.99695 4.2098 0
M  V30 3032 H 294.123 2.98505 0.26736 0
M  V30 3033 H 291.684 1.619 -0.0010878 0
M  V30 3034 H 293.676 2.92412 2.79781 0
M  V30 3035 H 292.246 1.91282 2.47245 0
M  V30 3036 H 291.466 3.8379 0.899947 0
M  V30 3037 H 292.754 4.82597 1.61175 0
M  V30 3038 H 292.152 3.4526 4.48121 0
M  V30 3039 H 290.709 4.27562 4.9197 0
M  V30 3040 N 294.142 -0.090211 1.57342 0
M  V30 3041 C 295.072 -1.10976 2.05443 0
M  V30 3042 C 296.053 -1.41482 0.944284 0
M  V30 3043 O 297.238 -1.51428 1.21586 0
M  V30 3044 C 294.368 -2.42831 2.48295 0
M  V30 3045 C 293.322 -2.26721 3.63018 0
M  V30 3046 C 292.648 -3.63796 3.91863 0
M  V30 3047 C 293.948 -1.7037 4.93732 0
M  V30 3048 H 295.642 -0.709564 2.9087 0
M  V30 3049 H 293.188 -0.339874 1.39932 0
M  V30 3050 H 295.141 -3.14431 2.80555 0
M  V30 3051 H 293.865 -2.84795 1.59873 0
M  V30 3052 H 292.524 -1.57565 3.31012 0
M  V30 3053 H 292.172 -4.03297 3.00601 0
M  V30 3054 H 291.872 -3.53861 4.69101 0
M  V30 3055 H 293.396 -4.36855 4.26603 0
M  V30 3056 H 294.81 -2.31816 5.24342 0
M  V30 3057 H 293.207 -1.71181 5.75167 0
M  V30 3058 H 294.277 -0.663542 4.80339 0
M  V30 3059 N 295.62 -1.53406 -0.361157 0
M  V30 3060 C 296.866 -1.70054 -1.10496 0
M  V30 3061 C 297.199 -0.453278 -1.88836 0
M  V30 3062 O 296.474 0.5495 -1.86576 0
M  V30 3063 C 296.757 -2.95317 -2.06058 0
M  V30 3064 C 296.61 -4.3021 -1.31298 0
M  V30 3065 C 297.929 -3.16193 -3.06121 0
M  V30 3066 H 295.048 -0.618799 -0.400321 0
M  V30 3067 H 297.69 -1.86052 -0.385318 0
M  V30 3068 H 295.84 -2.81809 -2.67425 0
M  V30 3069 H 297.512 -4.55538 -0.726807 0
M  V30 3070 H 295.755 -4.29421 -0.614853 0
M  V30 3071 H 296.426 -5.14 -2.01265 0
M  V30 3072 H 298.902 -3.28916 -2.5486 0
M  V30 3073 H 297.778 -4.05266 -3.70204 0
M  V30 3074 H 298.039 -2.31676 -3.76535 0
M  V30 3075 N 297.098 0.621204 -1.44841 0
M  V30 3076 C 298.344 1.3826 -1.48365 0
M  V30 3077 C 298.677 1.93831 -0.119624 0
M  V30 3078 O 297.952 1.74251 0.864111 0
M  V30 3079 C 298.235 2.54058 -2.55199 0
M  V30 3080 C 298.088 2.03772 -4.00995 0
M  V30 3081 C 299.407 3.56225 -2.58442 0
M  V30 3082 H 296.526 0.501374 -0.540179 0
M  V30 3083 H 299.168 0.7015 -1.76576 0
M  V30 3084 H 297.318 3.12162 -2.31274 0
M  V30 3085 H 298.99 1.50423 -4.36086 0
M  V30 3086 H 297.233 1.34876 -4.12299 0
M  V30 3087 H 297.904 2.87185 -4.71411 0
M  V30 3088 H 300.38 3.07939 -2.79844 0
M  V30 3089 H 299.256 4.34756 -3.3508 0
M  V30 3090 H 299.517 4.10949 -1.63013 0
M  V30 3091 N 298.576 1.31904 0.862503 0
M  V30 3092 C 299.539 1.20131 1.95195 0
M  V30 3093 C 300.539 0.126409 1.60302 0
M  V30 3094 O 301.729 0.376234 1.70089 0
M  V30 3095 C 298.861 0.845691 3.30244 0
M  V30 3096 H 300.054 2.16943 2.07064 0
M  V30 3097 H 297.607 1.15622 1.05172 0
M  V30 3098 H 298.342 -0.120957 3.24074 0
M  V30 3099 H 298.127 1.62276 3.56944 0
M  V30 3100 H 299.617 0.787418 4.10109 0
M  V30 3101 N 300.054 -1.07777 1.14986 0
M  V30 3102 C 300.984 -2.16865 0.865557 0
M  V30 3103 C 301.965 -1.69123 -0.182083 0
M  V30 3104 O 303.15 -1.94164 -0.0373815 0
M  V30 3105 C 300.28 -3.45539 0.349313 0
M  V30 3106 C 299.234 -4.06708 1.33313 0
M  V30 3107 C 298.56 -5.30411 0.675918 0
M  V30 3108 C 299.86 -4.47241 2.69764 0
M  V30 3109 H 301.554 -2.40905 1.77778 0
M  V30 3110 H 299.1 -1.15781 0.856203 0
M  V30 3111 H 301.053 -4.21174 0.137983 0
M  V30 3112 H 299.777 -3.21072 -0.598362 0
M  V30 3113 H 298.436 -3.33112 1.53075 0
M  V30 3114 H 298.084 -5.02232 -0.277767 0
M  V30 3115 H 297.784 -5.72293 1.33244 0
M  V30 3116 H 299.308 -6.08755 0.474262 0
M  V30 3117 H 300.722 -5.14025 2.53873 0
M  V30 3118 H 299.119 -5.00062 3.3175 0
M  V30 3119 H 300.189 -3.58818 3.26156 0
M  V30 3120 N 301.532 -0.945985 -1.26051 0
M  V30 3121 C 302.943 -0.638096 -1.75457 0
M  V30 3122 C 303.294 0.846672 -1.76991 0
M  V30 3123 O 302.419 1.66262 -1.38513 0
M  V30 3124 C 303.014 -1.15157 -3.18629 0
M  V30 3125 C 301.573 -0.894004 -3.65629 0
M  V30 3126 C 300.72 -1.29967 -2.44957 0
M  V30 3127 H 303.671 -1.12376 -1.1206 0
M  V30 3128 H 303.692 -0.507615 -3.77099 0
M  V30 3129 H 303.204 -2.23222 -3.1748 0
M  V30 3130 H 301.305 0.172057 -3.72203 0
M  V30 3131 H 301.418 -1.52439 -4.54202 0
M  V30 3132 H 299.782 -0.718078 -2.44368 0
M  V30 3133 H 300.565 -2.38935 -2.46505 0
M  V30 3134 N 303.011 1.40521 -0.713556 0
M  V30 3135 C 304.288 1.94775 -0.17943 0
M  V30 3136 C 304.668 1.65184 1.31444 0
M  V30 3137 O 304.016 0.968429 2.06963 0
M  V30 3138 C 304.226 3.45543 -0.489986 0
M  V30 3139 C 305.574 4.22442 -0.427536 0
M  V30 3140 O 306.598 3.53644 -0.425929 0
M  V30 3141 O 305.457 5.4501 -0.403292 0
M  V30 3142 H 302.551 0.826606 -0.0255192 0
M  V30 3143 H 305.097 1.5014 -0.790949 0
M  V30 3144 H 303.869 3.60432 -1.5233 0
M  V30 3145 H 303.492 3.97311 0.151598 0
M  V30 3146 N 304.489 0.459591 1.5075 0
M  V30 3147 C 305.436 -0.340524 2.28274 0
M  V30 3148 C 306.406 -0.997371 1.32822 0
M  V30 3149 O 307.591 -1.01202 1.61749 0
M  V30 3150 C 304.731 -1.42317 3.14388 0
M  V30 3151 C 303.844 -0.782251 4.24859 0
M  V30 3152 C 302.979 -1.84182 4.98247 0
M  V30 3153 C 302.018 -1.18053 6.00608 0
M  V30 3154 N 301.155 -2.18244 6.67319 0
M  V30 3155 H 305.995 0.326899 2.96202 0
M  V30 3156 H 303.532 0.173057 1.46078 0
M  V30 3157 H 305.49 -2.06241 3.62658 0
M  V30 3158 H 304.12 -2.05992 2.4853 0
M  V30 3159 H 303.172 -0.0307404 3.80388 0
M  V30 3160 H 304.484 -0.259663 4.98124 0
M  V30 3161 H 303.638 -2.55714 5.50177 0
M  V30 3162 H 302.377 -2.39819 4.24662 0
M  V30 3163 H 301.382 -0.450776 5.47949 0
M  V30 3164 H 302.607 -0.631202 6.7616 0
M  V30 3165 H 300.553 -2.72919 5.96533 0
M  V30 3166 H 300.47 -1.70938 7.36421 0
M  V30 3167 H 301.738 -2.89191 7.23871 0
M  V30 3168 N 305.967 -1.56429 0.191757 0
M  V30 3169 C 307.192 -2.02309 -0.456706 0
M  V30 3170 C 307.617 -1.07103 -1.5463 0
M  V30 3171 O 306.975 -0.0539677 -1.8122 0
M  V30 3172 C 307.023 -3.46654 -0.993159 0
M  V30 3173 O 306.127 -3.54559 -2.10622 0
M  V30 3174 H 305.468 -0.655303 -0.107114 0
M  V30 3175 H 307.998 -2.02364 0.301653 0
M  V30 3176 H 308.008 -3.86377 -1.31061 0
M  V30 3177 H 306.683 -4.1544 -0.195504 0
M  V30 3178 H 305.26 -3.26708 -1.79767 0
M  V30 3179 N 307.445 0.0818655 -1.57387 0
M  V30 3180 C 308.673 0.796108 -1.9097 0
M  V30 3181 C 309.088 1.71626 -0.786757 0
M  V30 3182 O 308.445 1.80908 0.240513 0
M  V30 3183 C 308.496 1.59829 -3.24248 0
M  V30 3184 O 308.217 0.715131 -4.32224 0
M  V30 3185 C 309.718 2.41442 -3.7178 0
M  V30 3186 H 306.938 0.22691 -0.631469 0
M  V30 3187 H 309.482 0.0551439 -2.04426 0
M  V30 3188 H 307.637 2.29163 -3.12351 0
M  V30 3189 H 308.051 1.27205 -5.08841 0
M  V30 3190 H 309.525 2.932 -4.67694 0
M  V30 3191 H 310.002 3.2051 -3.00283 0
M  V30 3192 H 310.608 1.77283 -3.86589 0
M  V30 3193 N 308.923 1.53595 0.353017 0
M  V30 3194 C 310.171 1.70049 1.09215 0
M  V30 3195 C 310.492 0.461406 1.89463 0
M  V30 3196 O 309.762 -0.524633 1.88744 0
M  V30 3197 H 308.342 0.626912 0.40619 0
M  V30 3198 H 311.004 1.90822 0.396585 0
M  V30 3199 H 310.1 2.56718 1.77488 0
M  V30 3200 N 310.401 -0.613514 1.45168 0
M  V30 3201 C 311.331 -1.7354 1.56225 0
M  V30 3202 C 312.312 -1.64981 0.41414 0
M  V30 3203 O 313.497 -1.83472 0.636526 0
M  V30 3204 C 310.627 -3.12128 1.52295 0
M  V30 3205 C 309.581 -3.35491 2.65762 0
M  V30 3206 C 308.907 -4.74291 2.46885 0
M  V30 3207 C 310.207 -3.26325 4.0781 0
M  V30 3208 H 311.901 -1.64543 2.50132 0
M  V30 3209 H 309.447 -0.790185 1.20383 0
M  V30 3210 H 311.4 -3.90404 1.58628 0
M  V30 3211 H 310.124 -3.2195 0.549139 0
M  V30 3212 H 308.783 -2.59603 2.58847 0
M  V30 3213 H 308.431 -4.80839 1.47657 0
M  V30 3214 H 308.131 -4.9088 3.22972 0
M  V30 3215 H 309.655 -5.54775 2.55063 0
M  V30 3216 H 311.069 -3.94483 4.16 0
M  V30 3217 H 309.466 -3.54445 4.8424 0
M  V30 3218 H 310.536 -2.23855 4.30136 0
M  V30 3219 N 311.879 -1.3236 -0.855495 0
M  V30 3220 C 312.842 -1.21164 -1.94556 0
M  V30 3221 C 313.842 -0.134908 -1.60233 0
M  V30 3222 O 315.032 -0.385249 -1.69887 0
M  V30 3223 C 312.164 -0.863192 -3.29791 0
M  V30 3224 H 313.357 -2.18038 -2.05911 0
M  V30 3225 H 310.91 -1.16179 -1.04557 0
M  V30 3226 H 311.645 0.103769 -3.24134 0
M  V30 3227 H 311.43 -1.64166 -3.56078 0
M  V30 3228 H 312.92 -0.809156 -4.09686 0
M  V30 3229 N 313.357 1.07166 -1.15556 0
M  V30 3230 C 314.305 2.16517 -0.8499 0
M  V30 3231 C 315.299 1.68468 0.177454 0
M  V30 3232 O 316.505 1.79971 0.0323026 0
M  V30 3233 H 312.88 0.706652 -0.25719 0
M  V30 3234 H 314.851 2.39514 -1.77976 0
M  V30 3235 C 313.6 3.45855 -0.357682 0
M  V30 3236 H 312.923 3.83214 -1.13961 0
M  V30 3237 H 314.363 4.23607 -0.182489 0
M  V30 3238 C 312.822 3.24062 0.921152 0
M  V30 3239 O 313.352 3.48813 1.9923 0
M  V30 3240 N 311.558 2.77539 0.86141 0
M  V30 3241 H 311.105 2.57598 -0.0104408 0
M  V30 3242 H 311.063 2.63337 1.71758 0
M  V30 3243 N 314.835 0.952656 1.25548 0
M  V30 3244 C 316.246 0.647392 1.75116 0
M  V30 3245 C 316.597 -0.837274 1.77438 0
M  V30 3246 O 315.722 -1.65525 1.39393 0
M  V30 3247 C 316.317 1.16845 3.18014 0
M  V30 3248 C 314.876 0.913382 3.6515 0
M  V30 3249 C 314.023 1.31265 2.44264 0
M  V30 3250 H 316.974 1.12968 1.11462 0
M  V30 3251 H 316.995 0.527606 3.76824 0
M  V30 3252 H 316.507 2.24902 3.16292 0
M  V30 3253 H 314.608 -0.152316 3.72289 0
M  V30 3254 H 314.721 1.54845 4.53387 0
M  V30 3255 H 313.085 0.731028 2.43984 0
M  V30 3256 H 313.868 2.40239 2.45234 0
M  V30 3257 N 316.313 -1.40141 0.720998 0
M  V30 3258 C 317.561 -2.0039 0.262323 0
M  V30 3259 C 317.882 -1.57469 -1.15015 0
M  V30 3260 O 317.152 -0.816582 -1.78069 0
M  V30 3261 H 315.732 -0.741063 0.093996 0
M  V30 3262 H 318.394 -1.71398 0.927835 0
M  V30 3263 H 317.49 -3.10658 0.299671 0
M  V30 3264 N 317.792 -0.46758 -1.50504 0
M  V30 3265 C 318.724 0.364655 -2.26281 0
M  V30 3266 C 319.737 0.960151 -1.31472 0
M  V30 3267 O 320.926 0.849153 -1.57008 0
M  V30 3268 C 318.026 1.52509 -3.02645 0
M  V30 3269 C 317.199 1.04302 -4.24782 0
M  V30 3270 C 316.258 2.07709 -4.8347 0
M  V30 3271 O 315.284 1.65913 -5.44483 0
M  V30 3272 N 316.486 3.40485 -4.70159 0
M  V30 3273 H 319.251 -0.28495 -2.98342 0
M  V30 3274 H 316.812 -0.298163 -1.59131 0
M  V30 3275 H 318.804 2.21371 -3.38787 0
M  V30 3276 H 317.374 2.07945 -2.33404 0
M  V30 3277 H 316.594 0.180393 -3.93787 0
M  V30 3278 H 317.882 0.698798 -5.03978 0
M  V30 3279 H 317.28 3.77155 -4.21629 0
M  V30 3280 H 315.837 4.05156 -5.1058 0
M  V30 3281 N 319.27 1.56325 -0.20005 0
M  V30 3282 C 320.517 1.97719 0.437411 0
M  V30 3283 C 320.845 1.08709 1.61284 0
M  V30 3284 O 320.1 0.127261 1.95286 0
M  V30 3285 C 320.399 3.4495 0.935103 0
M  V30 3286 C 320.065 4.5072 -0.12749 0
M  V30 3287 C 318.727 4.79368 -0.419451 0
M  V30 3288 C 321.079 5.14268 -0.847231 0
M  V30 3289 C 318.407 5.68854 -1.43604 0
M  V30 3290 C 320.759 6.04852 -1.85301 0
M  V30 3291 C 319.423 6.31855 -2.15211 0
M  V30 3292 H 318.693 0.723507 0.16006 0
M  V30 3293 H 321.34 1.89166 -0.298056 0
M  V30 3294 H 319.645 3.50599 1.74894 0
M  V30 3295 H 321.342 3.74337 1.43781 0
M  V30 3296 H 317.932 4.28458 0.11023 0
M  V30 3297 H 322.116 4.92222 -0.634901 0
M  V30 3298 H 317.372 5.88047 -1.67364 0
M  V30 3299 H 321.546 6.53152 -2.41591 0
M  V30 3300 H 319.173 7.00994 -2.94129 0
M  V30 3301 N 320.748 -0.0735177 1.57428 0
M  V30 3302 C 321.711 -1.07192 2.02589 0
M  V30 3303 C 322.711 -1.31695 0.922661 0
M  V30 3304 O 323.901 -1.27445 1.18758 0
M  V30 3305 C 321.033 -2.41599 2.40506 0
M  V30 3306 H 322.226 -0.682727 2.92025 0
M  V30 3307 H 319.779 -0.319193 1.53006 0
M  V30 3308 H 320.514 -2.85354 1.5409 0
M  V30 3309 H 320.299 -2.25156 3.21009 0
M  V30 3310 H 321.789 -3.13367 2.76027 0
M  V30 3311 N 322.226 -1.5378 -0.344866 0
M  V30 3312 C 323.474 -1.70625 -1.08311 0
M  V30 3313 C 323.795 -0.471447 -1.89215 0
M  V30 3314 O 323.065 0.514616 -1.8902 0
M  V30 3315 H 321.645 -0.629058 -0.402859 0
M  V30 3316 H 324.307 -1.9103 -0.386459 0
M  V30 3317 H 323.403 -2.57656 -1.76124 0
M  V30 3318 N 323.704 0.605807 -1.45491 0
M  V30 3319 C 324.934 1.38934 -1.52908 0
M  V30 3320 C 325.342 1.88513 -0.161086 0
M  V30 3321 O 324.685 1.62962 0.847891 0
M  V30 3322 C 324.747 2.62737 -2.45376 0
M  V30 3323 C 324.411 2.34785 -3.92078 0
M  V30 3324 C 325.408 1.95038 -4.8193 0
M  V30 3325 C 323.093 2.47642 -4.37011 0
M  V30 3326 C 325.087 1.68511 -6.14722 0
M  V30 3327 C 322.774 2.20728 -5.69844 0
M  V30 3328 C 323.772 1.81225 -6.58519 0
M  V30 3329 O 323.46 1.54627 -7.88889 0
M  V30 3330 H 323.192 0.431629 -0.520262 0
M  V30 3331 H 325.746 0.74573 -1.91384 0
M  V30 3332 H 323.976 3.29824 -2.01874 0
M  V30 3333 H 325.665 3.24783 -2.43456 0
M  V30 3334 H 326.431 1.84639 -4.48479 0
M  V30 3335 H 322.31 2.77356 -3.68232 0
M  V30 3336 H 325.854 1.37602 -6.83894 0
M  V30 3337 H 321.751 2.30744 -6.02849 0
M  V30 3338 H 322.519 1.68665 -8.00933 0
M  V30 3339 N 325.182 1.32811 0.848464 0
M  V30 3340 C 326.41 1.26739 1.63538 0
M  V30 3341 C 326.825 -0.163484 1.88091 0
M  V30 3342 O 326.182 -1.10258 1.45429 0
M  V30 3343 C 326.233 2.03013 2.99112 0
M  V30 3344 O 325.954 3.40518 2.75643 0
M  V30 3345 C 327.455 2.04038 3.93552 0
M  V30 3346 H 324.675 0.437024 0.509167 0
M  V30 3347 H 327.219 1.75033 1.05753 0
M  V30 3348 H 325.374 1.58426 3.53525 0
M  V30 3349 H 325.788 3.79635 3.61908 0
M  V30 3350 H 327.262 2.61877 4.85926 0
M  V30 3351 H 327.739 1.0282 4.26995 0
M  V30 3352 H 328.345 2.486 3.45077 0
M  V30 3353 N 326.66 -1.06551 1.16123 0
M  V30 3354 C 327.908 -1.78947 0.939267 0
M  V30 3355 C 328.229 -1.87532 -0.534476 0
M  V30 3356 O 327.499 -1.38211 -1.38833 0
M  V30 3357 H 326.079 -0.662807 0.344523 0
M  V30 3358 H 328.741 -1.28725 1.46342 0
M  V30 3359 H 327.837 -2.81117 1.35572 0
M  V30 3360 N 328.138 -0.959301 -1.25041 0
M  V30 3361 C 329.101 -0.487677 -2.23952 0
M  V30 3362 C 330.101 0.41119 -1.55454 0
M  V30 3363 O 331.291 0.207825 -1.72956 0
M  V30 3364 C 328.423 0.294807 -3.39623 0
M  V30 3365 H 329.616 -1.36198 -2.67189 0
M  V30 3366 H 327.169 -0.743042 -1.37508 0
M  V30 3367 H 327.904 1.18658 -3.01813 0
M  V30 3368 H 327.689 -0.35012 -3.90534 0
M  V30 3369 H 329.179 0.614089 -4.1306 0
M  V30 3370 N 329.616 1.39756 -0.72842 0
M  V30 3371 C 330.579 2.29012 -0.0927297 0
M  V30 3372 C 331.579 1.45992 0.674025 0
M  V30 3373 O 332.769 1.66749 0.50402 0
M  V30 3374 C 329.901 3.29396 0.878137 0
M  V30 3375 H 331.094 2.86729 -0.879011 0
M  V30 3376 H 328.647 1.48293 -0.493847 0
M  V30 3377 H 329.382 2.76722 1.69101 0
M  V30 3378 H 329.167 3.907 0.331051 0
M  V30 3379 H 330.657 3.96199 1.3197 0
M  V30 3380 N 331.094 0.475555 1.50254 0
M  V30 3381 C 332.004 -0.321501 2.32387 0
M  V30 3382 C 333.02 -0.991755 1.42969 0
M  V30 3383 O 334.196 -0.978747 1.76018 0
M  V30 3384 C 331.261 -1.38667 3.17762 0
M  V30 3385 C 330.322 -0.732538 4.23004 0
M  V30 3386 C 329.555 -1.74695 5.04299 0
M  V30 3387 O 329.778 -2.97399 4.86734 0
M  V30 3388 O 328.712 -1.31631 5.8733 0
M  V30 3389 H 332.538 0.350071 3.01676 0
M  V30 3390 H 330.123 0.237321 1.47503 0
M  V30 3391 H 332.005 -2.00354 3.70724 0
M  V30 3392 H 330.68 -2.04163 2.51196 0
M  V30 3393 H 329.587 -0.0765902 3.74022 0
M  V30 3394 H 330.92 -0.120452 4.92053 0
M  V30 3395 N 332.573 -1.56217 0.208337 0
M  V30 3396 C 333.798 -2.02782 -0.435222 0
M  V30 3397 C 334.223 -1.08738 -1.53485 0
M  V30 3398 O 333.581 -0.0731855 -1.81152 0
M  V30 3399 C 333.629 -3.47687 -0.956335 0
M  V30 3400 O 332.733 -3.56773 -2.06849 0
M  V30 3401 H 332.074 -0.656403 -0.100158 0
M  V30 3402 H 334.604 -2.02033 0.3231 0
M  V30 3403 H 334.614 -3.87745 -1.26955 0
M  V30 3404 H 333.289 -4.15624 -0.15143 0
M  V30 3405 H 331.866 -3.28597 -1.76292 0
M  V30 3406 N 334.051 0.0651679 -1.57465 0
M  V30 3407 C 335.462 0.616213 -1.76238 0
M  V30 3408 C 335.813 1.7756 -0.834689 0
M  V30 3409 O 334.938 2.1639 -0.0204156 0
M  V30 3410 C 335.533 1.12462 -3.1959 0
M  V30 3411 C 334.092 1.62147 -3.39684 0
M  V30 3412 C 333.239 0.543739 -2.71917 0
M  V30 3413 H 336.19 -0.161022 -1.57881 0
M  V30 3414 H 336.211 1.99324 -3.24114 0
M  V30 3415 H 335.723 0.280592 -3.87084 0
M  V30 3416 H 333.824 2.48854 -2.77313 0
M  V30 3417 H 333.937 1.69385 -4.48158 0
M  V30 3418 H 332.301 0.990352 -2.34657 0
M  V30 3419 H 333.084 -0.290216 -3.42071 0
M  V30 3420 N 335.529 1.53961 0.336706 0
M  V30 3421 C 336.757 1.75483 1.09605 0
M  V30 3422 C 337.172 0.4972 1.82136 0
M  V30 3423 O 336.529 -0.53149 1.74589 0
M  V30 3424 C 336.58 2.93943 2.10428 0
M  V30 3425 O 336.301 4.14842 1.40846 0
M  V30 3426 C 337.802 3.27571 2.98684 0
M  V30 3427 H 335.022 0.586166 0.326574 0
M  V30 3428 H 337.566 2.00808 0.38683 0
M  V30 3429 H 335.721 2.70929 2.76905 0
M  V30 3430 H 336.135 4.81383 2.08255 0
M  V30 3431 H 337.609 4.13791 3.6535 0
M  V30 3432 H 338.086 2.44168 3.65074 0
M  V30 3433 H 338.692 3.52615 2.37787 0
M  V30 3434 N 337.007 -0.598083 1.45811 0
M  V30 3435 C 338.232 -1.3881 1.54099 0
M  V30 3436 C 338.657 -1.8726 0.177578 0
M  V30 3437 O 338.015 -1.6069 -0.839541 0
M  V30 3438 C 338.063 -2.56217 2.53743 0
M  V30 3439 O 337.167 -3.5716 2.06182 0
M  V30 3440 H 336.508 -0.414024 0.519115 0
M  V30 3441 H 339.038 -0.726971 1.91249 0
M  V30 3442 H 339.048 -3.03337 2.72856 0
M  V30 3443 H 337.723 -2.20303 3.5276 0
M  V30 3444 H 336.3 -3.16624 1.96987 0
M  V30 3445 N 338.485 -1.33259 -0.841409 0
M  V30 3446 C 339.731 -1.24757 -1.59886 0
M  V30 3447 C 340.064 0.186913 -1.93298 0
M  V30 3448 O 339.339 1.12757 -1.5848 0
M  V30 3449 C 339.622 -2.12036 -2.91055 0
M  V30 3450 C 339.475 -3.63929 -2.6434 0
M  V30 3451 C 340.794 -1.9916 -3.92458 0
M  V30 3452 H 337.913 -0.454542 -0.580138 0
M  V30 3453 H 340.555 -1.63335 -0.970647 0
M  V30 3454 H 338.705 -1.79265 -3.44669 0
M  V30 3455 H 340.377 -4.06978 -2.17178 0
M  V30 3456 H 338.62 -3.85935 -1.98082 0
M  V30 3457 H 339.291 -4.20341 -3.57796 0
M  V30 3458 H 341.767 -2.27895 -3.48143 0
M  V30 3459 H 340.643 -2.62484 -4.82072 0
M  V30 3460 H 340.904 -0.963082 -4.31482 0
M  V30 3461 N 339.963 1.05934 -1.16686 0
M  V30 3462 C 340.893 2.1546 -0.899949 0
M  V30 3463 C 341.874 1.69391 0.155154 0
M  V30 3464 O 343.059 1.94199 0.00648693 0
M  V30 3465 C 340.189 3.44939 -0.404241 0
M  V30 3466 C 339.143 4.04536 -1.39767 0
M  V30 3467 C 338.469 5.29268 -0.760216 0
M  V30 3468 C 339.769 4.42893 -2.76845 0
M  V30 3469 H 341.463 2.38046 -1.81588 0
M  V30 3470 H 339.009 1.14404 -0.874514 0
M  V30 3471 H 340.962 4.20901 -0.204971 0
M  V30 3472 H 339.686 3.21983 0.547206 0
M  V30 3473 H 338.345 3.30635 -1.58355 0
M  V30 3474 H 337.993 5.02611 0.197831 0
M  V30 3475 H 337.693 5.70101 -1.42332 0
M  V30 3476 H 339.217 6.07924 -0.57105 0
M  V30 3477 H 340.631 5.09921 -2.62019 0
M  V30 3478 H 339.028 4.94721 -3.39663 0
M  V30 3479 H 340.098 3.53584 -3.31823 0
M  V30 3480 N 341.441 0.965919 1.2453 0
M  V30 3481 C 342.371 0.513476 2.27784 0
M  V30 3482 C 343.352 -0.445974 1.6415 0
M  V30 3483 O 344.537 -0.342485 1.91156 0
M  V30 3484 C 341.667 -0.198839 3.4673 0
M  V30 3485 C 340.621 0.676456 4.2262 0
M  V30 3486 C 339.947 -0.167248 5.34438 0
M  V30 3487 C 341.247 1.96017 4.84123 0
M  V30 3488 H 342.941 1.3765 2.65881 0
M  V30 3489 H 340.487 0.663321 1.27813 0
M  V30 3490 H 342.44 -0.526567 4.18097 0
M  V30 3491 H 341.164 -1.0962 3.07654 0
M  V30 3492 H 339.823 0.98743 3.53052 0
M  V30 3493 H 339.471 -1.0647 4.91603 0
M  V30 3494 H 339.171 0.415181 5.86131 0
M  V30 3495 H 340.695 -0.489688 6.08633 0
M  V30 3496 H 342.109 1.69814 5.47573 0
M  V30 3497 H 340.506 2.48918 5.4604 0
M  V30 3498 H 341.576 2.65622 4.05676 0
M  V30 3499 N 342.919 -1.39368 0.735821 0
M  V30 3500 C 344.168 -1.99733 0.281004 0
M  V30 3501 C 344.481 -1.59055 -1.13846 0
M  V30 3502 O 345.687 -2.12262 -1.69284 0
M  V30 3503 C 344.143 -3.57057 0.451462 0
M  V30 3504 C 343.751 -4.06697 1.87886 0
M  V30 3505 C 345.495 -4.2446 0.0584616 0
M  V30 3506 C 343.402 -5.56598 1.99883 0
M  V30 3507 H 342.332 -0.747163 0.101311 0
M  V30 3508 H 344.983 -1.59357 0.909819 0
M  V30 3509 H 343.365 -3.95234 -0.246263 0
M  V30 3510 H 344.539 -3.79853 2.60861 0
M  V30 3511 H 342.854 -3.5196 2.22515 0
M  V30 3512 H 345.451 -5.34549 0.127099 0
M  V30 3513 H 345.794 -4.04444 -0.986433 0
M  V30 3514 H 346.327 -3.9146 0.707374 0
M  V30 3515 H 343.066 -5.81494 3.02564 0
M  V30 3516 H 342.586 -5.85242 1.31346 0
M  V30 3517 H 344.265 -6.22022 1.78039 0
M  V30 3518 N 344.397 -0.483516 -1.5 0
M  V30 3519 C 345.345 0.318061 -2.30415 0
M  V30 3520 C 346.339 0.978988 -1.38247 0
M  V30 3521 O 347.545 0.908673 -1.55381 0
M  V30 3522 H 343.92 0.121419 -0.742133 0
M  V30 3523 H 345.891 -0.380403 -2.95965 0
M  V30 3524 C 344.64 1.38013 -3.19136 0
M  V30 3525 H 343.963 0.880952 -3.89973 0
M  V30 3526 H 345.403 1.91332 -3.78375 0
M  V30 3527 C 343.862 2.38884 -2.37563 0
M  V30 3528 O 344.392 3.44412 -2.06744 0
M  V30 3529 N 342.598 2.10912 -1.99911 0
M  V30 3530 H 342.145 1.25118 -2.25174 0
M  V30 3531 H 342.103 2.78635 -1.45636 0
M  V30 3532 N 345.875 1.56104 -0.216619 0
M  V30 3533 C 346.825 2.16703 0.708798 0
M  V30 3534 C 347.809 1.11392 1.16106 0
M  V30 3535 O 349.001 1.37395 1.11587 0
M  V30 3536 C 346.13 2.84666 1.91886 0
M  V30 3537 C 345.216 3.97195 1.48651 0
M  V30 3538 N 345.607 4.99959 0.766434 0
M  V30 3539 C 343.905 4.09193 1.77418 0
M  V30 3540 C 344.606 5.79126 0.546659 0
M  V30 3541 N 343.582 5.32315 1.10188 0
M  V30 3542 H 347.384 2.93516 0.150162 0
M  V30 3543 H 344.898 1.6239 -0.0176768 0
M  V30 3544 H 346.895 3.26486 2.59253 0
M  V30 3545 H 345.555 2.09347 2.48202 0
M  V30 3546 H 346.566 5.16197 0.419634 0
M  V30 3547 H 343.243 3.45021 2.35088 0
M  V30 3548 H 344.633 6.71895 -0.026103 0
M  V30 3549 N 347.353 -0.0568162 1.57498 0
M  V30 3550 C 348.601 -0.751617 1.87604 0
M  V30 3551 C 348.922 -1.77351 0.81066 0
M  V30 3552 O 348.192 -1.95254 -0.159018 0
M  V30 3553 H 346.772 -0.280583 0.692302 0
M  V30 3554 H 349.434 -0.0293483 1.94878 0
M  V30 3555 H 348.53 -1.25852 2.856 0
M  V30 3556 N 348.832 -1.54138 -0.328536 0
M  V30 3557 C 349.762 -1.86167 -1.40939 0
M  V30 3558 C 350.743 -0.718044 -1.54202 0
M  V30 3559 O 351.928 -0.971328 -1.68163 0
M  V30 3560 C 349.058 -2.08461 -2.77779 0
M  V30 3561 C 348.012 -3.24299 -2.7931 0
M  V30 3562 C 347.338 -3.31955 -4.19178 0
M  V30 3563 C 348.638 -4.62065 -2.43502 0
M  V30 3564 H 350.332 -2.76689 -1.14383 0
M  V30 3565 H 347.878 -1.33132 -0.548806 0
M  V30 3566 H 349.831 -2.29453 -3.53454 0
M  V30 3567 H 348.555 -1.14684 -3.05802 0
M  V30 3568 H 347.214 -3.03187 -2.0609 0
M  V30 3569 H 346.862 -2.35745 -4.44335 0
M  V30 3570 H 346.562 -4.09805 -4.2111 0
M  V30 3571 H 348.086 -3.55175 -4.96672 0
M  V30 3572 H 349.5 -4.8297 -3.08889 0
M  V30 3573 H 347.897 -5.42429 -2.56693 0
M  V30 3574 H 348.967 -4.64652 -1.38659 0
M  V30 3575 N 350.31 0.590341 -1.46126 0
M  V30 3576 C 351.26 1.69466 -1.5253 0
M  V30 3577 C 352.244 1.56179 -0.386917 0
M  V30 3578 O 353.436 1.65223 -0.634858 0
M  V30 3579 C 350.565 3.08245 -1.5113 0
M  V30 3580 C 349.651 3.26856 -2.70233 0
M  V30 3581 N 350.042 3.15657 -3.95214 0
M  V30 3582 C 348.34 3.57775 -2.66296 0
M  V30 3583 C 349.041 3.36066 -4.74799 0
M  V30 3584 N 348.017 3.60865 -4.06543 0
M  V30 3585 H 351.819 1.59326 -2.46966 0
M  V30 3586 H 349.333 0.79414 -1.41659 0
M  V30 3587 H 351.33 3.87492 -1.53804 0
M  V30 3588 H 349.99 3.19521 -0.577636 0
M  V30 3589 H 351.001 2.93686 -4.26578 0
M  V30 3590 H 347.678 3.75782 -1.81918 0
M  V30 3591 H 349.068 3.32655 -5.83772 0
M  V30 3592 N 351.788 1.33704 0.83433 0
M  V30 3593 C 353.037 1.24763 1.58484 0
M  V30 3594 C 353.35 -0.183775 1.94735 0
M  V30 3595 O 354.556 -0.395234 2.68608 0
M  V30 3596 C 353.012 2.18638 2.85876 0
M  V30 3597 C 352.62 3.66974 2.56971 0
M  V30 3598 C 354.364 2.18581 3.63899 0
M  V30 3599 C 352.271 4.5275 3.80488 0
M  V30 3600 H 351.201 0.463425 0.594772 0
M  V30 3601 H 353.852 1.58797 0.919551 0
M  V30 3602 H 352.234 1.77542 3.5397 0
M  V30 3603 H 353.408 4.16538 1.9706 0
M  V30 3604 H 351.723 3.69366 1.92244 0
M  V30 3605 H 354.32 2.79894 4.55591 0
M  V30 3606 H 354.663 1.18207 3.99165 0
M  V30 3607 H 355.196 2.58062 3.02735 0
M  V30 3608 H 351.935 5.54017 3.5035 0
M  V30 3609 H 351.455 4.07927 4.39722 0
M  V30 3610 H 353.134 4.66784 4.4802 0
M  V30 3611 N 353.266 -1.05314 1.17247 0
M  V30 3612 C 354.176 -2.16538 0.90268 0
M  V30 3613 C 355.192 -1.73523 -0.128707 0
M  V30 3614 O 356.368 -2.01337 0.0502701 0
M  V30 3615 C 353.433 -3.44167 0.418356 0
M  V30 3616 C 352.494 -4.01635 1.51618 0
M  V30 3617 C 351.727 -5.23171 1.05487 0
M  V30 3618 O 351.95 -5.70327 -0.0914715 0
M  V30 3619 O 350.884 -5.72848 1.8474 0
M  V30 3620 H 354.71 -2.42145 1.83302 0
M  V30 3621 H 352.295 -1.15037 0.953246 0
M  V30 3622 H 354.177 -4.21112 0.155726 0
M  V30 3623 H 352.852 -3.20063 -0.48385 0
M  V30 3624 H 351.759 -3.26135 1.83268 0
M  V30 3625 H 353.092 -4.30053 2.39405 0
M  V30 3626 N 354.744 -0.972509 -1.24016 0
M  V30 3627 C 355.993 -0.632603 -1.91523 0
M  V30 3628 C 356.306 0.836641 -1.76804 0
M  V30 3629 O 357.512 1.28728 -2.39043 0
M  V30 3630 C 355.968 -1.08082 -3.43287 0
M  V30 3631 C 355.576 -2.57386 -3.66683 0
M  V30 3632 C 357.32 -0.814288 -4.16617 0
M  V30 3633 C 355.227 -2.95915 -5.12043 0
M  V30 3634 H 354.157 -0.232898 -0.717129 0
M  V30 3635 H 356.808 -1.17936 -1.40582 0
M  V30 3636 H 355.19 -0.462339 -3.93292 0
M  V30 3637 H 356.364 -3.24405 -3.27258 0
M  V30 3638 H 354.679 -2.81701 -3.06649 0
M  V30 3639 H 357.276 -1.0781 -5.23718 0
M  V30 3640 H 357.619 0.24955 -4.15551 0
M  V30 3641 H 358.152 -1.39397 -3.72577 0
M  V30 3642 H 354.891 -4.0139 -5.18234 0
M  V30 3643 H 354.411 -2.33584 -5.52448 0
M  V30 3644 H 356.09 -2.86086 -5.80314 0
M  V30 3645 N 356.222 1.38976 -0.743202 0
M  V30 3646 C 357.152 2.33171 -0.123873 0
M  V30 3647 C 358.133 1.54336 0.71516 0
M  V30 3648 O 359.318 1.82696 0.658467 0
M  V30 3649 C 356.448 3.38474 0.777978 0
M  V30 3650 C 355.402 4.27979 0.0424758 0
M  V30 3651 C 354.728 5.2405 1.06189 0
M  V30 3652 C 356.028 5.10155 -1.1198 0
M  V30 3653 H 357.722 2.85213 -0.910709 0
M  V30 3654 H 355.268 1.37133 -0.439388 0
M  V30 3655 H 357.221 4.03328 1.22084 0
M  V30 3656 H 355.945 2.84891 1.59702 0
M  V30 3657 H 354.604 3.64616 -0.380853 0
M  V30 3658 H 354.252 4.66758 1.87472 0
M  V30 3659 H 353.952 5.84785 0.574485 0
M  V30 3660 H 355.476 5.9178 1.50428 0
M  V30 3661 H 356.89 5.68307 -0.75499 0
M  V30 3662 H 355.287 5.80073 -1.53738 0
M  V30 3663 H 356.357 4.44504 -1.93764 0
M  V30 3664 N 357.7 0.491464 1.49741 0
M  V30 3665 C 358.949 -0.0582189 2.01616 0
M  V30 3666 C 359.262 -1.38927 1.3769 0
M  V30 3667 O 360.468 -2.02509 1.80838 0
M  V30 3668 C 358.924 -0.154235 3.59569 0
M  V30 3669 C 358.532 1.1696 4.32463 0
M  V30 3670 C 360.276 -0.65479 4.1942 0
M  V30 3671 C 358.183 1.03627 5.8225 0
M  V30 3672 H 357.113 -0.0255317 0.753568 0
M  V30 3673 H 359.764 0.629445 1.72367 0
M  V30 3674 H 358.146 -0.906138 3.85493 0
M  V30 3675 H 359.32 1.93405 4.18248 0
M  V30 3676 H 357.635 1.60285 3.84315 0
M  V30 3677 H 360.232 -0.771903 5.29099 0
M  V30 3678 H 360.575 -1.65127 3.8215 0
M  V30 3679 H 361.108 0.040304 3.9778 0
M  V30 3680 H 357.847 2.00672 6.24028 0
M  V30 3681 H 357.367 0.312546 5.98985 0
M  V30 3682 H 359.046 0.711114 6.4308 0
M  V30 3683 N 359.178 -1.55987 0.224894 0
M  V30 3684 C 360.455 -1.90232 -0.455083 0
M  V30 3685 C 360.835 -1.14269 -1.77499 0
M  V30 3686 O 360.183 -0.253079 -2.27094 0
M  V30 3687 C 360.393 -3.42993 -0.644758 0
M  V30 3688 C 361.741 -4.13821 -0.950669 0
M  V30 3689 O 362.765 -3.4861 -0.731423 0
M  V30 3690 O 361.624 -5.29128 -1.36695 0
M  V30 3691 H 358.718 -0.79108 -0.241084 0
M  V30 3692 H 361.264 -1.67581 0.267327 0
M  V30 3693 H 360.036 -3.90252 0.28613 0
M  V30 3694 H 359.659 -3.71434 -1.41853 0
M  V30 3695 N 360.656 0.0484629 -1.57525 0
M  V30 3696 C 362.067 0.597486 -1.76881 0
M  V30 3697 C 362.418 1.76664 -0.853475 0
M  V30 3698 O 361.543 2.16357 -0.0433656 0
M  V30 3699 C 362.138 1.09066 -3.20765 0
M  V30 3700 C 360.697 1.58535 -3.41385 0
M  V30 3701 C 359.844 0.514868 -2.72478 0
M  V30 3702 H 362.795 -0.177758 -1.57701 0
M  V30 3703 H 362.816 1.95875 -3.2621 0
M  V30 3704 H 362.328 0.239521 -3.8736 0
M  V30 3705 H 360.429 2.45898 -2.79937 0
M  V30 3706 H 360.542 1.64622 -4.49929 0
M  V30 3707 H 358.906 0.965407 -2.35695 0
M  V30 3708 H 359.689 -0.32648 -3.41744 0
M  V30 3709 N 362.134 1.5431 0.320358 0
M  V30 3710 C 363.044 1.86946 1.41734 0
M  V30 3711 C 364.06 0.761689 1.56443 0
M  V30 3712 O 365.236 1.05629 1.71477 0
M  V30 3713 C 362.301 2.09293 2.76401 0
M  V30 3714 C 361.362 3.33082 2.70841 0
M  V30 3715 C 360.595 3.54353 3.99086 0
M  V30 3716 O 360.818 2.79002 4.97508 0
M  V30 3717 O 359.752 4.47838 4.0215 0
M  V30 3718 H 363.578 2.80232 1.17062 0
M  V30 3719 H 361.163 1.40255 0.514673 0
M  V30 3720 H 363.045 2.25303 3.56113 0
M  V30 3721 H 361.72 1.19194 3.00956 0
M  V30 3722 H 360.627 3.22454 1.89668 0
M  V30 3723 H 361.96 4.23249 2.5124 0
M  V30 3724 N 363.613 -0.582584 1.46437 0
M  V30 3725 C 364.838 -1.37168 1.55563 0
M  V30 3726 C 365.263 -1.87061 0.19743 0
M  V30 3727 O 364.621 -1.61572 -0.822451 0
M  V30 3728 C 364.669 -2.53511 2.56446 0
M  V30 3729 O 363.773 -3.54953 2.09958 0
M  V30 3730 H 363.114 -0.408494 0.523477 0
M  V30 3731 H 365.644 -0.706646 1.9201 0
M  V30 3732 H 365.654 -3.00426 2.76058 0
M  V30 3733 H 364.329 -2.16549 3.55076 0
M  V30 3734 H 362.906 -3.14516 2.00334 0
M  V30 3735 N 365.091 -1.34144 -0.827227 0
M  V30 3736 C 366.023 -1.21206 -1.9453 0
M  V30 3737 C 367.036 -0.140176 -1.62195 0
M  V30 3738 O 368.225 -0.391647 -1.7415 0
M  V30 3739 C 365.325 -0.839141 -3.28347 0
M  V30 3740 C 364.498 -2.0051 -3.88734 0
M  V30 3741 C 363.557 -1.61128 -5.00923 0
M  V30 3742 O 362.583 -2.32726 -5.19449 0
M  V30 3743 N 363.785 -0.522958 -5.7814 0
M  V30 3744 H 366.55 -2.17525 -2.06162 0
M  V30 3745 H 364.111 -1.27043 -1.00358 0
M  V30 3746 H 366.103 -0.557556 -4.00841 0
M  V30 3747 H 364.673 0.0337293 -3.12582 0
M  V30 3748 H 363.893 -2.45166 -3.08686 0
M  V30 3749 H 365.181 -2.78498 -4.25812 0
M  V30 3750 H 364.579 0.0723518 -5.65654 0
M  V30 3751 H 363.136 -0.301089 -6.51104 0
M  V30 3752 N 366.569 1.04691 -1.17803 0
M  V30 3753 C 367.815 1.78045 -0.970969 0
M  V30 3754 C 368.148 1.87686 0.498751 0
M  V30 3755 O 367.423 1.38035 1.37027 0
M  V30 3756 C 367.706 3.2166 -1.61884 0
M  V30 3757 C 367.559 3.20001 -3.161 0
M  V30 3758 C 368.878 4.1962 -1.3269 0
M  V30 3759 H 365.997 0.64633 -0.354155 0
M  V30 3760 H 368.639 1.22333 -1.45378 0
M  V30 3761 H 366.789 3.69232 -1.20831 0
M  V30 3762 H 368.461 2.80467 -3.66246 0
M  V30 3763 H 366.704 2.58203 -3.48588 0
M  V30 3764 H 367.375 4.21386 -3.56564 0
M  V30 3765 H 369.851 3.80567 -1.68249 0
M  V30 3766 H 368.727 5.18339 -1.80599 0
M  V30 3767 H 368.988 4.414 -0.248622 0
M  V30 3768 N 368.047 0.979072 1.23499 0
M  V30 3769 C 369.295 0.645941 1.91499 0
M  V30 3770 C 369.616 -0.822948 1.76784 0
M  V30 3771 O 368.886 -1.58854 1.14639 0
M  V30 3772 H 367.466 0.235919 0.708767 0
M  V30 3773 H 370.128 1.2426 1.50152 0
M  V30 3774 H 369.224 0.896411 2.9895 0
M  V30 3775 N 369.525 -1.3858 0.750561 0
M  V30 3776 C 370.753 -2.04471 0.316098 0
M  V30 3777 C 371.168 -1.56606 -1.05452 0
M  V30 3778 O 370.525 -0.737784 -1.66922 0
M  V30 3779 C 370.576 -3.60025 0.326275 0
M  V30 3780 O 370.297 -4.06133 1.6428 0
M  V30 3781 C 371.798 -4.43131 -0.122429 0
M  V30 3782 H 369.018 -0.65717 0.135528 0
M  V30 3783 H 371.562 -1.77329 1.01857 0
M  V30 3784 H 369.717 -3.86014 -0.327431 0
M  V30 3785 H 370.131 -5.00547 1.56693 0
M  V30 3786 H 371.605 -5.51963 -0.0641473 0
M  V30 3787 H 372.082 -4.23333 -1.16988 0
M  V30 3788 H 372.688 -4.22323 0.50229 0
M  V30 3789 N 371.003 -0.499398 -1.49478 0
M  V30 3790 C 372.231 0.0425456 -2.06856 0
M  V30 3791 C 372.646 1.30964 -1.35992 0
M  V30 3792 O 372.003 1.77172 -0.437762 0
M  V30 3793 C 372.054 0.301735 -3.60239 0
M  V30 3794 O 371.775 -0.915127 -4.28436 0
M  V30 3795 C 373.276 0.887499 -4.34325 0
M  V30 3796 H 370.496 -0.0197482 -0.670709 0
M  V30 3797 H 373.04 -0.696297 -1.92281 0
M  V30 3798 H 371.195 0.990556 -3.74522 0
M  V30 3799 H 371.609 -0.676993 -5.20113 0
M  V30 3800 H 373.083 1.01845 -5.42523 0
M  V30 3801 H 373.56 1.88488 -3.96698 0
M  V30 3802 H 374.166 0.236196 -4.24644 0
M  V30 3803 N 372.481 1.55866 -0.233164 0
M  V30 3804 C 373.758 1.90471 0.444988 0
M  V30 3805 C 374.138 1.15209 1.7689 0
M  V30 3806 O 373.486 0.265119 2.26957 0
M  V30 3807 C 373.696 3.4333 0.626559 0
M  V30 3808 C 375.044 4.14319 0.92871 0
M  V30 3809 O 376.068 3.48993 0.712926 0
M  V30 3810 O 374.927 5.29846 1.33887 0
M  V30 3811 H 372.021 0.792347 0.236885 0
M  V30 3812 H 374.567 1.67437 -0.276211 0
M  V30 3813 H 373.339 3.90095 -0.306822 0
M  V30 3814 H 372.962 3.72181 1.39881 0
M  V30 3815 N 373.959 -0.0401083 1.57549 0
M  V30 3816 C 375.375 -0.395556 1.54621 0
M  V30 3817 C 375.575 -1.77281 0.957799 0
M  V30 3818 O 374.631 -2.45888 0.574031 0
M  V30 3819 C 375.944 -0.307535 2.99123 0
M  V30 3820 C 377.492 -0.385425 3.10618 0
M  V30 3821 C 377.967 -0.326973 4.56831 0
M  V30 3822 N 379.458 -0.386102 4.61588 0
M  V30 3823 C 380.193 -0.363591 5.72246 0
M  V30 3824 N 379.689 -0.29402 6.92176 0
M  V30 3825 N 381.482 -0.412503 5.60584 0
M  V30 3826 H 373.633 0.861325 1.94152 0
M  V30 3827 H 375.896 0.326445 0.890021 0
M  V30 3828 H 375.602 0.638461 3.45856 0
M  V30 3829 H 375.476 -1.10552 3.60636 0
M  V30 3830 H 377.863 -1.32185 2.63839 0
M  V30 3831 H 377.944 0.44171 2.51957 0
M  V30 3832 H 377.588 0.605738 5.04275 0
M  V30 3833 H 377.518 -1.17207 5.13391 0
M  V30 3834 H 380.009 -0.442832 3.75296 0
M  V30 3835 H 380.322 -0.28164 7.72287 0
M  V30 3836 H 378.667 -0.260232 6.94513 0
M  V30 3837 H 381.858 -0.464769 4.65787 0
M  V30 3838 H 382.031 -0.391492 6.46816 0
M  V30 3839 N 375.437 -1.54477 -0.31217 0
M  V30 3840 C 376.4 -1.83923 -1.36766 0
M  V30 3841 C 377.4 -0.711563 -1.44199 0
M  V30 3842 O 378.59 -0.979866 -1.44029 0
M  V30 3843 C 375.722 -2.0095 -2.75376 0
M  V30 3844 H 376.915 -2.78239 -1.11906 0
M  V30 3845 H 374.468 -1.46369 -0.548257 0
M  V30 3846 H 375.203 -1.08883 -3.05475 0
M  V30 3847 H 374.988 -2.83018 -2.71373 0
M  V30 3848 H 376.478 -2.2514 -3.51713 0
M  V30 3849 N 376.915 0.57481 -1.46744 0
M  V30 3850 C 378.163 1.33009 -1.52161 0
M  V30 3851 C 378.484 1.94185 -0.178092 0
M  V30 3852 O 377.754 1.7899 0.796196 0
M  V30 3853 H 376.334 0.493873 -0.560445 0
M  V30 3854 H 378.996 0.672589 -1.82927 0
M  V30 3855 H 378.092 2.13273 -2.27862 0
M  V30 3856 N 378.394 1.34581 0.820102 0
M  V30 3857 C 379.64 1.27285 1.57881 0
M  V30 3858 C 379.973 -0.156137 1.93571 0
M  V30 3859 O 379.248 -1.10222 1.60254 0
M  V30 3860 C 379.531 2.16639 2.87645 0
M  V30 3861 C 379.384 3.68088 2.58517 0
M  V30 3862 C 380.703 2.05378 3.8924 0
M  V30 3863 H 377.822 0.463714 0.572833 0
M  V30 3864 H 380.464 1.64859 0.944539 0
M  V30 3865 H 378.614 1.84725 3.41773 0
M  V30 3866 H 380.286 4.10382 2.10676 0
M  V30 3867 H 378.529 3.89038 1.91917 0
M  V30 3868 H 379.2 4.2598 3.51063 0
M  V30 3869 H 381.676 2.33404 3.44473 0
M  V30 3870 H 380.552 2.7012 4.77835 0
M  V30 3871 H 380.813 1.0316 4.29896 0
M  V30 3872 N 379.872 -1.04064 1.18357 0
M  V30 3873 C 380.819 -2.12077 0.910603 0
M  V30 3874 C 381.789 -1.65421 -0.15 0
M  V30 3875 O 382.974 -1.90797 -0.0103614 0
M  V30 3876 C 380.114 -3.42252 0.442472 0
M  V30 3877 C 379.227 -4.0252 1.5685 0
M  V30 3878 C 378.362 -5.20657 1.05309 0
M  V30 3879 C 377.401 -5.72955 2.1538 0
M  V30 3880 N 376.538 -6.8238 1.65233 0
M  V30 3881 H 381.378 -2.34764 1.83548 0
M  V30 3882 H 378.915 -1.15157 0.915279 0
M  V30 3883 H 380.873 -4.16921 0.152534 0
M  V30 3884 H 379.503 -3.19712 -0.445428 0
M  V30 3885 H 378.555 -3.25178 1.97391 0
M  V30 3886 H 379.867 -4.37362 2.39824 0
M  V30 3887 H 379.021 -6.0244 0.717677 0
M  V30 3888 H 377.76 -4.87318 0.19293 0
M  V30 3889 H 376.765 -4.89793 2.49766 0
M  V30 3890 H 377.99 -6.08337 3.01832 0
M  V30 3891 H 375.936 -6.50917 0.815064 0
M  V30 3892 H 375.853 -7.16286 2.41805 0
M  V30 3893 H 377.121 -7.67788 1.34619 0
M  V30 3894 N 381.35 -0.985608 -1.22978 0
M  V30 3895 C 382.627 -0.573599 -1.87001 0
M  V30 3896 C 383.007 0.949213 -1.88555 0
M  V30 3897 O 382.355 1.82811 -1.37086 0
M  V30 3898 C 382.565 -1.18564 -3.28243 0
M  V30 3899 C 383.913 -1.28163 -4.04796 0
M  V30 3900 O 384.937 -1.13949 -3.37482 0
M  V30 3901 O 383.796 -1.50832 -5.25273 0
M  V30 3902 H 380.89 -0.193868 -0.803955 0
M  V30 3903 H 383.436 -1.08102 -1.30813 0
M  V30 3904 H 382.208 -2.22758 -3.21706 0
M  V30 3905 H 381.831 -0.663363 -3.92027 0
M  V30 3906 N 382.828 1.3818 -0.7579 0
M  V30 3907 C 384.074 2.00316 -0.316453 0
M  V30 3908 C 384.407 1.60026 1.10025 0
M  V30 3909 O 383.682 0.839835 1.75434 0
M  V30 3910 C 383.965 3.57349 -0.444245 0
M  V30 3911 C 383.818 4.07591 -1.90236 0
M  V30 3912 C 385.137 4.3981 0.1598 0
M  V30 3913 H 382.256 0.727741 -0.116459 0
M  V30 3914 H 384.898 1.6406 -0.958352 0
M  V30 3915 H 383.048 3.88365 0.102233 0
M  V30 3916 H 384.72 3.87199 -2.50748 0
M  V30 3917 H 382.963 3.60297 -2.41595 0
M  V30 3918 H 383.634 5.16677 -1.94291 0
M  V30 3919 H 386.11 4.14971 -0.306314 0
M  V30 3920 H 384.986 5.48885 0.0401675 0
M  V30 3921 H 385.247 4.24102 1.24859 0
M  V30 3922 N 384.306 0.507319 1.49211 0
M  V30 3923 C 385.555 -0.0368315 2.01666 0
M  V30 3924 C 385.868 -1.37459 1.39156 0
M  V30 3925 O 387.074 -2.00579 1.82976 0
M  V30 3926 C 385.53 -0.116089 3.59713 0
M  V30 3927 C 385.138 1.2154 4.31198 0
M  V30 3928 C 386.882 -0.610268 4.2009 0
M  V30 3929 C 384.789 1.09796 5.81119 0
M  V30 3930 H 383.719 -0.0175376 0.753796 0
M  V30 3931 H 386.37 0.647691 1.71689 0
M  V30 3932 H 384.752 -0.8652 3.86433 0
M  V30 3933 H 385.926 1.9783 4.16173 0
M  V30 3934 H 384.241 1.64352 3.82593 0
M  V30 3935 H 386.838 -0.715742 5.29888 0
M  V30 3936 H 387.181 -1.61064 3.8388 0
M  V30 3937 H 387.714 0.0824916 3.97714 0
M  V30 3938 H 384.453 2.0728 6.21864 0
M  V30 3939 H 383.973 0.376058 5.9862 0
M  V30 3940 H 385.652 0.779281 6.4229 0
M  V30 3941 N 385.784 -1.5574 0.241426 0
M  V30 3942 C 386.714 -2.24133 -0.654722 0
M  V30 3943 C 387.695 -1.21974 -1.1856 0
M  V30 3944 O 388.88 -1.50612 -1.22595 0
M  V30 3945 C 386.01 -2.93659 -1.85423 0
M  V30 3946 C 384.964 -4.0246 -1.45636 0
M  V30 3947 C 384.29 -4.59383 -2.73626 0
M  V30 3948 C 385.59 -5.18468 -0.631506 0
M  V30 3949 H 387.284 -2.99281 -0.0844353 0
M  V30 3950 H 384.83 -1.43947 -0.0391707 0
M  V30 3951 H 386.783 -3.40203 -2.48676 0
M  V30 3952 H 385.507 -2.15991 -2.44981 0
M  V30 3953 H 384.166 -3.56676 -0.847202 0
M  V30 3954 H 383.814 -3.78422 -3.3137 0
M  V30 3955 H 383.514 -5.32826 -2.4773 0
M  V30 3956 H 385.038 -5.08658 -3.37786 0
M  V30 3957 H 386.452 -5.61272 -1.1682 0
M  V30 3958 H 384.849 -5.98266 -0.468831 0
M  V30 3959 H 385.919 -4.8358 0.357506 0
M  V30 3960 N 387.262 0.0317525 -1.57568 0
M  V30 3961 C 388.172 1.05021 -2.0978 0
M  V30 3962 C 389.188 1.39809 -1.03583 0
M  V30 3963 O 390.364 1.49182 -1.35302 0
M  V30 3964 C 387.429 2.33301 -2.56459 0
M  V30 3965 C 386.49 2.0512 -3.77127 0
M  V30 3966 C 385.723 3.27283 -4.2157 0
M  V30 3967 O 385.946 4.37861 -3.65559 0
M  V30 3968 O 384.88 3.13141 -5.14029 0
M  V30 3969 H 388.706 0.636505 -2.96955 0
M  V30 3970 H 386.291 0.248559 -1.47318 0
M  V30 3971 H 388.173 3.08722 -2.86825 0
M  V30 3972 H 386.848 2.73973 -1.72397 0
M  V30 3973 H 385.755 1.27276 -3.51784 0
M  V30 3974 H 387.088 1.69305 -4.62165 0
M  V30 3975 N 388.74 1.54641 0.303973 0
M  V30 3976 C 389.965 1.78092 1.06292 0
M  V30 3977 C 390.39 0.537342 1.80262 0
M  V30 3978 O 389.748 -0.511993 1.7392 0
M  V30 3979 C 389.796 2.98612 2.02147 0
M  V30 3980 O 388.9 2.71528 3.10397 0
M  V30 3981 H 388.241 0.589548 0.305497 0
M  V30 3982 H 390.771 2.01716 0.3423 0
M  V30 3983 H 390.781 3.265 2.44667 0
M  V30 3984 H 389.456 3.88785 1.47714 0
M  V30 3985 H 388.033 2.54648 2.72413 0
M  V30 3986 N 390.218 -0.567019 1.47046 0
M  V30 3987 C 391.181 -1.65696 1.58359 0
M  V30 3988 C 392.181 -1.54097 0.459441 0
M  V30 3989 O 393.371 -1.58432 0.724225 0
M  V30 3990 C 390.503 -3.05197 1.51879 0
M  V30 3991 H 391.696 -1.57019 2.5551 0
M  V30 3992 H 389.249 -0.786148 1.3509 0
M  V30 3993 H 389.984 -3.19417 0.560673 0
M  V30 3994 H 389.769 -3.15025 2.33455 0
M  V30 3995 H 391.259 -3.84511 1.62913 0
M  V30 3996 N 391.696 -1.35014 -0.812953 0
M  V30 3997 C 392.945 -1.27269 -1.56479 0
M  V30 3998 C 393.258 0.152771 -1.95002 0
M  V30 3999 O 394.464 0.352451 -2.69203 0
M  V30 4000 C 392.92 -2.23159 -2.82362 0
M  V30 4001 C 392.528 -3.71016 -2.511 0
M  V30 4002 C 394.272 -2.24342 -3.60376 0
M  V30 4003 C 392.179 -4.58746 -3.73237 0
M  V30 4004 H 391.109 -0.472829 -0.587324 0
M  V30 4005 H 393.76 -1.6024 -0.894171 0
M  V30 4006 H 392.142 -1.83151 -3.51101 0
M  V30 4007 H 393.316 -4.1962 -1.90409 0
M  V30 4008 H 391.631 -3.72378 -1.86343 0
M  V30 4009 H 394.228 -2.87107 -4.51081 0
M  V30 4010 H 394.571 -1.24542 -3.97234 0
M  V30 4011 H 395.104 -2.62846 -2.98591 0
M  V30 4012 H 391.843 -5.59521 -3.41492 0
M  V30 4013 H 391.363 -4.14871 -4.33176 0
M  V30 4014 H 393.042 -4.73852 -4.40537 0
M  V30 4015 N 393.175 1.03435 -1.18907 0
M  V30 4016 C 394.403 1.80381 -1.01342 0
M  V30 4017 C 394.818 1.83649 0.438005 0
M  V30 4018 O 394.175 1.27655 1.30424 0
M  V30 4019 C 394.226 3.25689 -1.56873 0
M  V30 4020 O 393.947 3.22673 -2.96334 0
M  V30 4021 C 395.448 4.19255 -1.44014 0
M  V30 4022 H 392.668 0.56784 -0.35749 0
M  V30 4023 H 395.212 1.30317 -1.576 0
M  V30 4024 H 393.367 3.72962 -1.04777 0
M  V30 4025 H 393.781 4.13748 -3.22355 0
M  V30 4026 H 395.255 5.19123 -1.87657 0
M  V30 4027 H 395.732 4.37467 -0.389815 0
M  V30 4028 H 396.338 3.77851 -1.95214 0
M  V30 4029 N 394.653 0.992116 1.22453 0
M  V30 4030 C 395.881 0.685944 1.95198 0
M  V30 4031 C 396.296 -0.749233 1.73297 0
M  V30 4032 O 395.653 -1.50549 1.03156 0
M  V30 4033 C 395.704 0.981395 3.47924 0
M  V30 4034 O 395.425 2.36018 3.6909 0
M  V30 4035 C 396.926 0.692815 4.37853 0
M  V30 4036 H 394.146 0.253821 0.621141 0
M  V30 4037 H 396.69 1.32668 1.55626 0
M  V30 4038 H 394.845 0.386481 3.85467 0
M  V30 4039 H 395.259 2.45884 4.63294 0
M  V30 4040 H 396.733 0.949818 5.43767 0
M  V30 4041 H 397.21 -0.373181 4.37612 0
M  V30 4042 H 397.816 1.26874 4.05935 0
M  V30 4043 N 396.131 -1.37776 0.765217 0
M  V30 4044 C 397.38 -1.99092 0.323307 0
M  V30 4045 C 397.693 -1.61434 -1.10446 0
M  V30 4046 O 398.899 -2.15805 -1.64743 0
M  V30 4047 C 397.355 -3.56019 0.527098 0
M  V30 4048 C 396.963 -4.0262 1.96471 0
M  V30 4049 C 398.707 -4.2424 0.148483 0
M  V30 4050 C 396.614 -5.52233 2.11644 0
M  V30 4051 H 395.544 -0.744846 0.117137 0
M  V30 4052 H 398.195 -1.57391 0.943417 0
M  V30 4053 H 396.577 -3.95667 -0.162372 0
M  V30 4054 H 397.751 -3.74234 2.68859 0
M  V30 4055 H 396.066 -3.47161 2.29931 0
M  V30 4056 H 398.663 -5.34159 0.240456 0
M  V30 4057 H 399.006 -4.06446 -0.900422 0
M  V30 4058 H 399.539 -3.89872 0.79025 0
M  V30 4059 H 396.278 -5.74945 3.1483 0
M  V30 4060 H 395.798 -5.82324 1.4373 0
M  V30 4061 H 397.477 -6.18106 1.91193 0
M  V30 4062 N 397.609 -0.515225 -1.4894 0
M  V30 4063 C 398.542 0.302518 -2.26186 0
M  V30 4064 C 399.52 0.957895 -1.31389 0
M  V30 4065 O 400.704 0.985198 -1.60705 0
M  V30 4066 C 397.831 1.42719 -3.07163 0
M  V30 4067 C 396.877 0.884736 -4.17223 0
M  V30 4068 S 397.71 -0.235767 -5.34981 0
M  V30 4069 C 398.866 0.891731 -6.19515 0
M  V30 4070 H 399.099 -0.353076 -2.95196 0
M  V30 4071 H 396.632 -0.300753 -1.51443 0
M  V30 4072 H 398.59 2.07152 -3.54398 0
M  V30 4073 H 397.251 2.05445 -2.37595 0
M  V30 4074 H 396.444 1.72801 -4.73451 0
M  V30 4075 H 396.046 0.317362 -3.72651 0
M  V30 4076 H 398.338 1.79377 -6.53322 0
M  V30 4077 H 399.281 0.367751 -7.07144 0
M  V30 4078 H 399.689 1.16548 -5.52338 0
M  V30 4079 N 399.087 1.5561 -0.249682 0
M  V30 4080 C 400.364 1.90932 0.424761 0
M  V30 4081 C 400.744 1.17078 1.75658 0
M  V30 4082 O 400.092 0.289176 2.26663 0
M  V30 4083 C 400.302 3.43975 0.590109 0
M  V30 4084 C 401.65 4.15281 0.884714 0
M  V30 4085 O 402.674 3.49729 0.67587 0
M  V30 4086 O 401.533 5.31236 1.28259 0
M  V30 4087 H 398.627 0.794815 0.228468 0
M  V30 4088 H 401.173 1.67135 -0.293954 0
M  V30 4089 H 399.945 3.89748 -0.34818 0
M  V30 4090 H 399.568 3.73644 1.35926 0
M  V30 4091 N 400.565 -0.0233959 1.57583 0
M  V30 4092 C 401.812 -0.713063 1.8953 0
M  V30 4093 C 402.14 -1.75056 0.847673 0
M  V30 4094 O 401.395 -1.95119 -0.150636 0
M  V30 4095 C 401.694 -1.41428 3.28227 0
M  V30 4096 C 401.36 -0.512222 4.47981 0
M  V30 4097 C 400.022 -0.263785 4.80476 0
M  V30 4098 C 402.374 0.110248 5.21083 0
M  V30 4099 C 399.702 0.615804 5.83459 0
M  V30 4100 C 402.054 0.977573 6.25001 0
M  V30 4101 C 400.718 1.23542 6.55968 0
M  V30 4102 H 399.988 -0.260928 0.69354 0
M  V30 4103 H 402.635 0.0271047 1.91481 0
M  V30 4104 H 400.94 -2.22791 3.22291 0
M  V30 4105 H 402.637 -1.95355 3.50196 0
M  V30 4106 H 399.227 -0.716013 4.22577 0
M  V30 4107 H 403.411 -0.0687137 4.96252 0
M  V30 4108 H 398.667 0.82382 6.05824 0
M  V30 4109 H 402.841 1.46638 6.80786 0
M  V30 4110 H 400.468 1.91871 7.35588 0
M  V30 4111 N 402.043 -1.548 -0.295768 0
M  V30 4112 C 402.953 -1.89177 -1.38742 0
M  V30 4113 C 403.969 -0.786481 -1.55211 0
M  V30 4114 O 405.145 -1.08344 -1.69775 0
M  V30 4115 C 402.21 -2.13663 -2.73036 0
M  V30 4116 C 401.271 -3.37349 -2.65508 0
M  V30 4117 C 400.504 -3.60658 -3.93398 0
M  V30 4118 O 400.727 -2.86882 -4.93006 0
M  V30 4119 O 399.661 -4.54179 -3.94975 0
M  V30 4120 H 403.487 -2.82059 -1.12589 0
M  V30 4121 H 401.072 -1.41056 -0.492295 0
M  V30 4122 H 402.954 -2.3094 -3.52484 0
M  V30 4123 H 401.629 -1.23967 -2.99022 0
M  V30 4124 H 400.536 -3.25431 -1.84514 0
M  V30 4125 H 401.869 -4.27192 -2.44474 0
M  V30 4126 N 403.521 0.559213 -1.47345 0
M  V30 4127 C 404.798 1.31997 -1.44348 0
M  V30 4128 C 405.178 2.1064 -0.139358 0
M  V30 4129 O 404.526 2.1091 0.879153 0
M  V30 4130 C 404.736 2.22618 -2.68779 0
M  V30 4131 C 406.084 2.83701 -3.1591 0
M  V30 4132 O 407.108 2.32921 -2.69493 0
M  V30 4133 O 405.967 3.75993 -3.966 0
M  V30 4134 H 403.061 0.594251 -0.575147 0
M  V30 4135 H 405.607 0.578282 -1.59543 0
M  V30 4136 H 404.379 1.64093 -3.55231 0
M  V30 4137 H 404.002 3.04085 -2.5616 0
M  V30 4138 N 404.999 1.35443 0.805782 0
M  V30 4139 C 406.224 1.32037 1.59941 0
M  V30 4140 C 406.649 -0.0994215 1.87837 0
M  V30 4141 O 406.007 -1.06648 1.46615 0
M  V30 4142 C 406.055 2.13354 2.90711 0
M  V30 4143 O 405.159 1.5148 3.83572 0
M  V30 4144 H 404.5 0.452666 0.485787 0
M  V30 4145 H 407.03 1.78496 1.00002 0
M  V30 4146 H 407.04 2.25338 3.40128 0
M  V30 4147 H 405.715 3.16572 2.69732 0
M  V30 4148 H 404.292 1.4834 3.42125 0
M  V30 4149 N 406.477 -1.02803 1.19454 0
M  V30 4150 C 407.723 -1.76478 0.999171 0
M  V30 4151 C 408.056 -1.88456 -0.468828 0
M  V30 4152 O 407.331 -1.40198 -1.34814 0
M  V30 4153 C 407.614 -3.19044 1.66981 0
M  V30 4154 C 407.467 -3.14932 3.21151 0
M  V30 4155 C 408.786 -4.17456 1.39349 0
M  V30 4156 H 405.905 -0.640614 0.364393 0
M  V30 4157 H 408.547 -1.20005 1.47305 0
M  V30 4158 H 406.697 -3.67263 1.2669 0
M  V30 4159 H 408.369 -2.74605 3.70661 0
M  V30 4160 H 406.612 -2.52625 3.52652 0
M  V30 4161 H 407.283 -4.1566 3.63223 0
M  V30 4162 H 409.759 -3.77842 1.74283 0
M  V30 4163 H 408.635 -5.154 1.88823 0
M  V30 4164 H 408.896 -4.40949 0.318813 0
M  V30 4165 N 407.956 -0.998596 -1.21925 0
M  V30 4166 C 408.919 -0.558679 -2.22287 0
M  V30 4167 C 409.919 0.361525 -1.56683 0
M  V30 4168 O 411.109 0.152695 -1.73529 0
M  V30 4169 C 408.241 0.18661 -3.40389 0
M  V30 4170 H 409.434 -1.4463 -2.62721 0
M  V30 4171 H 406.987 -0.786413 -1.35075 0
M  V30 4172 H 407.722 1.08996 -3.05435 0
M  V30 4173 H 407.507 -0.474188 -3.89222 0
M  V30 4174 H 408.997 0.482367 -4.14805 0
M  V30 4175 N 409.434 1.37368 -0.772513 0
M  V30 4176 C 410.397 2.28601 -0.165541 0
M  V30 4177 C 411.397 1.48062 0.627238 0
M  V30 4178 O 412.587 1.68268 0.450715 0
M  V30 4179 C 409.719 3.32023 0.772897 0
M  V30 4180 H 410.912 2.83787 -0.969787 0
M  V30 4181 H 408.465 1.46647 -0.540775 0
M  V30 4182 H 409.2 2.81962 1.60212 0
M  V30 4183 H 408.985 3.91555 0.206585 0
M  V30 4184 H 410.475 4.00197 1.19298 0
M  V30 4185 N 410.912 0.523116 1.48665 0
M  V30 4186 C 412.158 -0.0134963 2.02796 0
M  V30 4187 C 412.491 -1.34582 1.40004 0
M  V30 4188 O 411.766 -1.86756 0.543381 0
M  V30 4189 C 412.049 -0.14276 3.59817 0
M  V30 4190 C 411.902 1.21425 4.331 0
M  V30 4191 C 413.221 -0.872856 4.31357 0
M  V30 4192 H 410.34 -0.00343074 0.736992 0
M  V30 4193 H 412.982 0.678816 1.7746 0
M  V30 4194 H 411.132 -0.732401 3.81534 0
M  V30 4195 H 412.804 1.84447 4.2282 0
M  V30 4196 H 411.047 1.79791 3.94788 0
M  V30 4197 H 411.718 1.07687 5.41394 0
M  V30 4198 H 414.194 -0.372555 4.14429 0
M  V30 4199 H 413.07 -0.932185 5.40927 0
M  V30 4200 H 413.331 -1.92161 3.98154 0
M  V30 4201 N 412.39 -1.55475 0.257931 0
M  V30 4202 C 413.667 -1.91155 -0.414629 0
M  V30 4203 C 414.047 -1.18008 -1.75035 0
M  V30 4204 O 413.395 -0.301193 -2.26506 0
M  V30 4205 C 413.605 -3.44283 -0.571859 0
M  V30 4206 C 414.953 -4.15744 -0.862678 0
M  V30 4207 O 415.977 -3.50083 -0.657314 0
M  V30 4208 O 414.836 -5.31909 -1.2544 0
M  V30 4209 H 411.93 -0.796016 -0.22425 0
M  V30 4210 H 414.476 -1.66976 0.302814 0
M  V30 4211 H 413.248 -3.89558 0.368844 0
M  V30 4212 H 412.871 -3.7436 -1.33943 0
M  V30 4213 N 413.868 0.0150385 -1.57593 0
M  V30 4214 C 414.831 0.995996 -2.06428 0
M  V30 4215 C 415.831 1.2818 -0.970903 0
M  V30 4216 O 417.021 1.22949 -1.23406 0
M  V30 4217 C 414.153 2.32506 -2.49307 0
M  V30 4218 H 415.346 0.573873 -2.94358 0
M  V30 4219 H 412.899 0.262186 -1.54085 0
M  V30 4220 H 413.634 2.79438 -1.64575 0
M  V30 4221 H 413.419 2.13087 -3.29145 0
M  V30 4222 H 414.909 3.02906 -2.87468 0
M  V30 4223 N 415.346 1.54954 0.287554 0
M  V30 4224 C 416.309 1.86076 1.33823 0
M  V30 4225 C 417.309 0.734414 1.43049 0
M  V30 4226 O 418.499 1.00266 1.42452 0
M  V30 4227 C 415.631 2.05305 2.72144 0
M  V30 4228 H 416.824 2.79984 1.07465 0
M  V30 4229 H 414.377 1.47223 0.524902 0
M  V30 4230 H 415.112 1.1373 3.03704 0
M  V30 4231 H 414.897 2.873 2.66836 0
M  V30 4232 H 416.387 2.30706 3.48087 0
M  V30 4233 N 416.824 -0.551391 1.4764 0
M  V30 4234 C 418.101 -1.31229 1.45046 0
M  V30 4235 C 418.481 -2.10563 0.150527 0
M  V30 4236 O 417.829 -2.11374 -0.867956 0
M  V30 4237 C 418.039 -2.21189 2.69956 0
M  V30 4238 C 419.387 -2.82021 3.1741 0
M  V30 4239 O 420.411 -2.31488 2.70724 0
M  V30 4240 O 419.27 -3.73885 3.98588 0
M  V30 4241 H 416.364 -0.591193 0.578291 0
M  V30 4242 H 418.91 -0.569813 1.59847 0
M  V30 4243 H 417.682 -1.62207 3.56096 0
M  V30 4244 H 417.305 -3.02722 2.57769 0
M  V30 4245 N 418.302 -1.35869 -0.798587 0
M  V30 4246 C 419.249 -1.29446 -1.91082 0
M  V30 4247 C 420.219 -0.16487 -1.6528 0
M  V30 4248 O 421.404 -0.349888 -1.87564 0
M  V30 4249 C 418.544 -1.0804 -3.27752 0
M  V30 4250 C 417.657 -2.29993 -3.65687 0
M  V30 4251 C 416.792 -2.01673 -4.91428 0
M  V30 4252 C 415.831 -3.19636 -5.22015 0
M  V30 4253 N 414.968 -2.91039 -6.38937 0
M  V30 4254 H 419.808 -2.24553 -1.95907 0
M  V30 4255 H 417.345 -1.11615 -0.958148 0
M  V30 4256 H 419.303 -0.936586 -4.06551 0
M  V30 4257 H 417.933 -0.16592 -3.22373 0
M  V30 4258 H 416.985 -2.55211 -2.82085 0
M  V30 4259 H 418.297 -3.18052 -3.84245 0
M  V30 4260 H 417.451 -1.84168 -5.78072 0
M  V30 4261 H 416.19 -1.10911 -4.74921 0
M  V30 4262 H 415.195 -3.37709 -4.33858 0
M  V30 4263 H 416.42 -4.11211 -5.40447 0
M  V30 4264 H 414.366 -2.0288 -6.2384 0
M  V30 4265 H 414.283 -3.72635 -6.57784 0
M  V30 4266 H 415.551 -2.77093 -7.28587 0
M  V30 4267 N 419.78 1.02168 -1.19998 0
M  V30 4268 C 421.026 1.75945 -1.00852 0
M  V30 4269 C 421.359 1.88702 0.458828 0
M  V30 4270 O 420.634 1.40911 1.34069 0
M  V30 4271 C 420.917 3.18154 -1.68671 0
M  V30 4272 C 420.77 3.13224 -3.22817 0
M  V30 4273 C 422.089 4.16711 -1.41561 0
M  V30 4274 H 419.208 0.638673 -0.367785 0
M  V30 4275 H 421.85 1.19222 -1.4794 0
M  V30 4276 H 420 3.66586 -1.28636 0
M  V30 4277 H 421.672 2.72635 -3.72112 0
M  V30 4278 H 419.915 2.50751 -3.53986 0
M  V30 4279 H 420.586 4.13728 -3.65422 0
M  V30 4280 H 423.062 3.76913 -1.76284 0
M  V30 4281 H 421.938 5.14391 -1.91553 0
M  V30 4282 H 422.199 4.40774 -0.342193 0
M  V30 4283 N 421.258 1.00505 1.21394 0
M  V30 4284 C 422.188 0.585684 2.26035 0
M  V30 4285 C 423.169 -0.393525 1.65485 0
M  V30 4286 O 424.354 -0.281497 1.92149 0
M  V30 4287 C 421.484 -0.0884283 3.47187 0
M  V30 4288 C 420.438 0.810567 4.20254 0
M  V30 4289 C 419.764 0.00286382 5.347 0
M  V30 4290 C 421.064 2.1132 4.77641 0
M  V30 4291 H 422.758 1.46039 2.61368 0
M  V30 4292 H 420.304 0.703648 1.25638 0
M  V30 4293 H 422.257 -0.393286 4.19561 0
M  V30 4294 H 420.981 -0.997766 3.10986 0
M  V30 4295 H 419.64 1.09925 3.49731 0
M  V30 4296 H 419.288 -0.907765 4.94741 0
M  V30 4297 H 418.988 0.601444 5.84514 0
M  V30 4298 H 420.512 -0.295808 6.09883 0
M  V30 4299 H 421.926 1.87148 5.41893 0
M  V30 4300 H 420.323 2.66164 5.37845 0
M  V30 4301 H 421.393 2.78393 3.9702 0
M  V30 4302 N 422.737 -1.36956 0.779787 0
M  V30 4303 C 423.985 -1.99097 0.347079 0
M  V30 4304 C 424.306 -1.62206 -1.08232 0
M  V30 4305 O 423.576 -0.891373 -1.74446 0
M  V30 4306 H 422.156 -0.736409 0.125342 0
M  V30 4307 H 424.818 -1.67308 0.999696 0
M  V30 4308 H 423.914 -3.09107 0.431162 0
M  V30 4309 N 424.215 -0.530993 -1.48385 0
M  V30 4310 C 425.445 -0.00133928 -2.066 0
M  V30 4311 C 425.853 1.28599 -1.38777 0
M  V30 4312 O 425.196 1.77599 -0.469495 0
M  V30 4313 C 425.258 0.292137 -3.58311 0
M  V30 4314 C 424.922 -0.901864 -4.48013 0
M  V30 4315 C 425.919 -1.80053 -4.87726 0
M  V30 4316 C 423.604 -1.10915 -4.89901 0
M  V30 4317 C 425.598 -2.89038 -5.68098 0
M  V30 4318 C 423.285 -2.20213 -5.70043 0
M  V30 4319 C 424.283 -3.09107 -6.0905 0
M  V30 4320 O 423.971 -4.16514 -6.87583 0
M  V30 4321 H 423.703 -0.0308475 -0.675296 0
M  V30 4322 H 426.257 -0.736335 -1.91748 0
M  V30 4323 H 424.487 1.08112 -3.7128 0
M  V30 4324 H 426.176 0.763994 -3.98645 0
M  V30 4325 H 426.942 -1.65234 -4.55986 0
M  V30 4326 H 422.821 -0.426498 -4.59023 0
M  V30 4327 H 426.365 -3.58451 -5.98464 0
M  V30 4328 H 422.262 -2.35016 -6.01197 0
M  V30 4329 H 423.03 -4.14237 -7.05939 0
M  V30 4330 N 425.693 1.55336 -0.266172 0
M  V30 4331 C 427.109 1.59356 0.0882065 0
M  V30 4332 C 427.309 1.2834 1.55342 0
M  V30 4333 O 426.365 1.03996 2.30089 0
M  V30 4334 C 427.678 2.99409 -0.278364 0
M  V30 4335 C 429.226 3.12196 -0.224243 0
M  V30 4336 C 429.701 4.545 -0.565123 0
M  V30 4337 N 431.192 4.60313 -0.51634 0
M  V30 4338 C 431.927 5.68434 -0.753013 0
M  V30 4339 N 431.423 6.84738 -1.05383 0
M  V30 4340 N 433.216 5.57942 -0.682414 0
M  V30 4341 H 425.367 1.73764 -1.22147 0
M  V30 4342 H 427.63 0.809822 -0.492841 0
M  V30 4343 H 427.336 3.2691 -1.29703 0
M  V30 4344 H 427.21 3.75228 0.385186 0
M  V30 4345 H 429.597 2.84464 0.78512 0
M  V30 4346 H 429.678 2.38609 -0.921922 0
M  V30 4347 H 429.322 4.82956 -1.57213 0
M  V30 4348 H 429.252 5.26374 0.154248 0
M  V30 4349 H 431.743 3.7676 -0.29335 0
M  V30 4350 H 432.056 7.63088 -1.22133 0
M  V30 4351 H 430.401 6.86375 -1.09151 0
M  V30 4352 H 433.592 4.65958 -0.44731 0
M  V30 4353 H 433.765 6.4213 -0.870248 0
M  V30 4354 N 427.171 -0.0066808 1.57599 0
M  V30 4355 C 428.119 -1.01851 2.09115 0
M  V30 4356 C 429.113 -1.36021 1.00969 0
M  V30 4357 O 430.319 -1.34663 1.19439 0
M  V30 4358 H 426.694 -0.346083 0.667631 0
M  V30 4359 H 428.665 -0.558394 2.93129 0
M  V30 4360 C 427.414 -2.30374 2.60429 0
M  V30 4361 H 426.737 -2.04947 3.43273 0
M  V30 4362 H 428.177 -2.99466 3.00161 0
M  V30 4363 C 426.636 -3.00893 1.51542 0
M  V30 4364 O 427.166 -3.91614 0.894484 0
M  V30 4365 N 425.372 -2.62603 1.2445 0
M  V30 4366 H 424.919 -1.88911 1.75129 0
M  V30 4367 H 424.877 -3.10101 0.518137 0
M  V30 4368 N 428.649 -1.55105 -0.279332 0
M  V30 4369 C 429.895 -1.76597 -1.00921 0
M  V30 4370 C 430.25 -0.556831 -1.84166 0
M  V30 4371 O 429.543 0.450573 -1.86227 0
M  V30 4372 C 429.737 -3.0086 -1.92919 0
M  V30 4373 C 429.566 -4.33744 -1.18728 0
M  V30 4374 C 428.336 -4.9712 -0.905545 0
M  V30 4375 C 430.534 -5.11009 -0.580857 0
M  V30 4376 N 428.516 -6.13749 -0.136169 0
M  V30 4377 C 429.887 -6.19976 0.0546661 0
M  V30 4378 C 431.942 -4.95502 -0.488067 0
M  V30 4379 C 430.645 -7.15123 0.774028 0
M  V30 4380 C 432.671 -5.90999 0.217688 0
M  V30 4381 C 432.033 -6.9935 0.841975 0
M  V30 4382 H 428.132 -0.698553 -0.351493 0
M  V30 4383 H 430.716 -1.92595 -0.285531 0
M  V30 4384 H 428.887 -2.86249 -2.62519 0
M  V30 4385 H 430.619 -3.10784 -2.59221 0
M  V30 4386 H 427.374 -4.57903 -1.20921 0
M  V30 4387 H 427.798 -6.7659 0.235665 0
M  V30 4388 H 432.44 -4.11841 -0.956406 0
M  V30 4389 H 430.158 -7.9831 1.25407 0
M  V30 4390 H 433.744 -5.81078 0.289717 0
M  V30 4391 H 432.624 -7.71973 1.37939 0
M  V30 4392 N 430.127 0.543554 -1.4793 0
M  V30 4393 C 431.057 1.65888 -1.64327 0
M  V30 4394 C 432.038 1.62818 -0.492383 0
M  V30 4395 O 433.223 1.80226 -0.723338 0
M  V30 4396 C 430.353 3.04506 -1.67013 0
M  V30 4397 C 429.307 3.2243 -2.81466 0
M  V30 4398 C 428.633 4.61972 -2.69233 0
M  V30 4399 C 429.933 3.06496 -4.22915 0
M  V30 4400 H 431.627 1.52421 -2.57698 0
M  V30 4401 H 429.173 0.731849 -1.24016 0
M  V30 4402 H 431.126 3.82391 -1.77074 0
M  V30 4403 H 429.85 3.18964 -0.70212 0
M  V30 4404 H 428.509 2.46957 -2.70938 0
M  V30 4405 H 428.157 4.73247 -1.7043 0
M  V30 4406 H 427.857 4.74911 -3.46025 0
M  V30 4407 H 429.381 5.41974 -2.81242 0
M  V30 4408 H 430.795 3.74186 -4.34348 0
M  V30 4409 H 429.192 3.30938 -5.006 0
M  V30 4410 H 430.262 2.03077 -4.40327 0
M  V30 4411 N 431.605 1.3629 0.791371 0
M  V30 4412 C 432.853 1.30154 1.5461 0
M  V30 4413 C 433.174 -0.119409 1.94634 0
M  V30 4414 O 432.444 -1.05924 1.64794 0
M  V30 4415 H 431.024 0.478784 0.573389 0
M  V30 4416 H 433.686 1.70565 0.94306 0
M  V30 4417 H 432.782 1.92762 2.45457 0
M  V30 4418 N 433.083 -1.0153 1.20538 0
M  V30 4419 C 434.013 -2.11972 0.979295 0
M  V30 4420 C 434.994 -1.6985 -0.0921787 0
M  V30 4421 O 436.179 -1.94089 0.0655932 0
M  V30 4422 C 433.309 -3.43201 0.531984 0
M  V30 4423 C 432.263 -3.9907 1.54685 0
M  V30 4424 C 431.589 -5.26082 0.956127 0
M  V30 4425 C 432.889 -4.32313 2.93092 0
M  V30 4426 H 434.583 -2.31143 1.90298 0
M  V30 4427 H 432.129 -1.11079 0.916372 0
M  V30 4428 H 434.082 -4.1985 0.361044 0
M  V30 4429 H 432.806 -3.23792 -0.427327 0
M  V30 4430 H 431.465 -3.2453 1.70517 0
M  V30 4431 H 431.113 -5.02999 -0.0111538 0
M  V30 4432 H 430.813 -5.64426 1.63393 0
M  V30 4433 H 432.337 -6.05386 0.796284 0
M  V30 4434 H 433.751 -4.99845 2.80763 0
M  V30 4435 H 432.148 -4.81774 3.57791 0
M  V30 4436 H 433.218 -3.41025 3.44717 0
M  V30 4437 N 434.561 -1.01147 -1.20859 0
M  V30 4438 C 435.509 -0.57059 -2.25493 0
M  V30 4439 C 436.503 0.388109 -1.64894 0
M  V30 4440 O 437.709 0.258592 -1.78133 0
M  V30 4441 H 434.084 -0.166191 -0.733406 0
M  V30 4442 H 436.055 -1.46411 -2.60012 0
M  V30 4443 C 434.804 0.0805241 -3.47607 0
M  V30 4444 H 434.127 -0.648156 -3.94511 0
M  V30 4445 H 435.567 0.352197 -4.22535 0
M  V30 4446 C 434.026 1.32175 -3.09889 0
M  V30 4447 O 434.556 2.41553 -3.20959 0
M  V30 4448 N 432.762 1.20392 -2.64488 0
M  V30 4449 H 432.309 0.313905 -2.5568 0
M  V30 4450 H 432.267 2.03541 -2.39621 0
M  V30 4451 N 436.039 1.36541 -0.78704 0
M  V30 4452 C 436.986 2.30082 -0.181901 0
M  V30 4453 C 437.956 1.5186 0.672896 0
M  V30 4454 O 439.141 1.80374 0.622072 0
M  V30 4455 C 436.281 3.3835 0.679197 0
M  V30 4456 C 435.394 4.31565 -0.193882 0
M  V30 4457 C 434.529 5.26915 0.673364 0
M  V30 4458 C 433.568 6.11769 -0.201315 0
M  V30 4459 N 432.705 6.99315 0.624777 0
M  V30 4460 H 437.545 2.81248 -0.985064 0
M  V30 4461 H 435.082 1.38437 -0.497342 0
M  V30 4462 H 437.04 3.99767 1.19341 0
M  V30 4463 H 435.67 2.8851 1.44781 0
M  V30 4464 H 434.722 3.71323 -0.826044 0
M  V30 4465 H 436.034 4.91191 -0.867937 0
M  V30 4466 H 435.188 5.9361 1.25348 0
M  V30 4467 H 433.927 4.67737 1.38105 0
M  V30 4468 H 432.932 5.44039 -0.793849 0
M  V30 4469 H 434.157 6.73022 -0.906568 0
M  V30 4470 H 432.103 6.42648 1.3168 0
M  V30 4471 H 432.02 7.56 0.00835237 0
M  V30 4472 H 433.288 7.70382 1.18879 0
M  V30 4473 N 437.518 0.538854 1.48102 0
M  V30 4474 C 438.766 0.00798599 2.02098 0
M  V30 4475 C 439.087 -1.33922 1.41739 0
M  V30 4476 O 438.357 -1.86932 0.585934 0
M  V30 4477 H 436.937 -3.62179e-05 0.747 0
M  V30 4478 H 439.599 0.7047 1.81714 0
M  V30 4479 H 438.695 -0.0937672 3.11959 0
M  V30 4480 N 438.996 -1.55193 0.274407 0
M  V30 4481 C 440.273 -1.91584 -0.394331 0
M  V30 4482 C 440.653 -1.19858 -1.73774 0
M  V30 4483 O 440.001 -0.3252 -2.26174 0
M  V30 4484 C 440.211 -3.4487 -0.535311 0
M  V30 4485 C 441.559 -4.16636 -0.818534 0
M  V30 4486 O 442.583 -3.5076 -0.620146 0
M  V30 4487 O 441.442 -5.33209 -1.19792 0
M  V30 4488 H 438.536 -0.798349 -0.215794 0
M  V30 4489 H 441.082 -1.66646 0.320507 0
M  V30 4490 H 439.854 -3.89145 0.410141 0
M  V30 4491 H 439.477 -3.75759 -1.29964 0
M  V30 4492 N 440.474 -0.00167713 -1.576 0
M  V30 4493 C 441.404 0.988091 -2.11563 0
M  V30 4494 C 442.385 1.35736 -1.02517 0
M  V30 4495 O 443.57 1.44082 -1.30208 0
M  V30 4496 C 440.7 2.27941 -2.62031 0
M  V30 4497 C 439.654 2.0517 -3.75619 0
M  V30 4498 C 438.98 3.4033 -4.12407 0
M  V30 4499 C 440.28 1.41294 -5.02825 0
M  V30 4500 H 441.974 0.538771 -2.94513 0
M  V30 4501 H 439.52 0.257712 -1.41675 0
M  V30 4502 H 441.473 2.97539 -2.9841 0
M  V30 4503 H 440.197 2.74989 -1.76205 0
M  V30 4504 H 438.856 1.37998 -3.39635 0
M  V30 4505 H 438.504 3.85085 -3.23603 0
M  V30 4506 H 438.204 3.25909 -4.88935 0
M  V30 4507 H 439.728 4.1124 -4.51347 0
M  V30 4508 H 441.142 2.00851 -5.36965 0
M  V30 4509 H 439.539 1.37356 -5.84169 0
M  V30 4510 H 440.609 0.382362 -4.8339 0
M  V30 4511 N 441.952 1.55251 0.271103 0
M  V30 4512 C 442.915 1.87484 1.31842 0
M  V30 4513 C 443.915 0.749545 1.42262 0
M  V30 4514 O 445.105 1.01771 1.4138 0
M  V30 4515 C 442.237 2.0818 2.69951 0
M  V30 4516 H 443.43 2.81108 1.0449 0
M  V30 4517 H 440.983 1.47771 0.509258 0
M  V30 4518 H 441.718 1.16944 3.02481 0
M  V30 4519 H 441.503 2.90114 2.63774 0
M  V30 4520 H 442.993 2.34385 3.4562 0
M  V30 4521 N 443.43 -0.535701 1.48216 0
M  V30 4522 C 444.393 -1.623 1.61838 0
M  V30 4523 C 445.393 -1.53087 0.492024 0
M  V30 4524 O 446.583 -1.5686 0.757668 0
M  V30 4525 C 443.715 -3.01907 1.58319 0
M  V30 4526 H 444.908 -1.51564 2.58783 0
M  V30 4527 H 442.461 -0.757317 1.36727 0
M  V30 4528 H 443.196 -3.18155 0.628299 0
M  V30 4529 H 442.981 -3.10003 2.40085 0
M  V30 4530 H 444.471 -3.80969 1.71033 0
M  V30 4531 N 444.908 -1.36708 -0.784132 0
M  V30 4532 C 445.871 -1.31307 -1.87859 0
M  V30 4533 C 446.871 -0.219654 -1.59293 0
M  V30 4534 O 448.061 -0.47476 -1.67606 0
M  V30 4535 C 445.193 -1.03679 -3.24751 0
M  V30 4536 H 446.386 -2.28647 -1.94064 0
M  V30 4537 H 443.939 -1.21558 -0.98252 0
M  V30 4538 H 444.674 -0.0681936 -3.24228 0
M  V30 4539 H 444.459 -1.82811 -3.46876 0
M  V30 4540 H 445.949 -1.02518 -4.04821 0
M  V30 4541 N 446.386 1.0089 -1.21074 0
M  V30 4542 C 447.632 1.74866 -1.02712 0
M  V30 4543 C 447.965 1.89178 0.438787 0
M  V30 4544 O 447.24 1.42325 1.32567 0
M  V30 4545 C 447.523 3.16347 -1.72036 0
M  V30 4546 C 447.376 3.09782 -3.26121 0
M  V30 4547 C 448.695 4.15187 -1.45973 0
M  V30 4548 H 445.814 0.634736 -0.374539 0
M  V30 4549 H 448.456 1.17646 -1.49196 0
M  V30 4550 H 446.606 3.65201 -1.32517 0
M  V30 4551 H 448.278 2.68673 -3.74983 0
M  V30 4552 H 446.521 2.46982 -3.56626 0
M  V30 4553 H 447.192 4.09829 -3.6979 0
M  V30 4554 H 449.668 3.75022 -1.80272 0
M  V30 4555 H 448.544 5.12331 -1.96999 0
M  V30 4556 H 448.805 4.40386 -0.388924 0
M  V30 4557 N 447.864 1.01787 1.20321 0
M  V30 4558 C 449.141 0.622978 1.85414 0
M  V30 4559 C 449.521 -0.898887 1.91006 0
M  V30 4560 O 448.869 -1.79112 1.41884 0
M  V30 4561 C 449.079 1.27226 3.24984 0
M  V30 4562 C 450.427 1.3885 4.01255 0
M  V30 4563 O 451.451 1.22857 3.34342 0
M  V30 4564 O 450.31 1.64705 5.2109 0
M  V30 4565 H 447.404 0.215116 0.798533 0
M  V30 4566 H 449.95 1.11533 1.27901 0
M  V30 4567 H 448.722 2.31209 3.15687 0
M  V30 4568 H 448.345 0.767069 3.90131 0
M  V30 4569 N 449.342 -1.36122 0.79427 0
M  V30 4570 C 450.289 -2.29982 0.194101 0
M  V30 4571 C 451.259 -1.52214 -0.664833 0
M  V30 4572 O 452.444 -1.80702 -0.612498 0
M  V30 4573 C 449.584 -3.38706 -0.661244 0
M  V30 4574 C 448.697 -4.31456 0.216766 0
M  V30 4575 C 447.832 -5.27265 -0.645411 0
M  V30 4576 C 446.871 -6.11653 0.233756 0
M  V30 4577 N 446.008 -6.99636 -0.587682 0
M  V30 4578 H 450.848 -2.80722 0.999965 0
M  V30 4579 H 448.385 -1.38172 0.504677 0
M  V30 4580 H 450.343 -4.00394 -1.17219 0
M  V30 4581 H 448.973 -2.89274 -1.43249 0
M  V30 4582 H 448.025 -3.7088 0.845724 0
M  V30 4583 H 449.337 -4.90724 0.893973 0
M  V30 4584 H 448.491 -5.94266 -1.22198 0
M  V30 4585 H 447.23 -4.68463 -1.35623 0
M  V30 4586 H 446.235 -5.4361 0.82269 0
M  V30 4587 H 447.46 -6.72531 0.942247 0
M  V30 4588 H 445.406 -6.43337 -1.2827 0
M  V30 4589 H 445.323 -7.55993 0.0317402 0
M  V30 4590 H 446.591 -7.71001 -1.14792 0
M  V30 4591 N 450.82 -0.546701 -1.47814 0
M  V30 4592 C 452.097 0.0464413 -1.95545 0
M  V30 4593 C 452.477 1.4962 -1.48919 0
M  V30 4594 O 451.825 2.16752 -0.723232 0
M  V30 4595 C 452.035 -0.0881298 -3.48889 0
M  V30 4596 C 453.383 0.0626059 -4.24554 0
M  V30 4597 O 454.407 -0.0151555 -3.56197 0
M  V30 4598 O 453.266 0.228071 -5.46024 0
M  V30 4599 H 450.36 0.0700004 -0.824032 0
M  V30 4600 H 452.906 -0.612482 -1.58262 0
M  V30 4601 H 451.678 -1.09737 -3.75597 0
M  V30 4602 H 451.301 0.608886 -3.9291 0
M  V30 4603 N 452.299 1.55045 -0.282633 0
M  V30 4604 C 453.547 1.99365 0.331334 0
M  V30 4605 C 453.868 1.1725 1.55812 0
M  V30 4606 O 453.138 0.263871 1.94115 0
M  V30 4607 H 451.718 0.736397 0.125414 0
M  V30 4608 H 454.38 1.90964 -0.389711 0
M  V30 4609 H 453.476 3.0596 0.616036 0
M  V30 4610 N 453.777 0.010035 1.57597 0
M  V30 4611 C 455.005 -0.683413 1.95287 0
M  V30 4612 C 455.42 -1.66747 0.885481 0
M  V30 4613 O 454.777 -1.82003 -0.134629 0
M  V30 4614 C 454.828 -1.40652 3.33015 0
M  V30 4615 O 454.549 -0.461916 4.35658 0
M  V30 4616 C 456.05 -2.19356 3.85225 0
M  V30 4617 H 453.27 -0.189708 0.643624 0
M  V30 4618 H 455.814 0.0641359 2.04399 0
M  V30 4619 H 453.969 -2.10562 3.2518 0
M  V30 4620 H 454.383 -0.973215 5.15392 0
M  V30 4621 H 455.857 -2.65433 4.83993 0
M  V30 4622 H 456.334 -3.02457 3.18459 0
M  V30 4623 H 456.94 -1.54442 3.96267 0
M  V30 4624 N 455.255 -1.55392 -0.262866 0
M  V30 4625 C 456.218 -1.88181 -1.30846 0
M  V30 4626 C 457.218 -0.757079 -1.41862 0
M  V30 4627 O 458.408 -1.02519 -1.40838 0
M  V30 4628 C 455.54 -2.09609 -2.68844 0
M  V30 4629 H 456.733 -2.81659 -1.02997 0
M  V30 4630 H 454.286 -1.48039 -0.501414 0
M  V30 4631 H 455.021 -1.18547 -3.01856 0
M  V30 4632 H 454.806 -2.91508 -2.62231 0
M  V30 4633 H 456.296 -2.36215 -3.44372 0
M  V30 4634 N 456.733 0.527833 -1.48498 0
M  V30 4635 C 457.98 1.28354 -1.56625 0
M  V30 4636 C 458.308 1.93 -0.241096 0
M  V30 4637 O 457.563 1.79967 0.768798 0
M  V30 4638 C 457.862 2.39275 -2.65485 0
M  V30 4639 C 457.528 1.92268 -4.07853 0
M  V30 4640 C 456.19 1.79166 -4.46602 0
M  V30 4641 C 458.542 1.56771 -4.97064 0
M  V30 4642 C 455.87 1.28905 -5.72364 0
M  V30 4643 C 458.222 1.07972 -6.23318 0
M  V30 4644 C 456.886 0.934887 -6.60921 0
M  V30 4645 H 456.156 0.469682 -0.573131 0
M  V30 4646 H 458.803 0.588781 -1.82224 0
M  V30 4647 H 457.108 3.1443 -2.33754 0
M  V30 4648 H 458.805 2.974 -2.68988 0
M  V30 4649 H 455.395 2.03417 -3.77252 0
M  V30 4650 H 459.579 1.65753 -4.67803 0
M  V30 4651 H 454.835 1.16381 -6.00221 0
M  V30 4652 H 459.009 0.795775 -6.91838 0
M  V30 4653 H 456.636 0.543231 -7.58257 0
M  V30 4654 N 458.211 1.37122 0.776871 0
M  V30 4655 C 459.141 1.35164 1.90402 0
M  V30 4656 C 460.122 0.221069 1.68657 0
M  V30 4657 O 461.307 0.420642 1.8959 0
M  V30 4658 C 458.437 1.15274 3.27611 0
M  V30 4659 C 457.391 2.25289 3.63908 0
M  V30 4660 C 456.717 1.90527 4.99603 0
M  V30 4661 C 458.017 3.67446 3.71188 0
M  V30 4662 H 459.711 2.29482 1.92297 0
M  V30 4663 H 457.257 1.10465 0.923773 0
M  V30 4664 H 459.21 1.12536 4.06096 0
M  V30 4665 H 457.934 0.174102 3.26136 0
M  V30 4666 H 456.593 2.27174 2.87728 0
M  V30 4667 H 456.241 0.91206 4.94662 0
M  V30 4668 H 455.941 2.64193 5.24858 0
M  V30 4669 H 457.465 1.89367 5.80493 0
M  V30 4670 H 458.879 3.67719 4.39836 0
M  V30 4671 H 457.276 4.40123 4.07936 0
M  V30 4672 H 458.346 4.01443 2.71977 0
M  V30 4673 N 459.689 -1.00246 1.21608 0
M  V30 4674 C 461.105 -1.26435 0.973975 0
M  V30 4675 C 461.305 -1.98642 -0.338143 0
M  V30 4676 O 460.361 -2.29026 -1.06317 0
M  V30 4677 C 461.674 -2.08551 2.16626 0
M  V30 4678 C 463.222 -2.21769 2.20879 0
M  V30 4679 C 463.697 -3.07267 3.39633 0
M  V30 4680 N 465.188 -3.14855 3.39736 0
M  V30 4681 C 465.923 -3.81274 4.28273 0
M  V30 4682 N 465.419 -4.497 5.27012 0
M  V30 4683 N 467.212 -3.7794 4.16074 0
M  V30 4684 H 459.363 -0.518089 2.05984 0
M  V30 4685 H 461.626 -0.291368 0.902113 0
M  V30 4686 H 461.332 -1.62847 3.11727 0
M  V30 4687 H 461.206 -3.09303 2.15897 0
M  V30 4688 H 463.593 -2.66691 1.26332 0
M  V30 4689 H 463.674 -1.20478 2.25652 0
M  V30 4690 H 463.318 -2.63047 4.34475 0
M  V30 4691 H 463.248 -4.08678 3.321 0
M  V30 4692 H 465.739 -2.66147 2.6828 0
M  V30 4693 H 466.052 -4.98092 5.90867 0
M  V30 4694 H 464.397 -4.48479 5.30935 0
M  V30 4695 H 467.588 -3.23638 3.38195 0
M  V30 4696 H 467.761 -4.29424 4.85282 0
M  V30 4697 N 461.167 -1.02423 -1.1978 0
M  V30 4698 C 462.413 -0.719051 -1.89625 0
M  V30 4699 C 462.746 0.750083 -1.7913 0
M  V30 4700 O 462.021 1.54574 -1.18056 0
M  V30 4701 C 462.304 -1.16499 -3.40735 0
M  V30 4702 C 462.157 -2.695 -3.60125 0
M  V30 4703 C 463.476 -0.742166 -4.33797 0
M  V30 4704 H 460.595 -0.26269 -0.688595 0
M  V30 4705 H 463.237 -1.27333 -1.41018 0
M  V30 4706 H 461.387 -0.69341 -3.82262 0
M  V30 4707 H 463.059 -3.24569 -3.278 0
M  V30 4708 H 461.302 -3.10113 -3.03336 0
M  V30 4709 H 461.973 -2.95757 -4.66081 0
M  V30 4710 H 464.449 -1.1477 -3.99959 0
M  V30 4711 H 463.325 -1.08213 -5.38127 0
M  V30 4712 H 463.586 0.355747 -4.40666 0
M  V30 4713 N 462.645 1.35699 -0.801477 0
M  V30 4714 C 463.575 2.32436 -0.222658 0
M  V30 4715 C 464.556 1.5723 0.649057 0
M  V30 4716 O 465.741 1.85324 0.580387 0
M  V30 4717 C 462.871 3.41469 0.633719 0
M  V30 4718 C 461.825 4.27774 -0.139083 0
M  V30 4719 C 461.151 5.28082 0.838666 0
M  V30 4720 C 462.451 5.04946 -1.33517 0
M  V30 4721 H 464.145 2.81094 -1.03086 0
M  V30 4722 H 461.691 1.35146 -0.497155 0
M  V30 4723 H 463.644 4.08143 1.04868 0
M  V30 4724 H 462.368 2.91408 1.47475 0
M  V30 4725 H 461.027 3.62673 -0.535156 0
M  V30 4726 H 460.675 4.7429 1.67506 0
M  V30 4727 H 460.375 5.86695 0.32594 0
M  V30 4728 H 461.899 5.97628 1.25194 0
M  V30 4729 H 463.313 5.64593 -0.995349 0
M  V30 4730 H 461.71 5.7303 -1.78202 0
M  V30 4731 H 462.78 4.35886 -2.12442 0
M  V30 4732 N 464.123 0.554532 1.47522 0
M  V30 4733 C 465.071 -0.207765 2.3167 0
M  V30 4734 C 466.065 -0.911914 1.4276 0
M  V30 4735 O 467.271 -0.833504 1.59539 0
M  V30 4736 H 463.646 -0.0858726 0.747081 0
M  V30 4737 H 465.617 0.521178 2.93813 0
M  V30 4738 C 464.366 -1.2263 3.25357 0
M  V30 4739 H 463.689 -0.693887 3.93732 0
M  V30 4740 H 465.129 -1.73062 3.87073 0
M  V30 4741 C 463.588 -2.27278 2.4869 0
M  V30 4742 O 464.118 -3.34156 2.22941 0
M  V30 4743 N 462.324 -2.01134 2.09746 0
M  V30 4744 H 461.871 -1.14232 2.30887 0
M  V30 4745 H 461.829 -2.71369 1.58765 0
M  V30 4746 N 465.601 -1.54893 0.290851 0
M  V30 4747 C 467.017 -1.59476 -0.0628432 0
M  V30 4748 C 467.217 -1.30795 -1.5328 0
M  V30 4749 O 466.273 -1.07644 -2.28406 0
M  V30 4750 C 467.586 -2.98928 0.325962 0
M  V30 4751 C 469.134 -3.11799 0.273882 0
M  V30 4752 C 469.609 -4.53544 0.637359 0
M  V30 4753 N 471.1 -4.59433 0.589507 0
M  V30 4754 C 471.835 -5.67164 0.84335 0
M  V30 4755 N 471.331 -6.82975 1.16263 0
M  V30 4756 N 473.124 -5.56786 0.771091 0
M  V30 4757 H 465.275 -1.71798 1.24896 0
M  V30 4758 H 467.538 -0.801879 0.505663 0
M  V30 4759 H 467.244 -3.24805 1.34887 0
M  V30 4760 H 467.118 -3.75793 -0.325441 0
M  V30 4761 H 469.505 -2.85677 -0.739765 0
M  V30 4762 H 469.586 -2.37112 0.959766 0
M  V30 4763 H 469.23 -4.80394 1.64877 0
M  V30 4764 H 469.16 -5.26553 -0.0704866 0
M  V30 4765 H 471.651 -3.76245 0.353252 0
M  V30 4766 H 471.964 -7.61048 1.34257 0
M  V30 4767 H 470.309 -6.84552 1.20057 0
M  V30 4768 H 473.5 -4.65187 0.521383 0
M  V30 4769 H 473.673 -6.40664 0.972295 0
M  V30 4770 N 467.08 -0.0183926 -1.57589 0
M  V30 4771 C 468.357 0.700621 -1.82622 0
M  V30 4772 C 468.737 1.90951 -0.90005 0
M  V30 4773 O 468.085 2.28452 0.0469145 0
M  V30 4774 C 468.295 1.08899 -3.31575 0
M  V30 4775 C 469.643 1.48514 -3.9778 0
M  V30 4776 O 470.667 1.18227 -3.36007 0
M  V30 4777 O 469.526 2.04903 -5.06633 0
M  V30 4778 H 466.62 0.342743 -0.752633 0
M  V30 4779 H 469.166 -0.0452548 -1.6964 0
M  V30 4780 H 467.938 0.228113 -3.90635 0
M  V30 4781 H 467.561 1.89338 -3.49624 0
M  V30 4782 N 468.558 1.5553 0.254621 0
M  V30 4783 C 469.974 1.4778 0.602753 0
M  V30 4784 C 470.174 0.707047 1.88688 0
M  V30 4785 O 469.23 0.233288 2.5142 0
M  V30 4786 C 470.543 2.92133 0.712648 0
M  V30 4787 C 472.091 3.02458 0.805488 0
M  V30 4788 C 472.566 4.48102 0.947009 0
M  V30 4789 N 474.057 4.52008 1.01207 0
M  V30 4790 C 474.792 5.61939 1.1407 0
M  V30 4791 N 474.288 6.81697 1.23536 0
M  V30 4792 N 476.081 5.49719 1.17325 0
M  V30 4793 H 468.232 2.04085 -0.588463 0
M  V30 4794 H 470.495 0.926229 -0.202001 0
M  V30 4795 H 470.201 3.51332 -0.160766 0
M  V30 4796 H 470.075 3.42187 1.58707 0
M  V30 4797 H 472.462 2.43344 1.66936 0
M  V30 4798 H 472.543 2.55627 -0.0939266 0
M  V30 4799 H 472.187 5.07824 0.087725 0
M  V30 4800 H 472.117 4.92607 1.86135 0
M  V30 4801 H 474.608 3.65749 0.950577 0
M  V30 4802 H 474.921 7.61228 1.33236 0
M  V30 4803 H 473.266 6.84473 1.20508 0
M  V30 4804 H 476.457 4.55095 1.09573 0
M  V30 4805 H 476.63 6.35432 1.27005 0
M  V30 4806 N 470.036 -0.519951 1.48776 0
M  V30 4807 C 470.984 -1.64443 1.64503 0
M  V30 4808 C 471.978 -1.61501 0.511248 0
M  V30 4809 O 473.184 -1.66238 0.690294 0
M  V30 4810 H 469.559 -0.544776 0.518385 0
M  V30 4811 H 471.53 -1.48325 2.58925 0
M  V30 4812 C 470.279 -3.02673 1.71127 0
M  V30 4813 H 469.602 -3.05635 2.57735 0
M  V30 4814 H 471.042 -3.80941 1.86172 0
M  V30 4815 C 469.501 -3.33854 0.452032 0
M  V30 4816 O 470.031 -3.99385 -0.430678 0
M  V30 4817 N 468.237 -2.88825 0.32069 0
M  V30 4818 H 467.784 -2.35674 1.03998 0
M  V30 4819 H 467.742 -3.10056 -0.520814 0
M  V30 4820 N 471.514 -1.37532 -0.769588 0
M  V30 4821 C 472.744 -1.35861 -1.55645 0
M  V30 4822 C 473.152 0.0574398 -1.89113 0
M  V30 4823 O 472.495 1.03021 -1.52093 0
M  V30 4824 C 472.557 -2.13431 -2.89288 0
M  V30 4825 C 472.221 -3.62378 -2.78444 0
M  V30 4826 C 473.218 -4.56215 -2.49326 0
M  V30 4827 C 470.903 -4.05529 -2.96398 0
M  V30 4828 C 472.897 -5.91181 -2.38294 0
M  V30 4829 C 470.584 -5.40579 -2.84987 0
M  V30 4830 C 471.582 -6.33218 -2.55975 0
M  V30 4831 O 471.27 -7.65787 -2.44594 0
M  V30 4832 H 471.002 -0.467001 -0.48876 0
M  V30 4833 H 473.556 -1.81505 -0.961515 0
M  V30 4834 H 471.786 -1.62481 -3.50909 0
M  V30 4835 H 473.475 -2.04368 -3.50697 0
M  V30 4836 H 474.241 -4.24187 -2.35139 0
M  V30 4837 H 470.12 -3.33781 -3.1798 0
M  V30 4838 H 473.664 -6.63457 -2.15571 0
M  V30 4839 H 469.561 -5.72209 -2.98743 0
M  V30 4840 H 470.329 -7.76132 -2.59927 0
M  V30 4841 N 472.992 0.995999 -1.22138 0
M  V30 4842 C 474.22 1.77066 -1.07029 0
M  V30 4843 C 474.635 1.8495 0.379357 0
M  V30 4844 O 473.992 1.3174 1.26297 0
M  V30 4845 C 474.043 3.20533 -1.67155 0
M  V30 4846 O 473.764 3.13082 -3.06449 0
M  V30 4847 C 475.265 4.14461 -1.5728 0
M  V30 4848 H 472.485 0.556179 -0.375374 0
M  V30 4849 H 475.029 1.25238 -1.61666 0
M  V30 4850 H 473.184 3.6944 -1.16589 0
M  V30 4851 H 473.598 4.03283 -3.35355 0
M  V30 4852 H 475.072 5.1289 -2.04078 0
M  V30 4853 H 475.549 4.36005 -0.528795 0
M  V30 4854 H 476.155 3.71449 -2.07136 0
M  V30 4855 N 474.47 1.03057 1.19235 0
M  V30 4856 C 475.433 0.617418 2.20727 0
M  V30 4857 C 476.433 -0.319856 1.57587 0
M  V30 4858 O 477.623 -0.106633 1.73873 0
M  V30 4859 C 474.755 -0.096296 3.40764 0
M  V30 4860 H 475.948 1.51544 2.58794 0
M  V30 4861 H 473.501 0.821949 1.32942 0
M  V30 4862 H 474.236 -1.00859 3.08217 0
M  V30 4863 H 474.021 0.577217 3.87828 0
M  V30 4864 H 475.511 -0.372219 4.15938 0
M  V30 4865 N 475.948 -1.35272 0.808662 0
M  V30 4866 C 477.359 -1.81179 0.450688 0
M  V30 4867 C 477.71 -1.67143 -1.02751 0
M  V30 4868 O 476.835 -1.20325 -1.79864 0
M  V30 4869 C 477.43 -3.28943 0.811275 0
M  V30 4870 C 475.989 -3.72985 0.505871 0
M  V30 4871 C 475.136 -2.57229 1.03578 0
M  V30 4872 H 478.087 -1.2322 1.00012 0
M  V30 4873 H 478.108 -3.80342 0.109588 0
M  V30 4874 H 477.62 -3.39127 1.88718 0
M  V30 4875 H 475.721 -3.68349 -0.561209 0
M  V30 4876 H 475.834 -4.67677 1.03995 0
M  V30 4877 H 474.198 -2.50548 0.458005 0
M  V30 4878 H 474.981 -2.7019 2.11784 0
M  V30 4879 N 477.426 -0.562348 -1.47226 0
M  V30 4880 C 478.674 -0.0401371 -2.0206 0
M  V30 4881 C 478.995 1.3165 -1.43852 0
M  V30 4882 O 478.265 1.85976 -0.615599 0
M  V30 4883 H 476.845 -0.0118479 -0.746906 0
M  V30 4884 H 479.507 -0.73352 -1.8057 0
M  V30 4885 H 478.603 0.0441254 -3.12069 0
M  V30 4886 N 478.904 1.54736 -0.299062 0
M  V30 4887 C 480.152 1.99706 0.31017 0
M  V30 4888 C 480.473 1.18896 1.54559 0
M  V30 4889 O 479.743 0.284445 1.93824 0
M  V30 4890 H 478.323 0.737686 0.117596 0
M  V30 4891 H 480.985 1.9054 -0.409943 0
M  V30 4892 H 480.081 3.06596 0.58355 0
M  V30 4893 N 480.382 0.0267497 1.57577 0
M  V30 4894 C 481.63 -0.651116 1.91324 0
M  V30 4895 C 481.951 -1.72804 0.90353 0
M  V30 4896 O 481.221 -1.95822 -0.0552946 0
M  V30 4897 H 479.801 -0.243491 0.706202 0
M  V30 4898 H 482.463 0.0739935 1.94759 0
M  V30 4899 H 481.559 -1.10536 2.9187 0
M  V30 4900 N 481.861 -1.55662 -0.24637 0
M  V30 4901 C 482.793 -1.86811 -1.32794 0
M  V30 4902 C 483.806 -0.754413 -1.44265 0
M  V30 4903 O 484.995 -1.03253 -1.45606 0
M  V30 4904 C 482.095 -2.0397 -2.70646 0
M  V30 4905 C 481.268 -3.34832 -2.81436 0
M  V30 4906 C 480.327 -3.41727 -4.00136 0
M  V30 4907 O 479.353 -4.14934 -3.89639 0
M  V30 4908 N 480.555 -2.71058 -5.1333 0
M  V30 4909 H 483.32 -2.80174 -1.06409 0
M  V30 4910 H 480.881 -1.55906 -0.43647 0
M  V30 4911 H 482.873 -2.05924 -3.48393 0
M  V30 4912 H 481.443 -1.1735 -2.89738 0
M  V30 4913 H 480.663 -3.4519 -1.90361 0
M  V30 4914 H 481.951 -4.21085 -2.85595 0
M  V30 4915 H 481.349 -2.11314 -5.2475 0
M  V30 4916 H 479.906 -2.78704 -5.89209 0
M  V30 4917 N 483.339 0.512053 -1.4905 0
M  V30 4918 C 484.586 1.26686 -1.57978 0
M  V30 4919 C 484.914 1.92733 -0.261553 0
M  V30 4920 O 484.169 1.80772 0.749667 0
M  V30 4921 C 484.468 2.36446 -2.68008 0
M  V30 4922 C 484.134 1.87932 -4.09869 0
M  V30 4923 C 482.796 1.74419 -4.48477 0
M  V30 4924 C 485.148 1.5149 -4.98698 0
M  V30 4925 C 482.476 1.22827 -5.73699 0
M  V30 4926 C 484.828 1.01355 -6.24428 0
M  V30 4927 C 483.492 0.864735 -6.61875 0
M  V30 4928 H 482.762 0.463577 -0.578081 0
M  V30 4929 H 485.409 0.569421 -1.82838 0
M  V30 4930 H 483.714 3.11933 -2.37076 0
M  V30 4931 H 485.411 2.9453 -2.72127 0
M  V30 4932 H 482.001 1.99405 -3.79389 0
M  V30 4933 H 486.185 1.60782 -4.69535 0
M  V30 4934 H 481.441 1.10008 -6.01422 0
M  V30 4935 H 485.615 0.722351 -6.92644 0
M  V30 4936 H 483.242 0.462777 -7.5879 0
M  V30 4937 N 484.817 1.37938 0.762283 0
M  V30 4938 C 486.045 1.36883 1.55147 0
M  V30 4939 C 486.46 -0.0435348 1.8875 0
M  V30 4940 O 485.817 -1.00786 1.52146 0
M  V30 4941 C 485.868 2.21624 2.85596 0
M  V30 4942 O 485.589 3.57358 2.5343 0
M  V30 4943 C 487.09 2.28653 3.7978 0
M  V30 4944 H 484.31 0.468521 0.480343 0
M  V30 4945 H 486.854 1.81404 0.944079 0
M  V30 4946 H 485.009 1.80588 3.42734 0
M  V30 4947 H 485.423 4.01883 3.37032 0
M  V30 4948 H 486.897 2.9225 4.68288 0
M  V30 4949 H 487.374 1.29767 4.19592 0
M  V30 4950 H 487.98 2.70043 3.28568 0
M  V30 4951 N 486.295 -0.989507 1.22664 0
M  V30 4952 C 487.225 -2.09847 1.02404 0
M  V30 4953 C 488.206 -1.70007 -0.0561303 0
M  V30 4954 O 489.391 -1.93906 0.106748 0
M  V30 4955 C 486.521 -3.41996 0.604663 0
M  V30 4956 C 485.475 -3.95699 1.63115 0
M  V30 4957 C 484.801 -5.23936 1.0675 0
M  V30 4958 C 486.101 -4.25999 3.02196 0
M  V30 4959 H 487.795 -2.27054 1.95158 0
M  V30 4960 H 485.341 -1.09111 0.939727 0
M  V30 4961 H 487.294 -4.1899 0.45002 0
M  V30 4962 H 486.018 -3.24626 -0.35855 0
M  V30 4963 H 484.677 -3.2084 1.77362 0
M  V30 4964 H 484.325 -5.02909 0.0955422 0
M  V30 4965 H 484.025 -5.60833 1.75328 0
M  V30 4966 H 485.549 -6.0356 0.924516 0
M  V30 4967 H 486.963 -4.93777 2.91303 0
M  V30 4968 H 485.36 -4.74076 3.67929 0
M  V30 4969 H 486.43 -3.33636 3.51873 0
M  V30 4970 N 487.773 -1.03688 -1.18687 0
M  V30 4971 C 489.184 -0.766488 -1.70241 0
M  V30 4972 C 489.535 0.713052 -1.82784 0
M  V30 4973 O 488.66 1.55529 -1.50465 0
M  V30 4974 C 489.255 -1.38475 -3.09209 0
M  V30 4975 C 487.814 -1.16276 -3.5799 0
M  V30 4976 C 486.961 -1.4778 -2.34641 0
M  V30 4977 H 489.912 -1.20378 -1.03415 0
M  V30 4978 H 489.933 -0.785939 -3.72295 0
M  V30 4979 H 489.445 -2.46157 -3.00048 0
M  V30 4980 H 487.546 -0.104508 -3.72453 0
M  V30 4981 H 487.659 -1.8571 -4.41643 0
M  V30 4982 H 486.023 -0.897366 -2.38368 0
M  V30 4983 H 486.806 -2.56562 -2.28102 0
M  V30 4984 N 489.251 1.34841 -0.815825 0
M  V30 4985 C 490.499 1.98107 -0.399744 0
M  V30 4986 C 490.82 1.65019 1.03894 0
M  V30 4987 O 490.09 0.937311 1.72021 0
M  V30 4988 H 488.67 0.732827 -0.144823 0
M  V30 4989 H 491.332 1.64599 -1.0437 0
M  V30 4990 H 490.428 3.07856 -0.512965 0
M  V30 4991 N 490.729 0.570148 1.46925 0
M  V30 4992 C 492.145 0.23087 1.57921 0
M  V30 4993 C 492.345 -1.26676 1.56702 0
M  V30 4994 O 491.401 -2.04774 1.47729 0
M  V30 4995 C 492.714 0.868973 2.8787 0
M  V30 4996 C 494.262 0.841397 3.01479 0
M  V30 4997 C 494.737 1.45881 4.34146 0
M  V30 4998 N 496.228 1.42258 4.40814 0
M  V30 4999 C 496.963 1.8698 5.42057 0
M  V30 5000 N 496.459 2.39618 6.50042 0
M  V30 5001 N 498.252 1.77972 5.33181 0
M  V30 5002 H 490.403 1.54301 1.45962 0
M  V30 5003 H 492.666 0.644224 0.69547 0
M  V30 5004 H 492.372 1.922 2.94537 0
M  V30 5005 H 492.246 0.369682 3.75384 0
M  V30 5006 H 494.633 -0.202973 2.94401 0
M  V30 5007 H 494.714 1.37858 2.15474 0
M  V30 5008 H 494.358 2.50231 4.4198 0
M  V30 5009 H 494.288 0.896958 5.18905 0
M  V30 5010 H 496.779 1.03768 3.63374 0
M  V30 5011 H 497.092 2.71633 7.23488 0
M  V30 5012 H 495.437 2.43636 6.50897 0
M  V30 5013 H 498.628 1.36617 4.4772 0
M  V30 5014 H 498.801 2.13143 6.11943 0
M  V30 5015 N 492.207 -1.54576 0.307264 0
M  V30 5016 C 493.432 -2.05139 -0.305379 0
M  V30 5017 C 493.857 -1.18278 -1.46259 0
M  V30 5018 O 493.215 -0.188243 -1.8032 0
M  V30 5019 C 493.263 -3.53066 -0.733283 0
M  V30 5020 O 492.367 -3.69206 -1.83741 0
M  V30 5021 H 491.708 -0.661444 -0.0582105 0
M  V30 5022 H 494.238 -1.99569 0.450931 0
M  V30 5023 H 494.248 -3.95034 -1.02039 0
M  V30 5024 H 492.923 -4.15746 0.113198 0
M  V30 5025 H 491.5 -3.39143 -1.55037 0
M  V30 5026 N 493.685 -0.035106 -1.57561 0
M  V30 5027 C 494.615 0.942993 -2.13612 0
M  V30 5028 C 495.596 1.33531 -1.05373 0
M  V30 5029 O 496.781 1.41287 -1.33235 0
M  V30 5030 C 493.911 2.22332 -2.66807 0
M  V30 5031 C 492.865 1.97156 -3.79886 0
M  V30 5032 C 492.191 3.31506 -4.19533 0
M  V30 5033 C 493.491 1.30596 -5.05709 0
M  V30 5034 H 495.185 0.476179 -2.95589 0
M  V30 5035 H 492.731 0.227602 -1.4219 0
M  V30 5036 H 494.684 2.91142 -3.04654 0
M  V30 5037 H 493.408 2.7119 -1.81999 0
M  V30 5038 H 492.067 1.30763 -3.42486 0
M  V30 5039 H 491.715 3.78134 -3.31698 0
M  V30 5040 H 491.415 3.15465 -4.95738 0
M  V30 5041 H 492.939 4.01574 -4.59968 0
M  V30 5042 H 494.353 1.89416 -5.41105 0
M  V30 5043 H 492.75 1.24934 -5.86951 0
M  V30 5044 H 493.82 0.279742 -4.84092 0
M  V30 5045 N 495.163 1.55791 0.238111 0
M  V30 5046 C 496.096 1.86036 1.32158 0
M  V30 5047 C 497.074 0.716216 1.45976 0
M  V30 5048 O 498.258 0.962882 1.62052 0
M  V30 5049 C 495.385 2.05281 2.69402 0
M  V30 5050 C 494.431 3.27939 2.72687 0
M  V30 5051 S 495.264 4.84342 2.28413 0
M  V30 5052 C 496.42 5.06604 3.67565 0
M  V30 5053 H 496.653 2.77644 1.06306 0
M  V30 5054 H 494.186 1.48012 0.439537 0
M  V30 5055 H 496.144 2.17053 3.48423 0
M  V30 5056 H 494.805 1.14499 2.92487 0
M  V30 5057 H 493.998 3.38398 3.73501 0
M  V30 5058 H 493.6 3.14938 2.01717 0
M  V30 5059 H 495.892 4.94486 4.6313 0
M  V30 5060 H 496.835 6.08554 3.62033 0
M  V30 5061 H 497.243 4.34409 3.60485 0
M  V30 5062 N 496.642 -0.504142 1.49319 0
M  V30 5063 C 497.889 -1.25846 1.58647 0
M  V30 5064 C 498.217 -1.92592 0.27177 0
M  V30 5065 O 497.472 -1.81167 -0.74007 0
M  V30 5066 C 497.771 -2.35021 2.69258 0
M  V30 5067 C 497.437 -1.85755 4.1086 0
M  V30 5068 C 496.099 -1.72038 4.49395 0
M  V30 5069 C 498.451 -1.48844 4.99495 0
M  V30 5070 C 495.779 -1.19783 5.74342 0
M  V30 5071 C 498.131 -0.980422 6.24956 0
M  V30 5072 C 496.795 -0.829622 6.62324 0
M  V30 5073 H 496.065 -0.460505 0.580531 0
M  V30 5074 H 498.712 -0.559716 1.83138 0
M  V30 5075 H 497.017 -3.10672 2.38726 0
M  V30 5076 H 498.714 -2.93083 2.73685 0
M  V30 5077 H 495.304 -1.9739 3.80441 0
M  V30 5078 H 499.488 -1.5829 4.70381 0
M  V30 5079 H 494.744 -1.06817 6.01997 0
M  V30 5080 H 498.918 -0.685608 6.93017 0
M  V30 5081 H 496.545 -0.42253 7.59025 0
M  V30 5082 N 498.12 -1.38341 -0.754957 0
M  V30 5083 C 499.366 -1.34672 -1.51628 0
M  V30 5084 C 499.699 0.0636036 -1.94096 0
M  V30 5085 O 498.974 1.0245 -1.6533 0
M  V30 5086 C 499.257 -2.30116 -2.76981 0
M  V30 5087 C 499.11 -3.80003 -2.4066 0
M  V30 5088 C 500.429 -2.23715 -3.78998 0
M  V30 5089 H 497.548 -0.490517 -0.550056 0
M  V30 5090 H 500.19 -1.69178 -0.864807 0
M  V30 5091 H 498.34 -2.00821 -3.3257 0
M  V30 5092 H 500.012 -4.19966 -1.90856 0
M  V30 5093 H 498.255 -3.97751 -1.73137 0
M  V30 5094 H 498.926 -4.42244 -3.30339 0
M  V30 5095 H 501.402 -2.49574 -3.32945 0
M  V30 5096 H 500.278 -2.9261 -4.64403 0
M  V30 5097 H 500.539 -1.23554 -4.24484 0
M  V30 5098 N 499.598 0.982988 -1.23187 0
M  V30 5099 C 501.014 1.2487 -0.993967 0
M  V30 5100 C 501.214 1.99155 0.306498 0
M  V30 5101 O 500.27 2.30688 1.0266 0
M  V30 5102 C 501.583 2.05078 -2.19917 0
M  V30 5103 C 503.131 2.18227 -2.2438 0
M  V30 5104 C 503.606 3.01825 -3.44479 0
M  V30 5105 N 505.097 3.09411 -3.44702 0
M  V30 5106 C 505.832 3.74412 -4.34285 0
M  V30 5107 N 505.328 4.41259 -5.341 0
M  V30 5108 N 507.121 3.71273 -4.22035 0
M  V30 5109 H 499.272 0.485253 -2.06783 0
M  V30 5110 H 501.535 0.276979 -0.906635 0
M  V30 5111 H 501.241 1.57867 -3.14279 0
M  V30 5112 H 501.115 3.05829 -2.2079 0
M  V30 5113 H 503.502 2.64648 -1.30559 0
M  V30 5114 H 503.583 1.16873 -2.2754 0
M  V30 5115 H 503.227 2.56102 -4.38605 0
M  V30 5116 H 503.157 4.03342 -3.38559 0
M  V30 5117 H 505.648 2.61845 -2.7248 0
M  V30 5118 H 505.961 4.88629 -5.98717 0
M  V30 5119 H 504.306 4.39975 -5.38002 0
M  V30 5120 H 507.497 3.18217 -3.43301 0
M  V30 5121 H 507.67 4.21649 -4.92053 0
M  V30 5122 N 501.076 1.04316 1.18135 0
M  V30 5123 C 502.024 0.630175 2.23901 0
M  V30 5124 C 503.018 -0.344254 1.65865 0
M  V30 5125 O 504.224 -0.211273 1.78756 0
M  V30 5126 H 500.599 0.185578 0.728742 0
M  V30 5127 H 502.57 1.53253 2.56039 0
M  V30 5128 C 501.319 0.011666 3.47698 0
M  V30 5129 H 500.642 0.752526 3.92654 0
M  V30 5130 H 502.082 -0.240046 4.2332 0
M  V30 5131 C 500.541 -1.23913 3.13285 0
M  V30 5132 O 501.071 -2.32959 3.27251 0
M  V30 5133 N 499.277 -1.13338 2.67587 0
M  V30 5134 H 498.824 -0.246006 2.56423 0
M  V30 5135 H 498.782 -1.97116 2.44934 0
M  V30 5136 N 502.554 -1.34406 0.822964 0
M  V30 5137 C 503.8 -1.98578 0.411666 0
M  V30 5138 C 504.133 -1.65093 -1.02264 0
M  V30 5139 O 503.408 -0.92258 -1.71227 0
M  V30 5140 C 503.691 -3.54823 0.614235 0
M  V30 5141 C 503.544 -3.9805 2.09466 0
M  V30 5142 C 504.863 -4.40071 0.050221 0
M  V30 5143 H 501.982 -0.721355 0.151047 0
M  V30 5144 H 504.624 -1.59301 1.03554 0
M  V30 5145 H 502.774 -3.88411 0.0831774 0
M  V30 5146 H 504.446 -3.74795 2.68936 0
M  V30 5147 H 502.689 -3.4836 2.5851 0
M  V30 5148 H 503.36 -5.06819 2.18721 0
M  V30 5149 H 505.836 -4.13037 0.503953 0
M  V30 5150 H 504.712 -5.48452 0.221759 0
M  V30 5151 H 504.973 -4.29576 -1.04482 0
M  V30 5152 N 504.032 -0.577932 -1.46621 0
M  V30 5153 C 505.28 -0.061566 -2.02006 0
M  V30 5154 C 505.601 1.30117 -1.4524 0
M  V30 5155 O 504.871 1.85313 -0.63529 0
M  V30 5156 H 503.451 -0.0197692 -0.746738 0
M  V30 5157 H 506.113 -0.752631 -1.79782 0
M  V30 5158 H 505.209 0.0110238 -3.12098 0
M  V30 5159 N 505.51 1.54411 -0.315457 0
M  V30 5160 C 506.46 2.20772 0.569549 0
M  V30 5161 C 507.444 1.18551 1.08787 0
M  V30 5162 O 508.636 1.44213 1.02624 0
M  V30 5163 C 505.765 2.96293 1.73394 0
M  V30 5164 C 504.851 4.05844 1.2309 0
M  V30 5165 N 505.242 5.03822 0.446927 0
M  V30 5166 C 503.54 4.19648 1.51035 0
M  V30 5167 C 504.241 5.8143 0.17725 0
M  V30 5168 N 503.217 5.38245 0.761118 0
M  V30 5169 H 507.019 2.93877 -0.0368076 0
M  V30 5170 H 504.533 1.61949 -0.120915 0
M  V30 5171 H 506.53 3.42313 2.37965 0
M  V30 5172 H 505.19 2.24708 2.34386 0
M  V30 5173 H 506.201 5.17821 0.0905027 0
M  V30 5174 H 502.878 3.59274 2.1267 0
M  V30 5175 H 504.268 6.70369 -0.45335 0
M  V30 5176 N 506.988 0.0434614 1.5754 0
M  V30 5177 C 507.918 -0.931651 2.14109 0
M  V30 5178 C 508.899 -1.32971 1.06079 0
M  V30 5179 O 510.084 -1.40579 1.33982 0
M  V30 5180 C 507.214 -2.20914 2.67982 0
M  V30 5181 C 506.168 -1.95139 3.80926 0
M  V30 5182 C 505.494 -3.29276 4.21285 0
M  V30 5183 C 506.794 -1.27913 5.06395 0
M  V30 5184 H 508.488 -0.460497 2.95837 0
M  V30 5185 H 506.034 -0.220058 1.42309 0
M  V30 5186 H 507.987 -2.89522 3.06194 0
M  V30 5187 H 506.711 -2.70221 1.83434 0
M  V30 5188 H 505.37 -1.28945 3.43175 0
M  V30 5189 H 505.018 -3.76369 3.33699 0
M  V30 5190 H 504.718 -3.12831 4.97404 0
M  V30 5191 H 506.242 -3.99129 4.62091 0
M  V30 5192 H 507.656 -1.86544 5.42102 0
M  V30 5193 H 506.053 -1.2182 5.87605 0
M  V30 5194 H 507.123 -0.254066 4.84234 0
M  V30 5195 N 508.466 -1.55915 -0.229846 0
M  V30 5196 C 509.399 -1.86734 -1.3117 0
M  V30 5197 C 510.377 -0.723947 -1.45595 0
M  V30 5198 O 511.561 -0.971462 -1.61539 0
M  V30 5199 C 508.688 -2.06707 -2.68309 0
M  V30 5200 C 507.734 -3.2938 -2.70944 0
M  V30 5201 S 508.567 -4.85547 -2.25842 0
M  V30 5202 C 509.723 -5.08546 -3.64873 0
M  V30 5203 H 509.956 -2.78204 -1.04832 0
M  V30 5204 H 507.489 -1.48243 -0.431681 0
M  V30 5205 H 509.447 -2.18898 -3.47267 0
M  V30 5206 H 508.108 -1.16049 -2.91876 0
M  V30 5207 H 507.301 -3.40374 -3.71701 0
M  V30 5208 H 506.903 -3.16004 -2.00044 0
M  V30 5209 H 509.195 -4.96935 -4.60502 0
M  V30 5210 H 510.138 -6.10465 -3.58801 0
M  V30 5211 H 510.546 -4.36314 -3.58176 0
M  V30 5212 N 509.944 0.496216 -1.49584 0
M  V30 5213 C 511.172 1.27394 -1.63029 0
M  V30 5214 C 511.587 1.86344 -0.303569 0
M  V30 5215 O 510.944 1.68057 0.711547 0
M  V30 5216 C 510.995 2.40077 -2.70269 0
M  V30 5217 O 510.716 1.83549 -3.97796 0
M  V30 5218 C 512.217 3.31372 -2.94462 0
M  V30 5219 H 509.437 0.386211 -0.54871 0
M  V30 5220 H 511.981 0.595163 -1.95648 0
M  V30 5221 H 510.136 3.03775 -2.40415 0
M  V30 5222 H 510.55 2.57561 -4.56905 0
M  V30 5223 H 512.024 4.06707 -3.73221 0
M  V30 5224 H 512.501 3.88654 -2.0456 0
M  V30 5225 H 513.107 2.73435 -3.25751 0
M  V30 5226 N 511.423 1.38739 0.74761 0
M  V30 5227 C 512.371 1.36573 1.88283 0
M  V30 5228 C 513.365 0.250712 1.67534 0
M  V30 5229 O 514.571 0.420073 1.7503 0
M  V30 5230 H 510.946 0.42619 0.619569 0
M  V30 5231 H 512.917 2.32356 1.87226 0
M  V30 5232 C 511.666 1.21361 3.25832 0
M  V30 5233 H 510.989 2.06424 3.42388 0
M  V30 5234 H 512.429 1.23901 4.05493 0
M  V30 5235 C 510.888 -0.0790099 3.36807 0
M  V30 5236 O 511.418 -1.05385 3.8763 0
M  V30 5237 N 509.624 -0.13785 2.90273 0
M  V30 5238 H 509.171 0.656128 2.49104 0
M  V30 5239 H 509.129 -1.00228 2.97996 0
M  V30 5240 N 512.901 -0.976442 1.23707 0
M  V30 5241 C 514.178 -1.69296 0.979699 0
M  V30 5242 C 514.558 -2.0508 -0.500555 0
M  V30 5243 O 513.906 -1.74708 -1.47273 0
M  V30 5244 C 514.116 -2.93143 1.89389 0
M  V30 5245 C 515.464 -3.65572 2.15968 0
M  V30 5246 O 516.488 -3.03184 1.86971 0
M  V30 5247 O 515.347 -4.77859 2.65167 0
M  V30 5248 H 512.441 -0.739708 0.369812 0
M  V30 5249 H 514.987 -1.03131 1.34767 0
M  V30 5250 H 513.759 -2.63327 2.89439 0
M  V30 5251 H 513.382 -3.67044 1.52854 0
M  V30 5252 N 514.379 -1.04941 -1.1758 0
M  V30 5253 C 515.342 -0.652456 -2.19717 0
M  V30 5254 C 516.342 0.294745 -1.58076 0
M  V30 5255 O 517.532 0.0789579 -1.74021 0
M  V30 5256 C 514.664 0.0420712 -3.40874 0
M  V30 5257 H 515.857 -1.55642 -2.5635 0
M  V30 5258 H 513.41 -0.842995 -1.31618 0
M  V30 5259 H 514.145 0.95943 -3.09783 0
M  V30 5260 H 513.93 -0.638844 -3.86861 0
M  V30 5261 H 515.42 0.306 -4.16477 0
M  V30 5262 N 515.857 1.33968 -0.830081 0
M  V30 5263 C 517.106 1.97323 -0.417928 0
M  V30 5264 C 517.419 1.6652 1.02618 0
M  V30 5265 O 518.625 2.2342 1.54259 0
M  V30 5266 C 517.081 3.53099 -0.696359 0
M  V30 5267 C 516.689 3.92788 -2.15457 0
M  V30 5268 C 518.433 4.23049 -0.350724 0
M  V30 5269 C 516.34 5.41506 -2.37751 0
M  V30 5270 H 515.27 0.738409 -0.152541 0
M  V30 5271 H 517.921 1.52711 -1.01744 0
M  V30 5272 H 516.303 3.95991 -0.0265904 0
M  V30 5273 H 517.477 3.6098 -2.86408 0
M  V30 5274 H 515.792 3.35795 -2.46232 0
M  V30 5275 H 518.389 5.32403 -0.495036 0
M  V30 5276 H 518.732 4.10279 0.705476 0
M  V30 5277 H 519.265 3.85657 -0.975362 0
M  V30 5278 H 516.004 5.5927 -3.41903 0
M  V30 5279 H 515.524 5.74804 -1.7135 0
M  V30 5280 H 517.203 6.0828 -2.20465 0
M  V30 5281 N 517.335 0.585699 1.46312 0
M  V30 5282 C 518.581 0.0725284 2.0267 0
M  V30 5283 C 518.914 -1.28523 1.45586 0
M  V30 5284 O 518.189 -1.84283 0.622101 0
M  V30 5285 C 518.472 0.0099788 3.60099 0
M  V30 5286 C 518.325 1.39685 4.27561 0
M  V30 5287 C 519.644 -0.689117 4.34671 0
M  V30 5288 H 516.763 0.0278307 0.736474 0
M  V30 5289 H 519.405 0.753472 1.74421 0
M  V30 5290 H 517.555 -0.56992 3.84297 0
M  V30 5291 H 519.227 2.02215 4.14617 0
M  V30 5292 H 517.47 1.96374 3.86807 0
M  V30 5293 H 518.141 1.30553 5.36339 0
M  V30 5294 H 520.617 -0.196446 4.15636 0
M  V30 5295 H 519.493 -0.701921 5.44393 0
M  V30 5296 H 519.754 -1.75101 4.05946 0
M  V30 5297 N 518.813 -1.54241 0.323641 0
M  V30 5298 C 520.09 -1.92741 -0.333181 0
M  V30 5299 C 520.47 -1.25326 -1.69872 0
M  V30 5300 O 519.818 -0.396991 -2.25025 0
M  V30 5301 C 520.028 -3.46399 -0.425322 0
M  V30 5302 C 521.376 -4.19029 -0.68557 0
M  V30 5303 O 522.4 -3.52555 -0.50824 0
M  V30 5304 O 521.259 -5.36751 -1.02767 0
M  V30 5305 H 518.353 -0.804811 -0.190286 0
M  V30 5306 H 520.899 -1.65542 0.373361 0
M  V30 5307 H 519.671 -3.87643 0.533737 0
M  V30 5308 H 519.294 -3.79704 -1.17944 0
M  V30 5309 N 520.291 -0.0518155 -1.57515 0
M  V30 5310 C 521.519 0.631395 -1.9703 0
M  V30 5311 C 521.934 1.64341 -0.92938 0
M  V30 5312 O 521.291 1.82296 0.0863266 0
M  V30 5313 C 521.342 1.31774 -3.36627 0
M  V30 5314 O 521.063 0.346247 -4.3673 0
M  V30 5315 C 522.564 2.09065 -3.90905 0
M  V30 5316 H 519.784 0.172576 -0.648428 0
M  V30 5317 H 522.328 -0.118306 -2.04158 0
M  V30 5318 H 520.483 2.01867 -3.30649 0
M  V30 5319 H 520.897 0.836226 -5.17791 0
M  V30 5320 H 522.371 2.52508 -4.9086 0
M  V30 5321 H 522.848 2.93908 -3.26366 0
M  V30 5322 H 523.454 1.43882 -4.00223 0
M  V30 5323 N 521.769 1.56035 0.221574 0
M  V30 5324 C 523.046 1.69837 0.970301 0
M  V30 5325 C 523.426 0.599065 2.02421 0
M  V30 5326 O 522.774 -0.393929 2.25079 0
M  V30 5327 C 522.984 3.11148 1.58076 0
M  V30 5328 C 524.332 3.70555 2.07302 0
M  V30 5329 O 525.356 3.14109 1.6797 0
M  V30 5330 O 524.215 4.69562 2.79596 0
M  V30 5331 H 521.309 0.691727 0.453257 0
M  V30 5332 H 523.855 1.68353 0.213358 0
M  V30 5333 H 522.627 3.82617 0.819759 0
M  V30 5334 H 522.25 3.16749 2.40324 0
M  V30 5335 N 523.247 -0.488276 1.49845 0
M  V30 5336 C 524.495 -1.23911 1.59657 0
M  V30 5337 C 524.816 -1.92816 0.291005 0
M  V30 5338 O 524.086 -1.83328 -0.690485 0
M  V30 5339 H 522.666 -0.460357 0.588286 0
M  V30 5340 H 525.328 -0.564794 1.86537 0
M  V30 5341 H 524.424 -1.99625 2.39909 0
M  V30 5342 N 524.725 -1.39134 -0.740242 0
M  V30 5343 C 525.95 -1.39518 -1.53459 0
M  V30 5344 C 526.375 0.00968883 -1.88098 0
M  V30 5345 O 525.733 0.995312 -1.51536 0
M  V30 5346 C 525.781 -2.26981 -2.802 0
M  V30 5347 O 524.885 -1.69609 -3.75908 0
M  V30 5348 H 524.226 -0.475328 -0.463637 0
M  V30 5349 H 526.756 -1.83064 -0.913717 0
M  V30 5350 H 526.766 -2.41309 -3.28989 0
M  V30 5351 H 525.441 -3.29081 -2.5432 0
M  V30 5352 H 524.018 -1.64495 -3.34658 0
M  V30 5353 N 526.204 0.969867 -1.24223 0
M  V30 5354 C 527.114 2.09806 -1.0497 0
M  V30 5355 C 528.13 1.73998 0.00886455 0
M  V30 5356 O 529.306 2.00513 -0.188848 0
M  V30 5357 C 526.371 3.40467 -0.654452 0
M  V30 5358 C 525.432 3.90236 -1.78926 0
M  V30 5359 C 524.665 5.14662 -1.41277 0
M  V30 5360 O 524.888 5.69602 -0.301632 0
M  V30 5361 O 523.822 5.58761 -2.23763 0
M  V30 5362 H 527.648 2.28942 -1.99548 0
M  V30 5363 H 525.233 1.08197 -1.03023 0
M  V30 5364 H 527.115 4.19039 -0.445452 0
M  V30 5365 H 525.79 3.22636 0.262216 0
M  V30 5366 H 524.697 3.12735 -2.05299 0
M  V30 5367 H 526.03 4.1254 -2.68462 0
M  V30 5368 N 527.682 1.05563 1.17022 0
M  V30 5369 C 528.928 0.769074 1.87652 0
M  V30 5370 C 529.261 -0.702326 1.81055 0
M  V30 5371 O 528.536 -1.5139 1.22112 0
M  V30 5372 C 528.819 1.25492 3.37526 0
M  V30 5373 C 528.672 2.78953 3.52853 0
M  V30 5374 C 529.991 0.856919 4.31677 0
M  V30 5375 H 527.11 0.280854 0.681388 0
M  V30 5376 H 529.752 1.31027 1.37593 0
M  V30 5377 H 527.902 0.794516 3.80289 0
M  V30 5378 H 529.574 3.33146 3.19079 0
M  V30 5379 H 527.817 3.18046 2.95007 0
M  V30 5380 H 528.488 3.08011 4.58076 0
M  V30 5381 H 530.964 1.25334 3.96775 0
M  V30 5382 H 529.84 1.22443 5.35069 0
M  V30 5383 H 530.101 -0.238787 4.41455 0
M  V30 5384 N 529.16 -1.33526 0.837174 0
M  V30 5385 C 530.407 -1.97837 0.432064 0
M  V30 5386 C 530.735 -1.66324 -1.00829 0
M  V30 5387 O 529.99 -0.93448 -1.71948 0
M  V30 5388 C 530.289 -3.52367 0.597675 0
M  V30 5389 C 529.955 -4.03826 2.00587 0
M  V30 5390 C 528.617 -4.1759 2.39106 0
M  V30 5391 C 530.969 -4.31333 2.92576 0
M  V30 5392 C 528.297 -4.56195 3.68921 0
M  V30 5393 C 530.649 -4.7139 4.2187 0
M  V30 5394 C 529.313 -4.8336 4.60347 0
M  V30 5395 H 528.583 -0.723937 0.158104 0
M  V30 5396 H 531.23 -1.5923 1.06387 0
M  V30 5397 H 529.535 -3.91624 -0.117452 0
M  V30 5398 H 531.232 -4.00126 0.26454 0
M  V30 5399 H 527.822 -3.93586 1.69671 0
M  V30 5400 H 532.006 -4.20224 2.64056 0
M  V30 5401 H 527.262 -4.63655 3.9854 0
M  V30 5402 H 531.436 -4.91631 4.93226 0
M  V30 5403 H 529.063 -5.1303 5.60985 0
M  V30 5404 N 530.638 -0.59345 -1.46 0
M  V30 5405 C 531.548 0.135817 -2.34207 0
M  V30 5406 C 532.564 0.875008 -1.50398 0
M  V30 5407 O 533.74 0.835778 -1.83239 0
M  V30 5408 C 530.805 1.12977 -3.27776 0
M  V30 5409 C 529.866 0.394081 -4.27487 0
M  V30 5410 C 529.099 1.34068 -5.16586 0
M  V30 5411 O 529.322 2.5778 -5.08828 0
M  V30 5412 O 528.256 0.845426 -5.95933 0
M  V30 5413 H 532.082 -0.588691 -2.9794 0
M  V30 5414 H 529.667 -0.353784 -1.45151 0
M  V30 5415 H 531.549 1.70261 -3.85473 0
M  V30 5416 H 530.224 1.83556 -2.66625 0
M  V30 5417 H 529.131 -0.220869 -3.73447 0
M  V30 5418 H 530.464 -0.270939 -4.91454 0
M  V30 5419 N 532.116 1.54067 -0.331816 0
M  V30 5420 C 533.364 2.00319 0.267739 0
M  V30 5421 C 533.685 1.22148 1.52003 0
M  V30 5422 O 532.955 0.325494 1.93177 0
M  V30 5423 H 531.535 0.740014 0.101922 0
M  V30 5424 H 534.197 1.89628 -0.450267 0
M  V30 5425 H 533.293 3.07765 0.518385 0
M  V30 5426 N 533.594 0.0601682 1.57485 0
M  V30 5427 C 534.843 -0.611101 1.9222 0
M  V30 5428 C 535.156 -1.71469 0.941159 0
M  V30 5429 O 536.362 -2.44473 1.18089 0
M  V30 5430 C 534.818 -1.13832 3.41424 0
M  V30 5431 C 534.426 -0.0663596 4.47951 0
M  V30 5432 C 536.17 -1.78432 3.85178 0
M  V30 5433 C 534.077 -0.606965 5.88277 0
M  V30 5434 H 533.007 -0.232033 0.71741 0
M  V30 5435 H 535.658 0.130518 1.83035 0
M  V30 5436 H 534.04 -1.93254 3.45643 0
M  V30 5437 H 535.214 0.707682 4.55333 0
M  V30 5438 H 533.529 0.482715 4.13593 0
M  V30 5439 H 536.126 -2.1989 4.87394 0
M  V30 5440 H 536.469 -2.63966 3.21913 0
M  V30 5441 H 537.002 -1.05651 3.83514 0
M  V30 5442 H 533.741 0.21095 6.5516 0
M  V30 5443 H 533.261 -1.34879 5.84438 0
M  V30 5444 H 534.94 -1.08704 6.37803 0
M  V30 5445 N 535.072 -1.5615 -0.213296 0
M  V30 5446 C 536.005 -1.88115 -1.29182 0
M  V30 5447 C 536.983 -0.739348 -1.44819 0
M  V30 5448 O 538.167 -0.988541 -1.605 0
M  V30 5449 C 535.294 -2.09541 -2.66102 0
M  V30 5450 C 534.34 -3.32236 -2.67436 0
M  V30 5451 S 535.173 -4.87915 -2.20679 0
M  V30 5452 C 536.329 -5.12387 -3.59458 0
M  V30 5453 H 536.562 -2.793 -1.01876 0
M  V30 5454 H 534.095 -1.48692 -0.415934 0
M  V30 5455 H 536.053 -2.22568 -3.44925 0
M  V30 5456 H 534.714 -1.19138 -2.90628 0
M  V30 5457 H 533.907 -3.44297 -3.6807 0
M  V30 5458 H 533.509 -3.18108 -1.96681 0
M  V30 5459 H 535.801 -5.01791 -4.55205 0
M  V30 5460 H 536.744 -6.14236 -3.52306 0
M  V30 5461 H 537.152 -4.40089 -3.53528 0
M  V30 5462 N 536.55 0.480323 -1.50102 0
M  V30 5463 C 537.827 1.24159 -1.51142 0
M  V30 5464 C 538.207 2.09605 -0.250818 0
M  V30 5465 O 537.555 2.15274 0.766118 0
M  V30 5466 C 537.765 2.08057 -2.80202 0
M  V30 5467 C 539.113 2.66556 -3.30504 0
M  V30 5468 O 540.137 2.18308 -2.81461 0
M  V30 5469 O 538.996 3.54442 -4.15973 0
M  V30 5470 H 536.09 0.562928 -0.605839 0
M  V30 5471 H 538.636 0.492899 -1.62384 0
M  V30 5472 H 537.408 1.45032 -3.6343 0
M  V30 5473 H 537.031 2.90079 -2.71919 0
M  V30 5474 N 538.028 1.39524 0.732853 0
M  V30 5475 C 538.991 1.38189 1.82857 0
M  V30 5476 C 539.991 0.278624 1.58368 0
M  V30 5477 O 541.181 0.536639 1.65728 0
M  V30 5478 C 538.313 1.15661 3.2068 0
M  V30 5479 H 539.506 2.35692 1.85444 0
M  V30 5480 H 537.059 1.2512 0.936728 0
M  V30 5481 H 537.794 0.188482 3.23752 0
M  V30 5482 H 537.579 1.95559 3.39852 0
M  V30 5483 H 539.069 1.17472 4.00737 0
M  V30 5484 N 539.506 -0.963266 1.24736 0
M  V30 5485 C 540.436 -2.07628 1.06832 0
M  V30 5486 C 541.417 -1.70088 -0.0200566 0
M  V30 5487 O 542.602 -1.93636 0.147854 0
M  V30 5488 C 539.732 -3.40636 0.677069 0
M  V30 5489 C 538.686 -3.9215 1.71471 0
M  V30 5490 C 538.012 -5.21553 1.1784 0
M  V30 5491 C 539.312 -4.19493 3.11164 0
M  V30 5492 H 541.006 -2.22864 1.9993 0
M  V30 5493 H 538.552 -1.07093 0.96266 0
M  V30 5494 H 540.505 -4.17941 0.538792 0
M  V30 5495 H 539.229 -3.25313 -0.289612 0
M  V30 5496 H 537.888 -3.17005 1.84128 0
M  V30 5497 H 537.536 -5.02593 0.202195 0
M  V30 5498 H 537.236 -5.56988 1.87185 0
M  V30 5499 H 538.76 -6.01463 1.05233 0
M  V30 5500 H 540.174 -4.87487 3.01711 0
M  V30 5501 H 538.571 -4.66165 3.77902 0
M  V30 5502 H 539.641 -3.26097 3.58871 0
M  V30 5503 N 540.985 -1.06182 -1.16461 0
M  V30 5504 C 542.232 -0.777863 -1.86964 0
M  V30 5505 C 542.56 0.695602 -1.81636 0
M  V30 5506 O 541.815 1.52532 -1.22607 0
M  V30 5507 C 542.114 -1.21633 -3.36066 0
M  V30 5508 C 541.78 -2.69371 -3.61594 0
M  V30 5509 C 540.442 -3.09727 -3.6827 0
M  V30 5510 C 542.794 -3.64791 -3.7226 0
M  V30 5511 C 540.122 -4.44345 -3.83112 0
M  V30 5512 C 542.474 -4.99155 -3.88623 0
M  V30 5513 C 541.138 -5.39149 -3.93541 0
M  V30 5514 H 540.408 -0.28464 -0.68415 0
M  V30 5515 H 543.055 -1.33071 -1.37711 0
M  V30 5516 H 541.36 -0.582651 -3.87443 0
M  V30 5517 H 543.057 -0.973682 -3.88999 0
M  V30 5518 H 539.647 -2.37124 -3.57029 0
M  V30 5519 H 543.831 -3.34746 -3.66413 0
M  V30 5520 H 539.087 -4.74819 -3.85172 0
M  V30 5521 H 543.261 -5.72976 -3.95817 0
M  V30 5522 H 540.888 -6.43464 -4.04794 0
M  V30 5523 N 542.463 1.3308 -0.844243 0
M  V30 5524 C 543.691 2.01808 -0.456203 0
M  V30 5525 C 544.106 1.63498 0.944131 0
M  V30 5526 O 543.463 0.85102 1.61443 0
M  V30 5527 C 543.514 3.56922 -0.573513 0
M  V30 5528 O 543.235 3.93851 -1.91868 0
M  V30 5529 C 544.736 4.42922 -0.183125 0
M  V30 5530 H 541.956 0.646273 -0.180477 0
M  V30 5531 H 544.5 1.69891 -1.1383 0
M  V30 5532 H 542.655 3.87352 0.0607367 0
M  V30 5533 H 543.069 4.88564 -1.90802 0
M  V30 5534 H 544.543 5.51093 -0.316241 0
M  V30 5535 H 545.02 4.30386 0.875477 0
M  V30 5536 H 545.626 4.1786 -0.792027 0
M  V30 5537 N 543.941 0.601185 1.45683 0
M  V30 5538 C 545.189 0.0936957 2.01883 0
M  V30 5539 C 545.51 -1.2779 1.47291 0
M  V30 5540 O 544.78 -1.84279 0.664691 0
M  V30 5541 H 543.36 0.0316466 0.746329 0
M  V30 5542 H 546.022 0.781137 1.78562 0
M  V30 5543 H 545.118 0.0386297 3.12076 0
M  V30 5544 N 545.419 -1.53889 0.339982 0
M  V30 5545 C 546.349 -2.27843 -0.510856 0
M  V30 5546 C 547.33 -1.29267 -1.10563 0
M  V30 5547 O 548.515 -1.58104 -1.12768 0
M  V30 5548 C 545.645 -3.04857 -1.66372 0
M  V30 5549 C 544.599 -4.10907 -1.19746 0
M  V30 5550 C 543.925 -4.75855 -2.43857 0
M  V30 5551 C 545.225 -5.21435 -0.300501 0
M  V30 5552 H 546.919 -2.99212 0.106067 0
M  V30 5553 H 544.465 -1.43904 0.0524533 0
M  V30 5554 H 546.418 -3.5533 -2.26537 0
M  V30 5555 H 545.142 -2.31133 -2.30749 0
M  V30 5556 H 543.801 -3.61342 -0.618654 0
M  V30 5557 H 543.449 -3.9873 -3.06633 0
M  V30 5558 H 543.149 -5.47502 -2.13343 0
M  V30 5559 H 544.673 -5.2911 -3.04754 0
M  V30 5560 H 546.087 -5.67565 -0.80889 0
M  V30 5561 H 544.484 -6.00036 -0.0874076 0
M  V30 5562 H 545.554 -4.80328 0.664321 0
M  V30 5563 N 546.897 -0.0685191 -1.57451 0
M  V30 5564 C 548.146 0.600898 -1.92541 0
M  V30 5565 C 548.459 1.70967 -0.950239 0
M  V30 5566 O 549.665 2.43844 -1.19384 0
M  V30 5567 C 548.121 1.12019 -3.42023 0
M  V30 5568 C 547.729 0.0426028 -4.4798 0
M  V30 5569 C 549.473 1.76386 -3.86119 0
M  V30 5570 C 547.38 0.575759 -5.88591 0
M  V30 5571 H 546.31 0.228225 -0.71863 0
M  V30 5572 H 548.961 -0.140223 -1.82963 0
M  V30 5573 H 547.343 1.91418 -3.46663 0
M  V30 5574 H 548.517 -0.73182 -4.54952 0
M  V30 5575 H 546.832 -0.504642 -4.13331 0
M  V30 5576 H 549.429 2.17302 -4.88553 0
M  V30 5577 H 549.772 2.62255 -3.23308 0
M  V30 5578 H 550.305 1.03615 -3.84069 0
M  V30 5579 H 547.044 -0.245691 -6.55039 0
M  V30 5580 H 546.564 1.31778 -5.85145 0
M  V30 5581 H 548.243 1.0532 -6.3837 0
M  V30 5582 N 548.375 1.56261 0.205012 0
M  V30 5583 C 549.338 1.92908 1.23771 0
M  V30 5584 C 550.338 0.809208 1.38955 0
M  V30 5585 O 551.528 1.07676 1.36936 0
M  V30 5586 C 548.66 2.19442 2.60879 0
M  V30 5587 H 549.853 2.85287 0.924728 0
M  V30 5588 H 547.406 1.49798 0.446125 0
M  V30 5589 H 548.141 1.29668 2.97248 0
M  V30 5590 H 547.926 3.0104 2.51232 0
M  V30 5591 H 549.416 2.48833 3.35368 0
M  V30 5592 N 549.853 -0.472356 1.50355 0
M  V30 5593 C 551.102 -1.2213 1.60522 0
M  V30 5594 C 551.415 -1.9312 0.310466 0
M  V30 5595 O 552.621 -2.69936 0.291029 0
M  V30 5596 C 551.077 -2.21909 2.83345 0
M  V30 5597 C 550.685 -1.56727 4.19691 0
M  V30 5598 C 552.429 -2.97453 3.02856 0
M  V30 5599 C 550.336 -2.54785 5.33703 0
M  V30 5600 H 549.266 -0.459543 0.597776 0
M  V30 5601 H 551.917 -0.491922 1.76783 0
M  V30 5602 H 550.299 -2.98133 2.60639 0
M  V30 5603 H 551.473 -0.863007 4.52646 0
M  V30 5604 H 549.788 -0.934685 4.05774 0
M  V30 5605 H 552.385 -3.70838 3.85205 0
M  V30 5606 H 552.728 -3.56764 2.14534 0
M  V30 5607 H 553.261 -2.28342 3.25737 0
M  V30 5608 H 550 -2.00214 6.24175 0
M  V30 5609 H 549.52 -3.23367 5.05167 0
M  V30 5610 H 551.199 -3.16639 5.64224 0
M  V30 5611 N 551.331 -1.39911 -0.725443 0
M  V30 5612 C 552.281 -1.35878 -1.83088 0
M  V30 5613 C 553.265 -0.237989 -1.5913 0
M  V30 5614 O 554.457 -0.476302 -1.70471 0
M  V30 5615 C 551.586 -1.21403 -3.21117 0
M  V30 5616 C 550.672 -2.38223 -3.50871 0
M  V30 5617 N 551.063 -3.63703 -3.51502 0
M  V30 5618 C 549.361 -2.31388 -3.81281 0
M  V30 5619 C 550.062 -4.4101 -3.79322 0
M  V30 5620 N 549.038 -3.7072 -3.97577 0
M  V30 5621 H 552.84 -2.3085 -1.81895 0
M  V30 5622 H 550.354 -1.33543 -0.924125 0
M  V30 5623 H 552.351 -1.16597 -4.00263 0
M  V30 5624 H 551.011 -0.273902 -3.23543 0
M  V30 5625 H 552.022 -3.96998 -3.32586 0
M  V30 5626 H 548.699 -1.45689 -3.91256 0
M  V30 5627 H 550.089 -5.49819 -3.86198 0
M  V30 5628 N 552.809 0.956637 -1.25245 0
M  V30 5629 C 554.057 1.69764 -1.09657 0
M  V30 5630 C 554.378 1.91583 0.363464 0
M  V30 5631 O 553.648 1.50149 1.25825 0
M  V30 5632 H 552.228 0.629097 -0.402798 0
M  V30 5633 H 554.89 1.15026 -1.57337 0
M  V30 5634 H 553.986 2.67769 -1.60331 0
M  V30 5635 N 554.287 1.06798 1.15896 0
M  V30 5636 C 555.217 0.704677 2.22613 0
M  V30 5637 C 556.198 -0.305252 1.67339 0
M  V30 5638 O 557.383 -0.179247 1.93371 0
M  V30 5639 C 554.513 0.0957325 3.47168 0
M  V30 5640 C 553.467 1.0322 4.15367 0
M  V30 5641 C 552.793 0.286293 5.33933 0
M  V30 5642 C 554.093 2.36341 4.65768 0
M  V30 5643 H 555.787 1.59688 2.53259 0
M  V30 5644 H 553.333 0.769257 1.21731 0
M  V30 5645 H 555.286 -0.170333 4.21056 0
M  V30 5646 H 554.01 -0.831516 3.15838 0
M  V30 5647 H 552.669 1.28309 3.43413 0
M  V30 5648 H 552.317 -0.644237 4.98857 0
M  V30 5649 H 552.017 0.910436 5.80504 0
M  V30 5650 H 553.541 0.0278938 6.10594 0
M  V30 5651 H 554.955 2.1561 5.31211 0
M  V30 5652 H 553.352 2.94299 5.2298 0
M  V30 5653 H 554.422 2.99047 3.81705 0
M  V30 5654 N 555.766 -1.3263 0.851289 0
M  V30 5655 C 556.713 -2.28952 0.291469 0
M  V30 5656 C 557.683 -1.54897 -0.599676 0
M  V30 5657 O 558.868 -1.83137 -0.535305 0
M  V30 5658 C 556.008 -3.41206 -0.516992 0
M  V30 5659 C 555.121 -4.30148 0.399566 0
M  V30 5660 C 554.256 -5.29527 -0.4212 0
M  V30 5661 C 553.295 -6.10112 0.492969 0
M  V30 5662 N 552.432 -7.01499 -0.290414 0
M  V30 5663 H 557.272 -2.76228 1.11813 0
M  V30 5664 H 554.809 -1.35907 0.562826 0
M  V30 5665 H 556.767 -4.05005 -1.00132 0
M  V30 5666 H 555.397 -2.9509 -1.30851 0
M  V30 5667 H 554.449 -3.66959 1.00227 0
M  V30 5668 H 555.761 -4.8649 1.1013 0
M  V30 5669 H 554.915 -5.98914 -0.968832 0
M  V30 5670 H 553.654 -4.73794 -1.15632 0
M  V30 5671 H 552.659 -5.39632 1.05251 0
M  V30 5672 H 553.884 -6.6793 1.22664 0
M  V30 5673 H 551.83 -6.48199 -1.00868 0
M  V30 5674 H 551.747 -7.55178 0.352354 0
M  V30 5675 H 553.015 -7.75176 -0.819882 0
M  V30 5676 N 557.244 -0.608902 -1.45362 0
M  V30 5677 C 558.207 0.0992563 -2.28985 0
M  V30 5678 C 559.207 0.793841 -1.39838 0
M  V30 5679 O 560.397 0.641804 -1.61946 0
M  V30 5680 C 557.529 1.15073 -3.20891 0
M  V30 5681 H 558.722 -0.635964 -2.93079 0
M  V30 5682 H 556.275 -0.368007 -1.51906 0
M  V30 5683 H 557.01 1.91667 -2.616 0
M  V30 5684 H 556.795 0.656867 -3.86559 0
M  V30 5685 H 558.285 1.64665 -3.83765 0
M  V30 5686 N 558.722 1.53707 -0.348139 0
M  V30 5687 C 559.947 2.05877 0.250883 0
M  V30 5688 C 560.372 1.22115 1.43072 0
M  V30 5689 O 559.73 0.235986 1.79758 0
M  V30 5690 C 559.778 3.54886 0.639416 0
M  V30 5691 O 558.882 3.73948 1.73888 0
M  V30 5692 H 558.223 0.662754 0.040653 0
M  V30 5693 H 560.753 1.98303 -0.503685 0
M  V30 5694 H 560.763 3.97601 0.915295 0
M  V30 5695 H 559.438 4.153 -0.223386 0
M  V30 5696 H 558.015 3.43134 1.45991 0
M  V30 5697 N 560.2 0.0768682 1.57412 0
M  V30 5698 C 561.477 -0.632359 1.85096 0
M  V30 5699 C 561.857 -1.87479 0.9703 0
M  V30 5700 O 561.205 -2.28469 0.0379062 0
M  V30 5701 C 561.415 -0.965174 3.35388 0
M  V30 5702 C 562.763 -1.33648 4.03018 0
M  V30 5703 O 563.787 -1.05675 3.40164 0
M  V30 5704 O 562.646 -1.85959 5.13889 0
M  V30 5705 H 559.74 -0.314574 0.764835 0
M  V30 5706 H 562.286 0.108184 1.69355 0
M  V30 5707 H 561.058 -0.0829745 3.91212 0
M  V30 5708 H 560.681 -1.76231 3.5641 0
M  V30 5709 N 561.678 -1.56367 -0.196722 0
M  V30 5710 C 562.924 -1.80796 -0.918725 0
M  V30 5711 C 563.257 -0.650645 -1.82976 0
M  V30 5712 O 562.532 0.348889 -1.91345 0
M  V30 5713 C 562.815 -3.15472 -1.73636 0
M  V30 5714 C 562.668 -4.41693 -0.85015 0
M  V30 5715 C 563.987 -3.46824 -2.70927 0
M  V30 5716 H 561.106 -0.657702 -0.332561 0
M  V30 5717 H 563.748 -1.89086 -0.186186 0
M  V30 5718 H 561.898 -3.08536 -2.36088 0
M  V30 5719 H 563.57 -4.60673 -0.240459 0
M  V30 5720 H 561.813 -4.33517 -0.156785 0
M  V30 5721 H 562.484 -5.32419 -1.45719 0
M  V30 5722 H 564.96 -3.54049 -2.18607 0
M  V30 5723 H 563.836 -4.4218 -3.25219 0
M  V30 5724 H 564.097 -2.70236 -3.49893 0
M  V30 5725 N 563.156 0.464375 -1.50603 0
M  V30 5726 C 564.104 1.58224 -1.70493 0
M  V30 5727 C 565.098 1.59492 -0.570836 0
M  V30 5728 O 566.304 1.63561 -0.751517 0
M  V30 5729 H 562.679 0.525161 -0.538247 0
M  V30 5730 H 564.65 1.38613 -2.64252 0
M  V30 5731 C 563.399 2.96113 -1.82243 0
M  V30 5732 H 562.722 2.95858 -2.68901 0
M  V30 5733 H 564.162 3.73769 -2.00182 0
M  V30 5734 C 562.621 3.31946 -0.575628 0
M  V30 5735 O 563.151 4.00708 0.282152 0
M  V30 5736 N 561.357 2.87436 -0.427665 0
M  V30 5737 H 560.904 2.31652 -1.12674 0
M  V30 5738 H 560.862 3.11776 0.405379 0
M  V30 5739 N 564.634 1.40294 0.718013 0
M  V30 5740 C 565.882 1.38167 1.47494 0
M  V30 5741 C 566.203 -0.01607 1.94993 0
M  V30 5742 O 565.473 -0.970396 1.70177 0
M  V30 5743 H 564.053 0.508505 0.547203 0
M  V30 5744 H 566.715 1.75324 0.851322 0
M  V30 5745 H 565.811 2.05503 2.34894 0
M  V30 5746 N 566.112 -0.949982 1.2575 0
M  V30 5747 C 567.523 -1.50989 1.09815 0
M  V30 5748 C 567.874 -1.93497 -0.324556 0
M  V30 5749 O 566.999 -1.79068 -1.21506 0
M  V30 5750 C 567.594 -2.74394 1.98729 0
M  V30 5751 C 566.153 -3.26682 1.86965 0
M  V30 5752 C 565.3 -1.99498 1.92603 0
M  V30 5753 H 568.251 -0.766387 1.38968 0
M  V30 5754 H 568.272 -3.48383 1.53001 0
M  V30 5755 H 567.784 -2.43425 3.02268 0
M  V30 5756 H 565.885 -3.62461 0.863279 0
M  V30 5757 H 565.998 -3.94383 2.72027 0
M  V30 5758 H 564.362 -2.15005 1.36546 0
M  V30 5759 H 565.145 -1.70871 2.97755 0
M  V30 5760 N 567.59 -1.07411 -1.15328 0
M  V30 5761 C 568.52 -0.716472 -2.22236 0
M  V30 5762 C 569.501 0.296373 -1.67498 0
M  V30 5763 O 570.686 0.168989 -1.93463 0
M  V30 5764 C 567.816 -0.114142 -3.47112 0
M  V30 5765 C 566.77 -1.05421 -4.14814 0
M  V30 5766 C 566.096 -0.314604 -5.33774 0
M  V30 5767 C 567.396 -2.38808 -4.64508 0
M  V30 5768 H 569.09 -1.61029 -2.52408 0
M  V30 5769 H 566.636 -0.775702 -1.21321 0
M  V30 5770 H 568.589 0.148001 -4.2114 0
M  V30 5771 H 567.313 0.814755 -3.16274 0
M  V30 5772 H 565.972 -1.30128 -3.42728 0
M  V30 5773 H 565.62 0.617772 -4.99192 0
M  V30 5774 H 565.32 -0.941209 -5.80013 0
M  V30 5775 H 566.844 -0.0602747 -6.1057 0
M  V30 5776 H 568.258 -2.18424 -5.3006 0
M  V30 5777 H 566.655 -2.97069 -5.21412 0
M  V30 5778 H 567.725 -3.01067 -3.80114 0
M  V30 5779 N 569.068 1.32177 -0.85831 0
M  V30 5780 C 570.317 1.96392 -0.459689 0
M  V30 5781 C 570.63 1.68659 0.990632 0
M  V30 5782 O 571.836 2.26641 1.49485 0
M  V30 5783 C 570.292 3.51542 -0.7711 0
M  V30 5784 C 569.9 3.8813 -2.2374 0
M  V30 5785 C 571.644 4.2221 -0.44038 0
M  V30 5786 C 569.551 5.36341 -2.49183 0
M  V30 5787 H 568.481 0.735007 -0.168169 0
M  V30 5788 H 571.132 1.50518 -1.0496 0
M  V30 5789 H 569.514 3.95846 -0.11058 0
M  V30 5790 H 570.688 3.54824 -2.94001 0
M  V30 5791 H 569.003 3.30497 -2.533 0
M  V30 5792 H 571.6 5.31234 -0.607855 0
M  V30 5793 H 571.943 4.11683 0.618291 0
M  V30 5794 H 572.476 3.83502 -1.05695 0
M  V30 5795 H 569.215 5.51892 -3.53689 0
M  V30 5796 H 568.735 5.7104 -1.83504 0
M  V30 5797 H 570.414 6.03466 -2.33318 0
M  V30 5798 N 570.547 0.616602 1.45037 0
M  V30 5799 C 571.495 -0.109318 2.32343 0
M  V30 5800 C 572.489 -0.850543 1.465 0
M  V30 5801 O 573.695 -0.765088 1.62931 0
M  V30 5802 H 570.07 -0.0541091 0.750051 0
M  V30 5803 H 572.041 0.645326 2.91338 0
M  V30 5804 C 570.79 -1.0872 3.30266 0
M  V30 5805 H 570.113 -0.526267 3.96321 0
M  V30 5806 H 571.553 -1.56489 3.94065 0
M  V30 5807 C 570.012 -2.16525 2.58105 0
M  V30 5808 O 570.542 -3.244 2.36913 0
M  V30 5809 N 568.748 -1.92057 2.18088 0
M  V30 5810 H 568.295 -1.04337 2.35524 0
M  V30 5811 H 568.253 -2.64391 1.70131 0
M  V30 5812 N 572.025 -1.5352 0.356285 0
M  V30 5813 C 573.25 -2.06007 -0.239961 0
M  V30 5814 C 573.675 -1.22872 -1.42422 0
M  V30 5815 O 573.033 -0.245516 -1.7963 0
M  V30 5816 C 573.081 -3.5522 -0.620587 0
M  V30 5817 O 572.185 -3.74864 -1.71902 0
M  V30 5818 H 571.526 -0.662961 -0.0371377 0
M  V30 5819 H 574.056 -1.98033 0.514194 0
M  V30 5820 H 574.066 -3.98081 -0.894197 0
M  V30 5821 H 572.741 -4.15175 0.245407 0
M  V30 5822 H 571.318 -3.43904 -1.44169 0
M  V30 5823 N 573.503 -0.0852151 -1.57369 0
M  V30 5824 C 574.919 0.271436 -1.57275 0
M  V30 5825 C 575.119 1.69109 -1.09565 0
M  V30 5826 O 574.175 2.40549 -0.767611 0
M  V30 5827 C 575.488 0.0688638 -3.00621 0
M  V30 5828 C 577.036 0.137373 -3.12698 0
M  V30 5829 C 577.511 -0.0370832 -4.57985 0
M  V30 5830 N 579.002 0.0180794 -4.63196 0
M  V30 5831 C 579.737 -0.0922953 -5.73326 0
M  V30 5832 N 579.233 -0.256948 -6.92323 0
M  V30 5833 N 581.026 -0.0342702 -5.6209 0
M  V30 5834 H 573.177 -1.01288 -1.86693 0
M  V30 5835 H 575.44 -0.396138 -0.861266 0
M  V30 5836 H 575.146 -0.911277 -3.39689 0
M  V30 5837 H 575.02 0.815442 -3.6828 0
M  V30 5838 H 577.407 1.10801 -2.73509 0
M  V30 5839 H 577.488 -0.640532 -2.47651 0
M  V30 5840 H 577.132 -1.00455 -4.97867 0
M  V30 5841 H 577.062 0.760392 -5.21081 0
M  V30 5842 H 579.553 0.143202 -3.77629 0
M  V30 5843 H 579.866 -0.332949 -7.72082 0
M  V30 5844 H 578.211 -0.292487 -6.94384 0
M  V30 5845 H 581.402 0.0931605 -4.68007 0
M  V30 5846 H 581.575 -0.12374 -6.47882 0
M  V30 5847 N 574.981 1.5647 0.188427 0
M  V30 5848 C 576.209 1.85131 0.923803 0
M  V30 5849 C 576.624 0.668537 1.76567 0
M  V30 5850 O 575.981 -0.362662 1.7886 0
M  V30 5851 C 576.032 3.12661 1.81453 0
M  V30 5852 O 575.753 4.26378 1.00665 0
M  V30 5853 C 577.254 3.54548 2.66103 0
M  V30 5854 H 574.474 0.614624 0.269218 0
M  V30 5855 H 577.018 2.03581 0.193671 0
M  V30 5856 H 575.173 2.96088 2.49821 0
M  V30 5857 H 575.587 4.99041 1.61425 0
M  V30 5858 H 577.061 4.4673 3.24247 0
M  V30 5859 H 577.538 2.77853 3.40139 0
M  V30 5860 H 578.144 3.73674 2.03096 0
M  V30 5861 N 576.459 -0.456382 1.50847 0
M  V30 5862 C 577.707 -1.20497 1.62249 0
M  V30 5863 C 578.028 -1.92156 0.331839 0
M  V30 5864 O 577.298 -1.84751 -0.651443 0
M  V30 5865 H 575.878 -0.447775 0.597918 0
M  V30 5866 H 578.54 -0.525099 1.87693 0
M  V30 5867 H 577.636 -1.94492 2.44089 0
M  V30 5868 N 577.937 -1.40673 -0.710563 0
M  V30 5869 C 579.162 -1.42741 -1.50465 0
M  V30 5870 C 579.587 -0.0302116 -1.88076 0
M  V30 5871 O 578.945 0.962945 -1.53613 0
M  V30 5872 C 578.993 -2.32873 -2.75322 0
M  V30 5873 O 578.097 -1.77544 -3.72226 0
M  V30 5874 H 577.438 -0.485056 -0.45345 0
M  V30 5875 H 579.968 -1.84961 -0.874681 0
M  V30 5876 H 579.978 -2.48233 -3.23797 0
M  V30 5877 H 578.653 -3.34401 -2.47283 0
M  V30 5878 H 577.23 -1.71556 -3.31093 0
M  V30 5879 N 579.415 0.9433 -1.26252 0
M  V30 5880 C 580.664 1.68369 -1.11062 0
M  V30 5881 C 580.977 1.92514 0.346104 0
M  V30 5882 O 582.183 2.64358 0.618646 0
M  V30 5883 C 580.639 3.03171 -1.93946 0
M  V30 5884 C 580.247 2.86782 -3.4418 0
M  V30 5885 C 581.991 3.80916 -1.87359 0
M  V30 5886 C 579.898 4.17044 -4.19319 0
M  V30 5887 H 578.828 0.631469 -0.412023 0
M  V30 5888 H 581.479 1.04922 -1.50544 0
M  V30 5889 H 579.861 3.67587 -1.47296 0
M  V30 5890 H 581.035 2.31229 -3.98585 0
M  V30 5891 H 579.35 2.22482 -3.51981 0
M  V30 5892 H 581.947 4.77417 -2.40784 0
M  V30 5893 H 582.29 4.07658 -0.843857 0
M  V30 5894 H 582.823 3.2327 -2.31821 0
M  V30 5895 H 579.562 3.95487 -5.22753 0
M  V30 5896 H 579.082 4.72319 -3.69696 0
M  V30 5897 H 580.761 4.85513 -4.27651 0
M  V30 5898 N 580.893 1.08022 1.14757 0
M  V30 5899 C 582.123 0.827646 1.89298 0
M  V30 5900 C 582.531 -0.623506 1.78631 0
M  V30 5901 O 581.874 -1.43991 1.14071 0
M  V30 5902 C 581.936 1.16553 3.40082 0
M  V30 5903 C 581.6 2.61866 3.74533 0
M  V30 5904 C 582.597 3.60116 3.74984 0
M  V30 5905 C 580.282 2.97619 4.04633 0
M  V30 5906 C 582.276 4.92151 4.05051 0
M  V30 5907 C 579.963 4.2985 4.34364 0
M  V30 5908 C 580.961 5.26926 4.34555 0
M  V30 5909 O 580.649 6.5678 4.63568 0
M  V30 5910 H 580.381 0.298396 0.606577 0
M  V30 5911 H 582.935 1.44187 1.46285 0
M  V30 5912 H 581.165 0.494296 3.83528 0
M  V30 5913 H 582.854 0.894407 3.95923 0
M  V30 5914 H 583.62 3.33837 3.51821 0
M  V30 5915 H 579.499 2.22702 4.03639 0
M  V30 5916 H 583.043 5.67915 4.05115 0
M  V30 5917 H 578.94 4.55879 4.56995 0
M  V30 5918 H 579.708 6.62035 4.81303 0
M  V30 5919 N 582.371 -1.3172 0.865308 0
M  V30 5920 C 583.62 -1.96145 0.470098 0
M  V30 5921 C 583.933 -1.69182 -0.981674 0
M  V30 5922 O 585.139 -2.27431 -1.48281 0
M  V30 5923 C 583.595 -3.51129 0.789732 0
M  V30 5924 C 583.203 -3.86938 2.25795 0
M  V30 5925 C 584.947 -4.2197 0.462765 0
M  V30 5926 C 582.854 -5.35012 2.52024 0
M  V30 5927 H 581.784 -0.734105 0.172065 0
M  V30 5928 H 584.435 -1.49959 1.05757 0
M  V30 5929 H 582.817 -3.95781 0.131571 0
M  V30 5930 H 583.991 -3.5326 2.95879 0
M  V30 5931 H 582.306 -3.29149 2.55049 0
M  V30 5932 H 584.903 -5.30904 0.636019 0
M  V30 5933 H 585.246 -4.12005 -0.59645 0
M  V30 5934 H 585.779 -3.82936 1.07727 0
M  V30 5935 H 582.518 -5.50008 3.56611 0
M  V30 5936 H 582.038 -5.70058 1.8653 0
M  V30 5937 H 583.717 -6.0222 2.36515 0
M  V30 5938 N 583.85 -0.624285 -1.44708 0
M  V30 5939 C 585.096 -0.126237 -2.02407 0
M  V30 5940 C 585.428 1.24618 -1.48943 0
M  V30 5941 O 584.704 1.82569 -0.670742 0
M  V30 5942 C 584.986 -0.105449 -3.59946 0
M  V30 5943 C 584.84 -1.50972 -4.23707 0
M  V30 5944 C 586.159 0.573629 -4.36346 0
M  V30 5945 H 583.278 -0.0473472 -0.735478 0
M  V30 5946 H 585.92 -0.799452 -1.72362 0
M  V30 5947 H 584.07 0.46783 -3.85673 0
M  V30 5948 H 585.742 -2.13136 -4.0911 0
M  V30 5949 H 583.985 -2.0656 -3.81465 0
M  V30 5950 H 584.656 -1.44727 -5.32689 0
M  V30 5951 H 587.132 0.0861787 -4.16011 0
M  V30 5952 H 586.008 0.557338 -5.46063 0
M  V30 5953 H 586.269 1.64276 -4.10446 0
M  V30 5954 N 585.328 1.53329 -0.364422 0
M  V30 5955 C 586.275 2.25698 0.482607 0
M  V30 5956 C 587.245 1.26325 1.07848 0
M  V30 5957 O 588.43 1.55104 1.11119 0
M  V30 5958 C 585.57 3.04873 1.61699 0
M  V30 5959 C 584.683 4.19135 1.0464 0
M  V30 5960 C 583.818 4.85754 2.14979 0
M  V30 5961 C 582.857 5.9205 1.5538 0
M  V30 5962 N 581.994 6.52365 2.59547 0
M  V30 5963 H 586.834 2.97666 -0.141032 0
M  V30 5964 H 584.371 1.46875 -0.0813692 0
M  V30 5965 H 586.329 3.49051 2.28516 0
M  V30 5966 H 584.959 2.35162 2.2113 0
M  V30 5967 H 584.011 3.79451 0.268553 0
M  V30 5968 H 585.323 4.95525 0.570653 0
M  V30 5969 H 584.477 5.3311 2.89619 0
M  V30 5970 H 583.216 4.08834 2.65906 0
M  V30 5971 H 582.221 5.44058 0.792549 0
M  V30 5972 H 583.446 6.7089 1.0528 0
M  V30 5973 H 581.392 5.78298 3.09689 0
M  V30 5974 H 581.309 7.2429 2.16655 0
M  V30 5975 H 582.577 7.0437 3.33892 0
M  V30 5976 N 586.806 0.0935595 1.57322 0
M  V30 5977 C 588.217 -0.435807 1.81542 0
M  V30 5978 C 588.568 -1.68263 1.00907 0
M  V30 5979 O 587.693 -2.15087 0.237983 0
M  V30 5980 C 588.288 -0.797436 3.29282 0
M  V30 5981 C 586.847 -1.27155 3.54272 0
M  V30 5982 C 585.994 -0.267455 2.76007 0
M  V30 5983 H 588.945 0.31902 1.5546 0
M  V30 5984 H 588.966 -1.6571 3.42521 0
M  V30 5985 H 588.478 0.110206 3.87943 0
M  V30 5986 H 586.579 -2.19696 3.00939 0
M  V30 5987 H 586.692 -1.23445 4.62923 0
M  V30 5988 H 585.056 -0.749282 2.43429 0
M  V30 5989 H 585.839 0.632839 3.37417 0
M  V30 5990 N 588.284 -1.56567 -0.180126 0
M  V30 5991 C 589.231 -1.95725 -1.22313 0
M  V30 5992 C 590.201 -0.819911 -1.44453 0
M  V30 5993 O 591.386 -1.07931 -1.57339 0
M  V30 5994 C 588.526 -2.31484 -2.55947 0
M  V30 5995 C 587.639 -3.58354 -2.4126 0
M  V30 5996 C 586.774 -3.83366 -3.67701 0
M  V30 5997 C 585.813 -5.03612 -3.47909 0
M  V30 5998 N 584.95 -5.24802 -4.66398 0
M  V30 5999 H 589.79 -2.84642 -0.882198 0
M  V30 6000 H 587.327 -1.4085 -0.42422 0
M  V30 6001 H 589.285 -2.50237 -3.33822 0
M  V30 6002 H 587.915 -1.45689 -2.88053 0
M  V30 6003 H 586.967 -3.47565 -1.54606 0
M  V30 6004 H 588.279 -4.46386 -2.22577 0
M  V30 6005 H 587.433 -4.02439 -4.54013 0
M  V30 6006 H 586.172 -2.93692 -3.89353 0
M  V30 6007 H 585.177 -4.84447 -2.59983 0
M  V30 6008 H 586.402 -5.94809 -3.27688 0
M  V30 6009 H 584.348 -4.38079 -4.88286 0
M  V30 6010 H 584.265 -6.07041 -4.50596 0
M  V30 6011 H 585.533 -5.48346 -5.54019 0
M  V30 6012 N 589.762 0.448376 -1.51087 0
M  V30 6013 C 590.695 1.56298 -1.66272 0
M  V30 6014 C 591.673 1.54381 -0.510419 0
M  V30 6015 O 592.857 1.73671 -0.732854 0
M  V30 6016 C 589.984 2.94883 -1.66618 0
M  V30 6017 C 589.03 3.14868 -2.87681 0
M  V30 6018 S 589.863 2.9234 -4.48662 0
M  V30 6019 C 591.019 4.33227 -4.51735 0
M  V30 6020 H 591.252 1.43182 -2.6055 0
M  V30 6021 H 588.785 0.637309 -1.40633 0
M  V30 6022 H 590.743 3.74771 -1.67502 0
M  V30 6023 H 589.404 3.05371 -0.735358 0
M  V30 6024 H 588.597 4.16166 -2.84292 0
M  V30 6025 H 588.199 2.42788 -2.84482 0
M  V30 6026 H 590.491 5.26247 -4.26697 0
M  V30 6027 H 591.434 4.41653 -5.53487 0
M  V30 6028 H 591.842 4.16367 -3.81181 0
M  V30 6029 N 591.24 1.41047 0.703093 0
M  V30 6030 C 592.19 1.38774 1.80903 0
M  V30 6031 C 593.174 0.263275 1.58731 0
M  V30 6032 O 594.366 0.503362 1.69692 0
M  V30 6033 C 591.495 1.26497 3.19145 0
M  V30 6034 C 590.581 2.43775 3.47037 0
M  V30 6035 N 590.972 3.69249 3.45672 0
M  V30 6036 C 589.27 2.37425 3.77552 0
M  V30 6037 C 589.971 4.46989 3.72258 0
M  V30 6038 N 588.947 3.76998 3.91629 0
M  V30 6039 H 592.749 2.33714 1.78199 0
M  V30 6040 H 590.263 1.34996 0.902762 0
M  V30 6041 H 592.26 1.2295 3.98358 0
M  V30 6042 H 590.92 0.32534 3.23066 0
M  V30 6043 H 591.931 4.02239 3.26228 0
M  V30 6044 H 588.608 1.51895 3.88888 0
M  V30 6045 H 589.998 5.55894 3.77402 0
M  V30 6046 N 592.718 -0.936591 1.26751 0
M  V30 6047 C 593.966 -1.67998 1.12343 0
M  V30 6048 C 594.287 -1.92137 -0.332938 0
M  V30 6049 O 593.557 -1.52132 -1.23421 0
M  V30 6050 H 592.137 -0.622609 0.412756 0
M  V30 6051 H 594.799 -1.12509 1.59147 0
M  V30 6052 H 593.895 -2.65185 1.64571 0
M  V30 6053 N 594.196 -1.08629 -1.14182 0
M  V30 6054 C 595.607 -0.838003 -1.66836 0
M  V30 6055 C 595.958 0.634885 -1.85644 0
M  V30 6056 O 595.083 1.49008 -1.56926 0
M  V30 6057 C 595.678 -1.51465 -3.03058 0
M  V30 6058 C 594.237 -1.31355 -3.52736 0
M  V30 6059 C 593.384 -1.57599 -2.28162 0
M  V30 6060 H 596.335 -1.24656 -0.982165 0
M  V30 6061 H 596.356 -0.943134 -3.68626 0
M  V30 6062 H 595.868 -2.58661 -2.89337 0
M  V30 6063 H 593.969 -0.262384 -3.71675 0
M  V30 6064 H 594.082 -2.04275 -4.33369 0
M  V30 6065 H 592.446 -0.997659 -2.34348 0
M  V30 6066 H 593.229 -2.66006 -2.17015 0
M  V30 6067 N 595.674 1.31259 -0.872281 0
M  V30 6068 C 596.637 2.26744 -0.334656 0
M  V30 6069 C 597.637 1.52307 0.515681 0
M  V30 6070 O 598.827 1.71148 0.324656 0
M  V30 6071 C 595.959 3.36841 0.524482 0
M  V30 6072 H 597.152 2.75812 -1.17762 0
M  V30 6073 H 594.705 1.42232 -0.648064 0
M  V30 6074 H 595.44 2.93069 1.38855 0
M  V30 6075 H 595.225 3.92009 -0.0844299 0
M  V30 6076 H 596.715 4.07944 0.892838 0
M  V30 6077 N 597.152 0.631951 1.44375 0
M  V30 6078 C 598.062 -0.073674 2.34484 0
M  V30 6079 C 599.078 -0.834825 1.52665 0
M  V30 6080 O 600.254 -0.786902 1.85391 0
M  V30 6081 C 597.319 -1.04247 3.30656 0
M  V30 6082 C 596.38 -0.280602 4.28382 0
M  V30 6083 C 595.613 -1.20325 5.19959 0
M  V30 6084 O 595.836 -2.44199 5.15484 0
M  V30 6085 O 594.77 -0.687128 5.97965 0
M  V30 6086 H 598.596 0.667477 2.96274 0
M  V30 6087 H 596.181 0.392144 1.44162 0
M  V30 6088 H 598.063 -1.59981 3.89851 0
M  V30 6089 H 596.738 -1.76422 2.71398 0
M  V30 6090 H 595.645 0.319804 3.72731 0
M  V30 6091 H 596.978 0.401144 4.90563 0
M  V30 6092 N 598.631 -1.53133 0.372548 0
M  V30 6093 C 599.877 -2.01654 -0.215277 0
M  V30 6094 C 600.21 -1.25914 -1.47849 0
M  V30 6095 O 599.485 -0.3548 -1.91237 0
M  V30 6096 C 599.768 -3.56609 -0.500187 0
M  V30 6097 C 599.621 -4.43036 0.777145 0
M  V30 6098 C 600.94 -4.20528 -1.29786 0
M  V30 6099 H 598.059 -0.732991 -0.0767686 0
M  V30 6100 H 600.701 -1.83335 0.498814 0
M  V30 6101 H 598.851 -3.7235 -1.10852 0
M  V30 6102 H 600.523 -4.39079 1.41447 0
M  V30 6103 H 598.766 -4.10723 1.39604 0
M  V30 6104 H 599.437 -5.49424 0.532662 0
M  V30 6105 H 601.913 -4.08663 -0.783198 0
M  V30 6106 H 600.789 -5.28962 -1.46596 0
M  V30 6107 H 601.05 -3.77051 -2.30836 0
M  V30 6108 N 600.109 -0.101901 -1.5727 0
M  V30 6109 C 601.072 0.840129 -2.13247 0
M  V30 6110 C 602.072 1.20625 -1.06331 0
M  V30 6111 O 603.262 1.13456 -1.32186 0
M  V30 6112 C 600.394 2.13372 -2.65867 0
M  V30 6113 H 601.587 0.353945 -2.97804 0
M  V30 6114 H 599.14 0.147167 -1.55606 0
M  V30 6115 H 599.875 2.66461 -1.84849 0
M  V30 6116 H 599.66 1.88085 -3.44044 0
M  V30 6117 H 601.15 2.80748 -3.09145 0
M  V30 6118 N 601.587 1.56661 0.17182 0
M  V30 6119 C 602.834 1.81965 0.888529 0
M  V30 6120 C 603.162 0.6789 1.82267 0
M  V30 6121 O 602.417 -0.333875 1.92831 0
M  V30 6122 C 602.716 3.13435 1.71736 0
M  V30 6123 C 602.382 4.41159 0.932184 0
M  V30 6124 C 601.044 4.75851 0.715481 0
M  V30 6125 C 603.396 5.19803 0.381387 0
M  V30 6126 C 600.724 5.86666 -0.063126 0
M  V30 6127 C 603.076 6.31433 -0.384129 0
M  V30 6128 C 601.74 6.64692 -0.611637 0
M  V30 6129 H 601.01 0.665859 0.325136 0
M  V30 6130 H 603.657 1.90884 0.153495 0
M  V30 6131 H 601.962 2.99857 2.52177 0
M  V30 6132 H 603.659 3.30224 2.27493 0
M  V30 6133 H 600.249 4.13947 1.11112 0
M  V30 6134 H 604.433 4.93396 0.536148 0
M  V30 6135 H 599.689 6.10892 -0.249136 0
M  V30 6136 H 603.863 6.91577 -0.818185 0
M  V30 6137 H 601.49 7.50398 -1.21684 0
M  V30 6138 N 603.065 -0.440357 1.51323 0
M  V30 6139 C 604.293 -1.21255 1.67645 0
M  V30 6140 C 604.708 -1.85088 0.37252 0
M  V30 6141 O 604.065 -1.70582 -0.648683 0
M  V30 6142 C 604.116 -2.29881 2.78993 0
M  V30 6143 O 603.837 -1.68659 4.04334 0
M  V30 6144 C 605.338 -3.20214 3.06558 0
M  V30 6145 H 602.558 -0.36558 0.562666 0
M  V30 6146 H 605.102 -0.52214 1.97722 0
M  V30 6147 H 603.257 -2.94643 2.51524 0
M  V30 6148 H 603.671 -2.40426 4.6615 0
M  V30 6149 H 605.145 -3.92575 3.88058 0
M  V30 6150 H 605.622 -3.80794 2.18844 0
M  V30 6151 H 606.228 -2.61156 3.35675 0
M  V30 6152 N 604.543 -1.41418 -0.695603 0
M  V30 6153 C 605.783 -1.42241 -1.46788 0
M  V30 6154 C 606.147 -0.0300827 -1.91976 0
M  V30 6155 O 607.348 0.0868914 -2.6866 0
M  V30 6156 C 605.619 -2.4011 -2.6473 0
M  V30 6157 S 607.178 -2.59462 -3.53871 0
M  V30 6158 H 603.996 -0.503893 -0.50161 0
M  V30 6159 H 606.598 -1.77855 -0.811654 0
M  V30 6160 H 605.302 -3.40073 -2.29736 0
M  V30 6161 H 604.833 -2.05849 -3.35246 0
M  V30 6162 H 606.848 -1.862 -4.59939 0
M  V30 6163 N 606.021 0.929856 -1.27246 0
M  V30 6164 C 606.931 2.0636 -1.11592 0
M  V30 6165 C 607.947 1.73938 -0.046496 0
M  V30 6166 O 609.123 1.9981 -0.252544 0
M  V30 6167 C 606.188 3.38213 -0.762437 0
M  V30 6168 C 605.249 3.84346 -1.9125 0
M  V30 6169 C 604.482 5.09906 -1.57579 0
M  V30 6170 O 604.705 5.68354 -0.482694 0
M  V30 6171 O 603.639 5.51359 -2.41426 0
M  V30 6172 H 607.465 2.22478 -2.0673 0
M  V30 6173 H 605.05 1.04865 -1.06413 0
M  V30 6174 H 606.932 4.1741 -0.57854 0
M  V30 6175 H 605.607 3.23307 0.159439 0
M  V30 6176 H 604.514 3.06045 -2.15144 0
M  V30 6177 H 605.847 4.0379 -2.81451 0
M  V30 6178 N 607.499 1.09233 1.13605 0
M  V30 6179 C 608.429 0.751738 2.21068 0
M  V30 6180 C 609.41 -0.269688 1.67948 0
M  V30 6181 O 610.595 -0.13819 1.93708 0
M  V30 6182 C 607.725 0.16935 3.46887 0
M  V30 6183 C 606.679 1.12007 4.13084 0
M  V30 6184 C 606.005 0.399483 5.33206 0
M  V30 6185 C 607.305 2.46168 4.6065 0
M  V30 6186 H 608.999 1.65024 2.49815 0
M  V30 6187 H 606.545 0.794905 1.20072 0
M  V30 6188 H 608.498 -0.0809824 4.21322 0
M  V30 6189 H 607.222 -0.764335 3.1753 0
M  V30 6190 H 605.881 1.35564 3.40614 0
M  V30 6191 H 605.529 -0.538277 5.00112 0
M  V30 6192 H 605.229 1.03337 5.78442 0
M  V30 6193 H 606.753 0.157403 6.10397 0
M  V30 6194 H 608.167 2.26829 5.26518 0
M  V30 6195 H 606.564 3.05326 5.1662 0
M  V30 6196 H 607.634 3.07076 3.75276 0
M  V30 6197 N 608.977 -1.30795 0.87923 0
M  V30 6198 C 610.224 -1.96362 0.494786 0
M  V30 6199 C 610.552 -1.69448 -0.954868 0
M  V30 6200 O 609.807 -0.988711 -1.68888 0
M  V30 6201 C 610.106 -3.50287 0.709476 0
M  V30 6202 C 609.772 -3.9724 2.13333 0
M  V30 6203 C 608.434 -4.09772 2.52271 0
M  V30 6204 C 610.786 -4.21807 3.06151 0
M  V30 6205 C 608.114 -4.44227 3.83248 0
M  V30 6206 C 610.466 -4.5773 4.36654 0
M  V30 6207 C 609.13 -4.68469 4.75492 0
M  V30 6208 H 608.4 -0.71854 0.181055 0
M  V30 6209 H 611.047 -1.55764 1.11399 0
M  V30 6210 H 609.352 -3.91799 0.0072 0
M  V30 6211 H 611.049 -3.99082 0.391703 0
M  V30 6212 H 607.639 -3.87988 1.82107 0
M  V30 6213 H 611.823 -4.11611 2.77291 0
M  V30 6214 H 607.079 -4.50741 4.13089 0
M  V30 6215 H 611.253 -4.7569 5.08617 0
M  V30 6216 H 608.88 -4.94923 5.77022 0
M  V30 6217 N 610.455 -0.639598 -1.44038 0
M  V30 6218 C 611.68 -0.153117 -2.06834 0
M  V30 6219 C 612.105 1.16676 -1.47541 0
M  V30 6220 O 611.463 1.71769 -0.580093 0
M  V30 6221 C 611.511 -0.0609169 -3.60549 0
M  V30 6222 O 610.615 0.98071 -4.00569 0
M  V30 6223 H 609.956 -0.0886402 -0.658057 0
M  V30 6224 H 612.486 -0.878674 -1.84771 0
M  V30 6225 H 612.496 0.126892 -4.07803 0
M  V30 6226 H 611.171 -1.0245 -4.03084 0
M  V30 6227 H 609.748 0.766789 -3.64931 0
M  V30 6228 N 611.933 1.52934 -0.380664 0
M  V30 6229 C 613.349 1.59571 -0.0302429 0
M  V30 6230 C 613.549 1.39509 1.45394 0
M  V30 6231 O 612.605 1.20777 2.21741 0
M  V30 6232 C 613.918 2.96519 -0.499691 0
M  V30 6233 C 615.466 3.09672 -0.455204 0
M  V30 6234 C 615.941 4.49056 -0.900703 0
M  V30 6235 N 617.432 4.55215 -0.856367 0
M  V30 6236 C 618.167 5.61282 -1.17259 0
M  V30 6237 N 617.663 6.75035 -1.55885 0
M  V30 6238 N 619.456 5.51343 -1.0944 0
M  V30 6239 H 611.607 1.64224 -1.347 0
M  V30 6240 H 613.87 0.771033 -0.551554 0
M  V30 6241 H 613.576 3.16388 -1.53595 0
M  V30 6242 H 613.45 3.77052 0.105789 0
M  V30 6243 H 615.837 2.89504 0.571949 0
M  V30 6244 H 615.918 2.31113 -1.09638 0
M  V30 6245 H 615.562 4.69964 -1.92604 0
M  V30 6246 H 615.492 5.26068 -0.236629 0
M  V30 6247 H 617.983 3.73546 -0.572013 0
M  V30 6248 H 618.296 7.51926 -1.784 0
M  V30 6249 H 616.641 6.76388 -1.59764 0
M  V30 6250 H 619.832 4.61356 -0.791713 0
M  V30 6251 H 620.005 6.33905 -1.34417 0
M  V30 6252 N 613.412 0.11024 1.57214 0
M  V30 6253 C 614.658 -0.550684 1.9518 0
M  V30 6254 C 614.991 -1.66885 0.993122 0
M  V30 6255 O 614.266 -1.94479 0.0287907 0
M  V30 6256 C 614.549 -1.09163 3.43155 0
M  V30 6257 C 614.402 0.0225198 4.49794 0
M  V30 6258 C 615.721 -1.98527 3.92778 0
M  V30 6259 H 612.84 -0.198706 0.709708 0
M  V30 6260 H 615.482 0.184024 1.89107 0
M  V30 6261 H 613.632 -1.71775 3.48462 0
M  V30 6262 H 615.304 0.657443 4.56591 0
M  V30 6263 H 613.547 0.686868 4.28328 0
M  V30 6264 H 614.218 -0.39706 5.5057 0
M  V30 6265 H 616.694 -1.458 3.8972 0
M  V30 6266 H 615.57 -2.33298 4.96853 0
M  V30 6267 H 615.831 -2.90846 3.32958 0
M  V30 6268 N 614.89 -1.56749 -0.16351 0
M  V30 6269 C 615.8 -2.00255 -1.2221 0
M  V30 6270 C 616.816 -0.915194 -1.47987 0
M  V30 6271 O 617.992 -1.22342 -1.59982 0
M  V30 6272 C 615.057 -2.36035 -2.53946 0
M  V30 6273 C 614.118 -3.58637 -2.35962 0
M  V30 6274 C 613.351 -3.92701 -3.61416 0
M  V30 6275 O 613.574 -3.27632 -4.66919 0
M  V30 6276 O 612.508 -4.86019 -3.55062 0
M  V30 6277 H 616.334 -2.90586 -0.882794 0
M  V30 6278 H 613.919 -1.44721 -0.370978 0
M  V30 6279 H 615.801 -2.59982 -3.31643 0
M  V30 6280 H 614.476 -1.48863 -2.8744 0
M  V30 6281 H 613.383 -3.39898 -1.5627 0
M  V30 6282 H 614.716 -4.46374 -2.0739 0
M  V30 6283 N 616.368 0.432326 -1.51554 0
M  V30 6284 C 617.645 1.19288 -1.55015 0
M  V30 6285 C 618.025 2.08701 -0.317375 0
M  V30 6286 O 617.373 2.17602 0.697243 0
M  V30 6287 C 617.583 1.99037 -2.86679 0
M  V30 6288 C 618.931 2.55907 -3.38817 0
M  V30 6289 O 619.955 2.09243 -2.88263 0
M  V30 6290 O 618.814 3.41029 -4.27038 0
M  V30 6291 H 615.908 0.543369 -0.623441 0
M  V30 6292 H 618.454 0.440988 -1.6387 0
M  V30 6293 H 617.226 1.33397 -3.6786 0
M  V30 6294 H 616.849 2.81281 -2.8101 0
M  V30 6295 N 617.846 1.41785 0.688094 0
M  V30 6296 C 619.092 1.41753 1.4503 0
M  V30 6297 C 619.425 0.0290745 1.94178 0
M  V30 6298 O 618.7 -0.944456 1.7003 0
M  V30 6299 C 618.983 2.43069 2.65686 0
M  V30 6300 C 618.836 3.91053 2.22256 0
M  V30 6301 C 620.155 2.41543 3.67893 0
M  V30 6302 H 617.274 0.516202 0.526027 0
M  V30 6303 H 619.916 1.73111 0.783105 0
M  V30 6304 H 618.066 2.1646 3.2261 0
M  V30 6305 H 619.738 4.28594 1.70602 0
M  V30 6306 H 617.981 4.05559 1.53963 0
M  V30 6307 H 618.652 4.57501 3.08863 0
M  V30 6308 H 621.128 2.65175 3.20658 0
M  V30 6309 H 620.004 3.14434 4.49914 0
M  V30 6310 H 620.265 1.43666 4.18106 0
M  V30 6311 N 619.324 -0.923095 1.27737 0
M  V30 6312 C 620.254 -2.04124 1.13383 0
M  V30 6313 C 621.235 -1.70066 0.0340658 0
M  V30 6314 O 622.42 -1.93068 0.209383 0
M  V30 6315 C 619.55 -3.3831 0.785097 0
M  V30 6316 C 618.504 -3.86496 1.8386 0
M  V30 6317 C 617.83 -5.1754 1.34373 0
M  V30 6318 C 619.13 -4.09381 3.24353 0
M  V30 6319 H 620.824 -2.1639 2.06919 0
M  V30 6320 H 618.37 -1.03976 0.996243 0
M  V30 6321 H 620.323 -4.16016 0.671485 0
M  V30 6322 H 619.047 -3.2607 -0.185969 0
M  V30 6323 H 617.706 -3.10987 1.9412 0
M  V30 6324 H 617.354 -5.01696 0.361989 0
M  V30 6325 H 617.054 -5.50751 2.04811 0
M  V30 6326 H 618.578 -5.97811 1.24315 0
M  V30 6327 H 619.992 -4.77641 3.17067 0
M  V30 6328 H 618.389 -4.53906 3.92542 0
M  V30 6329 H 619.459 -3.14515 3.69064 0
M  V30 6330 N 620.802 -1.09834 -1.13024 0
M  V30 6331 C 622.05 -0.835297 -1.8403 0
M  V30 6332 C 622.371 0.640944 -1.84165 0
M  V30 6333 O 621.641 1.46517 -1.30037 0
M  V30 6334 H 620.221 -0.306018 -0.681441 0
M  V30 6335 H 622.883 -1.38734 -1.36891 0
M  V30 6336 H 621.979 -1.19258 -2.88416 0
M  V30 6337 N 622.28 1.30327 -0.886154 0
M  V30 6338 C 623.21 2.30549 -0.370028 0
M  V30 6339 C 624.191 1.61039 0.547751 0
M  V30 6340 O 625.376 1.8864 0.461353 0
M  V30 6341 C 622.506 3.44808 0.415275 0
M  V30 6342 C 621.46 4.26024 -0.41085 0
M  V30 6343 C 620.786 5.32347 0.501128 0
M  V30 6344 C 622.086 4.95433 -1.65359 0
M  V30 6345 H 623.78 2.73969 -1.20754 0
M  V30 6346 H 621.326 1.3171 -0.582097 0
M  V30 6347 H 623.279 4.13986 0.78699 0
M  V30 6348 H 622.003 3.00197 1.28644 0
M  V30 6349 H 620.662 3.58535 -0.764719 0
M  V30 6350 H 620.31 4.83982 1.37004 0
M  V30 6351 H 620.01 5.87581 -0.0478356 0
M  V30 6352 H 621.534 6.0438 0.869333 0
M  V30 6353 H 622.948 5.5712 -1.35239 0
M  V30 6354 H 621.345 5.60537 -2.14284 0
M  V30 6355 H 622.415 4.21493 -2.39733 0
M  V30 6356 N 623.758 0.647228 1.43697 0
M  V30 6357 C 625.169 0.238689 1.85168 0
M  V30 6358 C 625.52 -1.21345 1.54175 0
M  V30 6359 O 624.645 -1.92542 0.987743 0
M  V30 6360 C 625.24 0.426422 3.36106 0
M  V30 6361 C 623.799 0.0722541 3.76331 0
M  V30 6362 C 622.946 0.732153 2.6746 0
M  V30 6363 H 625.897 0.851309 1.33934 0
M  V30 6364 H 625.918 -0.32987 3.79067 0
M  V30 6365 H 625.43 1.48339 3.58632 0
M  V30 6366 H 623.531 -0.982355 3.59417 0
M  V30 6367 H 623.644 0.493541 4.76551 0
M  V30 6368 H 622.008 0.16594 2.54159 0
M  V30 6369 H 622.791 1.79204 2.92816 0
M  V30 6370 N 625.236 -1.5273 0.388769 0
M  V30 6371 C 626.168 -2.24081 -0.481704 0
M  V30 6372 C 627.181 -1.26307 -1.02715 0
M  V30 6373 O 628.37 -1.52386 -0.929565 0
M  V30 6374 C 625.47 -2.94315 -1.68024 0
M  V30 6375 C 624.643 -4.18791 -1.26226 0
M  V30 6376 C 623.702 -4.72028 -2.32542 0
M  V30 6377 O 622.728 -5.35129 -1.93972 0
M  V30 6378 N 623.93 -4.51838 -3.64448 0
M  V30 6379 H 626.695 -2.9942 0.129591 0
M  V30 6380 H 624.256 -1.60465 0.2151 0
M  V30 6381 H 626.248 -3.26831 -2.38671 0
M  V30 6382 H 624.818 -2.22287 -2.19789 0
M  V30 6383 H 624.038 -3.92318 -0.384703 0
M  V30 6384 H 625.326 -4.99668 -0.959647 0
M  V30 6385 H 624.724 -4.01468 -3.98547 0
M  V30 6386 H 623.281 -4.88845 -4.31131 0
M  V30 6387 N 626.714 -0.118576 -1.57153 0
M  V30 6388 C 627.662 0.849114 -2.16547 0
M  V30 6389 C 628.656 1.27567 -1.11458 0
M  V30 6390 O 629.862 1.24746 -1.29763 0
M  V30 6391 H 626.237 0.291935 -0.693021 0
M  V30 6392 H 628.208 0.323693 -2.96639 0
M  V30 6393 C 626.957 2.08951 -2.77912 0
M  V30 6394 H 626.28 1.77021 -3.58474 0
M  V30 6395 H 627.72 2.74666 -3.23008 0
M  V30 6396 C 626.179 2.87899 -1.74974 0
M  V30 6397 O 626.709 3.83268 -1.20285 0
M  V30 6398 N 624.915 2.51884 -1.44924 0
M  V30 6399 H 624.462 1.74397 -1.89587 0
M  V30 6400 H 624.42 3.05003 -0.762921 0
M  V30 6401 N 628.193 1.56834 0.155195 0
M  V30 6402 C 629.421 1.87049 0.884326 0
M  V30 6403 C 629.836 0.705839 1.7511 0
M  V30 6404 O 629.193 -0.324641 1.79589 0
M  V30 6405 C 629.244 3.1644 1.74781 0
M  V30 6406 O 628.965 4.28417 0.915978 0
M  V30 6407 C 630.466 3.60113 2.58522 0
M  V30 6408 H 627.686 0.620196 0.25612 0
M  V30 6409 H 630.23 2.03946 0.150445 0
M  V30 6410 H 628.385 3.01321 2.43484 0
M  V30 6411 H 628.799 5.02353 1.50803 0
M  V30 6412 H 630.273 4.53508 3.14698 0
M  V30 6413 H 630.75 2.85005 3.34169 0
M  V30 6414 H 631.356 3.77898 1.95124 0
M  V30 6415 N 629.671 -0.424282 1.51781 0
M  V30 6416 C 630.604 -1.53633 1.68737 0
M  V30 6417 C 631.582 -1.53549 0.534915 0
M  V30 6418 O 632.766 -1.72483 0.760391 0
M  V30 6419 C 629.893 -2.92195 1.71288 0
M  V30 6420 C 628.939 -3.10251 2.92654 0
M  V30 6421 S 629.772 -2.85166 4.53256 0
M  V30 6422 C 630.928 -4.25986 4.58571 0
M  V30 6423 H 631.161 -1.39018 2.62795 0
M  V30 6424 H 628.694 -0.614854 1.41629 0
M  V30 6425 H 630.652 -3.72059 1.73443 0
M  V30 6426 H 629.313 -3.04162 0.783847 0
M  V30 6427 H 628.506 -4.1159 2.90877 0
M  V30 6428 H 628.108 -2.38231 2.88308 0
M  V30 6429 H 630.4 -5.19392 4.35015 0
M  V30 6430 H 631.343 -4.32792 5.60444 0
M  V30 6431 H 631.751 -4.1025 3.87757 0
M  V30 6432 N 631.149 -1.42148 -0.680565 0
M  V30 6433 C 632.096 -1.45175 -1.79424 0
M  V30 6434 C 633.066 -0.304352 -1.63288 0
M  V30 6435 O 634.251 -0.507591 -1.83924 0
M  V30 6436 C 631.391 -1.35429 -3.17416 0
M  V30 6437 C 630.504 -2.60158 -3.4488 0
M  V30 6438 C 629.639 -2.42596 -4.72568 0
M  V30 6439 C 628.678 -3.62727 -4.93047 0
M  V30 6440 N 627.815 -3.44143 -6.11973 0
M  V30 6441 H 632.655 -2.40349 -1.76172 0
M  V30 6442 H 630.192 -1.19334 -0.860107 0
M  V30 6443 H 632.15 -1.27777 -3.97151 0
M  V30 6444 H 630.78 -0.438536 -3.19807 0
M  V30 6445 H 629.832 -2.78199 -2.5944 0
M  V30 6446 H 631.144 -3.49473 -3.55908 0
M  V30 6447 H 630.298 -2.32497 -5.60384 0
M  V30 6448 H 629.037 -1.50761 -4.63813 0
M  V30 6449 H 628.042 -3.73264 -4.03676 0
M  V30 6450 H 629.267 -4.55534 -5.03652 0
M  V30 6451 H 627.213 -2.5502 -6.04401 0
M  V30 6452 H 627.13 -4.27041 -6.23836 0
M  V30 6453 H 628.398 -3.37845 -7.02482 0
M  V30 6454 N 632.627 0.916307 -1.28225 0
M  V30 6455 C 633.876 1.65975 -1.14608 0
M  V30 6456 C 634.189 1.93204 0.305191 0
M  V30 6457 O 635.395 2.65611 0.562432 0
M  V30 6458 C 633.851 2.98989 -2.00333 0
M  V30 6459 C 633.459 2.79417 -3.50186 0
M  V30 6460 C 635.203 3.76856 -1.95397 0
M  V30 6461 C 633.11 4.08056 -4.28071 0
M  V30 6462 H 632.04 0.622587 -0.425324 0
M  V30 6463 H 634.691 1.01705 -1.52736 0
M  V30 6464 H 633.073 3.6438 -1.5506 0
M  V30 6465 H 634.247 2.22723 -4.034 0
M  V30 6466 H 632.562 2.14966 -3.56621 0
M  V30 6467 H 635.159 4.72203 -2.50856 0
M  V30 6468 H 635.502 4.05776 -0.930137 0
M  V30 6469 H 636.035 3.1828 -2.38626 0
M  V30 6470 H 632.774 3.8431 -5.31024 0
M  V30 6471 H 632.294 4.64371 -3.79631 0
M  V30 6472 H 633.973 4.76333 -4.37854 0
M  V30 6473 N 634.105 1.10431 1.1244 0
M  V30 6474 C 635.353 0.845045 1.83585 0
M  V30 6475 C 635.674 -0.631168 1.84503 0
M  V30 6476 O 634.944 -1.45825 1.30813 0
M  V30 6477 H 633.524 0.309628 0.679809 0
M  V30 6478 H 636.186 1.39458 1.36153 0
M  V30 6479 H 635.282 1.20786 2.8778 0
M  V30 6480 N 635.583 -1.29855 0.893053 0
M  V30 6481 C 636.832 -1.95104 0.511597 0
M  V30 6482 C 637.145 -1.71226 -0.945567 0
M  V30 6483 O 638.351 -2.30525 -1.43424 0
M  V30 6484 C 636.807 -3.49374 0.864034 0
M  V30 6485 C 636.415 -3.82061 2.33952 0
M  V30 6486 C 638.159 -4.20894 0.552167 0
M  V30 6487 C 636.066 -5.29546 2.63316 0
M  V30 6488 H 634.996 -0.73029 0.187597 0
M  V30 6489 H 637.647 -1.47682 1.08914 0
M  V30 6490 H 636.029 -3.95413 0.215493 0
M  V30 6491 H 637.203 -3.46904 3.03305 0
M  V30 6492 H 635.518 -3.23665 2.61973 0
M  V30 6493 H 638.115 -5.29435 0.748489 0
M  V30 6494 H 638.458 -4.13178 -0.508924 0
M  V30 6495 H 638.991 -3.80564 1.15825 0
M  V30 6496 H 635.73 -5.4232 3.68197 0
M  V30 6497 H 635.25 -5.65974 1.9858 0
M  V30 6498 H 636.929 -5.97068 2.49236 0
M  V30 6499 N 637.061 -0.65484 -1.43351 0
M  V30 6500 C 637.994 0.0855537 -2.2804 0
M  V30 6501 C 638.972 0.828301 -1.39921 0
M  V30 6502 O 640.156 0.827539 -1.69364 0
M  V30 6503 C 637.283 1.12792 -3.19368 0
M  V30 6504 C 636.329 0.483037 -4.23756 0
M  V30 6505 S 637.162 -0.744605 -5.30298 0
M  V30 6506 C 638.318 0.297187 -6.25194 0
M  V30 6507 H 638.551 -0.632831 -2.90487 0
M  V30 6508 H 636.084 -0.44373 -1.47886 0
M  V30 6509 H 638.042 1.7243 -3.72529 0
M  V30 6510 H 636.703 1.81863 -2.56095 0
M  V30 6511 H 635.896 1.26888 -4.87766 0
M  V30 6512 H 635.498 -0.0392713 -3.73979 0
M  V30 6513 H 637.79 1.1629 -6.67445 0
M  V30 6514 H 638.733 -0.30793 -7.0743 0
M  V30 6515 H 639.141 0.633721 -5.60932 0
M  V30 6516 N 638.539 1.52521 -0.396863 0
M  V30 6517 C 639.816 1.94112 0.240842 0
M  V30 6518 C 640.196 1.33288 1.637 0
M  V30 6519 O 639.544 0.503901 2.22875 0
M  V30 6520 C 639.754 3.48033 0.259567 0
M  V30 6521 C 641.102 4.21822 0.484866 0
M  V30 6522 O 642.126 3.54579 0.339453 0
M  V30 6523 O 640.985 5.41042 0.770412 0
M  V30 6524 H 638.079 0.812973 0.151671 0
M  V30 6525 H 640.625 1.63572 -0.451918 0
M  V30 6526 H 639.397 3.84655 -0.718078 0
M  V30 6527 H 639.02 3.84899 0.996937 0
M  V30 6528 N 640.017 0.126909 1.57088 0
M  V30 6529 C 640.927 -0.833867 2.1928 0
M  V30 6530 C 641.943 -1.2868 1.17122 0
M  V30 6531 O 643.119 -1.34815 1.49622 0
M  V30 6532 C 640.184 -2.0632 2.78627 0
M  V30 6533 C 639.245 -1.66143 3.95847 0
M  V30 6534 C 638.478 -2.83217 4.52354 0
M  V30 6535 O 638.701 -3.98868 4.0775 0
M  V30 6536 O 637.635 -2.59846 5.42922 0
M  V30 6537 H 641.461 -0.334564 3.01852 0
M  V30 6538 H 639.046 -0.0991091 1.49071 0
M  V30 6539 H 640.928 -2.78304 3.16425 0
M  V30 6540 H 639.603 -2.55242 1.99082 0
M  V30 6541 H 638.51 -0.912435 3.62802 0
M  V30 6542 H 639.843 -1.21957 4.76852 0
M  V30 6543 N 641.495 -1.56914 -0.146875 0
M  V30 6544 C 642.405 -2.0154 -1.20079 0
M  V30 6545 C 643.421 -0.930838 -1.47008 0
M  V30 6546 O 644.597 -1.24032 -1.58676 0
M  V30 6547 C 641.662 -2.38715 -2.51428 0
M  V30 6548 C 640.723 -3.6112 -2.32145 0
M  V30 6549 C 639.956 -3.96512 -3.57231 0
M  V30 6550 O 640.179 -3.32566 -4.63418 0
M  V30 6551 O 639.113 -4.89758 -3.49887 0
M  V30 6552 H 642.939 -2.91506 -0.851924 0
M  V30 6553 H 640.524 -1.45106 -0.355607 0
M  V30 6554 H 642.406 -2.63485 -3.28867 0
M  V30 6555 H 641.081 -1.51903 -2.85845 0
M  V30 6556 H 639.988 -3.41536 -1.52656 0
M  V30 6557 H 641.321 -4.48549 -2.02644 0
M  V30 6558 N 642.974 0.416227 -1.52004 0
M  V30 6559 C 644.39 0.754319 -1.40649 0
M  V30 6560 C 644.59 1.95059 -0.505392 0
M  V30 6561 O 643.646 2.5248 0.0315057 0
M  V30 6562 C 644.959 1.0149 -2.83055 0
M  V30 6563 C 646.507 1.11805 -2.9235 0
M  V30 6564 C 646.982 1.41144 -4.35709 0
M  V30 6565 N 648.473 1.48024 -4.38911 0
M  V30 6566 C 649.208 1.72338 -5.46889 0
M  V30 6567 N 648.704 1.94303 -6.64995 0
M  V30 6568 N 650.497 1.74294 -5.34395 0
M  V30 6569 H 642.648 -0.371324 -2.09129 0
M  V30 6570 H 644.911 -0.103811 -0.942299 0
M  V30 6571 H 644.617 0.208345 -3.51082 0
M  V30 6572 H 644.491 1.93697 -3.23668 0
M  V30 6573 H 646.878 1.91521 -2.24508 0
M  V30 6574 H 646.959 0.17451 -2.55204 0
M  V30 6575 H 646.603 0.619484 -5.04108 0
M  V30 6576 H 646.533 2.36739 -4.70385 0
M  V30 6577 H 649.024 1.32868 -3.53772 0
M  V30 6578 H 649.337 2.12286 -7.43071 0
M  V30 6579 H 647.682 1.91582 -6.68073 0
M  V30 6580 H 650.873 1.56667 -4.41104 0
M  V30 6581 H 651.046 1.92904 -6.18621 0
M  V30 6582 N 644.452 1.42507 0.673017 0
M  V30 6583 C 645.868 1.25472 0.986355 0
M  V30 6584 C 646.068 0.160181 2.00862 0
M  V30 6585 O 645.124 -0.467993 2.48125 0
M  V30 6586 C 646.437 2.61219 1.48947 0
M  V30 6587 C 647.985 2.68589 1.60715 0
M  V30 6588 C 648.46 4.04707 2.14422 0
M  V30 6589 N 649.951 4.0667 2.21752 0
M  V30 6590 C 650.686 5.0881 2.64386 0
M  V30 6591 N 650.182 6.21332 3.0646 0
M  V30 6592 N 651.975 4.96166 2.64151 0
M  V30 6593 H 644.126 2.124 -0.00378532 0
M  V30 6594 H 646.389 0.946046 0.0608367 0
M  V30 6595 H 646.095 3.42179 0.812812 0
M  V30 6596 H 645.969 2.85261 2.46791 0
M  V30 6597 H 648.356 1.87974 2.27486 0
M  V30 6598 H 648.437 2.48333 0.613552 0
M  V30 6599 H 648.081 4.8578 1.48258 0
M  V30 6600 H 648.011 4.22315 3.14575 0
M  V30 6601 H 650.502 3.25438 1.92089 0
M  V30 6602 H 650.815 6.95118 3.37684 0
M  V30 6603 H 649.16 6.24835 3.04313 0
M  V30 6604 H 652.351 4.07334 2.30644 0
M  V30 6605 H 652.524 5.759 2.97057 0
M  V30 6606 N 645.93 -0.909495 1.28709 0
M  V30 6607 C 647.158 -1.69272 1.18973 0
M  V30 6608 C 647.573 -1.87123 -0.251048 0
M  V30 6609 O 646.93 -1.40127 -1.16922 0
M  V30 6610 C 646.981 -3.08257 1.88839 0
M  V30 6611 O 646.702 -2.91228 3.27289 0
M  V30 6612 C 648.203 -4.02642 1.85457 0
M  V30 6613 H 645.423 -0.528999 0.412797 0
M  V30 6614 H 647.967 -1.13803 1.69909 0
M  V30 6615 H 646.122 -3.6053 1.41762 0
M  V30 6616 H 646.536 -3.79223 3.6234 0
M  V30 6617 H 648.01 -4.97613 2.38925 0
M  V30 6618 H 648.487 -4.31327 0.827893 0
M  V30 6619 H 649.093 -3.56298 2.32233 0
M  V30 6620 N 647.408 -1.11026 -1.11852 0
M  V30 6621 C 648.636 -0.878818 -1.87308 0
M  V30 6622 C 649.051 0.57111 -1.79955 0
M  V30 6623 O 648.408 1.39409 -1.17777 0
M  V30 6624 C 648.459 -1.3264 -3.36287 0
M  V30 6625 O 648.18 -2.71948 -3.43476 0
M  V30 6626 C 649.681 -1.12974 -4.28663 0
M  V30 6627 H 646.901 -0.315015 -0.592458 0
M  V30 6628 H 649.445 -1.47649 -1.41492 0
M  V30 6629 H 647.6 -0.772269 -3.79625 0
M  V30 6630 H 648.014 -2.91241 -4.3621 0
M  V30 6631 H 649.488 -1.49198 -5.31454 0
M  V30 6632 H 649.965 -0.0689127 -4.39146 0
M  V30 6633 H 650.571 -1.67064 -3.91113 0
M  V30 6634 N 648.886 1.2938 -0.899927 0
M  V30 6635 C 650.132 1.9584 -0.526742 0
M  V30 6636 C 650.465 1.70774 0.924651 0
M  V30 6637 O 649.74 1.02084 1.65557 0
M  V30 6638 C 650.023 3.50638 -0.820062 0
M  V30 6639 C 649.876 3.85161 -2.32317 0
M  V30 6640 C 651.195 4.3903 -0.30671 0
M  V30 6641 H 648.314 0.711322 -0.192848 0
M  V30 6642 H 650.956 1.52992 -1.12665 0
M  V30 6643 H 649.106 3.87265 -0.309491 0
M  V30 6644 H 650.778 3.58477 -2.9033 0
M  V30 6645 H 649.021 3.32696 -2.78381 0
M  V30 6646 H 649.692 4.93204 -2.47898 0
M  V30 6647 H 652.168 4.09396 -0.743908 0
M  V30 6648 H 651.044 5.46226 -0.541144 0
M  V30 6649 H 651.305 4.34937 0.792588 0
M  V30 6650 N 650.364 0.662433 1.43002 0
M  V30 6651 C 651.312 -0.035345 2.32573 0
M  V30 6652 C 652.306 -0.803505 1.49131 0
M  V30 6653 O 653.512 -0.712865 1.65282 0
M  V30 6654 H 649.887 -0.0302194 0.751393 0
M  V30 6655 H 651.858 0.737686 2.89138 0
M  V30 6656 C 650.607 -0.981575 3.33557 0
M  V30 6657 H 649.93 -0.399914 3.97795 0
M  V30 6658 H 651.37 -1.43873 3.98844 0
M  V30 6659 C 649.829 -2.08204 2.64863 0
M  V30 6660 O 650.359 -3.16698 2.47113 0
M  V30 6661 N 648.565 -1.85022 2.24088 0
M  V30 6662 H 648.112 -0.967909 2.38724 0
M  V30 6663 H 648.07 -2.58845 1.78457 0
M  V30 6664 N 651.842 -1.52309 0.404946 0
M  V30 6665 C 652.772 -2.29805 -0.41376 0
M  V30 6666 C 653.753 -1.3384 -1.0498 0
M  V30 6667 O 654.938 -1.62745 -1.05961 0
M  V30 6668 C 652.068 -3.11639 -1.53292 0
M  V30 6669 C 651.022 -4.15616 -1.02211 0
M  V30 6670 C 650.348 -4.8577 -2.23455 0
M  V30 6671 C 651.648 -5.2224 -0.0790725 0
M  V30 6672 H 653.342 -2.98493 0.232878 0
M  V30 6673 H 650.888 -1.43552 0.113441 0
M  V30 6674 H 652.841 -3.64618 -2.11262 0
M  V30 6675 H 651.565 -2.40712 -2.20738 0
M  V30 6676 H 650.224 -3.63641 -0.46484 0
M  V30 6677 H 649.872 -4.11376 -2.89445 0
M  V30 6678 H 649.572 -5.56058 -1.89929 0
M  V30 6679 H 651.096 -5.4156 -2.82038 0
M  V30 6680 H 652.51 -5.70485 -0.567438 0
M  V30 6681 H 650.907 -5.99867 0.167167 0
M  V30 6682 H 651.977 -4.77078 0.867447 0
M  V30 6683 N 653.32 -0.135238 -1.57019 0
M  V30 6684 C 654.267 0.808908 -2.1616 0
M  V30 6685 C 655.237 1.25234 -1.09113 0
M  V30 6686 O 656.422 1.32697 -1.37099 0
M  V30 6687 C 653.562 2.04729 -2.77813 0
M  V30 6688 C 652.675 1.65074 -3.99218 0
M  V30 6689 C 651.81 2.84002 -4.48906 0
M  V30 6690 C 650.849 2.40663 -5.62803 0
M  V30 6691 N 649.986 3.5256 -6.07162 0
M  V30 6692 H 654.826 0.297751 -2.96509 0
M  V30 6693 H 652.363 0.135264 -1.46477 0
M  V30 6694 H 654.321 2.7731 -3.11697 0
M  V30 6695 H 652.951 2.53275 -2.00128 0
M  V30 6696 H 652.003 0.823029 -3.7139 0
M  V30 6697 H 653.315 1.29236 -4.81767 0
M  V30 6698 H 652.469 3.64788 -4.84783 0
M  V30 6699 H 651.208 3.23076 -3.65339 0
M  V30 6700 H 650.213 1.58314 -5.26514 0
M  V30 6701 H 651.438 2.02687 -6.48147 0
M  V30 6702 H 649.384 3.91278 -5.26534 0
M  V30 6703 H 649.301 3.20699 -6.84608 0
M  V30 6704 H 650.569 4.33738 -6.47682 0
M  V30 6705 N 654.798 1.5699 0.138552 0
M  V30 6706 C 655.761 1.97984 1.15478 0
M  V30 6707 C 656.761 0.867416 1.35398 0
M  V30 6708 O 657.951 1.13387 1.32246 0
M  V30 6709 C 655.083 2.3031 2.51337 0
M  V30 6710 H 656.276 2.88953 0.802896 0
M  V30 6711 H 653.829 1.51555 0.382189 0
M  V30 6712 H 654.564 1.42159 2.91481 0
M  V30 6713 H 654.349 3.11425 2.38237 0
M  V30 6714 H 655.839 2.62834 3.24512 0
M  V30 6715 N 656.276 -0.40816 1.52223 0
M  V30 6716 C 657.516 -1.16418 1.68006 0
M  V30 6717 C 657.88 -1.87749 0.401793 0
M  V30 6718 O 659.081 -2.65245 0.435743 0
M  V30 6719 C 657.352 -2.13143 2.86889 0
M  V30 6720 S 658.911 -2.96839 3.2316 0
M  V30 6721 H 655.729 -0.394373 0.5916 0
M  V30 6722 H 658.331 -0.451349 1.90219 0
M  V30 6723 H 657.035 -1.59428 3.78168 0
M  V30 6724 H 656.566 -2.88963 2.66953 0
M  V30 6725 H 658.581 -4.151 2.71857 0
M  V30 6726 N 657.755 -1.42862 -0.66545 0
M  V30 6727 C 659.004 -1.43119 -1.42126 0
M  V30 6728 C 659.317 -0.0545297 -1.95524 0
M  V30 6729 O 660.523 0.0654747 -2.71421 0
M  V30 6730 C 658.979 -2.51797 -2.5715 0
M  V30 6731 C 658.587 -3.95514 -2.10411 0
M  V30 6732 C 660.331 -2.61233 -3.346 0
M  V30 6733 C 658.238 -4.95682 -3.22573 0
M  V30 6734 H 657.168 -0.532349 -0.533966 0
M  V30 6735 H 659.819 -1.68806 -0.719506 0
M  V30 6736 H 658.201 -2.19292 -3.29738 0
M  V30 6737 H 659.375 -4.3742 -1.44915 0
M  V30 6738 H 657.69 -3.90012 -1.45874 0
M  V30 6739 H 660.287 -3.33248 -4.18151 0
M  V30 6740 H 660.63 -1.65896 -3.81817 0
M  V30 6741 H 661.163 -2.9298 -2.69087 0
M  V30 6742 H 657.902 -5.92529 -2.80338 0
M  V30 6743 H 657.422 -4.58399 -3.86821 0
M  V30 6744 H 659.101 -5.17828 -3.87896 0
M  V30 6745 N 659.233 0.902656 -1.29189 0
M  V30 6746 C 660.18 2.00643 -1.14066 0
M  V30 6747 C 661.15 1.66064 -0.0347756 0
M  V30 6748 O 662.335 1.8973 -0.201752 0
M  V30 6749 C 659.475 3.35214 -0.820104 0
M  V30 6750 C 658.588 3.82594 -2.00614 0
M  V30 6751 C 657.723 5.05727 -1.62522 0
M  V30 6752 C 656.762 5.45469 -2.77724 0
M  V30 6753 N 655.899 6.59789 -2.40048 0
M  V30 6754 H 660.739 2.1291 -2.08502 0
M  V30 6755 H 658.276 1.04271 -1.03759 0
M  V30 6756 H 660.234 4.12643 -0.614949 0
M  V30 6757 H 658.864 3.22682 0.0873452 0
M  V30 6758 H 657.916 3.01226 -2.32308 0
M  V30 6759 H 659.228 4.07999 -2.86946 0
M  V30 6760 H 658.382 5.90732 -1.38277 0
M  V30 6761 H 657.121 4.82155 -0.733333 0
M  V30 6762 H 656.126 4.59 -3.02653 0
M  V30 6763 H 657.351 5.71024 -3.67572 0
M  V30 6764 H 655.297 6.37826 -1.53343 0
M  V30 6765 H 655.214 6.84975 -3.19914 0
M  V30 6766 H 656.482 7.4807 -2.19116 0
M  V30 6767 N 660.711 1.11618 1.11262 0
M  V30 6768 C 661.674 0.779447 2.15539 0
M  V30 6769 C 662.674 -0.202081 1.59525 0
M  V30 6770 O 663.864 0.0226356 1.74185 0
M  V30 6771 C 660.996 0.15674 3.40539 0
M  V30 6772 H 662.189 1.70324 2.4684 0
M  V30 6773 H 659.742 0.918298 1.26479 0
M  V30 6774 H 660.477 -0.777186 3.1485 0
M  V30 6775 H 660.262 0.863308 3.82478 0
M  V30 6776 H 661.752 -0.062661 4.17553 0
M  V30 6777 N 662.189 -1.289 0.906776 0
M  V30 6778 C 663.152 -2.25777 0.394656 0
M  V30 6779 C 664.152 -1.53621 -0.475119 0
M  V30 6780 O 665.342 -1.71949 -0.279165 0
M  V30 6781 C 662.474 -3.38113 -0.43499 0
M  V30 6782 H 663.667 -2.72592 1.25033 0
M  V30 6783 H 661.22 -1.40463 0.685547 0
M  V30 6784 H 661.955 -2.96648 -1.31036 0
M  V30 6785 H 661.74 -3.91647 0.188334 0
M  V30 6786 H 663.23 -4.10168 -0.784365 0
M  V30 6787 N 663.667 -0.670007 -1.42649 0
M  V30 6788 C 664.63 0.00204659 -2.292 0
M  V30 6789 C 665.63 0.733817 -1.4308 0
M  V30 6790 O 666.82 0.57254 -1.64522 0
M  V30 6791 C 663.952 1.01359 -3.25483 0
M  V30 6792 H 665.145 -0.759696 -2.90118 0
M  V30 6793 H 662.698 -0.432105 -1.50208 0
M  V30 6794 H 663.433 1.80399 -2.69493 0
M  V30 6795 H 663.218 0.492323 -3.88997 0
M  V30 6796 H 664.708 1.4824 -3.90403 0
M  V30 6797 N 665.145 1.52092 -0.413018 0
M  V30 6798 C 666.422 1.94356 0.22024 0
M  V30 6799 C 666.802 1.35017 1.62277 0
M  V30 6800 O 666.15 0.527511 2.22328 0
M  V30 6801 C 666.36 3.48289 0.222638 0
M  V30 6802 C 667.708 4.22313 0.440098 0
M  V30 6803 O 668.732 3.54919 0.301826 0
M  V30 6804 O 667.591 5.41829 0.712984 0
M  V30 6805 H 664.685 0.814536 0.14304 0
M  V30 6806 H 667.231 1.63083 -0.469242 0
M  V30 6807 H 666.003 3.83872 -0.758836 0
M  V30 6808 H 665.626 3.85934 0.956057 0
M  V30 6809 N 666.623 0.143563 1.56945 0
M  V30 6810 C 668.039 -0.212877 1.58174 0
M  V30 6811 C 668.239 -1.64926 1.15766 0
M  V30 6812 O 667.295 -2.37535 0.856361 0
M  V30 6813 C 668.608 0.0427573 3.0067 0
M  V30 6814 C 670.156 -0.0212221 3.12993 0
M  V30 6815 C 670.631 0.207036 4.57532 0
M  V30 6816 N 672.122 0.153845 4.62944 0
M  V30 6817 C 672.857 0.305018 5.72588 0
M  V30 6818 N 672.353 0.513722 6.90893 0
M  V30 6819 N 674.146 0.242862 5.61575 0
M  V30 6820 H 666.297 1.08148 1.82805 0
M  V30 6821 H 668.56 0.427831 0.84597 0
M  V30 6822 H 668.266 1.03672 3.36073 0
M  V30 6823 H 668.14 -0.678195 3.71053 0
M  V30 6824 H 670.527 -1.00574 2.77433 0
M  V30 6825 H 670.608 0.732004 2.45103 0
M  V30 6826 H 670.252 1.18863 4.93795 0
M  V30 6827 H 670.182 -0.566473 5.23544 0
M  V30 6828 H 672.673 -0.00294866 3.779 0
M  V30 6829 H 672.986 0.619273 7.70315 0
M  V30 6830 H 671.331 0.550001 6.9282 0
M  V30 6831 H 674.522 0.0806015 4.68031 0
M  V30 6832 H 674.695 0.364112 6.46976 0
M  V30 6833 N 668.101 -1.57061 -0.130224 0
M  V30 6834 C 669.347 -1.8453 -0.841216 0
M  V30 6835 C 669.68 -0.727666 -1.80052 0
M  V30 6836 O 668.955 0.267419 -1.92653 0
M  V30 6837 C 669.238 -3.22553 -1.60099 0
M  V30 6838 C 669.091 -4.44901 -0.662048 0
M  V30 6839 C 670.41 -3.58003 -2.55973 0
M  V30 6840 H 667.529 -0.671215 -0.304366 0
M  V30 6841 H 670.171 -1.89705 -0.105821 0
M  V30 6842 H 668.321 -3.18272 -2.22789 0
M  V30 6843 H 669.993 -4.61278 -0.0448559 0
M  V30 6844 H 668.236 -4.33791 0.0272253 0
M  V30 6845 H 668.907 -5.3812 -1.23006 0
M  V30 6846 H 671.383 -3.63002 -2.03393 0
M  V30 6847 H 670.259 -4.55576 -3.06172 0
M  V30 6848 H 670.52 -2.84833 -3.38116 0
M  V30 6849 N 669.579 0.400081 -1.52437 0
M  V30 6850 C 670.825 1.14788 -1.67187 0
M  V30 6851 C 671.158 1.89928 -0.405074 0
M  V30 6852 O 670.433 1.85118 0.596804 0
M  V30 6853 C 670.716 2.13507 -2.89977 0
M  V30 6854 C 670.569 1.42204 -4.2673 0
M  V30 6855 C 671.888 3.14069 -3.083 0
M  V30 6856 H 669.007 0.415939 -0.608411 0
M  V30 6857 H 671.649 0.432542 -1.85011 0
M  V30 6858 H 669.799 2.7451 -2.74912 0
M  V30 6859 H 671.471 0.842503 -4.53541 0
M  V30 6860 H 669.714 0.723939 -4.27717 0
M  V30 6861 H 670.385 2.14281 -5.08712 0
M  V30 6862 H 672.861 2.63148 -3.22323 0
M  V30 6863 H 671.737 3.80398 -3.95713 0
M  V30 6864 H 671.998 3.82309 -2.22018 0
M  V30 6865 N 671.057 1.43213 0.657864 0
M  V30 6866 C 672.304 1.44584 1.41781 0
M  V30 6867 C 672.632 0.0684208 1.9438 0
M  V30 6868 O 671.887 -0.925872 1.72413 0
M  V30 6869 C 672.186 2.43143 2.61947 0
M  V30 6870 C 671.852 3.89128 2.27794 0
M  V30 6871 C 670.514 4.28889 2.18191 0
M  V30 6872 C 672.866 4.81144 2.00375 0
M  V30 6873 C 670.194 5.58625 1.79319 0
M  V30 6874 C 672.546 6.11239 1.63003 0
M  V30 6875 C 671.21 6.49981 1.51922 0
M  V30 6876 H 670.48 0.529069 0.518813 0
M  V30 6877 H 673.127 1.76263 0.748577 0
M  V30 6878 H 671.432 2.04851 3.33981 0
M  V30 6879 H 673.129 2.4146 3.20153 0
M  V30 6880 H 669.719 3.57657 2.36176 0
M  V30 6881 H 673.903 4.512 2.06718 0
M  V30 6882 H 669.159 5.87486 1.69323 0
M  V30 6883 H 673.333 6.82014 1.40817 0
M  V30 6884 H 670.96 7.50416 1.21572 0
M  V30 6885 N 672.536 -0.895792 1.29666 0
M  V30 6886 C 673.785 -1.64131 1.17234 0
M  V30 6887 C 674.098 -1.93665 -0.274416 0
M  V30 6888 O 675.304 -2.66472 -0.520105 0
M  V30 6889 C 673.76 -2.95764 2.05065 0
M  V30 6890 C 673.368 -2.7381 3.54587 0
M  V30 6891 C 675.112 -3.737 2.01367 0
M  V30 6892 C 673.019 -4.01194 4.34508 0
M  V30 6893 H 671.949 -0.615742 0.435175 0
M  V30 6894 H 674.6 -0.992626 1.54335 0
M  V30 6895 H 672.982 -3.61867 1.60837 0
M  V30 6896 H 674.156 -2.16277 4.06892 0
M  V30 6897 H 672.471 -2.09265 3.59996 0
M  V30 6898 H 675.068 -4.68152 2.58337 0
M  V30 6899 H 675.411 -4.04245 0.994575 0
M  V30 6900 H 675.944 -3.14444 2.43659 0
M  V30 6901 H 672.683 -3.75813 5.37071 0
M  V30 6902 H 672.203 -4.58272 3.86971 0
M  V30 6903 H 673.882 -4.69307 4.45376 0
M  V30 6904 N 674.014 -1.12206 -1.10668 0
M  V30 6905 C 674.962 -0.782918 -2.19028 0
M  V30 6906 C 675.956 0.229175 -1.67843 0
M  V30 6907 O 677.162 0.0876295 -1.79787 0
M  V30 6908 H 673.537 -0.235339 -0.714227 0
M  V30 6909 H 675.508 -1.70527 -2.44874 0
M  V30 6910 C 674.257 -0.25116 -3.46792 0
M  V30 6911 H 673.58 -1.02123 -3.86537 0
M  V30 6912 H 675.02 -0.0521409 -4.23968 0
M  V30 6913 C 673.479 1.02037 -3.21076 0
M  V30 6914 O 674.009 2.09862 -3.42522 0
M  V30 6915 N 672.215 0.946348 -2.74759 0
M  V30 6916 H 671.762 0.068777 -2.57508 0
M  V30 6917 H 671.72 1.79775 -2.57931 0
M  V30 6918 N 675.492 1.28418 -0.913599 0
M  V30 6919 C 676.72 1.99106 -0.562536 0
M  V30 6920 C 677.135 1.68273 0.856137 0
M  V30 6921 O 676.492 0.935401 1.56705 0
M  V30 6922 C 676.543 3.5338 -0.761903 0
M  V30 6923 O 676.264 3.83127 -2.12475 0
M  V30 6924 C 677.765 4.41328 -0.417651 0
M  V30 6925 H 674.985 0.635798 -0.214481 0
M  V30 6926 H 677.529 1.63618 -1.22676 0
M  V30 6927 H 675.684 3.8713 -0.144676 0
M  V30 6928 H 676.098 4.77763 -2.16431 0
M  V30 6929 H 677.572 5.48642 -0.607919 0
M  V30 6930 H 678.049 4.34422 0.646108 0
M  V30 6931 H 678.655 4.13074 -1.01241 0
M  V30 6932 N 676.97 0.677563 1.42291 0
M  V30 6933 C 678.218 0.200578 2.01102 0
M  V30 6934 C 678.539 -1.19803 1.53858 0
M  V30 6935 O 677.809 -1.80496 0.761439 0
M  V30 6936 H 676.389 0.0711634 0.743603 0
M  V30 6937 H 679.051 0.874691 1.7417 0
M  V30 6938 H 678.147 0.204 3.11433 0
M  V30 6939 N 678.448 -1.51871 0.421078 0
M  V30 6940 C 679.695 -2.01938 -0.15079 0
M  V30 6941 C 680.023 -1.30611 -1.44121 0
M  V30 6942 O 679.278 -0.404631 -1.91471 0
M  V30 6943 C 679.577 -3.54764 -0.433292 0
M  V30 6944 C 679.243 -4.44288 0.76936 0
M  V30 6945 C 677.905 -4.68477 1.09921 0
M  V30 6946 C 680.257 -4.96915 1.57242 0
M  V30 6947 C 677.585 -5.4254 2.2331 0
M  V30 6948 C 679.937 -5.7222 2.69716 0
M  V30 6949 C 678.601 -5.94678 3.03174 0
M  V30 6950 H 677.871 -0.738943 -0.0551781 0
M  V30 6951 H 680.518 -1.82977 0.564945 0
M  V30 6952 H 678.823 -3.71968 -1.23074 0
M  V30 6953 H 680.52 -3.91023 -0.888922 0
M  V30 6954 H 677.11 -4.25646 0.502305 0
M  V30 6955 H 681.294 -4.78125 1.3308 0
M  V30 6956 H 676.55 -5.58146 2.49565 0
M  V30 6957 H 680.724 -6.11992 3.32323 0
M  V30 6958 H 678.351 -6.51848 3.9115 0
M  V30 6959 N 679.926 -0.151884 -1.56866 0
M  V30 6960 C 680.856 0.781943 -2.20018 0
M  V30 6961 C 681.837 1.25347 -1.14987 0
M  V30 6962 O 683.022 1.31015 -1.43348 0
M  V30 6963 C 680.152 2.01928 -2.82564 0
M  V30 6964 C 679.106 1.68434 -3.93464 0
M  V30 6965 C 678.432 2.99472 -4.42968 0
M  V30 6966 C 679.732 0.927244 -5.14003 0
M  V30 6967 H 681.426 0.255607 -2.98307 0
M  V30 6968 H 678.972 0.121502 -1.43486 0
M  V30 6969 H 680.925 2.67741 -3.25411 0
M  V30 6970 H 679.649 2.56943 -2.01614 0
M  V30 6971 H 678.308 1.04998 -3.51242 0
M  V30 6972 H 677.956 3.52488 -3.58834 0
M  V30 6973 H 677.656 2.77823 -5.17772 0
M  V30 6974 H 679.18 3.66348 -4.88489 0
M  V30 6975 H 680.594 1.48756 -5.53665 0
M  V30 6976 H 678.991 0.810513 -5.94601 0
M  V30 6977 H 680.061 -0.0801163 -4.84834 0
M  V30 6978 N 681.404 1.57128 0.121893 0
M  V30 6979 C 682.681 1.75664 0.860327 0
M  V30 6980 C 683.061 0.726585 1.98202 0
M  V30 6981 O 682.409 -0.24999 2.27128 0
M  V30 6982 C 682.619 3.20571 1.37968 0
M  V30 6983 C 683.967 3.82988 1.83317 0
M  V30 6984 O 684.991 3.24156 1.47654 0
M  V30 6985 O 683.85 4.86393 2.49168 0
M  V30 6986 H 680.944 0.719153 0.408348 0
M  V30 6987 H 683.49 1.6937 0.105859 0
M  V30 6988 H 682.262 3.87056 0.57477 0
M  V30 6989 H 681.885 3.31392 2.19694 0
M  V30 6990 N 682.882 -0.391992 1.52647 0
M  V30 6991 C 684.298 -0.731848 1.41831 0
M  V30 6992 C 684.498 -1.9423 0.536361 0
M  V30 6993 O 683.554 -2.52499 0.00866571 0
M  V30 6994 C 684.867 -0.969743 2.84634 0
M  V30 6995 C 686.415 -1.0714 2.94092 0
M  V30 6996 C 686.89 -1.34195 4.37899 0
M  V30 6997 N 688.381 -1.41023 4.41211 0
M  V30 6998 C 689.116 -1.63616 5.49561 0
M  V30 6999 N 688.612 -1.83699 6.68002 0
M  V30 7000 N 690.405 -1.65771 5.371 0
M  V30 7001 H 682.556 0.404547 2.08512 0
M  V30 7002 H 684.819 0.11879 0.940528 0
M  V30 7003 H 684.525 -0.152465 3.51369 0
M  V30 7004 H 684.399 -1.88523 3.26709 0
M  V30 7005 H 686.786 -1.87925 2.27526 0
M  V30 7006 H 686.867 -0.133887 2.55449 0
M  V30 7007 H 686.511 -0.539207 5.0503 0
M  V30 7008 H 686.441 -2.29226 4.74092 0
M  V30 7009 H 688.932 -1.27223 3.55841 0
M  V30 7010 H 689.245 -2.00437 7.46354 0
M  V30 7011 H 687.59 -1.8093 6.71036 0
M  V30 7012 H 690.781 -1.4963 4.43541 0
M  V30 7013 H 690.954 -1.83038 6.21612 0
M  V30 7014 N 684.36 -1.4356 -0.65026 0
M  V30 7015 C 685.588 -1.48779 -1.43779 0
M  V30 7016 C 686.003 -0.106593 -1.88499 0
M  V30 7017 O 685.36 0.883766 -1.59674 0
M  V30 7018 C 685.411 -2.43618 -2.67081 0
M  V30 7019 O 685.132 -3.76367 -2.24231 0
M  V30 7020 C 686.633 -2.5811 -3.60409 0
M  V30 7021 H 683.853 -0.50521 -0.441593 0
M  V30 7022 H 686.397 -1.88332 -0.796941 0
M  V30 7023 H 684.552 -2.07253 -3.273 0
M  V30 7024 H 684.966 -4.27394 -3.0403 0
M  V30 7025 H 686.44 -3.28539 -4.43583 0
M  V30 7026 H 686.917 -1.627 -4.07953 0
M  V30 7027 H 687.523 -2.95298 -3.0607 0
M  V30 7028 N 685.838 0.888903 -1.30139 0
M  V30 7029 C 687.086 1.63713 -1.18501 0
M  V30 7030 C 687.407 1.9324 0.261399 0
M  V30 7031 O 686.677 1.56608 1.17689 0
M  V30 7032 H 685.257 0.606861 -0.435579 0
M  V30 7033 H 687.919 1.06525 -1.63213 0
M  V30 7034 H 687.015 2.58894 -1.743 0
M  V30 7035 N 687.317 1.12792 1.10072 0
M  V30 7036 C 688.594 0.796867 1.78632 0
M  V30 7037 C 688.974 -0.712739 1.98704 0
M  V30 7038 O 688.322 -1.64773 1.5831 0
M  V30 7039 C 688.532 1.57622 3.11378 0
M  V30 7040 C 689.88 1.76463 3.86194 0
M  V30 7041 O 690.904 1.54165 3.2111 0
M  V30 7042 O 689.763 2.13623 5.03018 0
M  V30 7043 H 686.857 0.290248 0.774394 0
M  V30 7044 H 689.403 1.23215 1.16688 0
M  V30 7045 H 688.175 2.60246 2.92212 0
M  V30 7046 H 687.798 1.13543 3.81043 0
M  V30 7047 N 688.795 -1.27931 0.920396 0
M  V30 7048 C 689.705 -2.30824 0.419212 0
M  V30 7049 C 690.721 -1.66767 -0.496461 0
M  V30 7050 O 691.897 -1.97763 -0.38104 0
M  V30 7051 C 688.962 -3.45158 -0.326601 0
M  V30 7052 C 688.023 -4.24754 0.623098 0
M  V30 7053 C 687.256 -5.33629 -0.0872172 0
M  V30 7054 O 687.479 -5.55204 -1.30784 0
M  V30 7055 O 686.413 -5.99091 0.580875 0
M  V30 7056 H 690.239 -2.75716 1.27337 0
M  V30 7057 H 687.824 -1.32747 0.685465 0
M  V30 7058 H 689.706 -4.14716 -0.747559 0
M  V30 7059 H 688.381 -3.02336 -1.15648 0
M  V30 7060 H 687.288 -3.57759 1.09359 0
M  V30 7061 H 688.621 -4.71272 1.41998 0
M  V30 7062 N 690.273 -0.685099 -1.4193 0
M  V30 7063 C 691.522 -0.208816 -2.00616 0
M  V30 7064 C 691.835 1.19506 -1.54847 0
M  V30 7065 O 693.041 1.76826 -2.06021 0
M  V30 7066 C 691.497 -0.322446 -3.58453 0
M  V30 7067 C 691.105 -1.73102 -4.13206 0
M  V30 7068 C 692.849 0.0945979 -4.24395 0
M  V30 7069 C 690.756 -1.79687 -5.63442 0
M  V30 7070 H 689.686 -0.0743092 -0.750329 0
M  V30 7071 H 692.337 -0.851778 -1.62533 0
M  V30 7072 H 690.719 0.388588 -3.94089 0
M  V30 7073 H 691.893 -2.46997 -3.8901 0
M  V30 7074 H 690.208 -2.09682 -3.59753 0
M  V30 7075 H 692.805 0.0656937 -5.3466 0
M  V30 7076 H 693.148 1.1316 -4.00625 0
M  V30 7077 H 693.681 -0.56579 -3.93756 0
M  V30 7078 H 690.42 -2.81404 -5.92024 0
M  V30 7079 H 689.94 -1.10162 -5.89597 0
M  V30 7080 H 691.619 -1.55498 -6.28036 0
M  V30 7081 N 691.751 1.51645 -0.429126 0
M  V30 7082 C 692.701 2.24388 0.404217 0
M  V30 7083 C 693.685 1.26294 0.996933 0
M  V30 7084 O 694.877 1.51428 0.916434 0
M  V30 7085 C 692.006 3.08338 1.50938 0
M  V30 7086 C 691.092 4.13857 0.926464 0
M  V30 7087 N 691.483 5.05749 0.0719732 0
M  V30 7088 C 689.781 4.29695 1.19491 0
M  V30 7089 C 690.482 5.81143 -0.254528 0
M  V30 7090 N 689.458 5.42408 0.359763 0
M  V30 7091 H 693.26 2.92794 -0.254697 0
M  V30 7092 H 690.774 1.60606 -0.240712 0
M  V30 7093 H 692.771 3.59022 2.11918 0
M  V30 7094 H 691.431 2.41475 2.17072 0
M  V30 7095 H 692.442 5.17066 -0.293854 0
M  V30 7096 H 689.119 3.74059 1.85434 0
M  V30 7097 H 690.509 6.65159 -0.949365 0
M  V30 7098 N 693.229 0.160201 1.56784 0
M  V30 7099 C 694.457 -0.494165 2.00912 0
M  V30 7100 C 694.872 -1.57548 1.04038 0
M  V30 7101 O 694.229 -1.82457 0.0394581 0
M  V30 7102 C 694.28 -1.08271 3.44905 0
M  V30 7103 O 694.001 -0.0445704 4.38077 0
M  V30 7104 C 695.502 -1.8164 4.04378 0
M  V30 7105 H 692.722 -0.127498 0.658776 0
M  V30 7106 H 695.266 0.258665 2.02858 0
M  V30 7107 H 693.421 -1.78609 3.4377 0
M  V30 7108 H 693.835 -0.477544 5.22322 0
M  V30 7109 H 695.309 -2.18094 5.07089 0
M  V30 7110 H 695.786 -2.70727 3.45838 0
M  V30 7111 H 696.392 -1.15969 4.09184 0
M  V30 7112 N 694.707 -1.5719 -0.113559 0
M  V30 7113 C 695.932 -1.89702 -0.838336 0
M  V30 7114 C 696.357 -0.752679 -1.72384 0
M  V30 7115 O 695.715 0.296575 -1.78858 0
M  V30 7116 C 695.763 -3.20989 -1.64312 0
M  V30 7117 O 694.867 -3.07278 -2.75053 0
M  V30 7118 H 694.208 -0.622339 -0.231496 0
M  V30 7119 H 696.738 -2.04382 -0.0943228 0
M  V30 7120 H 696.748 -3.53843 -2.03123 0
M  V30 7121 H 695.423 -4.03869 -0.993119 0
M  V30 7122 H 694 -2.85901 -2.39406 0
M  V30 7123 N 696.185 0.383891 -1.52853 0
M  V30 7124 C 697.118 1.49105 -1.72751 0
M  V30 7125 C 698.096 1.52077 -0.575438 0
M  V30 7126 O 699.28 1.70406 -0.805854 0
M  V30 7127 C 696.407 2.87551 -1.78975 0
M  V30 7128 C 695.453 3.02383 -3.00777 0
M  V30 7129 S 696.286 2.73048 -4.60657 0
M  V30 7130 C 697.442 4.13678 -4.69704 0
M  V30 7131 H 697.675 1.32002 -2.66388 0
M  V30 7132 H 695.208 0.577088 -1.4321 0
M  V30 7133 H 697.166 3.6733 -1.83246 0
M  V30 7134 H 695.827 3.01977 -0.864215 0
M  V30 7135 H 695.02 4.03733 -3.01688 0
M  V30 7136 H 694.622 2.30504 -2.94523 0
M  V30 7137 H 696.914 5.07676 -4.48633 0
M  V30 7138 H 697.857 4.1778 -5.71721 0
M  V30 7139 H 698.265 3.99825 -3.98497 0
M  V30 7140 N 697.663 1.43903 0.642637 0
M  V30 7141 C 698.573 1.52349 1.78401 0
M  V30 7142 C 699.589 0.409869 1.69104 0
M  V30 7143 O 700.765 0.665548 1.90085 0
M  V30 7144 C 697.83 1.45408 3.14734 0
M  V30 7145 C 696.891 2.67528 3.35749 0
M  V30 7146 C 696.124 2.60909 4.65577 0
M  V30 7147 O 696.347 1.6627 5.45628 0
M  V30 7148 O 695.281 3.5158 4.88544 0
M  V30 7149 H 699.107 2.48752 1.7423 0
M  V30 7150 H 696.692 1.26021 0.802439 0
M  V30 7151 H 698.574 1.44019 3.96026 0
M  V30 7152 H 697.249 0.521437 3.19473 0
M  V30 7153 H 696.156 2.74487 2.5418 0
M  V30 7154 H 697.489 3.598 3.35864 0
M  V30 7155 N 699.141 -0.881989 1.30609 0
M  V30 7156 C 700.104 -1.96957 1.1722 0
M  V30 7157 C 701.104 -1.60472 0.102598 0
M  V30 7158 O 702.294 -1.70628 0.350943 0
M  V30 7159 C 699.426 -3.31463 0.796572 0
M  V30 7160 H 700.619 -2.10262 2.13846 0
M  V30 7161 H 698.172 -1.06877 1.14048 0
M  V30 7162 H 698.907 -3.23859 -0.169053 0
M  V30 7163 H 698.692 -3.59314 1.56959 0
M  V30 7164 H 700.182 -4.11233 0.72645 0
M  V30 7165 N 700.619 -1.13374 -1.09472 0
M  V30 7166 C 701.867 -0.893422 -1.8128 0
M  V30 7167 C 702.188 0.582029 -1.86111 0
M  V30 7168 O 701.458 1.42305 -1.34633 0
M  V30 7169 H 700.038 -0.327543 -0.67136 0
M  V30 7170 H 702.7 -1.43018 -1.32408 0
M  V30 7171 H 701.796 -1.28374 -2.84476 0
M  V30 7172 N 702.098 1.27442 -0.927168 0
M  V30 7173 C 703.509 1.76385 -0.611979 0
M  V30 7174 C 703.86 1.75715 0.872853 0
M  V30 7175 O 702.985 1.3603 1.683 0
M  V30 7176 C 703.58 3.20303 -1.10414 0
M  V30 7177 C 702.139 3.66916 -0.839628 0
M  V30 7178 C 701.286 2.46859 -1.26317 0
M  V30 7179 H 704.237 1.13716 -1.107 0
M  V30 7180 H 704.258 3.77811 -0.451578 0
M  V30 7181 H 703.77 3.20759 -2.18484 0
M  V30 7182 H 701.871 3.71906 0.227292 0
M  V30 7183 H 701.984 4.56415 -1.45679 0
M  V30 7184 H 700.348 2.45407 -0.681723 0
M  V30 7185 H 701.131 2.50025 -2.3525 0
M  V30 7186 N 703.576 0.692616 1.41565 0
M  V30 7187 C 704.509 -0.025063 2.28186 0
M  V30 7188 C 705.487 -0.790912 1.42068 0
M  V30 7189 O 706.671 -0.782344 1.71498 0
M  V30 7190 C 703.798 -1.04285 3.22246 0
M  V30 7191 C 702.844 -0.370515 4.24888 0
M  V30 7192 S 703.677 0.884942 5.28137 0
M  V30 7193 C 704.833 -0.131324 6.25762 0
M  V30 7194 H 705.066 0.709626 2.88707 0
M  V30 7195 H 702.599 0.482783 1.46658 0
M  V30 7196 H 704.557 -1.62493 3.7697 0
M  V30 7197 H 703.218 -1.7501 2.60827 0
M  V30 7198 H 702.411 -1.13911 4.90959 0
M  V30 7199 H 702.013 0.138411 3.73744 0
M  V30 7200 H 704.305 -0.985527 6.70294 0
M  V30 7201 H 705.248 0.495384 7.06365 0
M  V30 7202 H 705.656 -0.484777 5.62415 0
M  V30 7203 N 705.054 -1.51416 0.437162 0
M  V30 7204 C 706.3 -2.02386 -0.129555 0
M  V30 7205 C 706.633 -1.32071 -1.42376 0
M  V30 7206 O 705.908 -0.43559 -1.8956 0
M  V30 7207 C 706.191 -3.5841 -0.348487 0
M  V30 7208 C 706.044 -4.39341 0.964352 0
M  V30 7209 C 707.363 -4.25654 -1.11834 0
M  V30 7210 H 704.482 -0.735587 -0.0456109 0
M  V30 7211 H 707.124 -1.81055 0.576124 0
M  V30 7212 H 705.274 -3.76716 -0.949592 0
M  V30 7213 H 706.946 -4.32685 1.59942 0
M  V30 7214 H 705.189 -4.04432 1.56898 0
M  V30 7215 H 705.86 -5.4667 0.765212 0
M  V30 7216 H 708.336 -4.11617 -0.609165 0
M  V30 7217 H 707.212 -5.34704 -1.24029 0
M  V30 7218 H 707.473 -3.86502 -2.14636 0
M  V30 7219 N 706.532 -0.168513 -1.56696 0
M  V30 7220 C 707.948 0.187686 -1.58493 0
M  V30 7221 C 708.148 1.63063 -1.18375 0
M  V30 7222 O 707.204 2.36142 -0.894042 0
M  V30 7223 C 708.517 -0.0905858 -3.00564 0
M  V30 7224 C 710.065 -0.028575 -3.12987 0
M  V30 7225 C 710.54 -0.279799 -4.57145 0
M  V30 7226 N 712.031 -0.227476 -4.62641 0
M  V30 7227 C 712.766 -0.396073 -5.7203 0
M  V30 7228 N 712.262 -0.623572 -6.89988 0
M  V30 7229 N 714.055 -0.332173 -5.61118 0
M  V30 7230 H 706.206 -1.11042 -1.81062 0
M  V30 7231 H 708.469 -0.441235 -0.839056 0
M  V30 7232 H 708.175 -1.09006 -3.34381 0
M  V30 7233 H 708.049 0.619078 -3.72085 0
M  V30 7234 H 710.436 0.961471 -2.78998 0
M  V30 7235 H 710.517 -0.770905 -2.43907 0
M  V30 7236 H 710.161 -1.26704 -4.91842 0
M  V30 7237 H 710.091 0.48311 -5.24379 0
M  V30 7238 H 712.582 -0.0571723 -3.77857 0
M  V30 7239 H 712.895 -0.741745 -7.69232 0
M  V30 7240 H 711.24 -0.660153 -6.91858 0
M  V30 7241 H 714.431 -0.155051 -4.67843 0
M  V30 7242 H 714.604 -0.466994 -6.46315 0
M  V30 7243 N 708.01 1.57248 0.105221 0
M  V30 7244 C 708.957 2.01338 1.12835 0
M  V30 7245 C 709.927 0.887897 1.40377 0
M  V30 7246 O 711.112 1.15315 1.5201 0
M  V30 7247 C 708.252 2.43432 2.44611 0
M  V30 7248 C 707.365 3.69457 2.23888 0
M  V30 7249 C 706.5 4.00473 3.48991 0
M  V30 7250 C 705.539 5.19638 3.23485 0
M  V30 7251 N 704.676 5.46457 4.40828 0
M  V30 7252 H 709.516 2.88527 0.745386 0
M  V30 7253 H 707.053 1.42714 0.356535 0
M  V30 7254 H 709.011 2.65879 3.21503 0
M  V30 7255 H 707.641 1.59266 2.80774 0
M  V30 7256 H 706.693 3.54545 1.37847 0
M  V30 7257 H 708.005 4.56497 2.01026 0
M  V30 7258 H 707.159 4.23642 4.34295 0
M  V30 7259 H 705.898 3.11935 3.74897 0
M  V30 7260 H 704.903 4.96299 2.36574 0
M  V30 7261 H 706.128 6.09766 2.98935 0
M  V30 7262 H 704.074 4.60876 4.66829 0
M  V30 7263 H 703.991 6.27849 4.2112 0
M  V30 7264 H 705.259 5.74155 5.27225 0
M  V30 7265 N 709.488 -0.375779 1.53054 0
M  V30 7266 C 710.736 -1.11727 1.68409 0
M  V30 7267 C 711.057 -1.90127 0.43323 0
M  V30 7268 O 710.327 -1.87945 -0.552595 0
M  V30 7269 H 708.907 -0.415451 0.620813 0
M  V30 7270 H 711.569 -0.424869 1.90213 0
M  V30 7271 H 710.665 -1.8128 2.54055 0
M  V30 7272 N 710.966 -1.44241 -0.634997 0
M  V30 7273 C 712.194 -1.50296 -1.42193 0
M  V30 7274 C 712.609 -0.12658 -1.88375 0
M  V30 7275 O 711.966 0.86678 -1.60603 0
M  V30 7276 C 712.017 -2.46437 -2.64482 0
M  V30 7277 O 711.738 -3.78724 -2.20226 0
M  V30 7278 C 713.239 -2.61918 -3.57651 0
M  V30 7279 H 710.459 -0.509865 -0.43621 0
M  V30 7280 H 713.003 -1.89167 -0.776921 0
M  V30 7281 H 711.158 -2.10712 -3.25083 0
M  V30 7282 H 711.572 -4.30595 -2.9948 0
M  V30 7283 H 713.046 -3.33225 -4.40074 0
M  V30 7284 H 713.523 -1.67017 -4.06204 0
M  V30 7285 H 714.129 -2.98528 -3.02921 0
M  V30 7286 N 712.444 0.87505 -1.31075 0
M  V30 7287 C 713.377 1.98471 -1.12625 0
M  V30 7288 C 714.355 1.6257 -0.0311379 0
M  V30 7289 O 715.539 1.87574 -0.186594 0
M  V30 7290 C 712.666 3.30963 -0.719799 0
M  V30 7291 C 711.712 3.85849 -1.81722 0
M  V30 7292 S 712.545 4.11926 -3.42165 0
M  V30 7293 C 713.701 5.47423 -3.03445 0
M  V30 7294 H 713.934 2.13817 -2.06566 0
M  V30 7295 H 711.467 1.02463 -1.15502 0
M  V30 7296 H 713.425 4.07541 -0.492035 0
M  V30 7297 H 712.086 3.1346 0.200413 0
M  V30 7298 H 711.279 4.81616 -1.48533 0
M  V30 7299 H 710.881 3.16046 -1.99977 0
M  V30 7300 H 713.173 6.28881 -2.52023 0
M  V30 7301 H 714.116 5.85557 -3.98157 0
M  V30 7302 H 714.524 5.10455 -2.41031 0
M  V30 7303 N 713.922 1.13953 1.08869 0
M  V30 7304 C 714.869 0.82213 2.15661 0
M  V30 7305 C 715.839 -0.218274 1.6466 0
M  V30 7306 O 717.024 -0.0892475 1.90591 0
M  V30 7307 C 714.164 0.300572 3.43789 0
M  V30 7308 C 713.277 1.40071 4.08661 0
M  V30 7309 C 712.412 0.836897 5.24566 0
M  V30 7310 C 711.451 1.91504 5.81371 0
M  V30 7311 N 710.588 1.36875 6.88629 0
M  V30 7312 H 715.428 1.73683 2.42153 0
M  V30 7313 H 712.965 0.866879 1.18843 0
M  V30 7314 H 714.923 -0.0199943 4.17195 0
M  V30 7315 H 713.553 -0.577248 3.17597 0
M  V30 7316 H 712.605 1.83776 3.33062 0
M  V30 7317 H 713.917 2.21534 4.46905 0
M  V30 7318 H 713.071 0.467953 6.04893 0
M  V30 7319 H 711.81 -0.00874207 4.87699 0
M  V30 7320 H 710.815 2.29299 4.99702 0
M  V30 7321 H 712.04 2.76419 6.20298 0
M  V30 7322 H 709.986 0.545211 6.5373 0
M  V30 7323 H 709.903 2.1198 7.25672 0
M  V30 7324 H 711.171 1.02756 7.72698 0
M  V30 7325 N 715.4 -1.26948 0.933913 0
M  V30 7326 C 716.625 -1.98724 0.593589 0
M  V30 7327 C 717.05 -1.6915 -0.822801 0
M  V30 7328 O 716.408 -0.93533 -1.5531 0
M  V30 7329 C 716.456 -3.50834 0.833542 0
M  V30 7330 O 715.56 -4.12284 -0.0978788 0
M  V30 7331 H 714.901 -0.623683 0.227849 0
M  V30 7332 H 717.431 -1.61599 1.25486 0
M  V30 7333 H 717.441 -4.01018 0.75156 0
M  V30 7334 H 716.116 -3.71691 1.86597 0
M  V30 7335 H 714.693 -3.72884 0.0345443 0
M  V30 7336 N 716.879 -0.700114 -1.41195 0
M  V30 7337 C 717.811 0.00155823 -2.292 0
M  V30 7338 C 718.824 0.739736 -1.45023 0
M  V30 7339 O 720.013 0.589684 -1.68478 0
M  V30 7340 C 717.113 1.02635 -3.22985 0
M  V30 7341 C 716.286 0.356871 -4.35942 0
M  V30 7342 C 715.345 1.28491 -5.10271 0
M  V30 7343 O 714.371 0.775562 -5.63892 0
M  V30 7344 N 715.573 2.61699 -5.18164 0
M  V30 7345 H 718.338 -0.754008 -2.9006 0
M  V30 7346 H 715.899 -0.546504 -1.52397 0
M  V30 7347 H 717.891 1.64902 -3.6958 0
M  V30 7348 H 716.461 1.68341 -2.63401 0
M  V30 7349 H 715.681 -0.445753 -3.91672 0
M  V30 7350 H 716.969 -0.108469 -5.08684 0
M  V30 7351 H 716.367 3.05594 -4.76056 0
M  V30 7352 H 714.924 3.19149 -5.6832 0
M  V30 7353 N 718.357 1.51182 -0.445186 0
M  V30 7354 C 719.768 1.86693 0.0160999 0
M  V30 7355 C 720.119 1.36183 1.4124 0
M  V30 7356 O 719.244 0.715895 2.04215 0
M  V30 7357 C 719.839 3.38781 0.0359918 0
M  V30 7358 C 718.398 3.73799 0.441715 0
M  V30 7359 C 717.545 2.74947 -0.360511 0
M  V30 7360 H 720.496 1.44294 -0.660674 0
M  V30 7361 H 720.517 3.71026 0.843813 0
M  V30 7362 H 720.029 3.75513 -0.980378 0
M  V30 7363 H 718.13 3.42659 1.4634 0
M  V30 7364 H 718.243 4.78829 0.16106 0
M  V30 7365 H 716.607 2.54047 0.182269 0
M  V30 7366 H 717.39 3.14521 -1.3759 0
M  V30 7367 N 719.835 0.176821 1.56605 0
M  V30 7368 C 721.081 -0.460868 1.9811 0
M  V30 7369 C 721.436 -1.60488 1.06119 0
M  V30 7370 O 720.729 -1.91329 0.101939 0
M  V30 7371 C 720.923 -0.986208 3.43524 0
M  V30 7372 C 720.752 0.105368 4.49577 0
M  V30 7373 C 719.522 0.556883 5.02222 0
M  V30 7374 C 721.72 0.907756 5.06226 0
M  V30 7375 N 719.702 1.62819 5.91915 0
M  V30 7376 C 721.073 1.82887 5.92412 0
M  V30 7377 C 723.128 0.952221 4.8871 0
M  V30 7378 C 721.831 2.7907 6.62957 0
M  V30 7379 C 723.857 1.90202 5.5998 0
M  V30 7380 C 723.219 2.8106 6.45898 0
M  V30 7381 H 719.318 -0.136589 0.769979 0
M  V30 7382 H 721.902 0.278307 1.92701 0
M  V30 7383 H 720.073 -1.69489 3.49468 0
M  V30 7384 H 721.805 -1.59298 3.7203 0
M  V30 7385 H 718.56 0.153575 4.73351 0
M  V30 7386 H 718.984 2.1645 6.41466 0
M  V30 7387 H 723.626 0.263794 4.21976 0
M  V30 7388 H 721.344 3.48898 7.28901 0
M  V30 7389 H 724.93 1.9426 5.48411 0
M  V30 7390 H 723.81 3.53357 7.00077 0
M  V30 7391 N 721.313 -1.57302 -0.09688 0
M  V30 7392 C 722.562 -1.85183 -0.799388 0
M  V30 7393 C 722.875 -0.765818 -1.79985 0
M  V30 7394 O 724.081 -0.931696 -2.55013 0
M  V30 7395 C 722.537 -3.28399 -1.47249 0
M  V30 7396 C 722.145 -4.45066 -0.511888 0
M  V30 7397 C 723.889 -3.65506 -2.15883 0
M  V30 7398 C 721.796 -5.79315 -1.18948 0
M  V30 7399 H 720.726 -0.690752 -0.302287 0
M  V30 7400 H 723.377 -1.83425 -0.0523104 0
M  V30 7401 H 721.759 -3.24692 -2.26697 0
M  V30 7402 H 722.933 -4.60116 0.250962 0
M  V30 7403 H 721.248 -4.16343 0.0686576 0
M  V30 7404 H 723.845 -4.63087 -2.67309 0
M  V30 7405 H 724.188 -2.94041 -2.94696 0
M  V30 7406 H 724.721 -3.71094 -1.43298 0
M  V30 7407 H 721.46 -6.54007 -0.442198 0
M  V30 7408 H 720.98 -5.68111 -1.9238 0
M  V30 7409 H 722.659 -6.23816 -1.71646 0
M  V30 7410 N 722.791 0.367657 -1.53252 0
M  V30 7411 C 723.721 1.45632 -1.8252 0
M  V30 7412 C 724.702 1.55979 -0.678568 0
M  V30 7413 O 725.887 1.70581 -0.928217 0
M  V30 7414 C 723.017 2.82994 -2.01325 0
M  V30 7415 C 721.971 2.87473 -3.17086 0
M  V30 7416 C 721.297 4.2749 -3.21179 0
M  V30 7417 C 722.597 2.55182 -4.55719 0
M  V30 7418 H 724.291 1.21387 -2.73689 0
M  V30 7419 H 721.837 0.58251 -1.31692 0
M  V30 7420 H 723.79 3.59179 -2.20383 0
M  V30 7421 H 722.514 3.08622 -1.06864 0
M  V30 7422 H 721.173 2.13739 -2.97844 0
M  V30 7423 H 720.821 4.5019 -2.24361 0
M  V30 7424 H 720.521 4.31403 -3.98955 0
M  V30 7425 H 722.045 5.0555 -3.42419 0
M  V30 7426 H 723.459 3.21081 -4.74953 0
M  V30 7427 H 721.856 2.70414 -5.3572 0
M  V30 7428 H 722.926 1.5044 -4.60973 0
M  V30 7429 N 724.269 1.44576 0.627338 0
M  V30 7430 C 725.232 1.51372 1.72102 0
M  V30 7431 C 726.232 0.395329 1.55865 0
M  V30 7432 O 727.422 0.658094 1.61291 0
M  V30 7433 C 724.554 1.39129 3.11217 0
M  V30 7434 H 725.747 2.48798 1.6745 0
M  V30 7435 H 723.3 1.31724 0.841336 0
M  V30 7436 H 724.035 0.428114 3.21462 0
M  V30 7437 H 723.82 2.20229 3.24409 0
M  V30 7438 H 725.31 1.46874 3.90919 0
M  V30 7439 N 725.747 -0.868086 1.31537 0
M  V30 7440 C 726.977 -1.65162 1.24118 0
M  V30 7441 C 727.385 -1.88187 -0.195558 0
M  V30 7442 O 726.728 -1.44154 -1.13866 0
M  V30 7443 C 726.79 -3.04119 1.91708 0
M  V30 7444 C 726.454 -3.04194 3.4105 0
M  V30 7445 C 727.451 -2.82016 4.36764 0
M  V30 7446 C 725.136 -3.25256 3.82772 0
M  V30 7447 C 727.13 -2.80881 5.72175 0
M  V30 7448 C 724.817 -3.23749 5.18295 0
M  V30 7449 C 725.815 -3.01589 6.12808 0
M  V30 7450 O 725.503 -2.9993 7.45853 0
M  V30 7451 H 725.235 -0.521597 0.430015 0
M  V30 7452 H 727.789 -1.09165 1.73989 0
M  V30 7453 H 726.019 -3.61849 1.36389 0
M  V30 7454 H 727.708 -3.64701 1.78179 0
M  V30 7455 H 728.474 -2.65525 4.05859 0
M  V30 7456 H 724.353 -3.41534 3.09638 0
M  V30 7457 H 727.897 -2.63503 6.45919 0
M  V30 7458 H 723.794 -3.39781 5.48834 0
M  V30 7459 H 724.562 -3.15979 7.55049 0
M  V30 7460 N 727.225 -1.14528 -1.08264 0
M  V30 7461 C 728.135 -0.84728 -2.18765 0
M  V30 7462 C 729.151 0.172826 -1.7314 0
M  V30 7463 O 730.327 0.000985336 -2.014 0
M  V30 7464 C 727.392 -0.330633 -3.4512 0
M  V30 7465 C 726.453 -1.41348 -4.05363 0
M  V30 7466 C 725.686 -0.921387 -5.25686 0
M  V30 7467 O 725.909 0.236587 -5.69909 0
M  V30 7468 O 724.843 -1.70101 -5.77364 0
M  V30 7469 H 728.669 -1.7708 -2.46731 0
M  V30 7470 H 726.254 -0.923661 -1.17426 0
M  V30 7471 H 728.136 -0.0485053 -4.21372 0
M  V30 7472 H 726.811 0.565147 -3.18728 0
M  V30 7473 H 725.718 -1.74908 -3.30693 0
M  V30 7474 H 727.051 -2.28383 -4.36007 0
M  V30 7475 N 728.703 1.26451 -0.940633 0
M  V30 7476 C 729.98 1.88947 -0.505811 0
M  V30 7477 C 730.36 1.85011 1.01657 0
M  V30 7478 O 729.708 1.30406 1.87634 0
M  V30 7479 C 729.918 3.32304 -1.06654 0
M  V30 7480 C 731.266 4.09153 -1.13486 0
M  V30 7481 O 732.29 3.41371 -1.01708 0
M  V30 7482 O 731.149 5.30369 -1.31797 0
M  V30 7483 H 728.243 0.810422 -0.164759 0
M  V30 7484 H 730.789 1.34625 -1.03316 0
M  V30 7485 H 729.561 3.29527 -2.11015 0
M  V30 7486 H 729.184 3.94164 -0.521603 0
M  V30 7487 N 730.181 0.707592 1.40822 0
M  V30 7488 C 731.131 0.0265008 2.27985 0
M  V30 7489 C 732.115 -0.740685 1.42838 0
M  V30 7490 O 733.307 -0.6142 1.66002 0
M  V30 7491 C 730.436 -0.900382 3.31282 0
M  V30 7492 C 729.522 -0.128807 4.23904 0
M  V30 7493 N 729.913 0.883744 4.9802 0
M  V30 7494 C 728.211 -0.362539 4.44524 0
M  V30 7495 C 728.912 1.34666 5.65898 0
M  V30 7496 N 727.888 0.670306 5.39451 0
M  V30 7497 H 731.69 0.802667 2.82727 0
M  V30 7498 H 729.204 0.539475 1.53178 0
M  V30 7499 H 731.201 -1.40357 3.92563 0
M  V30 7500 H 729.861 -1.67601 2.781 0
M  V30 7501 H 730.872 1.26435 5.0223 0
M  V30 7502 H 727.549 -1.11512 4.02332 0
M  V30 7503 H 728.939 2.18756 6.35292 0
M  V30 7504 N 731.66 -1.50943 0.453197 0
M  V30 7505 C 732.608 -2.29728 -0.364419 0
M  V30 7506 C 733.602 -1.36246 -1.00664 0
M  V30 7507 O 734.808 -1.53518 -0.939794 0
M  V30 7508 H 731.183 -0.739536 -0.136347 0
M  V30 7509 H 733.154 -2.96672 0.320696 0
M  V30 7510 C 731.903 -3.1629 -1.44415 0
M  V30 7511 H 731.226 -3.88119 -0.959343 0
M  V30 7512 H 732.666 -3.74444 -1.98917 0
M  V30 7513 C 731.125 -2.32702 -2.43622 0
M  V30 7514 O 731.655 -1.99763 -3.48508 0
M  V30 7515 N 729.861 -1.95621 -2.14897 0
M  V30 7516 H 729.408 -2.22607 -1.29629 0
M  V30 7517 H 729.366 -1.39993 -2.81513 0
M  V30 7518 N 733.138 -0.185124 -1.56509 0
M  V30 7519 C 734.384 0.456934 -1.97585 0
M  V30 7520 C 734.717 1.61957 -1.07161 0
M  V30 7521 O 733.992 1.9412 -0.121546 0
M  V30 7522 C 734.275 0.926666 -3.47973 0
M  V30 7523 C 734.128 -0.237097 -4.49175 0
M  V30 7524 C 735.447 1.79561 -4.01803 0
M  V30 7525 H 732.566 0.164619 -0.71838 0
M  V30 7526 H 735.208 -0.274039 -1.88013 0
M  V30 7527 H 733.358 1.54954 -3.56261 0
M  V30 7528 H 735.03 -0.87454 -4.52934 0
M  V30 7529 H 733.273 -0.890446 -4.24563 0
M  V30 7530 H 733.944 0.133924 -5.51838 0
M  V30 7531 H 736.42 1.27039 -3.96232 0
M  V30 7532 H 735.296 2.09327 -5.07418 0
M  V30 7533 H 735.557 2.74629 -3.46455 0
M  V30 7534 N 734.616 1.57351 0.0885366 0
M  V30 7535 C 735.893 1.77449 0.822873 0
M  V30 7536 C 736.273 0.768463 1.96616 0
M  V30 7537 O 735.621 -0.201757 2.27608 0
M  V30 7538 C 735.831 3.23425 1.31137 0
M  V30 7539 C 737.179 3.86791 1.75152 0
M  V30 7540 O 738.203 3.27215 1.40745 0
M  V30 7541 O 737.062 4.91568 2.38794 0
M  V30 7542 H 734.156 0.727653 0.393002 0
M  V30 7543 H 736.702 1.69556 0.0699095 0
M  V30 7544 H 735.474 3.88188 0.49254 0
M  V30 7545 H 735.097 3.35977 2.12615 0
M  V30 7546 N 736.094 -0.359525 1.53444 0
M  V30 7547 C 737.057 -1.42357 1.7963 0
M  V30 7548 C 738.057 -1.46319 0.666884 0
M  V30 7549 O 739.247 -1.46974 0.935113 0
M  V30 7550 C 736.379 -2.81425 1.92387 0
M  V30 7551 H 737.572 -1.20409 2.74666 0
M  V30 7552 H 735.125 -0.593007 1.44614 0
M  V30 7553 H 735.86 -3.08679 0.994384 0
M  V30 7554 H 735.645 -2.79947 2.74539 0
M  V30 7555 H 737.135 -3.5847 2.14218 0
M  V30 7556 N 737.572 -1.44907 -0.619662 0
M  V30 7557 C 738.82 -1.47999 -1.37625 0
M  V30 7558 C 739.141 -0.118295 -1.94641 0
M  V30 7559 O 738.411 0.85086 -1.76457 0
M  V30 7560 H 736.991 -0.544993 -0.510873 0
M  V30 7561 H 739.653 -1.80772 -0.728522 0
M  V30 7562 H 738.749 -2.21196 -2.20179 0
M  V30 7563 N 739.05 0.861098 -1.31996 0
M  V30 7564 C 739.98 1.98482 -1.22993 0
M  V30 7565 C 740.961 1.6971 -0.115168 0
M  V30 7566 O 742.146 1.91849 -0.30126 0
M  V30 7567 C 739.276 3.34179 -0.945615 0
M  V30 7568 C 738.23 3.77284 -2.02091 0
M  V30 7569 C 737.556 5.1054 -1.58912 0
M  V30 7570 C 738.856 3.93439 -3.43515 0
M  V30 7571 H 740.55 2.06271 -2.17008 0
M  V30 7572 H 738.096 0.991043 -1.04472 0
M  V30 7573 H 740.049 4.12338 -0.869206 0
M  V30 7574 H 738.773 3.26586 0.0301849 0
M  V30 7575 H 737.432 3.01371 -2.08737 0
M  V30 7576 H 737.08 4.99397 -0.600942 0
M  V30 7577 H 736.78 5.40352 -2.30854 0
M  V30 7578 H 738.304 5.91199 -1.52696 0
M  V30 7579 H 739.718 4.6197 -3.39495 0
M  V30 7580 H 738.115 4.34661 -4.13751 0
M  V30 7581 H 739.185 2.96548 -3.8365 0
M  V30 7582 N 740.528 1.15101 1.07655 0
M  V30 7583 C 741.491 0.847625 2.12951 0
M  V30 7584 C 742.491 -0.151227 1.60087 0
M  V30 7585 O 743.681 0.0780399 1.74025 0
M  V30 7586 C 740.813 0.265 3.39868 0
M  V30 7587 H 742.006 1.7809 2.41296 0
M  V30 7588 H 739.559 0.958072 1.23494 0
M  V30 7589 H 740.294 -0.676625 3.17163 0
M  V30 7590 H 740.079 0.984554 3.79538 0
M  V30 7591 H 741.569 0.0702121 4.17541 0
M  V30 7592 N 742.006 -1.2595 0.947325 0
M  V30 7593 C 742.969 -2.24407 0.466285 0
M  V30 7594 C 743.969 -1.55054 -0.426005 0
M  V30 7595 O 745.159 -1.7275 -0.224319 0
M  V30 7596 C 742.291 -3.39326 -0.327201 0
M  V30 7597 H 743.484 -2.68477 1.33642 0
M  V30 7598 H 741.037 -1.38211 0.729887 0
M  V30 7599 H 741.772 -3.00667 -1.21532 0
M  V30 7600 H 741.557 -3.9085 0.312839 0
M  V30 7601 H 743.047 -4.12455 -0.653477 0
M  V30 7602 N 743.484 -0.715051 -1.40445 0
M  V30 7603 C 744.732 -0.253826 -2.005 0
M  V30 7604 C 745.053 1.15681 -1.5698 0
M  V30 7605 O 744.323 1.78414 -0.809027 0
M  V30 7606 H 742.903 -0.0908537 -0.741454 0
M  V30 7607 H 745.565 -0.920561 -1.7179 0
M  V30 7608 H 744.661 -0.286499 -3.10782 0
M  V30 7609 N 744.962 1.50701 -0.461195 0
M  V30 7610 C 746.209 2.02267 0.0971971 0
M  V30 7611 C 746.537 1.34387 1.40608 0
M  V30 7612 O 745.792 0.455254 1.90331 0
M  V30 7613 C 746.091 3.55788 0.33908 0
M  V30 7614 C 745.757 4.42092 -0.886885 0
M  V30 7615 C 744.419 4.65398 -1.22304 0
M  V30 7616 C 746.771 4.92571 -1.70361 0
M  V30 7617 C 744.099 5.36429 -2.37616 0
M  V30 7618 C 746.451 5.64868 -2.84793 0
M  V30 7619 C 745.115 5.86431 -3.18834 0
M  V30 7620 H 744.385 0.740146 0.0355669 0
M  V30 7621 H 747.032 1.81415 -0.61326 0
M  V30 7622 H 745.337 3.751 1.13168 0
M  V30 7623 H 747.034 3.93243 0.784937 0
M  V30 7624 H 743.624 4.24165 -0.614981 0
M  V30 7625 H 747.808 4.74428 -1.4571 0
M  V30 7626 H 743.064 5.51333 -2.64276 0
M  V30 7627 H 747.238 6.02966 -3.48432 0
M  V30 7628 H 744.865 6.41248 -4.08296 0
M  V30 7629 N 746.441 0.193421 1.56409 0
M  V30 7630 C 747.666 -0.454552 2.02358 0
M  V30 7631 C 748.091 -1.54516 1.07268 0
M  V30 7632 O 747.449 -1.81214 0.0558962 0
M  V30 7633 C 747.497 -0.989469 3.46759 0
M  V30 7634 O 746.601 -2.10244 3.54783 0
M  V30 7635 H 745.942 -0.106417 0.655417 0
M  V30 7636 H 748.472 0.303807 2.02332 0
M  V30 7637 H 748.482 -1.30649 3.86516 0
M  V30 7638 H 747.157 -0.191083 4.15461 0
M  V30 7639 H 745.734 -1.79419 3.26899 0
M  V30 7640 N 747.919 -1.57396 -0.0801906 0
M  V30 7641 C 749.167 -1.86467 -0.779384 0
M  V30 7642 C 749.488 -0.784243 -1.78535 0
M  V30 7643 O 748.758 0.187986 -1.94996 0
M  V30 7644 H 747.338 -0.68806 -0.29083 0
M  V30 7645 H 750 -1.94813 -0.0582749 0
M  V30 7646 H 749.096 -2.83701 -1.30078 0
M  V30 7647 N 749.397 0.351382 -1.53633 0
M  V30 7648 C 750.813 0.693987 -1.43722 0
M  V30 7649 C 751.013 1.9274 -0.587669 0
M  V30 7650 O 750.069 2.52387 -0.0756082 0
M  V30 7651 C 751.382 0.893937 -2.87105 0
M  V30 7652 C 752.93 0.993051 -2.96829 0
M  V30 7653 C 753.405 1.22537 -4.41303 0
M  V30 7654 N 754.896 1.29275 -4.44795 0
M  V30 7655 C 755.631 1.48988 -5.53706 0
M  V30 7656 N 755.127 1.65924 -6.72637 0
M  V30 7657 N 756.92 1.51472 -5.41306 0
M  V30 7658 H 749.071 -0.459688 -2.07366 0
M  V30 7659 H 751.334 -0.143684 -0.937048 0
M  V30 7660 H 751.04 0.0592517 -3.5165 0
M  V30 7661 H 750.914 1.79795 -3.31592 0
M  V30 7662 H 753.301 1.81827 -2.32429 0
M  V30 7663 H 753.382 0.0661119 -2.55715 0
M  V30 7664 H 753.026 0.405117 -5.06282 0
M  V30 7665 H 752.956 2.16575 -4.80003 0
M  V30 7666 H 755.447 1.17743 -3.59089 0
M  V30 7667 H 755.76 1.80578 -7.51406 0
M  V30 7668 H 754.105 1.63075 -6.75597 0
M  V30 7669 H 757.296 1.37818 -4.47352 0
M  V30 7670 H 757.469 1.66493 -6.26246 0
M  V30 7671 N 750.875 1.45233 0.611969 0
M  V30 7672 C 751.838 1.53189 1.70487 0
M  V30 7673 C 752.838 0.411839 1.55437 0
M  V30 7674 O 754.028 0.675164 1.60584 0
M  V30 7675 C 751.16 1.42422 3.09723 0
M  V30 7676 H 752.353 2.5056 1.64802 0
M  V30 7677 H 749.906 1.32609 0.827318 0
M  V30 7678 H 750.641 0.462185 3.2099 0
M  V30 7679 H 750.426 2.23658 3.22055 0
M  V30 7680 H 751.916 1.51012 3.89339 0
M  V30 7681 N 752.353 -0.854086 1.3245 0
M  V30 7682 C 753.285 -1.96932 1.17262 0
M  V30 7683 C 754.298 -1.62445 0.107469 0
M  V30 7684 O 755.487 -1.74904 0.356481 0
M  V30 7685 C 752.587 -3.29971 0.772817 0
M  V30 7686 C 751.76 -3.92695 1.92638 0
M  V30 7687 C 750.819 -5.04068 1.51003 0
M  V30 7688 O 749.845 -5.24032 2.22213 0
M  V30 7689 N 751.047 -5.79076 0.406371 0
M  V30 7690 H 753.812 -2.10503 2.13327 0
M  V30 7691 H 751.373 -1.02897 1.24995 0
M  V30 7692 H 753.365 -4.01883 0.476684 0
M  V30 7693 H 751.935 -3.1245 -0.0967 0
M  V30 7694 H 751.155 -3.13563 2.38897 0
M  V30 7695 H 752.443 -4.31337 2.69863 0
M  V30 7696 H 751.841 -5.65393 -0.186302 0
M  V30 7697 H 750.398 -6.51579 0.169846 0
M  V30 7698 N 753.831 -1.1567 -1.07043 0
M  V30 7699 C 755.077 -0.9349 -1.79965 0
M  V30 7700 C 755.41 0.536464 -1.86643 0
M  V30 7701 O 754.685 1.39781 -1.35247 0
M  V30 7702 C 754.968 -1.55371 -3.24857 0
M  V30 7703 C 754.821 -3.09589 -3.26305 0
M  V30 7704 C 756.14 -1.24209 -4.22209 0
M  V30 7705 H 753.259 -0.341061 -0.653335 0
M  V30 7706 H 755.901 -1.42883 -1.25237 0
M  V30 7707 H 754.051 -1.13368 -3.71591 0
M  V30 7708 H 755.723 -3.60521 -2.87789 0
M  V30 7709 H 753.966 -3.43315 -2.65174 0
M  V30 7710 H 754.637 -3.48002 -4.28484 0
M  V30 7711 H 757.113 -1.60548 -3.8388 0
M  V30 7712 H 755.989 -1.70119 -5.21872 0
M  V30 7713 H 756.25 -0.15964 -4.41812 0
M  V30 7714 N 755.309 1.25446 -0.953992 0
M  V30 7715 C 756.557 1.92762 -0.607227 0
M  V30 7716 C 756.878 1.7509 0.858399 0
M  V30 7717 O 756.148 1.11416 1.61132 0
M  V30 7718 H 754.728 0.713377 -0.221591 0
M  V30 7719 H 757.39 1.52625 -1.21209 0
M  V30 7720 H 756.486 3.00695 -0.835998 0
M  V30 7721 N 756.787 0.722489 1.40064 0
M  V30 7722 C 757.734 0.0743738 2.3068 0
M  V30 7723 C 758.704 -0.743004 1.48555 0
M  V30 7724 O 759.889 -0.705536 1.77276 0
M  V30 7725 C 757.029 -0.836292 3.34814 0
M  V30 7726 C 756.142 -0.00764663 4.31999 0
M  V30 7727 C 755.277 -0.918428 5.232 0
M  V30 7728 C 754.316 -0.0842838 6.12042 0
M  V30 7729 N 753.453 -0.950316 6.95639 0
M  V30 7730 H 758.293 0.852794 2.85537 0
M  V30 7731 H 755.83 0.432222 1.40607 0
M  V30 7732 H 757.788 -1.3786 3.93765 0
M  V30 7733 H 756.418 -1.58082 2.81443 0
M  V30 7734 H 755.47 0.651928 3.74772 0
M  V30 7735 H 756.782 0.63786 4.94705 0
M  V30 7736 H 755.936 -1.52902 5.87116 0
M  V30 7737 H 754.675 -1.59774 4.60786 0
M  V30 7738 H 753.68 0.5392 5.4715 0
M  V30 7739 H 754.905 0.591628 6.76518 0
M  V30 7740 H 752.851 -1.61515 6.35806 0
M  V30 7741 H 752.768 -0.361004 7.55138 0
M  V30 7742 H 754.036 -1.54687 7.63997 0
M  V30 7743 N 758.265 -1.50454 0.469181 0
M  V30 7744 C 759.513 -2.01916 -0.0862982 0
M  V30 7745 C 759.834 -1.35337 -1.40388 0
M  V30 7746 O 759.104 -0.498096 -1.89462 0
M  V30 7747 H 757.684 -0.746185 -0.0348825 0
M  V30 7748 H 760.346 -1.84804 0.619167 0
M  V30 7749 H 759.442 -3.11182 -0.239189 0
M  V30 7750 N 759.743 -0.201713 -1.56304 0
M  V30 7751 C 760.676 0.755976 -2.15314 0
M  V30 7752 C 761.654 1.20497 -1.09175 0
M  V30 7753 O 762.838 1.2913 -1.37323 0
M  V30 7754 C 759.965 2.02177 -2.71739 0
M  V30 7755 C 759.011 1.71436 -3.90528 0
M  V30 7756 S 759.844 0.856624 -5.28604 0
M  V30 7757 C 761 2.13242 -5.88455 0
M  V30 7758 H 761.233 0.254348 -2.9621 0
M  V30 7759 H 758.766 0.0133669 -1.54394 0
M  V30 7760 H 760.724 2.74867 -3.04891 0
M  V30 7761 H 759.385 2.49452 -1.90873 0
M  V30 7762 H 758.578 2.65433 -4.28441 0
M  V30 7763 H 758.18 1.06823 -3.5842 0
M  V30 7764 H 760.472 3.08435 -6.0322 0
M  V30 7765 H 761.415 1.7975 -6.84905 0
M  V30 7766 H 761.823 2.2639 -5.17115 0
M  V30 7767 N 761.222 1.57436 0.0718424 0
M  V30 7768 C 762.468 1.88388 0.766904 0
M  V30 7769 C 762.823 0.7954 1.75189 0
M  V30 7770 O 762.116 -0.200438 1.90549 0
M  V30 7771 C 762.31 3.23723 1.51455 0
M  V30 7772 C 762.139 4.45632 0.603475 0
M  V30 7773 C 760.909 5.04728 0.240437 0
M  V30 7774 C 763.107 5.14203 -0.0997624 0
M  V30 7775 N 761.089 6.10163 -0.676363 0
M  V30 7776 C 762.46 6.13812 -0.873755 0
M  V30 7777 C 764.515 4.97605 -0.171238 0
M  V30 7778 C 763.218 6.98615 -1.71258 0
M  V30 7779 C 765.244 5.82935 -0.997041 0
M  V30 7780 C 764.606 6.82082 -1.75908 0
M  V30 7781 H 760.705 0.738888 0.256064 0
M  V30 7782 H 763.289 1.94679 0.0284273 0
M  V30 7783 H 761.46 3.1844 2.22375 0
M  V30 7784 H 763.192 3.42324 2.15862 0
M  V30 7785 H 759.947 4.69869 0.593284 0
M  V30 7786 H 760.371 6.67537 -1.12801 0
M  V30 7787 H 765.013 4.20869 0.403586 0
M  V30 7788 H 762.731 7.74726 -2.29838 0
M  V30 7789 H 766.317 5.72149 -1.05532 0
M  V30 7790 H 765.197 7.46964 -2.38778 0
M  V30 7791 N 762.7 -0.34323 1.53817 0
M  V30 7792 C 763.928 -1.10348 1.75017 0
M  V30 7793 C 764.343 -1.82345 0.489475 0
M  V30 7794 O 763.7 -1.74362 -0.538886 0
M  V30 7795 C 763.751 -2.11672 2.93048 0
M  V30 7796 O 763.472 -1.42603 4.14241 0
M  V30 7797 C 764.973 -3.0007 3.26301 0
M  V30 7798 H 762.193 -0.329056 0.584776 0
M  V30 7799 H 764.737 -0.395339 2.00642 0
M  V30 7800 H 762.892 -2.78051 2.69753 0
M  V30 7801 H 763.306 -2.10294 4.80496 0
M  V30 7802 H 764.78 -3.67101 4.12239 0
M  V30 7803 H 765.257 -3.66105 2.42618 0
M  V30 7804 H 765.863 -2.3928 3.51604 0
M  V30 7805 N 764.178 -1.45556 -0.604258 0
M  V30 7806 C 765.111 -1.48975 -1.72863 0
M  V30 7807 C 766.089 -0.345803 -1.5888 0
M  V30 7808 O 767.273 -0.546796 -1.80395 0
M  V30 7809 C 764.4 -1.34794 -3.10722 0
M  V30 7810 C 763.446 -2.53096 -3.43285 0
M  V30 7811 S 764.279 -4.15551 -3.37754 0
M  V30 7812 C 765.435 -4.03842 -4.78187 0
M  V30 7813 H 765.668 -2.44108 -1.69701 0
M  V30 7814 H 763.201 -1.33179 -0.781194 0
M  V30 7815 H 765.159 -1.273 -3.90263 0
M  V30 7816 H 763.82 -0.411254 -3.11396 0
M  V30 7817 H 763.013 -2.39109 -4.4367 0
M  V30 7818 H 762.615 -2.57469 -2.71267 0
M  V30 7819 H 764.907 -3.69191 -5.6807 0
M  V30 7820 H 765.85 -5.0415 -4.97231 0
M  V30 7821 H 766.258 -3.35443 -4.54025 0
M  V30 7822 N 765.656 0.84705 -1.32902 0
M  V30 7823 C 766.884 1.63403 -1.26913 0
M  V30 7824 C 767.299 1.88108 0.161483 0
M  V30 7825 O 766.656 1.45546 1.10103 0
M  V30 7826 C 766.707 2.98896 -2.03331 0
M  V30 7827 O 766.428 2.75281 -3.40811 0
M  V30 7828 C 767.929 3.93335 -2.04457 0
M  V30 7829 H 765.149 0.508701 -0.437566 0
M  V30 7830 H 767.693 1.05567 -1.75145 0
M  V30 7831 H 765.848 3.53356 -1.58802 0
M  V30 7832 H 766.262 3.61504 -3.8002 0
M  V30 7833 H 767.736 4.85647 -2.62394 0
M  V30 7834 H 768.213 4.26885 -1.03274 0
M  V30 7835 H 768.819 3.44812 -2.48967 0
M  V30 7836 N 767.134 1.16236 1.06428 0
M  V30 7837 C 768.044 0.881976 2.1739 0
M  V30 7838 C 769.06 -0.145259 1.73393 0
M  V30 7839 O 770.236 0.0310558 2.01376 0
M  V30 7840 C 767.301 0.385496 3.4455 0
M  V30 7841 C 766.362 1.47779 4.03063 0
M  V30 7842 C 765.595 1.0049 5.24154 0
M  V30 7843 O 765.818 -0.145889 5.70213 0
M  V30 7844 O 764.752 1.79265 5.74585 0
M  V30 7845 H 768.578 1.80983 2.43883 0
M  V30 7846 H 766.163 0.942226 1.15942 0
M  V30 7847 H 768.045 0.115536 4.21242 0
M  V30 7848 H 766.72 -0.514369 3.19587 0
M  V30 7849 H 765.627 1.80147 3.27869 0
M  V30 7850 H 766.96 2.35291 4.32318 0
M  V30 7851 N 768.612 -1.24939 0.960631 0
M  V30 7852 C 769.542 -2.28 0.503815 0
M  V30 7853 C 770.523 -1.63959 -0.452928 0
M  V30 7854 O 771.708 -1.91009 -0.350585 0
M  V30 7855 C 768.838 -3.46643 -0.213535 0
M  V30 7856 C 767.792 -4.22903 0.658535 0
M  V30 7857 C 767.118 -5.34363 -0.189902 0
M  V30 7858 C 768.418 -4.84949 1.93963 0
M  V30 7859 H 770.112 -2.66462 1.36521 0
M  V30 7860 H 767.658 -1.28093 0.657897 0
M  V30 7861 H 769.611 -4.1787 -0.544286 0
M  V30 7862 H 768.335 -3.07187 -1.10923 0
M  V30 7863 H 766.994 -3.53467 0.972455 0
M  V30 7864 H 766.642 -4.91147 -1.08553 0
M  V30 7865 H 766.342 -5.86302 0.390331 0
M  V30 7866 H 767.866 -6.0842 -0.515484 0
M  V30 7867 H 769.28 -5.48288 1.67491 0
M  V30 7868 H 767.677 -5.47091 2.46601 0
M  V30 7869 H 768.747 -4.06799 2.639 0
M  V30 7870 N 770.09 -0.729906 -1.39679 0
M  V30 7871 C 771.023 -0.0354454 -2.28172 0
M  V30 7872 C 772.001 0.752968 -1.44115 0
M  V30 7873 O 773.185 0.736599 -1.73512 0
M  V30 7874 C 770.312 0.957047 -3.24897 0
M  V30 7875 C 769.358 0.257734 -4.25721 0
M  V30 7876 S 770.191 -1.02466 -5.25605 0
M  V30 7877 C 771.347 -0.0346322 -6.2589 0
M  V30 7878 H 771.58 -0.785922 -2.86724 0
M  V30 7879 H 769.113 -0.521497 -1.45326 0
M  V30 7880 H 771.071 1.52441 -3.81146 0
M  V30 7881 H 769.732 1.68033 -2.65375 0
M  V30 7882 H 768.925 1.00854 -4.93806 0
M  V30 7883 H 768.527 -0.237454 -3.73245 0
M  V30 7884 H 770.819 0.807464 -6.72671 0
M  V30 7885 H 771.762 -0.682491 -7.04803 0
M  V30 7886 H 772.17 0.335492 -5.63502 0
M  V30 7887 N 771.568 1.50203 -0.477153 0
M  V30 7888 C 772.531 2.27194 0.302599 0
M  V30 7889 C 773.531 1.32221 0.915112 0
M  V30 7890 O 774.721 1.55593 0.783348 0
M  V30 7891 C 771.853 3.0938 1.43167 0
M  V30 7892 H 773.046 2.97575 -0.372678 0
M  V30 7893 H 770.599 1.54578 -0.231392 0
M  V30 7894 H 771.334 2.43509 2.14182 0
M  V30 7895 H 771.119 3.79181 0.998197 0
M  V30 7896 H 772.609 3.67592 1.98157 0
M  V30 7897 N 773.046 0.209999 1.56195 0
M  V30 7898 C 774.323 -0.473214 1.89789 0
M  V30 7899 C 774.703 -1.78581 1.1257 0
M  V30 7900 O 774.051 -2.27325 0.231398 0
M  V30 7901 C 774.261 -0.677458 3.42362 0
M  V30 7902 C 775.609 -0.990114 4.12895 0
M  V30 7903 O 776.633 -0.764655 3.47896 0
M  V30 7904 O 775.492 -1.41737 5.278 0
M  V30 7905 H 772.586 -0.248622 0.788743 0
M  V30 7906 H 775.132 0.251324 1.67829 0
M  V30 7907 H 773.904 0.248878 3.90508 0
M  V30 7908 H 773.527 -1.45391 3.70064 0
M  V30 7909 N 774.524 -1.57472 -0.0634922 0
M  V30 7910 C 775.457 -1.99571 -1.10664 0
M  V30 7911 C 776.435 -0.874015 -1.37112 0
M  V30 7912 O 777.619 -1.13702 -1.50347 0
M  V30 7913 C 774.746 -2.3395 -2.44918 0
M  V30 7914 C 773.792 -3.56213 -2.34551 0
M  V30 7915 S 774.625 -5.06727 -1.73169 0
M  V30 7916 C 775.781 -5.44316 -3.08984 0
M  V30 7917 H 776.014 -2.87739 -0.747905 0
M  V30 7918 H 773.547 -1.5198 -0.272316 0
M  V30 7919 H 775.505 -2.54431 -3.22141 0
M  V30 7920 H 774.166 -1.46297 -2.7795 0
M  V30 7921 H 773.359 -3.77812 -3.33578 0
M  V30 7922 H 772.961 -3.35406 -1.65466 0
M  V30 7923 H 775.253 -5.42894 -4.05305 0
M  V30 7924 H 776.196 -6.4502 -2.92156 0
M  V30 7925 H 776.604 -4.71781 -3.09972 0
M  V30 7926 N 776.003 0.335068 -1.53997 0
M  V30 7927 C 777.249 1.07594 -1.71905 0
M  V30 7928 C 777.582 1.88039 -0.485264 0
M  V30 7929 O 776.857 1.87482 0.517752 0
M  V30 7930 C 777.14 2.01016 -2.98772 0
M  V30 7931 C 776.993 1.23977 -4.32377 0
M  V30 7932 C 778.312 3.0071 -3.21343 0
M  V30 7933 H 775.431 0.38976 -0.625505 0
M  V30 7934 H 778.073 0.353684 -1.86679 0
M  V30 7935 H 776.223 2.62603 -2.86307 0
M  V30 7936 H 777.895 0.649383 -4.56706 0
M  V30 7937 H 776.138 0.541878 -4.30402 0
M  V30 7938 H 776.809 1.92512 -5.17342 0
M  V30 7939 H 779.285 2.4924 -3.33194 0
M  V30 7940 H 778.161 3.63272 -4.11491 0
M  V30 7941 H 778.422 3.72549 -2.38033 0
M  V30 7942 N 777.481 1.45874 0.596531 0
M  V30 7943 C 778.391 1.57947 1.73464 0
M  V30 7944 C 779.407 0.463461 1.67714 0
M  V30 7945 O 780.583 0.725685 1.87872 0
M  V30 7946 C 777.648 1.55348 3.09948 0
M  V30 7947 C 776.709 2.78074 3.27068 0
M  V30 7948 C 775.942 2.75589 4.57041 0
M  V30 7949 O 776.165 1.83545 5.40063 0
M  V30 7950 O 775.099 3.66945 4.77111 0
M  V30 7951 H 778.925 2.54169 1.66228 0
M  V30 7952 H 776.51 1.2851 0.76194 0
M  V30 7953 H 778.392 1.56545 3.91244 0
M  V30 7954 H 777.067 0.622811 3.17652 0
M  V30 7955 H 775.974 2.82435 2.45319 0
M  V30 7956 H 777.307 3.70303 3.24248 0
M  V30 7957 N 778.959 -0.83999 1.33349 0
M  V30 7958 C 780.187 -1.62728 1.27778 0
M  V30 7959 C 780.602 -1.88191 -0.151505 0
M  V30 7960 O 779.959 -1.46128 -1.09329 0
M  V30 7961 C 780.01 -2.97813 2.04913 0
M  V30 7962 O 779.731 -2.73469 3.42266 0
M  V30 7963 C 781.232 -3.92245 2.0654 0
M  V30 7964 H 778.452 -0.506374 0.440257 0
M  V30 7965 H 780.996 -1.04637 1.75703 0
M  V30 7966 H 779.151 -3.52509 1.60674 0
M  V30 7967 H 779.565 -3.59483 3.81932 0
M  V30 7968 H 781.039 -4.84249 2.64966 0
M  V30 7969 H 781.516 -4.26332 1.05537 0
M  V30 7970 H 782.122 -3.43487 2.50793 0
M  V30 7971 N 780.437 -1.16799 -1.0581 0
M  V30 7972 C 781.384 -0.87902 -2.13405 0
M  V30 7973 C 782.354 0.174541 -1.6518 0
M  V30 7974 O 783.539 0.0386843 -1.90761 0
M  V30 7975 C 780.679 -0.391616 -3.42871 0
M  V30 7976 C 779.792 -1.50857 -4.04804 0
M  V30 7977 C 778.927 -0.975682 -5.22163 0
M  V30 7978 C 777.966 -2.06851 -5.76089 0
M  V30 7979 N 777.103 -1.55085 -6.84758 0
M  V30 7980 H 781.943 -1.80043 -2.37463 0
M  V30 7981 H 779.48 -0.898083 -1.16503 0
M  V30 7982 H 781.438 -0.0906247 -4.17102 0
M  V30 7983 H 780.068 0.49284 -3.19016 0
M  V30 7984 H 779.12 -1.92542 -3.28073 0
M  V30 7985 H 780.432 -2.33305 -4.40874 0
M  V30 7986 H 779.586 -0.628165 -6.03439 0
M  V30 7987 H 778.325 -0.120566 -4.87551 0
M  V30 7988 H 777.33 -2.42467 -4.93447 0
M  V30 7989 H 778.555 -2.92768 -6.12751 0
M  V30 7990 H 776.501 -0.718345 -6.52055 0
M  V30 7991 H 776.418 -2.31145 -7.19797 0
M  V30 7992 H 777.686 -1.23206 -7.69702 0
M  V30 7993 N 781.915 1.24427 -0.967243 0
M  V30 7994 C 783.164 1.91789 -0.624478 0
M  V30 7995 C 783.477 1.76448 0.844129 0
M  V30 7996 O 784.683 2.38495 1.2974 0
M  V30 7997 C 783.139 3.43743 -1.06626 0
M  V30 7998 C 782.747 3.67771 -2.55829 0
M  V30 7999 C 784.491 4.16958 -0.79662 0
M  V30 8000 C 782.398 5.13293 -2.93742 0
M  V30 8001 H 781.328 0.71811 -0.229856 0
M  V30 8002 H 783.979 1.41081 -1.17339 0
M  V30 8003 H 782.361 3.93484 -0.445663 0
M  V30 8004 H 783.535 3.28631 -3.23015 0
M  V30 8005 H 781.85 3.07841 -2.80398 0
M  V30 8006 H 784.447 5.24171 -1.05589 0
M  V30 8007 H 784.79 4.15442 0.267163 0
M  V30 8008 H 785.323 3.73164 -1.37816 0
M  V30 8009 H 782.062 5.19931 -3.9919 0
M  V30 8010 H 781.582 5.53433 -2.3124 0
M  V30 8011 H 783.261 5.81521 -2.83623 0
M  V30 8012 N 783.393 0.737304 1.3929 0
M  V30 8013 C 784.356 0.10731 2.28949 0
M  V30 8014 C 785.356 -0.664716 1.46418 0
M  V30 8015 O 786.546 -0.493392 1.67067 0
M  V30 8016 C 783.678 -0.857145 3.29948 0
M  V30 8017 H 784.871 0.89725 2.86163 0
M  V30 8018 H 782.424 0.503279 1.47976 0
M  V30 8019 H 783.159 -1.67336 2.77794 0
M  V30 8020 H 782.944 -0.306167 3.90903 0
M  V30 8021 H 784.434 -1.29444 3.97031 0
M  V30 8022 N 784.871 -1.49948 0.485112 0
M  V30 8023 C 785.803 -2.26691 -0.338222 0
M  V30 8024 C 786.816 -1.32584 -0.944742 0
M  V30 8025 O 788.005 -1.57989 -0.830772 0
M  V30 8026 C 785.105 -3.04405 -1.48966 0
M  V30 8027 C 784.278 -4.25971 -0.993371 0
M  V30 8028 C 783.337 -4.85861 -2.02052 0
M  V30 8029 O 782.363 -5.46382 -1.59547 0
M  V30 8030 N 783.565 -4.74101 -3.34975 0
M  V30 8031 H 786.33 -2.97989 0.319748 0
M  V30 8032 H 783.891 -1.58772 0.316714 0
M  V30 8033 H 785.883 -3.41348 -2.17403 0
M  V30 8034 H 784.453 -2.35815 -2.05207 0
M  V30 8035 H 783.673 -3.93971 -0.134424 0
M  V30 8036 H 784.961 -5.0476 -0.639934 0
M  V30 8037 H 784.359 -4.26002 -3.72208 0
M  V30 8038 H 782.916 -5.15274 -3.9917 0
M  V30 8039 N 786.349 -0.21828 -1.56081 0
M  V30 8040 C 787.76 0.290166 -1.84431 0
M  V30 8041 C 788.111 1.59712 -1.13958 0
M  V30 8042 O 787.236 2.12516 -0.40815 0
M  V30 8043 C 787.831 0.53325 -3.34577 0
M  V30 8044 C 786.39 0.986011 -3.63256 0
M  V30 8045 C 785.537 0.0472798 -2.7726 0
M  V30 8046 H 788.488 -0.441548 -1.52434 0
M  V30 8047 H 788.509 1.37967 -3.54606 0
M  V30 8048 H 788.021 -0.418137 -3.85841 0
M  V30 8049 H 786.122 1.95087 -3.17446 0
M  V30 8050 H 786.235 0.862684 -4.71269 0
M  V30 8051 H 784.599 0.553471 -2.48614 0
M  V30 8052 H 785.382 -0.898966 -3.31321 0
M  V30 8053 N 787.827 1.57504 0.0551401 0
M  V30 8054 C 789.243 1.54236 0.410292 0
M  V30 8055 C 789.443 0.940839 1.78187 0
M  V30 8056 O 788.499 0.550541 2.46425 0
M  V30 8057 C 789.812 2.98816 0.336064 0
M  V30 8058 C 791.36 3.10236 0.415047 0
M  V30 8059 C 791.835 4.56499 0.37055 0
M  V30 8060 N 793.326 4.61199 0.43013 0
M  V30 8061 C 794.061 5.71873 0.418179 0
M  V30 8062 N 793.557 6.91864 0.360056 0
M  V30 8063 N 795.35 5.60165 0.465977 0
M  V30 8064 H 787.501 1.94965 -0.842759 0
M  V30 8065 H 789.764 0.893096 -0.317937 0
M  V30 8066 H 789.47 3.4645 -0.605429 0
M  V30 8067 H 789.344 3.59564 1.13988 0
M  V30 8068 H 791.731 2.62566 1.34697 0
M  V30 8069 H 791.812 2.52367 -0.417648 0
M  V30 8070 H 791.456 5.0483 -0.557592 0
M  V30 8071 H 791.386 5.12249 1.221 0
M  V30 8072 H 793.877 3.74857 0.478623 0
M  V30 8073 H 794.19 7.71983 0.35532 0
M  V30 8074 H 792.535 6.94233 0.326492 0
M  V30 8075 H 795.726 4.65322 0.509194 0
M  V30 8076 H 795.899 6.46413 0.453194 0
M  V30 8077 N 789.305 -0.326896 1.54172 0
M  V30 8078 C 790.268 -1.38515 1.8261 0
M  V30 8079 C 791.268 -1.44872 0.697771 0
M  V30 8080 O 792.458 -1.44957 0.966078 0
M  V30 8081 C 789.59 -2.77281 1.98313 0
M  V30 8082 H 790.783 -1.14556 2.77159 0
M  V30 8083 H 788.336 -0.562199 1.45839 0
M  V30 8084 H 789.071 -3.065 1.05964 0
M  V30 8085 H 788.856 -2.74061 2.80416 0
M  V30 8086 H 790.346 -3.53845 2.21773 0
M  V30 8087 N 790.784 -1.46188 -0.588786 0
M  V30 8088 C 792.032 -1.50885 -1.34455 0
M  V30 8089 C 792.353 -0.159555 -1.94346 0
M  V30 8090 O 791.623 0.813239 -1.78222 0
M  V30 8091 H 790.203 -0.555707 -0.499198 0
M  V30 8092 H 792.865 -1.82277 -0.690014 0
M  V30 8093 H 791.961 -2.25816 -2.15438 0
M  V30 8094 N 792.262 0.832906 -1.33792 0
M  V30 8095 C 793.225 1.92471 -1.24449 0
M  V30 8096 C 794.225 1.59981 -0.162085 0
M  V30 8097 O 795.415 1.69208 -0.414029 0
M  V30 8098 C 792.547 3.28278 -0.919044 0
M  V30 8099 H 793.74 2.0218 -2.21502 0
M  V30 8100 H 791.293 1.0257 -1.17936 0
M  V30 8101 H 792.028 3.24263 0.048738 0
M  V30 8102 H 791.813 3.53241 -1.70187 0
M  V30 8103 H 793.303 4.08253 -0.878576 0
M  V30 8104 N 793.74 1.17359 1.05189 0
M  V30 8105 C 794.965 0.98709 1.82404 0
M  V30 8106 C 795.39 -0.459848 1.82392 0
M  V30 8107 O 794.748 -1.32924 1.23292 0
M  V30 8108 C 794.796 1.53276 3.26403 0
M  V30 8109 O 793.9 0.746541 4.05587 0
M  V30 8110 H 793.241 0.35047 0.563974 0
M  V30 8111 H 795.771 1.55856 1.32552 0
M  V30 8112 H 795.781 1.55504 3.77203 0
M  V30 8113 H 794.456 2.58603 3.25726 0
M  V30 8114 H 793.033 0.795671 3.64312 0
M  V30 8115 N 795.218 -1.23913 0.973828 0
M  V30 8116 C 796.446 -1.96195 0.656891 0
M  V30 8117 C 796.861 -1.72166 -0.774876 0
M  V30 8118 O 796.218 -1.0091 -1.52064 0
M  V30 8119 C 796.269 -3.49342 0.929638 0
M  V30 8120 O 795.99 -3.72553 2.30512 0
M  V30 8121 C 797.491 -4.38833 0.627739 0
M  V30 8122 H 794.711 -0.624841 0.244572 0
M  V30 8123 H 797.255 -1.57579 1.30343 0
M  V30 8124 H 795.41 -3.85999 0.329216 0
M  V30 8125 H 795.824 -4.66893 2.3898 0
M  V30 8126 H 797.298 -5.45117 0.868991 0
M  V30 8127 H 797.775 -4.37009 -0.438104 0
M  V30 8128 H 798.381 -4.07773 1.20834 0
M  V30 8129 N 796.696 -0.74468 -1.38897 0
M  V30 8130 C 797.659 -0.11945 -2.28889 0
M  V30 8131 C 798.659 0.656942 -1.46768 0
M  V30 8132 O 799.849 0.484525 -1.67326 0
M  V30 8133 C 796.981 0.839635 -3.30398 0
M  V30 8134 H 798.174 -0.912414 -2.85683 0
M  V30 8135 H 795.727 -0.511119 -1.47707 0
M  V30 8136 H 796.462 1.6586 -2.78677 0
M  V30 8137 H 796.247 0.285432 -3.9106 0
M  V30 8138 H 797.737 1.27337 -3.97712 0
M  V30 8139 N 798.174 1.49689 -0.493057 0
M  V30 8140 C 799.42 2.03347 0.0463792 0
M  V30 8141 C 799.775 1.36671 1.35421 0
M  V30 8142 O 799.068 0.4907 1.8521 0
M  V30 8143 C 799.262 3.56427 0.263536 0
M  V30 8144 C 799.091 4.3794 -1.02169 0
M  V30 8145 C 797.861 4.8025 -1.57125 0
M  V30 8146 C 800.059 4.77 -1.9229 0
M  V30 8147 N 798.041 5.46162 -2.80321 0
M  V30 8148 C 799.412 5.42549 -3.00067 0
M  V30 8149 C 801.467 4.58945 -1.93064 0
M  V30 8150 C 800.17 5.91954 -4.08635 0
M  V30 8151 C 802.196 5.09306 -3.00602 0
M  V30 8152 C 801.558 5.74849 -4.07097 0
M  V30 8153 H 797.657 0.781644 -0.0236097 0
M  V30 8154 H 800.241 1.82949 -0.666151 0
M  V30 8155 H 798.412 3.76725 0.945118 0
M  V30 8156 H 800.144 3.96729 0.79927 0
M  V30 8157 H 796.899 4.60228 -1.11746 0
M  V30 8158 H 797.323 5.83711 -3.42944 0
M  V30 8159 H 801.965 4.07685 -1.12039 0
M  V30 8160 H 799.683 6.4224 -4.90463 0
M  V30 8161 H 803.269 4.97152 -3.0221 0
M  V30 8162 H 802.149 6.13113 -4.88939 0
M  V30 8163 N 799.652 0.226554 1.55963 0
M  V30 8164 C 800.898 -0.404387 1.98727 0
M  V30 8165 C 801.231 -1.59059 1.11418 0
M  V30 8166 O 800.506 -1.93729 0.172971 0
M  V30 8167 C 800.789 -0.834081 3.50307 0
M  V30 8168 C 800.642 0.356104 4.48388 0
M  V30 8169 C 801.961 -1.68845 4.06423 0
M  V30 8170 H 799.08 -0.145515 0.722492 0
M  V30 8171 H 801.722 0.323791 1.87221 0
M  V30 8172 H 799.872 -1.45454 3.60244 0
M  V30 8173 H 801.544 0.99432 4.50456 0
M  V30 8174 H 799.787 1.0027 4.22053 0
M  V30 8175 H 800.458 0.0124333 5.51999 0
M  V30 8176 H 802.934 -1.16489 3.99461 0
M  V30 8177 H 801.81 -1.958 5.1279 0
M  V30 8178 H 802.071 -2.65347 3.53615 0
M  V30 8179 N 801.13 -1.57531 -0.0467866 0
M  V30 8180 C 802.541 -1.76945 -0.595603 0
M  V30 8181 C 802.892 -0.855354 -1.76573 0
M  V30 8182 O 802.017 -0.045668 -2.16352 0
M  V30 8183 C 802.612 -3.20881 -1.08725 0
M  V30 8184 C 801.171 -3.41553 -1.58172 0
M  V30 8185 C 800.318 -2.72533 -0.511968 0
M  V30 8186 H 803.269 -1.57682 0.179436 0
M  V30 8187 H 803.29 -3.26419 -1.95528 0
M  V30 8188 H 802.802 -3.87385 -0.235398 0
M  V30 8189 H 800.903 -2.80199 -2.456 0
M  V30 8190 H 801.016 -4.50104 -1.64143 0
M  V30 8191 H 799.38 -2.35797 -0.962899 0
M  V30 8192 H 800.163 -3.41709 0.330117 0
M  V30 8193 N 802.608 0.318715 -1.54344 0
M  V30 8194 C 803.833 1.07987 -1.77069 0
M  V30 8195 C 804.258 1.80766 -0.520117 0
M  V30 8196 O 803.616 1.73424 0.528566 0
M  V30 8197 C 803.664 2.04987 -2.96669 0
M  V30 8198 O 802.768 3.12974 -2.68554 0
M  V30 8199 H 802.109 0.311109 -0.586606 0
M  V30 8200 H 804.639 0.361533 -2.0138 0
M  V30 8201 H 804.649 2.47771 -3.2415 0
M  V30 8202 H 803.324 1.51417 -3.87357 0
M  V30 8203 H 801.901 2.74831 -2.52037 0
M  V30 8204 N 804.086 1.46499 0.581025 0
M  V30 8205 C 805.497 1.4604 1.16315 0
M  V30 8206 C 805.848 0.202154 1.95156 0
M  V30 8207 O 804.973 -0.694638 2.04948 0
M  V30 8208 C 805.568 2.64593 2.11604 0
M  V30 8209 C 804.127 2.6717 2.65136 0
M  V30 8210 C 803.274 2.38753 1.4104 0
M  V30 8211 H 806.225 1.54354 0.368871 0
M  V30 8212 H 806.246 2.40207 2.95095 0
M  V30 8213 H 805.758 3.56154 1.54194 0
M  V30 8214 H 803.859 1.79685 3.26411 0
M  V30 8215 H 803.972 3.67182 3.07757 0
M  V30 8216 H 802.336 1.88845 1.70908 0
M  V30 8217 H 803.119 3.32493 0.854588 0
M  V30 8218 N 805.565 -0.825799 1.34232 0
M  V30 8219 C 806.793 -1.61363 1.29497 0
M  V30 8220 C 807.208 -1.88341 -0.131536 0
M  V30 8221 O 806.565 -1.47279 -1.07773 0
M  V30 8222 C 806.616 -2.95623 2.08061 0
M  V30 8223 O 806.337 -2.69824 3.45147 0
M  V30 8224 C 807.838 -3.90032 2.10688 0
M  V30 8225 H 805.058 -0.501676 0.445603 0
M  V30 8226 H 807.602 -1.02767 1.76803 0
M  V30 8227 H 805.757 -3.50785 1.64404 0
M  V30 8228 H 806.171 -3.55412 3.85723 0
M  V30 8229 H 807.645 -4.81411 2.70087 0
M  V30 8230 H 808.122 -4.25188 1.10052 0
M  V30 8231 H 808.728 -3.40807 2.54422 0
M  V30 8232 N 807.043 -1.17915 -1.04565 0
M  V30 8233 C 808.006 -0.903787 -2.10628 0
M  V30 8234 C 809.006 0.10873 -1.60432 0
M  V30 8235 O 810.196 -0.124152 -1.73757 0
M  V30 8236 C 807.328 -0.355017 -3.39046 0
M  V30 8237 H 808.521 -1.84425 -2.3649 0
M  V30 8238 H 806.074 -0.990477 -1.2091 0
M  V30 8239 H 806.809 0.592297 -3.18845 0
M  V30 8240 H 806.594 -1.08484 -3.76794 0
M  V30 8241 H 808.084 -0.180891 -4.17208 0
M  V30 8242 N 808.521 1.23394 -0.980386 0
M  V30 8243 C 809.484 2.23092 -0.525619 0
M  V30 8244 C 810.484 1.56129 0.384745 0
M  V30 8245 O 811.674 1.73284 0.178439 0
M  V30 8246 C 808.806 3.40074 0.23712 0
M  V30 8247 H 809.999 2.64839 -1.40714 0
M  V30 8248 H 807.552 1.36227 -0.766275 0
M  V30 8249 H 808.287 3.03783 1.13518 0
M  V30 8250 H 808.072 3.89883 -0.416356 0
M  V30 8251 H 809.562 4.14043 0.543892 0
M  V30 8252 N 809.999 0.752036 1.385 0
M  V30 8253 C 811.227 0.318274 2.04437 0
M  V30 8254 C 811.642 -1.05285 1.56718 0
M  V30 8255 O 810.999 -1.66844 0.73956 0
M  V30 8256 C 811.05 0.330106 3.5999 0
M  V30 8257 O 810.771 1.64712 4.05957 0
M  V30 8258 C 812.272 -0.117713 4.43144 0
M  V30 8259 H 809.492 0.136228 0.657026 0
M  V30 8260 H 812.036 1.02045 1.7722 0
M  V30 8261 H 810.191 -0.323323 3.86048 0
M  V30 8262 H 810.605 1.57225 5.0038 0
M  V30 8263 H 812.079 -0.0582735 5.51969 0
M  V30 8264 H 812.556 -1.16538 4.23457 0
M  V30 8265 H 813.162 0.506784 4.2227 0
M  V30 8266 N 811.477 -1.49425 0.500989 0
M  V30 8267 C 812.407 -2.31971 -0.266775 0
M  V30 8268 C 813.388 -1.40245 -0.962563 0
M  V30 8269 O 814.573 -1.69154 -0.953968 0
M  V30 8270 C 811.703 -3.20757 -1.33163 0
M  V30 8271 C 810.657 -4.21275 -0.75572 0
M  V30 8272 C 809.983 -4.98997 -1.92109 0
M  V30 8273 C 811.283 -5.21686 0.253213 0
M  V30 8274 H 812.977 -2.96408 0.422237 0
M  V30 8275 H 810.523 -1.4254 0.204505 0
M  V30 8276 H 812.476 -3.77315 -1.87646 0
M  V30 8277 H 811.2 -2.54263 -2.04983 0
M  V30 8278 H 809.859 -3.65861 -0.232637 0
M  V30 8279 H 809.507 -4.28951 -2.62698 0
M  V30 8280 H 809.207 -5.67011 -1.54182 0
M  V30 8281 H 810.731 -5.584 -2.47026 0
M  V30 8282 H 812.145 -5.72939 -0.203483 0
M  V30 8283 H 810.542 -5.9759 0.548322 0
M  V30 8284 H 811.612 -4.70596 1.16909 0
M  V30 8285 N 812.955 -0.234822 -1.55841 0
M  V30 8286 C 813.905 0.68346 -2.17515 0
M  V30 8287 C 814.889 1.14798 -1.1274 0
M  V30 8288 O 816.081 1.09976 -1.38688 0
M  V30 8289 C 813.21 1.88551 -2.86886 0
M  V30 8290 C 812.296 1.44006 -3.98903 0
M  V30 8291 N 812.687 0.708034 -5.0082 0
M  V30 8292 C 810.985 1.7263 -4.11236 0
M  V30 8293 C 811.686 0.479036 -5.79724 0
M  V30 8294 N 810.662 1.03968 -5.33565 0
M  V30 8295 H 814.464 0.115897 -2.93671 0
M  V30 8296 H 811.978 -0.0366273 -1.62359 0
M  V30 8297 H 813.975 2.55425 -3.2949 0
M  V30 8298 H 812.635 2.45742 -2.12229 0
M  V30 8299 H 813.646 0.359363 -5.16652 0
M  V30 8300 H 810.323 2.31046 -3.47741 0
M  V30 8301 H 811.713 -0.104514 -6.71819 0
M  V30 8302 N 814.433 1.57553 0.0384317 0
M  V30 8303 C 815.396 2.04927 1.02653 0
M  V30 8304 C 816.396 0.951768 1.29607 0
M  V30 8305 O 817.586 1.21568 1.24768 0
M  V30 8306 C 814.718 2.45828 2.36181 0
M  V30 8307 H 815.911 2.93474 0.617508 0
M  V30 8308 H 813.464 1.53679 0.285031 0
M  V30 8309 H 814.199 1.60408 2.8185 0
M  V30 8310 H 813.984 3.25945 2.1795 0
M  V30 8311 H 815.474 2.82939 3.0714 0
M  V30 8312 N 815.911 -0.310526 1.54511 0
M  V30 8313 C 816.841 -1.38757 1.878 0
M  V30 8314 C 817.822 -1.53353 0.735991 0
M  V30 8315 O 819.007 -1.67018 0.990887 0
M  V30 8316 C 816.137 -2.75327 2.11689 0
M  V30 8317 C 815.091 -2.75506 3.27537 0
M  V30 8318 C 814.417 -4.15275 3.36824 0
M  V30 8319 C 815.717 -2.38093 4.64875 0
M  V30 8320 H 817.411 -1.11146 2.78005 0
M  V30 8321 H 814.957 -0.533232 1.33763 0
M  V30 8322 H 816.91 -3.50752 2.33562 0
M  V30 8323 H 815.634 -3.04443 1.18245 0
M  V30 8324 H 814.293 -2.02538 3.05572 0
M  V30 8325 H 813.941 -4.41553 2.40915 0
M  V30 8326 H 813.641 -4.16299 4.14692 0
M  V30 8327 H 815.165 -4.92493 3.60947 0
M  V30 8328 H 816.579 -3.03232 4.86542 0
M  V30 8329 H 814.976 -2.50345 5.45387 0
M  V30 8330 H 816.046 -1.33227 4.66239 0
M  V30 8331 N 817.389 -1.46805 -0.573248 0
M  V30 8332 C 818.339 -1.54497 -1.67674 0
M  V30 8333 C 819.323 -0.405117 -1.55716 0
M  V30 8334 O 820.515 -0.654097 -1.64471 0
M  V30 8335 C 817.644 -1.54717 -3.0646 0
M  V30 8336 C 816.73 -2.7403 -3.2368 0
M  V30 8337 N 817.121 -3.98871 -3.11023 0
M  V30 8338 C 815.419 -2.70453 -3.54642 0
M  V30 8339 C 816.12 -4.78689 -3.30502 0
M  V30 8340 N 815.096 -4.10727 -3.56096 0
M  V30 8341 H 818.898 -2.48809 -1.56433 0
M  V30 8342 H 816.412 -1.42576 -0.777554 0
M  V30 8343 H 818.409 -1.58316 -3.8567 0
M  V30 8344 H 817.069 -0.614886 -3.18825 0
M  V30 8345 H 818.08 -4.29976 -2.88688 0
M  V30 8346 H 814.757 -1.86291 -3.73633 0
M  V30 8347 H 816.147 -5.87615 -3.2582 0
M  V30 8348 N 818.867 0.818669 -1.34668 0
M  V30 8349 C 820.097 1.60441 -1.30162 0
M  V30 8350 C 820.505 1.88783 0.125579 0
M  V30 8351 O 819.848 1.48281 1.08437 0
M  V30 8352 C 819.91 2.96794 -2.02864 0
M  V30 8353 C 819.574 2.91327 -3.52105 0
M  V30 8354 C 820.571 2.65611 -4.4693 0
M  V30 8355 C 818.256 3.10825 -3.9458 0
M  V30 8356 C 820.25 2.59452 -5.82206 0
M  V30 8357 C 817.937 3.0429 -5.29954 0
M  V30 8358 C 818.935 2.78637 -6.23579 0
M  V30 8359 O 818.623 2.72042 -7.56471 0
M  V30 8360 H 818.355 0.505278 -0.449077 0
M  V30 8361 H 820.909 1.02632 -1.77921 0
M  V30 8362 H 819.139 3.56538 -1.49725 0
M  V30 8363 H 820.828 3.57837 -1.91592 0
M  V30 8364 H 821.594 2.50278 -4.15434 0
M  V30 8365 H 817.473 3.29807 -3.221 0
M  V30 8366 H 821.017 2.39349 -6.55254 0
M  V30 8367 H 816.914 3.19177 -5.61067 0
M  V30 8368 H 817.682 2.87738 -7.66257 0
M  V30 8369 N 820.346 1.18468 1.03938 0
M  V30 8370 C 821.296 0.880799 2.103 0
M  V30 8371 C 822.28 -0.150008 1.60199 0
M  V30 8372 O 823.472 0.054213 1.76917 0
M  V30 8373 C 820.601 0.409723 3.40846 0
M  V30 8374 C 819.687 1.47267 3.9771 0
M  V30 8375 N 820.078 2.68945 4.28371 0
M  V30 8376 C 818.376 1.33349 4.25598 0
M  V30 8377 C 819.077 3.37341 4.73894 0
M  V30 8378 N 818.053 2.64725 4.74786 0
M  V30 8379 H 821.855 1.80574 2.31884 0
M  V30 8380 H 819.369 1.07527 1.21703 0
M  V30 8381 H 821.366 0.17352 4.16539 0
M  V30 8382 H 820.026 -0.508862 3.20688 0
M  V30 8383 H 821.037 3.05801 4.17978 0
M  V30 8384 H 817.714 0.477548 4.1476 0
M  V30 8385 H 819.104 4.41338 5.06627 0
M  V30 8386 N 821.824 -1.22873 0.986916 0
M  V30 8387 C 822.756 -2.23889 0.490537 0
M  V30 8388 C 823.769 -1.57523 -0.411144 0
M  V30 8389 O 824.958 -1.7721 -0.214236 0
M  V30 8390 C 822.058 -3.37488 -0.30902 0
M  V30 8391 C 821.231 -4.33438 0.587354 0
M  V30 8392 C 820.29 -5.25958 -0.159467 0
M  V30 8393 O 819.316 -5.67394 0.453115 0
M  V30 8394 N 820.518 -5.62265 -1.44355 0
M  V30 8395 H 823.283 -2.67109 1.35914 0
M  V30 8396 H 820.844 -1.37111 0.860937 0
M  V30 8397 H 822.836 -3.96365 -0.817139 0
M  V30 8398 H 821.406 -2.934 -1.07868 0
M  V30 8399 H 820.626 -3.72969 1.27622 0
M  V30 8400 H 821.914 -4.94495 1.19801 0
M  V30 8401 H 821.312 -5.30562 -1.96266 0
M  V30 8402 H 819.869 -6.23585 -1.89698 0
M  V30 8403 N 823.302 -0.75937 -1.38099 0
M  V30 8404 C 824.548 -0.318584 -2.00282 0
M  V30 8405 C 824.881 1.09854 -1.60143 0
M  V30 8406 O 824.156 1.75344 -0.841702 0
M  V30 8407 C 824.439 -0.448047 -3.57302 0
M  V30 8408 C 824.292 -1.9067 -4.07388 0
M  V30 8409 C 825.611 0.155119 -4.39827 0
M  V30 8410 H 822.73 -0.117233 -0.727616 0
M  V30 8411 H 825.372 -0.960097 -1.63958 0
M  V30 8412 H 823.522 0.0981003 -3.88376 0
M  V30 8413 H 825.194 -2.5116 -3.86932 0
M  V30 8414 H 823.437 -2.41979 -3.6004 0
M  V30 8415 H 824.108 -1.94841 -5.1647 0
M  V30 8416 H 826.584 -0.31073 -4.14938 0
M  V30 8417 H 825.46 0.0343264 -5.48889 0
M  V30 8418 H 825.721 1.24407 -4.24235 0
M  V30 8419 N 824.78 1.49157 -0.508906 0
M  V30 8420 C 826.057 1.95363 0.0961913 0
M  V30 8421 C 826.437 1.45064 1.53362 0
M  V30 8422 O 825.785 0.667835 2.18523 0
M  V30 8423 C 825.995 3.49 0.000688881 0
M  V30 8424 C 827.343 4.24257 0.170632 0
M  V30 8425 O 828.367 3.5612 0.0754994 0
M  V30 8426 O 827.226 5.45267 0.366957 0
M  V30 8427 H 824.32 0.821984 0.0909489 0
M  V30 8428 H 826.866 1.59769 -0.572007 0
M  V30 8429 H 825.638 3.78269 -1.00143 0
M  V30 8430 H 825.261 3.91233 0.708682 0
M  V30 8431 N 826.258 0.243083 1.55714 0
M  V30 8432 C 827.504 -0.383287 1.99145 0
M  V30 8433 C 827.837 -1.57868 1.13098 0
M  V30 8434 O 827.112 -1.93535 0.193509 0
M  V30 8435 C 827.395 -0.796879 3.51172 0
M  V30 8436 C 827.248 0.403642 4.47985 0
M  V30 8437 C 828.567 -1.64525 4.08191 0
M  V30 8438 H 825.686 -0.137843 0.723995 0
M  V30 8439 H 828.328 0.343631 1.86867 0
M  V30 8440 H 826.478 -1.41625 3.61766 0
M  V30 8441 H 828.15 1.04204 4.49376 0
M  V30 8442 H 826.393 1.04741 4.20965 0
M  V30 8443 H 827.064 0.0709794 5.51954 0
M  V30 8444 H 829.54 -1.12246 4.00674 0
M  V30 8445 H 828.416 -1.9035 5.14838 0
M  V30 8446 H 828.677 -2.61582 3.56409 0
M  V30 8447 N 827.736 -1.57571 -0.0300757 0
M  V30 8448 C 828.699 -2.05468 -1.01565 0
M  V30 8449 C 829.699 -0.958628 -1.29101 0
M  V30 8450 O 830.889 -1.22228 -1.24121 0
M  V30 8451 C 828.021 -2.47077 -2.34874 0
M  V30 8452 H 829.214 -2.93797 -0.601936 0
M  V30 8453 H 826.767 -1.53828 -0.276878 0
M  V30 8454 H 827.502 -1.61901 -2.80996 0
M  V30 8455 H 827.287 -3.27097 -2.16218 0
M  V30 8456 H 828.777 -2.84564 -3.05635 0
M  V30 8457 N 829.214 0.302327 -1.54673 0
M  V30 8458 C 830.177 1.35592 -1.8479 0
M  V30 8459 C 831.177 1.43743 -0.72073 0
M  V30 8460 O 832.367 1.43402 -0.989017 0
M  V30 8461 C 829.499 2.74091 -2.02699 0
M  V30 8462 H 830.692 1.10132 -2.78946 0
M  V30 8463 H 828.245 0.538926 -1.46715 0
M  V30 8464 H 828.98 3.04775 -1.10826 0
M  V30 8465 H 828.765 2.69565 -2.8474 0
M  V30 8466 H 830.255 3.50272 -2.27374 0
M  V30 8467 N 830.692 1.47107 0.565454 0
M  V30 8468 C 831.938 1.53535 1.32495 0
M  V30 8469 C 832.271 0.193537 1.93233 0
M  V30 8470 O 831.546 -0.796956 1.77423 0
M  V30 8471 C 831.829 2.64712 2.4413 0
M  V30 8472 C 831.682 4.08482 1.88314 0
M  V30 8473 C 833.001 2.71853 3.46098 0
M  V30 8474 H 830.12 0.558926 0.480386 0
M  V30 8475 H 832.762 1.79125 0.633575 0
M  V30 8476 H 830.912 2.43023 3.03104 0
M  V30 8477 H 832.584 4.4151 1.33665 0
M  V30 8478 H 830.827 4.17148 1.19037 0
M  V30 8479 H 831.498 4.82032 2.68978 0
M  V30 8480 H 833.974 2.91397 2.97031 0
M  V30 8481 H 832.85 3.51433 4.21646 0
M  V30 8482 H 833.111 1.78584 4.04426 0
M  V30 8483 N 832.17 -0.811516 1.35101 0
M  V30 8484 C 833.102 -1.93102 1.23468 0
M  V30 8485 C 834.115 -1.62021 0.159095 0
M  V30 8486 O 835.304 -1.73682 0.411945 0
M  V30 8487 C 832.404 -3.27345 0.877404 0
M  V30 8488 C 831.577 -3.86368 2.05033 0
M  V30 8489 C 830.636 -4.99009 1.66963 0
M  V30 8490 O 829.662 -5.16698 2.38772 0
M  V30 8491 N 830.864 -5.7749 0.590394 0
M  V30 8492 H 833.629 -2.0361 2.19916 0
M  V30 8493 H 831.19 -0.988687 1.28205 0
M  V30 8494 H 833.182 -4.00163 0.604298 0
M  V30 8495 H 831.752 -3.126 0.00275267 0
M  V30 8496 H 830.972 -3.05804 2.48752 0
M  V30 8497 H 832.26 -4.22533 2.83449 0
M  V30 8498 H 831.658 -5.657 -0.00633259 0
M  V30 8499 H 830.215 -6.50708 0.377055 0
M  V30 8500 N 833.648 -1.19017 -1.03309 0
M  V30 8501 C 834.58 -0.881847 -2.11556 0
M  V30 8502 C 835.593 0.123711 -1.62329 0
M  V30 8503 O 836.782 -0.105141 -1.7819 0
M  V30 8504 C 833.882 -0.297634 -3.37591 0
M  V30 8505 C 833.055 -1.35072 -4.16022 0
M  V30 8506 C 832.114 -0.780812 -5.20375 0
M  V30 8507 O 831.14 -1.45745 -5.50224 0
M  V30 8508 N 832.342 0.417964 -5.78993 0
M  V30 8509 H 835.107 -1.81359 -2.38598 0
M  V30 8510 H 832.668 -1.0916 -1.19565 0
M  V30 8511 H 834.66 0.097374 -4.04583 0
M  V30 8512 H 833.23 0.538299 -3.0793 0
M  V30 8513 H 832.45 -1.92074 -3.4424 0
M  V30 8514 H 833.738 -2.06044 -4.65213 0
M  V30 8515 H 833.136 0.985281 -5.57054 0
M  V30 8516 H 831.693 0.754802 -6.47415 0
M  V30 8517 N 835.127 1.22348 -0.993418 0
M  V30 8518 C 836.375 1.90733 -0.668246 0
M  V30 8519 C 836.696 1.77732 0.802261 0
M  V30 8520 O 835.966 1.16486 1.57505 0
M  V30 8521 H 834.546 0.705966 -0.244174 0
M  V30 8522 H 837.208 1.48691 -1.26004 0
M  V30 8523 H 836.304 2.97883 -0.931239 0
M  V30 8524 N 836.605 0.766683 1.37694 0
M  V30 8525 C 837.535 0.163432 2.32927 0
M  V30 8526 C 838.516 -0.688861 1.55527 0
M  V30 8527 O 839.701 -0.627363 1.83787 0
M  V30 8528 C 836.831 -0.720416 3.39746 0
M  V30 8529 C 835.785 0.0301718 4.27989 0
M  V30 8530 C 835.111 -0.972788 5.25776 0
M  V30 8531 C 836.411 1.20623 5.0818 0
M  V30 8532 H 838.105 0.958988 2.83626 0
M  V30 8533 H 835.651 0.462601 1.36367 0
M  V30 8534 H 837.604 -1.15221 4.05342 0
M  V30 8535 H 836.328 -1.54844 2.8756 0
M  V30 8536 H 834.987 0.442685 3.63917 0
M  V30 8537 H 834.635 -1.79522 4.69873 0
M  V30 8538 H 834.335 -0.475145 5.85676 0
M  V30 8539 H 835.859 -1.40362 5.94248 0
M  V30 8540 H 837.273 0.851341 5.66944 0
M  V30 8541 H 835.67 1.63561 5.7738 0
M  V30 8542 H 836.74 2.01281 4.41151 0
M  V30 8543 N 838.083 -1.48885 0.516809 0
M  V30 8544 C 839.046 -2.27916 -0.242256 0
M  V30 8545 C 840.046 -1.34601 -0.879735 0
M  V30 8546 O 841.236 -1.57616 -0.74182 0
M  V30 8547 C 838.368 -3.13067 -1.34914 0
M  V30 8548 H 839.561 -2.96483 0.451444 0
M  V30 8549 H 837.114 -1.5391 0.272294 0
M  V30 8550 H 837.849 -2.49102 -2.07651 0
M  V30 8551 H 837.634 -3.81695 -0.897313 0
M  V30 8552 H 839.124 -3.72716 -1.88341 0
M  V30 8553 N 839.561 -0.251338 -1.55583 0
M  V30 8554 C 840.809 0.371434 -1.98657 0
M  V30 8555 C 841.13 1.58143 -1.14087 0
M  V30 8556 O 840.4 1.94607 -0.224708 0
M  V30 8557 H 838.98 0.140225 -0.733721 0
M  V30 8558 H 841.642 -0.351157 -1.9171 0
M  V30 8559 H 840.738 0.677554 -3.04657 0
M  V30 8560 N 841.039 1.57585 0.0217189 0
M  V30 8561 C 841.986 2.07036 1.02004 0
M  V30 8562 C 842.956 0.96106 1.35473 0
M  V30 8563 O 844.141 1.23211 1.45684 0
M  V30 8564 C 841.281 2.56056 2.31364 0
M  V30 8565 C 840.394 3.80805 2.03989 0
M  V30 8566 C 839.529 4.18409 3.27272 0
M  V30 8567 C 838.568 5.36055 2.95486 0
M  V30 8568 N 837.705 5.69056 4.11242 0
M  V30 8569 H 842.545 2.92073 0.591396 0
M  V30 8570 H 840.082 1.44403 0.280384 0
M  V30 8571 H 842.04 2.82548 3.06957 0
M  V30 8572 H 840.67 1.73925 2.71937 0
M  V30 8573 H 839.722 3.61354 1.1886 0
M  V30 8574 H 841.034 4.66512 1.76546 0
M  V30 8575 H 840.188 4.46068 4.11228 0
M  V30 8576 H 838.927 3.31369 3.57835 0
M  V30 8577 H 837.932 5.08142 2.09933 0
M  V30 8578 H 839.157 6.24755 2.66193 0
M  V30 8579 H 837.103 4.84974 4.41742 0
M  V30 8580 H 837.02 6.49288 3.87247 0
M  V30 8581 H 838.288 6.01295 4.96049 0
M  V30 8582 N 842.517 -0.29412 1.54831 0
M  V30 8583 C 843.933 -0.640167 1.46199 0
M  V30 8584 C 844.133 -1.90426 0.658798 0
M  V30 8585 O 843.189 -2.51932 0.169228 0
M  V30 8586 C 844.502 -0.786763 2.90225 0
M  V30 8587 C 846.05 -0.882201 3.0031 0
M  V30 8588 C 846.525 -1.06074 4.45547 0
M  V30 8589 N 848.016 -1.12678 4.49286 0
M  V30 8590 C 848.751 -1.28334 5.58854 0
M  V30 8591 N 848.247 -1.40845 6.78332 0
M  V30 8592 N 850.04 -1.31277 5.46555 0
M  V30 8593 H 842.191 0.536334 2.05517 0
M  V30 8594 H 844.454 0.178363 0.93107 0
M  V30 8595 H 844.16 0.0713018 3.51628 0
M  V30 8596 H 844.034 -1.67364 3.38037 0
M  V30 8597 H 846.421 -1.73075 2.39017 0
M  V30 8598 H 846.502 0.0288405 2.55784 0
M  V30 8599 H 846.146 -0.216935 5.07437 0
M  V30 8600 H 846.076 -1.98611 4.8771 0
M  V30 8601 H 848.567 -1.04335 3.63212 0
M  V30 8602 H 848.88 -1.52566 7.57591 0
M  V30 8603 H 847.225 -1.37888 6.81184 0
M  V30 8604 H 850.416 -1.2112 4.52159 0
M  V30 8605 H 850.589 -1.43136 6.31994 0
M  V30 8606 N 843.995 -1.47404 -0.557645 0
M  V30 8607 C 845.411 -1.32913 -0.88353 0
M  V30 8608 C 845.611 -0.31929 -1.98954 0
M  V30 8609 O 844.667 0.26934 -2.51059 0
M  V30 8610 C 845.98 -2.72229 -1.27718 0
M  V30 8611 C 847.528 -2.8051 -1.38863 0
M  V30 8612 C 848.003 -4.20466 -1.81583 0
M  V30 8613 N 849.494 -4.23005 -1.88735 0
M  V30 8614 C 850.229 -5.2821 -2.23118 0
M  V30 8615 N 849.725 -6.4372 -2.56117 0
M  V30 8616 N 851.518 -5.15588 -2.23888 0
M  V30 8617 H 843.669 -2.11698 0.172557 0
M  V30 8618 H 845.932 -0.947889 0.0145334 0
M  V30 8619 H 845.638 -3.47556 -0.538329 0
M  V30 8620 H 845.512 -3.03971 -2.23342 0
M  V30 8621 H 847.899 -2.05457 -2.11829 0
M  V30 8622 H 847.98 -2.52423 -0.414274 0
M  V30 8623 H 847.624 -4.96025 -1.09187 0
M  V30 8624 H 847.554 -4.45977 -2.80021 0
M  V30 8625 H 850.045 -3.39674 -1.65621 0
M  V30 8626 H 850.358 -7.19754 -2.81378 0
M  V30 8627 H 848.703 -6.47041 -2.53698 0
M  V30 8628 H 851.894 -4.24374 -1.97546 0
M  V30 8629 H 852.067 -5.97685 -2.50353 0
M  V30 8630 N 845.473 0.80434 -1.35529 0
M  V30 8631 C 846.436 1.89788 -1.28503 0
M  V30 8632 C 847.436 1.59601 -0.195983 0
M  V30 8633 O 848.626 1.68292 -0.449827 0
M  V30 8634 C 845.758 3.26255 -0.98847 0
M  V30 8635 H 846.951 1.97436 -2.25741 0
M  V30 8636 H 844.504 1.00046 -1.20086 0
M  V30 8637 H 845.239 3.24294 -0.0200541 0
M  V30 8638 H 845.024 3.49551 -1.77641 0
M  V30 8639 H 846.514 4.06298 -0.964975 0
M  V30 8640 N 846.951 1.19563 1.02676 0
M  V30 8641 C 848.179 1.02488 1.79732 0
M  V30 8642 C 848.594 -0.426302 1.83924 0
M  V30 8643 O 847.951 -1.29609 1.28483 0
M  V30 8644 C 848.002 1.58944 3.24683 0
M  V30 8645 O 847.723 2.98382 3.2078 0
M  V30 8646 C 849.224 1.46681 4.1833 0
M  V30 8647 H 846.444 0.361098 0.565552 0
M  V30 8648 H 848.988 1.58426 1.29311 0
M  V30 8649 H 847.143 1.0715 3.72287 0
M  V30 8650 H 847.557 3.24983 4.11687 0
M  V30 8651 H 849.031 1.90959 5.17918 0
M  V30 8652 H 849.508 0.417663 4.3721 0
M  V30 8653 H 850.114 1.97616 3.76601 0
M  V30 8654 N 848.429 -1.21819 0.999893 0
M  V30 8655 C 849.678 -1.90066 0.675108 0
M  V30 8656 C 849.991 -1.78624 -0.79705 0
M  V30 8657 O 851.197 -2.41851 -1.23371 0
M  V30 8658 C 849.653 -3.40795 1.15702 0
M  V30 8659 C 849.261 -3.60859 2.6549 0
M  V30 8660 C 851.005 -4.147 0.906889 0
M  V30 8661 C 848.912 -5.05324 3.07248 0
M  V30 8662 H 847.842 -0.711763 0.248815 0
M  V30 8663 H 850.493 -1.3792 1.21038 0
M  V30 8664 H 848.875 -3.92164 0.549832 0
M  V30 8665 H 850.049 -3.19951 3.31614 0
M  V30 8666 H 848.364 -3.00298 2.88461 0
M  V30 8667 H 850.961 -5.21187 1.1945 0
M  V30 8668 H 851.304 -4.16004 -0.156923 0
M  V30 8669 H 851.837 -3.69379 1.47662 0
M  V30 8670 H 848.576 -5.09164 4.12834 0
M  V30 8671 H 848.096 -5.47108 2.45832 0
M  V30 8672 H 849.775 -5.73797 2.98941 0
M  V30 8673 N 849.908 -0.773975 -1.37286 0
M  V30 8674 C 850.818 -0.162571 -2.34036 0
M  V30 8675 C 851.834 0.677022 -1.60289 0
M  V30 8676 O 853.01 0.596423 -1.92366 0
M  V30 8677 C 850.075 0.70457 -3.39465 0
M  V30 8678 C 849.136 -0.151738 -4.29032 0
M  V30 8679 C 848.369 0.674111 -5.29426 0
M  V30 8680 O 848.592 1.91107 -5.37433 0
M  V30 8681 O 847.526 0.0821398 -6.01844 0
M  V30 8682 H 851.352 -0.962119 -2.88057 0
M  V30 8683 H 848.937 -0.53517 -1.39486 0
M  V30 8684 H 850.819 1.19954 -4.03967 0
M  V30 8685 H 849.494 1.48227 -2.87768 0
M  V30 8686 H 848.401 -0.693118 -3.67623 0
M  V30 8687 H 849.734 -0.892575 -4.84039 0
M  V30 8688 N 851.386 1.48609 -0.524698 0
M  V30 8689 C 852.318 2.27508 0.278 0
M  V30 8690 C 853.331 1.35042 0.909258 0
M  V30 8691 O 854.52 1.60136 0.788592 0
M  V30 8692 C 851.62 3.08247 1.40843 0
M  V30 8693 C 850.793 4.28455 0.880083 0
M  V30 8694 C 849.852 4.91048 1.891 0
M  V30 8695 O 848.878 5.5042 1.45005 0
M  V30 8696 N 850.08 4.82816 3.22288 0
M  V30 8697 H 852.845 2.97037 -0.398642 0
M  V30 8698 H 850.406 1.57876 -0.358698 0
M  V30 8699 H 852.398 3.46992 2.08276 0
M  V30 8700 H 850.968 2.41173 1.98883 0
M  V30 8701 H 850.188 3.94189 0.0299228 0
M  V30 8702 H 851.476 5.06279 0.505881 0
M  V30 8703 H 850.874 4.3572 3.60783 0
M  V30 8704 H 849.431 5.25676 3.85368 0
M  V30 8705 N 852.864 0.259585 1.55447 0
M  V30 8706 C 853.794 -0.62852 2.24882 0
M  V30 8707 C 854.775 -1.17128 1.23349 0
M  V30 8708 O 855.96 -1.20829 1.52033 0
M  V30 8709 C 853.09 -1.81983 2.95803 0
M  V30 8710 C 852.044 -1.40929 4.04132 0
M  V30 8711 C 851.37 -2.68246 4.62545 0
M  V30 8712 C 852.67 -0.570956 5.1917 0
M  V30 8713 H 854.364 -0.0495021 2.99359 0
M  V30 8714 H 851.91 -0.0223688 1.43983 0
M  V30 8715 H 853.863 -2.44689 3.43082 0
M  V30 8716 H 852.587 -2.42444 2.18835 0
M  V30 8717 H 851.246 -0.805519 3.57641 0
M  V30 8718 H 850.894 -3.26931 3.82263 0
M  V30 8719 H 850.594 -2.41495 5.35681 0
M  V30 8720 H 852.118 -3.31827 5.12565 0
M  V30 8721 H 853.532 -1.10262 5.62597 0
M  V30 8722 H 851.929 -0.398979 5.98772 0
M  V30 8723 H 852.999 0.413918 4.8313 0
M  V30 8724 N 854.342 -1.57594 -0.0133615 0
M  V30 8725 C 855.272 -2.10611 -1.00823 0
M  V30 8726 C 856.253 -1.01217 -1.36708 0
M  V30 8727 O 857.438 -1.28827 -1.45318 0
M  V30 8728 C 854.568 -2.59844 -2.30431 0
M  V30 8729 C 853.522 -3.73644 -2.08745 0
M  V30 8730 C 852.848 -4.09141 -3.4425 0
M  V30 8731 C 854.148 -5.01454 -1.46086 0
M  V30 8732 H 855.842 -2.93985 -0.566849 0
M  V30 8733 H 853.388 -1.41423 -0.271219 0
M  V30 8734 H 855.341 -2.95557 -3.00373 0
M  V30 8735 H 854.065 -1.73573 -2.76658 0
M  V30 8736 H 852.724 -3.38303 -1.41232 0
M  V30 8737 H 852.372 -3.19914 -3.88155 0
M  V30 8738 H 852.072 -4.85802 -3.3056 0
M  V30 8739 H 853.596 -4.47402 -4.15528 0
M  V30 8740 H 855.01 -5.35024 -2.05966 0
M  V30 8741 H 853.407 -5.82832 -1.42924 0
M  V30 8742 H 854.477 -4.83003 -0.428471 0
M  V30 8743 N 855.82 0.285905 -1.54985 0
M  V30 8744 C 857.048 1.03776 -1.78992 0
M  V30 8745 C 857.463 1.80402 -0.556814 0
M  V30 8746 O 856.82 1.76242 0.473801 0
M  V30 8747 C 856.871 2.0065 -3.00702 0
M  V30 8748 O 856.592 1.27131 -4.19249 0
M  V30 8749 C 858.093 2.87753 -3.37214 0
M  V30 8750 H 855.313 0.307126 -0.596586 0
M  V30 8751 H 857.857 0.3206 -2.01971 0
M  V30 8752 H 856.012 2.67847 -2.79887 0
M  V30 8753 H 856.426 1.92316 -4.8797 0
M  V30 8754 H 857.9 3.51548 -4.2558 0
M  V30 8755 H 858.377 3.56848 -2.56039 0
M  V30 8756 H 858.983 2.26065 -3.60242 0
M  V30 8757 N 857.298 1.47698 0.54982 0
M  V30 8758 C 858.547 1.53961 1.30303 0
M  V30 8759 C 858.86 0.209731 1.94472 0
M  V30 8760 O 860.066 0.150418 2.71083 0
M  V30 8761 C 858.522 2.71436 2.36328 0
M  V30 8762 C 858.13 4.10983 1.78316 0
M  V30 8763 C 859.874 2.86996 3.12783 0
M  V30 8764 C 857.781 5.19747 2.82164 0
M  V30 8765 H 856.711 0.573098 0.489975 0
M  V30 8766 H 859.362 1.73989 0.583089 0
M  V30 8767 H 857.744 2.44801 3.11269 0
M  V30 8768 H 858.918 4.47552 1.09697 0
M  V30 8769 H 857.233 4.00371 1.1442 0
M  V30 8770 H 859.83 3.65422 3.90347 0
M  V30 8771 H 860.173 1.95712 3.67427 0
M  V30 8772 H 860.706 3.13436 2.44954 0
M  V30 8773 H 857.445 6.12932 2.32366 0
M  V30 8774 H 856.965 4.87688 3.49171 0
M  V30 8775 H 858.644 5.47014 3.4552 0
M  V30 8776 N 858.776 -0.797141 1.35954 0
M  V30 8777 C 860.187 -1.37179 1.26644 0
M  V30 8778 C 860.538 -1.9596 -0.0971046 0
M  V30 8779 O 859.663 -1.91994 -0.998355 0
M  V30 8780 C 860.258 -2.49395 2.2932 0
M  V30 8781 C 858.817 -3.02697 2.23722 0
M  V30 8782 C 857.964 -1.75721 2.14517 0
M  V30 8783 H 860.915 -0.599407 1.46945 0
M  V30 8784 H 860.936 -3.28204 1.92515 0
M  V30 8785 H 860.448 -2.06584 3.2855 0
M  V30 8786 H 858.549 -3.49948 1.27934 0
M  V30 8787 H 858.662 -3.60036 3.16087 0
M  V30 8788 H 857.026 -1.97649 1.60646 0
M  V30 8789 H 857.809 -1.35049 3.15621 0
M  V30 8790 N 860.254 -1.20106 -1.0204 0
M  V30 8791 C 861.184 -0.970301 -2.12385 0
M  V30 8792 C 862.165 0.099378 -1.69809 0
M  V30 8793 O 863.35 -0.057365 -1.94115 0
M  V30 8794 C 860.48 -0.517431 -3.43424 0
M  V30 8795 C 859.434 -1.52992 -3.99722 0
M  V30 8796 C 858.76 -0.933817 -5.26483 0
M  V30 8797 C 860.06 -2.91257 -4.33551 0
M  V30 8798 H 861.754 -1.89316 -2.31948 0
M  V30 8799 H 859.3 -0.911655 -1.11467 0
M  V30 8800 H 861.253 -0.343243 -4.2 0
M  V30 8801 H 859.977 0.441049 -3.23608 0
M  V30 8802 H 858.636 -1.6914 -3.2525 0
M  V30 8803 H 858.284 0.0324763 -5.0299 0
M  V30 8804 H 857.984 -1.60999 -5.65113 0
M  V30 8805 H 859.508 -0.770614 -6.05718 0
M  V30 8806 H 860.922 -2.78642 -5.0103 0
M  V30 8807 H 859.319 -3.55745 -4.83286 0
M  V30 8808 H 860.389 -3.43269 -3.42483 0
M  V30 8809 N 861.732 1.21287 -1.00634 0
M  V30 8810 C 862.695 2.21927 -0.572821 0
M  V30 8811 C 863.695 1.5691 0.351541 0
M  V30 8812 O 864.885 1.73623 0.141643 0
M  V30 8813 C 862.017 3.40501 0.164932 0
M  V30 8814 H 863.21 2.61795 -1.463 0
M  V30 8815 H 860.763 1.34571 -0.794998 0
M  V30 8816 H 861.498 3.06123 1.07049 0
M  V30 8817 H 861.283 3.88912 -0.498962 0
M  V30 8818 H 862.773 4.15103 0.455945 0
M  V30 8819 N 863.21 0.781244 1.36873 0
M  V30 8820 C 864.157 0.172146 2.30157 0
M  V30 8821 C 865.127 -0.679328 1.51573 0
M  V30 8822 O 866.312 -0.629713 1.80109 0
M  V30 8823 C 863.452 -0.693534 3.38059 0
M  V30 8824 C 862.565 0.175586 4.31643 0
M  V30 8825 C 861.7 -0.695695 5.26625 0
M  V30 8826 C 860.739 0.17538 6.11849 0
M  V30 8827 N 859.876 -0.654416 6.99043 0
M  V30 8828 H 864.716 0.973133 2.81663 0
M  V30 8829 H 862.253 0.491469 1.38647 0
M  V30 8830 H 864.211 -1.21035 3.99257 0
M  V30 8831 H 862.841 -1.46003 2.87894 0
M  V30 8832 H 861.893 0.810295 3.7167 0
M  V30 8833 H 863.205 0.847107 4.91554 0
M  V30 8834 H 862.359 -1.27863 5.93073 0
M  V30 8835 H 861.098 -1.40087 4.67148 0
M  V30 8836 H 860.103 0.77078 5.4437 0
M  V30 8837 H 861.328 0.87803 6.734 0
M  V30 8838 H 859.274 -1.34403 6.42084 0
M  V30 8839 H 859.191 -0.0403998 7.55989 0
M  V30 8840 H 860.459 -1.22144 7.69871 0
M  V30 8841 N 864.689 -1.48329 0.532571 0
M  V30 8842 C 865.599 -2.33445 -0.232546 0
M  V30 8843 C 866.615 -1.46651 -0.93645 0
M  V30 8844 O 867.791 -1.79627 -0.910834 0
M  V30 8845 C 864.856 -3.22824 -1.26434 0
M  V30 8846 C 863.917 -4.25492 -0.570511 0
M  V30 8847 C 863.15 -5.10601 -1.55315 0
M  V30 8848 O 863.373 -4.97733 -2.78599 0
M  V30 8849 O 862.307 -5.91927 -1.09112 0
M  V30 8850 H 866.133 -3.00119 0.464988 0
M  V30 8851 H 863.718 -1.46489 0.293462 0
M  V30 8852 H 865.6 -3.78103 -1.86055 0
M  V30 8853 H 864.275 -2.58807 -1.94424 0
M  V30 8854 H 863.182 -3.74041 0.0662587 0
M  V30 8855 H 864.515 -4.92154 0.0674904 0
M  V30 8856 N 866.167 -0.267825 -1.55308 0
M  V30 8857 C 867.097 0.616585 -2.25212 0
M  V30 8858 C 868.078 1.16472 -1.23969 0
M  V30 8859 O 869.263 1.20021 -1.52672 0
M  V30 8860 C 866.393 1.80412 -2.96764 0
M  V30 8861 C 865.347 1.38784 -4.04874 0
M  V30 8862 C 864.673 2.65789 -4.63961 0
M  V30 8863 C 865.973 0.543415 -5.19465 0
M  V30 8864 H 867.667 0.0336257 -2.99381 0
M  V30 8865 H 865.213 0.0147328 -1.43992 0
M  V30 8866 H 867.166 2.42866 -3.44375 0
M  V30 8867 H 865.89 2.4128 -2.20118 0
M  V30 8868 H 864.549 0.786541 -3.58063 0
M  V30 8869 H 864.197 3.24899 -3.83992 0
M  V30 8870 H 863.897 2.38651 -5.36954 0
M  V30 8871 H 865.421 3.29104 -5.14318 0
M  V30 8872 H 866.835 1.07277 -5.63174 0
M  V30 8873 H 865.232 0.367219 -5.98975 0
M  V30 8874 H 866.302 -0.439534 -4.82904 0
M  V30 8875 N 867.645 1.57599 0.00500368 0
M  V30 8876 C 868.608 2.07058 0.982832 0
M  V30 8877 C 869.608 0.979045 1.27559 0
M  V30 8878 O 870.798 1.24187 1.22161 0
M  V30 8879 C 867.93 2.50782 2.30914 0
M  V30 8880 H 869.123 2.94718 0.555119 0
M  V30 8881 H 866.676 1.54249 0.25237 0
M  V30 8882 H 867.411 1.66351 2.78385 0
M  V30 8883 H 867.196 3.30495 2.10987 0
M  V30 8884 H 868.686 2.89391 3.0107 0
M  V30 8885 N 869.123 -0.277682 1.55134 0
M  V30 8886 C 870.369 -1.00733 1.76704 0
M  V30 8887 C 870.724 -1.84107 0.55879 0
M  V30 8888 O 870.017 -1.86275 -0.448591 0
M  V30 8889 C 870.211 -1.92599 3.01065 0
M  V30 8890 C 870.04 -1.18266 4.3387 0
M  V30 8891 C 868.81 -0.900254 4.97216 0
M  V30 8892 C 871.008 -0.575419 5.11071 0
M  V30 8893 N 868.99 -0.129637 6.13763 0
M  V30 8894 C 870.361 0.0612637 6.1997 0
M  V30 8895 C 872.416 -0.482794 4.95554 0
M  V30 8896 C 871.119 0.781637 7.15041 0
M  V30 8897 C 873.145 0.223977 5.90976 0
M  V30 8898 C 872.507 0.849416 6.9926 0
M  V30 8899 H 868.606 -0.35075 0.698927 0
M  V30 8900 H 871.19 -0.283482 1.92625 0
M  V30 8901 H 869.361 -2.62214 2.86528 0
M  V30 8902 H 871.093 -2.5889 3.1106 0
M  V30 8903 H 867.848 -1.20434 4.58031 0
M  V30 8904 H 868.272 0.242865 6.76564 0
M  V30 8905 H 872.914 -0.952023 4.11942 0
M  V30 8906 H 870.632 1.26256 7.98176 0
M  V30 8907 H 874.218 0.2959 5.81047 0
M  V30 8908 H 873.098 1.3876 7.71826 0
M  V30 8909 N 870.601 -1.47988 -0.541979 0
M  V30 8910 C 871.564 -1.61148 -1.62984 0
M  V30 8911 C 872.564 -0.48553 -1.53295 0
M  V30 8912 O 873.754 -0.751012 -1.5718 0
M  V30 8913 C 870.886 -1.57038 -3.02576 0
M  V30 8914 H 872.079 -2.58138 -1.52659 0
M  V30 8915 H 869.632 -1.36405 -0.763106 0
M  V30 8916 H 870.367 -0.614807 -3.18419 0
M  V30 8917 H 870.152 -2.38769 -3.11018 0
M  V30 8918 H 871.642 -1.69416 -3.81691 0
M  V30 8919 N 872.079 0.78992 -1.36375 0
M  V30 8920 C 873.49 1.36506 -1.2737 0
M  V30 8921 C 873.841 1.96008 0.086711 0
M  V30 8922 O 872.966 1.92521 0.988159 0
M  V30 8923 C 873.561 2.48175 -2.30639 0
M  V30 8924 C 872.12 3.01506 -2.25325 0
M  V30 8925 C 871.267 1.74581 -2.15445 0
M  V30 8926 H 874.218 0.591606 -1.47261 0
M  V30 8927 H 874.239 3.27179 -1.94253 0
M  V30 8928 H 873.751 2.04838 -3.2964 0
M  V30 8929 H 871.852 3.49265 -1.29788 0
M  V30 8930 H 871.965 3.58355 -3.17992 0
M  V30 8931 H 870.329 1.96794 -1.61692 0
M  V30 8932 H 871.112 1.33373 -3.16333 0
M  V30 8933 N 873.557 1.20646 1.01402 0
M  V30 8934 C 874.834 0.927176 1.72229 0
M  V30 8935 C 875.214 -0.563382 2.03443 0
M  V30 8936 O 874.562 -1.52576 1.70096 0
M  V30 8937 C 874.772 1.80285 2.98828 0
M  V30 8938 C 876.12 2.04624 3.72041 0
M  V30 8939 O 877.144 1.77559 3.0879 0
M  V30 8940 O 876.003 2.50347 4.85787 0
M  V30 8941 H 873.097 0.346891 0.75073 0
M  V30 8942 H 875.643 1.31532 1.07227 0
M  V30 8943 H 874.415 2.81204 2.72102 0
M  V30 8944 H 874.038 1.41495 3.71571 0
M  V30 8945 N 875.035 -1.20752 1.01276 0
M  V30 8946 C 875.945 -2.27079 0.589277 0
M  V30 8947 C 876.961 -1.6999 -0.371389 0
M  V30 8948 O 878.137 -2.00044 -0.233294 0
M  V30 8949 C 875.202 -3.4663 -0.0696715 0
M  V30 8950 C 874.263 -4.18962 0.936454 0
M  V30 8951 C 873.496 -5.32806 0.308856 0
M  V30 8952 O 873.719 -5.63376 -0.8924 0
M  V30 8953 O 872.653 -5.93131 1.02367 0
M  V30 8954 H 876.479 -2.6551 1.47438 0
M  V30 8955 H 874.064 -1.27297 0.782045 0
M  V30 8956 H 875.946 -4.19119 -0.437873 0
M  V30 8957 H 874.621 -3.10082 -0.929029 0
M  V30 8958 H 873.528 -3.48661 1.35595 0
M  V30 8959 H 874.861 -4.59441 1.76565 0
M  V30 8960 N 876.513 -0.788492 -1.36457 0
M  V30 8961 C 877.762 -0.357052 -1.98515 0
M  V30 8962 C 878.075 1.0769 -1.63285 0
M  V30 8963 O 879.281 1.61057 -2.1857 0
M  V30 8964 C 877.737 -0.587449 -3.55073 0
M  V30 8965 C 877.345 -2.03276 -3.99228 0
M  V30 8966 C 879.089 -0.220468 -4.23927 0
M  V30 8967 C 876.996 -2.20987 -5.48561 0
M  V30 8968 H 875.926 -0.129762 -0.74275 0
M  V30 8969 H 878.577 -0.969995 -1.55767 0
M  V30 8970 H 876.959 0.0951918 -3.95886 0
M  V30 8971 H 878.133 -2.75173 -3.69617 0
M  V30 8972 H 876.448 -2.3579 -3.43208 0
M  V30 8973 H 879.045 -0.331085 -5.33674 0
M  V30 8974 H 879.388 0.831306 -4.07915 0
M  V30 8975 H 879.921 -0.856309 -3.88474 0
M  V30 8976 H 876.66 -3.24543 -5.69519 0
M  V30 8977 H 876.18 -1.53594 -5.79801 0
M  V30 8978 H 877.859 -2.01656 -6.14771 0
M  V30 8979 N 877.991 1.48044 -0.54043 0
M  V30 8980 C 879.407 1.58354 -0.199006 0
M  V30 8981 C 879.607 1.54118 1.29807 0
M  V30 8982 O 878.663 1.43573 2.07709 0
M  V30 8983 C 879.976 2.89563 -0.810797 0
M  V30 8984 C 881.524 3.03113 -0.780486 0
M  V30 8985 C 881.999 4.36997 -1.37104 0
M  V30 8986 N 883.49 4.43591 -1.33347 0
M  V30 8987 C 884.225 5.45714 -1.76021 0
M  V30 8988 N 883.721 6.54738 -2.26473 0
M  V30 8989 N 885.514 5.36659 -1.67194 0
M  V30 8990 H 877.665 1.49041 -1.51329 0
M  V30 8991 H 879.928 0.708309 -0.630081 0
M  V30 8992 H 879.634 2.9835 -1.86227 0
M  V30 8993 H 879.508 3.76053 -0.293977 0
M  V30 8994 H 881.895 2.93932 0.262246 0
M  V30 8995 H 881.976 2.18207 -1.33489 0
M  V30 8996 H 881.62 4.46932 -2.41276 0
M  V30 8997 H 881.55 5.20607 -0.792229 0
M  V30 8998 H 884.041 3.65391 -0.964259 0
M  V30 8999 H 884.354 7.28814 -2.57002 0
M  V30 9000 H 882.699 6.55673 -2.30473 0
M  V30 9001 H 885.89 4.50382 -1.27569 0
M  V30 9002 H 886.063 6.16113 -2.00771 0
M  V30 9003 N 879.47 0.276058 1.55163 0
M  V30 9004 C 880.38 -0.621066 2.2623 0
M  V30 9005 C 881.396 -1.16931 1.28853 0
M  V30 9006 O 882.572 -1.1994 1.61791 0
M  V30 9007 C 879.637 -1.78824 2.97023 0
M  V30 9008 C 878.698 -1.27657 4.09881 0
M  V30 9009 C 877.931 -2.38812 4.77289 0
M  V30 9010 O 878.154 -3.58188 4.43912 0
M  V30 9011 O 877.088 -2.06915 5.65217 0
M  V30 9012 H 880.914 -0.0453346 3.03666 0
M  V30 9013 H 878.499 0.0434275 1.49337 0
M  V30 9014 H 880.381 -2.46877 3.41511 0
M  V30 9015 H 879.056 -2.35104 2.22503 0
M  V30 9016 H 877.963 -0.56248 3.69847 0
M  V30 9017 H 879.296 -0.759509 4.86305 0
M  V30 9018 N 880.948 -1.576 0.00335426 0
M  V30 9019 C 881.858 -2.12067 -1.00322 0
M  V30 9020 C 882.874 -1.06672 -1.37467 0
M  V30 9021 O 884.05 -1.38592 -1.46131 0
M  V30 9022 C 881.115 -2.61593 -2.27531 0
M  V30 9023 C 880.176 -3.81602 -1.96668 0
M  V30 9024 C 879.409 -4.28756 -3.17811 0
M  V30 9025 O 879.632 -3.75222 -4.2961 0
M  V30 9026 O 878.566 -5.20877 -3.01613 0
M  V30 9027 H 882.392 -2.98299 -0.570199 0
M  V30 9028 H 879.977 -1.47835 -0.215682 0
M  V30 9029 H 881.859 -2.93631 -3.02256 0
M  V30 9030 H 880.534 -1.78457 -2.70065 0
M  V30 9031 H 879.441 -3.54531 -1.19408 0
M  V30 9032 H 880.774 -4.65822 -1.58968 0
M  V30 9033 N 882.426 0.269451 -1.5528 0
M  V30 9034 C 883.672 1.00206 -1.76314 0
M  V30 9035 C 884.005 1.85812 -0.564581 0
M  V30 9036 O 883.28 1.89509 0.437769 0
M  V30 9037 C 883.563 1.88163 -3.07029 0
M  V30 9038 C 883.416 1.05527 -4.37246 0
M  V30 9039 C 884.735 2.8681 -3.33808 0
M  V30 9040 H 881.854 0.36288 -0.641473 0
M  V30 9041 H 884.496 0.274188 -1.88011 0
M  V30 9042 H 882.646 2.50224 -2.97187 0
M  V30 9043 H 884.318 0.455094 -4.5905 0
M  V30 9044 H 882.561 0.358842 -4.32313 0
M  V30 9045 H 883.232 1.70397 -5.25042 0
M  V30 9046 H 885.708 2.34884 -3.43466 0
M  V30 9047 H 884.584 3.45492 -4.26528 0
M  V30 9048 H 884.845 3.62118 -2.5362 0
M  V30 9049 N 883.904 1.48273 0.534124 0
M  V30 9050 C 885.181 1.46567 1.29528 0
M  V30 9051 C 885.561 0.17509 2.10373 0
M  V30 9052 O 884.909 -0.843228 2.12372 0
M  V30 9053 C 885.119 2.72519 2.18023 0
M  V30 9054 C 886.467 3.2068 2.78298 0
M  V30 9055 O 887.491 2.73408 2.28313 0
M  V30 9056 O 886.35 4.02924 3.69208 0
M  V30 9057 H 883.444 0.585151 0.584403 0
M  V30 9058 H 885.99 1.60502 0.551119 0
M  V30 9059 H 884.762 3.57965 1.5804 0
M  V30 9060 H 884.385 2.61285 2.99693 0
M  V30 9061 N 885.382 -0.782676 1.36792 0
M  V30 9062 C 886.33 -1.91698 1.31737 0
M  V30 9063 C 887.324 -1.68118 0.207994 0
M  V30 9064 O 888.53 -1.76042 0.375393 0
M  V30 9065 H 884.905 -0.630215 0.410284 0
M  V30 9066 H 886.876 -1.93078 2.27516 0
M  V30 9067 C 885.625 -3.28816 1.13029 0
M  V30 9068 H 884.948 -3.4753 1.97643 0
M  V30 9069 H 886.388 -4.08515 1.13541 0
M  V30 9070 C 884.847 -3.36497 -0.1647 0
M  V30 9071 O 885.377 -3.84822 -1.15216 0
M  V30 9072 N 883.583 -2.89828 -0.211678 0
M  V30 9073 H 883.13 -2.50693 0.59252 0
M  V30 9074 H 883.088 -2.95349 -1.07779 0
M  V30 9075 N 886.86 -1.21182 -1.00761 0
M  V30 9076 C 887.808 -0.965728 -2.11604 0
M  V30 9077 C 888.802 0.0861028 -1.69181 0
M  V30 9078 O 890.008 -0.0650558 -1.79882 0
M  V30 9079 H 886.383 -0.295023 -0.691712 0
M  V30 9080 H 888.354 -1.90667 -2.2954 0
M  V30 9081 C 887.103 -0.544164 -3.43415 0
M  V30 9082 H 886.426 -1.34515 -3.76491 0
M  V30 9083 H 887.866 -0.411268 -4.22001 0
M  V30 9084 C 886.325 0.744583 -3.28569 0
M  V30 9085 O 886.855 1.80078 -3.59075 0
M  V30 9086 N 885.061 0.710083 -2.81791 0
M  V30 9087 H 884.608 -0.14971 -2.57165 0
M  V30 9088 H 884.566 1.57268 -2.72239 0
M  V30 9089 N 888.338 1.20213 -1.01915 0
M  V30 9090 C 889.578 1.91354 -0.71853 0
M  V30 9091 C 889.942 1.77231 0.738466 0
M  V30 9092 O 891.143 2.42876 1.15172 0
M  V30 9093 C 889.414 3.38552 -1.14529 0
M  V30 9094 S 890.973 4.28011 -0.967037 0
M  V30 9095 H 887.791 0.661015 -0.261879 0
M  V30 9096 H 890.393 1.45394 -1.30694 0
M  V30 9097 H 889.097 3.46354 -2.20153 0
M  V30 9098 H 888.628 3.8954 -0.549766 0
M  V30 9099 H 890.643 4.96035 0.127974 0
M  V30 9100 N 889.816 0.795718 1.36037 0
M  V30 9101 C 890.748 0.156336 2.28666 0
M  V30 9102 C 891.761 -0.638075 1.49775 0
M  V30 9103 O 892.95 -0.472222 1.7214 0
M  V30 9104 C 890.05 -0.801417 3.29288 0
M  V30 9105 C 889.223 -0.0557118 4.37365 0
M  V30 9106 C 888.282 -0.930338 5.1791 0
M  V30 9107 O 887.308 -0.385266 5.67895 0
M  V30 9108 N 888.51 -2.25382 5.34961 0
M  V30 9109 H 891.275 0.952033 2.84177 0
M  V30 9110 H 888.836 0.650189 1.48271 0
M  V30 9111 H 890.828 -1.39051 3.80062 0
M  V30 9112 H 889.398 -1.49796 2.74372 0
M  V30 9113 H 888.618 0.714508 3.87671 0
M  V30 9114 H 889.906 0.458633 5.06729 0
M  V30 9115 H 889.304 -2.72073 4.95977 0
M  V30 9116 H 887.861 -2.79241 5.88955 0
M  V30 9117 N 891.294 -1.47756 0.548274 0
M  V30 9118 C 892.519 -2.07387 0.023475 0
M  V30 9119 C 892.944 -1.39956 -1.25674 0
M  V30 9120 O 892.302 -0.471543 -1.7506 0
M  V30 9121 C 892.35 -3.60224 -0.164669 0
M  V30 9122 O 891.454 -3.93653 -1.22928 0
M  V30 9123 H 890.795 -0.662312 0.0473156 0
M  V30 9124 H 893.325 -1.89905 0.761409 0
M  V30 9125 H 893.335 -4.06211 -0.38166 0
M  V30 9126 H 892.01 -4.08702 0.770425 0
M  V30 9127 H 890.587 -3.59422 -0.993495 0
M  V30 9128 N 892.772 -0.284283 -1.55015 0
M  V30 9129 C 894.021 0.33055 -1.98973 0
M  V30 9130 C 894.334 1.56284 -1.17621 0
M  V30 9131 O 895.54 2.2512 -1.51767 0
M  V30 9132 C 893.996 0.639457 -3.54174 0
M  V30 9133 C 893.604 -0.573543 -4.44313 0
M  V30 9134 C 895.348 1.21641 -4.06699 0
M  V30 9135 C 893.255 -0.238715 -5.90918 0
M  V30 9136 H 892.185 0.127285 -0.743179 0
M  V30 9137 H 894.836 -0.390372 -1.793 0
M  V30 9138 H 893.218 1.41953 -3.69683 0
M  V30 9139 H 894.392 -1.3502 -4.40575 0
M  V30 9140 H 892.707 -1.06797 -4.02472 0
M  V30 9141 H 895.304 1.48088 -5.13784 0
M  V30 9142 H 895.647 2.15328 -3.56286 0
M  V30 9143 H 896.18 0.498422 -3.94665 0
M  V30 9144 H 892.919 -1.1437 -6.45445 0
M  V30 9145 H 892.439 0.500997 -5.97704 0
M  V30 9146 H 894.118 0.165774 -6.46788 0
M  V30 9147 N 894.251 1.57596 -0.0117121 0
M  V30 9148 C 895.181 2.12188 0.9746 0
M  V30 9149 C 896.162 1.03379 1.35081 0
M  V30 9150 O 897.347 1.31123 1.4325 0
M  V30 9151 C 894.477 2.63477 2.26268 0
M  V30 9152 C 893.431 3.76917 2.02774 0
M  V30 9153 C 892.757 4.14566 3.37697 0
M  V30 9154 C 894.057 5.03715 1.38089 0
M  V30 9155 H 895.751 2.9485 0.520007 0
M  V30 9156 H 893.297 1.41836 0.248685 0
M  V30 9157 H 895.25 3.00299 2.95633 0
M  V30 9158 H 893.974 1.77953 2.73862 0
M  V30 9159 H 892.633 3.40507 1.35832 0
M  V30 9160 H 892.281 3.26048 3.83016 0
M  V30 9161 H 891.981 4.91 3.22789 0
M  V30 9162 H 893.505 4.53956 4.08358 0
M  V30 9163 H 894.919 5.38233 1.97428 0
M  V30 9164 H 893.316 5.85032 1.33634 0
M  V30 9165 H 894.386 4.83624 0.351575 0
M  V30 9166 N 895.729 -0.261212 1.5542 0
M  V30 9167 C 896.977 -0.989272 1.76232 0
M  V30 9168 C 897.298 -1.86389 0.573067 0
M  V30 9169 O 896.568 -1.91526 -0.41166 0
M  V30 9170 H 895.148 -0.368256 0.64992 0
M  V30 9171 H 897.81 -0.282603 1.9284 0
M  V30 9172 H 896.906 -1.61935 2.66802 0
M  V30 9173 N 897.207 -1.48554 -0.526253 0
M  V30 9174 C 898.437 -1.60197 -1.30463 0
M  V30 9175 C 898.845 -0.26278 -1.87366 0
M  V30 9176 O 898.188 0.758537 -1.67308 0
M  V30 9177 C 898.25 -2.59223 -2.49085 0
M  V30 9178 C 897.914 -4.04199 -2.13241 0
M  V30 9179 C 898.911 -4.91771 -1.68694 0
M  V30 9180 C 896.596 -4.49762 -2.2365 0
M  V30 9181 C 898.59 -6.22934 -1.35026 0
M  V30 9182 C 896.277 -5.80945 -1.89594 0
M  V30 9183 C 897.275 -6.67354 -1.45353 0
M  V30 9184 O 896.963 -7.96096 -1.11745 0
M  V30 9185 H 896.695 -0.54284 -0.402866 0
M  V30 9186 H 899.249 -1.95137 -0.641157 0
M  V30 9187 H 897.479 -2.19412 -3.18426 0
M  V30 9188 H 899.168 -2.60661 -3.11144 0
M  V30 9189 H 899.934 -4.57806 -1.6012 0
M  V30 9190 H 895.813 -3.8269 -2.5704 0
M  V30 9191 H 899.357 -6.90334 -1.00422 0
M  V30 9192 H 895.254 -6.14444 -1.9781 0
M  V30 9193 H 896.022 -8.08882 -1.25111 0
M  V30 9194 N 898.685 0.775411 -1.37205 0
M  V30 9195 C 899.931 1.53611 -1.32407 0
M  V30 9196 C 900.264 1.9398 0.0924103 0
M  V30 9197 O 899.539 1.63791 1.04893 0
M  V30 9198 C 899.822 2.80367 -2.25979 0
M  V30 9199 C 899.675 2.46275 -3.76389 0
M  V30 9200 C 900.994 3.82277 -2.18064 0
M  V30 9201 H 898.113 0.557278 -0.482297 0
M  V30 9202 H 900.755 0.889826 -1.67875 0
M  V30 9203 H 898.905 3.35515 -1.95862 0
M  V30 9204 H 900.577 1.9707 -4.17087 0
M  V30 9205 H 898.82 1.79023 -3.95137 0
M  V30 9206 H 899.491 3.36868 -4.37291 0
M  V30 9207 H 901.967 3.36613 -2.44604 0
M  V30 9208 H 900.843 4.68696 -2.85684 0
M  V30 9209 H 901.104 4.26272 -1.17239 0
M  V30 9210 N 900.163 1.21714 1.00117 0
M  V30 9211 C 901.409 1.03823 1.74208 0
M  V30 9212 C 901.742 -0.426733 1.89454 0
M  V30 9213 O 901.017 -1.31658 1.43166 0
M  V30 9214 C 901.3 1.74047 3.15246 0
M  V30 9215 C 901.153 3.28087 3.077 0
M  V30 9216 C 902.472 1.48614 4.14249 0
M  V30 9217 H 899.591 0.378573 0.632338 0
M  V30 9218 H 902.233 1.49942 1.16694 0
M  V30 9219 H 900.383 1.3484 3.64349 0
M  V30 9220 H 902.055 3.76686 2.6628 0
M  V30 9221 H 900.298 3.58191 2.44707 0
M  V30 9222 H 900.969 3.72392 4.07466 0
M  V30 9223 H 903.445 1.82656 3.73866 0
M  V30 9224 H 902.321 2.00257 5.11066 0
M  V30 9225 H 902.582 0.416957 4.40129 0
M  V30 9226 N 901.641 -1.19671 1.02551 0
M  V30 9227 C 903.057 -1.41305 0.741963 0
M  V30 9228 C 903.257 -1.89865 -0.674807 0
M  V30 9229 O 902.313 -2.07323 -1.44129 0
M  V30 9230 C 903.626 -2.42706 1.77522 0
M  V30 9231 C 905.174 -2.56458 1.79438 0
M  V30 9232 C 905.649 -3.61111 2.81715 0
M  V30 9233 N 907.14 -3.68603 2.8051 0
M  V30 9234 C 907.875 -4.49262 3.56302 0
M  V30 9235 N 907.371 -5.33653 4.41799 0
M  V30 9236 N 909.164 -4.43879 3.44859 0
M  V30 9237 H 901.315 -0.8647 1.94002 0
M  V30 9238 H 903.578 -0.442206 0.838545 0
M  V30 9239 H 903.284 -2.14042 2.79068 0
M  V30 9240 H 903.158 -3.41831 1.59472 0
M  V30 9241 H 905.545 -2.84447 0.78573 0
M  V30 9242 H 905.626 -1.57499 2.01563 0
M  V30 9243 H 905.27 -3.33864 3.82749 0
M  V30 9244 H 905.2 -4.59713 2.56849 0
M  V30 9245 H 907.691 -3.08329 2.18498 0
M  V30 9246 H 908.004 -5.92308 4.96378 0
M  V30 9247 H 906.349 -5.33125 4.45873 0
M  V30 9248 H 909.54 -3.7699 2.77482 0
M  V30 9249 H 909.713 -5.06501 4.04179 0
M  V30 9250 N 903.119 -0.802921 -1.35613 0
M  V30 9251 C 904.365 -0.391259 -1.99601 0
M  V30 9252 C 904.72 1.02922 -1.62557 0
M  V30 9253 O 904.013 1.70357 -0.876878 0
M  V30 9254 C 904.207 -0.507806 -3.53774 0
M  V30 9255 C 904.036 -1.93807 -4.05794 0
M  V30 9256 C 902.806 -2.56564 -4.3532 0
M  V30 9257 C 905.004 -2.90211 -4.24596 0
M  V30 9258 N 902.986 -3.91038 -4.73247 0
M  V30 9259 C 904.357 -4.09548 -4.65479 0
M  V30 9260 C 906.412 -2.87091 -4.06796 0
M  V30 9261 C 905.115 -5.26191 -4.90424 0
M  V30 9262 C 907.141 -4.02933 -4.32896 0
M  V30 9263 C 906.503 -5.21017 -4.74047 0
M  V30 9264 H 902.602 -0.190867 -0.758349 0
M  V30 9265 H 905.186 -1.04338 -1.64382 0
M  V30 9266 H 903.357 0.114306 -3.88232 0
M  V30 9267 H 905.089 -0.0710855 -4.04638 0
M  V30 9268 H 901.844 -2.07945 -4.25507 0
M  V30 9269 H 902.268 -4.60262 -4.96475 0
M  V30 9270 H 906.91 -1.96951 -3.74126 0
M  V30 9271 H 904.628 -6.16906 -5.2197 0
M  V30 9272 H 908.214 -4.01895 -4.2068 0
M  V30 9273 H 907.094 -6.09165 -4.93849 0
M  V30 9274 N 904.597 1.47463 -0.556102 0
M  V30 9275 C 905.843 2.02775 -0.0316806 0
M  V30 9276 C 906.176 1.42967 1.3143 0
M  V30 9277 O 905.451 0.584847 1.85499 0
M  V30 9278 C 905.734 3.60046 0.0625742 0
M  V30 9279 C 905.587 4.30288 -1.31043 0
M  V30 9280 C 906.906 4.33195 0.776553 0
M  V30 9281 H 904.025 0.736886 -0.0129869 0
M  V30 9282 H 906.667 1.75904 -0.718177 0
M  V30 9283 H 904.817 3.83071 0.647231 0
M  V30 9284 H 906.489 4.18607 -1.9382 0
M  V30 9285 H 904.732 3.90685 -1.8854 0
M  V30 9286 H 905.403 5.38861 -1.1972 0
M  V30 9287 H 907.879 4.15156 0.280147 0
M  V30 9288 H 906.755 5.42869 0.81146 0
M  V30 9289 H 907.016 4.02336 1.83244 0
M  V30 9290 N 906.075 0.2925 1.54862 0
M  V30 9291 C 907.352 -0.371946 1.92031 0
M  V30 9292 C 907.732 -1.72363 1.21878 0
M  V30 9293 O 907.08 -2.25779 0.351573 0
M  V30 9294 C 907.29 -0.495027 3.45471 0
M  V30 9295 C 908.638 -0.769855 4.17562 0
M  V30 9296 O 909.662 -0.579168 3.5146 0
M  V30 9297 O 908.521 -1.13561 5.34571 0
M  V30 9298 H 905.615 -0.206463 0.800813 0
M  V30 9299 H 908.161 0.339933 1.6626 0
M  V30 9300 H 906.933 0.455528 3.88639 0
M  V30 9301 H 906.556 -1.2557 3.7725 0
M  V30 9302 N 907.553 -1.57587 0.0200696 0
M  V30 9303 C 908.485 -2.06555 -0.993359 0
M  V30 9304 C 909.498 -0.987227 -1.29451 0
M  V30 9305 O 910.687 -1.26361 -1.26075 0
M  V30 9306 C 907.787 -2.4675 -2.3231 0
M  V30 9307 C 906.96 -3.77554 -2.20843 0
M  V30 9308 C 906.019 -4.04397 -3.36674 0
M  V30 9309 O 905.045 -4.7478 -3.13963 0
M  V30 9310 N 906.247 -3.53861 -4.60176 0
M  V30 9311 H 909.012 -2.9412 -0.575617 0
M  V30 9312 H 906.573 -1.61038 -0.166889 0
M  V30 9313 H 908.565 -2.61806 -3.08609 0
M  V30 9314 H 907.135 -1.64598 -2.65756 0
M  V30 9315 H 906.355 -3.72382 -1.29327 0
M  V30 9316 H 907.643 -4.63271 -2.10375 0
M  V30 9317 H 907.041 -2.96904 -4.81523 0
M  V30 9318 H 905.598 -3.74213 -5.33674 0
M  V30 9319 N 909.032 0.252966 -1.55557 0
M  V30 9320 C 910.28 0.979912 -1.76754 0
M  V30 9321 C 910.601 1.86083 -0.582944 0
M  V30 9322 O 909.871 1.91742 0.401497 0
M  V30 9323 H 908.451 0.364805 -0.651864 0
M  V30 9324 H 911.113 0.272372 -1.92987 0
M  V30 9325 H 910.209 1.60518 -2.67657 0
M  V30 9326 N 910.51 1.48831 0.518367 0
M  V30 9327 C 911.756 1.57672 1.27543 0
M  V30 9328 C 912.089 0.254915 1.9252 0
M  V30 9329 O 911.364 -0.740107 1.79868 0
M  V30 9330 C 911.647 2.72345 2.35585 0
M  V30 9331 C 911.5 4.14267 1.75224 0
M  V30 9332 C 912.819 2.82726 3.37274 0
M  V30 9333 H 909.938 0.573926 0.462361 0
M  V30 9334 H 912.58 1.8105 0.576267 0
M  V30 9335 H 910.73 2.52543 2.95219 0
M  V30 9336 H 912.402 4.45539 1.19551 0
M  V30 9337 H 910.645 4.20724 1.05706 0
M  V30 9338 H 911.316 4.90345 2.53507 0
M  V30 9339 H 913.792 3.00699 2.8761 0
M  V30 9340 H 912.668 3.6467 4.10252 0
M  V30 9341 H 912.929 1.9136 3.9854 0
M  V30 9342 N 911.988 -0.768124 1.37614 0
M  V30 9343 C 913.236 -1.52379 1.3276 0
M  V30 9344 C 913.557 -1.94809 -0.0863564 0
M  V30 9345 O 912.827 -1.66568 -1.03112 0
M  V30 9346 H 911.407 -0.565179 0.488448 0
M  V30 9347 H 914.069 -0.913974 1.72141 0
M  V30 9348 H 913.165 -2.4215 1.96901 0
M  V30 9349 N 913.466 -1.22244 -0.994698 0
M  V30 9350 C 914.706 -1.05747 -1.7492 0
M  V30 9351 C 915.07 0.4007 -1.87772 0
M  V30 9352 O 916.271 0.686469 -2.59887 0
M  V30 9353 C 914.542 -1.7471 -3.11787 0
M  V30 9354 S 916.101 -1.73604 -4.02998 0
M  V30 9355 H 912.919 -0.378731 -0.601734 0
M  V30 9356 H 915.521 -1.55155 -1.18942 0
M  V30 9357 H 914.225 -2.79972 -3.00073 0
M  V30 9358 H 913.756 -1.25525 -3.72836 0
M  V30 9359 H 915.771 -0.784445 -4.8996 0
M  V30 9360 N 914.944 1.19125 -1.03184 0
M  V30 9361 C 916.169 1.93379 -0.749628 0
M  V30 9362 C 916.594 1.75153 0.685785 0
M  V30 9363 O 915.952 1.05579 1.47386 0
M  V30 9364 C 916 3.43101 -1.1097 0
M  V30 9365 O 915.104 4.11758 -0.230053 0
M  V30 9366 H 914.445 0.603605 -0.276689 0
M  V30 9367 H 916.975 1.51116 -1.37931 0
M  V30 9368 H 916.985 3.93778 -1.06785 0
M  V30 9369 H 915.66 3.55688 -2.15544 0
M  V30 9370 H 914.237 3.7143 -0.330748 0
M  V30 9371 N 916.422 0.810101 1.35185 0
M  V30 9372 C 917.369 0.220927 2.2974 0
M  V30 9373 C 918.339 -0.647024 1.5298 0
M  V30 9374 O 919.524 -0.591367 1.81404 0
M  V30 9375 C 916.664 -0.62167 3.39454 0
M  V30 9376 C 915.777 0.267104 4.31173 0
M  V30 9377 C 914.912 -0.583833 5.27982 0
M  V30 9378 C 913.951 0.305123 6.11339 0
M  V30 9379 N 913.088 -0.505992 7.00274 0
M  V30 9380 H 917.928 1.03266 2.79536 0
M  V30 9381 H 915.465 0.520768 1.37573 0
M  V30 9382 H 917.423 -1.12539 4.01735 0
M  V30 9383 H 916.053 -1.39863 2.90926 0
M  V30 9384 H 915.105 0.88895 3.69867 0
M  V30 9385 H 916.417 0.951182 4.89647 0
M  V30 9386 H 915.571 -1.15254 5.95652 0
M  V30 9387 H 914.31 -1.30146 4.70014 0
M  V30 9388 H 913.315 0.886075 5.42613 0
M  V30 9389 H 914.54 1.02067 6.71386 0
M  V30 9390 H 912.486 -1.20753 6.4479 0
M  V30 9391 H 912.403 0.119966 7.55905 0
M  V30 9392 H 913.671 -1.05787 7.72288 0
M  V30 9393 N 917.9 -1.47166 0.563914 0
M  V30 9394 C 919.146 -2.02756 0.0424338 0
M  V30 9395 C 919.479 -1.43662 -1.3067 0
M  V30 9396 O 918.754 -0.594676 -1.85186 0
M  V30 9397 C 919.037 -3.60074 -0.0434793 0
M  V30 9398 C 918.89 -4.29587 1.33323 0
M  V30 9399 C 920.209 -4.336 -0.753568 0
M  V30 9400 H 917.328 -0.736806 0.0168946 0
M  V30 9401 H 919.97 -1.75521 0.727496 0
M  V30 9402 H 918.12 -3.83409 -0.626906 0
M  V30 9403 H 919.792 -4.17573 1.96037 0
M  V30 9404 H 918.035 -3.8968 1.9061 0
M  V30 9405 H 918.706 -5.38218 1.22576 0
M  V30 9406 H 921.182 -4.15299 -0.258126 0
M  V30 9407 H 920.058 -5.43291 -0.782659 0
M  V30 9408 H 920.319 -4.03302 -1.81108 0
M  V30 9409 N 919.378 -0.300708 -1.54705 0
M  V30 9410 C 920.789 0.191995 -1.8571 0
M  V30 9411 C 921.14 1.53447 -1.22264 0
M  V30 9412 O 920.265 2.10054 -0.520226 0
M  V30 9413 C 920.86 0.355148 -3.36933 0
M  V30 9414 C 919.419 0.792071 -3.67972 0
M  V30 9415 C 918.566 -0.099756 -2.77121 0
M  V30 9416 H 921.517 -0.521729 -1.49879 0
M  V30 9417 H 921.538 1.18977 -3.61421 0
M  V30 9418 H 921.05 -0.622075 -3.83082 0
M  V30 9419 H 919.151 1.77986 -3.27341 0
M  V30 9420 H 919.264 0.611661 -4.75179 0
M  V30 9421 H 917.628 0.420909 -2.51198 0
M  V30 9422 H 918.411 -1.07333 -3.2609 0
M  V30 9423 N 920.856 1.57574 -0.0284266 0
M  V30 9424 C 922.133 1.83064 0.688979 0
M  V30 9425 C 922.513 0.91219 1.90374 0
M  V30 9426 O 921.861 -0.0323672 2.28477 0
M  V30 9427 C 922.071 3.32262 1.06785 0
M  V30 9428 C 923.419 3.98717 1.45978 0
M  V30 9429 O 924.443 3.36753 1.16085 0
M  V30 9430 O 923.302 5.07927 2.01673 0
M  V30 9431 H 920.396 0.7548 0.337944 0
M  V30 9432 H 922.942 1.69607 -0.0560555 0
M  V30 9433 H 921.714 3.90772 0.203235 0
M  V30 9434 H 921.337 3.50823 1.87107 0
M  V30 9435 N 922.334 -0.244713 1.55689 0
M  V30 9436 C 923.583 -0.970373 1.76824 0
M  V30 9437 C 923.896 -1.86402 0.592764 0
M  V30 9438 O 925.102 -2.62659 0.687186 0
M  V30 9439 C 923.558 -1.77547 3.13058 0
M  V30 9440 C 923.166 -0.929104 4.3826 0
M  V30 9441 C 924.91 -2.49373 3.43531 0
M  V30 9442 C 922.817 -1.73021 5.65524 0
M  V30 9443 H 921.747 -0.366048 0.659185 0
M  V30 9444 H 924.398 -0.224964 1.82116 0
M  V30 9445 H 922.78 -2.56291 3.01879 0
M  V30 9446 H 923.954 -0.183836 4.60433 0
M  V30 9447 H 922.269 -0.324071 4.15137 0
M  V30 9448 H 924.866 -3.09767 4.35831 0
M  V30 9449 H 925.209 -3.21099 2.64955 0
M  V30 9450 H 925.742 -1.77637 3.55935 0
M  V30 9451 H 922.481 -1.05666 6.46927 0
M  V30 9452 H 922.001 -2.45071 5.47449 0
M  V30 9453 H 923.68 -2.2968 6.0486 0
M  V30 9454 N 923.813 -1.49104 -0.510467 0
M  V30 9455 C 924.763 -1.6147 -1.6097 0
M  V30 9456 C 925.747 -0.470797 -1.53858 0
M  V30 9457 O 926.939 -0.723266 -1.61548 0
M  V30 9458 C 924.068 -1.67575 -2.99622 0
M  V30 9459 C 923.154 -2.87511 -3.11766 0
M  V30 9460 N 923.545 -4.11704 -2.93826 0
M  V30 9461 C 921.843 -2.85251 -3.42852 0
M  V30 9462 C 922.544 -4.92276 -3.09902 0
M  V30 9463 N 921.52 -4.2546 -3.38355 0
M  V30 9464 H 925.322 -2.5522 -1.45739 0
M  V30 9465 H 922.836 -1.45745 -0.716383 0
M  V30 9466 H 924.833 -1.74531 -3.78609 0
M  V30 9467 H 923.493 -0.749557 -3.1593 0
M  V30 9468 H 924.504 -4.41834 -2.70191 0
M  V30 9469 H 921.181 -2.0197 -3.65396 0
M  V30 9470 H 922.571 -6.00905 -3.00604 0
M  V30 9471 N 925.291 0.760815 -1.38019 0
M  V30 9472 C 926.568 1.5098 -1.24356 0
M  V30 9473 C 926.948 2.10507 0.158169 0
M  V30 9474 O 926.296 1.96455 1.16695 0
M  V30 9475 C 926.506 2.58195 -2.34811 0
M  V30 9476 C 927.854 3.25297 -2.72886 0
M  V30 9477 O 928.878 2.68496 -2.34069 0
M  V30 9478 O 927.737 4.28018 -3.39799 0
M  V30 9479 H 924.831 0.66921 -0.485888 0
M  V30 9480 H 927.377 0.796844 -1.49828 0
M  V30 9481 H 926.149 2.12406 -3.28633 0
M  V30 9482 H 925.772 3.37079 -2.10864 0
M  V30 9483 N 926.769 1.22769 0.988202 0
M  V30 9484 C 928.015 1.05665 1.73097 0
M  V30 9485 C 928.348 -0.406615 1.89895 0
M  V30 9486 O 927.623 -1.30132 1.44554 0
M  V30 9487 C 927.906 1.77381 3.13382 0
M  V30 9488 C 927.759 3.31332 3.04203 0
M  V30 9489 C 929.078 1.52999 4.12649 0
M  V30 9490 H 926.197 0.385258 0.628288 0
M  V30 9491 H 928.839 1.51171 1.15097 0
M  V30 9492 H 926.989 1.38696 3.62899 0
M  V30 9493 H 928.661 3.79489 2.6227 0
M  V30 9494 H 926.904 3.60767 2.40894 0
M  V30 9495 H 927.575 3.76692 4.03493 0
M  V30 9496 H 930.051 1.86611 3.71908 0
M  V30 9497 H 928.927 2.05666 5.08913 0
M  V30 9498 H 929.188 0.463615 4.39662 0
M  V30 9499 N 928.247 -1.18576 1.03814 0
M  V30 9500 C 929.21 -2.2033 0.63146 0
M  V30 9501 C 930.21 -1.57787 -0.309816 0
M  V30 9502 O 931.4 -1.73938 -0.0955598 0
M  V30 9503 C 928.532 -3.40818 -0.0745963 0
M  V30 9504 H 929.725 -2.57824 1.53189 0
M  V30 9505 H 927.278 -1.32416 0.830398 0
M  V30 9506 H 928.013 -3.08853 -0.988947 0
M  V30 9507 H 927.798 -3.87453 0.6019 0
M  V30 9508 H 929.288 -4.16166 -0.345727 0
M  V30 9509 N 929.725 -0.817259 -1.34754 0
M  V30 9510 C 930.655 -0.249769 -2.3216 0
M  V30 9511 C 931.636 0.630663 -1.57977 0
M  V30 9512 O 932.821 0.558719 -1.85989 0
M  V30 9513 C 929.951 0.593825 -3.42186 0
M  V30 9514 C 928.905 -0.188997 -4.27583 0
M  V30 9515 C 928.231 0.776979 -5.29025 0
M  V30 9516 C 929.531 -1.39401 -5.03354 0
M  V30 9517 H 931.225 -1.06359 -2.79872 0
M  V30 9518 H 928.771 -0.512894 -1.34556 0
M  V30 9519 H 930.724 1.00097 -4.09339 0
M  V30 9520 H 929.448 1.44064 -2.93109 0
M  V30 9521 H 928.107 -0.577445 -3.62024 0
M  V30 9522 H 927.755 1.61959 -4.76212 0
M  V30 9523 H 927.455 0.257448 -5.87036 0
M  V30 9524 H 928.979 1.18211 -5.99048 0
M  V30 9525 H 930.393 -1.06117 -5.63393 0
M  V30 9526 H 928.79 -1.84878 -5.70912 0
M  V30 9527 H 929.86 -2.17515 -4.33377 0
M  V30 9528 N 931.203 1.46865 -0.571711 0
M  V30 9529 C 932.136 2.27176 0.215944 0
M  V30 9530 C 933.114 1.34951 0.907035 0
M  V30 9531 O 934.298 1.64349 0.923127 0
M  V30 9532 C 931.425 3.12388 1.30888 0
M  V30 9533 C 930.471 4.20296 0.724804 0
M  V30 9534 S 931.304 5.33691 -0.439839 0
M  V30 9535 C 932.46 6.22468 0.654564 0
M  V30 9536 H 932.693 2.93633 -0.465518 0
M  V30 9537 H 930.226 1.50184 -0.358351 0
M  V30 9538 H 932.184 3.62049 1.93471 0
M  V30 9539 H 930.845 2.45265 1.96224 0
M  V30 9540 H 930.038 4.79703 1.54599 0
M  V30 9541 H 929.64 3.73591 0.174861 0
M  V30 9542 H 931.932 6.59694 1.54304 0
M  V30 9543 H 932.875 7.08033 0.0975111 0
M  V30 9544 H 933.283 5.56384 0.953762 0
M  V30 9545 N 932.681 0.308908 1.54543 0
M  V30 9546 C 933.591 -0.572939 2.27496 0
M  V30 9547 C 934.607 -1.14171 1.31305 0
M  V30 9548 O 935.783 -1.16481 1.64299 0
M  V30 9549 C 932.848 -1.72483 3.0075 0
M  V30 9550 C 931.909 -1.18934 4.12496 0
M  V30 9551 C 931.142 -2.28634 4.82247 0
M  V30 9552 O 931.365 -3.48691 4.5141 0
M  V30 9553 O 930.299 -1.94879 5.69478 0
M  V30 9554 H 934.125 0.0190877 3.03694 0
M  V30 9555 H 931.71 0.0750943 1.49211 0
M  V30 9556 H 933.592 -2.39578 3.46671 0
M  V30 9557 H 932.267 -2.30332 2.2744 0
M  V30 9558 H 931.174 -0.483904 3.70957 0
M  V30 9559 H 932.507 -0.656185 4.87806 0
M  V30 9560 N 934.159 -1.57557 0.0367827 0
M  V30 9561 C 935.436 -1.83427 -0.679261 0
M  V30 9562 C 935.816 -0.922274 -1.89888 0
M  V30 9563 O 935.164 0.02025 -2.28491 0
M  V30 9564 C 935.374 -3.32823 -1.05022 0
M  V30 9565 C 936.722 -3.99486 -1.43861 0
M  V30 9566 O 937.746 -3.37364 -1.14297 0
M  V30 9567 O 936.605 -5.0899 -1.98977 0
M  V30 9568 H 933.699 -0.756581 -0.333936 0
M  V30 9569 H 936.245 -1.69575 0.0650494 0
M  V30 9570 H 935.017 -3.90874 -0.182509 0
M  V30 9571 H 934.64 -3.5181 -1.85244 0
M  V30 9572 N 935.637 0.236453 -1.55816 0
M  V30 9573 C 937.053 0.585465 -1.48474 0
M  V30 9574 C 937.253 1.8785 -0.72902 0
M  V30 9575 O 936.309 2.51131 -0.262614 0
M  V30 9576 C 937.622 0.678506 -2.92945 0
M  V30 9577 C 939.17 0.770135 -3.03378 0
M  V30 9578 C 939.645 0.894649 -4.49177 0
M  V30 9579 N 941.136 0.959253 -4.53158 0
M  V30 9580 C 941.871 1.07505 -5.63232 0
M  V30 9581 N 941.367 1.15572 -6.83092 0
M  V30 9582 N 943.16 1.10902 -5.51051 0
M  V30 9583 H 935.311 -0.612241 -2.03385 0
M  V30 9584 H 937.574 -0.212796 -0.923808 0
M  V30 9585 H 937.28 -0.201757 -3.51121 0
M  V30 9586 H 937.154 1.54703 -3.44016 0
M  V30 9587 H 939.541 1.64085 -2.45276 0
M  V30 9588 H 939.622 -0.123753 -2.555 0
M  V30 9589 H 939.266 0.0284537 -5.07892 0
M  V30 9590 H 939.196 1.80373 -4.94745 0
M  V30 9591 H 941.687 0.907827 -3.66834 0
M  V30 9592 H 942 1.24343 -7.62731 0
M  V30 9593 H 940.345 1.12511 -6.85833 0
M  V30 9594 H 943.536 1.04255 -4.56343 0
M  V30 9595 H 943.709 1.19581 -6.36871 0
M  V30 9596 N 937.115 1.49373 0.502552 0
M  V30 9597 C 938.078 1.65413 1.58654 0
M  V30 9598 C 939.078 0.526003 1.51953 0
M  V30 9599 O 940.268 0.792421 1.55133 0
M  V30 9600 C 937.4 1.65005 2.98306 0
M  V30 9601 H 938.593 2.62095 1.45762 0
M  V30 9602 H 936.146 1.38381 0.726672 0
M  V30 9603 H 936.881 0.699014 3.16677 0
M  V30 9604 H 936.666 2.46931 3.04578 0
M  V30 9605 H 938.156 1.79477 3.77065 0
M  V30 9606 N 938.594 -0.753485 1.38421 0
M  V30 9607 C 939.822 -1.54272 1.37868 0
M  V30 9608 C 940.237 -1.88774 -0.0315155 0
M  V30 9609 O 939.594 -1.52785 -0.998148 0
M  V30 9610 C 939.645 -2.84179 2.23438 0
M  V30 9611 O 939.366 -2.51149 3.58965 0
M  V30 9612 C 940.867 -3.78316 2.31067 0
M  V30 9613 H 938.087 -0.47735 0.47157 0
M  V30 9614 H 940.631 -0.932509 1.82001 0
M  V30 9615 H 938.786 -3.41577 1.82767 0
M  V30 9616 H 939.2 -3.34466 4.04021 0
M  V30 9617 H 940.674 -4.66418 2.95226 0
M  V30 9618 H 941.151 -4.18757 1.32436 0
M  V30 9619 H 941.757 -3.26842 2.72129 0
M  V30 9620 N 940.072 -1.23292 -0.981677 0
M  V30 9621 C 941.002 -1.03738 -2.09191 0
M  V30 9622 C 941.983 0.0453041 -1.7004 0
M  V30 9623 O 943.168 -0.119092 -1.93834 0
M  V30 9624 C 940.298 -0.626426 -3.41604 0
M  V30 9625 C 939.252 -1.65631 -3.94652 0
M  V30 9626 C 938.578 -1.10084 -5.23245 0
M  V30 9627 C 939.878 -3.04903 -4.24066 0
M  V30 9628 H 941.572 -1.966 -2.25807 0
M  V30 9629 H 939.118 -0.946656 -1.0851 0
M  V30 9630 H 941.071 -0.476689 -4.18695 0
M  V30 9631 H 939.795 0.337873 -3.24848 0
M  V30 9632 H 938.454 -1.79402 -3.19704 0
M  V30 9633 H 938.102 -0.127562 -5.02838 0
M  V30 9634 H 937.802 -1.78896 -5.59705 0
M  V30 9635 H 939.326 -0.962928 -6.02959 0
M  V30 9636 H 940.74 -2.94441 -4.91912 0
M  V30 9637 H 939.137 -3.70941 -4.71724 0
M  V30 9638 H 940.207 -3.53991 -3.31389 0
M  V30 9639 N 941.55 1.18024 -1.04442 0
M  V30 9640 C 942.966 1.40107 -0.76435 0
M  V30 9641 C 943.166 1.90914 0.644516 0
M  V30 9642 O 942.222 2.0959 1.40813 0
M  V30 9643 C 943.535 2.39851 -1.81361 0
M  V30 9644 C 945.083 2.53571 -1.83496 0
M  V30 9645 C 945.558 3.56583 -2.87424 0
M  V30 9646 N 947.049 3.64094 -2.86339 0
M  V30 9647 C 947.784 4.43537 -3.63405 0
M  V30 9648 N 947.28 5.26557 -4.50233 0
M  V30 9649 N 949.073 4.38336 -3.51877 0
M  V30 9650 H 941.224 0.833726 -1.95353 0
M  V30 9651 H 943.487 0.42881 -0.845474 0
M  V30 9652 H 943.193 2.09576 -2.82438 0
M  V30 9653 H 943.067 3.39251 -1.6489 0
M  V30 9654 H 945.454 2.83161 -0.830883 0
M  V30 9655 H 945.535 1.54272 -2.04044 0
M  V30 9656 H 945.179 3.27733 -3.88012 0
M  V30 9657 H 945.109 4.55569 -2.6413 0
M  V30 9658 H 947.6 3.04814 -2.23376 0
M  V30 9659 H 947.913 5.84336 -5.05738 0
M  V30 9660 H 946.258 5.25964 -4.54298 0
M  V30 9661 H 949.449 3.72528 -2.83444 0
M  V30 9662 H 949.622 5.00007 -4.12186 0
M  V30 9663 N 943.028 0.824394 1.34319 0
M  V30 9664 C 944.277 0.40956 1.97498 0
M  V30 9665 C 944.59 -1.03323 1.66083 0
M  V30 9666 O 945.796 -1.55205 2.22764 0
M  V30 9667 C 944.252 0.681384 3.53391 0
M  V30 9668 C 943.86 2.1379 3.93698 0
M  V30 9669 C 945.604 0.332788 4.23194 0
M  V30 9670 C 943.511 2.35453 5.42509 0
M  V30 9671 H 942.441 0.149409 0.739049 0
M  V30 9672 H 945.092 1.01095 1.5314 0
M  V30 9673 H 943.474 0.00980375 3.95999 0
M  V30 9674 H 944.648 2.84876 3.62191 0
M  V30 9675 H 942.963 2.44807 3.36836 0
M  V30 9676 H 945.56 0.472463 5.32609 0
M  V30 9677 H 945.903 -0.722862 4.09976 0
M  V30 9678 H 946.436 0.959005 3.86067 0
M  V30 9679 H 943.175 3.39529 5.60714 0
M  V30 9680 H 942.695 1.68912 5.75525 0
M  V30 9681 H 944.374 2.17885 6.09209 0
M  V30 9682 N 944.506 -1.46559 0.579492 0
M  V30 9683 C 945.731 -2.0729 0.0674595 0
M  V30 9684 C 946.156 -1.4259 -1.22677 0
M  V30 9685 O 945.514 -0.50857 -1.74021 0
M  V30 9686 C 945.562 -3.60492 -0.0882227 0
M  V30 9687 O 944.666 -3.96172 -1.14551 0
M  V30 9688 H 944.007 -0.661159 0.0613536 0
M  V30 9689 H 946.537 -1.88247 0.801519 0
M  V30 9690 H 946.547 -4.06929 -0.295411 0
M  V30 9691 H 945.222 -4.06976 0.856943 0
M  V30 9692 H 943.799 -3.61448 -0.917033 0
M  V30 9693 N 945.984 -0.3171 -1.54377 0
M  V30 9694 C 947.209 0.292311 -2.0533 0
M  V30 9695 C 947.634 1.45503 -1.19207 0
M  V30 9696 O 946.992 1.80197 -0.199721 0
M  V30 9697 C 947.04 0.710787 -3.53525 0
M  V30 9698 O 946.144 1.81387 -3.70368 0
M  V30 9699 H 945.485 0.0539976 -0.661801 0
M  V30 9700 H 948.015 -0.463629 -1.99278 0
M  V30 9701 H 948.025 0.995216 -3.95676 0
M  V30 9702 H 946.7 -0.139668 -4.15665 0
M  V30 9703 H 945.277 1.52875 -3.40123 0
M  V30 9704 N 947.462 1.57535 -0.0451378 0
M  V30 9705 C 948.394 2.08109 0.960372 0
M  V30 9706 C 949.407 1.0077 1.27864 0
M  V30 9707 O 950.596 1.28351 1.24049 0
M  V30 9708 C 947.696 2.50414 2.28355 0
M  V30 9709 C 946.869 3.8102 2.14808 0
M  V30 9710 C 945.928 4.09702 3.30198 0
M  V30 9711 O 944.954 4.79715 3.0637 0
M  V30 9712 N 946.156 3.61138 4.54489 0
M  V30 9713 H 948.921 2.94999 0.528752 0
M  V30 9714 H 946.482 1.61283 0.141248 0
M  V30 9715 H 948.474 2.66683 3.04405 0
M  V30 9716 H 947.044 1.68805 2.63104 0
M  V30 9717 H 946.264 3.74392 1.23387 0
M  V30 9718 H 947.552 4.66559 2.02978 0
M  V30 9719 H 946.95 3.04527 4.76739 0
M  V30 9720 H 945.507 3.82656 5.27653 0
M  V30 9721 N 948.94 -0.228186 1.55939 0
M  V30 9722 C 949.87 -1.28607 1.94891 0
M  V30 9723 C 950.851 -1.49236 0.816245 0
M  V30 9724 O 952.036 -1.61531 1.07803 0
M  V30 9725 C 949.166 -2.63719 2.25986 0
M  V30 9726 C 948.12 -2.57757 3.4168 0
M  V30 9727 C 947.446 -3.96837 3.58364 0
M  V30 9728 C 948.746 -2.13116 4.76843 0
M  V30 9729 H 950.44 -0.962531 2.83506 0
M  V30 9730 H 947.986 -0.461577 1.36402 0
M  V30 9731 H 949.939 -3.37878 2.51826 0
M  V30 9732 H 948.663 -2.97747 1.34217 0
M  V30 9733 H 947.322 -1.86055 3.15878 0
M  V30 9734 H 946.97 -4.28162 2.63982 0
M  V30 9735 H 946.67 -3.93731 4.36176 0
M  V30 9736 H 948.194 -4.72668 3.86545 0
M  V30 9737 H 949.608 -2.77015 5.01932 0
M  V30 9738 H 948.005 -2.21083 5.57891 0
M  V30 9739 H 949.075 -1.08326 4.72645 0
M  V30 9740 N 950.418 -1.49637 -0.494624 0
M  V30 9741 C 951.348 -1.69692 -1.60396 0
M  V30 9742 C 952.329 -0.545648 -1.61111 0
M  V30 9743 O 953.514 -0.782202 -1.77751 0
M  V30 9744 C 950.644 -1.76934 -2.9885 0
M  V30 9745 C 949.598 -2.91915 -3.13001 0
M  V30 9746 C 948.924 -2.84276 -4.5287 0
M  V30 9747 C 950.224 -4.32764 -2.92426 0
M  V30 9748 H 951.918 -2.6257 -1.43866 0
M  V30 9749 H 949.464 -1.26355 -0.690679 0
M  V30 9750 H 951.417 -1.8955 -3.76362 0
M  V30 9751 H 950.141 -0.806609 -3.16483 0
M  V30 9752 H 948.8 -2.78911 -2.37916 0
M  V30 9753 H 948.448 -1.85897 -4.67388 0
M  V30 9754 H 948.148 -3.61452 -4.63278 0
M  V30 9755 H 949.672 -2.98909 -5.32434 0
M  V30 9756 H 951.086 -4.46415 -3.59703 0
M  V30 9757 H 949.483 -5.1121 -3.143 0
M  V30 9758 H 950.553 -4.46765 -1.88491 0
M  V30 9759 N 951.896 0.746133 -1.38819 0
M  V30 9760 C 952.859 1.84167 -1.36437 0
M  V30 9761 C 953.859 1.58626 -0.263499 0
M  V30 9762 O 955.049 1.66233 -0.520801 0
M  V30 9763 C 952.181 3.21769 -1.12596 0
M  V30 9764 H 953.374 1.87684 -2.33912 0
M  V30 9765 H 950.927 0.948625 -1.24221 0
M  V30 9766 H 951.662 3.23917 -0.15758 0
M  V30 9767 H 951.447 3.41702 -1.92307 0
M  V30 9768 H 952.937 4.0184 -1.13643 0
M  V30 9769 N 953.375 1.23811 0.975125 0
M  V30 9770 C 954.323 1.02149 2.0897 0
M  V30 9771 C 955.317 -0.0412172 1.6935 0
M  V30 9772 O 956.523 0.112726 1.79647 0
M  V30 9773 H 952.898 0.313259 0.683647 0
M  V30 9774 H 954.869 1.96686 2.24404 0
M  V30 9775 C 953.618 0.635023 3.41852 0
M  V30 9776 H 952.941 1.44449 3.72793 0
M  V30 9777 H 954.381 0.52301 4.20762 0
M  V30 9778 C 952.84 -0.657207 3.30428 0
M  V30 9779 O 953.37 -1.70494 3.63723 0
M  V30 9780 N 951.576 -0.635122 2.83575 0
M  V30 9781 H 951.123 0.21784 2.56677 0
M  V30 9782 H 951.081 -1.49995 2.76313 0
M  V30 9783 N 954.853 -1.17469 1.05066 0
M  V30 9784 C 956.099 -1.88225 0.7709 0
M  V30 9785 C 956.454 -1.7943 -0.694452 0
M  V30 9786 O 955.747 -1.19059 -1.50118 0
M  V30 9787 C 955.941 -3.37211 1.18421 0
M  V30 9788 C 955.77 -3.60508 2.68819 0
M  V30 9789 C 954.54 -3.77303 3.36111 0
M  V30 9790 C 956.738 -3.60258 3.6704 0
M  V30 9791 N 954.72 -3.88433 4.75387 0
M  V30 9792 C 956.091 -3.77223 4.92039 0
M  V30 9793 C 958.146 -3.43401 3.60527 0
M  V30 9794 C 956.849 -3.79075 6.11305 0
M  V30 9795 C 958.875 -3.46541 4.79232 0
M  V30 9796 C 958.237 -3.64013 6.03054 0
M  V30 9797 H 954.336 -0.706941 0.334303 0
M  V30 9798 H 956.92 -1.41029 1.34235 0
M  V30 9799 H 955.091 -3.83079 0.640724 0
M  V30 9800 H 956.823 -3.95578 0.854411 0
M  V30 9801 H 953.578 -3.77105 2.86512 0
M  V30 9802 H 954.002 -3.97797 5.47802 0
M  V30 9803 H 958.644 -3.28831 2.65762 0
M  V30 9804 H 956.362 -3.92431 7.06416 0
M  V30 9805 H 959.948 -3.34758 4.75845 0
M  V30 9806 H 958.828 -3.66345 6.93369 0
M  V30 9807 N 956.331 -0.831506 -1.3388 0
M  V30 9808 C 957.261 -0.274378 -2.31882 0
M  V30 9809 C 958.242 0.613872 -1.58637 0
M  V30 9810 O 959.427 0.538961 -1.86571 0
M  V30 9811 C 956.557 0.557498 -3.42796 0
M  V30 9812 C 955.511 -0.234337 -4.27358 0
M  V30 9813 C 954.837 0.720825 -5.29819 0
M  V30 9814 C 956.137 -1.44732 -5.01847 0
M  V30 9815 H 957.831 -1.09322 -2.78728 0
M  V30 9816 H 955.377 -0.527136 -1.34005 0
M  V30 9817 H 957.33 0.957501 -4.10378 0
M  V30 9818 H 956.054 1.40947 -2.94621 0
M  V30 9819 H 954.713 -0.61581 -3.61391 0
M  V30 9820 H 954.361 1.569 -4.77903 0
M  V30 9821 H 954.061 0.195171 -5.87276 0
M  V30 9822 H 955.585 1.1185 -6.00268 0
M  V30 9823 H 956.999 -1.12087 -5.62236 0
M  V30 9824 H 955.396 -1.90923 -5.68919 0
M  V30 9825 H 956.466 -2.22099 -4.31045 0
M  V30 9826 N 957.809 1.4625 -0.587256 0
M  V30 9827 C 959.225 1.57641 -0.249284 0
M  V30 9828 C 959.425 1.58169 1.24839 0
M  V30 9829 O 958.481 1.50109 2.03036 0
M  V30 9830 C 959.794 2.86837 -0.902509 0
M  V30 9831 C 961.342 3.00476 -0.876524 0
M  V30 9832 C 961.817 4.32414 -1.50938 0
M  V30 9833 N 963.308 4.39124 -1.47392 0
M  V30 9834 C 964.043 5.39838 -1.93293 0
M  V30 9835 N 963.539 6.47202 -2.47188 0
M  V30 9836 N 965.332 5.31068 -1.84183 0
M  V30 9837 H 957.483 1.44151 -1.55994 0
M  V30 9838 H 959.746 0.687905 -0.652297 0
M  V30 9839 H 959.452 2.92274 -1.95624 0
M  V30 9840 H 959.326 3.74927 -0.413466 0
M  V30 9841 H 961.713 2.94618 0.168601 0
M  V30 9842 H 961.794 2.1385 -1.40363 0
M  V30 9843 H 961.438 4.3903 -2.55372 0
M  V30 9844 H 961.368 5.17823 -0.957455 0
M  V30 9845 H 963.859 3.62138 -1.08002 0
M  V30 9846 H 964.172 7.20269 -2.80058 0
M  V30 9847 H 962.517 6.48009 -2.51216 0
M  V30 9848 H 965.708 4.46095 -1.41833 0
M  V30 9849 H 965.881 6.09414 -2.2027 0
M  V30 9850 N 959.287 0.325282 1.54207 0
M  V30 9851 C 960.237 -0.55548 2.2113 0
M  V30 9852 C 961.221 -1.0803 1.19241 0
M  V30 9853 O 962.413 -1.01703 1.44864 0
M  V30 9854 C 959.542 -1.71504 2.97391 0
M  V30 9855 C 958.628 -1.20503 4.0662 0
M  V30 9856 N 959.019 -0.414838 5.04096 0
M  V30 9857 C 957.317 -1.4836 4.20601 0
M  V30 9858 C 958.018 -0.140225 5.81531 0
M  V30 9859 N 956.994 -0.72683 5.38719 0
M  V30 9860 H 960.796 0.0555192 2.93848 0
M  V30 9861 H 958.31 0.131225 1.61869 0
M  V30 9862 H 960.307 -2.35781 3.43821 0
M  V30 9863 H 958.967 -2.3295 2.26195 0
M  V30 9864 H 959.978 -0.0575291 5.17868 0
M  V30 9865 H 956.655 -2.10378 3.60621 0
M  V30 9866 H 958.045 0.496026 6.70067 0
M  V30 9867 N 960.765 -1.57509 0.0534917 0
M  V30 9868 C 962.013 -1.92402 -0.618548 0
M  V30 9869 C 962.334 -0.93273 -1.71246 0
M  V30 9870 O 961.604 0.0220495 -1.95888 0
M  V30 9871 H 960.184 -0.710233 -0.23147 0
M  V30 9872 H 962.846 -1.94606 0.10704 0
M  V30 9873 H 961.942 -2.93704 -1.05566 0
M  V30 9874 N 962.243 0.219913 -1.56058 0
M  V30 9875 C 963.489 0.945463 -1.79412 0
M  V30 9876 C 963.822 1.83922 -0.62341 0
M  V30 9877 O 963.097 1.90806 0.377256 0
M  V30 9878 C 963.38 1.783 -3.1286 0
M  V30 9879 C 963.233 0.915626 -4.40382 0
M  V30 9880 C 964.552 2.76045 -3.42764 0
M  V30 9881 H 961.671 0.342288 -0.652693 0
M  V30 9882 H 964.313 0.214235 -1.88788 0
M  V30 9883 H 962.463 2.40642 -3.04998 0
M  V30 9884 H 964.135 0.30882 -4.60265 0
M  V30 9885 H 962.378 0.221124 -4.33236 0
M  V30 9886 H 963.049 1.53607 -5.30197 0
M  V30 9887 H 965.525 2.23838 -3.50764 0
M  V30 9888 H 964.401 3.31748 -4.37304 0
M  V30 9889 H 964.662 3.53866 -2.65012 0
M  V30 9890 N 963.721 1.49897 0.486681 0
M  V30 9891 C 964.97 1.59349 1.23656 0
M  V30 9892 C 965.283 0.292024 1.93408 0
M  V30 9893 O 966.489 0.265258 2.70201 0
M  V30 9894 C 964.945 2.81215 2.24602 0
M  V30 9895 C 964.553 4.18177 1.60725 0
M  V30 9896 C 966.297 3.00004 3.00329 0
M  V30 9897 C 964.204 5.31247 2.59866 0
M  V30 9898 H 963.134 0.593363 0.465227 0
M  V30 9899 H 965.785 1.76306 0.508769 0
M  V30 9900 H 964.167 2.57783 3.00606 0
M  V30 9901 H 965.341 4.51802 0.90616 0
M  V30 9902 H 963.656 4.04864 0.973362 0
M  V30 9903 H 966.253 3.81649 3.74497 0
M  V30 9904 H 966.596 2.1112 3.58795 0
M  V30 9905 H 967.129 3.23544 2.3144 0
M  V30 9906 H 963.868 6.22236 2.06161 0
M  V30 9907 H 963.388 5.02059 3.28172 0
M  V30 9908 H 965.067 5.61177 3.22009 0
M  V30 9909 N 965.199 -0.738761 1.39212 0
M  V30 9910 C 966.427 -1.52801 1.39497 0
M  V30 9911 C 966.842 -1.88797 -0.0114917 0
M  V30 9912 O 966.199 -1.53835 -0.981887 0
M  V30 9913 C 966.25 -2.81793 2.2644 0
M  V30 9914 O 965.971 -2.47328 3.61608 0
M  V30 9915 C 967.472 -3.75844 2.35067 0
M  V30 9916 H 964.692 -0.472322 0.476606 0
M  V30 9917 H 967.236 -0.913153 1.8298 0
M  V30 9918 H 965.391 -3.3962 1.8638 0
M  V30 9919 H 965.805 -3.30162 4.07545 0
M  V30 9920 H 967.279 -4.6326 3.00157 0
M  V30 9921 H 967.756 -4.17329 1.3687 0
M  V30 9922 H 968.362 -3.23937 2.75581 0
M  V30 9923 N 966.677 -1.24326 -0.968545 0
M  V30 9924 C 967.902 -1.1104 -1.75171 0
M  V30 9925 C 968.327 0.333109 -1.85127 0
M  V30 9926 O 967.685 1.24115 -1.32156 0
M  V30 9927 C 967.733 -1.75397 -3.15068 0
M  V30 9928 O 966.837 -1.02417 -3.9948 0
M  V30 9929 H 966.178 -0.388488 -0.538491 0
M  V30 9930 H 968.708 -1.64617 -1.215 0
M  V30 9931 H 968.718 -1.8112 -3.65595 0
M  V30 9932 H 967.393 -2.80427 -3.07138 0
M  V30 9933 H 965.97 -1.04475 -3.57966 0
M  V30 9934 N 968.156 1.1691 -1.05688 0
M  V30 9935 C 969.119 2.19297 -0.666433 0
M  V30 9936 C 970.119 1.5826 0.284674 0
M  V30 9937 O 971.309 1.74068 0.0678757 0
M  V30 9938 C 968.441 3.40894 0.0203656 0
M  V30 9939 H 969.634 2.55354 -1.57272 0
M  V30 9940 H 967.187 1.31078 -0.851359 0
M  V30 9941 H 967.922 3.10388 0.939686 0
M  V30 9942 H 967.707 3.86446 -0.663464 0
M  V30 9943 H 969.197 4.16664 0.279475 0
M  V30 9944 N 969.634 0.838594 1.33437 0
M  V30 9945 C 970.911 0.356112 1.92331 0
M  V30 9946 C 971.291 -1.1585 1.76471 0
M  V30 9947 O 970.639 -1.97281 1.15293 0
M  V30 9948 C 970.849 0.802715 3.39643 0
M  V30 9949 C 972.197 0.810575 4.16791 0
M  V30 9950 O 973.221 0.746304 3.48294 0
M  V30 9951 O 972.08 0.898082 5.3907 0
M  V30 9952 H 969.174 0.100711 0.820845 0
M  V30 9953 H 971.72 0.924428 1.42311 0
M  V30 9954 H 970.492 1.84529 3.45057 0
M  V30 9955 H 970.115 0.210956 3.9704 0
M  V30 9956 N 971.112 -1.45937 0.595003 0
M  V30 9957 C 972.358 -2.0262 0.0854317 0
M  V30 9958 C 972.691 -1.46402 -1.27594 0
M  V30 9959 O 971.966 -0.633823 -1.83883 0
M  V30 9960 C 972.249 -3.60085 0.0329075 0
M  V30 9961 C 972.102 -4.26663 1.42405 0
M  V30 9962 C 973.421 -4.35101 -0.661426 0
M  V30 9963 H 970.54 -0.736282 0.0325196 0
M  V30 9964 H 973.182 -1.73938 0.764563 0
M  V30 9965 H 971.332 -3.84652 -0.545439 0
M  V30 9966 H 973.004 -4.13321 2.04851 0
M  V30 9967 H 971.247 -3.85549 1.98833 0
M  V30 9968 H 971.918 -5.35497 1.33965 0
M  V30 9969 H 974.394 -4.15753 -0.169977 0
M  V30 9970 H 973.27 -5.44829 -0.667243 0
M  V30 9971 H 973.531 -4.07053 -1.72513 0
M  V30 9972 N 972.59 -0.333456 -1.54032 0
M  V30 9973 C 974.006 0.0188405 -1.59589 0
M  V30 9974 C 974.206 1.49615 -1.34972 0
M  V30 9975 O 973.262 2.2535 -1.13901 0
M  V30 9976 C 974.575 -0.408273 -2.97915 0
M  V30 9977 C 976.123 -0.359763 -3.10926 0
M  V30 9978 C 976.598 -0.76219 -4.51613 0
M  V30 9979 N 978.089 -0.715981 -4.57633 0
M  V30 9980 C 978.824 -0.999436 -5.64623 0
M  V30 9981 N 978.32 -1.35053 -6.79509 0
M  V30 9982 N 980.113 -0.924343 -5.54448 0
M  V30 9983 H 972.264 -1.29587 -1.68289 0
M  V30 9984 H 974.527 -0.527584 -0.787629 0
M  V30 9985 H 974.233 -1.43793 -3.20962 0
M  V30 9986 H 974.107 0.221685 -3.76548 0
M  V30 9987 H 976.494 0.660703 -2.87609 0
M  V30 9988 H 976.575 -1.02479 -2.34375 0
M  V30 9989 H 976.219 -1.78062 -4.75664 0
M  V30 9990 H 976.149 -0.0747478 -5.26547 0
M  V30 9991 H 978.64 -0.456875 -3.75128 0
M  V30 9992 H 978.953 -1.55194 -7.57057 0
M  V30 9993 H 977.298 -1.38889 -6.80981 0
M  V30 9994 H 980.489 -0.649469 -4.63573 0
M  V30 9995 H 980.662 -1.1486 -6.37739 0
M  V30 9996 N 974.068 1.57479 -0.061844 0
M  V30 9997 C 975.031 2.1104 0.894127 0
M  V30 9998 C 976.031 1.03227 1.23292 0
M  V30 9999 O 977.221 1.29256 1.16784 0
M  V30 10000 C 974.353 2.6035 2.20069 0
M  V30 10001 H 975.546 2.96807 0.429619 0
M  V30 10002 H 973.099 1.55181 0.18672 0
M  V30 10003 H 973.834 1.78008 2.71079 0
M  V30 10004 H 973.619 3.39146 1.9678 0
M  V30 10005 H 975.109 3.019 2.88525 0
M  V30 10006 N 975.546 -0.211634 1.56173 0
M  V30 10007 C 976.771 -0.955324 1.84088 0
M  V30 10008 C 977.196 -1.76754 0.643407 0
M  V30 10009 O 976.554 -1.76653 -0.407842 0
M  V30 10010 C 976.602 -1.84063 3.10085 0
M  V30 10011 O 975.706 -2.9373 2.89476 0
M  V30 10012 H 975.047 -0.26996 0.606645 0
M  V30 10013 H 977.577 -0.221947 2.03393 0
M  V30 10014 H 977.587 -2.24852 3.40449 0
M  V30 10015 H 976.262 -1.24373 3.96868 0
M  V30 10016 H 974.839 -2.56816 2.7037 0
M  V30 10017 N 977.024 -1.50153 -0.478725 0
M  V30 10018 C 977.954 -1.71384 -1.58587 0
M  V30 10019 C 978.935 -0.562705 -1.60523 0
M  V30 10020 O 980.12 -0.80101 -1.76911 0
M  V30 10021 C 977.25 -1.80094 -2.96957 0
M  V30 10022 C 976.204 -2.95218 -3.09888 0
M  V30 10023 C 975.53 -2.89063 -4.49829 0
M  V30 10024 C 976.83 -4.35841 -2.8782 0
M  V30 10025 H 978.524 -2.64081 -1.41073 0
M  V30 10026 H 976.07 -1.27081 -0.677239 0
M  V30 10027 H 978.023 -1.93531 -3.74331 0
M  V30 10028 H 976.747 -0.840131 -3.1561 0
M  V30 10029 H 975.406 -2.81419 -2.34944 0
M  V30 10030 H 975.054 -1.90844 -4.6539 0
M  V30 10031 H 974.754 -3.66345 -4.59418 0
M  V30 10032 H 976.278 -3.04539 -5.29234 0
M  V30 10033 H 977.692 -4.50205 -3.54948 0
M  V30 10034 H 976.089 -5.14515 -3.0886 0
M  V30 10035 H 977.159 -4.48739 -1.83742 0
M  V30 10036 N 978.502 0.731368 -1.39602 0
M  V30 10037 C 979.412 1.87579 -1.40894 0
M  V30 10038 C 980.428 1.71336 -0.303319 0
M  V30 10039 O 981.604 1.93875 -0.545377 0
M  V30 10040 C 978.669 3.23211 -1.25442 0
M  V30 10041 C 977.73 3.51822 -2.46008 0
M  V30 10042 C 976.963 4.80982 -2.31284 0
M  V30 10043 O 977.186 5.54958 -1.31824 0
M  V30 10044 O 976.12 5.09574 -3.20341 0
M  V30 10045 H 979.946 1.89444 -2.3737 0
M  V30 10046 H 977.531 0.879675 -1.20756 0
M  V30 10047 H 979.413 4.04257 -1.18972 0
M  V30 10048 H 978.088 3.22108 -0.320637 0
M  V30 10049 H 976.995 2.70847 -2.58055 0
M  V30 10050 H 978.328 3.57707 -3.38093 0
M  V30 10051 N 979.98 1.24838 0.961938 0
M  V30 10052 C 981.396 1.01502 1.23165 0
M  V30 10053 C 981.596 -0.272651 1.99647 0
M  V30 10054 O 980.652 -0.987297 2.32398 0
M  V30 10055 C 981.965 2.23366 2.01316 0
M  V30 10056 C 983.513 2.28051 2.14387 0
M  V30 10057 C 983.988 3.49552 2.95935 0
M  V30 10058 N 985.479 3.49904 3.03515 0
M  V30 10059 C 986.214 4.40577 3.66987 0
M  V30 10060 N 985.71 5.41512 4.3213 0
M  V30 10061 N 987.503 4.28275 3.64056 0
M  V30 10062 H 979.654 2.07576 0.450086 0
M  V30 10063 H 981.917 0.911205 0.261551 0
M  V30 10064 H 981.623 3.16913 1.5251 0
M  V30 10065 H 981.497 2.25949 3.02038 0
M  V30 10066 H 983.884 1.35032 2.62393 0
M  V30 10067 H 983.965 2.29491 1.12994 0
M  V30 10068 H 983.609 4.42889 2.4862 0
M  V30 10069 H 983.539 3.45357 3.97538 0
M  V30 10070 H 986.03 2.76885 2.57183 0
M  V30 10071 H 986.343 6.06924 4.78396 0
M  V30 10072 H 984.688 5.45393 4.3078 0
M  V30 10073 H 987.879 3.48653 3.12344 0
M  V30 10074 H 988.052 4.99138 4.13237 0
M  V30 10075 N 981.458 -1.16348 1.06306 0
M  V30 10076 C 982.391 -2.19667 0.618197 0
M  V30 10077 C 983.369 -1.58586 -0.359078 0
M  V30 10078 O 984.553 -1.86585 -0.268023 0
M  V30 10079 C 981.68 -3.3857 -0.0937091 0
M  V30 10080 C 980.726 -4.18139 0.840339 0
M  V30 10081 S 981.559 -4.81879 2.33565 0
M  V30 10082 C 982.715 -6.04161 1.63524 0
M  V30 10083 H 982.948 -2.57063 1.49352 0
M  V30 10084 H 980.481 -1.27141 0.876046 0
M  V30 10085 H 982.439 -4.07465 -0.498227 0
M  V30 10086 H 981.1 -2.9954 -0.94523 0
M  V30 10087 H 980.293 -5.03172 0.288781 0
M  V30 10088 H 979.895 -3.54739 1.18474 0
M  V30 10089 H 982.187 -6.70935 0.940904 0
M  V30 10090 H 983.13 -6.63866 2.46347 0
M  V30 10091 H 983.538 -5.53323 1.11778 0
M  V30 10092 N 982.937 -0.845659 -1.3299 0
M  V30 10093 C 983.9 -0.288905 -2.27372 0
M  V30 10094 C 984.9 0.546263 -1.51237 0
M  V30 10095 O 986.09 0.359072 -1.70459 0
M  V30 10096 C 983.222 0.59224 -3.35716 0
M  V30 10097 H 984.415 -1.12181 -2.78128 0
M  V30 10098 H 981.968 -0.619276 -1.43508 0
M  V30 10099 H 982.703 1.44732 -2.90212 0
M  V30 10100 H 982.488 -0.00543255 -3.921 0
M  V30 10101 H 983.978 0.974848 -4.06062 0
M  V30 10102 N 984.415 1.45619 -0.602734 0
M  V30 10103 C 985.826 1.85814 -0.181636 0
M  V30 10104 C 986.177 1.5037 1.26029 0
M  V30 10105 O 985.302 0.928068 1.95489 0
M  V30 10106 C 985.897 3.37258 -0.322866 0
M  V30 10107 C 984.456 3.76375 0.043504 0
M  V30 10108 C 983.603 2.69585 -0.649561 0
M  V30 10109 H 986.554 1.36489 -0.809721 0
M  V30 10110 H 986.575 3.77874 0.446279 0
M  V30 10111 H 986.087 3.63024 -1.37241 0
M  V30 10112 H 984.188 3.56226 1.09241 0
M  V30 10113 H 984.301 4.77843 -0.346765 0
M  V30 10114 H 982.665 2.54549 -0.087706 0
M  V30 10115 H 983.448 2.98188 -1.70115 0
M  V30 10116 N 985.893 0.34162 1.53853 0
M  V30 10117 C 986.823 -0.508431 2.27897 0
M  V30 10118 C 987.804 -1.10425 1.29384 0
M  V30 10119 O 988.989 -1.126 1.58224 0
M  V30 10120 C 986.119 -1.66048 3.05034 0
M  V30 10121 C 985.073 -1.19309 4.11035 0
M  V30 10122 C 984.399 -2.4335 4.76114 0
M  V30 10123 C 985.699 -0.294952 5.21467 0
M  V30 10124 H 987.393 0.109251 2.99201 0
M  V30 10125 H 984.939 0.0539847 1.43899 0
M  V30 10126 H 986.892 -2.26158 3.5557 0
M  V30 10127 H 985.616 -2.30503 2.31379 0
M  V30 10128 H 984.275 -0.614809 3.61408 0
M  V30 10129 H 983.923 -3.06208 3.99056 0
M  V30 10130 H 983.623 -2.1276 5.47729 0
M  V30 10131 H 985.147 -3.0419 5.29434 0
M  V30 10132 H 986.561 -0.80285 5.67651 0
M  V30 10133 H 984.958 -0.0810221 6.00045 0
M  V30 10134 H 986.028 0.669433 4.80257 0
M  V30 10135 N 987.371 -1.57444 0.0701946 0
M  V30 10136 C 988.617 -1.93716 -0.600178 0
M  V30 10137 C 988.95 -0.950329 -1.69359 0
M  V30 10138 O 988.225 0.0207123 -1.94489 0
M  V30 10139 C 988.508 -3.40266 -1.17861 0
M  V30 10140 C 988.361 -4.49706 -0.0919575 0
M  V30 10141 C 989.68 -3.87599 -2.08459 0
M  V30 10142 H 986.799 -0.704421 -0.216704 0
M  V30 10143 H 989.441 -1.89514 0.135838 0
M  V30 10144 H 987.591 -3.43977 -1.80587 0
M  V30 10145 H 989.263 -4.58116 0.541031 0
M  V30 10146 H 987.506 -4.29937 0.577639 0
M  V30 10147 H 988.177 -5.49381 -0.537048 0
M  V30 10148 H 990.653 -3.85883 -1.5567 0
M  V30 10149 H 989.529 -4.90755 -2.45867 0
M  V30 10150 H 989.79 -3.25448 -2.99226 0
M  V30 10151 N 988.849 0.203349 -1.56283 0
M  V30 10152 C 990.126 0.950415 -1.70958 0
M  V30 10153 C 990.506 2.01708 -0.622647 0
M  V30 10154 O 989.854 2.25523 0.367635 0
M  V30 10155 C 990.064 1.54434 -3.12971 0
M  V30 10156 C 991.412 2.02964 -3.72949 0
M  V30 10157 O 992.436 1.64293 -3.16048 0
M  V30 10158 O 991.295 2.74097 -4.72793 0
M  V30 10159 H 988.389 0.445154 -0.69697 0
M  V30 10160 H 990.935 0.193695 -1.68591 0
M  V30 10161 H 989.707 0.77505 -3.83547 0
M  V30 10162 H 989.33 2.36611 -3.19532 0
M  V30 10163 N 990.327 1.50405 0.470755 0
M  V30 10164 C 991.743 1.37838 0.804534 0
M  V30 10165 C 991.943 0.434743 1.96754 0
M  V30 10166 O 990.999 -0.122507 2.52203 0
M  V30 10167 C 992.312 2.79212 1.11629 0
M  V30 10168 C 993.86 2.88129 1.22272 0
M  V30 10169 C 994.335 4.30337 1.5676 0
M  V30 10170 N 995.826 4.3329 1.63751 0
M  V30 10171 C 996.561 5.4032 1.91942 0
M  V30 10172 N 996.057 6.57558 2.18151 0
M  V30 10173 N 997.85 5.27764 1.93446 0
M  V30 10174 H 990.001 2.10332 -0.295689 0
M  V30 10175 H 992.264 0.945429 -0.0697733 0
M  V30 10176 H 991.97 3.50103 0.334778 0
M  V30 10177 H 991.844 3.16475 2.0524 0
M  V30 10178 H 994.231 2.17457 1.9949 0
M  V30 10179 H 994.312 2.54409 0.2664 0
M  V30 10180 H 993.956 5.01547 0.800817 0
M  V30 10181 H 993.886 4.61545 2.53543 0
M  V30 10182 H 996.377 3.48752 1.45535 0
M  V30 10183 H 996.69 7.34935 2.38936 0
M  V30 10184 H 995.035 6.60732 2.15542 0
M  V30 10185 H 998.226 4.35169 1.72468 0
M  V30 10186 H 998.399 6.11264 2.15081 0
M  V30 10187 N 991.805 -0.723954 1.39988 0
M  V30 10188 C 992.737 -1.84859 1.35498 0
M  V30 10189 C 993.75 -1.60681 0.261812 0
M  V30 10190 O 994.939 -1.7071 0.521566 0
M  V30 10191 C 992.039 -3.21103 1.08381 0
M  V30 10192 C 991.212 -3.72546 2.2919 0
M  V30 10193 C 990.271 -4.8738 1.9836 0
M  V30 10194 O 989.297 -5.00467 2.71149 0
M  V30 10195 N 990.499 -5.72566 0.956461 0
M  V30 10196 H 993.264 -1.89212 2.3242 0
M  V30 10197 H 990.825 -0.905152 1.34233 0
M  V30 10198 H 992.817 -3.9551 0.857564 0
M  V30 10199 H 991.387 -3.1195 0.201549 0
M  V30 10200 H 990.607 -2.89365 2.67697 0
M  V30 10201 H 991.895 -4.03652 3.09746 0
M  V30 10202 H 991.293 -5.64595 0.353444 0
M  V30 10203 H 989.85 -6.46993 0.790118 0
M  V30 10204 N 993.283 -1.25346 -0.955304 0
M  V30 10205 C 994.231 -1.05461 -2.07318 0
M  V30 10206 C 995.225 0.0142699 -1.69394 0
M  V30 10207 O 996.431 -0.141292 -1.79445 0
M  V30 10208 H 992.806 -0.324095 -0.678577 0
M  V30 10209 H 994.777 -2.00231 -2.21247 0
M  V30 10210 C 993.526 -0.689329 -3.40798 0
M  V30 10211 H 992.849 -1.50362 -3.70447 0
M  V30 10212 H 994.289 -0.589883 -4.19877 0
M  V30 10213 C 992.748 0.604556 -3.31431 0
M  V30 10214 O 993.278 1.64686 -3.6639 0
M  V30 10215 N 991.484 0.589927 -2.84549 0
M  V30 10216 H 991.031 -0.258647 -2.56298 0
M  V30 10217 H 990.989 1.4558 -2.78664 0
M  V30 10218 N 994.761 1.15782 -1.06922 0
M  V30 10219 C 995.724 2.18578 -0.689654 0
M  V30 10220 C 996.724 1.58553 0.267872 0
M  V30 10221 O 997.914 1.7413 0.0494097 0
M  V30 10222 C 995.046 3.40896 -0.0157919 0
M  V30 10223 H 996.239 2.53672 -1.59971 0
M  V30 10224 H 993.792 1.30168 -0.865214 0
M  V30 10225 H 994.527 3.11367 0.906712 0
M  V30 10226 H 994.312 3.85721 -0.704415 0
M  V30 10227 H 995.802 4.16937 0.235266 0
M  V30 10228 N 996.239 0.8527 1.3254 0
M  V30 10229 C 997.487 0.454224 1.96929 0
M  V30 10230 C 997.808 -0.993034 1.67821 0
M  V30 10231 O 997.078 -1.69371 0.984393 0
M  V30 10232 H 995.658 0.164977 0.728554 0
M  V30 10233 H 998.32 1.0887 1.61658 0
M  V30 10234 H 997.416 0.597667 3.06324 0
M  V30 10235 N 997.718 -1.45297 0.610449 0
M  V30 10236 C 998.995 -1.95562 0.0386189 0
M  V30 10237 C 999.375 -1.55284 -1.43004 0
M  V30 10238 O 998.723 -0.816785 -2.13403 0
M  V30 10239 C 998.933 -3.48176 0.239731 0
M  V30 10240 C 1000.28 -4.24425 0.122035 0
M  V30 10241 O 1001.3 -3.55794 0.170003 0
M  V30 10242 O 1000.16 -5.46499 0.00953695 0
M  V30 10243 H 997.258 -0.826296 -0.0341081 0
M  V30 10244 H 999.804 -1.55449 0.68071 0
M  V30 10245 H 998.576 -3.70471 1.25963 0
M  V30 10246 H 998.199 -3.95186 -0.437486 0
M  V30 10247 N 999.196 -0.349774 -1.5367 0
M  V30 10248 C 1000.44 0.245189 -2.01312 0
M  V30 10249 C 1000.77 1.49702 -1.23705 0
M  V30 10250 O 1000.05 1.91742 -0.326371 0
M  V30 10251 C 1000.33 0.553071 -3.55827 0
M  V30 10252 C 1000.19 -0.71129 -4.4414 0
M  V30 10253 C 1001.5 1.36015 -4.18555 0
M  V30 10254 H 998.624 0.0876415 -0.73177 0
M  V30 10255 H 1001.27 -0.471543 -1.84056 0
M  V30 10256 H 999.416 1.16367 -3.70663 0
M  V30 10257 H 1001.09 -1.34913 -4.41131 0
M  V30 10258 H 999.331 -1.33491 -4.1275 0
M  V30 10259 H 1000 -0.45104 -5.50154 0
M  V30 10260 H 1002.48 0.843778 -4.07455 0
M  V30 10261 H 1001.35 1.54432 -5.26728 0
M  V30 10262 H 1001.61 2.36408 -3.73582 0
M  V30 10263 N 1000.67 1.57404 -0.0785433 0
M  V30 10264 C 1001.64 2.11977 0.871693 0
M  V30 10265 C 1002.64 1.04529 1.2219 0
M  V30 10266 O 1003.83 1.30488 1.15406 0
M  V30 10267 C 1000.96 2.6267 2.17296 0
M  V30 10268 H 1002.15 2.97246 0.398115 0
M  V30 10269 H 999.705 1.5537 0.170251 0
M  V30 10270 H 1000.44 1.80873 2.69175 0
M  V30 10271 H 1000.22 3.41214 1.93171 0
M  V30 10272 H 1001.71 3.04943 2.85306 0
M  V30 10273 N 1002.15 -0.195058 1.56388 0
M  V30 10274 C 1003.38 -0.930291 1.8447 0
M  V30 10275 C 1003.79 -1.77356 0.658901 0
M  V30 10276 O 1003.13 -1.79691 -0.381664 0
M  V30 10277 C 1003.19 -1.87626 3.06654 0
M  V30 10278 C 1002.86 -1.21494 4.40555 0
M  V30 10279 C 1003.86 -0.591847 5.1652 0
M  V30 10280 C 1001.54 -1.21878 4.8729 0
M  V30 10281 C 1003.53 0.0185743 6.37397 0
M  V30 10282 C 1001.22 -0.604524 6.08103 0
M  V30 10283 C 1002.22 0.0130731 6.82999 0
M  V30 10284 O 1001.91 0.617703 8.01523 0
M  V30 10285 H 1001.64 -0.276933 0.616672 0
M  V30 10286 H 1004.19 -0.207277 2.04351 0
M  V30 10287 H 1002.42 -2.63897 2.82658 0
M  V30 10288 H 1004.11 -2.47929 3.21382 0
M  V30 10289 H 1004.88 -0.581018 4.81507 0
M  V30 10290 H 1000.76 -1.68888 4.2895 0
M  V30 10291 H 1004.3 0.50124 6.95797 0
M  V30 10292 H 1000.2 -0.612855 6.42584 0
M  V30 10293 H 1000.97 0.514612 8.16881 0
M  V30 10294 N 1003.63 -1.50653 -0.462772 0
M  V30 10295 C 1005.05 -1.38263 -0.797213 0
M  V30 10296 C 1005.25 -0.445172 -1.96521 0
M  V30 10297 O 1004.3 0.10913 -2.52264 0
M  V30 10298 C 1005.61 -2.798 -1.10146 0
M  V30 10299 C 1007.16 -2.88774 -1.20742 0
M  V30 10300 C 1007.64 -4.31163 -1.54476 0
M  V30 10301 N 1009.13 -4.34152 -1.61451 0
M  V30 10302 C 1009.86 -5.4133 -1.89074 0
M  V30 10303 N 1009.36 -6.58705 -2.1466 0
M  V30 10304 N 1011.15 -5.28783 -1.90645 0
M  V30 10305 H 1003.3 -2.10172 0.30684 0
M  V30 10306 H 1005.57 -0.945046 0.0747862 0
M  V30 10307 H 1005.27 -3.50276 -0.316207 0
M  V30 10308 H 1005.15 -3.17559 -2.03559 0
M  V30 10309 H 1007.53 -2.18512 -1.98334 0
M  V30 10310 H 1007.61 -2.54547 -0.252904 0
M  V30 10311 H 1007.26 -5.01965 -0.774207 0
M  V30 10312 H 1007.19 -4.62883 -2.51092 0
M  V30 10313 H 1009.68 -3.49519 -1.43684 0
M  V30 10314 H 1009.99 -7.36192 -2.35035 0
M  V30 10315 H 1008.34 -6.61866 -2.12035 0
M  V30 10316 H 1011.53 -4.36078 -1.70158 0
M  V30 10317 H 1011.7 -6.12396 -2.11836 0
M  V30 10318 N 1005.11 0.71652 -1.4037 0
M  V30 10319 C 1006.52 1.29562 -1.34427 0
M  V30 10320 C 1006.87 1.96192 -0.0173106 0
M  V30 10321 O 1006 1.97488 0.884719 0
M  V30 10322 C 1006.59 2.35601 -2.4347 0
M  V30 10323 C 1005.15 2.89138 -2.4099 0
M  V30 10324 C 1004.3 1.62915 -2.24397 0
M  V30 10325 H 1007.25 0.512715 -1.5019 0
M  V30 10326 H 1007.27 3.16422 -2.11323 0
M  V30 10327 H 1006.78 1.87077 -3.40035 0
M  V30 10328 H 1004.88 3.41894 -1.4812 0
M  V30 10329 H 1004.99 3.40995 -3.3654 0
M  V30 10330 H 1003.36 1.87947 -1.71896 0
M  V30 10331 H 1004.14 1.16417 -3.22958 0
M  V30 10332 N 1006.59 1.25851 0.948643 0
M  V30 10333 C 1007.52 1.0108 2.04593 0
M  V30 10334 C 1008.5 -0.0619691 1.62482 0
M  V30 10335 O 1009.68 0.0789196 1.88335 0
M  V30 10336 C 1006.81 0.529174 3.34541 0
M  V30 10337 C 1005.85 1.59337 3.95618 0
M  V30 10338 S 1006.69 3.18026 4.30836 0
M  V30 10339 C 1007.84 2.71613 5.63895 0
M  V30 10340 H 1008.08 1.93988 2.2529 0
M  V30 10341 H 1005.61 1.09448 1.08906 0
M  V30 10342 H 1007.57 0.25795 4.09689 0
M  V30 10343 H 1006.23 -0.37951 3.11799 0
M  V30 10344 H 1005.42 1.20722 4.89328 0
M  V30 10345 H 1005.02 1.81559 3.26975 0
M  V30 10346 H 1007.32 2.15612 6.42275 0
M  V30 10347 H 1008.26 3.63986 6.07387 0
M  V30 10348 H 1008.67 2.11417 5.23415 0
M  V30 10349 N 1008.06 -1.15214 1.07534 0
M  V30 10350 C 1009.03 -2.18209 0.701237 0
M  V30 10351 C 1010.03 -1.58693 -0.25946 0
M  V30 10352 O 1011.22 -1.74154 -0.0401744 0
M  V30 10353 C 1008.35 -3.40883 0.0338703 0
M  V30 10354 H 1009.54 -2.5282 1.61314 0
M  V30 10355 H 1007.1 -1.29707 0.872105 0
M  V30 10356 H 1007.83 -3.11843 -0.890187 0
M  V30 10357 H 1007.62 -3.85342 0.72486 0
M  V30 10358 H 1009.11 -4.17056 -0.213152 0
M  V30 10359 N 1009.54 -0.859717 -1.32086 0
M  V30 10360 C 1010.95 -0.519529 -1.79326 0
M  V30 10361 C 1011.3 0.96295 -1.70944 0
M  V30 10362 O 1010.43 1.75139 -1.27104 0
M  V30 10363 C 1011.02 -0.936267 -3.25606 0
M  V30 10364 C 1009.58 -0.647899 -3.70782 0
M  V30 10365 C 1008.73 -1.13323 -2.53087 0
M  V30 10366 H 1011.68 -1.04643 -1.19312 0
M  V30 10367 H 1011.7 -0.254714 -3.79646 0
M  V30 10368 H 1011.21 -2.01527 -3.31675 0
M  V30 10369 H 1009.32 0.420172 -3.70223 0
M  V30 10370 H 1009.43 -1.21774 -4.63366 0
M  V30 10371 H 1007.79 -0.553325 -2.48617 0
M  V30 10372 H 1008.58 -2.21945 -2.61907 0
M  V30 10373 N 1011.02 1.44971 -0.618145 0
M  V30 10374 C 1011.97 2.32354 0.106846 0
M  V30 10375 C 1012.96 1.4659 0.848984 0
M  V30 10376 O 1014.17 1.63012 0.763354 0
M  V30 10377 H 1010.54 0.750108 0.0533109 0
M  V30 10378 H 1012.51 2.9127 -0.648426 0
M  V30 10379 C 1011.26 3.30381 1.08368 0
M  V30 10380 H 1010.59 3.96377 0.52205 0
M  V30 10381 H 1012.03 3.94231 1.56069 0
M  V30 10382 C 1010.49 2.58336 2.1625 0
M  V30 10383 O 1011.02 2.37258 3.24148 0
M  V30 10384 N 1009.22 2.18292 1.91825 0
M  V30 10385 H 1008.77 2.35635 1.04086 0
M  V30 10386 H 1008.73 1.70413 2.6421 0
M  V30 10387 N 1012.5 0.357919 1.53482 0
M  V30 10388 C 1013.75 -0.234163 2.01142 0
M  V30 10389 C 1014.07 -1.49399 1.2454 0
M  V30 10390 O 1013.33 -1.92981 0.325111 0
M  V30 10391 C 1013.63 -0.579617 3.52669 0
M  V30 10392 C 1013.29 0.584988 4.47089 0
M  V30 10393 C 1011.96 0.904558 4.72622 0
M  V30 10394 C 1014.31 1.3656 5.02992 0
M  V30 10395 C 1011.64 2.00685 5.5131 0
M  V30 10396 C 1013.99 2.45824 5.82884 0
M  V30 10397 C 1012.65 2.78325 6.06706 0
M  V30 10398 H 1011.92 -0.0856863 0.736029 0
M  V30 10399 H 1014.57 0.488801 1.85157 0
M  V30 10400 H 1012.87 -1.38349 3.66561 0
M  V30 10401 H 1014.57 -1.04985 3.87013 0
M  V30 10402 H 1011.16 0.32587 4.27359 0
M  V30 10403 H 1015.34 1.13196 4.83219 0
M  V30 10404 H 1010.6 2.26272 5.67988 0
M  V30 10405 H 1014.77 3.06732 6.25211 0
M  V30 10406 H 1012.4 3.63862 6.67464 0
M  V30 10407 N 1013.98 -1.5736 0.0868897 0
M  V30 10408 C 1015.25 -1.85495 -0.620561 0
M  V30 10409 C 1015.63 -0.982218 -1.86857 0
M  V30 10410 O 1014.98 -0.0524529 -2.2844 0
M  V30 10411 C 1015.19 -3.35996 -0.943798 0
M  V30 10412 C 1016.54 -4.03861 -1.31079 0
M  V30 10413 O 1017.56 -3.4083 -1.03507 0
M  V30 10414 O 1016.42 -5.15062 -1.82683 0
M  V30 10415 H 1013.52 -0.766822 -0.309697 0
M  V30 10416 H 1016.06 -1.69282 0.118966 0
M  V30 10417 H 1014.83 -3.91257 -0.0580628 0
M  V30 10418 H 1014.46 -3.57525 -1.73958 0
M  V30 10419 N 1015.45 0.186762 -1.56489 0
M  V30 10420 C 1016.73 0.932229 -1.71956 0
M  V30 10421 C 1017.11 2.01037 -0.644006 0
M  V30 10422 O 1016.46 2.259 0.343694 0
M  V30 10423 C 1016.67 1.51106 -3.14592 0
M  V30 10424 C 1018.02 1.98997 -3.75081 0
M  V30 10425 O 1019.04 1.60931 -3.17773 0
M  V30 10426 O 1017.9 2.69067 -4.75673 0
M  V30 10427 H 1014.99 0.437736 -0.701652 0
M  V30 10428 H 1017.54 0.175803 -1.68787 0
M  V30 10429 H 1016.31 0.734327 -3.84348 0
M  V30 10430 H 1015.94 2.33209 -3.22024 0
M  V30 10431 N 1016.93 1.50896 0.454776 0
M  V30 10432 C 1018.16 1.66759 1.23313 0
M  V30 10433 C 1018.58 0.35722 1.84677 0
M  V30 10434 O 1017.94 -0.680771 1.68033 0
M  V30 10435 C 1017.99 2.77254 2.3057 0
M  V30 10436 O 1017.09 2.39642 3.35627 0
M  V30 10437 H 1016.43 0.556599 0.362068 0
M  V30 10438 H 1018.96 1.97365 0.539274 0
M  V30 10439 H 1018.97 3.0082 2.75629 0
M  V30 10440 H 1017.65 3.72349 1.85281 0
M  V30 10441 H 1016.23 2.26584 2.96165 0
M  V30 10442 N 1018.41 -0.709066 1.40748 0
M  V30 10443 C 1019.66 -1.4646 1.38681 0
M  V30 10444 C 1019.97 -1.95599 -0.0056209 0
M  V30 10445 O 1021.18 -2.71091 -0.148907 0
M  V30 10446 C 1019.63 -2.64771 2.43771 0
M  V30 10447 C 1019.24 -2.22474 3.88856 0
M  V30 10448 C 1020.99 -3.42475 2.50821 0
M  V30 10449 C 1018.89 -3.37663 4.85528 0
M  V30 10450 H 1017.82 -0.550084 0.515678 0
M  V30 10451 H 1020.47 -0.771074 1.66513 0
M  V30 10452 H 1018.86 -3.36325 2.09048 0
M  V30 10453 H 1020.03 -1.58297 4.32757 0
M  V30 10454 H 1018.35 -1.57798 3.85342 0
M  V30 10455 H 1020.94 -4.28201 3.20232 0
M  V30 10456 H 1021.29 -3.86738 1.54076 0
M  V30 10457 H 1021.82 -2.77969 2.84567 0
M  V30 10458 H 1018.56 -2.98426 5.83628 0
M  V30 10459 H 1018.08 -4.00734 4.46287 0
M  V30 10460 H 1019.76 -4.03636 5.05655 0
M  V30 10461 N 1019.89 -1.26353 -0.941956 0
M  V30 10462 C 1020.85 -1.07904 -2.02211 0
M  V30 10463 C 1021.85 -0.0276283 -1.60776 0
M  V30 10464 O 1023.04 -0.270965 -1.7208 0
M  V30 10465 C 1020.17 -0.641084 -3.34818 0
M  V30 10466 H 1021.37 -2.03804 -2.20009 0
M  V30 10467 H 1018.92 -1.08939 -1.12081 0
M  V30 10468 H 1019.66 0.319943 -3.22718 0
M  V30 10469 H 1019.44 -1.40027 -3.66244 0
M  V30 10470 H 1020.93 -0.533826 -4.14174 0
M  V30 10471 N 1021.37 1.14642 -1.08144 0
M  V30 10472 C 1022.61 1.85617 -0.809484 0
M  V30 10473 C 1022.94 1.8279 0.664672 0
M  V30 10474 O 1022.2 1.25178 1.50429 0
M  V30 10475 C 1022.5 3.33953 -1.2732 0
M  V30 10476 C 1022.16 3.56969 -2.7547 0
M  V30 10477 C 1020.82 3.6296 -3.15933 0
M  V30 10478 C 1023.18 3.66014 -3.71057 0
M  V30 10479 C 1020.5 3.75515 -4.50783 0
M  V30 10480 C 1022.86 3.80094 -5.05679 0
M  V30 10481 C 1021.52 3.84333 -5.45751 0
M  V30 10482 H 1020.79 0.67922 -0.296211 0
M  V30 10483 H 1023.44 1.35433 -1.35389 0
M  V30 10484 H 1021.74 3.86399 -0.648329 0
M  V30 10485 H 1023.44 3.87291 -1.03957 0
M  V30 10486 H 1020.03 3.52953 -2.4315 0
M  V30 10487 H 1024.21 3.60679 -3.40917 0
M  V30 10488 H 1019.47 3.77057 -4.81288 0
M  V30 10489 H 1023.64 3.86035 -5.79612 0
M  V30 10490 H 1021.27 3.93814 -6.50242 0
M  V30 10491 N 1022.85 0.866709 1.31628 0
M  V30 10492 C 1023.78 0.335762 2.31073 0
M  V30 10493 C 1024.76 -0.571597 1.60209 0
M  V30 10494 O 1025.94 -0.489306 1.87935 0
M  V30 10495 C 1023.07 -0.466416 3.44154 0
M  V30 10496 C 1022.03 0.347561 4.26586 0
M  V30 10497 C 1021.35 -0.5801 5.31544 0
M  V30 10498 C 1022.65 1.57986 4.97833 0
M  V30 10499 H 1024.35 1.16673 2.75731 0
M  V30 10500 H 1021.89 0.56248 1.3256 0
M  V30 10501 H 1023.84 -0.84836 4.12772 0
M  V30 10502 H 1022.57 -1.33086 2.98254 0
M  V30 10503 H 1021.23 0.71141 3.59631 0
M  V30 10504 H 1020.88 -1.44174 4.81895 0
M  V30 10505 H 1020.58 -0.0393965 5.87587 0
M  V30 10506 H 1022.1 -0.958958 6.03023 0
M  V30 10507 H 1023.51 1.26954 5.59067 0
M  V30 10508 H 1021.91 2.05939 5.63657 0
M  V30 10509 H 1022.98 2.3345 4.25005 0
M  V30 10510 N 1024.32 -1.44642 0.625825 0
M  V30 10511 C 1025.29 -2.29085 -0.072526 0
M  V30 10512 C 1026.29 -1.40755 -0.777467 0
M  V30 10513 O 1027.48 -1.62684 -0.622861 0
M  V30 10514 C 1024.61 -3.22212 -1.1132 0
M  V30 10515 H 1025.8 -2.92317 0.670124 0
M  V30 10516 H 1023.35 -1.51466 0.38571 0
M  V30 10517 H 1024.09 -2.63819 -1.88601 0
M  V30 10518 H 1023.87 -3.87299 -0.611709 0
M  V30 10519 H 1025.36 -3.8566 -1.60175 0
M  V30 10520 N 1025.8 -0.366053 -1.5329 0
M  V30 10521 C 1026.76 0.467904 -2.24373 0
M  V30 10522 C 1027.76 1.00934 -1.25176 0
M  V30 10523 O 1028.95 0.895015 -1.49449 0
M  V30 10524 C 1026.09 1.65405 -2.98084 0
M  V30 10525 H 1027.28 -0.154105 -2.99504 0
M  V30 10526 H 1024.83 -0.117751 -1.55856 0
M  V30 10527 H 1025.57 2.31413 -2.27197 0
M  V30 10528 H 1025.35 1.27277 -3.70868 0
M  V30 10529 H 1026.84 2.24503 -3.52119 0
M  V30 10530 N 1027.28 1.57312 -0.0952337 0
M  V30 10531 C 1028.21 2.11059 0.893678 0
M  V30 10532 C 1029.22 1.04787 1.24594 0
M  V30 10533 O 1030.41 1.32233 1.19903 0
M  V30 10534 C 1027.51 2.57552 2.20272 0
M  V30 10535 C 1026.69 3.87661 2.02578 0
M  V30 10536 C 1025.75 4.2 3.16996 0
M  V30 10537 O 1024.77 4.89219 2.90953 0
M  V30 10538 N 1025.97 3.75414 4.42769 0
M  V30 10539 H 1028.74 2.96532 0.434632 0
M  V30 10540 H 1026.3 1.6165 0.0898661 0
M  V30 10541 H 1028.29 2.76232 2.95766 0
M  V30 10542 H 1026.86 1.7709 2.576 0
M  V30 10543 H 1026.08 3.78128 1.11413 0
M  V30 10544 H 1027.37 4.7278 1.88032 0
M  V30 10545 H 1026.77 3.1954 4.66809 0
M  V30 10546 H 1025.32 3.99249 5.15212 0
M  V30 10547 N 1028.76 -0.17846 1.56586 0
M  V30 10548 C 1029.67 -1.24115 1.9908 0
M  V30 10549 C 1030.68 -1.48854 0.901031 0
M  V30 10550 O 1031.86 -1.61142 1.2081 0
M  V30 10551 C 1028.92 -2.56187 2.33601 0
M  V30 10552 C 1027.99 -2.39373 3.56369 0
M  V30 10553 C 1027.22 -3.65147 3.89234 0
M  V30 10554 O 1027.44 -4.70024 3.23162 0
M  V30 10555 O 1026.38 -3.59683 4.82609 0
M  V30 10556 H 1030.2 -0.910482 2.89731 0
M  V30 10557 H 1027.79 -0.38477 1.4436 0
M  V30 10558 H 1029.67 -3.34109 2.56806 0
M  V30 10559 H 1028.34 -2.88847 1.46113 0
M  V30 10560 H 1027.25 -1.59506 3.38391 0
M  V30 10561 H 1028.58 -2.1164 4.44375 0
M  V30 10562 N 1030.24 -1.51135 -0.446768 0
M  V30 10563 C 1031.17 -1.74709 -1.54916 0
M  V30 10564 C 1032.15 -0.596628 -1.59293 0
M  V30 10565 O 1033.33 -0.838356 -1.75172 0
M  V30 10566 C 1030.46 -1.86353 -2.9307 0
M  V30 10567 C 1029.42 -3.01725 -3.03556 0
M  V30 10568 C 1028.74 -2.9854 -4.43597 0
M  V30 10569 C 1030.04 -4.41848 -2.7851 0
M  V30 10570 H 1031.74 -2.67014 -1.3544 0
M  V30 10571 H 1029.28 -1.28489 -0.650131 0
M  V30 10572 H 1031.23 -2.01428 -3.70141 0
M  V30 10573 H 1029.96 -0.906887 -3.13756 0
M  V30 10574 H 1028.62 -2.86339 -2.28922 0
M  V30 10575 H 1028.27 -2.00673 -4.61237 0
M  V30 10576 H 1027.97 -3.76008 -4.51544 0
M  V30 10577 H 1029.49 -3.15696 -5.22655 0
M  V30 10578 H 1030.9 -4.57633 -3.45319 0
M  V30 10579 H 1029.3 -5.2095 -2.97877 0
M  V30 10580 H 1030.37 -4.52536 -1.74182 0
M  V30 10581 N 1031.71 0.701592 -1.41122 0
M  V30 10582 C 1032.96 1.45722 -1.39456 0
M  V30 10583 C 1033.28 1.95599 -0.00475228 0
M  V30 10584 O 1034.48 2.71166 0.134529 0
M  V30 10585 C 1032.94 2.63475 -2.45172 0
M  V30 10586 C 1032.55 2.20409 -3.90031 0
M  V30 10587 C 1034.29 3.4114 -2.52633 0
M  V30 10588 C 1032.2 3.35084 -4.87312 0
M  V30 10589 H 1031.13 0.547341 -0.518588 0
M  V30 10590 H 1033.78 0.762233 -1.6692 0
M  V30 10591 H 1032.16 3.35212 -2.10829 0
M  V30 10592 H 1033.33 1.56 -4.3359 0
M  V30 10593 H 1031.65 1.55752 -3.86174 0
M  V30 10594 H 1034.25 4.26496 -3.22498 0
M  V30 10595 H 1034.59 3.85915 -1.56125 0
M  V30 10596 H 1035.12 2.76456 -2.86037 0
M  V30 10597 H 1031.86 2.95327 -5.85203 0
M  V30 10598 H 1031.38 3.98362 -4.48406 0
M  V30 10599 H 1033.06 4.00949 -5.07788 0
M  V30 10600 N 1033.19 1.2685 0.935242 0
M  V30 10601 C 1034.12 1.1143 2.05196 0
M  V30 10602 C 1035.1 0.0178362 1.70091 0
M  V30 10603 O 1036.29 0.190951 1.93259 0
M  V30 10604 C 1033.42 0.752779 3.39044 0
M  V30 10605 C 1032.37 1.80164 3.88233 0
M  V30 10606 C 1031.7 1.29428 5.18799 0
M  V30 10607 C 1033 3.20431 4.12457 0
M  V30 10608 H 1034.69 2.04845 2.18355 0
M  V30 10609 H 1032.24 0.986276 1.04922 0
M  V30 10610 H 1034.19 0.631757 4.16637 0
M  V30 10611 H 1032.91 -0.217075 3.25878 0
M  V30 10612 H 1031.57 1.91144 3.12825 0
M  V30 10613 H 1031.22 0.3141 5.02018 0
M  V30 10614 H 1030.92 1.99546 5.5268 0
M  V30 10615 H 1032.45 1.18605 5.9897 0
M  V30 10616 H 1033.86 3.12495 4.80645 0
M  V30 10617 H 1032.26 3.88193 4.57631 0
M  V30 10618 H 1033.33 3.66046 3.18023 0
M  V30 10619 N 1034.67 -1.14067 1.0875 0
M  V30 10620 C 1035.9 -1.89582 0.841038 0
M  V30 10621 C 1036.32 -1.78226 -0.601436 0
M  V30 10622 O 1035.68 -1.12491 -1.42181 0
M  V30 10623 C 1035.73 -3.37415 1.27213 0
M  V30 10624 O 1034.83 -4.10191 0.426246 0
M  V30 10625 H 1034.17 -0.589716 0.305173 0
M  V30 10626 H 1036.7 -1.44364 1.44984 0
M  V30 10627 H 1036.71 -3.88234 1.25451 0
M  V30 10628 H 1035.39 -3.44999 2.32268 0
M  V30 10629 H 1033.96 -3.69429 0.507585 0
M  V30 10630 N 1036.15 -0.873678 -1.31166 0
M  V30 10631 C 1037.4 -0.485497 -1.96182 0
M  V30 10632 C 1037.72 0.96621 -1.69379 0
M  V30 10633 O 1036.99 1.67783 -1.01121 0
M  V30 10634 H 1035.57 -0.176547 -0.725838 0
M  V30 10635 H 1038.23 -1.11428 -1.59906 0
M  V30 10636 H 1037.33 -0.646325 -3.05334 0
M  V30 10637 N 1037.63 1.44308 -0.633487 0
M  V30 10638 C 1038.59 2.2912 0.060376 0
M  V30 10639 C 1039.59 1.41166 0.769992 0
M  V30 10640 O 1040.78 1.63012 0.614224 0
M  V30 10641 C 1037.91 3.22798 1.0961 0
M  V30 10642 H 1039.1 2.91958 -0.685617 0
M  V30 10643 H 1036.66 1.51259 -0.393738 0
M  V30 10644 H 1037.39 2.64815 1.87199 0
M  V30 10645 H 1037.18 3.87618 0.591161 0
M  V30 10646 H 1038.67 3.86504 1.58127 0
M  V30 10647 N 1039.1 0.374177 1.53094 0
M  V30 10648 C 1040.04 -0.503065 2.23611 0
M  V30 10649 C 1041.05 -1.03915 1.25321 0
M  V30 10650 O 1042.24 -0.944064 1.51492 0
M  V30 10651 C 1039.34 -1.70825 2.92698 0
M  V30 10652 C 1038.51 -1.30217 4.17567 0
M  V30 10653 C 1037.57 -2.37036 4.69788 0
M  V30 10654 O 1036.6 -1.99069 5.33254 0
M  V30 10655 N 1037.8 -3.68743 4.4834 0
M  V30 10656 H 1040.56 0.101013 2.9953 0
M  V30 10657 H 1038.12 0.199778 1.60663 0
M  V30 10658 H 1040.12 -2.41779 3.24538 0
M  V30 10659 H 1038.69 -2.219 2.2018 0
M  V30 10660 H 1037.91 -0.422121 3.91933 0
M  V30 10661 H 1039.19 -1.00728 4.9873 0
M  V30 10662 H 1038.59 -4.0236 3.97647 0
M  V30 10663 H 1037.15 -4.35776 4.84709 0
M  V30 10664 N 1040.58 -1.57259 0.103575 0
M  V30 10665 C 1041.51 -2.1153 -0.882472 0
M  V30 10666 C 1042.53 -1.05446 -1.24036 0
M  V30 10667 O 1043.72 -1.32867 -1.192 0
M  V30 10668 C 1040.82 -2.58717 -2.18903 0
M  V30 10669 C 1039.99 -3.8873 -2.00519 0
M  V30 10670 C 1039.05 -4.21675 -3.14764 0
M  V30 10671 O 1038.07 -4.90755 -2.88355 0
M  V30 10672 N 1039.28 -3.77757 -4.40772 0
M  V30 10673 H 1042.04 -2.96758 -0.418901 0
M  V30 10674 H 1039.6 -1.61696 -0.0812921 0
M  V30 10675 H 1041.59 -2.77797 -2.94297 0
M  V30 10676 H 1040.16 -1.78454 -2.56657 0
M  V30 10677 H 1039.38 -3.78714 -1.09406 0
M  V30 10678 H 1040.67 -4.73771 -1.85522 0
M  V30 10679 H 1040.07 -3.22011 -4.65108 0
M  V30 10680 H 1038.63 -4.01975 -5.13088 0
M  V30 10681 N 1042.06 0.170153 -1.56679 0
M  V30 10682 C 1043.47 0.732502 -1.7173 0
M  V30 10683 C 1043.82 1.82736 -0.71428 0
M  V30 10684 O 1042.95 2.16044 0.124102 0
M  V30 10685 C 1043.54 1.33548 -3.11368 0
M  V30 10686 C 1042.1 1.84464 -3.281 0
M  V30 10687 C 1041.25 0.724069 -2.6768 0
M  V30 10688 H 1044.2 -0.0552543 -1.58604 0
M  V30 10689 H 1044.22 2.20519 -3.10083 0
M  V30 10690 H 1043.73 0.5384 -3.84347 0
M  V30 10691 H 1041.83 2.66813 -2.6008 0
M  V30 10692 H 1041.95 1.98928 -4.35849 0
M  V30 10693 H 1040.31 1.14481 -2.27522 0
M  V30 10694 H 1041.09 -0.0611861 -3.43245 0
M  V30 10695 N 1043.54 1.5137 0.438746 0
M  V30 10696 C 1044.49 1.73154 1.55308 0
M  V30 10697 C 1045.48 0.597825 1.58501 0
M  V30 10698 O 1046.69 0.77917 1.62262 0
M  V30 10699 H 1043.06 0.547083 0.51595 0
M  V30 10700 H 1045.03 2.66566 1.34108 0
M  V30 10701 C 1043.78 1.87242 2.92977 0
M  V30 10702 H 1043.1 2.73884 2.91252 0
M  V30 10703 H 1044.54 2.06497 3.70317 0
M  V30 10704 C 1043 0.631887 3.30921 0
M  V30 10705 O 1043.53 -0.214099 4.01129 0
M  V30 10706 N 1041.74 0.47639 2.86669 0
M  V30 10707 H 1041.29 1.16589 2.29706 0
M  V30 10708 H 1041.24 -0.352403 3.12419 0
M  V30 10709 N 1045.02 -0.694098 1.41492 0
M  V30 10710 C 1046.26 -1.45127 1.4065 0
M  V30 10711 C 1046.59 -1.94993 0.0170289 0
M  V30 10712 O 1045.86 -1.71799 -0.941372 0
M  V30 10713 H 1044.44 -0.538493 0.51772 0
M  V30 10714 H 1047.1 -0.821441 1.76744 0
M  V30 10715 H 1046.19 -2.31372 2.0946 0
M  V30 10716 N 1046.49 -1.27344 -0.928501 0
M  V30 10717 C 1047.72 -1.16278 -1.70772 0
M  V30 10718 C 1048.13 0.283131 -1.8707 0
M  V30 10719 O 1047.48 1.20466 -1.38685 0
M  V30 10720 C 1047.54 -1.77313 -3.1273 0
M  V30 10721 C 1047.2 -3.26488 -3.19773 0
M  V30 10722 C 1048.2 -4.23133 -3.02083 0
M  V30 10723 C 1045.88 -3.67182 -3.42757 0
M  V30 10724 C 1047.88 -5.5845 -3.07267 0
M  V30 10725 C 1045.56 -5.02629 -3.47574 0
M  V30 10726 C 1046.56 -5.98072 -3.29847 0
M  V30 10727 O 1046.25 -7.3105 -3.34397 0
M  V30 10728 H 1045.98 -0.405215 -0.541089 0
M  V30 10729 H 1048.54 -1.68707 -1.17163 0
M  V30 10730 H 1046.77 -1.19361 -3.67818 0
M  V30 10731 H 1048.46 -1.60972 -3.72616 0
M  V30 10732 H 1049.22 -3.93031 -2.84168 0
M  V30 10733 H 1045.1 -2.93369 -3.55606 0
M  V30 10734 H 1048.64 -6.32924 -2.93348 0
M  V30 10735 H 1044.54 -5.32387 -3.65013 0
M  V30 10736 H 1045.31 -7.39488 -3.50857 0
M  V30 10737 N 1047.97 1.13488 -1.09353 0
M  V30 10738 C 1049.2 1.88592 -0.850915 0
M  V30 10739 C 1049.62 1.79087 0.597761 0
M  V30 10740 O 1048.97 1.15695 1.41142 0
M  V30 10741 C 1049.02 3.38219 -1.27633 0
M  V30 10742 O 1048.74 3.47476 -2.66819 0
M  V30 10743 C 1050.25 4.30293 -1.06598 0
M  V30 10744 H 1047.47 0.597069 -0.306185 0
M  V30 10745 H 1050.01 1.43668 -1.45533 0
M  V30 10746 H 1048.16 3.80729 -0.715828 0
M  V30 10747 H 1048.58 4.40485 -2.84733 0
M  V30 10748 H 1050.05 5.33611 -1.41293 0
M  V30 10749 H 1050.53 4.392 -0.0037135 0
M  V30 10750 H 1051.14 3.9355 -1.6124 0
M  V30 10751 N 1049.45 0.880621 1.30701 0
M  V30 10752 C 1050.36 0.348034 2.32004 0
M  V30 10753 C 1051.38 -0.547508 1.65162 0
M  V30 10754 O 1052.55 -0.441673 1.96497 0
M  V30 10755 C 1049.62 -0.432585 3.43991 0
M  V30 10756 C 1048.68 0.492189 4.26469 0
M  V30 10757 C 1047.91 -0.25127 5.33108 0
M  V30 10758 O 1048.14 -1.47795 5.5092 0
M  V30 10759 O 1047.07 0.396376 6.00593 0
M  V30 10760 H 1050.9 1.18798 2.79501 0
M  V30 10761 H 1048.48 0.64432 1.34792 0
M  V30 10762 H 1050.36 -0.874733 4.12221 0
M  V30 10763 H 1049.04 -1.2489 2.98637 0
M  V30 10764 H 1047.94 0.983058 3.60953 0
M  V30 10765 H 1049.28 1.27439 4.75416 0
M  V30 10766 N 1050.93 -1.4397 0.641131 0
M  V30 10767 C 1052.34 -1.85267 0.230838 0
M  V30 10768 C 1052.69 -1.53659 -1.21998 0
M  V30 10769 O 1051.82 -0.979572 -1.92959 0
M  V30 10770 C 1052.41 -3.36284 0.412171 0
M  V30 10771 C 1050.97 -3.76358 0.0563004 0
M  V30 10772 C 1050.12 -2.67768 0.720809 0
M  V30 10773 H 1053.07 -1.34294 0.845624 0
M  V30 10774 H 1053.09 -3.78924 -0.345936 0
M  V30 10775 H 1052.6 -3.59258 1.46818 0
M  V30 10776 H 1050.7 -3.58997 -0.997582 0
M  V30 10777 H 1050.82 -4.76756 0.473335 0
M  V30 10778 H 1049.18 -2.54227 0.155164 0
M  V30 10779 H 1049.96 -2.93573 1.77961 0
M  V30 10780 N 1052.41 -0.382291 -1.52893 0
M  V30 10781 C 1053.66 0.203342 -2.00672 0
M  V30 10782 C 1053.97 1.48487 -1.27322 0
M  V30 10783 O 1055.18 2.15013 -1.65776 0
M  V30 10784 C 1053.63 0.412922 -3.57523 0
M  V30 10785 C 1053.24 -0.854949 -4.39767 0
M  V30 10786 C 1054.98 0.955301 -4.13611 0
M  V30 10787 C 1052.89 -0.614033 -5.88204 0
M  V30 10788 H 1051.82 0.0797635 -0.749769 0
M  V30 10789 H 1054.47 -0.50361 -1.76454 0
M  V30 10790 H 1052.85 1.18155 -3.77962 0
M  V30 10791 H 1054.03 -1.62765 -4.31096 0
M  V30 10792 H 1052.34 -1.32176 -3.94865 0
M  V30 10793 H 1054.94 1.15114 -5.22162 0
M  V30 10794 H 1055.28 1.92233 -3.69259 0
M  V30 10795 H 1055.82 0.24642 -3.97036 0
M  V30 10796 H 1052.55 -1.55187 -6.36865 0
M  V30 10797 H 1052.07 0.119865 -5.9968 0
M  V30 10798 H 1053.75 -0.245895 -6.46533 0
M  V30 10799 N 1053.89 1.57202 -0.111913 0
M  V30 10800 C 1054.82 2.17957 0.837683 0
M  V30 10801 C 1055.8 1.1176 1.28233 0
M  V30 10802 O 1056.98 1.39967 1.34621 0
M  V30 10803 C 1054.11 2.77333 2.09054 0
M  V30 10804 C 1053.07 3.8905 1.78393 0
M  V30 10805 C 1052.39 4.35203 3.10649 0
M  V30 10806 C 1053.69 5.11477 1.05775 0
M  V30 10807 H 1055.39 2.9756 0.331441 0
M  V30 10808 H 1052.93 1.43131 0.157979 0
M  V30 10809 H 1054.88 3.18492 2.75936 0
M  V30 10810 H 1053.61 1.95009 2.6199 0
M  V30 10811 H 1052.27 3.48456 1.13903 0
M  V30 10812 H 1051.92 3.49747 3.61506 0
M  V30 10813 H 1051.62 5.10534 2.9091 0
M  V30 10814 H 1053.14 4.79007 3.78661 0
M  V30 10815 H 1054.55 5.497 1.62798 0
M  V30 10816 H 1052.95 5.92346 0.961573 0
M  V30 10817 H 1054.02 4.84881 0.043297 0
M  V30 10818 N 1055.36 -0.161842 1.56767 0
M  V30 10819 C 1056.31 -1.20506 1.93552 0
M  V30 10820 C 1057.3 -1.39317 0.804952 0
M  V30 10821 O 1058.49 -1.41129 1.06825 0
M  V30 10822 C 1055.62 -2.54227 2.30702 0
M  V30 10823 C 1054.7 -2.3907 3.50295 0
M  V30 10824 N 1055.1 -1.93642 4.67265 0
M  V30 10825 C 1053.39 -2.69868 3.55088 0
M  V30 10826 C 1054.09 -1.91175 5.49388 0
M  V30 10827 N 1053.07 -2.33935 4.90689 0
M  V30 10828 H 1056.87 -0.845687 2.8147 0
M  V30 10829 H 1054.39 -0.370034 1.58128 0
M  V30 10830 H 1056.38 -3.29623 2.55254 0
M  V30 10831 H 1055.04 -2.90959 1.44128 0
M  V30 10832 H 1056.05 -1.63834 4.91303 0
M  V30 10833 H 1052.73 -3.10574 2.79016 0
M  V30 10834 H 1054.12 -1.57671 6.53138 0
M  V30 10835 N 1056.84 -1.516 -0.430713 0
M  V30 10836 C 1058.26 -1.39923 -0.767706 0
M  V30 10837 C 1058.46 -0.486756 -1.95532 0
M  V30 10838 O 1057.51 0.0555965 -2.52439 0
M  V30 10839 C 1058.83 -2.82074 -1.04187 0
M  V30 10840 C 1060.37 -2.9127 -1.1459 0
M  V30 10841 C 1060.85 -4.34342 -1.45295 0
M  V30 10842 N 1062.34 -4.37479 -1.52206 0
M  V30 10843 C 1063.08 -5.45219 -1.77549 0
M  V30 10844 N 1062.57 -6.6311 -2.0064 0
M  V30 10845 N 1064.36 -5.32707 -1.79386 0
M  V30 10846 H 1056.52 -2.09474 0.351351 0
M  V30 10847 H 1058.78 -0.943247 0.0948151 0
M  V30 10848 H 1058.48 -3.50868 -0.241837 0
M  V30 10849 H 1058.36 -3.21805 -1.96777 0
M  V30 10850 H 1060.75 -2.2267 -1.93655 0
M  V30 10851 H 1060.83 -2.55026 -0.198854 0
M  V30 10852 H 1060.47 -5.03494 -0.667559 0
M  V30 10853 H 1060.4 -4.68105 -2.41217 0
M  V30 10854 H 1062.89 -3.52488 -1.36237 0
M  V30 10855 H 1063.2 -7.41012 -2.19366 0
M  V30 10856 H 1061.55 -6.66214 -1.97948 0
M  V30 10857 H 1064.74 -4.39589 -1.60869 0
M  V30 10858 H 1064.91 -6.16752 -1.98799 0
M  V30 10859 N 1058.32 0.686584 -1.41858 0
M  V30 10860 C 1059.74 0.998283 -1.24525 0
M  V30 10861 C 1059.94 2.01006 -0.141007 0
M  V30 10862 O 1058.99 2.47667 0.491648 0
M  V30 10863 C 1060.3 1.51432 -2.59786 0
M  V30 10864 C 1061.85 1.6327 -2.67043 0
M  V30 10865 C 1062.33 2.18274 -4.02642 0
M  V30 10866 N 1063.82 2.25622 -4.04535 0
M  V30 10867 C 1064.55 2.69229 -5.06264 0
M  V30 10868 N 1064.05 3.12375 -6.1838 0
M  V30 10869 N 1065.84 2.68873 -4.93623 0
M  V30 10870 H 1057.99 0.0164825 -2.12394 0
M  V30 10871 H 1060.26 0.0698613 -0.945422 0
M  V30 10872 H 1059.96 0.845426 -3.41388 0
M  V30 10873 H 1059.84 2.49502 -2.82894 0
M  V30 10874 H 1062.22 2.29269 -1.85794 0
M  V30 10875 H 1062.3 0.637221 -2.47736 0
M  V30 10876 H 1061.95 1.52887 -4.84343 0
M  V30 10877 H 1061.88 3.18591 -4.19294 0
M  V30 10878 H 1064.37 1.95186 -3.23591 0
M  V30 10879 H 1064.68 3.44301 -6.91864 0
M  V30 10880 H 1063.03 3.10262 -6.21902 0
M  V30 10881 H 1066.22 2.34521 -4.05114 0
M  V30 10882 H 1066.39 3.02539 -5.7304 0
M  V30 10883 N 1059.8 1.27835 0.921735 0
M  V30 10884 C 1061.21 1.05369 1.19873 0
M  V30 10885 C 1061.41 -0.208997 2.00413 0
M  V30 10886 O 1060.47 -0.912861 2.35421 0
M  V30 10887 C 1061.78 2.29658 1.94108 0
M  V30 10888 C 1063.33 2.34756 2.07023 0
M  V30 10889 C 1063.81 3.5879 2.84664 0
M  V30 10890 N 1065.3 3.59383 2.9223 0
M  V30 10891 C 1066.03 4.52029 3.52785 0
M  V30 10892 N 1065.53 5.54986 4.14683 0
M  V30 10893 N 1067.32 4.39641 3.50246 0
M  V30 10894 H 1059.47 2.08903 0.383819 0
M  V30 10895 H 1061.73 0.919065 0.232429 0
M  V30 10896 H 1061.44 3.21604 1.4235 0
M  V30 10897 H 1061.31 2.35444 2.94696 0
M  V30 10898 H 1063.7 1.43312 2.57965 0
M  V30 10899 H 1063.78 2.32969 1.05636 0
M  V30 10900 H 1063.43 4.50574 2.34404 0
M  V30 10901 H 1063.36 3.57829 3.86349 0
M  V30 10902 H 1065.85 2.84927 2.48244 0
M  V30 10903 H 1066.16 6.21837 4.58845 0
M  V30 10904 H 1064.51 5.58822 4.13211 0
M  V30 10905 H 1067.7 3.58413 3.01094 0
M  V30 10906 H 1067.87 5.12033 3.97148 0
M  V30 10907 N 1061.28 -1.12907 1.09954 0
M  V30 10908 C 1062.69 -1.363 0.830326 0
M  V30 10909 C 1062.89 -1.93772 -0.552694 0
M  V30 10910 O 1061.95 -2.1607 -1.30652 0
M  V30 10911 C 1063.26 -2.30925 1.92598 0
M  V30 10912 C 1064.81 -2.44528 1.95385 0
M  V30 10913 C 1065.28 -3.42464 3.0411 0
M  V30 10914 N 1066.77 -3.50018 3.03384 0
M  V30 10915 C 1067.51 -4.25693 3.84152 0
M  V30 10916 N 1067.01 -5.04476 4.74843 0
M  V30 10917 N 1068.8 -4.21049 3.7239 0
M  V30 10918 H 1060.95 -0.739571 1.99108 0
M  V30 10919 H 1063.21 -0.387983 0.86497 0
M  V30 10920 H 1062.92 -1.95861 2.92115 0
M  V30 10921 H 1062.79 -3.30997 1.80889 0
M  V30 10922 H 1065.18 -2.78875 0.965037 0
M  V30 10923 H 1065.26 -1.44361 2.11172 0
M  V30 10924 H 1064.9 -3.08847 4.03207 0
M  V30 10925 H 1064.83 -4.42448 2.85565 0
M  V30 10926 H 1067.33 -2.93809 2.37665 0
M  V30 10927 H 1067.64 -5.59541 5.33042 0
M  V30 10928 H 1065.98 -5.0369 4.78875 0
M  V30 10929 H 1069.17 -3.5858 3.00895 0
M  V30 10930 H 1069.35 -4.79771 4.35572 0
M  V30 10931 N 1062.75 -0.88754 -1.30232 0
M  V30 10932 C 1063.66 -0.360333 -2.31816 0
M  V30 10933 C 1064.68 0.538741 -1.6545 0
M  V30 10934 O 1065.86 0.431246 -1.96729 0
M  V30 10935 C 1062.92 0.414336 -3.44215 0
M  V30 10936 C 1061.98 -0.514799 -4.26202 0
M  V30 10937 C 1061.21 0.222994 -5.33234 0
M  V30 10938 O 1061.44 1.44871 -5.51696 0
M  V30 10939 O 1060.37 -0.428221 -6.00375 0
M  V30 10940 H 1064.2 -1.20279 -2.78867 0
M  V30 10941 H 1061.78 -0.651459 -1.34448 0
M  V30 10942 H 1063.66 0.852859 -4.12679 0
M  V30 10943 H 1062.34 1.23305 -2.99295 0
M  V30 10944 H 1061.25 -1.00219 -3.60426 0
M  V30 10945 H 1062.58 -1.29959 -4.74733 0
M  V30 10946 N 1064.23 1.43628 -0.648757 0
M  V30 10947 C 1065.48 2.01864 -0.160336 0
M  V30 10948 C 1065.81 1.51148 1.22412 0
M  V30 10949 O 1065.06 0.693168 1.83013 0
M  V30 10950 C 1065.36 3.57214 -0.115282 0
M  V30 10951 C 1065.03 4.27258 -1.44088 0
M  V30 10952 C 1063.69 4.46109 -1.8039 0
M  V30 10953 C 1066.04 4.66962 -2.31508 0
M  V30 10954 C 1063.37 5.01928 -3.03785 0
M  V30 10955 C 1065.72 5.24148 -3.54191 0
M  V30 10956 C 1064.39 5.41216 -3.90694 0
M  V30 10957 H 1063.66 0.738674 -0.0586712 0
M  V30 10958 H 1066.3 1.72163 -0.838578 0
M  V30 10959 H 1064.61 3.86431 0.646395 0
M  V30 10960 H 1066.3 4.00025 0.279425 0
M  V30 10961 H 1062.89 4.12928 -1.14842 0
M  V30 10962 H 1067.08 4.52095 -2.04753 0
M  V30 10963 H 1062.33 5.13328 -3.32122 0
M  V30 10964 H 1066.51 5.53861 -4.22151 0
M  V30 10965 H 1064.14 5.84234 -4.8639 0
M  V30 10966 N 1065.71 0.390394 1.52688 0
M  V30 10967 C 1066.66 -0.444229 2.26485 0
M  V30 10968 C 1067.63 -1.05688 1.28138 0
M  V30 10969 O 1068.81 -1.0847 1.56968 0
M  V30 10970 C 1065.95 -1.56501 3.07574 0
M  V30 10971 C 1065.07 -0.975111 4.20851 0
M  V30 10972 C 1064.2 -2.06704 4.89333 0
M  V30 10973 C 1063.24 -1.45309 5.94602 0
M  V30 10974 N 1062.38 -2.48437 6.56676 0
M  V30 10975 H 1067.22 0.191535 2.97384 0
M  V30 10976 H 1064.75 0.106287 1.46716 0
M  V30 10977 H 1066.71 -2.22558 3.52879 0
M  V30 10978 H 1065.34 -2.17107 2.38881 0
M  V30 10979 H 1064.39 -0.204109 3.79852 0
M  V30 10980 H 1065.71 -0.486465 4.96422 0
M  V30 10981 H 1064.86 -2.80528 5.37949 0
M  V30 10982 H 1063.6 -2.58928 4.13289 0
M  V30 10983 H 1062.6 -0.700091 5.45324 0
M  V30 10984 H 1063.83 -0.938775 6.7258 0
M  V30 10985 H 1061.77 -2.99829 5.83471 0
M  V30 10986 H 1061.69 -2.04331 7.27863 0
M  V30 10987 H 1062.96 -3.21888 7.09935 0
M  V30 10988 N 1067.19 -1.57141 0.120249 0
M  V30 10989 C 1068.15 -2.14213 -0.815185 0
M  V30 10990 C 1069.15 -1.07731 -1.19376 0
M  V30 10991 O 1070.34 -1.33502 -1.11906 0
M  V30 10992 C 1067.47 -2.68339 -2.10255 0
M  V30 10993 H 1068.67 -2.98197 -0.319166 0
M  V30 10994 H 1066.22 -1.55767 -0.128997 0
M  V30 10995 H 1066.95 -1.87946 -2.64285 0
M  V30 10996 H 1066.74 -3.46216 -1.84057 0
M  V30 10997 H 1068.23 -3.124 -2.77121 0
M  V30 10998 N 1068.67 0.153526 -1.5685 0
M  V30 10999 C 1070.08 0.505939 -1.51368 0
M  V30 11000 C 1070.28 1.83721 -0.82757 0
M  V30 11001 O 1069.34 2.49385 -0.395364 0
M  V30 11002 C 1070.65 0.522269 -2.9613 0
M  V30 11003 C 1072.2 0.608238 -3.07033 0
M  V30 11004 C 1072.67 0.655292 -4.53288 0
M  V30 11005 N 1074.17 0.717695 -4.57606 0
M  V30 11006 C 1074.9 0.774977 -5.68139 0
M  V30 11007 N 1074.4 0.792003 -6.88258 0
M  V30 11008 N 1076.19 0.81536 -5.56155 0
M  V30 11009 H 1068.34 -0.71919 -1.99853 0
M  V30 11010 H 1070.6 -0.261466 -0.91123 0
M  V30 11011 H 1070.31 -0.387595 -3.49558 0
M  V30 11012 H 1070.18 1.3625 -3.51733 0
M  V30 11013 H 1072.57 1.50852 -2.53629 0
M  V30 11014 H 1072.65 -0.259014 -2.54485 0
M  V30 11015 H 1072.3 -0.240809 -5.07329 0
M  V30 11016 H 1072.23 1.53894 -5.03611 0
M  V30 11017 H 1074.72 0.7121 -3.7113 0
M  V30 11018 H 1075.03 0.837378 -7.6825 0
M  V30 11019 H 1073.37 0.759986 -6.90832 0
M  V30 11020 H 1076.57 0.799183 -4.61227 0
M  V30 11021 H 1076.74 0.856537 -6.42314 0
M  V30 11022 N 1070.14 1.51827 0.422667 0
M  V30 11023 C 1071.11 1.7359 1.49663 0
M  V30 11024 C 1072.11 0.605811 1.48952 0
M  V30 11025 O 1073.3 0.87354 1.50715 0
M  V30 11026 C 1070.43 1.80585 2.8914 0
M  V30 11027 H 1071.62 2.69453 1.31664 0
M  V30 11028 H 1069.18 1.42038 0.652298 0
M  V30 11029 H 1069.91 0.865895 3.12526 0
M  V30 11030 H 1069.7 2.62729 2.9106 0
M  V30 11031 H 1071.19 1.99212 3.67021 0
M  V30 11032 N 1071.62 -0.679052 1.4222 0
M  V30 11033 C 1072.59 -1.77448 1.45069 0
M  V30 11034 C 1073.59 -1.57189 0.338882 0
M  V30 11035 O 1074.78 -1.63559 0.599519 0
M  V30 11036 C 1071.91 -3.1603 1.27819 0
M  V30 11037 H 1073.1 -1.7631 2.426 0
M  V30 11038 H 1070.65 -0.888277 1.28605 0
M  V30 11039 H 1071.39 -3.22796 0.311946 0
M  V30 11040 H 1071.17 -3.32138 2.08391 0
M  V30 11041 H 1072.66 -3.9596 1.32686 0
M  V30 11042 N 1073.1 -1.28322 -0.914942 0
M  V30 11043 C 1074.01 -1.13993 -2.05043 0
M  V30 11044 C 1075.03 -0.0667921 -1.73872 0
M  V30 11045 O 1076.2 -0.275845 -1.99502 0
M  V30 11046 C 1073.27 -0.801856 -3.373 0
M  V30 11047 C 1072.33 -1.95723 -3.82088 0
M  V30 11048 C 1071.56 -1.63519 -5.08033 0
M  V30 11049 O 1071.78 -0.54899 -5.67752 0
M  V30 11050 O 1070.72 -2.47844 -5.48504 0
M  V30 11051 H 1074.54 -2.09313 -2.2005 0
M  V30 11052 H 1072.13 -1.0763 -1.03616 0
M  V30 11053 H 1074.01 -0.627214 -4.16706 0
M  V30 11054 H 1072.69 0.121696 -3.23471 0
M  V30 11055 H 1071.59 -2.18702 -3.03514 0
M  V30 11056 H 1072.93 -2.86144 -4.00478 0
M  V30 11057 N 1074.58 1.12322 -1.10551 0
M  V30 11058 C 1075.53 2.18087 -0.755424 0
M  V30 11059 C 1076.5 1.6391 0.268805 0
M  V30 11060 O 1077.68 1.90227 0.147813 0
M  V30 11061 C 1074.82 3.4455 -0.194713 0
M  V30 11062 C 1073.93 4.12775 -1.27439 0
M  V30 11063 C 1073.07 5.26891 -0.675194 0
M  V30 11064 C 1072.11 5.86985 -1.73536 0
M  V30 11065 N 1071.24 6.92512 -1.15635 0
M  V30 11066 H 1076.08 2.47379 -1.66155 0
M  V30 11067 H 1073.62 1.21452 -0.829924 0
M  V30 11068 H 1075.58 4.16936 0.148275 0
M  V30 11069 H 1074.21 3.15671 0.674638 0
M  V30 11070 H 1073.26 3.38556 -1.73448 0
M  V30 11071 H 1074.57 4.53506 -2.07687 0
M  V30 11072 H 1073.73 6.06046 -0.281723 0
M  V30 11073 H 1072.47 4.87442 0.158708 0
M  V30 11074 H 1071.47 5.06517 -2.13825 0
M  V30 11075 H 1072.7 6.28505 -2.57213 0
M  V30 11076 H 1070.64 6.55098 -0.343928 0
M  V30 11077 H 1070.56 7.31848 -1.89565 0
M  V30 11078 H 1071.83 7.75492 -0.789463 0
M  V30 11079 N 1076.06 0.894434 1.2976 0
M  V30 11080 C 1077.47 0.566892 1.77885 0
M  V30 11081 C 1077.82 -0.917289 1.73437 0
M  V30 11082 O 1076.94 -1.71707 1.31703 0
M  V30 11083 C 1077.54 1.02227 3.2301 0
M  V30 11084 C 1076.1 0.745978 3.68934 0
M  V30 11085 C 1075.24 1.19993 2.49994 0
M  V30 11086 H 1078.2 1.0777 1.16496 0
M  V30 11087 H 1078.22 0.355281 3.78838 0
M  V30 11088 H 1077.73 2.1025 3.26215 0
M  V30 11089 H 1075.83 -0.321866 3.71207 0
M  V30 11090 H 1075.94 1.34017 4.59974 0
M  V30 11091 H 1074.31 0.619047 2.47063 0
M  V30 11092 H 1075.09 2.28811 2.55931 0
M  V30 11093 N 1077.53 -1.43282 0.656365 0
M  V30 11094 C 1078.5 -2.29188 -0.0239173 0
M  V30 11095 C 1079.5 -1.42373 -0.747436 0
M  V30 11096 O 1080.69 -1.63969 -0.588213 0
M  V30 11097 C 1077.82 -3.24501 -1.0446 0
M  V30 11098 H 1079.01 -2.9083 0.731978 0
M  V30 11099 H 1076.57 -1.50614 0.417752 0
M  V30 11100 H 1077.3 -2.6776 -1.82962 0
M  V30 11101 H 1077.09 -3.88509 -0.52942 0
M  V30 11102 H 1078.58 -3.88971 -1.51958 0
M  V30 11103 N 1079.01 -0.398486 -1.52479 0
M  V30 11104 C 1080.42 0.0735015 -1.86555 0
M  V30 11105 C 1080.78 1.45361 -1.31775 0
M  V30 11106 O 1079.9 2.0632 -0.652759 0
M  V30 11107 C 1080.5 0.140152 -3.3851 0
M  V30 11108 C 1079.05 0.556451 -3.72264 0
M  V30 11109 C 1078.2 -0.275792 -2.75925 0
M  V30 11110 H 1081.15 -0.615991 -1.46257 0
M  V30 11111 H 1081.17 0.957507 -3.68255 0
M  V30 11112 H 1080.69 -0.864442 -3.7835 0
M  V30 11113 H 1078.79 1.56808 -3.37997 0
M  V30 11114 H 1078.9 0.308227 -4.78107 0
M  V30 11115 H 1077.26 0.260304 -2.53366 0
M  V30 11116 H 1078.05 -1.27854 -3.18604 0
M  V30 11117 N 1080.49 1.57075 -0.12858 0
M  V30 11118 C 1081.72 2.00305 0.537839 0
M  V30 11119 C 1082.14 1.00787 1.58819 0
M  V30 11120 O 1081.5 -0.0190839 1.8129 0
M  V30 11121 C 1081.55 3.42371 1.13201 0
M  V30 11122 O 1080.65 3.45786 2.24735 0
M  V30 11123 H 1079.99 0.650456 0.133428 0
M  V30 11124 H 1082.52 2.03415 -0.219882 0
M  V30 11125 H 1082.53 3.80783 1.4652 0
M  V30 11126 H 1081.21 4.14315 0.362713 0
M  V30 11127 H 1079.78 3.19201 1.92783 0
M  V30 11128 N 1081.97 -0.145205 1.5693 0
M  V30 11129 C 1083.25 -0.88631 1.74367 0
M  V30 11130 C 1083.63 -1.99259 0.697081 0
M  V30 11131 O 1082.97 -2.26732 -0.28368 0
M  V30 11132 C 1083.18 -1.42712 3.18488 0
M  V30 11133 C 1084.53 -1.88982 3.80225 0
M  V30 11134 O 1085.56 -1.5245 3.21928 0
M  V30 11135 O 1084.42 -2.56361 4.8264 0
M  V30 11136 H 1081.51 -0.418979 0.713011 0
M  V30 11137 H 1084.06 -0.130991 1.69194 0
M  V30 11138 H 1082.83 -0.632165 3.8616 0
M  V30 11139 H 1082.45 -2.24589 3.28094 0
M  V30 11140 N 1083.45 -1.52049 -0.414609 0
M  V30 11141 C 1084.86 -1.40729 -0.752822 0
M  V30 11142 C 1085.06 -0.507468 -1.95005 0
M  V30 11143 O 1084.12 0.0288189 -2.52484 0
M  V30 11144 C 1085.43 -2.83163 -1.01189 0
M  V30 11145 C 1086.98 -2.92469 -1.11494 0
M  V30 11146 C 1087.46 -4.35859 -1.4068 0
M  V30 11147 N 1088.95 -4.39069 -1.47557 0
M  V30 11148 C 1089.68 -5.47072 -1.71756 0
M  V30 11149 N 1089.18 -6.65201 -1.93595 0
M  V30 11150 N 1090.97 -5.3458 -1.73726 0
M  V30 11151 H 1083.12 -2.09089 0.373549 0
M  V30 11152 H 1085.38 -0.942188 0.104814 0
M  V30 11153 H 1085.09 -3.51104 -0.204609 0
M  V30 11154 H 1084.96 -3.23874 -1.93353 0
M  V30 11155 H 1087.35 -2.24711 -1.91282 0
M  V30 11156 H 1087.43 -2.55222 -0.171794 0
M  V30 11157 H 1087.08 -5.04174 -0.614119 0
M  V30 11158 H 1087.01 -4.70637 -2.36238 0
M  V30 11159 H 1089.5 -3.53913 -1.32491 0
M  V30 11160 H 1089.81 -7.43297 -2.11495 0
M  V30 11161 H 1088.16 -6.68276 -1.90871 0
M  V30 11162 H 1091.35 -4.41271 -1.56198 0
M  V30 11163 H 1091.52 -6.18826 -1.92246 0
M  V30 11164 N 1084.93 0.6715 -1.42579 0
M  V30 11165 C 1085.89 1.76676 -1.46008 0
M  V30 11166 C 1086.89 1.57007 -0.347213 0
M  V30 11167 O 1088.08 1.63238 -0.608185 0
M  V30 11168 C 1085.21 3.15348 -1.29494 0
M  V30 11169 H 1086.4 1.75021 -2.43531 0
M  V30 11170 H 1083.96 0.881444 -1.29075 0
M  V30 11171 H 1084.69 3.22626 -0.32906 0
M  V30 11172 H 1084.48 3.31028 -2.10149 0
M  V30 11173 H 1085.97 3.95251 -1.34784 0
M  V30 11174 N 1086.4 1.28806 0.908124 0
M  V30 11175 C 1087.65 1.16058 1.65454 0
M  V30 11176 C 1087.97 -0.290057 1.92831 0
M  V30 11177 O 1087.24 -1.20001 1.54843 0
M  V30 11178 H 1085.82 0.426522 0.61326 0
M  V30 11179 H 1088.48 1.61614 1.08936 0
M  V30 11180 H 1087.58 1.70437 2.61453 0
M  V30 11181 N 1087.88 -1.11734 1.11145 0
M  V30 11182 C 1089.16 -1.79795 0.770261 0
M  V30 11183 C 1089.54 -1.97624 -0.742158 0
M  V30 11184 O 1088.89 -1.55847 -1.67105 0
M  V30 11185 C 1089.1 -3.13684 1.52982 0
M  V30 11186 C 1090.44 -3.88771 1.70711 0
M  V30 11187 O 1091.47 -3.23363 1.49381 0
M  V30 11188 O 1090.33 -5.06134 2.06132 0
M  V30 11189 H 1087.42 -0.778617 0.27872 0
M  V30 11190 H 1089.97 -1.18504 1.2147 0
M  V30 11191 H 1088.74 -2.96043 2.55879 0
M  V30 11192 H 1088.36 -3.82687 1.07873 0
M  V30 11193 N 1089.36 -0.901303 -1.29284 0
M  V30 11194 C 1090.64 -0.44747 -1.90413 0
M  V30 11195 C 1091.02 1.07298 -1.81797 0
M  V30 11196 O 1090.36 1.91555 -1.24574 0
M  V30 11197 C 1090.57 -0.963849 -3.35427 0
M  V30 11198 C 1091.92 -1.00851 -4.12449 0
M  V30 11199 O 1092.95 -0.91163 -3.44337 0
M  V30 11200 O 1091.81 -1.15426 -5.34171 0
M  V30 11201 H 1088.9 -0.13976 -0.815105 0
M  V30 11202 H 1091.45 -0.991274 -1.37738 0
M  V30 11203 H 1090.22 -2.00782 -3.3586 0
M  V30 11204 H 1089.84 -0.400149 -3.95581 0
M  V30 11205 N 1090.84 1.42931 -0.663954 0
M  V30 11206 C 1091.8 2.29197 0.0117626 0
M  V30 11207 C 1092.8 1.42767 0.739875 0
M  V30 11208 O 1093.99 1.64278 0.579509 0
M  V30 11209 C 1091.12 3.2505 1.02738 0
M  V30 11210 H 1092.32 2.90438 -0.747391 0
M  V30 11211 H 1089.87 1.5039 -0.425733 0
M  V30 11212 H 1090.6 2.68726 1.8154 0
M  V30 11213 H 1090.39 3.88785 0.508809 0
M  V30 11214 H 1091.88 3.89771 1.49893 0
M  V30 11215 N 1092.32 0.406567 1.52266 0
M  V30 11216 C 1093.28 -0.408251 2.25535 0
M  V30 11217 C 1094.28 -0.975795 1.27808 0
M  V30 11218 O 1095.47 -0.855077 1.5177 0
M  V30 11219 C 1092.6 -1.57443 3.02365 0
M  V30 11220 H 1093.79 0.233459 2.9899 0
M  V30 11221 H 1091.35 0.159032 1.55489 0
M  V30 11222 H 1092.08 -2.25308 2.33252 0
M  V30 11223 H 1091.87 -1.17399 3.74112 0
M  V30 11224 H 1093.36 -2.15088 3.57948 0
M  V30 11225 N 1093.79 -1.57004 0.136909 0
M  V30 11226 C 1095.21 -1.58082 -0.21958 0
M  V30 11227 C 1095.41 -1.15065 -1.65415 0
M  V30 11228 O 1094.47 -0.846284 -2.37896 0
M  V30 11229 C 1095.78 -3.00685 0.0300112 0
M  V30 11230 C 1097.33 -3.12981 -0.0344899 0
M  V30 11231 C 1097.8 -4.57615 0.187639 0
M  V30 11232 N 1099.29 -4.63005 0.134219 0
M  V30 11233 C 1100.03 -5.72712 0.280743 0
M  V30 11234 N 1099.52 -6.91104 0.48443 0
M  V30 11235 N 1101.32 -5.61673 0.219055 0
M  V30 11236 H 1093.47 -1.83262 1.07372 0
M  V30 11237 H 1095.73 -0.847776 0.424241 0
M  V30 11238 H 1095.44 -3.36509 1.02247 0
M  V30 11239 H 1095.31 -3.70762 -0.693918 0
M  V30 11240 H 1097.7 -2.77004 -1.01749 0
M  V30 11241 H 1097.78 -2.45411 0.721608 0
M  V30 11242 H 1097.42 -4.94295 1.16769 0
M  V30 11243 H 1097.35 -5.23299 -0.588661 0
M  V30 11244 H 1099.84 -3.77895 -0.0189681 0
M  V30 11245 H 1100.16 -7.7057 0.586613 0
M  V30 11246 H 1098.5 -6.93047 0.520627 0
M  V30 11247 H 1101.69 -4.68061 0.0607606 0
M  V30 11248 H 1101.87 -6.47125 0.336683 0
M  V30 11249 O 1095.31 0.00197522 -1.615 0
M  V30 11250 H 1096 0.618911 -1.83546 0
M  V30 END ATOM
M  V30 BEGIN BOND
M  V30 END BOND
M  V30 END CTAB
M  END
$$$$
